# Generated by pormake.
# Topology unm, (4)-cn, num edge types: 1
# Building blocks:
#     Node 0, Type 0, BuildingBlock: NAHDIM_clean_sbu_0, # of connection points: 4
#     Node 1, Type 0, BuildingBlock: NAHDIM_clean_sbu_0, # of connection points: 4
#     Node 2, Type 0, BuildingBlock: NAHDIM_clean_sbu_0, # of connection points: 4
#     Node 3, Type 0, BuildingBlock: NAHDIM_clean_sbu_0, # of connection points: 4
#     Node 4, Type 0, BuildingBlock: NAHDIM_clean_sbu_0, # of connection points: 4
#     Node 5, Type 0, BuildingBlock: NAHDIM_clean_sbu_0, # of connection points: 4
#     Node 6, Type 0, BuildingBlock: NAHDIM_clean_sbu_0, # of connection points: 4
#     Node 7, Type 0, BuildingBlock: NAHDIM_clean_sbu_0, # of connection points: 4
#     Edge 8, Type (0, 0), BuildingBlock: FUNLAD_clean_linker_1, # of connection points: 2
#     Edge 9, Type (0, 0), BuildingBlock: FUNLAD_clean_linker_1, # of connection points: 2
#     Edge 10, Type (0, 0), BuildingBlock: FUNLAD_clean_linker_1, # of connection points: 2
#     Edge 11, Type (0, 0), BuildingBlock: FUNLAD_clean_linker_1, # of connection points: 2
#     Edge 12, Type (0, 0), BuildingBlock: FUNLAD_clean_linker_1, # of connection points: 2
#     Edge 13, Type (0, 0), BuildingBlock: FUNLAD_clean_linker_1, # of connection points: 2
#     Edge 14, Type (0, 0), BuildingBlock: FUNLAD_clean_linker_1, # of connection points: 2
#     Edge 15, Type (0, 0), BuildingBlock: FUNLAD_clean_linker_1, # of connection points: 2
#     Edge 16, Type (0, 0), BuildingBlock: FUNLAD_clean_linker_1, # of connection points: 2
#     Edge 17, Type (0, 0), BuildingBlock: FUNLAD_clean_linker_1, # of connection points: 2
#     Edge 18, Type (0, 0), BuildingBlock: FUNLAD_clean_linker_1, # of connection points: 2
#     Edge 19, Type (0, 0), BuildingBlock: FUNLAD_clean_linker_1, # of connection points: 2
#     Edge 20, Type (0, 0), BuildingBlock: FUNLAD_clean_linker_1, # of connection points: 2
#     Edge 21, Type (0, 0), BuildingBlock: FUNLAD_clean_linker_1, # of connection points: 2
#     Edge 22, Type (0, 0), BuildingBlock: FUNLAD_clean_linker_1, # of connection points: 2
#     Edge 23, Type (0, 0), BuildingBlock: FUNLAD_clean_linker_1, # of connection points: 2
# Relax obj value: 0.220
# Max RMSD: 0.179
# Mean RMSD: 0.179
data_MOF--net-unm--node1-NAHDIM_clean_sbu_0--edge1-FUNLAD_clean_linker_1
_symmetry_space_group_name_H-M    P1
_symmetry_Int_Tables_number       1
_symmetry_cell_setting            triclinic
loop_
_symmetry_equiv_pos_as_xyz
'x, y, z'
_cell_length_a     27.292582
_cell_length_b     27.299506
_cell_length_c     43.238426
_cell_angle_alpha  90.036147
_cell_angle_beta   90.001654
_cell_angle_gamma 89.884087
loop_
_atom_site_label
_atom_site_type_symbol
_atom_site_fract_x
_atom_site_fract_y
_atom_site_fract_z
_atom_type_partial_charge
C0 C 0.22979 0.21246 0.2027 0.0
O1 O 0.22134 0.17249 0.18669 0.0
O2 O 0.08375 0.19971 0.20763 0.0
Zn3 Zn 0.13242 0.2386 0.18292 0.0
O4 O 0.14355 0.21111 0.14026 0.0
C5 C 0.0801 0.3244 0.20145 0.0
O6 O 0.07637 0.29993 0.22746 0.0
O7 O 0.19663 0.24495 0.20495 0.0
C8 C 0.11887 0.22677 0.1174 0.0
O9 O 0.08471 0.26005 0.12178 0.0
C10 C 0.04429 0.18726 0.19429 0.0
O11 O 0.0407 0.19234 0.16418 0.0
O12 O 0.10366 0.30596 0.17892 0.0
C13 C 0.27558 0.73418 0.69062 0.0
O14 O 0.31789 0.71127 0.69119 0.0
O15 O 0.27684 0.60033 0.68816 0.0
Zn16 Zn 0.24287 0.64698 0.65928 0.0
O17 O 0.27706 0.64956 0.61809 0.0
C18 C 0.15148 0.60168 0.67501 0.0
O19 O 0.17212 0.59792 0.70236 0.0
O20 O 0.23883 0.71385 0.67805 0.0
C21 C 0.26223 0.62295 0.59583 0.0
O22 O 0.22493 0.59343 0.59994 0.0
C23 C 0.27708 0.55551 0.6804 0.0
O24 O 0.25915 0.54284 0.65337 0.0
O25 O 0.1743 0.62245 0.6531 0.0
C26 C 0.78377 0.72188 0.17763 0.0
O27 O 0.79002 0.71455 0.14789 0.0
O28 O 0.93189 0.78017 0.20079 0.0
Zn29 Zn 0.88374 0.74719 0.1722 0.0
O30 O 0.86962 0.78483 0.13288 0.0
C31 C 0.95668 0.67409 0.15686 0.0
O32 O 0.98549 0.71222 0.15454 0.0
O33 O 0.81954 0.73684 0.19391 0.0
C34 C 0.89496 0.78263 0.10829 0.0
O35 O 0.93531 0.75645 0.10772 0.0
C36 C 0.96782 0.80517 0.19098 0.0
O37 O 0.97039 0.81638 0.16148 0.0
O38 O 0.91151 0.6801 0.16305 0.0
C39 C 0.70614 0.25031 0.68657 0.0
O40 O 0.66871 0.26546 0.67006 0.0
O41 O 0.71737 0.39718 0.6955 0.0
Zn42 Zn 0.74874 0.34391 0.6703 0.0
O43 O 0.72232 0.34238 0.6271 0.0
C44 C 0.83015 0.40402 0.65876 0.0
O45 O 0.79495 0.43253 0.64839 0.0
O46 O 0.74297 0.27806 0.69025 0.0
C47 C 0.74 0.31151 0.60816 0.0
O48 O 0.774 0.28082 0.6175 0.0
C49 C 0.68833 0.42872 0.68398 0.0
O50 O 0.67288 0.42344 0.65544 0.0
O51 O 0.8197 0.3616 0.66867 0.0
C52 C 0.69706 0.25575 0.27643 0.0
O53 O 0.65454 0.24717 0.26334 0.0
O54 O 0.57858 0.28591 0.30481 0.0
Zn55 Zn 0.63702 0.26577 0.32989 0.0
O56 O 0.64397 0.3023 0.36998 0.0
C57 C 0.58265 0.18206 0.34819 0.0
O58 O 0.54775 0.21498 0.35088 0.0
O59 O 0.69875 0.26727 0.30489 0.0
C60 C 0.60751 0.31733 0.38567 0.0
O61 O 0.56305 0.31269 0.37455 0.0
C62 C 0.55721 0.32688 0.30136 0.0
O63 O 0.57457 0.36621 0.31493 0.0
O64 O 0.62532 0.19532 0.34018 0.0
C65 C 0.258 0.23782 0.80937 0.0
O66 O 0.28002 0.24146 0.83629 0.0
O67 O 0.22734 0.07812 0.80642 0.0
Zn68 Zn 0.24391 0.13924 0.82958 0.0
O69 O 0.20027 0.14754 0.86672 0.0
C70 C 0.32401 0.09186 0.85807 0.0
O71 O 0.28851 0.06214 0.8663 0.0
O72 O 0.23903 0.19735 0.80139 0.0
C73 C 0.21829 0.16619 0.89107 0.0
O74 O 0.26444 0.17977 0.89129 0.0
C75 C 0.18728 0.06725 0.79322 0.0
O76 O 0.15021 0.09791 0.7942 0.0
O77 O 0.31384 0.13006 0.84263 0.0
C78 C 0.31937 0.75411 0.27259 0.0
O79 O 0.36086 0.76408 0.25862 0.0
O80 O 0.43919 0.71902 0.29922 0.0
Zn81 Zn 0.38302 0.74547 0.32444 0.0
O82 O 0.37703 0.71263 0.36577 0.0
C83 C 0.43949 0.83335 0.3323 0.0
O84 O 0.47648 0.80367 0.32701 0.0
O85 O 0.31965 0.74257 0.30105 0.0
C86 C 0.41224 0.71449 0.385 0.0
O87 O 0.45365 0.73518 0.37692 0.0
C88 C 0.46505 0.68153 0.30543 0.0
O89 O 0.45349 0.65364 0.32901 0.0
O90 O 0.39614 0.81668 0.33246 0.0
C91 C 0.75727 0.75043 0.80256 0.0
O92 O 0.79919 0.76515 0.81414 0.0
O93 O 0.73995 0.89628 0.79763 0.0
Zn94 Zn 0.72234 0.84231 0.82694 0.0
O95 O 0.76994 0.8395 0.8625 0.0
C96 C 0.64906 0.90251 0.85319 0.0
O97 O 0.68683 0.93206 0.85559 0.0
O98 O 0.71961 0.77759 0.805 0.0
C99 C 0.75454 0.83266 0.88984 0.0
O100 O 0.70744 0.82664 0.89476 0.0
C101 C 0.77921 0.92107 0.79888 0.0
O102 O 0.8136 0.90894 0.81866 0.0
O103 O 0.65517 0.85983 0.84217 0.0
H104 H 0.16482 0.18875 0.08312 0.0
C105 C 0.13182 0.21068 0.08601 0.0
H106 H 0.07362 0.2474 0.06363 0.0
H107 H 0.19814 0.28287 0.94244 0.0
H108 H 0.18168 0.36574 0.95994 0.0
H109 H 0.13957 0.38081 0.00953 0.0
H110 H 0.11338 0.31325 0.04178 0.0
C111 C 0.10607 0.22463 0.06105 0.0
C112 C 0.12529 0.21524 0.02943 0.0
C113 C 0.14009 0.25535 0.01086 0.0
C114 C 0.16503 0.24673 0.98254 0.0
C115 C 0.17961 0.28737 0.96439 0.0
C116 C 0.1703 0.33514 0.97411 0.0
C117 C 0.14654 0.34361 0.00201 0.0
C118 C 0.13165 0.30438 0.0203 0.0
H119 H 0.14923 0.16179 0.91762 0.0
C120 C 0.18761 0.17222 0.91879 0.0
H121 H 0.2441 0.20187 0.94639 0.0
H122 H 0.09246 0.13072 0.05632 0.0
H123 H 0.10886 0.0477 0.03887 0.0
H124 H 0.15724 0.03255 0.99161 0.0
H125 H 0.18866 0.10014 0.96123 0.0
C126 C 0.20617 0.18998 0.94523 0.0
C127 C 0.17525 0.19813 0.97297 0.0
C128 C 0.15837 0.15796 0.99079 0.0
C129 C 0.13236 0.16661 0.01875 0.0
C130 C 0.1141 0.12606 0.03555 0.0
C131 C 0.12294 0.07828 0.02568 0.0
C132 C 0.15004 0.06976 0.99902 0.0
C133 C 0.1677 0.10896 0.98171 0.0
H134 H 0.26877 0.60439 0.54653 0.0
C135 C 0.28406 0.62693 0.56488 0.0
H136 H 0.334 0.68338 0.57597 0.0
H137 H 0.40298 0.60067 0.43682 0.0
H138 H 0.43259 0.52916 0.46453 0.0
H139 H 0.41858 0.52052 0.52065 0.0
H140 H 0.37453 0.58321 0.54935 0.0
C141 C 0.31959 0.65911 0.55825 0.0
C142 C 0.33444 0.66712 0.52565 0.0
C143 C 0.36128 0.63074 0.50946 0.0
C144 C 0.37039 0.63629 0.47729 0.0
C145 C 0.39591 0.59874 0.4614 0.0
C146 C 0.41297 0.55744 0.47701 0.0
C147 C 0.40499 0.55253 0.5086 0.0
C148 C 0.37946 0.58863 0.52476 0.0
H149 H 0.4364 0.70142 0.43294 0.0
C150 C 0.40553 0.69837 0.41716 0.0
H151 H 0.32985 0.68382 0.41286 0.0
H152 H 0.28451 0.74501 0.55047 0.0
H153 H 0.2575 0.8178 0.52319 0.0
H154 H 0.27431 0.82802 0.46751 0.0
H155 H 0.31806 0.76541 0.43876 0.0
C156 C 0.36163 0.68464 0.428 0.0
C157 C 0.35336 0.67863 0.46166 0.0
C158 C 0.32802 0.71578 0.47811 0.0
C159 C 0.3187 0.71009 0.5102 0.0
C160 C 0.29283 0.74752 0.52606 0.0
C161 C 0.2771 0.78953 0.51069 0.0
C162 C 0.28654 0.79527 0.47934 0.0
C163 C 0.31166 0.75898 0.46311 0.0
H164 H 0.83729 0.81707 0.08015 0.0
C165 C 0.87461 0.80307 0.07956 0.0
H166 H 0.93535 0.78512 0.05154 0.0
H167 H 0.79936 0.73617 0.9374 0.0
H168 H 0.83697 0.65766 0.94843 0.0
H169 H 0.89106 0.64719 0.99365 0.0
H170 H 0.90783 0.71508 0.02805 0.0
C171 C 0.8985 0.80021 0.05248 0.0
C172 C 0.87201 0.80887 0.02294 0.0
C173 C 0.86357 0.76886 0.00268 0.0
C174 C 0.83253 0.77489 0.97657 0.0
C175 C 0.82321 0.73391 0.95732 0.0
C176 C 0.84441 0.68851 0.96345 0.0
C177 C 0.87484 0.68261 0.9889 0.0
C178 C 0.88424 0.72206 0.00845 0.0
H179 H 0.82867 0.83009 0.91026 0.0
C180 C 0.78972 0.82993 0.91555 0.0
H181 H 0.73612 0.82756 0.95084 0.0
H182 H 0.88765 0.8948 0.05405 0.0
H183 H 0.85103 0.97385 0.04244 0.0
H184 H 0.79525 0.98371 0.99794 0.0
H185 H 0.7761 0.91467 0.96462 0.0
C186 C 0.77483 0.82632 0.94501 0.0
C187 C 0.81045 0.82098 0.97068 0.0
C188 C 0.82065 0.86149 0.9901 0.0
C189 C 0.852 0.85559 0.01607 0.0
C190 C 0.86286 0.89698 0.03457 0.0
C191 C 0.84239 0.94261 0.02802 0.0
C192 C 0.81104 0.94818 0.00294 0.0
C193 C 0.80026 0.90825 0.98406 0.0
H194 H 0.58166 0.34247 0.43136 0.0
C195 C 0.61402 0.3325 0.41808 0.0
H196 H 0.69031 0.31881 0.41952 0.0
H197 H 0.72693 0.42531 0.54719 0.0
H198 H 0.75513 0.48898 0.51236 0.0
H199 H 0.74062 0.48283 0.45616 0.0
H200 H 0.69796 0.41279 0.43442 0.0
C201 C 0.6575 0.32852 0.43238 0.0
C202 C 0.66206 0.33428 0.46638 0.0
C203 C 0.68639 0.37569 0.47869 0.0
C204 C 0.69434 0.37941 0.5111 0.0
C205 C 0.7196 0.42075 0.52276 0.0
C206 C 0.736 0.45757 0.50303 0.0
C207 C 0.72786 0.45409 0.47138 0.0
C208 C 0.70341 0.41369 0.45921 0.0
H209 H 0.739 0.28227 0.56073 0.0
C210 C 0.72359 0.31026 0.57578 0.0
H211 H 0.67702 0.37217 0.57864 0.0
H212 H 0.61546 0.24875 0.45026 0.0
H213 H 0.58356 0.18748 0.48531 0.0
H214 H 0.59253 0.19691 0.54177 0.0
H215 H 0.63435 0.2674 0.56342 0.0
C216 C 0.69141 0.34278 0.56429 0.0
C217 C 0.67797 0.34162 0.53101 0.0
C218 C 0.65138 0.30142 0.51885 0.0
C219 C 0.64435 0.29714 0.48641 0.0
C220 C 0.62037 0.25497 0.47476 0.0
C221 C 0.60206 0.21928 0.49463 0.0
C222 C 0.60725 0.2245 0.52641 0.0
C223 C 0.6316 0.26498 0.53851 0.0
H224 H 0.30557 0.19132 0.21445 0.0
C225 C 0.2784 0.22031 0.21659 0.0
H226 H 0.26425 0.29254 0.23193 0.0
H227 H 0.4626 0.22608 0.3118 0.0
H228 H 0.40888 0.16912 0.33804 0.0
H229 H 0.32314 0.15881 0.32135 0.0
H230 H 0.29059 0.20555 0.27834 0.0
C231 C 0.29037 0.2625 0.2307 0.0
C232 C 0.34085 0.27107 0.24234 0.0
C233 C 0.35904 0.24393 0.26783 0.0
C234 C 0.40832 0.25024 0.2776 0.0
C235 C 0.42558 0.2226 0.30316 0.0
C236 C 0.39507 0.18985 0.31856 0.0
C237 C 0.34682 0.18402 0.30915 0.0
C238 C 0.32872 0.21083 0.28424 0.0
H239 H 0.4868 0.36111 0.28778 0.0
C240 C 0.50911 0.32824 0.28584 0.0
H241 H 0.51308 0.25489 0.27049 0.0
H242 H 0.31639 0.33079 0.19382 0.0
H243 H 0.36987 0.38828 0.1677 0.0
H244 H 0.45595 0.39799 0.18393 0.0
H245 H 0.48895 0.35058 0.2265 0.0
C246 C 0.49117 0.28814 0.27175 0.0
C247 C 0.43909 0.28419 0.26214 0.0
C248 C 0.42059 0.31213 0.23708 0.0
C249 C 0.37119 0.30591 0.2274 0.0
C250 C 0.3536 0.33403 0.20218 0.0
C251 C 0.38394 0.36711 0.18692 0.0
C252 C 0.43238 0.37262 0.19608 0.0
C253 C 0.45077 0.34537 0.22073 0.0
H254 H 0.30299 0.79869 0.71598 0.0
C255 C 0.27082 0.78279 0.70508 0.0
H256 H 0.19526 0.79127 0.69555 0.0
H257 H 0.16404 0.93695 0.80812 0.0
H258 H 0.11992 0.86528 0.82583 0.0
H259 H 0.1223 0.78818 0.79608 0.0
H260 H 0.16904 0.78225 0.74852 0.0
C261 C 0.22809 0.80734 0.70548 0.0
C262 C 0.22343 0.85506 0.72175 0.0
C263 C 0.19486 0.8582 0.74907 0.0
C264 C 0.19308 0.90278 0.76606 0.0
C265 C 0.16593 0.90434 0.79397 0.0
C266 C 0.14058 0.86337 0.80449 0.0
C267 C 0.14195 0.81995 0.78775 0.0
C268 C 0.16886 0.8171 0.76043 0.0
H269 H 0.14882 0.01202 0.76463 0.0
C270 C 0.18313 0.0207 0.77612 0.0
H271 H 0.25624 0.99876 0.78472 0.0
H272 H 0.27571 0.86336 0.66786 0.0
H273 H 0.31926 0.93527 0.64989 0.0
H274 H 0.31777 0.01205 0.68 0.0
H275 H 0.27233 0.01749 0.72811 0.0
C276 C 0.22129 0.98963 0.77416 0.0
C277 C 0.21936 0.94419 0.75539 0.0
C278 C 0.24667 0.94147 0.72756 0.0
C279 C 0.24827 0.897 0.71051 0.0
C280 C 0.27446 0.89578 0.68223 0.0
C281 C 0.29934 0.93691 0.67152 0.0
C282 C 0.29846 0.98016 0.68845 0.0
C283 C 0.27236 0.9827 0.71609 0.0
H284 H 0.53792 0.64771 0.29915 0.0
C285 C 0.51239 0.67436 0.28964 0.0
H286 H 0.50132 0.73088 0.25714 0.0
H287 H 0.71784 0.80077 0.24561 0.0
H288 H 0.67921 0.86984 0.27109 0.0
H289 H 0.59425 0.86429 0.29017 0.0
H290 H 0.54737 0.78985 0.28365 0.0
C291 C 0.52633 0.70328 0.26609 0.0
C292 C 0.57809 0.7051 0.25539 0.0
C293 C 0.60531 0.74881 0.25982 0.0
C294 C 0.65456 0.75175 0.24933 0.0
C295 C 0.6805 0.79621 0.25348 0.0
C296 C 0.65877 0.83624 0.26805 0.0
C297 C 0.61093 0.83314 0.27876 0.0
C298 C 0.58437 0.7901 0.27477 0.0
H299 H 0.70476 0.70621 0.17575 0.0
C300 C 0.7351 0.71379 0.19133 0.0
H301 H 0.75686 0.72407 0.23774 0.0
H302 H 0.53522 0.61724 0.24087 0.0
H303 H 0.57535 0.54661 0.21808 0.0
H304 H 0.66289 0.54945 0.20397 0.0
H305 H 0.71049 0.62332 0.21198 0.0
C306 C 0.7271 0.71556 0.22194 0.0
C307 C 0.67667 0.71087 0.23467 0.0
C308 C 0.65007 0.66656 0.23124 0.0
C309 C 0.6003 0.66408 0.24087 0.0
C310 C 0.57368 0.62048 0.23527 0.0
C311 C 0.59619 0.57974 0.22199 0.0
C312 C 0.64541 0.58141 0.21394 0.0
C313 C 0.67222 0.62418 0.21845 0.0
H314 H 0.67359 0.17807 0.69675 0.0
C315 C 0.70616 0.20048 0.69961 0.0
H316 H 0.77812 0.20425 0.71761 0.0
H317 H 0.73999 0.03729 0.81631 0.0
H318 H 0.73962 0.10903 0.84928 0.0
H319 H 0.74245 0.19206 0.82688 0.0
H320 H 0.74515 0.20375 0.77131 0.0
C321 C 0.74567 0.18195 0.71402 0.0
C322 C 0.74558 0.13175 0.72718 0.0
C323 C 0.74536 0.12558 0.75971 0.0
C324 C 0.74473 0.07772 0.77261 0.0
C325 C 0.74209 0.07268 0.8052 0.0
C326 C 0.74148 0.11362 0.82444 0.0
C327 C 0.743 0.16036 0.81183 0.0
C328 C 0.74469 0.16652 0.77988 0.0
H329 H 0.81641 0.98881 0.78391 0.0
C330 C 0.78301 0.96746 0.78168 0.0
H331 H 0.71098 0.96515 0.76357 0.0
H332 H 0.74976 0.13077 0.66379 0.0
H333 H 0.74985 0.05897 0.63077 0.0
H334 H 0.74785 0.97591 0.65318 0.0
H335 H 0.74607 0.9642 0.70881 0.0
C336 C 0.74455 0.98608 0.76619 0.0
C337 C 0.74565 0.03617 0.75287 0.0
C338 C 0.74584 0.04234 0.72035 0.0
C339 C 0.74625 0.09022 0.70745 0.0
C340 C 0.74816 0.09531 0.67487 0.0
C341 C 0.74854 0.05436 0.65562 0.0
C342 C 0.74747 0.0076 0.66824 0.0
C343 C 0.74633 0.00141 0.70021 0.0
H344 H 0.73927 0.2413 0.23393 0.0
C345 C 0.74232 0.24742 0.2587 0.0
H346 H 0.78946 0.24657 0.2975 0.0
H347 H 0.93917 0.10344 0.23061 0.0
H348 H 0.9019 0.04831 0.26781 0.0
H349 H 0.83146 0.07501 0.29942 0.0
H350 H 0.79777 0.15689 0.29398 0.0
C351 C 0.78617 0.24337 0.27253 0.0
C352 C 0.83016 0.22849 0.25463 0.0
C353 C 0.84981 0.18075 0.2585 0.0
C354 C 0.89065 0.16545 0.24049 0.0
C355 C 0.90873 0.11715 0.24411 0.0
C356 C 0.88754 0.08509 0.26527 0.0
C357 C 0.84786 0.10011 0.28306 0.0
C358 C 0.82894 0.14726 0.27974 0.0
H359 H 0.00352 0.18337 0.23819 0.0
C360 C -0.00015 0.18131 0.21317 0.0
H361 H 0.95117 0.18405 0.1753 0.0
H362 H 0.80407 0.32392 0.24373 0.0
H363 H 0.84253 0.37963 0.20746 0.0
H364 H 0.9134 0.35321 0.17623 0.0
H365 H 0.94613 0.27104 0.1809 0.0
C366 C 0.95513 0.1834 0.20031 0.0
C367 C 0.91201 0.1982 0.21901 0.0
C368 C 0.89293 0.2463 0.21557 0.0
C369 C 0.85202 0.26152 0.23349 0.0
C370 C 0.83449 0.31013 0.23023 0.0
C371 C 0.85641 0.34261 0.20964 0.0
C372 C 0.89631 0.32775 0.19205 0.0
C373 C 0.91461 0.28031 0.19492 0.0
H374 H 0.30077 0.52986 0.72644 0.0
C375 C 0.28895 0.51799 0.70363 0.0
H376 H 0.2654 0.45847 0.6762 0.0
H377 H 0.36784 0.33531 0.79081 0.0
H378 H 0.44531 0.3646 0.77065 0.0
H379 H 0.44768 0.42601 0.72884 0.0
H380 H 0.37245 0.45848 0.70694 0.0
C381 C 0.27968 0.47045 0.69841 0.0
C382 C 0.279 0.4347 0.72417 0.0
C383 C 0.32327 0.41642 0.73679 0.0
C384 C 0.32184 0.38093 0.76082 0.0
C385 C 0.36665 0.36255 0.77267 0.0
C386 C 0.41144 0.37898 0.76126 0.0
C387 C 0.41278 0.41357 0.73773 0.0
C388 C 0.36933 0.43205 0.72545 0.0
H389 H 0.24053 0.27368 0.76511 0.0
C390 C 0.25659 0.27947 0.78783 0.0
H391 H 0.29235 0.32954 0.81745 0.0
H392 H 0.18743 0.46442 0.70582 0.0
H393 H 0.10994 0.43786 0.72732 0.0
H394 H 0.10746 0.37848 0.77032 0.0
H395 H 0.18248 0.34503 0.79179 0.0
C396 C 0.27499 0.32356 0.79515 0.0
C397 C 0.27611 0.36377 0.77199 0.0
C398 C 0.23182 0.38376 0.76024 0.0
C399 C 0.23329 0.41875 0.73597 0.0
C400 C 0.18853 0.4377 0.72429 0.0
C401 C 0.14373 0.4229 0.73649 0.0
C402 C 0.14234 0.38943 0.76065 0.0
C403 C 0.18572 0.37015 0.77257 0.0
H404 H 0.27467 0.76707 0.23094 0.0
C405 C 0.27294 0.76025 0.25569 0.0
H406 H 0.22719 0.75699 0.29509 0.0
H407 H 0.06529 0.89106 0.23218 0.0
H408 H 0.09797 0.94623 0.27108 0.0
H409 H 0.17031 0.92302 0.30205 0.0
H410 H 0.21041 0.84455 0.29434 0.0
C411 C 0.22937 0.7611 0.27013 0.0
C412 C 0.18387 0.77341 0.25291 0.0
C413 C 0.16053 0.81919 0.25803 0.0
C414 C 0.11871 0.83254 0.24028 0.0
C415 C 0.09676 0.87888 0.24533 0.0
C416 C 0.11526 0.91096 0.26749 0.0
C417 C 0.156 0.89789 0.28491 0.0
C418 C 0.17863 0.85268 0.28028 0.0
H419 H 0.00712 0.80123 0.23544 0.0
C420 C 0.01133 0.80929 0.21095 0.0
H421 H 0.06141 0.81742 0.17413 0.0
H422 H 0.216 0.68037 0.24028 0.0
H423 H 0.18232 0.62461 0.20212 0.0
H424 H 0.1112 0.64863 0.1703 0.0
H425 H 0.07341 0.72844 0.17653 0.0
C426 C 0.05651 0.81315 0.19893 0.0
C427 C 0.10026 0.79996 0.21762 0.0
C428 C 0.12303 0.75375 0.21294 0.0
C429 C 0.16451 0.74021 0.23088 0.0
C430 C 0.18524 0.69305 0.22667 0.0
C431 C 0.16611 0.66055 0.20496 0.0
C432 C 0.12603 0.67404 0.18709 0.0
C433 C 0.10462 0.71999 0.19094 0.0
H434 H 0.65681 0.50282 0.68888 0.0
C435 C 0.68 0.47563 0.70001 0.0
H436 H 0.72932 0.46147 0.73676 0.0
H437 H 0.76219 0.69781 0.72523 0.0
H438 H 0.80812 0.67627 0.67919 0.0
H439 H 0.80864 0.5914 0.65959 0.0
H440 H 0.76293 0.52773 0.68574 0.0
C441 C 0.70546 0.48785 0.72545 0.0
C442 C 0.70552 0.5388 0.73741 0.0
C443 C 0.73366 0.57525 0.72227 0.0
C444 C 0.73477 0.62378 0.73418 0.0
C445 C 0.76145 0.65997 0.71786 0.0
C446 C 0.7877 0.6482 0.69124 0.0
C447 C 0.78783 0.60047 0.68013 0.0
C448 C 0.76126 0.56428 0.69536 0.0
H449 H 0.7871 0.67978 0.78637 0.0
C450 C 0.75415 0.70217 0.78745 0.0
H451 H 0.67853 0.70645 0.77723 0.0
H452 H 0.64781 0.47749 0.77149 0.0
H453 H 0.6032 0.49842 0.81829 0.0
H454 H 0.60674 0.58205 0.83984 0.0
H455 H 0.6547 0.64529 0.81473 0.0
C456 C 0.71209 0.68515 0.77544 0.0
C457 C 0.7091 0.63523 0.7618 0.0
C458 C 0.6807 0.59881 0.77677 0.0
C459 C 0.67897 0.5505 0.76454 0.0
C460 C 0.65054 0.51471 0.77995 0.0
C461 C 0.62475 0.52623 0.80679 0.0
C462 C 0.62671 0.57333 0.81891 0.0
C463 C 0.65434 0.60932 0.80421 0.0
H464 H 0.01633 0.62194 0.14762 0.0
C465 C 0.97846 0.62494 0.15523 0.0
H466 H 0.91746 0.58731 0.17368 0.0
H467 H 0.99095 0.37665 0.13346 0.0
H468 H 0.91916 0.38635 0.10095 0.0
H469 H 0.87525 0.46534 0.09848 0.0
H470 H 0.90268 0.53503 0.1287 0.0
C471 C 0.95532 0.58513 0.166 0.0
C472 C 0.98113 0.53728 0.16816 0.0
C473 C 0.96484 0.49715 0.15012 0.0
C474 C 0.9905 0.45183 0.15125 0.0
C475 C 0.97315 0.41209 0.13325 0.0
C476 C 0.93193 0.41713 0.11451 0.0
C477 C 0.90718 0.46158 0.11315 0.0
C478 C 0.9233 0.50128 0.13065 0.0
H479 H 0.03739 0.38713 0.21883 0.0
C480 C 0.0565 0.37264 0.19873 0.0
H481 H 0.07503 0.38411 0.1518 0.0
H482 H 0.01753 0.60427 0.20978 0.0
H483 H 0.09097 0.59557 0.24068 0.0
H484 H 0.14026 0.5198 0.2385 0.0
H485 H 0.11528 0.45171 0.20615 0.0
C486 C 0.05769 0.39878 0.17246 0.0
C487 C 0.03241 0.44687 0.17035 0.0
C488 C 0.04911 0.48722 0.18811 0.0
C489 C 0.02249 0.53196 0.18783 0.0
C490 C 0.03777 0.57035 0.2077 0.0
C491 C 0.0797 0.56571 0.22582 0.0
C492 C 0.10729 0.52298 0.22472 0.0
C493 C 0.09233 0.48404 0.20618 0.0
H494 H 0.90773 0.39845 0.67245 0.0
C495 C 0.88037 0.42255 0.66226 0.0
H496 H 0.86451 0.49406 0.64655 0.0
H497 H 0.02432 0.59961 0.7265 0.0
H498 H 0.94921 0.62747 0.75098 0.0
H499 H 0.86946 0.59145 0.73673 0.0
H500 H 0.8644 0.52776 0.69777 0.0
C501 C 0.89213 0.46899 0.65543 0.0
C502 C 0.94055 0.48942 0.66422 0.0
C503 C 0.943 0.52577 0.68761 0.0
C504 C 0.989 0.54573 0.69632 0.0
C505 C 0.99033 0.58283 0.71923 0.0
C506 C 0.94751 0.59915 0.73348 0.0
C507 C 0.90262 0.57893 0.72543 0.0
C508 C 0.9002 0.54256 0.70288 0.0
H509 H 0.08756 0.58464 0.64596 0.0
C510 C 0.10346 0.57957 0.6688 0.0
H511 H 0.09481 0.54692 0.71284 0.0
H512 H 0.94853 0.42312 0.61675 0.0
H513 H 0.02393 0.39204 0.59439 0.0
H514 H 0.10424 0.42129 0.61291 0.0
H515 H 0.10951 0.48263 0.65338 0.0
C516 C 0.08006 0.55186 0.6897 0.0
C517 C 0.03245 0.52873 0.68195 0.0
C518 C 0.03022 0.49104 0.65939 0.0
C519 C 0.98408 0.47234 0.64986 0.0
C520 C 0.98267 0.43712 0.62581 0.0
C521 C 0.02569 0.41918 0.61262 0.0
C522 C 0.07089 0.43578 0.62296 0.0
C523 C 0.07337 0.47127 0.64606 0.0
H524 H 0.60126 0.1036 0.34688 0.0
C525 C 0.57167 0.1296 0.35086 0.0
H526 H 0.49561 0.13872 0.35803 0.0
H527 H 0.45275 0.94078 0.28626 0.0
H528 H 0.42168 0.00122 0.25023 0.0
H529 H 0.43279 0.08955 0.26006 0.0
H530 H 0.47552 0.11774 0.30581 0.0
C531 C 0.52594 0.11321 0.35536 0.0
C532 C 0.51472 0.06043 0.35163 0.0
C533 C 0.48881 0.04463 0.32504 0.0
C534 C 0.48173 0.9938 0.31965 0.0
C535 C 0.45779 0.97894 0.29212 0.0
C536 C 0.4401 0.01328 0.27105 0.0
C537 C 0.44641 0.06298 0.27655 0.0
C538 C 0.47082 0.07867 0.30303 0.0
H539 H 0.41595 0.90902 0.3422 0.0
C540 C 0.44759 0.88589 0.33752 0.0
H541 H 0.52452 0.88311 0.33218 0.0
H542 H 0.56159 0.07912 0.40634 0.0
H543 H 0.59174 0.0188 0.44295 0.0
H544 H 0.58012 0.93045 0.43346 0.0
H545 H 0.53815 0.9019 0.3874 0.0
C546 C 0.49236 0.90587 0.33599 0.0
C547 C 0.49969 0.95905 0.34129 0.0
C548 C 0.5249 0.97495 0.36812 0.0
C549 C 0.5321 0.02579 0.37343 0.0
C550 C 0.55617 0.04085 0.40084 0.0
C551 C 0.57337 0.00663 0.42213 0.0
C552 C 0.56679 0.95689 0.41681 0.0
C553 C 0.54272 0.94101 0.39022 0.0
H554 H 0.40368 0.10219 0.85343 0.0
C555 C 0.37559 0.07798 0.86257 0.0
H556 H 0.36117 0.00964 0.88378 0.0
H557 H 0.57045 0.9724 0.80979 0.0
H558 H 0.5208 0.97754 0.76346 0.0
H559 H 0.43295 0.99842 0.76659 0.0
H560 H 0.39466 0.01541 0.81597 0.0
C561 C 0.38849 0.03429 0.87426 0.0
C562 C 0.44005 0.01705 0.87271 0.0
C563 C 0.46117 0.00496 0.84369 0.0
C564 C 0.51106 0.99036 0.84204 0.0
C565 C 0.53213 0.98154 0.81259 0.0
C566 C 0.50413 0.98469 0.78574 0.0
C567 C 0.45475 0.99665 0.78748 0.0
C568 C 0.43331 0.00666 0.81603 0.0
H569 H 0.56883 0.89514 0.85556 0.0
C570 C 0.59918 0.92002 0.85978 0.0
H571 H 0.61964 0.99193 0.87276 0.0
H572 H 0.4103 0.03682 0.93182 0.0
H573 H 0.45928 0.02868 0.97847 0.0
H574 H 0.54509 0.00032 0.97578 0.0
H575 H 0.58257 0.98011 0.92641 0.0
C576 C 0.58995 0.96656 0.86799 0.0
C577 C 0.53885 0.98512 0.86957 0.0
C578 C 0.51764 0.99672 0.89857 0.0
C579 C 0.46809 0.01272 0.90014 0.0
C580 C 0.44773 0.02426 0.92937 0.0
C581 C 0.47544 0.01976 0.9563 0.0
C582 C 0.52376 0.00381 0.95478 0.0
C583 C 0.54482 0.99234 0.92632 0.0
loop_
_geom_bond_atom_site_label_1
_geom_bond_atom_site_label_2
_geom_bond_distance
_geom_bond_site_symmetry_2
_ccdc_geom_bond_type
C0 O1 1.160 . S
C0 O7 1.185 . S
O1 C0 1.160 . S
O2 Zn3 1.899 . S
O2 C10 1.284 . S
Zn3 O2 1.899 . S
Zn3 O4 2.032 . S
Zn3 O7 2.086 . S
Zn3 O12 1.977 . S
O4 Zn3 2.032 . S
O4 C8 1.278 . S
C5 O6 1.203 . S
C5 O12 1.267 . S
O6 C5 1.203 . S
O7 C0 1.185 . S
O7 Zn3 2.086 . S
C8 O4 1.278 . S
C8 O9 1.211 . S
O9 C8 1.211 . S
C10 O2 1.284 . S
C10 O11 1.273 . S
O11 C10 1.273 . S
O12 Zn3 1.977 . S
O12 C5 1.267 . S
C13 O14 1.160 . S
C13 O20 1.185 . S
O14 C13 1.160 . S
O15 Zn16 1.899 . S
O15 C23 1.284 . S
Zn16 O15 1.899 . S
Zn16 O17 2.032 . S
Zn16 O20 2.086 . S
Zn16 O25 1.977 . S
O17 Zn16 2.032 . S
O17 C21 1.278 . S
C18 O19 1.203 . S
C18 O25 1.267 . S
O19 C18 1.203 . S
O20 C13 1.185 . S
O20 Zn16 2.086 . S
C21 O17 1.278 . S
C21 O22 1.211 . S
O22 C21 1.211 . S
C23 O15 1.284 . S
C23 O24 1.273 . S
O24 C23 1.273 . S
O25 Zn16 1.977 . S
O25 C18 1.267 . S
C26 O27 1.160 . S
C26 O33 1.185 . S
O27 C26 1.160 . S
O28 Zn29 1.899 . S
O28 C36 1.284 . S
Zn29 O28 1.899 . S
Zn29 O30 2.032 . S
Zn29 O33 2.086 . S
Zn29 O38 1.977 . S
O30 Zn29 2.032 . S
O30 C34 1.278 . S
C31 O32 1.203 . S
C31 O38 1.267 . S
O32 C31 1.203 . S
O33 C26 1.185 . S
O33 Zn29 2.086 . S
C34 O30 1.278 . S
C34 O35 1.211 . S
O35 C34 1.211 . S
C36 O28 1.284 . S
C36 O37 1.273 . S
O37 C36 1.273 . S
O38 Zn29 1.977 . S
O38 C31 1.267 . S
C39 O40 1.160 . S
C39 O46 1.185 . S
O40 C39 1.160 . S
O41 Zn42 1.899 . S
O41 C49 1.284 . S
Zn42 O41 1.899 . S
Zn42 O43 2.032 . S
Zn42 O46 2.086 . S
Zn42 O51 1.977 . S
O43 Zn42 2.032 . S
O43 C47 1.278 . S
C44 O45 1.203 . S
C44 O51 1.267 . S
O45 C44 1.203 . S
O46 C39 1.185 . S
O46 Zn42 2.086 . S
C47 O43 1.278 . S
C47 O48 1.211 . S
O48 C47 1.211 . S
C49 O41 1.284 . S
C49 O50 1.273 . S
O50 C49 1.273 . S
O51 Zn42 1.977 . S
O51 C44 1.267 . S
C52 O53 1.160 . S
C52 O59 1.185 . S
O53 C52 1.160 . S
O54 Zn55 1.899 . S
O54 C62 1.284 . S
Zn55 O54 1.899 . S
Zn55 O56 2.032 . S
Zn55 O59 2.086 . S
Zn55 O64 1.977 . S
O56 Zn55 2.032 . S
O56 C60 1.278 . S
C57 O58 1.203 . S
C57 O64 1.267 . S
O58 C57 1.203 . S
O59 C52 1.185 . S
O59 Zn55 2.086 . S
C60 O56 1.278 . S
C60 O61 1.211 . S
O61 C60 1.211 . S
C62 O54 1.284 . S
C62 O63 1.273 . S
O63 C62 1.273 . S
O64 Zn55 1.977 . S
O64 C57 1.267 . S
C65 O66 1.160 . S
C65 O72 1.185 . S
O66 C65 1.160 . S
O67 Zn68 1.899 . S
O67 C75 1.284 . S
Zn68 O67 1.899 . S
Zn68 O69 2.032 . S
Zn68 O72 2.086 . S
Zn68 O77 1.977 . S
O69 Zn68 2.032 . S
O69 C73 1.278 . S
C70 O71 1.203 . S
C70 O77 1.267 . S
O71 C70 1.203 . S
O72 C65 1.185 . S
O72 Zn68 2.086 . S
C73 O69 1.278 . S
C73 O74 1.211 . S
O74 C73 1.211 . S
C75 O67 1.284 . S
C75 O76 1.273 . S
O76 C75 1.273 . S
O77 Zn68 1.977 . S
O77 C70 1.267 . S
C78 O79 1.160 . S
C78 O85 1.185 . S
O79 C78 1.160 . S
O80 Zn81 1.899 . S
O80 C88 1.284 . S
Zn81 O80 1.899 . S
Zn81 O82 2.032 . S
Zn81 O85 2.086 . S
Zn81 O90 1.977 . S
O82 Zn81 2.032 . S
O82 C86 1.278 . S
C83 O84 1.203 . S
C83 O90 1.267 . S
O84 C83 1.203 . S
O85 C78 1.185 . S
O85 Zn81 2.086 . S
C86 O82 1.278 . S
C86 O87 1.211 . S
O87 C86 1.211 . S
C88 O80 1.284 . S
C88 O89 1.273 . S
O89 C88 1.273 . S
O90 Zn81 1.977 . S
O90 C83 1.267 . S
C91 O92 1.160 . S
C91 O98 1.185 . S
O92 C91 1.160 . S
O93 Zn94 1.899 . S
O93 C101 1.284 . S
Zn94 O93 1.899 . S
Zn94 O95 2.032 . S
Zn94 O98 2.086 . S
Zn94 O103 1.977 . S
O95 Zn94 2.032 . S
O95 C99 1.278 . S
C96 O97 1.203 . S
C96 O103 1.267 . S
O97 C96 1.203 . S
O98 C91 1.185 . S
O98 Zn94 2.086 . S
C99 O95 1.278 . S
C99 O100 1.211 . S
O100 C99 1.211 . S
C101 O93 1.284 . S
C101 O102 1.273 . S
O102 C101 1.273 . S
O103 Zn94 1.977 . S
O103 C96 1.267 . S
H104 C105 0.951 . S
C105 H104 0.951 . S
C105 C111 1.265 . S
H106 C111 0.950 . S
H107 C115 0.949 . S
H108 C116 0.950 . S
H109 C117 0.951 . S
H110 C118 0.951 1_554 S
C111 C105 1.265 . S
C111 H106 0.950 . S
C111 C112 1.478 . S
C112 C111 1.478 . S
C112 C113 1.408 . S
C112 C129 1.394 . S
C113 C112 1.408 . S
C113 C114 1.427 1_554 S
C113 C118 1.429 1_554 S
C114 C113 1.427 1_556 S
C114 C115 1.428 . S
C114 C127 1.394 . S
C115 H107 0.949 . S
C115 C114 1.428 . S
C115 C116 1.345 . S
C116 H108 0.950 . S
C116 C115 1.345 . S
C116 C117 1.424 . S
C117 H109 0.951 . S
C117 C116 1.424 . S
C117 C118 1.347 . S
C118 H110 0.951 1_556 S
C118 C113 1.429 1_556 S
C118 C117 1.347 . S
H119 C120 0.951 . S
C120 H119 0.951 . S
C120 C126 1.265 . S
H121 C126 0.950 . S
H122 C130 0.949 . S
H123 C131 0.950 . S
H124 C132 0.951 . S
H125 C133 0.951 1_556 S
C126 C120 1.265 . S
C126 H121 0.950 . S
C126 C127 1.478 . S
C127 C114 1.394 . S
C127 C126 1.478 . S
C127 C128 1.408 . S
C128 C127 1.408 . S
C128 C129 1.427 1_556 S
C128 C133 1.429 1_556 S
C129 C112 1.394 . S
C129 C128 1.427 1_554 S
C129 C130 1.428 . S
C130 H122 0.949 . S
C130 C129 1.428 . S
C130 C131 1.345 . S
C131 H123 0.950 . S
C131 C130 1.345 . S
C131 C132 1.424 . S
C132 H124 0.951 . S
C132 C131 1.424 . S
C132 C133 1.347 . S
C133 H125 0.951 1_554 S
C133 C128 1.429 1_554 S
C133 C132 1.347 . S
H134 C135 0.951 . S
C135 H134 0.951 . S
C135 C141 1.265 . S
H136 C141 0.950 . S
H137 C145 0.949 . S
H138 C146 0.950 . S
H139 C147 0.951 . S
H140 C148 0.951 . S
C141 C135 1.265 . S
C141 H136 0.950 . S
C141 C142 1.478 . S
C142 C141 1.478 . S
C142 C143 1.397 . S
C142 C159 1.394 . S
C143 C142 1.397 . S
C143 C144 1.438 . S
C143 C148 1.429 . S
C144 C143 1.438 . S
C144 C145 1.428 . S
C144 C157 1.394 . S
C145 H137 0.949 . S
C145 C144 1.428 . S
C145 C146 1.345 . S
C146 H138 0.950 . S
C146 C145 1.345 . S
C146 C147 1.424 . S
C147 H139 0.951 . S
C147 C146 1.424 . S
C147 C148 1.347 . S
C148 H140 0.951 . S
C148 C143 1.429 . S
C148 C147 1.347 . S
H149 C150 0.951 . S
C150 H149 0.951 . S
C150 C156 1.265 . S
H151 C156 0.950 . S
H152 C160 0.949 . S
H153 C161 0.950 . S
H154 C162 0.951 . S
H155 C163 0.951 . S
C156 C150 1.265 . S
C156 H151 0.950 . S
C156 C157 1.478 . S
C157 C144 1.394 . S
C157 C156 1.478 . S
C157 C158 1.397 . S
C158 C157 1.397 . S
C158 C159 1.438 . S
C158 C163 1.429 . S
C159 C142 1.394 . S
C159 C158 1.438 . S
C159 C160 1.428 . S
C160 H152 0.949 . S
C160 C159 1.428 . S
C160 C161 1.345 . S
C161 H153 0.950 . S
C161 C160 1.345 . S
C161 C162 1.424 . S
C162 H154 0.951 . S
C162 C161 1.424 . S
C162 C163 1.347 . S
C163 H155 0.951 . S
C163 C158 1.429 . S
C163 C162 1.347 . S
H164 C165 0.951 . S
C165 H164 0.951 . S
C165 C171 1.265 . S
H166 C171 0.950 . S
H167 C175 0.949 . S
H168 C176 0.950 . S
H169 C177 0.951 . S
H170 C178 0.977 . S
C171 C165 1.265 . S
C171 H166 0.950 . S
C171 C172 1.478 . S
C172 C171 1.478 . S
C172 C173 1.422 . S
C172 C189 1.394 . S
C173 C172 1.422 . S
C173 C174 1.412 1_554 S
C173 C178 1.429 . S
C174 C173 1.412 1_556 S
C174 C175 1.428 . S
C174 C187 1.394 . S
C175 H167 0.949 . S
C175 C174 1.428 . S
C175 C176 1.345 . S
C176 H168 0.950 . S
C176 C175 1.345 . S
C176 C177 1.424 . S
C177 H169 0.951 . S
C177 C176 1.424 . S
C177 C178 1.322 1_556 S
C178 H170 0.977 . S
C178 C173 1.429 . S
C178 C177 1.322 1_554 S
H179 C180 0.951 . S
C180 H179 0.951 . S
C180 C186 1.265 . S
H181 C186 0.950 . S
H182 C190 0.949 . S
H183 C191 0.950 . S
H184 C192 0.951 . S
H185 C193 0.977 . S
C186 C180 1.265 . S
C186 H181 0.950 . S
C186 C187 1.478 . S
C187 C174 1.394 . S
C187 C186 1.478 . S
C187 C188 1.422 . S
C188 C187 1.422 . S
C188 C189 1.412 1_556 S
C188 C193 1.429 . S
C189 C172 1.394 . S
C189 C188 1.412 1_554 S
C189 C190 1.428 . S
C190 H182 0.949 . S
C190 C189 1.428 . S
C190 C191 1.345 . S
C191 H183 0.950 . S
C191 C190 1.345 . S
C191 C192 1.424 . S
C192 H184 0.951 . S
C192 C191 1.424 . S
C192 C193 1.322 1_554 S
C193 H185 0.977 . S
C193 C188 1.429 . S
C193 C192 1.322 1_556 S
H194 C195 0.951 . S
C195 H194 0.951 . S
C195 C201 1.265 . S
H196 C201 0.950 . S
H197 C205 0.949 . S
H198 C206 0.950 . S
H199 C207 0.951 . S
H200 C208 0.951 . S
C201 C195 1.265 . S
C201 H196 0.950 . S
C201 C202 1.478 . S
C202 C201 1.478 . S
C202 C203 1.397 . S
C202 C219 1.394 . S
C203 C202 1.397 . S
C203 C204 1.438 . S
C203 C208 1.429 . S
C204 C203 1.438 . S
C204 C205 1.428 . S
C204 C217 1.394 . S
C205 H197 0.949 . S
C205 C204 1.428 . S
C205 C206 1.345 . S
C206 H198 0.950 . S
C206 C205 1.345 . S
C206 C207 1.424 . S
C207 H199 0.951 . S
C207 C206 1.424 . S
C207 C208 1.347 . S
C208 H200 0.951 . S
C208 C203 1.429 . S
C208 C207 1.347 . S
H209 C210 0.951 . S
C210 H209 0.951 . S
C210 C216 1.265 . S
H211 C216 0.950 . S
H212 C220 0.949 . S
H213 C221 0.950 . S
H214 C222 0.951 . S
H215 C223 0.951 . S
C216 C210 1.265 . S
C216 H211 0.950 . S
C216 C217 1.478 . S
C217 C204 1.394 . S
C217 C216 1.478 . S
C217 C218 1.397 . S
C218 C217 1.397 . S
C218 C219 1.438 . S
C218 C223 1.429 . S
C219 C202 1.394 . S
C219 C218 1.438 . S
C219 C220 1.428 . S
C220 H212 0.949 . S
C220 C219 1.428 . S
C220 C221 1.345 . S
C221 H213 0.950 . S
C221 C220 1.345 . S
C221 C222 1.424 . S
C222 H214 0.951 . S
C222 C221 1.424 . S
C222 C223 1.347 . S
C223 H215 0.951 . S
C223 C218 1.429 . S
C223 C222 1.347 . S
H224 C225 0.951 . S
C225 H224 0.951 . S
C225 C231 1.265 . S
H226 C231 0.950 . S
H227 C235 0.949 . S
H228 C236 0.950 . S
H229 C237 0.951 . S
H230 C238 0.951 . S
C231 C225 1.265 . S
C231 H226 0.950 . S
C231 C232 1.478 . S
C232 C231 1.478 . S
C232 C233 1.397 . S
C232 C249 1.394 . S
C233 C232 1.397 . S
C233 C234 1.438 . S
C233 C238 1.429 . S
C234 C233 1.438 . S
C234 C235 1.428 . S
C234 C247 1.394 . S
C235 H227 0.949 . S
C235 C234 1.428 . S
C235 C236 1.345 . S
C236 H228 0.950 . S
C236 C235 1.345 . S
C236 C237 1.424 . S
C237 H229 0.951 . S
C237 C236 1.424 . S
C237 C238 1.347 . S
C238 H230 0.951 . S
C238 C233 1.429 . S
C238 C237 1.347 . S
H239 C240 0.951 . S
C240 H239 0.951 . S
C240 C246 1.265 . S
H241 C246 0.950 . S
H242 C250 0.949 . S
H243 C251 0.950 . S
H244 C252 0.951 . S
H245 C253 0.951 . S
C246 C240 1.265 . S
C246 H241 0.950 . S
C246 C247 1.478 . S
C247 C234 1.394 . S
C247 C246 1.478 . S
C247 C248 1.397 . S
C248 C247 1.397 . S
C248 C249 1.438 . S
C248 C253 1.429 . S
C249 C232 1.394 . S
C249 C248 1.438 . S
C249 C250 1.428 . S
C250 H242 0.949 . S
C250 C249 1.428 . S
C250 C251 1.345 . S
C251 H243 0.950 . S
C251 C250 1.345 . S
C251 C252 1.424 . S
C252 H244 0.951 . S
C252 C251 1.424 . S
C252 C253 1.347 . S
C253 H245 0.951 . S
C253 C248 1.429 . S
C253 C252 1.347 . S
H254 C255 0.951 . S
C255 H254 0.951 . S
C255 C261 1.265 . S
H256 C261 0.950 . S
H257 C265 0.949 . S
H258 C266 0.950 . S
H259 C267 0.951 . S
H260 C268 0.951 . S
C261 C255 1.265 . S
C261 H256 0.950 . S
C261 C262 1.478 . S
C262 C261 1.478 . S
C262 C263 1.397 . S
C262 C279 1.394 . S
C263 C262 1.397 . S
C263 C264 1.438 . S
C263 C268 1.429 . S
C264 C263 1.438 . S
C264 C265 1.428 . S
C264 C277 1.394 . S
C265 H257 0.949 . S
C265 C264 1.428 . S
C265 C266 1.345 . S
C266 H258 0.950 . S
C266 C265 1.345 . S
C266 C267 1.424 . S
C267 H259 0.951 . S
C267 C266 1.424 . S
C267 C268 1.347 . S
C268 H260 0.951 . S
C268 C263 1.429 . S
C268 C267 1.347 . S
H269 C270 0.951 . S
C270 H269 0.951 . S
C270 C276 1.265 . S
H271 C276 0.950 . S
H272 C280 0.949 . S
H273 C281 0.950 . S
H274 C282 0.951 . S
H275 C283 0.951 . S
C276 C270 1.265 . S
C276 H271 0.950 . S
C276 C277 1.478 . S
C277 C264 1.394 . S
C277 C276 1.478 . S
C277 C278 1.397 . S
C278 C277 1.397 . S
C278 C279 1.438 . S
C278 C283 1.429 . S
C279 C262 1.394 . S
C279 C278 1.438 . S
C279 C280 1.428 . S
C280 H272 0.949 . S
C280 C279 1.428 . S
C280 C281 1.345 . S
C281 H273 0.950 . S
C281 C280 1.345 . S
C281 C282 1.424 . S
C282 H274 0.951 . S
C282 C281 1.424 . S
C282 C283 1.347 . S
C283 H275 0.951 . S
C283 C278 1.429 . S
C283 C282 1.347 . S
H284 C285 0.951 . S
C285 H284 0.951 . S
C285 C291 1.265 . S
H286 C291 0.950 . S
H287 C295 0.949 . S
H288 C296 0.950 . S
H289 C297 0.951 . S
H290 C298 0.951 . S
C291 C285 1.265 . S
C291 H286 0.950 . S
C291 C292 1.478 . S
C292 C291 1.478 . S
C292 C293 1.397 . S
C292 C309 1.394 . S
C293 C292 1.397 . S
C293 C294 1.438 . S
C293 C298 1.429 . S
C294 C293 1.438 . S
C294 C295 1.428 . S
C294 C307 1.394 . S
C295 H287 0.949 . S
C295 C294 1.428 . S
C295 C296 1.345 . S
C296 H288 0.950 . S
C296 C295 1.345 . S
C296 C297 1.424 . S
C297 H289 0.951 . S
C297 C296 1.424 . S
C297 C298 1.347 . S
C298 H290 0.951 . S
C298 C293 1.429 . S
C298 C297 1.347 . S
H299 C300 0.951 . S
C300 H299 0.951 . S
C300 C306 1.265 . S
H301 C306 0.950 . S
H302 C310 0.949 . S
H303 C311 0.950 . S
H304 C312 0.951 . S
H305 C313 0.951 . S
C306 C300 1.265 . S
C306 H301 0.950 . S
C306 C307 1.478 . S
C307 C294 1.394 . S
C307 C306 1.478 . S
C307 C308 1.397 . S
C308 C307 1.397 . S
C308 C309 1.438 . S
C308 C313 1.429 . S
C309 C292 1.394 . S
C309 C308 1.438 . S
C309 C310 1.428 . S
C310 H302 0.949 . S
C310 C309 1.428 . S
C310 C311 1.345 . S
C311 H303 0.950 . S
C311 C310 1.345 . S
C311 C312 1.424 . S
C312 H304 0.951 . S
C312 C311 1.424 . S
C312 C313 1.347 . S
C313 H305 0.951 . S
C313 C308 1.429 . S
C313 C312 1.347 . S
H314 C315 0.951 . S
C315 H314 0.951 . S
C315 C321 1.265 . S
H316 C321 0.950 . S
H317 C325 0.949 . S
H318 C326 0.950 . S
H319 C327 0.951 . S
H320 C328 0.951 . S
C321 C315 1.265 . S
C321 H316 0.950 . S
C321 C322 1.478 . S
C322 C321 1.478 . S
C322 C323 1.397 . S
C322 C339 1.394 . S
C323 C322 1.397 . S
C323 C324 1.438 . S
C323 C328 1.429 . S
C324 C323 1.438 . S
C324 C325 1.428 . S
C324 C337 1.394 . S
C325 H317 0.949 . S
C325 C324 1.428 . S
C325 C326 1.345 . S
C326 H318 0.950 . S
C326 C325 1.345 . S
C326 C327 1.424 . S
C327 H319 0.951 . S
C327 C326 1.424 . S
C327 C328 1.347 . S
C328 H320 0.951 . S
C328 C323 1.429 . S
C328 C327 1.347 . S
H329 C330 0.951 . S
C330 H329 0.951 . S
C330 C336 1.265 . S
H331 C336 0.950 . S
H332 C340 0.949 . S
H333 C341 0.950 . S
H334 C342 0.951 . S
H335 C343 0.951 . S
C336 C330 1.265 . S
C336 H331 0.950 . S
C336 C337 1.478 . S
C337 C324 1.394 . S
C337 C336 1.478 . S
C337 C338 1.397 . S
C338 C337 1.397 . S
C338 C339 1.438 . S
C338 C343 1.429 . S
C339 C322 1.394 . S
C339 C338 1.438 . S
C339 C340 1.428 . S
C340 H332 0.949 . S
C340 C339 1.428 . S
C340 C341 1.345 . S
C341 H333 0.950 . S
C341 C340 1.345 . S
C341 C342 1.424 . S
C342 H334 0.951 . S
C342 C341 1.424 . S
C342 C343 1.347 . S
C343 H335 0.951 . S
C343 C338 1.429 . S
C343 C342 1.347 . S
H344 C345 0.951 . S
C345 H344 0.951 . S
C345 C351 1.265 . S
H346 C351 0.950 . S
H347 C355 0.949 . S
H348 C356 0.950 . S
H349 C357 0.951 . S
H350 C358 0.951 . S
C351 C345 1.265 . S
C351 H346 0.950 . S
C351 C352 1.478 . S
C352 C351 1.478 . S
C352 C353 1.397 . S
C352 C369 1.394 . S
C353 C352 1.397 . S
C353 C354 1.438 . S
C353 C358 1.429 . S
C354 C353 1.438 . S
C354 C355 1.428 . S
C354 C367 1.394 . S
C355 H347 0.949 . S
C355 C354 1.428 . S
C355 C356 1.345 . S
C356 H348 0.950 . S
C356 C355 1.345 . S
C356 C357 1.424 . S
C357 H349 0.951 . S
C357 C356 1.424 . S
C357 C358 1.347 . S
C358 H350 0.951 . S
C358 C353 1.429 . S
C358 C357 1.347 . S
H359 C360 0.951 1_455 S
C360 H359 0.951 1_655 S
C360 C366 1.265 . S
H361 C366 0.950 . S
H362 C370 0.949 . S
H363 C371 0.950 . S
H364 C372 0.951 . S
H365 C373 0.951 . S
C366 C360 1.265 . S
C366 H361 0.950 . S
C366 C367 1.478 . S
C367 C354 1.394 . S
C367 C366 1.478 . S
C367 C368 1.397 . S
C368 C367 1.397 . S
C368 C369 1.438 . S
C368 C373 1.429 . S
C369 C352 1.394 . S
C369 C368 1.438 . S
C369 C370 1.428 . S
C370 H362 0.949 . S
C370 C369 1.428 . S
C370 C371 1.345 . S
C371 H363 0.950 . S
C371 C370 1.345 . S
C371 C372 1.424 . S
C372 H364 0.951 . S
C372 C371 1.424 . S
C372 C373 1.347 . S
C373 H365 0.951 . S
C373 C368 1.429 . S
C373 C372 1.347 . S
H374 C375 0.951 . S
C375 H374 0.951 . S
C375 C381 1.265 . S
H376 C381 0.950 . S
H377 C385 0.949 . S
H378 C386 0.950 . S
H379 C387 0.951 . S
H380 C388 0.951 . S
C381 C375 1.265 . S
C381 H376 0.950 . S
C381 C382 1.478 . S
C382 C381 1.478 . S
C382 C383 1.397 . S
C382 C399 1.394 . S
C383 C382 1.397 . S
C383 C384 1.438 . S
C383 C388 1.429 . S
C384 C383 1.438 . S
C384 C385 1.428 . S
C384 C397 1.394 . S
C385 H377 0.949 . S
C385 C384 1.428 . S
C385 C386 1.345 . S
C386 H378 0.950 . S
C386 C385 1.345 . S
C386 C387 1.424 . S
C387 H379 0.951 . S
C387 C386 1.424 . S
C387 C388 1.347 . S
C388 H380 0.951 . S
C388 C383 1.429 . S
C388 C387 1.347 . S
H389 C390 0.951 . S
C390 H389 0.951 . S
C390 C396 1.265 . S
H391 C396 0.950 . S
H392 C400 0.949 . S
H393 C401 0.950 . S
H394 C402 0.951 . S
H395 C403 0.951 . S
C396 C390 1.265 . S
C396 H391 0.950 . S
C396 C397 1.478 . S
C397 C384 1.394 . S
C397 C396 1.478 . S
C397 C398 1.397 . S
C398 C397 1.397 . S
C398 C399 1.438 . S
C398 C403 1.429 . S
C399 C382 1.394 . S
C399 C398 1.438 . S
C399 C400 1.428 . S
C400 H392 0.949 . S
C400 C399 1.428 . S
C400 C401 1.345 . S
C401 H393 0.950 . S
C401 C400 1.345 . S
C401 C402 1.424 . S
C402 H394 0.951 . S
C402 C401 1.424 . S
C402 C403 1.347 . S
C403 H395 0.951 . S
C403 C398 1.429 . S
C403 C402 1.347 . S
H404 C405 0.951 . S
C405 H404 0.951 . S
C405 C411 1.265 . S
H406 C411 0.950 . S
H407 C415 0.949 . S
H408 C416 0.950 . S
H409 C417 0.951 . S
H410 C418 0.951 . S
C411 C405 1.265 . S
C411 H406 0.950 . S
C411 C412 1.478 . S
C412 C411 1.478 . S
C412 C413 1.397 . S
C412 C429 1.394 . S
C413 C412 1.397 . S
C413 C414 1.438 . S
C413 C418 1.429 . S
C414 C413 1.438 . S
C414 C415 1.428 . S
C414 C427 1.394 . S
C415 H407 0.949 . S
C415 C414 1.428 . S
C415 C416 1.345 . S
C416 H408 0.950 . S
C416 C415 1.345 . S
C416 C417 1.424 . S
C417 H409 0.951 . S
C417 C416 1.424 . S
C417 C418 1.347 . S
C418 H410 0.951 . S
C418 C413 1.429 . S
C418 C417 1.347 . S
H419 C420 0.951 1_655 S
C420 H419 0.951 1_455 S
C420 C426 1.265 . S
H421 C426 0.950 . S
H422 C430 0.949 . S
H423 C431 0.950 . S
H424 C432 0.951 . S
H425 C433 0.951 . S
C426 C420 1.265 . S
C426 H421 0.950 . S
C426 C427 1.478 . S
C427 C414 1.394 . S
C427 C426 1.478 . S
C427 C428 1.397 . S
C428 C427 1.397 . S
C428 C429 1.438 . S
C428 C433 1.429 . S
C429 C412 1.394 . S
C429 C428 1.438 . S
C429 C430 1.428 . S
C430 H422 0.949 . S
C430 C429 1.428 . S
C430 C431 1.345 . S
C431 H423 0.950 . S
C431 C430 1.345 . S
C431 C432 1.424 . S
C432 H424 0.951 . S
C432 C431 1.424 . S
C432 C433 1.347 . S
C433 H425 0.951 . S
C433 C428 1.429 . S
C433 C432 1.347 . S
H434 C435 0.951 . S
C435 H434 0.951 . S
C435 C441 1.265 . S
H436 C441 0.950 . S
H437 C445 0.949 . S
H438 C446 0.950 . S
H439 C447 0.951 . S
H440 C448 0.951 . S
C441 C435 1.265 . S
C441 H436 0.950 . S
C441 C442 1.478 . S
C442 C441 1.478 . S
C442 C443 1.397 . S
C442 C459 1.394 . S
C443 C442 1.397 . S
C443 C444 1.438 . S
C443 C448 1.429 . S
C444 C443 1.438 . S
C444 C445 1.428 . S
C444 C457 1.394 . S
C445 H437 0.949 . S
C445 C444 1.428 . S
C445 C446 1.345 . S
C446 H438 0.950 . S
C446 C445 1.345 . S
C446 C447 1.424 . S
C447 H439 0.951 . S
C447 C446 1.424 . S
C447 C448 1.347 . S
C448 H440 0.951 . S
C448 C443 1.429 . S
C448 C447 1.347 . S
H449 C450 0.951 . S
C450 H449 0.951 . S
C450 C456 1.265 . S
H451 C456 0.950 . S
H452 C460 0.949 . S
H453 C461 0.950 . S
H454 C462 0.951 . S
H455 C463 0.951 . S
C456 C450 1.265 . S
C456 H451 0.950 . S
C456 C457 1.478 . S
C457 C444 1.394 . S
C457 C456 1.478 . S
C457 C458 1.397 . S
C458 C457 1.397 . S
C458 C459 1.438 . S
C458 C463 1.429 . S
C459 C442 1.394 . S
C459 C458 1.438 . S
C459 C460 1.428 . S
C460 H452 0.949 . S
C460 C459 1.428 . S
C460 C461 1.345 . S
C461 H453 0.950 . S
C461 C460 1.345 . S
C461 C462 1.424 . S
C462 H454 0.951 . S
C462 C461 1.424 . S
C462 C463 1.347 . S
C463 H455 0.951 . S
C463 C458 1.429 . S
C463 C462 1.347 . S
H464 C465 0.951 . S
C465 H464 0.951 . S
C465 C471 1.265 . S
H466 C471 0.950 . S
H467 C475 0.949 . S
H468 C476 0.950 . S
H469 C477 0.951 . S
H470 C478 0.951 . S
C471 C465 1.265 . S
C471 H466 0.950 . S
C471 C472 1.478 . S
C472 C471 1.478 . S
C472 C473 1.397 . S
C472 C489 1.394 . S
C473 C472 1.397 . S
C473 C474 1.438 1_655 S
C473 C478 1.429 . S
C474 C473 1.438 1_455 S
C474 C475 1.428 . S
C474 C487 1.394 . S
C475 H467 0.949 . S
C475 C474 1.428 . S
C475 C476 1.345 1_455 S
C476 H468 0.950 . S
C476 C475 1.345 1_655 S
C476 C477 1.424 . S
C477 H469 0.951 . S
C477 C476 1.424 . S
C477 C478 1.347 . S
C478 H470 0.951 . S
C478 C473 1.429 . S
C478 C477 1.347 . S
H479 C480 0.951 . S
C480 H479 0.951 . S
C480 C486 1.265 . S
H481 C486 0.950 . S
H482 C490 0.949 . S
H483 C491 0.950 . S
H484 C492 0.951 . S
H485 C493 0.951 . S
C486 C480 1.265 . S
C486 H481 0.950 . S
C486 C487 1.478 . S
C487 C474 1.394 . S
C487 C486 1.478 . S
C487 C488 1.397 . S
C488 C487 1.397 . S
C488 C489 1.438 1_455 S
C488 C493 1.429 . S
C489 C472 1.394 . S
C489 C488 1.438 1_655 S
C489 C490 1.428 . S
C490 H482 0.949 . S
C490 C489 1.428 . S
C490 C491 1.345 1_655 S
C491 H483 0.950 . S
C491 C490 1.345 1_455 S
C491 C492 1.424 . S
C492 H484 0.951 . S
C492 C491 1.424 . S
C492 C493 1.347 . S
C493 H485 0.951 . S
C493 C488 1.429 . S
C493 C492 1.347 . S
H494 C495 0.951 . S
C495 H494 0.951 . S
C495 C501 1.265 . S
H496 C501 0.950 . S
H497 C505 0.949 . S
H498 C506 0.950 . S
H499 C507 0.951 . S
H500 C508 0.951 . S
C501 C495 1.265 . S
C501 H496 0.950 . S
C501 C502 1.478 . S
C502 C501 1.478 . S
C502 C503 1.397 . S
C502 C519 1.394 . S
C503 C502 1.397 . S
C503 C504 1.438 1_655 S
C503 C508 1.429 . S
C504 C503 1.438 1_455 S
C504 C505 1.428 . S
C504 C517 1.394 . S
C505 H497 0.949 . S
C505 C504 1.428 . S
C505 C506 1.345 . S
C506 H498 0.950 . S
C506 C505 1.345 . S
C506 C507 1.424 1_455 S
C507 H499 0.951 . S
C507 C506 1.424 1_655 S
C507 C508 1.347 . S
C508 H500 0.951 . S
C508 C503 1.429 . S
C508 C507 1.347 . S
H509 C510 0.951 . S
C510 H509 0.951 . S
C510 C516 1.265 . S
H511 C516 0.950 . S
H512 C520 0.949 . S
H513 C521 0.950 . S
H514 C522 0.951 . S
H515 C523 0.951 . S
C516 C510 1.265 . S
C516 H511 0.950 . S
C516 C517 1.478 . S
C517 C504 1.394 . S
C517 C516 1.478 . S
C517 C518 1.397 . S
C518 C517 1.397 . S
C518 C519 1.438 1_455 S
C518 C523 1.429 . S
C519 C502 1.394 . S
C519 C518 1.438 1_655 S
C519 C520 1.428 . S
C520 H512 0.949 . S
C520 C519 1.428 . S
C520 C521 1.345 . S
C521 H513 0.950 . S
C521 C520 1.345 . S
C521 C522 1.424 1_655 S
C522 H514 0.951 . S
C522 C521 1.424 1_455 S
C522 C523 1.347 . S
C523 H515 0.951 . S
C523 C518 1.429 . S
C523 C522 1.347 . S
H524 C525 0.951 . S
C525 H524 0.951 . S
C525 C531 1.265 . S
H526 C531 0.950 . S
H527 C535 0.949 . S
H528 C536 0.950 . S
H529 C537 0.951 . S
H530 C538 0.951 . S
C531 C525 1.265 . S
C531 H526 0.950 . S
C531 C532 1.478 . S
C532 C531 1.478 . S
C532 C533 1.397 . S
C532 C549 1.394 . S
C533 C532 1.397 . S
C533 C534 1.438 1_545 S
C533 C538 1.429 . S
C534 C533 1.438 1_565 S
C534 C535 1.428 . S
C534 C547 1.394 . S
C535 H527 0.949 . S
C535 C534 1.428 . S
C535 C536 1.345 . S
C536 H528 0.950 . S
C536 C535 1.345 . S
C536 C537 1.424 1_565 S
C537 H529 0.951 . S
C537 C536 1.424 1_545 S
C537 C538 1.347 . S
C538 H530 0.951 . S
C538 C533 1.429 . S
C538 C537 1.347 . S
H539 C540 0.951 . S
C540 H539 0.951 . S
C540 C546 1.265 . S
H541 C546 0.950 . S
H542 C550 0.949 . S
H543 C551 0.950 . S
H544 C552 0.951 . S
H545 C553 0.951 . S
C546 C540 1.265 . S
C546 H541 0.950 . S
C546 C547 1.478 . S
C547 C534 1.394 . S
C547 C546 1.478 . S
C547 C548 1.397 . S
C548 C547 1.397 . S
C548 C549 1.438 1_565 S
C548 C553 1.429 . S
C549 C532 1.394 . S
C549 C548 1.438 1_545 S
C549 C550 1.428 . S
C550 H542 0.949 . S
C550 C549 1.428 . S
C550 C551 1.345 . S
C551 H543 0.950 . S
C551 C550 1.345 . S
C551 C552 1.424 1_545 S
C552 H544 0.951 . S
C552 C551 1.424 1_565 S
C552 C553 1.347 . S
C553 H545 0.951 . S
C553 C548 1.429 . S
C553 C552 1.347 . S
H554 C555 0.951 . S
C555 H554 0.951 . S
C555 C561 1.265 . S
H556 C561 0.950 . S
H557 C565 0.949 . S
H558 C566 0.950 . S
H559 C567 0.951 . S
H560 C568 0.955 . S
C561 C555 1.265 . S
C561 H556 0.950 . S
C561 C562 1.478 . S
C562 C561 1.478 . S
C562 C563 1.398 . S
C562 C579 1.394 . S
C563 C562 1.398 . S
C563 C564 1.436 1_545 S
C563 C568 1.429 . S
C564 C563 1.436 1_565 S
C564 C565 1.428 . S
C564 C577 1.394 . S
C565 H557 0.949 . S
C565 C564 1.428 . S
C565 C566 1.345 . S
C566 H558 0.950 . S
C566 C565 1.345 . S
C566 C567 1.424 . S
C567 H559 0.951 . S
C567 C566 1.424 . S
C567 C568 1.343 1_565 S
C568 H560 0.955 . S
C568 C563 1.429 . S
C568 C567 1.343 1_545 S
H569 C570 0.951 . S
C570 H569 0.951 . S
C570 C576 1.265 . S
H571 C576 0.950 . S
H572 C580 0.949 . S
H573 C581 0.950 . S
H574 C582 0.951 . S
H575 C583 0.955 . S
C576 C570 1.265 . S
C576 H571 0.950 . S
C576 C577 1.478 . S
C577 C564 1.394 . S
C577 C576 1.478 . S
C577 C578 1.398 . S
C578 C577 1.398 . S
C578 C579 1.436 1_565 S
C578 C583 1.429 . S
C579 C562 1.394 . S
C579 C578 1.436 1_545 S
C579 C580 1.428 . S
C580 H572 0.949 . S
C580 C579 1.428 . S
C580 C581 1.345 . S
C581 H573 0.950 . S
C581 C580 1.345 . S
C581 C582 1.424 . S
C582 H574 0.951 . S
C582 C581 1.424 . S
C582 C583 1.343 1_545 S
C583 H575 0.955 . S
C583 C578 1.429 . S
C583 C582 1.343 1_565 S
C105 C8 1.260 . S
C120 C73 1.298 . S
C135 C21 1.212 . S
C150 C86 1.265 . S
C165 C34 1.265 . S
C180 C99 1.299 . S
C195 C60 1.251 . S
C210 C47 1.206 . S
C225 C0 1.552 . S
C240 C62 1.495 . S
C255 C13 1.534 . S
C270 C75 1.540 1_565 S
C285 C88 1.504 . S
C300 C26 1.552 . S
C315 C39 1.528 . S
C330 C101 1.543 1_545 S
C345 C52 1.500 . S
C360 C10 1.517 1_655 S
C375 C23 1.475 . S
C390 C65 1.522 . S
C405 C78 1.500 . S
C420 C36 1.517 1_455 S
C435 C49 1.541 . S
C450 C91 1.532 . S
C465 C31 0.434 . S
C480 C5 0.435 . S
C495 C44 0.709 . S
C510 C18 0.709 . S
C525 C57 0.710 . S
C540 C83 0.707 . S
C555 C70 0.711 . S
C570 C96 0.701 . S
