# Generated by pormake.
# Topology bcs, (6)-cn, num edge types: 1
# Building blocks:
#     Node 0, Type 0, BuildingBlock: INOVEN_clean_sbu_0, # of connection points: 6
#     Node 1, Type 0, BuildingBlock: INOVEN_clean_sbu_0, # of connection points: 6
#     Node 2, Type 0, BuildingBlock: INOVEN_clean_sbu_0, # of connection points: 6
#     Node 3, Type 0, BuildingBlock: INOVEN_clean_sbu_0, # of connection points: 6
#     Node 4, Type 0, BuildingBlock: INOVEN_clean_sbu_0, # of connection points: 6
#     Node 5, Type 0, BuildingBlock: INOVEN_clean_sbu_0, # of connection points: 6
#     Node 6, Type 0, BuildingBlock: INOVEN_clean_sbu_0, # of connection points: 6
#     Node 7, Type 0, BuildingBlock: INOVEN_clean_sbu_0, # of connection points: 6
#     Node 8, Type 0, BuildingBlock: INOVEN_clean_sbu_0, # of connection points: 6
#     Node 9, Type 0, BuildingBlock: INOVEN_clean_sbu_0, # of connection points: 6
#     Node 10, Type 0, BuildingBlock: INOVEN_clean_sbu_0, # of connection points: 6
#     Node 11, Type 0, BuildingBlock: INOVEN_clean_sbu_0, # of connection points: 6
#     Node 12, Type 0, BuildingBlock: INOVEN_clean_sbu_0, # of connection points: 6
#     Node 13, Type 0, BuildingBlock: INOVEN_clean_sbu_0, # of connection points: 6
#     Node 14, Type 0, BuildingBlock: INOVEN_clean_sbu_0, # of connection points: 6
#     Node 15, Type 0, BuildingBlock: INOVEN_clean_sbu_0, # of connection points: 6
#     Edge 16, Type (0, 0), BuildingBlock: AJUNOK_clean_linker_0, # of connection points: 2
#     Edge 17, Type (0, 0), BuildingBlock: AJUNOK_clean_linker_0, # of connection points: 2
#     Edge 18, Type (0, 0), BuildingBlock: AJUNOK_clean_linker_0, # of connection points: 2
#     Edge 19, Type (0, 0), BuildingBlock: AJUNOK_clean_linker_0, # of connection points: 2
#     Edge 20, Type (0, 0), BuildingBlock: AJUNOK_clean_linker_0, # of connection points: 2
#     Edge 21, Type (0, 0), BuildingBlock: AJUNOK_clean_linker_0, # of connection points: 2
#     Edge 22, Type (0, 0), BuildingBlock: AJUNOK_clean_linker_0, # of connection points: 2
#     Edge 23, Type (0, 0), BuildingBlock: AJUNOK_clean_linker_0, # of connection points: 2
#     Edge 24, Type (0, 0), BuildingBlock: AJUNOK_clean_linker_0, # of connection points: 2
#     Edge 25, Type (0, 0), BuildingBlock: AJUNOK_clean_linker_0, # of connection points: 2
#     Edge 26, Type (0, 0), BuildingBlock: AJUNOK_clean_linker_0, # of connection points: 2
#     Edge 27, Type (0, 0), BuildingBlock: AJUNOK_clean_linker_0, # of connection points: 2
#     Edge 28, Type (0, 0), BuildingBlock: AJUNOK_clean_linker_0, # of connection points: 2
#     Edge 29, Type (0, 0), BuildingBlock: AJUNOK_clean_linker_0, # of connection points: 2
#     Edge 30, Type (0, 0), BuildingBlock: AJUNOK_clean_linker_0, # of connection points: 2
#     Edge 31, Type (0, 0), BuildingBlock: AJUNOK_clean_linker_0, # of connection points: 2
#     Edge 32, Type (0, 0), BuildingBlock: AJUNOK_clean_linker_0, # of connection points: 2
#     Edge 33, Type (0, 0), BuildingBlock: AJUNOK_clean_linker_0, # of connection points: 2
#     Edge 34, Type (0, 0), BuildingBlock: AJUNOK_clean_linker_0, # of connection points: 2
#     Edge 35, Type (0, 0), BuildingBlock: AJUNOK_clean_linker_0, # of connection points: 2
#     Edge 36, Type (0, 0), BuildingBlock: AJUNOK_clean_linker_0, # of connection points: 2
#     Edge 37, Type (0, 0), BuildingBlock: AJUNOK_clean_linker_0, # of connection points: 2
#     Edge 38, Type (0, 0), BuildingBlock: AJUNOK_clean_linker_0, # of connection points: 2
#     Edge 39, Type (0, 0), BuildingBlock: AJUNOK_clean_linker_0, # of connection points: 2
#     Edge 40, Type (0, 0), BuildingBlock: AJUNOK_clean_linker_0, # of connection points: 2
#     Edge 41, Type (0, 0), BuildingBlock: AJUNOK_clean_linker_0, # of connection points: 2
#     Edge 42, Type (0, 0), BuildingBlock: AJUNOK_clean_linker_0, # of connection points: 2
#     Edge 43, Type (0, 0), BuildingBlock: AJUNOK_clean_linker_0, # of connection points: 2
#     Edge 44, Type (0, 0), BuildingBlock: AJUNOK_clean_linker_0, # of connection points: 2
#     Edge 45, Type (0, 0), BuildingBlock: AJUNOK_clean_linker_0, # of connection points: 2
#     Edge 46, Type (0, 0), BuildingBlock: AJUNOK_clean_linker_0, # of connection points: 2
#     Edge 47, Type (0, 0), BuildingBlock: AJUNOK_clean_linker_0, # of connection points: 2
#     Edge 48, Type (0, 0), BuildingBlock: AJUNOK_clean_linker_0, # of connection points: 2
#     Edge 49, Type (0, 0), BuildingBlock: AJUNOK_clean_linker_0, # of connection points: 2
#     Edge 50, Type (0, 0), BuildingBlock: AJUNOK_clean_linker_0, # of connection points: 2
#     Edge 51, Type (0, 0), BuildingBlock: AJUNOK_clean_linker_0, # of connection points: 2
#     Edge 52, Type (0, 0), BuildingBlock: AJUNOK_clean_linker_0, # of connection points: 2
#     Edge 53, Type (0, 0), BuildingBlock: AJUNOK_clean_linker_0, # of connection points: 2
#     Edge 54, Type (0, 0), BuildingBlock: AJUNOK_clean_linker_0, # of connection points: 2
#     Edge 55, Type (0, 0), BuildingBlock: AJUNOK_clean_linker_0, # of connection points: 2
#     Edge 56, Type (0, 0), BuildingBlock: AJUNOK_clean_linker_0, # of connection points: 2
#     Edge 57, Type (0, 0), BuildingBlock: AJUNOK_clean_linker_0, # of connection points: 2
#     Edge 58, Type (0, 0), BuildingBlock: AJUNOK_clean_linker_0, # of connection points: 2
#     Edge 59, Type (0, 0), BuildingBlock: AJUNOK_clean_linker_0, # of connection points: 2
#     Edge 60, Type (0, 0), BuildingBlock: AJUNOK_clean_linker_0, # of connection points: 2
#     Edge 61, Type (0, 0), BuildingBlock: AJUNOK_clean_linker_0, # of connection points: 2
#     Edge 62, Type (0, 0), BuildingBlock: AJUNOK_clean_linker_0, # of connection points: 2
#     Edge 63, Type (0, 0), BuildingBlock: AJUNOK_clean_linker_0, # of connection points: 2
# Relax obj value: 0.339
# Max RMSD: 0.267
# Mean RMSD: 0.193
data_MOF--net-bcs--node1-INOVEN_clean_sbu_0--edge1-AJUNOK_clean_linker_0
_symmetry_space_group_name_H-M    P1
_symmetry_Int_Tables_number       1
_symmetry_cell_setting            triclinic
loop_
_symmetry_equiv_pos_as_xyz
'x, y, z'
_cell_length_a     33.1124
_cell_length_b     34.376735
_cell_length_c     30.97845
_cell_angle_alpha  85.984563
_cell_angle_beta   99.322594
_cell_angle_gamma 126.84318
loop_
_atom_site_label
_atom_site_type_symbol
_atom_site_fract_x
_atom_site_fract_y
_atom_site_fract_z
_atom_type_partial_charge
Gd0 Gd 0.12323 0.06314 0.07965 0.0
Gd1 Gd 1.03814 0.00987 0.02055 0.0
C2 C 0.11466 0.98295 1.01451 0.0
C3 C 0.1963 0.09375 0.14472 0.0
C4 C 0.24427 0.10038 0.15852 0.0
C5 C 0.26408 0.08742 0.13078 0.0
C6 C 0.26805 0.11595 0.20166 0.0
C7 C 0.32786 0.09949 0.1914 0.0
C8 C 0.30947 0.11559 0.21804 0.0
C9 C 0.30563 0.08697 0.14716 0.0
C10 C 0.13969 0.11122 1.00261 0.0
C11 C 1.04312 0.08653 0.08556 0.0
C12 C 0.9632 0.98924 0.96214 0.0
C13 C 0.92582 0.99856 0.96539 0.0
C14 C 0.90068 0.985 1.00224 0.0
C15 C 0.92222 0.02886 0.93518 0.0
C16 C 0.86735 0.0308 0.97742 0.0
C17 C 0.89313 0.04446 0.94084 0.0
C18 C 0.87256 1.00176 1.00857 0.0
C19 C 1.02268 0.96232 0.09742 0.0
O20 O 0.13918 0.01263 0.05026 0.0
O21 O 0.07277 0.97697 0.99432 0.0
O22 O 0.19611 0.122 0.11448 0.0
O23 O 0.15538 0.04872 0.1393 0.0
O24 O 0.15034 0.13083 0.0409 0.0
O25 O 0.11793 0.06593 1.00673 0.0
O26 O 1.0193 0.05697 0.0503 0.0
O27 O 0.08561 0.09375 0.10549 0.0
O28 O 0.96144 0.95619 0.9873 0.0
O29 O 1.00963 0.02871 0.96155 0.0
O30 O 1.01112 0.94209 0.05912 0.0
O31 O 1.044 0.00751 0.09321 0.0
H32 H 0.2461 0.07574 0.09717 0.0
H33 H 0.25287 0.12596 0.22343 0.0
H34 H 0.3237 0.12382 0.25263 0.0
H35 H 0.31838 0.07399 0.12588 0.0
H36 H 0.90466 0.96338 0.02722 0.0
H37 H 0.94297 0.04145 0.90753 0.0
H38 H 0.89291 0.06909 0.91722 0.0
H39 H 0.8555 0.9925 0.03815 0.0
Gd40 Gd 0.33948 0.7699 0.27345 0.0
Gd41 Gd 0.29617 0.79922 0.30852 0.0
C42 C 0.25963 0.69892 0.33915 0.0
C43 C 0.37281 0.72239 0.25716 0.0
C44 C 0.35856 0.67785 0.2797 0.0
C45 C 0.30796 0.64451 0.288 0.0
C46 C 0.39683 0.67577 0.30352 0.0
C47 C 0.33653 0.61624 0.3505 0.0
C48 C 0.38566 0.64446 0.33824 0.0
C49 C 0.29724 0.61471 0.32368 0.0
C50 C 0.26178 0.75686 0.2123 0.0
C51 C 0.37907 0.87295 0.24486 0.0
C52 C 0.26426 0.84529 0.33241 0.0
C53 C 0.29758 0.89822 0.33741 0.0
C54 C 0.35003 0.9226 0.33654 0.0
C55 C 0.27684 0.92385 0.33048 0.0
C56 C 0.3566 0.99307 0.30894 0.0
C57 C 0.30673 0.97169 0.31704 0.0
C58 C 0.37928 0.96968 0.32142 0.0
C59 C 0.37941 0.8189 0.36706 0.0
O60 O 0.3046 0.7171 0.32861 0.0
O61 O 0.23944 0.72146 0.3253 0.0
O62 O 0.33579 0.7195 0.23151 0.0
O63 O 0.40014 0.76132 0.28272 0.0
O64 O 0.30844 0.77867 0.20631 0.0
O65 O 0.25792 0.74471 0.25233 0.0
O66 O 0.33718 0.85926 0.25943 0.0
O67 O 0.39423 0.84527 0.25215 0.0
O68 O 0.2777 0.82333 0.36002 0.0
O69 O 0.25421 0.82954 0.29218 0.0
O70 O 0.33363 0.79636 0.37548 0.0
O71 O 0.37918 0.82785 0.32644 0.0
H72 H 0.27736 0.64497 0.26994 0.0
H73 H 0.43597 0.70087 0.29747 0.0
H74 H 0.41607 0.64387 0.35647 0.0
H75 H 0.2588 0.59268 0.33159 0.0
H76 H 0.36667 0.90316 0.34193 0.0
H77 H 0.23648 0.90548 0.33067 0.0
H78 H 0.28865 0.98939 0.30698 0.0
H79 H 0.41734 0.98539 0.31479 0.0
Gd80 Gd 0.56281 0.94098 0.60521 0.0
Gd81 Gd 0.64268 1.00245 0.57012 0.0
C82 C 0.56072 0.0293 0.54356 0.0
C83 C 0.49068 0.9058 0.65187 0.0
C84 C 0.47042 0.93042 0.66528 0.0
C85 C 0.44318 0.94146 0.63398 0.0
C86 C 0.48788 0.95215 0.70745 0.0
C87 C 0.4592 1.00173 0.68438 0.0
C88 C 0.48286 0.98793 0.71677 0.0
C89 C 0.43745 0.97671 0.64355 0.0
C90 C 0.54251 0.90466 0.52219 0.0
C91 C 0.65097 0.92055 0.63789 0.0
C92 C 0.72152 0.03758 0.53421 0.0
C93 C 0.76283 0.03307 0.54991 0.0
C94 C 0.81355 0.07451 0.55956 0.0
C95 C 0.75196 0.98687 0.55612 0.0
C96 C 0.84085 0.02323 0.55928 0.0
C97 C 0.79151 0.98237 0.56401 0.0
C98 C 0.85284 0.06924 0.5667 0.0
C99 C 0.65301 0.04432 0.64521 0.0
O100 O 0.54049 0.99517 0.57462 0.0
O101 O 0.60329 0.03782 0.53347 0.0
O102 O 0.48182 0.89477 0.61035 0.0
O103 O 0.53799 0.92567 0.66856 0.0
O104 O 0.53628 0.88011 0.55764 0.0
O105 O 0.565 0.94881 0.53316 0.0
O106 O 0.67419 0.96022 0.61299 0.0
O107 O 0.60204 0.9028 0.63809 0.0
O108 O 0.71822 0.06453 0.55891 0.0
O109 O 0.67716 0.99715 0.51963 0.0
O110 O 0.65967 0.06494 0.6078 0.0
O111 O 0.63848 1.0011 0.6403 0.0
H112 H 0.42866 0.92491 0.60132 0.0
H113 H 0.50871 0.94402 0.73227 0.0
H114 H 0.49912 1.00601 0.74881 0.0
H115 H 0.41652 0.98475 0.6188 0.0
H116 H 0.82292 0.11061 0.55808 0.0
H117 H 0.71318 0.95392 0.55145 0.0
H118 H 0.78156 0.94612 0.56236 0.0
H119 H 0.89173 0.10147 0.56829 0.0
Gd120 Gd 0.33413 0.24557 0.79167 0.0
Gd121 Gd 0.32601 0.32645 0.8028 0.0
C122 C 0.39738 0.34488 0.73329 0.0
C123 C 0.33105 0.17573 0.76207 0.0
C124 C 0.36408 0.16748 0.74483 0.0
C125 C 0.4099 0.18 0.76999 0.0
C126 C 0.34671 0.14179 0.70476 0.0
C127 C 0.41602 0.13461 0.71854 0.0
C128 C 0.37268 0.12553 0.69156 0.0
C129 C 0.43553 0.16332 0.75701 0.0
C130 C 0.40489 0.31471 0.85299 0.0
C131 C 0.26348 0.22829 0.86193 0.0
C132 C 0.33009 0.39645 0.83303 0.0
C133 C 0.29481 0.40324 0.84711 0.0
C134 C 0.24439 0.37821 0.82547 0.0
C135 C 0.31334 0.43898 0.87933 0.0
C136 C 0.23463 0.4309 0.86275 0.0
C137 C 0.2832 0.4526 0.88725 0.0
C138 C 0.21445 0.39223 0.83312 0.0
C139 C 0.25607 0.25877 0.74034 0.0
O140 O 0.37733 0.29773 0.73679 0.0
O141 O 0.38842 0.3657 0.76074 0.0
O142 O 0.34227 0.18816 0.80369 0.0
O143 O 0.31628 0.19876 0.73722 0.0
O144 O 0.38519 0.26909 0.85798 0.0
O145 O 0.38855 0.32075 0.81597 0.0
O146 O 0.28363 0.27526 0.85765 0.0
O147 O 0.27215 0.20657 0.83505 0.0
O148 O 0.32262 0.38671 0.79115 0.0
O149 O 0.34106 0.37079 0.8582 0.0
O150 O 0.27496 0.30435 0.73706 0.0
O151 O 0.27152 0.25142 0.77731 0.0
H152 H 0.42441 0.20024 0.80087 0.0
H153 H 0.3115 0.13193 0.68494 0.0
H154 H 0.35677 0.10279 0.66205 0.0
H155 H 0.46886 0.17038 0.77821 0.0
H156 H 0.22929 0.3499 0.80088 0.0
H157 H 0.35207 0.45826 0.89649 0.0
H158 H 0.2992 0.48243 0.91013 0.0
H159 H 0.17675 0.37484 0.81427 0.0
Gd160 Gd 0.12527 0.04275 0.55032 0.0
Gd161 Gd 1.05241 0.06609 0.53416 0.0
C162 C 1.02575 0.98461 0.60648 0.0
C163 C 0.19499 0.03163 0.58238 0.0
C164 C 0.20645 0.99798 0.60131 0.0
C165 C 0.19336 0.958 0.57677 0.0
C166 C 0.23673 0.00965 0.64248 0.0
C167 C 0.24197 0.94294 0.63385 0.0
C168 C 0.25426 0.98243 0.65862 0.0
C169 C 0.21107 0.93087 0.59284 0.0
C170 C 1.0469 0.98762 0.48593 0.0
C171 C 0.14399 0.11492 0.47277 0.0
C172 C 1.00002 0.09704 0.50287 0.0
C173 C 0.97014 0.11504 0.48551 0.0
C174 C 0.96402 0.14163 0.51272 0.0
C175 C 0.95132 0.10949 0.44072 0.0
C176 C 0.91455 0.15111 0.45169 0.0
C177 C 0.92394 0.12755 0.42391 0.0
C178 C 0.93619 0.15932 0.496 0.0
C179 C 0.12671 0.1156 0.60139 0.0
O180 O 0.07174 0.99681 0.60244 0.0
O181 O 1.00633 1.00355 0.57957 0.0
O182 O 0.17569 0.02507 0.54098 0.0
O183 O 0.1769 0.04628 0.60625 0.0
O184 O 0.09295 1.0023 0.48494 0.0
O185 O 1.04366 0.99951 0.52178 0.0
O186 O 0.09629 0.09789 0.47493 0.0
O187 O 0.168 0.10496 0.5046 0.0
O188 O 1.03606 0.1182 0.5365 0.0
O189 O 0.98931 0.05638 0.48842 0.0
O190 O 0.07918 0.09549 0.60273 0.0
O191 O 0.13367 0.10901 0.5645 0.0
H192 H 0.17066 0.94844 0.5446 0.0
H193 H 0.24792 0.04063 0.66177 0.0
H194 H 0.27764 0.99246 0.69051 0.0
H195 H 0.20165 0.90124 0.57261 0.0
H196 H 0.97985 0.14788 0.54713 0.0
H197 H 0.95735 0.0908 0.41877 0.0
H198 H 0.9094 0.12239 0.38924 0.0
H199 H 0.93046 0.17826 0.51792 0.0
Gd200 Gd 0.28009 0.78023 0.81995 0.0
Gd201 Gd 0.36342 0.78612 0.76666 0.0
C202 C 0.3114 0.83818 0.72711 0.0
C203 C 0.24355 0.81504 0.8625 0.0
C204 C 0.2248 0.83786 0.88766 0.0
C205 C 0.17325 0.81274 0.89402 0.0
C206 C 0.25831 0.88668 0.9043 0.0
C207 C 0.18988 0.8842 0.93209 0.0
C208 C 0.24148 0.90906 0.92576 0.0
C209 C 0.1563 0.83525 0.91534 0.0
C210 C 0.24306 0.70879 0.75605 0.0
C211 C 0.32542 0.72234 0.85667 0.0
C212 C 0.40163 0.75234 0.7249 0.0
C213 C 0.42183 0.72922 0.70232 0.0
C214 C 0.45709 0.75377 0.67206 0.0
C215 C 0.40545 0.68104 0.71067 0.0
C216 C 0.45761 0.68264 0.65924 0.0
C217 C 0.4231 0.65878 0.69032 0.0
C218 C 0.47419 0.73114 0.65106 0.0
C219 C 0.40052 0.85722 0.83087 0.0
O220 O 0.29192 0.82988 0.76378 0.0
O221 O 0.3357 0.82061 0.7179 0.0
O222 O 0.21604 0.76945 0.84819 0.0
O223 O 0.2906 0.84019 0.85438 0.0
O224 O 0.21945 0.70292 0.78883 0.0
O225 O 0.28119 0.75298 0.75694 0.0
O226 O 0.34707 0.73325 0.82082 0.0
O227 O 0.303 0.74129 0.86729 0.0
O228 O 0.42437 0.79914 0.7312 0.0
O229 O 0.35868 0.72535 0.74102 0.0
O230 O 0.42416 0.86321 0.79813 0.0
O231 O 0.36245 0.81299 0.82984 0.0
H232 H 0.14544 0.77539 0.88203 0.0
H233 H 0.29817 0.9083 0.90034 0.0
H234 H 0.26934 0.94681 0.9364 0.0
H235 H 0.11636 0.81373 0.91896 0.0
H236 H 0.47128 0.79071 0.66405 0.0
H237 H 0.379 0.66023 0.73381 0.0
H238 H 0.41002 0.62265 0.70016 0.0
H239 H 0.50045 0.75202 0.62783 0.0
Gd240 Gd 0.546 0.02862 0.0413 0.0
Gd241 Gd 0.50487 0.08326 0.02629 0.0
C242 C 0.59682 0.11708 0.97394 0.0
C243 C 0.57139 0.97307 0.03056 0.0
C244 C 0.60037 0.97201 1.00049 0.0
C245 C 0.6513 0.01167 0.9983 0.0
C246 C 0.57688 0.93007 0.97415 0.0
C247 C 0.65708 0.96404 0.94951 0.0
C248 C 0.60518 0.92614 0.94859 0.0
C249 C 0.67968 0.00751 0.97304 0.0
C250 C 0.59114 0.09956 0.10484 0.0
C251 C 0.46807 1.00201 0.10256 0.0
C252 C 0.46686 0.13173 0.02777 0.0
C253 C 0.44838 0.15163 0.05451 0.0
C254 C 0.39598 0.13051 0.05069 0.0
C255 C 0.48276 0.19527 0.07968 0.0
C256 C 0.41256 0.19292 0.10063 0.0
C257 C 0.46528 0.21568 0.10191 0.0
C258 C 0.37849 0.15104 0.07289 0.0
C259 C 0.46613 0.01012 0.96387 0.0
O260 O 0.59068 0.07717 0.98854 0.0
O261 O 0.57001 0.1303 0.9863 0.0
O262 O 0.59691 0.00874 0.05993 0.0
O263 O 0.52779 0.96357 1.0125 0.0
O264 O 0.57914 0.05631 0.11028 0.0
O265 O 0.57951 0.10472 0.0645 0.0
O266 O 0.47658 0.04388 0.0904 0.0
O267 O 0.48477 0.98352 0.08194 0.0
O268 O 0.43898 0.08481 0.01975 0.0
O269 O 0.5157 0.15177 0.03286 0.0
O270 O 0.47948 0.05344 0.95505 0.0
O271 O 0.47295 0.00788 1.00502 0.0
H272 H 0.66994 0.04485 1.01768 0.0
H273 H 0.53738 0.8995 0.97501 0.0
H274 H 0.58776 0.8921 0.93108 0.0
H275 H 0.72008 0.03661 0.97453 0.0
H276 H 0.36828 0.09817 0.03004 0.0
H277 H 0.52351 0.2143 0.08176 0.0
H278 H 0.49368 0.25003 0.1195 0.0
H279 H 0.33788 0.13323 0.06873 0.0
Gd280 Gd 0.36255 0.27105 0.32526 0.0
Gd281 Gd 0.28762 0.30545 0.2566 0.0
C282 C 0.32787 0.24657 0.21948 0.0
C283 C 0.39915 0.22271 0.37139 0.0
C284 C 0.42206 0.19463 0.3991 0.0
C285 C 0.47514 0.2176 0.41645 0.0
C286 C 0.39278 0.14321 0.40768 0.0
C287 C 0.46716 0.14103 0.44731 0.0
C288 C 0.41382 0.11823 0.43069 0.0
C289 C 0.49628 0.19251 0.43868 0.0
C290 C 0.41253 0.34855 0.26673 0.0
C291 C 0.32506 0.33272 0.36011 0.0
C292 C 0.24878 0.3517 0.20997 0.0
C293 C 0.22569 0.38044 0.18418 0.0
C294 C 0.2057 0.37517 0.13808 0.0
C295 C 0.22085 0.41354 0.20499 0.0
C296 C 0.17844 0.43246 0.13686 0.0
C297 C 0.19824 0.43741 0.18301 0.0
C298 C 0.18428 0.40011 0.1158 0.0
C299 C 0.23859 0.22902 0.31636 0.0
O300 O 0.33162 0.23043 0.25947 0.0
O301 O 0.3127 0.27549 0.21018 0.0
O302 O 0.41941 0.26935 0.37593 0.0
O303 O 0.35704 0.20239 0.3425 0.0
O304 O 0.43309 0.33183 0.29372 0.0
O305 O 0.36774 0.32641 0.27609 0.0
O306 O 0.32702 0.35045 0.32009 0.0
O307 O 0.33824 0.30247 0.37106 0.0
O308 O 0.23601 0.30854 0.19966 0.0
O309 O 0.28496 0.36976 0.24436 0.0
O310 O 0.21821 0.24668 0.2906 0.0
O311 O 0.28226 0.24962 0.30514 0.0
H312 H 0.50183 0.25632 0.41227 0.0
H313 H 0.35214 0.12111 0.39621 0.0
H314 H 0.38712 0.07948 0.43465 0.0
H315 H 0.53694 0.21495 0.44984 0.0
H316 H 0.20674 0.35123 0.11815 0.0
H317 H 0.23451 0.42122 0.23967 0.0
H318 H 0.1973 0.46119 0.20321 0.0
H319 H 0.17109 0.39284 0.08098 0.0
Gd320 Gd 0.60709 0.51649 0.05248 0.0
Gd321 Gd 0.53577 0.54203 0.03691 0.0
C322 C 0.51196 0.46544 0.11265 0.0
C323 C 0.6698 0.49635 0.0815 0.0
C324 C 0.70568 0.48457 0.09747 0.0
C325 C 0.71807 0.46451 0.06879 0.0
C326 C 0.72534 0.49049 0.14207 0.0
C327 C 0.76797 0.45495 0.12948 0.0
C328 C 0.75567 0.47538 0.15797 0.0
C329 C 0.74905 0.44996 0.08462 0.0
C330 C 0.53405 0.46849 0.9836 0.0
C331 C 0.63246 0.59689 0.98014 0.0
C332 C 0.47675 0.5673 1.01159 0.0
C333 C 0.44541 0.5847 0.99751 0.0
C334 C 0.46859 0.6349 0.99812 0.0
C335 C 0.3927 0.55202 0.98322 0.0
C336 C 0.38825 0.61972 0.96587 0.0
C337 C 0.36427 0.56949 0.96795 0.0
C338 C 0.44032 0.65223 0.98233 0.0
C339 C 0.61115 0.58908 0.10453 0.0
O340 O 0.55648 0.47535 0.10726 0.0
O341 O 0.49243 0.48375 0.08554 0.0
O342 O 0.63829 0.4775 0.04487 0.0
O343 O 0.6675 0.52663 0.10246 0.0
O344 O 0.58151 0.4871 0.98402 0.0
O345 O 0.52634 0.47534 0.01998 0.0
O346 O 0.58405 0.57978 0.9802 0.0
O347 O 0.6535 0.58236 1.01068 0.0
O348 O 0.52251 0.59627 0.03359 0.0
O349 O 0.46272 0.5238 1.00211 0.0
O350 O 0.56438 0.57157 0.10654 0.0
O351 O 0.61596 0.58197 0.06728 0.0
H352 H 0.70328 0.45946 0.03418 0.0
H353 H 0.71576 0.50517 0.16497 0.0
H354 H 0.76787 0.47809 0.19294 0.0
H355 H 0.75763 0.4342 0.06189 0.0
H356 H 0.50908 0.66101 1.00932 0.0
H357 H 0.37367 0.51315 0.9832 0.0
H358 H 0.32383 0.54402 0.95637 0.0
H359 H 0.45978 0.69114 0.98083 0.0
Gd360 Gd 0.80092 0.30806 0.31617 0.0
Gd361 Gd 0.85196 0.27164 0.26196 0.0
C362 C 0.84181 0.35768 0.22787 0.0
C363 C 0.77262 0.34311 0.36894 0.0
C364 C 0.74623 0.3643 0.38304 0.0
C365 C 0.70678 0.33799 0.40936 0.0
C366 C 0.7636 0.41285 0.37525 0.0
C367 C 0.7041 0.40784 0.41997 0.0
C368 C 0.74297 0.43382 0.39287 0.0
C369 C 0.68622 0.35896 0.42706 0.0
C370 C 0.74046 0.24677 0.24387 0.0
C371 C 0.81694 0.22699 0.35329 0.0
C372 C 0.87918 0.23497 0.20958 0.0
C373 C 0.90656 0.21419 0.19658 0.0
C374 C 0.93628 0.23429 0.16205 0.0
C375 C 0.90021 0.172 0.21449 0.0
C376 C 0.95159 0.17112 0.16357 0.0
C377 C 0.92242 0.15143 0.1988 0.0
C378 C 0.95802 0.21357 0.14613 0.0
C379 C 0.91361 0.33332 0.33352 0.0
O380 O 0.83992 0.36585 0.26835 0.0
O381 O 0.83922 0.31955 0.21618 0.0
O382 O 0.74796 0.29655 0.35999 0.0
O383 O 0.81292 0.36978 0.34904 0.0
O384 O 0.73627 0.2783 0.25891 0.0
O385 O 0.77341 0.24583 0.2702 0.0
O386 O 0.81642 0.21633 0.31285 0.0
O387 O 0.81761 0.26432 0.3634 0.0
O388 O 0.90336 0.28169 0.21719 0.0
O389 O 0.83943 0.20886 0.23025 0.0
O390 O 0.91864 0.30298 0.31713 0.0
O391 O 0.87932 0.33325 0.3083 0.0
H392 H 0.69232 0.30097 0.41732 0.0
H393 H 0.79396 0.43528 0.35575 0.0
H394 H 0.75764 0.47076 0.38462 0.0
H395 H 0.65683 0.3368 0.44752 0.0
H396 H 0.94197 0.26603 0.14631 0.0
H397 H 0.87764 0.15441 0.24074 0.0
H398 H 0.91667 0.1199 0.21492 0.0
H399 H 0.97914 0.23063 0.11896 0.0
Gd400 Gd 0.14003 0.4854 0.55851 0.0
Gd401 Gd 0.09496 0.53805 0.54669 0.0
C402 C 0.17252 0.56834 0.48283 0.0
C403 C 0.17796 0.43712 0.55469 0.0
C404 C 0.19597 0.41705 0.52764 0.0
C405 C 0.24106 0.42149 0.54297 0.0
C406 C 0.16627 0.38892 0.48906 0.0
C407 C 0.2302 0.37685 0.47804 0.0
C408 C 0.1829 0.36919 0.46474 0.0
C409 C 0.25721 0.40076 0.51914 0.0
C410 C 0.17742 0.5572 0.62178 0.0
C411 C 1.04985 0.44866 0.61453 0.0
C412 C 0.06926 0.59167 0.56333 0.0
C413 C 1.04691 0.5939 0.59914 0.0
C414 C 1.00159 0.55227 0.61128 0.0
C415 C 0.07015 0.63882 0.6203 0.0
C416 C 0.9968 0.60289 0.65714 0.0
C417 C 1.04521 0.64326 0.64948 0.0
C418 C 0.97648 0.55684 0.64017 0.0
C419 C 1.0535 0.47059 0.48098 0.0
O420 O 0.16916 0.52889 0.49607 0.0
O421 O 0.15154 0.5835 0.50198 0.0
O422 O 0.20612 0.484 0.56319 0.0
O423 O 0.12918 0.4174 0.54929 0.0
O424 O 0.16676 0.51474 0.63005 0.0
O425 O 0.16897 0.5594 0.58082 0.0
O426 O 1.05299 0.48729 0.6 0.0
O427 O 0.07762 0.43731 0.60084 0.0
O428 O 1.03979 0.55323 0.53687 0.0
O429 O 0.11581 0.60493 0.574 0.0
O430 O 1.06133 0.51235 0.47728 0.0
O431 O 0.0652 0.46426 0.52099 0.0
H432 H 0.2638 0.4408 0.57374 0.0
H433 H 0.12972 0.38166 0.47797 0.0
H434 H 0.15811 0.34753 0.4355 0.0
H435 H 0.29198 0.40504 0.53244 0.0
H436 H 0.98371 0.51691 0.59621 0.0
H437 H 0.10575 0.671 0.61198 0.0
H438 H 1.06082 0.67911 0.66198 0.0
H439 H 0.93869 0.52555 0.64536 0.0
Gd440 Gd 0.85093 0.75947 0.30876 0.0
Gd441 Gd 0.80823 0.80929 0.28539 0.0
C442 C 0.90253 0.84706 0.23942 0.0
C443 C 0.89955 0.72232 0.31513 0.0
C444 C 0.94911 0.74301 0.30121 0.0
C445 C 0.99419 0.76607 0.33185 0.0
C446 C 0.95242 0.74395 0.25663 0.0
C447 C 1.04471 0.78896 0.27334 0.0
C448 C 0.99935 0.76654 0.24293 0.0
C449 C 1.04166 0.78896 0.31801 0.0
C450 C 0.88583 0.83218 0.36667 0.0
C451 C 0.75826 0.72315 0.35584 0.0
C452 C 0.77419 0.85917 0.28658 0.0
C453 C 0.7959 0.89804 0.31892 0.0
C454 C 0.76392 0.90477 0.33594 0.0
C455 C 0.84633 0.92029 0.3399 0.0
C456 C 0.83117 0.95225 0.39682 0.0
C457 C 0.8639 0.94729 0.37876 0.0
C458 C 0.78155 0.93194 0.37473 0.0
C459 C 0.77055 0.73522 0.22856 0.0
O460 O 0.89175 0.80426 0.25087 0.0
O461 O 0.88057 0.86251 0.25677 0.0
O462 O 0.90149 0.74581 0.34759 0.0
O463 O 0.86125 0.70908 0.28405 0.0
O464 O 0.87042 0.78881 0.37728 0.0
O465 O 0.88122 0.8352 0.32571 0.0
O466 O 0.7715 0.76723 0.3459 0.0
O467 O 0.77927 0.70676 0.33818 0.0
O468 O 0.75253 0.81647 0.30355 0.0
O469 O 0.80412 0.86716 0.25907 0.0
O470 O 0.78181 0.77708 0.21735 0.0
O471 O 0.77739 0.73349 0.26938 0.0
H472 H 0.99273 0.7664 0.36649 0.0
H473 H 0.91869 0.727 0.23203 0.0
H474 H 0.99939 0.76419 0.20826 0.0
H475 H 0.07568 0.80552 0.34222 0.0
H476 H 0.72463 0.88676 0.32074 0.0
H477 H 0.8712 0.91449 0.32757 0.0
H478 H 0.9024 0.96324 0.39516 0.0
H479 H 0.75574 0.93543 0.38847 0.0
Gd480 Gd 0.86309 0.2754 0.83041 0.0
Gd481 Gd 0.78962 0.28047 0.76319 0.0
C482 C 0.75129 0.22639 0.85548 0.0
C483 C 0.93233 0.29252 0.89432 0.0
C484 C 0.92368 0.26971 0.93701 0.0
C485 C 0.87841 0.25284 0.95295 0.0
C486 C 0.95042 0.25091 0.95356 0.0
C487 C 0.87717 0.18689 0.98676 0.0
C488 C 0.92741 0.20984 0.97902 0.0
C489 C 0.85463 0.21078 0.97715 0.0
C490 C 0.79543 0.19424 0.77923 0.0
C491 C 0.90116 0.33316 0.73792 0.0
C492 C 0.71277 0.25359 0.7038 0.0
C493 C 0.70499 0.27007 0.66087 0.0
C494 C 0.6648 0.27366 0.6522 0.0
C495 C 0.74292 0.29249 0.6337 0.0
C496 C 0.70931 0.33508 0.59906 0.0
C497 C 0.74426 0.32403 0.602 0.0
C498 C 0.66726 0.3065 0.62214 0.0
C499 C 0.85292 0.35933 0.81837 0.0
O500 O 0.79824 0.24071 0.87009 0.0
O501 O 0.73915 0.23554 0.81519 0.0
O502 O 0.91708 0.26224 0.86155 0.0
O503 O 0.91853 0.32121 0.88595 0.0
O504 O 0.81213 0.19314 0.81991 0.0
O505 O 0.81874 0.23759 0.76727 0.0
O506 O 0.85408 0.31871 0.72366 0.0
O507 O 0.91356 0.32271 0.7779 0.0
O508 O 0.72788 0.28416 0.73625 0.0
O509 O 0.73714 0.23427 0.70701 0.0
O510 O 0.83795 0.36231 0.77739 0.0
O511 O 0.83078 0.31531 0.82768 0.0
H512 H 0.85803 0.26806 0.94199 0.0
H513 H 0.98551 0.2636 0.94198 0.0
H514 H 0.94538 0.1917 0.98641 0.0
H515 H 0.81626 0.19386 0.98358 0.0
H516 H 0.63513 0.2562 0.67284 0.0
H517 H 0.77413 0.28954 0.63976 0.0
H518 H 0.77626 0.34427 0.58394 0.0
H519 H 0.63977 0.31374 0.62244 0.0
Gd520 Gd 0.79694 0.75336 0.76763 0.0
Gd521 Gd 0.85746 0.82641 0.81601 0.0
C522 C 0.88668 0.74853 0.8399 0.0
C523 C 0.76609 0.68606 0.71159 0.0
C524 C 0.79657 0.67051 0.70203 0.0
C525 C 0.79761 0.63551 0.72741 0.0
C526 C 0.83023 0.69547 0.67124 0.0
C527 C 0.86409 0.64962 0.69014 0.0
C528 C 0.86448 0.68602 0.66621 0.0
C529 C 0.83077 0.62479 0.72117 0.0
C530 C 0.75031 0.73216 0.84051 0.0
C531 C 0.76478 0.82896 0.74498 0.0
C532 C 0.89067 0.89467 0.87205 0.0
C533 C 0.85879 0.90641 0.88617 0.0
C534 C 0.85604 0.94242 0.86517 0.0
C535 C 0.82451 0.8762 0.9154 0.0
C536 C 0.78649 0.91884 0.90357 0.0
C537 C 0.78795 0.88155 0.92307 0.0
C538 C 0.82036 0.94876 0.87398 0.0
C539 C 0.90464 0.84657 0.74371 0.0
O540 O 0.85129 0.72955 0.80319 0.0
O541 O 0.89681 0.79035 0.85284 0.0
O542 O 0.75214 0.67645 0.75022 0.0
O543 O 0.7832 0.73012 0.70051 0.0
O544 O 0.72805 0.72699 0.80049 0.0
O545 O 0.79746 0.75292 0.83975 0.0
O546 O 0.8034 0.85029 0.77939 0.0
O547 O 0.75254 0.7857 0.73381 0.0
O548 O 0.89836 0.90329 0.83151 0.0
O549 O 0.87932 0.85245 0.88334 0.0
O550 O 0.92601 0.85045 0.78382 0.0
O551 O 0.8577 0.82719 0.74415 0.0
H552 H 0.77264 0.61617 0.75187 0.0
H553 H 0.83129 0.72346 0.65184 0.0
H554 H 0.89145 0.70751 0.64361 0.0
H555 H 0.82967 0.59652 0.74006 0.0
H556 H 0.88139 0.96566 0.8419 0.0
H557 H 0.82444 0.84704 0.93121 0.0
H558 H 0.7605 0.85595 0.94396 0.0
H559 H 0.82034 0.97798 0.85848 0.0
Gd560 Gd 0.61791 0.56633 0.57119 0.0
Gd561 Gd 0.53106 0.5069 0.5151 0.0
C562 C 0.61532 0.49133 0.50412 0.0
C563 C 0.69164 0.59019 0.63292 0.0
C564 C 0.72582 0.57598 0.63563 0.0
C565 C 0.75366 0.58625 0.60137 0.0
C566 C 0.71946 0.54096 0.66586 0.0
C567 C 0.75434 0.51735 0.62007 0.0
C568 C 0.73383 0.51177 0.65813 0.0
C569 C 0.76756 0.55665 0.59364 0.0
C570 C 0.62911 0.61008 0.49292 0.0
C571 C 0.53784 0.58887 0.57645 0.0
C572 C 0.45087 0.46951 0.4572 0.0
C573 C 0.40486 0.46574 0.45715 0.0
C574 C 0.39444 0.47352 0.49649 0.0
C575 C 0.37872 0.46601 0.41724 0.0
C576 C 0.33881 0.49096 0.45542 0.0
C577 C 0.34568 0.47837 0.41635 0.0
C578 C 0.36223 0.48701 0.4955 0.0
C579 C 0.52193 0.46376 0.59386 0.0
O580 O 0.63984 0.52221 0.53891 0.0
O581 O 0.57024 0.47993 0.48684 0.0
O582 O 0.69578 0.62014 0.60236 0.0
O583 O 0.64425 0.55337 0.63488 0.0
O584 O 0.64145 0.63196 0.53058 0.0
O585 O 0.60852 0.56518 0.49858 0.0
O586 O 0.51114 0.55408 0.54469 0.0
O587 O 0.58368 0.60159 0.59326 0.0
O588 O 0.45776 0.44358 0.48582 0.0
O589 O 0.49173 0.51432 0.45629 0.0
O590 O 0.51223 0.44272 0.55661 0.0
O591 O 0.54002 0.50802 0.58751 0.0
H592 H 0.75974 0.61339 0.57775 0.0
H593 H 0.69839 0.53264 0.69269 0.0
H594 H 0.72331 0.48125 0.67887 0.0
H595 H 0.78413 0.56137 0.56477 0.0
H596 H 0.4147 0.47352 0.52767 0.0
H597 H 0.38705 0.46071 0.38667 0.0
H598 H 0.32948 0.48267 0.38473 0.0
H599 H 0.35813 0.4975 0.52562 0.0
Gd600 Gd 1.0035 0.57558 0.02378 0.0
Gd601 Gd 0.0749 0.62043 0.97052 0.0
C602 C 0.99349 0.65079 0.94691 0.0
C603 C 0.9612 0.57549 0.08565 0.0
C604 C 0.98929 0.61962 0.11362 0.0
C605 C 0.99026 0.61658 0.15882 0.0
C606 C 1.02341 0.66489 0.09567 0.0
C607 C 1.06066 0.70334 0.16806 0.0
C608 C 1.05893 0.70616 0.12255 0.0
C609 C 1.02494 0.65816 0.1858 0.0
C610 C 0.9698 0.5121 0.95715 0.0
C611 C 0.0804 0.54009 0.04062 0.0
C612 C 0.13156 0.63866 0.91251 0.0
C613 C 0.13827 0.60522 0.89457 0.0
C614 C 0.1803 0.62259 0.87373 0.0
C615 C 0.10434 0.55538 0.90195 0.0
C616 C 0.15763 0.5412 0.87226 0.0
C617 C 0.11425 0.5236 0.89125 0.0
C618 C 0.18963 0.59048 0.86209 0.0
C619 C 0.11155 0.67304 0.04904 0.0
O620 O 0.97827 0.62393 0.98314 0.0
O621 O 1.03318 0.65502 0.93482 0.0
O622 O 0.94706 0.58023 0.04508 0.0
O623 O 0.98244 0.55332 0.08886 0.0
O624 O 0.96028 0.49985 0.99684 0.0
O625 O 0.99281 0.5576 0.95345 0.0
O626 O 0.09298 0.56443 1.00285 0.0
O627 O 1.04609 0.54143 0.05739 0.0
O628 O 0.14941 0.65015 0.95391 0.0
O629 O 0.08573 0.62691 0.90267 0.0
O630 O 0.11707 0.69229 1.01071 0.0
O631 O 0.08583 0.62797 0.04276 0.0
H632 H 0.96502 0.58196 0.17318 0.0
H633 H 1.02421 0.66819 0.06079 0.0
H634 H 0.08534 0.74013 0.10763 0.0
H635 H 1.023 0.65477 0.22053 0.0
H636 H 0.20665 0.66096 0.86801 0.0
H637 H 0.07127 0.54135 0.91764 0.0
H638 H 0.08904 0.48562 0.89907 0.0
H639 H 0.22301 0.60443 0.84715 0.0
C640 C 0.20408 0.14783 0.89843 0.0
C641 C 0.22979 0.1988 0.89685 0.0
C642 C 0.17395 0.11961 0.9315 0.0
C643 C 0.16809 0.14079 0.96513 0.0
H644 H 0.2075 0.12931 0.874 0.0
H645 H 0.15602 0.08094 0.9312 0.0
S646 S 0.22514 0.27209 0.97601 0.0
N647 N 0.24529 0.26852 0.9321 0.0
N648 N 0.18964 0.21616 0.99364 0.0
C649 C 0.19277 0.19147 0.96357 0.0
C650 C 0.22319 0.22015 0.92979 0.0
C651 C 0.34438 0.03763 0.20074 0.0
C652 C 0.35961 0.08403 0.2124 0.0
C653 C 0.35226 0.0104 0.23151 0.0
C654 C 0.37508 0.02868 0.27458 0.0
H655 H 0.31975 0.019 0.17035 0.0
H656 H 0.33354 0.97243 0.22351 0.0
S657 S 0.4437 0.15528 0.31404 0.0
N658 N 0.41587 0.15306 0.26402 0.0
N659 N 0.42779 0.1001 0.32305 0.0
C660 C 0.39957 0.07781 0.2838 0.0
C661 C 0.39276 0.10613 0.25205 0.0
C662 C 0.45615 0.83681 0.48114 0.0
C663 C 0.50457 0.88162 0.48016 0.0
C664 C 0.4173 0.81726 0.4443 0.0
C665 C 0.42472 0.84013 0.40358 0.0
H666 H 0.44712 0.81745 0.51135 0.0
H667 H 0.38033 0.7841 0.44822 0.0
S668 S 0.54476 0.95776 0.38227 0.0
N669 N 0.55753 0.94853 0.43419 0.0
N670 N 0.48561 0.91048 0.36474 0.0
C671 C 0.47347 0.88424 0.40151 0.0
C672 C 0.51284 0.90512 0.43964 0.0
C673 C 0.42932 0.07265 0.74222 0.0
C674 C 0.43434 0.10639 0.71106 0.0
C675 C 0.43917 0.04 0.73388 0.0
C676 C 0.45447 0.04012 0.69408 0.0
H677 H 0.4154 0.06999 0.77244 0.0
H678 H 0.43248 0.01309 0.75799 0.0
S679 S 0.4799 0.12624 0.60456 0.0
N680 N 0.45939 0.14118 0.64079 0.0
N681 N 0.47977 0.08056 0.6253 0.0
C682 C 0.46232 0.07559 0.66363 0.0
C683 C 0.4517 0.10854 0.67204 0.0
C684 C 0.31257 0.93912 0.6715 0.0
C685 C 0.26148 0.91467 0.65118 0.0
C686 C 0.33014 0.91348 0.69306 0.0
C687 C 0.29796 0.86267 0.69387 0.0
H688 H 0.33853 0.97847 0.67232 0.0
H689 H 0.36798 0.93342 0.71177 0.0
S690 S 0.16135 0.7811 0.64639 0.0
N691 N 0.17886 0.8362 0.6339 0.0
N692 N 0.21301 0.78845 0.67307 0.0
C693 C 0.24757 0.83758 0.67236 0.0
C694 C 0.22916 0.86349 0.65109 0.0
C695 C 0.44609 0.94571 0.85588 0.0
C696 C 0.41695 0.89572 0.86522 0.0
C697 C 0.461 0.98199 0.8874 0.0
C698 C 0.4488 0.9705 0.93043 0.0
H699 H 0.45696 0.95698 0.82362 0.0
H700 H 0.48298 0.01961 0.87804 0.0
S701 S 0.37401 0.84543 0.97247 0.0
N702 N 0.37665 0.83722 0.92139 0.0
N703 N 0.40564 0.90466 0.98019 0.0
C704 C 0.42019 0.92074 0.94028 0.0
C705 C 0.4041 0.88376 0.90796 0.0
C706 C 0.34785 0.20739 0.1153 0.0
C707 C 0.3932 0.21118 0.12927 0.0
C708 C 0.32745 0.22071 0.14319 0.0
C709 C 0.35095 0.23766 0.18667 0.0
H710 H 0.32742 0.19349 0.08258 0.0
H711 H 0.2921 0.2159 0.13116 0.0
S712 S 0.47391 0.2619 0.23821 0.0
N713 N 0.46265 0.23787 0.18955 0.0
N714 N 0.42521 0.26295 0.24038 0.0
C715 C 0.39737 0.2439 0.20019 0.0
C716 C 0.41817 0.23072 0.17209 0.0
C717 C 0.14412 0.15532 0.39976 0.0
C718 C 0.16973 0.14415 0.43343 0.0
C719 C 0.16661 0.18181 0.36264 0.0
C720 C 0.21612 0.19875 0.35632 0.0
H721 H 0.10604 0.1436 0.40199 0.0
H722 H 0.14464 0.18924 0.33852 0.0
S723 S 0.30055 0.17997 0.43429 0.0
N724 N 0.24858 0.15305 0.45735 0.0
N725 N 0.28987 0.20176 0.3882 0.0
C726 C 0.24216 0.18772 0.38959 0.0
C727 C 0.21937 0.16091 0.42768 0.0
C728 C 1.02174 0.17776 0.12732 0.0
C729 C 0.97483 0.14835 0.14468 0.0
C730 C 1.0436 0.15822 0.10903 0.0
C731 C 1.0194 0.1076 0.10516 0.0
H732 H 1.04277 0.21689 0.12848 0.0
H733 H 0.07979 0.18332 0.09721 0.0
S734 S 0.89727 0.01267 0.14552 0.0
N735 N 0.90706 0.06393 0.15794 0.0
N736 N 0.94562 0.02846 0.12109 0.0
C737 C 0.97266 0.07764 0.12195 0.0
C738 C 0.9513 0.09745 0.14219 0.0
C739 C 0.164 0.59525 0.40676 0.0
C740 C 0.19532 0.59454 0.4431 0.0
C741 C 0.1848 0.62774 0.37253 0.0
C742 C 0.23791 0.6609 0.37306 0.0
H743 H 0.12294 0.57173 0.40565 0.0
H744 H 0.15909 0.62771 0.34598 0.0
S745 S 0.3363 0.67765 0.46336 0.0
N746 N 0.28186 0.63218 0.47894 0.0
N747 N 0.32127 0.69226 0.41463 0.0
C748 C 0.2696 0.65997 0.40901 0.0
C749 C 0.24829 0.62714 0.444 0.0
C750 C 0.73417 0.91909 0.67185 0.0
C751 C 0.67981 0.89687 0.66562 0.0
C752 C 0.76006 0.89894 0.6968 0.0
C753 C 0.7356 0.85283 0.71873 0.0
H754 H 0.75832 0.95388 0.65718 0.0
H755 H 0.80102 0.92043 0.69813 0.0
S756 S 0.59388 0.77703 0.71752 0.0
N757 N 0.60398 0.82355 0.68849 0.0
N758 N 0.64976 0.78696 0.7312 0.0
C759 C 0.6813 0.83017 0.71274 0.0
C760 C 0.65504 0.8512 0.68818 0.0
C761 C 0.46241 0.38205 0.9632 0.0
C762 C 0.49518 0.43057 0.95104 0.0
C763 C 0.43351 0.34406 0.93131 0.0
C764 C 0.43642 0.35397 0.88667 0.0
H765 H 0.46098 0.3733 0.99747 0.0
H766 H 0.40894 0.30694 0.94159 0.0
S767 S 0.51577 0.47557 0.83891 0.0
N768 N 0.52842 0.48676 0.89223 0.0
N769 N 0.47377 0.41595 0.83219 0.0
C770 C 0.46809 0.40261 0.8744 0.0
C771 C 0.49763 0.44086 0.90671 0.0
C772 C 0.96104 0.91859 0.38163 0.0
C773 C 0.92192 0.87397 0.39717 0.0
C774 C 1.0013 0.95586 0.4108 0.0
C775 C 1.00272 0.94987 0.45612 0.0
H776 H 0.96196 0.92387 0.34681 0.0
H777 H 1.03187 0.98922 0.39789 0.0
S778 S 0.90836 0.84112 0.51319 0.0
N779 N 0.88603 0.82667 0.46063 0.0
N780 N 0.96145 0.89723 0.51544 0.0
C781 C 0.9627 0.90648 0.4721 0.0
C782 C 0.9222 0.86833 0.44251 0.0
C783 C 0.54554 0.66284 0.6057 0.0
C784 C 0.51571 0.61224 0.59534 0.0
C785 C 0.52654 0.68485 0.62473 0.0
C786 C 0.47665 0.65788 0.6365 0.0
H787 H 0.58439 0.68616 0.59876 0.0
H788 H 0.55216 0.72375 0.63102 0.0
S789 S 0.38257 0.52316 0.61834 0.0
N790 N 0.43309 0.53576 0.59971 0.0
N791 N 0.39785 0.57566 0.63485 0.0
C792 C 0.44651 0.60697 0.62634 0.0
C793 C 0.46568 0.5848 0.60621 0.0
C794 C 0.67941 0.14759 0.94845 0.0
C795 C 0.63602 0.14717 0.944 0.0
C796 C 0.71626 0.17346 0.92011 0.0
C797 C 0.71129 0.1996 0.88527 0.0
H798 H 0.68515 0.1277 0.97429 0.0
H799 H 0.74844 0.17204 0.925 0.0
S800 S 0.60368 0.20868 0.85769 0.0
N801 N 0.5899 0.17473 0.90124 0.0
N802 N 0.65825 0.2224 0.84747 0.0
C803 C 0.66772 0.19905 0.88001 0.0
C804 C 0.63054 0.17331 0.90949 0.0
C805 C 0.13397 0.50063 0.0455 0.0
C806 C 0.1051 0.5121 0.0649 0.0
C807 C 0.15569 0.47567 0.06732 0.0
C808 C 0.15294 0.45973 0.1121 0.0
H809 H 0.13993 0.51083 1.01199 0.0
H810 H 0.17607 0.46947 0.04821 0.0
S811 S 0.08143 0.47794 0.18074 0.0
N812 N 0.07542 0.50194 0.1343 0.0
N813 N 0.1153 0.45876 0.1736 0.0
C814 C 0.12427 0.47115 0.13182 0.0
C815 C 0.10127 0.49561 0.10932 0.0
C816 C 0.63982 0.64137 0.90756 0.0
C817 C 0.66346 0.63268 0.94544 0.0
C818 C 0.66778 0.6736 0.87464 0.0
C819 C 0.72138 0.69986 0.87759 0.0
H820 H 0.59891 0.6225 0.90282 0.0
H821 H 0.64688 0.67771 0.8463 0.0
S822 S 0.80317 0.69227 0.97016 0.0
N823 N 0.7452 0.65476 0.98339 0.0
N824 N 0.79678 0.71479 0.92288 0.0
C825 C 0.74563 0.69214 0.91558 0.0
C826 C 0.71715 0.65894 0.94884 0.0
C827 C 0.79765 0.36439 0.15794 0.0
C828 C 0.83593 0.38739 0.19453 0.0
C829 C 0.77816 0.38788 0.13482 0.0
C830 C 0.79664 0.4352 0.14742 0.0
H831 H 0.77928 0.32656 0.14969 0.0
H832 H 0.74577 0.36735 0.1092 0.0
S833 S 0.90351 0.51382 0.23592 0.0
N834 N 0.89633 0.46193 0.23858 0.0
N835 N 0.86102 0.50663 0.19453 0.0
C836 C 0.83859 0.46016 0.18107 0.0
C837 C 0.85799 0.43613 0.2047 0.0
C838 C 0.96973 0.4245 0.4302 0.0
C839 C 1.01575 0.43098 0.44729 0.0
C840 C 0.93657 0.39279 0.39384 0.0
C841 C 0.94813 0.36642 0.37269 0.0
H842 H 0.95968 0.44488 0.44464 0.0
H843 H 0.90195 0.38933 0.38201 0.0
S844 S 0.06595 0.3738 0.40161 0.0
N845 N 0.07221 0.41038 0.43836 0.0
N846 N 1.01035 0.35078 0.37072 0.0
C847 C 0.99406 0.37266 0.38951 0.0
C848 C 1.02771 0.40489 0.42651 0.0
C849 C 0.68303 0.68795 0.45225 0.0
C850 C 0.6576 0.63725 0.45506 0.0
C851 C 0.71408 0.71511 0.41956 0.0
C852 C 0.7221 0.69312 0.38849 0.0
H853 H 0.67957 0.70709 0.476 0.0
H854 H 0.73316 0.75399 0.41952 0.0
S855 S 0.66266 0.56108 0.37981 0.0
N856 N 0.64102 0.566 0.42193 0.0
N857 N 0.69988 0.61667 0.36194 0.0
C858 C 0.69611 0.64229 0.39043 0.0
C859 C 0.66381 0.61455 0.42317 0.0
C860 C 0.88449 0.3889 0.8966 0.0
C861 C 0.88423 0.40004 0.85201 0.0
C862 C 0.91275 0.42545 0.92973 0.0
C863 C 0.94219 0.47515 0.92009 0.0
H864 H 0.86213 0.35137 0.90625 0.0
H865 H 0.91108 0.41438 0.9634 0.0
S866 S 0.95675 0.52435 0.80847 0.0
N867 N 0.91744 0.46471 0.79978 0.0
N868 N 0.97068 0.53362 0.86219 0.0
C869 C 0.94307 0.48708 0.87559 0.0
C870 C 0.91401 0.44955 0.84159 0.0
C871 C 0.9578 0.9265 0.20079 0.0
C872 C 0.93664 0.87667 0.20513 0.0
C873 C 0.98709 0.95432 0.16725 0.0
C874 C 0.99591 0.93356 0.13564 0.0
H875 H 0.95136 0.94428 0.22337 0.0
H876 H 1.00172 0.99216 0.1654 0.0
S877 S 0.95029 0.80508 0.13211 0.0
N878 N 0.92833 0.80844 0.17483 0.0
N879 N 0.98182 0.85995 0.11183 0.0
C880 C 0.97562 0.88402 0.13991 0.0
C881 C 0.94653 0.8559 0.17448 0.0
C882 C 0.82657 0.10792 0.94803 0.0
C883 C 0.84484 0.13375 0.98738 0.0
C884 C 0.82077 0.06472 0.94772 0.0
C885 C 0.84128 0.05247 0.98509 0.0
H886 H 0.82261 0.12345 0.91741 0.0
H887 H 0.81086 0.04688 0.91624 0.0
S888 S 0.82984 0.07868 0.10716 0.0
N889 N 0.83589 0.11406 0.06482 0.0
N890 N 0.83823 0.09444 0.05359 0.0
C891 C 0.84852 0.06862 0.02892 0.0
C892 C 0.84444 0.10679 0.02821 0.0
C893 C 0.77276 0.13133 0.72448 0.0
C894 C 0.75697 0.15094 0.74986 0.0
C895 C 0.73782 0.09402 0.69265 0.0
C896 C 0.68591 0.07521 0.68496 0.0
H897 H 0.8127 0.14607 0.72822 0.0
H898 H 0.75194 0.08141 0.67245 0.0
S899 S 0.6247 0.11228 0.74402 0.0
N900 N 0.68526 0.14661 0.76682 0.0
N901 N 0.62023 0.07788 0.70606 0.0
C902 C 0.66938 0.09341 0.71097 0.0
C903 C 0.70477 0.13091 0.74374 0.0
C904 C 0.84564 0.03346 0.48102 0.0
C905 C 0.85799 0.01766 0.52071 0.0
C906 C 0.84053 0.01406 0.44104 0.0
C907 C 0.84775 0.97839 0.43882 0.0
H908 H 0.83499 0.05772 0.48067 0.0
H909 H 0.82818 0.02504 0.41143 0.0
S910 S 0.88059 0.92415 0.53201 0.0
N911 N 0.87808 0.96444 0.55504 0.0
N912 N 0.86916 0.92817 0.47863 0.0
C913 C 0.86307 0.96393 0.4776 0.0
C914 C 0.86801 0.98357 0.51885 0.0
C915 C 0.87541 0.23382 0.41854 0.0
C916 C 0.83107 0.20411 0.38802 0.0
C917 C 0.90091 0.21569 0.44119 0.0
C918 C 0.88259 0.16732 0.43407 0.0
H919 H 0.89306 0.27227 0.42203 0.0
H920 H 0.93693 0.24056 0.46198 0.0
S921 S 0.76162 0.07264 0.36495 0.0
N922 N 0.76575 0.12283 0.35689 0.0
N923 N 0.81254 0.08829 0.40022 0.0
C924 C 0.83543 0.13628 0.40707 0.0
C925 C 0.80985 0.1548 0.3839 0.0
C926 C 0.69961 0.16842 0.20103 0.0
C927 C 0.70495 0.2117 0.20605 0.0
C928 C 0.66332 0.1332 0.16794 0.0
C929 C 0.63126 0.13987 0.13752 0.0
H930 H 0.72266 0.16098 0.22362 0.0
H931 H 0.66027 0.10013 0.16642 0.0
S932 S 0.63144 0.2479 0.13492 0.0
N933 N 0.67555 0.25972 0.17682 0.0
N934 N 0.60876 0.19422 0.11415 0.0
C935 C 0.63731 0.18364 0.14126 0.0
C936 C 0.67367 0.21924 0.17556 0.0
C937 C 0.72702 0.9415 0.88284 0.0
C938 C 0.75128 0.92797 0.91525 0.0
C939 C 0.6964 0.95365 0.89373 0.0
C940 C 0.68972 0.95286 0.93727 0.0
H941 H 0.73159 0.94259 0.84884 0.0
H942 H 0.67812 0.96384 0.86823 0.0
S943 S 0.74143 0.91786 0.03405 0.0
N944 N 0.76385 0.91264 0.99272 0.0
N945 N 0.70679 0.9362 1.01261 0.0
C946 C 0.71256 0.93866 0.96977 0.0
C947 C 0.74313 0.92581 0.95888 0.0
C948 C 0.94492 0.9321 0.64427 0.0
C949 C 0.99517 0.94842 0.64134 0.0
C950 C 0.91565 0.8984 0.67584 0.0
C951 C 0.93516 0.8797 0.70768 0.0
H952 H 0.92792 0.94599 0.62225 0.0
H953 H 0.87764 0.88799 0.67598 0.0
S954 S 0.06509 0.91104 0.71697 0.0
N955 N 0.06275 0.94227 0.67489 0.0
N956 N 1.00928 0.88145 0.73431 0.0
C957 C 0.98555 0.89614 0.70573 0.0
C958 C 1.01497 0.92963 0.67292 0.0
C959 C 0.12294 0.89967 0.94024 0.0
C960 C 0.17118 0.90912 0.95475 0.0
C961 C 0.10557 0.92303 0.95949 0.0
C962 C 0.13455 0.95736 0.99536 0.0
H963 H 0.09825 0.87439 0.91281 0.0
H964 H 0.06852 0.91389 0.94573 0.0
S965 S 0.2622 0.99373 0.0493 0.0
N966 N 0.24655 0.95488 1.00999 0.0
N967 N 0.21436 0.99757 0.04537 0.0
C968 C 0.18239 0.96645 1.01089 0.0
C969 C 0.20037 0.94298 0.99102 0.0
C970 C 0.96637 0.41168 0.64176 0.0
C971 C 1.01285 0.4176 0.64616 0.0
C972 C 0.93109 0.38439 0.67124 0.0
C973 C 0.94071 0.36233 0.70757 0.0
H974 H 0.95679 0.42804 0.61487 0.0
H975 H 0.896 0.38111 0.66558 0.0
S976 S 1.05833 0.36898 0.73578 0.0
N977 N 0.06721 0.39993 0.69054 0.0
N978 N 1.00192 0.34989 0.74658 0.0
C979 C 0.98758 0.36863 0.71285 0.0
C980 C 1.02319 0.39575 0.68209 0.0
C981 C 0.48576 0.04391 0.52003 0.0
C982 C 0.5367 0.05807 0.51973 0.0
C983 C 0.46445 0.06897 0.49748 0.0
C984 C 0.4913 0.11258 0.47227 0.0
H985 H 0.46081 0.01192 0.53789 0.0
H986 H 0.42546 0.05358 0.50067 0.0
S987 S 0.62654 0.16824 0.45855 0.0
N988 N 0.61252 0.12146 0.48904 0.0
N989 N 0.57514 0.16685 0.44993 0.0
C990 C 0.54241 0.12724 0.47209 0.0
C991 C 0.56373 0.10118 0.49428 0.0
C992 C 0.70043 0.66025 0.12494 0.0
C993 C 0.65417 0.62115 0.13792 0.0
C994 C 0.73967 0.69596 0.15546 0.0
C995 C 0.73412 0.69257 0.19975 0.0
H996 H 0.70518 0.6649 0.09071 0.0
H997 H 0.77368 0.72743 0.14413 0.0
S998 S 0.62327 0.59287 0.25075 0.0
N999 N 0.60654 0.578 0.19792 0.0
N1000 N 0.68143 0.6446 0.25601 0.0
C1001 C 0.68972 0.65148 0.21366 0.0
C1002 C 0.64924 0.61577 0.18239 0.0
C1003 C 0.22538 0.23578 0.66085 0.0
C1004 C 0.2261 0.22174 0.70456 0.0
C1005 C 0.19612 0.20079 0.6265 0.0
C1006 C 0.16652 0.15104 0.63516 0.0
H1007 H 0.24692 0.27392 0.65321 0.0
H1008 H 0.1945 0.21266 0.59333 0.0
S1009 S 0.15716 0.09534 0.74315 0.0
N1010 N 0.19664 0.15453 0.75413 0.0
N1011 N 0.14075 0.08912 0.68944 0.0
C1012 C 0.16806 0.13655 0.67834 0.0
C1013 C 0.1982 0.17191 0.71318 0.0
C1014 C 0.62974 0.40354 0.44476 0.0
C1015 C 0.68232 0.43079 0.44067 0.0
C1016 C 0.60874 0.42352 0.46363 0.0
C1017 C 0.63902 0.47147 0.48221 0.0
H1018 H 0.60388 0.36614 0.43257 0.0
H1019 H 0.56816 0.40022 0.46504 0.0
S1020 S 0.77683 0.5623 0.47361 0.0
N1021 N 0.7627 0.51184 0.45289 0.0
N1022 N 0.72381 0.5478 0.48865 0.0
C1023 C 0.69114 0.49979 0.47694 0.0
C1024 C 0.7124 0.47998 0.4565 0.0
C1025 C 0.39822 0.95818 0.1506 0.0
C1026 C 0.44844 0.97867 0.14416 0.0
C1027 C 0.37664 0.92644 0.18534 0.0
C1028 C 0.40458 0.91416 0.21463 0.0
H1029 H 0.3745 0.96417 0.12721 0.0
H1030 H 0.3369 0.90903 0.1875 0.0
S1031 S 0.53988 0.96419 0.21569 0.0
N1032 N 0.52686 0.9884 0.17296 0.0
N1033 N 0.48692 0.92993 0.23764 0.0
C1034 C 0.45581 0.93735 0.2102 0.0
C1035 C 0.47752 0.96923 0.17513 0.0
C1036 C 0.94768 0.67035 0.87296 0.0
C1037 C 0.96614 0.67591 0.91973 0.0
C1038 C 0.92268 0.69163 0.84868 0.0
C1039 C 0.91415 0.72349 0.86708 0.0
H1040 H 0.95174 0.64791 0.854 0.0
H1041 H 0.91039 0.68308 0.8139 0.0
S1042 S 0.95524 0.75457 0.9878 0.0
N1043 N 0.97157 0.71846 0.98211 0.0
N1044 N 0.93004 0.75866 0.93867 0.0
C1045 C 0.93337 0.73012 0.91365 0.0
C1046 C 0.95715 0.70704 0.93861 0.0
C1047 C 0.50738 0.41922 0.18299 0.0
C1048 C 0.48473 0.43502 0.15118 0.0
C1049 C 0.48394 0.39231 0.21965 0.0
C1050 C 0.43615 0.37916 0.22724 0.0
H1051 H 0.54403 0.42788 0.17978 0.0
H1052 H 0.50374 0.38142 0.24236 0.0
S1053 S 0.35923 0.41038 0.15448 0.0
N1054 N 0.41022 0.43443 0.13055 0.0
N1055 N 0.36703 0.38442 0.19869 0.0
C1056 C 0.41283 0.39446 0.19578 0.0
C1057 C 0.43674 0.42204 0.15828 0.0
C1058 C 0.3612 0.67477 0.9582 0.0
C1059 C 0.36181 0.63856 0.94031 0.0
C1060 C 0.34503 0.69938 0.93163 0.0
C1061 C 0.33042 0.68934 0.88625 0.0
H1062 H 0.37529 0.68545 0.99255 0.0
H1063 H 0.34741 0.7286 0.94612 0.0
S1064 S 0.32268 0.59597 0.82409 0.0
N1065 N 0.3433 0.5919 0.87516 0.0
N1066 N 0.31462 0.63881 0.82514 0.0
C1067 C 0.32869 0.65166 0.86852 0.0
C1068 C 0.34391 0.62604 0.89558 0.0
C1069 C 0.17602 0.58411 0.69624 0.0
C1070 C 0.19408 0.59624 0.65545 0.0
C1071 C 0.19142 0.62019 0.72819 0.0
C1072 C 0.22626 0.67048 0.7213 0.0
H1073 H 0.14881 0.54623 0.70322 0.0
H1074 H 0.17609 0.60848 0.75875 0.0
S1075 S 0.28395 0.72213 0.61948 0.0
N1076 N 0.24777 0.66276 0.60982 0.0
N1077 N 0.27708 0.72977 0.66912 0.0
C1078 C 0.24418 0.68294 0.68041 0.0
C1079 C 0.22796 0.64625 0.64778 0.0
C1080 C 0.43991 0.3558 0.66668 0.0
C1081 C 0.43182 0.37613 0.69934 0.0
C1082 C 0.46999 0.38442 0.63371 0.0
C1083 C 0.49401 0.43503 0.63172 0.0
H1084 H 0.42212 0.31717 0.66602 0.0
H1085 H 0.47386 0.36644 0.60908 0.0
S1086 S 0.48675 0.50735 0.7095 0.0
N1087 N 0.45198 0.45147 0.72727 0.0
N1088 N 0.5081 0.50418 0.66629 0.0
C1089 C 0.48721 0.45604 0.66461 0.0
C1090 C 0.45636 0.42701 0.69796 0.0
C1091 C 0.17243 0.69183 0.17099 0.0
C1092 C 0.21954 0.73849 0.17327 0.0
C1093 C 0.13745 0.67199 0.13128 0.0
C1094 C 0.14707 0.69801 0.09192 0.0
H1095 H 0.16355 0.66947 0.19945 0.0
H1096 H 0.1028 0.63525 0.1312 0.0
S1097 S 0.26253 0.82364 0.08129 0.0
N1098 N 0.27213 0.81122 0.13276 0.0
N1099 N 0.20648 0.77484 0.05964 0.0
C1100 C 0.19275 0.74564 0.09456 0.0
C1101 C 0.22871 0.76547 0.13464 0.0
C1102 C 0.77504 0.42485 0.59874 0.0
C1103 C 0.72432 0.38375 0.58482 0.0
C1104 C 0.78608 0.47008 0.60691 0.0
C1105 C 0.7467 0.47505 0.60164 0.0
H1106 H 0.80549 0.4212 0.60853 0.0
H1107 H 0.82442 0.49984 0.62105 0.0
S1108 S 0.61044 0.38226 0.55865 0.0
N1109 N 0.63747 0.35499 0.55644 0.0
N1110 N 0.65705 0.43817 0.57745 0.0
C1111 C 0.69747 0.43638 0.58293 0.0
C1112 C 0.68678 0.39126 0.57244 0.0
C1113 C 0.09758 0.81826 0.21478 0.0
C1114 C 0.09169 0.80238 0.25802 0.0
C1115 C 0.09538 0.78929 0.18347 0.0
C1116 C 0.09352 0.74817 0.19654 0.0
H1117 H 0.08966 0.84386 0.20316 0.0
H1118 H 0.08678 0.79471 0.14935 0.0
S1119 S 0.12491 0.72288 0.31005 0.0
N1120 N 0.11553 0.76436 0.31514 0.0
N1121 N 0.11806 0.71362 0.25689 0.0
C1122 C 0.1086 0.74573 0.24108 0.0
C1123 C 0.10781 0.77345 0.2724 0.0
C1124 C 0.95611 0.61659 0.70943 0.0
C1125 C 0.96141 0.61198 0.66657 0.0
C1126 C 0.92409 0.62853 0.71698 0.0
C1127 C 0.89738 0.63671 0.6818 0.0
H1128 H 0.97707 0.61148 0.73696 0.0
H1129 H 0.92108 0.6324 0.75049 0.0
S1130 S 0.90054 0.62914 0.56343 0.0
N1131 N 0.93851 0.61598 0.58884 0.0
N1132 N 0.8792 0.63927 0.60255 0.0
C1133 C 0.90297 0.63212 0.6388 0.0
C1134 C 0.9348 0.61946 0.63131 0.0
C1135 C 0.27831 0.50676 0.42073 0.0
C1136 C 0.32101 0.52135 0.45213 0.0
C1137 C 0.28143 0.5392 0.38918 0.0
C1138 C 0.32619 0.5873 0.3903 0.0
H1139 H 0.24693 0.46856 0.41538 0.0
H1140 H 0.25131 0.52479 0.36136 0.0
S1141 S 0.43475 0.64759 0.48141 0.0
N1142 N 0.39876 0.58969 0.4937 0.0
N1143 N 0.40497 0.65153 0.43506 0.0
C1144 C 0.36301 0.60448 0.42813 0.0
C1145 C 0.35943 0.57129 0.46001 0.0
C1146 C 0.19873 0.46066 0.90339 0.0
C1147 C 0.20896 0.4537 0.86359 0.0
C1148 C 0.18034 0.48782 0.90546 0.0
C1149 C 0.17257 0.50938 0.86794 0.0
H1150 H 0.20606 0.44593 0.93314 0.0
H1151 H 0.17385 0.49343 0.93689 0.0
S1152 S 0.19409 0.5019 0.75624 0.0
N1153 N 0.20997 0.46997 0.78598 0.0
N1154 N 0.17568 0.52159 0.79007 0.0
C1155 C 0.18205 0.50217 0.82793 0.0
C1156 C 0.20012 0.47402 0.82569 0.0
C1157 C 0.30584 0.33685 0.43654 0.0
C1158 C 0.30102 0.34334 0.39093 0.0
C1159 C 0.28269 0.34694 0.46446 0.0
C1160 C 0.25252 0.363 0.44814 0.0
H1161 H 0.32822 0.32451 0.45096 0.0
H1162 H 0.2884 0.34185 0.49918 0.0
S1163 S 0.22654 0.38486 0.33105 0.0
N1164 N 0.26195 0.36595 0.33113 0.0
N1165 N 0.21998 0.38484 0.38256 0.0
C1166 C 0.24665 0.36848 0.40249 0.0
C1167 C 0.27042 0.35879 0.37435 0.0
loop_
_geom_bond_atom_site_label_1
_geom_bond_atom_site_label_2
_geom_bond_distance
_geom_bond_site_symmetry_2
_ccdc_geom_bond_type
Gd0 C3 2.818 . S
Gd0 O20 2.361 1_545 S
Gd0 O22 2.448 . S
Gd0 O23 2.506 1_545 S
Gd0 O24 2.435 . S
Gd0 O25 2.717 1_554 S
Gd0 O27 2.395 . S
Gd0 O31 2.327 1_445 S
Gd1 C12 2.818 1_565 S
Gd1 O21 2.395 . S
Gd1 O25 2.327 1_665 S
Gd1 O26 2.377 1_566 S
Gd1 O28 2.448 . S
Gd1 O29 2.506 1_565 S
Gd1 O30 2.435 1_556 S
Gd1 O31 2.717 1_556 S
C2 O20 1.249 1_556 S
C2 O21 1.240 1_455 S
C3 Gd0 2.818 . S
C3 C4 1.510 . S
C3 O22 1.249 . S
C3 O23 1.252 1_545 S
C4 C3 1.510 . S
C4 C5 1.404 . S
C4 C6 1.352 1_545 S
C5 C4 1.404 . S
C5 C9 1.389 . S
C5 H32 0.930 . S
C6 C4 1.352 1_565 S
C6 C8 1.374 . S
C6 H33 0.931 . S
C7 C8 1.359 . S
C7 C9 1.364 1_565 S
C8 C6 1.374 . S
C8 C7 1.359 . S
C8 H34 0.931 . S
C9 C5 1.389 . S
C9 C7 1.364 1_545 S
C9 H35 0.931 . S
C10 O24 1.256 1_556 S
C10 O25 1.257 . S
C11 O26 1.240 . S
C11 O27 1.240 1_655 S
C12 Gd1 2.818 1_545 S
C12 C13 1.510 . S
C12 O28 1.249 1_545 S
C12 O29 1.252 . S
C13 C12 1.510 . S
C13 C14 1.404 . S
C13 C15 1.352 . S
C14 C13 1.404 . S
C14 C18 1.389 . S
C14 H36 0.930 1_545 S
C15 C13 1.352 . S
C15 C17 1.374 . S
C15 H37 0.931 . S
C16 C17 1.359 . S
C16 C18 1.364 . S
C17 C15 1.374 . S
C17 C16 1.359 . S
C17 H38 0.931 . S
C18 C14 1.389 . S
C18 C16 1.364 . S
C18 H39 0.931 . S
C19 O30 1.256 . S
C19 O31 1.257 . S
O20 Gd0 2.361 1_565 S
O20 C2 1.249 1_554 S
O21 Gd1 2.395 . S
O21 C2 1.240 1_655 S
O22 Gd0 2.448 . S
O22 C3 1.249 . S
O23 Gd0 2.506 1_565 S
O23 C3 1.252 1_565 S
O24 Gd0 2.435 . S
O24 C10 1.256 1_554 S
O25 Gd0 2.717 1_556 S
O25 Gd1 2.327 1_445 S
O25 C10 1.257 . S
O26 Gd1 2.377 1_544 S
O26 C11 1.240 . S
O27 Gd0 2.395 . S
O27 C11 1.240 1_455 S
O28 Gd1 2.448 . S
O28 C12 1.249 1_565 S
O29 Gd1 2.506 1_545 S
O29 C12 1.252 . S
O30 Gd1 2.435 1_554 S
O30 C19 1.256 . S
O31 Gd0 2.327 1_665 S
O31 Gd1 2.717 1_554 S
O31 C19 1.257 . S
H32 C5 0.930 . S
H33 C6 0.931 . S
H34 C8 0.931 . S
H35 C9 0.931 . S
H36 C14 0.930 1_565 S
H37 C15 0.931 . S
H38 C17 0.931 . S
H39 C18 0.931 . S
Gd40 C43 2.818 . S
Gd40 O60 2.377 . S
Gd40 O62 2.448 . S
Gd40 O63 2.506 . S
Gd40 O64 2.435 . S
Gd40 O65 2.717 . S
Gd40 O67 2.395 . S
Gd40 O71 2.327 . S
Gd41 C52 2.818 . S
Gd41 O61 2.395 . S
Gd41 O65 2.327 . S
Gd41 O66 2.377 . S
Gd41 O68 2.448 . S
Gd41 O69 2.506 . S
Gd41 O70 2.435 . S
Gd41 O71 2.717 . S
C42 O60 1.240 . S
C42 O61 1.240 . S
C43 Gd40 2.818 . S
C43 C44 1.510 . S
C43 O62 1.249 . S
C43 O63 1.252 . S
C44 C43 1.510 . S
C44 C45 1.404 . S
C44 C46 1.352 . S
C45 C44 1.404 . S
C45 C49 1.389 . S
C45 H72 0.930 . S
C46 C44 1.352 . S
C46 C48 1.374 . S
C46 H73 0.931 . S
C47 C48 1.359 . S
C47 C49 1.364 . S
C48 C46 1.374 . S
C48 C47 1.359 . S
C48 H74 0.931 . S
C49 C45 1.389 . S
C49 C47 1.364 . S
C49 H75 0.931 . S
C50 O64 1.256 . S
C50 O65 1.257 . S
C51 O66 1.240 . S
C51 O67 1.240 . S
C52 Gd41 2.818 . S
C52 C53 1.510 . S
C52 O68 1.249 . S
C52 O69 1.252 . S
C53 C52 1.510 . S
C53 C54 1.404 . S
C53 C55 1.352 . S
C54 C53 1.404 . S
C54 C58 1.389 . S
C54 H76 0.930 . S
C55 C53 1.352 . S
C55 C57 1.374 . S
C55 H77 0.931 . S
C56 C57 1.359 . S
C56 C58 1.364 . S
C57 C55 1.374 . S
C57 C56 1.359 . S
C57 H78 0.931 . S
C58 C54 1.389 . S
C58 C56 1.364 . S
C58 H79 0.931 . S
C59 O70 1.256 . S
C59 O71 1.257 . S
O60 Gd40 2.377 . S
O60 C42 1.240 . S
O61 Gd41 2.395 . S
O61 C42 1.240 . S
O62 Gd40 2.448 . S
O62 C43 1.249 . S
O63 Gd40 2.506 . S
O63 C43 1.252 . S
O64 Gd40 2.435 . S
O64 C50 1.256 . S
O65 Gd40 2.717 . S
O65 Gd41 2.327 . S
O65 C50 1.257 . S
O66 Gd41 2.377 . S
O66 C51 1.240 . S
O67 Gd40 2.395 . S
O67 C51 1.240 . S
O68 Gd41 2.448 . S
O68 C52 1.249 . S
O69 Gd41 2.506 . S
O69 C52 1.252 . S
O70 Gd41 2.435 . S
O70 C59 1.256 . S
O71 Gd40 2.327 . S
O71 Gd41 2.717 . S
O71 C59 1.257 . S
H72 C45 0.930 . S
H73 C46 0.931 . S
H74 C48 0.931 . S
H75 C49 0.931 . S
H76 C54 0.930 . S
H77 C55 0.931 . S
H78 C57 0.931 . S
H79 C58 0.931 . S
Gd80 C83 2.818 1_565 S
Gd80 O100 2.377 1_565 S
Gd80 O102 2.448 . S
Gd80 O103 2.506 1_565 S
Gd80 O104 2.435 . S
Gd80 O105 2.717 . S
Gd80 O107 2.395 . S
Gd80 O111 2.327 1_565 S
Gd81 C92 2.818 1_545 S
Gd81 O101 2.395 . S
Gd81 O105 2.327 1_545 S
Gd81 O106 2.377 1_545 S
Gd81 O108 2.448 . S
Gd81 O109 2.506 1_545 S
Gd81 O110 2.435 . S
Gd81 O111 2.717 . S
C82 O100 1.240 . S
C82 O101 1.240 . S
C83 Gd80 2.818 1_545 S
C83 C84 1.510 . S
C83 O102 1.249 1_545 S
C83 O103 1.252 . S
C84 C83 1.510 . S
C84 C85 1.404 1_545 S
C84 C86 1.352 . S
C85 C84 1.404 1_565 S
C85 C89 1.389 . S
C85 H112 0.930 . S
C86 C84 1.352 . S
C86 C88 1.374 . S
C86 H113 0.931 . S
C87 C88 1.359 . S
C87 C89 1.364 1_545 S
C88 C86 1.374 . S
C88 C87 1.359 . S
C88 H114 0.931 . S
C89 C85 1.389 . S
C89 C87 1.364 1_565 S
C89 H115 0.931 . S
C90 O104 1.256 . S
C90 O105 1.257 . S
C91 O106 1.240 . S
C91 O107 1.240 . S
C92 Gd81 2.818 1_565 S
C92 C93 1.510 . S
C92 O108 1.249 1_565 S
C92 O109 1.252 . S
C93 C92 1.510 . S
C93 C94 1.404 1_565 S
C93 C95 1.352 . S
C94 C93 1.404 1_545 S
C94 C98 1.389 . S
C94 H116 0.930 . S
C95 C93 1.352 . S
C95 C97 1.374 . S
C95 H117 0.931 . S
C96 C97 1.359 . S
C96 C98 1.364 1_565 S
C97 C95 1.374 . S
C97 C96 1.359 . S
C97 H118 0.931 . S
C98 C94 1.389 . S
C98 C96 1.364 1_545 S
C98 H119 0.931 . S
C99 O110 1.256 . S
C99 O111 1.257 . S
O100 Gd80 2.377 1_545 S
O100 C82 1.240 . S
O101 Gd81 2.395 . S
O101 C82 1.240 . S
O102 Gd80 2.448 . S
O102 C83 1.249 1_565 S
O103 Gd80 2.506 1_545 S
O103 C83 1.252 . S
O104 Gd80 2.435 . S
O104 C90 1.256 . S
O105 Gd80 2.717 . S
O105 Gd81 2.327 1_565 S
O105 C90 1.257 . S
O106 Gd81 2.377 1_565 S
O106 C91 1.240 . S
O107 Gd80 2.395 . S
O107 C91 1.240 . S
O108 Gd81 2.448 . S
O108 C92 1.249 1_545 S
O109 Gd81 2.506 1_565 S
O109 C92 1.252 . S
O110 Gd81 2.435 . S
O110 C99 1.256 . S
O111 Gd80 2.327 1_545 S
O111 Gd81 2.717 . S
O111 C99 1.257 . S
H112 C85 0.930 . S
H113 C86 0.931 . S
H114 C88 0.931 . S
H115 C89 0.931 . S
H116 C94 0.930 . S
H117 C95 0.931 . S
H118 C97 0.931 . S
H119 C98 0.931 . S
Gd120 C123 2.818 . S
Gd120 O140 2.377 . S
Gd120 O142 2.448 . S
Gd120 O143 2.506 . S
Gd120 O144 2.435 . S
Gd120 O145 2.717 . S
Gd120 O147 2.395 . S
Gd120 O151 2.327 . S
Gd121 C132 2.818 . S
Gd121 O141 2.395 . S
Gd121 O145 2.327 . S
Gd121 O146 2.377 . S
Gd121 O148 2.448 . S
Gd121 O149 2.506 . S
Gd121 O150 2.435 . S
Gd121 O151 2.717 . S
C122 O140 1.240 . S
C122 O141 1.240 . S
C123 Gd120 2.818 . S
C123 C124 1.510 . S
C123 O142 1.249 . S
C123 O143 1.252 . S
C124 C123 1.510 . S
C124 C125 1.404 . S
C124 C126 1.352 . S
C125 C124 1.404 . S
C125 C129 1.389 . S
C125 H152 0.930 . S
C126 C124 1.352 . S
C126 C128 1.374 . S
C126 H153 0.931 . S
C127 C128 1.359 . S
C127 C129 1.364 . S
C128 C126 1.374 . S
C128 C127 1.359 . S
C128 H154 0.931 . S
C129 C125 1.389 . S
C129 C127 1.364 . S
C129 H155 0.931 . S
C130 O144 1.256 . S
C130 O145 1.257 . S
C131 O146 1.240 . S
C131 O147 1.240 . S
C132 Gd121 2.818 . S
C132 C133 1.510 . S
C132 O148 1.249 . S
C132 O149 1.252 . S
C133 C132 1.510 . S
C133 C134 1.404 . S
C133 C135 1.352 . S
C134 C133 1.404 . S
C134 C138 1.389 . S
C134 H156 0.930 . S
C135 C133 1.352 . S
C135 C137 1.374 . S
C135 H157 0.931 . S
C136 C137 1.359 . S
C136 C138 1.364 . S
C137 C135 1.374 . S
C137 C136 1.359 . S
C137 H158 0.931 . S
C138 C134 1.389 . S
C138 C136 1.364 . S
C138 H159 0.931 . S
C139 O150 1.256 . S
C139 O151 1.257 . S
O140 Gd120 2.377 . S
O140 C122 1.240 . S
O141 Gd121 2.395 . S
O141 C122 1.240 . S
O142 Gd120 2.448 . S
O142 C123 1.249 . S
O143 Gd120 2.506 . S
O143 C123 1.252 . S
O144 Gd120 2.435 . S
O144 C130 1.256 . S
O145 Gd120 2.717 . S
O145 Gd121 2.327 . S
O145 C130 1.257 . S
O146 Gd121 2.377 . S
O146 C131 1.240 . S
O147 Gd120 2.395 . S
O147 C131 1.240 . S
O148 Gd121 2.448 . S
O148 C132 1.249 . S
O149 Gd121 2.506 . S
O149 C132 1.252 . S
O150 Gd121 2.435 . S
O150 C139 1.256 . S
O151 Gd120 2.327 . S
O151 Gd121 2.717 . S
O151 C139 1.257 . S
H152 C125 0.930 . S
H153 C126 0.931 . S
H154 C128 0.931 . S
H155 C129 0.931 . S
H156 C134 0.930 . S
H157 C135 0.931 . S
H158 C137 0.931 . S
H159 C138 0.931 . S
Gd160 C163 2.818 1_545 S
Gd160 O180 2.377 1_445 S
Gd160 O182 2.448 1_545 S
Gd160 O183 2.506 . S
Gd160 O184 2.435 1_445 S
Gd160 O185 2.717 1_445 S
Gd160 O187 2.395 . S
Gd160 O191 2.327 . S
Gd161 C172 2.818 . S
Gd161 O181 2.395 1_545 S
Gd161 O185 2.327 1_545 S
Gd161 O186 2.377 1_655 S
Gd161 O188 2.448 . S
Gd161 O189 2.506 . S
Gd161 O190 2.435 1_655 S
Gd161 O191 2.717 1_655 S
C162 O180 1.240 . S
C162 O181 1.240 . S
C163 Gd160 2.818 1_565 S
C163 C164 1.510 . S
C163 O182 1.249 . S
C163 O183 1.252 1_565 S
C164 C163 1.510 . S
C164 C165 1.404 . S
C164 C166 1.352 . S
C165 C164 1.404 . S
C165 C169 1.389 . S
C165 H192 0.930 . S
C166 C164 1.352 . S
C166 C168 1.374 . S
C166 H193 0.931 . S
C167 C168 1.359 . S
C167 C169 1.364 . S
C168 C166 1.374 . S
C168 C167 1.359 . S
C168 H194 0.931 . S
C169 C165 1.389 . S
C169 C167 1.364 . S
C169 H195 0.931 . S
C170 O184 1.256 . S
C170 O185 1.257 . S
C171 O186 1.240 . S
C171 O187 1.240 . S
C172 Gd161 2.818 . S
C172 C173 1.510 . S
C172 O188 1.249 . S
C172 O189 1.252 . S
C173 C172 1.510 . S
C173 C174 1.404 . S
C173 C175 1.352 . S
C174 C173 1.404 . S
C174 C178 1.389 . S
C174 H196 0.930 . S
C175 C173 1.352 . S
C175 C177 1.374 . S
C175 H197 0.931 . S
C176 C177 1.359 . S
C176 C178 1.364 . S
C177 C175 1.374 . S
C177 C176 1.359 . S
C177 H198 0.931 . S
C178 C174 1.389 . S
C178 C176 1.364 . S
C178 H199 0.931 . S
C179 O190 1.256 . S
C179 O191 1.257 . S
O180 Gd160 2.377 1_665 S
O180 C162 1.240 . S
O181 Gd161 2.395 1_565 S
O181 C162 1.240 . S
O182 Gd160 2.448 1_565 S
O182 C163 1.249 . S
O183 Gd160 2.506 . S
O183 C163 1.252 1_545 S
O184 Gd160 2.435 1_665 S
O184 C170 1.256 . S
O185 Gd160 2.717 1_665 S
O185 Gd161 2.327 1_565 S
O185 C170 1.257 . S
O186 Gd161 2.377 1_455 S
O186 C171 1.240 . S
O187 Gd160 2.395 . S
O187 C171 1.240 . S
O188 Gd161 2.448 . S
O188 C172 1.249 . S
O189 Gd161 2.506 . S
O189 C172 1.252 . S
O190 Gd161 2.435 1_455 S
O190 C179 1.256 . S
O191 Gd160 2.327 . S
O191 Gd161 2.717 1_455 S
O191 C179 1.257 . S
H192 C165 0.930 . S
H193 C166 0.931 . S
H194 C168 0.931 . S
H195 C169 0.931 . S
H196 C174 0.930 . S
H197 C175 0.931 . S
H198 C177 0.931 . S
H199 C178 0.931 . S
Gd200 C203 2.818 . S
Gd200 O220 2.377 . S
Gd200 O222 2.448 . S
Gd200 O223 2.506 . S
Gd200 O224 2.435 . S
Gd200 O225 2.717 . S
Gd200 O227 2.395 . S
Gd200 O231 2.327 . S
Gd201 C212 2.818 . S
Gd201 O221 2.395 . S
Gd201 O225 2.327 . S
Gd201 O226 2.377 . S
Gd201 O228 2.448 . S
Gd201 O229 2.506 . S
Gd201 O230 2.435 . S
Gd201 O231 2.717 . S
C202 O220 1.240 . S
C202 O221 1.240 . S
C203 Gd200 2.818 . S
C203 C204 1.510 . S
C203 O222 1.249 . S
C203 O223 1.252 . S
C204 C203 1.510 . S
C204 C205 1.404 . S
C204 C206 1.352 . S
C205 C204 1.404 . S
C205 C209 1.389 . S
C205 H232 0.930 . S
C206 C204 1.352 . S
C206 C208 1.374 . S
C206 H233 0.931 . S
C207 C208 1.359 . S
C207 C209 1.364 . S
C208 C206 1.374 . S
C208 C207 1.359 . S
C208 H234 0.931 . S
C209 C205 1.389 . S
C209 C207 1.364 . S
C209 H235 0.931 . S
C210 O224 1.256 . S
C210 O225 1.257 . S
C211 O226 1.240 . S
C211 O227 1.240 . S
C212 Gd201 2.818 . S
C212 C213 1.510 . S
C212 O228 1.249 . S
C212 O229 1.252 . S
C213 C212 1.510 . S
C213 C214 1.404 . S
C213 C215 1.352 . S
C214 C213 1.404 . S
C214 C218 1.389 . S
C214 H236 0.930 . S
C215 C213 1.352 . S
C215 C217 1.374 . S
C215 H237 0.931 . S
C216 C217 1.359 . S
C216 C218 1.364 . S
C217 C215 1.374 . S
C217 C216 1.359 . S
C217 H238 0.931 . S
C218 C214 1.389 . S
C218 C216 1.364 . S
C218 H239 0.931 . S
C219 O230 1.256 . S
C219 O231 1.257 . S
O220 Gd200 2.377 . S
O220 C202 1.240 . S
O221 Gd201 2.395 . S
O221 C202 1.240 . S
O222 Gd200 2.448 . S
O222 C203 1.249 . S
O223 Gd200 2.506 . S
O223 C203 1.252 . S
O224 Gd200 2.435 . S
O224 C210 1.256 . S
O225 Gd200 2.717 . S
O225 Gd201 2.327 . S
O225 C210 1.257 . S
O226 Gd201 2.377 . S
O226 C211 1.240 . S
O227 Gd200 2.395 . S
O227 C211 1.240 . S
O228 Gd201 2.448 . S
O228 C212 1.249 . S
O229 Gd201 2.506 . S
O229 C212 1.252 . S
O230 Gd201 2.435 . S
O230 C219 1.256 . S
O231 Gd200 2.327 . S
O231 Gd201 2.717 . S
O231 C219 1.257 . S
H232 C205 0.930 . S
H233 C206 0.931 . S
H234 C208 0.931 . S
H235 C209 0.931 . S
H236 C214 0.930 . S
H237 C215 0.931 . S
H238 C217 0.931 . S
H239 C218 0.931 . S
Gd240 C243 2.818 . S
Gd240 O260 2.377 . S
Gd240 O262 2.448 . S
Gd240 O263 2.506 1_545 S
Gd240 O264 2.435 . S
Gd240 O265 2.717 . S
Gd240 O267 2.395 1_545 S
Gd240 O271 2.327 . S
Gd241 C252 2.818 . S
Gd241 O261 2.395 . S
Gd241 O265 2.327 . S
Gd241 O266 2.377 . S
Gd241 O268 2.448 . S
Gd241 O269 2.506 . S
Gd241 O270 2.435 1_554 S
Gd241 O271 2.717 . S
C242 O260 1.240 1_556 S
C242 O261 1.240 1_556 S
C243 Gd240 2.818 . S
C243 C244 1.510 1_554 S
C243 O262 1.249 . S
C243 O263 1.252 1_545 S
C244 C243 1.510 1_556 S
C244 C245 1.404 1_556 S
C244 C246 1.352 1_545 S
C245 C244 1.404 1_554 S
C245 C249 1.389 1_554 S
C245 H272 0.930 . S
C246 C244 1.352 1_565 S
C246 C248 1.374 . S
C246 H273 0.931 . S
C247 C248 1.359 . S
C247 C249 1.364 1_565 S
C248 C246 1.374 . S
C248 C247 1.359 . S
C248 H274 0.931 . S
C249 C245 1.389 1_556 S
C249 C247 1.364 1_545 S
C249 H275 0.931 1_556 S
C250 O264 1.256 . S
C250 O265 1.257 . S
C251 O266 1.240 1_565 S
C251 O267 1.240 . S
C252 Gd241 2.818 . S
C252 C253 1.510 . S
C252 O268 1.249 . S
C252 O269 1.252 . S
C253 C252 1.510 . S
C253 C254 1.404 . S
C253 C255 1.352 . S
C254 C253 1.404 . S
C254 C258 1.389 . S
C254 H276 0.930 . S
C255 C253 1.352 . S
C255 C257 1.374 . S
C255 H277 0.931 . S
C256 C257 1.359 . S
C256 C258 1.364 . S
C257 C255 1.374 . S
C257 C256 1.359 . S
C257 H278 0.931 . S
C258 C254 1.389 . S
C258 C256 1.364 . S
C258 H279 0.931 . S
C259 O270 1.256 1_565 S
C259 O271 1.257 1_566 S
O260 Gd240 2.377 . S
O260 C242 1.240 1_554 S
O261 Gd241 2.395 . S
O261 C242 1.240 1_554 S
O262 Gd240 2.448 . S
O262 C243 1.249 . S
O263 Gd240 2.506 1_565 S
O263 C243 1.252 1_565 S
O264 Gd240 2.435 . S
O264 C250 1.256 . S
O265 Gd240 2.717 . S
O265 Gd241 2.327 . S
O265 C250 1.257 . S
O266 Gd241 2.377 . S
O266 C251 1.240 1_545 S
O267 Gd240 2.395 1_565 S
O267 C251 1.240 . S
O268 Gd241 2.448 . S
O268 C252 1.249 . S
O269 Gd241 2.506 . S
O269 C252 1.252 . S
O270 Gd241 2.435 1_556 S
O270 C259 1.256 1_545 S
O271 Gd240 2.327 . S
O271 Gd241 2.717 . S
O271 C259 1.257 1_544 S
H272 C245 0.930 . S
H273 C246 0.931 . S
H274 C248 0.931 . S
H275 C249 0.931 1_554 S
H276 C254 0.930 . S
H277 C255 0.931 . S
H278 C257 0.931 . S
H279 C258 0.931 . S
Gd280 C283 2.818 . S
Gd280 O300 2.377 . S
Gd280 O302 2.448 . S
Gd280 O303 2.506 . S
Gd280 O304 2.435 . S
Gd280 O305 2.717 . S
Gd280 O307 2.395 . S
Gd280 O311 2.327 . S
Gd281 C292 2.818 . S
Gd281 O301 2.395 . S
Gd281 O305 2.327 . S
Gd281 O306 2.377 . S
Gd281 O308 2.448 . S
Gd281 O309 2.506 . S
Gd281 O310 2.435 . S
Gd281 O311 2.717 . S
C282 O300 1.240 . S
C282 O301 1.240 . S
C283 Gd280 2.818 . S
C283 C284 1.510 . S
C283 O302 1.249 . S
C283 O303 1.252 . S
C284 C283 1.510 . S
C284 C285 1.404 . S
C284 C286 1.352 . S
C285 C284 1.404 . S
C285 C289 1.389 . S
C285 H312 0.930 . S
C286 C284 1.352 . S
C286 C288 1.374 . S
C286 H313 0.931 . S
C287 C288 1.359 . S
C287 C289 1.364 . S
C288 C286 1.374 . S
C288 C287 1.359 . S
C288 H314 0.931 . S
C289 C285 1.389 . S
C289 C287 1.364 . S
C289 H315 0.931 . S
C290 O304 1.256 . S
C290 O305 1.257 . S
C291 O306 1.240 . S
C291 O307 1.240 . S
C292 Gd281 2.818 . S
C292 C293 1.510 . S
C292 O308 1.249 . S
C292 O309 1.252 . S
C293 C292 1.510 . S
C293 C294 1.404 . S
C293 C295 1.352 . S
C294 C293 1.404 . S
C294 C298 1.389 . S
C294 H316 0.930 . S
C295 C293 1.352 . S
C295 C297 1.374 . S
C295 H317 0.931 . S
C296 C297 1.359 . S
C296 C298 1.364 . S
C297 C295 1.374 . S
C297 C296 1.359 . S
C297 H318 0.931 . S
C298 C294 1.389 . S
C298 C296 1.364 . S
C298 H319 0.931 . S
C299 O310 1.256 . S
C299 O311 1.257 . S
O300 Gd280 2.377 . S
O300 C282 1.240 . S
O301 Gd281 2.395 . S
O301 C282 1.240 . S
O302 Gd280 2.448 . S
O302 C283 1.249 . S
O303 Gd280 2.506 . S
O303 C283 1.252 . S
O304 Gd280 2.435 . S
O304 C290 1.256 . S
O305 Gd280 2.717 . S
O305 Gd281 2.327 . S
O305 C290 1.257 . S
O306 Gd281 2.377 . S
O306 C291 1.240 . S
O307 Gd280 2.395 . S
O307 C291 1.240 . S
O308 Gd281 2.448 . S
O308 C292 1.249 . S
O309 Gd281 2.506 . S
O309 C292 1.252 . S
O310 Gd281 2.435 . S
O310 C299 1.256 . S
O311 Gd280 2.327 . S
O311 Gd281 2.717 . S
O311 C299 1.257 . S
H312 C285 0.930 . S
H313 C286 0.931 . S
H314 C288 0.931 . S
H315 C289 0.931 . S
H316 C294 0.930 . S
H317 C295 0.931 . S
H318 C297 0.931 . S
H319 C298 0.931 . S
Gd320 C323 2.818 . S
Gd320 O340 2.377 . S
Gd320 O342 2.448 . S
Gd320 O343 2.506 . S
Gd320 O344 2.435 1_554 S
Gd320 O345 2.717 1_554 S
Gd320 O347 2.395 1_554 S
Gd320 O351 2.327 . S
Gd321 C332 2.818 1_554 S
Gd321 O341 2.395 . S
Gd321 O345 2.327 1_554 S
Gd321 O346 2.377 1_554 S
Gd321 O348 2.448 . S
Gd321 O349 2.506 1_554 S
Gd321 O350 2.435 . S
Gd321 O351 2.717 . S
C322 O340 1.240 . S
C322 O341 1.240 . S
C323 Gd320 2.818 . S
C323 C324 1.510 . S
C323 O342 1.249 . S
C323 O343 1.252 . S
C324 C323 1.510 . S
C324 C325 1.404 . S
C324 C326 1.352 . S
C325 C324 1.404 . S
C325 C329 1.389 . S
C325 H352 0.930 . S
C326 C324 1.352 . S
C326 C328 1.374 . S
C326 H353 0.931 . S
C327 C328 1.359 . S
C327 C329 1.364 . S
C328 C326 1.374 . S
C328 C327 1.359 . S
C328 H354 0.931 . S
C329 C325 1.389 . S
C329 C327 1.364 . S
C329 H355 0.931 . S
C330 O344 1.256 . S
C330 O345 1.257 . S
C331 O346 1.240 . S
C331 O347 1.240 . S
C332 Gd321 2.818 1_556 S
C332 C333 1.510 . S
C332 O348 1.249 1_556 S
C332 O349 1.252 . S
C333 C332 1.510 . S
C333 C334 1.404 . S
C333 C335 1.352 . S
C334 C333 1.404 . S
C334 C338 1.389 . S
C334 H356 0.930 . S
C335 C333 1.352 . S
C335 C337 1.374 . S
C335 H357 0.931 . S
C336 C337 1.359 . S
C336 C338 1.364 . S
C337 C335 1.374 . S
C337 C336 1.359 . S
C337 H358 0.931 . S
C338 C334 1.389 . S
C338 C336 1.364 . S
C338 H359 0.931 . S
C339 O350 1.256 . S
C339 O351 1.257 . S
O340 Gd320 2.377 . S
O340 C322 1.240 . S
O341 Gd321 2.395 . S
O341 C322 1.240 . S
O342 Gd320 2.448 . S
O342 C323 1.249 . S
O343 Gd320 2.506 . S
O343 C323 1.252 . S
O344 Gd320 2.435 1_556 S
O344 C330 1.256 . S
O345 Gd320 2.717 1_556 S
O345 Gd321 2.327 1_556 S
O345 C330 1.257 . S
O346 Gd321 2.377 1_556 S
O346 C331 1.240 . S
O347 Gd320 2.395 1_556 S
O347 C331 1.240 . S
O348 Gd321 2.448 . S
O348 C332 1.249 1_554 S
O349 Gd321 2.506 1_556 S
O349 C332 1.252 . S
O350 Gd321 2.435 . S
O350 C339 1.256 . S
O351 Gd320 2.327 . S
O351 Gd321 2.717 . S
O351 C339 1.257 . S
H352 C325 0.930 . S
H353 C326 0.931 . S
H354 C328 0.931 . S
H355 C329 0.931 . S
H356 C334 0.930 . S
H357 C335 0.931 . S
H358 C337 0.931 . S
H359 C338 0.931 . S
Gd360 C363 2.818 . S
Gd360 O380 2.377 . S
Gd360 O382 2.448 . S
Gd360 O383 2.506 . S
Gd360 O384 2.435 . S
Gd360 O385 2.717 . S
Gd360 O387 2.395 . S
Gd360 O391 2.327 . S
Gd361 C372 2.818 . S
Gd361 O381 2.395 . S
Gd361 O385 2.327 . S
Gd361 O386 2.377 . S
Gd361 O388 2.448 . S
Gd361 O389 2.506 . S
Gd361 O390 2.435 . S
Gd361 O391 2.717 . S
C362 O380 1.240 . S
C362 O381 1.240 . S
C363 Gd360 2.818 . S
C363 C364 1.510 . S
C363 O382 1.249 . S
C363 O383 1.252 . S
C364 C363 1.510 . S
C364 C365 1.404 . S
C364 C366 1.352 . S
C365 C364 1.404 . S
C365 C369 1.389 . S
C365 H392 0.930 . S
C366 C364 1.352 . S
C366 C368 1.374 . S
C366 H393 0.931 . S
C367 C368 1.359 . S
C367 C369 1.364 . S
C368 C366 1.374 . S
C368 C367 1.359 . S
C368 H394 0.931 . S
C369 C365 1.389 . S
C369 C367 1.364 . S
C369 H395 0.931 . S
C370 O384 1.256 . S
C370 O385 1.257 . S
C371 O386 1.240 . S
C371 O387 1.240 . S
C372 Gd361 2.818 . S
C372 C373 1.510 . S
C372 O388 1.249 . S
C372 O389 1.252 . S
C373 C372 1.510 . S
C373 C374 1.404 . S
C373 C375 1.352 . S
C374 C373 1.404 . S
C374 C378 1.389 . S
C374 H396 0.930 . S
C375 C373 1.352 . S
C375 C377 1.374 . S
C375 H397 0.931 . S
C376 C377 1.359 . S
C376 C378 1.364 . S
C377 C375 1.374 . S
C377 C376 1.359 . S
C377 H398 0.931 . S
C378 C374 1.389 . S
C378 C376 1.364 . S
C378 H399 0.931 . S
C379 O390 1.256 . S
C379 O391 1.257 . S
O380 Gd360 2.377 . S
O380 C362 1.240 . S
O381 Gd361 2.395 . S
O381 C362 1.240 . S
O382 Gd360 2.448 . S
O382 C363 1.249 . S
O383 Gd360 2.506 . S
O383 C363 1.252 . S
O384 Gd360 2.435 . S
O384 C370 1.256 . S
O385 Gd360 2.717 . S
O385 Gd361 2.327 . S
O385 C370 1.257 . S
O386 Gd361 2.377 . S
O386 C371 1.240 . S
O387 Gd360 2.395 . S
O387 C371 1.240 . S
O388 Gd361 2.448 . S
O388 C372 1.249 . S
O389 Gd361 2.506 . S
O389 C372 1.252 . S
O390 Gd361 2.435 . S
O390 C379 1.256 . S
O391 Gd360 2.327 . S
O391 Gd361 2.717 . S
O391 C379 1.257 . S
H392 C365 0.930 . S
H393 C366 0.931 . S
H394 C368 0.931 . S
H395 C369 0.931 . S
H396 C374 0.930 . S
H397 C375 0.931 . S
H398 C377 0.931 . S
H399 C378 0.931 . S
Gd400 C403 2.818 . S
Gd400 O420 2.377 . S
Gd400 O422 2.448 . S
Gd400 O423 2.506 . S
Gd400 O424 2.435 . S
Gd400 O425 2.717 . S
Gd400 O427 2.395 . S
Gd400 O431 2.327 . S
Gd401 C412 2.818 1_455 S
Gd401 O421 2.395 . S
Gd401 O425 2.327 . S
Gd401 O426 2.377 1_455 S
Gd401 O428 2.448 1_455 S
Gd401 O429 2.506 . S
Gd401 O430 2.435 1_455 S
Gd401 O431 2.717 . S
C402 O420 1.240 . S
C402 O421 1.240 . S
C403 Gd400 2.818 . S
C403 C404 1.510 . S
C403 O422 1.249 . S
C403 O423 1.252 . S
C404 C403 1.510 . S
C404 C405 1.404 . S
C404 C406 1.352 . S
C405 C404 1.404 . S
C405 C409 1.389 . S
C405 H432 0.930 . S
C406 C404 1.352 . S
C406 C408 1.374 . S
C406 H433 0.931 . S
C407 C408 1.359 . S
C407 C409 1.364 . S
C408 C406 1.374 . S
C408 C407 1.359 . S
C408 H434 0.931 . S
C409 C405 1.389 . S
C409 C407 1.364 . S
C409 H435 0.931 . S
C410 O424 1.256 . S
C410 O425 1.257 . S
C411 O426 1.240 . S
C411 O427 1.240 1_655 S
C412 Gd401 2.818 1_655 S
C412 C413 1.510 . S
C412 O428 1.249 . S
C412 O429 1.252 1_655 S
C413 C412 1.510 . S
C413 C414 1.404 . S
C413 C415 1.352 . S
C414 C413 1.404 . S
C414 C418 1.389 . S
C414 H436 0.930 . S
C415 C413 1.352 . S
C415 C417 1.374 . S
C415 H437 0.931 . S
C416 C417 1.359 . S
C416 C418 1.364 . S
C417 C415 1.374 . S
C417 C416 1.359 . S
C417 H438 0.931 . S
C418 C414 1.389 . S
C418 C416 1.364 . S
C418 H439 0.931 . S
C419 O430 1.256 . S
C419 O431 1.257 1_655 S
O420 Gd400 2.377 . S
O420 C402 1.240 . S
O421 Gd401 2.395 . S
O421 C402 1.240 . S
O422 Gd400 2.448 . S
O422 C403 1.249 . S
O423 Gd400 2.506 . S
O423 C403 1.252 . S
O424 Gd400 2.435 . S
O424 C410 1.256 . S
O425 Gd400 2.717 . S
O425 Gd401 2.327 . S
O425 C410 1.257 . S
O426 Gd401 2.377 1_655 S
O426 C411 1.240 . S
O427 Gd400 2.395 . S
O427 C411 1.240 1_455 S
O428 Gd401 2.448 1_655 S
O428 C412 1.249 . S
O429 Gd401 2.506 . S
O429 C412 1.252 1_455 S
O430 Gd401 2.435 1_655 S
O430 C419 1.256 . S
O431 Gd400 2.327 . S
O431 Gd401 2.717 . S
O431 C419 1.257 1_455 S
H432 C405 0.930 . S
H433 C406 0.931 . S
H434 C408 0.931 . S
H435 C409 0.931 . S
H436 C414 0.930 . S
H437 C415 0.931 . S
H438 C417 0.931 . S
H439 C418 0.931 . S
Gd440 C443 2.818 . S
Gd440 O460 2.377 . S
Gd440 O462 2.448 . S
Gd440 O463 2.506 . S
Gd440 O464 2.435 . S
Gd440 O465 2.717 . S
Gd440 O467 2.395 . S
Gd440 O471 2.327 . S
Gd441 C452 2.818 . S
Gd441 O461 2.395 . S
Gd441 O465 2.327 . S
Gd441 O466 2.377 . S
Gd441 O468 2.448 . S
Gd441 O469 2.506 . S
Gd441 O470 2.435 . S
Gd441 O471 2.717 . S
C442 O460 1.240 . S
C442 O461 1.240 . S
C443 Gd440 2.818 . S
C443 C444 1.510 . S
C443 O462 1.249 . S
C443 O463 1.252 . S
C444 C443 1.510 . S
C444 C445 1.404 . S
C444 C446 1.352 . S
C445 C444 1.404 . S
C445 C449 1.389 . S
C445 H472 0.930 . S
C446 C444 1.352 . S
C446 C448 1.374 . S
C446 H473 0.931 . S
C447 C448 1.359 . S
C447 C449 1.364 . S
C448 C446 1.374 . S
C448 C447 1.359 . S
C448 H474 0.931 . S
C449 C445 1.389 . S
C449 C447 1.364 . S
C449 H475 0.931 . S
C450 O464 1.256 . S
C450 O465 1.257 . S
C451 O466 1.240 . S
C451 O467 1.240 . S
C452 Gd441 2.818 . S
C452 C453 1.510 . S
C452 O468 1.249 . S
C452 O469 1.252 . S
C453 C452 1.510 . S
C453 C454 1.404 . S
C453 C455 1.352 . S
C454 C453 1.404 . S
C454 C458 1.389 . S
C454 H476 0.930 . S
C455 C453 1.352 . S
C455 C457 1.374 . S
C455 H477 0.931 . S
C456 C457 1.359 . S
C456 C458 1.364 . S
C457 C455 1.374 . S
C457 C456 1.359 . S
C457 H478 0.931 . S
C458 C454 1.389 . S
C458 C456 1.364 . S
C458 H479 0.931 . S
C459 O470 1.256 . S
C459 O471 1.257 . S
O460 Gd440 2.377 . S
O460 C442 1.240 . S
O461 Gd441 2.395 . S
O461 C442 1.240 . S
O462 Gd440 2.448 . S
O462 C443 1.249 . S
O463 Gd440 2.506 . S
O463 C443 1.252 . S
O464 Gd440 2.435 . S
O464 C450 1.256 . S
O465 Gd440 2.717 . S
O465 Gd441 2.327 . S
O465 C450 1.257 . S
O466 Gd441 2.377 . S
O466 C451 1.240 . S
O467 Gd440 2.395 . S
O467 C451 1.240 . S
O468 Gd441 2.448 . S
O468 C452 1.249 . S
O469 Gd441 2.506 . S
O469 C452 1.252 . S
O470 Gd441 2.435 . S
O470 C459 1.256 . S
O471 Gd440 2.327 . S
O471 Gd441 2.717 . S
O471 C459 1.257 . S
H472 C445 0.930 . S
H473 C446 0.931 . S
H474 C448 0.931 . S
H475 C449 0.931 . S
H476 C454 0.930 . S
H477 C455 0.931 . S
H478 C457 0.931 . S
H479 C458 0.931 . S
Gd480 C483 2.818 . S
Gd480 O500 2.377 . S
Gd480 O502 2.448 . S
Gd480 O503 2.506 . S
Gd480 O504 2.435 . S
Gd480 O505 2.717 . S
Gd480 O507 2.395 . S
Gd480 O511 2.327 . S
Gd481 C492 2.818 . S
Gd481 O501 2.395 . S
Gd481 O505 2.327 . S
Gd481 O506 2.377 . S
Gd481 O508 2.448 . S
Gd481 O509 2.506 . S
Gd481 O510 2.435 . S
Gd481 O511 2.717 . S
C482 O500 1.240 . S
C482 O501 1.240 . S
C483 Gd480 2.818 . S
C483 C484 1.510 . S
C483 O502 1.249 . S
C483 O503 1.252 . S
C484 C483 1.510 . S
C484 C485 1.404 . S
C484 C486 1.352 . S
C485 C484 1.404 . S
C485 C489 1.389 . S
C485 H512 0.930 . S
C486 C484 1.352 . S
C486 C488 1.374 . S
C486 H513 0.931 . S
C487 C488 1.359 . S
C487 C489 1.364 . S
C488 C486 1.374 . S
C488 C487 1.359 . S
C488 H514 0.931 . S
C489 C485 1.389 . S
C489 C487 1.364 . S
C489 H515 0.931 . S
C490 O504 1.256 . S
C490 O505 1.257 . S
C491 O506 1.240 . S
C491 O507 1.240 . S
C492 Gd481 2.818 . S
C492 C493 1.510 . S
C492 O508 1.249 . S
C492 O509 1.252 . S
C493 C492 1.510 . S
C493 C494 1.404 . S
C493 C495 1.352 . S
C494 C493 1.404 . S
C494 C498 1.389 . S
C494 H516 0.930 . S
C495 C493 1.352 . S
C495 C497 1.374 . S
C495 H517 0.931 . S
C496 C497 1.359 . S
C496 C498 1.364 . S
C497 C495 1.374 . S
C497 C496 1.359 . S
C497 H518 0.931 . S
C498 C494 1.389 . S
C498 C496 1.364 . S
C498 H519 0.931 . S
C499 O510 1.256 . S
C499 O511 1.257 . S
O500 Gd480 2.377 . S
O500 C482 1.240 . S
O501 Gd481 2.395 . S
O501 C482 1.240 . S
O502 Gd480 2.448 . S
O502 C483 1.249 . S
O503 Gd480 2.506 . S
O503 C483 1.252 . S
O504 Gd480 2.435 . S
O504 C490 1.256 . S
O505 Gd480 2.717 . S
O505 Gd481 2.327 . S
O505 C490 1.257 . S
O506 Gd481 2.377 . S
O506 C491 1.240 . S
O507 Gd480 2.395 . S
O507 C491 1.240 . S
O508 Gd481 2.448 . S
O508 C492 1.249 . S
O509 Gd481 2.506 . S
O509 C492 1.252 . S
O510 Gd481 2.435 . S
O510 C499 1.256 . S
O511 Gd480 2.327 . S
O511 Gd481 2.717 . S
O511 C499 1.257 . S
H512 C485 0.930 . S
H513 C486 0.931 . S
H514 C488 0.931 . S
H515 C489 0.931 . S
H516 C494 0.930 . S
H517 C495 0.931 . S
H518 C497 0.931 . S
H519 C498 0.931 . S
Gd520 C523 2.818 . S
Gd520 O540 2.377 . S
Gd520 O542 2.448 . S
Gd520 O543 2.506 . S
Gd520 O544 2.435 . S
Gd520 O545 2.717 . S
Gd520 O547 2.395 . S
Gd520 O551 2.327 . S
Gd521 C532 2.818 . S
Gd521 O541 2.395 . S
Gd521 O545 2.327 . S
Gd521 O546 2.377 . S
Gd521 O548 2.448 . S
Gd521 O549 2.506 . S
Gd521 O550 2.435 . S
Gd521 O551 2.717 . S
C522 O540 1.240 . S
C522 O541 1.240 . S
C523 Gd520 2.818 . S
C523 C524 1.510 . S
C523 O542 1.249 . S
C523 O543 1.252 . S
C524 C523 1.510 . S
C524 C525 1.404 . S
C524 C526 1.352 . S
C525 C524 1.404 . S
C525 C529 1.389 . S
C525 H552 0.930 . S
C526 C524 1.352 . S
C526 C528 1.374 . S
C526 H553 0.931 . S
C527 C528 1.359 . S
C527 C529 1.364 . S
C528 C526 1.374 . S
C528 C527 1.359 . S
C528 H554 0.931 . S
C529 C525 1.389 . S
C529 C527 1.364 . S
C529 H555 0.931 . S
C530 O544 1.256 . S
C530 O545 1.257 . S
C531 O546 1.240 . S
C531 O547 1.240 . S
C532 Gd521 2.818 . S
C532 C533 1.510 . S
C532 O548 1.249 . S
C532 O549 1.252 . S
C533 C532 1.510 . S
C533 C534 1.404 . S
C533 C535 1.352 . S
C534 C533 1.404 . S
C534 C538 1.389 . S
C534 H556 0.930 . S
C535 C533 1.352 . S
C535 C537 1.374 . S
C535 H557 0.931 . S
C536 C537 1.359 . S
C536 C538 1.364 . S
C537 C535 1.374 . S
C537 C536 1.359 . S
C537 H558 0.931 . S
C538 C534 1.389 . S
C538 C536 1.364 . S
C538 H559 0.931 1_565 S
C539 O550 1.256 . S
C539 O551 1.257 . S
O540 Gd520 2.377 . S
O540 C522 1.240 . S
O541 Gd521 2.395 . S
O541 C522 1.240 . S
O542 Gd520 2.448 . S
O542 C523 1.249 . S
O543 Gd520 2.506 . S
O543 C523 1.252 . S
O544 Gd520 2.435 . S
O544 C530 1.256 . S
O545 Gd520 2.717 . S
O545 Gd521 2.327 . S
O545 C530 1.257 . S
O546 Gd521 2.377 . S
O546 C531 1.240 . S
O547 Gd520 2.395 . S
O547 C531 1.240 . S
O548 Gd521 2.448 . S
O548 C532 1.249 . S
O549 Gd521 2.506 . S
O549 C532 1.252 . S
O550 Gd521 2.435 . S
O550 C539 1.256 . S
O551 Gd520 2.327 . S
O551 Gd521 2.717 . S
O551 C539 1.257 . S
H552 C525 0.930 . S
H553 C526 0.931 . S
H554 C528 0.931 . S
H555 C529 0.931 . S
H556 C534 0.930 . S
H557 C535 0.931 . S
H558 C537 0.931 . S
H559 C538 0.931 1_545 S
Gd560 C563 2.818 . S
Gd560 O580 2.377 . S
Gd560 O582 2.448 . S
Gd560 O583 2.506 . S
Gd560 O584 2.435 . S
Gd560 O585 2.717 . S
Gd560 O587 2.395 . S
Gd560 O591 2.327 . S
Gd561 C572 2.818 . S
Gd561 O581 2.395 . S
Gd561 O585 2.327 . S
Gd561 O586 2.377 . S
Gd561 O588 2.448 . S
Gd561 O589 2.506 . S
Gd561 O590 2.435 . S
Gd561 O591 2.717 . S
C562 O580 1.240 . S
C562 O581 1.240 . S
C563 Gd560 2.818 . S
C563 C564 1.510 . S
C563 O582 1.249 . S
C563 O583 1.252 . S
C564 C563 1.510 . S
C564 C565 1.404 . S
C564 C566 1.352 . S
C565 C564 1.404 . S
C565 C569 1.389 . S
C565 H592 0.930 . S
C566 C564 1.352 . S
C566 C568 1.374 . S
C566 H593 0.931 . S
C567 C568 1.359 . S
C567 C569 1.364 . S
C568 C566 1.374 . S
C568 C567 1.359 . S
C568 H594 0.931 . S
C569 C565 1.389 . S
C569 C567 1.364 . S
C569 H595 0.931 . S
C570 O584 1.256 . S
C570 O585 1.257 . S
C571 O586 1.240 . S
C571 O587 1.240 . S
C572 Gd561 2.818 . S
C572 C573 1.510 . S
C572 O588 1.249 . S
C572 O589 1.252 . S
C573 C572 1.510 . S
C573 C574 1.404 . S
C573 C575 1.352 . S
C574 C573 1.404 . S
C574 C578 1.389 . S
C574 H596 0.930 . S
C575 C573 1.352 . S
C575 C577 1.374 . S
C575 H597 0.931 . S
C576 C577 1.359 . S
C576 C578 1.364 . S
C577 C575 1.374 . S
C577 C576 1.359 . S
C577 H598 0.931 . S
C578 C574 1.389 . S
C578 C576 1.364 . S
C578 H599 0.931 . S
C579 O590 1.256 . S
C579 O591 1.257 . S
O580 Gd560 2.377 . S
O580 C562 1.240 . S
O581 Gd561 2.395 . S
O581 C562 1.240 . S
O582 Gd560 2.448 . S
O582 C563 1.249 . S
O583 Gd560 2.506 . S
O583 C563 1.252 . S
O584 Gd560 2.435 . S
O584 C570 1.256 . S
O585 Gd560 2.717 . S
O585 Gd561 2.327 . S
O585 C570 1.257 . S
O586 Gd561 2.377 . S
O586 C571 1.240 . S
O587 Gd560 2.395 . S
O587 C571 1.240 . S
O588 Gd561 2.448 . S
O588 C572 1.249 . S
O589 Gd561 2.506 . S
O589 C572 1.252 . S
O590 Gd561 2.435 . S
O590 C579 1.256 . S
O591 Gd560 2.327 . S
O591 Gd561 2.717 . S
O591 C579 1.257 . S
H592 C565 0.930 . S
H593 C566 0.931 . S
H594 C568 0.931 . S
H595 C569 0.931 . S
H596 C574 0.930 . S
H597 C575 0.931 . S
H598 C577 0.931 . S
H599 C578 0.931 . S
Gd600 C603 2.818 . S
Gd600 O620 2.377 1_554 S
Gd600 O622 2.448 . S
Gd600 O623 2.506 . S
Gd600 O624 2.435 1_554 S
Gd600 O625 2.717 1_554 S
Gd600 O627 2.395 1_655 S
Gd600 O631 2.327 1_655 S
Gd601 C612 2.818 . S
Gd601 O621 2.395 . S
Gd601 O625 2.327 1_455 S
Gd601 O626 2.377 1_556 S
Gd601 O628 2.448 . S
Gd601 O629 2.506 . S
Gd601 O630 2.435 1_556 S
Gd601 O631 2.717 1_556 S
C602 O620 1.240 1_455 S
C602 O621 1.240 . S
C603 Gd600 2.818 . S
C603 C604 1.510 . S
C603 O622 1.249 . S
C603 O623 1.252 . S
C604 C603 1.510 . S
C604 C605 1.404 . S
C604 C606 1.352 . S
C605 C604 1.404 . S
C605 C609 1.389 . S
C605 H632 0.930 . S
C606 C604 1.352 . S
C606 C608 1.374 . S
C606 H633 0.931 . S
C607 C608 1.359 . S
C607 C609 1.364 . S
C608 C606 1.374 . S
C608 C607 1.359 . S
C608 H634 0.931 . S
C609 C605 1.389 . S
C609 C607 1.364 . S
C609 H635 0.931 . S
C610 O624 1.256 . S
C610 O625 1.257 . S
C611 O626 1.240 . S
C611 O627 1.240 . S
C612 Gd601 2.818 . S
C612 C613 1.510 . S
C612 O628 1.249 . S
C612 O629 1.252 . S
C613 C612 1.510 . S
C613 C614 1.404 . S
C613 C615 1.352 . S
C614 C613 1.404 . S
C614 C618 1.389 . S
C614 H636 0.930 . S
C615 C613 1.352 . S
C615 C617 1.374 . S
C615 H637 0.931 . S
C616 C617 1.359 . S
C616 C618 1.364 . S
C617 C615 1.374 . S
C617 C616 1.359 . S
C617 H638 0.931 . S
C618 C614 1.389 . S
C618 C616 1.364 . S
C618 H639 0.931 . S
C619 O630 1.256 . S
C619 O631 1.257 . S
O620 Gd600 2.377 1_556 S
O620 C602 1.240 1_655 S
O621 Gd601 2.395 . S
O621 C602 1.240 . S
O622 Gd600 2.448 . S
O622 C603 1.249 . S
O623 Gd600 2.506 . S
O623 C603 1.252 . S
O624 Gd600 2.435 1_556 S
O624 C610 1.256 . S
O625 Gd600 2.717 1_556 S
O625 Gd601 2.327 1_655 S
O625 C610 1.257 . S
O626 Gd601 2.377 1_554 S
O626 C611 1.240 . S
O627 Gd600 2.395 1_455 S
O627 C611 1.240 . S
O628 Gd601 2.448 . S
O628 C612 1.249 . S
O629 Gd601 2.506 . S
O629 C612 1.252 . S
O630 Gd601 2.435 1_554 S
O630 C619 1.256 . S
O631 Gd600 2.327 1_455 S
O631 Gd601 2.717 1_554 S
O631 C619 1.257 . S
H632 C605 0.930 . S
H633 C606 0.931 . S
H634 C608 0.931 . S
H635 C609 0.931 . S
H636 C614 0.930 . S
H637 C615 0.931 . S
H638 C617 0.931 . S
H639 C618 0.931 . S
C640 C641 1.369 . S
C640 C642 1.419 . S
C640 H644 0.930 . S
C641 C640 1.369 . S
C641 C650 1.429 . S
C642 C640 1.419 . S
C642 C643 1.363 . S
C642 H645 0.929 . S
C643 C642 1.363 . S
C643 C649 1.428 . S
H644 C640 0.930 . S
H645 C642 0.929 . S
S646 N647 1.613 . S
S646 N648 1.610 . S
N647 S646 1.613 . S
N647 C650 1.350 . S
N648 S646 1.610 . S
N648 C649 1.351 . S
C649 C643 1.428 . S
C649 N648 1.351 . S
C649 C650 1.434 . S
C650 C641 1.429 . S
C650 N647 1.350 . S
C650 C649 1.434 . S
C651 C652 1.369 1_565 S
C651 C653 1.419 . S
C651 H655 0.930 . S
C652 C651 1.369 1_545 S
C652 C661 1.427 1_545 S
C653 C651 1.419 . S
C653 C654 1.363 . S
C653 H656 0.929 . S
C654 C653 1.363 . S
C654 C660 1.428 . S
H655 C651 0.930 . S
H656 C653 0.929 . S
S657 N658 1.613 . S
S657 N659 1.610 1_545 S
N658 S657 1.613 . S
N658 C661 1.352 1_545 S
N659 S657 1.610 1_565 S
N659 C660 1.351 . S
C660 C654 1.428 . S
C660 N659 1.351 . S
C660 C661 1.433 . S
C661 C652 1.427 1_565 S
C661 N658 1.352 1_565 S
C661 C660 1.433 . S
C662 C663 1.369 . S
C662 C664 1.419 . S
C662 H666 0.930 . S
C663 C662 1.369 . S
C663 C672 1.429 . S
C664 C662 1.419 . S
C664 C665 1.363 . S
C664 H667 0.929 . S
C665 C664 1.363 . S
C665 C671 1.428 . S
H666 C662 0.930 . S
H667 C664 0.929 . S
S668 N669 1.613 . S
S668 N670 1.610 . S
N669 S668 1.613 . S
N669 C672 1.350 . S
N670 S668 1.610 . S
N670 C671 1.351 . S
C671 C665 1.428 . S
C671 N670 1.351 . S
C671 C672 1.434 . S
C672 C663 1.429 . S
C672 N669 1.350 . S
C672 C671 1.434 . S
C673 C674 1.369 . S
C673 C675 1.419 . S
C673 H677 0.930 . S
C674 C673 1.369 . S
C674 C683 1.429 . S
C675 C673 1.419 . S
C675 C676 1.363 . S
C675 H678 0.929 . S
C676 C675 1.363 . S
C676 C682 1.428 . S
H677 C673 0.930 . S
H678 C675 0.929 . S
S679 N680 1.613 . S
S679 N681 1.610 . S
N680 S679 1.613 . S
N680 C683 1.350 . S
N681 S679 1.610 . S
N681 C682 1.351 . S
C682 C676 1.428 . S
C682 N681 1.351 . S
C682 C683 1.434 . S
C683 C674 1.429 . S
C683 N680 1.350 . S
C683 C682 1.434 . S
C684 C685 1.369 . S
C684 C686 1.419 . S
C684 H688 0.930 . S
C685 C684 1.369 . S
C685 C694 1.429 . S
C686 C684 1.419 . S
C686 C687 1.363 . S
C686 H689 0.929 . S
C687 C686 1.363 . S
C687 C693 1.428 . S
H688 C684 0.930 . S
H689 C686 0.929 . S
S690 N691 1.613 . S
S690 N692 1.610 . S
N691 S690 1.613 . S
N691 C694 1.350 . S
N692 S690 1.610 . S
N692 C693 1.351 . S
C693 C687 1.428 . S
C693 N692 1.351 . S
C693 C694 1.434 . S
C694 C685 1.429 . S
C694 N691 1.350 . S
C694 C693 1.434 . S
C695 C696 1.369 . S
C695 C697 1.419 . S
C695 H699 0.930 . S
C696 C695 1.369 . S
C696 C705 1.429 . S
C697 C695 1.419 . S
C697 C698 1.363 . S
C697 H700 0.929 . S
C698 C697 1.363 . S
C698 C704 1.428 . S
H699 C695 0.930 . S
H700 C697 0.929 . S
S701 N702 1.613 . S
S701 N703 1.610 . S
N702 S701 1.613 . S
N702 C705 1.350 . S
N703 S701 1.610 . S
N703 C704 1.351 . S
C704 C698 1.428 . S
C704 N703 1.351 . S
C704 C705 1.434 . S
C705 C696 1.429 . S
C705 N702 1.350 . S
C705 C704 1.434 . S
C706 C707 1.369 . S
C706 C708 1.419 . S
C706 H710 0.930 . S
C707 C706 1.369 . S
C707 C716 1.429 . S
C708 C706 1.419 . S
C708 C709 1.363 . S
C708 H711 0.929 . S
C709 C708 1.363 . S
C709 C715 1.428 . S
H710 C706 0.930 . S
H711 C708 0.929 . S
S712 N713 1.613 . S
S712 N714 1.610 . S
N713 S712 1.613 . S
N713 C716 1.350 . S
N714 S712 1.610 . S
N714 C715 1.351 . S
C715 C709 1.428 . S
C715 N714 1.351 . S
C715 C716 1.434 . S
C716 C707 1.429 . S
C716 N713 1.350 . S
C716 C715 1.434 . S
C717 C718 1.369 . S
C717 C719 1.419 . S
C717 H721 0.930 . S
C718 C717 1.369 . S
C718 C727 1.429 . S
C719 C717 1.419 . S
C719 C720 1.363 . S
C719 H722 0.929 . S
C720 C719 1.363 . S
C720 C726 1.428 . S
H721 C717 0.930 . S
H722 C719 0.929 . S
S723 N724 1.613 . S
S723 N725 1.610 . S
N724 S723 1.613 . S
N724 C727 1.350 . S
N725 S723 1.610 . S
N725 C726 1.351 . S
C726 C720 1.428 . S
C726 N725 1.351 . S
C726 C727 1.434 . S
C727 C718 1.429 . S
C727 N724 1.350 . S
C727 C726 1.434 . S
C728 C729 1.369 . S
C728 C730 1.419 1_655 S
C728 H732 0.930 1_655 S
C729 C728 1.369 . S
C729 C738 1.429 . S
C730 C728 1.419 1_455 S
C730 C731 1.363 1_455 S
C730 H733 0.929 . S
C731 C730 1.363 1_655 S
C731 C737 1.428 . S
H732 C728 0.930 1_455 S
H733 C730 0.929 . S
S734 N735 1.613 . S
S734 N736 1.610 . S
N735 S734 1.613 . S
N735 C738 1.350 . S
N736 S734 1.610 . S
N736 C737 1.351 . S
C737 C731 1.428 . S
C737 N736 1.351 . S
C737 C738 1.434 . S
C738 C729 1.429 . S
C738 N735 1.350 . S
C738 C737 1.434 . S
C739 C740 1.369 . S
C739 C741 1.419 . S
C739 H743 0.930 . S
C740 C739 1.369 . S
C740 C749 1.429 . S
C741 C739 1.419 . S
C741 C742 1.363 . S
C741 H744 0.929 . S
C742 C741 1.363 . S
C742 C748 1.428 . S
H743 C739 0.930 . S
H744 C741 0.929 . S
S745 N746 1.613 . S
S745 N747 1.610 . S
N746 S745 1.613 . S
N746 C749 1.350 . S
N747 S745 1.610 . S
N747 C748 1.351 . S
C748 C742 1.428 . S
C748 N747 1.351 . S
C748 C749 1.434 . S
C749 C740 1.429 . S
C749 N746 1.350 . S
C749 C748 1.434 . S
C750 C751 1.369 . S
C750 C752 1.419 . S
C750 H754 0.930 . S
C751 C750 1.369 . S
C751 C760 1.429 . S
C752 C750 1.419 . S
C752 C753 1.363 . S
C752 H755 0.929 . S
C753 C752 1.363 . S
C753 C759 1.428 . S
H754 C750 0.930 . S
H755 C752 0.929 . S
S756 N757 1.613 . S
S756 N758 1.610 . S
N757 S756 1.613 . S
N757 C760 1.350 . S
N758 S756 1.610 . S
N758 C759 1.351 . S
C759 C753 1.428 . S
C759 N758 1.351 . S
C759 C760 1.434 . S
C760 C751 1.429 . S
C760 N757 1.350 . S
C760 C759 1.434 . S
C761 C762 1.369 . S
C761 C763 1.419 . S
C761 H765 0.930 . S
C762 C761 1.369 . S
C762 C771 1.429 . S
C763 C761 1.419 . S
C763 C764 1.363 . S
C763 H766 0.929 . S
C764 C763 1.363 . S
C764 C770 1.428 . S
H765 C761 0.930 . S
H766 C763 0.929 . S
S767 N768 1.613 . S
S767 N769 1.610 . S
N768 S767 1.613 . S
N768 C771 1.350 . S
N769 S767 1.610 . S
N769 C770 1.351 . S
C770 C764 1.428 . S
C770 N769 1.351 . S
C770 C771 1.434 . S
C771 C762 1.429 . S
C771 N768 1.350 . S
C771 C770 1.434 . S
C772 C773 1.369 . S
C772 C774 1.419 . S
C772 H776 0.930 . S
C773 C772 1.369 . S
C773 C782 1.429 . S
C774 C772 1.419 . S
C774 C775 1.363 . S
C774 H777 0.929 . S
C775 C774 1.363 . S
C775 C781 1.428 . S
H776 C772 0.930 . S
H777 C774 0.929 . S
S778 N779 1.613 . S
S778 N780 1.610 . S
N779 S778 1.613 . S
N779 C782 1.350 . S
N780 S778 1.610 . S
N780 C781 1.351 . S
C781 C775 1.428 . S
C781 N780 1.351 . S
C781 C782 1.434 . S
C782 C773 1.429 . S
C782 N779 1.350 . S
C782 C781 1.434 . S
C783 C784 1.369 . S
C783 C785 1.419 . S
C783 H787 0.930 . S
C784 C783 1.369 . S
C784 C793 1.429 . S
C785 C783 1.419 . S
C785 C786 1.363 . S
C785 H788 0.929 . S
C786 C785 1.363 . S
C786 C792 1.428 . S
H787 C783 0.930 . S
H788 C785 0.929 . S
S789 N790 1.613 . S
S789 N791 1.610 . S
N790 S789 1.613 . S
N790 C793 1.350 . S
N791 S789 1.610 . S
N791 C792 1.351 . S
C792 C786 1.428 . S
C792 N791 1.351 . S
C792 C793 1.434 . S
C793 C784 1.429 . S
C793 N790 1.350 . S
C793 C792 1.434 . S
C794 C795 1.369 . S
C794 C796 1.419 . S
C794 H798 0.930 . S
C795 C794 1.369 . S
C795 C804 1.429 . S
C796 C794 1.419 . S
C796 C797 1.363 . S
C796 H799 0.929 . S
C797 C796 1.363 . S
C797 C803 1.428 . S
H798 C794 0.930 . S
H799 C796 0.929 . S
S800 N801 1.613 . S
S800 N802 1.610 . S
N801 S800 1.613 . S
N801 C804 1.350 . S
N802 S800 1.610 . S
N802 C803 1.351 . S
C803 C797 1.428 . S
C803 N802 1.351 . S
C803 C804 1.434 . S
C804 C795 1.429 . S
C804 N801 1.350 . S
C804 C803 1.434 . S
C805 C806 1.369 . S
C805 C807 1.419 . S
C805 H809 0.930 . S
C806 C805 1.369 . S
C806 C815 1.429 . S
C807 C805 1.419 . S
C807 C808 1.363 . S
C807 H810 0.929 . S
C808 C807 1.363 . S
C808 C814 1.428 . S
H809 C805 0.930 . S
H810 C807 0.929 . S
S811 N812 1.613 . S
S811 N813 1.610 . S
N812 S811 1.613 . S
N812 C815 1.350 . S
N813 S811 1.610 . S
N813 C814 1.351 . S
C814 C808 1.428 . S
C814 N813 1.351 . S
C814 C815 1.434 . S
C815 C806 1.429 . S
C815 N812 1.350 . S
C815 C814 1.434 . S
C816 C817 1.369 . S
C816 C818 1.419 . S
C816 H820 0.930 . S
C817 C816 1.369 . S
C817 C826 1.429 . S
C818 C816 1.419 . S
C818 C819 1.363 . S
C818 H821 0.929 . S
C819 C818 1.363 . S
C819 C825 1.428 . S
H820 C816 0.930 . S
H821 C818 0.929 . S
S822 N823 1.613 . S
S822 N824 1.610 . S
N823 S822 1.613 . S
N823 C826 1.350 . S
N824 S822 1.610 . S
N824 C825 1.351 . S
C825 C819 1.428 . S
C825 N824 1.351 . S
C825 C826 1.434 . S
C826 C817 1.429 . S
C826 N823 1.350 . S
C826 C825 1.434 . S
C827 C828 1.369 . S
C827 C829 1.419 . S
C827 H831 0.930 . S
C828 C827 1.369 . S
C828 C837 1.429 . S
C829 C827 1.419 . S
C829 C830 1.363 . S
C829 H832 0.929 . S
C830 C829 1.363 . S
C830 C836 1.428 . S
H831 C827 0.930 . S
H832 C829 0.929 . S
S833 N834 1.613 . S
S833 N835 1.610 . S
N834 S833 1.613 . S
N834 C837 1.350 . S
N835 S833 1.610 . S
N835 C836 1.351 . S
C836 C830 1.428 . S
C836 N835 1.351 . S
C836 C837 1.434 . S
C837 C828 1.429 . S
C837 N834 1.350 . S
C837 C836 1.434 . S
C838 C839 1.369 . S
C838 C840 1.419 . S
C838 H842 0.930 . S
C839 C838 1.369 . S
C839 C848 1.429 . S
C840 C838 1.419 . S
C840 C841 1.363 . S
C840 H843 0.929 . S
C841 C840 1.363 . S
C841 C847 1.428 . S
H842 C838 0.930 . S
H843 C840 0.929 . S
S844 N845 1.613 . S
S844 N846 1.610 1_455 S
N845 S844 1.613 . S
N845 C848 1.350 1_455 S
N846 S844 1.610 1_655 S
N846 C847 1.351 . S
C847 C841 1.428 . S
C847 N846 1.351 . S
C847 C848 1.434 . S
C848 C839 1.429 . S
C848 N845 1.350 1_655 S
C848 C847 1.434 . S
C849 C850 1.369 . S
C849 C851 1.419 . S
C849 H853 0.930 . S
C850 C849 1.369 . S
C850 C859 1.429 . S
C851 C849 1.419 . S
C851 C852 1.363 . S
C851 H854 0.929 . S
C852 C851 1.363 . S
C852 C858 1.428 . S
H853 C849 0.930 . S
H854 C851 0.929 . S
S855 N856 1.613 . S
S855 N857 1.610 . S
N856 S855 1.613 . S
N856 C859 1.350 . S
N857 S855 1.610 . S
N857 C858 1.351 . S
C858 C852 1.428 . S
C858 N857 1.351 . S
C858 C859 1.434 . S
C859 C850 1.429 . S
C859 N856 1.350 . S
C859 C858 1.434 . S
C860 C861 1.369 . S
C860 C862 1.419 . S
C860 H864 0.930 . S
C861 C860 1.369 . S
C861 C870 1.429 . S
C862 C860 1.419 . S
C862 C863 1.363 . S
C862 H865 0.929 . S
C863 C862 1.363 . S
C863 C869 1.428 . S
H864 C860 0.930 . S
H865 C862 0.929 . S
S866 N867 1.613 . S
S866 N868 1.610 . S
N867 S866 1.613 . S
N867 C870 1.350 . S
N868 S866 1.610 . S
N868 C869 1.351 . S
C869 C863 1.428 . S
C869 N868 1.351 . S
C869 C870 1.434 . S
C870 C861 1.429 . S
C870 N867 1.350 . S
C870 C869 1.434 . S
C871 C872 1.369 . S
C871 C873 1.419 . S
C871 H875 0.930 . S
C872 C871 1.369 . S
C872 C881 1.429 . S
C873 C871 1.419 . S
C873 C874 1.363 . S
C873 H876 0.929 . S
C874 C873 1.363 . S
C874 C880 1.428 . S
H875 C871 0.930 . S
H876 C873 0.929 . S
S877 N878 1.613 . S
S877 N879 1.610 . S
N878 S877 1.613 . S
N878 C881 1.350 . S
N879 S877 1.610 . S
N879 C880 1.351 . S
C880 C874 1.428 . S
C880 N879 1.351 . S
C880 C881 1.434 . S
C881 C872 1.429 . S
C881 N878 1.350 . S
C881 C880 1.434 . S
C882 C883 1.369 . S
C882 C884 1.419 . S
C882 H886 0.930 . S
C883 C882 1.369 . S
C883 C892 1.429 . S
C884 C882 1.419 . S
C884 C885 1.363 . S
C884 H887 0.929 . S
C885 C884 1.363 . S
C885 C891 1.428 . S
H886 C882 0.930 . S
H887 C884 0.929 . S
S888 N889 1.613 . S
S888 N890 1.610 . S
N889 S888 1.613 . S
N889 C892 1.350 . S
N890 S888 1.610 . S
N890 C891 1.351 . S
C891 C885 1.428 . S
C891 N890 1.351 . S
C891 C892 1.434 . S
C892 C883 1.429 . S
C892 N889 1.350 . S
C892 C891 1.434 . S
C893 C894 1.369 . S
C893 C895 1.419 . S
C893 H897 0.930 . S
C894 C893 1.369 . S
C894 C903 1.429 . S
C895 C893 1.419 . S
C895 C896 1.363 . S
C895 H898 0.929 . S
C896 C895 1.363 . S
C896 C902 1.428 . S
H897 C893 0.930 . S
H898 C895 0.929 . S
S899 N900 1.613 . S
S899 N901 1.610 . S
N900 S899 1.613 . S
N900 C903 1.350 . S
N901 S899 1.610 . S
N901 C902 1.351 . S
C902 C896 1.428 . S
C902 N901 1.351 . S
C902 C903 1.434 . S
C903 C894 1.429 . S
C903 N900 1.350 . S
C903 C902 1.434 . S
C904 C905 1.369 . S
C904 C906 1.419 . S
C904 H908 0.930 . S
C905 C904 1.369 . S
C905 C914 1.429 . S
C906 C904 1.419 . S
C906 C907 1.363 . S
C906 H909 0.929 . S
C907 C906 1.363 . S
C907 C913 1.428 . S
H908 C904 0.930 . S
H909 C906 0.929 . S
S910 N911 1.613 . S
S910 N912 1.610 . S
N911 S910 1.613 . S
N911 C914 1.350 . S
N912 S910 1.610 . S
N912 C913 1.351 . S
C913 C907 1.428 . S
C913 N912 1.351 . S
C913 C914 1.434 . S
C914 C905 1.429 . S
C914 N911 1.350 . S
C914 C913 1.434 . S
C915 C916 1.369 . S
C915 C917 1.419 . S
C915 H919 0.930 . S
C916 C915 1.369 . S
C916 C925 1.429 . S
C917 C915 1.419 . S
C917 C918 1.363 . S
C917 H920 0.929 . S
C918 C917 1.363 . S
C918 C924 1.428 . S
H919 C915 0.930 . S
H920 C917 0.929 . S
S921 N922 1.613 . S
S921 N923 1.610 . S
N922 S921 1.613 . S
N922 C925 1.350 . S
N923 S921 1.610 . S
N923 C924 1.351 . S
C924 C918 1.428 . S
C924 N923 1.351 . S
C924 C925 1.434 . S
C925 C916 1.429 . S
C925 N922 1.350 . S
C925 C924 1.434 . S
C926 C927 1.369 . S
C926 C928 1.419 . S
C926 H930 0.930 . S
C927 C926 1.369 . S
C927 C936 1.429 . S
C928 C926 1.419 . S
C928 C929 1.363 . S
C928 H931 0.929 . S
C929 C928 1.363 . S
C929 C935 1.428 . S
H930 C926 0.930 . S
H931 C928 0.929 . S
S932 N933 1.613 . S
S932 N934 1.610 . S
N933 S932 1.613 . S
N933 C936 1.350 . S
N934 S932 1.610 . S
N934 C935 1.351 . S
C935 C929 1.428 . S
C935 N934 1.351 . S
C935 C936 1.434 . S
C936 C927 1.429 . S
C936 N933 1.350 . S
C936 C935 1.434 . S
C937 C938 1.369 . S
C937 C939 1.419 . S
C937 H941 0.930 . S
C938 C937 1.369 . S
C938 C947 1.429 1_565 S
C939 C937 1.419 . S
C939 C940 1.363 . S
C939 H942 0.929 . S
C940 C939 1.363 . S
C940 C946 1.428 1_565 S
H941 C937 0.930 . S
H942 C939 0.929 . S
S943 N944 1.613 . S
S943 N945 1.610 . S
N944 S943 1.613 . S
N944 C947 1.350 . S
N945 S943 1.610 . S
N945 C946 1.351 . S
C946 C940 1.428 1_545 S
C946 N945 1.351 . S
C946 C947 1.434 . S
C947 C938 1.429 1_545 S
C947 N944 1.350 . S
C947 C946 1.434 . S
C948 C949 1.369 . S
C948 C950 1.419 . S
C948 H952 0.930 . S
C949 C948 1.369 . S
C949 C958 1.429 . S
C950 C948 1.419 . S
C950 C951 1.363 . S
C950 H953 0.929 . S
C951 C950 1.363 . S
C951 C957 1.428 . S
H952 C948 0.930 . S
H953 C950 0.929 . S
S954 N955 1.613 . S
S954 N956 1.610 . S
N955 S954 1.613 . S
N955 C958 1.350 . S
N956 S954 1.610 . S
N956 C957 1.351 . S
C957 C951 1.428 . S
C957 N956 1.351 . S
C957 C958 1.434 . S
C958 C949 1.429 . S
C958 N955 1.350 . S
C958 C957 1.434 . S
C959 C960 1.369 . S
C959 C961 1.419 . S
C959 H963 0.930 . S
C960 C959 1.369 . S
C960 C969 1.429 . S
C961 C959 1.419 . S
C961 C962 1.363 . S
C961 H964 0.929 1_455 S
C962 C961 1.363 . S
C962 C968 1.428 . S
H963 C959 0.930 . S
H964 C961 0.929 1_655 S
S965 N966 1.613 1_554 S
S965 N967 1.610 . S
N966 S965 1.613 1_556 S
N966 C969 1.350 . S
N967 S965 1.610 . S
N967 C968 1.351 1_554 S
C968 C962 1.428 . S
C968 N967 1.351 1_556 S
C968 C969 1.434 . S
C969 C960 1.429 . S
C969 N966 1.350 . S
C969 C968 1.434 . S
C970 C971 1.369 . S
C970 C972 1.419 . S
C970 H974 0.930 . S
C971 C970 1.369 . S
C971 C980 1.429 . S
C972 C970 1.419 . S
C972 C973 1.363 . S
C972 H975 0.929 . S
C973 C972 1.363 . S
C973 C979 1.428 . S
H974 C970 0.930 . S
H975 C972 0.929 . S
S976 N977 1.613 . S
S976 N978 1.610 . S
N977 S976 1.613 . S
N977 C980 1.350 . S
N978 S976 1.610 . S
N978 C979 1.351 . S
C979 C973 1.428 . S
C979 N978 1.351 . S
C979 C980 1.434 . S
C980 C971 1.429 . S
C980 N977 1.350 . S
C980 C979 1.434 . S
C981 C982 1.369 . S
C981 C983 1.419 . S
C981 H985 0.930 . S
C982 C981 1.369 . S
C982 C991 1.429 . S
C983 C981 1.419 . S
C983 C984 1.363 . S
C983 H986 0.929 . S
C984 C983 1.363 . S
C984 C990 1.428 . S
H985 C981 0.930 . S
H986 C983 0.929 . S
S987 N988 1.613 . S
S987 N989 1.610 . S
N988 S987 1.613 . S
N988 C991 1.350 . S
N989 S987 1.610 . S
N989 C990 1.351 . S
C990 C984 1.428 . S
C990 N989 1.351 . S
C990 C991 1.434 . S
C991 C982 1.429 . S
C991 N988 1.350 . S
C991 C990 1.434 . S
C992 C993 1.369 . S
C992 C994 1.419 . S
C992 H996 0.930 . S
C993 C992 1.369 . S
C993 C1002 1.429 . S
C994 C992 1.419 . S
C994 C995 1.363 . S
C994 H997 0.929 . S
C995 C994 1.363 . S
C995 C1001 1.428 . S
H996 C992 0.930 . S
H997 C994 0.929 . S
S998 N999 1.613 . S
S998 N1000 1.610 . S
N999 S998 1.613 . S
N999 C1002 1.350 . S
N1000 S998 1.610 . S
N1000 C1001 1.351 . S
C1001 C995 1.428 . S
C1001 N1000 1.351 . S
C1001 C1002 1.434 . S
C1002 C993 1.429 . S
C1002 N999 1.350 . S
C1002 C1001 1.434 . S
C1003 C1004 1.369 . S
C1003 C1005 1.419 . S
C1003 H1007 0.930 . S
C1004 C1003 1.369 . S
C1004 C1013 1.429 . S
C1005 C1003 1.419 . S
C1005 C1006 1.363 . S
C1005 H1008 0.929 . S
C1006 C1005 1.363 . S
C1006 C1012 1.428 . S
H1007 C1003 0.930 . S
H1008 C1005 0.929 . S
S1009 N1010 1.613 . S
S1009 N1011 1.610 . S
N1010 S1009 1.613 . S
N1010 C1013 1.350 . S
N1011 S1009 1.610 . S
N1011 C1012 1.351 . S
C1012 C1006 1.428 . S
C1012 N1011 1.351 . S
C1012 C1013 1.434 . S
C1013 C1004 1.429 . S
C1013 N1010 1.350 . S
C1013 C1012 1.434 . S
C1014 C1015 1.369 . S
C1014 C1016 1.419 . S
C1014 H1018 0.930 . S
C1015 C1014 1.369 . S
C1015 C1024 1.429 . S
C1016 C1014 1.419 . S
C1016 C1017 1.363 . S
C1016 H1019 0.929 . S
C1017 C1016 1.363 . S
C1017 C1023 1.428 . S
H1018 C1014 0.930 . S
H1019 C1016 0.929 . S
S1020 N1021 1.613 . S
S1020 N1022 1.610 . S
N1021 S1020 1.613 . S
N1021 C1024 1.350 . S
N1022 S1020 1.610 . S
N1022 C1023 1.351 . S
C1023 C1017 1.428 . S
C1023 N1022 1.351 . S
C1023 C1024 1.434 . S
C1024 C1015 1.429 . S
C1024 N1021 1.350 . S
C1024 C1023 1.434 . S
C1025 C1026 1.369 . S
C1025 C1027 1.419 . S
C1025 H1029 0.930 . S
C1026 C1025 1.369 . S
C1026 C1035 1.429 . S
C1027 C1025 1.419 . S
C1027 C1028 1.363 . S
C1027 H1030 0.929 . S
C1028 C1027 1.363 . S
C1028 C1034 1.428 . S
H1029 C1025 0.930 . S
H1030 C1027 0.929 . S
S1031 N1032 1.613 . S
S1031 N1033 1.610 1_545 S
N1032 S1031 1.613 . S
N1032 C1035 1.350 1_545 S
N1033 S1031 1.610 1_565 S
N1033 C1034 1.351 . S
C1034 C1028 1.428 . S
C1034 N1033 1.351 . S
C1034 C1035 1.434 . S
C1035 C1026 1.429 . S
C1035 N1032 1.350 1_565 S
C1035 C1034 1.434 . S
C1036 C1037 1.369 . S
C1036 C1038 1.419 . S
C1036 H1040 0.930 . S
C1037 C1036 1.369 . S
C1037 C1046 1.429 . S
C1038 C1036 1.419 . S
C1038 C1039 1.363 . S
C1038 H1041 0.929 . S
C1039 C1038 1.363 . S
C1039 C1045 1.428 . S
H1040 C1036 0.930 . S
H1041 C1038 0.929 . S
S1042 N1043 1.613 . S
S1042 N1044 1.610 . S
N1043 S1042 1.613 . S
N1043 C1046 1.350 . S
N1044 S1042 1.610 . S
N1044 C1045 1.351 . S
C1045 C1039 1.428 . S
C1045 N1044 1.351 . S
C1045 C1046 1.434 . S
C1046 C1037 1.429 . S
C1046 N1043 1.350 . S
C1046 C1045 1.434 . S
C1047 C1048 1.369 . S
C1047 C1049 1.419 . S
C1047 H1051 0.930 . S
C1048 C1047 1.369 . S
C1048 C1057 1.429 . S
C1049 C1047 1.419 . S
C1049 C1050 1.363 . S
C1049 H1052 0.929 . S
C1050 C1049 1.363 . S
C1050 C1056 1.428 . S
H1051 C1047 0.930 . S
H1052 C1049 0.929 . S
S1053 N1054 1.613 . S
S1053 N1055 1.610 . S
N1054 S1053 1.613 . S
N1054 C1057 1.350 . S
N1055 S1053 1.610 . S
N1055 C1056 1.351 . S
C1056 C1050 1.428 . S
C1056 N1055 1.351 . S
C1056 C1057 1.434 . S
C1057 C1048 1.429 . S
C1057 N1054 1.350 . S
C1057 C1056 1.434 . S
C1058 C1059 1.369 . S
C1058 C1060 1.419 . S
C1058 H1062 0.930 . S
C1059 C1058 1.369 . S
C1059 C1068 1.429 . S
C1060 C1058 1.419 . S
C1060 C1061 1.363 . S
C1060 H1063 0.929 . S
C1061 C1060 1.363 . S
C1061 C1067 1.428 . S
H1062 C1058 0.930 . S
H1063 C1060 0.929 . S
S1064 N1065 1.613 . S
S1064 N1066 1.610 . S
N1065 S1064 1.613 . S
N1065 C1068 1.350 . S
N1066 S1064 1.610 . S
N1066 C1067 1.351 . S
C1067 C1061 1.428 . S
C1067 N1066 1.351 . S
C1067 C1068 1.434 . S
C1068 C1059 1.429 . S
C1068 N1065 1.350 . S
C1068 C1067 1.434 . S
C1069 C1070 1.369 . S
C1069 C1071 1.419 . S
C1069 H1073 0.930 . S
C1070 C1069 1.369 . S
C1070 C1079 1.429 . S
C1071 C1069 1.419 . S
C1071 C1072 1.363 . S
C1071 H1074 0.929 . S
C1072 C1071 1.363 . S
C1072 C1078 1.428 . S
H1073 C1069 0.930 . S
H1074 C1071 0.929 . S
S1075 N1076 1.613 . S
S1075 N1077 1.610 . S
N1076 S1075 1.613 . S
N1076 C1079 1.350 . S
N1077 S1075 1.610 . S
N1077 C1078 1.351 . S
C1078 C1072 1.428 . S
C1078 N1077 1.351 . S
C1078 C1079 1.434 . S
C1079 C1070 1.429 . S
C1079 N1076 1.350 . S
C1079 C1078 1.434 . S
C1080 C1081 1.369 . S
C1080 C1082 1.419 . S
C1080 H1084 0.930 . S
C1081 C1080 1.369 . S
C1081 C1090 1.429 . S
C1082 C1080 1.419 . S
C1082 C1083 1.363 . S
C1082 H1085 0.929 . S
C1083 C1082 1.363 . S
C1083 C1089 1.428 . S
H1084 C1080 0.930 . S
H1085 C1082 0.929 . S
S1086 N1087 1.613 . S
S1086 N1088 1.610 . S
N1087 S1086 1.613 . S
N1087 C1090 1.350 . S
N1088 S1086 1.610 . S
N1088 C1089 1.351 . S
C1089 C1083 1.428 . S
C1089 N1088 1.351 . S
C1089 C1090 1.434 . S
C1090 C1081 1.429 . S
C1090 N1087 1.350 . S
C1090 C1089 1.434 . S
C1091 C1092 1.369 . S
C1091 C1093 1.419 . S
C1091 H1095 0.930 . S
C1092 C1091 1.369 . S
C1092 C1101 1.429 . S
C1093 C1091 1.419 . S
C1093 C1094 1.363 . S
C1093 H1096 0.929 . S
C1094 C1093 1.363 . S
C1094 C1100 1.428 . S
H1095 C1091 0.930 . S
H1096 C1093 0.929 . S
S1097 N1098 1.613 . S
S1097 N1099 1.610 . S
N1098 S1097 1.613 . S
N1098 C1101 1.350 . S
N1099 S1097 1.610 . S
N1099 C1100 1.351 . S
C1100 C1094 1.428 . S
C1100 N1099 1.351 . S
C1100 C1101 1.434 . S
C1101 C1092 1.429 . S
C1101 N1098 1.350 . S
C1101 C1100 1.434 . S
C1102 C1103 1.369 . S
C1102 C1104 1.419 . S
C1102 H1106 0.930 . S
C1103 C1102 1.369 . S
C1103 C1112 1.429 . S
C1104 C1102 1.419 . S
C1104 C1105 1.363 . S
C1104 H1107 0.929 . S
C1105 C1104 1.363 . S
C1105 C1111 1.428 . S
H1106 C1102 0.930 . S
H1107 C1104 0.929 . S
S1108 N1109 1.613 . S
S1108 N1110 1.610 . S
N1109 S1108 1.613 . S
N1109 C1112 1.350 . S
N1110 S1108 1.610 . S
N1110 C1111 1.351 . S
C1111 C1105 1.428 . S
C1111 N1110 1.351 . S
C1111 C1112 1.434 . S
C1112 C1103 1.429 . S
C1112 N1109 1.350 . S
C1112 C1111 1.434 . S
C1113 C1114 1.369 . S
C1113 C1115 1.419 . S
C1113 H1117 0.930 . S
C1114 C1113 1.369 . S
C1114 C1123 1.429 . S
C1115 C1113 1.419 . S
C1115 C1116 1.363 . S
C1115 H1118 0.929 . S
C1116 C1115 1.363 . S
C1116 C1122 1.428 . S
H1117 C1113 0.930 . S
H1118 C1115 0.929 . S
S1119 N1120 1.613 . S
S1119 N1121 1.610 . S
N1120 S1119 1.613 . S
N1120 C1123 1.350 . S
N1121 S1119 1.610 . S
N1121 C1122 1.351 . S
C1122 C1116 1.428 . S
C1122 N1121 1.351 . S
C1122 C1123 1.434 . S
C1123 C1114 1.429 . S
C1123 N1120 1.350 . S
C1123 C1122 1.434 . S
C1124 C1125 1.369 . S
C1124 C1126 1.419 . S
C1124 H1128 0.930 . S
C1125 C1124 1.369 . S
C1125 C1134 1.429 . S
C1126 C1124 1.419 . S
C1126 C1127 1.363 . S
C1126 H1129 0.929 . S
C1127 C1126 1.363 . S
C1127 C1133 1.428 . S
H1128 C1124 0.930 . S
H1129 C1126 0.929 . S
S1130 N1131 1.613 . S
S1130 N1132 1.610 . S
N1131 S1130 1.613 . S
N1131 C1134 1.350 . S
N1132 S1130 1.610 . S
N1132 C1133 1.351 . S
C1133 C1127 1.428 . S
C1133 N1132 1.351 . S
C1133 C1134 1.434 . S
C1134 C1125 1.429 . S
C1134 N1131 1.350 . S
C1134 C1133 1.434 . S
C1135 C1136 1.369 . S
C1135 C1137 1.419 . S
C1135 H1139 0.930 . S
C1136 C1135 1.369 . S
C1136 C1145 1.429 . S
C1137 C1135 1.419 . S
C1137 C1138 1.363 . S
C1137 H1140 0.929 . S
C1138 C1137 1.363 . S
C1138 C1144 1.428 . S
H1139 C1135 0.930 . S
H1140 C1137 0.929 . S
S1141 N1142 1.613 . S
S1141 N1143 1.610 . S
N1142 S1141 1.613 . S
N1142 C1145 1.350 . S
N1143 S1141 1.610 . S
N1143 C1144 1.351 . S
C1144 C1138 1.428 . S
C1144 N1143 1.351 . S
C1144 C1145 1.434 . S
C1145 C1136 1.429 . S
C1145 N1142 1.350 . S
C1145 C1144 1.434 . S
C1146 C1147 1.369 . S
C1146 C1148 1.419 . S
C1146 H1150 0.930 . S
C1147 C1146 1.369 . S
C1147 C1156 1.429 . S
C1148 C1146 1.419 . S
C1148 C1149 1.363 . S
C1148 H1151 0.929 . S
C1149 C1148 1.363 . S
C1149 C1155 1.428 . S
H1150 C1146 0.930 . S
H1151 C1148 0.929 . S
S1152 N1153 1.613 . S
S1152 N1154 1.610 . S
N1153 S1152 1.613 . S
N1153 C1156 1.350 . S
N1154 S1152 1.610 . S
N1154 C1155 1.351 . S
C1155 C1149 1.428 . S
C1155 N1154 1.351 . S
C1155 C1156 1.434 . S
C1156 C1147 1.429 . S
C1156 N1153 1.350 . S
C1156 C1155 1.434 . S
C1157 C1158 1.369 . S
C1157 C1159 1.419 . S
C1157 H1161 0.930 . S
C1158 C1157 1.369 . S
C1158 C1167 1.429 . S
C1159 C1157 1.419 . S
C1159 C1160 1.363 . S
C1159 H1162 0.929 . S
C1160 C1159 1.363 . S
C1160 C1166 1.428 . S
H1161 C1157 0.930 . S
H1162 C1159 0.929 . S
S1163 N1164 1.613 . S
S1163 N1165 1.610 . S
N1164 S1163 1.613 . S
N1164 C1167 1.350 . S
N1165 S1163 1.610 . S
N1165 C1166 1.351 . S
C1166 C1160 1.428 . S
C1166 N1165 1.351 . S
C1166 C1167 1.434 . S
C1167 C1158 1.429 . S
C1167 N1164 1.350 . S
C1167 C1166 1.434 . S
C641 C131 2.040 . S
C643 C10 2.039 . S
C652 C7 1.415 1_545 S
C654 C56 1.143 . S
C663 C90 1.368 . S
C665 C59 1.393 . S
C674 C127 1.321 . S
C676 C87 1.337 . S
C685 C167 2.246 . S
C687 C202 2.236 . S
C696 C219 1.682 . S
C698 C259 1.662 . S
C707 C256 2.072 . S
C709 C282 2.096 . S
C718 C171 1.907 . S
C720 C299 1.889 . S
C729 C376 2.830 . S
C731 C11 2.814 . S
C740 C402 1.414 . S
C742 C42 1.463 . S
C751 C91 4.419 . S
C753 C531 4.409 . S
C762 C330 1.147 . S
C764 C130 1.175 . S
C773 C450 1.028 . S
C775 C170 1.010 . S
C784 C571 3.092 . S
C786 C216 3.054 . S
C795 C242 2.240 . S
C797 C482 2.206 . S
C806 C611 3.013 . S
C808 C296 2.962 . S
C817 C331 1.979 . S
C819 C530 1.984 . S
C828 C362 2.262 . S
C830 C327 2.281 . S
C839 C419 0.848 . S
C841 C379 0.852 . S
C850 C570 1.827 . S
C852 C451 1.841 . S
C861 C499 1.052 . S
C863 C610 1.083 . S
C872 C442 1.843 . S
C874 C19 1.830 . S
C883 C487 0.836 . S
C885 C16 0.851 . S
C894 C490 1.049 . S
C896 C99 1.080 . S
C905 C96 0.845 . S
C907 C456 0.845 . S
C916 C371 2.262 . S
C918 C176 2.280 . S
C927 C370 0.853 . S
C929 C250 0.853 . S
C938 C536 0.877 . S
C940 C247 0.885 . S
C949 C162 1.982 . S
C951 C539 1.986 . S
C960 C207 3.055 . S
C962 C2 3.093 . S
C971 C411 2.239 . S
C973 C491 2.208 . S
C982 C82 3.013 . S
C984 C287 2.960 . S
C993 C339 1.013 . S
C995 C459 1.031 . S
C1004 C139 1.179 . S
C1006 C179 1.154 . S
C1015 C367 2.831 . S
C1017 C562 2.814 . S
C1026 C251 1.419 . S
C1028 C51 1.460 . S
C1037 C602 4.419 1_655 S
C1039 C522 4.404 . S
C1048 C322 1.906 . S
C1050 C290 1.890 . S
C1059 C336 2.247 . S
C1061 C211 2.235 . S
C1070 C410 1.664 . S
C1072 C210 1.684 . S
C1081 C122 2.041 . S
C1083 C579 2.041 . S
C1092 C50 1.387 . S
C1094 C619 1.370 . S
C1103 C496 0.839 . S
C1105 C567 0.842 . S
C1114 C447 0.851 . S
C1116 C607 0.834 . S
C1125 C416 0.884 . S
C1127 C527 0.870 . S
C1136 C576 1.433 . S
C1138 C47 1.131 . S
C1147 C136 1.308 . S
C1149 C616 1.349 . S
C1158 C291 2.094 . S
C1160 C407 2.071 . S
