# Generated by pormake.
# Topology uoa, (4)-cn, num edge types: 1
# Building blocks:
#     Node 0, Type 0, BuildingBlock: GALJAG_clean_sbu_0, # of connection points: 4
#     Node 1, Type 0, BuildingBlock: GALJAG_clean_sbu_0, # of connection points: 4
#     Node 2, Type 0, BuildingBlock: GALJAG_clean_sbu_0, # of connection points: 4
#     Node 3, Type 0, BuildingBlock: GALJAG_clean_sbu_0, # of connection points: 4
#     Node 4, Type 0, BuildingBlock: GALJAG_clean_sbu_0, # of connection points: 4
#     Node 5, Type 0, BuildingBlock: GALJAG_clean_sbu_0, # of connection points: 4
#     Node 6, Type 0, BuildingBlock: GALJAG_clean_sbu_0, # of connection points: 4
#     Node 7, Type 0, BuildingBlock: GALJAG_clean_sbu_0, # of connection points: 4
#     Node 8, Type 0, BuildingBlock: GALJAG_clean_sbu_0, # of connection points: 4
#     Node 9, Type 0, BuildingBlock: GALJAG_clean_sbu_0, # of connection points: 4
#     Node 10, Type 0, BuildingBlock: GALJAG_clean_sbu_0, # of connection points: 4
#     Node 11, Type 0, BuildingBlock: GALJAG_clean_sbu_0, # of connection points: 4
#     Node 12, Type 0, BuildingBlock: GALJAG_clean_sbu_0, # of connection points: 4
#     Node 13, Type 0, BuildingBlock: GALJAG_clean_sbu_0, # of connection points: 4
#     Node 14, Type 0, BuildingBlock: GALJAG_clean_sbu_0, # of connection points: 4
#     Node 15, Type 0, BuildingBlock: GALJAG_clean_sbu_0, # of connection points: 4
#     Node 16, Type 0, BuildingBlock: GALJAG_clean_sbu_0, # of connection points: 4
#     Node 17, Type 0, BuildingBlock: GALJAG_clean_sbu_0, # of connection points: 4
#     Node 18, Type 0, BuildingBlock: GALJAG_clean_sbu_0, # of connection points: 4
#     Node 19, Type 0, BuildingBlock: GALJAG_clean_sbu_0, # of connection points: 4
#     Node 20, Type 0, BuildingBlock: GALJAG_clean_sbu_0, # of connection points: 4
#     Node 21, Type 0, BuildingBlock: GALJAG_clean_sbu_0, # of connection points: 4
#     Node 22, Type 0, BuildingBlock: GALJAG_clean_sbu_0, # of connection points: 4
#     Node 23, Type 0, BuildingBlock: GALJAG_clean_sbu_0, # of connection points: 4
#     Node 24, Type 0, BuildingBlock: GALJAG_clean_sbu_0, # of connection points: 4
#     Node 25, Type 0, BuildingBlock: GALJAG_clean_sbu_0, # of connection points: 4
#     Node 26, Type 0, BuildingBlock: GALJAG_clean_sbu_0, # of connection points: 4
#     Node 27, Type 0, BuildingBlock: GALJAG_clean_sbu_0, # of connection points: 4
#     Node 28, Type 0, BuildingBlock: GALJAG_clean_sbu_0, # of connection points: 4
#     Node 29, Type 0, BuildingBlock: GALJAG_clean_sbu_0, # of connection points: 4
#     Node 30, Type 0, BuildingBlock: GALJAG_clean_sbu_0, # of connection points: 4
#     Node 31, Type 0, BuildingBlock: GALJAG_clean_sbu_0, # of connection points: 4
#     Edge 32, Type (0, 0), None
#     Edge 33, Type (0, 0), None
#     Edge 34, Type (0, 0), None
#     Edge 35, Type (0, 0), None
#     Edge 36, Type (0, 0), None
#     Edge 37, Type (0, 0), None
#     Edge 38, Type (0, 0), None
#     Edge 39, Type (0, 0), None
#     Edge 40, Type (0, 0), None
#     Edge 41, Type (0, 0), None
#     Edge 42, Type (0, 0), None
#     Edge 43, Type (0, 0), None
#     Edge 44, Type (0, 0), None
#     Edge 45, Type (0, 0), None
#     Edge 46, Type (0, 0), None
#     Edge 47, Type (0, 0), None
#     Edge 48, Type (0, 0), None
#     Edge 49, Type (0, 0), None
#     Edge 50, Type (0, 0), None
#     Edge 51, Type (0, 0), None
#     Edge 52, Type (0, 0), None
#     Edge 53, Type (0, 0), None
#     Edge 54, Type (0, 0), None
#     Edge 55, Type (0, 0), None
#     Edge 56, Type (0, 0), None
#     Edge 57, Type (0, 0), None
#     Edge 58, Type (0, 0), None
#     Edge 59, Type (0, 0), None
#     Edge 60, Type (0, 0), None
#     Edge 61, Type (0, 0), None
#     Edge 62, Type (0, 0), None
#     Edge 63, Type (0, 0), None
#     Edge 64, Type (0, 0), None
#     Edge 65, Type (0, 0), None
#     Edge 66, Type (0, 0), None
#     Edge 67, Type (0, 0), None
#     Edge 68, Type (0, 0), None
#     Edge 69, Type (0, 0), None
#     Edge 70, Type (0, 0), None
#     Edge 71, Type (0, 0), None
#     Edge 72, Type (0, 0), None
#     Edge 73, Type (0, 0), None
#     Edge 74, Type (0, 0), None
#     Edge 75, Type (0, 0), None
#     Edge 76, Type (0, 0), None
#     Edge 77, Type (0, 0), None
#     Edge 78, Type (0, 0), None
#     Edge 79, Type (0, 0), None
#     Edge 80, Type (0, 0), None
#     Edge 81, Type (0, 0), None
#     Edge 82, Type (0, 0), None
#     Edge 83, Type (0, 0), None
#     Edge 84, Type (0, 0), None
#     Edge 85, Type (0, 0), None
#     Edge 86, Type (0, 0), None
#     Edge 87, Type (0, 0), None
#     Edge 88, Type (0, 0), None
#     Edge 89, Type (0, 0), None
#     Edge 90, Type (0, 0), None
#     Edge 91, Type (0, 0), None
#     Edge 92, Type (0, 0), None
#     Edge 93, Type (0, 0), None
#     Edge 94, Type (0, 0), None
#     Edge 95, Type (0, 0), None
# Relax obj value: 0.050
# Max RMSD: 0.160
# Mean RMSD: 0.160
data_MOF--net-uoa--node1-GALJAG_clean_sbu_0--edge1-none
_symmetry_space_group_name_H-M    P1
_symmetry_Int_Tables_number       1
_symmetry_cell_setting            triclinic
loop_
_symmetry_equiv_pos_as_xyz
'x, y, z'
_cell_length_a     34.867129
_cell_length_b     34.85886
_cell_length_c     12.780991
_cell_angle_alpha  90.000172
_cell_angle_beta   89.997756
_cell_angle_gamma 89.998468
loop_
_atom_site_label
_atom_site_type_symbol
_atom_site_fract_x
_atom_site_fract_y
_atom_site_fract_z
_atom_type_partial_charge
In0 In 0.00664 0.07294 0.05382 0.0
O1 O 0.06946 0.08526 0.09495 0.0
O2 O 0.02929 0.13191 0.08093 0.0
C3 C -0.01344 0.0001 0.01641 0.0
C4 C 0.97986 0.08365 0.24603 0.0
C5 C -0.00627 0.08907 0.854 0.0
O6 O 0.02149 0.00983 0.02777 0.0
O7 O 0.96226 0.02629 0.03198 0.0
O8 O 0.96935 0.09616 0.92513 0.0
O9 O 0.02607 0.07725 0.88495 0.0
C10 C 0.06274 0.12093 0.10537 0.0
O11 O 0.96155 0.09631 0.16735 0.0
O12 O 0.00929 0.06374 0.22636 0.0
In13 In 0.13842 0.75663 0.30387 0.0
O14 O 0.11507 0.71151 0.4174 0.0
O15 O 0.14762 0.75928 0.47641 0.0
C16 C 0.12231 0.74371 0.10405 0.0
C17 C 0.09041 0.81272 0.35541 0.0
C18 C 0.21125 0.73655 0.26646 0.0
O19 O 0.11522 0.71932 0.17517 0.0
O20 O 0.13411 0.77606 0.13501 0.0
O21 O 0.20152 0.77148 0.27783 0.0
O22 O 0.18507 0.71224 0.28203 0.0
C23 C 0.12772 0.72984 0.49607 0.0
O24 O 0.12607 0.81945 0.34499 0.0
O25 O 0.07946 0.77926 0.33097 0.0
In26 In 0.4547 0.8884 0.55385 0.0
O27 O 0.4998 0.86503 0.66737 0.0
O28 O 0.45206 0.8976 0.72639 0.0
C29 C 0.46761 0.87227 0.35402 0.0
C30 C 0.39862 0.84039 0.60542 0.0
C31 C 0.47477 0.96123 0.51641 0.0
O32 O 0.49199 0.86518 0.42514 0.0
O33 O 0.43527 0.88408 0.38499 0.0
O34 O 0.43986 0.95151 0.52779 0.0
O35 O 0.49908 0.93505 0.53199 0.0
C36 C 0.48149 0.87769 0.74605 0.0
O37 O 0.39189 0.87607 0.595 0.0
O38 O 0.43205 0.82943 0.58096 0.0
In39 In 0.32293 0.20471 0.80378 0.0
O40 O 0.34628 0.24982 0.9173 0.0
O41 O 0.31373 0.20206 0.97632 0.0
C42 C 0.33905 0.21762 0.60395 0.0
C43 C 0.37094 0.14862 0.85535 0.0
C44 C 0.25011 0.22478 0.76636 0.0
O45 O 0.34613 0.24201 0.67507 0.0
O46 O 0.32724 0.18527 0.63492 0.0
O47 O 0.25984 0.18986 0.77774 0.0
O48 O 0.27629 0.24909 0.78193 0.0
C49 C 0.33363 0.2315 0.99598 0.0
O50 O 0.33527 0.14188 0.84493 0.0
O51 O 0.38189 0.18207 0.83089 0.0
In52 In 0.00663 0.88839 0.4486 0.0
O53 O 0.06945 0.87607 0.40746 0.0
O54 O 0.02928 0.82942 0.42148 0.0
C55 C -0.01343 0.96123 0.48602 0.0
C56 C 0.97984 0.87768 0.2564 0.0
C57 C -0.00629 0.87226 0.64843 0.0
O58 O 0.02148 0.9515 0.47465 0.0
O59 O 0.96225 0.93505 0.47044 0.0
O60 O 0.96933 0.86518 0.5773 0.0
O61 O 0.02605 0.88407 0.61746 0.0
C62 C 0.06272 0.84039 0.39703 0.0
O63 O 0.96153 0.86502 0.33508 0.0
O64 O 0.00927 0.89759 0.27606 0.0
In65 In 0.32293 0.75663 0.69864 0.0
O66 O 0.34628 0.71152 0.58511 0.0
O67 O 0.31373 0.75928 0.52611 0.0
C68 C 0.33905 0.74372 0.89847 0.0
C69 C 0.37093 0.81272 0.64706 0.0
C70 C 0.25011 0.73655 0.73607 0.0
O71 O 0.34613 0.71933 0.82735 0.0
O72 O 0.32724 0.77607 0.8675 0.0
O73 O 0.25983 0.77148 0.72469 0.0
O74 O 0.27629 0.71224 0.7205 0.0
C75 C 0.33363 0.72984 0.50644 0.0
O76 O 0.33527 0.81945 0.6575 0.0
O77 O 0.38189 0.77926 0.67152 0.0
In78 In 0.4547 0.07294 0.94858 0.0
O79 O 0.4998 0.09631 0.83506 0.0
O80 O 0.45207 0.06373 0.77604 0.0
C81 C 0.46762 0.08907 0.14841 0.0
C82 C 0.39861 0.12094 0.89699 0.0
C83 C 0.47478 0.0001 0.98601 0.0
O84 O 0.49199 0.09615 0.07728 0.0
O85 O 0.43528 0.07726 0.11745 0.0
O86 O 0.43985 0.00983 0.97464 0.0
O87 O 0.49908 0.02628 0.97043 0.0
C88 C 0.48149 0.08364 0.75638 0.0
O89 O 0.39189 0.08527 0.90744 0.0
O90 O 0.43206 0.13191 0.92145 0.0
In91 In 0.13843 0.2047 0.19855 0.0
O92 O 0.12609 0.14187 0.15742 0.0
O93 O 0.07947 0.18207 0.17145 0.0
C94 C 0.21125 0.22478 0.23597 0.0
C95 C 0.12773 0.23149 0.00636 0.0
C96 C 0.12231 0.21762 0.39838 0.0
O97 O 0.20152 0.18985 0.2246 0.0
O98 O 0.18507 0.24909 0.2204 0.0
O99 O 0.11522 0.242 0.32726 0.0
O100 O 0.13411 0.18527 0.36742 0.0
C101 C 0.09042 0.14862 0.14699 0.0
O102 O 0.11507 0.24981 0.08503 0.0
O103 O 0.14763 0.20205 0.02602 0.0
In104 In 0.9547 0.8884 0.94859 0.0
O105 O -0.00021 0.865 0.83511 0.0
O106 O 0.95207 0.89759 0.77604 0.0
C107 C 0.96763 0.87231 0.1484 0.0
C108 C 0.89859 0.84041 0.89706 0.0
C109 C 0.97478 0.96124 0.98597 0.0
O110 O -0.008 0.86521 0.07728 0.0
O111 O 0.93527 0.88409 0.11747 0.0
O112 O 0.93985 0.95152 0.97462 0.0
O113 O -0.00093 0.93506 0.97039 0.0
C114 C -0.01851 0.87767 0.75641 0.0
O115 O 0.89188 0.87609 0.90745 0.0
O116 O 0.93204 0.82944 0.92153 0.0
In117 In 0.82291 0.2047 0.69855 0.0
O118 O 0.83526 0.14187 0.65744 0.0
O119 O 0.88187 0.18207 0.67145 0.0
C120 C 0.75009 0.22477 0.73597 0.0
C121 C 0.83361 0.23148 0.50635 0.0
C122 C 0.83903 0.21762 0.89838 0.0
O123 O 0.75982 0.18984 0.7246 0.0
O124 O 0.77626 0.24908 0.7204 0.0
O125 O 0.84611 0.242 0.82725 0.0
O126 O 0.82723 0.18527 0.86742 0.0
C127 C 0.87092 0.14861 0.64701 0.0
O128 O 0.84626 0.24981 0.58502 0.0
O129 O 0.81371 0.20204 0.52602 0.0
In130 In 0.50663 0.07293 0.44857 0.0
O131 O 0.46154 0.09633 0.3351 0.0
O132 O 0.50925 0.06374 0.27602 0.0
C133 C 0.4937 0.08902 0.64838 0.0
C134 C 0.56273 0.12093 0.39701 0.0
C135 C 0.48657 9e-05 0.48597 0.0
O136 O 0.46933 0.09612 0.57727 0.0
O137 O 0.52606 0.07724 0.61744 0.0
O138 O 0.52148 0.00982 0.4746 0.0
O139 O 0.46226 0.02627 0.47039 0.0
C140 C 0.47983 0.08366 0.2564 0.0
O141 O 0.56945 0.08525 0.4074 0.0
O142 O 0.52929 0.13189 0.4215 0.0
In143 In 0.63841 0.75664 0.19864 0.0
O144 O 0.61505 0.71152 0.08512 0.0
O145 O 0.64761 0.75928 0.02611 0.0
C146 C 0.62229 0.74372 0.39847 0.0
C147 C 0.5904 0.81272 0.14707 0.0
C148 C 0.71123 0.73656 0.23607 0.0
O149 O 0.61521 0.71934 0.32735 0.0
O150 O 0.63409 0.77607 0.3675 0.0
O151 O 0.7015 0.77149 0.22469 0.0
O152 O 0.68505 0.71225 0.2205 0.0
C153 C 0.62771 0.72984 0.00645 0.0
O154 O 0.62607 0.81946 0.1575 0.0
O155 O 0.57945 0.77928 0.17152 0.0
In156 In 0.95471 0.07293 0.55384 0.0
O157 O 0.89189 0.08525 0.59499 0.0
O158 O 0.93205 0.1319 0.58091 0.0
C159 C 0.97477 9e-05 0.51645 0.0
C160 C -0.01849 0.08367 0.74601 0.0
C161 C 0.96765 0.08903 0.35403 0.0
O162 O 0.93986 0.00982 0.52781 0.0
O163 O -0.00092 0.02627 0.53203 0.0
O164 O -0.00798 0.09612 0.42515 0.0
O165 O 0.93529 0.07725 0.38496 0.0
C166 C 0.89861 0.12093 0.60539 0.0
O167 O -0.0002 0.09633 0.66731 0.0
O168 O 0.95209 0.06374 0.72639 0.0
In169 In 0.63841 0.20469 0.30378 0.0
O170 O 0.61505 0.2498 0.41731 0.0
O171 O 0.64761 0.20204 0.47632 0.0
C172 C 0.62229 0.21761 0.10396 0.0
C173 C 0.59042 0.1486 0.35537 0.0
C174 C 0.71123 0.22477 0.26636 0.0
O175 O 0.6152 0.24199 0.17508 0.0
O176 O 0.6341 0.18526 0.13493 0.0
O177 O 0.70151 0.18984 0.27773 0.0
O178 O 0.68505 0.24908 0.28193 0.0
C179 C 0.62771 0.23148 0.49598 0.0
O180 O 0.62607 0.14187 0.34492 0.0
O181 O 0.57945 0.18206 0.33092 0.0
In182 In 0.50663 0.8884 0.05385 0.0
O183 O 0.46153 0.865 0.16733 0.0
O184 O 0.50925 0.8976 0.2264 0.0
C185 C 0.4937 0.87231 0.85405 0.0
C186 C 0.56273 0.84041 0.10543 0.0
C187 C 0.48656 0.96124 0.01646 0.0
O188 O 0.46932 0.86521 0.92517 0.0
O189 O 0.52606 0.88409 0.88498 0.0
O190 O 0.52148 0.95151 0.02782 0.0
O191 O 0.46226 0.93506 0.03204 0.0
C192 C 0.47983 0.87767 0.24603 0.0
O193 O 0.56944 0.87608 0.09502 0.0
O194 O 0.52929 0.82944 0.08094 0.0
In195 In 0.82291 0.75664 0.80387 0.0
O196 O 0.84626 0.71153 0.9174 0.0
O197 O 0.8137 0.75929 0.97641 0.0
C198 C 0.83903 0.74372 0.60405 0.0
C199 C 0.87092 0.81273 0.85544 0.0
C200 C 0.75008 0.73657 0.76645 0.0
O201 O 0.84611 0.71934 0.67517 0.0
O202 O 0.82722 0.77608 0.63501 0.0
O203 O 0.75981 0.7715 0.77783 0.0
O204 O 0.77626 0.71226 0.78203 0.0
C205 C 0.83361 0.72985 0.99607 0.0
O206 O 0.83525 0.81947 0.845 0.0
O207 O 0.88186 0.77928 0.83099 0.0
In208 In 0.50664 0.57294 0.55385 0.0
O209 O 0.56945 0.58526 0.59499 0.0
O210 O 0.52929 0.6319 0.58098 0.0
C211 C 0.48656 0.5001 0.51641 0.0
C212 C 0.47985 0.58365 0.74605 0.0
C213 C 0.49373 0.58907 0.35402 0.0
O214 O 0.52149 0.50983 0.52779 0.0
O215 O 0.46226 0.52629 0.532 0.0
O216 O 0.46935 0.59616 0.42515 0.0
O217 O 0.52607 0.57725 0.38498 0.0
C218 C 0.56273 0.62093 0.60543 0.0
O219 O 0.46154 0.59631 0.66738 0.0
O220 O 0.50928 0.56373 0.72639 0.0
In221 In 0.63841 0.25662 0.80379 0.0
O222 O 0.62607 0.31945 0.84495 0.0
O223 O 0.57945 0.27927 0.83086 0.0
C224 C 0.71124 0.23655 0.76641 0.0
C225 C 0.62769 0.22982 0.99597 0.0
C226 C 0.62233 0.24369 0.60398 0.0
O227 O 0.70151 0.27148 0.77778 0.0
O228 O 0.68506 0.21224 0.78198 0.0
O229 O 0.61523 0.21931 0.6751 0.0
O230 O 0.63411 0.27606 0.63492 0.0
C231 C 0.59041 0.31272 0.85534 0.0
O232 O 0.61503 0.21152 0.91728 0.0
O233 O 0.6476 0.25925 0.97634 0.0
In234 In 0.9547 0.3884 0.05384 0.0
O235 O -0.00021 0.36502 0.16735 0.0
O236 O 0.95205 0.3976 0.22638 0.0
C237 C 0.96761 0.37226 0.854 0.0
C238 C 0.8986 0.3404 0.10539 0.0
C239 C 0.97477 0.46123 0.01641 0.0
O240 O -0.00801 0.36518 0.92513 0.0
O241 O 0.93527 0.38408 0.88497 0.0
O242 O 0.93985 0.45151 0.02779 0.0
O243 O -0.00092 0.43504 0.03198 0.0
C244 C -0.01852 0.37768 0.24603 0.0
O245 O 0.89188 0.37608 0.09496 0.0
O246 O 0.93204 0.32943 0.08095 0.0
In247 In 0.82291 0.70471 0.30388 0.0
O248 O 0.84629 0.74981 0.41736 0.0
O249 O 0.81372 0.70207 0.47643 0.0
C250 C 0.83898 0.71764 0.10407 0.0
C251 C 0.87092 0.64862 0.3554 0.0
C252 C 0.75008 0.72477 0.2665 0.0
O253 O 0.84608 0.74203 0.17518 0.0
O254 O 0.82721 0.68528 0.13501 0.0
O255 O 0.75981 0.68985 0.27787 0.0
O256 O 0.77626 0.74908 0.28208 0.0
C257 C 0.83363 0.73151 0.49606 0.0
O258 O 0.83525 0.64188 0.34502 0.0
O259 O 0.88187 0.68207 0.33093 0.0
In260 In 0.50663 0.38839 0.94857 0.0
O261 O 0.56945 0.37607 0.90742 0.0
O262 O 0.52928 0.32943 0.92143 0.0
C263 C 0.48657 0.46123 0.98601 0.0
C264 C 0.47984 0.37769 0.75637 0.0
C265 C 0.49372 0.37226 0.1484 0.0
O266 O 0.52148 0.4515 0.97463 0.0
O267 O 0.46226 0.43505 0.97043 0.0
O268 O 0.46934 0.36518 0.07727 0.0
O269 O 0.52606 0.38407 0.11743 0.0
C270 C 0.56272 0.34039 0.89698 0.0
O271 O 0.46153 0.36503 0.83505 0.0
O272 O 0.50927 0.3976 0.77603 0.0
In273 In 0.82291 0.25663 0.19855 0.0
O274 O 0.83525 0.31946 0.15741 0.0
O275 O 0.88187 0.27927 0.17148 0.0
C276 C 0.75008 0.23656 0.23592 0.0
C277 C 0.83363 0.22983 0.00637 0.0
C278 C 0.83898 0.24369 0.39835 0.0
O279 O 0.75981 0.27149 0.22456 0.0
O280 O 0.77626 0.21225 0.22035 0.0
O281 O 0.84608 0.21931 0.32723 0.0
O282 O 0.82721 0.27606 0.36742 0.0
C283 C 0.87091 0.31273 0.14701 0.0
O284 O 0.84629 0.21153 0.08506 0.0
O285 O 0.81372 0.25927 0.026 0.0
In286 In 0.9547 0.57294 0.44859 0.0
O287 O 0.89188 0.58526 0.40747 0.0
O288 O 0.93205 0.63191 0.42147 0.0
C289 C 0.97478 0.5001 0.48602 0.0
C290 C -0.01851 0.58365 0.25639 0.0
C291 C 0.96762 0.58907 0.64842 0.0
O292 O 0.93985 0.50983 0.47465 0.0
O293 O -0.00092 0.52629 0.47044 0.0
O294 O -0.008 0.59616 0.57729 0.0
O295 O 0.93528 0.57726 0.61747 0.0
C296 C 0.8986 0.62093 0.39702 0.0
O297 O -0.0002 0.59631 0.33507 0.0
O298 O 0.95206 0.56374 0.27606 0.0
In299 In 0.63841 0.7047 0.69863 0.0
O300 O 0.62608 0.64188 0.65747 0.0
O301 O 0.57946 0.68206 0.67156 0.0
C302 C 0.71124 0.72478 0.73602 0.0
C303 C 0.62769 0.73151 0.50646 0.0
C304 C 0.62233 0.71763 0.89845 0.0
O305 O 0.70151 0.68985 0.72465 0.0
O306 O 0.68506 0.74909 0.72045 0.0
O307 O 0.61523 0.74202 0.82734 0.0
O308 O 0.63411 0.68527 0.8675 0.0
C309 C 0.59041 0.64861 0.64707 0.0
O310 O 0.61503 0.74981 0.58515 0.0
O311 O 0.64761 0.70208 0.52609 0.0
In312 In 0.4547 0.38841 0.44856 0.0
O313 O 0.49979 0.365 0.33509 0.0
O314 O 0.45208 0.3976 0.27602 0.0
C315 C 0.46763 0.37231 0.64837 0.0
C316 C 0.3986 0.34042 0.39701 0.0
C317 C 0.47478 0.46124 0.48596 0.0
O318 O 0.492 0.36521 0.57725 0.0
O319 O 0.43527 0.38409 0.61744 0.0
O320 O 0.43985 0.45152 0.4746 0.0
O321 O 0.49907 0.43506 0.47038 0.0
C322 C 0.4815 0.37767 0.25639 0.0
O323 O 0.39188 0.37609 0.40741 0.0
O324 O 0.43204 0.32944 0.42149 0.0
In325 In 0.32292 0.7047 0.19863 0.0
O326 O 0.33526 0.64187 0.15748 0.0
O327 O 0.38188 0.68206 0.17155 0.0
C328 C 0.2501 0.72477 0.23602 0.0
C329 C 0.33365 0.7315 0.00646 0.0
C330 C 0.339 0.71763 0.39844 0.0
O331 O 0.25983 0.68984 0.22465 0.0
O332 O 0.27627 0.74908 0.22045 0.0
O333 O 0.3461 0.74201 0.32733 0.0
O334 O 0.32723 0.68526 0.3675 0.0
C335 C 0.37092 0.6486 0.14708 0.0
O336 O 0.34631 0.74981 0.08515 0.0
O337 O 0.31373 0.70207 0.02609 0.0
In338 In 0.00664 0.57293 0.94858 0.0
O339 O 0.06946 0.58524 0.90744 0.0
O340 O 0.0293 0.63189 0.92152 0.0
C341 C -0.01343 0.50009 0.98597 0.0
C342 C 0.97984 0.58367 0.75641 0.0
C343 C -0.0063 0.58902 0.14839 0.0
O344 O 0.02148 0.50982 0.9746 0.0
O345 O 0.96226 0.52628 0.97039 0.0
O346 O 0.96933 0.59612 0.07727 0.0
O347 O 0.02606 0.57724 0.11746 0.0
C348 C 0.06274 0.62092 0.89705 0.0
O349 O 0.96154 0.59634 0.83511 0.0
O350 O 0.00926 0.56374 0.77603 0.0
In351 In 0.13843 0.25664 0.69854 0.0
O352 O 0.11505 0.21153 0.58506 0.0
O353 O 0.14762 0.25927 0.526 0.0
C354 C 0.12235 0.2437 0.89835 0.0
C355 C 0.09042 0.31273 0.64702 0.0
C356 C 0.21126 0.23657 0.73592 0.0
O357 O 0.11526 0.21932 0.82724 0.0
O358 O 0.13412 0.27607 0.86742 0.0
O359 O 0.20153 0.2715 0.72456 0.0
O360 O 0.18508 0.21226 0.72035 0.0
C361 C 0.12771 0.22984 0.50637 0.0
O362 O 0.12609 0.31947 0.65741 0.0
O363 O 0.07947 0.27928 0.67149 0.0
In364 In 0.45471 0.57293 0.05387 0.0
O365 O 0.39189 0.58525 0.09503 0.0
O366 O 0.43205 0.6319 0.08096 0.0
C367 C 0.47477 0.50009 0.01646 0.0
C368 C 0.48151 0.58366 0.24604 0.0
C369 C 0.46764 0.58902 0.85405 0.0
O370 O 0.43986 0.50982 0.02783 0.0
O371 O 0.49908 0.52627 0.03204 0.0
O372 O 0.49202 0.59612 0.92517 0.0
O373 O 0.43528 0.57725 0.88499 0.0
C374 C 0.39861 0.62093 0.10544 0.0
O375 O 0.4998 0.59633 0.16734 0.0
O376 O 0.45209 0.56373 0.22642 0.0
In377 In 0.13843 0.70469 0.80388 0.0
O378 O 0.11505 0.7498 0.91737 0.0
O379 O 0.14762 0.70206 0.97643 0.0
C380 C 0.12235 0.71763 0.60408 0.0
C381 C 0.09043 0.6486 0.85543 0.0
C382 C 0.21126 0.72476 0.7665 0.0
O383 O 0.11525 0.74201 0.67519 0.0
O384 O 0.13413 0.68526 0.63501 0.0
O385 O 0.20153 0.68983 0.77786 0.0
O386 O 0.18508 0.74907 0.78207 0.0
C387 C 0.12771 0.73149 0.99606 0.0
O388 O 0.12609 0.64186 0.84501 0.0
O389 O 0.07947 0.68205 0.83095 0.0
In390 In 0.00663 0.3884 0.55384 0.0
O391 O 0.96154 0.365 0.66732 0.0
O392 O 0.00925 0.3976 0.72639 0.0
C393 C -0.00631 0.37231 0.35403 0.0
C394 C 0.06274 0.34041 0.6054 0.0
C395 C -0.01344 0.46124 0.51646 0.0
O396 O 0.96932 0.36521 0.42516 0.0
O397 O 0.02605 0.38408 0.38496 0.0
O398 O 0.02149 0.45151 0.52781 0.0
O399 O 0.96226 0.43506 0.53204 0.0
C400 C 0.97983 0.37767 0.74602 0.0
O401 O 0.06945 0.37609 0.59498 0.0
O402 O 0.0293 0.32944 0.58092 0.0
In403 In 0.32292 0.25664 0.30379 0.0
O404 O 0.34631 0.21153 0.41727 0.0
O405 O 0.31372 0.25927 0.47634 0.0
C406 C 0.33901 0.24371 0.10398 0.0
C407 C 0.37092 0.31273 0.35536 0.0
C408 C 0.2501 0.23657 0.26641 0.0
O409 O 0.34611 0.21933 0.17509 0.0
O410 O 0.32723 0.27608 0.13492 0.0
O411 O 0.25982 0.2715 0.27777 0.0
O412 O 0.27628 0.21226 0.28198 0.0
C413 C 0.33364 0.22984 0.49596 0.0
O414 O 0.33525 0.31947 0.34495 0.0
O415 O 0.38188 0.27929 0.33088 0.0
loop_
_geom_bond_atom_site_label_1
_geom_bond_atom_site_label_2
_geom_bond_distance
_geom_bond_site_symmetry_2
_ccdc_geom_bond_type
In0 O1 2.294 . S
In0 O2 2.326 . S
In0 O6 2.266 . S
In0 O7 2.326 1_455 S
In0 O8 2.266 1_454 S
In0 O9 2.326 1_554 S
In0 O11 2.294 1_455 S
In0 O12 2.326 . S
O1 In0 2.294 . S
O1 C10 1.240 . S
O2 In0 2.326 . S
O2 C10 1.252 . S
C3 O6 1.252 . S
C3 O7 1.260 1_455 S
C4 O11 1.240 . S
C4 O12 1.252 1_655 S
C5 O8 1.252 . S
C5 O9 1.260 1_655 S
O6 In0 2.266 . S
O6 C3 1.252 . S
O7 In0 2.326 1_655 S
O7 C3 1.260 1_655 S
O8 In0 2.266 1_656 S
O8 C5 1.252 . S
O9 In0 2.326 1_556 S
O9 C5 1.260 1_455 S
C10 O1 1.240 . S
C10 O2 1.252 . S
O11 In0 2.294 1_655 S
O11 C4 1.240 . S
O12 In0 2.326 . S
O12 C4 1.252 1_455 S
In13 O14 2.294 . S
In13 O15 2.326 . S
In13 O19 2.266 . S
In13 O20 2.326 . S
In13 O21 2.266 . S
In13 O22 2.326 . S
In13 O24 2.294 . S
In13 O25 2.326 . S
O14 In13 2.294 . S
O14 C23 1.240 . S
O15 In13 2.326 . S
O15 C23 1.252 . S
C16 O19 1.252 . S
C16 O20 1.260 . S
C17 O24 1.240 . S
C17 O25 1.252 . S
C18 O21 1.252 . S
C18 O22 1.260 . S
O19 In13 2.266 . S
O19 C16 1.252 . S
O20 In13 2.326 . S
O20 C16 1.260 . S
O21 In13 2.266 . S
O21 C18 1.252 . S
O22 In13 2.326 . S
O22 C18 1.260 . S
C23 O14 1.240 . S
C23 O15 1.252 . S
O24 In13 2.294 . S
O24 C17 1.240 . S
O25 In13 2.326 . S
O25 C17 1.252 . S
In26 O27 2.294 . S
In26 O28 2.326 . S
In26 O32 2.266 . S
In26 O33 2.326 . S
In26 O34 2.266 . S
In26 O35 2.326 . S
In26 O37 2.294 . S
In26 O38 2.326 . S
O27 In26 2.294 . S
O27 C36 1.240 . S
O28 In26 2.326 . S
O28 C36 1.252 . S
C29 O32 1.252 . S
C29 O33 1.260 . S
C30 O37 1.240 . S
C30 O38 1.252 . S
C31 O34 1.252 . S
C31 O35 1.260 . S
O32 In26 2.266 . S
O32 C29 1.252 . S
O33 In26 2.326 . S
O33 C29 1.260 . S
O34 In26 2.266 . S
O34 C31 1.252 . S
O35 In26 2.326 . S
O35 C31 1.260 . S
C36 O27 1.240 . S
C36 O28 1.252 . S
O37 In26 2.294 . S
O37 C30 1.240 . S
O38 In26 2.326 . S
O38 C30 1.252 . S
In39 O40 2.294 . S
In39 O41 2.326 . S
In39 O45 2.266 . S
In39 O46 2.326 . S
In39 O47 2.266 . S
In39 O48 2.326 . S
In39 O50 2.294 . S
In39 O51 2.326 . S
O40 In39 2.294 . S
O40 C49 1.240 1_556 S
O41 In39 2.326 . S
O41 C49 1.252 1_556 S
C42 O45 1.252 . S
C42 O46 1.260 . S
C43 O50 1.240 . S
C43 O51 1.252 . S
C44 O47 1.252 . S
C44 O48 1.260 . S
O45 In39 2.266 . S
O45 C42 1.252 . S
O46 In39 2.326 . S
O46 C42 1.260 . S
O47 In39 2.266 . S
O47 C44 1.252 . S
O48 In39 2.326 . S
O48 C44 1.260 . S
C49 O40 1.240 1_554 S
C49 O41 1.252 1_554 S
O50 In39 2.294 . S
O50 C43 1.240 . S
O51 In39 2.326 . S
O51 C43 1.252 . S
In52 O53 2.294 . S
In52 O54 2.326 . S
In52 O58 2.266 . S
In52 O59 2.326 1_455 S
In52 O60 2.266 1_455 S
In52 O61 2.326 . S
In52 O63 2.294 1_455 S
In52 O64 2.326 . S
O53 In52 2.294 . S
O53 C62 1.240 . S
O54 In52 2.326 . S
O54 C62 1.252 . S
C55 O58 1.252 . S
C55 O59 1.260 1_455 S
C56 O63 1.240 . S
C56 O64 1.252 1_655 S
C57 O60 1.252 . S
C57 O61 1.260 1_655 S
O58 In52 2.266 . S
O58 C55 1.252 . S
O59 In52 2.326 1_655 S
O59 C55 1.260 1_655 S
O60 In52 2.266 1_655 S
O60 C57 1.252 . S
O61 In52 2.326 . S
O61 C57 1.260 1_455 S
C62 O53 1.240 . S
C62 O54 1.252 . S
O63 In52 2.294 1_655 S
O63 C56 1.240 . S
O64 In52 2.326 . S
O64 C56 1.252 1_455 S
In65 O66 2.294 . S
In65 O67 2.326 . S
In65 O71 2.266 . S
In65 O72 2.326 . S
In65 O73 2.266 . S
In65 O74 2.326 . S
In65 O76 2.294 . S
In65 O77 2.326 . S
O66 In65 2.294 . S
O66 C75 1.240 . S
O67 In65 2.326 . S
O67 C75 1.252 . S
C68 O71 1.252 . S
C68 O72 1.260 . S
C69 O76 1.240 . S
C69 O77 1.252 . S
C70 O73 1.252 . S
C70 O74 1.260 . S
O71 In65 2.266 . S
O71 C68 1.252 . S
O72 In65 2.326 . S
O72 C68 1.260 . S
O73 In65 2.266 . S
O73 C70 1.252 . S
O74 In65 2.326 . S
O74 C70 1.260 . S
C75 O66 1.240 . S
C75 O67 1.252 . S
O76 In65 2.294 . S
O76 C69 1.240 . S
O77 In65 2.326 . S
O77 C69 1.252 . S
In78 O79 2.294 . S
In78 O80 2.326 . S
In78 O84 2.266 1_556 S
In78 O85 2.326 1_556 S
In78 O86 2.266 . S
In78 O87 2.326 . S
In78 O89 2.294 . S
In78 O90 2.326 . S
O79 In78 2.294 . S
O79 C88 1.240 . S
O80 In78 2.326 . S
O80 C88 1.252 . S
C81 O84 1.252 . S
C81 O85 1.260 . S
C82 O89 1.240 . S
C82 O90 1.252 . S
C83 O86 1.252 . S
C83 O87 1.260 . S
O84 In78 2.266 1_554 S
O84 C81 1.252 . S
O85 In78 2.326 1_554 S
O85 C81 1.260 . S
O86 In78 2.266 . S
O86 C83 1.252 . S
O87 In78 2.326 . S
O87 C83 1.260 . S
C88 O79 1.240 . S
C88 O80 1.252 . S
O89 In78 2.294 . S
O89 C82 1.240 . S
O90 In78 2.326 . S
O90 C82 1.252 . S
In91 O92 2.294 . S
In91 O93 2.326 . S
In91 O97 2.266 . S
In91 O98 2.326 . S
In91 O99 2.266 . S
In91 O100 2.326 . S
In91 O102 2.294 . S
In91 O103 2.326 . S
O92 In91 2.294 . S
O92 C101 1.240 . S
O93 In91 2.326 . S
O93 C101 1.252 . S
C94 O97 1.252 . S
C94 O98 1.260 . S
C95 O102 1.240 1_556 S
C95 O103 1.252 1_556 S
C96 O99 1.252 . S
C96 O100 1.260 . S
O97 In91 2.266 . S
O97 C94 1.252 . S
O98 In91 2.326 . S
O98 C94 1.260 . S
O99 In91 2.266 . S
O99 C96 1.252 . S
O100 In91 2.326 . S
O100 C96 1.260 . S
C101 O92 1.240 . S
C101 O93 1.252 . S
O102 In91 2.294 . S
O102 C95 1.240 1_554 S
O103 In91 2.326 . S
O103 C95 1.252 1_554 S
In104 O105 2.294 1_655 S
In104 O106 2.326 . S
In104 O110 2.266 1_656 S
In104 O111 2.326 1_556 S
In104 O112 2.266 . S
In104 O113 2.326 1_655 S
In104 O115 2.294 . S
In104 O116 2.326 . S
O105 In104 2.294 1_455 S
O105 C114 1.240 . S
O106 In104 2.326 . S
O106 C114 1.252 1_655 S
C107 O110 1.252 . S
C107 O111 1.260 1_455 S
C108 O115 1.240 . S
C108 O116 1.252 . S
C109 O112 1.252 . S
C109 O113 1.260 1_655 S
O110 In104 2.266 1_454 S
O110 C107 1.252 . S
O111 In104 2.326 1_554 S
O111 C107 1.260 1_655 S
O112 In104 2.266 . S
O112 C109 1.252 . S
O113 In104 2.326 1_455 S
O113 C109 1.260 1_455 S
C114 O105 1.240 . S
C114 O106 1.252 1_455 S
O115 In104 2.294 . S
O115 C108 1.240 . S
O116 In104 2.326 . S
O116 C108 1.252 . S
In117 O118 2.294 . S
In117 O119 2.326 . S
In117 O123 2.266 . S
In117 O124 2.326 . S
In117 O125 2.266 . S
In117 O126 2.326 . S
In117 O128 2.294 . S
In117 O129 2.326 . S
O118 In117 2.294 . S
O118 C127 1.240 . S
O119 In117 2.326 . S
O119 C127 1.252 . S
C120 O123 1.252 . S
C120 O124 1.260 . S
C121 O128 1.240 . S
C121 O129 1.252 . S
C122 O125 1.252 . S
C122 O126 1.260 . S
O123 In117 2.266 . S
O123 C120 1.252 . S
O124 In117 2.326 . S
O124 C120 1.260 . S
O125 In117 2.266 . S
O125 C122 1.252 . S
O126 In117 2.326 . S
O126 C122 1.260 . S
C127 O118 1.240 . S
C127 O119 1.252 . S
O128 In117 2.294 . S
O128 C121 1.240 . S
O129 In117 2.326 . S
O129 C121 1.252 . S
In130 O131 2.294 . S
In130 O132 2.326 . S
In130 O136 2.266 . S
In130 O137 2.326 . S
In130 O138 2.266 . S
In130 O139 2.326 . S
In130 O141 2.294 . S
In130 O142 2.326 . S
O131 In130 2.294 . S
O131 C140 1.240 . S
O132 In130 2.326 . S
O132 C140 1.252 . S
C133 O136 1.252 . S
C133 O137 1.260 . S
C134 O141 1.240 . S
C134 O142 1.252 . S
C135 O138 1.252 . S
C135 O139 1.260 . S
O136 In130 2.266 . S
O136 C133 1.252 . S
O137 In130 2.326 . S
O137 C133 1.260 . S
O138 In130 2.266 . S
O138 C135 1.252 . S
O139 In130 2.326 . S
O139 C135 1.260 . S
C140 O131 1.240 . S
C140 O132 1.252 . S
O141 In130 2.294 . S
O141 C134 1.240 . S
O142 In130 2.326 . S
O142 C134 1.252 . S
In143 O144 2.294 . S
In143 O145 2.326 . S
In143 O149 2.266 . S
In143 O150 2.326 . S
In143 O151 2.266 . S
In143 O152 2.326 . S
In143 O154 2.294 . S
In143 O155 2.326 . S
O144 In143 2.294 . S
O144 C153 1.240 1_554 S
O145 In143 2.326 . S
O145 C153 1.252 1_554 S
C146 O149 1.252 . S
C146 O150 1.260 . S
C147 O154 1.240 . S
C147 O155 1.252 . S
C148 O151 1.252 . S
C148 O152 1.260 . S
O149 In143 2.266 . S
O149 C146 1.252 . S
O150 In143 2.326 . S
O150 C146 1.260 . S
O151 In143 2.266 . S
O151 C148 1.252 . S
O152 In143 2.326 . S
O152 C148 1.260 . S
C153 O144 1.240 1_556 S
C153 O145 1.252 1_556 S
O154 In143 2.294 . S
O154 C147 1.240 . S
O155 In143 2.326 . S
O155 C147 1.252 . S
In156 O157 2.294 . S
In156 O158 2.326 . S
In156 O162 2.266 . S
In156 O163 2.326 1_655 S
In156 O164 2.266 1_655 S
In156 O165 2.326 . S
In156 O167 2.294 1_655 S
In156 O168 2.326 . S
O157 In156 2.294 . S
O157 C166 1.240 . S
O158 In156 2.326 . S
O158 C166 1.252 . S
C159 O162 1.252 . S
C159 O163 1.260 1_655 S
C160 O167 1.240 . S
C160 O168 1.252 1_455 S
C161 O164 1.252 . S
C161 O165 1.260 1_455 S
O162 In156 2.266 . S
O162 C159 1.252 . S
O163 In156 2.326 1_455 S
O163 C159 1.260 1_455 S
O164 In156 2.266 1_455 S
O164 C161 1.252 . S
O165 In156 2.326 . S
O165 C161 1.260 1_655 S
C166 O157 1.240 . S
C166 O158 1.252 . S
O167 In156 2.294 1_455 S
O167 C160 1.240 . S
O168 In156 2.326 . S
O168 C160 1.252 1_655 S
In169 O170 2.294 . S
In169 O171 2.326 . S
In169 O175 2.266 . S
In169 O176 2.326 . S
In169 O177 2.266 . S
In169 O178 2.326 . S
In169 O180 2.294 . S
In169 O181 2.326 . S
O170 In169 2.294 . S
O170 C179 1.240 . S
O171 In169 2.326 . S
O171 C179 1.252 . S
C172 O175 1.252 . S
C172 O176 1.260 . S
C173 O180 1.240 . S
C173 O181 1.252 . S
C174 O177 1.252 . S
C174 O178 1.260 . S
O175 In169 2.266 . S
O175 C172 1.252 . S
O176 In169 2.326 . S
O176 C172 1.260 . S
O177 In169 2.266 . S
O177 C174 1.252 . S
O178 In169 2.326 . S
O178 C174 1.260 . S
C179 O170 1.240 . S
C179 O171 1.252 . S
O180 In169 2.294 . S
O180 C173 1.240 . S
O181 In169 2.326 . S
O181 C173 1.252 . S
In182 O183 2.294 . S
In182 O184 2.326 . S
In182 O188 2.266 1_554 S
In182 O189 2.326 1_554 S
In182 O190 2.266 . S
In182 O191 2.326 . S
In182 O193 2.294 . S
In182 O194 2.326 . S
O183 In182 2.294 . S
O183 C192 1.240 . S
O184 In182 2.326 . S
O184 C192 1.252 . S
C185 O188 1.252 . S
C185 O189 1.260 . S
C186 O193 1.240 . S
C186 O194 1.252 . S
C187 O190 1.252 . S
C187 O191 1.260 . S
O188 In182 2.266 1_556 S
O188 C185 1.252 . S
O189 In182 2.326 1_556 S
O189 C185 1.260 . S
O190 In182 2.266 . S
O190 C187 1.252 . S
O191 In182 2.326 . S
O191 C187 1.260 . S
C192 O183 1.240 . S
C192 O184 1.252 . S
O193 In182 2.294 . S
O193 C186 1.240 . S
O194 In182 2.326 . S
O194 C186 1.252 . S
In195 O196 2.294 . S
In195 O197 2.326 . S
In195 O201 2.266 . S
In195 O202 2.326 . S
In195 O203 2.266 . S
In195 O204 2.326 . S
In195 O206 2.294 . S
In195 O207 2.326 . S
O196 In195 2.294 . S
O196 C205 1.240 1_556 S
O197 In195 2.326 . S
O197 C205 1.252 1_556 S
C198 O201 1.252 . S
C198 O202 1.260 . S
C199 O206 1.240 . S
C199 O207 1.252 . S
C200 O203 1.252 . S
C200 O204 1.260 . S
O201 In195 2.266 . S
O201 C198 1.252 . S
O202 In195 2.326 . S
O202 C198 1.260 . S
O203 In195 2.266 . S
O203 C200 1.252 . S
O204 In195 2.326 . S
O204 C200 1.260 . S
C205 O196 1.240 1_554 S
C205 O197 1.252 1_554 S
O206 In195 2.294 . S
O206 C199 1.240 . S
O207 In195 2.326 . S
O207 C199 1.252 . S
In208 O209 2.294 . S
In208 O210 2.326 . S
In208 O214 2.266 . S
In208 O215 2.326 . S
In208 O216 2.266 . S
In208 O217 2.326 . S
In208 O219 2.294 . S
In208 O220 2.326 . S
O209 In208 2.294 . S
O209 C218 1.240 . S
O210 In208 2.326 . S
O210 C218 1.252 . S
C211 O214 1.252 . S
C211 O215 1.260 . S
C212 O219 1.240 . S
C212 O220 1.252 . S
C213 O216 1.252 . S
C213 O217 1.260 . S
O214 In208 2.266 . S
O214 C211 1.252 . S
O215 In208 2.326 . S
O215 C211 1.260 . S
O216 In208 2.266 . S
O216 C213 1.252 . S
O217 In208 2.326 . S
O217 C213 1.260 . S
C218 O209 1.240 . S
C218 O210 1.252 . S
O219 In208 2.294 . S
O219 C212 1.240 . S
O220 In208 2.326 . S
O220 C212 1.252 . S
In221 O222 2.294 . S
In221 O223 2.326 . S
In221 O227 2.266 . S
In221 O228 2.326 . S
In221 O229 2.266 . S
In221 O230 2.326 . S
In221 O232 2.294 . S
In221 O233 2.326 . S
O222 In221 2.294 . S
O222 C231 1.240 . S
O223 In221 2.326 . S
O223 C231 1.252 . S
C224 O227 1.252 . S
C224 O228 1.260 . S
C225 O232 1.240 1_554 S
C225 O233 1.252 1_554 S
C226 O229 1.252 . S
C226 O230 1.260 . S
O227 In221 2.266 . S
O227 C224 1.252 . S
O228 In221 2.326 . S
O228 C224 1.260 . S
O229 In221 2.266 . S
O229 C226 1.252 . S
O230 In221 2.326 . S
O230 C226 1.260 . S
C231 O222 1.240 . S
C231 O223 1.252 . S
O232 In221 2.294 . S
O232 C225 1.240 1_556 S
O233 In221 2.326 . S
O233 C225 1.252 1_556 S
In234 O235 2.294 1_655 S
In234 O236 2.326 . S
In234 O240 2.266 1_654 S
In234 O241 2.326 1_554 S
In234 O242 2.266 . S
In234 O243 2.326 1_655 S
In234 O245 2.294 . S
In234 O246 2.326 . S
O235 In234 2.294 1_455 S
O235 C244 1.240 . S
O236 In234 2.326 . S
O236 C244 1.252 1_655 S
C237 O240 1.252 . S
C237 O241 1.260 1_455 S
C238 O245 1.240 . S
C238 O246 1.252 . S
C239 O242 1.252 . S
C239 O243 1.260 1_655 S
O240 In234 2.266 1_456 S
O240 C237 1.252 . S
O241 In234 2.326 1_556 S
O241 C237 1.260 1_655 S
O242 In234 2.266 . S
O242 C239 1.252 . S
O243 In234 2.326 1_455 S
O243 C239 1.260 1_455 S
C244 O235 1.240 . S
C244 O236 1.252 1_455 S
O245 In234 2.294 . S
O245 C238 1.240 . S
O246 In234 2.326 . S
O246 C238 1.252 . S
In247 O248 2.294 . S
In247 O249 2.326 . S
In247 O253 2.266 . S
In247 O254 2.326 . S
In247 O255 2.266 . S
In247 O256 2.326 . S
In247 O258 2.294 . S
In247 O259 2.326 . S
O248 In247 2.294 . S
O248 C257 1.240 . S
O249 In247 2.326 . S
O249 C257 1.252 . S
C250 O253 1.252 . S
C250 O254 1.260 . S
C251 O258 1.240 . S
C251 O259 1.252 . S
C252 O255 1.252 . S
C252 O256 1.260 . S
O253 In247 2.266 . S
O253 C250 1.252 . S
O254 In247 2.326 . S
O254 C250 1.260 . S
O255 In247 2.266 . S
O255 C252 1.252 . S
O256 In247 2.326 . S
O256 C252 1.260 . S
C257 O248 1.240 . S
C257 O249 1.252 . S
O258 In247 2.294 . S
O258 C251 1.240 . S
O259 In247 2.326 . S
O259 C251 1.252 . S
In260 O261 2.294 . S
In260 O262 2.326 . S
In260 O266 2.266 . S
In260 O267 2.326 . S
In260 O268 2.266 1_556 S
In260 O269 2.326 1_556 S
In260 O271 2.294 . S
In260 O272 2.326 . S
O261 In260 2.294 . S
O261 C270 1.240 . S
O262 In260 2.326 . S
O262 C270 1.252 . S
C263 O266 1.252 . S
C263 O267 1.260 . S
C264 O271 1.240 . S
C264 O272 1.252 . S
C265 O268 1.252 . S
C265 O269 1.260 . S
O266 In260 2.266 . S
O266 C263 1.252 . S
O267 In260 2.326 . S
O267 C263 1.260 . S
O268 In260 2.266 1_554 S
O268 C265 1.252 . S
O269 In260 2.326 1_554 S
O269 C265 1.260 . S
C270 O261 1.240 . S
C270 O262 1.252 . S
O271 In260 2.294 . S
O271 C264 1.240 . S
O272 In260 2.326 . S
O272 C264 1.252 . S
In273 O274 2.294 . S
In273 O275 2.326 . S
In273 O279 2.266 . S
In273 O280 2.326 . S
In273 O281 2.266 . S
In273 O282 2.326 . S
In273 O284 2.294 . S
In273 O285 2.326 . S
O274 In273 2.294 . S
O274 C283 1.240 . S
O275 In273 2.326 . S
O275 C283 1.252 . S
C276 O279 1.252 . S
C276 O280 1.260 . S
C277 O284 1.240 1_556 S
C277 O285 1.252 1_556 S
C278 O281 1.252 . S
C278 O282 1.260 . S
O279 In273 2.266 . S
O279 C276 1.252 . S
O280 In273 2.326 . S
O280 C276 1.260 . S
O281 In273 2.266 . S
O281 C278 1.252 . S
O282 In273 2.326 . S
O282 C278 1.260 . S
C283 O274 1.240 . S
C283 O275 1.252 . S
O284 In273 2.294 . S
O284 C277 1.240 1_554 S
O285 In273 2.326 . S
O285 C277 1.252 1_554 S
In286 O287 2.294 . S
In286 O288 2.326 . S
In286 O292 2.266 . S
In286 O293 2.326 1_655 S
In286 O294 2.266 1_655 S
In286 O295 2.326 . S
In286 O297 2.294 1_655 S
In286 O298 2.326 . S
O287 In286 2.294 . S
O287 C296 1.240 . S
O288 In286 2.326 . S
O288 C296 1.252 . S
C289 O292 1.252 . S
C289 O293 1.260 1_655 S
C290 O297 1.240 . S
C290 O298 1.252 1_455 S
C291 O294 1.252 . S
C291 O295 1.260 1_455 S
O292 In286 2.266 . S
O292 C289 1.252 . S
O293 In286 2.326 1_455 S
O293 C289 1.260 1_455 S
O294 In286 2.266 1_455 S
O294 C291 1.252 . S
O295 In286 2.326 . S
O295 C291 1.260 1_655 S
C296 O287 1.240 . S
C296 O288 1.252 . S
O297 In286 2.294 1_455 S
O297 C290 1.240 . S
O298 In286 2.326 . S
O298 C290 1.252 1_655 S
In299 O300 2.294 . S
In299 O301 2.326 . S
In299 O305 2.266 . S
In299 O306 2.326 . S
In299 O307 2.266 . S
In299 O308 2.326 . S
In299 O310 2.294 . S
In299 O311 2.326 . S
O300 In299 2.294 . S
O300 C309 1.240 . S
O301 In299 2.326 . S
O301 C309 1.252 . S
C302 O305 1.252 . S
C302 O306 1.260 . S
C303 O310 1.240 . S
C303 O311 1.252 . S
C304 O307 1.252 . S
C304 O308 1.260 . S
O305 In299 2.266 . S
O305 C302 1.252 . S
O306 In299 2.326 . S
O306 C302 1.260 . S
O307 In299 2.266 . S
O307 C304 1.252 . S
O308 In299 2.326 . S
O308 C304 1.260 . S
C309 O300 1.240 . S
C309 O301 1.252 . S
O310 In299 2.294 . S
O310 C303 1.240 . S
O311 In299 2.326 . S
O311 C303 1.252 . S
In312 O313 2.294 . S
In312 O314 2.326 . S
In312 O318 2.266 . S
In312 O319 2.326 . S
In312 O320 2.266 . S
In312 O321 2.326 . S
In312 O323 2.294 . S
In312 O324 2.326 . S
O313 In312 2.294 . S
O313 C322 1.240 . S
O314 In312 2.326 . S
O314 C322 1.252 . S
C315 O318 1.252 . S
C315 O319 1.260 . S
C316 O323 1.240 . S
C316 O324 1.252 . S
C317 O320 1.252 . S
C317 O321 1.260 . S
O318 In312 2.266 . S
O318 C315 1.252 . S
O319 In312 2.326 . S
O319 C315 1.260 . S
O320 In312 2.266 . S
O320 C317 1.252 . S
O321 In312 2.326 . S
O321 C317 1.260 . S
C322 O313 1.240 . S
C322 O314 1.252 . S
O323 In312 2.294 . S
O323 C316 1.240 . S
O324 In312 2.326 . S
O324 C316 1.252 . S
In325 O326 2.294 . S
In325 O327 2.326 . S
In325 O331 2.266 . S
In325 O332 2.326 . S
In325 O333 2.266 . S
In325 O334 2.326 . S
In325 O336 2.294 . S
In325 O337 2.326 . S
O326 In325 2.294 . S
O326 C335 1.240 . S
O327 In325 2.326 . S
O327 C335 1.252 . S
C328 O331 1.252 . S
C328 O332 1.260 . S
C329 O336 1.240 1_556 S
C329 O337 1.252 1_556 S
C330 O333 1.252 . S
C330 O334 1.260 . S
O331 In325 2.266 . S
O331 C328 1.252 . S
O332 In325 2.326 . S
O332 C328 1.260 . S
O333 In325 2.266 . S
O333 C330 1.252 . S
O334 In325 2.326 . S
O334 C330 1.260 . S
C335 O326 1.240 . S
C335 O327 1.252 . S
O336 In325 2.294 . S
O336 C329 1.240 1_554 S
O337 In325 2.326 . S
O337 C329 1.252 1_554 S
In338 O339 2.294 . S
In338 O340 2.326 . S
In338 O344 2.266 . S
In338 O345 2.326 1_455 S
In338 O346 2.266 1_456 S
In338 O347 2.326 1_556 S
In338 O349 2.294 1_455 S
In338 O350 2.326 . S
O339 In338 2.294 . S
O339 C348 1.240 . S
O340 In338 2.326 . S
O340 C348 1.252 . S
C341 O344 1.252 . S
C341 O345 1.260 1_455 S
C342 O349 1.240 . S
C342 O350 1.252 1_655 S
C343 O346 1.252 . S
C343 O347 1.260 1_655 S
O344 In338 2.266 . S
O344 C341 1.252 . S
O345 In338 2.326 1_655 S
O345 C341 1.260 1_655 S
O346 In338 2.266 1_654 S
O346 C343 1.252 . S
O347 In338 2.326 1_554 S
O347 C343 1.260 1_455 S
C348 O339 1.240 . S
C348 O340 1.252 . S
O349 In338 2.294 1_655 S
O349 C342 1.240 . S
O350 In338 2.326 . S
O350 C342 1.252 1_455 S
In351 O352 2.294 . S
In351 O353 2.326 . S
In351 O357 2.266 . S
In351 O358 2.326 . S
In351 O359 2.266 . S
In351 O360 2.326 . S
In351 O362 2.294 . S
In351 O363 2.326 . S
O352 In351 2.294 . S
O352 C361 1.240 . S
O353 In351 2.326 . S
O353 C361 1.252 . S
C354 O357 1.252 . S
C354 O358 1.260 . S
C355 O362 1.240 . S
C355 O363 1.252 . S
C356 O359 1.252 . S
C356 O360 1.260 . S
O357 In351 2.266 . S
O357 C354 1.252 . S
O358 In351 2.326 . S
O358 C354 1.260 . S
O359 In351 2.266 . S
O359 C356 1.252 . S
O360 In351 2.326 . S
O360 C356 1.260 . S
C361 O352 1.240 . S
C361 O353 1.252 . S
O362 In351 2.294 . S
O362 C355 1.240 . S
O363 In351 2.326 . S
O363 C355 1.252 . S
In364 O365 2.294 . S
In364 O366 2.326 . S
In364 O370 2.266 . S
In364 O371 2.326 . S
In364 O372 2.266 1_554 S
In364 O373 2.326 1_554 S
In364 O375 2.294 . S
In364 O376 2.326 . S
O365 In364 2.294 . S
O365 C374 1.240 . S
O366 In364 2.326 . S
O366 C374 1.252 . S
C367 O370 1.252 . S
C367 O371 1.260 . S
C368 O375 1.240 . S
C368 O376 1.252 . S
C369 O372 1.252 . S
C369 O373 1.260 . S
O370 In364 2.266 . S
O370 C367 1.252 . S
O371 In364 2.326 . S
O371 C367 1.260 . S
O372 In364 2.266 1_556 S
O372 C369 1.252 . S
O373 In364 2.326 1_556 S
O373 C369 1.260 . S
C374 O365 1.240 . S
C374 O366 1.252 . S
O375 In364 2.294 . S
O375 C368 1.240 . S
O376 In364 2.326 . S
O376 C368 1.252 . S
In377 O378 2.294 . S
In377 O379 2.326 . S
In377 O383 2.266 . S
In377 O384 2.326 . S
In377 O385 2.266 . S
In377 O386 2.326 . S
In377 O388 2.294 . S
In377 O389 2.326 . S
O378 In377 2.294 . S
O378 C387 1.240 1_556 S
O379 In377 2.326 . S
O379 C387 1.252 1_556 S
C380 O383 1.252 . S
C380 O384 1.260 . S
C381 O388 1.240 . S
C381 O389 1.252 . S
C382 O385 1.252 . S
C382 O386 1.260 . S
O383 In377 2.266 . S
O383 C380 1.252 . S
O384 In377 2.326 . S
O384 C380 1.260 . S
O385 In377 2.266 . S
O385 C382 1.252 . S
O386 In377 2.326 . S
O386 C382 1.260 . S
C387 O378 1.240 1_554 S
C387 O379 1.252 1_554 S
O388 In377 2.294 . S
O388 C381 1.240 . S
O389 In377 2.326 . S
O389 C381 1.252 . S
In390 O391 2.294 1_455 S
In390 O392 2.326 . S
In390 O396 2.266 1_455 S
In390 O397 2.326 . S
In390 O398 2.266 . S
In390 O399 2.326 1_455 S
In390 O401 2.294 . S
In390 O402 2.326 . S
O391 In390 2.294 1_655 S
O391 C400 1.240 . S
O392 In390 2.326 . S
O392 C400 1.252 1_455 S
C393 O396 1.252 . S
C393 O397 1.260 1_655 S
C394 O401 1.240 . S
C394 O402 1.252 . S
C395 O398 1.252 . S
C395 O399 1.260 1_455 S
O396 In390 2.266 1_655 S
O396 C393 1.252 . S
O397 In390 2.326 . S
O397 C393 1.260 1_455 S
O398 In390 2.266 . S
O398 C395 1.252 . S
O399 In390 2.326 1_655 S
O399 C395 1.260 1_655 S
C400 O391 1.240 . S
C400 O392 1.252 1_655 S
O401 In390 2.294 . S
O401 C394 1.240 . S
O402 In390 2.326 . S
O402 C394 1.252 . S
In403 O404 2.294 . S
In403 O405 2.326 . S
In403 O409 2.266 . S
In403 O410 2.326 . S
In403 O411 2.266 . S
In403 O412 2.326 . S
In403 O414 2.294 . S
In403 O415 2.326 . S
O404 In403 2.294 . S
O404 C413 1.240 . S
O405 In403 2.326 . S
O405 C413 1.252 . S
C406 O409 1.252 . S
C406 O410 1.260 . S
C407 O414 1.240 . S
C407 O415 1.252 . S
C408 O411 1.252 . S
C408 O412 1.260 . S
O409 In403 2.266 . S
O409 C406 1.252 . S
O410 In403 2.326 . S
O410 C406 1.260 . S
O411 In403 2.266 . S
O411 C408 1.252 . S
O412 In403 2.326 . S
O412 C408 1.260 . S
C413 O404 1.240 . S
C413 O405 1.252 . S
O414 In403 2.294 . S
O414 C407 1.240 . S
O415 In403 2.326 . S
O415 C407 1.252 . S
C160 C5 1.596 1_455 S
C387 C16 1.597 . S
C192 C29 1.597 . S
C413 C42 1.597 . S
C114 C57 1.596 1_455 S
C68 C329 1.597 . S
C81 C140 1.597 . S
C361 C96 1.597 . S
C56 C107 1.596 1_655 S
C277 C122 1.597 . S
C88 C133 1.597 . S
C303 C146 1.597 . S
C161 C4 1.596 1_455 S
C172 C225 1.597 . S
C36 C185 1.597 . S
C198 C257 1.597 . S
C368 C213 1.597 . S
C179 C226 1.597 . S
C400 C237 1.596 1_655 S
C250 C205 1.597 . S
C265 C322 1.597 . S
C278 C121 1.597 . S
C342 C291 1.596 1_655 S
C153 C304 1.597 . S
C264 C315 1.597 . S
C330 C75 1.597 . S
C343 C290 1.596 1_655 S
C354 C95 1.597 . S
C212 C369 1.597 . S
C23 C380 1.597 . S
C244 C393 1.596 1_455 S
C406 C49 1.597 . S
C3 C109 1.505 1_444 S
C18 C328 1.505 . S
C135 C31 1.505 1_545 S
C44 C356 1.505 . S
C55 C159 1.505 1_465 S
C382 C70 1.505 . S
C187 C83 1.505 1_564 S
C94 C408 1.505 . S
C120 C224 1.505 . S
C148 C252 1.505 . S
C174 C276 1.505 . S
C302 C200 1.505 . S
C211 C317 1.505 . S
C239 C341 1.505 1_654 S
C263 C367 1.505 1_556 S
C395 C289 1.505 1_455 S
C10 C101 1.409 . S
C17 C62 1.409 . S
C69 C30 1.409 . S
C82 C43 1.409 . S
C199 C108 1.409 . S
C166 C127 1.409 . S
C173 C134 1.409 . S
C186 C147 1.409 . S
C218 C309 1.409 . S
C270 C231 1.409 . S
C283 C238 1.409 . S
C296 C251 1.409 . S
C407 C316 1.409 . S
C335 C374 1.409 . S
C348 C381 1.409 . S
C394 C355 1.409 . S
