# Generated by pormake.
# Topology sxb, (6)-cn, num edge types: 1
# Building blocks:
#     Node 0, Type 0, BuildingBlock: BETDEL_clean_sbu_0, # of connection points: 6
#     Node 1, Type 0, BuildingBlock: BETDEL_clean_sbu_0, # of connection points: 6
#     Node 2, Type 0, BuildingBlock: BETDEL_clean_sbu_0, # of connection points: 6
#     Node 3, Type 0, BuildingBlock: BETDEL_clean_sbu_0, # of connection points: 6
#     Edge 4, Type (0, 0), BuildingBlock: XUDNAN_clean_linker_2, # of connection points: 2
#     Edge 5, Type (0, 0), BuildingBlock: XUDNAN_clean_linker_2, # of connection points: 2
#     Edge 6, Type (0, 0), BuildingBlock: XUDNAN_clean_linker_2, # of connection points: 2
#     Edge 7, Type (0, 0), BuildingBlock: XUDNAN_clean_linker_2, # of connection points: 2
#     Edge 8, Type (0, 0), BuildingBlock: XUDNAN_clean_linker_2, # of connection points: 2
#     Edge 9, Type (0, 0), BuildingBlock: XUDNAN_clean_linker_2, # of connection points: 2
#     Edge 10, Type (0, 0), BuildingBlock: XUDNAN_clean_linker_2, # of connection points: 2
#     Edge 11, Type (0, 0), BuildingBlock: XUDNAN_clean_linker_2, # of connection points: 2
#     Edge 12, Type (0, 0), BuildingBlock: XUDNAN_clean_linker_2, # of connection points: 2
#     Edge 13, Type (0, 0), BuildingBlock: XUDNAN_clean_linker_2, # of connection points: 2
#     Edge 14, Type (0, 0), BuildingBlock: XUDNAN_clean_linker_2, # of connection points: 2
#     Edge 15, Type (0, 0), BuildingBlock: XUDNAN_clean_linker_2, # of connection points: 2
# Relax obj value: 0.060
# Max RMSD: 0.035
# Mean RMSD: 0.035
data_MOF--net-sxb--node1-BETDEL_clean_sbu_0--edge1-XUDNAN_clean_linker_2
_symmetry_space_group_name_H-M    P1
_symmetry_Int_Tables_number       1
_symmetry_cell_setting            triclinic
loop_
_symmetry_equiv_pos_as_xyz
'x, y, z'
_cell_length_a     15.739379
_cell_length_b     28.432481
_cell_length_c     28.907668
_cell_angle_alpha  93.333407
_cell_angle_beta   94.930238
_cell_angle_gamma 84.609249
loop_
_atom_site_label
_atom_site_type_symbol
_atom_site_fract_x
_atom_site_fract_y
_atom_site_fract_z
_atom_type_partial_charge
Dy0 Dy 0.95702 0.99395 1.01131 0.0
C1 C 0.24957 0.0862 0.99279 0.0
C2 C 0.81498 0.96101 0.03974 0.0
Dy3 Dy 0.10451 0.04807 1.01001 0.0
O4 O 0.84133 0.95337 0.99832 0.0
O5 O 0.86711 0.98638 0.06494 0.0
O6 O 0.97965 0.95991 0.9416 0.0
O7 O 1.00463 0.03144 0.95585 0.0
C8 C 1.00916 0.99675 0.92639 0.0
C9 C 0.05698 0.03866 0.09619 0.0
O10 O 1.0057 0.10788 0.99337 0.0
O11 O 0.894 0.06886 0.01399 0.0
O12 O 0.20379 0.09858 0.02735 0.0
O13 O 0.2139 0.05345 0.96692 0.0
O14 O 0.08776 0.0764 0.08414 0.0
O15 O 0.0594 1.00803 0.06321 0.0
O16 O 0.05532 0.93516 0.02792 0.0
O17 O 0.16964 0.97203 1.00668 0.0
C18 C 0.92501 0.1081 1.0027 0.0
C19 C 0.13628 0.93347 0.01864 0.0
Dy20 Dy 0.04735 0.9706 0.51463 0.0
C21 C 0.08623 0.1634 0.49234 0.0
C22 C 1.02133 0.88445 0.54469 0.0
Dy23 Dy 0.04007 0.07565 0.50811 0.0
O24 O 0.05326 0.89114 0.50563 0.0
O25 O 1.01427 0.92436 0.56887 0.0
O26 O 0.97189 0.96325 0.4464 0.0
O27 O 0.05489 1.01657 0.45633 0.0
C28 C 0.99889 0.99901 0.42821 0.0
C29 C 1.03201 0.04631 0.59421 0.0
O30 O 0.90012 0.06695 0.49028 0.0
O31 O 0.90807 0.99613 0.52598 0.0
O32 O 0.08498 0.14605 0.53269 0.0
O33 O 0.0556 0.13393 0.46052 0.0
O34 O 0.9888 0.08431 0.57904 0.0
O35 O 0.07871 0.0277 0.56367 0.0
O36 O 0.19233 0.9733 0.51223 0.0
O37 O 0.18065 0.05448 0.50386 0.0
C38 C 0.86166 0.03245 0.50667 0.0
C39 C 0.22782 1.01332 0.50632 0.0
Dy40 Dy 0.44966 0.49779 0.01649 0.0
C41 C 0.74578 0.57513 0.97431 0.0
C42 C 0.31126 0.47345 0.05643 0.0
Dy43 Dy 0.60212 0.5426 1.00162 0.0
O44 O 0.33611 0.45609 0.01674 0.0
O45 O 0.36264 0.50405 0.0737 0.0
O46 O 0.43972 0.46588 0.94417 0.0
O47 O 0.48667 0.53292 0.95597 0.0
C48 C 0.47458 0.49931 0.92612 0.0
C49 C 0.57951 0.53343 0.09246 0.0
O50 O 0.508 0.60644 0.9911 0.0
O51 O 0.40411 0.57483 0.02743 0.0
O52 O 0.70038 0.59437 1.00678 0.0
O53 O 0.71019 0.53839 0.9557 0.0
O54 O 0.61211 0.56933 0.07776 0.0
O55 O 0.56742 0.50405 0.0591 0.0
O56 O 0.54188 0.43471 0.02576 0.0
O57 O 0.64898 0.46407 0.98943 0.0
C58 C 0.4353 0.6117 1.01128 0.0
C59 C 0.61406 0.42776 1.00518 0.0
Dy60 Dy 0.54786 0.47138 0.50688 0.0
C61 C 0.56941 0.67119 0.49486 0.0
C62 C 0.53765 0.37684 0.51427 0.0
Dy63 Dy 0.53948 0.58044 0.51082 0.0
O64 O 0.57036 0.39571 0.48072 0.0
O65 O 0.51884 0.40964 0.54592 0.0
O66 O 0.469 0.47316 0.43982 0.0
O67 O 0.55446 0.52482 0.45435 0.0
C68 C 0.49734 0.51016 0.42474 0.0
C69 C 0.55281 0.54957 0.59868 0.0
O70 O 0.4 0.56942 0.49494 0.0
O71 O 0.40895 0.49337 0.52119 0.0
O72 O 0.51592 0.65935 0.52308 0.0
O73 O 0.6001 0.63337 0.47254 0.0
O74 O 0.54728 0.59382 0.58946 0.0
O75 O 0.55151 0.526 0.56057 0.0
O76 O 0.69273 0.47953 0.51111 0.0
O77 O 0.68018 0.56167 0.51147 0.0
C78 C 0.36261 0.53258 0.50765 0.0
C79 C 0.72764 0.52067 0.51071 0.0
H80 H 0.44375 0.69508 0.96512 0.0
H81 H 0.32242 0.63684 0.07579 0.0
H82 H 0.24649 0.71441 0.09258 0.0
H83 H 0.46476 0.81369 0.0216 0.0
H84 H 0.43794 0.84441 0.96878 0.0
H85 H 0.48925 0.78499 0.96646 0.0
H86 H 0.36591 0.75845 0.90862 0.0
H87 H 0.31476 0.81785 0.91073 0.0
H88 H 0.257 0.7692 0.92416 0.0
H89 H 0.1823 0.79566 0.09824 0.0
H90 H 0.11814 0.87644 0.08705 0.0
H91 H 0.27111 0.88682 0.97055 0.0
C92 C 0.40156 0.69889 0.99303 0.0
C93 C 0.38951 0.65953 0.01922 0.0
C94 C 0.33283 0.66599 0.05504 0.0
C95 C 0.28968 0.71017 0.06516 0.0
C96 C 0.30279 0.74804 0.03901 0.0
C97 C 0.35629 0.74313 1.00328 0.0
C98 C 0.35341 0.78972 0.97905 0.0
C99 C 0.44162 0.80935 0.98429 0.0
C100 C 0.32081 0.78341 0.92758 0.0
C101 C 0.28904 0.82101 1.00646 0.0
C102 C 0.26242 0.79593 0.04133 0.0
C103 C 0.20245 0.81568 0.07106 0.0
C104 C 0.16627 0.86176 0.06431 0.0
C105 C 0.18904 0.88814 0.02783 0.0
C106 C 0.25306 0.86784 0.99906 0.0
H107 H 0.7851 0.38983 0.9977 0.0
H108 H 0.52454 0.35136 0.9989 0.0
H109 H 0.5762 0.26753 0.99548 0.0
H110 H 0.85793 0.28856 0.91855 0.0
H111 H 0.96268 0.28026 0.94897 0.0
H112 H 0.90564 0.33826 0.94829 0.0
H113 H 0.92127 0.34406 0.03837 0.0
H114 H 0.97741 0.28587 0.03903 0.0
H115 H 0.88274 0.29871 0.07009 0.0
H116 H 0.65209 0.18844 0.99722 0.0
H117 H 0.75094 0.11632 1.00093 0.0
H118 H 0.96631 0.20082 0.99745 0.0
C119 C 0.73915 0.36366 0.99654 0.0
C120 C 0.65051 0.37759 0.99896 0.0
C121 C 0.59269 0.34204 0.99773 0.0
C122 C 0.6213 0.29403 0.99558 0.0
C123 C 0.70844 0.28134 0.99444 0.0
C124 C 0.76695 0.31475 0.99452 0.0
C125 C 0.85749 0.29028 0.99444 0.0
C126 C 0.89835 0.29992 0.94991 0.0
C127 C 0.91299 0.30565 0.03809 0.0
C128 C 0.83999 0.23839 0.99517 0.0
C129 C 0.75326 0.23446 0.99497 0.0
C130 C 0.72025 0.1909 0.99698 0.0
C131 C 0.77717 0.15001 0.99924 0.0
C132 C 0.86664 0.15251 0.99934 0.0
C133 C 0.89827 0.19752 0.99702 0.0
H134 H 0.15203 0.22812 0.55533 0.0
H135 H 0.15938 0.17493 0.41191 0.0
H136 H 0.28615 0.21832 0.40439 0.0
H137 H 0.2188 0.34608 0.53708 0.0
H138 H 0.27904 0.34863 0.59287 0.0
H139 H 0.18618 0.31567 0.58466 0.0
H140 H 0.28029 0.24165 0.61395 0.0
H141 H 0.37397 0.27403 0.62023 0.0
H142 H 0.3736 0.21999 0.58439 0.0
H143 H 0.41916 0.26235 0.41479 0.0
H144 H 0.53018 0.31725 0.43679 0.0
H145 H 0.43434 0.34244 0.57316 0.0
C146 C 0.17887 0.22676 0.52195 0.0
C147 C 0.14567 0.19854 0.48407 0.0
C148 C 0.18306 0.19698 0.44112 0.0
C149 C 0.25579 0.22096 0.43676 0.0
C150 C 0.28953 0.24661 0.47552 0.0
C151 C 0.25088 0.25075 0.5169 0.0
C152 C 0.29914 0.28097 0.55317 0.0
C153 C 0.24242 0.32548 0.56781 0.0
C154 C 0.33378 0.25243 0.59542 0.0
C155 C 0.3712 0.29313 0.52578 0.0
C156 C 0.36527 0.27239 0.48131 0.0
C157 C 0.42414 0.27898 0.44943 0.0
C158 C 0.48766 0.30979 0.46244 0.0
C159 C 0.49109 0.33396 0.50673 0.0
C160 C 0.43406 0.324 0.53929 0.0
H161 H 0.98032 0.8115 0.48228 0.0
H162 H 0.92245 0.87828 0.61616 0.0
H163 H 0.79182 0.83647 0.61354 0.0
H164 H 0.77059 0.81576 0.43073 0.0
H165 H 0.78052 0.75833 0.40082 0.0
H166 H 0.87347 0.79067 0.41374 0.0
H167 H 0.95271 0.72055 0.45804 0.0
H168 H 0.86112 0.68744 0.44371 0.0
H169 H 0.90169 0.69615 0.50356 0.0
H170 H 0.65939 0.79497 0.59247 0.0
H171 H 0.5524 0.73954 0.56441 0.0
H172 H 0.69877 0.69605 0.44625 0.0
C173 C 0.94185 0.81596 0.5118 0.0
C174 C 0.96165 0.84818 0.54943 0.0
C175 C 0.90888 0.85359 0.58708 0.0
C176 C 0.83385 0.83048 0.58565 0.0
C177 C 0.81323 0.80135 0.54673 0.0
C178 C 0.86706 0.79261 0.51126 0.0
C179 C 0.83038 0.75881 0.47389 0.0
C180 C 0.81272 0.78232 0.42703 0.0
C181 C 0.89002 0.71301 0.46956 0.0
C182 C 0.74756 0.75013 0.49388 0.0
C183 C 0.73813 0.77587 0.53543 0.0
C184 C 0.66651 0.77416 0.56026 0.0
C185 C 0.60548 0.74301 0.54373 0.0
C186 C 0.61726 0.71355 0.50318 0.0
C187 C 0.68768 0.71848 0.47713 0.0
H188 H 0.36341 0.04165 0.93635 0.0
H189 H 0.3429 0.13218 0.06174 0.0
H190 H 0.48346 0.09721 0.09328 0.0
H191 H 0.44119 0.94194 0.98825 0.0
H192 H 0.51622 0.91986 0.94669 0.0
H193 H 0.42265 0.95772 0.92849 0.0
H194 H 0.51474 1.01856 0.89762 0.0
H195 H 0.60776 0.97874 0.91199 0.0
H196 H 0.60317 0.03931 0.93456 0.0
H197 H 0.60743 0.04124 0.11756 0.0
H198 H 0.74548 0.99274 0.11965 0.0
H199 H 0.68291 0.93796 0.97887 0.0
C200 C 0.39065 0.05598 0.9693 0.0
C201 C 0.34196 0.08823 0.99743 0.0
C202 C 0.37934 0.10677 0.04008 0.0
C203 C 0.45809 0.08642 0.05871 0.0
C204 C 0.49833 0.04913 0.0332 0.0
C205 C 0.46863 0.03586 0.98842 0.0
C206 C 0.52362 0.99448 0.96864 0.0
C207 C 0.47282 0.95097 0.95737 0.0
C208 C 0.56484 1.00862 0.9257 0.0
C209 C 0.58862 0.98646 1.00951 0.0
C210 C 0.57123 1.01748 0.04683 0.0
C211 C 0.62294 1.01745 0.08829 0.0
C212 C 0.70029 0.98907 0.08946 0.0
C213 C 0.72512 0.96327 0.04872 0.0
C214 C 0.66526 0.95786 1.01024 0.0
H215 H 0.38015 0.95851 0.54154 0.0
H216 H 0.28998 0.07461 0.45331 0.0
H217 H 0.43749 0.09023 0.44469 0.0
H218 H 0.55856 1.0139 0.6005 0.0
H219 H 0.63285 0.96163 0.60183 0.0
H220 H 0.51945 0.95628 0.60039 0.0
H221 H 0.52761 0.90031 0.52684 0.0
H222 H 0.64118 0.90528 0.52836 0.0
H223 H 0.57318 0.91935 0.47672 0.0
H224 H 0.59248 0.09873 0.44818 0.0
H225 H 0.74942 0.0953 0.4593 0.0
H226 H 0.7522 0.97296 0.54291 0.0
C227 C 0.39163 0.98653 0.51971 0.0
C228 C 0.32147 1.01537 0.49836 0.0
C229 C 0.34085 0.05206 0.47061 0.0
C230 C 0.42521 0.06138 0.46529 0.0
C231 C 0.49222 0.03365 0.48748 0.0
C232 C 0.47733 0.99649 0.51369 0.0
C233 C 0.56343 0.97315 0.53394 0.0
C234 C 0.56887 0.97644 0.58735 0.0
C235 C 0.57715 0.92145 0.51536 0.0
C236 C 0.62757 1.0035 0.51542 0.0
C237 C 0.58414 0.03816 0.48879 0.0
C238 C 0.62731 0.07145 0.46869 0.0
C239 C 0.71713 0.06931 0.47541 0.0
C240 C 0.76482 0.03399 0.50197 0.0
C241 C 0.71855 1.00051 0.52227 0.0
H242 H 0.86304 0.51273 0.9354 0.0
H243 H 0.83554 0.63991 0.02534 0.0
H244 H 0.97376 0.61627 0.06803 0.0
H245 H 0.9386 0.43727 0.01959 0.0
H246 H 1.01539 0.40169 0.98664 0.0
H247 H 0.92182 0.43137 0.95715 0.0
H248 H 1.01422 0.47567 0.90657 0.0
H249 H 0.1072 0.44283 0.93304 0.0
H250 H 0.10124 0.50653 0.9345 0.0
H251 H 0.09808 0.57216 0.10928 0.0
H252 H 0.23923 0.52874 0.12495 0.0
H253 H 0.18275 0.42942 1.00929 0.0
C254 C 0.88821 0.53686 0.96244 0.0
C255 C 0.83815 0.5772 0.9783 0.0
C256 C 0.87308 0.60835 0.01332 0.0
C257 C 0.95027 0.59467 0.03847 0.0
C258 C 0.9915 0.55075 0.02673 0.0
C259 C 0.9645 0.52353 0.98806 0.0
C260 C 1.02097 0.478 0.9827 0.0
C261 C 0.97117 0.43455 0.98677 0.0
C262 C 0.06351 0.47564 0.93651 0.0
C263 C 0.08454 0.48418 0.02426 0.0
C264 C 0.06445 0.52562 0.05006 0.0
C265 C 0.11545 0.54003 0.089 0.0
C266 C 0.19475 0.51462 0.09815 0.0
C267 C 0.22205 0.47716 0.06696 0.0
C268 C 0.16307 0.45837 0.0332 0.0
H269 H 0.25169 0.46494 0.52813 0.0
H270 H 0.25203 0.60772 0.48183 0.0
H271 H 0.09538 0.61606 0.47626 0.0
H272 H 0.05718 0.43582 0.4533 0.0
H273 H 1.01891 0.40168 0.49656 0.0
H274 H 0.13216 0.4061 0.49485 0.0
H275 H 0.13794 0.43641 0.58158 0.0
H276 H 1.0241 0.4336 0.58208 0.0
H277 H 0.07049 0.48844 0.5981 0.0
H278 H 0.94217 0.61076 0.47375 0.0
H279 H 0.79437 0.59566 0.47934 0.0
H280 H 0.87755 0.45591 0.52945 0.0
C281 C 0.21872 0.49795 0.51684 0.0
C282 C 0.26592 0.53576 0.50544 0.0
C283 C 0.21919 0.57813 0.4908 0.0
C284 C 0.12944 0.58327 0.48739 0.0
C285 C 0.08535 0.54578 0.49863 0.0
C286 C 0.12758 0.50387 0.51318 0.0
C287 C 0.06192 0.46983 0.52335 0.0
C288 C 0.06789 0.42571 0.49007 0.0
C289 C 0.07437 0.45627 0.57433 0.0
C290 C 0.97676 0.49988 0.51333 0.0
C291 C 0.99344 0.54318 0.49847 0.0
C292 C 0.92815 0.57735 0.48598 0.0
C293 C 0.84346 0.56806 0.48951 0.0
C294 C 0.82193 0.52468 0.50577 0.0
C295 C 0.8905 0.48956 0.5172 0.0
H296 H 0.05951 0.06633 0.37584 0.0
H297 H 0.92397 0.93934 0.36462 0.0
H298 H 0.9234 0.93759 0.27978 0.0
H299 H 0.94238 0.11832 0.27103 0.0
H300 H 1.03476 0.14367 0.2537 0.0
H301 H 1.02389 0.13633 0.31438 0.0
H302 H 0.17179 0.08812 0.32111 0.0
H303 H 0.18299 0.09494 0.26042 0.0
H304 H 0.19135 0.03666 0.28274 0.0
H305 H 0.95353 0.94204 0.1986 0.0
H306 H 0.99063 0.96057 0.12144 0.0
H307 H 0.08842 0.09105 0.17928 0.0
C308 C 1.0289 0.03861 0.35534 0.0
C309 C 0.99261 1.00266 0.37704 0.0
C310 C 0.95271 0.9671 0.34906 0.0
C311 C 0.95209 0.96568 0.30068 0.0
C312 C 0.98985 1.00071 0.28037 0.0
C313 C 1.02574 0.03724 0.30638 0.0
C314 C 0.06035 0.07064 0.27471 0.0
C315 C 1.01247 0.12018 0.2787 0.0
C316 C 0.15739 0.07269 0.28539 0.0
C317 C 0.03982 0.04633 0.22723 0.0
C318 C 1.00022 1.0057 0.23183 0.0
C319 C 0.98161 0.97463 0.19417 0.0
C320 C 1.00234 0.9857 0.1503 0.0
C321 C 1.03849 0.02833 0.14381 0.0
C322 C 0.05818 0.05895 0.18296 0.0
H323 H 0.96234 0.06859 0.86693 0.0
H324 H 0.09757 0.92905 0.8762 0.0
H325 H 0.12317 0.92824 0.79293 0.0
H326 H 0.85291 0.04422 0.75644 0.0
H327 H 0.8566 0.10243 0.73552 0.0
H328 H 0.85694 0.09478 0.79694 0.0
H329 H 0.9974 0.13596 0.81186 0.0
H330 H 0.9972 0.14405 0.75048 0.0
H331 H 0.08914 0.11394 0.78116 0.0
H332 H 0.1336 0.94213 0.70924 0.0
H333 H 0.12003 0.96725 0.62854 0.0
H334 H 0.96457 0.09424 0.67036 0.0
C335 C 0.99882 0.03842 0.85144 0.0
C336 C 1.02947 0.99914 0.87783 0.0
C337 C 0.07448 0.95955 0.8564 0.0
C338 C 0.08932 0.95883 0.80925 0.0
C339 C 0.05716 0.99765 0.7838 0.0
C340 C 1.01218 0.03658 0.80391 0.0
C341 C 0.97892 0.07189 0.76769 0.0
C342 C 0.8805 0.07871 0.76394 0.0
C343 C 1.01802 0.11927 0.77845 0.0
C344 C 1.01206 0.04664 0.7242 0.0
C345 C 0.0581 1.00422 0.73455 0.0
C346 C 0.09692 0.97502 0.7006 0.0
C347 C 0.08833 0.98943 0.65477 0.0
C348 C 0.0396 0.03208 0.64295 0.0
C349 C 1.00114 0.06108 0.67825 0.0
H350 H 0.58216 0.56958 0.37276 0.0
H351 H 0.39907 0.46325 0.3606 0.0
H352 H 0.40243 0.45897 0.27618 0.0
H353 H 0.48637 0.62905 0.26481 0.0
H354 H 0.58863 0.64308 0.24839 0.0
H355 H 0.57143 0.63977 0.30894 0.0
H356 H 0.70293 0.5783 0.31846 0.0
H357 H 0.71989 0.58091 0.25785 0.0
H358 H 0.70709 0.52496 0.28149 0.0
H359 H 0.44333 0.45426 0.19656 0.0
H360 H 0.49121 0.46445 0.11959 0.0
H361 H 0.62705 0.58399 0.17508 0.0
C362 C 0.54168 0.54619 0.35213 0.0
C363 C 0.49165 0.51604 0.37371 0.0
C364 C 0.43907 0.48617 0.34535 0.0
C365 C 0.44046 0.48332 0.29713 0.0
C366 C 0.49262 0.51171 0.27703 0.0
C367 C 0.53999 0.5439 0.30302 0.0
C368 C 0.58801 0.57101 0.27108 0.0
C369 C 0.55673 0.62388 0.27345 0.0
C370 C 0.68526 0.56332 0.28294 0.0
C371 C 0.56195 0.54767 0.22372 0.0
C372 C 0.5082 0.51295 0.22867 0.0
C373 C 0.48228 0.4827 0.19169 0.0
C374 C 0.50951 0.48896 0.14794 0.0
C375 C 0.55891 0.52653 0.14064 0.0
C376 C 0.58665 0.556 0.17929 0.0
H377 H 0.55135 0.60138 0.6814 0.0
H378 H 0.54602 0.45804 0.6222 0.0
H379 H 0.53016 0.42968 0.70005 0.0
H380 H 0.6724 0.57049 0.79129 0.0
H381 H 0.61356 0.61572 0.82504 0.0
H382 H 0.62796 0.62432 0.76503 0.0
H383 H 0.46369 0.63919 0.74783 0.0
H384 H 0.44877 0.63049 0.8077 0.0
H385 H 0.39578 0.59535 0.76205 0.0
H386 H 0.50562 0.41795 0.78318 0.0
H387 H 0.48062 0.4224 0.86643 0.0
H388 H 0.50705 0.57321 0.87346 0.0
C389 C 0.54774 0.56393 0.68494 0.0
C390 C 0.54959 0.53175 0.64566 0.0
C391 C 0.54447 0.48316 0.65167 0.0
C392 C 0.53555 0.46682 0.69582 0.0
C393 C 0.53272 0.49954 0.73371 0.0
C394 C 0.53948 0.54703 0.72885 0.0
C395 C 0.53325 0.5749 0.77513 0.0
C396 C 0.61678 0.5977 0.78999 0.0
C397 C 0.45576 0.61218 0.77303 0.0
C398 C 0.52052 0.53577 0.80672 0.0
C399 C 0.5204 0.49261 0.78198 0.0
C400 C 0.50637 0.45146 0.80292 0.0
C401 C 0.49192 0.45441 0.85023 0.0
C402 C 0.492 0.4981 0.87643 0.0
C403 C 0.50728 0.53927 0.85439 0.0
loop_
_geom_bond_atom_site_label_1
_geom_bond_atom_site_label_2
_geom_bond_distance
_geom_bond_site_symmetry_2
_ccdc_geom_bond_type
Dy0 O4 2.398 . S
Dy0 O5 2.491 1_566 S
Dy0 O6 2.403 . S
Dy0 O7 2.664 1_655 S
Dy0 O11 2.326 1_565 S
Dy0 O15 2.310 1_566 S
Dy0 O16 2.351 1_655 S
C1 O12 1.185 . S
C1 O13 1.355 1_544 S
C2 O4 1.185 . S
C2 O5 1.355 1_566 S
Dy3 O7 2.310 1_544 S
Dy3 O10 2.351 1_455 S
Dy3 O12 2.398 . S
Dy3 O13 2.491 1_544 S
Dy3 O14 2.403 . S
Dy3 O15 2.664 1_455 S
Dy3 O17 2.326 1_545 S
O4 Dy0 2.398 . S
O4 C2 1.185 . S
O5 Dy0 2.491 1_544 S
O5 C2 1.355 1_544 S
O6 Dy0 2.403 . S
O6 C8 1.254 . S
O7 Dy0 2.664 1_455 S
O7 Dy3 2.310 1_566 S
O7 C8 1.268 1_455 S
C8 O6 1.254 . S
C8 O7 1.268 1_655 S
C9 O14 1.254 . S
C9 O15 1.268 1_455 S
O10 Dy3 2.351 1_655 S
O10 C18 1.249 1_554 S
O11 Dy0 2.326 1_545 S
O11 C18 1.267 . S
O12 C1 1.185 . S
O12 Dy3 2.398 . S
O13 C1 1.355 1_566 S
O13 Dy3 2.491 1_566 S
O14 Dy3 2.403 . S
O14 C9 1.254 . S
O15 Dy0 2.310 1_544 S
O15 Dy3 2.664 1_655 S
O15 C9 1.268 1_655 S
O16 Dy0 2.351 1_455 S
O16 C19 1.249 1_556 S
O17 Dy3 2.326 1_565 S
O17 C19 1.267 . S
C18 O10 1.249 1_556 S
C18 O11 1.267 . S
C19 O16 1.249 1_554 S
C19 O17 1.267 . S
Dy20 O24 2.398 1_455 S
Dy20 O25 2.491 1_455 S
Dy20 O26 2.403 1_455 S
Dy20 O27 2.664 1_565 S
Dy20 O31 2.326 1_455 S
Dy20 O35 2.310 1_455 S
Dy20 O36 2.351 . S
C21 O32 1.185 . S
C21 O33 1.355 . S
C22 O24 1.185 . S
C22 O25 1.355 . S
Dy23 O27 2.310 1_655 S
Dy23 O30 2.351 . S
Dy23 O32 2.398 1_655 S
Dy23 O33 2.491 1_655 S
Dy23 O34 2.403 1_655 S
Dy23 O35 2.664 1_545 S
Dy23 O37 2.326 1_655 S
O24 Dy20 2.398 1_655 S
O24 C22 1.185 . S
O25 Dy20 2.491 1_655 S
O25 C22 1.355 . S
O26 Dy20 2.403 1_655 S
O26 C28 1.254 1_655 S
O27 Dy20 2.664 1_545 S
O27 Dy23 2.310 1_455 S
O27 C28 1.268 1_545 S
C28 O26 1.254 1_455 S
C28 O27 1.268 1_565 S
C29 O34 1.254 1_655 S
C29 O35 1.268 1_545 S
O30 Dy23 2.351 . S
O30 C38 1.249 . S
O31 Dy20 2.326 1_655 S
O31 C38 1.267 1_565 S
O32 C21 1.185 . S
O32 Dy23 2.398 1_455 S
O33 C21 1.355 . S
O33 Dy23 2.491 1_455 S
O34 Dy23 2.403 1_455 S
O34 C29 1.254 1_455 S
O35 Dy20 2.310 1_655 S
O35 Dy23 2.664 1_565 S
O35 C29 1.268 1_565 S
O36 Dy20 2.351 . S
O36 C39 1.249 . S
O37 Dy23 2.326 1_455 S
O37 C39 1.267 1_545 S
C38 O30 1.249 . S
C38 O31 1.267 1_545 S
C39 O36 1.249 . S
C39 O37 1.267 1_565 S
Dy40 O44 2.398 . S
Dy40 O45 2.491 1_556 S
Dy40 O46 2.403 . S
Dy40 O47 2.664 . S
Dy40 O51 2.326 . S
Dy40 O55 2.310 1_556 S
Dy40 O56 2.351 . S
C41 O52 1.185 . S
C41 O53 1.355 1_554 S
C42 O44 1.185 . S
C42 O45 1.355 1_556 S
Dy43 O47 2.310 1_554 S
Dy43 O50 2.351 . S
Dy43 O52 2.398 . S
Dy43 O53 2.491 1_554 S
Dy43 O54 2.403 . S
Dy43 O55 2.664 . S
Dy43 O57 2.326 . S
O44 Dy40 2.398 . S
O44 C42 1.185 . S
O45 Dy40 2.491 1_554 S
O45 C42 1.355 1_554 S
O46 Dy40 2.403 . S
O46 C48 1.254 . S
O47 Dy40 2.664 . S
O47 Dy43 2.310 1_556 S
O47 C48 1.268 . S
C48 O46 1.254 . S
C48 O47 1.268 . S
C49 O54 1.254 . S
C49 O55 1.268 . S
O50 Dy43 2.351 . S
O50 C58 1.249 1_554 S
O51 Dy40 2.326 . S
O51 C58 1.267 . S
O52 C41 1.185 . S
O52 Dy43 2.398 . S
O53 C41 1.355 1_556 S
O53 Dy43 2.491 1_556 S
O54 Dy43 2.403 . S
O54 C49 1.254 . S
O55 Dy40 2.310 1_554 S
O55 Dy43 2.664 . S
O55 C49 1.268 . S
O56 Dy40 2.351 . S
O56 C59 1.249 1_556 S
O57 Dy43 2.326 . S
O57 C59 1.267 . S
C58 O50 1.249 1_556 S
C58 O51 1.267 . S
C59 O56 1.249 1_554 S
C59 O57 1.267 . S
Dy60 O64 2.398 . S
Dy60 O65 2.491 . S
Dy60 O66 2.403 . S
Dy60 O67 2.664 . S
Dy60 O71 2.326 . S
Dy60 O75 2.310 . S
Dy60 O76 2.351 . S
C61 O72 1.185 . S
C61 O73 1.355 . S
C62 O64 1.185 . S
C62 O65 1.355 . S
Dy63 O67 2.310 . S
Dy63 O70 2.351 . S
Dy63 O72 2.398 . S
Dy63 O73 2.491 . S
Dy63 O74 2.403 . S
Dy63 O75 2.664 . S
Dy63 O77 2.326 . S
O64 Dy60 2.398 . S
O64 C62 1.185 . S
O65 Dy60 2.491 . S
O65 C62 1.355 . S
O66 Dy60 2.403 . S
O66 C68 1.254 . S
O67 Dy60 2.664 . S
O67 Dy63 2.310 . S
O67 C68 1.268 . S
C68 O66 1.254 . S
C68 O67 1.268 . S
C69 O74 1.254 . S
C69 O75 1.268 . S
O70 Dy63 2.351 . S
O70 C78 1.249 . S
O71 Dy60 2.326 . S
O71 C78 1.267 . S
O72 C61 1.185 . S
O72 Dy63 2.398 . S
O73 C61 1.355 . S
O73 Dy63 2.491 . S
O74 Dy63 2.403 . S
O74 C69 1.254 . S
O75 Dy60 2.310 . S
O75 Dy63 2.664 . S
O75 C69 1.268 . S
O76 Dy60 2.351 . S
O76 C79 1.249 . S
O77 Dy63 2.326 . S
O77 C79 1.267 . S
C78 O70 1.249 . S
C78 O71 1.267 . S
C79 O76 1.249 . S
C79 O77 1.267 . S
H80 C92 0.930 . S
H81 C94 0.930 . S
H82 C95 0.930 . S
H83 C99 0.959 1_554 S
H84 C99 0.959 . S
H85 C99 0.961 . S
H86 C100 0.960 . S
H87 C100 0.961 . S
H88 C100 0.959 . S
H89 C103 0.929 . S
H90 C104 0.931 . S
H91 C106 0.930 . S
C92 H80 0.930 . S
C92 C93 1.399 1_556 S
C92 C97 1.399 . S
C93 C92 1.399 1_554 S
C93 C94 1.376 . S
C94 H81 0.930 . S
C94 C93 1.376 . S
C94 C95 1.388 . S
C95 H82 0.930 . S
C95 C94 1.388 . S
C95 C96 1.390 . S
C96 C95 1.390 . S
C96 C97 1.394 1_554 S
C96 C102 1.465 . S
C97 C92 1.399 . S
C97 C96 1.394 1_556 S
C97 C98 1.516 . S
C98 C97 1.516 . S
C98 C99 1.502 . S
C98 C100 1.561 . S
C98 C101 1.526 . S
C99 H83 0.959 1_556 S
C99 H84 0.959 . S
C99 H85 0.961 . S
C99 C98 1.502 . S
C100 H86 0.960 . S
C100 H87 0.961 . S
C100 H88 0.959 . S
C100 C98 1.561 . S
C101 C98 1.526 . S
C101 C102 1.396 1_556 S
C101 C106 1.390 . S
C102 C96 1.465 . S
C102 C101 1.396 1_554 S
C102 C103 1.399 . S
C103 H89 0.929 . S
C103 C102 1.399 . S
C103 C104 1.385 . S
C104 H90 0.931 . S
C104 C103 1.385 . S
C104 C105 1.389 . S
C105 C104 1.389 . S
C105 C106 1.387 1_554 S
C106 H91 0.930 . S
C106 C101 1.390 . S
C106 C105 1.387 1_556 S
H107 C119 0.930 . S
H108 C121 0.930 . S
H109 C122 0.930 . S
H110 C126 0.959 . S
H111 C126 0.959 . S
H112 C126 0.961 . S
H113 C127 0.960 . S
H114 C127 0.961 . S
H115 C127 0.959 . S
H116 C130 0.929 . S
H117 C131 0.931 . S
H118 C133 0.930 . S
C119 H107 0.930 . S
C119 C120 1.399 1_554 S
C119 C124 1.399 . S
C120 C119 1.399 1_556 S
C120 C121 1.376 . S
C121 H108 0.930 . S
C121 C120 1.376 . S
C121 C122 1.388 . S
C122 H109 0.930 . S
C122 C121 1.388 . S
C122 C123 1.390 . S
C123 C122 1.390 . S
C123 C124 1.394 1_556 S
C123 C129 1.465 . S
C124 C119 1.399 . S
C124 C123 1.394 1_554 S
C124 C125 1.516 . S
C125 C124 1.516 . S
C125 C126 1.502 . S
C125 C127 1.561 . S
C125 C128 1.526 . S
C126 H110 0.959 . S
C126 H111 0.959 . S
C126 H112 0.961 . S
C126 C125 1.502 . S
C127 H113 0.960 . S
C127 H114 0.961 . S
C127 H115 0.959 . S
C127 C125 1.561 . S
C128 C125 1.526 . S
C128 C129 1.396 1_554 S
C128 C133 1.390 . S
C129 C123 1.465 . S
C129 C128 1.396 1_556 S
C129 C130 1.399 . S
C130 H116 0.929 . S
C130 C129 1.399 . S
C130 C131 1.385 . S
C131 H117 0.931 . S
C131 C130 1.385 . S
C131 C132 1.389 . S
C132 C131 1.389 . S
C132 C133 1.387 1_556 S
C133 H118 0.930 . S
C133 C128 1.390 . S
C133 C132 1.387 1_554 S
H134 C146 0.930 . S
H135 C148 0.930 . S
H136 C149 0.930 . S
H137 C153 0.959 . S
H138 C153 0.959 . S
H139 C153 0.961 . S
H140 C154 0.960 . S
H141 C154 0.961 . S
H142 C154 0.959 . S
H143 C157 0.929 . S
H144 C158 0.931 . S
H145 C160 0.930 . S
C146 H134 0.930 . S
C146 C147 1.399 . S
C146 C151 1.399 . S
C147 C146 1.399 . S
C147 C148 1.376 . S
C148 H135 0.930 . S
C148 C147 1.376 . S
C148 C149 1.388 . S
C149 H136 0.930 . S
C149 C148 1.388 . S
C149 C150 1.390 . S
C150 C149 1.390 . S
C150 C151 1.394 . S
C150 C156 1.465 . S
C151 C146 1.399 . S
C151 C150 1.394 . S
C151 C152 1.516 . S
C152 C151 1.516 . S
C152 C153 1.502 . S
C152 C154 1.561 . S
C152 C155 1.526 . S
C153 H137 0.959 . S
C153 H138 0.959 . S
C153 H139 0.961 . S
C153 C152 1.502 . S
C154 H140 0.960 . S
C154 H141 0.961 . S
C154 H142 0.959 . S
C154 C152 1.561 . S
C155 C152 1.526 . S
C155 C156 1.396 . S
C155 C160 1.390 . S
C156 C150 1.465 . S
C156 C155 1.396 . S
C156 C157 1.399 . S
C157 H143 0.929 . S
C157 C156 1.399 . S
C157 C158 1.385 . S
C158 H144 0.931 . S
C158 C157 1.385 . S
C158 C159 1.389 . S
C159 C158 1.389 . S
C159 C160 1.387 . S
C160 H145 0.930 . S
C160 C155 1.390 . S
C160 C159 1.387 . S
H161 C173 0.930 . S
H162 C175 0.930 . S
H163 C176 0.930 . S
H164 C180 0.959 . S
H165 C180 0.959 . S
H166 C180 0.961 . S
H167 C181 0.960 . S
H168 C181 0.961 . S
H169 C181 0.959 . S
H170 C184 0.929 . S
H171 C185 0.931 . S
H172 C187 0.930 . S
C173 H161 0.930 . S
C173 C174 1.399 . S
C173 C178 1.399 . S
C174 C173 1.399 . S
C174 C175 1.376 . S
C175 H162 0.930 . S
C175 C174 1.376 . S
C175 C176 1.388 . S
C176 H163 0.930 . S
C176 C175 1.388 . S
C176 C177 1.390 . S
C177 C176 1.390 . S
C177 C178 1.394 . S
C177 C183 1.465 . S
C178 C173 1.399 . S
C178 C177 1.394 . S
C178 C179 1.516 . S
C179 C178 1.516 . S
C179 C180 1.502 . S
C179 C181 1.561 . S
C179 C182 1.526 . S
C180 H164 0.959 . S
C180 H165 0.959 . S
C180 H166 0.961 . S
C180 C179 1.502 . S
C181 H167 0.960 . S
C181 H168 0.961 . S
C181 H169 0.959 . S
C181 C179 1.561 . S
C182 C179 1.526 . S
C182 C183 1.396 . S
C182 C187 1.390 . S
C183 C177 1.465 . S
C183 C182 1.396 . S
C183 C184 1.399 . S
C184 H170 0.929 . S
C184 C183 1.399 . S
C184 C185 1.385 . S
C185 H171 0.931 . S
C185 C184 1.385 . S
C185 C186 1.389 . S
C186 C185 1.389 . S
C186 C187 1.387 . S
C187 H172 0.930 . S
C187 C182 1.390 . S
C187 C186 1.387 . S
H188 C200 0.930 . S
H189 C202 0.930 . S
H190 C203 0.930 . S
H191 C207 0.959 . S
H192 C207 0.959 . S
H193 C207 0.961 . S
H194 C208 0.960 . S
H195 C208 0.961 . S
H196 C208 0.959 . S
H197 C211 0.929 . S
H198 C212 0.931 . S
H199 C214 0.930 . S
C200 H188 0.930 . S
C200 C201 1.399 1_546 S
C200 C205 1.399 . S
C201 C200 1.399 1_564 S
C201 C202 1.376 . S
C202 H189 0.930 . S
C202 C201 1.376 . S
C202 C203 1.388 . S
C203 H190 0.930 . S
C203 C202 1.388 . S
C203 C204 1.390 . S
C204 C203 1.390 . S
C204 C205 1.394 1_564 S
C204 C210 1.465 . S
C205 C200 1.399 . S
C205 C204 1.394 1_546 S
C205 C206 1.516 . S
C206 C205 1.516 . S
C206 C207 1.502 . S
C206 C208 1.561 1_556 S
C206 C209 1.526 . S
C207 H191 0.959 . S
C207 H192 0.959 . S
C207 H193 0.961 . S
C207 C206 1.502 . S
C208 H194 0.960 . S
C208 H195 0.961 . S
C208 H196 0.959 . S
C208 C206 1.561 1_554 S
C209 C206 1.526 . S
C209 C210 1.396 1_546 S
C209 C214 1.390 . S
C210 C204 1.465 . S
C210 C209 1.396 1_564 S
C210 C211 1.399 . S
C211 H197 0.929 . S
C211 C210 1.399 . S
C211 C212 1.385 . S
C212 H198 0.931 . S
C212 C211 1.385 . S
C212 C213 1.389 1_565 S
C213 C212 1.389 1_545 S
C213 C214 1.387 1_554 S
C214 H199 0.930 . S
C214 C209 1.390 . S
C214 C213 1.387 1_556 S
H215 C227 0.930 . S
H216 C229 0.930 . S
H217 C230 0.930 . S
H218 C234 0.959 . S
H219 C234 0.959 . S
H220 C234 0.961 . S
H221 C235 0.960 . S
H222 C235 0.961 . S
H223 C235 0.959 . S
H224 C238 0.929 . S
H225 C239 0.931 . S
H226 C241 0.930 . S
C227 H215 0.930 . S
C227 C228 1.399 1_565 S
C227 C232 1.399 . S
C228 C227 1.399 1_545 S
C228 C229 1.376 . S
C229 H216 0.930 . S
C229 C228 1.376 . S
C229 C230 1.388 . S
C230 H217 0.930 . S
C230 C229 1.388 . S
C230 C231 1.390 . S
C231 C230 1.390 . S
C231 C232 1.394 1_545 S
C231 C237 1.465 . S
C232 C227 1.399 . S
C232 C231 1.394 1_565 S
C232 C233 1.516 . S
C233 C232 1.516 . S
C233 C234 1.502 . S
C233 C235 1.561 . S
C233 C236 1.526 . S
C234 H218 0.959 . S
C234 H219 0.959 . S
C234 H220 0.961 . S
C234 C233 1.502 . S
C235 H221 0.960 . S
C235 H222 0.961 . S
C235 H223 0.959 . S
C235 C233 1.561 . S
C236 C233 1.526 . S
C236 C237 1.396 1_565 S
C236 C241 1.390 . S
C237 C231 1.465 . S
C237 C236 1.396 1_545 S
C237 C238 1.399 . S
C238 H224 0.929 . S
C238 C237 1.399 . S
C238 C239 1.385 . S
C239 H225 0.931 . S
C239 C238 1.385 . S
C239 C240 1.389 . S
C240 C239 1.389 . S
C240 C241 1.387 1_545 S
C241 H226 0.930 . S
C241 C236 1.390 . S
C241 C240 1.387 1_565 S
H242 C254 0.930 . S
H243 C256 0.930 . S
H244 C257 0.930 . S
H245 C261 0.959 1_455 S
H246 C261 0.959 1_455 S
H247 C261 0.961 . S
H248 C262 0.960 . S
H249 C262 0.961 1_455 S
H250 C262 0.959 . S
H251 C265 0.929 . S
H252 C266 0.931 . S
H253 C268 0.930 . S
C254 H242 0.930 . S
C254 C255 1.399 1_556 S
C254 C259 1.399 . S
C255 C254 1.399 1_554 S
C255 C256 1.376 . S
C256 H243 0.930 . S
C256 C255 1.376 . S
C256 C257 1.388 . S
C257 H244 0.930 . S
C257 C256 1.388 . S
C257 C258 1.390 . S
C258 C257 1.390 . S
C258 C259 1.394 1_554 S
C258 C264 1.465 1_655 S
C259 C254 1.399 . S
C259 C258 1.394 1_556 S
C259 C260 1.516 . S
C260 C259 1.516 . S
C260 C261 1.502 . S
C260 C262 1.561 . S
C260 C263 1.526 1_655 S
C261 H245 0.959 1_655 S
C261 H246 0.959 1_655 S
C261 H247 0.961 . S
C261 C260 1.502 . S
C262 H248 0.960 . S
C262 H249 0.961 1_655 S
C262 H250 0.959 . S
C262 C260 1.561 . S
C263 C260 1.526 1_455 S
C263 C264 1.396 1_556 S
C263 C268 1.390 . S
C264 C258 1.465 1_455 S
C264 C263 1.396 1_554 S
C264 C265 1.399 . S
C265 H251 0.929 . S
C265 C264 1.399 . S
C265 C266 1.385 . S
C266 H252 0.931 . S
C266 C265 1.385 . S
C266 C267 1.389 . S
C267 C266 1.389 . S
C267 C268 1.387 1_554 S
C268 H253 0.930 . S
C268 C263 1.390 . S
C268 C267 1.387 1_556 S
H269 C281 0.930 . S
H270 C283 0.930 . S
H271 C284 0.930 . S
H272 C288 0.959 . S
H273 C288 0.959 . S
H274 C288 0.961 1_455 S
H275 C289 0.960 . S
H276 C289 0.961 1_655 S
H277 C289 0.959 . S
H278 C292 0.929 . S
H279 C293 0.931 . S
H280 C295 0.930 . S
C281 H269 0.930 . S
C281 C282 1.399 . S
C281 C286 1.399 . S
C282 C281 1.399 . S
C282 C283 1.376 . S
C283 H270 0.930 . S
C283 C282 1.376 . S
C283 C284 1.388 . S
C284 H271 0.930 . S
C284 C283 1.388 . S
C284 C285 1.390 . S
C285 C284 1.390 . S
C285 C286 1.394 . S
C285 C291 1.465 1_455 S
C286 C281 1.399 . S
C286 C285 1.394 . S
C286 C287 1.516 1_455 S
C287 C286 1.516 1_655 S
C287 C288 1.502 . S
C287 C289 1.561 1_655 S
C287 C290 1.526 . S
C288 H272 0.959 . S
C288 H273 0.959 . S
C288 H274 0.961 1_655 S
C288 C287 1.502 . S
C289 H275 0.960 . S
C289 H276 0.961 1_455 S
C289 H277 0.959 . S
C289 C287 1.561 1_455 S
C290 C287 1.526 . S
C290 C291 1.396 . S
C290 C295 1.390 . S
C291 C285 1.465 1_655 S
C291 C290 1.396 . S
C291 C292 1.399 . S
C292 H278 0.929 . S
C292 C291 1.399 . S
C292 C293 1.385 . S
C293 H279 0.931 . S
C293 C292 1.385 . S
C293 C294 1.389 . S
C294 C293 1.389 . S
C294 C295 1.387 . S
C295 H280 0.930 . S
C295 C290 1.390 . S
C295 C294 1.387 . S
H296 C308 0.930 . S
H297 C310 0.930 . S
H298 C311 0.930 . S
H299 C315 0.959 . S
H300 C315 0.959 . S
H301 C315 0.961 . S
H302 C316 0.960 . S
H303 C316 0.961 . S
H304 C316 0.959 . S
H305 C319 0.929 . S
H306 C320 0.931 . S
H307 C322 0.930 . S
C308 H296 0.930 . S
C308 C309 1.399 1_645 S
C308 C313 1.399 . S
C309 C308 1.399 1_465 S
C309 C310 1.376 . S
C310 H297 0.930 . S
C310 C309 1.376 . S
C310 C311 1.388 . S
C311 H298 0.930 . S
C311 C310 1.388 . S
C311 C312 1.390 . S
C312 C311 1.390 . S
C312 C313 1.394 1_465 S
C312 C318 1.465 . S
C313 C308 1.399 . S
C313 C312 1.394 1_645 S
C313 C314 1.516 . S
C314 C313 1.516 . S
C314 C315 1.502 . S
C314 C316 1.561 1_655 S
C314 C317 1.526 . S
C315 H299 0.959 . S
C315 H300 0.959 . S
C315 H301 0.961 . S
C315 C314 1.502 . S
C316 H302 0.960 . S
C316 H303 0.961 . S
C316 H304 0.959 . S
C316 C314 1.561 1_455 S
C317 C314 1.526 . S
C317 C318 1.396 1_645 S
C317 C322 1.390 . S
C318 C312 1.465 . S
C318 C317 1.396 1_465 S
C318 C319 1.399 . S
C319 H305 0.929 . S
C319 C318 1.399 . S
C319 C320 1.385 . S
C320 H306 0.931 . S
C320 C319 1.385 . S
C320 C321 1.389 . S
C321 C320 1.389 . S
C321 C322 1.387 1_465 S
C322 H307 0.930 . S
C322 C317 1.390 . S
C322 C321 1.387 1_645 S
H323 C335 0.930 . S
H324 C337 0.930 . S
H325 C338 0.930 . S
H326 C342 0.959 . S
H327 C342 0.959 . S
H328 C342 0.961 . S
H329 C343 0.960 . S
H330 C343 0.961 . S
H331 C343 0.959 . S
H332 C346 0.929 . S
H333 C347 0.931 . S
H334 C349 0.930 . S
C335 H323 0.930 . S
C335 C336 1.399 1_645 S
C335 C340 1.399 . S
C336 C335 1.399 1_465 S
C336 C337 1.376 . S
C337 H324 0.930 . S
C337 C336 1.376 . S
C337 C338 1.388 . S
C338 H325 0.930 . S
C338 C337 1.388 . S
C338 C339 1.390 . S
C339 C338 1.390 . S
C339 C340 1.394 1_465 S
C339 C345 1.465 . S
C340 C335 1.399 . S
C340 C339 1.394 1_645 S
C340 C341 1.516 . S
C341 C340 1.516 . S
C341 C342 1.502 . S
C341 C343 1.561 1_655 S
C341 C344 1.526 . S
C342 H326 0.959 . S
C342 H327 0.959 . S
C342 H328 0.961 . S
C342 C341 1.502 . S
C343 H329 0.960 . S
C343 H330 0.961 . S
C343 H331 0.959 . S
C343 C341 1.561 1_455 S
C344 C341 1.526 . S
C344 C345 1.396 1_645 S
C344 C349 1.390 . S
C345 C339 1.465 . S
C345 C344 1.396 1_465 S
C345 C346 1.399 . S
C346 H332 0.929 . S
C346 C345 1.399 . S
C346 C347 1.385 . S
C347 H333 0.931 . S
C347 C346 1.385 . S
C347 C348 1.389 . S
C348 C347 1.389 . S
C348 C349 1.387 1_465 S
C349 H334 0.930 . S
C349 C344 1.390 . S
C349 C348 1.387 1_645 S
H350 C362 0.930 . S
H351 C364 0.930 . S
H352 C365 0.930 . S
H353 C369 0.959 . S
H354 C369 0.959 . S
H355 C369 0.961 . S
H356 C370 0.960 . S
H357 C370 0.961 . S
H358 C370 0.959 . S
H359 C373 0.929 . S
H360 C374 0.931 . S
H361 C376 0.930 . S
C362 H350 0.930 . S
C362 C363 1.399 . S
C362 C367 1.399 . S
C363 C362 1.399 . S
C363 C364 1.376 . S
C364 H351 0.930 . S
C364 C363 1.376 . S
C364 C365 1.388 . S
C365 H352 0.930 . S
C365 C364 1.388 . S
C365 C366 1.390 . S
C366 C365 1.390 . S
C366 C367 1.394 . S
C366 C372 1.465 . S
C367 C362 1.399 . S
C367 C366 1.394 . S
C367 C368 1.516 . S
C368 C367 1.516 . S
C368 C369 1.502 . S
C368 C370 1.561 . S
C368 C371 1.526 . S
C369 H353 0.959 . S
C369 H354 0.959 . S
C369 H355 0.961 . S
C369 C368 1.502 . S
C370 H356 0.960 . S
C370 H357 0.961 . S
C370 H358 0.959 . S
C370 C368 1.561 . S
C371 C368 1.526 . S
C371 C372 1.396 . S
C371 C376 1.390 . S
C372 C366 1.465 . S
C372 C371 1.396 . S
C372 C373 1.399 . S
C373 H359 0.929 . S
C373 C372 1.399 . S
C373 C374 1.385 . S
C374 H360 0.931 . S
C374 C373 1.385 . S
C374 C375 1.389 . S
C375 C374 1.389 . S
C375 C376 1.387 . S
C376 H361 0.930 . S
C376 C371 1.390 . S
C376 C375 1.387 . S
H377 C389 0.930 . S
H378 C391 0.930 . S
H379 C392 0.930 . S
H380 C396 0.959 . S
H381 C396 0.959 . S
H382 C396 0.961 . S
H383 C397 0.960 . S
H384 C397 0.961 . S
H385 C397 0.959 . S
H386 C400 0.929 . S
H387 C401 0.931 . S
H388 C403 0.930 . S
C389 H377 0.930 . S
C389 C390 1.399 . S
C389 C394 1.399 . S
C390 C389 1.399 . S
C390 C391 1.376 . S
C391 H378 0.930 . S
C391 C390 1.376 . S
C391 C392 1.388 . S
C392 H379 0.930 . S
C392 C391 1.388 . S
C392 C393 1.390 . S
C393 C392 1.390 . S
C393 C394 1.394 . S
C393 C399 1.465 . S
C394 C389 1.399 . S
C394 C393 1.394 . S
C394 C395 1.516 . S
C395 C394 1.516 . S
C395 C396 1.502 . S
C395 C397 1.561 . S
C395 C398 1.526 . S
C396 H380 0.959 . S
C396 H381 0.959 . S
C396 H382 0.961 . S
C396 C395 1.502 . S
C397 H383 0.960 . S
C397 H384 0.961 . S
C397 H385 0.959 . S
C397 C395 1.561 . S
C398 C395 1.526 . S
C398 C399 1.396 . S
C398 C403 1.390 . S
C399 C393 1.465 . S
C399 C398 1.396 . S
C399 C400 1.399 . S
C400 H386 0.929 . S
C400 C399 1.399 . S
C400 C401 1.385 . S
C401 H387 0.931 . S
C401 C400 1.385 . S
C401 C402 1.389 . S
C402 C401 1.389 . S
C402 C403 1.387 . S
C403 H388 0.930 . S
C403 C398 1.390 . S
C403 C402 1.387 . S
C93 C58 2.039 1_554 S
C105 C19 2.016 . S
C120 C59 2.030 1_556 S
C132 C18 2.024 . S
C147 C21 1.051 . S
C159 C62 1.005 . S
C174 C22 1.032 . S
C186 C61 1.015 . S
C201 C1 0.687 1_565 S
C213 C2 0.608 1_544 S
C228 C39 2.408 1_545 S
C240 C38 2.403 . S
C255 C41 0.619 . S
C267 C42 0.673 1_554 S
C282 C78 2.412 . S
C294 C79 2.397 . S
C309 C28 1.421 . S
C321 C9 1.455 1_565 S
C336 C8 1.460 1_455 S
C348 C29 1.481 1_465 S
C363 C68 1.426 . S
C375 C49 1.449 . S
C390 C69 1.484 . S
C402 C48 1.441 . S
