# Generated by pormake.
# Topology unp, (4)-cn, num edge types: 1
# Building blocks:
#     Node 0, Type 0, BuildingBlock: TATPOV_clean_sbu_0, # of connection points: 4
#     Node 1, Type 0, BuildingBlock: TATPOV_clean_sbu_0, # of connection points: 4
#     Node 2, Type 0, BuildingBlock: TATPOV_clean_sbu_0, # of connection points: 4
#     Node 3, Type 0, BuildingBlock: TATPOV_clean_sbu_0, # of connection points: 4
#     Node 4, Type 0, BuildingBlock: TATPOV_clean_sbu_0, # of connection points: 4
#     Node 5, Type 0, BuildingBlock: TATPOV_clean_sbu_0, # of connection points: 4
#     Node 6, Type 0, BuildingBlock: TATPOV_clean_sbu_0, # of connection points: 4
#     Node 7, Type 0, BuildingBlock: TATPOV_clean_sbu_0, # of connection points: 4
#     Node 8, Type 0, BuildingBlock: TATPOV_clean_sbu_0, # of connection points: 4
#     Node 9, Type 0, BuildingBlock: TATPOV_clean_sbu_0, # of connection points: 4
#     Node 10, Type 0, BuildingBlock: TATPOV_clean_sbu_0, # of connection points: 4
#     Node 11, Type 0, BuildingBlock: TATPOV_clean_sbu_0, # of connection points: 4
#     Node 12, Type 0, BuildingBlock: TATPOV_clean_sbu_0, # of connection points: 4
#     Node 13, Type 0, BuildingBlock: TATPOV_clean_sbu_0, # of connection points: 4
#     Node 14, Type 0, BuildingBlock: TATPOV_clean_sbu_0, # of connection points: 4
#     Node 15, Type 0, BuildingBlock: TATPOV_clean_sbu_0, # of connection points: 4
#     Node 16, Type 0, BuildingBlock: TATPOV_clean_sbu_0, # of connection points: 4
#     Node 17, Type 0, BuildingBlock: TATPOV_clean_sbu_0, # of connection points: 4
#     Edge 18, Type (0, 0), BuildingBlock: MIFKUJ_clean_linker_0, # of connection points: 2
#     Edge 19, Type (0, 0), BuildingBlock: MIFKUJ_clean_linker_0, # of connection points: 2
#     Edge 20, Type (0, 0), BuildingBlock: MIFKUJ_clean_linker_0, # of connection points: 2
#     Edge 21, Type (0, 0), BuildingBlock: MIFKUJ_clean_linker_0, # of connection points: 2
#     Edge 22, Type (0, 0), BuildingBlock: MIFKUJ_clean_linker_0, # of connection points: 2
#     Edge 23, Type (0, 0), BuildingBlock: MIFKUJ_clean_linker_0, # of connection points: 2
#     Edge 24, Type (0, 0), BuildingBlock: MIFKUJ_clean_linker_0, # of connection points: 2
#     Edge 25, Type (0, 0), BuildingBlock: MIFKUJ_clean_linker_0, # of connection points: 2
#     Edge 26, Type (0, 0), BuildingBlock: MIFKUJ_clean_linker_0, # of connection points: 2
#     Edge 27, Type (0, 0), BuildingBlock: MIFKUJ_clean_linker_0, # of connection points: 2
#     Edge 28, Type (0, 0), BuildingBlock: MIFKUJ_clean_linker_0, # of connection points: 2
#     Edge 29, Type (0, 0), BuildingBlock: MIFKUJ_clean_linker_0, # of connection points: 2
#     Edge 30, Type (0, 0), BuildingBlock: MIFKUJ_clean_linker_0, # of connection points: 2
#     Edge 31, Type (0, 0), BuildingBlock: MIFKUJ_clean_linker_0, # of connection points: 2
#     Edge 32, Type (0, 0), BuildingBlock: MIFKUJ_clean_linker_0, # of connection points: 2
#     Edge 33, Type (0, 0), BuildingBlock: MIFKUJ_clean_linker_0, # of connection points: 2
#     Edge 34, Type (0, 0), BuildingBlock: MIFKUJ_clean_linker_0, # of connection points: 2
#     Edge 35, Type (0, 0), BuildingBlock: MIFKUJ_clean_linker_0, # of connection points: 2
#     Edge 36, Type (0, 0), BuildingBlock: MIFKUJ_clean_linker_0, # of connection points: 2
#     Edge 37, Type (0, 0), BuildingBlock: MIFKUJ_clean_linker_0, # of connection points: 2
#     Edge 38, Type (0, 0), BuildingBlock: MIFKUJ_clean_linker_0, # of connection points: 2
#     Edge 39, Type (0, 0), BuildingBlock: MIFKUJ_clean_linker_0, # of connection points: 2
#     Edge 40, Type (0, 0), BuildingBlock: MIFKUJ_clean_linker_0, # of connection points: 2
#     Edge 41, Type (0, 0), BuildingBlock: MIFKUJ_clean_linker_0, # of connection points: 2
#     Edge 42, Type (0, 0), BuildingBlock: MIFKUJ_clean_linker_0, # of connection points: 2
#     Edge 43, Type (0, 0), BuildingBlock: MIFKUJ_clean_linker_0, # of connection points: 2
#     Edge 44, Type (0, 0), BuildingBlock: MIFKUJ_clean_linker_0, # of connection points: 2
#     Edge 45, Type (0, 0), BuildingBlock: MIFKUJ_clean_linker_0, # of connection points: 2
#     Edge 46, Type (0, 0), BuildingBlock: MIFKUJ_clean_linker_0, # of connection points: 2
#     Edge 47, Type (0, 0), BuildingBlock: MIFKUJ_clean_linker_0, # of connection points: 2
#     Edge 48, Type (0, 0), BuildingBlock: MIFKUJ_clean_linker_0, # of connection points: 2
#     Edge 49, Type (0, 0), BuildingBlock: MIFKUJ_clean_linker_0, # of connection points: 2
#     Edge 50, Type (0, 0), BuildingBlock: MIFKUJ_clean_linker_0, # of connection points: 2
#     Edge 51, Type (0, 0), BuildingBlock: MIFKUJ_clean_linker_0, # of connection points: 2
#     Edge 52, Type (0, 0), BuildingBlock: MIFKUJ_clean_linker_0, # of connection points: 2
#     Edge 53, Type (0, 0), BuildingBlock: MIFKUJ_clean_linker_0, # of connection points: 2
# Relax obj value: 0.369
# Max RMSD: 0.173
# Mean RMSD: 0.173
data_MOF--net-unp--node1-TATPOV_clean_sbu_0--edge1-MIFKUJ_clean_linker_0
_symmetry_space_group_name_H-M    P1
_symmetry_Int_Tables_number       1
_symmetry_cell_setting            triclinic
loop_
_symmetry_equiv_pos_as_xyz
'x, y, z'
_cell_length_a     58.805977
_cell_length_b     58.869341
_cell_length_c     86.045767
_cell_angle_alpha  90.072356
_cell_angle_beta   89.936368
_cell_angle_gamma 119.98853
loop_
_atom_site_label
_atom_site_type_symbol
_atom_site_fract_x
_atom_site_fract_y
_atom_site_fract_z
_atom_type_partial_charge
Zn0 Zn 0.11596 0.15411 0.09482 0.0
Zn1 Zn 0.15748 0.18471 0.11138 0.0
O2 O 0.15098 0.14793 0.11717 0.0
O3 O 0.11293 0.12242 0.10586 0.0
O4 O 0.19062 0.20883 0.123 0.0
O5 O 0.1355 0.16722 0.07479 0.0
O6 O 0.16949 0.19544 0.08854 0.0
C7 C 0.13151 0.12521 0.11455 0.0
C8 C 0.10655 0.18667 0.11503 0.0
O9 O 0.1292 0.19274 0.12027 0.0
O10 O 0.09724 0.17167 0.10339 0.0
C11 C 0.19597 0.20301 0.1362 0.0
O12 O 0.17865 0.18119 0.14304 0.0
C13 C 0.15876 0.18629 0.07541 0.0
Zn14 Zn 0.85765 0.00585 0.09023 0.0
Zn15 Zn 0.81946 -0.00029 0.10897 0.0
O16 O 0.85089 0.03489 0.11639 0.0
O17 O 0.88162 0.04143 0.09942 0.0
O18 O 0.78963 0.99728 0.12166 0.0
O19 O 0.83693 0.00214 0.07123 0.0
O20 O 0.80554 -0.00098 0.08661 0.0
C21 C 0.87401 0.04908 0.11104 0.0
C22 C 0.83803 0.95977 0.10951 0.0
O23 O 0.82258 0.96718 0.11493 0.0
O24 O 0.85473 0.9731 0.09917 0.0
C25 C 0.79102 0.00173 0.13618 0.0
O26 O 0.81237 0.00652 0.14374 0.0
C27 C 0.81444 -0.00041 0.07301 0.0
Zn28 Zn 0.018 0.85821 0.08326 0.0
Zn29 Zn 0.01239 0.82109 0.10237 0.0
O30 O 0.97972 0.82396 0.10763 0.0
O31 O 0.98284 0.85287 0.09029 0.0
O32 O 0.007 0.79001 0.11487 0.0
O33 O 0.02045 0.84025 0.06442 0.0
O34 O 0.01357 0.80785 0.07999 0.0
C35 C 0.97065 0.83741 0.10139 0.0
C36 C 0.05891 0.8765 0.10615 0.0
O37 O 0.04609 0.85299 0.11114 0.0
O38 O 0.05108 0.88332 0.0943 0.0
C39 C 0.01162 0.78945 0.12924 0.0
O40 O 0.02133 0.81112 0.13747 0.0
C41 C 0.01727 0.81758 0.06636 0.0
Zn42 Zn 0.14863 0.1189 0.90669 0.0
Zn43 Zn 0.18229 0.15996 0.89035 0.0
O44 O 0.14717 0.15884 0.88608 0.0
O45 O 0.11876 0.12249 0.89801 0.0
O46 O 0.20821 0.1921 0.87855 0.0
O47 O 0.16636 0.13612 0.9266 0.0
O48 O 0.1955 0.16987 0.91306 0.0
C49 C 0.1236 0.14202 0.88959 0.0
C50 C 0.17474 0.10513 0.884 0.0
O51 O 0.18471 0.12912 0.88002 0.0
O52 O 0.15943 0.0962 0.89553 0.0
C53 C 0.20257 0.19718 0.86522 0.0
O54 O 0.18009 0.18038 0.85878 0.0
C55 C 0.18687 0.15845 0.9261 0.0
Zn56 Zn 0.85053 0.99357 0.90258 0.0
Zn57 Zn 0.81768 0.00199 0.88635 0.0
O58 O 0.8139 0.96757 0.87695 0.0
O59 O 0.83741 0.95838 0.89293 0.0
O60 O 0.78926 0.00491 0.87525 0.0
O61 O 0.835 0.99559 0.92279 0.0
O62 O 0.80602 0.00056 0.9093 0.0
C63 C 0.82222 0.95235 0.88137 0.0
C64 C 0.87581 0.04045 0.88356 0.0
O65 O 0.85249 0.0351 0.88039 0.0
O66 O 0.87988 0.0255 0.89225 0.0
C67 C 0.78642 0.00323 0.86059 0.0
O68 O 0.80382 0.00124 0.85199 0.0
C69 C 0.81487 -0.0019 0.92233 0.0
Zn70 Zn 0.96006 0.83572 0.90362 0.0
Zn71 Zn 0.96817 0.80458 0.88539 0.0
O72 O 0.00234 0.83987 0.88221 0.0
O73 O 0.9952 0.86603 0.89712 0.0
O74 O 0.97497 0.77943 0.87329 0.0
O75 O 0.95715 0.81518 0.92266 0.0
O76 O 0.96365 0.78883 0.90755 0.0
C77 C 0.00988 0.86261 0.88777 0.0
C78 C 0.92156 0.81307 0.8795 0.0
O79 O 0.93559 0.80334 0.875 0.0
O80 O 0.92754 0.82692 0.89169 0.0
C81 C 0.9827 0.78288 0.85926 0.0
O82 O 0.98519 0.80333 0.85164 0.0
C83 C 0.95952 0.79512 0.92102 0.0
Zn84 Zn 0.78603 0.47465 0.42945 0.0
Zn85 Zn 0.82711 0.51365 0.44216 0.0
O86 O 0.82715 0.48122 0.45136 0.0
O87 O 0.78958 0.44871 0.44293 0.0
O88 O 0.86069 0.54313 0.45066 0.0
O89 O 0.80118 0.48382 0.40807 0.0
O90 O 0.83395 0.51923 0.41843 0.0
C91 C 0.81011 0.45688 0.45107 0.0
C92 C 0.77343 0.50872 0.44636 0.0
O93 O 0.79732 0.51964 0.45074 0.0
O94 O 0.76448 0.48999 0.43673 0.0
C95 C 0.86553 0.54646 0.46512 0.0
O96 O 0.8473 0.53111 0.47505 0.0
C97 C 0.82223 0.50548 0.40649 0.0
Zn98 Zn 0.50152 0.30548 0.41181 0.0
Zn99 Zn 0.47052 0.31253 0.43046 0.0
O100 O 0.50637 0.34433 0.43608 0.0
O101 O 0.53245 0.33859 0.42026 0.0
O102 O 0.44549 0.31897 0.44308 0.0
O103 O 0.48309 0.30605 0.39263 0.0
O104 O 0.4575 0.31333 0.408 0.0
C105 C 0.52931 0.35173 0.43086 0.0
C106 C 0.47642 0.26369 0.43358 0.0
O107 O 0.467 0.2776 0.43882 0.0
O108 O 0.49107 0.27109 0.42171 0.0
C109 C 0.44276 0.31669 0.45774 0.0
O110 O 0.45635 0.30854 0.46572 0.0
C111 C 0.46414 0.3102 0.39439 0.0
Zn112 Zn 0.69527 0.20596 0.43236 0.0
Zn113 Zn 0.68246 0.16532 0.45066 0.0
O114 O 0.64986 0.1698 0.45251 0.0
O115 O 0.66086 0.20406 0.43759 0.0
O116 O 0.67259 0.13249 0.46278 0.0
O117 O 0.69842 0.18765 0.41367 0.0
O118 O 0.68836 0.15396 0.42886 0.0
C119 C 0.64457 0.1865 0.44665 0.0
C120 C 0.73058 0.21845 0.45802 0.0
O121 O 0.71486 0.19483 0.46208 0.0
O122 O 0.72684 0.22755 0.44559 0.0
C123 C 0.65587 0.12388 0.47374 0.0
O124 O 0.64524 0.13775 0.47838 0.0
C125 C 0.69439 0.16462 0.41547 0.0
Zn126 Zn 0.80681 0.4606 0.22724 0.0
Zn127 Zn 0.84774 0.49705 0.21451 0.0
O128 O 0.81738 0.49838 0.20304 0.0
O129 O 0.78341 0.46106 0.2104 0.0
O130 O 0.87963 0.52792 0.2054 0.0
O131 O 0.81232 0.48089 0.2469 0.0
O132 O 0.85174 0.50769 0.23777 0.0
C133 C 0.79307 0.48136 0.20198 0.0
C134 C 0.83986 0.4421 0.21606 0.0
O135 O 0.85128 0.46438 0.20934 0.0
O136 O 0.82141 0.43655 0.22557 0.0
C137 C 0.88254 0.5322 0.19087 0.0
O138 O 0.86503 0.51489 0.18131 0.0
C139 C 0.83516 0.50022 0.24886 0.0
Zn140 Zn 0.54489 0.37807 0.23116 0.0
Zn141 Zn 0.50406 0.36031 0.21177 0.0
O142 O 0.51105 0.32954 0.21153 0.0
O143 O 0.54386 0.34317 0.22806 0.0
O144 O 0.47144 0.34818 0.19886 0.0
O145 O 0.52524 0.38311 0.24857 0.0
O146 O 0.49082 0.36553 0.23311 0.0
C147 C 0.52773 0.32579 0.21881 0.0
C148 C 0.55647 0.40952 0.20378 0.0
O149 O 0.53311 0.39246 0.19995 0.0
O150 O 0.56589 0.40799 0.21668 0.0
C151 C 0.46291 0.32952 0.18908 0.0
O152 O 0.47662 0.31791 0.18627 0.0
C153 C 0.50118 0.37506 0.24626 0.0
Zn154 Zn 0.63362 0.16371 0.25496 0.0
Zn155 Zn 0.64178 0.13424 0.23581 0.0
O156 O 0.67385 0.17051 0.2314 0.0
O157 O 0.66654 0.19555 0.24719 0.0
O158 O 0.64949 0.11044 0.22287 0.0
O159 O 0.63392 0.14454 0.27381 0.0
O160 O 0.64046 0.11908 0.25793 0.0
C161 C 0.68048 0.19313 0.23681 0.0
C162 C 0.59321 0.1403 0.23224 0.0
O163 O 0.60779 0.13186 0.22674 0.0
O164 O 0.59944 0.1533 0.24476 0.0
C165 C 0.64386 0.10421 0.20868 0.0
O166 O 0.63083 0.11326 0.20091 0.0
C167 C 0.63723 0.12515 0.27167 0.0
Zn168 Zn 0.4613 0.80729 0.75442 0.0
Zn169 Zn 0.50061 0.84644 0.76951 0.0
O170 O 0.50135 0.81384 0.77785 0.0
O171 O 0.46721 0.78126 0.76625 0.0
O172 O 0.53228 0.87585 0.77983 0.0
O173 O 0.47837 0.82186 0.73379 0.0
O174 O 0.51033 0.85502 0.7463 0.0
C175 C 0.4862 0.78934 0.77568 0.0
C176 C 0.44452 0.83623 0.77336 0.0
O177 O 0.46862 0.84935 0.77731 0.0
O178 O 0.43679 0.81785 0.76354 0.0
C179 C 0.53317 0.88319 0.79381 0.0
O180 O 0.51182 0.87179 0.80238 0.0
C181 C 0.49978 0.84346 0.73358 0.0
Zn182 Zn 0.16664 0.62844 0.75344 0.0
Zn183 Zn 0.13862 0.64035 0.77219 0.0
O184 O 0.17492 0.67371 0.77332 0.0
O185 O 0.19809 0.66442 0.75714 0.0
O186 O 0.1162 0.65106 0.78423 0.0
O187 O 0.14303 0.62169 0.73534 0.0
O188 O 0.12093 0.63387 0.75051 0.0
C189 C 0.19655 0.68024 0.76649 0.0
C190 C 0.14716 0.59447 0.7799 0.0
O191 O 0.13748 0.60877 0.7839 0.0
O192 O 0.16001 0.59889 0.76741 0.0
C193 C 0.10754 0.6456 0.79805 0.0
O194 O 0.11299 0.63049 0.80662 0.0
C195 C 0.12442 0.62632 0.73728 0.0
Zn196 Zn 0.37144 0.53477 0.75888 0.0
Zn197 Zn 0.35888 0.49574 0.77885 0.0
O198 O 0.32679 0.50071 0.7806 0.0
O199 O 0.33673 0.53275 0.76402 0.0
O200 O 0.34979 0.46466 0.79261 0.0
O201 O 0.37463 0.51449 0.7412 0.0
O202 O 0.36189 0.48132 0.75736 0.0
C203 C 0.32105 0.51646 0.7739 0.0
C204 C 0.40778 0.54997 0.784 0.0
O205 O 0.39235 0.52669 0.78877 0.0
O206 O 0.40334 0.55798 0.77137 0.0
C207 C 0.33421 0.4584 0.80411 0.0
O208 O 0.3246 0.47354 0.80793 0.0
C209 C 0.36869 0.49102 0.74377 0.0
Zn210 Zn 0.48815 0.78181 0.56827 0.0
Zn211 Zn 0.51761 0.8198 0.54904 0.0
O212 O 0.48124 0.81635 0.54587 0.0
O213 O 0.45634 0.78362 0.56144 0.0
O214 O 0.54106 0.85084 0.53563 0.0
O215 O 0.50889 0.80126 0.58681 0.0
O216 O 0.53374 0.83363 0.57097 0.0
C217 C 0.45874 0.80056 0.55152 0.0
C218 C 0.51089 0.76502 0.54498 0.0
O219 O 0.51984 0.78819 0.53969 0.0
O220 O 0.49742 0.75793 0.5573 0.0
C221 C 0.53306 0.85605 0.52315 0.0
O222 O 0.50932 0.8396 0.51808 0.0
C223 C 0.52817 0.82402 0.58465 0.0
Zn224 Zn 0.20106 0.69933 0.57024 0.0
Zn225 Zn 0.16097 0.68485 0.55216 0.0
O226 O 0.16735 0.65393 0.54884 0.0
O227 O 0.20425 0.66867 0.56193 0.0
O228 O 0.12824 0.67479 0.53997 0.0
O229 O 0.18186 0.69711 0.58971 0.0
O230 O 0.14803 0.68662 0.57443 0.0
C231 C 0.18671 0.65149 0.5532 0.0
C232 C 0.21225 0.7368 0.5468 0.0
O233 O 0.19026 0.71889 0.54152 0.0
O234 O 0.22029 0.73399 0.55985 0.0
C235 C 0.12655 0.67596 0.52532 0.0
O236 O 0.14779 0.68458 0.51675 0.0
C237 C 0.15829 0.69147 0.58794 0.0
Zn238 Zn 0.29153 0.48609 0.58142 0.0
Zn239 Zn 0.30078 0.45779 0.56178 0.0
O240 O 0.33374 0.49367 0.55854 0.0
O241 O 0.32559 0.51792 0.57452 0.0
O242 O 0.30794 0.43398 0.54847 0.0
O243 O 0.29021 0.46539 0.59991 0.0
O244 O 0.29873 0.44169 0.58369 0.0
C245 C 0.34029 0.51593 0.56448 0.0
C246 C 0.25297 0.46532 0.55769 0.0
O247 O 0.26786 0.45725 0.5522 0.0
O248 O 0.25815 0.47695 0.57066 0.0
C249 C 0.31228 0.43661 0.53394 0.0
O250 O 0.31076 0.45528 0.52649 0.0
C251 C 0.29433 0.44658 0.59747 0.0
H252 H 0.43051 0.35024 0.19146 0.0
H253 H 0.38538 0.33112 0.18217 0.0
H254 H 0.39003 0.26619 0.16239 0.0
H255 H 0.43538 0.28544 0.17135 0.0
H256 H 0.3646 0.28097 0.14334 0.0
H257 H 0.36062 0.26085 0.19768 0.0
H258 H 0.37048 0.27083 0.22553 0.0
H259 H 0.33374 0.31812 0.22484 0.0
H260 H 0.32398 0.30871 0.19691 0.0
H261 H 0.21698 0.19164 0.16129 0.0
H262 H 0.26246 0.21558 0.17026 0.0
H263 H 0.28055 0.27472 0.13531 0.0
H264 H 0.23526 0.25059 0.12603 0.0
H265 H 0.29456 0.2627 0.18183 0.0
H266 H 0.34149 0.29507 0.12098 0.0
H267 H 0.3312 0.2809 0.09363 0.0
H268 H 0.28121 0.20132 0.10838 0.0
H269 H 0.29148 0.21496 0.13579 0.0
C270 C 0.42203 0.33201 0.185 0.0
C271 C 0.43648 0.31925 0.18224 0.0
C272 C 0.39618 0.32105 0.17977 0.0
C273 C 0.38419 0.297 0.17183 0.0
C274 C 0.39888 0.28473 0.16853 0.0
C275 C 0.4248 0.29575 0.17369 0.0
C276 C 0.35611 0.28419 0.16734 0.0
C277 C 0.3493 0.27708 0.15175 0.0
C278 C 0.33609 0.27872 0.17836 0.0
C279 C 0.34181 0.28429 0.19517 0.0
C280 C 0.35482 0.27354 0.20344 0.0
C281 C 0.36036 0.27907 0.21924 0.0
C282 C 0.3528 0.29516 0.22694 0.0
C283 C 0.33962 0.3057 0.21886 0.0
C284 C 0.33406 0.30025 0.20304 0.0
C285 C 0.23055 0.20988 0.15561 0.0
C286 C 0.22257 0.21905 0.14283 0.0
C287 C 0.25654 0.22357 0.16077 0.0
C288 C 0.275 0.2467 0.15329 0.0
C289 C 0.26675 0.25664 0.14106 0.0
C290 C 0.24083 0.24286 0.13581 0.0
C291 C 0.30308 0.25968 0.15781 0.0
C292 C 0.30988 0.26681 0.17341 0.0
C293 C 0.32305 0.26461 0.14687 0.0
C294 C 0.31704 0.25611 0.13042 0.0
C295 C 0.32838 0.27454 0.11837 0.0
C296 C 0.32254 0.2666 0.10287 0.0
C297 C 0.30548 0.24024 0.09928 0.0
C298 C 0.29433 0.22174 0.11118 0.0
C299 C 0.30014 0.22958 0.1267 0.0
H300 H 0.30096 0.23414 0.08727 0.0
H301 H 0.35711 0.29942 0.23918 0.0
H302 H 0.74685 0.99775 0.12305 0.0
H303 H 0.71578 0.00865 0.13494 0.0
H304 H 0.75712 0.02419 0.17852 0.0
H305 H 0.78835 0.01326 0.16674 0.0
H306 H 0.70224 -0.0019 0.18201 0.0
H307 H 0.77089 0.07372 0.15517 0.0
H308 H 0.79799 0.09701 0.13237 0.0
H309 H 0.7288 0.08174 0.10713 0.0
H310 H 0.70124 0.05802 0.12973 0.0
H311 H 0.67471 0.08642 0.22107 0.0
H312 H 0.69318 0.06265 0.20802 0.0
H313 H 0.65333 0.06142 0.16568 0.0
H314 H 0.63517 0.08597 0.17864 0.0
H315 H 0.70249 0.07599 0.15979 0.0
H316 H 0.63396 0.00489 0.18747 0.0
H317 H 0.60641 0.98126 0.21004 0.0
H318 H 0.67354 0.9868 0.23332 0.0
H319 H 0.70159 0.0108 0.21098 0.0
C320 C 0.74917 0.00312 0.13523 0.0
C321 C 0.77029 0.00493 0.14391 0.0
C322 C 0.73139 0.00937 0.14199 0.0
C323 C 0.73439 0.01756 0.15754 0.0
C324 C 0.75453 0.01796 0.16648 0.0
C325 C 0.7724 0.01179 0.15972 0.0
C326 C 0.71781 0.02757 0.16414 0.0
C327 C 0.70236 0.01521 0.17725 0.0
C328 C 0.71742 0.04942 0.1576 0.0
C329 C 0.73399 0.06385 0.14407 0.0
C330 C 0.76144 0.07516 0.14471 0.0
C331 C 0.77688 0.08846 0.13184 0.0
C332 C 0.76512 0.09079 0.1183 0.0
C333 C 0.73788 0.07988 0.11762 0.0
C334 C 0.72234 0.06652 0.13046 0.0
C335 C 0.66961 0.08092 0.20902 0.0
C336 C 0.65347 0.08815 0.20089 0.0
C337 C 0.68007 0.06712 0.20159 0.0
C338 C 0.67435 0.05987 0.18593 0.0
C339 C 0.65792 0.06671 0.17781 0.0
C340 C 0.64754 0.08071 0.18522 0.0
C341 C 0.68704 0.04676 0.17787 0.0
C342 C 0.70191 0.0586 0.16447 0.0
C343 C 0.68673 0.02434 0.18411 0.0
C344 C 0.66992 0.00982 0.19758 0.0
C345 C 0.64289 0.00124 0.19745 0.0
C346 C 0.62718 0.98775 0.2102 0.0
C347 C 0.63823 0.98257 0.22312 0.0
C348 C 0.66501 0.99083 0.22331 0.0
C349 C 0.68082 0.00434 0.21059 0.0
H350 H 0.62603 0.97213 0.23298 0.0
H351 H 0.77711 0.10109 0.10834 0.0
H352 H 0.91949 0.57345 0.20787 0.0
H353 H 0.94916 0.61802 0.19878 0.0
H354 H 0.92176 0.59435 0.15185 0.0
H355 H 0.89212 0.54962 0.1608 0.0
H356 H 0.97542 0.62964 0.15329 0.0
H357 H 0.89456 0.62105 0.17373 0.0
H358 H 0.86088 0.61012 0.19395 0.0
H359 H 0.91925 0.6668 0.22465 0.0
H360 H 0.95336 0.6778 0.20467 0.0
H361 H 0.99003 0.74147 0.11534 0.0
H362 H 0.97609 0.69925 0.12749 0.0
H363 H 0.00384 0.73731 0.17189 0.0
H364 H 0.01746 0.77991 0.1598 0.0
H365 H 0.95595 0.69655 0.17446 0.0
H366 H 0.03585 0.70996 0.15252 0.0
H367 H 0.06949 0.721 0.13228 0.0
H368 H 0.01418 0.65604 0.10461 0.0
H369 H 0.98007 0.64481 0.12457 0.0
C370 C 0.92005 0.57758 0.19557 0.0
C371 C 0.90317 0.55804 0.18507 0.0
C372 C 0.93701 0.60309 0.19041 0.0
C373 C 0.93734 0.60954 0.17469 0.0
C374 C 0.92174 0.58976 0.16404 0.0
C375 C 0.90474 0.56422 0.16919 0.0
C376 C 0.95216 0.63723 0.16953 0.0
C377 C 0.97115 0.6443 0.15784 0.0
C378 C 0.94706 0.65647 0.17583 0.0
C379 C 0.92654 0.65002 0.18779 0.0
C380 C 0.90024 0.63104 0.18484 0.0
C381 C 0.88107 0.62485 0.19625 0.0
C382 C 0.88794 0.6377 0.21059 0.0
C383 C 0.91398 0.65682 0.21354 0.0
C384 C 0.93323 0.66305 0.20218 0.0
C385 C 0.99343 0.741 0.12767 0.0
C386 C 0.00482 0.76411 0.13661 0.0
C387 C 0.98561 0.71679 0.13459 0.0
C388 C 0.98925 0.71511 0.15057 0.0
C389 C 0.00096 0.73817 0.15952 0.0
C390 C 0.00875 0.76248 0.15259 0.0
C391 C 0.97901 0.68902 0.15797 0.0
C392 C 0.96073 0.68215 0.17007 0.0
C393 C 0.98485 0.67004 0.15206 0.0
C394 C 0.00534 0.67664 0.14002 0.0
C395 C 0.03079 0.69813 0.14207 0.0
C396 C 0.04996 0.70441 0.13065 0.0
C397 C 0.04397 0.68926 0.11716 0.0
C398 C 0.0188 0.66776 0.11507 0.0
C399 C -0.00046 0.66141 0.12644 0.0
H400 H 0.05884 0.69415 0.10833 0.0
H401 H 0.87307 0.63289 0.21941 0.0
H402 H 0.35323 0.42463 0.80109 0.0
H403 H 0.33476 0.3806 0.81203 0.0
H404 H 0.27473 0.3899 0.83513 0.0
H405 H 0.29353 0.43418 0.82462 0.0
H406 H 0.29024 0.36506 0.85346 0.0
H407 H 0.26348 0.35675 0.8 0.0
H408 H 0.2702 0.36374 0.77172 0.0
H409 H 0.31518 0.3245 0.77144 0.0
H410 H 0.309 0.31759 0.79977 0.0
H411 H 0.19183 0.21808 0.83986 0.0
H412 H 0.21786 0.26251 0.82967 0.0
H413 H 0.27829 0.27897 0.8635 0.0
H414 H 0.25199 0.23474 0.87408 0.0
H415 H 0.26403 0.29095 0.81677 0.0
H416 H 0.30465 0.34183 0.87587 0.0
H417 H 0.29295 0.33459 0.90369 0.0
H418 H 0.21134 0.28813 0.89181 0.0
H419 H 0.22253 0.29538 0.86395 0.0
C420 C 0.33626 0.41741 0.80864 0.0
C421 C 0.32471 0.43282 0.81189 0.0
C422 C 0.32566 0.39218 0.81483 0.0
C423 C 0.30306 0.38174 0.82417 0.0
C424 C 0.29214 0.3975 0.82793 0.0
C425 C 0.30289 0.42282 0.82188 0.0
C426 C 0.2901 0.3541 0.82955 0.0
C427 C 0.28466 0.34888 0.84544 0.0
C428 C 0.28241 0.33291 0.81907 0.0
C429 C 0.28601 0.3369 0.80202 0.0
C430 C 0.27495 0.34978 0.79392 0.0
C431 C 0.27865 0.3537 0.77789 0.0
C432 C 0.29318 0.34464 0.7698 0.0
C433 C 0.30397 0.33156 0.77773 0.0
C434 C 0.30037 0.32761 0.79377 0.0
C435 C 0.21077 0.23105 0.84505 0.0
C436 C 0.2197 0.22297 0.8579 0.0
C437 C 0.22567 0.25645 0.83918 0.0
C438 C 0.24983 0.27423 0.84598 0.0
C439 C 0.25945 0.26576 0.85827 0.0
C440 C 0.24444 0.24044 0.86426 0.0
C441 C 0.26419 0.30193 0.84068 0.0
C442 C 0.26991 0.30716 0.8248 0.0
C443 C 0.27147 0.3231 0.85111 0.0
C444 C 0.26448 0.31891 0.86784 0.0
C445 C 0.28421 0.33015 0.87921 0.0
C446 C 0.27766 0.32603 0.89498 0.0
C447 C 0.25143 0.31083 0.89952 0.0
C448 C 0.23166 0.29981 0.88829 0.0
C449 C 0.23809 0.3039 0.8725 0.0
H450 H 0.24641 0.30764 0.91173 0.0
H451 H 0.29602 0.3477 0.75738 0.0
H452 H 0.77203 0.99584 0.82992 0.0
H453 H 0.72891 0.98359 0.81919 0.0
H454 H 0.70194 0.98991 0.86476 0.0
H455 H 0.74488 0.00207 0.8756 0.0
H456 H 0.67014 0.94283 0.85142 0.0
H457 H 0.70885 0.03285 0.83679 0.0
H458 H 0.74201 0.07456 0.825 0.0
H459 H 0.72692 0.03768 0.78018 0.0
H460 H 0.69391 0.99562 0.79173 0.0
H461 H 0.54294 0.90334 0.82337 0.0
H462 H 0.58583 0.9316 0.83531 0.0
H463 H 0.62393 0.93425 0.79192 0.0
H464 H 0.58129 0.90665 0.77983 0.0
H465 H 0.64911 0.98075 0.80594 0.0
H466 H 0.61618 0.89048 0.82057 0.0
H467 H 0.58412 0.84765 0.83174 0.0
H468 H 0.58985 0.88414 0.87593 0.0
H469 H 0.62171 0.92726 0.86495 0.0
C470 C 0.75709 0.99511 0.83761 0.0
C471 C 0.76184 -0.00031 0.85364 0.0
C472 C 0.73248 0.98821 0.83145 0.0
C473 C 0.71224 0.98587 0.84118 0.0
C474 C 0.71729 0.99159 0.85705 0.0
C475 C 0.74188 -0.00144 0.86322 0.0
C476 C 0.68516 0.97486 0.83511 0.0
C477 C 0.66541 0.95146 0.84169 0.0
C478 C 0.67921 0.98574 0.82217 0.0
C479 C 0.69903 0.01102 0.81516 0.0
C480 C 0.71274 0.03357 0.82444 0.0
C481 C 0.73149 0.05729 0.81779 0.0
C482 C 0.73661 0.05876 0.80185 0.0
C483 C 0.72294 0.03651 0.79252 0.0
C484 C 0.70419 0.01273 0.79912 0.0
C485 C 0.56043 0.91023 0.81632 0.0
C486 C 0.5587 0.90247 0.80071 0.0
C487 C 0.58493 0.92633 0.82316 0.0
C488 C 0.6081 0.93467 0.81457 0.0
C489 C 0.60633 0.92803 0.79879 0.0
C490 C 0.5819 0.91211 0.79191 0.0
C491 C 0.63421 0.94863 0.82218 0.0
C492 C 0.65378 0.97244 0.81585 0.0
C493 C 0.64016 0.93802 0.83528 0.0
C494 C 0.62106 0.91212 0.8419 0.0
C495 C 0.61044 0.88939 0.83264 0.0
C496 C 0.59234 0.86506 0.83894 0.0
C497 C 0.58489 0.86319 0.85452 0.0
C498 C 0.59559 0.88563 0.86385 0.0
C499 C 0.61367 0.91002 0.8576 0.0
H500 H 0.57088 0.84434 0.85938 0.0
H501 H 0.75113 0.07714 0.79673 0.0
H502 H 0.08575 0.63913 0.82714 0.0
H503 H 0.06172 0.65993 0.83751 0.0
H504 H 0.07049 0.6988 0.79361 0.0
H505 H 0.09453 0.67841 0.78323 0.0
H506 H 0.08378 0.73243 0.81776 0.0
H507 H 0.0121 0.64698 0.80408 0.0
H508 H 0.98684 0.59864 0.80461 0.0
H509 H 0.97718 0.60013 0.85401 0.0
H510 H 0.00269 0.6485 0.85379 0.0
H511 H -0.00011 0.7839 0.82953 0.0
H512 H 0.01809 0.7578 0.81891 0.0
H513 H 0.00423 0.71716 0.86264 0.0
H514 H 0.98545 0.74266 0.87322 0.0
H515 H 0.99341 0.68386 0.83919 0.0
H516 H 0.06495 0.76827 0.85342 0.0
H517 H 0.09071 0.8166 0.85362 0.0
H518 H 0.10175 0.8171 0.80426 0.0
H519 H 0.07572 0.76875 0.80373 0.0
C520 C 0.08244 0.65201 0.81969 0.0
C521 C 0.09212 0.65714 0.80438 0.0
C522 C 0.06863 0.66379 0.8256 0.0
C523 C 0.06424 0.68082 0.81629 0.0
C524 C 0.07371 0.68577 0.801 0.0
C525 C 0.08741 0.67402 0.79508 0.0
C526 C 0.05057 0.69429 0.82252 0.0
C527 C 0.06389 0.7218 0.82227 0.0
C528 C 0.02493 0.68042 0.8288 0.0
C529 C 0.00954 0.65135 0.82894 0.0
C530 C 0.00478 0.63699 0.81507 0.0
C531 C 0.99038 0.60959 0.81531 0.0
C532 C 0.98047 0.59632 0.82934 0.0
C533 C 0.98489 0.61043 0.84315 0.0
C534 C -0.0007 0.63784 0.84298 0.0
C535 C 0.00046 0.76922 0.83684 0.0
C536 C 0.99145 0.76555 0.85227 0.0
C537 C 0.01096 0.75439 0.83077 0.0
C538 C 0.01297 0.73587 0.84008 0.0
C539 C 0.00296 0.73139 0.85526 0.0
C540 C 0.9923 0.74607 0.8613 0.0
C541 C 0.02652 0.722 0.83426 0.0
C542 C 0.01328 0.69448 0.83466 0.0
C543 C 0.05236 0.73584 0.82822 0.0
C544 C 0.06817 0.76491 0.82851 0.0
C545 C 0.07271 0.77869 0.84259 0.0
C546 C 0.08738 0.80609 0.84277 0.0
C547 C 0.0978 0.81991 0.82896 0.0
C548 C 0.09363 0.80636 0.81494 0.0
C549 C 0.07894 0.77897 0.8147 0.0
H550 H 0.10915 0.84112 0.82912 0.0
H551 H 0.96933 0.5751 0.82951 0.0
H552 H 0.883 0.55888 0.4951 0.0
H553 H 0.92833 0.58645 0.50384 0.0
H554 H 0.95417 0.60386 0.4562 0.0
H555 H 0.90897 0.57635 0.44734 0.0
H556 H 0.98231 0.58692 0.47287 0.0
H557 H 0.95542 0.65088 0.47853 0.0
H558 H 0.92711 0.66821 0.48731 0.0
H559 H 0.94132 0.65714 0.53488 0.0
H560 H 0.96943 0.63938 0.52638 0.0
H561 H 0.11485 0.67469 0.49435 0.0
H562 H 0.07135 0.65782 0.48268 0.0
H563 H 0.03614 0.63945 0.52829 0.0
H564 H 0.07935 0.6566 0.54002 0.0
H565 H 0.01392 0.66028 0.51062 0.0
H566 H 0.03631 0.59227 0.5054 0.0
H567 H 0.06377 0.57355 0.49729 0.0
H568 H 0.05696 0.59073 0.44961 0.0
H569 H 0.02973 0.60988 0.45747 0.0
C570 C 0.89827 0.56886 0.48648 0.0
C571 C 0.89238 0.56532 0.47053 0.0
C572 C 0.92415 0.58468 0.4915 0.0
C573 C 0.94458 0.59724 0.48066 0.0
C574 C 0.93867 0.59432 0.46474 0.0
C575 C 0.91281 0.57863 0.45972 0.0
C576 C 0.97225 0.61193 0.4859 0.0
C577 C 0.98939 0.60331 0.48088 0.0
C578 C 0.98124 0.63287 0.49664 0.0
C579 C 0.96437 0.64359 0.50181 0.0
C580 C 0.95234 0.65193 0.49086 0.0
C581 C 0.93636 0.66188 0.49579 0.0
C582 C 0.93237 0.66372 0.51164 0.0
C583 C 0.94441 0.65568 0.52261 0.0
C584 C 0.96039 0.6457 0.51774 0.0
C585 C 0.09785 0.66719 0.50189 0.0
C586 C 0.10056 0.66682 0.5181 0.0
C587 C 0.07302 0.65751 0.49521 0.0
C588 C 0.05049 0.64713 0.50462 0.0
C589 C 0.05325 0.64739 0.52081 0.0
C590 C 0.078 0.6571 0.52749 0.0
C591 C 0.02387 0.63508 0.4977 0.0
C592 C 0.00693 0.64413 0.50244 0.0
C593 C 0.01495 0.61436 0.48679 0.0
C594 C 0.03126 0.60279 0.48204 0.0
C595 C 0.04085 0.59225 0.4932 0.0
C596 C 0.05634 0.58153 0.48865 0.0
C597 C 0.06217 0.58103 0.47295 0.0
C598 C 0.05246 0.59118 0.46177 0.0
C599 C 0.037 0.60196 0.46626 0.0
H600 H 0.07416 0.57272 0.46945 0.0
H601 H 0.91999 0.67143 0.51544 0.0
H602 H 0.32134 0.43501 0.50279 0.0
H603 H 0.33977 0.41056 0.49005 0.0
H604 H 0.34273 0.37745 0.53417 0.0
H605 H 0.3243 0.40165 0.54698 0.0
H606 H 0.38968 0.39912 0.51817 0.0
H607 H 0.29832 0.3395 0.50826 0.0
H608 H 0.25386 0.32661 0.4989 0.0
H609 H 0.28373 0.35043 0.45263 0.0
H610 H 0.32846 0.36382 0.46176 0.0
H611 H 0.43037 0.3128 0.48872 0.0
H612 H 0.4046 0.32928 0.50191 0.0
H613 H 0.39188 0.35674 0.4581 0.0
H614 H 0.41694 0.33975 0.44481 0.0
H615 H 0.34848 0.33626 0.47464 0.0
H616 H 0.43934 0.39845 0.48402 0.0
H617 H 0.48459 0.41326 0.49269 0.0
H618 H 0.4568 0.38714 0.53906 0.0
H619 H 0.41131 0.37185 0.5306 0.0
C620 C 0.32566 0.42231 0.50975 0.0
C621 C 0.32141 0.42035 0.5259 0.0
C622 C 0.33611 0.4083 0.50245 0.0
C623 C 0.34255 0.39216 0.51118 0.0
C624 C 0.33791 0.38982 0.52724 0.0
C625 C 0.32729 0.40363 0.53452 0.0
C626 C 0.35537 0.37874 0.50372 0.0
C627 C 0.38051 0.38504 0.50882 0.0
C628 C 0.34367 0.36097 0.49125 0.0
C629 C 0.31679 0.35289 0.48573 0.0
C630 C 0.29545 0.3422 0.49611 0.0
C631 C 0.27019 0.33476 0.49085 0.0
C632 C 0.26598 0.33776 0.47519 0.0
C633 C 0.28702 0.34815 0.46476 0.0
C634 C 0.31233 0.35564 0.46997 0.0
C635 C 0.42192 0.32217 0.48189 0.0
C636 C 0.42588 0.32512 0.46573 0.0
C637 C 0.40728 0.33168 0.48945 0.0
C638 C 0.39665 0.34464 0.48103 0.0
C639 C 0.3999 0.34686 0.46484 0.0
C640 C 0.41433 0.33719 0.45727 0.0
C641 C 0.38286 0.35665 0.48907 0.0
C642 C 0.3576 0.35019 0.48406 0.0
C643 C 0.39457 0.37455 0.50152 0.0
C644 C 0.4219 0.38374 0.50664 0.0
C645 C 0.44285 0.39568 0.49604 0.0
C646 C 0.46855 0.40419 0.50092 0.0
C647 C 0.47356 0.40107 0.51641 0.0
C648 C 0.45288 0.3895 0.52706 0.0
C649 C 0.42715 0.38092 0.52223 0.0
H650 H 0.49346 0.40768 0.52017 0.0
H651 H 0.24641 0.33198 0.47113 0.0
H652 H 0.6742 0.09054 0.46688 0.0
H653 H 0.65572 0.04494 0.47501 0.0
H654 H 0.59717 0.05081 0.50219 0.0
H655 H 0.6158 0.0966 0.49433 0.0
H656 H 0.61498 0.02367 0.51748 0.0
H657 H 0.58261 0.02291 0.46627 0.0
H658 H 0.58628 0.0342 0.43843 0.0
H659 H 0.63071 0.99548 0.43047 0.0
H660 H 0.62762 0.98427 0.45831 0.0
H661 H 0.5176 0.878 0.50051 0.0
H662 H 0.54113 0.92337 0.49144 0.0
H663 H 0.60753 0.93844 0.51997 0.0
H664 H 0.58389 0.89327 0.52941 0.0
H665 H 0.58546 0.95506 0.47663 0.0
H666 H 0.63291 -0.0013 0.53612 0.0
H667 H 0.62501 0.98731 0.56396 0.0
H668 H 0.5423 0.9399 0.55524 0.0
H669 H 0.54968 0.9513 0.52741 0.0
C670 C 0.65755 0.08223 0.47471 0.0
C671 C 0.64634 0.09715 0.47987 0.0
C672 C 0.64694 0.05612 0.47929 0.0
C673 C 0.6248 0.04436 0.48898 0.0
C674 C 0.61422 0.05949 0.49465 0.0
C675 C 0.62488 0.08565 0.49013 0.0
C676 C 0.61217 0.01609 0.49286 0.0
C677 C 0.60864 0.00868 0.50855 0.0
C678 C 0.60345 0.99651 0.48119 0.0
C679 C 0.60511 0.00298 0.46441 0.0
C680 C 0.59332 0.01696 0.4586 0.0
C681 C 0.59527 0.02333 0.44282 0.0
C682 C 0.60878 0.01563 0.4327 0.0
C683 C 0.62028 0.00147 0.43833 0.0
C684 C 0.61842 0.99508 0.45411 0.0
C685 C 0.53736 0.89084 0.5047 0.0
C686 C 0.54874 0.88213 0.51585 0.0
C687 C 0.5508 0.91678 0.49947 0.0
C688 C 0.57588 0.93442 0.50525 0.0
C689 C 0.58797 0.92529 0.5156 0.0
C690 C 0.57446 0.89944 0.52094 0.0
C691 C 0.58856 0.96267 0.50126 0.0
C692 C 0.59205 0.97007 0.48556 0.0
C693 C 0.59664 0.98224 0.5129 0.0
C694 C 0.59191 0.97563 0.52967 0.0
C695 C 0.61304 0.98593 0.54017 0.0
C696 C 0.60865 0.97946 0.55594 0.0
C697 C 0.58318 0.96282 0.56135 0.0
C698 C 0.56203 0.95271 0.55102 0.0
C699 C 0.56631 0.95915 0.53525 0.0
H700 H 0.57983 0.9578 0.57356 0.0
H701 H 0.6103 0.0206 0.42049 0.0
H702 H 0.07316 0.19987 0.10207 0.0
H703 H 0.03291 0.1932 0.11372 0.0
H704 H 0.05841 0.18107 0.15846 0.0
H705 H 0.0989 0.18703 0.14643 0.0
H706 H 0.01643 0.14043 0.15207 0.0
H707 H 0.03314 0.22589 0.15338 0.0
H708 H 0.05042 0.27213 0.14614 0.0
H709 H 0.00189 0.24824 0.10537 0.0
H710 H 0.98461 0.20187 0.11217 0.0
H711 H 0.8781 0.06191 0.142 0.0
H712 H 0.91503 0.10019 0.15453 0.0
H713 H 0.94895 0.13025 0.10948 0.0
H714 H 0.91269 0.09223 0.09706 0.0
H715 H 0.95716 0.17045 0.13153 0.0
H716 H 0.96297 0.08757 0.12793 0.0
H717 H 0.94596 0.04155 0.13591 0.0
H718 H 0.95229 0.06409 0.1839 0.0
H719 H 0.96912 0.11018 0.17616 0.0
C720 C 0.07077 0.19704 0.11454 0.0
C721 C 0.0889 0.19359 0.12331 0.0
C722 C 0.0477 0.19343 0.12131 0.0
C723 C 0.04229 0.18646 0.13706 0.0
C724 C 0.06201 0.18633 0.14628 0.0
C725 C 0.08526 0.18994 0.13944 0.0
C726 C 0.0144 0.17321 0.14233 0.0
C727 C 0.00359 0.14759 0.1482 0.0
C728 C 0.99724 0.18233 0.13766 0.0
C729 C 0.00744 0.21026 0.13338 0.0
C730 C 0.0262 0.23045 0.14284 0.0
C731 C 0.03601 0.25672 0.1388 0.0
C732 C 0.02722 0.26312 0.12532 0.0
C733 C 0.0086 0.24326 0.11585 0.0
C734 C -0.00128 0.21695 0.11982 0.0
C735 C 0.8931 0.07713 0.13481 0.0
C736 C 0.89281 0.07403 0.11859 0.0
C737 C 0.91411 0.09895 0.14197 0.0
C738 C 0.93474 0.11802 0.13293 0.0
C739 C 0.93318 0.11589 0.11668 0.0
C740 C 0.91257 0.09403 0.10959 0.0
C741 C 0.96012 0.13765 0.13985 0.0
C742 C 0.97024 0.16423 0.13628 0.0
C743 C 0.97667 0.12969 0.14693 0.0
C744 C 0.96701 0.10214 0.15149 0.0
C745 C 0.96065 0.08264 0.14017 0.0
C746 C 0.95105 0.05657 0.14465 0.0
C747 C 0.94797 0.04991 0.1604 0.0
C748 C 0.95462 0.06929 0.17171 0.0
C749 C 0.96418 0.09536 0.16729 0.0
H750 H 0.94046 0.02974 0.16387 0.0
H751 H 0.03486 0.28347 0.12221 0.0
H752 H 0.83755 0.94295 0.13934 0.0
H753 H 0.84693 0.90808 0.14692 0.0
H754 H 0.84608 0.8879 0.09859 0.0
H755 H 0.83702 0.92245 0.09114 0.0
H756 H 0.82754 0.84448 0.11692 0.0
H757 H 0.90231 0.93498 0.11537 0.0
H758 H 0.92677 0.98091 0.1244 0.0
H759 H 0.9267 0.95472 0.17097 0.0
H760 H 0.90194 0.9086 0.16221 0.0
H761 H 0.93386 0.8418 0.08492 0.0
H762 H 0.89841 0.84774 0.09507 0.0
H763 H 0.91902 0.83882 0.14186 0.0
H764 H 0.95434 0.83209 0.13164 0.0
H765 H 0.91947 0.88662 0.13574 0.0
H766 H 0.86021 0.79607 0.13181 0.0
H767 H 0.83904 0.75185 0.12024 0.0
H768 H 0.81175 0.77861 0.08201 0.0
H769 H 0.83309 0.82311 0.0932 0.0
C770 C 0.83845 0.93036 0.13046 0.0
C771 C 0.83681 0.93537 0.11467 0.0
C772 C 0.84388 0.91056 0.13477 0.0
C773 C 0.84746 0.89555 0.1233 0.0
C774 C 0.84333 0.89911 0.10766 0.0
C775 C 0.8383 0.91896 0.10338 0.0
C776 C 0.85967 0.87935 0.12682 0.0
C777 C 0.84749 0.85346 0.12127 0.0
C778 C 0.88544 0.89083 0.13291 0.0
C779 C 0.9 0.91844 0.1382 0.0
C780 C 0.90733 0.93906 0.12756 0.0
C781 C 0.92126 0.96509 0.13262 0.0
C782 C 0.92822 0.97072 0.14825 0.0
C783 C 0.92123 0.95032 0.15887 0.0
C784 C 0.90723 0.92424 0.15387 0.0
C785 C 0.93039 0.8404 0.09735 0.0
C786 C 0.94679 0.83653 0.10751 0.0
C787 C 0.91005 0.84363 0.10313 0.0
C788 C 0.90596 0.84351 0.11921 0.0
C789 C 0.9217 0.83868 0.12941 0.0
C790 C 0.94177 0.83481 0.12357 0.0
C791 C 0.88787 0.8523 0.12499 0.0
C792 C 0.89903 0.87693 0.13221 0.0
C793 C 0.86133 0.83977 0.12021 0.0
C794 C 0.8483 0.813 0.11337 0.0
C795 C 0.84983 0.79259 0.12089 0.0
C796 C 0.83777 0.76745 0.1144 0.0
C797 C 0.82405 0.76242 0.1004 0.0
C798 C 0.82234 0.78252 0.09287 0.0
C799 C 0.83437 0.80771 0.0993 0.0
H800 H 0.81474 0.74295 0.0954 0.0
H801 H 0.93914 0.99088 0.15213 0.0
H802 H 0.08993 0.0854 0.129 0.0
H803 H 0.08515 0.04358 0.1373 0.0
H804 H 0.16468 0.06954 0.12252 0.0
H805 H 0.16997 0.11219 0.11532 0.0
H806 H 0.08328 0.0104 0.11909 0.0
H807 H 0.18799 0.0315 0.13652 0.0
H808 H 0.22636 0.06464 0.15115 0.0
H809 H 0.17677 0.08509 0.17711 0.0
H810 H 0.13804 0.05183 0.16281 0.0
H811 H 0.10484 0.91583 0.09518 0.0
H812 H 0.12805 0.95948 0.10667 0.0
H813 H 0.08258 0.92952 0.14861 0.0
H814 H 0.0595 0.88552 0.13719 0.0
H815 H 0.14595 0.98851 0.1441 0.0
H816 H 0.04622 0.94176 0.13718 0.0
H817 H 0.00736 0.9078 0.12315 0.0
H818 H 0.04552 0.9397 0.07952 0.0
H819 H 0.08464 0.97367 0.09335 0.0
C820 C 0.10658 0.08235 0.12795 0.0
C821 C 0.13024 0.10178 0.12147 0.0
C822 C 0.10387 0.05847 0.13267 0.0
C823 C 0.12449 0.05319 0.13053 0.0
C824 C 0.14861 0.07316 0.12465 0.0
C825 C 0.15159 0.09746 0.12039 0.0
C826 C 0.11932 0.02583 0.13225 0.0
C827 C 0.09679 0.00582 0.125 0.0
C828 C 0.13695 0.01943 0.13969 0.0
C829 C 0.16012 0.03927 0.1485 0.0
C830 C 0.18523 0.04296 0.14541 0.0
C831 C 0.20706 0.06179 0.15363 0.0
C832 C 0.20402 0.07701 0.16502 0.0
C833 C 0.17912 0.07336 0.16825 0.0
C834 C 0.15723 0.05454 0.16007 0.0
C835 C 0.10104 0.9182 0.10723 0.0
C836 C 0.0802 0.8975 0.11525 0.0
C837 C 0.11441 0.94316 0.11382 0.0
C838 C 0.10678 0.94772 0.1284 0.0
C839 C 0.08888 0.92629 0.13739 0.0
C840 C 0.07566 0.90114 0.13084 0.0
C841 C 0.10999 0.9739 0.13124 0.0
C842 C 0.13223 0.99348 0.13888 0.0
C843 C 0.09183 0.98007 0.12458 0.0
C844 C 0.06822 0.96011 0.11626 0.0
C845 C 0.04624 0.94148 0.1246 0.0
C846 C 0.02422 0.92224 0.11669 0.0
C847 C 0.02396 0.92164 0.10045 0.0
C848 C 0.04574 0.94023 0.09209 0.0
C849 C 0.06781 0.95947 0.09995 0.0
H850 H 0.00689 0.90679 0.09435 0.0
H851 H 0.22095 0.09159 0.17136 0.0
H852 H 0.04686 0.8642 0.86731 0.0
H853 H 0.08967 0.90249 0.86078 0.0
H854 H 0.07349 0.95021 0.89188 0.0
H855 H 0.0314 0.91258 0.89851 0.0
H856 H 0.10317 0.95056 0.84792 0.0
H857 H 0.12455 0.98943 0.9121 0.0
H858 H 0.11944 0.97093 0.93839 0.0
H859 H 0.11884 0.90312 0.91946 0.0
H860 H 0.12438 0.92137 0.89306 0.0
H861 H 0.14395 0.07921 0.8599 0.0
H862 H 0.13171 0.0346 0.85314 0.0
H863 H 0.19705 0.04159 0.8799 0.0
H864 H 0.20795 0.08594 0.88762 0.0
H865 H 0.15857 0.00571 0.8914 0.0
H866 H 0.18258 0.01686 0.83955 0.0
H867 H 0.19046 0.03366 0.81272 0.0
H868 H 0.1075 -0.00031 0.80557 0.0
H869 H 0.09906 0.98304 0.83242 0.0
C870 C 0.05254 0.88287 0.87277 0.0
C871 C 0.03574 0.88528 0.8835 0.0
C872 C 0.07695 0.90469 0.869 0.0
C873 C 0.08494 0.92907 0.87604 0.0
C874 C 0.068 0.93147 0.88655 0.0
C875 C 0.0438 0.90988 0.89028 0.0
C876 C 0.11059 0.95264 0.87248 0.0
C877 C 0.11565 0.96265 0.8573 0.0
C878 C 0.12775 0.96764 0.88461 0.0
C879 C 0.1249 0.95681 0.90056 0.0
C880 C 0.12359 0.97069 0.91353 0.0
C881 C 0.12055 0.96021 0.92847 0.0
C882 C 0.11881 0.93587 0.9306 0.0
C883 C 0.12016 0.92197 0.9178 0.0
C884 C 0.12322 0.93236 0.90284 0.0
C885 C 0.1566 0.07174 0.86358 0.0
C886 C 0.1769 0.08592 0.8742 0.0
C887 C 0.14963 0.04605 0.85967 0.0
C888 C 0.16324 0.03427 0.86609 0.0
C889 C 0.18598 0.04997 0.87492 0.0
C890 C 0.19248 0.07548 0.87918 0.0
C891 C 0.14988 0.00504 0.86695 0.0
C892 C 0.14702 0.9937 0.88172 0.0
C893 C 0.13541 0.98869 0.85431 0.0
C894 C 0.1402 -0.00137 0.83807 0.0
C895 C 0.16599 0.01307 0.8323 0.0
C896 C 0.17056 0.02257 0.81707 0.0
C897 C 0.1495 0.01773 0.80744 0.0
C898 C 0.1238 0.00336 0.81303 0.0
C899 C 0.11911 0.99382 0.82825 0.0
H900 H 0.15308 0.02511 0.79565 0.0
H901 H 0.11642 0.92778 0.94217 0.0
H902 H 0.11931 0.1862 0.88677 0.0
H903 H 0.07966 0.1878 0.87915 0.0
H904 H 0.0392 0.10448 0.87049 0.0
H905 H 0.07799 0.10264 0.87861 0.0
H906 H 0.03116 0.13893 0.84718 0.0
H907 H 0.03028 0.11832 0.90423 0.0
H908 H 0.05058 0.13203 0.93017 0.0
H909 H 0.04907 0.20399 0.92619 0.0
H910 H 0.02898 0.19072 0.90014 0.0
H911 H 0.91238 0.03885 0.86584 0.0
H912 H 0.95565 0.07514 0.85951 0.0
H913 H 0.93531 0.12949 0.88023 0.0
H914 H 0.89135 0.09257 0.88653 0.0
H915 H 0.97803 0.13399 0.89322 0.0
H916 H 0.95695 0.13966 0.84204 0.0
H917 H 0.93632 0.1259 0.81625 0.0
H918 H 0.97946 0.08605 0.80763 0.0
H919 H 5e-05 0.09916 0.83345 0.0
C920 C 0.10201 0.16839 0.883 0.0
C921 C 0.10146 0.14425 0.88339 0.0
C922 C 0.07952 0.16935 0.87861 0.0
C923 C 0.05668 0.14628 0.87414 0.0
C924 C 0.05675 0.12252 0.87374 0.0
C925 C 0.0788 0.12144 0.87851 0.0
C926 C 0.03137 0.1454 0.87178 0.0
C927 C 0.01948 0.13831 0.85711 0.0
C928 C 0.01667 0.14591 0.88461 0.0
C929 C 0.02841 0.15368 0.90026 0.0
C930 C 0.03442 0.13711 0.90888 0.0
C931 C 0.04586 0.14478 0.92359 0.0
C932 C 0.05117 0.16889 0.92981 0.0
C933 C 0.04499 0.18534 0.92135 0.0
C934 C 0.03359 0.17777 0.90662 0.0
C935 C 0.91682 0.05866 0.86851 0.0
C936 C 0.89871 0.06307 0.87659 0.0
C937 C 0.94151 0.07948 0.86479 0.0
C938 C 0.94876 0.1052 0.86923 0.0
C939 C 0.93006 0.10987 0.87654 0.0
C940 C 0.905 0.08887 0.88009 0.0
C941 C 0.97704 0.12547 0.86874 0.0
C942 C 0.98964 0.13611 0.88295 0.0
C943 C 0.99241 0.12863 0.85536 0.0
C944 C 0.98016 0.12053 0.83973 0.0
C945 C 0.96198 0.12786 0.83469 0.0
C946 C 0.95028 0.12017 0.82005 0.0
C947 C 0.9566 0.10514 0.8103 0.0
C948 C 0.97464 0.09776 0.81518 0.0
C949 C 0.98641 0.1054 0.82981 0.0
H950 H 0.94752 0.0992 0.79897 0.0
H951 H 0.06003 0.17481 0.9412 0.0
H952 H 0.87409 0.80186 0.89022 0.0
H953 H 0.84375 0.81254 0.87758 0.0
H954 H 0.88953 0.83176 0.83541 0.0
H955 H 0.92022 0.82093 0.84827 0.0
H956 H 0.88737 0.87246 0.84553 0.0
H957 H 0.82184 0.78699 0.83417 0.0
H958 H 0.79276 0.73936 0.83741 0.0
H959 H 0.75552 0.75291 0.87644 0.0
H960 H 0.78461 0.80058 0.87363 0.0
H961 H 0.82341 0.94625 0.8499 0.0
H962 H 0.82649 0.91065 0.83685 0.0
H963 H 0.81156 0.86974 0.88056 0.0
H964 H 0.8089 0.90515 0.89351 0.0
H965 H 0.79207 0.8352 0.85506 0.0
H966 H 0.87342 0.91614 0.87181 0.0
H967 H 0.90364 0.96391 0.87008 0.0
H968 H 0.91084 0.95731 0.82083 0.0
H969 H 0.88037 0.9095 0.82228 0.0
C970 C 0.87699 0.80718 0.87803 0.0
C971 C 0.89945 0.81066 0.87022 0.0
C972 C 0.85951 0.81316 0.87073 0.0
C973 C 0.86421 0.82293 0.85547 0.0
C974 C 0.88539 0.82411 0.84715 0.0
C975 C 0.90283 0.81779 0.85446 0.0
C976 C 0.85065 0.83707 0.85001 0.0
C977 C 0.86632 0.86399 0.84691 0.0
C978 C 0.8232 0.82622 0.85182 0.0
C979 C 0.80544 0.79748 0.85363 0.0
C980 C 0.80754 0.77984 0.8435 0.0
C981 C 0.79103 0.7528 0.84526 0.0
C982 C 0.77228 0.74311 0.85711 0.0
C983 C 0.77 0.76044 0.86723 0.0
C984 C 0.78646 0.7875 0.86552 0.0
C985 C 0.8197 0.92909 0.85652 0.0
C986 C 0.81615 0.92841 0.8727 0.0
C987 C 0.82151 0.90883 0.84908 0.0
C988 C 0.8195 0.88767 0.85777 0.0
C989 C 0.81308 0.88578 0.8736 0.0
C990 C 0.81169 0.90608 0.88102 0.0
C991 C 0.82915 0.87043 0.85168 0.0
C992 C 0.8128 0.84314 0.85269 0.0
C993 C 0.85599 0.88083 0.84796 0.0
C994 C 0.87446 0.90942 0.84712 0.0
C995 C 0.88138 0.92494 0.86061 0.0
C996 C 0.89853 0.95199 0.85968 0.0
C997 C 0.9091 0.96365 0.84535 0.0
C998 C 0.90259 0.94826 0.83192 0.0
C999 C 0.88537 0.9212 0.83278 0.0
H1000 H 0.92238 0.9846 0.84465 0.0
H1001 H 0.75953 0.72217 0.85846 0.0
H1002 H 0.76031 0.50638 0.47694 0.0
H1003 H 0.71534 0.49228 0.48528 0.0
H1004 H 0.69737 0.5077 0.43923 0.0
H1005 H 0.74213 0.52231 0.43114 0.0
H1006 H 0.6609 0.50474 0.45907 0.0
H1007 H 0.70271 0.45079 0.44627 0.0
H1008 H 0.7352 0.43693 0.45181 0.0
H1009 H 0.70637 0.41736 0.49859 0.0
H1010 H 0.67384 0.43129 0.4933 0.0
H1011 H 0.58022 0.37154 0.4222 0.0
H1012 H 0.61915 0.40764 0.43381 0.0
H1013 H 0.57103 0.42084 0.46629 0.0
H1014 H 0.53141 0.38428 0.45462 0.0
H1015 H 0.6357 0.41109 0.46403 0.0
H1016 H 0.61018 0.49123 0.47329 0.0
H1017 H 0.57892 0.50466 0.464 0.0
H1018 H 0.5756 0.47025 0.41942 0.0
H1019 H 0.60704 0.45692 0.4284 0.0
C1020 C 0.74727 0.50856 0.46898 0.0
C1021 C 0.75437 0.51492 0.45334 0.0
C1022 C 0.72144 0.50024 0.4737 0.0
C1023 C 0.70268 0.49786 0.46268 0.0
C1024 C 0.7113 0.50897 0.44791 0.0
C1025 C 0.737 0.5174 0.44326 0.0
C1026 C 0.67448 0.47775 0.46444 0.0
C1027 C 0.6552 0.48429 0.46065 0.0
C1028 C 0.6669 0.45096 0.46634 0.0
C1029 C 0.68612 0.44228 0.46946 0.0
C1030 C 0.70336 0.44353 0.45772 0.0
C1031 C 0.72178 0.43571 0.46082 0.0
C1032 C 0.72289 0.42635 0.47556 0.0
C1033 C 0.70552 0.42469 0.4872 0.0
C1034 C 0.68711 0.43254 0.48417 0.0
C1035 C 0.57772 0.38207 0.43177 0.0
C1036 C 0.55264 0.37488 0.43752 0.0
C1037 C 0.60007 0.40268 0.43845 0.0
C1038 C 0.598 0.41677 0.451 0.0
C1039 C 0.57302 0.41017 0.45662 0.0
C1040 C 0.55046 0.38932 0.44994 0.0
C1041 C 0.62247 0.43805 0.45796 0.0
C1042 C 0.64098 0.43156 0.46337 0.0
C1043 C 0.62931 0.46472 0.4572 0.0
C1044 C 0.61062 0.47277 0.4516 0.0
C1045 C 0.60276 0.48656 0.46151 0.0
C1046 C 0.58503 0.49416 0.4563 0.0
C1047 C 0.57519 0.4882 0.44116 0.0
C1048 C 0.58314 0.47474 0.43117 0.0
C1049 C 0.60088 0.46713 0.43632 0.0
H1050 H 0.56146 0.49409 0.43715 0.0
H1051 H 0.73717 0.42033 0.47796 0.0
H1052 H 0.47325 0.21991 0.42145 0.0
H1053 H 0.48825 0.19305 0.43405 0.0
H1054 H 0.49139 0.22996 0.47802 0.0
H1055 H 0.47691 0.25767 0.46512 0.0
H1056 H 0.5367 0.2386 0.47196 0.0
H1057 H 0.45806 0.15988 0.47379 0.0
H1058 H 0.41438 0.124 0.46614 0.0
H1059 H 0.44855 0.10483 0.42782 0.0
H1060 H 0.4924 0.14084 0.43504 0.0
H1061 H 0.60477 0.15287 0.46629 0.0
H1062 H 0.56534 0.15486 0.47365 0.0
H1063 H 0.58963 0.22158 0.44353 0.0
H1064 H 0.62864 0.2199 0.43624 0.0
H1065 H 0.52395 0.1519 0.45625 0.0
H1066 H 0.58126 0.26651 0.46045 0.0
H1067 H 0.62435 0.30135 0.46975 0.0
H1068 H 0.63012 0.24645 0.49996 0.0
H1069 H 0.58685 0.21134 0.49104 0.0
C1070 C 0.47593 0.22144 0.43395 0.0
C1071 C 0.47435 0.24114 0.44226 0.0
C1072 C 0.48437 0.20585 0.44123 0.0
C1073 C 0.49125 0.20949 0.45704 0.0
C1074 C 0.48636 0.22684 0.4658 0.0
C1075 C 0.47788 0.24256 0.45845 0.0
C1076 C 0.50911 0.20031 0.46296 0.0
C1077 C 0.53357 0.21939 0.46887 0.0
C1078 C 0.50498 0.17495 0.45952 0.0
C1079 C 0.47863 0.15313 0.45501 0.0
C1080 C 0.45629 0.14812 0.46368 0.0
C1081 C 0.43147 0.12773 0.45942 0.0
C1082 C 0.4287 0.11213 0.44651 0.0
C1083 C 0.45074 0.11689 0.43784 0.0
C1084 C 0.47561 0.13726 0.44205 0.0
C1085 C 0.60162 0.16791 0.46123 0.0
C1086 C 0.61998 0.18634 0.45075 0.0
C1087 C 0.57911 0.169 0.46545 0.0
C1088 C 0.57484 0.18867 0.45936 0.0
C1089 C 0.5928 0.20657 0.44863 0.0
C1090 C 0.6151 0.20548 0.4444 0.0
C1091 C 0.55168 0.19098 0.46381 0.0
C1092 C 0.52649 0.17066 0.4599 0.0
C1093 C 0.55489 0.215 0.46941 0.0
C1094 C 0.58075 0.23625 0.47506 0.0
C1095 C 0.59157 0.26189 0.46919 0.0
C1096 C 0.61608 0.28169 0.47437 0.0
C1097 C 0.62997 0.27611 0.48543 0.0
C1098 C 0.61935 0.25074 0.49137 0.0
C1099 C 0.59485 0.23087 0.48624 0.0
H1100 H 0.64895 0.29146 0.48941 0.0
H1101 H 0.40946 0.09636 0.44323 0.0
H1102 H 0.7731 0.41417 0.46623 0.0
H1103 H 0.77748 0.37836 0.47722 0.0
H1104 H 0.85994 0.41935 0.46581 0.0
H1105 H 0.85581 0.45602 0.45528 0.0
H1106 H 0.82666 0.36816 0.4514 0.0
H1107 H 0.84948 0.40618 0.50139 0.0
H1108 H 0.84678 0.42938 0.52456 0.0
H1109 H 0.76868 0.36637 0.53365 0.0
H1110 H 0.77071 0.34294 0.5104 0.0
H1111 H 0.78339 0.23773 0.45725 0.0
H1112 H 0.81563 0.28173 0.46634 0.0
H1113 H 0.75364 0.28774 0.48947 0.0
H1114 H 0.72216 0.24329 0.48144 0.0
H1115 H 0.79679 0.32186 0.50188 0.0
H1116 H 0.76673 0.29834 0.4479 0.0
H1117 H 0.7624 0.27537 0.4231 0.0
H1118 H 0.84629 0.31128 0.42003 0.0
H1119 H 0.85104 0.33425 0.44491 0.0
C1120 C 0.79233 0.41591 0.4665 0.0
C1121 C 0.81409 0.4377 0.45986 0.0
C1122 C 0.79486 0.39556 0.47288 0.0
C1123 C 0.81908 0.39633 0.47244 0.0
C1124 C 0.84119 0.41861 0.46644 0.0
C1125 C 0.83879 0.43943 0.46041 0.0
C1126 C 0.81946 0.37181 0.47552 0.0
C1127 C 0.82116 0.35831 0.46258 0.0
C1128 C 0.81163 0.3589 0.49002 0.0
C1129 C 0.81028 0.37278 0.50411 0.0
C1130 C 0.83166 0.39731 0.50827 0.0
C1131 C 0.83026 0.41051 0.52144 0.0
C1132 C 0.80758 0.39935 0.53057 0.0
C1133 C 0.78626 0.37496 0.52657 0.0
C1134 C 0.78755 0.36169 0.51342 0.0
C1135 C 0.77713 0.24787 0.46516 0.0
C1136 C 0.75044 0.23732 0.46868 0.0
C1137 C 0.79545 0.27316 0.47019 0.0
C1138 C 0.7869 0.28857 0.47799 0.0
C1139 C 0.76083 0.27651 0.48333 0.0
C1140 C 0.74275 0.25097 0.47876 0.0
C1141 C 0.80245 0.31775 0.47752 0.0
C1142 C 0.80364 0.33207 0.49089 0.0
C1143 C 0.812 0.33135 0.46324 0.0
C1144 C 0.80922 0.31766 0.44831 0.0
C1145 C 0.78422 0.30122 0.44194 0.0
C1146 C 0.78169 0.28822 0.42789 0.0
C1147 C 0.80406 0.29179 0.42003 0.0
C1148 C 0.82899 0.30846 0.42617 0.0
C1149 C 0.83162 0.32146 0.44024 0.0
H1150 H 0.80207 0.28171 0.40915 0.0
H1151 H 0.80653 0.4096 0.54076 0.0
H1152 H 0.71622 0.1964 0.21489 0.0
H1153 H 0.753 0.23653 0.20388 0.0
H1154 H 0.7332 0.28333 0.23345 0.0
H1155 H 0.69679 0.24385 0.24437 0.0
H1156 H 0.74066 0.29996 0.20338 0.0
H1157 H 0.78337 0.2734 0.2424 0.0
H1158 H 0.79647 0.24297 0.2534 0.0
H1159 H 0.83647 0.24612 0.21097 0.0
H1160 H 0.8233 0.27636 0.19966 0.0
H1161 H 0.84896 0.41149 0.23531 0.0
H1162 H 0.83414 0.36556 0.23017 0.0
H1163 H 0.82388 0.37704 0.18174 0.0
H1164 H 0.83868 0.4233 0.18696 0.0
H1165 H 0.83417 0.32681 0.21219 0.0
H1166 H 0.76148 0.33556 0.17391 0.0
H1167 H 0.74797 0.3676 0.16639 0.0
H1168 H 0.76681 0.40131 0.21213 0.0
H1169 H 0.78013 0.36928 0.21991 0.0
C1170 C 0.71984 0.21528 0.21907 0.0
C1171 C 0.70358 0.21691 0.23053 0.0
C1172 C 0.74082 0.23814 0.21277 0.0
C1173 C 0.74572 0.26288 0.21781 0.0
C1174 C 0.72964 0.26444 0.2293 0.0
C1175 C 0.70889 0.24178 0.23562 0.0
C1176 C 0.76746 0.28757 0.21136 0.0
C1177 C 0.76113 0.30558 0.20492 0.0
C1178 C 0.79415 0.2949 0.21331 0.0
C1179 C 0.80206 0.27681 0.22013 0.0
C1180 C 0.79476 0.26742 0.23538 0.0
C1181 C 0.80224 0.25025 0.24168 0.0
C1182 C 0.81721 0.24254 0.23287 0.0
C1183 C 0.82481 0.25205 0.21776 0.0
C1184 C 0.81736 0.2692 0.21141 0.0
C1185 C 0.84511 0.4046 0.2234 0.0
C1186 C 0.84453 0.42069 0.21158 0.0
C1187 C 0.83663 0.37827 0.22044 0.0
C1188 C 0.82714 0.36769 0.20566 0.0
C1189 C 0.83084 0.38478 0.19327 0.0
C1190 C 0.83946 0.41128 0.19624 0.0
C1191 C 0.80726 0.33939 0.2047 0.0
C1192 C 0.81379 0.3207 0.20981 0.0
C1193 C 0.78058 0.33142 0.20184 0.0
C1194 C 0.77202 0.35028 0.1974 0.0
C1195 C 0.76263 0.34977 0.18234 0.0
C1196 C 0.75503 0.36792 0.17804 0.0
C1197 C 0.75662 0.38653 0.18876 0.0
C1198 C 0.76564 0.38693 0.20383 0.0
C1199 C 0.77319 0.36877 0.20819 0.0
H1200 H 0.75079 0.40059 0.18539 0.0
H1201 H 0.82299 0.22925 0.23776 0.0
H1202 H 0.75176 0.44534 0.18525 0.0
H1203 H 0.71575 0.45004 0.17484 0.0
H1204 H 0.75679 0.53194 0.18743 0.0
H1205 H 0.79345 0.52744 0.19749 0.0
H1206 H 0.70871 0.49997 0.20299 0.0
H1207 H 0.73922 0.51981 0.1513 0.0
H1208 H 0.75854 0.51573 0.12676 0.0
H1209 H 0.69344 0.43786 0.12032 0.0
H1210 H 0.67389 0.44126 0.14494 0.0
H1211 H 0.57937 0.46271 0.2039 0.0
H1212 H 0.6226 0.49227 0.19269 0.0
H1213 H 0.62069 0.42659 0.16907 0.0
H1214 H 0.57678 0.39773 0.17921 0.0
H1215 H 0.65487 0.46836 0.15509 0.0
H1216 H 0.63795 0.44127 0.20956 0.0
H1217 H 0.61895 0.43874 0.23553 0.0
H1218 H 0.65901 0.52284 0.23805 0.0
H1219 H 0.67802 0.52581 0.212 0.0
C1220 C 0.75355 0.46458 0.18522 0.0
C1221 C 0.7752 0.48598 0.19225 0.0
C1222 C 0.73306 0.46731 0.17917 0.0
C1223 C 0.73363 0.49136 0.18031 0.0
C1224 C 0.75614 0.51329 0.18628 0.0
C1225 C 0.77701 0.5107 0.19202 0.0
C1226 C 0.70863 0.4915 0.17866 0.0
C1227 C 0.69724 0.49407 0.19236 0.0
C1228 C 0.69351 0.48302 0.1649 0.0
C1229 C 0.70508 0.48082 0.15002 0.0
C1230 C 0.72908 0.50174 0.14471 0.0
C1231 C 0.74007 0.49956 0.13077 0.0
C1232 C 0.72722 0.47655 0.12199 0.0
C1233 C 0.70334 0.45569 0.12712 0.0
C1234 C 0.69227 0.45776 0.14106 0.0
C1235 C 0.58754 0.45505 0.19549 0.0
C1236 C 0.57495 0.42806 0.19239 0.0
C1237 C 0.61239 0.47185 0.18923 0.0
C1238 C 0.62546 0.46147 0.18061 0.0
C1239 C 0.61127 0.43513 0.17582 0.0
C1240 C 0.58606 0.41857 0.1816 0.0
C1241 C 0.65465 0.47559 0.17962 0.0
C1242 C 0.66673 0.47553 0.16551 0.0
C1243 C 0.67039 0.48547 0.19317 0.0
C1244 C 0.65906 0.48376 0.2088 0.0
C1245 C 0.64258 0.4592 0.21565 0.0
C1246 C 0.63182 0.45769 0.23036 0.0
C1247 C 0.63769 0.48061 0.23841 0.0
C1248 C 0.65441 0.5051 0.23178 0.0
C1249 C 0.66516 0.50672 0.21704 0.0
H1250 H 0.62935 0.47941 0.24981 0.0
H1251 H 0.73577 0.4749 0.1112 0.0
H1252 H 0.50284 0.28822 0.19627 0.0
H1253 H 0.50677 0.24925 0.19153 0.0
H1254 H 0.55871 0.26935 0.23093 0.0
H1255 H 0.55546 0.30845 0.23545 0.0
H1256 H 0.57809 0.25634 0.20773 0.0
H1257 H 0.49234 0.2201 0.2319 0.0
H1258 H 0.44676 0.21121 0.23394 0.0
H1259 H 0.42861 0.17232 0.18966 0.0
H1260 H 0.4742 0.18126 0.18729 0.0
H1261 H 0.54685 0.13355 0.24269 0.0
H1262 H 0.52552 0.15615 0.23169 0.0
H1263 H 0.57202 0.17229 0.19006 0.0
H1264 H 0.59375 0.14985 0.2012 0.0
H1265 H 0.50179 0.16581 0.20755 0.0
H1266 H 0.60456 0.23756 0.18574 0.0
H1267 H 0.65008 0.24615 0.18804 0.0
H1268 H 0.6339 0.21437 0.23425 0.0
H1269 H 0.58846 0.20592 0.23225 0.0
C1270 C 0.51502 0.28426 0.20395 0.0
C1271 C 0.52889 0.30149 0.21623 0.0
C1272 C 0.51721 0.26195 0.20123 0.0
C1273 C 0.53301 0.25631 0.21088 0.0
C1274 C 0.54658 0.27337 0.22323 0.0
C1275 C 0.54461 0.2957 0.22585 0.0
C1276 C 0.53587 0.23288 0.20829 0.0
C1277 C 0.56134 0.23659 0.20743 0.0
C1278 C 0.51409 0.20703 0.20789 0.0
C1279 C 0.48673 0.20164 0.20932 0.0
C1280 C 0.47867 0.20984 0.22254 0.0
C1281 C 0.45284 0.20476 0.22377 0.0
C1282 C 0.43483 0.19129 0.21191 0.0
C1283 C 0.4426 0.1828 0.19882 0.0
C1284 C 0.46842 0.18786 0.19753 0.0
C1285 C 0.55142 0.14056 0.23082 0.0
C1286 C 0.57233 0.14054 0.22293 0.0
C1287 C 0.5392 0.15353 0.22452 0.0
C1288 C 0.54785 0.1667 0.21029 0.0
C1289 C 0.56539 0.16262 0.20119 0.0
C1290 C 0.57766 0.14957 0.20752 0.0
C1291 C 0.54397 0.18938 0.20734 0.0
C1292 C 0.51843 0.18562 0.2072 0.0
C1293 C 0.56568 0.21528 0.20732 0.0
C1294 C 0.5931 0.22083 0.20875 0.0
C1295 C 0.61079 0.2325 0.19639 0.0
C1296 C 0.63656 0.23733 0.19764 0.0
C1297 C 0.64485 0.23071 0.21126 0.0
C1298 C 0.62745 0.21941 0.22369 0.0
C1299 C 0.60171 0.21462 0.22251 0.0
H1300 H 0.66477 0.23439 0.21219 0.0
H1301 H 0.41483 0.18737 0.21288 0.0
H1302 H 0.20113 0.72044 0.78512 0.0
H1303 H 0.24102 0.76262 0.79023 0.0
H1304 H 0.28513 0.7397 0.7604 0.0
H1305 H 0.24575 0.69826 0.75501 0.0
H1306 H 0.28657 0.77492 0.80344 0.0
H1307 H 0.32948 0.78712 0.74038 0.0
H1308 H 0.31281 0.78009 0.71351 0.0
H1309 H 0.24641 0.78615 0.72857 0.0
H1310 H 0.26287 0.79365 0.7555 0.0
H1311 H 0.41397 0.8069 0.79666 0.0
H1312 H 0.36936 0.79736 0.80097 0.0
H1313 H 0.38313 0.86206 0.77118 0.0
H1314 H 0.42774 0.87049 0.76617 0.0
H1315 H 0.34644 0.82323 0.75979 0.0
H1316 H 0.35548 0.85299 0.81045 0.0
H1317 H 0.37063 0.86295 0.83759 0.0
H1318 H 0.33168 0.78069 0.84807 0.0
H1319 H 0.31662 0.77015 0.82095 0.0
C1320 C 0.21933 0.72455 0.77956 0.0
C1321 C 0.2202 0.70602 0.76957 0.0
C1322 C 0.24208 0.74862 0.78252 0.0
C1323 C 0.26597 0.75456 0.77546 0.0
C1324 C 0.26681 0.73592 0.76565 0.0
C1325 C 0.24423 0.71208 0.76265 0.0
C1326 C 0.29061 0.77955 0.77861 0.0
C1327 C 0.29967 0.78583 0.79397 0.0
C1328 C 0.30708 0.79483 0.7663 0.0
C1329 C 0.29745 0.79097 0.75 0.0
C1330 C 0.31147 0.78724 0.73795 0.0
C1331 C 0.30201 0.78309 0.72271 0.0
C1332 C 0.27856 0.78266 0.71934 0.0
C1333 C 0.26455 0.78645 0.7312 0.0
C1334 C 0.27393 0.79064 0.74646 0.0
C1335 C 0.40792 0.82 0.79175 0.0
C1336 C 0.42419 0.83948 0.78119 0.0
C1337 C 0.38227 0.8146 0.79425 0.0
C1338 C 0.37251 0.82888 0.78638 0.0
C1339 C 0.39001 0.85061 0.77734 0.0
C1340 C 0.41563 0.85568 0.7746 0.0
C1341 C 0.34352 0.81707 0.78462 0.0
C1342 C 0.33339 0.81322 0.76944 0.0
C1343 C 0.32595 0.80474 0.79717 0.0
C1344 C 0.33485 0.81079 0.8136 0.0
C1345 C 0.35023 0.83699 0.8185 0.0
C1346 C 0.35881 0.84274 0.8339 0.0
C1347 C 0.3521 0.82247 0.84455 0.0
C1348 C 0.33679 0.79638 0.83982 0.0
C1349 C 0.32816 0.79051 0.82443 0.0
H1350 H 0.35878 0.82696 0.85646 0.0
H1351 H 0.27125 0.77939 0.70753 0.0
H1352 H 0.30508 0.54963 0.76304 0.0
H1353 H 0.26557 0.55083 0.76975 0.0
H1354 H 0.24128 0.48444 0.80021 0.0
H1355 H 0.28143 0.48341 0.79373 0.0
H1356 H 0.21598 0.51656 0.76512 0.0
H1357 H 0.20324 0.49127 0.82982 0.0
H1358 H 0.22935 0.49198 0.85246 0.0
H1359 H 0.29829 0.55687 0.83269 0.0
H1360 H 0.27252 0.55672 0.81005 0.0
H1361 H 0.1174 0.54143 0.77835 0.0
H1362 H 0.13499 0.51276 0.78487 0.0
H1363 H 0.19924 0.5768 0.80915 0.0
H1364 H 0.18068 0.60472 0.80351 0.0
H1365 H 0.19589 0.53284 0.81863 0.0
H1366 H 0.19905 0.5723 0.76749 0.0
H1367 H 0.1788 0.57862 0.74397 0.0
H1368 H 0.13743 0.49554 0.73574 0.0
H1369 H 0.15756 0.4888 0.75918 0.0
C1370 C 0.2914 0.5352 0.77115 0.0
C1371 C 0.29647 0.51641 0.77783 0.0
C1372 C 0.26871 0.53587 0.77496 0.0
C1373 C 0.25042 0.51775 0.7855 0.0
C1374 C 0.25522 0.49876 0.79215 0.0
C1375 C 0.27812 0.49815 0.78838 0.0
C1376 C 0.22657 0.51929 0.78928 0.0
C1377 C 0.21131 0.51963 0.77687 0.0
C1378 C 0.22036 0.52325 0.80459 0.0
C1379 C 0.23603 0.52372 0.81817 0.0
C1380 C 0.22396 0.50569 0.83033 0.0
C1381 C 0.2387 0.506 0.84316 0.0
C1382 C 0.26548 0.52438 0.84398 0.0
C1383 C 0.27757 0.54257 0.83201 0.0
C1384 C 0.26292 0.54235 0.81917 0.0
C1385 C 0.13413 0.54869 0.78609 0.0
C1386 C 0.14778 0.57523 0.79042 0.0
C1387 C 0.14446 0.53243 0.78961 0.0
C1388 C 0.1691 0.54298 0.79687 0.0
C1389 C 0.18038 0.56823 0.80336 0.0
C1390 C 0.16965 0.58422 0.80022 0.0
C1391 C 0.18601 0.5311 0.79438 0.0
C1392 C 0.1999 0.52873 0.80697 0.0
C1393 C 0.19165 0.52604 0.77915 0.0
C1394 C 0.17951 0.53003 0.76513 0.0
C1395 C 0.18557 0.55541 0.76067 0.0
C1396 C 0.17414 0.55906 0.74737 0.0
C1397 C 0.15673 0.53748 0.73842 0.0
C1398 C 0.15085 0.51222 0.74271 0.0
C1399 C 0.16229 0.50847 0.75597 0.0
H1400 H 0.14786 0.54035 0.72814 0.0
H1401 H 0.27686 0.52458 0.85392 0.0
H1402 H 0.53196 0.78897 0.78105 0.0
H1403 H 0.53579 0.75205 0.79153 0.0
H1404 H 0.45243 0.70949 0.80035 0.0
H1405 H 0.44843 0.74562 0.78946 0.0
H1406 H 0.48657 0.70304 0.82405 0.0
H1407 H 0.46821 0.7 0.76689 0.0
H1408 H 0.48142 0.71984 0.74083 0.0
H1409 H 0.55599 0.72384 0.74588 0.0
H1410 H 0.54325 0.70428 0.77207 0.0
H1411 H 0.40059 0.57468 0.80801 0.0
H1412 H 0.43167 0.61922 0.81576 0.0
H1413 H 0.49276 0.61561 0.7898 0.0
H1414 H 0.46059 0.57146 0.78099 0.0
H1415 H 0.49039 0.65224 0.77913 0.0
H1416 H 0.49858 0.63595 0.83115 0.0
H1417 H 0.48676 0.61643 0.8573 0.0
H1418 H 0.43687 0.64951 0.86393 0.0
H1419 H 0.448 0.66889 0.83775 0.0
C1420 C 0.51465 0.77195 0.78561 0.0
C1421 C 0.48986 0.76986 0.78434 0.0
C1422 C 0.51687 0.75101 0.79163 0.0
C1423 C 0.49439 0.72816 0.79678 0.0
C1424 C 0.47003 0.72706 0.7966 0.0
C1425 C 0.46772 0.74756 0.79024 0.0
C1426 C 0.49471 0.70356 0.79967 0.0
C1427 C 0.48771 0.69181 0.81438 0.0
C1428 C 0.49744 0.68956 0.78718 0.0
C1429 C 0.50493 0.701 0.77143 0.0
C1430 C 0.48747 0.70527 0.76245 0.0
C1431 C 0.49486 0.71643 0.74767 0.0
C1432 C 0.51956 0.72316 0.74172 0.0
C1433 C 0.53689 0.71867 0.75052 0.0
C1434 C 0.5296 0.70756 0.76533 0.0
C1435 C 0.42099 0.5829 0.80467 0.0
C1436 C 0.42831 0.56973 0.794 0.0
C1437 C 0.43897 0.60853 0.80916 0.0
C1438 C 0.46484 0.6212 0.80336 0.0
C1439 C 0.47294 0.60653 0.79434 0.0
C1440 C 0.45467 0.58115 0.78945 0.0
C1441 C 0.48059 0.65048 0.80353 0.0
C1442 C 0.4905 0.66331 0.78924 0.0
C1443 C 0.48107 0.6655 0.81657 0.0
C1444 C 0.4742 0.65394 0.83242 0.0
C1445 C 0.48498 0.63897 0.83814 0.0
C1446 C 0.4784 0.62793 0.85299 0.0
C1447 C 0.46109 0.63174 0.86228 0.0
C1448 C 0.45033 0.64662 0.85674 0.0
C1449 C 0.45684 0.65772 0.8419 0.0
H1450 H 0.45602 0.62316 0.87376 0.0
H1451 H 0.52525 0.7318 0.73027 0.0
H1452 H 0.47879 0.73797 0.5215 0.0
H1453 H 0.46097 0.69094 0.5189 0.0
H1454 H 0.52503 0.69651 0.54625 0.0
H1455 H 0.54175 0.74346 0.54978 0.0
H1456 H 0.46436 0.64937 0.51329 0.0
H1457 H 0.50288 0.65466 0.57436 0.0
H1458 H 0.52243 0.68536 0.59641 0.0
H1459 H 0.48017 0.72432 0.5832 0.0
H1460 H 0.46051 0.69392 0.56103 0.0
H1461 H 0.37948 0.51942 0.54534 0.0
H1462 H 0.41928 0.55947 0.53704 0.0
H1463 H 0.39502 0.60605 0.5635 0.0
H1464 H 0.3559 0.56651 0.57204 0.0
H1465 H 0.4445 0.62256 0.56853 0.0
H1466 H 0.38773 0.59823 0.52321 0.0
H1467 H 0.36179 0.56893 0.50173 0.0
H1468 H 0.43064 0.56998 0.48407 0.0
H1469 H 0.45692 0.59905 0.50558 0.0
C1470 C 0.48998 0.72944 0.52613 0.0
C1471 C 0.51143 0.74417 0.53596 0.0
C1472 C 0.47966 0.70239 0.52474 0.0
C1473 C 0.491 0.68996 0.53298 0.0
C1474 C 0.51545 0.70556 0.54021 0.0
C1475 C 0.52531 0.73252 0.54201 0.0
C1476 C 0.47426 0.66176 0.5371 0.0
C1477 C 0.4604 0.64334 0.52536 0.0
C1478 C 0.46864 0.65379 0.55286 0.0
C1479 C 0.48056 0.6723 0.56599 0.0
C1480 C 0.49786 0.66985 0.57617 0.0
C1481 C 0.50897 0.6872 0.58865 0.0
C1482 C 0.50266 0.70688 0.59114 0.0
C1483 C 0.48517 0.70919 0.58118 0.0
C1484 C 0.47408 0.69195 0.56865 0.0
C1485 C 0.38274 0.53823 0.54941 0.0
C1486 C 0.36458 0.53976 0.55942 0.0
C1487 C 0.40543 0.56108 0.54461 0.0
C1488 C 0.41014 0.58579 0.54962 0.0
C1489 C 0.39196 0.58722 0.55957 0.0
C1490 C 0.36952 0.56454 0.56444 0.0
C1491 C 0.43385 0.6105 0.54476 0.0
C1492 C 0.4491 0.6282 0.55643 0.0
C1493 C 0.43997 0.61793 0.52899 0.0
C1494 C 0.42419 0.60049 0.5161 0.0
C1495 C 0.39728 0.59202 0.51482 0.0
C1496 C 0.38252 0.5755 0.50263 0.0
C1497 C 0.39453 0.56752 0.49157 0.0
C1498 C 0.42135 0.57612 0.49266 0.0
C1499 C 0.43618 0.59262 0.50484 0.0
H1500 H 0.38308 0.55474 0.48214 0.0
H1501 H 0.51125 0.72027 0.60082 0.0
H1502 H 0.23218 0.72991 0.52016 0.0
H1503 H 0.27888 0.75628 0.51434 0.0
H1504 H 0.28507 0.81636 0.54565 0.0
H1505 H 0.23864 0.78924 0.55215 0.0
H1506 H 0.32335 0.80312 0.50793 0.0
H1507 H 0.32411 0.82504 0.57175 0.0
H1508 H 0.29647 0.80968 0.59534 0.0
H1509 H 0.25814 0.73071 0.57796 0.0
H1510 H 0.28515 0.74579 0.55413 0.0
H1511 H 0.45599 0.83958 0.53539 0.0
H1512 H 0.41607 0.84109 0.52874 0.0
H1513 H 0.36868 0.76464 0.54929 0.0
H1514 H 0.40796 0.76326 0.55621 0.0
H1515 H 0.3556 0.79819 0.56038 0.0
H1516 H 0.37427 0.77476 0.50959 0.0
H1517 H 0.40133 0.78245 0.48614 0.0
H1518 H 0.40006 0.85351 0.47704 0.0
H1519 H 0.37324 0.84639 0.50057 0.0
C1520 C 0.24309 0.7495 0.525 0.0
C1521 C 0.23201 0.7574 0.53679 0.0
C1522 C 0.26993 0.76456 0.52174 0.0
C1523 C 0.28565 0.78782 0.53004 0.0
C1524 C 0.27339 0.79815 0.5394 0.0
C1525 C 0.24673 0.78279 0.54297 0.0
C1526 C 0.3139 0.79659 0.53231 0.0
C1527 C 0.33064 0.80258 0.51942 0.0
C1528 C 0.32339 0.79546 0.54725 0.0
C1529 C 0.30635 0.78656 0.56117 0.0
C1530 C 0.30962 0.80446 0.57295 0.0
C1531 C 0.29403 0.79581 0.58632 0.0
C1532 C 0.27544 0.76926 0.5881 0.0
C1533 C 0.27239 0.7513 0.57651 0.0
C1534 C 0.28768 0.7599 0.56303 0.0
C1535 C 0.437 0.82309 0.5384 0.0
C1536 C 0.43513 0.80146 0.54653 0.0
C1537 C 0.41425 0.82394 0.53454 0.0
C1538 C 0.38941 0.80304 0.5386 0.0
C1539 C 0.38764 0.78113 0.54619 0.0
C1540 C 0.41017 0.78039 0.55017 0.0
C1541 C 0.36494 0.80394 0.53599 0.0
C1542 C 0.34885 0.79981 0.54892 0.0
C1543 C 0.35604 0.80603 0.52106 0.0
C1544 C 0.37206 0.81022 0.50693 0.0
C1545 C 0.37996 0.79214 0.50266 0.0
C1546 C 0.39521 0.79637 0.48934 0.0
C1547 C 0.40249 0.81851 0.48014 0.0
C1548 C 0.39446 0.83641 0.4842 0.0
C1549 C 0.37923 0.83228 0.49752 0.0
H1550 H 0.4143 0.82175 0.46983 0.0
H1551 H 0.26348 0.76258 0.59849 0.0
H1552 H 0.25838 0.48294 0.52798 0.0
H1553 H 0.2378 0.50772 0.5188 0.0
H1554 H 0.18375 0.47863 0.55729 0.0
H1555 H 0.20435 0.45413 0.56656 0.0
H1556 H 0.17875 0.50513 0.5184 0.0
H1557 H 0.21621 0.53118 0.57908 0.0
H1558 H 0.24854 0.52995 0.59687 0.0
H1559 H 0.30122 0.5451 0.55863 0.0
H1560 H 0.26925 0.54658 0.54068 0.0
H1561 H 0.14758 0.60123 0.54709 0.0
H1562 H 0.15283 0.56337 0.54102 0.0
H1563 H 0.23706 0.61392 0.54056 0.0
H1564 H 0.23184 0.65119 0.54752 0.0
H1565 H 0.22716 0.57566 0.5572 0.0
H1566 H 0.19727 0.58253 0.50669 0.0
H1567 H 0.16762 0.58539 0.48756 0.0
H1568 H 0.10537 0.50964 0.50162 0.0
H1569 H 0.13455 0.50647 0.521 0.0
C1570 C 0.24089 0.4803 0.53382 0.0
C1571 C 0.23314 0.46696 0.54809 0.0
C1572 C 0.22916 0.49455 0.52857 0.0
C1573 C 0.20953 0.49527 0.53751 0.0
C1574 C 0.19882 0.47826 0.55022 0.0
C1575 C 0.21062 0.46423 0.55551 0.0
C1576 C 0.20674 0.51887 0.5371 0.0
C1577 C 0.18931 0.52071 0.52678 0.0
C1578 C 0.22094 0.53931 0.54784 0.0
C1579 C 0.24034 0.5388 0.55858 0.0
C1580 C 0.23474 0.53432 0.57451 0.0
C1581 C 0.25298 0.53357 0.58461 0.0
C1582 C 0.27692 0.53745 0.57889 0.0
C1583 C 0.28268 0.54209 0.56305 0.0
C1584 C 0.2645 0.54285 0.55292 0.0
C1585 C 0.16716 0.60418 0.54553 0.0
C1586 C 0.18932 0.62901 0.54797 0.0
C1587 C 0.17017 0.58259 0.54193 0.0
C1588 C 0.19538 0.58569 0.54025 0.0
C1589 C 0.2174 0.61086 0.54193 0.0
C1590 C 0.21442 0.63218 0.54592 0.0
C1591 C 0.1992 0.56265 0.53833 0.0
C1592 C 0.21672 0.56059 0.54851 0.0
C1593 C 0.18561 0.54262 0.52711 0.0
C1594 C 0.16805 0.54437 0.5154 0.0
C1595 C 0.17721 0.56656 0.50578 0.0
C1596 C 0.16049 0.56822 0.49488 0.0
C1597 C 0.13461 0.54774 0.4934 0.0
C1598 C 0.12542 0.52551 0.50279 0.0
C1599 C 0.14205 0.52375 0.51372 0.0
H1600 H 0.12169 0.54908 0.48497 0.0
H1601 H 0.29099 0.53683 0.58672 0.0
H1602 H 0.21222 0.21495 0.07085 0.0
H1603 H 0.23534 0.2281 0.04575 0.0
H1604 H 0.16088 0.19482 0.02201 0.0
H1605 H 0.13796 0.18182 0.04672 0.0
H1606 H 0.23204 0.19533 0.02304 0.0
H1607 H 0.16348 0.22558 0.99024 0.0
H1608 H 0.14343 0.25293 0.99534 0.0
H1609 H 0.20179 0.29595 0.03006 0.0
H1610 H 0.22249 0.26916 0.02501 0.0
H1611 H 0.18135 0.13515 0.95407 0.0
H1612 H 0.19606 0.15612 0.97919 0.0
H1613 H 0.23576 0.23208 0.95713 0.0
H1614 H 0.22062 0.21093 0.93163 0.0
H1615 H 0.20506 0.23164 0.97941 0.0
H1616 H 0.27206 0.21133 0.97816 0.0
H1617 H 0.29421 0.18591 0.97306 0.0
H1618 H 0.24438 0.12804 0.00637 0.0
H1619 H 0.22163 0.15284 0.01151 0.0
C1620 C 0.20089 0.21096 0.06026 0.0
C1621 C 0.17328 0.19719 0.06073 0.0
C1622 C 0.21411 0.21845 0.04596 0.0
C1623 C 0.19987 0.21275 0.03201 0.0
C1624 C 0.17235 0.19995 0.0326 0.0
C1625 C 0.15923 0.19226 0.04676 0.0
C1626 C 0.21282 0.2169 0.01664 0.0
C1627 C 0.22666 0.20372 0.0135 0.0
C1628 C 0.20685 0.22892 0.0043 0.0
C1629 C 0.19458 0.24531 0.00723 0.0
C1630 C 0.17222 0.24103 -0.00114 0.0
C1631 C 0.16068 0.2564 0.00177 0.0
C1632 C 0.17132 0.27616 0.01301 0.0
C1633 C 0.19354 0.28061 0.02137 0.0
C1634 C 0.20516 0.26531 0.0185 0.0
C1635 C 0.19363 0.1563 0.95447 0.0
C1636 C 0.19961 0.1714 0.94087 0.0
C1637 C 0.20233 0.16829 0.96888 0.0
C1638 C 0.21733 0.1957 0.97009 0.0
C1639 C 0.22438 0.21089 0.95646 0.0
C1640 C 0.21576 0.19879 0.94192 0.0
C1641 C 0.22198 0.20789 0.98574 0.0
C1642 C 0.21147 0.22418 0.98894 0.0
C1643 C 0.23146 0.19914 -0.00185 0.0
C1644 C 0.24515 0.18406 0.99524 0.0
C1645 C 0.26574 0.19313 0.98436 0.0
C1646 C 0.27841 0.17882 0.98146 0.0
C1647 C 0.27072 0.15539 0.9894 0.0
C1648 C 0.25036 0.14624 0.00026 0.0
C1649 C 0.23762 0.16047 0.0032 0.0
H1650 H 0.28055 0.14433 0.98713 0.0
H1651 H 0.16235 0.28802 0.01526 0.0
H1652 H 0.78445 0.02033 0.92924 0.0
H1653 H 0.76498 0.02016 0.9547 0.0
H1654 H 0.79517 0.9726 0.97355 0.0
H1655 H 0.81483 0.97312 0.94861 0.0
H1656 H 0.7421 0.95642 0.98262 0.0
H1657 H 0.83063 0.03659 0.97767 0.0
H1658 H 0.86051 0.0791 0.96529 0.0
H1659 H 0.80597 0.10573 0.97491 0.0
H1660 H 0.77567 0.06322 0.98721 0.0
H1661 H 0.81049 0.97075 0.0479 0.0
H1662 H 0.78987 0.96909 0.02315 0.0
H1663 H 0.76291 0.01993 0.04129 0.0
H1664 H 0.78339 0.02115 0.06657 0.0
H1665 H 0.79248 0.03786 0.01348 0.0
H1666 H 0.71607 0.96247 0.02948 0.0
H1667 H 0.68868 0.92008 0.04257 0.0
H1668 H 0.71958 0.88364 0.01259 0.0
H1669 H 0.74748 0.92584 -0.00053 0.0
C1670 C 0.78661 0.00965 0.93882 0.0
C1671 C 0.80135 0.99695 0.93703 0.0
C1672 C 0.77547 0.00953 0.95329 0.0
C1673 C 0.77853 0.99622 0.96594 0.0
C1674 C 0.79237 0.98277 0.9639 0.0
C1675 C 0.80383 0.9833 0.94967 0.0
C1676 C 0.76981 0.99778 0.98183 0.0
C1677 C 0.75259 0.97425 0.98941 0.0
C1678 C 0.78264 0.02129 0.99051 0.0
C1679 C 0.80081 0.04671 0.98315 0.0
C1680 C 0.82497 0.05147 0.97703 0.0
C1681 C 0.84198 0.07555 0.97005 0.0
C1682 C 0.8351 0.09508 0.96926 0.0
C1683 C 0.81123 0.09057 0.97549 0.0
C1684 C 0.79414 0.0665 0.98246 0.0
C1685 C 0.79968 0.98112 0.04675 0.0
C1686 C 0.79857 0.99615 0.05906 0.0
C1687 C 0.78771 0.98 0.03264 0.0
C1688 C 0.77459 0.99415 0.03042 0.0
C1689 C 0.7727 0.00864 0.04285 0.0
C1690 C 0.78432 0.0093 0.05722 0.0
C1691 C 0.76638 0.99604 0.01443 0.0
C1692 C 0.7805 0.02021 0.00677 0.0
C1693 C 0.75066 0.97306 0.00568 0.0
C1694 C 0.73382 0.9474 0.01342 0.0
C1695 C 0.71711 0.94545 0.0257 0.0
C1696 C 0.70149 0.92144 0.03314 0.0
C1697 C 0.70236 0.89918 0.0284 0.0
C1698 C 0.71886 0.90089 0.01622 0.0
C1699 C 0.73454 0.92485 0.00874 0.0
H1700 H 0.69026 0.88061 0.03418 0.0
H1701 H 0.8483 0.11372 0.96386 0.0
H1702 H 0.94337 0.79884 0.94996 0.0
H1703 H 0.95043 0.78183 0.97396 0.0
H1704 H 0.98203 0.74081 0.94825 0.0
H1705 H 0.97556 0.75858 0.92389 0.0
H1706 H 0.9374 0.73765 0.98813 0.0
H1707 H 0.03292 0.74556 0.96981 0.0
H1708 H 0.06655 0.7645 0.94915 0.0
H1709 H 0.0523 0.82894 0.94428 0.0
H1710 H 0.01877 0.81043 0.96498 0.0
H1711 H 0.99386 0.7639 0.06313 0.0
H1712 H 0.98438 0.73963 0.03848 0.0
H1713 H 0.02769 0.81289 0.01375 0.0
H1714 H 0.03765 0.83677 0.03803 0.0
H1715 H 0.03258 0.777 -0.00116 0.0
H1716 H 0.95865 0.78353 0.02283 0.0
H1717 H 0.92602 0.7729 0.04372 0.0
H1718 H 0.89817 0.69075 0.03736 0.0
H1719 H 0.93083 0.701 0.01651 0.0
C1720 C 0.95144 0.78587 0.94931 0.0
C1721 C 0.9594 0.78051 0.93503 0.0
C1722 C 0.95524 0.77589 0.96309 0.0
C1723 C 0.96706 0.76026 0.96298 0.0
C1724 C 0.97314 0.75308 0.94864 0.0
C1725 C 0.96938 0.7632 0.93474 0.0
C1726 C 0.97606 0.75517 0.97803 0.0
C1727 C 0.95815 0.7455 0.99043 0.0
C1728 C 0.00306 0.76512 0.98109 0.0
C1729 C 0.0232 0.77646 0.96874 0.0
C1730 C 0.03701 0.76376 0.9643 0.0
C1731 C 0.05604 0.77442 0.95261 0.0
C1732 C 0.06148 0.79786 0.94536 0.0
C1733 C 0.04801 0.81075 0.94985 0.0
C1734 C 0.02901 0.80019 0.96156 0.0
C1735 C 0.002 0.77465 0.05245 0.0
C1736 C 0.01602 0.80224 0.05245 0.0
C1737 C 0.99651 0.7608 0.03838 0.0
C1738 C 0.00492 0.77443 0.02421 0.0
C1739 C 0.02094 0.80182 0.02447 0.0
C1740 C 0.02642 0.81554 0.0384 0.0
C1741 C 0.99414 0.76165 0.00898 0.0
C1742 C 0.01167 0.76758 0.99651 0.0
C1743 C 0.96688 0.74916 0.00586 0.0
C1744 C 0.94727 0.74301 0.0183 0.0
C1745 C 0.9456 0.76322 0.02595 0.0
C1746 C 0.92713 0.75727 0.03777 0.0
C1747 C 0.91009 0.73116 0.04189 0.0
C1748 C 0.91143 0.71096 0.03418 0.0
C1749 C 0.92991 0.71682 0.02237 0.0
H1750 H 0.8958 0.72659 0.05104 0.0
H1751 H 0.07619 0.80606 0.9363 0.0
H1752 H 0.80201 0.49598 0.27206 0.0
H1753 H 0.81309 0.51313 0.29831 0.0
H1754 H 0.89559 0.55072 0.28717 0.0
H1755 H 0.88453 0.53326 0.26055 0.0
H1756 H 0.88404 0.52221 0.31383 0.0
H1757 H 0.87018 0.58939 0.29576 0.0
H1758 H 0.84936 0.61018 0.28119 0.0
H1759 H 0.77911 0.56766 0.30831 0.0
H1760 H 0.79931 0.54628 0.32289 0.0
H1761 H 0.87247 0.54159 0.39731 0.0
H1762 H 0.88778 0.55617 0.37054 0.0
H1763 H 0.80908 0.50612 0.35359 0.0
H1764 H 0.79391 0.49118 0.37991 0.0
H1765 H 0.83639 0.55992 0.34144 0.0
H1766 H 0.84812 0.48341 0.35164 0.0
H1767 H 0.86891 0.46216 0.36582 0.0
H1768 H 0.94522 0.52528 0.35324 0.0
H1769 H 0.9248 0.54704 0.33913 0.0
C1770 C 0.82255 0.50816 0.27507 0.0
C1771 C 0.8424 0.51315 0.26424 0.0
C1772 C 0.82886 0.51819 0.29008 0.0
C1773 C 0.85517 0.53354 0.29466 0.0
C1774 C 0.87516 0.5391 0.28382 0.0
C1775 C 0.86881 0.52917 0.26864 0.0
C1776 C 0.86104 0.54125 0.31122 0.0
C1777 C 0.87444 0.53135 0.31983 0.0
C1778 C 0.84868 0.55331 0.31908 0.0
C1779 C 0.83634 0.56622 0.31045 0.0
C1780 C 0.85025 0.58436 0.29858 0.0
C1781 C 0.83855 0.59627 0.29032 0.0
C1782 C 0.81294 0.59026 0.29383 0.0
C1783 C 0.79898 0.57234 0.30563 0.0
C1784 C 0.81058 0.56037 0.31392 0.0
C1785 C 0.85851 0.53383 0.38784 0.0
C1786 C 0.83204 0.51511 0.39067 0.0
C1787 C 0.86725 0.54219 0.37262 0.0
C1788 C 0.84947 0.53231 0.36017 0.0
C1789 C 0.82303 0.5141 0.36307 0.0
C1790 C 0.81445 0.50543 0.37812 0.0
C1791 C 0.85788 0.53942 0.34386 0.0
C1792 C 0.84711 0.55206 0.33535 0.0
C1793 C 0.87283 0.53013 0.33611 0.0
C1794 C 0.88498 0.517 0.34454 0.0
C1795 C 0.86933 0.49285 0.35202 0.0
C1796 C 0.88104 0.4807 0.36002 0.0
C1797 C 0.90837 0.49241 0.36048 0.0
C1798 C 0.92405 0.51627 0.35291 0.0
C1799 C 0.91243 0.52852 0.34492 0.0
H1800 H 0.91741 0.48296 0.36667 0.0
H1801 H 0.80391 0.59948 0.28741 0.0
H1802 H 0.4553 0.33335 0.25574 0.0
H1803 H 0.436 0.32722 0.28159 0.0
H1804 H 0.49091 0.40825 0.29256 0.0
H1805 H 0.51147 0.41363 0.26709 0.0
H1806 H 0.49608 0.38137 0.3125 0.0
H1807 H 0.41946 0.37879 0.29325 0.0
H1808 H 0.38186 0.36634 0.27576 0.0
H1809 H 0.34915 0.28565 0.28899 0.0
H1810 H 0.38673 0.29752 0.3064 0.0
H1811 H 0.4423 0.34157 0.39062 0.0
H1812 H 0.43376 0.35603 0.36558 0.0
H1813 H 0.45037 0.30159 0.34164 0.0
H1814 H 0.45904 0.28729 0.36637 0.0
H1815 H 0.40474 0.32443 0.33099 0.0
H1816 H 0.50987 0.34843 0.32843 0.0
H1817 H 0.54718 0.35965 0.34603 0.0
H1818 H 0.52179 0.40119 0.37592 0.0
H1819 H 0.4846 0.3905 0.35836 0.0
C1820 C 0.46258 0.35004 0.26351 0.0
C1821 C 0.48491 0.37388 0.25957 0.0
C1822 C 0.45142 0.34661 0.2783 0.0
C1823 C 0.46192 0.36727 0.28916 0.0
C1824 C 0.48255 0.39191 0.2845 0.0
C1825 C 0.49424 0.39506 0.26993 0.0
C1826 C 0.45511 0.36187 0.30595 0.0
C1827 C 0.47597 0.36967 0.31648 0.0
C1828 C 0.42893 0.34635 0.3114 0.0
C1829 C 0.40602 0.33908 0.30112 0.0
C1830 C 0.40432 0.35837 0.29239 0.0
C1831 C 0.383 0.35141 0.28248 0.0
C1832 C 0.36315 0.32522 0.28125 0.0
C1833 C 0.36454 0.30594 0.28996 0.0
C1834 C 0.38582 0.31279 0.29989 0.0
C1835 C 0.44303 0.33195 0.38004 0.0
C1836 C 0.45177 0.31366 0.38036 0.0
C1837 C 0.43803 0.34013 0.36578 0.0
C1838 C 0.44154 0.32988 0.35183 0.0
C1839 C 0.44743 0.3096 0.35231 0.0
C1840 C 0.45261 0.30162 0.36644 0.0
C1841 C 0.44568 0.34402 0.337 0.0
C1842 C 0.42457 0.33734 0.32689 0.0
C1843 C 0.47155 0.36112 0.33189 0.0
C1844 C 0.49444 0.36854 0.34216 0.0
C1845 C 0.5124 0.36011 0.3387 0.0
C1846 C 0.53348 0.36634 0.34868 0.0
C1847 C 0.53682 0.38107 0.36211 0.0
C1848 C 0.51916 0.38973 0.36554 0.0
C1849 C 0.49808 0.38358 0.35558 0.0
H1850 H 0.5531 0.38581 0.36984 0.0
H1851 H 0.34669 0.31986 0.27355 0.0
H1852 H 0.70867 0.18315 0.38612 0.0
H1853 H 0.70274 0.15827 0.36261 0.0
H1854 H 0.6762 0.08764 0.3896 0.0
H1855 H 0.6812 0.11263 0.41348 0.0
H1856 H 0.71884 0.1294 0.34913 0.0
H1857 H 0.63023 0.03805 0.36838 0.0
H1858 H 0.59784 0.02047 0.38975 0.0
H1859 H 0.60081 0.09463 0.3939 0.0
H1860 H 0.63309 0.11251 0.37249 0.0
H1861 H 0.66228 0.09637 0.27446 0.0
H1862 H 0.67262 0.08191 0.29892 0.0
H1863 H 0.62694 0.10873 0.32415 0.0
H1864 H 0.61631 0.12254 0.30004 0.0
H1865 H 0.62449 0.068 0.33883 0.0
H1866 H 0.69472 0.15142 0.31504 0.0
H1867 H 0.72643 0.17508 0.29399 0.0
H1868 H 0.75904 0.12452 0.29923 0.0
H1869 H 0.72733 0.10048 0.32024 0.0
C1870 C 0.70187 0.16239 0.38717 0.0
C1871 C 0.69488 0.1498 0.40168 0.0
C1872 C 0.69874 0.14815 0.37366 0.0
C1873 C 0.6887 0.12095 0.37425 0.0
C1874 C 0.68361 0.10854 0.38882 0.0
C1875 C 0.68653 0.12285 0.40245 0.0
C1876 C 0.68056 0.10605 0.3594 0.0
C1877 C 0.69834 0.11526 0.34692 0.0
C1878 C 0.65396 0.08726 0.35645 0.0
C1879 C 0.63413 0.07659 0.36899 0.0
C1880 C 0.62386 0.05051 0.37384 0.0
C1881 C 0.60557 0.04053 0.38596 0.0
C1882 C 0.59734 0.05645 0.39322 0.0
C1883 C 0.60725 0.08234 0.3883 0.0
C1884 C 0.6255 0.09239 0.37617 0.0
C1885 C 0.65381 0.09835 0.28521 0.0
C1886 C 0.63897 0.11109 0.28542 0.0
C1887 C 0.65975 0.09012 0.29916 0.0
C1888 C 0.65091 0.09461 0.31342 0.0
C1889 C 0.63401 0.105 0.31335 0.0
C1890 C 0.62816 0.11318 0.29953 0.0
C1891 C 0.66236 0.09329 0.32854 0.0
C1892 C 0.64528 0.08074 0.34106 0.0
C1893 C 0.68951 0.1096 0.33153 0.0
C1894 C 0.70858 0.12405 0.31902 0.0
C1895 C 0.70863 0.14536 0.31164 0.0
C1896 C 0.72657 0.15881 0.29973 0.0
C1897 C 0.74469 0.15126 0.29524 0.0
C1898 C 0.74495 0.1303 0.30269 0.0
C1899 C 0.727 0.11675 0.31459 0.0
H1900 H 0.75856 0.16169 0.28602 0.0
H1901 H 0.58327 0.04872 0.40263 0.0
H1902 H 0.55181 0.8773 0.58886 0.0
H1903 H 0.56599 0.90059 0.61384 0.0
H1904 H 0.54987 0.82848 0.63626 0.0
H1905 H 0.53599 0.80551 0.61161 0.0
H1906 H 0.53311 0.89004 0.63683 0.0
H1907 H 0.58202 0.83588 0.66785 0.0
H1908 H 0.6167 0.82527 0.66207 0.0
H1909 H 0.65005 0.88712 0.62828 0.0
H1910 H 0.61584 0.89843 0.63401 0.0
H1911 H 0.47756 0.82935 0.70497 0.0
H1912 H 0.49824 0.84555 0.67986 0.0
H1913 H 0.57109 0.89944 0.70245 0.0
H1914 H 0.55032 0.88312 0.72794 0.0
H1915 H 0.57838 0.87199 0.67958 0.0
H1916 H 0.54083 0.92542 0.68242 0.0
H1917 H 0.50767 0.93821 0.68815 0.0
H1918 H 0.45596 0.88332 0.65413 0.0
H1919 H 0.48858 0.86988 0.64835 0.0
C1920 C 0.55226 0.86675 0.59905 0.0
C1921 C 0.54257 0.83958 0.59838 0.0
C1922 C 0.56028 0.88003 0.61331 0.0
C1923 C 0.55917 0.86636 0.62695 0.0
C1924 C 0.55146 0.83967 0.62592 0.0
C1925 C 0.54324 0.82643 0.61182 0.0
C1926 C 0.56111 0.87792 0.64258 0.0
C1927 C 0.54347 0.88668 0.64615 0.0
C1928 C 0.57544 0.87463 0.65472 0.0
C1929 C 0.5963 0.86805 0.65139 0.0
C1930 C 0.59688 0.84743 0.6593 0.0
C1931 C 0.61643 0.84122 0.656 0.0
C1932 C 0.63557 0.85551 0.64482 0.0
C1933 C 0.6352 0.87604 0.63693 0.0
C1934 C 0.6157 0.88233 0.64018 0.0
C1935 C 0.49792 0.84482 0.70468 0.0
C1936 C 0.51232 0.85486 0.71846 0.0
C1937 C 0.50967 0.85427 0.69028 0.0
C1938 C 0.53611 0.874 0.68927 0.0
C1939 C 0.55059 0.88438 0.70299 0.0
C1940 C 0.5387 0.87504 0.71751 0.0
C1941 C 0.54858 0.88155 0.67372 0.0
C1942 C 0.56889 0.87642 0.67022 0.0
C1943 C 0.53706 0.88863 0.66162 0.0
C1944 C 0.51726 0.89667 0.66493 0.0
C1945 C 0.52234 0.91598 0.6762 0.0
C1946 C 0.50363 0.92335 0.67946 0.0
C1947 C 0.47973 0.9116 0.6715 0.0
C1948 C 0.47451 0.89246 0.66026 0.0
C1949 C 0.49315 0.885 0.65696 0.0
H1950 H 0.46527 0.91733 0.67404 0.0
H1951 H 0.65067 0.85066 0.64228 0.0
H1952 H 0.11054 0.65064 0.59615 0.0
H1953 H 0.09162 0.64183 0.62233 0.0
H1954 H 0.15238 0.71857 0.63712 0.0
H1955 H 0.17205 0.7266 0.61126 0.0
H1956 H 0.15439 0.68467 0.65386 0.0
H1957 H 0.08416 0.69772 0.63851 0.0
H1958 H 0.04722 0.69275 0.62249 0.0
H1959 H 0.00439 0.61028 0.63249 0.0
H1960 H 0.04123 0.61466 0.6484 0.0
H1961 H 0.10232 0.65696 0.73207 0.0
H1962 H 0.0926 0.66799 0.70638 0.0
H1963 H 0.10434 0.60794 0.68568 0.0
H1964 H 0.11434 0.59704 0.71114 0.0
H1965 H 0.06297 0.6391 0.67389 0.0
H1966 H 0.16179 0.64576 0.66857 0.0
H1967 H 0.19807 0.65081 0.68537 0.0
H1968 H 0.18371 0.699 0.7168 0.0
H1969 H 0.14768 0.69457 0.70004 0.0
C1970 C 0.11922 0.66589 0.60489 0.0
C1971 C 0.14279 0.68917 0.60185 0.0
C1972 C 0.10836 0.66093 0.61985 0.0
C1973 C 0.12063 0.67949 0.63178 0.0
C1974 C 0.14267 0.70385 0.62818 0.0
C1975 C 0.15388 0.70848 0.61341 0.0
C1976 C 0.11388 0.67186 0.64834 0.0
C1977 C 0.13438 0.67527 0.65819 0.0
C1978 C 0.08781 0.65928 0.65414 0.0
C1979 C 0.06557 0.65651 0.64458 0.0
C1980 C 0.06696 0.67848 0.6372 0.0
C1981 C 0.04601 0.67577 0.62815 0.0
C1982 C 0.02349 0.65121 0.62645 0.0
C1983 C 0.02185 0.6293 0.63382 0.0
C1984 C 0.04275 0.63189 0.64287 0.0
C1985 C 0.10154 0.64526 0.72215 0.0
C1986 C 0.10968 0.62658 0.72349 0.0
C1987 C 0.09583 0.65149 0.70749 0.0
C1988 C 0.09805 0.63893 0.69419 0.0
C1989 C 0.10252 0.6178 0.69585 0.0
C1990 C 0.10845 0.61176 0.71039 0.0
C1991 C 0.10345 0.65208 0.67894 0.0
C1992 C 0.08288 0.64932 0.66943 0.0
C1993 C 0.12953 0.66585 0.67339 0.0
C1994 C 0.15196 0.66966 0.68314 0.0
C1995 C 0.16654 0.65759 0.67901 0.0
C1996 C 0.18702 0.66031 0.68853 0.0
C1997 C 0.19314 0.67515 0.70217 0.0
C1998 C 0.17891 0.68745 0.70626 0.0
C1999 C 0.15847 0.68484 0.69675 0.0
H2000 H 0.20893 0.67716 0.70955 0.0
H2001 H 0.00729 0.64916 0.61944 0.0
H2002 H 0.26808 0.43632 0.62474 0.0
H2003 H 0.28274 0.42825 0.64954 0.0
H2004 H 0.34275 0.4196 0.62606 0.0
H2005 H 0.32787 0.42737 0.60101 0.0
H2006 H 0.31553 0.38996 0.66047 0.0
H2007 H 0.37042 0.47334 0.63204 0.0
H2008 H 0.37306 0.50774 0.6145 0.0
H2009 H 0.32518 0.52265 0.6459 0.0
H2010 H 0.32194 0.48802 0.66348 0.0
H2011 H 0.40432 0.5036 0.72071 0.0
H2012 H 0.3966 0.48225 0.69536 0.0
H2013 H 0.32013 0.42184 0.71084 0.0
H2014 H 0.32868 0.44236 0.73651 0.0
H2015 H 0.36281 0.48272 0.678 0.0
H2016 H 0.29223 0.37034 0.68638 0.0
H2017 H 0.28797 0.33484 0.70348 0.0
H2018 H 0.37081 0.3778 0.71261 0.0
H2019 H 0.37567 0.4134 0.6954 0.0
C2020 C 0.2836 0.43148 0.62477 0.0
C2021 C 0.29718 0.43293 0.61103 0.0
C2022 C 0.29181 0.42664 0.63894 0.0
C2023 C 0.31391 0.42354 0.6396 0.0
C2024 C 0.32548 0.4217 0.62573 0.0
C2025 C 0.31704 0.42628 0.61144 0.0
C2026 C 0.3287 0.43004 0.65434 0.0
C2027 C 0.32625 0.41018 0.66436 0.0
C2028 C 0.34295 0.45647 0.65917 0.0
C2029 C 0.34585 0.47807 0.649 0.0
C2030 C 0.36042 0.48394 0.63516 0.0
C2031 C 0.362 0.50344 0.62522 0.0
C2032 C 0.34926 0.51735 0.62907 0.0
C2033 C 0.33503 0.51186 0.64292 0.0
C2034 C 0.33334 0.49232 0.65289 0.0
C2035 C 0.38638 0.48513 0.71886 0.0
C2036 C 0.36704 0.47461 0.73045 0.0
C2037 C 0.38191 0.47296 0.70437 0.0
C2038 C 0.35768 0.45051 0.70106 0.0
C2039 C 0.33917 0.43884 0.71309 0.0
C2040 C 0.34399 0.45064 0.72777 0.0
C2041 C 0.34995 0.44266 0.6846 0.0
C2042 C 0.35318 0.46244 0.67419 0.0
C2043 C 0.33695 0.41619 0.67947 0.0
C2044 C 0.33427 0.39464 0.68965 0.0
C2045 C 0.30958 0.37215 0.69195 0.0
C2046 C 0.30705 0.35202 0.70169 0.0
C2047 C 0.32909 0.35409 0.70916 0.0
C2048 C 0.35373 0.37626 0.70686 0.0
C2049 C 0.35638 0.39645 0.69713 0.0
H2050 H 0.32708 0.3385 0.71671 0.0
H2051 H 0.35045 0.53239 0.62134 0.0
loop_
_geom_bond_atom_site_label_1
_geom_bond_atom_site_label_2
_geom_bond_distance
_geom_bond_site_symmetry_2
_ccdc_geom_bond_type
Zn0 O3 2.031 . S
Zn0 O5 2.049 . S
Zn0 O10 2.067 . S
Zn1 O2 1.962 . S
Zn1 O4 1.986 . S
Zn1 O6 1.996 . S
Zn1 O9 1.943 . S
O2 Zn1 1.962 . S
O2 C7 1.254 . S
O3 Zn0 2.031 . S
O3 C7 1.269 . S
O4 Zn1 1.986 . S
O4 C11 1.262 . S
O5 Zn0 2.049 . S
O5 C13 1.260 . S
O6 Zn1 1.996 . S
O6 C13 1.257 . S
C7 O2 1.254 . S
C7 O3 1.269 . S
C8 O9 1.249 . S
C8 O10 1.270 . S
O9 Zn1 1.943 . S
O9 C8 1.249 . S
O10 Zn0 2.067 . S
O10 C8 1.270 . S
C11 O4 1.262 . S
C11 O12 1.232 . S
O12 C11 1.232 . S
C13 O5 1.260 . S
C13 O6 1.257 . S
Zn14 O17 2.031 1_565 S
Zn14 O19 2.049 . S
Zn14 O24 2.067 . S
Zn15 O16 1.962 . S
Zn15 O18 1.986 . S
Zn15 O20 1.996 . S
Zn15 O23 1.943 1_545 S
O16 Zn15 1.962 . S
O16 C21 1.254 . S
O17 Zn14 2.031 1_545 S
O17 C21 1.269 . S
O18 Zn15 1.986 . S
O18 C25 1.262 . S
O19 Zn14 2.049 . S
O19 C27 1.260 . S
O20 Zn15 1.996 . S
O20 C27 1.257 1_545 S
C21 O16 1.254 . S
C21 O17 1.269 . S
C22 O23 1.249 . S
C22 O24 1.270 . S
O23 Zn15 1.943 1_565 S
O23 C22 1.249 . S
O24 Zn14 2.067 . S
O24 C22 1.270 . S
C25 O18 1.262 . S
C25 O26 1.232 . S
O26 C25 1.232 . S
C27 O19 1.260 . S
C27 O20 1.257 1_565 S
Zn28 O31 2.054 . S
Zn28 O33 2.025 1_655 S
Zn28 O38 2.031 1_655 S
Zn29 O30 1.962 . S
Zn29 O32 1.986 . S
Zn29 O34 1.996 . S
Zn29 O37 1.943 1_655 S
O30 Zn29 1.962 . S
O30 C35 1.254 . S
O31 Zn28 2.054 . S
O31 C35 1.269 . S
O32 Zn29 1.986 . S
O32 C39 1.262 . S
O33 Zn28 2.025 1_455 S
O33 C41 1.259 . S
O34 Zn29 1.996 . S
O34 C41 1.253 1_655 S
C35 O30 1.254 . S
C35 O31 1.269 . S
C36 O37 1.249 . S
C36 O38 1.270 . S
O37 Zn29 1.943 1_455 S
O37 C36 1.249 . S
O38 Zn28 2.031 1_455 S
O38 C36 1.270 . S
C39 O32 1.262 . S
C39 O40 1.232 . S
O40 C39 1.232 . S
C41 O33 1.259 . S
C41 O34 1.253 1_455 S
Zn42 O45 2.031 . S
Zn42 O47 2.049 . S
Zn42 O52 2.067 . S
Zn43 O44 1.962 . S
Zn43 O46 1.986 . S
Zn43 O48 1.996 . S
Zn43 O51 1.943 . S
O44 Zn43 1.962 . S
O44 C49 1.254 . S
O45 Zn42 2.031 . S
O45 C49 1.269 . S
O46 Zn43 1.986 . S
O46 C53 1.262 . S
O47 Zn42 2.049 . S
O47 C55 1.260 . S
O48 Zn43 1.996 . S
O48 C55 1.257 . S
C49 O44 1.254 . S
C49 O45 1.269 . S
C50 O51 1.249 . S
C50 O52 1.270 . S
O51 Zn43 1.943 . S
O51 C50 1.249 . S
O52 Zn42 2.067 . S
O52 C50 1.270 . S
C53 O46 1.262 . S
C53 O54 1.232 . S
O54 C53 1.232 . S
C55 O47 1.260 . S
C55 O48 1.257 . S
Zn56 O59 2.054 . S
Zn56 O61 2.025 1_565 S
Zn56 O66 2.031 1_565 S
Zn57 O58 1.962 . S
Zn57 O60 1.986 . S
Zn57 O62 1.996 . S
Zn57 O65 1.943 1_565 S
O58 Zn57 1.962 . S
O58 C63 1.254 . S
O59 Zn56 2.054 . S
O59 C63 1.269 . S
O60 Zn57 1.986 . S
O60 C67 1.262 . S
O61 Zn56 2.025 1_545 S
O61 C69 1.259 . S
O62 Zn57 1.996 . S
O62 C69 1.253 1_565 S
C63 O58 1.254 . S
C63 O59 1.269 . S
C64 O65 1.249 . S
C64 O66 1.270 . S
O65 Zn57 1.943 1_545 S
O65 C64 1.249 . S
O66 Zn56 2.031 1_545 S
O66 C64 1.270 . S
C67 O60 1.262 . S
C67 O68 1.232 . S
O68 C67 1.232 . S
C69 O61 1.259 . S
C69 O62 1.253 1_545 S
Zn70 O73 2.031 1_655 S
Zn70 O75 2.049 . S
Zn70 O80 2.067 . S
Zn71 O72 1.962 . S
Zn71 O74 1.986 . S
Zn71 O76 1.996 . S
Zn71 O79 1.943 1_455 S
O72 Zn71 1.962 . S
O72 C77 1.254 . S
O73 Zn70 2.031 1_455 S
O73 C77 1.269 . S
O74 Zn71 1.986 . S
O74 C81 1.262 . S
O75 Zn70 2.049 . S
O75 C83 1.260 . S
O76 Zn71 1.996 . S
O76 C83 1.257 1_455 S
C77 O72 1.254 . S
C77 O73 1.269 . S
C78 O79 1.249 . S
C78 O80 1.270 . S
O79 Zn71 1.943 1_655 S
O79 C78 1.249 . S
O80 Zn70 2.067 . S
O80 C78 1.270 . S
C81 O74 1.262 . S
C81 O82 1.232 . S
O82 C81 1.232 . S
C83 O75 1.260 . S
C83 O76 1.257 1_655 S
Zn84 O87 2.031 . S
Zn84 O89 2.049 . S
Zn84 O94 2.067 . S
Zn85 O86 1.962 . S
Zn85 O88 1.986 . S
Zn85 O90 1.996 . S
Zn85 O93 1.943 . S
O86 Zn85 1.962 . S
O86 C91 1.254 . S
O87 Zn84 2.031 . S
O87 C91 1.269 . S
O88 Zn85 1.986 . S
O88 C95 1.262 . S
O89 Zn84 2.049 . S
O89 C97 1.260 . S
O90 Zn85 1.996 . S
O90 C97 1.257 . S
C91 O86 1.254 . S
C91 O87 1.269 . S
C92 O93 1.249 . S
C92 O94 1.270 . S
O93 Zn85 1.943 . S
O93 C92 1.249 . S
O94 Zn84 2.067 . S
O94 C92 1.270 . S
C95 O88 1.262 . S
C95 O96 1.232 . S
O96 C95 1.232 . S
C97 O89 1.260 . S
C97 O90 1.257 . S
Zn98 O101 2.031 . S
Zn98 O103 2.049 . S
Zn98 O108 2.067 . S
Zn99 O100 1.962 . S
Zn99 O102 1.986 . S
Zn99 O104 1.996 . S
Zn99 O107 1.943 . S
O100 Zn99 1.962 . S
O100 C105 1.254 . S
O101 Zn98 2.031 . S
O101 C105 1.269 . S
O102 Zn99 1.986 . S
O102 C109 1.262 . S
O103 Zn98 2.049 . S
O103 C111 1.260 . S
O104 Zn99 1.996 . S
O104 C111 1.257 . S
C105 O100 1.254 . S
C105 O101 1.269 . S
C106 O107 1.249 . S
C106 O108 1.270 . S
O107 Zn99 1.943 . S
O107 C106 1.249 . S
O108 Zn98 2.067 . S
O108 C106 1.270 . S
C109 O102 1.262 . S
C109 O110 1.232 . S
O110 C109 1.232 . S
C111 O103 1.260 . S
C111 O104 1.257 . S
Zn112 O115 2.031 . S
Zn112 O117 2.049 . S
Zn112 O122 2.067 . S
Zn113 O114 1.962 . S
Zn113 O116 1.986 . S
Zn113 O118 1.996 . S
Zn113 O121 1.943 . S
O114 Zn113 1.962 . S
O114 C119 1.254 . S
O115 Zn112 2.031 . S
O115 C119 1.269 . S
O116 Zn113 1.986 . S
O116 C123 1.262 . S
O117 Zn112 2.049 . S
O117 C125 1.260 . S
O118 Zn113 1.996 . S
O118 C125 1.257 . S
C119 O114 1.254 . S
C119 O115 1.269 . S
C120 O121 1.249 . S
C120 O122 1.270 . S
O121 Zn113 1.943 . S
O121 C120 1.249 . S
O122 Zn112 2.067 . S
O122 C120 1.270 . S
C123 O116 1.262 . S
C123 O124 1.232 . S
O124 C123 1.232 . S
C125 O117 1.260 . S
C125 O118 1.257 . S
Zn126 O129 2.031 . S
Zn126 O131 2.049 . S
Zn126 O136 2.067 . S
Zn127 O128 1.962 . S
Zn127 O130 1.986 . S
Zn127 O132 1.996 . S
Zn127 O135 1.943 . S
O128 Zn127 1.962 . S
O128 C133 1.254 . S
O129 Zn126 2.031 . S
O129 C133 1.269 . S
O130 Zn127 1.986 . S
O130 C137 1.262 . S
O131 Zn126 2.049 . S
O131 C139 1.260 . S
O132 Zn127 1.996 . S
O132 C139 1.257 . S
C133 O128 1.254 . S
C133 O129 1.269 . S
C134 O135 1.249 . S
C134 O136 1.270 . S
O135 Zn127 1.943 . S
O135 C134 1.249 . S
O136 Zn126 2.067 . S
O136 C134 1.270 . S
C137 O130 1.262 . S
C137 O138 1.232 . S
O138 C137 1.232 . S
C139 O131 1.260 . S
C139 O132 1.257 . S
Zn140 O143 2.031 . S
Zn140 O145 2.049 . S
Zn140 O150 2.067 . S
Zn141 O142 1.962 . S
Zn141 O144 1.986 . S
Zn141 O146 1.996 . S
Zn141 O149 1.943 . S
O142 Zn141 1.962 . S
O142 C147 1.254 . S
O143 Zn140 2.031 . S
O143 C147 1.269 . S
O144 Zn141 1.986 . S
O144 C151 1.262 . S
O145 Zn140 2.049 . S
O145 C153 1.260 . S
O146 Zn141 1.996 . S
O146 C153 1.257 . S
C147 O142 1.254 . S
C147 O143 1.269 . S
C148 O149 1.249 . S
C148 O150 1.270 . S
O149 Zn141 1.943 . S
O149 C148 1.249 . S
O150 Zn140 2.067 . S
O150 C148 1.270 . S
C151 O144 1.262 . S
C151 O152 1.232 . S
O152 C151 1.232 . S
C153 O145 1.260 . S
C153 O146 1.257 . S
Zn154 O157 2.031 . S
Zn154 O159 2.049 . S
Zn154 O164 2.067 . S
Zn155 O156 1.962 . S
Zn155 O158 1.986 . S
Zn155 O160 1.996 . S
Zn155 O163 1.943 . S
O156 Zn155 1.962 . S
O156 C161 1.254 . S
O157 Zn154 2.031 . S
O157 C161 1.269 . S
O158 Zn155 1.986 . S
O158 C165 1.262 . S
O159 Zn154 2.049 . S
O159 C167 1.260 . S
O160 Zn155 1.996 . S
O160 C167 1.257 . S
C161 O156 1.254 . S
C161 O157 1.269 . S
C162 O163 1.249 . S
C162 O164 1.270 . S
O163 Zn155 1.943 . S
O163 C162 1.249 . S
O164 Zn154 2.067 . S
O164 C162 1.270 . S
C165 O158 1.262 . S
C165 O166 1.232 . S
O166 C165 1.232 . S
C167 O159 1.260 . S
C167 O160 1.257 . S
Zn168 O171 2.031 . S
Zn168 O173 2.049 . S
Zn168 O178 2.067 . S
Zn169 O170 1.962 . S
Zn169 O172 1.986 . S
Zn169 O174 1.996 . S
Zn169 O177 1.943 . S
O170 Zn169 1.962 . S
O170 C175 1.254 . S
O171 Zn168 2.031 . S
O171 C175 1.269 . S
O172 Zn169 1.986 . S
O172 C179 1.262 . S
O173 Zn168 2.049 . S
O173 C181 1.260 . S
O174 Zn169 1.996 . S
O174 C181 1.257 . S
C175 O170 1.254 . S
C175 O171 1.269 . S
C176 O177 1.249 . S
C176 O178 1.270 . S
O177 Zn169 1.943 . S
O177 C176 1.249 . S
O178 Zn168 2.067 . S
O178 C176 1.270 . S
C179 O172 1.262 . S
C179 O180 1.232 . S
O180 C179 1.232 . S
C181 O173 1.260 . S
C181 O174 1.257 . S
Zn182 O185 2.031 . S
Zn182 O187 2.049 . S
Zn182 O192 2.067 . S
Zn183 O184 1.962 . S
Zn183 O186 1.986 . S
Zn183 O188 1.996 . S
Zn183 O191 1.943 . S
O184 Zn183 1.962 . S
O184 C189 1.254 . S
O185 Zn182 2.031 . S
O185 C189 1.269 . S
O186 Zn183 1.986 . S
O186 C193 1.262 . S
O187 Zn182 2.049 . S
O187 C195 1.260 . S
O188 Zn183 1.996 . S
O188 C195 1.257 . S
C189 O184 1.254 . S
C189 O185 1.269 . S
C190 O191 1.249 . S
C190 O192 1.270 . S
O191 Zn183 1.943 . S
O191 C190 1.249 . S
O192 Zn182 2.067 . S
O192 C190 1.270 . S
C193 O186 1.262 . S
C193 O194 1.232 . S
O194 C193 1.232 . S
C195 O187 1.260 . S
C195 O188 1.257 . S
Zn196 O199 2.031 . S
Zn196 O201 2.049 . S
Zn196 O206 2.067 . S
Zn197 O198 1.962 . S
Zn197 O200 1.986 . S
Zn197 O202 1.996 . S
Zn197 O205 1.943 . S
O198 Zn197 1.962 . S
O198 C203 1.254 . S
O199 Zn196 2.031 . S
O199 C203 1.269 . S
O200 Zn197 1.986 . S
O200 C207 1.262 . S
O201 Zn196 2.049 . S
O201 C209 1.260 . S
O202 Zn197 1.996 . S
O202 C209 1.257 . S
C203 O198 1.254 . S
C203 O199 1.269 . S
C204 O205 1.249 . S
C204 O206 1.270 . S
O205 Zn197 1.943 . S
O205 C204 1.249 . S
O206 Zn196 2.067 . S
O206 C204 1.270 . S
C207 O200 1.262 . S
C207 O208 1.232 . S
O208 C207 1.232 . S
C209 O201 1.260 . S
C209 O202 1.257 . S
Zn210 O213 2.031 . S
Zn210 O215 2.049 . S
Zn210 O220 2.067 . S
Zn211 O212 1.962 . S
Zn211 O214 1.986 . S
Zn211 O216 1.996 . S
Zn211 O219 1.943 . S
O212 Zn211 1.962 . S
O212 C217 1.254 . S
O213 Zn210 2.031 . S
O213 C217 1.269 . S
O214 Zn211 1.986 . S
O214 C221 1.262 . S
O215 Zn210 2.049 . S
O215 C223 1.260 . S
O216 Zn211 1.996 . S
O216 C223 1.257 . S
C217 O212 1.254 . S
C217 O213 1.269 . S
C218 O219 1.249 . S
C218 O220 1.270 . S
O219 Zn211 1.943 . S
O219 C218 1.249 . S
O220 Zn210 2.067 . S
O220 C218 1.270 . S
C221 O214 1.262 . S
C221 O222 1.232 . S
O222 C221 1.232 . S
C223 O215 1.260 . S
C223 O216 1.257 . S
Zn224 O227 2.031 . S
Zn224 O229 2.049 . S
Zn224 O234 2.067 . S
Zn225 O226 1.962 . S
Zn225 O228 1.986 . S
Zn225 O230 1.996 . S
Zn225 O233 1.943 . S
O226 Zn225 1.962 . S
O226 C231 1.254 . S
O227 Zn224 2.031 . S
O227 C231 1.269 . S
O228 Zn225 1.986 . S
O228 C235 1.262 . S
O229 Zn224 2.049 . S
O229 C237 1.260 . S
O230 Zn225 1.996 . S
O230 C237 1.257 . S
C231 O226 1.254 . S
C231 O227 1.269 . S
C232 O233 1.249 . S
C232 O234 1.270 . S
O233 Zn225 1.943 . S
O233 C232 1.249 . S
O234 Zn224 2.067 . S
O234 C232 1.270 . S
C235 O228 1.262 . S
C235 O236 1.232 . S
O236 C235 1.232 . S
C237 O229 1.260 . S
C237 O230 1.257 . S
Zn238 O241 2.031 . S
Zn238 O243 2.049 . S
Zn238 O248 2.067 . S
Zn239 O240 1.962 . S
Zn239 O242 1.986 . S
Zn239 O244 1.996 . S
Zn239 O247 1.943 . S
O240 Zn239 1.962 . S
O240 C245 1.254 . S
O241 Zn238 2.031 . S
O241 C245 1.269 . S
O242 Zn239 1.986 . S
O242 C249 1.262 . S
O243 Zn238 2.049 . S
O243 C251 1.260 . S
O244 Zn239 1.996 . S
O244 C251 1.257 . S
C245 O240 1.254 . S
C245 O241 1.269 . S
C246 O247 1.249 . S
C246 O248 1.270 . S
O247 Zn239 1.943 . S
O247 C246 1.249 . S
O248 Zn238 2.067 . S
O248 C246 1.270 . S
C249 O242 1.262 . S
C249 O250 1.232 . S
O250 C249 1.232 . S
C251 O243 1.260 . S
C251 O244 1.257 . S
H252 C270 0.951 . S
H253 C272 0.951 . S
H254 C274 0.950 . S
H255 C275 0.950 . S
H256 C277 0.950 . S
H257 C280 0.950 . S
H258 C281 0.950 . S
H259 C283 0.950 . S
H260 C284 0.950 . S
H261 C285 0.951 . S
H262 C287 0.951 . S
H263 C289 0.950 . S
H264 C290 0.950 . S
H265 C292 0.950 . S
H266 C295 0.950 . S
H267 C296 0.950 . S
H268 C298 0.950 . S
H269 C299 0.950 . S
C270 H252 0.951 . S
C270 C271 1.366 . S
C270 C272 1.388 . S
C271 C270 1.366 . S
C271 C275 1.385 . S
C272 H253 0.951 . S
C272 C270 1.388 . S
C272 C273 1.366 . S
C273 C272 1.366 . S
C273 C274 1.414 . S
C273 C276 1.499 . S
C274 H254 0.950 . S
C274 C273 1.414 . S
C274 C275 1.374 . S
C275 H255 0.950 . S
C275 C271 1.385 . S
C275 C274 1.374 . S
C276 C273 1.499 . S
C276 C277 1.373 . S
C276 C278 1.389 . S
C277 H256 0.950 . S
C277 C276 1.373 . S
C277 C293 1.377 . S
C278 C276 1.389 . S
C278 C279 1.524 . S
C278 C292 1.377 . S
C279 C278 1.524 . S
C279 C280 1.397 . S
C279 C284 1.363 . S
C280 H257 0.950 . S
C280 C279 1.397 . S
C280 C281 1.334 . S
C281 H258 0.950 . S
C281 C280 1.334 . S
C281 C282 1.287 . S
C282 C281 1.287 . S
C282 C283 1.524 . S
C282 H301 0.913 . S
C283 H259 0.950 . S
C283 C282 1.524 . S
C283 C284 1.415 . S
C284 H260 0.950 . S
C284 C279 1.363 . S
C284 C283 1.415 . S
C285 H261 0.951 . S
C285 C286 1.366 . S
C285 C287 1.388 . S
C286 C285 1.366 . S
C286 C290 1.385 . S
C287 H262 0.951 . S
C287 C285 1.388 . S
C287 C288 1.366 . S
C288 C287 1.366 . S
C288 C289 1.414 . S
C288 C291 1.499 . S
C289 H263 0.950 . S
C289 C288 1.414 . S
C289 C290 1.374 . S
C290 H264 0.950 . S
C290 C286 1.385 . S
C290 C289 1.374 . S
C291 C288 1.499 . S
C291 C292 1.373 . S
C291 C293 1.389 . S
C292 H265 0.950 . S
C292 C278 1.377 . S
C292 C291 1.373 . S
C293 C277 1.377 . S
C293 C291 1.389 . S
C293 C294 1.524 . S
C294 C293 1.524 . S
C294 C295 1.397 . S
C294 C299 1.363 . S
C295 H266 0.950 . S
C295 C294 1.397 . S
C295 C296 1.334 . S
C296 H267 0.950 . S
C296 C295 1.334 . S
C296 C297 1.287 . S
C297 C296 1.287 . S
C297 C298 1.524 . S
C297 H300 0.999 . S
C298 H268 0.950 . S
C298 C297 1.524 . S
C298 C299 1.415 . S
C299 H269 0.950 . S
C299 C294 1.363 . S
C299 C298 1.415 . S
H300 C297 0.999 . S
H301 C282 0.913 . S
H302 C320 0.951 . S
H303 C322 0.951 . S
H304 C324 0.950 . S
H305 C325 0.950 . S
H306 C327 0.950 . S
H307 C330 0.950 . S
H308 C331 0.950 . S
H309 C333 0.950 . S
H310 C334 0.950 . S
H311 C335 0.951 . S
H312 C337 0.951 . S
H313 C339 0.950 . S
H314 C340 0.950 . S
H315 C342 0.950 . S
H316 C345 0.950 . S
H317 C346 0.950 . S
H318 C348 0.950 . S
H319 C349 0.950 . S
C320 H302 0.951 . S
C320 C321 1.366 . S
C320 C322 1.388 . S
C321 C320 1.366 . S
C321 C325 1.385 . S
C322 H303 0.951 . S
C322 C320 1.388 . S
C322 C323 1.366 . S
C323 C322 1.366 . S
C323 C324 1.414 . S
C323 C326 1.499 . S
C324 H304 0.950 . S
C324 C323 1.414 . S
C324 C325 1.374 . S
C325 H305 0.950 . S
C325 C321 1.385 . S
C325 C324 1.374 . S
C326 C323 1.499 . S
C326 C327 1.373 . S
C326 C328 1.389 . S
C327 H306 0.950 . S
C327 C326 1.373 . S
C327 C343 1.377 . S
C328 C326 1.389 . S
C328 C329 1.524 . S
C328 C342 1.377 . S
C329 C328 1.524 . S
C329 C330 1.397 . S
C329 C334 1.363 . S
C330 H307 0.950 . S
C330 C329 1.397 . S
C330 C331 1.334 . S
C331 H308 0.950 . S
C331 C330 1.334 . S
C331 C332 1.287 . S
C332 C331 1.287 . S
C332 C333 1.524 . S
C332 H351 0.913 . S
C333 H309 0.950 . S
C333 C332 1.524 . S
C333 C334 1.415 . S
C334 H310 0.950 . S
C334 C329 1.363 . S
C334 C333 1.415 . S
C335 H311 0.951 . S
C335 C336 1.366 . S
C335 C337 1.388 . S
C336 C335 1.366 . S
C336 C340 1.385 . S
C337 H312 0.951 . S
C337 C335 1.388 . S
C337 C338 1.366 . S
C338 C337 1.366 . S
C338 C339 1.414 . S
C338 C341 1.499 . S
C339 H313 0.950 . S
C339 C338 1.414 . S
C339 C340 1.374 . S
C340 H314 0.950 . S
C340 C336 1.385 . S
C340 C339 1.374 . S
C341 C338 1.499 . S
C341 C342 1.373 . S
C341 C343 1.389 . S
C342 H315 0.950 . S
C342 C328 1.377 . S
C342 C341 1.373 . S
C343 C327 1.377 . S
C343 C341 1.389 . S
C343 C344 1.524 . S
C344 C343 1.524 . S
C344 C345 1.397 . S
C344 C349 1.363 . S
C345 H316 0.950 . S
C345 C344 1.397 . S
C345 C346 1.334 . S
C346 H317 0.950 . S
C346 C345 1.334 . S
C346 C347 1.287 . S
C347 C346 1.287 . S
C347 C348 1.524 . S
C347 H350 0.999 . S
C348 H318 0.950 . S
C348 C347 1.524 . S
C348 C349 1.415 . S
C349 H319 0.950 . S
C349 C344 1.363 . S
C349 C348 1.415 . S
H350 C347 0.999 . S
H351 C332 0.913 . S
H352 C370 0.951 . S
H353 C372 0.951 . S
H354 C374 0.950 . S
H355 C375 0.950 . S
H356 C377 0.950 . S
H357 C380 0.950 . S
H358 C381 0.950 . S
H359 C383 0.950 . S
H360 C384 0.950 . S
H361 C385 0.951 . S
H362 C387 0.951 . S
H363 C389 0.950 . S
H364 C390 0.950 . S
H365 C392 0.950 . S
H366 C395 0.950 . S
H367 C396 0.950 1_455 S
H368 C398 0.950 . S
H369 C399 0.950 . S
C370 H352 0.951 . S
C370 C371 1.366 . S
C370 C372 1.388 . S
C371 C370 1.366 . S
C371 C375 1.385 . S
C372 H353 0.951 . S
C372 C370 1.388 . S
C372 C373 1.366 . S
C373 C372 1.366 . S
C373 C374 1.414 . S
C373 C376 1.499 . S
C374 H354 0.950 . S
C374 C373 1.414 . S
C374 C375 1.374 . S
C375 H355 0.950 . S
C375 C371 1.385 . S
C375 C374 1.374 . S
C376 C373 1.499 . S
C376 C377 1.373 . S
C376 C378 1.389 . S
C377 H356 0.950 . S
C377 C376 1.373 . S
C377 C393 1.377 . S
C378 C376 1.389 . S
C378 C379 1.524 . S
C378 C392 1.377 . S
C379 C378 1.524 . S
C379 C380 1.397 . S
C379 C384 1.363 . S
C380 H357 0.950 . S
C380 C379 1.397 . S
C380 C381 1.334 . S
C381 H358 0.950 . S
C381 C380 1.334 . S
C381 C382 1.287 . S
C382 C381 1.287 . S
C382 C383 1.524 . S
C382 H401 0.913 . S
C383 H359 0.950 . S
C383 C382 1.524 . S
C383 C384 1.415 . S
C384 H360 0.950 . S
C384 C379 1.363 . S
C384 C383 1.415 . S
C385 H361 0.951 . S
C385 C386 1.366 . S
C385 C387 1.388 . S
C386 C385 1.366 . S
C386 C390 1.385 . S
C387 H362 0.951 . S
C387 C385 1.388 . S
C387 C388 1.366 . S
C388 C387 1.366 . S
C388 C389 1.414 . S
C388 C391 1.499 . S
C389 H363 0.950 . S
C389 C388 1.414 . S
C389 C390 1.374 . S
C390 H364 0.950 . S
C390 C386 1.385 . S
C390 C389 1.374 . S
C391 C388 1.499 . S
C391 C392 1.373 . S
C391 C393 1.389 . S
C392 H365 0.950 . S
C392 C378 1.377 . S
C392 C391 1.373 . S
C393 C377 1.377 . S
C393 C391 1.389 . S
C393 C394 1.524 . S
C394 C393 1.524 . S
C394 C395 1.397 . S
C394 C399 1.363 . S
C395 H366 0.950 . S
C395 C394 1.397 . S
C395 C396 1.334 . S
C396 H367 0.950 1_655 S
C396 C395 1.334 . S
C396 C397 1.287 . S
C397 C396 1.287 . S
C397 C398 1.524 . S
C397 H400 0.999 . S
C398 H368 0.950 . S
C398 C397 1.524 . S
C398 C399 1.415 . S
C399 H369 0.950 . S
C399 C394 1.363 . S
C399 C398 1.415 . S
H400 C397 0.999 . S
H401 C382 0.913 . S
H402 C420 0.951 . S
H403 C422 0.951 . S
H404 C424 0.950 . S
H405 C425 0.950 . S
H406 C427 0.950 . S
H407 C430 0.950 . S
H408 C431 0.950 . S
H409 C433 0.950 . S
H410 C434 0.950 . S
H411 C435 0.951 . S
H412 C437 0.951 . S
H413 C439 0.950 . S
H414 C440 0.950 . S
H415 C442 0.950 . S
H416 C445 0.950 . S
H417 C446 0.950 . S
H418 C448 0.950 . S
H419 C449 0.950 . S
C420 H402 0.951 . S
C420 C421 1.366 . S
C420 C422 1.388 . S
C421 C420 1.366 . S
C421 C425 1.385 . S
C422 H403 0.951 . S
C422 C420 1.388 . S
C422 C423 1.366 . S
C423 C422 1.366 . S
C423 C424 1.414 . S
C423 C426 1.499 . S
C424 H404 0.950 . S
C424 C423 1.414 . S
C424 C425 1.374 . S
C425 H405 0.950 . S
C425 C421 1.385 . S
C425 C424 1.374 . S
C426 C423 1.499 . S
C426 C427 1.373 . S
C426 C428 1.389 . S
C427 H406 0.950 . S
C427 C426 1.373 . S
C427 C443 1.377 . S
C428 C426 1.389 . S
C428 C429 1.524 . S
C428 C442 1.377 . S
C429 C428 1.524 . S
C429 C430 1.397 . S
C429 C434 1.363 . S
C430 H407 0.950 . S
C430 C429 1.397 . S
C430 C431 1.334 . S
C431 H408 0.950 . S
C431 C430 1.334 . S
C431 C432 1.287 . S
C432 C431 1.287 . S
C432 C433 1.524 . S
C432 H451 0.913 . S
C433 H409 0.950 . S
C433 C432 1.524 . S
C433 C434 1.415 . S
C434 H410 0.950 . S
C434 C429 1.363 . S
C434 C433 1.415 . S
C435 H411 0.951 . S
C435 C436 1.366 . S
C435 C437 1.388 . S
C436 C435 1.366 . S
C436 C440 1.385 . S
C437 H412 0.951 . S
C437 C435 1.388 . S
C437 C438 1.366 . S
C438 C437 1.366 . S
C438 C439 1.414 . S
C438 C441 1.499 . S
C439 H413 0.950 . S
C439 C438 1.414 . S
C439 C440 1.374 . S
C440 H414 0.950 . S
C440 C436 1.385 . S
C440 C439 1.374 . S
C441 C438 1.499 . S
C441 C442 1.373 . S
C441 C443 1.389 . S
C442 H415 0.950 . S
C442 C428 1.377 . S
C442 C441 1.373 . S
C443 C427 1.377 . S
C443 C441 1.389 . S
C443 C444 1.524 . S
C444 C443 1.524 . S
C444 C445 1.397 . S
C444 C449 1.363 . S
C445 H416 0.950 . S
C445 C444 1.397 . S
C445 C446 1.334 . S
C446 H417 0.950 . S
C446 C445 1.334 . S
C446 C447 1.287 . S
C447 C446 1.287 . S
C447 C448 1.524 . S
C447 H450 0.999 . S
C448 H418 0.950 . S
C448 C447 1.524 . S
C448 C449 1.415 . S
C449 H419 0.950 . S
C449 C444 1.363 . S
C449 C448 1.415 . S
H450 C447 0.999 . S
H451 C432 0.913 . S
H452 C470 0.951 . S
H453 C472 0.951 . S
H454 C474 0.950 . S
H455 C475 0.950 . S
H456 C477 0.950 . S
H457 C480 0.950 . S
H458 C481 0.950 . S
H459 C483 0.950 . S
H460 C484 0.950 . S
H461 C485 0.951 . S
H462 C487 0.951 . S
H463 C489 0.950 . S
H464 C490 0.950 . S
H465 C492 0.950 . S
H466 C495 0.950 . S
H467 C496 0.950 . S
H468 C498 0.950 . S
H469 C499 0.950 . S
C470 H452 0.951 . S
C470 C471 1.366 . S
C470 C472 1.388 . S
C471 C470 1.366 . S
C471 C475 1.385 . S
C472 H453 0.951 . S
C472 C470 1.388 . S
C472 C473 1.366 . S
C473 C472 1.366 . S
C473 C474 1.414 . S
C473 C476 1.499 . S
C474 H454 0.950 . S
C474 C473 1.414 . S
C474 C475 1.374 . S
C475 H455 0.950 . S
C475 C471 1.385 . S
C475 C474 1.374 . S
C476 C473 1.499 . S
C476 C477 1.373 . S
C476 C478 1.389 . S
C477 H456 0.950 . S
C477 C476 1.373 . S
C477 C493 1.377 . S
C478 C476 1.389 . S
C478 C479 1.524 . S
C478 C492 1.377 . S
C479 C478 1.524 . S
C479 C480 1.397 . S
C479 C484 1.363 . S
C480 H457 0.950 . S
C480 C479 1.397 . S
C480 C481 1.334 1_565 S
C481 H458 0.950 . S
C481 C480 1.334 1_545 S
C481 C482 1.287 . S
C482 C481 1.287 . S
C482 C483 1.524 1_545 S
C482 H501 0.913 . S
C483 H459 0.950 . S
C483 C482 1.524 1_565 S
C483 C484 1.415 . S
C484 H460 0.950 . S
C484 C479 1.363 . S
C484 C483 1.415 . S
C485 H461 0.951 . S
C485 C486 1.366 . S
C485 C487 1.388 . S
C486 C485 1.366 . S
C486 C490 1.385 . S
C487 H462 0.951 . S
C487 C485 1.388 . S
C487 C488 1.366 . S
C488 C487 1.366 . S
C488 C489 1.414 . S
C488 C491 1.499 . S
C489 H463 0.950 . S
C489 C488 1.414 . S
C489 C490 1.374 . S
C490 H464 0.950 . S
C490 C486 1.385 . S
C490 C489 1.374 . S
C491 C488 1.499 . S
C491 C492 1.373 . S
C491 C493 1.389 . S
C492 H465 0.950 . S
C492 C478 1.377 . S
C492 C491 1.373 . S
C493 C477 1.377 . S
C493 C491 1.389 . S
C493 C494 1.524 . S
C494 C493 1.524 . S
C494 C495 1.397 . S
C494 C499 1.363 . S
C495 H466 0.950 . S
C495 C494 1.397 . S
C495 C496 1.334 . S
C496 H467 0.950 . S
C496 C495 1.334 . S
C496 C497 1.287 . S
C497 C496 1.287 . S
C497 C498 1.524 . S
C497 H500 0.999 . S
C498 H468 0.950 . S
C498 C497 1.524 . S
C498 C499 1.415 . S
C499 H469 0.950 . S
C499 C494 1.363 . S
C499 C498 1.415 . S
H500 C497 0.999 . S
H501 C482 0.913 . S
H502 C520 0.951 . S
H503 C522 0.951 . S
H504 C524 0.950 . S
H505 C525 0.950 . S
H506 C527 0.950 . S
H507 C530 0.950 . S
H508 C531 0.950 . S
H509 C533 0.950 . S
H510 C534 0.950 . S
H511 C535 0.951 . S
H512 C537 0.951 . S
H513 C539 0.950 . S
H514 C540 0.950 . S
H515 C542 0.950 . S
H516 C545 0.950 . S
H517 C546 0.950 . S
H518 C548 0.950 . S
H519 C549 0.950 . S
C520 H502 0.951 . S
C520 C521 1.366 . S
C520 C522 1.388 . S
C521 C520 1.366 . S
C521 C525 1.385 . S
C522 H503 0.951 . S
C522 C520 1.388 . S
C522 C523 1.366 . S
C523 C522 1.366 . S
C523 C524 1.414 . S
C523 C526 1.499 . S
C524 H504 0.950 . S
C524 C523 1.414 . S
C524 C525 1.374 . S
C525 H505 0.950 . S
C525 C521 1.385 . S
C525 C524 1.374 . S
C526 C523 1.499 . S
C526 C527 1.373 . S
C526 C528 1.389 . S
C527 H506 0.950 . S
C527 C526 1.373 . S
C527 C543 1.377 . S
C528 C526 1.389 . S
C528 C529 1.524 . S
C528 C542 1.377 . S
C529 C528 1.524 . S
C529 C530 1.397 . S
C529 C534 1.363 . S
C530 H507 0.950 . S
C530 C529 1.397 . S
C530 C531 1.334 . S
C531 H508 0.950 . S
C531 C530 1.334 . S
C531 C532 1.287 . S
C532 C531 1.287 . S
C532 C533 1.524 . S
C532 H551 0.913 1_455 S
C533 H509 0.950 . S
C533 C532 1.524 . S
C533 C534 1.415 . S
C534 H510 0.950 . S
C534 C529 1.363 . S
C534 C533 1.415 . S
C535 H511 0.951 . S
C535 C536 1.366 . S
C535 C537 1.388 . S
C536 C535 1.366 . S
C536 C540 1.385 . S
C537 H512 0.951 . S
C537 C535 1.388 . S
C537 C538 1.366 . S
C538 C537 1.366 . S
C538 C539 1.414 . S
C538 C541 1.499 . S
C539 H513 0.950 . S
C539 C538 1.414 . S
C539 C540 1.374 . S
C540 H514 0.950 . S
C540 C536 1.385 . S
C540 C539 1.374 . S
C541 C538 1.499 . S
C541 C542 1.373 . S
C541 C543 1.389 . S
C542 H515 0.950 . S
C542 C528 1.377 . S
C542 C541 1.373 . S
C543 C527 1.377 . S
C543 C541 1.389 . S
C543 C544 1.524 . S
C544 C543 1.524 . S
C544 C545 1.397 . S
C544 C549 1.363 . S
C545 H516 0.950 . S
C545 C544 1.397 . S
C545 C546 1.334 . S
C546 H517 0.950 . S
C546 C545 1.334 . S
C546 C547 1.287 . S
C547 C546 1.287 . S
C547 C548 1.524 . S
C547 H550 0.999 . S
C548 H518 0.950 . S
C548 C547 1.524 . S
C548 C549 1.415 . S
C549 H519 0.950 . S
C549 C544 1.363 . S
C549 C548 1.415 . S
H550 C547 0.999 . S
H551 C532 0.913 1_655 S
H552 C570 0.951 . S
H553 C572 0.951 . S
H554 C574 0.950 . S
H555 C575 0.950 . S
H556 C577 0.950 . S
H557 C580 0.950 . S
H558 C581 0.950 . S
H559 C583 0.950 . S
H560 C584 0.950 . S
H561 C585 0.951 . S
H562 C587 0.951 . S
H563 C589 0.950 . S
H564 C590 0.950 . S
H565 C592 0.950 . S
H566 C595 0.950 . S
H567 C596 0.950 . S
H568 C598 0.950 . S
H569 C599 0.950 . S
C570 H552 0.951 . S
C570 C571 1.366 . S
C570 C572 1.388 . S
C571 C570 1.366 . S
C571 C575 1.385 . S
C572 H553 0.951 . S
C572 C570 1.388 . S
C572 C573 1.366 . S
C573 C572 1.366 . S
C573 C574 1.414 . S
C573 C576 1.499 . S
C574 H554 0.950 . S
C574 C573 1.414 . S
C574 C575 1.374 . S
C575 H555 0.950 . S
C575 C571 1.385 . S
C575 C574 1.374 . S
C576 C573 1.499 . S
C576 C577 1.373 . S
C576 C578 1.389 . S
C577 H556 0.950 . S
C577 C576 1.373 . S
C577 C593 1.377 1_655 S
C578 C576 1.389 . S
C578 C579 1.524 . S
C578 C592 1.377 1_655 S
C579 C578 1.524 . S
C579 C580 1.397 . S
C579 C584 1.363 . S
C580 H557 0.950 . S
C580 C579 1.397 . S
C580 C581 1.334 . S
C581 H558 0.950 . S
C581 C580 1.334 . S
C581 C582 1.287 . S
C582 C581 1.287 . S
C582 C583 1.524 . S
C582 H601 0.913 . S
C583 H559 0.950 . S
C583 C582 1.524 . S
C583 C584 1.415 . S
C584 H560 0.950 . S
C584 C579 1.363 . S
C584 C583 1.415 . S
C585 H561 0.951 . S
C585 C586 1.366 . S
C585 C587 1.388 . S
C586 C585 1.366 . S
C586 C590 1.385 . S
C587 H562 0.951 . S
C587 C585 1.388 . S
C587 C588 1.366 . S
C588 C587 1.366 . S
C588 C589 1.414 . S
C588 C591 1.499 . S
C589 H563 0.950 . S
C589 C588 1.414 . S
C589 C590 1.374 . S
C590 H564 0.950 . S
C590 C586 1.385 . S
C590 C589 1.374 . S
C591 C588 1.499 . S
C591 C592 1.373 . S
C591 C593 1.389 . S
C592 H565 0.950 . S
C592 C578 1.377 1_455 S
C592 C591 1.373 . S
C593 C577 1.377 1_455 S
C593 C591 1.389 . S
C593 C594 1.524 . S
C594 C593 1.524 . S
C594 C595 1.397 . S
C594 C599 1.363 . S
C595 H566 0.950 . S
C595 C594 1.397 . S
C595 C596 1.334 . S
C596 H567 0.950 . S
C596 C595 1.334 . S
C596 C597 1.287 . S
C597 C596 1.287 . S
C597 C598 1.524 . S
C597 H600 0.999 . S
C598 H568 0.950 . S
C598 C597 1.524 . S
C598 C599 1.415 . S
C599 H569 0.950 . S
C599 C594 1.363 . S
C599 C598 1.415 . S
H600 C597 0.999 . S
H601 C582 0.913 . S
H602 C620 0.951 . S
H603 C622 0.951 . S
H604 C624 0.950 . S
H605 C625 0.950 . S
H606 C627 0.950 . S
H607 C630 0.950 . S
H608 C631 0.950 . S
H609 C633 0.950 . S
H610 C634 0.950 . S
H611 C635 0.951 . S
H612 C637 0.951 . S
H613 C639 0.950 . S
H614 C640 0.950 . S
H615 C642 0.950 . S
H616 C645 0.950 . S
H617 C646 0.950 . S
H618 C648 0.950 . S
H619 C649 0.950 . S
C620 H602 0.951 . S
C620 C621 1.366 . S
C620 C622 1.388 . S
C621 C620 1.366 . S
C621 C625 1.385 . S
C622 H603 0.951 . S
C622 C620 1.388 . S
C622 C623 1.366 . S
C623 C622 1.366 . S
C623 C624 1.414 . S
C623 C626 1.499 . S
C624 H604 0.950 . S
C624 C623 1.414 . S
C624 C625 1.374 . S
C625 H605 0.950 . S
C625 C621 1.385 . S
C625 C624 1.374 . S
C626 C623 1.499 . S
C626 C627 1.373 . S
C626 C628 1.389 . S
C627 H606 0.950 . S
C627 C626 1.373 . S
C627 C643 1.377 . S
C628 C626 1.389 . S
C628 C629 1.524 . S
C628 C642 1.377 . S
C629 C628 1.524 . S
C629 C630 1.397 . S
C629 C634 1.363 . S
C630 H607 0.950 . S
C630 C629 1.397 . S
C630 C631 1.334 . S
C631 H608 0.950 . S
C631 C630 1.334 . S
C631 C632 1.287 . S
C632 C631 1.287 . S
C632 C633 1.524 . S
C632 H651 0.913 . S
C633 H609 0.950 . S
C633 C632 1.524 . S
C633 C634 1.415 . S
C634 H610 0.950 . S
C634 C629 1.363 . S
C634 C633 1.415 . S
C635 H611 0.951 . S
C635 C636 1.366 . S
C635 C637 1.388 . S
C636 C635 1.366 . S
C636 C640 1.385 . S
C637 H612 0.951 . S
C637 C635 1.388 . S
C637 C638 1.366 . S
C638 C637 1.366 . S
C638 C639 1.414 . S
C638 C641 1.499 . S
C639 H613 0.950 . S
C639 C638 1.414 . S
C639 C640 1.374 . S
C640 H614 0.950 . S
C640 C636 1.385 . S
C640 C639 1.374 . S
C641 C638 1.499 . S
C641 C642 1.373 . S
C641 C643 1.389 . S
C642 H615 0.950 . S
C642 C628 1.377 . S
C642 C641 1.373 . S
C643 C627 1.377 . S
C643 C641 1.389 . S
C643 C644 1.524 . S
C644 C643 1.524 . S
C644 C645 1.397 . S
C644 C649 1.363 . S
C645 H616 0.950 . S
C645 C644 1.397 . S
C645 C646 1.334 . S
C646 H617 0.950 . S
C646 C645 1.334 . S
C646 C647 1.287 . S
C647 C646 1.287 . S
C647 C648 1.524 . S
C647 H650 0.999 . S
C648 H618 0.950 . S
C648 C647 1.524 . S
C648 C649 1.415 . S
C649 H619 0.950 . S
C649 C644 1.363 . S
C649 C648 1.415 . S
H650 C647 0.999 . S
H651 C632 0.913 . S
H652 C670 0.951 . S
H653 C672 0.951 . S
H654 C674 0.950 . S
H655 C675 0.950 . S
H656 C677 0.950 . S
H657 C680 0.950 . S
H658 C681 0.950 . S
H659 C683 0.950 . S
H660 C684 0.950 . S
H661 C685 0.951 . S
H662 C687 0.951 . S
H663 C689 0.950 . S
H664 C690 0.950 . S
H665 C692 0.950 . S
H666 C695 0.950 . S
H667 C696 0.950 . S
H668 C698 0.950 . S
H669 C699 0.950 . S
C670 H652 0.951 . S
C670 C671 1.366 . S
C670 C672 1.388 . S
C671 C670 1.366 . S
C671 C675 1.385 . S
C672 H653 0.951 . S
C672 C670 1.388 . S
C672 C673 1.366 . S
C673 C672 1.366 . S
C673 C674 1.414 . S
C673 C676 1.499 . S
C674 H654 0.950 . S
C674 C673 1.414 . S
C674 C675 1.374 . S
C675 H655 0.950 . S
C675 C671 1.385 . S
C675 C674 1.374 . S
C676 C673 1.499 . S
C676 C677 1.373 . S
C676 C678 1.351 1_545 S
C677 H656 0.950 . S
C677 C676 1.373 . S
C677 C693 1.377 1_545 S
C678 C676 1.351 1_565 S
C678 C679 1.528 . S
C678 C692 1.415 . S
C679 C678 1.528 . S
C679 C680 1.397 1_565 S
C679 C684 1.363 . S
C680 H657 0.950 . S
C680 C679 1.397 1_545 S
C680 C681 1.334 . S
C681 H658 0.950 . S
C681 C680 1.334 . S
C681 C682 1.287 1_545 S
C682 C681 1.287 1_565 S
C682 C683 1.524 . S
C682 H701 0.913 . S
C683 H659 0.950 . S
C683 C682 1.524 . S
C683 C684 1.415 . S
C684 H660 0.950 . S
C684 C679 1.363 . S
C684 C683 1.415 . S
C685 H661 0.951 . S
C685 C686 1.366 . S
C685 C687 1.388 . S
C686 C685 1.366 . S
C686 C690 1.385 . S
C687 H662 0.951 . S
C687 C685 1.388 . S
C687 C688 1.366 . S
C688 C687 1.366 . S
C688 C689 1.414 . S
C688 C691 1.499 . S
C689 H663 0.950 . S
C689 C688 1.414 . S
C689 C690 1.374 . S
C690 H664 0.950 . S
C690 C686 1.385 . S
C690 C689 1.374 . S
C691 C688 1.499 . S
C691 C692 1.373 . S
C691 C693 1.389 . S
C692 H665 0.950 . S
C692 C678 1.415 . S
C692 C691 1.373 . S
C693 C677 1.377 1_565 S
C693 C691 1.389 . S
C693 C694 1.524 . S
C694 C693 1.524 . S
C694 C695 1.397 . S
C694 C699 1.363 1_565 S
C695 H666 0.950 . S
C695 C694 1.397 . S
C695 C696 1.334 . S
C696 H667 0.950 . S
C696 C695 1.334 . S
C696 C697 1.287 . S
C697 C696 1.287 . S
C697 C698 1.524 1_565 S
C697 H700 0.999 . S
C698 H668 0.950 . S
C698 C697 1.524 1_545 S
C698 C699 1.415 . S
C699 H669 0.950 . S
C699 C694 1.363 1_545 S
C699 C698 1.415 . S
H700 C697 0.999 . S
H701 C682 0.913 . S
H702 C720 0.951 . S
H703 C722 0.951 . S
H704 C724 0.950 . S
H705 C725 0.950 . S
H706 C727 0.950 . S
H707 C730 0.950 . S
H708 C731 0.950 . S
H709 C733 0.950 . S
H710 C734 0.950 . S
H711 C735 0.951 . S
H712 C737 0.951 . S
H713 C739 0.950 . S
H714 C740 0.950 . S
H715 C742 0.950 . S
H716 C745 0.950 . S
H717 C746 0.950 . S
H718 C748 0.950 . S
H719 C749 0.950 1_455 S
C720 H702 0.951 . S
C720 C721 1.366 . S
C720 C722 1.388 . S
C721 C720 1.366 . S
C721 C725 1.385 . S
C722 H703 0.951 . S
C722 C720 1.388 . S
C722 C723 1.366 . S
C723 C722 1.366 . S
C723 C724 1.414 . S
C723 C726 1.499 . S
C724 H704 0.950 . S
C724 C723 1.414 . S
C724 C725 1.374 . S
C725 H705 0.950 . S
C725 C721 1.385 . S
C725 C724 1.374 . S
C726 C723 1.499 . S
C726 C727 1.373 . S
C726 C728 1.389 . S
C727 H706 0.950 . S
C727 C726 1.373 . S
C727 C743 1.377 1_455 S
C728 C726 1.389 . S
C728 C729 1.524 . S
C728 C742 1.377 1_455 S
C729 C728 1.524 . S
C729 C730 1.397 . S
C729 C734 1.363 . S
C730 H707 0.950 . S
C730 C729 1.397 . S
C730 C731 1.334 . S
C731 H708 0.950 . S
C731 C730 1.334 . S
C731 C732 1.287 . S
C732 C731 1.287 . S
C732 C733 1.524 . S
C732 H751 0.913 . S
C733 H709 0.950 . S
C733 C732 1.524 . S
C733 C734 1.415 . S
C734 H710 0.950 . S
C734 C729 1.363 . S
C734 C733 1.415 . S
C735 H711 0.951 . S
C735 C736 1.366 . S
C735 C737 1.388 . S
C736 C735 1.366 . S
C736 C740 1.385 . S
C737 H712 0.951 . S
C737 C735 1.388 . S
C737 C738 1.366 . S
C738 C737 1.366 . S
C738 C739 1.414 . S
C738 C741 1.499 . S
C739 H713 0.950 . S
C739 C738 1.414 . S
C739 C740 1.374 . S
C740 H714 0.950 . S
C740 C736 1.385 . S
C740 C739 1.374 . S
C741 C738 1.499 . S
C741 C742 1.373 . S
C741 C743 1.389 . S
C742 H715 0.950 . S
C742 C728 1.377 1_655 S
C742 C741 1.373 . S
C743 C727 1.377 1_655 S
C743 C741 1.389 . S
C743 C744 1.524 . S
C744 C743 1.524 . S
C744 C745 1.397 . S
C744 C749 1.363 . S
C745 H716 0.950 . S
C745 C744 1.397 . S
C745 C746 1.334 . S
C746 H717 0.950 . S
C746 C745 1.334 . S
C746 C747 1.287 . S
C747 C746 1.287 . S
C747 C748 1.524 . S
C747 H750 0.999 . S
C748 H718 0.950 . S
C748 C747 1.524 . S
C748 C749 1.415 . S
C749 H719 0.950 1_655 S
C749 C744 1.363 . S
C749 C748 1.415 . S
H750 C747 0.999 . S
H751 C732 0.913 . S
H752 C770 0.951 . S
H753 C772 0.951 . S
H754 C774 0.950 . S
H755 C775 0.950 . S
H756 C777 0.950 . S
H757 C780 0.950 . S
H758 C781 0.950 . S
H759 C783 0.950 1_545 S
H760 C784 0.950 . S
H761 C785 0.951 . S
H762 C787 0.951 . S
H763 C789 0.950 . S
H764 C790 0.950 . S
H765 C792 0.950 . S
H766 C795 0.950 . S
H767 C796 0.950 . S
H768 C798 0.950 . S
H769 C799 0.950 . S
C770 H752 0.951 . S
C770 C771 1.366 . S
C770 C772 1.388 . S
C771 C770 1.366 . S
C771 C775 1.385 . S
C772 H753 0.951 . S
C772 C770 1.388 . S
C772 C773 1.366 . S
C773 C772 1.366 . S
C773 C774 1.414 . S
C773 C776 1.499 . S
C774 H754 0.950 . S
C774 C773 1.414 . S
C774 C775 1.374 . S
C775 H755 0.950 . S
C775 C771 1.385 . S
C775 C774 1.374 . S
C776 C773 1.499 . S
C776 C777 1.373 . S
C776 C778 1.389 . S
C777 H756 0.950 . S
C777 C776 1.373 . S
C777 C793 1.377 . S
C778 C776 1.389 . S
C778 C779 1.524 . S
C778 C792 1.377 . S
C779 C778 1.524 . S
C779 C780 1.397 . S
C779 C784 1.363 . S
C780 H757 0.950 . S
C780 C779 1.397 . S
C780 C781 1.334 . S
C781 H758 0.950 . S
C781 C780 1.334 . S
C781 C782 1.287 . S
C782 C781 1.287 . S
C782 C783 1.524 . S
C782 H801 0.913 1_565 S
C783 H759 0.950 1_565 S
C783 C782 1.524 . S
C783 C784 1.415 . S
C784 H760 0.950 . S
C784 C779 1.363 . S
C784 C783 1.415 . S
C785 H761 0.951 . S
C785 C786 1.366 . S
C785 C787 1.388 . S
C786 C785 1.366 . S
C786 C790 1.385 . S
C787 H762 0.951 . S
C787 C785 1.388 . S
C787 C788 1.366 . S
C788 C787 1.366 . S
C788 C789 1.414 . S
C788 C791 1.499 . S
C789 H763 0.950 . S
C789 C788 1.414 . S
C789 C790 1.374 . S
C790 H764 0.950 . S
C790 C786 1.385 . S
C790 C789 1.374 . S
C791 C788 1.499 . S
C791 C792 1.373 . S
C791 C793 1.389 . S
C792 H765 0.950 . S
C792 C778 1.377 . S
C792 C791 1.373 . S
C793 C777 1.377 . S
C793 C791 1.389 . S
C793 C794 1.524 . S
C794 C793 1.524 . S
C794 C795 1.397 . S
C794 C799 1.363 . S
C795 H766 0.950 . S
C795 C794 1.397 . S
C795 C796 1.334 . S
C796 H767 0.950 . S
C796 C795 1.334 . S
C796 C797 1.287 . S
C797 C796 1.287 . S
C797 C798 1.524 . S
C797 H800 0.999 . S
C798 H768 0.950 . S
C798 C797 1.524 . S
C798 C799 1.415 . S
C799 H769 0.950 . S
C799 C794 1.363 . S
C799 C798 1.415 . S
H800 C797 0.999 . S
H801 C782 0.913 1_545 S
H802 C820 0.951 . S
H803 C822 0.951 . S
H804 C824 0.950 . S
H805 C825 0.950 . S
H806 C827 0.950 . S
H807 C830 0.950 . S
H808 C831 0.950 . S
H809 C833 0.950 . S
H810 C834 0.950 1_565 S
H811 C835 0.951 . S
H812 C837 0.951 . S
H813 C839 0.950 . S
H814 C840 0.950 . S
H815 C842 0.950 . S
H816 C845 0.950 . S
H817 C846 0.950 1_655 S
H818 C848 0.950 . S
H819 C849 0.950 . S
C820 H802 0.951 . S
C820 C821 1.366 . S
C820 C822 1.388 . S
C821 C820 1.366 . S
C821 C825 1.385 . S
C822 H803 0.951 . S
C822 C820 1.388 . S
C822 C823 1.366 . S
C823 C822 1.366 . S
C823 C824 1.414 . S
C823 C826 1.499 . S
C824 H804 0.950 . S
C824 C823 1.414 . S
C824 C825 1.374 . S
C825 H805 0.950 . S
C825 C821 1.385 . S
C825 C824 1.374 . S
C826 C823 1.499 . S
C826 C827 1.373 . S
C826 C828 1.389 . S
C827 H806 0.950 . S
C827 C826 1.373 . S
C827 C843 1.377 1_545 S
C828 C826 1.389 . S
C828 C829 1.524 . S
C828 C842 1.377 1_545 S
C829 C828 1.524 . S
C829 C830 1.397 . S
C829 C834 1.363 . S
C830 H807 0.950 . S
C830 C829 1.397 . S
C830 C831 1.334 . S
C831 H808 0.950 . S
C831 C830 1.334 . S
C831 C832 1.287 . S
C832 C831 1.287 . S
C832 C833 1.524 . S
C832 H851 0.913 . S
C833 H809 0.950 . S
C833 C832 1.524 . S
C833 C834 1.415 . S
C834 H810 0.950 1_545 S
C834 C829 1.363 . S
C834 C833 1.415 . S
C835 H811 0.951 . S
C835 C836 1.366 . S
C835 C837 1.388 . S
C836 C835 1.366 . S
C836 C840 1.385 . S
C837 H812 0.951 . S
C837 C835 1.388 . S
C837 C838 1.366 . S
C838 C837 1.366 . S
C838 C839 1.414 . S
C838 C841 1.499 . S
C839 H813 0.950 . S
C839 C838 1.414 . S
C839 C840 1.374 . S
C840 H814 0.950 . S
C840 C836 1.385 . S
C840 C839 1.374 . S
C841 C838 1.499 . S
C841 C842 1.373 . S
C841 C843 1.389 . S
C842 H815 0.950 . S
C842 C828 1.377 1_565 S
C842 C841 1.373 . S
C843 C827 1.377 1_565 S
C843 C841 1.389 . S
C843 C844 1.524 . S
C844 C843 1.524 . S
C844 C845 1.397 . S
C844 C849 1.363 . S
C845 H816 0.950 . S
C845 C844 1.397 . S
C845 C846 1.334 . S
C846 H817 0.950 1_455 S
C846 C845 1.334 . S
C846 C847 1.287 . S
C847 C846 1.287 . S
C847 C848 1.524 . S
C847 H850 0.999 1_455 S
C848 H818 0.950 . S
C848 C847 1.524 . S
C848 C849 1.415 . S
C849 H819 0.950 . S
C849 C844 1.363 . S
C849 C848 1.415 . S
H850 C847 0.999 1_655 S
H851 C832 0.913 . S
H852 C870 0.951 . S
H853 C872 0.951 . S
H854 C874 0.950 . S
H855 C875 0.950 . S
H856 C877 0.950 . S
H857 C880 0.950 . S
H858 C881 0.950 . S
H859 C883 0.950 . S
H860 C884 0.952 . S
H861 C885 0.951 . S
H862 C887 0.951 . S
H863 C889 0.950 . S
H864 C890 0.950 . S
H865 C892 0.950 . S
H866 C895 0.950 . S
H867 C896 0.950 . S
H868 C898 0.950 . S
H869 C899 0.950 . S
C870 H852 0.951 . S
C870 C871 1.366 . S
C870 C872 1.388 . S
C871 C870 1.366 . S
C871 C875 1.385 . S
C872 H853 0.951 . S
C872 C870 1.388 . S
C872 C873 1.366 . S
C873 C872 1.366 . S
C873 C874 1.414 . S
C873 C876 1.499 . S
C874 H854 0.950 . S
C874 C873 1.414 . S
C874 C875 1.374 . S
C875 H855 0.950 . S
C875 C871 1.385 . S
C875 C874 1.374 . S
C876 C873 1.499 . S
C876 C877 1.373 . S
C876 C878 1.389 . S
C877 H856 0.950 . S
C877 C876 1.373 . S
C877 C893 1.377 1_565 S
C878 C876 1.389 . S
C878 C879 1.524 . S
C878 C892 1.377 1_565 S
C879 C878 1.524 . S
C879 C880 1.397 . S
C879 C884 1.363 . S
C880 H857 0.950 . S
C880 C879 1.397 . S
C880 C881 1.334 . S
C881 H858 0.950 . S
C881 C880 1.334 . S
C881 C882 1.287 . S
C882 C881 1.287 . S
C882 C883 1.524 . S
C882 H901 0.913 . S
C883 H859 0.950 . S
C883 C882 1.524 . S
C883 C884 1.415 . S
C884 H860 0.952 . S
C884 C879 1.363 . S
C884 C883 1.415 . S
C885 H861 0.951 . S
C885 C886 1.366 . S
C885 C887 1.388 . S
C886 C885 1.366 . S
C886 C890 1.385 . S
C887 H862 0.951 . S
C887 C885 1.388 . S
C887 C888 1.366 . S
C888 C887 1.366 . S
C888 C889 1.414 . S
C888 C891 1.499 . S
C889 H863 0.950 . S
C889 C888 1.414 . S
C889 C890 1.374 . S
C890 H864 0.950 . S
C890 C886 1.385 . S
C890 C889 1.374 . S
C891 C888 1.499 . S
C891 C892 1.373 . S
C891 C893 1.389 . S
C892 H865 0.950 . S
C892 C878 1.377 1_545 S
C892 C891 1.373 . S
C893 C877 1.377 1_545 S
C893 C891 1.389 . S
C893 C894 1.524 . S
C894 C893 1.524 . S
C894 C895 1.397 . S
C894 C899 1.363 . S
C895 H866 0.950 . S
C895 C894 1.397 . S
C895 C896 1.334 . S
C896 H867 0.950 . S
C896 C895 1.334 . S
C896 C897 1.287 . S
C897 C896 1.287 . S
C897 C898 1.524 . S
C897 H900 0.999 . S
C898 H868 0.950 . S
C898 C897 1.524 . S
C898 C899 1.415 . S
C899 H869 0.950 . S
C899 C894 1.363 . S
C899 C898 1.415 . S
H900 C897 0.999 . S
H901 C882 0.913 . S
H902 C920 0.951 . S
H903 C922 0.951 . S
H904 C924 0.950 . S
H905 C925 0.950 . S
H906 C927 0.950 . S
H907 C930 0.950 . S
H908 C931 0.950 . S
H909 C933 0.950 . S
H910 C934 0.950 1_655 S
H911 C935 0.951 . S
H912 C937 0.951 . S
H913 C939 0.950 . S
H914 C940 0.950 . S
H915 C942 0.950 . S
H916 C945 0.950 . S
H917 C946 0.950 . S
H918 C948 0.950 . S
H919 C949 0.950 . S
C920 H902 0.951 . S
C920 C921 1.366 . S
C920 C922 1.388 . S
C921 C920 1.366 . S
C921 C925 1.385 . S
C922 H903 0.951 . S
C922 C920 1.388 . S
C922 C923 1.366 . S
C923 C922 1.366 . S
C923 C924 1.414 . S
C923 C926 1.499 . S
C924 H904 0.950 . S
C924 C923 1.414 . S
C924 C925 1.374 . S
C925 H905 0.950 . S
C925 C921 1.385 . S
C925 C924 1.374 . S
C926 C923 1.499 . S
C926 C927 1.373 . S
C926 C928 1.389 . S
C927 H906 0.950 . S
C927 C926 1.373 . S
C927 C943 1.377 1_455 S
C928 C926 1.389 . S
C928 C929 1.524 . S
C928 C942 1.377 1_455 S
C929 C928 1.524 . S
C929 C930 1.397 . S
C929 C934 1.363 . S
C930 H907 0.950 . S
C930 C929 1.397 . S
C930 C931 1.334 . S
C931 H908 0.950 . S
C931 C930 1.334 . S
C931 C932 1.287 . S
C932 C931 1.287 . S
C932 C933 1.524 . S
C932 H951 0.913 . S
C933 H909 0.950 . S
C933 C932 1.524 . S
C933 C934 1.415 . S
C934 H910 0.950 1_455 S
C934 C929 1.363 . S
C934 C933 1.415 . S
C935 H911 0.951 . S
C935 C936 1.366 . S
C935 C937 1.388 . S
C936 C935 1.366 . S
C936 C940 1.385 . S
C937 H912 0.951 . S
C937 C935 1.388 . S
C937 C938 1.366 . S
C938 C937 1.366 . S
C938 C939 1.414 . S
C938 C941 1.499 . S
C939 H913 0.950 . S
C939 C938 1.414 . S
C939 C940 1.374 . S
C940 H914 0.950 . S
C940 C936 1.385 . S
C940 C939 1.374 . S
C941 C938 1.499 . S
C941 C942 1.373 . S
C941 C943 1.389 . S
C942 H915 0.950 . S
C942 C928 1.377 1_655 S
C942 C941 1.373 . S
C943 C927 1.377 1_655 S
C943 C941 1.389 . S
C943 C944 1.524 . S
C944 C943 1.524 . S
C944 C945 1.397 . S
C944 C949 1.363 . S
C945 H916 0.950 . S
C945 C944 1.397 . S
C945 C946 1.334 . S
C946 H917 0.950 . S
C946 C945 1.334 . S
C946 C947 1.287 . S
C947 C946 1.287 . S
C947 C948 1.524 . S
C947 H950 0.999 . S
C948 H918 0.950 . S
C948 C947 1.524 . S
C948 C949 1.415 . S
C949 H919 0.950 . S
C949 C944 1.363 . S
C949 C948 1.415 . S
H950 C947 0.999 . S
H951 C932 0.913 . S
H952 C970 0.951 . S
H953 C972 0.951 . S
H954 C974 0.950 . S
H955 C975 0.950 . S
H956 C977 0.950 . S
H957 C980 0.950 . S
H958 C981 0.950 . S
H959 C983 0.950 . S
H960 C984 0.950 . S
H961 C985 0.951 . S
H962 C987 0.951 . S
H963 C989 0.950 . S
H964 C990 0.950 . S
H965 C992 0.950 . S
H966 C995 0.950 . S
H967 C996 0.950 . S
H968 C998 0.950 . S
H969 C999 0.950 . S
C970 H952 0.951 . S
C970 C971 1.366 . S
C970 C972 1.388 . S
C971 C970 1.366 . S
C971 C975 1.385 . S
C972 H953 0.951 . S
C972 C970 1.388 . S
C972 C973 1.366 . S
C973 C972 1.366 . S
C973 C974 1.414 . S
C973 C976 1.499 . S
C974 H954 0.950 . S
C974 C973 1.414 . S
C974 C975 1.374 . S
C975 H955 0.950 . S
C975 C971 1.385 . S
C975 C974 1.374 . S
C976 C973 1.499 . S
C976 C977 1.373 . S
C976 C978 1.389 . S
C977 H956 0.950 . S
C977 C976 1.373 . S
C977 C993 1.377 . S
C978 C976 1.389 . S
C978 C979 1.524 . S
C978 C992 1.377 . S
C979 C978 1.524 . S
C979 C980 1.397 . S
C979 C984 1.363 . S
C980 H957 0.950 . S
C980 C979 1.397 . S
C980 C981 1.334 . S
C981 H958 0.950 . S
C981 C980 1.334 . S
C981 C982 1.287 . S
C982 C981 1.287 . S
C982 C983 1.524 . S
C982 H1001 0.913 . S
C983 H959 0.950 . S
C983 C982 1.524 . S
C983 C984 1.415 . S
C984 H960 0.950 . S
C984 C979 1.363 . S
C984 C983 1.415 . S
C985 H961 0.951 . S
C985 C986 1.366 . S
C985 C987 1.388 . S
C986 C985 1.366 . S
C986 C990 1.385 . S
C987 H962 0.951 . S
C987 C985 1.388 . S
C987 C988 1.366 . S
C988 C987 1.366 . S
C988 C989 1.414 . S
C988 C991 1.499 . S
C989 H963 0.950 . S
C989 C988 1.414 . S
C989 C990 1.374 . S
C990 H964 0.950 . S
C990 C986 1.385 . S
C990 C989 1.374 . S
C991 C988 1.499 . S
C991 C992 1.373 . S
C991 C993 1.389 . S
C992 H965 0.950 . S
C992 C978 1.377 . S
C992 C991 1.373 . S
C993 C977 1.377 . S
C993 C991 1.389 . S
C993 C994 1.524 . S
C994 C993 1.524 . S
C994 C995 1.397 . S
C994 C999 1.363 . S
C995 H966 0.950 . S
C995 C994 1.397 . S
C995 C996 1.334 . S
C996 H967 0.950 . S
C996 C995 1.334 . S
C996 C997 1.287 . S
C997 C996 1.287 . S
C997 C998 1.524 . S
C997 H1000 0.999 . S
C998 H968 0.950 . S
C998 C997 1.524 . S
C998 C999 1.415 . S
C999 H969 0.950 . S
C999 C994 1.363 . S
C999 C998 1.415 . S
H1000 C997 0.999 . S
H1001 C982 0.913 . S
H1002 C1020 0.951 . S
H1003 C1022 0.951 . S
H1004 C1024 0.950 . S
H1005 C1025 0.950 . S
H1006 C1027 0.950 . S
H1007 C1030 0.950 . S
H1008 C1031 0.950 . S
H1009 C1033 0.950 . S
H1010 C1034 0.950 . S
H1011 C1035 0.951 . S
H1012 C1037 0.951 . S
H1013 C1039 0.950 . S
H1014 C1040 0.950 . S
H1015 C1042 0.950 . S
H1016 C1045 0.950 . S
H1017 C1046 0.950 . S
H1018 C1048 0.950 . S
H1019 C1049 0.950 . S
C1020 H1002 0.951 . S
C1020 C1021 1.366 . S
C1020 C1022 1.388 . S
C1021 C1020 1.366 . S
C1021 C1025 1.385 . S
C1022 H1003 0.951 . S
C1022 C1020 1.388 . S
C1022 C1023 1.366 . S
C1023 C1022 1.366 . S
C1023 C1024 1.414 . S
C1023 C1026 1.499 . S
C1024 H1004 0.950 . S
C1024 C1023 1.414 . S
C1024 C1025 1.374 . S
C1025 H1005 0.950 . S
C1025 C1021 1.385 . S
C1025 C1024 1.374 . S
C1026 C1023 1.499 . S
C1026 C1027 1.373 . S
C1026 C1028 1.389 . S
C1027 H1006 0.950 . S
C1027 C1026 1.373 . S
C1027 C1043 1.377 . S
C1028 C1026 1.389 . S
C1028 C1029 1.524 . S
C1028 C1042 1.377 . S
C1029 C1028 1.524 . S
C1029 C1030 1.397 . S
C1029 C1034 1.363 . S
C1030 H1007 0.950 . S
C1030 C1029 1.397 . S
C1030 C1031 1.334 . S
C1031 H1008 0.950 . S
C1031 C1030 1.334 . S
C1031 C1032 1.287 . S
C1032 C1031 1.287 . S
C1032 C1033 1.524 . S
C1032 H1051 0.913 . S
C1033 H1009 0.950 . S
C1033 C1032 1.524 . S
C1033 C1034 1.415 . S
C1034 H1010 0.950 . S
C1034 C1029 1.363 . S
C1034 C1033 1.415 . S
C1035 H1011 0.951 . S
C1035 C1036 1.366 . S
C1035 C1037 1.388 . S
C1036 C1035 1.366 . S
C1036 C1040 1.385 . S
C1037 H1012 0.951 . S
C1037 C1035 1.388 . S
C1037 C1038 1.366 . S
C1038 C1037 1.366 . S
C1038 C1039 1.414 . S
C1038 C1041 1.499 . S
C1039 H1013 0.950 . S
C1039 C1038 1.414 . S
C1039 C1040 1.374 . S
C1040 H1014 0.950 . S
C1040 C1036 1.385 . S
C1040 C1039 1.374 . S
C1041 C1038 1.499 . S
C1041 C1042 1.373 . S
C1041 C1043 1.389 . S
C1042 H1015 0.950 . S
C1042 C1028 1.377 . S
C1042 C1041 1.373 . S
C1043 C1027 1.377 . S
C1043 C1041 1.389 . S
C1043 C1044 1.524 . S
C1044 C1043 1.524 . S
C1044 C1045 1.397 . S
C1044 C1049 1.363 . S
C1045 H1016 0.950 . S
C1045 C1044 1.397 . S
C1045 C1046 1.334 . S
C1046 H1017 0.950 . S
C1046 C1045 1.334 . S
C1046 C1047 1.287 . S
C1047 C1046 1.287 . S
C1047 C1048 1.524 . S
C1047 H1050 0.999 . S
C1048 H1018 0.950 . S
C1048 C1047 1.524 . S
C1048 C1049 1.415 . S
C1049 H1019 0.950 . S
C1049 C1044 1.363 . S
C1049 C1048 1.415 . S
H1050 C1047 0.999 . S
H1051 C1032 0.913 . S
H1052 C1070 0.951 . S
H1053 C1072 0.951 . S
H1054 C1074 0.950 . S
H1055 C1075 0.950 . S
H1056 C1077 0.950 . S
H1057 C1080 0.950 . S
H1058 C1081 0.950 . S
H1059 C1083 0.950 . S
H1060 C1084 0.950 . S
H1061 C1085 0.951 . S
H1062 C1087 0.951 . S
H1063 C1089 0.950 . S
H1064 C1090 0.950 . S
H1065 C1092 0.950 . S
H1066 C1095 0.950 . S
H1067 C1096 0.950 . S
H1068 C1098 0.950 . S
H1069 C1099 0.950 . S
C1070 H1052 0.951 . S
C1070 C1071 1.366 . S
C1070 C1072 1.388 . S
C1071 C1070 1.366 . S
C1071 C1075 1.385 . S
C1072 H1053 0.951 . S
C1072 C1070 1.388 . S
C1072 C1073 1.366 . S
C1073 C1072 1.366 . S
C1073 C1074 1.414 . S
C1073 C1076 1.499 . S
C1074 H1054 0.950 . S
C1074 C1073 1.414 . S
C1074 C1075 1.374 . S
C1075 H1055 0.950 . S
C1075 C1071 1.385 . S
C1075 C1074 1.374 . S
C1076 C1073 1.499 . S
C1076 C1077 1.373 . S
C1076 C1078 1.389 . S
C1077 H1056 0.950 . S
C1077 C1076 1.373 . S
C1077 C1093 1.377 . S
C1078 C1076 1.389 . S
C1078 C1079 1.524 . S
C1078 C1092 1.377 . S
C1079 C1078 1.524 . S
C1079 C1080 1.397 . S
C1079 C1084 1.363 . S
C1080 H1057 0.950 . S
C1080 C1079 1.397 . S
C1080 C1081 1.334 . S
C1081 H1058 0.950 . S
C1081 C1080 1.334 . S
C1081 C1082 1.287 . S
C1082 C1081 1.287 . S
C1082 C1083 1.524 . S
C1082 H1101 0.913 . S
C1083 H1059 0.950 . S
C1083 C1082 1.524 . S
C1083 C1084 1.415 . S
C1084 H1060 0.950 . S
C1084 C1079 1.363 . S
C1084 C1083 1.415 . S
C1085 H1061 0.951 . S
C1085 C1086 1.366 . S
C1085 C1087 1.388 . S
C1086 C1085 1.366 . S
C1086 C1090 1.385 . S
C1087 H1062 0.951 . S
C1087 C1085 1.388 . S
C1087 C1088 1.366 . S
C1088 C1087 1.366 . S
C1088 C1089 1.414 . S
C1088 C1091 1.499 . S
C1089 H1063 0.950 . S
C1089 C1088 1.414 . S
C1089 C1090 1.374 . S
C1090 H1064 0.950 . S
C1090 C1086 1.385 . S
C1090 C1089 1.374 . S
C1091 C1088 1.499 . S
C1091 C1092 1.373 . S
C1091 C1093 1.389 . S
C1092 H1065 0.950 . S
C1092 C1078 1.377 . S
C1092 C1091 1.373 . S
C1093 C1077 1.377 . S
C1093 C1091 1.389 . S
C1093 C1094 1.524 . S
C1094 C1093 1.524 . S
C1094 C1095 1.397 . S
C1094 C1099 1.363 . S
C1095 H1066 0.950 . S
C1095 C1094 1.397 . S
C1095 C1096 1.334 . S
C1096 H1067 0.950 . S
C1096 C1095 1.334 . S
C1096 C1097 1.287 . S
C1097 C1096 1.287 . S
C1097 C1098 1.524 . S
C1097 H1100 0.999 . S
C1098 H1068 0.950 . S
C1098 C1097 1.524 . S
C1098 C1099 1.415 . S
C1099 H1069 0.950 . S
C1099 C1094 1.363 . S
C1099 C1098 1.415 . S
H1100 C1097 0.999 . S
H1101 C1082 0.913 . S
H1102 C1120 0.951 . S
H1103 C1122 0.951 . S
H1104 C1124 0.950 . S
H1105 C1125 0.950 . S
H1106 C1127 0.950 . S
H1107 C1130 0.950 . S
H1108 C1131 0.950 . S
H1109 C1133 0.950 . S
H1110 C1134 0.950 . S
H1111 C1135 0.951 . S
H1112 C1137 0.951 . S
H1113 C1139 0.950 . S
H1114 C1140 0.950 . S
H1115 C1142 0.950 . S
H1116 C1145 0.950 . S
H1117 C1146 0.950 . S
H1118 C1148 0.950 . S
H1119 C1149 0.950 . S
C1120 H1102 0.951 . S
C1120 C1121 1.366 . S
C1120 C1122 1.388 . S
C1121 C1120 1.366 . S
C1121 C1125 1.385 . S
C1122 H1103 0.951 . S
C1122 C1120 1.388 . S
C1122 C1123 1.366 . S
C1123 C1122 1.366 . S
C1123 C1124 1.414 . S
C1123 C1126 1.499 . S
C1124 H1104 0.950 . S
C1124 C1123 1.414 . S
C1124 C1125 1.374 . S
C1125 H1105 0.950 . S
C1125 C1121 1.385 . S
C1125 C1124 1.374 . S
C1126 C1123 1.499 . S
C1126 C1127 1.373 . S
C1126 C1128 1.389 . S
C1127 H1106 0.950 . S
C1127 C1126 1.373 . S
C1127 C1143 1.377 . S
C1128 C1126 1.389 . S
C1128 C1129 1.524 . S
C1128 C1142 1.377 . S
C1129 C1128 1.524 . S
C1129 C1130 1.397 . S
C1129 C1134 1.363 . S
C1130 H1107 0.950 . S
C1130 C1129 1.397 . S
C1130 C1131 1.334 . S
C1131 H1108 0.950 . S
C1131 C1130 1.334 . S
C1131 C1132 1.287 . S
C1132 C1131 1.287 . S
C1132 C1133 1.524 . S
C1132 H1151 0.913 . S
C1133 H1109 0.950 . S
C1133 C1132 1.524 . S
C1133 C1134 1.415 . S
C1134 H1110 0.950 . S
C1134 C1129 1.363 . S
C1134 C1133 1.415 . S
C1135 H1111 0.951 . S
C1135 C1136 1.366 . S
C1135 C1137 1.388 . S
C1136 C1135 1.366 . S
C1136 C1140 1.385 . S
C1137 H1112 0.951 . S
C1137 C1135 1.388 . S
C1137 C1138 1.366 . S
C1138 C1137 1.366 . S
C1138 C1139 1.414 . S
C1138 C1141 1.499 . S
C1139 H1113 0.950 . S
C1139 C1138 1.414 . S
C1139 C1140 1.374 . S
C1140 H1114 0.950 . S
C1140 C1136 1.385 . S
C1140 C1139 1.374 . S
C1141 C1138 1.499 . S
C1141 C1142 1.373 . S
C1141 C1143 1.389 . S
C1142 H1115 0.950 . S
C1142 C1128 1.377 . S
C1142 C1141 1.373 . S
C1143 C1127 1.377 . S
C1143 C1141 1.389 . S
C1143 C1144 1.524 . S
C1144 C1143 1.524 . S
C1144 C1145 1.397 . S
C1144 C1149 1.363 . S
C1145 H1116 0.950 . S
C1145 C1144 1.397 . S
C1145 C1146 1.334 . S
C1146 H1117 0.950 . S
C1146 C1145 1.334 . S
C1146 C1147 1.287 . S
C1147 C1146 1.287 . S
C1147 C1148 1.524 . S
C1147 H1150 0.999 . S
C1148 H1118 0.950 . S
C1148 C1147 1.524 . S
C1148 C1149 1.415 . S
C1149 H1119 0.950 . S
C1149 C1144 1.363 . S
C1149 C1148 1.415 . S
H1150 C1147 0.999 . S
H1151 C1132 0.913 . S
H1152 C1170 0.951 . S
H1153 C1172 0.951 . S
H1154 C1174 0.950 . S
H1155 C1175 0.950 . S
H1156 C1177 0.950 . S
H1157 C1180 0.950 . S
H1158 C1181 0.950 . S
H1159 C1183 0.950 . S
H1160 C1184 0.950 . S
H1161 C1185 0.951 . S
H1162 C1187 0.951 . S
H1163 C1189 0.950 . S
H1164 C1190 0.950 . S
H1165 C1192 0.950 . S
H1166 C1195 0.950 . S
H1167 C1196 0.950 . S
H1168 C1198 0.950 . S
H1169 C1199 0.950 . S
C1170 H1152 0.951 . S
C1170 C1171 1.366 . S
C1170 C1172 1.388 . S
C1171 C1170 1.366 . S
C1171 C1175 1.385 . S
C1172 H1153 0.951 . S
C1172 C1170 1.388 . S
C1172 C1173 1.366 . S
C1173 C1172 1.366 . S
C1173 C1174 1.414 . S
C1173 C1176 1.499 . S
C1174 H1154 0.950 . S
C1174 C1173 1.414 . S
C1174 C1175 1.374 . S
C1175 H1155 0.950 . S
C1175 C1171 1.385 . S
C1175 C1174 1.374 . S
C1176 C1173 1.499 . S
C1176 C1177 1.373 . S
C1176 C1178 1.389 . S
C1177 H1156 0.950 . S
C1177 C1176 1.373 . S
C1177 C1193 1.377 . S
C1178 C1176 1.389 . S
C1178 C1179 1.524 . S
C1178 C1192 1.377 . S
C1179 C1178 1.524 . S
C1179 C1180 1.397 . S
C1179 C1184 1.363 . S
C1180 H1157 0.950 . S
C1180 C1179 1.397 . S
C1180 C1181 1.334 . S
C1181 H1158 0.950 . S
C1181 C1180 1.334 . S
C1181 C1182 1.287 . S
C1182 C1181 1.287 . S
C1182 C1183 1.524 . S
C1182 H1201 0.913 . S
C1183 H1159 0.950 . S
C1183 C1182 1.524 . S
C1183 C1184 1.415 . S
C1184 H1160 0.950 . S
C1184 C1179 1.363 . S
C1184 C1183 1.415 . S
C1185 H1161 0.951 . S
C1185 C1186 1.366 . S
C1185 C1187 1.388 . S
C1186 C1185 1.366 . S
C1186 C1190 1.385 . S
C1187 H1162 0.951 . S
C1187 C1185 1.388 . S
C1187 C1188 1.366 . S
C1188 C1187 1.366 . S
C1188 C1189 1.414 . S
C1188 C1191 1.499 . S
C1189 H1163 0.950 . S
C1189 C1188 1.414 . S
C1189 C1190 1.374 . S
C1190 H1164 0.950 . S
C1190 C1186 1.385 . S
C1190 C1189 1.374 . S
C1191 C1188 1.499 . S
C1191 C1192 1.373 . S
C1191 C1193 1.389 . S
C1192 H1165 0.950 . S
C1192 C1178 1.377 . S
C1192 C1191 1.373 . S
C1193 C1177 1.377 . S
C1193 C1191 1.389 . S
C1193 C1194 1.524 . S
C1194 C1193 1.524 . S
C1194 C1195 1.397 . S
C1194 C1199 1.363 . S
C1195 H1166 0.950 . S
C1195 C1194 1.397 . S
C1195 C1196 1.334 . S
C1196 H1167 0.950 . S
C1196 C1195 1.334 . S
C1196 C1197 1.287 . S
C1197 C1196 1.287 . S
C1197 C1198 1.524 . S
C1197 H1200 0.999 . S
C1198 H1168 0.950 . S
C1198 C1197 1.524 . S
C1198 C1199 1.415 . S
C1199 H1169 0.950 . S
C1199 C1194 1.363 . S
C1199 C1198 1.415 . S
H1200 C1197 0.999 . S
H1201 C1182 0.913 . S
H1202 C1220 0.951 . S
H1203 C1222 0.951 . S
H1204 C1224 0.950 . S
H1205 C1225 0.950 . S
H1206 C1227 0.950 . S
H1207 C1230 0.950 . S
H1208 C1231 0.950 . S
H1209 C1233 0.950 . S
H1210 C1234 0.950 . S
H1211 C1235 0.951 . S
H1212 C1237 0.951 . S
H1213 C1239 0.950 . S
H1214 C1240 0.950 . S
H1215 C1242 0.950 . S
H1216 C1245 0.950 . S
H1217 C1246 0.950 . S
H1218 C1248 0.950 . S
H1219 C1249 0.950 . S
C1220 H1202 0.951 . S
C1220 C1221 1.366 . S
C1220 C1222 1.388 . S
C1221 C1220 1.366 . S
C1221 C1225 1.385 . S
C1222 H1203 0.951 . S
C1222 C1220 1.388 . S
C1222 C1223 1.366 . S
C1223 C1222 1.366 . S
C1223 C1224 1.414 . S
C1223 C1226 1.499 . S
C1224 H1204 0.950 . S
C1224 C1223 1.414 . S
C1224 C1225 1.374 . S
C1225 H1205 0.950 . S
C1225 C1221 1.385 . S
C1225 C1224 1.374 . S
C1226 C1223 1.499 . S
C1226 C1227 1.373 . S
C1226 C1228 1.389 . S
C1227 H1206 0.950 . S
C1227 C1226 1.373 . S
C1227 C1243 1.377 . S
C1228 C1226 1.389 . S
C1228 C1229 1.524 . S
C1228 C1242 1.377 . S
C1229 C1228 1.524 . S
C1229 C1230 1.397 . S
C1229 C1234 1.363 . S
C1230 H1207 0.950 . S
C1230 C1229 1.397 . S
C1230 C1231 1.334 . S
C1231 H1208 0.950 . S
C1231 C1230 1.334 . S
C1231 C1232 1.287 . S
C1232 C1231 1.287 . S
C1232 C1233 1.524 . S
C1232 H1251 0.913 . S
C1233 H1209 0.950 . S
C1233 C1232 1.524 . S
C1233 C1234 1.415 . S
C1234 H1210 0.950 . S
C1234 C1229 1.363 . S
C1234 C1233 1.415 . S
C1235 H1211 0.951 . S
C1235 C1236 1.366 . S
C1235 C1237 1.388 . S
C1236 C1235 1.366 . S
C1236 C1240 1.385 . S
C1237 H1212 0.951 . S
C1237 C1235 1.388 . S
C1237 C1238 1.366 . S
C1238 C1237 1.366 . S
C1238 C1239 1.414 . S
C1238 C1241 1.499 . S
C1239 H1213 0.950 . S
C1239 C1238 1.414 . S
C1239 C1240 1.374 . S
C1240 H1214 0.950 . S
C1240 C1236 1.385 . S
C1240 C1239 1.374 . S
C1241 C1238 1.499 . S
C1241 C1242 1.373 . S
C1241 C1243 1.389 . S
C1242 H1215 0.950 . S
C1242 C1228 1.377 . S
C1242 C1241 1.373 . S
C1243 C1227 1.377 . S
C1243 C1241 1.389 . S
C1243 C1244 1.524 . S
C1244 C1243 1.524 . S
C1244 C1245 1.397 . S
C1244 C1249 1.363 . S
C1245 H1216 0.950 . S
C1245 C1244 1.397 . S
C1245 C1246 1.334 . S
C1246 H1217 0.950 . S
C1246 C1245 1.334 . S
C1246 C1247 1.287 . S
C1247 C1246 1.287 . S
C1247 C1248 1.524 . S
C1247 H1250 0.999 . S
C1248 H1218 0.950 . S
C1248 C1247 1.524 . S
C1248 C1249 1.415 . S
C1249 H1219 0.950 . S
C1249 C1244 1.363 . S
C1249 C1248 1.415 . S
H1250 C1247 0.999 . S
H1251 C1232 0.913 . S
H1252 C1270 0.951 . S
H1253 C1272 0.951 . S
H1254 C1274 0.950 . S
H1255 C1275 0.950 . S
H1256 C1277 0.950 . S
H1257 C1280 0.950 . S
H1258 C1281 0.950 . S
H1259 C1283 0.950 . S
H1260 C1284 0.950 . S
H1261 C1285 0.951 . S
H1262 C1287 0.951 . S
H1263 C1289 0.950 . S
H1264 C1290 0.950 . S
H1265 C1292 0.950 . S
H1266 C1295 0.950 . S
H1267 C1296 0.950 . S
H1268 C1298 0.950 . S
H1269 C1299 0.950 . S
C1270 H1252 0.951 . S
C1270 C1271 1.366 . S
C1270 C1272 1.388 . S
C1271 C1270 1.366 . S
C1271 C1275 1.385 . S
C1272 H1253 0.951 . S
C1272 C1270 1.388 . S
C1272 C1273 1.366 . S
C1273 C1272 1.366 . S
C1273 C1274 1.414 . S
C1273 C1276 1.499 . S
C1274 H1254 0.950 . S
C1274 C1273 1.414 . S
C1274 C1275 1.374 . S
C1275 H1255 0.950 . S
C1275 C1271 1.385 . S
C1275 C1274 1.374 . S
C1276 C1273 1.499 . S
C1276 C1277 1.373 . S
C1276 C1278 1.389 . S
C1277 H1256 0.950 . S
C1277 C1276 1.373 . S
C1277 C1293 1.377 . S
C1278 C1276 1.389 . S
C1278 C1279 1.524 . S
C1278 C1292 1.377 . S
C1279 C1278 1.524 . S
C1279 C1280 1.397 . S
C1279 C1284 1.363 . S
C1280 H1257 0.950 . S
C1280 C1279 1.397 . S
C1280 C1281 1.334 . S
C1281 H1258 0.950 . S
C1281 C1280 1.334 . S
C1281 C1282 1.287 . S
C1282 C1281 1.287 . S
C1282 C1283 1.524 . S
C1282 H1301 0.913 . S
C1283 H1259 0.950 . S
C1283 C1282 1.524 . S
C1283 C1284 1.415 . S
C1284 H1260 0.950 . S
C1284 C1279 1.363 . S
C1284 C1283 1.415 . S
C1285 H1261 0.951 . S
C1285 C1286 1.366 . S
C1285 C1287 1.388 . S
C1286 C1285 1.366 . S
C1286 C1290 1.385 . S
C1287 H1262 0.951 . S
C1287 C1285 1.388 . S
C1287 C1288 1.366 . S
C1288 C1287 1.366 . S
C1288 C1289 1.414 . S
C1288 C1291 1.499 . S
C1289 H1263 0.950 . S
C1289 C1288 1.414 . S
C1289 C1290 1.374 . S
C1290 H1264 0.950 . S
C1290 C1286 1.385 . S
C1290 C1289 1.374 . S
C1291 C1288 1.499 . S
C1291 C1292 1.373 . S
C1291 C1293 1.389 . S
C1292 H1265 0.950 . S
C1292 C1278 1.377 . S
C1292 C1291 1.373 . S
C1293 C1277 1.377 . S
C1293 C1291 1.389 . S
C1293 C1294 1.524 . S
C1294 C1293 1.524 . S
C1294 C1295 1.397 . S
C1294 C1299 1.363 . S
C1295 H1266 0.950 . S
C1295 C1294 1.397 . S
C1295 C1296 1.334 . S
C1296 H1267 0.950 . S
C1296 C1295 1.334 . S
C1296 C1297 1.287 . S
C1297 C1296 1.287 . S
C1297 C1298 1.524 . S
C1297 H1300 0.999 . S
C1298 H1268 0.950 . S
C1298 C1297 1.524 . S
C1298 C1299 1.415 . S
C1299 H1269 0.950 . S
C1299 C1294 1.363 . S
C1299 C1298 1.415 . S
H1300 C1297 0.999 . S
H1301 C1282 0.913 . S
H1302 C1320 0.951 . S
H1303 C1322 0.951 . S
H1304 C1324 0.950 . S
H1305 C1325 0.950 . S
H1306 C1327 0.950 . S
H1307 C1330 0.950 . S
H1308 C1331 0.950 . S
H1309 C1333 0.950 . S
H1310 C1334 0.950 . S
H1311 C1335 0.951 . S
H1312 C1337 0.951 . S
H1313 C1339 0.950 . S
H1314 C1340 0.950 . S
H1315 C1342 0.950 . S
H1316 C1345 0.950 . S
H1317 C1346 0.950 . S
H1318 C1348 0.950 . S
H1319 C1349 0.950 . S
C1320 H1302 0.951 . S
C1320 C1321 1.366 . S
C1320 C1322 1.388 . S
C1321 C1320 1.366 . S
C1321 C1325 1.385 . S
C1322 H1303 0.951 . S
C1322 C1320 1.388 . S
C1322 C1323 1.366 . S
C1323 C1322 1.366 . S
C1323 C1324 1.414 . S
C1323 C1326 1.499 . S
C1324 H1304 0.950 . S
C1324 C1323 1.414 . S
C1324 C1325 1.374 . S
C1325 H1305 0.950 . S
C1325 C1321 1.385 . S
C1325 C1324 1.374 . S
C1326 C1323 1.499 . S
C1326 C1327 1.373 . S
C1326 C1328 1.389 . S
C1327 H1306 0.950 . S
C1327 C1326 1.373 . S
C1327 C1343 1.377 . S
C1328 C1326 1.389 . S
C1328 C1329 1.524 . S
C1328 C1342 1.377 . S
C1329 C1328 1.524 . S
C1329 C1330 1.397 . S
C1329 C1334 1.363 . S
C1330 H1307 0.950 . S
C1330 C1329 1.397 . S
C1330 C1331 1.334 . S
C1331 H1308 0.950 . S
C1331 C1330 1.334 . S
C1331 C1332 1.287 . S
C1332 C1331 1.287 . S
C1332 C1333 1.524 . S
C1332 H1351 0.913 . S
C1333 H1309 0.950 . S
C1333 C1332 1.524 . S
C1333 C1334 1.415 . S
C1334 H1310 0.950 . S
C1334 C1329 1.363 . S
C1334 C1333 1.415 . S
C1335 H1311 0.951 . S
C1335 C1336 1.366 . S
C1335 C1337 1.388 . S
C1336 C1335 1.366 . S
C1336 C1340 1.385 . S
C1337 H1312 0.951 . S
C1337 C1335 1.388 . S
C1337 C1338 1.366 . S
C1338 C1337 1.366 . S
C1338 C1339 1.414 . S
C1338 C1341 1.499 . S
C1339 H1313 0.950 . S
C1339 C1338 1.414 . S
C1339 C1340 1.374 . S
C1340 H1314 0.950 . S
C1340 C1336 1.385 . S
C1340 C1339 1.374 . S
C1341 C1338 1.499 . S
C1341 C1342 1.373 . S
C1341 C1343 1.389 . S
C1342 H1315 0.950 . S
C1342 C1328 1.377 . S
C1342 C1341 1.373 . S
C1343 C1327 1.377 . S
C1343 C1341 1.389 . S
C1343 C1344 1.524 . S
C1344 C1343 1.524 . S
C1344 C1345 1.397 . S
C1344 C1349 1.363 . S
C1345 H1316 0.950 . S
C1345 C1344 1.397 . S
C1345 C1346 1.334 . S
C1346 H1317 0.950 . S
C1346 C1345 1.334 . S
C1346 C1347 1.287 . S
C1347 C1346 1.287 . S
C1347 C1348 1.524 . S
C1347 H1350 0.999 . S
C1348 H1318 0.950 . S
C1348 C1347 1.524 . S
C1348 C1349 1.415 . S
C1349 H1319 0.950 . S
C1349 C1344 1.363 . S
C1349 C1348 1.415 . S
H1350 C1347 0.999 . S
H1351 C1332 0.913 . S
H1352 C1370 0.951 . S
H1353 C1372 0.951 . S
H1354 C1374 0.950 . S
H1355 C1375 0.950 . S
H1356 C1377 0.950 . S
H1357 C1380 0.950 . S
H1358 C1381 0.950 . S
H1359 C1383 0.950 . S
H1360 C1384 0.950 . S
H1361 C1385 0.951 . S
H1362 C1387 0.951 . S
H1363 C1389 0.950 . S
H1364 C1390 0.950 . S
H1365 C1392 0.950 . S
H1366 C1395 0.950 . S
H1367 C1396 0.950 . S
H1368 C1398 0.950 . S
H1369 C1399 0.950 . S
C1370 H1352 0.951 . S
C1370 C1371 1.366 . S
C1370 C1372 1.388 . S
C1371 C1370 1.366 . S
C1371 C1375 1.385 . S
C1372 H1353 0.951 . S
C1372 C1370 1.388 . S
C1372 C1373 1.366 . S
C1373 C1372 1.366 . S
C1373 C1374 1.414 . S
C1373 C1376 1.499 . S
C1374 H1354 0.950 . S
C1374 C1373 1.414 . S
C1374 C1375 1.374 . S
C1375 H1355 0.950 . S
C1375 C1371 1.385 . S
C1375 C1374 1.374 . S
C1376 C1373 1.499 . S
C1376 C1377 1.373 . S
C1376 C1378 1.389 . S
C1377 H1356 0.950 . S
C1377 C1376 1.373 . S
C1377 C1393 1.377 . S
C1378 C1376 1.389 . S
C1378 C1379 1.524 . S
C1378 C1392 1.377 . S
C1379 C1378 1.524 . S
C1379 C1380 1.397 . S
C1379 C1384 1.363 . S
C1380 H1357 0.950 . S
C1380 C1379 1.397 . S
C1380 C1381 1.334 . S
C1381 H1358 0.950 . S
C1381 C1380 1.334 . S
C1381 C1382 1.287 . S
C1382 C1381 1.287 . S
C1382 C1383 1.524 . S
C1382 H1401 0.913 . S
C1383 H1359 0.950 . S
C1383 C1382 1.524 . S
C1383 C1384 1.415 . S
C1384 H1360 0.950 . S
C1384 C1379 1.363 . S
C1384 C1383 1.415 . S
C1385 H1361 0.951 . S
C1385 C1386 1.366 . S
C1385 C1387 1.388 . S
C1386 C1385 1.366 . S
C1386 C1390 1.385 . S
C1387 H1362 0.951 . S
C1387 C1385 1.388 . S
C1387 C1388 1.366 . S
C1388 C1387 1.366 . S
C1388 C1389 1.414 . S
C1388 C1391 1.499 . S
C1389 H1363 0.950 . S
C1389 C1388 1.414 . S
C1389 C1390 1.374 . S
C1390 H1364 0.950 . S
C1390 C1386 1.385 . S
C1390 C1389 1.374 . S
C1391 C1388 1.499 . S
C1391 C1392 1.373 . S
C1391 C1393 1.389 . S
C1392 H1365 0.950 . S
C1392 C1378 1.377 . S
C1392 C1391 1.373 . S
C1393 C1377 1.377 . S
C1393 C1391 1.389 . S
C1393 C1394 1.524 . S
C1394 C1393 1.524 . S
C1394 C1395 1.397 . S
C1394 C1399 1.363 . S
C1395 H1366 0.950 . S
C1395 C1394 1.397 . S
C1395 C1396 1.334 . S
C1396 H1367 0.950 . S
C1396 C1395 1.334 . S
C1396 C1397 1.287 . S
C1397 C1396 1.287 . S
C1397 C1398 1.524 . S
C1397 H1400 0.999 . S
C1398 H1368 0.950 . S
C1398 C1397 1.524 . S
C1398 C1399 1.415 . S
C1399 H1369 0.950 . S
C1399 C1394 1.363 . S
C1399 C1398 1.415 . S
H1400 C1397 0.999 . S
H1401 C1382 0.913 . S
H1402 C1420 0.951 . S
H1403 C1422 0.951 . S
H1404 C1424 0.950 . S
H1405 C1425 0.950 . S
H1406 C1427 0.950 . S
H1407 C1430 0.950 . S
H1408 C1431 0.950 . S
H1409 C1433 0.950 . S
H1410 C1434 0.950 . S
H1411 C1435 0.951 . S
H1412 C1437 0.951 . S
H1413 C1439 0.950 . S
H1414 C1440 0.950 . S
H1415 C1442 0.950 . S
H1416 C1445 0.950 . S
H1417 C1446 0.950 . S
H1418 C1448 0.950 . S
H1419 C1449 0.950 . S
C1420 H1402 0.951 . S
C1420 C1421 1.366 . S
C1420 C1422 1.388 . S
C1421 C1420 1.366 . S
C1421 C1425 1.385 . S
C1422 H1403 0.951 . S
C1422 C1420 1.388 . S
C1422 C1423 1.366 . S
C1423 C1422 1.366 . S
C1423 C1424 1.414 . S
C1423 C1426 1.499 . S
C1424 H1404 0.950 . S
C1424 C1423 1.414 . S
C1424 C1425 1.374 . S
C1425 H1405 0.950 . S
C1425 C1421 1.385 . S
C1425 C1424 1.374 . S
C1426 C1423 1.499 . S
C1426 C1427 1.373 . S
C1426 C1428 1.389 . S
C1427 H1406 0.950 . S
C1427 C1426 1.373 . S
C1427 C1443 1.377 . S
C1428 C1426 1.389 . S
C1428 C1429 1.524 . S
C1428 C1442 1.377 . S
C1429 C1428 1.524 . S
C1429 C1430 1.397 . S
C1429 C1434 1.363 . S
C1430 H1407 0.950 . S
C1430 C1429 1.397 . S
C1430 C1431 1.334 . S
C1431 H1408 0.950 . S
C1431 C1430 1.334 . S
C1431 C1432 1.287 . S
C1432 C1431 1.287 . S
C1432 C1433 1.524 . S
C1432 H1451 0.913 . S
C1433 H1409 0.950 . S
C1433 C1432 1.524 . S
C1433 C1434 1.415 . S
C1434 H1410 0.950 . S
C1434 C1429 1.363 . S
C1434 C1433 1.415 . S
C1435 H1411 0.951 . S
C1435 C1436 1.366 . S
C1435 C1437 1.388 . S
C1436 C1435 1.366 . S
C1436 C1440 1.385 . S
C1437 H1412 0.951 . S
C1437 C1435 1.388 . S
C1437 C1438 1.366 . S
C1438 C1437 1.366 . S
C1438 C1439 1.414 . S
C1438 C1441 1.499 . S
C1439 H1413 0.950 . S
C1439 C1438 1.414 . S
C1439 C1440 1.374 . S
C1440 H1414 0.950 . S
C1440 C1436 1.385 . S
C1440 C1439 1.374 . S
C1441 C1438 1.499 . S
C1441 C1442 1.373 . S
C1441 C1443 1.389 . S
C1442 H1415 0.950 . S
C1442 C1428 1.377 . S
C1442 C1441 1.373 . S
C1443 C1427 1.377 . S
C1443 C1441 1.389 . S
C1443 C1444 1.524 . S
C1444 C1443 1.524 . S
C1444 C1445 1.397 . S
C1444 C1449 1.363 . S
C1445 H1416 0.950 . S
C1445 C1444 1.397 . S
C1445 C1446 1.334 . S
C1446 H1417 0.950 . S
C1446 C1445 1.334 . S
C1446 C1447 1.287 . S
C1447 C1446 1.287 . S
C1447 C1448 1.524 . S
C1447 H1450 0.999 . S
C1448 H1418 0.950 . S
C1448 C1447 1.524 . S
C1448 C1449 1.415 . S
C1449 H1419 0.950 . S
C1449 C1444 1.363 . S
C1449 C1448 1.415 . S
H1450 C1447 0.999 . S
H1451 C1432 0.913 . S
H1452 C1470 0.951 . S
H1453 C1472 0.951 . S
H1454 C1474 0.950 . S
H1455 C1475 0.950 . S
H1456 C1477 0.950 . S
H1457 C1480 0.950 . S
H1458 C1481 0.950 . S
H1459 C1483 0.950 . S
H1460 C1484 0.950 . S
H1461 C1485 0.951 . S
H1462 C1487 0.951 . S
H1463 C1489 0.950 . S
H1464 C1490 0.950 . S
H1465 C1492 0.950 . S
H1466 C1495 0.950 . S
H1467 C1496 0.950 . S
H1468 C1498 0.950 . S
H1469 C1499 0.950 . S
C1470 H1452 0.951 . S
C1470 C1471 1.366 . S
C1470 C1472 1.388 . S
C1471 C1470 1.366 . S
C1471 C1475 1.385 . S
C1472 H1453 0.951 . S
C1472 C1470 1.388 . S
C1472 C1473 1.366 . S
C1473 C1472 1.366 . S
C1473 C1474 1.414 . S
C1473 C1476 1.499 . S
C1474 H1454 0.950 . S
C1474 C1473 1.414 . S
C1474 C1475 1.374 . S
C1475 H1455 0.950 . S
C1475 C1471 1.385 . S
C1475 C1474 1.374 . S
C1476 C1473 1.499 . S
C1476 C1477 1.373 . S
C1476 C1478 1.389 . S
C1477 H1456 0.950 . S
C1477 C1476 1.373 . S
C1477 C1493 1.377 . S
C1478 C1476 1.389 . S
C1478 C1479 1.524 . S
C1478 C1492 1.377 . S
C1479 C1478 1.524 . S
C1479 C1480 1.397 . S
C1479 C1484 1.363 . S
C1480 H1457 0.950 . S
C1480 C1479 1.397 . S
C1480 C1481 1.334 . S
C1481 H1458 0.950 . S
C1481 C1480 1.334 . S
C1481 C1482 1.287 . S
C1482 C1481 1.287 . S
C1482 C1483 1.524 . S
C1482 H1501 0.913 . S
C1483 H1459 0.950 . S
C1483 C1482 1.524 . S
C1483 C1484 1.415 . S
C1484 H1460 0.950 . S
C1484 C1479 1.363 . S
C1484 C1483 1.415 . S
C1485 H1461 0.951 . S
C1485 C1486 1.366 . S
C1485 C1487 1.388 . S
C1486 C1485 1.366 . S
C1486 C1490 1.385 . S
C1487 H1462 0.951 . S
C1487 C1485 1.388 . S
C1487 C1488 1.366 . S
C1488 C1487 1.366 . S
C1488 C1489 1.414 . S
C1488 C1491 1.499 . S
C1489 H1463 0.950 . S
C1489 C1488 1.414 . S
C1489 C1490 1.374 . S
C1490 H1464 0.950 . S
C1490 C1486 1.385 . S
C1490 C1489 1.374 . S
C1491 C1488 1.499 . S
C1491 C1492 1.373 . S
C1491 C1493 1.389 . S
C1492 H1465 0.950 . S
C1492 C1478 1.377 . S
C1492 C1491 1.373 . S
C1493 C1477 1.377 . S
C1493 C1491 1.389 . S
C1493 C1494 1.524 . S
C1494 C1493 1.524 . S
C1494 C1495 1.397 . S
C1494 C1499 1.363 . S
C1495 H1466 0.950 . S
C1495 C1494 1.397 . S
C1495 C1496 1.334 . S
C1496 H1467 0.950 . S
C1496 C1495 1.334 . S
C1496 C1497 1.287 . S
C1497 C1496 1.287 . S
C1497 C1498 1.524 . S
C1497 H1500 0.999 . S
C1498 H1468 0.950 . S
C1498 C1497 1.524 . S
C1498 C1499 1.415 . S
C1499 H1469 0.950 . S
C1499 C1494 1.363 . S
C1499 C1498 1.415 . S
H1500 C1497 0.999 . S
H1501 C1482 0.913 . S
H1502 C1520 0.951 . S
H1503 C1522 0.951 . S
H1504 C1524 0.950 . S
H1505 C1525 0.950 . S
H1506 C1527 0.950 . S
H1507 C1530 0.950 . S
H1508 C1531 0.950 . S
H1509 C1533 0.950 . S
H1510 C1534 0.950 . S
H1511 C1535 0.951 . S
H1512 C1537 0.951 . S
H1513 C1539 0.950 . S
H1514 C1540 0.950 . S
H1515 C1542 0.950 . S
H1516 C1545 0.950 . S
H1517 C1546 0.950 . S
H1518 C1548 0.950 . S
H1519 C1549 0.950 . S
C1520 H1502 0.951 . S
C1520 C1521 1.366 . S
C1520 C1522 1.388 . S
C1521 C1520 1.366 . S
C1521 C1525 1.385 . S
C1522 H1503 0.951 . S
C1522 C1520 1.388 . S
C1522 C1523 1.366 . S
C1523 C1522 1.366 . S
C1523 C1524 1.414 . S
C1523 C1526 1.499 . S
C1524 H1504 0.950 . S
C1524 C1523 1.414 . S
C1524 C1525 1.374 . S
C1525 H1505 0.950 . S
C1525 C1521 1.385 . S
C1525 C1524 1.374 . S
C1526 C1523 1.499 . S
C1526 C1527 1.373 . S
C1526 C1528 1.389 . S
C1527 H1506 0.950 . S
C1527 C1526 1.373 . S
C1527 C1543 1.377 . S
C1528 C1526 1.389 . S
C1528 C1529 1.524 . S
C1528 C1542 1.377 . S
C1529 C1528 1.524 . S
C1529 C1530 1.397 . S
C1529 C1534 1.363 . S
C1530 H1507 0.950 . S
C1530 C1529 1.397 . S
C1530 C1531 1.334 . S
C1531 H1508 0.950 . S
C1531 C1530 1.334 . S
C1531 C1532 1.287 . S
C1532 C1531 1.287 . S
C1532 C1533 1.524 . S
C1532 H1551 0.913 . S
C1533 H1509 0.950 . S
C1533 C1532 1.524 . S
C1533 C1534 1.415 . S
C1534 H1510 0.950 . S
C1534 C1529 1.363 . S
C1534 C1533 1.415 . S
C1535 H1511 0.951 . S
C1535 C1536 1.366 . S
C1535 C1537 1.388 . S
C1536 C1535 1.366 . S
C1536 C1540 1.385 . S
C1537 H1512 0.951 . S
C1537 C1535 1.388 . S
C1537 C1538 1.366 . S
C1538 C1537 1.366 . S
C1538 C1539 1.414 . S
C1538 C1541 1.499 . S
C1539 H1513 0.950 . S
C1539 C1538 1.414 . S
C1539 C1540 1.374 . S
C1540 H1514 0.950 . S
C1540 C1536 1.385 . S
C1540 C1539 1.374 . S
C1541 C1538 1.499 . S
C1541 C1542 1.373 . S
C1541 C1543 1.389 . S
C1542 H1515 0.950 . S
C1542 C1528 1.377 . S
C1542 C1541 1.373 . S
C1543 C1527 1.377 . S
C1543 C1541 1.389 . S
C1543 C1544 1.524 . S
C1544 C1543 1.524 . S
C1544 C1545 1.397 . S
C1544 C1549 1.363 . S
C1545 H1516 0.950 . S
C1545 C1544 1.397 . S
C1545 C1546 1.334 . S
C1546 H1517 0.950 . S
C1546 C1545 1.334 . S
C1546 C1547 1.287 . S
C1547 C1546 1.287 . S
C1547 C1548 1.524 . S
C1547 H1550 0.999 . S
C1548 H1518 0.950 . S
C1548 C1547 1.524 . S
C1548 C1549 1.415 . S
C1549 H1519 0.950 . S
C1549 C1544 1.363 . S
C1549 C1548 1.415 . S
H1550 C1547 0.999 . S
H1551 C1532 0.913 . S
H1552 C1570 0.951 . S
H1553 C1572 0.951 . S
H1554 C1574 0.950 . S
H1555 C1575 0.950 . S
H1556 C1577 0.950 . S
H1557 C1580 0.950 . S
H1558 C1581 0.950 . S
H1559 C1583 0.950 . S
H1560 C1584 0.950 . S
H1561 C1585 0.951 . S
H1562 C1587 0.951 . S
H1563 C1589 0.950 . S
H1564 C1590 0.950 . S
H1565 C1592 0.950 . S
H1566 C1595 0.950 . S
H1567 C1596 0.950 . S
H1568 C1598 0.950 . S
H1569 C1599 0.950 . S
C1570 H1552 0.951 . S
C1570 C1571 1.366 . S
C1570 C1572 1.388 . S
C1571 C1570 1.366 . S
C1571 C1575 1.385 . S
C1572 H1553 0.951 . S
C1572 C1570 1.388 . S
C1572 C1573 1.366 . S
C1573 C1572 1.366 . S
C1573 C1574 1.414 . S
C1573 C1576 1.499 . S
C1574 H1554 0.950 . S
C1574 C1573 1.414 . S
C1574 C1575 1.374 . S
C1575 H1555 0.950 . S
C1575 C1571 1.385 . S
C1575 C1574 1.374 . S
C1576 C1573 1.499 . S
C1576 C1577 1.373 . S
C1576 C1578 1.389 . S
C1577 H1556 0.950 . S
C1577 C1576 1.373 . S
C1577 C1593 1.377 . S
C1578 C1576 1.389 . S
C1578 C1579 1.524 . S
C1578 C1592 1.377 . S
C1579 C1578 1.524 . S
C1579 C1580 1.397 . S
C1579 C1584 1.363 . S
C1580 H1557 0.950 . S
C1580 C1579 1.397 . S
C1580 C1581 1.334 . S
C1581 H1558 0.950 . S
C1581 C1580 1.334 . S
C1581 C1582 1.287 . S
C1582 C1581 1.287 . S
C1582 C1583 1.524 . S
C1582 H1601 0.913 . S
C1583 H1559 0.950 . S
C1583 C1582 1.524 . S
C1583 C1584 1.415 . S
C1584 H1560 0.950 . S
C1584 C1579 1.363 . S
C1584 C1583 1.415 . S
C1585 H1561 0.951 . S
C1585 C1586 1.366 . S
C1585 C1587 1.388 . S
C1586 C1585 1.366 . S
C1586 C1590 1.385 . S
C1587 H1562 0.951 . S
C1587 C1585 1.388 . S
C1587 C1588 1.366 . S
C1588 C1587 1.366 . S
C1588 C1589 1.414 . S
C1588 C1591 1.499 . S
C1589 H1563 0.950 . S
C1589 C1588 1.414 . S
C1589 C1590 1.374 . S
C1590 H1564 0.950 . S
C1590 C1586 1.385 . S
C1590 C1589 1.374 . S
C1591 C1588 1.499 . S
C1591 C1592 1.373 . S
C1591 C1593 1.389 . S
C1592 H1565 0.950 . S
C1592 C1578 1.377 . S
C1592 C1591 1.373 . S
C1593 C1577 1.377 . S
C1593 C1591 1.389 . S
C1593 C1594 1.524 . S
C1594 C1593 1.524 . S
C1594 C1595 1.397 . S
C1594 C1599 1.363 . S
C1595 H1566 0.950 . S
C1595 C1594 1.397 . S
C1595 C1596 1.334 . S
C1596 H1567 0.950 . S
C1596 C1595 1.334 . S
C1596 C1597 1.287 . S
C1597 C1596 1.287 . S
C1597 C1598 1.524 . S
C1597 H1600 0.999 . S
C1598 H1568 0.950 . S
C1598 C1597 1.524 . S
C1598 C1599 1.415 . S
C1599 H1569 0.950 . S
C1599 C1594 1.363 . S
C1599 C1598 1.415 . S
H1600 C1597 0.999 . S
H1601 C1582 0.913 . S
H1602 C1620 0.951 . S
H1603 C1622 0.951 . S
H1604 C1624 0.950 . S
H1605 C1625 0.950 . S
H1606 C1627 0.950 . S
H1607 C1630 0.950 . S
H1608 C1631 0.950 . S
H1609 C1633 0.950 . S
H1610 C1634 0.950 . S
H1611 C1635 0.951 . S
H1612 C1637 0.951 . S
H1613 C1639 0.950 . S
H1614 C1640 0.950 . S
H1615 C1642 0.950 . S
H1616 C1645 0.950 . S
H1617 C1646 0.950 . S
H1618 C1648 0.950 . S
H1619 C1649 0.950 . S
C1620 H1602 0.951 . S
C1620 C1621 1.366 . S
C1620 C1622 1.388 . S
C1621 C1620 1.366 . S
C1621 C1625 1.385 . S
C1622 H1603 0.951 . S
C1622 C1620 1.388 . S
C1622 C1623 1.366 . S
C1623 C1622 1.366 . S
C1623 C1624 1.414 . S
C1623 C1626 1.499 . S
C1624 H1604 0.950 . S
C1624 C1623 1.414 . S
C1624 C1625 1.374 . S
C1625 H1605 0.950 . S
C1625 C1621 1.385 . S
C1625 C1624 1.374 . S
C1626 C1623 1.499 . S
C1626 C1627 1.373 . S
C1626 C1628 1.389 . S
C1627 H1606 0.950 . S
C1627 C1626 1.373 . S
C1627 C1643 1.377 1_554 S
C1628 C1626 1.389 . S
C1628 C1629 1.524 . S
C1628 C1642 1.377 1_554 S
C1629 C1628 1.524 . S
C1629 C1630 1.397 . S
C1629 C1634 1.363 . S
C1630 H1607 0.950 . S
C1630 C1629 1.397 . S
C1630 C1631 1.334 . S
C1631 H1608 0.950 . S
C1631 C1630 1.334 . S
C1631 C1632 1.287 . S
C1632 C1631 1.287 . S
C1632 C1633 1.524 . S
C1632 H1651 0.913 . S
C1633 H1609 0.950 . S
C1633 C1632 1.524 . S
C1633 C1634 1.415 . S
C1634 H1610 0.950 . S
C1634 C1629 1.363 . S
C1634 C1633 1.415 . S
C1635 H1611 0.951 . S
C1635 C1636 1.366 . S
C1635 C1637 1.388 . S
C1636 C1635 1.366 . S
C1636 C1640 1.385 . S
C1637 H1612 0.951 . S
C1637 C1635 1.388 . S
C1637 C1638 1.366 . S
C1638 C1637 1.366 . S
C1638 C1639 1.414 . S
C1638 C1641 1.499 . S
C1639 H1613 0.950 . S
C1639 C1638 1.414 . S
C1639 C1640 1.374 . S
C1640 H1614 0.950 . S
C1640 C1636 1.385 . S
C1640 C1639 1.374 . S
C1641 C1638 1.499 . S
C1641 C1642 1.373 . S
C1641 C1643 1.389 . S
C1642 H1615 0.950 . S
C1642 C1628 1.377 1_556 S
C1642 C1641 1.373 . S
C1643 C1627 1.377 1_556 S
C1643 C1641 1.389 . S
C1643 C1644 1.524 . S
C1644 C1643 1.524 . S
C1644 C1645 1.397 . S
C1644 C1649 1.363 . S
C1645 H1616 0.950 . S
C1645 C1644 1.397 . S
C1645 C1646 1.334 . S
C1646 H1617 0.950 . S
C1646 C1645 1.334 . S
C1646 C1647 1.287 . S
C1647 C1646 1.287 . S
C1647 C1648 1.524 . S
C1647 H1650 0.999 . S
C1648 H1618 0.950 . S
C1648 C1647 1.524 . S
C1648 C1649 1.415 . S
C1649 H1619 0.950 . S
C1649 C1644 1.363 . S
C1649 C1648 1.415 . S
H1650 C1647 0.999 . S
H1651 C1632 0.913 . S
H1652 C1670 0.951 . S
H1653 C1672 0.951 . S
H1654 C1674 0.950 . S
H1655 C1675 0.950 . S
H1656 C1677 0.950 . S
H1657 C1680 0.950 . S
H1658 C1681 0.950 . S
H1659 C1683 0.950 . S
H1660 C1684 0.950 . S
H1661 C1685 0.951 . S
H1662 C1687 0.951 . S
H1663 C1689 0.950 . S
H1664 C1690 0.950 . S
H1665 C1692 0.950 . S
H1666 C1695 0.950 . S
H1667 C1696 0.950 . S
H1668 C1698 0.950 . S
H1669 C1699 0.950 . S
C1670 H1652 0.951 . S
C1670 C1671 1.366 . S
C1670 C1672 1.388 . S
C1671 C1670 1.366 . S
C1671 C1675 1.385 1_545 S
C1672 H1653 0.951 . S
C1672 C1670 1.388 . S
C1672 C1673 1.357 1_545 S
C1673 C1672 1.357 1_565 S
C1673 C1674 1.422 . S
C1673 C1676 1.499 . S
C1674 H1654 0.950 . S
C1674 C1673 1.422 . S
C1674 C1675 1.374 . S
C1675 H1655 0.950 . S
C1675 C1671 1.385 1_565 S
C1675 C1674 1.374 . S
C1676 C1673 1.499 . S
C1676 C1677 1.373 . S
C1676 C1678 1.389 1_565 S
C1677 H1656 0.950 . S
C1677 C1676 1.373 . S
C1677 C1693 1.377 1_556 S
C1678 C1676 1.389 1_545 S
C1678 C1679 1.524 . S
C1678 C1692 1.377 1_556 S
C1679 C1678 1.524 . S
C1679 C1680 1.397 . S
C1679 C1684 1.363 . S
C1680 H1657 0.950 . S
C1680 C1679 1.397 . S
C1680 C1681 1.334 . S
C1681 H1658 0.950 . S
C1681 C1680 1.334 . S
C1681 C1682 1.287 . S
C1682 C1681 1.287 . S
C1682 C1683 1.524 . S
C1682 H1701 0.913 . S
C1683 H1659 0.950 . S
C1683 C1682 1.524 . S
C1683 C1684 1.415 . S
C1684 H1660 0.950 . S
C1684 C1679 1.363 . S
C1684 C1683 1.415 . S
C1685 H1661 0.951 . S
C1685 C1686 1.366 . S
C1685 C1687 1.388 . S
C1686 C1685 1.366 . S
C1686 C1690 1.385 1_565 S
C1687 H1662 0.951 . S
C1687 C1685 1.388 . S
C1687 C1688 1.366 . S
C1688 C1687 1.366 . S
C1688 C1689 1.414 1_565 S
C1688 C1691 1.499 . S
C1689 H1663 0.950 . S
C1689 C1688 1.414 1_545 S
C1689 C1690 1.374 . S
C1690 H1664 0.950 . S
C1690 C1686 1.385 1_545 S
C1690 C1689 1.374 . S
C1691 C1688 1.499 . S
C1691 C1692 1.373 1_565 S
C1691 C1693 1.389 . S
C1692 H1665 0.950 . S
C1692 C1678 1.377 1_554 S
C1692 C1691 1.373 1_545 S
C1693 C1677 1.377 1_554 S
C1693 C1691 1.389 . S
C1693 C1694 1.524 . S
C1694 C1693 1.524 . S
C1694 C1695 1.397 . S
C1694 C1699 1.363 . S
C1695 H1666 0.950 . S
C1695 C1694 1.397 . S
C1695 C1696 1.334 . S
C1696 H1667 0.950 . S
C1696 C1695 1.334 . S
C1696 C1697 1.287 . S
C1697 C1696 1.287 . S
C1697 C1698 1.524 . S
C1697 H1700 0.999 . S
C1698 H1668 0.950 . S
C1698 C1697 1.524 . S
C1698 C1699 1.415 . S
C1699 H1669 0.950 . S
C1699 C1694 1.363 . S
C1699 C1698 1.415 . S
H1700 C1697 0.999 . S
H1701 C1682 0.913 . S
H1702 C1720 0.951 . S
H1703 C1722 0.951 . S
H1704 C1724 0.950 . S
H1705 C1725 0.950 . S
H1706 C1727 0.950 . S
H1707 C1730 0.950 . S
H1708 C1731 0.950 . S
H1709 C1733 0.950 . S
H1710 C1734 0.950 . S
H1711 C1735 0.951 . S
H1712 C1737 0.951 . S
H1713 C1739 0.950 . S
H1714 C1740 0.950 . S
H1715 C1742 0.950 . S
H1716 C1745 0.950 . S
H1717 C1746 0.950 . S
H1718 C1748 0.950 . S
H1719 C1749 0.950 . S
C1720 H1702 0.951 . S
C1720 C1721 1.366 1_455 S
C1720 C1722 1.388 . S
C1721 C1720 1.366 1_655 S
C1721 C1725 1.385 . S
C1722 H1703 0.951 . S
C1722 C1720 1.388 . S
C1722 C1723 1.366 1_455 S
C1723 C1722 1.366 1_655 S
C1723 C1724 1.414 . S
C1723 C1726 1.499 . S
C1724 H1704 0.950 . S
C1724 C1723 1.414 . S
C1724 C1725 1.374 . S
C1725 H1705 0.950 . S
C1725 C1721 1.385 . S
C1725 C1724 1.374 . S
C1726 C1723 1.499 . S
C1726 C1727 1.373 . S
C1726 C1728 1.389 1_655 S
C1727 H1706 0.950 . S
C1727 C1726 1.373 . S
C1727 C1743 1.377 1_556 S
C1728 C1726 1.389 1_455 S
C1728 C1729 1.524 . S
C1728 C1742 1.377 1_556 S
C1729 C1728 1.524 . S
C1729 C1730 1.397 . S
C1729 C1734 1.363 . S
C1730 H1707 0.950 . S
C1730 C1729 1.397 . S
C1730 C1731 1.334 . S
C1731 H1708 0.950 . S
C1731 C1730 1.334 . S
C1731 C1732 1.287 . S
C1732 C1731 1.287 . S
C1732 C1733 1.524 . S
C1732 H1751 0.913 . S
C1733 H1709 0.950 . S
C1733 C1732 1.524 . S
C1733 C1734 1.415 . S
C1734 H1710 0.950 . S
C1734 C1729 1.363 . S
C1734 C1733 1.415 . S
C1735 H1711 0.951 . S
C1735 C1736 1.366 1_655 S
C1735 C1737 1.388 . S
C1736 C1735 1.366 1_455 S
C1736 C1740 1.385 . S
C1737 H1712 0.951 . S
C1737 C1735 1.388 . S
C1737 C1738 1.366 . S
C1738 C1737 1.366 . S
C1738 C1739 1.414 1_655 S
C1738 C1741 1.499 . S
C1739 H1713 0.950 . S
C1739 C1738 1.414 1_455 S
C1739 C1740 1.374 . S
C1740 H1714 0.950 . S
C1740 C1736 1.385 . S
C1740 C1739 1.374 . S
C1741 C1738 1.499 . S
C1741 C1742 1.373 1_655 S
C1741 C1743 1.389 . S
C1742 H1715 0.950 . S
C1742 C1728 1.377 1_554 S
C1742 C1741 1.373 1_455 S
C1743 C1727 1.377 1_554 S
C1743 C1741 1.389 . S
C1743 C1744 1.524 . S
C1744 C1743 1.524 . S
C1744 C1745 1.397 . S
C1744 C1749 1.363 . S
C1745 H1716 0.950 . S
C1745 C1744 1.397 . S
C1745 C1746 1.334 . S
C1746 H1717 0.950 . S
C1746 C1745 1.334 . S
C1746 C1747 1.287 . S
C1747 C1746 1.287 . S
C1747 C1748 1.524 . S
C1747 H1750 0.999 . S
C1748 H1718 0.950 . S
C1748 C1747 1.524 . S
C1748 C1749 1.415 . S
C1749 H1719 0.950 . S
C1749 C1744 1.363 . S
C1749 C1748 1.415 . S
H1750 C1747 0.999 . S
H1751 C1732 0.913 . S
H1752 C1770 0.951 . S
H1753 C1772 0.951 . S
H1754 C1774 0.950 . S
H1755 C1775 0.950 . S
H1756 C1777 0.950 . S
H1757 C1780 0.950 . S
H1758 C1781 0.950 . S
H1759 C1783 0.950 . S
H1760 C1784 0.950 . S
H1761 C1785 0.951 . S
H1762 C1787 0.951 . S
H1763 C1789 0.950 . S
H1764 C1790 0.950 . S
H1765 C1792 0.950 . S
H1766 C1795 0.950 . S
H1767 C1796 0.950 . S
H1768 C1798 0.950 . S
H1769 C1799 0.950 . S
C1770 H1752 0.951 . S
C1770 C1771 1.366 . S
C1770 C1772 1.388 . S
C1771 C1770 1.366 . S
C1771 C1775 1.385 . S
C1772 H1753 0.951 . S
C1772 C1770 1.388 . S
C1772 C1773 1.366 . S
C1773 C1772 1.366 . S
C1773 C1774 1.414 . S
C1773 C1776 1.499 . S
C1774 H1754 0.950 . S
C1774 C1773 1.414 . S
C1774 C1775 1.374 . S
C1775 H1755 0.950 . S
C1775 C1771 1.385 . S
C1775 C1774 1.374 . S
C1776 C1773 1.499 . S
C1776 C1777 1.373 . S
C1776 C1778 1.389 . S
C1777 H1756 0.950 . S
C1777 C1776 1.373 . S
C1777 C1793 1.377 . S
C1778 C1776 1.389 . S
C1778 C1779 1.524 . S
C1778 C1792 1.377 . S
C1779 C1778 1.524 . S
C1779 C1780 1.397 . S
C1779 C1784 1.363 . S
C1780 H1757 0.950 . S
C1780 C1779 1.397 . S
C1780 C1781 1.334 . S
C1781 H1758 0.950 . S
C1781 C1780 1.334 . S
C1781 C1782 1.287 . S
C1782 C1781 1.287 . S
C1782 C1783 1.524 . S
C1782 H1801 0.913 . S
C1783 H1759 0.950 . S
C1783 C1782 1.524 . S
C1783 C1784 1.415 . S
C1784 H1760 0.950 . S
C1784 C1779 1.363 . S
C1784 C1783 1.415 . S
C1785 H1761 0.951 . S
C1785 C1786 1.366 . S
C1785 C1787 1.388 . S
C1786 C1785 1.366 . S
C1786 C1790 1.385 . S
C1787 H1762 0.951 . S
C1787 C1785 1.388 . S
C1787 C1788 1.366 . S
C1788 C1787 1.366 . S
C1788 C1789 1.414 . S
C1788 C1791 1.499 . S
C1789 H1763 0.950 . S
C1789 C1788 1.414 . S
C1789 C1790 1.374 . S
C1790 H1764 0.950 . S
C1790 C1786 1.385 . S
C1790 C1789 1.374 . S
C1791 C1788 1.499 . S
C1791 C1792 1.373 . S
C1791 C1793 1.389 . S
C1792 H1765 0.950 . S
C1792 C1778 1.377 . S
C1792 C1791 1.373 . S
C1793 C1777 1.377 . S
C1793 C1791 1.389 . S
C1793 C1794 1.524 . S
C1794 C1793 1.524 . S
C1794 C1795 1.397 . S
C1794 C1799 1.363 . S
C1795 H1766 0.950 . S
C1795 C1794 1.397 . S
C1795 C1796 1.334 . S
C1796 H1767 0.950 . S
C1796 C1795 1.334 . S
C1796 C1797 1.287 . S
C1797 C1796 1.287 . S
C1797 C1798 1.524 . S
C1797 H1800 0.999 . S
C1798 H1768 0.950 . S
C1798 C1797 1.524 . S
C1798 C1799 1.415 . S
C1799 H1769 0.950 . S
C1799 C1794 1.363 . S
C1799 C1798 1.415 . S
H1800 C1797 0.999 . S
H1801 C1782 0.913 . S
H1802 C1820 0.951 . S
H1803 C1822 0.951 . S
H1804 C1824 0.950 . S
H1805 C1825 0.950 . S
H1806 C1827 0.950 . S
H1807 C1830 0.950 . S
H1808 C1831 0.950 . S
H1809 C1833 0.950 . S
H1810 C1834 0.950 . S
H1811 C1835 0.951 . S
H1812 C1837 0.951 . S
H1813 C1839 0.950 . S
H1814 C1840 0.950 . S
H1815 C1842 0.950 . S
H1816 C1845 0.950 . S
H1817 C1846 0.950 . S
H1818 C1848 0.950 . S
H1819 C1849 0.950 . S
C1820 H1802 0.951 . S
C1820 C1821 1.366 . S
C1820 C1822 1.388 . S
C1821 C1820 1.366 . S
C1821 C1825 1.385 . S
C1822 H1803 0.951 . S
C1822 C1820 1.388 . S
C1822 C1823 1.366 . S
C1823 C1822 1.366 . S
C1823 C1824 1.414 . S
C1823 C1826 1.499 . S
C1824 H1804 0.950 . S
C1824 C1823 1.414 . S
C1824 C1825 1.374 . S
C1825 H1805 0.950 . S
C1825 C1821 1.385 . S
C1825 C1824 1.374 . S
C1826 C1823 1.499 . S
C1826 C1827 1.373 . S
C1826 C1828 1.389 . S
C1827 H1806 0.950 . S
C1827 C1826 1.373 . S
C1827 C1843 1.377 . S
C1828 C1826 1.389 . S
C1828 C1829 1.524 . S
C1828 C1842 1.377 . S
C1829 C1828 1.524 . S
C1829 C1830 1.397 . S
C1829 C1834 1.363 . S
C1830 H1807 0.950 . S
C1830 C1829 1.397 . S
C1830 C1831 1.334 . S
C1831 H1808 0.950 . S
C1831 C1830 1.334 . S
C1831 C1832 1.287 . S
C1832 C1831 1.287 . S
C1832 C1833 1.524 . S
C1832 H1851 0.913 . S
C1833 H1809 0.950 . S
C1833 C1832 1.524 . S
C1833 C1834 1.415 . S
C1834 H1810 0.950 . S
C1834 C1829 1.363 . S
C1834 C1833 1.415 . S
C1835 H1811 0.951 . S
C1835 C1836 1.366 . S
C1835 C1837 1.388 . S
C1836 C1835 1.366 . S
C1836 C1840 1.385 . S
C1837 H1812 0.951 . S
C1837 C1835 1.388 . S
C1837 C1838 1.366 . S
C1838 C1837 1.366 . S
C1838 C1839 1.414 . S
C1838 C1841 1.499 . S
C1839 H1813 0.950 . S
C1839 C1838 1.414 . S
C1839 C1840 1.374 . S
C1840 H1814 0.950 . S
C1840 C1836 1.385 . S
C1840 C1839 1.374 . S
C1841 C1838 1.499 . S
C1841 C1842 1.373 . S
C1841 C1843 1.389 . S
C1842 H1815 0.950 . S
C1842 C1828 1.377 . S
C1842 C1841 1.373 . S
C1843 C1827 1.377 . S
C1843 C1841 1.389 . S
C1843 C1844 1.524 . S
C1844 C1843 1.524 . S
C1844 C1845 1.397 . S
C1844 C1849 1.363 . S
C1845 H1816 0.950 . S
C1845 C1844 1.397 . S
C1845 C1846 1.334 . S
C1846 H1817 0.950 . S
C1846 C1845 1.334 . S
C1846 C1847 1.287 . S
C1847 C1846 1.287 . S
C1847 C1848 1.524 . S
C1847 H1850 0.999 . S
C1848 H1818 0.950 . S
C1848 C1847 1.524 . S
C1848 C1849 1.415 . S
C1849 H1819 0.950 . S
C1849 C1844 1.363 . S
C1849 C1848 1.415 . S
H1850 C1847 0.999 . S
H1851 C1832 0.913 . S
H1852 C1870 0.951 . S
H1853 C1872 0.951 . S
H1854 C1874 0.950 . S
H1855 C1875 0.950 . S
H1856 C1877 0.950 . S
H1857 C1880 0.950 . S
H1858 C1881 0.950 . S
H1859 C1883 0.950 . S
H1860 C1884 0.950 . S
H1861 C1885 0.951 . S
H1862 C1887 0.951 . S
H1863 C1889 0.950 . S
H1864 C1890 0.950 . S
H1865 C1892 0.950 . S
H1866 C1895 0.950 . S
H1867 C1896 0.950 . S
H1868 C1898 0.950 . S
H1869 C1899 0.950 . S
C1870 H1852 0.951 . S
C1870 C1871 1.366 . S
C1870 C1872 1.388 . S
C1871 C1870 1.366 . S
C1871 C1875 1.385 . S
C1872 H1853 0.951 . S
C1872 C1870 1.388 . S
C1872 C1873 1.366 . S
C1873 C1872 1.366 . S
C1873 C1874 1.414 . S
C1873 C1876 1.499 . S
C1874 H1854 0.950 . S
C1874 C1873 1.414 . S
C1874 C1875 1.374 . S
C1875 H1855 0.950 . S
C1875 C1871 1.385 . S
C1875 C1874 1.374 . S
C1876 C1873 1.499 . S
C1876 C1877 1.373 . S
C1876 C1878 1.389 . S
C1877 H1856 0.950 . S
C1877 C1876 1.373 . S
C1877 C1893 1.377 . S
C1878 C1876 1.389 . S
C1878 C1879 1.524 . S
C1878 C1892 1.377 . S
C1879 C1878 1.524 . S
C1879 C1880 1.397 . S
C1879 C1884 1.363 . S
C1880 H1857 0.950 . S
C1880 C1879 1.397 . S
C1880 C1881 1.334 . S
C1881 H1858 0.950 . S
C1881 C1880 1.334 . S
C1881 C1882 1.287 . S
C1882 C1881 1.287 . S
C1882 C1883 1.524 . S
C1882 H1901 0.913 . S
C1883 H1859 0.950 . S
C1883 C1882 1.524 . S
C1883 C1884 1.415 . S
C1884 H1860 0.950 . S
C1884 C1879 1.363 . S
C1884 C1883 1.415 . S
C1885 H1861 0.951 . S
C1885 C1886 1.366 . S
C1885 C1887 1.388 . S
C1886 C1885 1.366 . S
C1886 C1890 1.385 . S
C1887 H1862 0.951 . S
C1887 C1885 1.388 . S
C1887 C1888 1.366 . S
C1888 C1887 1.366 . S
C1888 C1889 1.414 . S
C1888 C1891 1.499 . S
C1889 H1863 0.950 . S
C1889 C1888 1.414 . S
C1889 C1890 1.374 . S
C1890 H1864 0.950 . S
C1890 C1886 1.385 . S
C1890 C1889 1.374 . S
C1891 C1888 1.499 . S
C1891 C1892 1.373 . S
C1891 C1893 1.389 . S
C1892 H1865 0.950 . S
C1892 C1878 1.377 . S
C1892 C1891 1.373 . S
C1893 C1877 1.377 . S
C1893 C1891 1.389 . S
C1893 C1894 1.524 . S
C1894 C1893 1.524 . S
C1894 C1895 1.397 . S
C1894 C1899 1.363 . S
C1895 H1866 0.950 . S
C1895 C1894 1.397 . S
C1895 C1896 1.334 . S
C1896 H1867 0.950 . S
C1896 C1895 1.334 . S
C1896 C1897 1.287 . S
C1897 C1896 1.287 . S
C1897 C1898 1.524 . S
C1897 H1900 0.999 . S
C1898 H1868 0.950 . S
C1898 C1897 1.524 . S
C1898 C1899 1.415 . S
C1899 H1869 0.950 . S
C1899 C1894 1.363 . S
C1899 C1898 1.415 . S
H1900 C1897 0.999 . S
H1901 C1882 0.913 . S
H1902 C1920 0.951 . S
H1903 C1922 0.951 . S
H1904 C1924 0.950 . S
H1905 C1925 0.950 . S
H1906 C1927 0.950 . S
H1907 C1930 0.950 . S
H1908 C1931 0.950 . S
H1909 C1933 0.950 . S
H1910 C1934 0.950 . S
H1911 C1935 0.951 . S
H1912 C1937 0.951 . S
H1913 C1939 0.950 . S
H1914 C1940 0.950 . S
H1915 C1942 0.950 . S
H1916 C1945 0.950 . S
H1917 C1946 0.950 . S
H1918 C1948 0.950 . S
H1919 C1949 0.950 . S
C1920 H1902 0.951 . S
C1920 C1921 1.366 . S
C1920 C1922 1.388 . S
C1921 C1920 1.366 . S
C1921 C1925 1.385 . S
C1922 H1903 0.951 . S
C1922 C1920 1.388 . S
C1922 C1923 1.366 . S
C1923 C1922 1.366 . S
C1923 C1924 1.414 . S
C1923 C1926 1.499 . S
C1924 H1904 0.950 . S
C1924 C1923 1.414 . S
C1924 C1925 1.374 . S
C1925 H1905 0.950 . S
C1925 C1921 1.385 . S
C1925 C1924 1.374 . S
C1926 C1923 1.499 . S
C1926 C1927 1.373 . S
C1926 C1928 1.389 . S
C1927 H1906 0.950 . S
C1927 C1926 1.373 . S
C1927 C1943 1.377 . S
C1928 C1926 1.389 . S
C1928 C1929 1.524 . S
C1928 C1942 1.377 . S
C1929 C1928 1.524 . S
C1929 C1930 1.397 . S
C1929 C1934 1.363 . S
C1930 H1907 0.950 . S
C1930 C1929 1.397 . S
C1930 C1931 1.334 . S
C1931 H1908 0.950 . S
C1931 C1930 1.334 . S
C1931 C1932 1.287 . S
C1932 C1931 1.287 . S
C1932 C1933 1.524 . S
C1932 H1951 0.913 . S
C1933 H1909 0.950 . S
C1933 C1932 1.524 . S
C1933 C1934 1.415 . S
C1934 H1910 0.950 . S
C1934 C1929 1.363 . S
C1934 C1933 1.415 . S
C1935 H1911 0.951 . S
C1935 C1936 1.366 . S
C1935 C1937 1.388 . S
C1936 C1935 1.366 . S
C1936 C1940 1.385 . S
C1937 H1912 0.951 . S
C1937 C1935 1.388 . S
C1937 C1938 1.366 . S
C1938 C1937 1.366 . S
C1938 C1939 1.414 . S
C1938 C1941 1.499 . S
C1939 H1913 0.950 . S
C1939 C1938 1.414 . S
C1939 C1940 1.374 . S
C1940 H1914 0.950 . S
C1940 C1936 1.385 . S
C1940 C1939 1.374 . S
C1941 C1938 1.499 . S
C1941 C1942 1.373 . S
C1941 C1943 1.389 . S
C1942 H1915 0.950 . S
C1942 C1928 1.377 . S
C1942 C1941 1.373 . S
C1943 C1927 1.377 . S
C1943 C1941 1.389 . S
C1943 C1944 1.524 . S
C1944 C1943 1.524 . S
C1944 C1945 1.397 . S
C1944 C1949 1.363 . S
C1945 H1916 0.950 . S
C1945 C1944 1.397 . S
C1945 C1946 1.334 . S
C1946 H1917 0.950 . S
C1946 C1945 1.334 . S
C1946 C1947 1.287 . S
C1947 C1946 1.287 . S
C1947 C1948 1.524 . S
C1947 H1950 0.999 . S
C1948 H1918 0.950 . S
C1948 C1947 1.524 . S
C1948 C1949 1.415 . S
C1949 H1919 0.950 . S
C1949 C1944 1.363 . S
C1949 C1948 1.415 . S
H1950 C1947 0.999 . S
H1951 C1932 0.913 . S
H1952 C1970 0.951 . S
H1953 C1972 0.951 . S
H1954 C1974 0.950 . S
H1955 C1975 0.950 . S
H1956 C1977 0.950 . S
H1957 C1980 0.950 . S
H1958 C1981 0.950 . S
H1959 C1983 0.950 . S
H1960 C1984 0.950 . S
H1961 C1985 0.951 . S
H1962 C1987 0.951 . S
H1963 C1989 0.950 . S
H1964 C1990 0.950 . S
H1965 C1992 0.950 . S
H1966 C1995 0.950 . S
H1967 C1996 0.950 . S
H1968 C1998 0.950 . S
H1969 C1999 0.950 . S
C1970 H1952 0.951 . S
C1970 C1971 1.366 . S
C1970 C1972 1.388 . S
C1971 C1970 1.366 . S
C1971 C1975 1.385 . S
C1972 H1953 0.951 . S
C1972 C1970 1.388 . S
C1972 C1973 1.366 . S
C1973 C1972 1.366 . S
C1973 C1974 1.414 . S
C1973 C1976 1.499 . S
C1974 H1954 0.950 . S
C1974 C1973 1.414 . S
C1974 C1975 1.374 . S
C1975 H1955 0.950 . S
C1975 C1971 1.385 . S
C1975 C1974 1.374 . S
C1976 C1973 1.499 . S
C1976 C1977 1.373 . S
C1976 C1978 1.389 . S
C1977 H1956 0.950 . S
C1977 C1976 1.373 . S
C1977 C1993 1.377 . S
C1978 C1976 1.389 . S
C1978 C1979 1.524 . S
C1978 C1992 1.377 . S
C1979 C1978 1.524 . S
C1979 C1980 1.397 . S
C1979 C1984 1.363 . S
C1980 H1957 0.950 . S
C1980 C1979 1.397 . S
C1980 C1981 1.334 . S
C1981 H1958 0.950 . S
C1981 C1980 1.334 . S
C1981 C1982 1.287 . S
C1982 C1981 1.287 . S
C1982 C1983 1.524 . S
C1982 H2001 0.913 . S
C1983 H1959 0.950 . S
C1983 C1982 1.524 . S
C1983 C1984 1.415 . S
C1984 H1960 0.950 . S
C1984 C1979 1.363 . S
C1984 C1983 1.415 . S
C1985 H1961 0.951 . S
C1985 C1986 1.366 . S
C1985 C1987 1.388 . S
C1986 C1985 1.366 . S
C1986 C1990 1.385 . S
C1987 H1962 0.951 . S
C1987 C1985 1.388 . S
C1987 C1988 1.366 . S
C1988 C1987 1.366 . S
C1988 C1989 1.414 . S
C1988 C1991 1.499 . S
C1989 H1963 0.950 . S
C1989 C1988 1.414 . S
C1989 C1990 1.374 . S
C1990 H1964 0.950 . S
C1990 C1986 1.385 . S
C1990 C1989 1.374 . S
C1991 C1988 1.499 . S
C1991 C1992 1.373 . S
C1991 C1993 1.389 . S
C1992 H1965 0.950 . S
C1992 C1978 1.377 . S
C1992 C1991 1.373 . S
C1993 C1977 1.377 . S
C1993 C1991 1.389 . S
C1993 C1994 1.524 . S
C1994 C1993 1.524 . S
C1994 C1995 1.397 . S
C1994 C1999 1.363 . S
C1995 H1966 0.950 . S
C1995 C1994 1.397 . S
C1995 C1996 1.334 . S
C1996 H1967 0.950 . S
C1996 C1995 1.334 . S
C1996 C1997 1.287 . S
C1997 C1996 1.287 . S
C1997 C1998 1.524 . S
C1997 H2000 0.999 . S
C1998 H1968 0.950 . S
C1998 C1997 1.524 . S
C1998 C1999 1.415 . S
C1999 H1969 0.950 . S
C1999 C1994 1.363 . S
C1999 C1998 1.415 . S
H2000 C1997 0.999 . S
H2001 C1982 0.913 . S
H2002 C2020 0.951 . S
H2003 C2022 0.951 . S
H2004 C2024 0.950 . S
H2005 C2025 0.950 . S
H2006 C2027 0.950 . S
H2007 C2030 0.950 . S
H2008 C2031 0.950 . S
H2009 C2033 0.950 . S
H2010 C2034 0.950 . S
H2011 C2035 0.951 . S
H2012 C2037 0.951 . S
H2013 C2039 0.950 . S
H2014 C2040 0.950 . S
H2015 C2042 0.950 . S
H2016 C2045 0.950 . S
H2017 C2046 0.950 . S
H2018 C2048 0.950 . S
H2019 C2049 0.950 . S
C2020 H2002 0.951 . S
C2020 C2021 1.366 . S
C2020 C2022 1.388 . S
C2021 C2020 1.366 . S
C2021 C2025 1.385 . S
C2022 H2003 0.951 . S
C2022 C2020 1.388 . S
C2022 C2023 1.366 . S
C2023 C2022 1.366 . S
C2023 C2024 1.414 . S
C2023 C2026 1.499 . S
C2024 H2004 0.950 . S
C2024 C2023 1.414 . S
C2024 C2025 1.374 . S
C2025 H2005 0.950 . S
C2025 C2021 1.385 . S
C2025 C2024 1.374 . S
C2026 C2023 1.499 . S
C2026 C2027 1.373 . S
C2026 C2028 1.389 . S
C2027 H2006 0.950 . S
C2027 C2026 1.373 . S
C2027 C2043 1.377 . S
C2028 C2026 1.389 . S
C2028 C2029 1.524 . S
C2028 C2042 1.377 . S
C2029 C2028 1.524 . S
C2029 C2030 1.397 . S
C2029 C2034 1.363 . S
C2030 H2007 0.950 . S
C2030 C2029 1.397 . S
C2030 C2031 1.334 . S
C2031 H2008 0.950 . S
C2031 C2030 1.334 . S
C2031 C2032 1.287 . S
C2032 C2031 1.287 . S
C2032 C2033 1.524 . S
C2032 H2051 0.913 . S
C2033 H2009 0.950 . S
C2033 C2032 1.524 . S
C2033 C2034 1.415 . S
C2034 H2010 0.950 . S
C2034 C2029 1.363 . S
C2034 C2033 1.415 . S
C2035 H2011 0.951 . S
C2035 C2036 1.366 . S
C2035 C2037 1.388 . S
C2036 C2035 1.366 . S
C2036 C2040 1.385 . S
C2037 H2012 0.951 . S
C2037 C2035 1.388 . S
C2037 C2038 1.366 . S
C2038 C2037 1.366 . S
C2038 C2039 1.414 . S
C2038 C2041 1.499 . S
C2039 H2013 0.950 . S
C2039 C2038 1.414 . S
C2039 C2040 1.374 . S
C2040 H2014 0.950 . S
C2040 C2036 1.385 . S
C2040 C2039 1.374 . S
C2041 C2038 1.499 . S
C2041 C2042 1.373 . S
C2041 C2043 1.389 . S
C2042 H2015 0.950 . S
C2042 C2028 1.377 . S
C2042 C2041 1.373 . S
C2043 C2027 1.377 . S
C2043 C2041 1.389 . S
C2043 C2044 1.524 . S
C2044 C2043 1.524 . S
C2044 C2045 1.397 . S
C2044 C2049 1.363 . S
C2045 H2016 0.950 . S
C2045 C2044 1.397 . S
C2045 C2046 1.334 . S
C2046 H2017 0.950 . S
C2046 C2045 1.334 . S
C2046 C2047 1.287 . S
C2047 C2046 1.287 . S
C2047 C2048 1.524 . S
C2047 H2050 0.999 . S
C2048 H2018 0.950 . S
C2048 C2047 1.524 . S
C2048 C2049 1.415 . S
C2049 H2019 0.950 . S
C2049 C2044 1.363 . S
C2049 C2048 1.415 . S
H2050 C2047 0.999 . S
H2051 C2032 0.913 . S
C271 C151 0.880 . S
C286 C11 0.880 . S
C321 C25 0.881 . S
C336 C165 0.880 . S
C371 C137 0.880 . S
C386 C39 0.879 . S
C421 C207 0.880 . S
C436 C53 0.880 . S
C471 C67 0.879 . S
C486 C179 0.880 . S
C521 C193 0.880 . S
C536 C81 0.881 . S
C571 C95 0.879 . S
C586 C235 0.881 . S
C621 C249 0.880 . S
C636 C109 0.881 . S
C671 C123 0.880 . S
C686 C221 0.880 . S
C721 C8 0.750 . S
C736 C21 0.753 . S
C771 C22 0.753 . S
C786 C35 0.751 . S
C821 C7 0.751 . S
C836 C36 0.753 . S
C871 C77 0.753 . S
C886 C50 0.750 . S
C921 C49 0.752 . S
C936 C64 0.750 . S
C971 C78 0.749 . S
C986 C63 0.752 . S
C1021 C92 0.751 . S
C1036 C105 0.752 . S
C1071 C106 0.750 . S
C1086 C119 0.752 . S
C1121 C91 0.751 . S
C1136 C120 0.752 . S
C1171 C161 0.752 . S
C1186 C134 0.752 . S
C1221 C133 0.751 . S
C1236 C148 0.753 . S
C1271 C147 0.752 . S
C1286 C162 0.751 . S
C1321 C189 0.752 . S
C1336 C176 0.751 . S
C1371 C203 0.751 . S
C1386 C190 0.752 . S
C1421 C175 0.752 . S
C1436 C204 0.750 . S
C1471 C218 0.753 . S
C1486 C245 0.752 . S
C1521 C232 0.753 . S
C1536 C217 0.751 . S
C1571 C246 0.753 . S
C1586 C231 0.751 . S
C1621 C13 1.313 . S
C1636 C55 1.314 . S
C1671 C69 1.317 . S
C1686 C27 1.313 . S
C1721 C83 1.313 . S
C1736 C41 1.317 . S
C1771 C139 1.314 . S
C1786 C97 1.314 . S
C1821 C153 1.313 . S
C1836 C111 1.315 . S
C1871 C125 1.314 . S
C1886 C167 1.314 . S
C1921 C223 1.313 . S
C1936 C181 1.314 . S
C1971 C237 1.313 . S
C1986 C195 1.314 . S
C2021 C251 1.315 . S
C2036 C209 1.313 . S
