# Generated by pormake.
# Topology hbo, (4)-cn, num edge types: 1
# Building blocks:
#     Node 0, Type 0, BuildingBlock: GALJAG_clean_sbu_0, # of connection points: 4
#     Node 1, Type 0, BuildingBlock: GALJAG_clean_sbu_0, # of connection points: 4
#     Node 2, Type 0, BuildingBlock: GALJAG_clean_sbu_0, # of connection points: 4
#     Node 3, Type 0, BuildingBlock: GALJAG_clean_sbu_0, # of connection points: 4
#     Node 4, Type 0, BuildingBlock: GALJAG_clean_sbu_0, # of connection points: 4
#     Node 5, Type 0, BuildingBlock: GALJAG_clean_sbu_0, # of connection points: 4
#     Node 6, Type 0, BuildingBlock: GALJAG_clean_sbu_0, # of connection points: 4
#     Node 7, Type 0, BuildingBlock: GALJAG_clean_sbu_0, # of connection points: 4
#     Node 8, Type 0, BuildingBlock: GALJAG_clean_sbu_0, # of connection points: 4
#     Node 9, Type 0, BuildingBlock: GALJAG_clean_sbu_0, # of connection points: 4
#     Node 10, Type 0, BuildingBlock: GALJAG_clean_sbu_0, # of connection points: 4
#     Node 11, Type 0, BuildingBlock: GALJAG_clean_sbu_0, # of connection points: 4
#     Node 12, Type 0, BuildingBlock: GALJAG_clean_sbu_0, # of connection points: 4
#     Node 13, Type 0, BuildingBlock: GALJAG_clean_sbu_0, # of connection points: 4
#     Node 14, Type 0, BuildingBlock: GALJAG_clean_sbu_0, # of connection points: 4
#     Node 15, Type 0, BuildingBlock: GALJAG_clean_sbu_0, # of connection points: 4
#     Node 16, Type 0, BuildingBlock: GALJAG_clean_sbu_0, # of connection points: 4
#     Node 17, Type 0, BuildingBlock: GALJAG_clean_sbu_0, # of connection points: 4
#     Node 18, Type 0, BuildingBlock: GALJAG_clean_sbu_0, # of connection points: 4
#     Node 19, Type 0, BuildingBlock: GALJAG_clean_sbu_0, # of connection points: 4
#     Node 20, Type 0, BuildingBlock: GALJAG_clean_sbu_0, # of connection points: 4
#     Node 21, Type 0, BuildingBlock: GALJAG_clean_sbu_0, # of connection points: 4
#     Node 22, Type 0, BuildingBlock: GALJAG_clean_sbu_0, # of connection points: 4
#     Node 23, Type 0, BuildingBlock: GALJAG_clean_sbu_0, # of connection points: 4
#     Edge 24, Type (0, 0), BuildingBlock: CIFDUS_clean_linker_0, # of connection points: 2
#     Edge 25, Type (0, 0), BuildingBlock: CIFDUS_clean_linker_0, # of connection points: 2
#     Edge 26, Type (0, 0), BuildingBlock: CIFDUS_clean_linker_0, # of connection points: 2
#     Edge 27, Type (0, 0), BuildingBlock: CIFDUS_clean_linker_0, # of connection points: 2
#     Edge 28, Type (0, 0), BuildingBlock: CIFDUS_clean_linker_0, # of connection points: 2
#     Edge 29, Type (0, 0), BuildingBlock: CIFDUS_clean_linker_0, # of connection points: 2
#     Edge 30, Type (0, 0), BuildingBlock: CIFDUS_clean_linker_0, # of connection points: 2
#     Edge 31, Type (0, 0), BuildingBlock: CIFDUS_clean_linker_0, # of connection points: 2
#     Edge 32, Type (0, 0), BuildingBlock: CIFDUS_clean_linker_0, # of connection points: 2
#     Edge 33, Type (0, 0), BuildingBlock: CIFDUS_clean_linker_0, # of connection points: 2
#     Edge 34, Type (0, 0), BuildingBlock: CIFDUS_clean_linker_0, # of connection points: 2
#     Edge 35, Type (0, 0), BuildingBlock: CIFDUS_clean_linker_0, # of connection points: 2
#     Edge 36, Type (0, 0), BuildingBlock: CIFDUS_clean_linker_0, # of connection points: 2
#     Edge 37, Type (0, 0), BuildingBlock: CIFDUS_clean_linker_0, # of connection points: 2
#     Edge 38, Type (0, 0), BuildingBlock: CIFDUS_clean_linker_0, # of connection points: 2
#     Edge 39, Type (0, 0), BuildingBlock: CIFDUS_clean_linker_0, # of connection points: 2
#     Edge 40, Type (0, 0), BuildingBlock: CIFDUS_clean_linker_0, # of connection points: 2
#     Edge 41, Type (0, 0), BuildingBlock: CIFDUS_clean_linker_0, # of connection points: 2
#     Edge 42, Type (0, 0), BuildingBlock: CIFDUS_clean_linker_0, # of connection points: 2
#     Edge 43, Type (0, 0), BuildingBlock: CIFDUS_clean_linker_0, # of connection points: 2
#     Edge 44, Type (0, 0), BuildingBlock: CIFDUS_clean_linker_0, # of connection points: 2
#     Edge 45, Type (0, 0), BuildingBlock: CIFDUS_clean_linker_0, # of connection points: 2
#     Edge 46, Type (0, 0), BuildingBlock: CIFDUS_clean_linker_0, # of connection points: 2
#     Edge 47, Type (0, 0), BuildingBlock: CIFDUS_clean_linker_0, # of connection points: 2
#     Edge 48, Type (0, 0), BuildingBlock: CIFDUS_clean_linker_0, # of connection points: 2
#     Edge 49, Type (0, 0), BuildingBlock: CIFDUS_clean_linker_0, # of connection points: 2
#     Edge 50, Type (0, 0), BuildingBlock: CIFDUS_clean_linker_0, # of connection points: 2
#     Edge 51, Type (0, 0), BuildingBlock: CIFDUS_clean_linker_0, # of connection points: 2
#     Edge 52, Type (0, 0), BuildingBlock: CIFDUS_clean_linker_0, # of connection points: 2
#     Edge 53, Type (0, 0), BuildingBlock: CIFDUS_clean_linker_0, # of connection points: 2
#     Edge 54, Type (0, 0), BuildingBlock: CIFDUS_clean_linker_0, # of connection points: 2
#     Edge 55, Type (0, 0), BuildingBlock: CIFDUS_clean_linker_0, # of connection points: 2
#     Edge 56, Type (0, 0), BuildingBlock: CIFDUS_clean_linker_0, # of connection points: 2
#     Edge 57, Type (0, 0), BuildingBlock: CIFDUS_clean_linker_0, # of connection points: 2
#     Edge 58, Type (0, 0), BuildingBlock: CIFDUS_clean_linker_0, # of connection points: 2
#     Edge 59, Type (0, 0), BuildingBlock: CIFDUS_clean_linker_0, # of connection points: 2
#     Edge 60, Type (0, 0), BuildingBlock: CIFDUS_clean_linker_0, # of connection points: 2
#     Edge 61, Type (0, 0), BuildingBlock: CIFDUS_clean_linker_0, # of connection points: 2
#     Edge 62, Type (0, 0), BuildingBlock: CIFDUS_clean_linker_0, # of connection points: 2
#     Edge 63, Type (0, 0), BuildingBlock: CIFDUS_clean_linker_0, # of connection points: 2
#     Edge 64, Type (0, 0), BuildingBlock: CIFDUS_clean_linker_0, # of connection points: 2
#     Edge 65, Type (0, 0), BuildingBlock: CIFDUS_clean_linker_0, # of connection points: 2
#     Edge 66, Type (0, 0), BuildingBlock: CIFDUS_clean_linker_0, # of connection points: 2
#     Edge 67, Type (0, 0), BuildingBlock: CIFDUS_clean_linker_0, # of connection points: 2
#     Edge 68, Type (0, 0), BuildingBlock: CIFDUS_clean_linker_0, # of connection points: 2
#     Edge 69, Type (0, 0), BuildingBlock: CIFDUS_clean_linker_0, # of connection points: 2
#     Edge 70, Type (0, 0), BuildingBlock: CIFDUS_clean_linker_0, # of connection points: 2
#     Edge 71, Type (0, 0), BuildingBlock: CIFDUS_clean_linker_0, # of connection points: 2
# Relax obj value: 0.092
# Max RMSD: 0.160
# Mean RMSD: 0.160
data_MOF--net-hbo--node1-GALJAG_clean_sbu_0--edge1-CIFDUS_clean_linker_0
_symmetry_space_group_name_H-M    P1
_symmetry_Int_Tables_number       1
_symmetry_cell_setting            triclinic
loop_
_symmetry_equiv_pos_as_xyz
'x, y, z'
_cell_length_a     47.292867
_cell_length_b     47.307483
_cell_length_c     47.359041
_cell_angle_alpha  89.925587
_cell_angle_beta   89.962315
_cell_angle_gamma 89.783698
loop_
_atom_site_label
_atom_site_type_symbol
_atom_site_fract_x
_atom_site_fract_y
_atom_site_fract_z
_atom_type_partial_charge
In0 In 0.13749 0.35445 0.22955 0.0
O1 O 0.14299 0.39616 0.25293 0.0
O2 O 0.12931 0.39712 0.20997 0.0
C3 C 0.15671 0.31602 0.26658 0.0
C4 C 0.08145 0.34627 0.23181 0.0
C5 C 0.1773 0.343 0.19066 0.0
O6 O 0.16214 0.34206 0.26929 0.0
O7 O 0.14126 0.30989 0.2458 0.0
O8 O 0.15307 0.33177 0.18981 0.0
O9 O 0.18065 0.36084 0.21009 0.0
C10 C 0.13541 0.41094 0.23193 0.0
O11 O 0.09472 0.34555 0.20857 0.0
O12 O 0.09654 0.35087 0.25326 0.0
In13 In 0.14215 0.62094 0.74657 0.0
O14 O 0.15145 0.5829 0.71838 0.0
O15 O 0.14398 0.57586 0.76219 0.0
C16 C 0.14964 0.66487 0.7114 0.0
C17 C 0.08575 0.62193 0.75228 0.0
C18 C 0.18321 0.63438 0.78328 0.0
O19 O 0.15805 0.64022 0.70531 0.0
O20 O 0.13723 0.66703 0.73485 0.0
O21 O 0.1573 0.63678 0.78943 0.0
O22 O 0.18816 0.62444 0.75908 0.0
C23 C 0.14934 0.56526 0.73832 0.0
O24 O 0.10199 0.62636 0.77299 0.0
O25 O 0.09808 0.61677 0.72922 0.0
In26 In 0.84997 0.63475 0.26692 0.0
O27 O 0.84201 0.59337 0.29116 0.0
O28 O 0.85731 0.59156 0.24884 0.0
C29 C 0.83317 0.67716 0.30075 0.0
C30 C 0.90632 0.64107 0.26804 0.0
C31 C 0.81112 0.64338 0.2263 0.0
O32 O 0.82759 0.65161 0.30641 0.0
O33 O 0.84761 0.68087 0.27866 0.0
O34 O 0.83674 0.65033 0.22318 0.0
O35 O 0.80544 0.63176 0.2496 0.0
C36 C 0.8499 0.57812 0.27062 0.0
O37 O 0.8922 0.64418 0.24555 0.0
O38 O 0.89189 0.63518 0.2897 0.0
In39 In 0.8529 0.3605 0.7321 0.0
O40 O 0.84831 0.39777 0.70133 0.0
O41 O 0.8496 0.40588 0.74556 0.0
C42 C 0.84461 0.31411 0.70057 0.0
C43 C 0.9088 0.35813 0.74107 0.0
C44 C 0.81004 0.35182 0.76824 0.0
O45 O 0.83587 0.3382 0.69281 0.0
O46 O 0.85787 0.31382 0.72361 0.0
O47 O 0.83559 0.34875 0.77551 0.0
O48 O 0.80635 0.35955 0.743 0.0
C49 C 0.84756 0.41588 0.72094 0.0
O50 O 0.89119 0.35511 0.76094 0.0
O51 O 0.89807 0.36271 0.71708 0.0
In52 In 0.25417 0.13368 0.35211 0.0
O53 O 0.22345 0.09657 0.3492 0.0
O54 O 0.2641 0.08964 0.36734 0.0
C55 C 0.2216 0.17589 0.33236 0.0
C56 C 0.26078 0.14901 0.40609 0.0
C57 C 0.29216 0.13087 0.30993 0.0
O58 O 0.24633 0.1797 0.34151 0.0
O59 O 0.21316 0.15057 0.33305 0.0
O60 O 0.29687 0.14456 0.33231 0.0
O61 O 0.26867 0.11845 0.30924 0.0
C62 C 0.24063 0.07926 0.36022 0.0
O63 O 0.28165 0.14226 0.3908 0.0
O64 O 0.23701 0.1479 0.39408 0.0
In65 In 0.35479 0.75144 0.85954 0.0
O66 O 0.39711 0.73009 0.85057 0.0
O67 O 0.39711 0.77301 0.86421 0.0
C68 C 0.31844 0.71131 0.84294 0.0
C69 C 0.3498 0.74866 0.91593 0.0
C70 C 0.33851 0.79078 0.82174 0.0
O71 O 0.34431 0.71062 0.83619 0.0
O72 O 0.31123 0.732 0.85813 0.0
O73 O 0.33069 0.79175 0.84727 0.0
O74 O 0.35498 0.77063 0.81584 0.0
C75 C 0.41144 0.75169 0.85684 0.0
O76 O 0.34645 0.77173 0.90276 0.0
O77 O 0.35553 0.72762 0.90063 0.0
In78 In 0.72156 0.86165 0.35084 0.0
O79 O 0.69609 0.85271 0.39108 0.0
O80 O 0.73736 0.8704 0.39462 0.0
C81 C 0.68876 0.84486 0.30786 0.0
C82 C 0.72114 0.91787 0.34342 0.0
C83 C 0.76158 0.82155 0.34485 0.0
O84 O 0.68152 0.8412 0.33334 0.0
O85 O 0.71198 0.85743 0.30442 0.0
O86 O 0.76547 0.84675 0.33677 0.0
O87 O 0.73794 0.81703 0.35627 0.0
C88 C 0.71549 0.86168 0.40712 0.0
O89 O 0.74371 0.90352 0.34171 0.0
O90 O 0.69912 0.90373 0.34852 0.0
In91 In 0.62778 0.26059 0.85286 0.0
O92 O 0.63712 0.23987 0.89521 0.0
O93 O 0.62957 0.28438 0.89405 0.0
C94 C 0.63877 0.21839 0.81635 0.0
C95 C 0.57125 0.26418 0.85437 0.0
C96 C 0.66719 0.29686 0.83436 0.0
O97 O 0.64806 0.21822 0.84135 0.0
O98 O 0.62344 0.23936 0.81022 0.0
O99 O 0.64144 0.29949 0.82758 0.0
O100 O 0.67258 0.27648 0.85067 0.0
C101 C 0.63496 0.26278 0.90881 0.0
O102 O 0.58613 0.28388 0.84416 0.0
O103 O 0.58495 0.24297 0.86308 0.0
In104 In 0.23092 0.85721 0.64102 0.0
O105 O 0.25323 0.84635 0.59972 0.0
O106 O 0.20886 0.85507 0.59901 0.0
C107 C 0.26997 0.8496 0.68159 0.0
C108 C 0.22623 0.91356 0.63812 0.0
C109 C 0.19706 0.8143 0.65534 0.0
O110 O 0.27464 0.84321 0.65608 0.0
O111 O 0.246 0.8604 0.68627 0.0
O112 O 0.19059 0.83963 0.66123 0.0
O113 O 0.22012 0.81114 0.64233 0.0
C114 C 0.23084 0.84861 0.58522 0.0
O115 O 0.20657 0.89866 0.64845 0.0
O116 O 0.24781 0.89999 0.63018 0.0
In117 In 0.63295 0.72931 0.12787 0.0
O118 O 0.64496 0.74865 0.08546 0.0
O119 O 0.63261 0.70531 0.08671 0.0
C120 C 0.64325 0.76963 0.16625 0.0
C121 C 0.57629 0.73176 0.12726 0.0
C122 C 0.67239 0.69315 0.14714 0.0
O123 O 0.65192 0.77165 0.14103 0.0
O124 O 0.62926 0.74763 0.17165 0.0
O125 O 0.64629 0.68917 0.15163 0.0
O126 O 0.67805 0.7146 0.13238 0.0
C127 C 0.64048 0.72608 0.0719 0.0
O128 O 0.5892 0.70966 0.13533 0.0
O129 O 0.59203 0.75185 0.11963 0.0
In130 In 0.73122 0.13656 0.63408 0.0
O131 O 0.70252 0.13823 0.59515 0.0
O132 O 0.74669 0.13119 0.58953 0.0
C133 C 0.69557 0.14803 0.67676 0.0
C134 C 0.74391 0.08193 0.6428 0.0
C135 C 0.76293 0.18339 0.63818 0.0
O136 O 0.68805 0.14991 0.6512 0.0
O137 O 0.72073 0.13992 0.68054 0.0
O138 O 0.77139 0.1597 0.64732 0.0
O139 O 0.7388 0.18319 0.62693 0.0
C140 C 0.72277 0.13423 0.57815 0.0
O141 O 0.76288 0.10065 0.64173 0.0
O142 O 0.71895 0.09096 0.63971 0.0
In143 In 0.35446 0.22307 0.1263 0.0
O144 O 0.39046 0.25559 0.1287 0.0
O145 O 0.3981 0.21572 0.10918 0.0
C146 C 0.30616 0.25134 0.13651 0.0
C147 C 0.34132 0.20641 0.07411 0.0
C148 C 0.35975 0.19386 0.17465 0.0
O149 O 0.32945 0.26409 0.13324 0.0
O150 O 0.30766 0.22475 0.13516 0.0
O151 O 0.35068 0.18264 0.15223 0.0
O152 O 0.3666 0.21949 0.17234 0.0
C153 C 0.40784 0.2394 0.11633 0.0
O154 O 0.34933 0.18883 0.09266 0.0
O155 O 0.34022 0.23186 0.08207 0.0
In156 In 0.86296 0.63843 0.72975 0.0
O157 O 0.90515 0.64076 0.75289 0.0
O158 O 0.90463 0.6276 0.70973 0.0
C159 C 0.82196 0.65283 0.76591 0.0
C160 C 0.85155 0.58319 0.72911 0.0
C161 C 0.85777 0.6836 0.69586 0.0
O162 O 0.84783 0.6562 0.77198 0.0
O163 O 0.81718 0.64261 0.74177 0.0
O164 O 0.84789 0.6597 0.68898 0.0
O165 O 0.87052 0.68417 0.71924 0.0
C166 C 0.9191 0.63248 0.73158 0.0
O167 O 0.85063 0.59772 0.70657 0.0
O168 O 0.8583 0.59663 0.75108 0.0
In169 In 0.85828 0.35629 0.23567 0.0
O170 O 0.85531 0.39584 0.26355 0.0
O171 O 0.86477 0.40033 0.21964 0.0
C172 C 0.84908 0.30998 0.26703 0.0
C173 C 0.91345 0.34874 0.2255 0.0
C174 C 0.81017 0.35308 0.20596 0.0
O175 O 0.84602 0.3346 0.27719 0.0
O176 O 0.85707 0.30915 0.24162 0.0
O177 O 0.83367 0.34519 0.19574 0.0
O178 O 0.81133 0.36298 0.23064 0.0
C179 C 0.86072 0.41232 0.24311 0.0
O180 O 0.89544 0.34856 0.20569 0.0
O181 O 0.9034 0.35266 0.24993 0.0
In182 In 0.13278 0.34186 0.73708 0.0
O183 O 0.08865 0.33697 0.75587 0.0
O184 O 0.0928 0.35073 0.71306 0.0
C185 C 0.16962 0.32241 0.7754 0.0
C186 C 0.14108 0.39749 0.74205 0.0
C187 C 0.1461 0.30257 0.69853 0.0
O188 O 0.14358 0.31636 0.77683 0.0
O189 O 0.1764 0.33852 0.7553 0.0
O190 O 0.15631 0.32727 0.69753 0.0
O191 O 0.12855 0.29839 0.71814 0.0
C192 C 0.07649 0.34484 0.73334 0.0
O193 O 0.14527 0.38479 0.71886 0.0
O194 O 0.13287 0.38203 0.76218 0.0
In195 In 0.12984 0.6337 0.25443 0.0
O196 O 0.13581 0.59255 0.27909 0.0
O197 O 0.12465 0.59048 0.23547 0.0
C198 C 0.14296 0.67493 0.29096 0.0
C199 C 0.07371 0.64057 0.2497 0.0
C200 C 0.17413 0.64158 0.21976 0.0
O201 O 0.14677 0.64909 0.29687 0.0
O202 O 0.13212 0.67961 0.26708 0.0
O203 O 0.14979 0.65116 0.2139 0.0
O204 O 0.17567 0.62788 0.24254 0.0
C205 C 0.13051 0.5772 0.25787 0.0
O206 O 0.08998 0.64321 0.22863 0.0
O207 O 0.08589 0.63462 0.27267 0.0
In208 In 0.7458 0.85925 0.62899 0.0
O209 O 0.76704 0.90141 0.63914 0.0
O210 O 0.72193 0.8995 0.6349 0.0
C211 C 0.78049 0.8145 0.62887 0.0
C212 C 0.73899 0.86488 0.57339 0.0
C213 C 0.71834 0.84475 0.67599 0.0
O214 O 0.78879 0.83859 0.63718 0.0
O215 O 0.75524 0.81359 0.62026 0.0
O216 O 0.70706 0.84183 0.65183 0.0
O217 O 0.74315 0.85457 0.67595 0.0
C218 C 0.74348 0.91442 0.63986 0.0
O219 O 0.71961 0.85447 0.58875 0.0
O220 O 0.76124 0.87203 0.58627 0.0
In221 In 0.62812 0.25183 0.13164 0.0
O222 O 0.63463 0.22533 0.09208 0.0
O223 O 0.62956 0.27009 0.08785 0.0
C224 C 0.63431 0.21496 0.17444 0.0
C225 C 0.57231 0.26176 0.1309 0.0
C226 C 0.67511 0.2824 0.13941 0.0
O227 O 0.63897 0.20819 0.14905 0.0
O228 O 0.6259 0.24004 0.178 0.0
O229 O 0.651 0.29192 0.14634 0.0
O230 O 0.67509 0.25793 0.12896 0.0
C231 C 0.63347 0.24657 0.07579 0.0
O232 O 0.58927 0.2799 0.14075 0.0
O233 O 0.5836 0.23912 0.12242 0.0
In234 In 0.26876 0.13142 0.62463 0.0
O235 O 0.29968 0.13836 0.58806 0.0
O236 O 0.25524 0.14277 0.5809 0.0
C237 C 0.29909 0.12702 0.6722 0.0
C238 C 0.25506 0.07711 0.61729 0.0
C239 C 0.23978 0.17869 0.63669 0.0
O240 O 0.30958 0.13712 0.64976 0.0
O241 O 0.27379 0.11899 0.67021 0.0
O242 O 0.2277 0.15491 0.63474 0.0
O243 O 0.2662 0.17825 0.63298 0.0
C244 C 0.27992 0.14377 0.5708 0.0
O245 O 0.23762 0.0946 0.62771 0.0
O246 O 0.27874 0.08727 0.61049 0.0
In247 In 0.35286 0.74458 0.13928 0.0
O248 O 0.38964 0.71309 0.14337 0.0
O249 O 0.39846 0.75639 0.13424 0.0
C250 C 0.30446 0.71616 0.14709 0.0
C251 C 0.34817 0.75489 0.08389 0.0
C252 C 0.35034 0.77543 0.18674 0.0
O253 O 0.32836 0.70459 0.15095 0.0
O254 O 0.30531 0.7416 0.13914 0.0
O255 O 0.34406 0.78584 0.1629 0.0
O256 O 0.35826 0.74995 0.18626 0.0
C257 C 0.4081 0.73181 0.13844 0.0
O258 O 0.34801 0.77481 0.10176 0.0
O259 O 0.35056 0.73036 0.09421 0.0
In260 In 0.73602 0.14056 0.35424 0.0
O261 O 0.76131 0.10113 0.34177 0.0
O262 O 0.71774 0.09678 0.35269 0.0
C263 C 0.77048 0.18462 0.34451 0.0
C264 C 0.73634 0.13731 0.41068 0.0
C265 C 0.69638 0.15456 0.31618 0.0
O266 O 0.77572 0.16021 0.33488 0.0
O267 O 0.74834 0.18641 0.35925 0.0
O268 O 0.69329 0.16003 0.34216 0.0
O269 O 0.71902 0.14189 0.30988 0.0
C270 C 0.74039 0.08481 0.34504 0.0
O271 O 0.71394 0.14297 0.39715 0.0
O272 O 0.75809 0.13363 0.39567 0.0
In273 In 0.35249 0.22386 0.85696 0.0
O274 O 0.34215 0.19506 0.89442 0.0
O275 O 0.33612 0.23965 0.89846 0.0
C276 C 0.35749 0.18979 0.81191 0.0
C277 C 0.40669 0.23593 0.86785 0.0
C278 C 0.30998 0.25676 0.83884 0.0
O279 O 0.34425 0.18226 0.83387 0.0
O280 O 0.36835 0.21402 0.81315 0.0
O281 O 0.33487 0.26608 0.84164 0.0
O282 O 0.30685 0.23096 0.84483 0.0
C283 C 0.33444 0.21557 0.90978 0.0
O284 O 0.39048 0.25348 0.85575 0.0
O285 O 0.3953 0.21286 0.87475 0.0
In286 In 0.24692 0.85558 0.36354 0.0
O287 O 0.22469 0.8985 0.3606 0.0
O288 O 0.26767 0.89671 0.37437 0.0
C289 C 0.20898 0.81604 0.34965 0.0
C290 C 0.25088 0.84503 0.41885 0.0
C291 C 0.2809 0.84947 0.31851 0.0
O292 O 0.20386 0.84213 0.34624 0.0
O293 O 0.23286 0.81034 0.36009 0.0
O294 O 0.28701 0.83873 0.34225 0.0
O295 O 0.25819 0.86349 0.31794 0.0
C296 C 0.24626 0.91182 0.36911 0.0
O297 O 0.27209 0.84247 0.40266 0.0
O298 O 0.22817 0.85249 0.40689 0.0
In299 In 0.63479 0.73564 0.84872 0.0
O300 O 0.64407 0.76186 0.8881 0.0
O301 O 0.63653 0.71762 0.89269 0.0
C302 C 0.64168 0.77033 0.80443 0.0
C303 C 0.57844 0.73104 0.84936 0.0
C304 C 0.67757 0.70097 0.83495 0.0
O305 O 0.65067 0.77662 0.82879 0.0
O306 O 0.62874 0.74714 0.80287 0.0
O307 O 0.65204 0.69415 0.83079 0.0
O308 O 0.68108 0.7246 0.84668 0.0
C309 C 0.64203 0.74085 0.90456 0.0
O310 O 0.59422 0.70993 0.84435 0.0
O311 O 0.59124 0.75393 0.85404 0.0
H312 H 0.12042 0.54184 0.21456 0.0
H313 H 0.14403 0.54279 0.30253 0.0
H314 H 0.14778 0.4911 0.30239 0.0
H315 H 0.14478 0.4457 0.27681 0.0
H316 H 0.1212 0.44586 0.18874 0.0
H317 H 0.11711 0.49717 0.18938 0.0
C318 C 0.12632 0.53078 0.23376 0.0
C319 C 0.13194 0.54605 0.25851 0.0
C320 C 0.12854 0.50128 0.23346 0.0
C321 C 0.13956 0.53143 0.28321 0.0
C322 C 0.14175 0.50192 0.28312 0.0
C323 C 0.13879 0.45702 0.2578 0.0
C324 C 0.13336 0.44203 0.23276 0.0
C325 C 0.1364 0.48663 0.2583 0.0
C326 C 0.12553 0.45691 0.20827 0.0
C327 C 0.12315 0.48625 0.20861 0.0
H328 H 0.95549 0.64026 0.77556 0.0
H329 H 0.95199 0.61576 0.68781 0.0
H330 H 0.00306 0.60946 0.68701 0.0
H331 H 0.04862 0.61176 0.71058 0.0
H332 H 0.05337 0.63636 0.79813 0.0
H333 H 0.0018 0.64158 0.79974 0.0
C334 C 0.96596 0.63353 0.75632 0.0
C335 C 0.95003 0.6286 0.73177 0.0
C336 C -0.00454 0.62992 0.75596 0.0
C337 C 0.96379 0.61978 0.70698 0.0
C338 C 0.99299 0.61614 0.70648 0.0
C339 C 0.0384 0.61817 0.73008 0.0
C340 C 0.0547 0.62374 0.75417 0.0
C341 C 0.009 0.62126 0.73076 0.0
C342 C 0.04118 0.63194 0.77929 0.0
C343 C 0.01175 0.63499 0.7802 0.0
H344 H 0.84422 0.44543 0.28774 0.0
H345 H 0.87973 0.4489 0.20375 0.0
H346 H 0.87991 0.5002 0.20542 0.0
H347 H 0.86891 0.54392 0.22961 0.0
H348 H 0.83292 0.54237 0.31329 0.0
H349 H 0.834 0.49046 0.31291 0.0
C350 C 0.85214 0.45749 0.26995 0.0
C351 C 0.86185 0.44338 0.24563 0.0
C352 C 0.85197 0.48726 0.2709 0.0
C353 C 0.872 0.45922 0.22267 0.0
C354 C 0.87212 0.48859 0.22356 0.0
C355 C 0.8613 0.5323 0.24784 0.0
C356 C 0.85073 0.54692 0.27138 0.0
C357 C 0.86193 0.50277 0.2474 0.0
C358 C 0.8411 0.53153 0.29487 0.0
C359 C 0.84172 0.50189 0.29464 0.0
H360 H 0.03674 0.33966 0.77475 0.0
H361 H 0.04701 0.35671 0.68574 0.0
H362 H -0.00385 0.36277 0.68059 0.0
H363 H 0.94893 0.36331 0.70105 0.0
H364 H 0.93762 0.34657 0.78991 0.0
H365 H 0.98878 0.34048 0.7955 0.0
C366 C 0.02777 0.34461 0.75425 0.0
C367 C 0.04557 0.34768 0.73067 0.0
C368 C -0.00159 0.34826 0.75143 0.0
C369 C 0.03375 0.35423 0.70423 0.0
C370 C 0.00467 0.35774 0.70125 0.0
C371 C 0.95763 0.35841 0.72169 0.0
C372 C 0.9396 0.3554 0.74503 0.0
C373 C 0.98685 0.35486 0.72467 0.0
C374 C 0.95116 0.34903 0.77162 0.0
C375 C 0.98036 0.34549 0.7748 0.0
H376 H 0.15168 0.43709 0.70146 0.0
H377 H 0.13846 0.42669 0.7911 0.0
H378 H 0.14147 0.47756 0.79786 0.0
H379 H 0.14549 0.52497 0.77835 0.0
H380 H 0.15766 0.53655 0.6888 0.0
H381 H 0.15764 0.48522 0.68197 0.0
C382 C 0.14968 0.44601 0.72246 0.0
C383 C 0.1447 0.4282 0.7457 0.0
C384 C 0.15116 0.47543 0.72622 0.0
C385 C 0.14214 0.43997 0.77282 0.0
C386 C 0.14386 0.46906 0.77674 0.0
C387 C 0.14833 0.51629 0.75734 0.0
C388 C 0.15144 0.53445 0.73411 0.0
C389 C 0.14799 0.48697 0.75358 0.0
C390 C 0.15518 0.52292 0.70703 0.0
C391 C 0.15511 0.49361 0.70311 0.0
H392 H 0.94281 0.64838 0.224 0.0
H393 H 0.93964 0.6376 0.31449 0.0
H394 H 0.99109 0.63756 0.31667 0.0
H395 H 0.03679 0.63864 0.29299 0.0
H396 H 0.04104 0.64886 0.20256 0.0
H397 H 0.9893 0.65119 0.20022 0.0
C398 C 0.95343 0.64623 0.24418 0.0
C399 C 0.93745 0.64289 0.26903 0.0
C400 C 0.98314 0.64601 0.24529 0.0
C401 C 0.95145 0.6401 0.29504 0.0
C402 C 0.98087 0.64006 0.29633 0.0
C403 C 0.02644 0.64149 0.27274 0.0
C404 C 0.04266 0.64343 0.24797 0.0
C405 C -0.00311 0.64267 0.27159 0.0
C406 C 0.02895 0.64726 0.22193 0.0
C407 C -0.0006 0.64856 0.22059 0.0
H408 H 0.85218 0.54472 0.6859 0.0
H409 H 0.83848 0.55325 0.77565 0.0
H410 H 0.83405 0.50232 0.78039 0.0
H411 H 0.83759 0.45546 0.76016 0.0
H412 H 0.85246 0.44507 0.67093 0.0
H413 H 0.8527 0.49662 0.66476 0.0
C414 C 0.84786 0.53535 0.70635 0.0
C415 C 0.84593 0.55263 0.73042 0.0
C416 C 0.84578 0.50578 0.70908 0.0
C417 C 0.84037 0.54033 0.75686 0.0
C418 C 0.83782 0.51122 0.75963 0.0
C419 C 0.84074 0.46442 0.73929 0.0
C420 C 0.84532 0.4466 0.71609 0.0
C421 C 0.84112 0.49376 0.73604 0.0
C422 C 0.849 0.45847 0.68914 0.0
C423 C 0.8492 0.4879 0.68564 0.0
H424 H 0.95325 0.3423 0.26549 0.0
H425 H 0.94247 0.34799 0.17524 0.0
H426 H -0.00608 0.34599 0.16879 0.0
H427 H 0.04214 0.34537 0.18941 0.0
H428 H 0.05141 0.34037 0.28 0.0
H429 H 0.00035 0.33919 0.28565 0.0
C430 C 0.9621 0.34297 0.24436 0.0
C431 C 0.94416 0.34552 0.2209 0.0
C432 C 0.99145 0.342 0.24089 0.0
C433 C 0.95592 0.34609 0.19365 0.0
C434 C 0.98531 0.34502 0.18997 0.0
C435 C 0.03291 0.34374 0.21032 0.0
C436 C 0.05052 0.34317 0.23425 0.0
C437 C 0.00332 0.34336 0.21351 0.0
C438 C 0.03833 0.34106 0.26124 0.0
C439 C 0.00911 0.34039 0.26453 0.0
H440 H 0.24317 0.168 0.53524 0.0
H441 H 0.32654 0.13098 0.53866 0.0
H442 H 0.32956 0.13251 0.48693 0.0
H443 H 0.30559 0.1389 0.44087 0.0
H444 H 0.22122 0.17403 0.43888 0.0
H445 H 0.22157 0.17897 0.49003 0.0
C446 C 0.26218 0.16059 0.52468 0.0
C447 C 0.28441 0.14898 0.54052 0.0
C448 C 0.26344 0.16101 0.49523 0.0
C449 C 0.30911 0.1399 0.52675 0.0
C450 C 0.31075 0.14063 0.49723 0.0
C451 C 0.28754 0.14808 0.45167 0.0
C452 C 0.26326 0.15572 0.43629 0.0
C453 C 0.28763 0.1503 0.48124 0.0
C454 C 0.23999 0.16765 0.45038 0.0
C455 C 0.24015 0.17049 0.4796 0.0
H456 H 0.34579 0.79088 0.95521 0.0
H457 H 0.34915 0.70011 0.94601 0.0
H458 H 0.34789 0.69434 -0.00301 0.0
H459 H 0.34747 0.71463 0.04397 0.0
H460 H 0.34509 0.80513 0.0548 0.0
H461 H 0.34422 0.81149 0.00336 0.0
C462 C 0.34608 0.76989 0.96445 0.0
C463 C 0.34767 0.74597 0.94688 0.0
C464 C 0.34561 0.76666 -0.00601 0.0
C465 C 0.34808 0.71887 0.95906 0.0
C466 C 0.34734 0.71552 0.98822 0.0
C467 C 0.34666 0.7358 0.03515 0.0
C468 C 0.34644 0.75937 0.0531 0.0
C469 C 0.34639 0.73922 0.00584 0.0
C470 C 0.34532 0.78663 0.04134 0.0
C471 C 0.34485 0.79026 0.01197 0.0
H472 H 0.75239 0.88501 0.44316 0.0
H473 H 0.67449 0.83797 0.44072 0.0
H474 H 0.67398 0.8357 0.4925 0.0
H475 H 0.69727 0.84545 0.53842 0.0
H476 H 0.7756 0.89212 0.53914 0.0
H477 H 0.77425 0.89623 0.48803 0.0
C478 C 0.7352 0.87432 0.45391 0.0
C479 C 0.71363 0.86151 0.43821 0.0
C480 C 0.73518 0.87298 0.48338 0.0
C481 C 0.69138 0.84796 0.45243 0.0
C482 C 0.69113 0.84662 0.48199 0.0
C483 C 0.71389 0.85664 0.52733 0.0
C484 C 0.73659 0.86827 0.54252 0.0
C485 C 0.71313 0.85879 0.49769 0.0
C486 C 0.75799 0.88277 0.52795 0.0
C487 C 0.75726 0.88517 0.4987 0.0
H488 H 0.63424 0.28962 0.03856 0.0
H489 H 0.63845 0.19864 0.04385 0.0
H490 H 0.64076 0.19558 0.99227 0.0
H491 H 0.63965 0.21894 0.94572 0.0
H492 H 0.63468 0.31 0.94125 0.0
H493 H 0.63479 0.31285 -0.00737 0.0
C494 C 0.63576 0.2691 0.02846 0.0
C495 C 0.63602 0.24439 0.04489 0.0
C496 C 0.63694 0.26754 -0.001 0.0
C497 C 0.63815 0.21797 0.03156 0.0
C498 C 0.63945 0.21621 0.00212 0.0
C499 C 0.63883 0.23939 0.95604 0.0
C500 C 0.63706 0.26421 0.93979 0.0
C501 C 0.6386 0.24088 0.98563 0.0
C502 C 0.63595 0.29058 0.95334 0.0
C503 C 0.63598 0.29224 0.9827 0.0
H504 H 0.20707 0.84528 0.45501 0.0
H505 H 0.29787 0.83683 0.45184 0.0
H506 H 0.29972 0.83553 0.50357 0.0
H507 H 0.27543 0.83998 0.54965 0.0
H508 H 0.18458 0.84942 0.55155 0.0
H509 H 0.18287 0.84708 0.50026 0.0
C510 C 0.22729 0.84295 0.4656 0.0
C511 C 0.25232 0.84137 0.44972 0.0
C512 C 0.22817 0.84255 0.49509 0.0
C513 C 0.27832 0.83813 0.46369 0.0
C514 C 0.27937 0.83748 0.49322 0.0
C515 C 0.25528 0.84129 0.53879 0.0
C516 C 0.2302 0.84508 0.55432 0.0
C517 C 0.25444 0.84017 0.50915 0.0
C518 C 0.20421 0.84668 0.54006 0.0
C519 C 0.20318 0.84535 0.51072 0.0
H520 H 0.64978 0.76892 0.0346 0.0
H521 H 0.63622 0.67886 0.03975 0.0
H522 H 0.6368 0.67552 0.98841 0.0
H523 H 0.63894 0.69823 0.94225 0.0
H524 H 0.65146 0.78833 0.93621 0.0
H525 H 0.65363 0.79162 0.98779 0.0
C526 C 0.64719 0.74857 0.02445 0.0
C527 C 0.64287 0.7242 0.04091 0.0
C528 C 0.64723 0.74682 -0.00517 0.0
C529 C 0.63948 0.69795 0.02753 0.0
C530 C 0.63979 0.696 -0.00182 0.0
C531 C 0.64228 0.7186 0.95218 0.0
C532 C 0.6449 0.74302 0.9355 0.0
C533 C 0.64328 0.72032 0.98166 0.0
C534 C 0.64932 0.76923 0.94865 0.0
C535 C 0.65053 0.77112 0.97811 0.0
H536 H 0.76367 0.12521 0.53979 0.0
H537 H 0.67454 0.14343 0.54719 0.0
H538 H 0.67053 0.14566 0.4956 0.0
H539 H 0.69305 0.14363 0.44841 0.0
H540 H 0.78248 0.12571 0.44245 0.0
H541 H 0.78566 0.12224 0.49357 0.0
C542 C 0.7433 0.12957 0.53017 0.0
C543 C 0.71946 0.13422 0.5472 0.0
C544 C 0.74126 0.131 0.50077 0.0
C545 C 0.69321 0.13978 0.53444 0.0
C546 C 0.69094 0.14112 0.50499 0.0
C547 C 0.71317 0.13894 0.45837 0.0
C548 C 0.7375 0.13504 0.4417 0.0
C549 C 0.71491 0.13698 0.48794 0.0
C550 C 0.76345 0.12889 0.45481 0.0
C551 C 0.76532 0.12687 0.48405 0.0
H552 H 0.31051 0.23614 0.03711 0.0
H553 H 0.36008 0.1599 0.04507 0.0
H554 H 0.35851 0.15324 -0.00628 0.0
H555 H 0.3492 0.1736 0.94637 0.0
H556 H 0.30178 0.25144 0.93973 0.0
H557 H 0.2959 0.25279 0.9908 0.0
C558 C 0.32057 0.2178 0.02762 0.0
C559 C 0.33582 0.19882 0.04455 0.0
C560 C 0.32009 0.21456 -0.00167 0.0
C561 C 0.34834 0.17486 0.03226 0.0
C562 C 0.34758 0.17117 0.00294 0.0
C563 C 0.33701 0.19041 0.95616 0.0
C564 C 0.32629 0.21261 0.93955 0.0
C565 C 0.33444 0.19151 0.98569 0.0
C566 C 0.31054 0.23435 0.95227 0.0
C567 C 0.30721 0.23517 0.98142 0.0
H568 H 0.53784 0.23638 0.09437 0.0
H569 H 0.53797 0.29647 0.16267 0.0
H570 H 0.48597 0.29764 0.16216 0.0
H571 H 0.4406 0.27712 0.1453 0.0
H572 H 0.44243 0.21611 0.07761 0.0
H573 H 0.49359 0.22005 0.07455 0.0
C574 C 0.5265 0.24994 0.10902 0.0
C575 C 0.54151 0.26593 0.12885 0.0
C576 C 0.49698 0.25026 0.10868 0.0
C577 C 0.5267 0.28385 0.14732 0.0
C578 C 0.49704 0.28442 0.14707 0.0
C579 C 0.45224 0.2652 0.12956 0.0
C580 C 0.4379 0.24611 0.11192 0.0
C581 C 0.48193 0.26711 0.12829 0.0
C582 C 0.4531 0.23068 0.09162 0.0
C583 C 0.48234 0.23287 0.08987 0.0
H584 H 0.54231 0.77378 0.86018 0.0
H585 H 0.54481 0.68517 0.83885 0.0
H586 H 0.49301 0.68371 0.83892 0.0
H587 H 0.44709 0.7079 0.84521 0.0
H588 H 0.44557 0.79653 0.86685 0.0
H589 H 0.49707 0.79771 0.86641 0.0
C590 C 0.53156 0.75411 0.85555 0.0
C591 C 0.5473 0.72962 0.84953 0.0
C592 C 0.502 0.75347 0.85564 0.0
C593 C 0.53309 0.7043 0.84357 0.0
C594 C 0.50352 0.70348 0.84359 0.0
C595 C 0.45807 0.72745 0.84976 0.0
C596 C 0.44258 0.75209 0.85603 0.0
C597 C 0.48776 0.72797 0.84959 0.0
C598 C 0.45703 0.77728 0.86197 0.0
C599 C 0.48647 0.77798 0.86174 0.0
H600 H 0.7656 0.9539 0.33665 0.0
H601 H 0.67472 0.95159 0.3452 0.0
H602 H 0.6728 0.00301 0.34502 0.0
H603 H 0.69679 0.04844 0.34494 0.0
H604 H 0.78755 0.05192 0.33678 0.0
H605 H 0.78967 0.00019 0.33409 0.0
C606 C 0.7454 0.96471 0.33823 0.0
C607 C 0.72036 0.94897 0.34111 0.0
C608 C 0.74442 -0.00558 0.3383 0.0
C609 C 0.69431 0.9632 0.3431 0.0
C610 C 0.69317 0.99262 0.34302 0.0
C611 C 0.71706 0.03792 0.34243 0.0
C612 C 0.74199 0.05389 0.34127 0.0
C613 C 0.71808 0.00839 0.34105 0.0
C614 C 0.76806 0.04001 0.33777 0.0
C615 C 0.76928 0.01047 0.3363 0.0
H616 H 0.43886 0.27771 0.84483 0.0
H617 H 0.44298 0.20414 0.89876 0.0
H618 H 0.49432 0.20752 0.90038 0.0
H619 H 0.53794 0.22896 0.8838 0.0
H620 H 0.53505 0.30208 0.82936 0.0
H621 H 0.4832 0.30139 0.83065 0.0
C622 C 0.45103 0.26271 0.85724 0.0
C623 C 0.43723 0.24059 0.87148 0.0
C624 C 0.48067 0.2645 0.85773 0.0
C625 C 0.45316 0.22124 0.88746 0.0
C626 C 0.48251 0.2231 0.88835 0.0
C627 C 0.52599 0.24483 0.87227 0.0
C628 C 0.54018 0.26532 0.85622 0.0
C629 C 0.49646 0.24422 0.87307 0.0
C630 C 0.52449 0.286 0.84174 0.0
C631 C 0.4949 0.28558 0.84246 0.0
H632 H 0.20711 0.95063 0.35159 0.0
H633 H 0.28759 0.94234 0.39387 0.0
H634 H 0.29165 -0.00651 0.39676 0.0
H635 H 0.27413 0.04032 0.38474 0.0
H636 H 0.19454 0.04986 0.34126 0.0
H637 H 0.18815 -0.00153 0.34164 0.0
C638 C 0.22537 0.96009 0.36162 0.0
C639 C 0.24712 0.94278 0.37227 0.0
C640 C 0.22778 0.98967 0.36294 0.0
C641 C 0.27068 0.95523 0.38527 0.0
C642 C 0.27303 0.98448 0.38697 0.0
C643 C 0.25524 0.03121 0.37554 0.0
C644 C 0.23494 0.04876 0.36283 0.0
C645 C 0.25197 0.00185 0.37547 0.0
C646 C 0.2105 0.03669 0.35114 0.0
C647 C 0.2069 0.00734 0.35127 0.0
H648 H 0.53627 0.69272 0.14248 0.0
H649 H 0.54657 0.77805 0.11163 0.0
H650 H 0.49573 0.7851 0.11217 0.0
H651 H 0.44857 0.76787 0.122 0.0
H652 H 0.43639 0.68282 0.15242 0.0
H653 H 0.48772 0.67478 0.15139 0.0
C654 C 0.5273 0.71277 0.13583 0.0
C655 C 0.54521 0.73483 0.12712 0.0
C656 C 0.49777 0.71679 0.13615 0.0
C657 C 0.53332 0.76071 0.11848 0.0
C658 C 0.50421 0.76482 0.11878 0.0
C659 C 0.45707 0.74752 0.12843 0.0
C660 C 0.43878 0.72603 0.13741 0.0
C661 C 0.4863 0.74312 0.1277 0.0
C662 C 0.45012 0.69973 0.14545 0.0
C663 C 0.47943 0.69515 0.14488 0.0
H664 H 0.78477 0.95484 0.63913 0.0
H665 H 0.69538 0.94238 0.65272 0.0
H666 H 0.68825 0.99306 0.6571 0.0
H667 H 0.70634 0.04086 0.65338 0.0
H668 H 0.7952 0.0549 0.63885 0.0
H669 H 0.8037 0.00371 0.63882 0.0
C670 C 0.76386 0.9633 0.64338 0.0
C671 C 0.7406 0.94496 0.64527 0.0
C672 C 0.75976 0.9927 0.64554 0.0
C673 C 0.71358 0.95609 0.65083 0.0
C674 C 0.70944 0.98508 0.65337 0.0
C675 C 0.72763 0.03275 0.65042 0.0
C676 C 0.75005 0.05151 0.64582 0.0
C677 C 0.73223 0.00356 0.65013 0.0
C678 C 0.77757 0.04077 0.64235 0.0
C679 C 0.78241 0.01154 0.64224 0.0
H680 H 0.21361 0.0464 0.64318 0.0
H681 H 0.28469 0.03942 0.58631 0.0
H682 H 0.28065 0.98819 0.58662 0.0
H683 H 0.25975 0.94555 0.60575 0.0
H684 H 0.18917 0.95081 0.66321 0.0
H685 H 0.19003 0.00264 0.6599 0.0
C686 C 0.22787 0.0336 0.63056 0.0
C687 C 0.24956 0.04659 0.61494 0.0
C688 C 0.22573 0.00396 0.63118 0.0
C689 C 0.26798 0.02987 0.59869 0.0
C690 C 0.26573 0.00058 0.59888 0.0
C691 C 0.24445 0.958 0.61751 0.0
C692 C 0.2247 0.94452 0.63501 0.0
C693 C 0.24518 0.98744 0.61556 0.0
C694 C 0.2047 0.96084 0.64972 0.0
C695 C 0.20522 0.99041 0.64785 0.0
H696 H 0.14164 0.26113 0.26876 0.0
H697 H 0.20018 0.32113 0.30419 0.0
H698 H 0.22483 0.28281 0.3289 0.0
H699 H 0.23169 0.23195 0.33739 0.0
H700 H 0.17282 0.17217 0.30206 0.0
H701 H 0.1462 0.21084 0.28028 0.0
C702 C 0.15962 0.26586 0.28214 0.0
C703 C 0.16927 0.29382 0.28451 0.0
C704 C 0.1737 0.24379 0.29604 0.0
C705 C 0.19239 0.29973 0.30208 0.0
C706 C 0.20656 0.27784 0.31606 0.0
C707 C 0.21293 0.22743 0.32505 0.0
C708 C 0.20435 0.19929 0.32104 0.0
C709 C 0.19773 0.24974 0.31269 0.0
C710 C 0.17986 0.19369 0.30533 0.0
C711 C 0.16468 0.21576 0.29286 0.0
H712 H 0.26421 0.7054 0.85995 0.0
H713 H 0.32599 0.67154 0.80192 0.0
H714 H 0.28968 0.64209 0.78013 0.0
H715 H 0.23961 0.62986 0.77456 0.0
H716 H 0.17775 0.66432 0.83216 0.0
H717 H 0.21501 0.68938 0.85749 0.0
C718 C 0.26978 0.69132 0.84274 0.0
C719 C 0.29759 0.69087 0.83227 0.0
C720 C 0.2488 0.67467 0.83023 0.0
C721 C 0.30465 0.67232 0.81023 0.0
C722 C 0.2839 0.65556 0.79772 0.0
C723 C 0.23435 0.64251 0.79292 0.0
C724 C 0.20597 0.64553 0.80131 0.0
C725 C 0.25579 0.65714 0.80709 0.0
C726 C 0.19944 0.66178 0.82525 0.0
C727 C 0.22071 0.67621 0.83964 0.0
H728 H 0.8459 0.73243 0.29403 0.0
H729 H 0.79348 0.67596 0.34269 0.0
H730 H 0.76846 0.71642 0.36312 0.0
H731 H 0.75811 0.76733 0.36287 0.0
H732 H 0.80984 0.82364 0.31325 0.0
H733 H 0.83879 0.78368 0.29766 0.0
C734 C 0.82927 0.72898 0.30943 0.0
C735 C 0.82128 0.70127 0.31661 0.0
C736 C 0.81476 0.75227 0.3207 0.0
C737 C 0.79992 0.69711 0.33677 0.0
C738 C 0.78554 0.72022 0.34833 0.0
C739 C 0.77597 0.77091 0.34895 0.0
C740 C 0.78164 0.79833 0.33892 0.0
C741 C 0.79224 0.74782 0.3398 0.0
C742 C 0.80498 0.80271 0.32114 0.0
C743 C 0.82146 0.77986 0.31214 0.0
H744 H 0.75443 0.36134 0.75838 0.0
H745 H 0.81213 0.32608 0.81972 0.0
H746 H 0.77229 0.30843 0.84739 0.0
H747 H 0.72159 0.29882 0.85135 0.0
H748 H 0.66379 0.33341 0.78978 0.0
H749 H 0.70322 0.35595 0.76511 0.0
C750 C 0.75826 0.35009 0.778 0.0
C751 C 0.78613 0.34466 0.78685 0.0
C752 C 0.7353 0.33981 0.79362 0.0
C753 C 0.79084 0.33037 0.81242 0.0
C754 C 0.76809 0.3202 0.82819 0.0
C755 C 0.71758 0.31162 0.83275 0.0
C756 C 0.68994 0.3142 0.82215 0.0
C757 C 0.74031 0.32416 0.81857 0.0
C758 C 0.68494 0.33108 0.79825 0.0
C759 C 0.70747 0.34382 0.78409 0.0
H760 H 0.20293 0.76064 0.63736 0.0
H761 H 0.15455 0.81277 0.69453 0.0
H762 H 0.13301 0.77048 0.71511 0.0
H763 H 0.13232 0.71876 0.72026 0.0
H764 H 0.18184 0.66693 0.66369 0.0
H765 H 0.19841 0.7092 0.63916 0.0
C766 C 0.18739 0.76277 0.6541 0.0
C767 C 0.18059 0.78967 0.66475 0.0
C768 C 0.17551 0.73847 0.666 0.0
C769 C 0.16016 0.79223 0.6861 0.0
C770 C 0.14798 0.76807 0.69794 0.0
C771 C 0.14644 0.71671 0.70231 0.0
C772 C 0.15618 0.68984 0.694 0.0
C773 C 0.15617 0.74109 0.6886 0.0
C774 C 0.17421 0.68742 0.67057 0.0
C775 C 0.18375 0.71156 0.65661 0.0
H776 H 0.72848 0.69637 0.13687 0.0
H777 H 0.66709 0.6528 0.18823 0.0
H778 H 0.70524 0.63128 0.21589 0.0
H779 H 0.75566 0.62906 0.22848 0.0
H780 H 0.81676 0.67369 0.17762 0.0
H781 H 0.77902 0.69048 0.14656 0.0
C782 C 0.72344 0.68183 0.15386 0.0
C783 C 0.69503 0.67639 0.16071 0.0
C784 C 0.7454 0.66997 0.16988 0.0
C785 C 0.68881 0.65735 0.1826 0.0
C786 C 0.7106 0.64518 0.1985 0.0
C787 C 0.76075 0.64218 0.21038 0.0
C788 C 0.78891 0.65041 0.20551 0.0
C789 C 0.73892 0.65199 0.19282 0.0
C790 C 0.79523 0.6672 0.18189 0.0
C791 C 0.77366 0.67686 0.16417 0.0
H792 H 0.81182 0.19046 0.66721 0.0
H793 H 0.74912 0.23575 0.61866 0.0
H794 H 0.7714 0.28058 0.63071 0.0
H795 H 0.80534 0.30709 0.65947 0.0
H796 H 0.86659 0.2618 0.70979 0.0
H797 H 0.84858 0.21685 0.69229 0.0
C798 C 0.80332 0.21012 0.65894 0.0
C799 C 0.77872 0.20986 0.64238 0.0
C800 C 0.8159 0.23585 0.66638 0.0
C801 C 0.76794 0.23545 0.63168 0.0
C802 C 0.78063 0.2611 0.63858 0.0
C803 C 0.81509 0.28739 0.66612 0.0
C804 C 0.83704 0.28769 0.68604 0.0
C805 C 0.80414 0.2616 0.65656 0.0
C806 C 0.84948 0.26205 0.69459 0.0
C807 C 0.83915 0.23634 0.68468 0.0
H808 H 0.18284 0.29179 0.16605 0.0
H809 H 0.22661 0.37036 0.17974 0.0
H810 H 0.27042 0.3495 0.16172 0.0
H811 H 0.29743 0.30726 0.14733 0.0
H812 H 0.25386 0.22796 0.13695 0.0
H813 H 0.20898 0.25065 0.14844 0.0
C814 C 0.2018 0.30453 0.16437 0.0
C815 C 0.20157 0.33251 0.17414 0.0
C816 C 0.22713 0.29206 0.15512 0.0
C817 C 0.22635 0.34871 0.17229 0.0
C818 C 0.25143 0.33675 0.16219 0.0
C819 C 0.27805 0.29507 0.14734 0.0
C820 C 0.27901 0.26595 0.14162 0.0
C821 C 0.25229 0.30816 0.15445 0.0
C822 C 0.25374 0.25038 0.1416 0.0
C823 C 0.22802 0.26333 0.14808 0.0
H824 H 0.33562 0.14345 0.18669 0.0
H825 H 0.37973 0.21332 0.22486 0.0
H826 H 0.36679 0.19633 0.27178 0.0
H827 H 0.33564 0.16694 0.30094 0.0
H828 H 0.28881 0.09917 0.26226 0.0
H829 H 0.31052 0.10963 0.2167 0.0
C830 C 0.343 0.15453 0.20531 0.0
C831 C 0.35807 0.17986 0.20239 0.0
C832 C 0.33468 0.1452 0.23214 0.0
C833 C 0.36773 0.19393 0.22663 0.0
C834 C 0.36026 0.18431 0.25346 0.0
C835 C 0.33079 0.15401 0.28268 0.0
C836 C 0.31031 0.13271 0.28474 0.0
C837 C 0.34259 0.16077 0.25637 0.0
C838 C 0.30426 0.11597 0.26103 0.0
C839 C 0.31658 0.12199 0.23496 0.0
H840 H 0.3542 0.79284 0.76688 0.0
H841 H 0.29612 0.82991 0.82672 0.0
H842 H 0.2715 0.85428 0.7883 0.0
H843 H 0.2632 0.86029 0.73742 0.0
H844 H 0.32044 0.82178 0.67763 0.0
H845 H 0.34891 0.80294 0.7164 0.0
C846 C 0.33642 0.80661 0.77157 0.0
C847 C 0.32676 0.80933 0.79953 0.0
C848 C 0.32211 0.82007 0.74938 0.0
C849 C 0.30388 0.82741 0.80534 0.0
C850 C 0.28972 0.84122 0.78337 0.0
C851 C 0.28216 0.84814 0.73287 0.0
C852 C 0.28954 0.84213 0.70472 0.0
C853 C 0.29813 0.83699 0.75525 0.0
C854 C 0.31424 0.82655 0.69913 0.0
C855 C 0.33046 0.81569 0.72129 0.0
H856 H 0.69946 0.85298 0.25236 0.0
H857 H 0.64319 0.8096 0.30948 0.0
H858 H 0.62212 0.78429 0.26978 0.0
H859 H 0.62326 0.77103 0.21973 0.0
H860 H 0.68027 0.81365 0.16278 0.0
H861 H 0.69736 0.84302 0.2016 0.0
C862 C 0.68231 0.83827 0.25608 0.0
C863 C 0.67309 0.83289 0.2838 0.0
C864 C 0.67063 0.82355 0.23326 0.0
C865 C 0.65071 0.814 0.28832 0.0
C866 C 0.63876 0.79944 0.26566 0.0
C867 C 0.63919 0.78699 0.21575 0.0
C868 C 0.65076 0.78998 0.18855 0.0
C869 C 0.6491 0.80351 0.23817 0.0
C870 C 0.67115 0.8109 0.18359 0.0
C871 C 0.68098 0.82761 0.20578 0.0
H872 H 0.70549 0.1406 0.73253 0.0
H873 H 0.64557 0.17686 0.67399 0.0
H874 H 0.62031 0.19932 0.71309 0.0
H875 H 0.61901 0.21332 0.76297 0.0
H876 H 0.6795 0.17772 0.82134 0.0
H877 H 0.70058 0.14993 0.78325 0.0
C878 C 0.68665 0.15307 0.72838 0.0
C879 C 0.67762 0.15746 0.70044 0.0
C880 C 0.67248 0.16615 0.75088 0.0
C881 C 0.653 0.17333 0.69534 0.0
C882 C 0.63864 0.18626 0.71766 0.0
C883 C 0.63651 0.19911 0.76743 0.0
C884 C 0.64797 0.19785 0.79479 0.0
C885 C 0.64875 0.18355 0.74539 0.0
C886 C 0.67041 0.17915 0.80039 0.0
C887 C 0.68256 0.16338 0.7786 0.0
H888 H 0.82917 0.80741 0.6586 0.0
H889 H 0.76897 0.76277 0.60698 0.0
H890 H 0.79055 0.71774 0.62006 0.0
H891 H 0.82184 0.69083 0.65163 0.0
H892 H 0.88058 0.73544 0.70494 0.0
H893 H 0.86463 0.7805 0.68548 0.0
C894 C 0.82123 0.78787 0.64973 0.0
C895 C 0.7973 0.78837 0.63222 0.0
C896 C 0.83328 0.76194 0.65792 0.0
C897 C 0.78721 0.7629 0.6208 0.0
C898 C 0.79948 0.73711 0.62832 0.0
C899 C 0.83156 0.71038 0.6585 0.0
C900 C 0.85201 0.70985 0.67996 0.0
C901 C 0.8218 0.73631 0.64772 0.0
C902 C 0.86452 0.73533 0.68864 0.0
C903 C 0.85537 0.76114 0.67759 0.0
H904 H 0.68411 0.32724 0.17419 0.0
H905 H 0.72612 0.2709 0.11601 0.0
H906 H 0.77183 0.29076 0.12874 0.0
H907 H 0.80027 0.32005 0.16037 0.0
H908 H 0.75874 0.37441 0.22067 0.0
H909 H 0.71257 0.35983 0.20292 0.0
C910 C 0.70325 0.31972 0.16398 0.0
C911 C 0.70183 0.29749 0.14446 0.0
C912 C 0.72961 0.33076 0.17193 0.0
C913 C 0.72675 0.28784 0.13137 0.0
C914 C 0.75291 0.29916 0.13863 0.0
C915 C 0.78112 0.32912 0.16921 0.0
C916 C 0.78285 0.34805 0.1919 0.0
C917 C 0.75467 0.32002 0.15948 0.0
C918 C 0.75789 0.3596 0.20327 0.0
C919 C 0.73149 0.35122 0.1932 0.0
H920 H 0.19639 0.29957 0.67144 0.0
H921 H 0.12051 0.25225 0.68852 0.0
H922 H 0.14213 0.20976 0.66853 0.0
H923 H 0.18443 0.18494 0.65107 0.0
H924 H 0.26119 0.23189 0.63681 0.0
H925 H 0.23749 0.27554 0.6508 0.0
C926 C 0.18439 0.28011 0.67013 0.0
C927 C 0.15697 0.27895 0.68141 0.0
C928 C 0.19731 0.25555 0.65959 0.0
C929 C 0.14172 0.25357 0.67996 0.0
C930 C 0.15411 0.22924 0.6687 0.0
C931 C 0.19584 0.20478 0.65078 0.0
C932 C 0.22455 0.20515 0.64324 0.0
C933 C 0.1822 0.22978 0.65928 0.0
C934 C 0.23911 0.23101 0.64283 0.0
C935 C 0.22557 0.25601 0.65077 0.0
H936 H 0.18035 0.68233 0.17982 0.0
H937 H 0.22541 0.61582 0.22323 0.0
H938 H 0.26975 0.63113 0.20182 0.0
H939 H 0.29645 0.66665 0.17507 0.0
H940 H 0.25168 0.73474 0.13382 0.0
H941 H 0.20662 0.7155 0.14978 0.0
C942 C 0.1998 0.67089 0.18412 0.0
C943 C 0.19969 0.64816 0.20318 0.0
C944 C 0.22537 0.68028 0.17234 0.0
C945 C 0.22504 0.63356 0.20873 0.0
C946 C 0.25041 0.64232 0.19657 0.0
C947 C 0.27679 0.67698 0.16921 0.0
C948 C 0.27738 0.70217 0.15354 0.0
C949 C 0.25096 0.66617 0.17901 0.0
C950 C 0.25177 0.7154 0.14609 0.0
C951 C 0.22598 0.70444 0.15523 0.0
H952 H 0.81783 0.30516 0.31505 0.0
H953 H 0.86307 0.2562 0.25278 0.0
H954 H 0.84512 0.21252 0.27334 0.0
H955 H 0.8126 0.18852 0.30573 0.0
H956 H 0.76542 0.2375 0.36654 0.0
H957 H 0.78824 0.2807 0.3501 0.0
C958 C 0.82414 0.28489 0.30636 0.0
C959 C 0.84154 0.28389 0.28235 0.0
C960 C 0.81317 0.25982 0.31786 0.0
C961 C 0.84949 0.25751 0.27117 0.0
C962 C 0.83921 0.23251 0.28286 0.0
C963 C 0.80768 0.20859 0.31567 0.0
C964 C 0.78722 0.20986 0.33712 0.0
C965 C 0.82041 0.23344 0.30571 0.0
C966 C 0.78099 0.23601 0.34982 0.0
C967 C 0.79399 0.26075 0.34041 0.0
H968 H 0.22337 0.33989 0.78168 0.0
H969 H 0.16476 0.27591 0.80937 0.0
H970 H 0.2033 0.25047 0.83295 0.0
H971 H 0.25423 0.24443 0.84176 0.0
H972 H 0.3126 0.30865 0.814 0.0
H973 H 0.27343 0.33614 0.79426 0.0
C974 C 0.21897 0.32056 0.7932 0.0
C975 C 0.1914 0.30958 0.79361 0.0
C976 C 0.24118 0.30601 0.80634 0.0
C977 C 0.18585 0.28474 0.80882 0.0
C978 C 0.20789 0.27012 0.8221 0.0
C979 C 0.25832 0.26453 0.83152 0.0
C980 C 0.28623 0.27437 0.82893 0.0
C981 C 0.23573 0.2802 0.82034 0.0
C982 C 0.29128 0.30061 0.81606 0.0
C983 C 0.26892 0.31629 0.80477 0.0
H984 H 0.2109 0.76105 0.3647 0.0
H985 H 0.16425 0.82049 0.31344 0.0
H986 H 0.13732 0.78165 0.29262 0.0
H987 H 0.13096 0.73063 0.28542 0.0
H988 H 0.17787 0.6713 0.33663 0.0
H989 H 0.20061 0.7104 0.36141 0.0
C990 C 0.19457 0.76552 0.34922 0.0
C991 C 0.18978 0.79347 0.34027 0.0
C992 C 0.1794 0.74315 0.33729 0.0
C993 C 0.16834 0.79909 0.32055 0.0
C994 C 0.15306 0.7769 0.30857 0.0
C995 C 0.14586 0.72628 0.3023 0.0
C996 C 0.15305 0.69818 0.30898 0.0
C997 C 0.15899 0.74882 0.31623 0.0
C998 C 0.1721 0.69278 0.33107 0.0
C999 C 0.1852 0.7151 0.34513 0.0
H1000 H 0.76766 0.63589 0.76269 0.0
H1001 H 0.82411 0.6878 0.81167 0.0
H1002 H 0.78413 0.70514 0.83969 0.0
H1003 H 0.73284 0.70882 0.84695 0.0
H1004 H 0.67646 0.65692 0.79782 0.0
H1005 H 0.7169 0.6358 0.77338 0.0
C1006 C 0.77123 0.65082 0.77967 0.0
C1007 C 0.79864 0.66093 0.78491 0.0
C1008 C 0.74823 0.66063 0.79558 0.0
C1009 C 0.80312 0.67988 0.80721 0.0
C1010 C 0.78029 0.68981 0.82315 0.0
C1011 C 0.72944 0.69257 0.83119 0.0
C1012 C 0.70175 0.68463 0.82393 0.0
C1013 C 0.75271 0.68082 0.81706 0.0
C1014 C 0.6976 0.66338 0.80371 0.0
C1015 C 0.72068 0.65145 0.78963 0.0
H1016 H 0.66979 0.8147 0.68262 0.0
H1017 H 0.73576 0.85683 0.72915 0.0
H1018 H 0.71561 0.84039 0.77355 0.0
H1019 H 0.68192 0.81049 0.79894 0.0
H1020 H 0.61748 0.76608 0.75254 0.0
H1021 H 0.63398 0.78729 0.70848 0.0
C1022 C 0.67951 0.82052 0.70251 0.0
C1023 C 0.70432 0.83669 0.70261 0.0
C1024 C 0.6681 0.81056 0.72803 0.0
C1025 C 0.71675 0.84413 0.72851 0.0
C1026 C 0.70524 0.83479 0.75394 0.0
C1027 C 0.67117 0.80592 0.77925 0.0
C1028 C 0.64865 0.78672 0.77891 0.0
C1029 C 0.68129 0.81749 0.75393 0.0
C1030 C 0.63499 0.78076 0.75325 0.0
C1031 C 0.64447 0.79278 0.72805 0.0
H1032 H 0.69293 0.13566 0.26265 0.0
H1033 H 0.65637 0.19616 0.32026 0.0
H1034 H 0.63072 0.21848 0.2812 0.0
H1035 H 0.62399 0.22438 0.22999 0.0
H1036 H 0.66132 0.16406 0.17258 0.0
H1037 H 0.6811 0.13776 0.21236 0.0
C1038 C 0.67897 0.15346 0.2667 0.0
C1039 C 0.67682 0.16458 0.29411 0.0
C1040 C 0.66465 0.16629 0.24418 0.0
C1041 C 0.65839 0.18733 0.29926 0.0
C1042 C 0.64388 0.20017 0.27692 0.0
C1043 C 0.63604 0.2052 0.22624 0.0
C1044 C 0.64159 0.1964 0.19841 0.0
C1045 C 0.64764 0.1904 0.24918 0.0
C1046 C 0.65694 0.17136 0.19381 0.0
C1047 C 0.66835 0.15638 0.21653 0.0
H1048 H 0.34677 0.15576 0.68548 0.0
H1049 H 0.28283 0.10139 0.72089 0.0
H1050 H 0.29913 0.11233 0.76846 0.0
H1051 H 0.32565 0.14386 0.7997 0.0
H1052 H 0.38758 0.20045 0.76418 0.0
H1053 H 0.3784 0.18178 0.71711 0.0
C1054 C 0.33693 0.14575 0.70359 0.0
C1055 C 0.31335 0.12827 0.69979 0.0
C1056 C 0.34582 0.15283 0.73093 0.0
C1057 C 0.30082 0.11529 0.72338 0.0
C1058 C 0.31005 0.12159 0.75059 0.0
C1059 C 0.33764 0.15155 0.78175 0.0
C1060 C 0.35682 0.17382 0.78526 0.0
C1061 C 0.33163 0.14136 0.75463 0.0
C1062 C 0.37237 0.18354 0.76189 0.0
C1063 C 0.36708 0.17296 0.73495 0.0
H1064 H 0.32304 0.81102 0.31121 0.0
H1065 H 0.27437 0.87459 0.26726 0.0
H1066 H 0.29481 0.85966 0.22236 0.0
H1067 H 0.32166 0.82456 0.19505 0.0
H1068 H 0.36831 0.7594 0.23886 0.0
H1069 H 0.3539 0.77912 0.28424 0.0
C1070 C 0.31737 0.82195 0.29187 0.0
C1071 C 0.29703 0.84362 0.29248 0.0
C1072 C 0.32865 0.81278 0.26601 0.0
C1073 C 0.28983 0.85763 0.26728 0.0
C1074 C 0.30145 0.84908 0.24157 0.0
C1075 C 0.32912 0.81506 0.21454 0.0
C1076 C 0.34573 0.79042 0.21365 0.0
C1077 C 0.32015 0.82606 0.24058 0.0
C1078 C 0.35526 0.77827 0.23903 0.0
C1079 C 0.34698 0.78947 0.265 0.0
loop_
_geom_bond_atom_site_label_1
_geom_bond_atom_site_label_2
_geom_bond_distance
_geom_bond_site_symmetry_2
_ccdc_geom_bond_type
In0 O1 2.294 . S
In0 O2 2.326 . S
In0 O6 2.266 . S
In0 O7 2.326 . S
In0 O8 2.266 . S
In0 O9 2.326 . S
In0 O11 2.294 . S
In0 O12 2.326 . S
O1 In0 2.294 . S
O1 C10 1.240 . S
O2 In0 2.326 . S
O2 C10 1.252 . S
C3 O6 1.252 . S
C3 O7 1.260 . S
C4 O11 1.240 . S
C4 O12 1.252 . S
C5 O8 1.252 . S
C5 O9 1.260 . S
O6 In0 2.266 . S
O6 C3 1.252 . S
O7 In0 2.326 . S
O7 C3 1.260 . S
O8 In0 2.266 . S
O8 C5 1.252 . S
O9 In0 2.326 . S
O9 C5 1.260 . S
C10 O1 1.240 . S
C10 O2 1.252 . S
O11 In0 2.294 . S
O11 C4 1.240 . S
O12 In0 2.326 . S
O12 C4 1.252 . S
In13 O14 2.294 . S
In13 O15 2.326 . S
In13 O19 2.266 . S
In13 O20 2.326 . S
In13 O21 2.266 . S
In13 O22 2.326 . S
In13 O24 2.294 . S
In13 O25 2.326 . S
O14 In13 2.294 . S
O14 C23 1.240 . S
O15 In13 2.326 . S
O15 C23 1.252 . S
C16 O19 1.252 . S
C16 O20 1.260 . S
C17 O24 1.240 . S
C17 O25 1.252 . S
C18 O21 1.252 . S
C18 O22 1.260 . S
O19 In13 2.266 . S
O19 C16 1.252 . S
O20 In13 2.326 . S
O20 C16 1.260 . S
O21 In13 2.266 . S
O21 C18 1.252 . S
O22 In13 2.326 . S
O22 C18 1.260 . S
C23 O14 1.240 . S
C23 O15 1.252 . S
O24 In13 2.294 . S
O24 C17 1.240 . S
O25 In13 2.326 . S
O25 C17 1.252 . S
In26 O27 2.294 . S
In26 O28 2.326 . S
In26 O32 2.266 . S
In26 O33 2.326 . S
In26 O34 2.266 . S
In26 O35 2.326 . S
In26 O37 2.294 . S
In26 O38 2.326 . S
O27 In26 2.294 . S
O27 C36 1.240 . S
O28 In26 2.326 . S
O28 C36 1.252 . S
C29 O32 1.252 . S
C29 O33 1.260 . S
C30 O37 1.240 . S
C30 O38 1.252 . S
C31 O34 1.252 . S
C31 O35 1.260 . S
O32 In26 2.266 . S
O32 C29 1.252 . S
O33 In26 2.326 . S
O33 C29 1.260 . S
O34 In26 2.266 . S
O34 C31 1.252 . S
O35 In26 2.326 . S
O35 C31 1.260 . S
C36 O27 1.240 . S
C36 O28 1.252 . S
O37 In26 2.294 . S
O37 C30 1.240 . S
O38 In26 2.326 . S
O38 C30 1.252 . S
In39 O40 2.294 . S
In39 O41 2.326 . S
In39 O45 2.266 . S
In39 O46 2.326 . S
In39 O47 2.266 . S
In39 O48 2.326 . S
In39 O50 2.294 . S
In39 O51 2.326 . S
O40 In39 2.294 . S
O40 C49 1.240 . S
O41 In39 2.326 . S
O41 C49 1.252 . S
C42 O45 1.252 . S
C42 O46 1.260 . S
C43 O50 1.240 . S
C43 O51 1.252 . S
C44 O47 1.252 . S
C44 O48 1.260 . S
O45 In39 2.266 . S
O45 C42 1.252 . S
O46 In39 2.326 . S
O46 C42 1.260 . S
O47 In39 2.266 . S
O47 C44 1.252 . S
O48 In39 2.326 . S
O48 C44 1.260 . S
C49 O40 1.240 . S
C49 O41 1.252 . S
O50 In39 2.294 . S
O50 C43 1.240 . S
O51 In39 2.326 . S
O51 C43 1.252 . S
In52 O53 2.294 . S
In52 O54 2.326 . S
In52 O58 2.266 . S
In52 O59 2.326 . S
In52 O60 2.266 . S
In52 O61 2.326 . S
In52 O63 2.294 . S
In52 O64 2.326 . S
O53 In52 2.294 . S
O53 C62 1.240 . S
O54 In52 2.326 . S
O54 C62 1.252 . S
C55 O58 1.252 . S
C55 O59 1.260 . S
C56 O63 1.240 . S
C56 O64 1.252 . S
C57 O60 1.252 . S
C57 O61 1.260 . S
O58 In52 2.266 . S
O58 C55 1.252 . S
O59 In52 2.326 . S
O59 C55 1.260 . S
O60 In52 2.266 . S
O60 C57 1.252 . S
O61 In52 2.326 . S
O61 C57 1.260 . S
C62 O53 1.240 . S
C62 O54 1.252 . S
O63 In52 2.294 . S
O63 C56 1.240 . S
O64 In52 2.326 . S
O64 C56 1.252 . S
In65 O66 2.294 . S
In65 O67 2.326 . S
In65 O71 2.266 . S
In65 O72 2.326 . S
In65 O73 2.266 . S
In65 O74 2.326 . S
In65 O76 2.294 . S
In65 O77 2.326 . S
O66 In65 2.294 . S
O66 C75 1.240 . S
O67 In65 2.326 . S
O67 C75 1.252 . S
C68 O71 1.252 . S
C68 O72 1.260 . S
C69 O76 1.240 . S
C69 O77 1.252 . S
C70 O73 1.252 . S
C70 O74 1.260 . S
O71 In65 2.266 . S
O71 C68 1.252 . S
O72 In65 2.326 . S
O72 C68 1.260 . S
O73 In65 2.266 . S
O73 C70 1.252 . S
O74 In65 2.326 . S
O74 C70 1.260 . S
C75 O66 1.240 . S
C75 O67 1.252 . S
O76 In65 2.294 . S
O76 C69 1.240 . S
O77 In65 2.326 . S
O77 C69 1.252 . S
In78 O79 2.294 . S
In78 O80 2.326 . S
In78 O84 2.266 . S
In78 O85 2.326 . S
In78 O86 2.266 . S
In78 O87 2.326 . S
In78 O89 2.294 . S
In78 O90 2.326 . S
O79 In78 2.294 . S
O79 C88 1.240 . S
O80 In78 2.326 . S
O80 C88 1.252 . S
C81 O84 1.252 . S
C81 O85 1.260 . S
C82 O89 1.240 . S
C82 O90 1.252 . S
C83 O86 1.252 . S
C83 O87 1.260 . S
O84 In78 2.266 . S
O84 C81 1.252 . S
O85 In78 2.326 . S
O85 C81 1.260 . S
O86 In78 2.266 . S
O86 C83 1.252 . S
O87 In78 2.326 . S
O87 C83 1.260 . S
C88 O79 1.240 . S
C88 O80 1.252 . S
O89 In78 2.294 . S
O89 C82 1.240 . S
O90 In78 2.326 . S
O90 C82 1.252 . S
In91 O92 2.294 . S
In91 O93 2.326 . S
In91 O97 2.266 . S
In91 O98 2.326 . S
In91 O99 2.266 . S
In91 O100 2.326 . S
In91 O102 2.294 . S
In91 O103 2.326 . S
O92 In91 2.294 . S
O92 C101 1.240 . S
O93 In91 2.326 . S
O93 C101 1.252 . S
C94 O97 1.252 . S
C94 O98 1.260 . S
C95 O102 1.240 . S
C95 O103 1.252 . S
C96 O99 1.252 . S
C96 O100 1.260 . S
O97 In91 2.266 . S
O97 C94 1.252 . S
O98 In91 2.326 . S
O98 C94 1.260 . S
O99 In91 2.266 . S
O99 C96 1.252 . S
O100 In91 2.326 . S
O100 C96 1.260 . S
C101 O92 1.240 . S
C101 O93 1.252 . S
O102 In91 2.294 . S
O102 C95 1.240 . S
O103 In91 2.326 . S
O103 C95 1.252 . S
In104 O105 2.294 . S
In104 O106 2.326 . S
In104 O110 2.266 . S
In104 O111 2.326 . S
In104 O112 2.266 . S
In104 O113 2.326 . S
In104 O115 2.294 . S
In104 O116 2.326 . S
O105 In104 2.294 . S
O105 C114 1.240 . S
O106 In104 2.326 . S
O106 C114 1.252 . S
C107 O110 1.252 . S
C107 O111 1.260 . S
C108 O115 1.240 . S
C108 O116 1.252 . S
C109 O112 1.252 . S
C109 O113 1.260 . S
O110 In104 2.266 . S
O110 C107 1.252 . S
O111 In104 2.326 . S
O111 C107 1.260 . S
O112 In104 2.266 . S
O112 C109 1.252 . S
O113 In104 2.326 . S
O113 C109 1.260 . S
C114 O105 1.240 . S
C114 O106 1.252 . S
O115 In104 2.294 . S
O115 C108 1.240 . S
O116 In104 2.326 . S
O116 C108 1.252 . S
In117 O118 2.294 . S
In117 O119 2.326 . S
In117 O123 2.266 . S
In117 O124 2.326 . S
In117 O125 2.266 . S
In117 O126 2.326 . S
In117 O128 2.294 . S
In117 O129 2.326 . S
O118 In117 2.294 . S
O118 C127 1.240 . S
O119 In117 2.326 . S
O119 C127 1.252 . S
C120 O123 1.252 . S
C120 O124 1.260 . S
C121 O128 1.240 . S
C121 O129 1.252 . S
C122 O125 1.252 . S
C122 O126 1.260 . S
O123 In117 2.266 . S
O123 C120 1.252 . S
O124 In117 2.326 . S
O124 C120 1.260 . S
O125 In117 2.266 . S
O125 C122 1.252 . S
O126 In117 2.326 . S
O126 C122 1.260 . S
C127 O118 1.240 . S
C127 O119 1.252 . S
O128 In117 2.294 . S
O128 C121 1.240 . S
O129 In117 2.326 . S
O129 C121 1.252 . S
In130 O131 2.294 . S
In130 O132 2.326 . S
In130 O136 2.266 . S
In130 O137 2.326 . S
In130 O138 2.266 . S
In130 O139 2.326 . S
In130 O141 2.294 . S
In130 O142 2.326 . S
O131 In130 2.294 . S
O131 C140 1.240 . S
O132 In130 2.326 . S
O132 C140 1.252 . S
C133 O136 1.252 . S
C133 O137 1.260 . S
C134 O141 1.240 . S
C134 O142 1.252 . S
C135 O138 1.252 . S
C135 O139 1.260 . S
O136 In130 2.266 . S
O136 C133 1.252 . S
O137 In130 2.326 . S
O137 C133 1.260 . S
O138 In130 2.266 . S
O138 C135 1.252 . S
O139 In130 2.326 . S
O139 C135 1.260 . S
C140 O131 1.240 . S
C140 O132 1.252 . S
O141 In130 2.294 . S
O141 C134 1.240 . S
O142 In130 2.326 . S
O142 C134 1.252 . S
In143 O144 2.294 . S
In143 O145 2.326 . S
In143 O149 2.266 . S
In143 O150 2.326 . S
In143 O151 2.266 . S
In143 O152 2.326 . S
In143 O154 2.294 . S
In143 O155 2.326 . S
O144 In143 2.294 . S
O144 C153 1.240 . S
O145 In143 2.326 . S
O145 C153 1.252 . S
C146 O149 1.252 . S
C146 O150 1.260 . S
C147 O154 1.240 . S
C147 O155 1.252 . S
C148 O151 1.252 . S
C148 O152 1.260 . S
O149 In143 2.266 . S
O149 C146 1.252 . S
O150 In143 2.326 . S
O150 C146 1.260 . S
O151 In143 2.266 . S
O151 C148 1.252 . S
O152 In143 2.326 . S
O152 C148 1.260 . S
C153 O144 1.240 . S
C153 O145 1.252 . S
O154 In143 2.294 . S
O154 C147 1.240 . S
O155 In143 2.326 . S
O155 C147 1.252 . S
In156 O157 2.294 . S
In156 O158 2.326 . S
In156 O162 2.266 . S
In156 O163 2.326 . S
In156 O164 2.266 . S
In156 O165 2.326 . S
In156 O167 2.294 . S
In156 O168 2.326 . S
O157 In156 2.294 . S
O157 C166 1.240 . S
O158 In156 2.326 . S
O158 C166 1.252 . S
C159 O162 1.252 . S
C159 O163 1.260 . S
C160 O167 1.240 . S
C160 O168 1.252 . S
C161 O164 1.252 . S
C161 O165 1.260 . S
O162 In156 2.266 . S
O162 C159 1.252 . S
O163 In156 2.326 . S
O163 C159 1.260 . S
O164 In156 2.266 . S
O164 C161 1.252 . S
O165 In156 2.326 . S
O165 C161 1.260 . S
C166 O157 1.240 . S
C166 O158 1.252 . S
O167 In156 2.294 . S
O167 C160 1.240 . S
O168 In156 2.326 . S
O168 C160 1.252 . S
In169 O170 2.294 . S
In169 O171 2.326 . S
In169 O175 2.266 . S
In169 O176 2.326 . S
In169 O177 2.266 . S
In169 O178 2.326 . S
In169 O180 2.294 . S
In169 O181 2.326 . S
O170 In169 2.294 . S
O170 C179 1.240 . S
O171 In169 2.326 . S
O171 C179 1.252 . S
C172 O175 1.252 . S
C172 O176 1.260 . S
C173 O180 1.240 . S
C173 O181 1.252 . S
C174 O177 1.252 . S
C174 O178 1.260 . S
O175 In169 2.266 . S
O175 C172 1.252 . S
O176 In169 2.326 . S
O176 C172 1.260 . S
O177 In169 2.266 . S
O177 C174 1.252 . S
O178 In169 2.326 . S
O178 C174 1.260 . S
C179 O170 1.240 . S
C179 O171 1.252 . S
O180 In169 2.294 . S
O180 C173 1.240 . S
O181 In169 2.326 . S
O181 C173 1.252 . S
In182 O183 2.294 . S
In182 O184 2.326 . S
In182 O188 2.266 . S
In182 O189 2.326 . S
In182 O190 2.266 . S
In182 O191 2.326 . S
In182 O193 2.294 . S
In182 O194 2.326 . S
O183 In182 2.294 . S
O183 C192 1.240 . S
O184 In182 2.326 . S
O184 C192 1.252 . S
C185 O188 1.252 . S
C185 O189 1.260 . S
C186 O193 1.240 . S
C186 O194 1.252 . S
C187 O190 1.252 . S
C187 O191 1.260 . S
O188 In182 2.266 . S
O188 C185 1.252 . S
O189 In182 2.326 . S
O189 C185 1.260 . S
O190 In182 2.266 . S
O190 C187 1.252 . S
O191 In182 2.326 . S
O191 C187 1.260 . S
C192 O183 1.240 . S
C192 O184 1.252 . S
O193 In182 2.294 . S
O193 C186 1.240 . S
O194 In182 2.326 . S
O194 C186 1.252 . S
In195 O196 2.294 . S
In195 O197 2.326 . S
In195 O201 2.266 . S
In195 O202 2.326 . S
In195 O203 2.266 . S
In195 O204 2.326 . S
In195 O206 2.294 . S
In195 O207 2.326 . S
O196 In195 2.294 . S
O196 C205 1.240 . S
O197 In195 2.326 . S
O197 C205 1.252 . S
C198 O201 1.252 . S
C198 O202 1.260 . S
C199 O206 1.240 . S
C199 O207 1.252 . S
C200 O203 1.252 . S
C200 O204 1.260 . S
O201 In195 2.266 . S
O201 C198 1.252 . S
O202 In195 2.326 . S
O202 C198 1.260 . S
O203 In195 2.266 . S
O203 C200 1.252 . S
O204 In195 2.326 . S
O204 C200 1.260 . S
C205 O196 1.240 . S
C205 O197 1.252 . S
O206 In195 2.294 . S
O206 C199 1.240 . S
O207 In195 2.326 . S
O207 C199 1.252 . S
In208 O209 2.294 . S
In208 O210 2.326 . S
In208 O214 2.266 . S
In208 O215 2.326 . S
In208 O216 2.266 . S
In208 O217 2.326 . S
In208 O219 2.294 . S
In208 O220 2.326 . S
O209 In208 2.294 . S
O209 C218 1.240 . S
O210 In208 2.326 . S
O210 C218 1.252 . S
C211 O214 1.252 . S
C211 O215 1.260 . S
C212 O219 1.240 . S
C212 O220 1.252 . S
C213 O216 1.252 . S
C213 O217 1.260 . S
O214 In208 2.266 . S
O214 C211 1.252 . S
O215 In208 2.326 . S
O215 C211 1.260 . S
O216 In208 2.266 . S
O216 C213 1.252 . S
O217 In208 2.326 . S
O217 C213 1.260 . S
C218 O209 1.240 . S
C218 O210 1.252 . S
O219 In208 2.294 . S
O219 C212 1.240 . S
O220 In208 2.326 . S
O220 C212 1.252 . S
In221 O222 2.294 . S
In221 O223 2.326 . S
In221 O227 2.266 . S
In221 O228 2.326 . S
In221 O229 2.266 . S
In221 O230 2.326 . S
In221 O232 2.294 . S
In221 O233 2.326 . S
O222 In221 2.294 . S
O222 C231 1.240 . S
O223 In221 2.326 . S
O223 C231 1.252 . S
C224 O227 1.252 . S
C224 O228 1.260 . S
C225 O232 1.240 . S
C225 O233 1.252 . S
C226 O229 1.252 . S
C226 O230 1.260 . S
O227 In221 2.266 . S
O227 C224 1.252 . S
O228 In221 2.326 . S
O228 C224 1.260 . S
O229 In221 2.266 . S
O229 C226 1.252 . S
O230 In221 2.326 . S
O230 C226 1.260 . S
C231 O222 1.240 . S
C231 O223 1.252 . S
O232 In221 2.294 . S
O232 C225 1.240 . S
O233 In221 2.326 . S
O233 C225 1.252 . S
In234 O235 2.294 . S
In234 O236 2.326 . S
In234 O240 2.266 . S
In234 O241 2.326 . S
In234 O242 2.266 . S
In234 O243 2.326 . S
In234 O245 2.294 . S
In234 O246 2.326 . S
O235 In234 2.294 . S
O235 C244 1.240 . S
O236 In234 2.326 . S
O236 C244 1.252 . S
C237 O240 1.252 . S
C237 O241 1.260 . S
C238 O245 1.240 . S
C238 O246 1.252 . S
C239 O242 1.252 . S
C239 O243 1.260 . S
O240 In234 2.266 . S
O240 C237 1.252 . S
O241 In234 2.326 . S
O241 C237 1.260 . S
O242 In234 2.266 . S
O242 C239 1.252 . S
O243 In234 2.326 . S
O243 C239 1.260 . S
C244 O235 1.240 . S
C244 O236 1.252 . S
O245 In234 2.294 . S
O245 C238 1.240 . S
O246 In234 2.326 . S
O246 C238 1.252 . S
In247 O248 2.294 . S
In247 O249 2.326 . S
In247 O253 2.266 . S
In247 O254 2.326 . S
In247 O255 2.266 . S
In247 O256 2.326 . S
In247 O258 2.294 . S
In247 O259 2.326 . S
O248 In247 2.294 . S
O248 C257 1.240 . S
O249 In247 2.326 . S
O249 C257 1.252 . S
C250 O253 1.252 . S
C250 O254 1.260 . S
C251 O258 1.240 . S
C251 O259 1.252 . S
C252 O255 1.252 . S
C252 O256 1.260 . S
O253 In247 2.266 . S
O253 C250 1.252 . S
O254 In247 2.326 . S
O254 C250 1.260 . S
O255 In247 2.266 . S
O255 C252 1.252 . S
O256 In247 2.326 . S
O256 C252 1.260 . S
C257 O248 1.240 . S
C257 O249 1.252 . S
O258 In247 2.294 . S
O258 C251 1.240 . S
O259 In247 2.326 . S
O259 C251 1.252 . S
In260 O261 2.294 . S
In260 O262 2.326 . S
In260 O266 2.266 . S
In260 O267 2.326 . S
In260 O268 2.266 . S
In260 O269 2.326 . S
In260 O271 2.294 . S
In260 O272 2.326 . S
O261 In260 2.294 . S
O261 C270 1.240 . S
O262 In260 2.326 . S
O262 C270 1.252 . S
C263 O266 1.252 . S
C263 O267 1.260 . S
C264 O271 1.240 . S
C264 O272 1.252 . S
C265 O268 1.252 . S
C265 O269 1.260 . S
O266 In260 2.266 . S
O266 C263 1.252 . S
O267 In260 2.326 . S
O267 C263 1.260 . S
O268 In260 2.266 . S
O268 C265 1.252 . S
O269 In260 2.326 . S
O269 C265 1.260 . S
C270 O261 1.240 . S
C270 O262 1.252 . S
O271 In260 2.294 . S
O271 C264 1.240 . S
O272 In260 2.326 . S
O272 C264 1.252 . S
In273 O274 2.294 . S
In273 O275 2.326 . S
In273 O279 2.266 . S
In273 O280 2.326 . S
In273 O281 2.266 . S
In273 O282 2.326 . S
In273 O284 2.294 . S
In273 O285 2.326 . S
O274 In273 2.294 . S
O274 C283 1.240 . S
O275 In273 2.326 . S
O275 C283 1.252 . S
C276 O279 1.252 . S
C276 O280 1.260 . S
C277 O284 1.240 . S
C277 O285 1.252 . S
C278 O281 1.252 . S
C278 O282 1.260 . S
O279 In273 2.266 . S
O279 C276 1.252 . S
O280 In273 2.326 . S
O280 C276 1.260 . S
O281 In273 2.266 . S
O281 C278 1.252 . S
O282 In273 2.326 . S
O282 C278 1.260 . S
C283 O274 1.240 . S
C283 O275 1.252 . S
O284 In273 2.294 . S
O284 C277 1.240 . S
O285 In273 2.326 . S
O285 C277 1.252 . S
In286 O287 2.294 . S
In286 O288 2.326 . S
In286 O292 2.266 . S
In286 O293 2.326 . S
In286 O294 2.266 . S
In286 O295 2.326 . S
In286 O297 2.294 . S
In286 O298 2.326 . S
O287 In286 2.294 . S
O287 C296 1.240 . S
O288 In286 2.326 . S
O288 C296 1.252 . S
C289 O292 1.252 . S
C289 O293 1.260 . S
C290 O297 1.240 . S
C290 O298 1.252 . S
C291 O294 1.252 . S
C291 O295 1.260 . S
O292 In286 2.266 . S
O292 C289 1.252 . S
O293 In286 2.326 . S
O293 C289 1.260 . S
O294 In286 2.266 . S
O294 C291 1.252 . S
O295 In286 2.326 . S
O295 C291 1.260 . S
C296 O287 1.240 . S
C296 O288 1.252 . S
O297 In286 2.294 . S
O297 C290 1.240 . S
O298 In286 2.326 . S
O298 C290 1.252 . S
In299 O300 2.294 . S
In299 O301 2.326 . S
In299 O305 2.266 . S
In299 O306 2.326 . S
In299 O307 2.266 . S
In299 O308 2.326 . S
In299 O310 2.294 . S
In299 O311 2.326 . S
O300 In299 2.294 . S
O300 C309 1.240 . S
O301 In299 2.326 . S
O301 C309 1.252 . S
C302 O305 1.252 . S
C302 O306 1.260 . S
C303 O310 1.240 . S
C303 O311 1.252 . S
C304 O307 1.252 . S
C304 O308 1.260 . S
O305 In299 2.266 . S
O305 C302 1.252 . S
O306 In299 2.326 . S
O306 C302 1.260 . S
O307 In299 2.266 . S
O307 C304 1.252 . S
O308 In299 2.326 . S
O308 C304 1.260 . S
C309 O300 1.240 . S
C309 O301 1.252 . S
O310 In299 2.294 . S
O310 C303 1.240 . S
O311 In299 2.326 . S
O311 C303 1.252 . S
H312 C318 0.930 . S
H313 C321 0.930 . S
H314 C322 0.930 . S
H315 C323 0.930 . S
H316 C326 0.930 . S
H317 C327 0.930 . S
C318 H312 0.930 . S
C318 C319 1.355 . S
C318 C320 1.415 . S
C319 C318 1.355 . S
C319 C321 1.419 . S
C320 C318 1.415 . S
C320 C325 1.425 . S
C320 C327 1.409 . S
C321 H313 0.930 . S
C321 C319 1.419 . S
C321 C322 1.362 . S
C322 H314 0.930 . S
C322 C321 1.362 . S
C322 C325 1.409 . S
C323 H315 0.930 . S
C323 C324 1.355 . S
C323 C325 1.415 . S
C324 C323 1.355 . S
C324 C326 1.419 . S
C325 C320 1.425 . S
C325 C322 1.409 . S
C325 C323 1.415 . S
C326 H316 0.930 . S
C326 C324 1.419 . S
C326 C327 1.362 . S
C327 H317 0.930 . S
C327 C320 1.409 . S
C327 C326 1.362 . S
H328 C334 0.930 . S
H329 C337 0.930 . S
H330 C338 0.930 . S
H331 C339 0.930 . S
H332 C342 0.930 . S
H333 C343 0.930 . S
C334 H328 0.930 . S
C334 C335 1.355 . S
C334 C336 1.415 . S
C335 C334 1.355 . S
C335 C337 1.419 . S
C336 C334 1.415 . S
C336 C341 1.425 1_655 S
C336 C343 1.409 1_655 S
C337 H329 0.930 . S
C337 C335 1.419 . S
C337 C338 1.362 . S
C338 H330 0.930 . S
C338 C337 1.362 . S
C338 C341 1.409 1_655 S
C339 H331 0.930 . S
C339 C340 1.355 . S
C339 C341 1.415 . S
C340 C339 1.355 . S
C340 C342 1.419 . S
C341 C336 1.425 1_455 S
C341 C338 1.409 1_455 S
C341 C339 1.415 . S
C342 H332 0.930 . S
C342 C340 1.419 . S
C342 C343 1.362 . S
C343 H333 0.930 . S
C343 C336 1.409 1_455 S
C343 C342 1.362 . S
H344 C350 0.930 . S
H345 C353 0.930 . S
H346 C354 0.930 . S
H347 C355 0.930 . S
H348 C358 0.930 . S
H349 C359 0.930 . S
C350 H344 0.930 . S
C350 C351 1.355 . S
C350 C352 1.415 . S
C351 C350 1.355 . S
C351 C353 1.419 . S
C352 C350 1.415 . S
C352 C357 1.425 . S
C352 C359 1.409 . S
C353 H345 0.930 . S
C353 C351 1.419 . S
C353 C354 1.362 . S
C354 H346 0.930 . S
C354 C353 1.362 . S
C354 C357 1.409 . S
C355 H347 0.930 . S
C355 C356 1.355 . S
C355 C357 1.415 . S
C356 C355 1.355 . S
C356 C358 1.419 . S
C357 C352 1.425 . S
C357 C354 1.409 . S
C357 C355 1.415 . S
C358 H348 0.930 . S
C358 C356 1.419 . S
C358 C359 1.362 . S
C359 H349 0.930 . S
C359 C352 1.409 . S
C359 C358 1.362 . S
H360 C366 0.930 . S
H361 C369 0.930 . S
H362 C370 0.930 . S
H363 C371 0.930 . S
H364 C374 0.930 . S
H365 C375 0.930 . S
C366 H360 0.930 . S
C366 C367 1.355 . S
C366 C368 1.415 . S
C367 C366 1.355 . S
C367 C369 1.419 . S
C368 C366 1.415 . S
C368 C373 1.425 1_455 S
C368 C375 1.409 1_455 S
C369 H361 0.930 . S
C369 C367 1.419 . S
C369 C370 1.362 . S
C370 H362 0.930 . S
C370 C369 1.362 . S
C370 C373 1.409 1_455 S
C371 H363 0.930 . S
C371 C372 1.355 . S
C371 C373 1.415 . S
C372 C371 1.355 . S
C372 C374 1.419 . S
C373 C368 1.425 1_655 S
C373 C370 1.409 1_655 S
C373 C371 1.415 . S
C374 H364 0.930 . S
C374 C372 1.419 . S
C374 C375 1.362 . S
C375 H365 0.930 . S
C375 C368 1.409 1_655 S
C375 C374 1.362 . S
H376 C382 0.930 . S
H377 C385 0.930 . S
H378 C386 0.930 . S
H379 C387 0.930 . S
H380 C390 0.930 . S
H381 C391 0.930 . S
C382 H376 0.930 . S
C382 C383 1.355 . S
C382 C384 1.415 . S
C383 C382 1.355 . S
C383 C385 1.419 . S
C384 C382 1.415 . S
C384 C389 1.425 . S
C384 C391 1.409 . S
C385 H377 0.930 . S
C385 C383 1.419 . S
C385 C386 1.362 . S
C386 H378 0.930 . S
C386 C385 1.362 . S
C386 C389 1.409 . S
C387 H379 0.930 . S
C387 C388 1.355 . S
C387 C389 1.415 . S
C388 C387 1.355 . S
C388 C390 1.419 . S
C389 C384 1.425 . S
C389 C386 1.409 . S
C389 C387 1.415 . S
C390 H380 0.930 . S
C390 C388 1.419 . S
C390 C391 1.362 . S
C391 H381 0.930 . S
C391 C384 1.409 . S
C391 C390 1.362 . S
H392 C398 0.930 . S
H393 C401 0.930 . S
H394 C402 0.930 . S
H395 C403 0.930 . S
H396 C406 0.930 . S
H397 C407 0.930 . S
C398 H392 0.930 . S
C398 C399 1.355 . S
C398 C400 1.415 . S
C399 C398 1.355 . S
C399 C401 1.419 . S
C400 C398 1.415 . S
C400 C405 1.425 1_655 S
C400 C407 1.409 1_655 S
C401 H393 0.930 . S
C401 C399 1.419 . S
C401 C402 1.362 . S
C402 H394 0.930 . S
C402 C401 1.362 . S
C402 C405 1.409 1_655 S
C403 H395 0.930 . S
C403 C404 1.355 . S
C403 C405 1.415 . S
C404 C403 1.355 . S
C404 C406 1.419 . S
C405 C400 1.425 1_455 S
C405 C402 1.409 1_455 S
C405 C403 1.415 . S
C406 H396 0.930 . S
C406 C404 1.419 . S
C406 C407 1.362 . S
C407 H397 0.930 . S
C407 C400 1.409 1_455 S
C407 C406 1.362 . S
H408 C414 0.930 . S
H409 C417 0.930 . S
H410 C418 0.930 . S
H411 C419 0.930 . S
H412 C422 0.930 . S
H413 C423 0.930 . S
C414 H408 0.930 . S
C414 C415 1.355 . S
C414 C416 1.415 . S
C415 C414 1.355 . S
C415 C417 1.419 . S
C416 C414 1.415 . S
C416 C421 1.425 . S
C416 C423 1.409 . S
C417 H409 0.930 . S
C417 C415 1.419 . S
C417 C418 1.362 . S
C418 H410 0.930 . S
C418 C417 1.362 . S
C418 C421 1.409 . S
C419 H411 0.930 . S
C419 C420 1.355 . S
C419 C421 1.415 . S
C420 C419 1.355 . S
C420 C422 1.419 . S
C421 C416 1.425 . S
C421 C418 1.409 . S
C421 C419 1.415 . S
C422 H412 0.930 . S
C422 C420 1.419 . S
C422 C423 1.362 . S
C423 H413 0.930 . S
C423 C416 1.409 . S
C423 C422 1.362 . S
H424 C430 0.930 . S
H425 C433 0.930 . S
H426 C434 0.930 . S
H427 C435 0.930 . S
H428 C438 0.930 . S
H429 C439 0.930 . S
C430 H424 0.930 . S
C430 C431 1.355 . S
C430 C432 1.415 . S
C431 C430 1.355 . S
C431 C433 1.419 . S
C432 C430 1.415 . S
C432 C437 1.425 1_655 S
C432 C439 1.409 1_655 S
C433 H425 0.930 . S
C433 C431 1.419 . S
C433 C434 1.362 . S
C434 H426 0.930 . S
C434 C433 1.362 . S
C434 C437 1.409 1_655 S
C435 H427 0.930 . S
C435 C436 1.355 . S
C435 C437 1.415 . S
C436 C435 1.355 . S
C436 C438 1.419 . S
C437 C432 1.425 1_455 S
C437 C434 1.409 1_455 S
C437 C435 1.415 . S
C438 H428 0.930 . S
C438 C436 1.419 . S
C438 C439 1.362 . S
C439 H429 0.930 . S
C439 C432 1.409 1_455 S
C439 C438 1.362 . S
H440 C446 0.930 . S
H441 C449 0.930 . S
H442 C450 0.930 . S
H443 C451 0.930 . S
H444 C454 0.930 . S
H445 C455 0.930 . S
C446 H440 0.930 . S
C446 C447 1.355 . S
C446 C448 1.415 . S
C447 C446 1.355 . S
C447 C449 1.419 . S
C448 C446 1.415 . S
C448 C453 1.425 . S
C448 C455 1.409 . S
C449 H441 0.930 . S
C449 C447 1.419 . S
C449 C450 1.362 . S
C450 H442 0.930 . S
C450 C449 1.362 . S
C450 C453 1.409 . S
C451 H443 0.930 . S
C451 C452 1.355 . S
C451 C453 1.415 . S
C452 C451 1.355 . S
C452 C454 1.419 . S
C453 C448 1.425 . S
C453 C450 1.409 . S
C453 C451 1.415 . S
C454 H444 0.930 . S
C454 C452 1.419 . S
C454 C455 1.362 . S
C455 H445 0.930 . S
C455 C448 1.409 . S
C455 C454 1.362 . S
H456 C462 0.930 . S
H457 C465 0.930 . S
H458 C466 0.930 . S
H459 C467 0.930 . S
H460 C470 0.930 . S
H461 C471 0.930 . S
C462 H456 0.930 . S
C462 C463 1.355 . S
C462 C464 1.415 . S
C463 C462 1.355 . S
C463 C465 1.419 . S
C464 C462 1.415 . S
C464 C469 1.425 1_556 S
C464 C471 1.409 1_556 S
C465 H457 0.930 . S
C465 C463 1.419 . S
C465 C466 1.362 . S
C466 H458 0.930 . S
C466 C465 1.362 . S
C466 C469 1.409 1_556 S
C467 H459 0.930 . S
C467 C468 1.355 . S
C467 C469 1.415 . S
C468 C467 1.355 . S
C468 C470 1.419 . S
C469 C464 1.425 1_554 S
C469 C466 1.409 1_554 S
C469 C467 1.415 . S
C470 H460 0.930 . S
C470 C468 1.419 . S
C470 C471 1.362 . S
C471 H461 0.930 . S
C471 C464 1.409 1_554 S
C471 C470 1.362 . S
H472 C478 0.930 . S
H473 C481 0.930 . S
H474 C482 0.930 . S
H475 C483 0.930 . S
H476 C486 0.930 . S
H477 C487 0.930 . S
C478 H472 0.930 . S
C478 C479 1.355 . S
C478 C480 1.415 . S
C479 C478 1.355 . S
C479 C481 1.419 . S
C480 C478 1.415 . S
C480 C485 1.425 . S
C480 C487 1.409 . S
C481 H473 0.930 . S
C481 C479 1.419 . S
C481 C482 1.362 . S
C482 H474 0.930 . S
C482 C481 1.362 . S
C482 C485 1.409 . S
C483 H475 0.930 . S
C483 C484 1.355 . S
C483 C485 1.415 . S
C484 C483 1.355 . S
C484 C486 1.419 . S
C485 C480 1.425 . S
C485 C482 1.409 . S
C485 C483 1.415 . S
C486 H476 0.930 . S
C486 C484 1.419 . S
C486 C487 1.362 . S
C487 H477 0.930 . S
C487 C480 1.409 . S
C487 C486 1.362 . S
H488 C494 0.930 . S
H489 C497 0.930 . S
H490 C498 0.930 . S
H491 C499 0.930 . S
H492 C502 0.930 . S
H493 C503 0.930 . S
C494 H488 0.930 . S
C494 C495 1.355 . S
C494 C496 1.415 . S
C495 C494 1.355 . S
C495 C497 1.419 . S
C496 C494 1.415 . S
C496 C501 1.425 1_554 S
C496 C503 1.409 1_554 S
C497 H489 0.930 . S
C497 C495 1.419 . S
C497 C498 1.362 . S
C498 H490 0.930 . S
C498 C497 1.362 . S
C498 C501 1.409 1_554 S
C499 H491 0.930 . S
C499 C500 1.355 . S
C499 C501 1.415 . S
C500 C499 1.355 . S
C500 C502 1.419 . S
C501 C496 1.425 1_556 S
C501 C498 1.409 1_556 S
C501 C499 1.415 . S
C502 H492 0.930 . S
C502 C500 1.419 . S
C502 C503 1.362 . S
C503 H493 0.930 . S
C503 C496 1.409 1_556 S
C503 C502 1.362 . S
H504 C510 0.930 . S
H505 C513 0.930 . S
H506 C514 0.930 . S
H507 C515 0.930 . S
H508 C518 0.930 . S
H509 C519 0.930 . S
C510 H504 0.930 . S
C510 C511 1.355 . S
C510 C512 1.415 . S
C511 C510 1.355 . S
C511 C513 1.419 . S
C512 C510 1.415 . S
C512 C517 1.425 . S
C512 C519 1.409 . S
C513 H505 0.930 . S
C513 C511 1.419 . S
C513 C514 1.362 . S
C514 H506 0.930 . S
C514 C513 1.362 . S
C514 C517 1.409 . S
C515 H507 0.930 . S
C515 C516 1.355 . S
C515 C517 1.415 . S
C516 C515 1.355 . S
C516 C518 1.419 . S
C517 C512 1.425 . S
C517 C514 1.409 . S
C517 C515 1.415 . S
C518 H508 0.930 . S
C518 C516 1.419 . S
C518 C519 1.362 . S
C519 H509 0.930 . S
C519 C512 1.409 . S
C519 C518 1.362 . S
H520 C526 0.930 . S
H521 C529 0.930 . S
H522 C530 0.930 . S
H523 C531 0.930 . S
H524 C534 0.930 . S
H525 C535 0.930 . S
C526 H520 0.930 . S
C526 C527 1.355 . S
C526 C528 1.415 . S
C527 C526 1.355 . S
C527 C529 1.419 . S
C528 C526 1.415 . S
C528 C533 1.425 1_554 S
C528 C535 1.409 1_554 S
C529 H521 0.930 . S
C529 C527 1.419 . S
C529 C530 1.362 . S
C530 H522 0.930 . S
C530 C529 1.362 . S
C530 C533 1.409 1_554 S
C531 H523 0.930 . S
C531 C532 1.355 . S
C531 C533 1.415 . S
C532 C531 1.355 . S
C532 C534 1.419 . S
C533 C528 1.425 1_556 S
C533 C530 1.409 1_556 S
C533 C531 1.415 . S
C534 H524 0.930 . S
C534 C532 1.419 . S
C534 C535 1.362 . S
C535 H525 0.930 . S
C535 C528 1.409 1_556 S
C535 C534 1.362 . S
H536 C542 0.930 . S
H537 C545 0.930 . S
H538 C546 0.930 . S
H539 C547 0.930 . S
H540 C550 0.930 . S
H541 C551 0.930 . S
C542 H536 0.930 . S
C542 C543 1.355 . S
C542 C544 1.415 . S
C543 C542 1.355 . S
C543 C545 1.419 . S
C544 C542 1.415 . S
C544 C549 1.425 . S
C544 C551 1.409 . S
C545 H537 0.930 . S
C545 C543 1.419 . S
C545 C546 1.362 . S
C546 H538 0.930 . S
C546 C545 1.362 . S
C546 C549 1.409 . S
C547 H539 0.930 . S
C547 C548 1.355 . S
C547 C549 1.415 . S
C548 C547 1.355 . S
C548 C550 1.419 . S
C549 C544 1.425 . S
C549 C546 1.409 . S
C549 C547 1.415 . S
C550 H540 0.930 . S
C550 C548 1.419 . S
C550 C551 1.362 . S
C551 H541 0.930 . S
C551 C544 1.409 . S
C551 C550 1.362 . S
H552 C558 0.930 . S
H553 C561 0.930 . S
H554 C562 0.930 . S
H555 C563 0.930 . S
H556 C566 0.930 . S
H557 C567 0.930 . S
C558 H552 0.930 . S
C558 C559 1.355 . S
C558 C560 1.415 . S
C559 C558 1.355 . S
C559 C561 1.419 . S
C560 C558 1.415 . S
C560 C565 1.425 1_554 S
C560 C567 1.409 1_554 S
C561 H553 0.930 . S
C561 C559 1.419 . S
C561 C562 1.362 . S
C562 H554 0.930 . S
C562 C561 1.362 . S
C562 C565 1.409 1_554 S
C563 H555 0.930 . S
C563 C564 1.355 . S
C563 C565 1.415 . S
C564 C563 1.355 . S
C564 C566 1.419 . S
C565 C560 1.425 1_556 S
C565 C562 1.409 1_556 S
C565 C563 1.415 . S
C566 H556 0.930 . S
C566 C564 1.419 . S
C566 C567 1.362 . S
C567 H557 0.930 . S
C567 C560 1.409 1_556 S
C567 C566 1.362 . S
H568 C574 0.930 . S
H569 C577 0.930 . S
H570 C578 0.930 . S
H571 C579 0.930 . S
H572 C582 0.930 . S
H573 C583 0.930 . S
C574 H568 0.930 . S
C574 C575 1.355 . S
C574 C576 1.415 . S
C575 C574 1.355 . S
C575 C577 1.419 . S
C576 C574 1.415 . S
C576 C581 1.425 . S
C576 C583 1.409 . S
C577 H569 0.930 . S
C577 C575 1.419 . S
C577 C578 1.362 . S
C578 H570 0.930 . S
C578 C577 1.362 . S
C578 C581 1.409 . S
C579 H571 0.930 . S
C579 C580 1.355 . S
C579 C581 1.415 . S
C580 C579 1.355 . S
C580 C582 1.419 . S
C581 C576 1.425 . S
C581 C578 1.409 . S
C581 C579 1.415 . S
C582 H572 0.930 . S
C582 C580 1.419 . S
C582 C583 1.362 . S
C583 H573 0.930 . S
C583 C576 1.409 . S
C583 C582 1.362 . S
H584 C590 0.930 . S
H585 C593 0.930 . S
H586 C594 0.930 . S
H587 C595 0.930 . S
H588 C598 0.930 . S
H589 C599 0.930 . S
C590 H584 0.930 . S
C590 C591 1.355 . S
C590 C592 1.415 . S
C591 C590 1.355 . S
C591 C593 1.419 . S
C592 C590 1.415 . S
C592 C597 1.425 . S
C592 C599 1.409 . S
C593 H585 0.930 . S
C593 C591 1.419 . S
C593 C594 1.362 . S
C594 H586 0.930 . S
C594 C593 1.362 . S
C594 C597 1.409 . S
C595 H587 0.930 . S
C595 C596 1.355 . S
C595 C597 1.415 . S
C596 C595 1.355 . S
C596 C598 1.419 . S
C597 C592 1.425 . S
C597 C594 1.409 . S
C597 C595 1.415 . S
C598 H588 0.930 . S
C598 C596 1.419 . S
C598 C599 1.362 . S
C599 H589 0.930 . S
C599 C592 1.409 . S
C599 C598 1.362 . S
H600 C606 0.930 . S
H601 C609 0.930 . S
H602 C610 0.930 . S
H603 C611 0.930 . S
H604 C614 0.930 . S
H605 C615 0.930 . S
C606 H600 0.930 . S
C606 C607 1.355 . S
C606 C608 1.415 . S
C607 C606 1.355 . S
C607 C609 1.419 . S
C608 C606 1.415 . S
C608 C613 1.425 1_565 S
C608 C615 1.409 1_565 S
C609 H601 0.930 . S
C609 C607 1.419 . S
C609 C610 1.362 . S
C610 H602 0.930 . S
C610 C609 1.362 . S
C610 C613 1.409 1_565 S
C611 H603 0.930 . S
C611 C612 1.355 . S
C611 C613 1.415 . S
C612 C611 1.355 . S
C612 C614 1.419 . S
C613 C608 1.425 1_545 S
C613 C610 1.409 1_545 S
C613 C611 1.415 . S
C614 H604 0.930 . S
C614 C612 1.419 . S
C614 C615 1.362 . S
C615 H605 0.930 . S
C615 C608 1.409 1_545 S
C615 C614 1.362 . S
H616 C622 0.930 . S
H617 C625 0.930 . S
H618 C626 0.930 . S
H619 C627 0.930 . S
H620 C630 0.930 . S
H621 C631 0.930 . S
C622 H616 0.930 . S
C622 C623 1.355 . S
C622 C624 1.415 . S
C623 C622 1.355 . S
C623 C625 1.419 . S
C624 C622 1.415 . S
C624 C629 1.425 . S
C624 C631 1.409 . S
C625 H617 0.930 . S
C625 C623 1.419 . S
C625 C626 1.362 . S
C626 H618 0.930 . S
C626 C625 1.362 . S
C626 C629 1.409 . S
C627 H619 0.930 . S
C627 C628 1.355 . S
C627 C629 1.415 . S
C628 C627 1.355 . S
C628 C630 1.419 . S
C629 C624 1.425 . S
C629 C626 1.409 . S
C629 C627 1.415 . S
C630 H620 0.930 . S
C630 C628 1.419 . S
C630 C631 1.362 . S
C631 H621 0.930 . S
C631 C624 1.409 . S
C631 C630 1.362 . S
H632 C638 0.930 . S
H633 C641 0.930 . S
H634 C642 0.930 . S
H635 C643 0.930 . S
H636 C646 0.930 . S
H637 C647 0.930 . S
C638 H632 0.930 . S
C638 C639 1.355 . S
C638 C640 1.415 . S
C639 C638 1.355 . S
C639 C641 1.419 . S
C640 C638 1.415 . S
C640 C645 1.425 1_565 S
C640 C647 1.409 1_565 S
C641 H633 0.930 . S
C641 C639 1.419 . S
C641 C642 1.362 . S
C642 H634 0.930 . S
C642 C641 1.362 . S
C642 C645 1.409 1_565 S
C643 H635 0.930 . S
C643 C644 1.355 . S
C643 C645 1.415 . S
C644 C643 1.355 . S
C644 C646 1.419 . S
C645 C640 1.425 1_545 S
C645 C642 1.409 1_545 S
C645 C643 1.415 . S
C646 H636 0.930 . S
C646 C644 1.419 . S
C646 C647 1.362 . S
C647 H637 0.930 . S
C647 C640 1.409 1_545 S
C647 C646 1.362 . S
H648 C654 0.930 . S
H649 C657 0.930 . S
H650 C658 0.930 . S
H651 C659 0.930 . S
H652 C662 0.930 . S
H653 C663 0.930 . S
C654 H648 0.930 . S
C654 C655 1.355 . S
C654 C656 1.415 . S
C655 C654 1.355 . S
C655 C657 1.419 . S
C656 C654 1.415 . S
C656 C661 1.425 . S
C656 C663 1.409 . S
C657 H649 0.930 . S
C657 C655 1.419 . S
C657 C658 1.362 . S
C658 H650 0.930 . S
C658 C657 1.362 . S
C658 C661 1.409 . S
C659 H651 0.930 . S
C659 C660 1.355 . S
C659 C661 1.415 . S
C660 C659 1.355 . S
C660 C662 1.419 . S
C661 C656 1.425 . S
C661 C658 1.409 . S
C661 C659 1.415 . S
C662 H652 0.930 . S
C662 C660 1.419 . S
C662 C663 1.362 . S
C663 H653 0.930 . S
C663 C656 1.409 . S
C663 C662 1.362 . S
H664 C670 0.930 . S
H665 C673 0.930 . S
H666 C674 0.930 . S
H667 C675 0.930 . S
H668 C678 0.930 . S
H669 C679 0.930 . S
C670 H664 0.930 . S
C670 C671 1.355 . S
C670 C672 1.415 . S
C671 C670 1.355 . S
C671 C673 1.419 . S
C672 C670 1.415 . S
C672 C677 1.425 1_565 S
C672 C679 1.409 1_565 S
C673 H665 0.930 . S
C673 C671 1.419 . S
C673 C674 1.362 . S
C674 H666 0.930 . S
C674 C673 1.362 . S
C674 C677 1.409 1_565 S
C675 H667 0.930 . S
C675 C676 1.355 . S
C675 C677 1.415 . S
C676 C675 1.355 . S
C676 C678 1.419 . S
C677 C672 1.425 1_545 S
C677 C674 1.409 1_545 S
C677 C675 1.415 . S
C678 H668 0.930 . S
C678 C676 1.419 . S
C678 C679 1.362 . S
C679 H669 0.930 . S
C679 C672 1.409 1_545 S
C679 C678 1.362 . S
H680 C686 0.930 . S
H681 C689 0.930 . S
H682 C690 0.930 . S
H683 C691 0.930 . S
H684 C694 0.930 . S
H685 C695 0.930 . S
C686 H680 0.930 . S
C686 C687 1.355 . S
C686 C688 1.415 . S
C687 C686 1.355 . S
C687 C689 1.419 . S
C688 C686 1.415 . S
C688 C693 1.425 1_545 S
C688 C695 1.409 1_545 S
C689 H681 0.930 . S
C689 C687 1.419 . S
C689 C690 1.362 . S
C690 H682 0.930 . S
C690 C689 1.362 . S
C690 C693 1.409 1_545 S
C691 H683 0.930 . S
C691 C692 1.355 . S
C691 C693 1.415 . S
C692 C691 1.355 . S
C692 C694 1.419 . S
C693 C688 1.425 1_565 S
C693 C690 1.409 1_565 S
C693 C691 1.415 . S
C694 H684 0.930 . S
C694 C692 1.419 . S
C694 C695 1.362 . S
C695 H685 0.930 . S
C695 C688 1.409 1_565 S
C695 C694 1.362 . S
H696 C702 0.930 . S
H697 C705 0.930 . S
H698 C706 0.930 . S
H699 C707 0.930 . S
H700 C710 0.930 . S
H701 C711 0.930 . S
C702 H696 0.930 . S
C702 C703 1.355 . S
C702 C704 1.415 . S
C703 C702 1.355 . S
C703 C705 1.419 . S
C704 C702 1.415 . S
C704 C709 1.425 . S
C704 C711 1.409 . S
C705 H697 0.930 . S
C705 C703 1.419 . S
C705 C706 1.362 . S
C706 H698 0.930 . S
C706 C705 1.362 . S
C706 C709 1.409 . S
C707 H699 0.930 . S
C707 C708 1.355 . S
C707 C709 1.415 . S
C708 C707 1.355 . S
C708 C710 1.419 . S
C709 C704 1.425 . S
C709 C706 1.409 . S
C709 C707 1.415 . S
C710 H700 0.930 . S
C710 C708 1.419 . S
C710 C711 1.362 . S
C711 H701 0.930 . S
C711 C704 1.409 . S
C711 C710 1.362 . S
H712 C718 0.930 . S
H713 C721 0.930 . S
H714 C722 0.930 . S
H715 C723 0.930 . S
H716 C726 0.930 . S
H717 C727 0.930 . S
C718 H712 0.930 . S
C718 C719 1.355 . S
C718 C720 1.415 . S
C719 C718 1.355 . S
C719 C721 1.419 . S
C720 C718 1.415 . S
C720 C725 1.425 . S
C720 C727 1.409 . S
C721 H713 0.930 . S
C721 C719 1.419 . S
C721 C722 1.362 . S
C722 H714 0.930 . S
C722 C721 1.362 . S
C722 C725 1.409 . S
C723 H715 0.930 . S
C723 C724 1.355 . S
C723 C725 1.415 . S
C724 C723 1.355 . S
C724 C726 1.419 . S
C725 C720 1.425 . S
C725 C722 1.409 . S
C725 C723 1.415 . S
C726 H716 0.930 . S
C726 C724 1.419 . S
C726 C727 1.362 . S
C727 H717 0.930 . S
C727 C720 1.409 . S
C727 C726 1.362 . S
H728 C734 0.930 . S
H729 C737 0.930 . S
H730 C738 0.930 . S
H731 C739 0.930 . S
H732 C742 0.930 . S
H733 C743 0.930 . S
C734 H728 0.930 . S
C734 C735 1.355 . S
C734 C736 1.415 . S
C735 C734 1.355 . S
C735 C737 1.419 . S
C736 C734 1.415 . S
C736 C741 1.425 . S
C736 C743 1.409 . S
C737 H729 0.930 . S
C737 C735 1.419 . S
C737 C738 1.362 . S
C738 H730 0.930 . S
C738 C737 1.362 . S
C738 C741 1.409 . S
C739 H731 0.930 . S
C739 C740 1.355 . S
C739 C741 1.415 . S
C740 C739 1.355 . S
C740 C742 1.419 . S
C741 C736 1.425 . S
C741 C738 1.409 . S
C741 C739 1.415 . S
C742 H732 0.930 . S
C742 C740 1.419 . S
C742 C743 1.362 . S
C743 H733 0.930 . S
C743 C736 1.409 . S
C743 C742 1.362 . S
H744 C750 0.930 . S
H745 C753 0.930 . S
H746 C754 0.930 . S
H747 C755 0.930 . S
H748 C758 0.930 . S
H749 C759 0.930 . S
C750 H744 0.930 . S
C750 C751 1.355 . S
C750 C752 1.415 . S
C751 C750 1.355 . S
C751 C753 1.419 . S
C752 C750 1.415 . S
C752 C757 1.425 . S
C752 C759 1.409 . S
C753 H745 0.930 . S
C753 C751 1.419 . S
C753 C754 1.362 . S
C754 H746 0.930 . S
C754 C753 1.362 . S
C754 C757 1.409 . S
C755 H747 0.930 . S
C755 C756 1.355 . S
C755 C757 1.415 . S
C756 C755 1.355 . S
C756 C758 1.419 . S
C757 C752 1.425 . S
C757 C754 1.409 . S
C757 C755 1.415 . S
C758 H748 0.930 . S
C758 C756 1.419 . S
C758 C759 1.362 . S
C759 H749 0.930 . S
C759 C752 1.409 . S
C759 C758 1.362 . S
H760 C766 0.930 . S
H761 C769 0.930 . S
H762 C770 0.930 . S
H763 C771 0.930 . S
H764 C774 0.930 . S
H765 C775 0.930 . S
C766 H760 0.930 . S
C766 C767 1.355 . S
C766 C768 1.415 . S
C767 C766 1.355 . S
C767 C769 1.419 . S
C768 C766 1.415 . S
C768 C773 1.425 . S
C768 C775 1.409 . S
C769 H761 0.930 . S
C769 C767 1.419 . S
C769 C770 1.362 . S
C770 H762 0.930 . S
C770 C769 1.362 . S
C770 C773 1.409 . S
C771 H763 0.930 . S
C771 C772 1.355 . S
C771 C773 1.415 . S
C772 C771 1.355 . S
C772 C774 1.419 . S
C773 C768 1.425 . S
C773 C770 1.409 . S
C773 C771 1.415 . S
C774 H764 0.930 . S
C774 C772 1.419 . S
C774 C775 1.362 . S
C775 H765 0.930 . S
C775 C768 1.409 . S
C775 C774 1.362 . S
H776 C782 0.930 . S
H777 C785 0.930 . S
H778 C786 0.930 . S
H779 C787 0.930 . S
H780 C790 0.930 . S
H781 C791 0.930 . S
C782 H776 0.930 . S
C782 C783 1.355 . S
C782 C784 1.415 . S
C783 C782 1.355 . S
C783 C785 1.419 . S
C784 C782 1.415 . S
C784 C789 1.425 . S
C784 C791 1.409 . S
C785 H777 0.930 . S
C785 C783 1.419 . S
C785 C786 1.362 . S
C786 H778 0.930 . S
C786 C785 1.362 . S
C786 C789 1.409 . S
C787 H779 0.930 . S
C787 C788 1.355 . S
C787 C789 1.415 . S
C788 C787 1.355 . S
C788 C790 1.419 . S
C789 C784 1.425 . S
C789 C786 1.409 . S
C789 C787 1.415 . S
C790 H780 0.930 . S
C790 C788 1.419 . S
C790 C791 1.362 . S
C791 H781 0.930 . S
C791 C784 1.409 . S
C791 C790 1.362 . S
H792 C798 0.930 . S
H793 C801 0.930 . S
H794 C802 0.930 . S
H795 C803 0.930 . S
H796 C806 0.930 . S
H797 C807 0.930 . S
C798 H792 0.930 . S
C798 C799 1.355 . S
C798 C800 1.415 . S
C799 C798 1.355 . S
C799 C801 1.419 . S
C800 C798 1.415 . S
C800 C805 1.425 . S
C800 C807 1.409 . S
C801 H793 0.930 . S
C801 C799 1.419 . S
C801 C802 1.362 . S
C802 H794 0.930 . S
C802 C801 1.362 . S
C802 C805 1.409 . S
C803 H795 0.930 . S
C803 C804 1.355 . S
C803 C805 1.415 . S
C804 C803 1.355 . S
C804 C806 1.419 . S
C805 C800 1.425 . S
C805 C802 1.409 . S
C805 C803 1.415 . S
C806 H796 0.930 . S
C806 C804 1.419 . S
C806 C807 1.362 . S
C807 H797 0.930 . S
C807 C800 1.409 . S
C807 C806 1.362 . S
H808 C814 0.930 . S
H809 C817 0.930 . S
H810 C818 0.930 . S
H811 C819 0.930 . S
H812 C822 0.930 . S
H813 C823 0.930 . S
C814 H808 0.930 . S
C814 C815 1.355 . S
C814 C816 1.415 . S
C815 C814 1.355 . S
C815 C817 1.419 . S
C816 C814 1.415 . S
C816 C821 1.425 . S
C816 C823 1.409 . S
C817 H809 0.930 . S
C817 C815 1.419 . S
C817 C818 1.362 . S
C818 H810 0.930 . S
C818 C817 1.362 . S
C818 C821 1.409 . S
C819 H811 0.930 . S
C819 C820 1.355 . S
C819 C821 1.415 . S
C820 C819 1.355 . S
C820 C822 1.419 . S
C821 C816 1.425 . S
C821 C818 1.409 . S
C821 C819 1.415 . S
C822 H812 0.930 . S
C822 C820 1.419 . S
C822 C823 1.362 . S
C823 H813 0.930 . S
C823 C816 1.409 . S
C823 C822 1.362 . S
H824 C830 0.930 . S
H825 C833 0.930 . S
H826 C834 0.930 . S
H827 C835 0.930 . S
H828 C838 0.930 . S
H829 C839 0.930 . S
C830 H824 0.930 . S
C830 C831 1.355 . S
C830 C832 1.415 . S
C831 C830 1.355 . S
C831 C833 1.419 . S
C832 C830 1.415 . S
C832 C837 1.425 . S
C832 C839 1.409 . S
C833 H825 0.930 . S
C833 C831 1.419 . S
C833 C834 1.362 . S
C834 H826 0.930 . S
C834 C833 1.362 . S
C834 C837 1.409 . S
C835 H827 0.930 . S
C835 C836 1.355 . S
C835 C837 1.415 . S
C836 C835 1.355 . S
C836 C838 1.419 . S
C837 C832 1.425 . S
C837 C834 1.409 . S
C837 C835 1.415 . S
C838 H828 0.930 . S
C838 C836 1.419 . S
C838 C839 1.362 . S
C839 H829 0.930 . S
C839 C832 1.409 . S
C839 C838 1.362 . S
H840 C846 0.930 . S
H841 C849 0.930 . S
H842 C850 0.930 . S
H843 C851 0.930 . S
H844 C854 0.930 . S
H845 C855 0.930 . S
C846 H840 0.930 . S
C846 C847 1.355 . S
C846 C848 1.415 . S
C847 C846 1.355 . S
C847 C849 1.419 . S
C848 C846 1.415 . S
C848 C853 1.425 . S
C848 C855 1.409 . S
C849 H841 0.930 . S
C849 C847 1.419 . S
C849 C850 1.362 . S
C850 H842 0.930 . S
C850 C849 1.362 . S
C850 C853 1.409 . S
C851 H843 0.930 . S
C851 C852 1.355 . S
C851 C853 1.415 . S
C852 C851 1.355 . S
C852 C854 1.419 . S
C853 C848 1.425 . S
C853 C850 1.409 . S
C853 C851 1.415 . S
C854 H844 0.930 . S
C854 C852 1.419 . S
C854 C855 1.362 . S
C855 H845 0.930 . S
C855 C848 1.409 . S
C855 C854 1.362 . S
H856 C862 0.930 . S
H857 C865 0.930 . S
H858 C866 0.930 . S
H859 C867 0.930 . S
H860 C870 0.930 . S
H861 C871 0.930 . S
C862 H856 0.930 . S
C862 C863 1.355 . S
C862 C864 1.415 . S
C863 C862 1.355 . S
C863 C865 1.419 . S
C864 C862 1.415 . S
C864 C869 1.425 . S
C864 C871 1.409 . S
C865 H857 0.930 . S
C865 C863 1.419 . S
C865 C866 1.362 . S
C866 H858 0.930 . S
C866 C865 1.362 . S
C866 C869 1.409 . S
C867 H859 0.930 . S
C867 C868 1.355 . S
C867 C869 1.415 . S
C868 C867 1.355 . S
C868 C870 1.419 . S
C869 C864 1.425 . S
C869 C866 1.409 . S
C869 C867 1.415 . S
C870 H860 0.930 . S
C870 C868 1.419 . S
C870 C871 1.362 . S
C871 H861 0.930 . S
C871 C864 1.409 . S
C871 C870 1.362 . S
H872 C878 0.930 . S
H873 C881 0.930 . S
H874 C882 0.930 . S
H875 C883 0.930 . S
H876 C886 0.930 . S
H877 C887 0.930 . S
C878 H872 0.930 . S
C878 C879 1.355 . S
C878 C880 1.415 . S
C879 C878 1.355 . S
C879 C881 1.419 . S
C880 C878 1.415 . S
C880 C885 1.425 . S
C880 C887 1.409 . S
C881 H873 0.930 . S
C881 C879 1.419 . S
C881 C882 1.362 . S
C882 H874 0.930 . S
C882 C881 1.362 . S
C882 C885 1.409 . S
C883 H875 0.930 . S
C883 C884 1.355 . S
C883 C885 1.415 . S
C884 C883 1.355 . S
C884 C886 1.419 . S
C885 C880 1.425 . S
C885 C882 1.409 . S
C885 C883 1.415 . S
C886 H876 0.930 . S
C886 C884 1.419 . S
C886 C887 1.362 . S
C887 H877 0.930 . S
C887 C880 1.409 . S
C887 C886 1.362 . S
H888 C894 0.930 . S
H889 C897 0.930 . S
H890 C898 0.930 . S
H891 C899 0.930 . S
H892 C902 0.930 . S
H893 C903 0.930 . S
C894 H888 0.930 . S
C894 C895 1.355 . S
C894 C896 1.415 . S
C895 C894 1.355 . S
C895 C897 1.419 . S
C896 C894 1.415 . S
C896 C901 1.425 . S
C896 C903 1.409 . S
C897 H889 0.930 . S
C897 C895 1.419 . S
C897 C898 1.362 . S
C898 H890 0.930 . S
C898 C897 1.362 . S
C898 C901 1.409 . S
C899 H891 0.930 . S
C899 C900 1.355 . S
C899 C901 1.415 . S
C900 C899 1.355 . S
C900 C902 1.419 . S
C901 C896 1.425 . S
C901 C898 1.409 . S
C901 C899 1.415 . S
C902 H892 0.930 . S
C902 C900 1.419 . S
C902 C903 1.362 . S
C903 H893 0.930 . S
C903 C896 1.409 . S
C903 C902 1.362 . S
H904 C910 0.930 . S
H905 C913 0.930 . S
H906 C914 0.930 . S
H907 C915 0.930 . S
H908 C918 0.930 . S
H909 C919 0.930 . S
C910 H904 0.930 . S
C910 C911 1.355 . S
C910 C912 1.415 . S
C911 C910 1.355 . S
C911 C913 1.419 . S
C912 C910 1.415 . S
C912 C917 1.425 . S
C912 C919 1.409 . S
C913 H905 0.930 . S
C913 C911 1.419 . S
C913 C914 1.362 . S
C914 H906 0.930 . S
C914 C913 1.362 . S
C914 C917 1.409 . S
C915 H907 0.930 . S
C915 C916 1.355 . S
C915 C917 1.415 . S
C916 C915 1.355 . S
C916 C918 1.419 . S
C917 C912 1.425 . S
C917 C914 1.409 . S
C917 C915 1.415 . S
C918 H908 0.930 . S
C918 C916 1.419 . S
C918 C919 1.362 . S
C919 H909 0.930 . S
C919 C912 1.409 . S
C919 C918 1.362 . S
H920 C926 0.930 . S
H921 C929 0.930 . S
H922 C930 0.930 . S
H923 C931 0.930 . S
H924 C934 0.930 . S
H925 C935 0.930 . S
C926 H920 0.930 . S
C926 C927 1.355 . S
C926 C928 1.415 . S
C927 C926 1.355 . S
C927 C929 1.419 . S
C928 C926 1.415 . S
C928 C933 1.425 . S
C928 C935 1.409 . S
C929 H921 0.930 . S
C929 C927 1.419 . S
C929 C930 1.362 . S
C930 H922 0.930 . S
C930 C929 1.362 . S
C930 C933 1.409 . S
C931 H923 0.930 . S
C931 C932 1.355 . S
C931 C933 1.415 . S
C932 C931 1.355 . S
C932 C934 1.419 . S
C933 C928 1.425 . S
C933 C930 1.409 . S
C933 C931 1.415 . S
C934 H924 0.930 . S
C934 C932 1.419 . S
C934 C935 1.362 . S
C935 H925 0.930 . S
C935 C928 1.409 . S
C935 C934 1.362 . S
H936 C942 0.930 . S
H937 C945 0.930 . S
H938 C946 0.930 . S
H939 C947 0.930 . S
H940 C950 0.930 . S
H941 C951 0.930 . S
C942 H936 0.930 . S
C942 C943 1.355 . S
C942 C944 1.415 . S
C943 C942 1.355 . S
C943 C945 1.419 . S
C944 C942 1.415 . S
C944 C949 1.425 . S
C944 C951 1.409 . S
C945 H937 0.930 . S
C945 C943 1.419 . S
C945 C946 1.362 . S
C946 H938 0.930 . S
C946 C945 1.362 . S
C946 C949 1.409 . S
C947 H939 0.930 . S
C947 C948 1.355 . S
C947 C949 1.415 . S
C948 C947 1.355 . S
C948 C950 1.419 . S
C949 C944 1.425 . S
C949 C946 1.409 . S
C949 C947 1.415 . S
C950 H940 0.930 . S
C950 C948 1.419 . S
C950 C951 1.362 . S
C951 H941 0.930 . S
C951 C944 1.409 . S
C951 C950 1.362 . S
H952 C958 0.930 . S
H953 C961 0.930 . S
H954 C962 0.930 . S
H955 C963 0.930 . S
H956 C966 0.930 . S
H957 C967 0.930 . S
C958 H952 0.930 . S
C958 C959 1.355 . S
C958 C960 1.415 . S
C959 C958 1.355 . S
C959 C961 1.419 . S
C960 C958 1.415 . S
C960 C965 1.425 . S
C960 C967 1.409 . S
C961 H953 0.930 . S
C961 C959 1.419 . S
C961 C962 1.362 . S
C962 H954 0.930 . S
C962 C961 1.362 . S
C962 C965 1.409 . S
C963 H955 0.930 . S
C963 C964 1.355 . S
C963 C965 1.415 . S
C964 C963 1.355 . S
C964 C966 1.419 . S
C965 C960 1.425 . S
C965 C962 1.409 . S
C965 C963 1.415 . S
C966 H956 0.930 . S
C966 C964 1.419 . S
C966 C967 1.362 . S
C967 H957 0.930 . S
C967 C960 1.409 . S
C967 C966 1.362 . S
H968 C974 0.930 . S
H969 C977 0.930 . S
H970 C978 0.930 . S
H971 C979 0.930 . S
H972 C982 0.930 . S
H973 C983 0.930 . S
C974 H968 0.930 . S
C974 C975 1.355 . S
C974 C976 1.415 . S
C975 C974 1.355 . S
C975 C977 1.419 . S
C976 C974 1.415 . S
C976 C981 1.425 . S
C976 C983 1.409 . S
C977 H969 0.930 . S
C977 C975 1.419 . S
C977 C978 1.362 . S
C978 H970 0.930 . S
C978 C977 1.362 . S
C978 C981 1.409 . S
C979 H971 0.930 . S
C979 C980 1.355 . S
C979 C981 1.415 . S
C980 C979 1.355 . S
C980 C982 1.419 . S
C981 C976 1.425 . S
C981 C978 1.409 . S
C981 C979 1.415 . S
C982 H972 0.930 . S
C982 C980 1.419 . S
C982 C983 1.362 . S
C983 H973 0.930 . S
C983 C976 1.409 . S
C983 C982 1.362 . S
H984 C990 0.930 . S
H985 C993 0.930 . S
H986 C994 0.930 . S
H987 C995 0.930 . S
H988 C998 0.930 . S
H989 C999 0.930 . S
C990 H984 0.930 . S
C990 C991 1.355 . S
C990 C992 1.415 . S
C991 C990 1.355 . S
C991 C993 1.419 . S
C992 C990 1.415 . S
C992 C997 1.425 . S
C992 C999 1.409 . S
C993 H985 0.930 . S
C993 C991 1.419 . S
C993 C994 1.362 . S
C994 H986 0.930 . S
C994 C993 1.362 . S
C994 C997 1.409 . S
C995 H987 0.930 . S
C995 C996 1.355 . S
C995 C997 1.415 . S
C996 C995 1.355 . S
C996 C998 1.419 . S
C997 C992 1.425 . S
C997 C994 1.409 . S
C997 C995 1.415 . S
C998 H988 0.930 . S
C998 C996 1.419 . S
C998 C999 1.362 . S
C999 H989 0.930 . S
C999 C992 1.409 . S
C999 C998 1.362 . S
H1000 C1006 0.930 . S
H1001 C1009 0.930 . S
H1002 C1010 0.930 . S
H1003 C1011 0.930 . S
H1004 C1014 0.930 . S
H1005 C1015 0.930 . S
C1006 H1000 0.930 . S
C1006 C1007 1.355 . S
C1006 C1008 1.415 . S
C1007 C1006 1.355 . S
C1007 C1009 1.419 . S
C1008 C1006 1.415 . S
C1008 C1013 1.425 . S
C1008 C1015 1.409 . S
C1009 H1001 0.930 . S
C1009 C1007 1.419 . S
C1009 C1010 1.362 . S
C1010 H1002 0.930 . S
C1010 C1009 1.362 . S
C1010 C1013 1.409 . S
C1011 H1003 0.930 . S
C1011 C1012 1.355 . S
C1011 C1013 1.415 . S
C1012 C1011 1.355 . S
C1012 C1014 1.419 . S
C1013 C1008 1.425 . S
C1013 C1010 1.409 . S
C1013 C1011 1.415 . S
C1014 H1004 0.930 . S
C1014 C1012 1.419 . S
C1014 C1015 1.362 . S
C1015 H1005 0.930 . S
C1015 C1008 1.409 . S
C1015 C1014 1.362 . S
H1016 C1022 0.930 . S
H1017 C1025 0.930 . S
H1018 C1026 0.930 . S
H1019 C1027 0.930 . S
H1020 C1030 0.930 . S
H1021 C1031 0.930 . S
C1022 H1016 0.930 . S
C1022 C1023 1.355 . S
C1022 C1024 1.415 . S
C1023 C1022 1.355 . S
C1023 C1025 1.419 . S
C1024 C1022 1.415 . S
C1024 C1029 1.425 . S
C1024 C1031 1.409 . S
C1025 H1017 0.930 . S
C1025 C1023 1.419 . S
C1025 C1026 1.362 . S
C1026 H1018 0.930 . S
C1026 C1025 1.362 . S
C1026 C1029 1.409 . S
C1027 H1019 0.930 . S
C1027 C1028 1.355 . S
C1027 C1029 1.415 . S
C1028 C1027 1.355 . S
C1028 C1030 1.419 . S
C1029 C1024 1.425 . S
C1029 C1026 1.409 . S
C1029 C1027 1.415 . S
C1030 H1020 0.930 . S
C1030 C1028 1.419 . S
C1030 C1031 1.362 . S
C1031 H1021 0.930 . S
C1031 C1024 1.409 . S
C1031 C1030 1.362 . S
H1032 C1038 0.930 . S
H1033 C1041 0.930 . S
H1034 C1042 0.930 . S
H1035 C1043 0.930 . S
H1036 C1046 0.930 . S
H1037 C1047 0.930 . S
C1038 H1032 0.930 . S
C1038 C1039 1.355 . S
C1038 C1040 1.415 . S
C1039 C1038 1.355 . S
C1039 C1041 1.419 . S
C1040 C1038 1.415 . S
C1040 C1045 1.425 . S
C1040 C1047 1.409 . S
C1041 H1033 0.930 . S
C1041 C1039 1.419 . S
C1041 C1042 1.362 . S
C1042 H1034 0.930 . S
C1042 C1041 1.362 . S
C1042 C1045 1.409 . S
C1043 H1035 0.930 . S
C1043 C1044 1.355 . S
C1043 C1045 1.415 . S
C1044 C1043 1.355 . S
C1044 C1046 1.419 . S
C1045 C1040 1.425 . S
C1045 C1042 1.409 . S
C1045 C1043 1.415 . S
C1046 H1036 0.930 . S
C1046 C1044 1.419 . S
C1046 C1047 1.362 . S
C1047 H1037 0.930 . S
C1047 C1040 1.409 . S
C1047 C1046 1.362 . S
H1048 C1054 0.930 . S
H1049 C1057 0.930 . S
H1050 C1058 0.930 . S
H1051 C1059 0.930 . S
H1052 C1062 0.930 . S
H1053 C1063 0.930 . S
C1054 H1048 0.930 . S
C1054 C1055 1.355 . S
C1054 C1056 1.415 . S
C1055 C1054 1.355 . S
C1055 C1057 1.419 . S
C1056 C1054 1.415 . S
C1056 C1061 1.425 . S
C1056 C1063 1.409 . S
C1057 H1049 0.930 . S
C1057 C1055 1.419 . S
C1057 C1058 1.362 . S
C1058 H1050 0.930 . S
C1058 C1057 1.362 . S
C1058 C1061 1.409 . S
C1059 H1051 0.930 . S
C1059 C1060 1.355 . S
C1059 C1061 1.415 . S
C1060 C1059 1.355 . S
C1060 C1062 1.419 . S
C1061 C1056 1.425 . S
C1061 C1058 1.409 . S
C1061 C1059 1.415 . S
C1062 H1052 0.930 . S
C1062 C1060 1.419 . S
C1062 C1063 1.362 . S
C1063 H1053 0.930 . S
C1063 C1056 1.409 . S
C1063 C1062 1.362 . S
H1064 C1070 0.930 . S
H1065 C1073 0.930 . S
H1066 C1074 0.930 . S
H1067 C1075 0.930 . S
H1068 C1078 0.930 . S
H1069 C1079 0.930 . S
C1070 H1064 0.930 . S
C1070 C1071 1.355 . S
C1070 C1072 1.415 . S
C1071 C1070 1.355 . S
C1071 C1073 1.419 . S
C1072 C1070 1.415 . S
C1072 C1077 1.425 . S
C1072 C1079 1.409 . S
C1073 H1065 0.930 . S
C1073 C1071 1.419 . S
C1073 C1074 1.362 . S
C1074 H1066 0.930 . S
C1074 C1073 1.362 . S
C1074 C1077 1.409 . S
C1075 H1067 0.930 . S
C1075 C1076 1.355 . S
C1075 C1077 1.415 . S
C1076 C1075 1.355 . S
C1076 C1078 1.419 . S
C1077 C1072 1.425 . S
C1077 C1074 1.409 . S
C1077 C1075 1.415 . S
C1078 H1068 0.930 . S
C1078 C1076 1.419 . S
C1078 C1079 1.362 . S
C1079 H1069 0.930 . S
C1079 C1072 1.409 . S
C1079 C1078 1.362 . S
C319 C205 1.421 . S
C324 C10 1.412 . S
C335 C166 1.413 . S
C340 C17 1.420 . S
C351 C179 1.412 . S
C356 C36 1.421 . S
C367 C192 1.417 . S
C372 C43 1.416 . S
C383 C186 1.419 . S
C388 C23 1.415 . S
C399 C30 1.412 . S
C404 C199 1.422 . S
C415 C160 1.412 . S
C420 C49 1.422 . S
C431 C173 1.419 . S
C436 C4 1.415 . S
C447 C244 1.418 . S
C452 C56 1.416 . S
C463 C69 1.412 . S
C468 C251 1.422 . S
C479 C88 1.421 . S
C484 C212 1.413 . S
C495 C231 1.418 . S
C500 C101 1.416 . S
C511 C290 1.422 . S
C516 C114 1.412 . S
C527 C127 1.414 . S
C532 C309 1.420 . S
C543 C140 1.419 . S
C548 C264 1.415 . S
C559 C147 1.422 . S
C564 C283 1.412 . S
C575 C225 1.421 . S
C580 C153 1.412 . S
C591 C303 1.417 . S
C596 C75 1.417 . S
C607 C82 1.413 . S
C612 C270 1.421 . S
C623 C277 1.416 . S
C628 C95 1.418 . S
C639 C296 1.413 . S
C644 C62 1.421 . S
C655 C121 1.412 . S
C660 C257 1.422 . S
C671 C218 1.417 . S
C676 C134 1.417 . S
C687 C238 1.416 . S
C692 C108 1.418 . S
C703 C3 1.175 . S
C708 C55 1.133 . S
C719 C68 1.164 . S
C724 C18 1.186 . S
C735 C29 1.162 . S
C740 C83 1.187 . S
C751 C44 1.188 . S
C756 C96 1.160 . S
C767 C109 1.183 . S
C772 C16 1.171 . S
C783 C122 1.180 . S
C788 C31 1.174 . S
C799 C135 1.140 . S
C804 C42 1.186 . S
C815 C5 1.168 . S
C820 C146 1.133 . S
C831 C148 1.137 . S
C836 C57 1.183 . S
C847 C70 1.184 . S
C852 C107 1.168 . S
C863 C81 1.182 . S
C868 C120 1.171 . S
C879 C133 1.179 . S
C884 C94 1.175 . S
C895 C211 1.135 . S
C900 C161 1.161 . S
C911 C226 1.172 . S
C916 C174 1.133 . S
C927 C187 1.161 . S
C932 C239 1.135 . S
C943 C200 1.182 . S
C948 C250 1.136 . S
C959 C172 1.167 . S
C964 C263 1.133 . S
C975 C185 1.146 . S
C980 C278 1.188 . S
C991 C289 1.178 . S
C996 C198 1.176 . S
C1007 C159 1.176 . S
C1012 C304 1.179 . S
C1023 C213 1.134 . S
C1028 C302 1.176 . S
C1039 C265 1.134 . S
C1044 C224 1.178 . S
C1055 C237 1.139 . S
C1060 C276 1.154 . S
C1071 C291 1.133 . S
C1076 C252 1.174 . S
