# Generated by pormake.
# Topology smd, (6)-cn, num edge types: 1
# Building blocks:
#     Node 0, Type 0, BuildingBlock: CUKXOW_clean_sbu_0, # of connection points: 6
#     Node 1, Type 0, BuildingBlock: CUKXOW_clean_sbu_0, # of connection points: 6
#     Node 2, Type 0, BuildingBlock: CUKXOW_clean_sbu_0, # of connection points: 6
#     Node 3, Type 0, BuildingBlock: CUKXOW_clean_sbu_0, # of connection points: 6
#     Node 4, Type 0, BuildingBlock: CUKXOW_clean_sbu_0, # of connection points: 6
#     Node 5, Type 0, BuildingBlock: CUKXOW_clean_sbu_0, # of connection points: 6
#     Node 6, Type 0, BuildingBlock: CUKXOW_clean_sbu_0, # of connection points: 6
#     Node 7, Type 0, BuildingBlock: CUKXOW_clean_sbu_0, # of connection points: 6
#     Node 8, Type 0, BuildingBlock: CUKXOW_clean_sbu_0, # of connection points: 6
#     Node 9, Type 0, BuildingBlock: CUKXOW_clean_sbu_0, # of connection points: 6
#     Node 10, Type 0, BuildingBlock: CUKXOW_clean_sbu_0, # of connection points: 6
#     Node 11, Type 0, BuildingBlock: CUKXOW_clean_sbu_0, # of connection points: 6
#     Node 12, Type 0, BuildingBlock: CUKXOW_clean_sbu_0, # of connection points: 6
#     Node 13, Type 0, BuildingBlock: CUKXOW_clean_sbu_0, # of connection points: 6
#     Node 14, Type 0, BuildingBlock: CUKXOW_clean_sbu_0, # of connection points: 6
#     Node 15, Type 0, BuildingBlock: CUKXOW_clean_sbu_0, # of connection points: 6
#     Node 16, Type 0, BuildingBlock: CUKXOW_clean_sbu_0, # of connection points: 6
#     Node 17, Type 0, BuildingBlock: CUKXOW_clean_sbu_0, # of connection points: 6
#     Edge 18, Type (0, 0), BuildingBlock: KIFKEQ_clean_linker_1, # of connection points: 2
#     Edge 19, Type (0, 0), BuildingBlock: KIFKEQ_clean_linker_1, # of connection points: 2
#     Edge 20, Type (0, 0), BuildingBlock: KIFKEQ_clean_linker_1, # of connection points: 2
#     Edge 21, Type (0, 0), BuildingBlock: KIFKEQ_clean_linker_1, # of connection points: 2
#     Edge 22, Type (0, 0), BuildingBlock: KIFKEQ_clean_linker_1, # of connection points: 2
#     Edge 23, Type (0, 0), BuildingBlock: KIFKEQ_clean_linker_1, # of connection points: 2
#     Edge 24, Type (0, 0), BuildingBlock: KIFKEQ_clean_linker_1, # of connection points: 2
#     Edge 25, Type (0, 0), BuildingBlock: KIFKEQ_clean_linker_1, # of connection points: 2
#     Edge 26, Type (0, 0), BuildingBlock: KIFKEQ_clean_linker_1, # of connection points: 2
#     Edge 27, Type (0, 0), BuildingBlock: KIFKEQ_clean_linker_1, # of connection points: 2
#     Edge 28, Type (0, 0), BuildingBlock: KIFKEQ_clean_linker_1, # of connection points: 2
#     Edge 29, Type (0, 0), BuildingBlock: KIFKEQ_clean_linker_1, # of connection points: 2
#     Edge 30, Type (0, 0), BuildingBlock: KIFKEQ_clean_linker_1, # of connection points: 2
#     Edge 31, Type (0, 0), BuildingBlock: KIFKEQ_clean_linker_1, # of connection points: 2
#     Edge 32, Type (0, 0), BuildingBlock: KIFKEQ_clean_linker_1, # of connection points: 2
#     Edge 33, Type (0, 0), BuildingBlock: KIFKEQ_clean_linker_1, # of connection points: 2
#     Edge 34, Type (0, 0), BuildingBlock: KIFKEQ_clean_linker_1, # of connection points: 2
#     Edge 35, Type (0, 0), BuildingBlock: KIFKEQ_clean_linker_1, # of connection points: 2
#     Edge 36, Type (0, 0), BuildingBlock: KIFKEQ_clean_linker_1, # of connection points: 2
#     Edge 37, Type (0, 0), BuildingBlock: KIFKEQ_clean_linker_1, # of connection points: 2
#     Edge 38, Type (0, 0), BuildingBlock: KIFKEQ_clean_linker_1, # of connection points: 2
#     Edge 39, Type (0, 0), BuildingBlock: KIFKEQ_clean_linker_1, # of connection points: 2
#     Edge 40, Type (0, 0), BuildingBlock: KIFKEQ_clean_linker_1, # of connection points: 2
#     Edge 41, Type (0, 0), BuildingBlock: KIFKEQ_clean_linker_1, # of connection points: 2
#     Edge 42, Type (0, 0), BuildingBlock: KIFKEQ_clean_linker_1, # of connection points: 2
#     Edge 43, Type (0, 0), BuildingBlock: KIFKEQ_clean_linker_1, # of connection points: 2
#     Edge 44, Type (0, 0), BuildingBlock: KIFKEQ_clean_linker_1, # of connection points: 2
#     Edge 45, Type (0, 0), BuildingBlock: KIFKEQ_clean_linker_1, # of connection points: 2
#     Edge 46, Type (0, 0), BuildingBlock: KIFKEQ_clean_linker_1, # of connection points: 2
#     Edge 47, Type (0, 0), BuildingBlock: KIFKEQ_clean_linker_1, # of connection points: 2
#     Edge 48, Type (0, 0), BuildingBlock: KIFKEQ_clean_linker_1, # of connection points: 2
#     Edge 49, Type (0, 0), BuildingBlock: KIFKEQ_clean_linker_1, # of connection points: 2
#     Edge 50, Type (0, 0), BuildingBlock: KIFKEQ_clean_linker_1, # of connection points: 2
#     Edge 51, Type (0, 0), BuildingBlock: KIFKEQ_clean_linker_1, # of connection points: 2
#     Edge 52, Type (0, 0), BuildingBlock: KIFKEQ_clean_linker_1, # of connection points: 2
#     Edge 53, Type (0, 0), BuildingBlock: KIFKEQ_clean_linker_1, # of connection points: 2
#     Edge 54, Type (0, 0), BuildingBlock: KIFKEQ_clean_linker_1, # of connection points: 2
#     Edge 55, Type (0, 0), BuildingBlock: KIFKEQ_clean_linker_1, # of connection points: 2
#     Edge 56, Type (0, 0), BuildingBlock: KIFKEQ_clean_linker_1, # of connection points: 2
#     Edge 57, Type (0, 0), BuildingBlock: KIFKEQ_clean_linker_1, # of connection points: 2
#     Edge 58, Type (0, 0), BuildingBlock: KIFKEQ_clean_linker_1, # of connection points: 2
#     Edge 59, Type (0, 0), BuildingBlock: KIFKEQ_clean_linker_1, # of connection points: 2
#     Edge 60, Type (0, 0), BuildingBlock: KIFKEQ_clean_linker_1, # of connection points: 2
#     Edge 61, Type (0, 0), BuildingBlock: KIFKEQ_clean_linker_1, # of connection points: 2
#     Edge 62, Type (0, 0), BuildingBlock: KIFKEQ_clean_linker_1, # of connection points: 2
#     Edge 63, Type (0, 0), BuildingBlock: KIFKEQ_clean_linker_1, # of connection points: 2
#     Edge 64, Type (0, 0), BuildingBlock: KIFKEQ_clean_linker_1, # of connection points: 2
#     Edge 65, Type (0, 0), BuildingBlock: KIFKEQ_clean_linker_1, # of connection points: 2
#     Edge 66, Type (0, 0), BuildingBlock: KIFKEQ_clean_linker_1, # of connection points: 2
#     Edge 67, Type (0, 0), BuildingBlock: KIFKEQ_clean_linker_1, # of connection points: 2
#     Edge 68, Type (0, 0), BuildingBlock: KIFKEQ_clean_linker_1, # of connection points: 2
#     Edge 69, Type (0, 0), BuildingBlock: KIFKEQ_clean_linker_1, # of connection points: 2
#     Edge 70, Type (0, 0), BuildingBlock: KIFKEQ_clean_linker_1, # of connection points: 2
#     Edge 71, Type (0, 0), BuildingBlock: KIFKEQ_clean_linker_1, # of connection points: 2
# Relax obj value: 0.274
# Max RMSD: 0.299
# Mean RMSD: 0.277
data_MOF--net-smd--node1-CUKXOW_clean_sbu_0--edge1-KIFKEQ_clean_linker_1
_symmetry_space_group_name_H-M    P1
_symmetry_Int_Tables_number       1
_symmetry_cell_setting            triclinic
loop_
_symmetry_equiv_pos_as_xyz
'x, y, z'
_cell_length_a     75.443251
_cell_length_b     79.603478
_cell_length_c     14.642288
_cell_angle_alpha  92.832719
_cell_angle_beta   92.758918
_cell_angle_gamma 120.03014
loop_
_atom_site_label
_atom_site_type_symbol
_atom_site_fract_x
_atom_site_fract_y
_atom_site_fract_z
_atom_type_partial_charge
Tb0 Tb 0.00759 0.22728 0.60674 0.0
C1 C 0.05496 0.23952 0.5988 0.0
Tb2 Tb 0.04207 0.27218 0.58833 0.0
O3 O 1.00167 0.21893 0.45644 0.0
O4 O 0.02315 0.24617 0.50669 0.0
O5 O 0.03645 0.22615 0.62321 0.0
C6 C 0.06756 0.30508 0.51677 0.0
O7 O 0.05897 0.25678 0.5721 0.0
C8 C 0.03466 0.26434 0.76238 0.0
C9 C 0.99664 0.26185 0.6114 0.0
O10 O 0.07176 0.29904 0.59112 0.0
O11 O 0.04899 0.29262 0.48273 0.0
O12 O 0.04744 0.28147 0.73708 0.0
O13 O 0.02695 0.25326 0.6896 0.0
O14 O 0.01421 0.27383 0.57718 0.0
O15 O 0.99227 0.24444 0.63914 0.0
C16 C 0.97663 0.1923 0.64136 0.0
O17 O 0.97564 0.20397 0.58541 0.0
O18 O 0.99527 0.20061 0.68152 0.0
C19 C 0.015 0.23586 0.43254 0.0
Tb20 Tb 0.80967 0.82471 0.55761 0.0
C21 C 0.84154 0.8102 0.59077 0.0
Tb22 Tb 0.79353 0.77886 0.57971 0.0
O23 O 0.81115 0.83273 0.70637 0.0
O24 O 0.80146 0.80484 0.65966 0.0
O25 O 0.83825 0.82364 0.55426 0.0
C26 C 0.77963 0.74339 0.64155 0.0
O27 O 0.82656 0.79367 0.61907 0.0
C28 C 0.79734 0.78776 0.40509 0.0
C29 C 0.76217 0.79222 0.52263 0.0
O30 O 0.79532 0.75227 0.59326 0.0
O31 O 0.77223 0.75483 0.65744 0.0
O32 O 0.7901 0.77026 0.4308 0.0
O33 O 0.80202 0.79871 0.4779 0.0
O34 O 0.76501 0.7795 0.56729 0.0
O35 O 0.77756 0.80901 0.49976 0.0
C36 C 0.81511 0.85915 0.50841 0.0
O37 O 0.79811 0.8444 0.52914 0.0
O38 O 0.82935 0.85435 0.51251 0.0
C39 C 0.80467 0.8154 0.73212 0.0
Tb40 Tb 0.22394 0.03491 0.60144 0.0
C41 C 0.18999 0.98954 0.57001 0.0
Tb42 Tb 0.23659 1.00222 0.5584 0.0
O43 O 0.22045 0.04036 0.45622 0.0
O44 O 0.22963 0.02122 0.48984 0.0
O45 O 0.19542 0.00679 0.61482 0.0
C46 C 0.2487 0.9798 0.4715 0.0
O47 O 0.20336 0.98617 0.5282 0.0
C48 C 0.23436 0.00852 0.73721 0.0
C49 C 0.27168 0.0464 0.60712 0.0
O50 O 0.23655 0.97465 0.53749 0.0
O51 O 0.25367 0.99737 0.45395 0.0
O52 O 0.23932 0.9962 0.70282 0.0
O53 O 0.23124 0.01629 0.67023 0.0
O54 O 0.26663 0.02837 0.57766 0.0
O55 O 0.25795 0.05192 0.62343 0.0
C56 C 0.21736 0.06272 0.67591 0.0
O57 O 0.23447 0.06252 0.68423 0.0
O58 O 0.20363 0.04675 0.62867 0.0
C59 C 0.22582 0.02837 0.42217 0.0
Tb60 Tb 0.99379 0.7846 0.62852 0.0
C61 C 0.04081 0.79732 0.6118 0.0
Tb62 Tb 0.02545 0.82748 0.62362 0.0
O63 O 0.98138 0.78253 0.48831 0.0
O64 O 0.01207 0.80251 0.52682 0.0
O65 O 0.02238 0.78382 0.63264 0.0
C66 C 0.05254 0.86514 0.59748 0.0
O67 O 0.04499 0.81515 0.59551 0.0
C68 C 0.02091 0.8136 0.78713 0.0
C69 C 0.97817 0.81417 0.63385 0.0
O70 O 0.04469 0.85851 0.67368 0.0
O71 O 0.04438 0.8506 0.53471 0.0
O72 O 0.03818 0.8269 0.76063 0.0
O73 O 0.007 0.80943 0.72437 0.0
O74 O 0.99592 0.82716 0.60278 0.0
O75 O 0.9755 0.79769 0.66478 0.0
C76 C 0.97338 0.74728 0.67264 0.0
O77 O 0.96748 0.75446 0.60801 0.0
O78 O 0.99043 0.76129 0.71389 0.0
C79 C 0.99802 0.79697 0.46262 0.0
Tb80 Tb 0.23455 0.26716 0.61049 0.0
C81 C 0.26887 0.25543 0.63146 0.0
Tb82 Tb 0.22184 0.22253 0.63616 0.0
O83 O 0.23436 0.27536 0.75773 0.0
O84 O 0.22827 0.24812 0.71484 0.0
O85 O 0.26293 0.26682 0.59363 0.0
C86 C 0.21409 0.188 0.69278 0.0
O87 O 0.25572 0.2384 0.66254 0.0
C88 C 0.22558 0.23123 0.46056 0.0
C89 C 0.18771 0.23538 0.61241 0.0
O90 O 0.22979 0.20488 0.72198 0.0
O91 O 0.20241 0.19075 0.6346 0.0
O92 O 0.22006 0.21412 0.48723 0.0
O93 O 0.22901 0.24183 0.53309 0.0
O94 O 0.19281 0.22311 0.64969 0.0
O95 O 0.20139 0.25209 0.58102 0.0
C96 C 0.24894 0.30196 0.54593 0.0
O97 O 0.23106 0.28677 0.51986 0.0
O98 O 0.2583 0.29747 0.6082 0.0
C99 C 0.23003 0.25858 0.7858 0.0
Tb100 Tb 0.802 0.05117 0.62518 0.0
C101 C 0.76721 0.00819 0.5514 0.0
Tb102 Tb 0.81367 0.0175 0.58433 0.0
O103 O 0.80349 0.05959 0.48273 0.0
O104 O 0.80936 0.03811 0.5159 0.0
O105 O 0.77195 0.02567 0.58836 0.0
C106 C 0.82132 0.98959 0.51882 0.0
O107 O 0.78068 1.00222 0.54026 0.0
C108 C 0.80792 0.02202 0.76108 0.0
C109 C 0.84803 0.06177 0.63686 0.0
O110 O 0.80544 0.99116 0.49429 0.0
O111 O 0.83342 0.00441 0.57677 0.0
O112 O 0.81278 0.00965 0.7275 0.0
O113 O 0.80595 0.03033 0.6937 0.0
O114 O 0.84294 0.0454 0.58477 0.0
O115 O 0.83422 0.06493 0.67554 0.0
C116 C 0.78854 0.07409 0.69678 0.0
O117 O 0.80504 0.07995 0.65344 0.0
O118 O 0.78019 0.05543 0.70309 0.0
C119 C 0.80806 0.04694 0.44927 0.0
Tb120 Tb 0.6881 0.55354 0.71726 0.0
C121 C 0.64123 0.52166 0.73612 0.0
Tb122 Tb 0.65417 0.56592 0.75293 0.0
O123 O 0.69669 0.55329 0.86444 0.0
O124 O 0.67514 0.56033 0.82638 0.0
O125 O 0.65811 0.5258 0.69305 0.0
C126 C 0.63341 0.57932 0.84279 0.0
O127 O 0.63848 0.53532 0.77784 0.0
C128 C 0.65837 0.56124 0.5745 0.0
C129 C 0.70018 0.59879 0.73116 0.0
O130 O 0.62535 0.56532 0.77716 0.0
O131 O 0.65291 0.58565 0.85682 0.0
O132 O 0.64553 0.56611 0.60558 0.0
O133 O 0.66729 0.55918 0.64408 0.0
O134 O 0.68176 0.59427 0.75658 0.0
O135 O 0.70546 0.58552 0.70754 0.0
C136 C 0.71598 0.5462 0.64617 0.0
O137 O 0.71486 0.56183 0.63854 0.0
O138 O 0.70084 0.53432 0.69144 0.0
C139 C 0.68378 0.55793 0.89606 0.0
Tb140 Tb 0.47315 0.16476 0.70262 0.0
C141 C 0.51074 0.15646 0.72354 0.0
Tb142 Tb 0.46491 0.12267 0.7257 0.0
O143 O 0.46117 0.16489 0.83648 0.0
O144 O 0.47528 0.14877 0.81128 0.0
O145 O 0.50425 0.16824 0.69286 0.0
C146 C 0.4558 0.09171 0.81736 0.0
O147 O 0.49798 0.13902 0.75051 0.0
C148 C 0.46512 0.1291 0.5489 0.0
C149 C 0.42713 0.12914 0.68363 0.0
O150 O 0.46812 0.09735 0.75184 0.0
O151 O 0.44856 0.10332 0.82978 0.0
O152 O 0.46212 0.1128 0.57892 0.0
O153 O 0.46769 0.14024 0.61886 0.0
O154 O 0.43384 0.11783 0.71537 0.0
O155 O 0.43965 0.14756 0.66643 0.0
C156 C 0.48267 0.20051 0.65841 0.0
O157 O 0.47064 0.18432 0.60853 0.0
O158 O 0.48972 0.19653 0.73189 0.0
C159 C 0.46563 0.1525 0.86933 0.0
Tb160 Tb 0.89799 0.35801 0.71573 0.0
C161 C 0.91298 0.40367 0.73438 0.0
Tb162 Tb 0.94256 0.38648 0.76096 0.0
O163 O 0.89746 0.34467 0.84367 0.0
O164 O 0.9166 0.37425 0.83842 0.0
O165 O 0.89752 0.38565 0.70857 0.0
C166 C 0.97864 0.41135 0.8524 0.0
O167 O 0.93163 0.40713 0.76188 0.0
C168 C 0.93295 0.37467 0.58453 0.0
C169 C 0.92903 0.34252 0.72204 0.0
O170 O 0.97275 0.41324 0.77055 0.0
O171 O 0.96434 0.39548 0.88179 0.0
O172 O 0.95072 0.38022 0.62753 0.0
O173 O 0.92205 0.37758 0.63897 0.0
O174 O 0.94173 0.35882 0.77328 0.0
O175 O 0.91183 0.3401 0.67942 0.0
C176 C 0.85766 0.33473 0.66725 0.0
O177 O 0.87241 0.33603 0.61996 0.0
O178 O 0.86574 0.34707 0.73905 0.0
C179 C 0.9114 0.36051 0.88942 0.0
Tb180 Tb 0.66113 0.13387 0.77566 0.0
C181 C 0.70707 0.1432 0.76145 0.0
Tb182 Tb 0.69599 0.17667 0.75267 0.0
O183 O 0.6539 0.12322 0.62736 0.0
O184 O 0.67643 0.15104 0.67005 0.0
O185 O 0.68869 0.13158 0.78935 0.0
C186 C 0.72335 0.21133 0.69739 0.0
O187 O 0.71251 0.16066 0.73322 0.0
C188 C 0.69104 0.16591 0.92355 0.0
C189 C 0.64888 0.16586 0.75159 0.0
O190 O 0.72004 0.19449 0.66441 0.0
O191 O 0.71088 0.20866 0.7607 0.0
O192 O 0.70825 0.17922 0.89598 0.0
O193 O 0.67744 0.16081 0.85789 0.0
O194 O 0.6674 0.17779 0.72295 0.0
O195 O 0.64411 0.14914 0.78656 0.0
C196 C 0.64123 0.10318 0.87204 0.0
O197 O 0.63281 0.10714 0.8027 0.0
O198 O 0.66051 0.11633 0.88547 0.0
C199 C 0.66765 0.13969 0.59871 0.0
Tb200 Tb 0.93601 0.57507 0.7881 0.0
C201 C 0.92016 0.60377 0.75107 0.0
Tb202 Tb 0.88932 0.55799 0.73562 0.0
O203 O 0.94604 0.57602 0.64756 0.0
O204 O 0.91593 0.56613 0.66832 0.0
O205 O 0.93327 0.60097 0.80207 0.0
C206 C 0.85209 0.55258 0.68406 0.0
O207 O 0.90335 0.58894 0.70645 0.0
C208 C 0.90012 0.55853 0.91129 0.0
C209 C 0.90666 0.52914 0.75084 0.0
O210 O 0.86501 0.56493 0.74884 0.0
O211 O 0.86008 0.54293 0.64686 0.0
O212 O 0.88256 0.54584 0.86908 0.0
O213 O 0.91007 0.57115 0.85663 0.0
O214 O 0.89192 0.53167 0.7105 0.0
O215 O 0.92376 0.54383 0.79458 0.0
C216 C 0.97254 0.59149 0.88395 0.0
O217 O 0.95682 0.57471 0.89764 0.0
O218 O 0.96769 0.59863 0.81587 0.0
C219 C 0.9279 0.56944 0.60604 0.0
Tb220 Tb 0.45756 0.38336 0.76893 0.0
C221 C 0.4233 0.3386 0.72878 0.0
Tb222 Tb 0.47089 0.35146 0.72254 0.0
O223 O 0.45386 0.38949 0.62511 0.0
O224 O 0.46254 0.36963 0.65497 0.0
O225 O 0.42829 0.35609 0.76707 0.0
C226 C 0.47896 0.32466 0.64961 0.0
O227 O 0.43708 0.33426 0.69849 0.0
C228 C 0.46916 0.3578 0.90313 0.0
C229 C 0.50425 0.39653 0.74884 0.0
O230 O 0.46152 0.32421 0.63909 0.0
O231 O 0.49209 0.34066 0.69828 0.0
O232 O 0.47415 0.34561 0.86799 0.0
O233 O 0.46569 0.36517 0.83583 0.0
O234 O 0.49884 0.37938 0.70388 0.0
O235 O 0.49103 0.39948 0.79448 0.0
C236 C 0.4479 0.40641 0.86737 0.0
O237 O 0.46465 0.41232 0.82624 0.0
O238 O 0.4366 0.38765 0.85205 0.0
C239 C 0.45897 0.37737 0.58901 0.0
Tb240 Tb 0.35001 0.89276 0.2424 0.0
C241 C 0.39587 0.90513 0.22629 0.0
Tb242 Tb 0.38183 0.9363 0.22311 0.0
O243 O 0.35354 0.88485 0.10132 0.0
O244 O 0.35822 0.91237 0.13655 0.0
O245 O 0.37905 0.89312 0.26598 0.0
C246 C 0.4012 0.96918 0.1402 0.0
O247 O 0.39816 0.92095 0.18933 0.0
C248 C 0.37951 0.92889 0.39923 0.0
C249 C 0.33759 0.9256 0.27421 0.0
O250 O 0.41033 0.96176 0.18695 0.0
O251 O 0.38153 0.95819 0.14119 0.0
O252 O 0.39159 0.94596 0.37105 0.0
O253 O 0.37026 0.91768 0.32805 0.0
O254 O 0.35507 0.93884 0.24413 0.0
O255 O 0.33323 0.90746 0.28533 0.0
C256 C 0.31862 0.85872 0.27994 0.0
O257 O 0.31781 0.87021 0.22234 0.0
O258 O 0.33736 0.8663 0.317 0.0
C259 C 0.35958 0.90189 0.07265 0.0
Tb260 Tb 0.16908 0.51427 0.17906 0.0
C261 C 0.20305 0.50312 0.21798 0.0
Tb262 Tb 0.15698 0.46986 0.2041 0.0
O263 O 0.16924 0.52253 0.32646 0.0
O264 O 0.16216 0.4951 0.28269 0.0
O265 O 0.19803 0.51427 0.17078 0.0
C266 C 0.14431 0.43638 0.2794 0.0
O267 O 0.18929 0.48685 0.25195 0.0
C268 C 0.16202 0.47873 1.02985 0.0
C269 C 0.12222 0.47976 0.14938 0.0
O270 O 0.15878 0.44359 0.22361 0.0
O271 O 0.13713 0.44801 0.29253 0.0
O272 O 0.1572 0.46172 0.05673 0.0
O273 O 0.16386 0.48911 0.10119 0.0
O274 O 0.12697 0.46697 0.18028 0.0
O275 O 0.136 0.49826 0.13924 0.0
C276 C 0.1768 0.54787 0.11417 0.0
O277 O 0.16014 0.53115 0.09498 0.0
O278 O 0.18943 0.54555 0.16839 0.0
C279 C 0.16457 0.50567 0.35429 0.0
Tb280 Tb 0.56769 0.71984 0.26475 0.0
C281 C 0.53332 0.67715 0.21571 0.0
Tb282 Tb 0.58037 0.69083 0.22248 0.0
O283 O 0.55667 0.7173 0.12083 0.0
O284 O 0.58186 0.71418 0.15306 0.0
O285 O 0.53819 0.69299 0.26986 0.0
C286 C 0.58593 0.66308 0.14291 0.0
O287 O 0.54763 0.67464 0.17957 0.0
C288 C 0.5794 0.6981 0.39945 0.0
C289 C 0.61542 0.7329 0.27823 0.0
O290 O 0.58297 0.6647 0.22851 0.0
O291 O 0.586 0.6772 0.10225 0.0
O292 O 0.59202 0.69341 0.36491 0.0
O293 O 0.56672 0.69688 0.33581 0.0
O294 O 0.6107 0.71631 0.2318 0.0
O295 O 0.60112 0.73686 0.30385 0.0
C296 C 0.56035 0.74786 0.32762 0.0
O297 O 0.57132 0.74207 0.37227 0.0
O298 O 0.55355 0.73781 0.24903 0.0
C299 C 0.56959 0.71297 0.08794 0.0
Tb300 Tb 0.34859 0.4683 0.24193 0.0
C301 C 0.39402 0.48083 0.21053 0.0
Tb302 Tb 0.37997 0.51233 0.22452 0.0
O303 O 0.35129 0.46045 0.1003 0.0
O304 O 0.35648 0.4883 0.13706 0.0
O305 O 0.37751 0.46857 0.25067 0.0
C306 C 0.40494 0.54787 0.17275 0.0
O307 O 0.39713 0.49791 0.18599 0.0
C308 C 0.37795 0.50386 0.40006 0.0
C309 C 0.33314 0.49864 0.24069 0.0
O310 O 0.4058 0.53232 0.14966 0.0
O311 O 0.38967 0.54322 0.22276 0.0
O312 O 0.39018 0.52085 0.37308 0.0
O313 O 0.36875 0.49316 0.32778 0.0
O314 O 0.35066 0.51178 0.20937 0.0
O315 O 0.33005 0.48169 0.26688 0.0
C316 C 0.32314 0.43425 0.30557 0.0
O317 O 0.3196 0.44026 0.22955 0.0
O318 O 0.34091 0.44734 0.3448 0.0
C319 C 0.35757 0.47768 0.07268 0.0
Tb320 Tb 0.58164 0.95008 0.28538 0.0
C321 C 0.61681 0.94101 0.33357 0.0
Tb322 Tb 0.56999 0.90695 0.31161 0.0
O323 O 0.59162 0.95919 0.4315 0.0
O324 O 0.57006 0.9303 0.39053 0.0
O325 O 0.61162 0.95265 0.29327 0.0
C326 C 0.56183 0.87339 0.37876 0.0
O327 O 0.60308 0.92328 0.35444 0.0
C328 C 0.57557 0.91502 0.13585 0.0
C329 C 0.53487 0.91699 0.27045 0.0
O330 O 0.57846 0.89009 0.39926 0.0
O331 O 0.54963 0.87572 0.32184 0.0
O332 O 0.5709 0.8983 0.16531 0.0
O333 O 0.57726 0.92555 0.20622 0.0
O334 O 0.53984 0.90501 0.31029 0.0
O335 O 0.54888 0.93411 0.24441 0.0
C336 C 0.59053 0.98232 0.20417 0.0
O337 O 0.57721 0.97502 0.26512 0.0
O338 O 0.59878 0.97161 0.19063 0.0
C339 C 0.58156 0.9417 0.45846 0.0
Tb340 Tb 0.13858 0.71806 0.32809 0.0
C341 C 0.10715 0.67556 0.25535 0.0
Tb342 Tb 0.15497 0.69127 0.28894 0.0
O343 O 0.12724 0.71559 0.18506 0.0
O344 O 0.15285 0.71272 0.21591 0.0
O345 O 0.10964 0.69085 0.30688 0.0
C346 C 0.16272 0.66371 0.2255 0.0
O347 O 0.12299 0.674 0.23072 0.0
C348 C 0.15329 0.69889 0.46479 0.0
C349 C 0.18688 0.73521 0.33828 0.0
O350 O 0.14908 0.66144 0.2816 0.0
O351 O 0.17228 0.68168 0.20513 0.0
O352 O 0.16688 0.69531 0.43263 0.0
O353 O 0.14038 0.69635 0.3996 0.0
O354 O 0.18386 0.71875 0.29579 0.0
O355 O 0.17147 0.73722 0.36579 0.0
C356 C 0.12693 0.74131 0.41067 0.0
O357 O 0.13382 0.74311 0.3301 0.0
O358 O 0.12678 0.72653 0.44484 0.0
C359 C 0.14014 0.71114 0.15146 0.0
H360 H 0.12409 0.42547 0.43266 0.0
H361 H 0.1458 0.40461 0.21133 0.0
H362 H 0.10782 0.39318 0.49069 0.0
H363 H 0.12885 0.37202 0.26799 0.0
H364 H 0.06506 0.31561 0.34473 0.0
H365 H 0.08656 0.34759 0.28744 0.0
H366 H 0.12176 0.36875 0.55043 0.0
H367 H 0.10071 0.33665 0.60699 0.0
C368 C 0.12547 0.41398 0.39694 0.0
C369 C 0.13614 0.41741 0.31773 0.0
C370 C 0.11625 0.39559 0.43021 0.0
C371 C 0.11713 0.38024 0.38351 0.0
C372 C 0.12801 0.38371 0.30488 0.0
C373 C 0.13772 0.40228 0.27287 0.0
C374 C 0.07757 0.32704 0.38972 0.0
C375 C 0.08125 0.32379 0.4802 0.0
C376 C 0.08988 0.34523 0.35689 0.0
C377 C 0.10573 0.36049 0.41477 0.0
C378 C 0.10961 0.35713 0.50475 0.0
C379 C 0.09761 0.33883 0.53688 0.0
H380 H 0.74959 0.80438 0.37463 0.0
H381 H 0.72665 0.76752 0.5975 0.0
H382 H 0.71427 0.79328 0.31445 0.0
H383 H 0.69138 0.75682 0.53823 0.0
H384 H 0.63129 0.75532 0.44068 0.0
H385 H 0.66736 0.77241 0.50339 0.0
H386 H 0.68476 0.75735 0.24921 0.0
H387 H 0.64876 0.73986 0.18756 0.0
C388 C 0.73703 0.79417 0.41163 0.0
C389 C 0.74089 0.78676 0.49067 0.0
C390 C 0.71685 0.78781 0.37699 0.0
C391 C 0.70015 0.77428 0.42196 0.0
C392 C 0.704 0.76741 0.50281 0.0
C393 C 0.72416 0.77343 0.5363 0.0
C394 C 0.6429 0.7561 0.39755 0.0
C395 C 0.63728 0.74634 0.30921 0.0
C396 C 0.66347 0.76571 0.43367 0.0
C397 C 0.67878 0.76613 0.38111 0.0
C398 C 0.67327 0.75734 0.2909 0.0
C399 C 0.6527 0.74734 0.25571 0.0
H400 H 0.24827 0.94768 0.53294 0.0
H401 H 0.27047 0.98761 0.32174 0.0
H402 H 0.26819 0.933 0.48052 0.0
H403 H 0.28969 0.97258 0.26692 0.0
H404 H 0.29806 0.90321 0.32426 0.0
H405 H 0.27408 0.91421 0.36341 0.0
H406 H 0.32005 0.97325 0.32136 0.0
H407 H 0.3435 0.96234 0.28016 0.0
C408 C 0.25706 0.95301 0.47402 0.0
C409 C 0.25803 0.9689 0.43193 0.0
C410 C 0.26842 0.94457 0.44372 0.0
C411 C 0.28086 0.95179 0.37033 0.0
C412 C 0.28076 0.96696 0.32515 0.0
C413 C 0.2696 0.97549 0.35601 0.0
C414 C 0.30296 0.91852 0.32303 0.0
C415 C 0.32271 0.93184 0.29851 0.0
C416 C 0.28924 0.92484 0.34582 0.0
C417 C 0.295 0.94461 0.3447 0.0
C418 C 0.3148 0.95785 0.32079 0.0
C419 C 0.32839 0.95156 0.29774 0.0
H420 H 0.29301 0.08638 0.5928 0.0
H421 H 0.30137 0.03859 0.66167 0.0
H422 H 0.33057 0.10817 0.6064 0.0
H423 H 0.33819 0.06006 0.67897 0.0
H424 H 0.40188 0.09298 0.60391 0.0
H425 H 0.3647 0.07497 0.58423 0.0
H426 H 0.36326 0.12516 0.70118 0.0
H427 H 0.40114 0.14365 0.71676 0.0
C428 C 0.30281 0.08059 0.61206 0.0
C429 C 0.29415 0.06064 0.62449 0.0
C430 C 0.32436 0.09307 0.62001 0.0
C431 C 0.33766 0.08588 0.64145 0.0
C432 C 0.32872 0.06614 0.65876 0.0
C433 C 0.30744 0.05375 0.64954 0.0
C434 C 0.39368 0.10029 0.62465 0.0
C435 C 0.40449 0.11969 0.6627 0.0
C436 C 0.37223 0.08987 0.61426 0.0
C437 C 0.36069 0.09829 0.64367 0.0
C438 C 0.37151 0.11809 0.67793 0.0
C439 C 0.39322 0.12873 0.6869 0.0
H440 H 0.91868 0.31548 0.57472 0.0
H441 H 0.95381 0.33562 0.83801 0.0
H442 H 0.93201 0.29331 0.54682 0.0
H443 H 0.96669 0.3132 0.81105 0.0
H444 H 0.97371 0.25889 0.75741 0.0
H445 H 0.95479 0.27615 0.78616 0.0
H446 H 0.9686 0.29952 0.52256 0.0
H447 H 0.98785 0.28281 0.4952 0.0
C448 C 0.92892 0.31493 0.62739 0.0
C449 C 0.93516 0.3274 0.70859 0.0
C450 C 0.93665 0.30229 0.61121 0.0
C451 C 0.95043 0.30141 0.67674 0.0
C452 C 0.95599 0.31332 0.75942 0.0
C453 C 0.94866 0.32627 0.77465 0.0
C454 C 0.97233 0.26739 0.70494 0.0
C455 C 0.98223 0.26938 0.62381 0.0
C456 C 0.96164 0.27742 0.72168 0.0
C457 C 0.96015 0.28926 0.65666 0.0
C458 C 0.96925 0.29044 0.57383 0.0
C459 C 0.98033 0.28086 0.55822 0.0
H460 H 0.79421 0.71817 0.61667 0.0
H461 H 0.743 0.72159 0.71395 0.0
H462 H 0.7773 0.68367 0.6447 0.0
H463 H 0.72563 0.68713 0.7381 0.0
H464 H 0.70322 0.62877 0.84102 0.0
H465 H 0.72401 0.66347 0.82704 0.0
H466 H 0.75074 0.65196 0.59466 0.0
H467 H 0.73041 0.61696 0.61227 0.0
C468 C 0.77935 0.71154 0.64435 0.0
C469 C 0.77003 0.72269 0.66371 0.0
C470 C 0.7695 0.69165 0.65965 0.0
C471 C 0.74996 0.68229 0.69407 0.0
C472 C 0.74081 0.69365 0.71366 0.0
C473 C 0.75073 0.71352 0.69929 0.0
C474 C 0.71372 0.63363 0.7875 0.0
C475 C 0.71504 0.62 0.72752 0.0
C476 C 0.72556 0.65365 0.77872 0.0
C477 C 0.7389 0.66084 0.70831 0.0
C478 C 0.74082 0.6472 0.65022 0.0
C479 C 0.72913 0.62705 0.66012 0.0
H480 H 0.98979 0.73018 0.77656 0.0
H481 H 0.93574 0.71679 0.60359 0.0
H482 H 0.97593 0.69578 0.7949 0.0
H483 H 0.92105 0.6822 0.6258 0.0
H484 H 0.90956 0.61927 0.60815 0.0
H485 H 0.9214 0.65362 0.59061 0.0
H486 H 0.95324 0.66887 0.86185 0.0
H487 H 0.94243 0.63491 0.87615 0.0
C488 C 0.9747 0.71985 0.74378 0.0
C489 C 0.96386 0.72627 0.68893 0.0
C490 C 0.96658 0.69998 0.75475 0.0
C491 C 0.94712 0.68581 0.71255 0.0
C492 C 0.93616 0.69239 0.65856 0.0
C493 C 0.94448 0.71231 0.64642 0.0
C494 C 0.91898 0.63001 0.6641 0.0
C495 C 0.92516 0.62431 0.7432 0.0
C496 C 0.92577 0.64981 0.65435 0.0
C497 C 0.93867 0.66443 0.72418 0.0
C498 C 0.94398 0.65841 0.80488 0.0
C499 C 0.93756 0.63877 0.81369 0.0
H500 H 0.29676 0.27452 0.50856 0.0
H501 H 0.29216 0.25464 0.77971 0.0
H502 H 0.33429 0.29197 0.53338 0.0
H503 H 0.32989 0.27273 0.80583 0.0
H504 H 0.3932 0.33461 0.83774 0.0
H505 H 0.35625 0.3114 0.81452 0.0
H506 H 0.36555 0.28555 0.5692 0.0
H507 H 0.40274 0.30843 0.59392 0.0
C508 C 0.30379 0.27359 0.57293 0.0
C509 C 0.29145 0.26304 0.64187 0.0
C510 C 0.32531 0.28359 0.58712 0.0
C511 C 0.33511 0.28381 0.67165 0.0
C512 C 0.3228 0.27286 0.73996 0.0
C513 C 0.30121 0.26236 0.72476 0.0
C514 C 0.38744 0.32382 0.77943 0.0
C515 C 0.401 0.32342 0.71769 0.0
C516 C 0.36625 0.31044 0.76646 0.0
C517 C 0.35792 0.29659 0.69011 0.0
C518 C 0.37148 0.29603 0.62875 0.0
C519 C 0.39279 0.3091 0.64309 0.0
H520 H 0.739 0.15219 0.65214 0.0
H521 H 0.70803 0.11702 0.87083 0.0
H522 H 0.75992 0.13663 0.64289 0.0
H523 H 0.72933 0.10221 0.86503 0.0
H524 H 0.75067 0.06134 0.75735 0.0
H525 H 0.73263 0.07926 0.77636 0.0
H526 H 0.78613 0.13156 0.70583 0.0
H527 H 0.80383 0.11315 0.68297 0.0
C528 C 0.73692 0.14141 0.69935 0.0
C529 C 0.72166 0.13571 0.7614 0.0
C530 C 0.74898 0.13249 0.6944 0.0
C531 C 0.74624 0.11782 0.75227 0.0
C532 C 0.73159 0.11292 0.81719 0.0
C533 C 0.71941 0.12157 0.82108 0.0
C534 C 0.75867 0.07672 0.74696 0.0
C535 C 0.77871 0.08582 0.719 0.0
C536 C 0.74834 0.08711 0.75826 0.0
C537 C 0.75781 0.10703 0.74299 0.0
C538 C 0.77812 0.11623 0.71703 0.0
C539 C 0.7884 0.10573 0.70487 0.0
H540 H 0.64601 0.97912 0.36203 0.0
H541 H 0.63763 0.92148 0.37236 0.0
H542 H 0.68194 0.99337 0.41154 0.0
H543 H 0.67443 0.93593 0.41829 0.0
H544 H 0.73814 0.97159 0.59296 0.0
H545 H 0.70153 0.95381 0.53743 0.0
H546 H 0.71269 0.99924 0.35894 0.0
H547 H 0.74851 0.01721 0.41881 0.0
C548 C 0.65195 0.96943 0.37322 0.0
C549 C 0.63894 0.94913 0.3619 0.0
C550 C 0.67273 0.97765 0.40127 0.0
C551 C 0.6814 0.96588 0.41724 0.0
C552 C 0.66835 0.94549 0.40692 0.0
C553 C 0.64729 0.93719 0.38009 0.0
C554 C 0.73261 0.97754 0.54132 0.0
C555 C 0.74592 0.9958 0.51074 0.0
C556 C 0.71169 0.96738 0.50916 0.0
C557 C 0.70391 0.97524 0.44496 0.0
C558 C 0.71779 0.99298 0.41068 0.0
C559 C 0.73841 0.00324 0.44418 0.0
H560 H 0.03763 0.76233 0.64029 0.0
H561 H 0.07906 0.81881 0.54918 0.0
H562 H 0.06107 0.75115 0.60102 0.0
H563 H 0.10292 0.80765 0.51178 0.0
H564 H 0.12232 0.76973 0.33608 0.0
H565 H 0.10396 0.78535 0.39587 0.0
H566 H 0.09383 0.75406 0.63889 0.0
H567 H 0.11172 0.7381 0.57764 0.0
C568 C 0.0519 0.7725 0.61315 0.0
C569 C 0.05635 0.79145 0.59725 0.0
C570 C 0.06546 0.7661 0.59122 0.0
C571 C 0.0839 0.77848 0.55304 0.0
C572 C 0.08872 0.79767 0.54001 0.0
C573 C 0.0751 0.8041 0.56201 0.0
C574 C 0.11639 0.76642 0.40279 0.0
C575 C 0.11824 0.75259 0.45189 0.0
C576 C 0.10597 0.77544 0.43738 0.0
C577 C 0.09724 0.77084 0.5219 0.0
C578 C 0.10003 0.75768 0.57285 0.0
C579 C 0.11038 0.74862 0.53809 0.0
H580 H 0.29126 0.40137 0.21327 0.0
H581 H 0.32498 0.42461 0.4786 0.0
H582 H 0.27176 0.36915 0.27079 0.0
H583 H 0.30502 0.39294 0.53754 0.0
H584 H 0.28799 0.33138 0.58064 0.0
H585 H 0.30418 0.36314 0.52155 0.0
H586 H 0.24683 0.34836 0.37079 0.0
H587 H 0.23076 0.31587 0.42797 0.0
C588 C 0.29422 0.39962 0.28428 0.0
C589 C 0.30977 0.41532 0.34128 0.0
C590 C 0.283 0.38122 0.31745 0.0
C591 C 0.28702 0.37832 0.40851 0.0
C592 C 0.30189 0.39443 0.46635 0.0
C593 C 0.31326 0.41264 0.43286 0.0
C594 C 0.27879 0.33489 0.53504 0.0
C595 C 0.25809 0.32122 0.50927 0.0
C596 C 0.28804 0.35321 0.50161 0.0
C597 C 0.27677 0.35852 0.44238 0.0
C598 C 0.256 0.34475 0.41592 0.0
C599 C 0.24675 0.3262 0.44893 0.0
H600 H 0.01306 0.4406 0.78761 0.0
H601 H 0.98938 0.41139 1.03149 0.0
H602 H 0.04732 0.4595 0.8686 0.0
H603 H 0.02327 0.43069 0.11359 0.0
H604 H 0.10549 0.49815 0.05371 0.0
H605 H 0.06993 0.48406 0.98949 0.0
H606 H 0.0544 0.4302 0.10817 0.0
H607 H 0.08939 0.44429 0.17408 0.0
C608 C 0.01515 0.43852 0.85903 0.0
C609 C 0.99874 0.42439 0.90307 0.0
C610 C 0.03471 0.44942 0.90568 0.0
C611 C 0.03812 0.44646 0.99739 0.0
C612 C 0.02132 0.43303 0.04247 0.0
C613 C 1.00188 0.42203 0.99562 0.0
C614 C 0.09438 0.48342 0.06739 0.0
C615 C 0.10037 0.47234 0.11874 0.0
C616 C 0.07404 0.4753 1.02993 0.0
C617 C 0.05929 0.45597 0.04337 0.0
C618 C 0.06521 0.44521 0.09742 0.0
C619 C 0.08542 0.45328 0.13475 0.0
H620 H 0.59726 0.57752 0.78821 0.0
H621 H 0.64609 0.60061 1.00612 0.0
H622 H 0.58239 0.59542 0.86274 0.0
H623 H 0.63122 0.61816 0.08072 0.0
H624 H 0.59091 0.63585 0.22682 0.0
H625 H 0.59896 0.61223 0.15623 0.0
H626 H 0.5964 0.6326 0.89069 0.0
H627 H 0.58847 0.65632 0.9614 0.0
C628 C 0.60455 0.58612 0.85275 0.0
C629 C 0.62282 0.58784 0.89143 0.0
C630 C 0.59614 0.59639 0.895 0.0
C631 C 0.6057 0.60815 0.97732 0.0
C632 C 0.62344 0.60907 1.0178 0.0
C633 C 0.632 0.59913 0.97488 0.0
C634 C 0.59188 0.63513 0.15329 0.0
C635 C 0.58929 0.64797 0.09948 0.0
C636 C 0.59647 0.62164 0.11302 0.0
C637 C 0.59829 0.62063 1.01815 0.0
C638 C 0.59486 0.63296 0.96384 0.0
C639 C 0.5905 0.6466 1.00431 0.0
H640 H 0.43066 0.08003 0.95471 0.0
H641 H 0.46865 0.0651 0.79814 0.0
H642 H 0.41943 0.05088 0.03606 0.0
H643 H 0.45724 0.03561 0.88013 0.0
H644 H 0.4423 0.99361 0.12106 0.0
H645 H 0.45765 0.02414 0.04477 0.0
H646 H 0.39709 0.01552 0.97871 0.0
H647 H 0.38196 0.98542 0.05379 0.0
C648 C 0.43667 0.07052 0.93798 0.0
C649 C 0.45029 0.07463 0.86939 0.0
C650 C 0.43023 0.05384 0.98449 0.0
C651 C 0.43731 0.04091 0.96365 0.0
C652 C 0.45161 0.04539 0.8976 0.0
C653 C 0.45802 0.06214 0.85047 0.0
C654 C 0.43239 0.99833 0.08998 0.0
C655 C 0.411 0.9873 0.09376 0.0
C656 C 0.44112 0.01568 0.04619 0.0
C657 C 0.42854 0.02225 1.00681 0.0
C658 C 0.40717 0.01098 1.00979 0.0
C659 C 0.39851 0.9937 0.0525 0.0
H660 H 0.60103 0.073 0.85486 0.0
H661 H 0.65951 0.09485 1.01083 0.0
H662 H 0.58653 0.04347 0.9391 0.0
H663 H 0.64522 0.0656 0.09286 0.0
H664 H 0.62161 1.0 0.09605 0.0
H665 H 0.6317 0.02939 1.01805 0.0
H666 H 0.58156 0.03374 0.12313 0.0
H667 H 0.57147 0.00412 0.20344 0.0
C668 C 0.61066 0.07157 0.90751 0.0
C669 C 0.63142 0.08605 0.92569 0.0
C670 C 0.60238 0.0548 0.95576 0.0
C671 C 0.61486 0.05231 1.02173 0.0
C672 C 0.63535 0.06714 0.04178 0.0
C673 C 0.6435 0.08385 0.99468 0.0
C674 C 0.61269 0.00717 0.10269 0.0
C675 C 0.59589 0.99992 0.15646 0.0
C676 C 0.61847 0.02398 0.058 0.0
C677 C 0.60744 0.0338 0.06503 0.0
C678 C 0.59024 0.02633 0.11666 0.0
C679 C 0.58458 0.00954 0.16284 0.0
H680 H 0.094 0.6391 0.17291 0.0
H681 H 0.07312 0.67931 0.2443 0.0
H682 H 0.06058 0.61702 0.08889 0.0
H683 H 0.04005 0.6574 0.15942 0.0
H684 H 1.00184 0.62917 0.87917 0.0
H685 H 0.03349 0.64789 0.97879 0.0
H686 H 0.01951 0.59674 0.11869 0.0
H687 H 0.98727 0.57788 1.01943 0.0
C688 C 0.08223 0.6431 0.17179 0.0
C689 C 0.08626 0.661 0.21491 0.0
C690 C 0.06311 0.63043 0.12407 0.0
C691 C 0.04788 0.63562 0.11741 0.0
C692 C 0.05163 0.65315 0.16328 0.0
C693 C 0.07054 0.66563 0.21216 0.0
C694 C 0.0055 0.62186 0.93093 0.0
C695 C 0.99213 0.60209 0.94176 0.0
C696 C 0.02355 0.63261 0.98819 0.0
C697 C 0.02879 0.62376 0.05666 0.0
C698 C 0.01573 0.60385 0.06628 0.0
C699 C 0.99737 0.59311 1.00975 0.0
H700 H 0.42027 0.49394 0.07437 0.0
H701 H 0.39745 0.45059 0.27095 0.0
H702 H 0.43576 0.47712 0.99815 0.0
H703 H 0.41333 0.43407 0.19617 0.0
H704 H 0.41377 0.39459 0.95888 0.0
H705 H 0.40431 0.41454 0.05235 0.0
H706 H 0.46076 0.46615 1.00113 0.0
H707 H 0.47003 0.44601 0.90554 0.0
C708 C 0.4191 0.48117 0.10312 0.0
C709 C 0.40741 0.47349 0.17818 0.0
C710 C 0.42798 0.4715 0.05927 0.0
C711 C 0.42544 0.45401 0.08988 0.0
C712 C 0.41512 0.44722 0.16931 0.0
C713 C 0.40616 0.45679 0.21269 0.0
C714 C 0.42418 0.41019 0.96771 0.0
C715 C 0.44258 0.41877 0.92475 0.0
C716 C 0.41887 0.42164 1.02208 0.0
C717 C 0.43185 0.44197 0.03506 0.0
C718 C 0.45036 0.45056 0.99219 0.0
C719 C 0.4557 0.43905 0.93769 0.0
H720 H 0.09363 0.26396 0.55142 0.0
H721 H 0.05749 0.20729 0.65177 0.0
H722 H 0.12317 0.26 0.55523 0.0
H723 H 0.08779 0.2031 0.65345 0.0
H724 H 0.15707 0.21672 0.731 0.0
H725 H 0.12355 0.21516 0.72755 0.0
H726 H 0.13572 0.2425 0.47268 0.0
H727 H 0.16895 0.2446 0.47803 0.0
C728 C 0.09177 0.25044 0.57371 0.0
C729 C 0.07277 0.23589 0.60059 0.0
C730 C 0.10895 0.24812 0.57522 0.0
C731 C 0.10804 0.23107 0.60303 0.0
C732 C 0.08917 0.21646 0.63144 0.0
C733 C 0.07172 0.21881 0.62995 0.0
C734 C 0.15237 0.2221 0.67368 0.0
C735 C 0.1659 0.23106 0.60548 0.0
C736 C 0.13312 0.22121 0.6716 0.0
C737 C 0.12695 0.22913 0.60094 0.0
C738 C 0.14003 0.2368 0.52993 0.0
C739 C 0.15915 0.2379 0.53263 0.0
H740 H 0.79528 0.95663 0.40805 0.0
H741 H 0.85068 0.98193 0.58977 0.0
H742 H 0.79521 0.92592 0.39311 0.0
H743 H 0.85045 0.95104 0.57688 0.0
H744 H 0.85072 0.89447 0.49583 0.0
H745 H 0.85384 0.92661 0.48656 0.0
H746 H 0.7879 0.89983 0.48433 0.0
H747 H 0.78491 0.86811 0.49183 0.0
C748 C 0.80761 0.95571 0.44406 0.0
C749 C 0.82296 0.97179 0.5002 0.0
C750 C 0.80749 0.93798 0.43625 0.0
C751 C 0.82268 0.9357 0.48472 0.0
C752 C 0.83855 0.95211 0.53783 0.0
C753 C 0.83867 0.96988 0.54549 0.0
C754 C 0.83692 0.8955 0.49198 0.0
C755 C 0.81757 0.87866 0.49425 0.0
C756 C 0.83869 0.91395 0.48746 0.0
C757 C 0.82112 0.91603 0.48449 0.0
C758 C 0.8018 0.89901 0.48482 0.0
C759 C 0.80008 0.88071 0.48968 0.0
H760 H 0.07364 0.89509 0.73152 0.0
H761 H 0.07248 0.87988 0.44378 0.0
H762 H 0.10548 0.92591 0.72185 0.0
H763 H 0.10402 0.91088 0.43296 0.0
H764 H 0.17321 0.95395 0.47288 0.0
H765 H 0.13948 0.92557 0.47707 0.0
H766 H 0.12323 0.95784 0.66745 0.0
H767 H 0.15759 0.98646 0.66488 0.0
C768 C 0.07999 0.89849 0.66567 0.0
C769 C 0.07049 0.88494 0.58848 0.0
C770 C 0.09828 0.91626 0.65995 0.0
C771 C 0.10767 0.92104 0.57677 0.0
C772 C 0.09764 0.90771 0.4988 0.0
C773 C 0.07938 0.88994 0.50464 0.0
C774 C 0.16252 0.9552 0.51551 0.0
C775 C 0.16839 0.97271 0.56875 0.0
C776 C 0.14292 0.93879 0.51729 0.0
C777 C 0.12832 0.93918 0.57234 0.0
C778 C 0.13402 0.95679 0.62476 0.0
C779 C 0.15373 0.97332 0.62281 0.0
H780 H 0.23685 0.17991 0.8154 0.0
H781 H 0.18712 0.15276 0.60219 0.0
H782 H 0.23601 0.14901 0.82719 0.0
H783 H 0.18683 0.12218 0.60997 0.0
H784 H 0.18243 0.06529 0.6639 0.0
H785 H 0.17986 0.09464 0.68324 0.0
H786 H 0.24553 0.12893 0.75105 0.0
H787 H 0.24772 0.09947 0.7362 0.0
C788 C 0.22562 0.16727 0.77149 0.0
C789 C 0.21205 0.16879 0.70794 0.0
C790 C 0.22526 0.14953 0.7774 0.0
C791 C 0.21149 0.13288 0.71889 0.0
C792 C 0.19748 0.1344 0.65738 0.0
C793 C 0.19769 0.15205 0.65244 0.0
C794 C 0.19622 0.07908 0.68468 0.0
C795 C 0.21526 0.08004 0.69855 0.0
C796 C 0.19482 0.09602 0.69482 0.0
C797 C 0.21251 0.11445 0.71783 0.0
C798 C 0.23145 0.11516 0.73465 0.0
C799 C 0.23277 0.0982 0.72567 0.0
H800 H 0.86756 0.08912 0.78182 0.0
H801 H 0.87706 0.07223 0.51219 0.0
H802 H 0.90071 0.11936 0.78785 0.0
H803 H 0.91008 0.10277 0.51752 0.0
H804 H 0.94425 0.17136 0.51648 0.0
H805 H 0.91577 0.13821 0.51977 0.0
H806 H 0.94131 0.13386 0.78153 0.0
H807 H 0.97053 0.16726 0.7769 0.0
C808 C 0.87692 0.0917 0.72451 0.0
C809 C 0.86964 0.07826 0.6464 0.0
C810 C 0.89595 0.109 0.72822 0.0
C811 C 0.90798 0.11351 0.65306 0.0
C812 C 0.90112 0.09971 0.57646 0.0
C813 C 0.88227 0.08217 0.57359 0.0
C814 C 0.94393 0.16335 0.57471 0.0
C815 C 0.95963 0.17198 0.64665 0.0
C816 C 0.92766 0.14427 0.57611 0.0
C817 C 0.92633 0.13333 0.65047 0.0
C818 C 0.94197 0.14193 0.7231 0.0
C819 C 0.95865 0.161 0.72057 0.0
H820 H 0.94866 0.80137 0.7536 0.0
H821 H 0.96756 0.83459 0.51729 0.0
H822 H 0.91736 0.80298 0.74785 0.0
H823 H 0.93548 0.83557 0.50869 0.0
H824 H 0.87861 0.84245 0.55671 0.0
H825 H 0.91297 0.84612 0.57186 0.0
H826 H 0.88639 0.78763 0.65556 0.0
H827 H 0.85276 0.78424 0.6435 0.0
C828 C 0.94612 0.80908 0.70027 0.0
C829 C 0.96054 0.81767 0.63533 0.0
C830 C 0.92802 0.80989 0.69644 0.0
C831 C 0.92345 0.81897 0.62631 0.0
C832 C 0.93838 0.82845 0.56377 0.0
C833 C 0.95678 0.82788 0.56854 0.0
C834 C 0.88018 0.83046 0.57897 0.0
C835 C 0.86278 0.81312 0.59972 0.0
C836 C 0.8999 0.83252 0.58717 0.0
C837 C 0.90268 0.81729 0.61626 0.0
C838 C 0.88516 0.79995 0.6356 0.0
C839 C 0.86566 0.79795 0.62796 0.0
H840 H 0.81758 0.52145 0.59069 0.0
H841 H 0.84055 0.5789 0.72452 0.0
H842 H 0.78333 0.51802 0.56402 0.0
H843 H 0.8069 0.57568 0.69699 0.0
H844 H 0.75034 0.57268 0.57161 0.0
H845 H 0.78272 0.57292 0.56403 0.0
H846 H 0.75543 0.51635 0.66959 0.0
H847 H 0.72288 0.51614 0.6775 0.0
C848 C 0.81538 0.5334 0.61317 0.0
C849 C 0.83171 0.55044 0.65967 0.0
C850 C 0.79581 0.53141 0.59838 0.0
C851 C 0.79243 0.54663 0.62793 0.0
C852 C 0.809 0.56379 0.67223 0.0
C853 C 0.82828 0.56559 0.68845 0.0
C854 C 0.75109 0.5601 0.59144 0.0
C855 C 0.73411 0.54446 0.62587 0.0
C856 C 0.76967 0.56028 0.58743 0.0
C857 C 0.77172 0.54475 0.61715 0.0
C858 C 0.75432 0.52849 0.6458 0.0
C859 C 0.73571 0.52839 0.65054 0.0
H860 H 0.51378 0.32266 0.6829 0.0
H861 H 0.45051 0.28843 0.57288 0.0
H862 H 0.51701 0.29359 0.67149 0.0
H863 H 0.45346 0.25926 0.56371 0.0
H864 H 0.46637 0.21018 0.51318 0.0
H865 H 0.46761 0.24115 0.49544 0.0
H866 H 0.50533 0.26505 0.75206 0.0
H867 H 0.50446 0.23433 0.76801 0.0
C868 C 0.50064 0.30895 0.65499 0.0
C869 C 0.48188 0.30781 0.62901 0.0
C870 C 0.50242 0.29223 0.64925 0.0
C871 C 0.48543 0.27393 0.61771 0.0
C872 C 0.46695 0.27305 0.58751 0.0
C873 C 0.46521 0.28979 0.59302 0.0
C874 C 0.47518 0.22219 0.56491 0.0
C875 C 0.48528 0.21983 0.64205 0.0
C876 C 0.47578 0.23991 0.55519 0.0
C877 C 0.48647 0.25568 0.62253 0.0
C878 C 0.49717 0.25342 0.69804 0.0
C879 C 0.49659 0.23574 0.70757 0.0
H880 H 0.73046 0.24785 0.74897 0.0
H881 H 0.75546 0.21762 0.59904 0.0
H882 H 0.76074 0.27899 0.72605 0.0
H883 H 0.78623 0.24844 0.58052 0.0
H884 H 0.838 0.30655 0.52388 0.0
H885 H 0.80355 0.27792 0.51673 0.0
H886 H 0.79465 0.29785 0.78164 0.0
H887 H 0.82836 0.32671 0.78541 0.0
C888 C 0.74243 0.2479 0.71077 0.0
C889 C 0.74064 0.23032 0.67615 0.0
C890 C 0.75993 0.26576 0.69822 0.0
C891 C 0.77628 0.26645 0.65226 0.0
C892 C 0.77402 0.24874 0.61505 0.0
C893 C 0.75637 0.23096 0.62625 0.0
C894 C 0.82842 0.30494 0.57935 0.0
C895 C 0.83589 0.31884 0.65519 0.0
C896 C 0.80872 0.28841 0.57599 0.0
C897 C 0.79616 0.28524 0.64916 0.0
C898 C 0.8035 0.2997 0.7231 0.0
C899 C 0.823 0.3163 0.72567 0.0
H900 H 0.92782 0.51765 0.86228 0.0
H901 H 0.88095 0.49549 0.63617 0.0
H902 H 0.92732 0.48702 0.85663 0.0
H903 H 0.88078 0.46442 0.62897 0.0
H904 H 0.87702 0.40513 0.70063 0.0
H905 H 0.87347 0.43427 0.70322 0.0
H906 H 0.93912 0.47059 0.76119 0.0
H907 H 0.94257 0.44205 0.76075 0.0
C908 C 0.91739 0.50625 0.81072 0.0
C909 C 0.90463 0.50934 0.74883 0.0
C910 C 0.91718 0.48855 0.80718 0.0
C911 C 0.90435 0.47316 0.741 0.0
C912 C 0.89092 0.47586 0.68096 0.0
C913 C 0.89104 0.49373 0.68489 0.0
C914 C 0.89067 0.41936 0.71396 0.0
C915 C 0.91006 0.42102 0.73166 0.0
C916 C 0.88864 0.43612 0.71503 0.0
C917 C 0.90595 0.45497 0.73399 0.0
C918 C 0.92529 0.45647 0.74892 0.0
C919 C 0.92729 0.43991 0.74812 0.0
H920 H 0.53754 0.39867 0.66436 0.0
H921 H 0.51962 0.43353 0.82751 0.0
H922 H 0.57203 0.42726 0.66141 0.0
H923 H 0.55331 0.46173 0.82247 0.0
H924 H 0.61869 0.50637 0.87939 0.0
H925 H 0.58738 0.47528 0.88319 0.0
H926 H 0.59242 0.45939 0.60333 0.0
H927 H 0.62462 0.49071 0.6012 0.0
C928 C 0.54088 0.41234 0.69974 0.0
C929 C 0.52564 0.41356 0.74694 0.0
C930 C 0.56067 0.42881 0.69752 0.0
C931 C 0.56578 0.44695 0.74267 0.0
C932 C 0.55039 0.44806 0.78882 0.0
C933 C 0.53081 0.43173 0.79119 0.0
C934 C 0.61334 0.49616 0.8189 0.0
C935 C 0.62416 0.50116 0.73981 0.0
C936 C 0.59516 0.4783 0.82069 0.0
C937 C 0.58682 0.46482 0.74276 0.0
C938 C 0.59825 0.46932 0.66482 0.0
C939 C 0.61676 0.48727 0.66348 0.0
H940 H 0.62808 0.16719 0.89353 0.0
H941 H 0.63235 0.17573 0.6054 0.0
H942 H 0.59706 0.16941 0.88971 0.0
H943 H 0.60037 0.17704 0.59976 0.0
H944 H 0.54343 0.18509 0.63737 0.0
H945 H 0.57917 0.19174 0.645 0.0
H946 H 0.56332 0.14676 0.83089 0.0
H947 H 0.52868 0.14065 0.82545 0.0
C948 C 0.62249 0.16985 0.82942 0.0
C949 C 0.63263 0.17126 0.74985 0.0
C950 C 0.60453 0.17093 0.82682 0.0
C951 C 0.59573 0.17288 0.74383 0.0
C952 C 0.60662 0.17555 0.66497 0.0
C953 C 0.62496 0.17481 0.66807 0.0
C954 C 0.54777 0.17689 0.68081 0.0
C955 C 0.53302 0.16232 0.73065 0.0
C956 C 0.56821 0.18058 0.68464 0.0
C957 C 0.57436 0.16994 0.73931 0.0
C958 C 0.55954 0.15564 0.7896 0.0
C959 C 0.53939 0.15197 0.78561 0.0
H960 H 0.51997 0.93796 0.18944 0.0
H961 H 0.50013 0.88487 0.323 0.0
H962 H 0.48519 0.93163 0.17478 0.0
H963 H 0.46458 0.87814 0.30539 0.0
H964 H 0.40985 0.88987 0.35658 0.0
H965 H 0.44238 0.88981 0.36234 0.0
H966 H 0.45295 0.91149 0.0937 0.0
H967 H 0.4212 0.91238 0.09043 0.0
C968 C 0.50815 0.92474 0.21488 0.0
C969 C 0.51301 0.91194 0.25757 0.0
C970 C 0.488 0.921 0.20557 0.0
C971 C 0.47189 0.90423 0.23783 0.0
C972 C 0.4766 0.89124 0.28004 0.0
C973 C 0.49696 0.89504 0.28966 0.0
C974 C 0.41903 0.89428 0.29831 0.0
C975 C 0.41321 0.90143 0.22372 0.0
C976 C 0.43764 0.89421 0.30141 0.0
C977 C 0.45059 0.90107 0.22939 0.0
C978 C 0.44377 0.90671 0.15179 0.0
C979 C 0.42548 0.9071 0.14952 0.0
H980 H 0.19623 0.66698 0.14436 0.0
H981 H 0.13691 0.6251 0.22796 0.0
H982 H 0.20203 0.64023 0.09442 0.0
H983 H 0.14246 0.59864 0.17701 0.0
H984 H 0.14891 0.5538 1.0193 0.0
H985 H 0.14701 0.58354 1.02711 0.0
H986 H 0.20589 0.61417 0.18487 0.0
H987 H 0.2078 0.5843 0.1773 0.0
C988 C 0.18439 0.65208 0.15098 0.0
C989 C 0.16617 0.64802 0.19024 0.0
C990 C 0.1877 0.63684 0.12261 0.0
C991 C 0.17261 0.61739 0.13113 0.0
C992 C 0.15423 0.61346 0.1683 0.0
C993 C 0.15112 0.62861 0.19814 0.0
C994 C 0.16172 0.56701 0.05337 0.0
C995 C 0.17837 0.56672 0.09883 0.0
C996 C 0.16059 0.584 0.05808 0.0
C997 C 0.17615 0.60104 0.10777 0.0
C998 C 0.19371 0.60124 0.14595 0.0
C999 C 0.19479 0.58415 0.14174 0.0
H1000 H 0.50214 0.66482 0.33027 0.0
H1001 H 0.51631 0.65305 0.06093 0.0
H1002 H 0.46897 0.63444 0.30847 0.0
H1003 H 0.48307 0.62329 0.03725 0.0
H1004 H 0.44047 0.55947 0.09171 0.0
H1005 H 0.4696 0.59237 0.09415 0.0
H1006 H 0.43522 0.61481 0.23066 0.0
H1007 H 0.40621 0.58161 0.23046 0.0
C1008 C 0.49789 0.65601 0.26552 0.0
C1009 C 0.51185 0.66109 0.19787 0.0
C1010 C 0.47889 0.63862 0.25275 0.0
C1011 C 0.47347 0.62618 0.17161 0.0
C1012 C 0.48693 0.63216 0.10158 0.0
C1013 C 0.50594 0.6493 0.11489 0.0
C1014 C 0.43901 0.57147 0.12076 0.0
C1015 C 0.42113 0.568 0.16104 0.0
C1016 C 0.4557 0.59039 0.12192 0.0
C1017 C 0.45484 0.60634 0.16291 0.0
C1018 C 0.43654 0.60289 0.19975 0.0
C1019 C 0.41986 0.5839 0.19888 0.0
H1020 H 0.53773 0.75999 0.23365 0.0
H1021 H 0.57724 0.77347 0.48192 0.0
H1022 H 0.53614 0.78934 0.26559 0.0
H1023 H 0.57521 0.80292 0.51623 0.0
H1024 H 0.52706 0.83791 0.34914 0.0
H1025 H 0.52418 0.80611 0.35761 0.0
H1026 H 0.58823 0.83427 0.45832 0.0
H1027 H 0.59072 0.86597 0.45355 0.0
C1028 C 0.54578 0.7691 0.29622 0.0
C1029 C 0.55771 0.76452 0.35503 0.0
C1030 C 0.54473 0.7859 0.31512 0.0
C1031 C 0.55551 0.79859 0.39373 0.0
C1032 C 0.56688 0.79361 0.45458 0.0
C1033 C 0.56796 0.7767 0.43537 0.0
C1034 C 0.54036 0.83723 0.37515 0.0
C1035 C 0.55915 0.85435 0.39978 0.0
C1036 C 0.53879 0.81903 0.37934 0.0
C1037 C 0.55609 0.81757 0.40681 0.0
C1038 C 0.57454 0.83475 0.43732 0.0
C1039 C 0.57602 0.85296 0.43423 0.0
H1040 H 0.31755 0.8285 0.36782 0.0
H1041 H 0.27896 0.84767 0.23756 0.0
H1042 H 0.28667 0.79769 0.39576 0.0
H1043 H 0.2485 0.81742 0.26655 0.0
H1044 H 0.19833 0.77167 0.4128 0.0
H1045 H 0.2315 0.8012 0.41139 0.0
H1046 H 0.25633 0.76801 0.28701 0.0
H1047 H 0.22294 0.73817 0.28769 0.0
C1048 C 0.30251 0.82616 0.34588 0.0
C1049 C 0.30057 0.84038 0.30054 0.0
C1050 C 0.28493 0.8086 0.36154 0.0
C1051 C 0.26525 0.8053 0.33387 0.0
C1052 C 0.26346 0.81969 0.28961 0.0
C1053 C 0.2809 0.83695 0.27259 0.0
C1054 C 0.21086 0.7705 0.38617 0.0
C1055 C 0.20784 0.75254 0.34894 0.0
C1056 C 0.22986 0.78746 0.38546 0.0
C1057 C 0.24637 0.78688 0.34829 0.0
C1058 C 0.24384 0.76882 0.31635 0.0
C1059 C 0.2247 0.75178 0.31633 0.0
H1060 H 0.33113 0.53036 0.18583 0.0
H1061 H 0.29557 0.47517 0.30085 0.0
H1062 H 0.30165 0.53542 0.18778 0.0
H1063 H 0.26643 0.47999 0.30066 0.0
H1064 H 0.2215 0.49704 0.36505 0.0
H1065 H 0.25501 0.49957 0.37784 0.0
H1066 H 0.26673 0.52196 0.1109 0.0
H1067 H 0.23322 0.52008 0.09992 0.0
C1068 C 0.31712 0.51936 0.21171 0.0
C1069 C 0.31577 0.50237 0.24333 0.0
C1070 C 0.30022 0.52222 0.21243 0.0
C1071 C 0.28174 0.50821 0.24524 0.0
C1072 C 0.28054 0.49132 0.27692 0.0
C1073 C 0.29729 0.48847 0.27626 0.0
C1074 C 0.23139 0.50285 0.30983 0.0
C1075 C 0.2247 0.50811 0.23094 0.0
C1076 C 0.25055 0.50421 0.31688 0.0
C1077 C 0.26333 0.5105 0.24437 0.0
C1078 C 0.25725 0.51707 0.16799 0.0
C1079 C 0.23808 0.51597 0.16156 0.0
H1080 H 0.04836 0.26648 0.36249 0.0
H1081 H 0.98872 0.21639 0.28343 0.0
H1082 H 0.053 0.27305 0.20096 0.0
H1083 H 0.99286 0.22306 0.12339 0.0
H1084 H 0.01321 0.22849 0.83236 0.0
H1085 H 0.00916 0.22194 0.99405 0.0
H1086 H 0.0432 0.28385 0.07275 0.0
H1087 H 0.04782 0.29012 0.91232 0.0
C1088 C 0.03609 0.25712 0.31082 0.0
C1089 C 0.0181 0.24107 0.33599 0.0
C1090 C 0.0387 0.26081 0.21781 0.0
C1091 C 0.02332 0.24857 0.14768 0.0
C1092 C 0.00529 0.23264 0.17402 0.0
C1093 C 1.00281 0.2289 0.2664 0.0
C1094 C 0.01972 0.24062 0.88442 0.0
C1095 C 0.03081 0.25979 0.85939 0.0
C1096 C 0.01738 0.23694 0.97748 0.0
C1097 C 0.0259 0.25236 0.0479 0.0
C1098 C 0.03675 0.27152 1.02178 0.0
C1099 C 0.03923 0.27514 0.92922 0.0
H1100 H 0.77889 0.76218 0.25595 0.0
H1101 H 0.81711 0.82367 0.33392 0.0
H1102 H 0.77999 0.76833 0.0951 0.0
H1103 H 0.81921 0.83 0.17147 0.0
H1104 H 0.80447 0.83751 0.87718 0.0
H1105 H 0.8023 0.8312 0.03792 0.0
H1106 H 0.79933 0.77632 0.96946 0.0
H1107 H 0.80052 0.78245 0.80683 0.0
C1108 C 0.78766 0.77709 0.23846 0.0
C1109 C 0.79789 0.79245 0.30781 0.0
C1110 C 0.78848 0.78063 0.14562 0.0
C1111 C 0.79984 0.79967 0.11864 0.0
C1112 C 0.81003 0.81512 0.18861 0.0
C1113 C 0.80895 0.81155 0.28207 0.0
C1114 C 0.80322 0.82401 0.89638 0.0
C1115 C 0.80256 0.81043 0.82911 0.0
C1116 C 0.8022 0.82046 0.98922 0.0
C1117 C 0.80078 0.80329 1.01838 0.0
C1118 C 0.80008 0.78961 0.95047 0.0
C1119 C 0.80082 0.79309 0.85692 0.0
H1120 H 0.20377 0.03223 0.28187 0.0
H1121 H 0.2502 0.01686 0.33651 0.0
H1122 H 0.20551 0.02773 0.11728 0.0
H1123 H 0.25236 0.01256 0.17201 0.0
H1124 H 0.23791 0.98848 0.87335 0.0
H1125 H 0.23541 0.99271 0.03655 0.0
H1126 H 0.22529 0.04063 0.99144 0.0
H1127 H 0.22708 0.03575 0.82598 0.0
C1128 C 0.21429 0.02771 0.25855 0.0
C1129 C 0.22645 0.02433 0.32244 0.0
C1130 C 0.21545 0.02533 0.16388 0.0
C1131 C 0.22904 0.01971 0.13009 0.0
C1132 C 0.24131 0.01644 0.19455 0.0
C1133 C 0.24 0.01871 0.28937 0.0
C1134 C 0.23513 0.99993 0.89812 0.0
C1135 C 0.23272 0.0118 0.83659 0.0
C1136 C 0.23386 0.00248 0.99231 0.0
C1137 C 0.23029 0.01712 1.02853 0.0
C1138 C 0.22782 0.02903 0.96659 0.0
C1139 C 0.22896 0.02636 0.87165 0.0
H1140 H 0.98479 0.80002 0.86736 0.0
H1141 H 0.04904 0.81964 0.92771 0.0
H1142 H 0.97951 0.79717 1.02972 0.0
H1143 H 0.04371 0.81568 0.09011 0.0
H1144 H 0.03283 0.82396 0.38784 0.0
H1145 H 0.03821 0.82808 0.2253 0.0
H1146 H 0.97659 0.77986 0.15353 0.0
H1147 H 0.97098 0.77681 0.31489 0.0
C1148 C 0.99773 0.80337 0.91541 0.0
C1149 C 0.01732 0.81004 0.88481 0.0
C1150 C 0.99472 0.80166 1.00897 0.0
C1151 C 0.01116 0.80619 0.07453 0.0
C1152 C 0.0307 0.81245 0.04291 0.0
C1153 C 0.03376 0.81451 0.94944 0.0
C1154 C 0.0204 0.81448 0.33704 0.0
C1155 C 1.00145 0.80018 0.36438 0.0
C1156 C 0.02352 0.81663 0.24349 0.0
C1157 C 0.00787 0.80429 0.17485 0.0
C1158 C 0.98894 0.78998 0.20316 0.0
C1159 C 0.98573 0.7881 0.29629 0.0
H1160 H 0.24274 0.2672 0.38925 0.0
H1161 H 0.2092 0.2055 0.31071 0.0
H1162 H 0.24396 0.27363 0.22694 0.0
H1163 H 0.20947 0.21165 0.14997 0.0
H1164 H 0.22885 0.22704 0.86207 0.0
H1165 H 0.22845 0.2211 1.02437 0.0
H1166 H 0.22634 0.27352 0.0923 0.0
H1167 H 0.22776 0.27973 0.931 0.0
C1168 C 0.2354 0.25503 0.33734 0.0
C1169 C 0.22588 0.23586 0.363 0.0
C1170 C 0.236 0.25865 0.24387 0.0
C1171 C 0.22688 0.24317 0.17364 0.0
C1172 C 0.21712 0.22403 0.20055 0.0
C1173 C 0.21678 0.22047 0.29339 0.0
C1174 C 0.22821 0.23719 0.9118 0.0
C1175 C 0.2283 0.25381 0.88339 0.0
C1176 C 0.22789 0.2338 1.00537 0.0
C1177 C 0.22737 0.24682 0.0732 0.0
C1178 C 0.22716 0.2633 0.04367 0.0
C1179 C 0.22775 0.26678 0.95052 0.0
H1180 H 0.81411 0.07153 0.31826 0.0
H1181 H 0.8044 0.01425 0.35583 0.0
H1182 H 0.81409 0.06597 0.15356 0.0
H1183 H 0.80324 0.00805 0.18967 0.0
H1184 H 0.82083 0.00846 0.89841 0.0
H1185 H 0.82166 0.01459 0.06245 0.0
H1186 H 0.79457 0.05051 1.01636 0.0
H1187 H 0.79489 0.04504 0.85025 0.0
C1188 C 0.81196 0.05767 0.29095 0.0
C1189 C 0.80944 0.04338 0.35009 0.0
C1190 C 0.81167 0.05436 0.19595 0.0
C1191 C 0.8085 0.03648 0.15665 0.0
C1192 C 0.80608 0.02217 0.21651 0.0
C1193 C 0.80671 0.02564 0.3121 0.0
C1194 C 0.81506 0.01771 0.92311 0.0
C1195 C 0.80777 0.02626 0.86102 0.0
C1196 C 0.81535 0.0211 1.01788 0.0
C1197 C 0.80805 0.03295 0.05431 0.0
C1198 C 0.80064 0.0415 0.9918 0.0
C1199 C 0.80064 0.0383 0.89625 0.0
H1200 H 0.65703 0.56725 0.97733 0.0
H1201 H 0.70091 0.54905 0.03898 0.0
H1202 H 0.6517 0.56872 0.13949 0.0
H1203 H 0.69447 0.54873 0.19974 0.0
H1204 H 0.69285 0.56493 0.50013 0.0
H1205 H 0.69919 0.5649 0.33832 0.0
H1206 H 0.63753 0.55309 0.26429 0.0
H1207 H 0.63206 0.55452 0.42604 0.0
C1208 C 0.66557 0.56361 1.02546 0.0
C1209 C 0.6797 0.55847 0.99478 0.0
C1210 C 0.66228 0.56407 0.11919 0.0
C1211 C 0.67263 0.55887 0.18515 0.0
C1212 C 0.6865 0.55337 0.15324 0.0
C1213 C 0.69008 0.55335 0.06007 0.0
C1214 C 0.68068 0.56221 0.44898 0.0
C1215 C 0.66196 0.55966 0.47602 0.0
C1216 C 0.68422 0.56211 0.35545 0.0
C1217 C 0.66893 0.55901 0.2859 0.0
C1218 C 0.65001 0.55603 0.31409 0.0
C1219 C 0.64671 0.5566 0.40745 0.0
H1220 H 0.47147 0.16255 0.47192 0.0
H1221 H 0.45924 0.10431 0.40138 0.0
H1222 H 0.47156 0.16807 0.30856 0.0
H1223 H 0.45906 0.10958 0.23895 0.0
H1224 H 0.48051 0.13182 0.95807 0.0
H1225 H 0.48072 0.12663 0.12139 0.0
H1226 H 0.44955 0.15895 0.1677 0.0
H1227 H 0.44952 0.1642 1.00474 0.0
C1228 C 0.46872 0.15091 0.42166 0.0
C1229 C 0.46532 0.133 0.45004 0.0
C1230 C 0.46868 0.15401 0.32769 0.0
C1231 C 0.46534 0.13929 0.25953 0.0
C1232 C 0.462 0.12141 0.28863 0.0
C1233 C 0.46197 0.11833 0.38219 0.0
C1234 C 0.47357 0.13768 1.00304 0.0
C1235 C 0.46494 0.14837 0.96799 0.0
C1236 C 0.47365 0.13469 0.09698 0.0
C1237 C 0.46521 0.14241 0.15882 0.0
C1238 C 0.45649 0.15302 0.12317 0.0
C1239 C 0.45631 0.1559 1.02927 0.0
H1240 H 0.89202 0.33282 1.00833 0.0
H1241 H 0.93835 0.39327 1.00135 0.0
H1242 H 0.8966 0.33634 0.1761 0.0
H1243 H 0.94351 0.39654 0.16947 0.0
H1244 H 0.96147 0.38361 0.46046 0.0
H1245 H 0.95631 0.3807 0.29306 0.0
H1246 H 0.89124 0.35694 0.30995 0.0
H1247 H 0.8965 0.36041 0.47851 0.0
C1248 C 0.90332 0.34683 0.04253 0.0
C1249 C 0.91497 0.36273 0.99126 0.0
C1250 C 0.90584 0.34885 0.13868 0.0
C1251 C 0.92039 0.3667 0.18601 0.0
C1252 C 0.93224 0.38256 0.13484 0.0
C1253 C 0.92937 0.38067 0.03857 0.0
C1254 C 0.94604 0.37779 0.42864 0.0
C1255 C 0.92937 0.37224 0.48279 0.0
C1256 C 0.94313 0.37623 0.33271 0.0
C1257 C 0.92339 0.36865 0.2883 0.0
C1258 C 0.90663 0.36279 0.3423 0.0
C1259 C 0.90962 0.36479 0.43864 0.0
H1260 H 0.65449 0.14241 0.9983 0.0
H1261 H 0.7194 0.17962 0.07215 0.0
H1262 H 0.64888 0.13624 0.15962 0.0
H1263 H 0.71391 0.17352 0.23314 0.0
H1264 H 0.69443 0.17416 0.527 0.0
H1265 H 0.69994 0.18025 0.36555 0.0
H1266 H 0.65416 0.12032 0.28497 0.0
H1267 H 0.64874 0.11442 0.44612 0.0
C1268 C 0.66761 0.14915 0.04882 0.0
C1269 C 0.68742 0.16145 1.02167 0.0
C1270 C 0.66441 0.1456 0.14176 0.0
C1271 C 0.68091 0.1544 0.21082 0.0
C1272 C 0.70072 0.16667 0.18309 0.0
C1273 C 0.70391 0.17008 0.09022 0.0
C1274 C 0.68568 0.16228 0.47493 0.0
C1275 C 0.67127 0.14378 0.5002 0.0
C1276 C 0.68883 0.16573 0.38184 0.0
C1277 C 0.67754 0.1508 0.31083 0.0
C1278 C 0.66302 0.13232 0.33663 0.0
C1279 C 0.65998 0.12888 0.42957 0.0
H1280 H 0.87663 0.53372 0.03342 0.0
H1281 H 0.93398 0.5871 1.01877 0.0
H1282 H 0.88292 0.53633 0.19975 0.0
H1283 H 0.94029 0.58992 0.18621 0.0
H1284 H 0.95486 0.5779 0.47597 0.0
H1285 H 0.9485 0.57549 0.30987 0.0
H1286 H 0.88423 0.55457 0.33923 0.0
H1287 H 0.89071 0.55677 0.50659 0.0
C1288 C 0.89063 0.54606 0.06585 0.0
C1289 C 0.9048 0.5602 1.01259 0.0
C1290 C 0.89416 0.54764 0.16165 0.0
C1291 C 0.91206 0.56339 0.20742 0.0
C1292 C 0.9264 0.57747 0.15379 0.0
C1293 C 0.92279 0.57591 0.05765 0.0
C1294 C 0.93934 0.57275 0.44706 0.0
C1295 C 0.92327 0.56746 0.50466 0.0
C1296 C 0.93571 0.57152 0.35149 0.0
C1297 C 0.91585 0.56491 0.31018 0.0
C1298 C 0.89971 0.55954 0.36806 0.0
C1299 C 0.90338 0.56084 0.46413 0.0
H1300 H 0.48521 0.34773 0.04526 0.0
H1301 H 0.45029 0.37583 0.98703 0.0
H1302 H 0.48331 0.3526 0.2088 0.0
H1303 H 0.44718 0.37982 0.15093 0.0
H1304 H 0.45934 0.39982 0.45494 0.0
H1305 H 0.46229 0.39581 0.29182 0.0
H1306 H 0.46416 0.34324 0.33255 0.0
H1307 H 0.46245 0.34815 0.49737 0.0
C1308 C 0.47697 0.35489 0.06762 0.0
C1309 C 0.46798 0.36148 1.0029 0.0
C1310 C 0.47566 0.35751 0.16198 0.0
C1311 C 0.46495 0.36653 0.19511 0.0
C1312 C 0.45591 0.37312 0.12964 0.0
C1313 C 0.45756 0.37077 0.03501 0.0
C1314 C 0.46047 0.38743 0.42899 0.0
C1315 C 0.46071 0.37432 0.48931 0.0
C1316 C 0.46196 0.38498 0.33468 0.0
C1317 C 0.46339 0.36911 0.29691 0.0
C1318 C 0.46349 0.35589 0.35791 0.0
C1319 C 0.46236 0.35857 0.45282 0.0
H1320 H 0.39843 0.95408 0.55113 0.0
H1321 H 0.3537 0.89401 0.4696 0.0
H1322 H 0.39384 0.94787 0.71219 0.0
H1323 H 0.34882 0.88769 0.63145 0.0
H1324 H 0.36081 0.87887 0.93205 0.0
H1325 H 0.36536 0.88505 0.77086 0.0
H1326 H 0.3703 0.94102 0.82899 0.0
H1327 H 0.3658 0.93474 0.99066 0.0
C1328 C 0.38755 0.9395 0.56766 0.0
C1329 C 0.37648 0.92453 0.49723 0.0
C1330 C 0.3848 0.93595 0.66038 0.0
C1331 C 0.3709 0.91727 0.68594 0.0
C1332 C 0.35984 0.90223 0.61512 0.0
C1333 C 0.36256 0.90583 0.52206 0.0
C1334 C 0.36291 0.89253 0.91055 0.0
C1335 C 0.36305 0.90636 0.97485 0.0
C1336 C 0.36538 0.89603 0.8176 0.0
C1337 C 0.36816 0.91353 0.78573 0.0
C1338 C 0.36845 0.92745 0.85048 0.0
C1339 C 0.36588 0.92389 0.94358 0.0
H1340 H 0.16904 0.46059 0.88652 0.0
H1341 H 0.15806 0.50771 0.95309 0.0
H1342 H 0.17033 0.46712 0.72585 0.0
H1343 H 0.15793 0.51368 0.79118 0.0
H1344 H 0.17466 0.5311 0.50406 0.0
H1345 H 0.17521 0.52546 0.6652 0.0
H1346 H 0.15315 0.46455 0.58954 0.0
H1347 H 0.15433 0.47088 0.42831 0.0
C1348 C 0.16681 0.47236 0.86645 0.0
C1349 C 0.16362 0.48374 0.93275 0.0
C1350 C 0.16729 0.47601 0.77355 0.0
C1351 C 0.16408 0.4909 0.74325 0.0
C1352 C 0.16089 0.50231 0.81047 0.0
C1353 C 0.16088 0.4989 0.90392 0.0
C1354 C 0.16996 0.51648 0.52186 0.0
C1355 C 0.16421 0.50136 0.4526 0.0
C1356 C 0.17007 0.51316 0.61504 0.0
C1357 C 0.16407 0.49446 0.64265 0.0
C1358 C 0.15823 0.47928 0.57271 0.0
C1359 C 0.15855 0.48277 0.4793 0.0
H1360 H 0.6023 0.7155 1.00081 0.0
H1361 H 0.54036 0.70407 0.94918 0.0
H1362 H 0.60499 0.7127 0.83574 0.0
H1363 H 0.54237 0.70009 0.78501 0.0
H1364 H 0.55637 0.71079 0.48838 0.0
H1365 H 0.55468 0.71487 0.65361 0.0
H1366 H 0.59633 0.69313 0.70206 0.0
H1367 H 0.5989 0.69036 0.53791 0.0
C1368 C 0.58916 0.71212 0.95405 0.0
C1369 C 0.57117 0.71011 0.98806 0.0
C1370 C 0.59059 0.71038 0.85894 0.0
C1371 C 0.57392 0.70621 0.79519 0.0
C1372 C 0.55579 0.70379 0.83039 0.0
C1373 C 0.55453 0.70588 0.9251 0.0
C1374 C 0.56522 0.707 0.53465 0.0
C1375 C 0.57779 0.7003 0.49986 0.0
C1376 C 0.56414 0.70915 0.62985 0.0
C1377 C 0.57533 0.70431 0.69301 0.0
C1378 C 0.58778 0.69746 0.65717 0.0
C1379 C 0.58912 0.69567 0.56236 0.0
H1380 H 0.35324 0.45278 0.92833 0.0
H1381 H 0.36974 0.51249 0.99567 0.0
H1382 H 0.35786 0.45888 0.76737 0.0
H1383 H 0.37446 0.5187 0.8333 0.0
H1384 H 0.40188 0.52662 0.55082 0.0
H1385 H 0.39709 0.52089 0.71243 0.0
H1386 H 0.34209 0.46571 0.63382 0.0
H1387 H 0.34676 0.47178 0.47197 0.0
C1388 C 0.35786 0.46726 0.90872 0.0
C1389 C 0.36104 0.48213 0.9751 0.0
C1390 C 0.36039 0.47072 0.81598 0.0
C1391 C 0.36642 0.48925 0.78652 0.0
C1392 C 0.36991 0.50426 0.85325 0.0
C1393 C 0.36715 0.50072 0.94636 0.0
C1394 C 0.3888 0.5132 0.56792 0.0
C1395 C 0.37497 0.4994 0.49793 0.0
C1396 C 0.38597 0.50998 0.66087 0.0
C1397 C 0.36924 0.4928 0.68691 0.0
C1398 C 0.35536 0.47898 0.61672 0.0
C1399 C 0.35812 0.48232 0.52355 0.0
H1400 H 0.57592 0.89282 0.98955 0.0
H1401 H 0.57712 0.94665 0.05773 0.0
H1402 H 0.5771 0.8988 0.82746 0.0
H1403 H 0.57844 0.95286 0.89531 0.0
H1404 H 0.60179 0.96725 0.60841 0.0
H1405 H 0.60031 0.96106 0.77007 0.0
H1406 H 0.55753 0.90006 0.69494 0.0
H1407 H 0.55921 0.90637 0.53224 0.0
C1408 C 0.57654 0.90604 0.96999 0.0
C1409 C 0.57683 0.91945 0.03735 0.0
C1410 C 0.57706 0.90941 0.87656 0.0
C1411 C 0.57791 0.92636 0.84711 0.0
C1412 C 0.57816 0.93979 0.91479 0.0
C1413 C 0.57752 0.93632 1.00842 0.0
C1414 C 0.59205 0.95249 0.62621 0.0
C1415 C 0.58059 0.93732 0.55697 0.0
C1416 C 0.59108 0.94895 0.7194 0.0
C1417 C 0.57873 0.93006 0.74677 0.0
C1418 C 0.56738 0.9148 0.67716 0.0
C1419 C 0.56825 0.91839 0.58362 0.0
H1420 H 0.11947 0.69406 0.54972 0.0
H1421 H 0.1825 0.70895 0.60555 0.0
H1422 H 0.11603 0.69623 0.71424 0.0
H1423 H 0.17961 0.71215 0.76954 0.0
H1424 H 0.16451 0.69983 0.06451 0.0
H1425 H 0.16712 0.69641 0.89966 0.0
H1426 H 0.12357 0.71581 0.84785 0.0
H1427 H 0.12021 0.71802 1.01154 0.0
C1428 C 0.13269 0.69808 0.59727 0.0
C1429 C 0.15124 0.70131 0.56453 0.0
C1430 C 0.1308 0.69943 0.69208 0.0
C1431 C 0.14752 0.70434 0.75691 0.0
C1432 C 0.16618 0.70789 0.72313 0.0
C1433 C 0.16794 0.70625 0.6286 0.0
C1434 C 0.15546 0.70325 1.0176 0.0
C1435 C 0.14215 0.70917 0.0513 0.0
C1436 C 0.15705 0.70146 0.92267 0.0
C1437 C 0.1456 0.70585 0.85874 0.0
C1438 C 0.13237 0.71187 0.89343 0.0
C1439 C 0.13056 0.71333 0.98796 0.0
loop_
_geom_bond_atom_site_label_1
_geom_bond_atom_site_label_2
_geom_bond_distance
_geom_bond_site_symmetry_2
_ccdc_geom_bond_type
Tb0 O3 2.453 1_655 S
Tb0 O4 2.596 1_655 S
Tb0 O5 2.374 1_655 S
Tb0 O13 2.343 1_655 S
Tb0 O15 2.353 . S
Tb0 O17 2.427 . S
Tb0 O18 2.513 . S
C1 O5 1.251 . S
C1 O7 1.263 . S
Tb2 O4 2.343 . S
Tb2 O7 2.353 . S
Tb2 O10 2.427 . S
Tb2 O11 2.513 . S
Tb2 O12 2.453 . S
Tb2 O13 2.596 . S
Tb2 O14 2.374 . S
O3 Tb0 2.453 1_455 S
O3 C19 1.245 . S
O4 Tb0 2.596 1_455 S
O4 Tb2 2.343 . S
O4 C19 1.259 . S
O5 Tb0 2.374 1_455 S
O5 C1 1.251 . S
C6 O10 1.275 . S
C6 O11 1.246 . S
O7 C1 1.263 . S
O7 Tb2 2.353 . S
C8 O12 1.245 . S
C8 O13 1.259 . S
C9 O14 1.250 1_655 S
C9 O15 1.263 . S
O10 Tb2 2.427 . S
O10 C6 1.275 . S
O11 Tb2 2.513 . S
O11 C6 1.246 . S
O12 Tb2 2.453 . S
O12 C8 1.245 . S
O13 Tb0 2.343 1_455 S
O13 Tb2 2.596 . S
O13 C8 1.259 . S
O14 Tb2 2.374 . S
O14 C9 1.250 1_455 S
O15 Tb0 2.353 . S
O15 C9 1.263 . S
C16 O17 1.275 . S
C16 O18 1.246 . S
O17 Tb0 2.427 . S
O17 C16 1.275 . S
O18 Tb0 2.513 . S
O18 C16 1.246 . S
C19 O3 1.245 . S
C19 O4 1.259 . S
Tb20 O23 2.453 . S
Tb20 O24 2.596 . S
Tb20 O25 2.374 . S
Tb20 O33 2.343 . S
Tb20 O35 2.353 . S
Tb20 O37 2.427 . S
Tb20 O38 2.513 . S
C21 O25 1.251 . S
C21 O27 1.263 . S
Tb22 O24 2.343 . S
Tb22 O27 2.353 . S
Tb22 O30 2.427 . S
Tb22 O31 2.513 . S
Tb22 O32 2.453 . S
Tb22 O33 2.596 . S
Tb22 O34 2.374 . S
O23 Tb20 2.453 . S
O23 C39 1.245 . S
O24 Tb20 2.596 . S
O24 Tb22 2.343 . S
O24 C39 1.259 . S
O25 Tb20 2.374 . S
O25 C21 1.251 . S
C26 O30 1.275 . S
C26 O31 1.246 . S
O27 C21 1.263 . S
O27 Tb22 2.353 . S
C28 O32 1.245 . S
C28 O33 1.259 . S
C29 O34 1.250 . S
C29 O35 1.263 . S
O30 Tb22 2.427 . S
O30 C26 1.275 . S
O31 Tb22 2.513 . S
O31 C26 1.246 . S
O32 Tb22 2.453 . S
O32 C28 1.245 . S
O33 Tb20 2.343 . S
O33 Tb22 2.596 . S
O33 C28 1.259 . S
O34 Tb22 2.374 . S
O34 C29 1.250 . S
O35 Tb20 2.353 . S
O35 C29 1.263 . S
C36 O37 1.275 . S
C36 O38 1.246 . S
O37 Tb20 2.427 . S
O37 C36 1.275 . S
O38 Tb20 2.513 . S
O38 C36 1.246 . S
C39 O23 1.245 . S
C39 O24 1.259 . S
Tb40 O43 2.453 . S
Tb40 O44 2.596 . S
Tb40 O45 2.374 . S
Tb40 O53 2.343 . S
Tb40 O55 2.353 . S
Tb40 O57 2.427 . S
Tb40 O58 2.513 . S
C41 O45 1.251 1_565 S
C41 O47 1.263 . S
Tb42 O44 2.343 . S
Tb42 O47 2.353 1_545 S
Tb42 O50 2.427 1_545 S
Tb42 O51 2.493 1_545 S
Tb42 O52 2.453 . S
Tb42 O53 2.596 . S
Tb42 O54 2.374 . S
O43 Tb40 2.453 . S
O43 C59 1.245 . S
O44 Tb40 2.596 . S
O44 Tb42 2.343 . S
O44 C59 1.259 . S
O45 Tb40 2.374 . S
O45 C41 1.251 1_545 S
C46 O50 1.275 . S
C46 O51 1.276 . S
O47 C41 1.263 . S
O47 Tb42 2.353 1_565 S
C48 O52 1.245 . S
C48 O53 1.259 . S
C49 O54 1.250 . S
C49 O55 1.263 . S
O50 Tb42 2.427 1_565 S
O50 C46 1.275 . S
O51 Tb42 2.493 1_565 S
O51 C46 1.276 . S
O52 Tb42 2.453 . S
O52 C48 1.245 . S
O53 Tb40 2.343 . S
O53 Tb42 2.596 . S
O53 C48 1.259 . S
O54 Tb42 2.374 . S
O54 C49 1.250 . S
O55 Tb40 2.353 . S
O55 C49 1.263 . S
C56 O57 1.275 . S
C56 O58 1.246 . S
O57 Tb40 2.427 . S
O57 C56 1.275 . S
O58 Tb40 2.513 . S
O58 C56 1.246 . S
C59 O43 1.245 . S
C59 O44 1.259 . S
Tb60 O63 2.453 . S
Tb60 O64 2.596 1_655 S
Tb60 O65 2.374 1_655 S
Tb60 O73 2.343 1_655 S
Tb60 O75 2.353 . S
Tb60 O77 2.427 . S
Tb60 O78 2.513 . S
C61 O65 1.251 . S
C61 O67 1.263 . S
Tb62 O64 2.343 . S
Tb62 O67 2.353 . S
Tb62 O70 2.427 . S
Tb62 O71 2.513 . S
Tb62 O72 2.453 . S
Tb62 O73 2.596 . S
Tb62 O74 2.374 . S
O63 Tb60 2.453 . S
O63 C79 1.245 1_655 S
O64 Tb60 2.596 1_455 S
O64 Tb62 2.343 . S
O64 C79 1.259 . S
O65 Tb60 2.374 1_455 S
O65 C61 1.251 . S
C66 O70 1.275 . S
C66 O71 1.246 . S
O67 C61 1.263 . S
O67 Tb62 2.353 . S
C68 O72 1.245 . S
C68 O73 1.259 . S
C69 O74 1.250 1_655 S
C69 O75 1.263 . S
O70 Tb62 2.427 . S
O70 C66 1.275 . S
O71 Tb62 2.513 . S
O71 C66 1.246 . S
O72 Tb62 2.453 . S
O72 C68 1.245 . S
O73 Tb60 2.343 1_455 S
O73 Tb62 2.596 . S
O73 C68 1.259 . S
O74 Tb62 2.374 . S
O74 C69 1.250 1_455 S
O75 Tb60 2.353 . S
O75 C69 1.263 . S
C76 O77 1.275 . S
C76 O78 1.246 . S
O77 Tb60 2.427 . S
O77 C76 1.275 . S
O78 Tb60 2.513 . S
O78 C76 1.246 . S
C79 O63 1.245 1_455 S
C79 O64 1.259 . S
Tb80 O83 2.453 . S
Tb80 O84 2.596 . S
Tb80 O85 2.374 . S
Tb80 O93 2.343 . S
Tb80 O95 2.353 . S
Tb80 O97 2.427 . S
Tb80 O98 2.513 . S
C81 O85 1.251 . S
C81 O87 1.263 . S
Tb82 O84 2.343 . S
Tb82 O87 2.353 . S
Tb82 O90 2.427 . S
Tb82 O91 2.513 . S
Tb82 O92 2.453 . S
Tb82 O93 2.596 . S
Tb82 O94 2.374 . S
O83 Tb80 2.453 . S
O83 C99 1.245 . S
O84 Tb80 2.596 . S
O84 Tb82 2.343 . S
O84 C99 1.259 . S
O85 Tb80 2.374 . S
O85 C81 1.251 . S
C86 O90 1.275 . S
C86 O91 1.246 . S
O87 C81 1.263 . S
O87 Tb82 2.353 . S
C88 O92 1.245 . S
C88 O93 1.259 . S
C89 O94 1.250 . S
C89 O95 1.263 . S
O90 Tb82 2.427 . S
O90 C86 1.275 . S
O91 Tb82 2.513 . S
O91 C86 1.246 . S
O92 Tb82 2.453 . S
O92 C88 1.245 . S
O93 Tb80 2.343 . S
O93 Tb82 2.596 . S
O93 C88 1.259 . S
O94 Tb82 2.374 . S
O94 C89 1.250 . S
O95 Tb80 2.353 . S
O95 C89 1.263 . S
C96 O97 1.275 . S
C96 O98 1.246 . S
O97 Tb80 2.427 . S
O97 C96 1.275 . S
O98 Tb80 2.513 . S
O98 C96 1.246 . S
C99 O83 1.245 . S
C99 O84 1.259 . S
Tb100 O103 2.453 . S
Tb100 O104 2.596 . S
Tb100 O105 2.374 . S
Tb100 O113 2.343 . S
Tb100 O115 2.353 . S
Tb100 O117 2.427 . S
Tb100 O118 2.513 . S
C101 O105 1.251 . S
C101 O107 1.263 1_545 S
Tb102 O104 2.343 . S
Tb102 O107 2.353 1_545 S
Tb102 O110 2.427 1_545 S
Tb102 O111 2.513 . S
Tb102 O112 2.453 . S
Tb102 O113 2.596 . S
Tb102 O114 2.374 . S
O103 Tb100 2.453 . S
O103 C119 1.245 . S
O104 Tb100 2.596 . S
O104 Tb102 2.343 . S
O104 C119 1.259 . S
O105 Tb100 2.374 . S
O105 C101 1.251 . S
C106 O110 1.275 . S
C106 O111 1.246 1_565 S
O107 C101 1.263 1_565 S
O107 Tb102 2.353 1_565 S
C108 O112 1.245 . S
C108 O113 1.259 . S
C109 O114 1.250 . S
C109 O115 1.263 . S
O110 Tb102 2.427 1_565 S
O110 C106 1.275 . S
O111 Tb102 2.513 . S
O111 C106 1.246 1_545 S
O112 Tb102 2.453 . S
O112 C108 1.245 . S
O113 Tb100 2.343 . S
O113 Tb102 2.596 . S
O113 C108 1.259 . S
O114 Tb102 2.374 . S
O114 C109 1.250 . S
O115 Tb100 2.353 . S
O115 C109 1.263 . S
C116 O117 1.275 . S
C116 O118 1.246 . S
O117 Tb100 2.427 . S
O117 C116 1.275 . S
O118 Tb100 2.513 . S
O118 C116 1.246 . S
C119 O103 1.245 . S
C119 O104 1.259 . S
Tb120 O123 2.453 . S
Tb120 O124 2.596 . S
Tb120 O125 2.374 . S
Tb120 O133 2.343 . S
Tb120 O135 2.353 . S
Tb120 O137 2.427 . S
Tb120 O138 2.513 . S
C121 O125 1.251 . S
C121 O127 1.263 . S
Tb122 O124 2.343 . S
Tb122 O127 2.353 . S
Tb122 O130 2.427 . S
Tb122 O131 2.513 . S
Tb122 O132 2.453 . S
Tb122 O133 2.596 . S
Tb122 O134 2.374 . S
O123 Tb120 2.453 . S
O123 C139 1.245 . S
O124 Tb120 2.596 . S
O124 Tb122 2.343 . S
O124 C139 1.259 . S
O125 Tb120 2.374 . S
O125 C121 1.251 . S
C126 O130 1.275 . S
C126 O131 1.246 . S
O127 C121 1.263 . S
O127 Tb122 2.353 . S
C128 O132 1.245 . S
C128 O133 1.259 . S
C129 O134 1.250 . S
C129 O135 1.263 . S
O130 Tb122 2.427 . S
O130 C126 1.275 . S
O131 Tb122 2.513 . S
O131 C126 1.246 . S
O132 Tb122 2.453 . S
O132 C128 1.245 . S
O133 Tb120 2.343 . S
O133 Tb122 2.596 . S
O133 C128 1.259 . S
O134 Tb122 2.374 . S
O134 C129 1.250 . S
O135 Tb120 2.353 . S
O135 C129 1.263 . S
C136 O137 1.275 . S
C136 O138 1.246 . S
O137 Tb120 2.427 . S
O137 C136 1.275 . S
O138 Tb120 2.513 . S
O138 C136 1.246 . S
C139 O123 1.245 . S
C139 O124 1.259 . S
Tb140 O143 2.453 . S
Tb140 O144 2.596 . S
Tb140 O145 2.374 . S
Tb140 O153 2.343 . S
Tb140 O155 2.353 . S
Tb140 O157 2.427 . S
Tb140 O158 2.513 . S
C141 O145 1.251 . S
C141 O147 1.263 . S
Tb142 O144 2.343 . S
Tb142 O147 2.353 . S
Tb142 O150 2.427 . S
Tb142 O151 2.513 . S
Tb142 O152 2.453 . S
Tb142 O153 2.596 . S
Tb142 O154 2.374 . S
O143 Tb140 2.453 . S
O143 C159 1.245 . S
O144 Tb140 2.596 . S
O144 Tb142 2.343 . S
O144 C159 1.259 . S
O145 Tb140 2.374 . S
O145 C141 1.251 . S
C146 O150 1.275 . S
C146 O151 1.246 . S
O147 C141 1.263 . S
O147 Tb142 2.353 . S
C148 O152 1.245 . S
C148 O153 1.259 . S
C149 O154 1.250 . S
C149 O155 1.263 . S
O150 Tb142 2.427 . S
O150 C146 1.275 . S
O151 Tb142 2.513 . S
O151 C146 1.246 . S
O152 Tb142 2.453 . S
O152 C148 1.245 . S
O153 Tb140 2.343 . S
O153 Tb142 2.596 . S
O153 C148 1.259 . S
O154 Tb142 2.374 . S
O154 C149 1.250 . S
O155 Tb140 2.353 . S
O155 C149 1.263 . S
C156 O157 1.275 . S
C156 O158 1.246 . S
O157 Tb140 2.427 . S
O157 C156 1.275 . S
O158 Tb140 2.513 . S
O158 C156 1.246 . S
C159 O143 1.245 . S
C159 O144 1.259 . S
Tb160 O163 2.453 . S
Tb160 O164 2.596 . S
Tb160 O165 2.374 . S
Tb160 O173 2.343 . S
Tb160 O175 2.353 . S
Tb160 O177 2.427 . S
Tb160 O178 2.513 . S
C161 O165 1.251 . S
C161 O167 1.263 . S
Tb162 O164 2.343 . S
Tb162 O167 2.353 . S
Tb162 O170 2.427 . S
Tb162 O171 2.513 . S
Tb162 O172 2.453 . S
Tb162 O173 2.596 . S
Tb162 O174 2.374 . S
O163 Tb160 2.453 . S
O163 C179 1.245 . S
O164 Tb160 2.596 . S
O164 Tb162 2.343 . S
O164 C179 1.259 . S
O165 Tb160 2.374 . S
O165 C161 1.251 . S
C166 O170 1.275 . S
C166 O171 1.246 . S
O167 C161 1.263 . S
O167 Tb162 2.353 . S
C168 O172 1.245 . S
C168 O173 1.259 . S
C169 O174 1.250 . S
C169 O175 1.263 . S
O170 Tb162 2.427 . S
O170 C166 1.275 . S
O171 Tb162 2.513 . S
O171 C166 1.246 . S
O172 Tb162 2.453 . S
O172 C168 1.245 . S
O173 Tb160 2.343 . S
O173 Tb162 2.596 . S
O173 C168 1.259 . S
O174 Tb162 2.374 . S
O174 C169 1.250 . S
O175 Tb160 2.353 . S
O175 C169 1.263 . S
C176 O177 1.275 . S
C176 O178 1.246 . S
O177 Tb160 2.427 . S
O177 C176 1.275 . S
O178 Tb160 2.513 . S
O178 C176 1.246 . S
C179 O163 1.245 . S
C179 O164 1.259 . S
Tb180 O183 2.453 . S
Tb180 O184 2.596 . S
Tb180 O185 2.374 . S
Tb180 O193 2.343 . S
Tb180 O195 2.353 . S
Tb180 O197 2.427 . S
Tb180 O198 2.513 . S
C181 O185 1.251 . S
C181 O187 1.263 . S
Tb182 O184 2.343 . S
Tb182 O187 2.353 . S
Tb182 O190 2.427 . S
Tb182 O191 2.513 . S
Tb182 O192 2.453 . S
Tb182 O193 2.596 . S
Tb182 O194 2.374 . S
O183 Tb180 2.453 . S
O183 C199 1.245 . S
O184 Tb180 2.596 . S
O184 Tb182 2.343 . S
O184 C199 1.259 . S
O185 Tb180 2.374 . S
O185 C181 1.251 . S
C186 O190 1.275 . S
C186 O191 1.246 . S
O187 C181 1.263 . S
O187 Tb182 2.353 . S
C188 O192 1.245 . S
C188 O193 1.259 . S
C189 O194 1.250 . S
C189 O195 1.263 . S
O190 Tb182 2.427 . S
O190 C186 1.275 . S
O191 Tb182 2.513 . S
O191 C186 1.246 . S
O192 Tb182 2.453 . S
O192 C188 1.245 . S
O193 Tb180 2.343 . S
O193 Tb182 2.596 . S
O193 C188 1.259 . S
O194 Tb182 2.374 . S
O194 C189 1.250 . S
O195 Tb180 2.353 . S
O195 C189 1.263 . S
C196 O197 1.275 . S
C196 O198 1.246 . S
O197 Tb180 2.427 . S
O197 C196 1.275 . S
O198 Tb180 2.513 . S
O198 C196 1.246 . S
C199 O183 1.245 . S
C199 O184 1.259 . S
Tb200 O203 2.453 . S
Tb200 O204 2.596 . S
Tb200 O205 2.374 . S
Tb200 O213 2.343 . S
Tb200 O215 2.353 . S
Tb200 O217 2.427 . S
Tb200 O218 2.513 . S
C201 O205 1.251 . S
C201 O207 1.263 . S
Tb202 O204 2.343 . S
Tb202 O207 2.353 . S
Tb202 O210 2.427 . S
Tb202 O211 2.513 . S
Tb202 O212 2.453 . S
Tb202 O213 2.596 . S
Tb202 O214 2.374 . S
O203 Tb200 2.453 . S
O203 C219 1.245 . S
O204 Tb200 2.596 . S
O204 Tb202 2.343 . S
O204 C219 1.259 . S
O205 Tb200 2.374 . S
O205 C201 1.251 . S
C206 O210 1.275 . S
C206 O211 1.246 . S
O207 C201 1.263 . S
O207 Tb202 2.353 . S
C208 O212 1.245 . S
C208 O213 1.259 . S
C209 O214 1.250 . S
C209 O215 1.263 . S
O210 Tb202 2.427 . S
O210 C206 1.275 . S
O211 Tb202 2.513 . S
O211 C206 1.246 . S
O212 Tb202 2.453 . S
O212 C208 1.245 . S
O213 Tb200 2.343 . S
O213 Tb202 2.596 . S
O213 C208 1.259 . S
O214 Tb202 2.374 . S
O214 C209 1.250 . S
O215 Tb200 2.353 . S
O215 C209 1.263 . S
C216 O217 1.275 . S
C216 O218 1.246 . S
O217 Tb200 2.427 . S
O217 C216 1.275 . S
O218 Tb200 2.513 . S
O218 C216 1.246 . S
C219 O203 1.245 . S
C219 O204 1.259 . S
Tb220 O223 2.453 . S
Tb220 O224 2.596 . S
Tb220 O225 2.374 . S
Tb220 O233 2.343 . S
Tb220 O235 2.353 . S
Tb220 O237 2.427 . S
Tb220 O238 2.513 . S
C221 O225 1.251 . S
C221 O227 1.263 . S
Tb222 O224 2.343 . S
Tb222 O227 2.353 . S
Tb222 O230 2.427 . S
Tb222 O231 2.513 . S
Tb222 O232 2.453 . S
Tb222 O233 2.596 . S
Tb222 O234 2.374 . S
O223 Tb220 2.453 . S
O223 C239 1.245 . S
O224 Tb220 2.596 . S
O224 Tb222 2.343 . S
O224 C239 1.259 . S
O225 Tb220 2.374 . S
O225 C221 1.251 . S
C226 O230 1.275 . S
C226 O231 1.246 . S
O227 C221 1.263 . S
O227 Tb222 2.353 . S
C228 O232 1.245 . S
C228 O233 1.259 . S
C229 O234 1.250 . S
C229 O235 1.263 . S
O230 Tb222 2.427 . S
O230 C226 1.275 . S
O231 Tb222 2.513 . S
O231 C226 1.246 . S
O232 Tb222 2.453 . S
O232 C228 1.245 . S
O233 Tb220 2.343 . S
O233 Tb222 2.596 . S
O233 C228 1.259 . S
O234 Tb222 2.374 . S
O234 C229 1.250 . S
O235 Tb220 2.353 . S
O235 C229 1.263 . S
C236 O237 1.275 . S
C236 O238 1.246 . S
O237 Tb220 2.427 . S
O237 C236 1.275 . S
O238 Tb220 2.513 . S
O238 C236 1.246 . S
C239 O223 1.245 . S
C239 O224 1.259 . S
Tb240 O243 2.453 1_554 S
Tb240 O244 2.596 . S
Tb240 O245 2.374 . S
Tb240 O253 2.343 . S
Tb240 O255 2.353 . S
Tb240 O257 2.427 . S
Tb240 O258 2.513 . S
C241 O245 1.251 . S
C241 O247 1.263 . S
Tb242 O244 2.343 . S
Tb242 O247 2.353 . S
Tb242 O250 2.427 . S
Tb242 O251 2.513 . S
Tb242 O252 2.453 . S
Tb242 O253 2.596 . S
Tb242 O254 2.374 . S
O243 Tb240 2.453 1_556 S
O243 C259 1.245 1_556 S
O244 Tb240 2.596 . S
O244 Tb242 2.343 . S
O244 C259 1.259 . S
O245 Tb240 2.374 . S
O245 C241 1.251 . S
C246 O250 1.275 . S
C246 O251 1.246 . S
O247 C241 1.263 . S
O247 Tb242 2.353 . S
C248 O252 1.245 . S
C248 O253 1.259 . S
C249 O254 1.250 . S
C249 O255 1.263 . S
O250 Tb242 2.427 . S
O250 C246 1.275 . S
O251 Tb242 2.513 . S
O251 C246 1.246 . S
O252 Tb242 2.453 . S
O252 C248 1.245 . S
O253 Tb240 2.343 . S
O253 Tb242 2.596 . S
O253 C248 1.259 . S
O254 Tb242 2.374 . S
O254 C249 1.250 . S
O255 Tb240 2.353 . S
O255 C249 1.263 . S
C256 O257 1.275 . S
C256 O258 1.246 . S
O257 Tb240 2.427 . S
O257 C256 1.275 . S
O258 Tb240 2.513 . S
O258 C256 1.246 . S
C259 O243 1.245 1_554 S
C259 O244 1.259 . S
Tb260 O263 2.453 . S
Tb260 O264 2.596 . S
Tb260 O265 2.374 . S
Tb260 O273 2.343 . S
Tb260 O275 2.353 . S
Tb260 O277 2.427 . S
Tb260 O278 2.513 . S
C261 O265 1.251 . S
C261 O267 1.263 . S
Tb262 O264 2.343 . S
Tb262 O267 2.353 . S
Tb262 O270 2.427 . S
Tb262 O271 2.513 . S
Tb262 O272 2.453 1_554 S
Tb262 O273 2.596 . S
Tb262 O274 2.374 . S
O263 Tb260 2.453 . S
O263 C279 1.245 . S
O264 Tb260 2.596 . S
O264 Tb262 2.343 . S
O264 C279 1.259 . S
O265 Tb260 2.374 . S
O265 C261 1.251 . S
C266 O270 1.275 . S
C266 O271 1.246 . S
O267 C261 1.263 . S
O267 Tb262 2.353 . S
C268 O272 1.245 . S
C268 O273 1.259 1_556 S
C269 O274 1.250 . S
C269 O275 1.263 . S
O270 Tb262 2.427 . S
O270 C266 1.275 . S
O271 Tb262 2.513 . S
O271 C266 1.246 . S
O272 Tb262 2.453 1_556 S
O272 C268 1.245 . S
O273 Tb260 2.343 . S
O273 Tb262 2.596 . S
O273 C268 1.259 1_554 S
O274 Tb262 2.374 . S
O274 C269 1.250 . S
O275 Tb260 2.353 . S
O275 C269 1.263 . S
C276 O277 1.275 . S
C276 O278 1.246 . S
O277 Tb260 2.427 . S
O277 C276 1.275 . S
O278 Tb260 2.513 . S
O278 C276 1.246 . S
C279 O263 1.245 . S
C279 O264 1.259 . S
Tb280 O283 2.453 . S
Tb280 O284 2.596 . S
Tb280 O285 2.374 . S
Tb280 O293 2.343 . S
Tb280 O295 2.353 . S
Tb280 O297 2.427 . S
Tb280 O298 2.513 . S
C281 O285 1.251 . S
C281 O287 1.263 . S
Tb282 O284 2.343 . S
Tb282 O287 2.353 . S
Tb282 O290 2.427 . S
Tb282 O291 2.513 . S
Tb282 O292 2.453 . S
Tb282 O293 2.596 . S
Tb282 O294 2.374 . S
O283 Tb280 2.453 . S
O283 C299 1.245 . S
O284 Tb280 2.596 . S
O284 Tb282 2.343 . S
O284 C299 1.259 . S
O285 Tb280 2.374 . S
O285 C281 1.251 . S
C286 O290 1.275 . S
C286 O291 1.246 . S
O287 C281 1.263 . S
O287 Tb282 2.353 . S
C288 O292 1.245 . S
C288 O293 1.259 . S
C289 O294 1.250 . S
C289 O295 1.263 . S
O290 Tb282 2.427 . S
O290 C286 1.275 . S
O291 Tb282 2.513 . S
O291 C286 1.246 . S
O292 Tb282 2.453 . S
O292 C288 1.245 . S
O293 Tb280 2.343 . S
O293 Tb282 2.596 . S
O293 C288 1.259 . S
O294 Tb282 2.374 . S
O294 C289 1.250 . S
O295 Tb280 2.353 . S
O295 C289 1.263 . S
C296 O297 1.275 . S
C296 O298 1.246 . S
O297 Tb280 2.427 . S
O297 C296 1.275 . S
O298 Tb280 2.513 . S
O298 C296 1.246 . S
C299 O283 1.245 . S
C299 O284 1.259 . S
Tb300 O303 2.443 1_554 S
Tb300 O304 2.596 . S
Tb300 O305 2.374 . S
Tb300 O313 2.343 . S
Tb300 O315 2.353 . S
Tb300 O317 2.427 . S
Tb300 O318 2.513 . S
C301 O305 1.251 . S
C301 O307 1.263 . S
Tb302 O304 2.343 . S
Tb302 O307 2.353 . S
Tb302 O310 2.427 . S
Tb302 O311 2.513 . S
Tb302 O312 2.453 . S
Tb302 O313 2.596 . S
Tb302 O314 2.374 . S
O303 Tb300 2.443 1_556 S
O303 C319 1.243 1_556 S
O304 Tb300 2.596 . S
O304 Tb302 2.343 . S
O304 C319 1.259 . S
O305 Tb300 2.374 . S
O305 C301 1.251 . S
C306 O310 1.275 . S
C306 O311 1.246 . S
O307 C301 1.263 . S
O307 Tb302 2.353 . S
C308 O312 1.245 . S
C308 O313 1.259 . S
C309 O314 1.250 . S
C309 O315 1.263 . S
O310 Tb302 2.427 . S
O310 C306 1.275 . S
O311 Tb302 2.513 . S
O311 C306 1.246 . S
O312 Tb302 2.453 . S
O312 C308 1.245 . S
O313 Tb300 2.343 . S
O313 Tb302 2.596 . S
O313 C308 1.259 . S
O314 Tb302 2.374 . S
O314 C309 1.250 . S
O315 Tb300 2.353 . S
O315 C309 1.263 . S
C316 O317 1.275 . S
C316 O318 1.246 . S
O317 Tb300 2.427 . S
O317 C316 1.275 . S
O318 Tb300 2.513 . S
O318 C316 1.246 . S
C319 O303 1.243 1_554 S
C319 O304 1.259 . S
Tb320 O323 2.453 . S
Tb320 O324 2.596 . S
Tb320 O325 2.374 . S
Tb320 O333 2.343 . S
Tb320 O335 2.353 . S
Tb320 O337 2.427 . S
Tb320 O338 2.513 . S
C321 O325 1.251 . S
C321 O327 1.263 . S
Tb322 O324 2.343 . S
Tb322 O327 2.353 . S
Tb322 O330 2.427 . S
Tb322 O331 2.513 . S
Tb322 O332 2.453 . S
Tb322 O333 2.596 . S
Tb322 O334 2.374 . S
O323 Tb320 2.453 . S
O323 C339 1.245 . S
O324 Tb320 2.596 . S
O324 Tb322 2.343 . S
O324 C339 1.259 . S
O325 Tb320 2.374 . S
O325 C321 1.251 . S
C326 O330 1.275 . S
C326 O331 1.246 . S
O327 C321 1.263 . S
O327 Tb322 2.353 . S
C328 O332 1.245 . S
C328 O333 1.259 . S
C329 O334 1.250 . S
C329 O335 1.263 . S
O330 Tb322 2.427 . S
O330 C326 1.275 . S
O331 Tb322 2.513 . S
O331 C326 1.246 . S
O332 Tb322 2.453 . S
O332 C328 1.245 . S
O333 Tb320 2.343 . S
O333 Tb322 2.596 . S
O333 C328 1.259 . S
O334 Tb322 2.374 . S
O334 C329 1.250 . S
O335 Tb320 2.353 . S
O335 C329 1.263 . S
C336 O337 1.275 . S
C336 O338 1.246 . S
O337 Tb320 2.427 . S
O337 C336 1.275 . S
O338 Tb320 2.513 . S
O338 C336 1.246 . S
C339 O323 1.245 . S
C339 O324 1.259 . S
Tb340 O343 2.453 . S
Tb340 O344 2.596 . S
Tb340 O345 2.374 . S
Tb340 O353 2.343 . S
Tb340 O355 2.353 . S
Tb340 O357 2.427 . S
Tb340 O358 2.513 . S
C341 O345 1.251 . S
C341 O347 1.263 . S
Tb342 O344 2.343 . S
Tb342 O347 2.353 . S
Tb342 O350 2.427 . S
Tb342 O351 2.513 . S
Tb342 O352 2.453 . S
Tb342 O353 2.596 . S
Tb342 O354 2.374 . S
O343 Tb340 2.453 . S
O343 C359 1.245 . S
O344 Tb340 2.596 . S
O344 Tb342 2.343 . S
O344 C359 1.259 . S
O345 Tb340 2.374 . S
O345 C341 1.251 . S
C346 O350 1.275 . S
C346 O351 1.246 . S
O347 C341 1.263 . S
O347 Tb342 2.353 . S
C348 O352 1.245 . S
C348 O353 1.259 . S
C349 O354 1.250 . S
C349 O355 1.263 . S
O350 Tb342 2.427 . S
O350 C346 1.275 . S
O351 Tb342 2.513 . S
O351 C346 1.246 . S
O352 Tb342 2.453 . S
O352 C348 1.245 . S
O353 Tb340 2.343 . S
O353 Tb342 2.596 . S
O353 C348 1.259 . S
O354 Tb342 2.374 . S
O354 C349 1.250 . S
O355 Tb340 2.353 . S
O355 C349 1.263 . S
C356 O357 1.275 . S
C356 O358 1.246 . S
O357 Tb340 2.427 . S
O357 C356 1.275 . S
O358 Tb340 2.513 . S
O358 C356 1.246 . S
C359 O343 1.245 . S
C359 O344 1.259 . S
H360 C368 0.950 . S
H361 C373 0.950 . S
H362 C370 0.950 . S
H363 C372 0.950 . S
H364 C374 0.950 . S
H365 C376 0.950 . S
H366 C378 0.950 . S
H367 C379 0.950 . S
C368 H360 0.950 . S
C368 C369 1.386 . S
C368 C370 1.391 . S
C369 C368 1.386 . S
C369 C373 1.393 . S
C370 H362 0.950 . S
C370 C368 1.391 . S
C370 C371 1.400 . S
C371 C370 1.400 . S
C371 C372 1.398 . S
C371 C377 1.491 . S
C372 H363 0.950 . S
C372 C371 1.398 . S
C372 C373 1.391 . S
C373 H361 0.950 . S
C373 C369 1.393 . S
C373 C372 1.391 . S
C374 H364 0.950 . S
C374 C375 1.386 . S
C374 C376 1.391 . S
C375 C374 1.386 . S
C375 C379 1.393 . S
C376 H365 0.950 . S
C376 C374 1.391 . S
C376 C377 1.400 . S
C377 C371 1.491 . S
C377 C376 1.400 . S
C377 C378 1.398 . S
C378 H366 0.950 . S
C378 C377 1.398 . S
C378 C379 1.391 . S
C379 H367 0.950 . S
C379 C375 1.393 . S
C379 C378 1.391 . S
H380 C388 0.950 . S
H381 C393 0.950 . S
H382 C390 0.950 . S
H383 C392 0.950 . S
H384 C394 0.950 . S
H385 C396 0.950 . S
H386 C398 0.950 . S
H387 C399 0.950 . S
C388 H380 0.950 . S
C388 C389 1.386 . S
C388 C390 1.391 . S
C389 C388 1.386 . S
C389 C393 1.393 . S
C390 H382 0.950 . S
C390 C388 1.391 . S
C390 C391 1.400 . S
C391 C390 1.400 . S
C391 C392 1.398 . S
C391 C397 1.491 . S
C392 H383 0.950 . S
C392 C391 1.398 . S
C392 C393 1.391 . S
C393 H381 0.950 . S
C393 C389 1.393 . S
C393 C392 1.391 . S
C394 H384 0.950 . S
C394 C395 1.386 . S
C394 C396 1.391 . S
C395 C394 1.386 . S
C395 C399 1.393 . S
C396 H385 0.950 . S
C396 C394 1.391 . S
C396 C397 1.400 . S
C397 C391 1.491 . S
C397 C396 1.400 . S
C397 C398 1.398 . S
C398 H386 0.950 . S
C398 C397 1.398 . S
C398 C399 1.391 . S
C399 H387 0.950 . S
C399 C395 1.393 . S
C399 C398 1.391 . S
H400 C408 0.950 . S
H401 C413 0.950 . S
H402 C410 0.950 . S
H403 C412 0.950 . S
H404 C414 0.950 . S
H405 C416 0.950 . S
H406 C418 0.950 . S
H407 C419 0.950 . S
C408 H400 0.950 . S
C408 C409 1.386 . S
C408 C410 1.391 . S
C409 C408 1.386 . S
C409 C413 1.393 . S
C410 H402 0.950 . S
C410 C408 1.391 . S
C410 C411 1.400 . S
C411 C410 1.400 . S
C411 C412 1.398 . S
C411 C417 1.491 . S
C412 H403 0.950 . S
C412 C411 1.398 . S
C412 C413 1.391 . S
C413 H401 0.950 . S
C413 C409 1.393 . S
C413 C412 1.391 . S
C414 H404 0.950 . S
C414 C415 1.386 . S
C414 C416 1.391 . S
C415 C414 1.386 . S
C415 C419 1.393 . S
C416 H405 0.950 . S
C416 C414 1.391 . S
C416 C417 1.400 . S
C417 C411 1.491 . S
C417 C416 1.400 . S
C417 C418 1.398 . S
C418 H406 0.950 . S
C418 C417 1.398 . S
C418 C419 1.391 . S
C419 H407 0.950 . S
C419 C415 1.393 . S
C419 C418 1.391 . S
H420 C428 0.950 . S
H421 C433 0.950 . S
H422 C430 0.950 . S
H423 C432 0.950 . S
H424 C434 0.950 . S
H425 C436 0.950 . S
H426 C438 0.950 . S
H427 C439 0.950 . S
C428 H420 0.950 . S
C428 C429 1.386 . S
C428 C430 1.391 . S
C429 C428 1.386 . S
C429 C433 1.393 . S
C430 H422 0.950 . S
C430 C428 1.391 . S
C430 C431 1.400 . S
C431 C430 1.400 . S
C431 C432 1.398 . S
C431 C437 1.491 . S
C432 H423 0.950 . S
C432 C431 1.398 . S
C432 C433 1.391 . S
C433 H421 0.950 . S
C433 C429 1.393 . S
C433 C432 1.391 . S
C434 H424 0.950 . S
C434 C435 1.386 . S
C434 C436 1.391 . S
C435 C434 1.386 . S
C435 C439 1.393 . S
C436 H425 0.950 . S
C436 C434 1.391 . S
C436 C437 1.400 . S
C437 C431 1.491 . S
C437 C436 1.400 . S
C437 C438 1.398 . S
C438 H426 0.950 . S
C438 C437 1.398 . S
C438 C439 1.391 . S
C439 H427 0.950 . S
C439 C435 1.393 . S
C439 C438 1.391 . S
H440 C448 0.950 . S
H441 C453 0.950 . S
H442 C450 0.950 . S
H443 C452 0.950 . S
H444 C454 0.950 . S
H445 C456 0.950 . S
H446 C458 0.950 . S
H447 C459 0.950 . S
C448 H440 0.950 . S
C448 C449 1.386 . S
C448 C450 1.391 . S
C449 C448 1.386 . S
C449 C453 1.393 . S
C450 H442 0.950 . S
C450 C448 1.391 . S
C450 C451 1.400 . S
C451 C450 1.400 . S
C451 C452 1.398 . S
C451 C457 1.491 . S
C452 H443 0.950 . S
C452 C451 1.398 . S
C452 C453 1.391 . S
C453 H441 0.950 . S
C453 C449 1.393 . S
C453 C452 1.391 . S
C454 H444 0.950 . S
C454 C455 1.386 . S
C454 C456 1.391 . S
C455 C454 1.386 . S
C455 C459 1.393 . S
C456 H445 0.950 . S
C456 C454 1.391 . S
C456 C457 1.400 . S
C457 C451 1.491 . S
C457 C456 1.400 . S
C457 C458 1.398 . S
C458 H446 0.950 . S
C458 C457 1.398 . S
C458 C459 1.391 . S
C459 H447 0.950 . S
C459 C455 1.393 . S
C459 C458 1.391 . S
H460 C468 0.950 . S
H461 C473 0.950 . S
H462 C470 0.950 . S
H463 C472 0.950 . S
H464 C474 0.950 . S
H465 C476 0.950 . S
H466 C478 0.950 . S
H467 C479 0.950 . S
C468 H460 0.950 . S
C468 C469 1.386 . S
C468 C470 1.391 . S
C469 C468 1.386 . S
C469 C473 1.393 . S
C470 H462 0.950 . S
C470 C468 1.391 . S
C470 C471 1.400 . S
C471 C470 1.400 . S
C471 C472 1.398 . S
C471 C477 1.491 . S
C472 H463 0.950 . S
C472 C471 1.398 . S
C472 C473 1.391 . S
C473 H461 0.950 . S
C473 C469 1.393 . S
C473 C472 1.391 . S
C474 H464 0.950 . S
C474 C475 1.386 . S
C474 C476 1.391 . S
C475 C474 1.386 . S
C475 C479 1.393 . S
C476 H465 0.950 . S
C476 C474 1.391 . S
C476 C477 1.400 . S
C477 C471 1.491 . S
C477 C476 1.400 . S
C477 C478 1.398 . S
C478 H466 0.950 . S
C478 C477 1.398 . S
C478 C479 1.391 . S
C479 H467 0.950 . S
C479 C475 1.393 . S
C479 C478 1.391 . S
H480 C488 0.950 . S
H481 C493 0.950 . S
H482 C490 0.950 . S
H483 C492 0.950 . S
H484 C494 0.950 . S
H485 C496 0.950 . S
H486 C498 0.950 . S
H487 C499 0.950 . S
C488 H480 0.950 . S
C488 C489 1.386 . S
C488 C490 1.391 . S
C489 C488 1.386 . S
C489 C493 1.393 . S
C490 H482 0.950 . S
C490 C488 1.391 . S
C490 C491 1.400 . S
C491 C490 1.400 . S
C491 C492 1.398 . S
C491 C497 1.491 . S
C492 H483 0.950 . S
C492 C491 1.398 . S
C492 C493 1.391 . S
C493 H481 0.950 . S
C493 C489 1.393 . S
C493 C492 1.391 . S
C494 H484 0.950 . S
C494 C495 1.386 . S
C494 C496 1.391 . S
C495 C494 1.386 . S
C495 C499 1.393 . S
C496 H485 0.950 . S
C496 C494 1.391 . S
C496 C497 1.400 . S
C497 C491 1.491 . S
C497 C496 1.400 . S
C497 C498 1.398 . S
C498 H486 0.950 . S
C498 C497 1.398 . S
C498 C499 1.391 . S
C499 H487 0.950 . S
C499 C495 1.393 . S
C499 C498 1.391 . S
H500 C508 0.950 . S
H501 C513 0.950 . S
H502 C510 0.950 . S
H503 C512 0.950 . S
H504 C514 0.950 . S
H505 C516 0.950 . S
H506 C518 0.950 . S
H507 C519 0.950 . S
C508 H500 0.950 . S
C508 C509 1.386 . S
C508 C510 1.391 . S
C509 C508 1.386 . S
C509 C513 1.393 . S
C510 H502 0.950 . S
C510 C508 1.391 . S
C510 C511 1.400 . S
C511 C510 1.400 . S
C511 C512 1.398 . S
C511 C517 1.491 . S
C512 H503 0.950 . S
C512 C511 1.398 . S
C512 C513 1.391 . S
C513 H501 0.950 . S
C513 C509 1.393 . S
C513 C512 1.391 . S
C514 H504 0.950 . S
C514 C515 1.386 . S
C514 C516 1.391 . S
C515 C514 1.386 . S
C515 C519 1.393 . S
C516 H505 0.950 . S
C516 C514 1.391 . S
C516 C517 1.400 . S
C517 C511 1.491 . S
C517 C516 1.400 . S
C517 C518 1.398 . S
C518 H506 0.950 . S
C518 C517 1.398 . S
C518 C519 1.391 . S
C519 H507 0.950 . S
C519 C515 1.393 . S
C519 C518 1.391 . S
H520 C528 0.950 . S
H521 C533 0.950 . S
H522 C530 0.950 . S
H523 C532 0.950 . S
H524 C534 0.950 . S
H525 C536 0.950 . S
H526 C538 0.950 . S
H527 C539 0.950 . S
C528 H520 0.950 . S
C528 C529 1.386 . S
C528 C530 1.391 . S
C529 C528 1.386 . S
C529 C533 1.393 . S
C530 H522 0.950 . S
C530 C528 1.391 . S
C530 C531 1.400 . S
C531 C530 1.400 . S
C531 C532 1.398 . S
C531 C537 1.491 . S
C532 H523 0.950 . S
C532 C531 1.398 . S
C532 C533 1.391 . S
C533 H521 0.950 . S
C533 C529 1.393 . S
C533 C532 1.391 . S
C534 H524 0.950 . S
C534 C535 1.386 . S
C534 C536 1.391 . S
C535 C534 1.386 . S
C535 C539 1.393 . S
C536 H525 0.950 . S
C536 C534 1.391 . S
C536 C537 1.400 . S
C537 C531 1.491 . S
C537 C536 1.400 . S
C537 C538 1.398 . S
C538 H526 0.950 . S
C538 C537 1.398 . S
C538 C539 1.391 . S
C539 H527 0.950 . S
C539 C535 1.393 . S
C539 C538 1.391 . S
H540 C548 0.950 . S
H541 C553 0.950 . S
H542 C550 0.950 . S
H543 C552 0.950 . S
H544 C554 0.950 . S
H545 C556 0.950 . S
H546 C558 0.950 . S
H547 C559 0.950 1_545 S
C548 H540 0.950 . S
C548 C549 1.386 . S
C548 C550 1.391 . S
C549 C548 1.386 . S
C549 C553 1.393 . S
C550 H542 0.950 . S
C550 C548 1.391 . S
C550 C551 1.400 . S
C551 C550 1.400 . S
C551 C552 1.398 . S
C551 C557 1.491 . S
C552 H543 0.950 . S
C552 C551 1.398 . S
C552 C553 1.391 . S
C553 H541 0.950 . S
C553 C549 1.393 . S
C553 C552 1.391 . S
C554 H544 0.950 . S
C554 C555 1.386 . S
C554 C556 1.391 . S
C555 C554 1.386 . S
C555 C559 1.393 . S
C556 H545 0.950 . S
C556 C554 1.391 . S
C556 C557 1.400 . S
C557 C551 1.491 . S
C557 C556 1.400 . S
C557 C558 1.398 . S
C558 H546 0.950 . S
C558 C557 1.398 . S
C558 C559 1.391 . S
C559 H547 0.950 1_565 S
C559 C555 1.393 . S
C559 C558 1.391 . S
H560 C568 0.950 . S
H561 C573 0.950 . S
H562 C570 0.950 . S
H563 C572 0.950 . S
H564 C574 0.950 . S
H565 C576 0.950 . S
H566 C578 0.950 . S
H567 C579 0.950 . S
C568 H560 0.950 . S
C568 C569 1.386 . S
C568 C570 1.391 . S
C569 C568 1.386 . S
C569 C573 1.393 . S
C570 H562 0.950 . S
C570 C568 1.391 . S
C570 C571 1.400 . S
C571 C570 1.400 . S
C571 C572 1.398 . S
C571 C577 1.491 . S
C572 H563 0.950 . S
C572 C571 1.398 . S
C572 C573 1.391 . S
C573 H561 0.950 . S
C573 C569 1.393 . S
C573 C572 1.391 . S
C574 H564 0.950 . S
C574 C575 1.386 . S
C574 C576 1.391 . S
C575 C574 1.386 . S
C575 C579 1.393 . S
C576 H565 0.950 . S
C576 C574 1.391 . S
C576 C577 1.400 . S
C577 C571 1.491 . S
C577 C576 1.400 . S
C577 C578 1.398 . S
C578 H566 0.950 . S
C578 C577 1.398 . S
C578 C579 1.391 . S
C579 H567 0.950 . S
C579 C575 1.393 . S
C579 C578 1.391 . S
H580 C588 0.950 . S
H581 C593 0.950 . S
H582 C590 0.950 . S
H583 C592 0.950 . S
H584 C594 0.950 . S
H585 C596 0.950 . S
H586 C598 0.950 . S
H587 C599 0.950 . S
C588 H580 0.950 . S
C588 C589 1.386 . S
C588 C590 1.391 . S
C589 C588 1.386 . S
C589 C593 1.393 . S
C590 H582 0.950 . S
C590 C588 1.391 . S
C590 C591 1.400 . S
C591 C590 1.400 . S
C591 C592 1.398 . S
C591 C597 1.491 . S
C592 H583 0.950 . S
C592 C591 1.398 . S
C592 C593 1.391 . S
C593 H581 0.950 . S
C593 C589 1.393 . S
C593 C592 1.391 . S
C594 H584 0.950 . S
C594 C595 1.386 . S
C594 C596 1.391 . S
C595 C594 1.386 . S
C595 C599 1.393 . S
C596 H585 0.950 . S
C596 C594 1.391 . S
C596 C597 1.400 . S
C597 C591 1.491 . S
C597 C596 1.400 . S
C597 C598 1.398 . S
C598 H586 0.950 . S
C598 C597 1.398 . S
C598 C599 1.391 . S
C599 H587 0.950 . S
C599 C595 1.393 . S
C599 C598 1.391 . S
H600 C608 0.950 1_655 S
H601 C613 0.950 1_554 S
H602 C610 0.950 . S
H603 C612 0.950 . S
H604 C614 0.950 . S
H605 C616 0.950 . S
H606 C618 0.950 . S
H607 C619 0.950 1_556 S
C608 H600 0.950 1_455 S
C608 C609 1.386 1_455 S
C608 C610 1.391 . S
C609 C608 1.386 1_655 S
C609 C613 1.393 . S
C610 H602 0.950 . S
C610 C608 1.391 . S
C610 C611 1.400 . S
C611 C610 1.400 . S
C611 C612 1.398 1_556 S
C611 C617 1.491 1_556 S
C612 H603 0.950 . S
C612 C611 1.398 1_554 S
C612 C613 1.391 1_454 S
C613 H601 0.950 1_556 S
C613 C609 1.393 . S
C613 C612 1.391 1_656 S
C614 H604 0.950 . S
C614 C615 1.386 . S
C614 C616 1.391 . S
C615 C614 1.386 . S
C615 C619 1.393 . S
C616 H605 0.950 . S
C616 C614 1.391 . S
C616 C617 1.400 . S
C617 C611 1.491 1_554 S
C617 C616 1.400 . S
C617 C618 1.398 1_554 S
C618 H606 0.950 . S
C618 C617 1.398 1_556 S
C618 C619 1.391 1_556 S
C619 H607 0.950 1_554 S
C619 C615 1.393 . S
C619 C618 1.391 1_554 S
H620 C628 0.950 . S
H621 C633 0.944 1_554 S
H622 C630 0.950 . S
H623 C632 0.950 . S
H624 C634 0.950 . S
H625 C636 0.950 . S
H626 C638 0.950 . S
H627 C639 0.950 . S
C628 H620 0.950 . S
C628 C629 1.386 . S
C628 C630 1.391 . S
C629 C628 1.386 . S
C629 C633 1.393 . S
C630 H622 0.950 . S
C630 C628 1.391 . S
C630 C631 1.400 . S
C631 C630 1.400 . S
C631 C632 1.398 1_556 S
C631 C637 1.491 . S
C632 H623 0.950 . S
C632 C631 1.398 1_554 S
C632 C633 1.391 1_554 S
C633 H621 0.944 1_556 S
C633 C629 1.393 . S
C633 C632 1.391 1_556 S
C634 H624 0.950 . S
C634 C635 1.386 . S
C634 C636 1.391 . S
C635 C634 1.386 . S
C635 C639 1.393 1_554 S
C636 H625 0.950 . S
C636 C634 1.391 . S
C636 C637 1.400 1_554 S
C637 C631 1.491 . S
C637 C636 1.400 1_556 S
C637 C638 1.398 . S
C638 H626 0.950 . S
C638 C637 1.398 . S
C638 C639 1.391 . S
C639 H627 0.950 . S
C639 C635 1.393 1_556 S
C639 C638 1.391 . S
H640 C648 0.950 . S
H641 C653 0.950 . S
H642 C650 0.950 . S
H643 C652 0.950 . S
H644 C654 0.950 . S
H645 C656 0.950 . S
H646 C658 0.950 . S
H647 C659 0.950 . S
C648 H640 0.950 . S
C648 C649 1.386 . S
C648 C650 1.391 . S
C649 C648 1.386 . S
C649 C653 1.393 . S
C650 H642 0.950 . S
C650 C648 1.391 . S
C650 C651 1.400 . S
C651 C650 1.400 . S
C651 C652 1.398 . S
C651 C657 1.491 . S
C652 H643 0.950 . S
C652 C651 1.398 . S
C652 C653 1.391 . S
C653 H641 0.950 . S
C653 C649 1.393 . S
C653 C652 1.391 . S
C654 H644 0.950 . S
C654 C655 1.386 . S
C654 C656 1.391 1_565 S
C655 C654 1.386 . S
C655 C659 1.393 . S
C656 H645 0.950 . S
C656 C654 1.391 1_545 S
C656 C657 1.400 1_554 S
C657 C651 1.491 . S
C657 C656 1.400 1_556 S
C657 C658 1.398 . S
C658 H646 0.950 . S
C658 C657 1.398 . S
C658 C659 1.391 1_546 S
C659 H647 0.950 . S
C659 C655 1.393 . S
C659 C658 1.391 1_564 S
H660 C668 0.950 . S
H661 C673 0.950 . S
H662 C670 0.950 . S
H663 C672 0.950 . S
H664 C674 0.943 1_565 S
H665 C676 0.950 . S
H666 C678 0.950 . S
H667 C679 0.950 . S
C668 H660 0.950 . S
C668 C669 1.386 . S
C668 C670 1.391 . S
C669 C668 1.386 . S
C669 C673 1.393 . S
C670 H662 0.950 . S
C670 C668 1.391 . S
C670 C671 1.400 . S
C671 C670 1.400 . S
C671 C672 1.398 . S
C671 C677 1.491 1_556 S
C672 H663 0.950 . S
C672 C671 1.398 . S
C672 C673 1.391 . S
C673 H661 0.950 . S
C673 C669 1.393 . S
C673 C672 1.391 . S
C674 H664 0.943 1_545 S
C674 C675 1.385 1_545 S
C674 C676 1.398 . S
C675 C674 1.385 1_565 S
C675 C679 1.393 . S
C676 H665 0.950 . S
C676 C674 1.398 . S
C676 C677 1.400 . S
C677 C671 1.491 1_554 S
C677 C676 1.400 . S
C677 C678 1.398 . S
C678 H666 0.950 . S
C678 C677 1.398 . S
C678 C679 1.391 1_545 S
C679 H667 0.950 . S
C679 C675 1.393 . S
C679 C678 1.391 1_565 S
H680 C688 0.950 . S
H681 C693 0.950 . S
H682 C690 0.950 . S
H683 C692 0.950 . S
H684 C694 0.950 . S
H685 C696 0.950 . S
H686 C698 0.950 . S
H687 C699 0.950 . S
C688 H680 0.950 . S
C688 C689 1.386 . S
C688 C690 1.391 . S
C689 C688 1.386 . S
C689 C693 1.393 . S
C690 H682 0.950 . S
C690 C688 1.391 . S
C690 C691 1.400 . S
C691 C690 1.400 . S
C691 C692 1.398 . S
C691 C697 1.491 . S
C692 H683 0.950 . S
C692 C691 1.398 . S
C692 C693 1.391 . S
C693 H681 0.950 . S
C693 C689 1.393 . S
C693 C692 1.391 . S
C694 H684 0.950 . S
C694 C695 1.386 . S
C694 C696 1.391 1_655 S
C695 C694 1.386 . S
C695 C699 1.393 1_556 S
C696 H685 0.950 . S
C696 C694 1.391 1_455 S
C696 C697 1.400 1_556 S
C697 C691 1.491 . S
C697 C696 1.400 1_554 S
C697 C698 1.398 . S
C698 H686 0.950 . S
C698 C697 1.398 . S
C698 C699 1.391 1_455 S
C699 H687 0.950 . S
C699 C695 1.393 1_554 S
C699 C698 1.391 1_655 S
H700 C708 0.950 1_556 S
H701 C713 0.950 . S
H702 C710 0.950 . S
H703 C712 0.950 . S
H704 C714 0.950 . S
H705 C716 0.950 . S
H706 C718 0.950 . S
H707 C719 0.950 . S
C708 H700 0.950 1_554 S
C708 C709 1.386 . S
C708 C710 1.391 1_554 S
C709 C708 1.386 . S
C709 C713 1.393 . S
C710 H702 0.950 . S
C710 C708 1.391 1_556 S
C710 C711 1.400 1_556 S
C711 C710 1.400 1_554 S
C711 C712 1.398 . S
C711 C717 1.491 . S
C712 H703 0.950 . S
C712 C711 1.398 . S
C712 C713 1.391 . S
C713 H701 0.950 . S
C713 C709 1.393 . S
C713 C712 1.391 . S
C714 H704 0.950 . S
C714 C715 1.386 1_554 S
C714 C716 1.391 . S
C715 C714 1.386 1_556 S
C715 C719 1.393 . S
C716 H705 0.950 . S
C716 C714 1.391 . S
C716 C717 1.400 . S
C717 C711 1.491 . S
C717 C716 1.400 . S
C717 C718 1.398 1_554 S
C718 H706 0.950 . S
C718 C717 1.398 1_556 S
C718 C719 1.391 . S
C719 H707 0.950 . S
C719 C715 1.393 . S
C719 C718 1.391 . S
H720 C728 0.950 . S
H721 C733 0.950 . S
H722 C730 0.950 . S
H723 C732 0.950 . S
H724 C734 0.950 . S
H725 C736 0.950 . S
H726 C738 0.950 . S
H727 C739 0.950 . S
C728 H720 0.950 . S
C728 C729 1.386 . S
C728 C730 1.391 . S
C729 C728 1.386 . S
C729 C733 1.393 . S
C730 H722 0.950 . S
C730 C728 1.391 . S
C730 C731 1.400 . S
C731 C730 1.400 . S
C731 C732 1.398 . S
C731 C737 1.491 . S
C732 H723 0.950 . S
C732 C731 1.398 . S
C732 C733 1.391 . S
C733 H721 0.950 . S
C733 C729 1.393 . S
C733 C732 1.391 . S
C734 H724 0.950 . S
C734 C735 1.386 . S
C734 C736 1.391 . S
C735 C734 1.386 . S
C735 C739 1.393 . S
C736 H725 0.950 . S
C736 C734 1.391 . S
C736 C737 1.400 . S
C737 C731 1.491 . S
C737 C736 1.400 . S
C737 C738 1.398 . S
C738 H726 0.950 . S
C738 C737 1.398 . S
C738 C739 1.391 . S
C739 H727 0.950 . S
C739 C735 1.393 . S
C739 C738 1.391 . S
H740 C748 0.950 . S
H741 C753 0.950 . S
H742 C750 0.950 . S
H743 C752 0.950 . S
H744 C754 0.950 . S
H745 C756 0.950 . S
H746 C758 0.950 . S
H747 C759 0.950 . S
C748 H740 0.950 . S
C748 C749 1.386 . S
C748 C750 1.391 . S
C749 C748 1.386 . S
C749 C753 1.393 . S
C750 H742 0.950 . S
C750 C748 1.391 . S
C750 C751 1.400 . S
C751 C750 1.400 . S
C751 C752 1.398 . S
C751 C757 1.491 . S
C752 H743 0.950 . S
C752 C751 1.398 . S
C752 C753 1.391 . S
C753 H741 0.950 . S
C753 C749 1.393 . S
C753 C752 1.391 . S
C754 H744 0.950 . S
C754 C755 1.386 . S
C754 C756 1.391 . S
C755 C754 1.386 . S
C755 C759 1.393 . S
C756 H745 0.950 . S
C756 C754 1.391 . S
C756 C757 1.400 . S
C757 C751 1.491 . S
C757 C756 1.400 . S
C757 C758 1.398 . S
C758 H746 0.950 . S
C758 C757 1.398 . S
C758 C759 1.391 . S
C759 H747 0.950 . S
C759 C755 1.393 . S
C759 C758 1.391 . S
H760 C768 0.950 . S
H761 C773 0.950 . S
H762 C770 0.950 . S
H763 C772 0.950 . S
H764 C774 0.950 . S
H765 C776 0.950 . S
H766 C778 0.950 . S
H767 C779 0.950 . S
C768 H760 0.950 . S
C768 C769 1.386 . S
C768 C770 1.391 . S
C769 C768 1.386 . S
C769 C773 1.393 . S
C770 H762 0.950 . S
C770 C768 1.391 . S
C770 C771 1.400 . S
C771 C770 1.400 . S
C771 C772 1.398 . S
C771 C777 1.491 . S
C772 H763 0.950 . S
C772 C771 1.398 . S
C772 C773 1.391 . S
C773 H761 0.950 . S
C773 C769 1.393 . S
C773 C772 1.391 . S
C774 H764 0.950 . S
C774 C775 1.386 . S
C774 C776 1.391 . S
C775 C774 1.386 . S
C775 C779 1.393 . S
C776 H765 0.950 . S
C776 C774 1.391 . S
C776 C777 1.400 . S
C777 C771 1.491 . S
C777 C776 1.400 . S
C777 C778 1.398 . S
C778 H766 0.950 . S
C778 C777 1.398 . S
C778 C779 1.391 . S
C779 H767 0.950 . S
C779 C775 1.393 . S
C779 C778 1.391 . S
H780 C788 0.950 . S
H781 C793 0.950 . S
H782 C790 0.950 . S
H783 C792 0.950 . S
H784 C794 0.950 . S
H785 C796 0.950 . S
H786 C798 0.950 . S
H787 C799 0.950 . S
C788 H780 0.950 . S
C788 C789 1.386 . S
C788 C790 1.391 . S
C789 C788 1.386 . S
C789 C793 1.393 . S
C790 H782 0.950 . S
C790 C788 1.391 . S
C790 C791 1.400 . S
C791 C790 1.400 . S
C791 C792 1.398 . S
C791 C797 1.491 . S
C792 H783 0.950 . S
C792 C791 1.398 . S
C792 C793 1.391 . S
C793 H781 0.950 . S
C793 C789 1.393 . S
C793 C792 1.391 . S
C794 H784 0.950 . S
C794 C795 1.386 . S
C794 C796 1.391 . S
C795 C794 1.386 . S
C795 C799 1.393 . S
C796 H785 0.950 . S
C796 C794 1.391 . S
C796 C797 1.400 . S
C797 C791 1.491 . S
C797 C796 1.400 . S
C797 C798 1.398 . S
C798 H786 0.950 . S
C798 C797 1.398 . S
C798 C799 1.391 . S
C799 H787 0.950 . S
C799 C795 1.393 . S
C799 C798 1.391 . S
H800 C808 0.950 . S
H801 C813 0.950 . S
H802 C810 0.950 . S
H803 C812 0.950 . S
H804 C814 0.950 . S
H805 C816 0.950 . S
H806 C818 0.950 . S
H807 C819 0.950 . S
C808 H800 0.950 . S
C808 C809 1.386 . S
C808 C810 1.391 . S
C809 C808 1.386 . S
C809 C813 1.393 . S
C810 H802 0.950 . S
C810 C808 1.391 . S
C810 C811 1.400 . S
C811 C810 1.400 . S
C811 C812 1.398 . S
C811 C817 1.491 . S
C812 H803 0.950 . S
C812 C811 1.398 . S
C812 C813 1.391 . S
C813 H801 0.950 . S
C813 C809 1.393 . S
C813 C812 1.391 . S
C814 H804 0.950 . S
C814 C815 1.386 . S
C814 C816 1.391 . S
C815 C814 1.386 . S
C815 C819 1.393 . S
C816 H805 0.950 . S
C816 C814 1.391 . S
C816 C817 1.400 . S
C817 C811 1.491 . S
C817 C816 1.400 . S
C817 C818 1.398 . S
C818 H806 0.950 . S
C818 C817 1.398 . S
C818 C819 1.391 . S
C819 H807 0.950 . S
C819 C815 1.393 . S
C819 C818 1.391 . S
H820 C828 0.950 . S
H821 C833 0.950 . S
H822 C830 0.950 . S
H823 C832 0.950 . S
H824 C834 0.950 . S
H825 C836 0.950 . S
H826 C838 0.950 . S
H827 C839 0.950 . S
C828 H820 0.950 . S
C828 C829 1.386 . S
C828 C830 1.391 . S
C829 C828 1.386 . S
C829 C833 1.393 . S
C830 H822 0.950 . S
C830 C828 1.391 . S
C830 C831 1.400 . S
C831 C830 1.400 . S
C831 C832 1.398 . S
C831 C837 1.491 . S
C832 H823 0.950 . S
C832 C831 1.398 . S
C832 C833 1.391 . S
C833 H821 0.950 . S
C833 C829 1.393 . S
C833 C832 1.391 . S
C834 H824 0.950 . S
C834 C835 1.386 . S
C834 C836 1.391 . S
C835 C834 1.386 . S
C835 C839 1.393 . S
C836 H825 0.950 . S
C836 C834 1.391 . S
C836 C837 1.400 . S
C837 C831 1.491 . S
C837 C836 1.400 . S
C837 C838 1.398 . S
C838 H826 0.950 . S
C838 C837 1.398 . S
C838 C839 1.391 . S
C839 H827 0.950 . S
C839 C835 1.393 . S
C839 C838 1.391 . S
H840 C848 0.950 . S
H841 C853 0.950 . S
H842 C850 0.950 . S
H843 C852 0.950 . S
H844 C854 0.950 . S
H845 C856 0.950 . S
H846 C858 0.950 . S
H847 C859 0.950 . S
C848 H840 0.950 . S
C848 C849 1.386 . S
C848 C850 1.391 . S
C849 C848 1.386 . S
C849 C853 1.393 . S
C850 H842 0.950 . S
C850 C848 1.391 . S
C850 C851 1.400 . S
C851 C850 1.400 . S
C851 C852 1.398 . S
C851 C857 1.491 . S
C852 H843 0.950 . S
C852 C851 1.398 . S
C852 C853 1.391 . S
C853 H841 0.950 . S
C853 C849 1.393 . S
C853 C852 1.391 . S
C854 H844 0.950 . S
C854 C855 1.386 . S
C854 C856 1.391 . S
C855 C854 1.386 . S
C855 C859 1.393 . S
C856 H845 0.950 . S
C856 C854 1.391 . S
C856 C857 1.400 . S
C857 C851 1.491 . S
C857 C856 1.400 . S
C857 C858 1.398 . S
C858 H846 0.950 . S
C858 C857 1.398 . S
C858 C859 1.391 . S
C859 H847 0.950 . S
C859 C855 1.393 . S
C859 C858 1.391 . S
H860 C868 0.950 . S
H861 C873 0.950 . S
H862 C870 0.950 . S
H863 C872 0.950 . S
H864 C874 0.950 . S
H865 C876 0.950 . S
H866 C878 0.950 . S
H867 C879 0.950 . S
C868 H860 0.950 . S
C868 C869 1.386 . S
C868 C870 1.391 . S
C869 C868 1.386 . S
C869 C873 1.393 . S
C870 H862 0.950 . S
C870 C868 1.391 . S
C870 C871 1.400 . S
C871 C870 1.400 . S
C871 C872 1.398 . S
C871 C877 1.491 . S
C872 H863 0.950 . S
C872 C871 1.398 . S
C872 C873 1.391 . S
C873 H861 0.950 . S
C873 C869 1.393 . S
C873 C872 1.391 . S
C874 H864 0.950 . S
C874 C875 1.386 . S
C874 C876 1.391 . S
C875 C874 1.386 . S
C875 C879 1.393 . S
C876 H865 0.950 . S
C876 C874 1.391 . S
C876 C877 1.400 . S
C877 C871 1.491 . S
C877 C876 1.400 . S
C877 C878 1.398 . S
C878 H866 0.950 . S
C878 C877 1.398 . S
C878 C879 1.391 . S
C879 H867 0.950 . S
C879 C875 1.393 . S
C879 C878 1.391 . S
H880 C888 0.950 . S
H881 C893 0.950 . S
H882 C890 0.950 . S
H883 C892 0.950 . S
H884 C894 0.950 . S
H885 C896 0.950 . S
H886 C898 0.950 . S
H887 C899 0.950 . S
C888 H880 0.950 . S
C888 C889 1.386 . S
C888 C890 1.391 . S
C889 C888 1.386 . S
C889 C893 1.393 . S
C890 H882 0.950 . S
C890 C888 1.391 . S
C890 C891 1.400 . S
C891 C890 1.400 . S
C891 C892 1.398 . S
C891 C897 1.491 . S
C892 H883 0.950 . S
C892 C891 1.398 . S
C892 C893 1.391 . S
C893 H881 0.950 . S
C893 C889 1.393 . S
C893 C892 1.391 . S
C894 H884 0.950 . S
C894 C895 1.386 . S
C894 C896 1.391 . S
C895 C894 1.386 . S
C895 C899 1.393 . S
C896 H885 0.950 . S
C896 C894 1.391 . S
C896 C897 1.400 . S
C897 C891 1.491 . S
C897 C896 1.400 . S
C897 C898 1.398 . S
C898 H886 0.950 . S
C898 C897 1.398 . S
C898 C899 1.391 . S
C899 H887 0.950 . S
C899 C895 1.393 . S
C899 C898 1.391 . S
H900 C908 0.950 . S
H901 C913 0.950 . S
H902 C910 0.950 . S
H903 C912 0.950 . S
H904 C914 0.950 . S
H905 C916 0.950 . S
H906 C918 0.950 . S
H907 C919 0.950 . S
C908 H900 0.950 . S
C908 C909 1.386 . S
C908 C910 1.391 . S
C909 C908 1.386 . S
C909 C913 1.393 . S
C910 H902 0.950 . S
C910 C908 1.391 . S
C910 C911 1.400 . S
C911 C910 1.400 . S
C911 C912 1.398 . S
C911 C917 1.491 . S
C912 H903 0.950 . S
C912 C911 1.398 . S
C912 C913 1.391 . S
C913 H901 0.950 . S
C913 C909 1.393 . S
C913 C912 1.391 . S
C914 H904 0.950 . S
C914 C915 1.386 . S
C914 C916 1.391 . S
C915 C914 1.386 . S
C915 C919 1.393 . S
C916 H905 0.950 . S
C916 C914 1.391 . S
C916 C917 1.400 . S
C917 C911 1.491 . S
C917 C916 1.400 . S
C917 C918 1.398 . S
C918 H906 0.950 . S
C918 C917 1.398 . S
C918 C919 1.391 . S
C919 H907 0.950 . S
C919 C915 1.393 . S
C919 C918 1.391 . S
H920 C928 0.950 . S
H921 C933 0.950 . S
H922 C930 0.950 . S
H923 C932 0.950 . S
H924 C934 0.950 . S
H925 C936 0.950 . S
H926 C938 0.950 . S
H927 C939 0.950 . S
C928 H920 0.950 . S
C928 C929 1.386 . S
C928 C930 1.391 . S
C929 C928 1.386 . S
C929 C933 1.393 . S
C930 H922 0.950 . S
C930 C928 1.391 . S
C930 C931 1.400 . S
C931 C930 1.400 . S
C931 C932 1.398 . S
C931 C937 1.491 . S
C932 H923 0.950 . S
C932 C931 1.398 . S
C932 C933 1.391 . S
C933 H921 0.950 . S
C933 C929 1.393 . S
C933 C932 1.391 . S
C934 H924 0.950 . S
C934 C935 1.386 . S
C934 C936 1.391 . S
C935 C934 1.386 . S
C935 C939 1.393 . S
C936 H925 0.950 . S
C936 C934 1.391 . S
C936 C937 1.400 . S
C937 C931 1.491 . S
C937 C936 1.400 . S
C937 C938 1.398 . S
C938 H926 0.950 . S
C938 C937 1.398 . S
C938 C939 1.391 . S
C939 H927 0.950 . S
C939 C935 1.393 . S
C939 C938 1.391 . S
H940 C948 0.950 . S
H941 C953 0.950 . S
H942 C950 0.950 . S
H943 C952 0.950 . S
H944 C954 0.950 . S
H945 C956 0.950 . S
H946 C958 0.950 . S
H947 C959 0.950 . S
C948 H940 0.950 . S
C948 C949 1.386 . S
C948 C950 1.391 . S
C949 C948 1.386 . S
C949 C953 1.393 . S
C950 H942 0.950 . S
C950 C948 1.391 . S
C950 C951 1.400 . S
C951 C950 1.400 . S
C951 C952 1.398 . S
C951 C957 1.491 . S
C952 H943 0.950 . S
C952 C951 1.398 . S
C952 C953 1.391 . S
C953 H941 0.950 . S
C953 C949 1.393 . S
C953 C952 1.391 . S
C954 H944 0.950 . S
C954 C955 1.386 . S
C954 C956 1.391 . S
C955 C954 1.386 . S
C955 C959 1.393 . S
C956 H945 0.950 . S
C956 C954 1.391 . S
C956 C957 1.400 . S
C957 C951 1.491 . S
C957 C956 1.400 . S
C957 C958 1.398 . S
C958 H946 0.950 . S
C958 C957 1.398 . S
C958 C959 1.391 . S
C959 H947 0.950 . S
C959 C955 1.393 . S
C959 C958 1.391 . S
H960 C968 0.950 . S
H961 C973 0.950 . S
H962 C970 0.950 . S
H963 C972 0.950 . S
H964 C974 0.950 . S
H965 C976 0.950 . S
H966 C978 0.950 . S
H967 C979 0.950 . S
C968 H960 0.950 . S
C968 C969 1.386 . S
C968 C970 1.391 . S
C969 C968 1.386 . S
C969 C973 1.393 . S
C970 H962 0.950 . S
C970 C968 1.391 . S
C970 C971 1.400 . S
C971 C970 1.400 . S
C971 C972 1.398 . S
C971 C977 1.491 . S
C972 H963 0.950 . S
C972 C971 1.398 . S
C972 C973 1.391 . S
C973 H961 0.950 . S
C973 C969 1.393 . S
C973 C972 1.391 . S
C974 H964 0.950 . S
C974 C975 1.386 . S
C974 C976 1.391 . S
C975 C974 1.386 . S
C975 C979 1.393 . S
C976 H965 0.950 . S
C976 C974 1.391 . S
C976 C977 1.400 . S
C977 C971 1.491 . S
C977 C976 1.400 . S
C977 C978 1.398 . S
C978 H966 0.950 . S
C978 C977 1.398 . S
C978 C979 1.391 . S
C979 H967 0.950 . S
C979 C975 1.393 . S
C979 C978 1.391 . S
H980 C988 0.950 1_556 S
H981 C993 0.950 . S
H982 C990 0.950 1_556 S
H983 C992 0.950 . S
H984 C994 0.950 . S
H985 C996 0.950 . S
H986 C998 0.950 . S
H987 C999 0.950 . S
C988 H980 0.950 1_554 S
C988 C989 1.386 . S
C988 C990 1.391 . S
C989 C988 1.386 . S
C989 C993 1.393 . S
C990 H982 0.950 1_554 S
C990 C988 1.391 . S
C990 C991 1.400 . S
C991 C990 1.400 . S
C991 C992 1.398 . S
C991 C997 1.491 . S
C992 H983 0.950 . S
C992 C991 1.398 . S
C992 C993 1.391 . S
C993 H981 0.950 . S
C993 C989 1.393 . S
C993 C992 1.391 . S
C994 H984 0.950 . S
C994 C995 1.386 . S
C994 C996 1.391 . S
C995 C994 1.386 . S
C995 C999 1.393 1_554 S
C996 H985 0.950 . S
C996 C994 1.391 . S
C996 C997 1.400 . S
C997 C991 1.491 . S
C997 C996 1.400 . S
C997 C998 1.398 1_554 S
C998 H986 0.950 . S
C998 C997 1.398 1_556 S
C998 C999 1.391 . S
C999 H987 0.950 . S
C999 C995 1.393 1_556 S
C999 C998 1.391 . S
H1000 C1008 0.950 . S
H1001 C1013 0.950 . S
H1002 C1010 0.950 . S
H1003 C1012 0.950 . S
H1004 C1014 0.950 1_556 S
H1005 C1016 0.950 1_556 S
H1006 C1018 0.950 . S
H1007 C1019 0.950 . S
C1008 H1000 0.950 . S
C1008 C1009 1.386 . S
C1008 C1010 1.391 . S
C1009 C1008 1.386 . S
C1009 C1013 1.393 . S
C1010 H1002 0.950 . S
C1010 C1008 1.391 . S
C1010 C1011 1.400 . S
C1011 C1010 1.400 . S
C1011 C1012 1.398 . S
C1011 C1017 1.491 . S
C1012 H1003 0.950 . S
C1012 C1011 1.398 . S
C1012 C1013 1.391 . S
C1013 H1001 0.950 . S
C1013 C1009 1.393 . S
C1013 C1012 1.391 . S
C1014 H1004 0.950 1_554 S
C1014 C1015 1.386 . S
C1014 C1016 1.391 . S
C1015 C1014 1.386 . S
C1015 C1019 1.393 . S
C1016 H1005 0.950 1_554 S
C1016 C1014 1.391 . S
C1016 C1017 1.400 . S
C1017 C1011 1.491 . S
C1017 C1016 1.400 . S
C1017 C1018 1.398 . S
C1018 H1006 0.950 . S
C1018 C1017 1.398 . S
C1018 C1019 1.391 . S
C1019 H1007 0.950 . S
C1019 C1015 1.393 . S
C1019 C1018 1.391 . S
H1020 C1028 0.950 . S
H1021 C1033 0.950 . S
H1022 C1030 0.950 . S
H1023 C1032 0.950 . S
H1024 C1034 0.950 . S
H1025 C1036 0.950 . S
H1026 C1038 0.950 . S
H1027 C1039 0.950 . S
C1028 H1020 0.950 . S
C1028 C1029 1.386 . S
C1028 C1030 1.391 . S
C1029 C1028 1.386 . S
C1029 C1033 1.393 . S
C1030 H1022 0.950 . S
C1030 C1028 1.391 . S
C1030 C1031 1.400 . S
C1031 C1030 1.400 . S
C1031 C1032 1.398 . S
C1031 C1037 1.491 . S
C1032 H1023 0.950 . S
C1032 C1031 1.398 . S
C1032 C1033 1.391 . S
C1033 H1021 0.950 . S
C1033 C1029 1.393 . S
C1033 C1032 1.391 . S
C1034 H1024 0.950 . S
C1034 C1035 1.386 . S
C1034 C1036 1.391 . S
C1035 C1034 1.386 . S
C1035 C1039 1.393 . S
C1036 H1025 0.950 . S
C1036 C1034 1.391 . S
C1036 C1037 1.400 . S
C1037 C1031 1.491 . S
C1037 C1036 1.400 . S
C1037 C1038 1.398 . S
C1038 H1026 0.950 . S
C1038 C1037 1.398 . S
C1038 C1039 1.391 . S
C1039 H1027 0.950 . S
C1039 C1035 1.393 . S
C1039 C1038 1.391 . S
H1040 C1048 0.950 . S
H1041 C1053 0.950 . S
H1042 C1050 0.950 . S
H1043 C1052 0.950 . S
H1044 C1054 0.950 . S
H1045 C1056 0.950 . S
H1046 C1058 0.950 . S
H1047 C1059 0.950 . S
C1048 H1040 0.950 . S
C1048 C1049 1.386 . S
C1048 C1050 1.391 . S
C1049 C1048 1.386 . S
C1049 C1053 1.393 . S
C1050 H1042 0.950 . S
C1050 C1048 1.391 . S
C1050 C1051 1.400 . S
C1051 C1050 1.400 . S
C1051 C1052 1.398 . S
C1051 C1057 1.491 . S
C1052 H1043 0.950 . S
C1052 C1051 1.398 . S
C1052 C1053 1.391 . S
C1053 H1041 0.950 . S
C1053 C1049 1.393 . S
C1053 C1052 1.391 . S
C1054 H1044 0.950 . S
C1054 C1055 1.386 . S
C1054 C1056 1.391 . S
C1055 C1054 1.386 . S
C1055 C1059 1.393 . S
C1056 H1045 0.950 . S
C1056 C1054 1.391 . S
C1056 C1057 1.400 . S
C1057 C1051 1.491 . S
C1057 C1056 1.400 . S
C1057 C1058 1.398 . S
C1058 H1046 0.950 . S
C1058 C1057 1.398 . S
C1058 C1059 1.391 . S
C1059 H1047 0.950 . S
C1059 C1055 1.393 . S
C1059 C1058 1.391 . S
H1060 C1068 0.950 . S
H1061 C1073 0.950 . S
H1062 C1070 0.950 . S
H1063 C1072 0.950 . S
H1064 C1074 0.950 . S
H1065 C1076 0.950 . S
H1066 C1078 0.950 . S
H1067 C1079 0.950 . S
C1068 H1060 0.950 . S
C1068 C1069 1.386 . S
C1068 C1070 1.391 . S
C1069 C1068 1.386 . S
C1069 C1073 1.393 . S
C1070 H1062 0.950 . S
C1070 C1068 1.391 . S
C1070 C1071 1.400 . S
C1071 C1070 1.400 . S
C1071 C1072 1.398 . S
C1071 C1077 1.491 . S
C1072 H1063 0.950 . S
C1072 C1071 1.398 . S
C1072 C1073 1.391 . S
C1073 H1061 0.950 . S
C1073 C1069 1.393 . S
C1073 C1072 1.391 . S
C1074 H1064 0.950 . S
C1074 C1075 1.386 . S
C1074 C1076 1.391 . S
C1075 C1074 1.386 . S
C1075 C1079 1.393 . S
C1076 H1065 0.950 . S
C1076 C1074 1.391 . S
C1076 C1077 1.400 . S
C1077 C1071 1.491 . S
C1077 C1076 1.400 . S
C1077 C1078 1.398 . S
C1078 H1066 0.950 . S
C1078 C1077 1.398 . S
C1078 C1079 1.391 . S
C1079 H1067 0.950 . S
C1079 C1075 1.393 . S
C1079 C1078 1.391 . S
H1080 C1088 0.950 . S
H1081 C1093 0.950 . S
H1082 C1090 0.950 . S
H1083 C1092 0.950 . S
H1084 C1094 0.950 . S
H1085 C1096 0.950 . S
H1086 C1098 0.950 1_655 S
H1087 C1099 0.950 1_655 S
C1088 H1080 0.950 . S
C1088 C1089 1.386 . S
C1088 C1090 1.391 . S
C1089 C1088 1.386 . S
C1089 C1093 1.393 . S
C1090 H1082 0.950 . S
C1090 C1088 1.391 . S
C1090 C1091 1.400 . S
C1091 C1090 1.400 . S
C1091 C1092 1.398 . S
C1091 C1097 1.491 1_554 S
C1092 H1083 0.950 . S
C1092 C1091 1.398 . S
C1092 C1093 1.391 . S
C1093 H1081 0.950 . S
C1093 C1089 1.393 . S
C1093 C1092 1.391 . S
C1094 H1084 0.950 . S
C1094 C1095 1.386 . S
C1094 C1096 1.391 . S
C1095 C1094 1.386 . S
C1095 C1099 1.393 . S
C1096 H1085 0.950 . S
C1096 C1094 1.391 . S
C1096 C1097 1.400 . S
C1097 C1091 1.491 1_556 S
C1097 C1096 1.400 . S
C1097 C1098 1.398 . S
C1098 H1086 0.950 1_455 S
C1098 C1097 1.398 . S
C1098 C1099 1.391 . S
C1099 H1087 0.950 1_455 S
C1099 C1095 1.393 . S
C1099 C1098 1.391 . S
H1100 C1108 0.950 . S
H1101 C1113 0.950 . S
H1102 C1110 0.950 . S
H1103 C1112 0.950 . S
H1104 C1114 0.950 . S
H1105 C1116 0.950 . S
H1106 C1118 0.950 . S
H1107 C1119 0.950 . S
C1108 H1100 0.950 . S
C1108 C1109 1.386 . S
C1108 C1110 1.391 . S
C1109 C1108 1.386 . S
C1109 C1113 1.393 . S
C1110 H1102 0.950 . S
C1110 C1108 1.391 . S
C1110 C1111 1.400 . S
C1111 C1110 1.400 . S
C1111 C1112 1.398 . S
C1111 C1117 1.491 1_554 S
C1112 H1103 0.950 . S
C1112 C1111 1.398 . S
C1112 C1113 1.391 . S
C1113 H1101 0.950 . S
C1113 C1109 1.393 . S
C1113 C1112 1.391 . S
C1114 H1104 0.950 . S
C1114 C1115 1.386 . S
C1114 C1116 1.391 . S
C1115 C1114 1.386 . S
C1115 C1119 1.393 . S
C1116 H1105 0.950 . S
C1116 C1114 1.391 . S
C1116 C1117 1.400 . S
C1117 C1111 1.491 1_556 S
C1117 C1116 1.400 . S
C1117 C1118 1.398 . S
C1118 H1106 0.950 . S
C1118 C1117 1.398 . S
C1118 C1119 1.391 . S
C1119 H1107 0.950 . S
C1119 C1115 1.393 . S
C1119 C1118 1.391 . S
H1120 C1128 0.950 . S
H1121 C1133 0.950 . S
H1122 C1130 0.950 . S
H1123 C1132 0.950 . S
H1124 C1134 0.950 . S
H1125 C1136 0.950 . S
H1126 C1138 0.950 . S
H1127 C1139 0.950 . S
C1128 H1120 0.950 . S
C1128 C1129 1.386 . S
C1128 C1130 1.391 . S
C1129 C1128 1.386 . S
C1129 C1133 1.393 . S
C1130 H1122 0.950 . S
C1130 C1128 1.391 . S
C1130 C1131 1.400 . S
C1131 C1130 1.400 . S
C1131 C1132 1.398 . S
C1131 C1137 1.491 1_554 S
C1132 H1123 0.950 . S
C1132 C1131 1.398 . S
C1132 C1133 1.391 . S
C1133 H1121 0.950 . S
C1133 C1129 1.393 . S
C1133 C1132 1.391 . S
C1134 H1124 0.950 . S
C1134 C1135 1.386 . S
C1134 C1136 1.391 . S
C1135 C1134 1.386 . S
C1135 C1139 1.393 . S
C1136 H1125 0.950 . S
C1136 C1134 1.391 . S
C1136 C1137 1.400 . S
C1137 C1131 1.491 1_556 S
C1137 C1136 1.400 . S
C1137 C1138 1.398 . S
C1138 H1126 0.950 . S
C1138 C1137 1.398 . S
C1138 C1139 1.391 . S
C1139 H1127 0.950 . S
C1139 C1135 1.393 . S
C1139 C1138 1.391 . S
H1140 C1148 0.950 . S
H1141 C1153 0.950 . S
H1142 C1150 0.948 1_655 S
H1143 C1152 0.950 . S
H1144 C1154 0.950 . S
H1145 C1156 0.950 . S
H1146 C1158 0.950 1_655 S
H1147 C1159 0.948 1_655 S
C1148 H1140 0.950 . S
C1148 C1149 1.386 1_655 S
C1148 C1150 1.392 1_655 S
C1149 C1148 1.386 1_455 S
C1149 C1153 1.393 . S
C1150 H1142 0.948 1_455 S
C1150 C1148 1.392 1_455 S
C1150 C1151 1.402 1_556 S
C1151 C1150 1.402 1_554 S
C1151 C1152 1.398 1_554 S
C1151 C1157 1.491 . S
C1152 H1143 0.950 . S
C1152 C1151 1.398 1_556 S
C1152 C1153 1.391 . S
C1153 H1141 0.950 . S
C1153 C1149 1.393 . S
C1153 C1152 1.391 . S
C1154 H1144 0.950 . S
C1154 C1155 1.386 . S
C1154 C1156 1.391 . S
C1155 C1154 1.386 . S
C1155 C1159 1.393 . S
C1156 H1145 0.950 . S
C1156 C1154 1.391 . S
C1156 C1157 1.400 . S
C1157 C1151 1.491 . S
C1157 C1156 1.400 . S
C1157 C1158 1.398 . S
C1158 H1146 0.950 1_455 S
C1158 C1157 1.398 . S
C1158 C1159 1.391 . S
C1159 H1147 0.948 1_455 S
C1159 C1155 1.393 . S
C1159 C1158 1.391 . S
H1160 C1168 0.950 . S
H1161 C1173 0.950 . S
H1162 C1170 0.950 . S
H1163 C1172 0.950 . S
H1164 C1174 0.950 . S
H1165 C1176 0.950 1_554 S
H1166 C1178 0.950 1_554 S
H1167 C1179 0.950 . S
C1168 H1160 0.950 . S
C1168 C1169 1.386 . S
C1168 C1170 1.391 . S
C1169 C1168 1.386 . S
C1169 C1173 1.393 . S
C1170 H1162 0.950 . S
C1170 C1168 1.391 . S
C1170 C1171 1.400 . S
C1171 C1170 1.400 . S
C1171 C1172 1.398 . S
C1171 C1177 1.491 . S
C1172 H1163 0.950 . S
C1172 C1171 1.398 . S
C1172 C1173 1.391 . S
C1173 H1161 0.950 . S
C1173 C1169 1.393 . S
C1173 C1172 1.391 . S
C1174 H1164 0.950 . S
C1174 C1175 1.386 . S
C1174 C1176 1.391 . S
C1175 C1174 1.386 . S
C1175 C1179 1.393 . S
C1176 H1165 0.950 1_556 S
C1176 C1174 1.391 . S
C1176 C1177 1.400 1_556 S
C1177 C1171 1.491 . S
C1177 C1176 1.400 1_554 S
C1177 C1178 1.398 1_554 S
C1178 H1166 0.950 1_556 S
C1178 C1177 1.398 1_556 S
C1178 C1179 1.391 . S
C1179 H1167 0.950 . S
C1179 C1175 1.393 . S
C1179 C1178 1.391 . S
H1180 C1188 0.950 . S
H1181 C1193 0.950 . S
H1182 C1190 0.950 . S
H1183 C1192 0.950 . S
H1184 C1194 0.950 . S
H1185 C1196 0.950 . S
H1186 C1198 0.950 . S
H1187 C1199 0.950 . S
C1188 H1180 0.950 . S
C1188 C1189 1.386 . S
C1188 C1190 1.391 . S
C1189 C1188 1.386 . S
C1189 C1193 1.393 . S
C1190 H1182 0.950 . S
C1190 C1188 1.391 . S
C1190 C1191 1.400 . S
C1191 C1190 1.400 . S
C1191 C1192 1.398 . S
C1191 C1197 1.491 1_554 S
C1192 H1183 0.950 . S
C1192 C1191 1.398 . S
C1192 C1193 1.391 . S
C1193 H1181 0.950 . S
C1193 C1189 1.393 . S
C1193 C1192 1.391 . S
C1194 H1184 0.950 . S
C1194 C1195 1.386 . S
C1194 C1196 1.391 . S
C1195 C1194 1.386 . S
C1195 C1199 1.393 . S
C1196 H1185 0.950 . S
C1196 C1194 1.391 . S
C1196 C1197 1.400 . S
C1197 C1191 1.491 1_556 S
C1197 C1196 1.400 . S
C1197 C1198 1.398 . S
C1198 H1186 0.950 . S
C1198 C1197 1.398 . S
C1198 C1199 1.391 . S
C1199 H1187 0.950 . S
C1199 C1195 1.393 . S
C1199 C1198 1.391 . S
H1200 C1208 0.950 . S
H1201 C1213 0.950 . S
H1202 C1210 0.950 . S
H1203 C1212 0.950 . S
H1204 C1214 0.950 . S
H1205 C1216 0.950 . S
H1206 C1218 0.950 . S
H1207 C1219 0.950 . S
C1208 H1200 0.950 . S
C1208 C1209 1.386 . S
C1208 C1210 1.391 . S
C1209 C1208 1.386 . S
C1209 C1213 1.393 . S
C1210 H1202 0.950 . S
C1210 C1208 1.391 . S
C1210 C1211 1.400 . S
C1211 C1210 1.400 . S
C1211 C1212 1.398 . S
C1211 C1217 1.491 . S
C1212 H1203 0.950 . S
C1212 C1211 1.398 . S
C1212 C1213 1.391 . S
C1213 H1201 0.950 . S
C1213 C1209 1.393 . S
C1213 C1212 1.391 . S
C1214 H1204 0.950 . S
C1214 C1215 1.386 . S
C1214 C1216 1.391 . S
C1215 C1214 1.386 . S
C1215 C1219 1.393 . S
C1216 H1205 0.950 . S
C1216 C1214 1.391 . S
C1216 C1217 1.400 . S
C1217 C1211 1.491 . S
C1217 C1216 1.400 . S
C1217 C1218 1.398 . S
C1218 H1206 0.950 . S
C1218 C1217 1.398 . S
C1218 C1219 1.391 . S
C1219 H1207 0.950 . S
C1219 C1215 1.393 . S
C1219 C1218 1.391 . S
H1220 C1228 0.950 . S
H1221 C1233 0.950 . S
H1222 C1230 0.950 . S
H1223 C1232 0.950 . S
H1224 C1234 0.950 . S
H1225 C1236 0.950 . S
H1226 C1238 0.950 . S
H1227 C1239 0.950 . S
C1228 H1220 0.950 . S
C1228 C1229 1.386 . S
C1228 C1230 1.391 . S
C1229 C1228 1.386 . S
C1229 C1233 1.393 . S
C1230 H1222 0.950 . S
C1230 C1228 1.391 . S
C1230 C1231 1.400 . S
C1231 C1230 1.400 . S
C1231 C1232 1.398 . S
C1231 C1237 1.491 . S
C1232 H1223 0.950 . S
C1232 C1231 1.398 . S
C1232 C1233 1.391 . S
C1233 H1221 0.950 . S
C1233 C1229 1.393 . S
C1233 C1232 1.391 . S
C1234 H1224 0.950 . S
C1234 C1235 1.386 . S
C1234 C1236 1.391 . S
C1235 C1234 1.386 . S
C1235 C1239 1.393 . S
C1236 H1225 0.950 . S
C1236 C1234 1.391 . S
C1236 C1237 1.400 . S
C1237 C1231 1.491 . S
C1237 C1236 1.400 . S
C1237 C1238 1.398 . S
C1238 H1226 0.950 . S
C1238 C1237 1.398 . S
C1238 C1239 1.391 . S
C1239 H1227 0.950 . S
C1239 C1235 1.393 . S
C1239 C1238 1.391 . S
H1240 C1248 0.950 . S
H1241 C1253 0.950 . S
H1242 C1250 0.950 . S
H1243 C1252 0.950 . S
H1244 C1254 0.950 . S
H1245 C1256 0.950 . S
H1246 C1258 0.950 . S
H1247 C1259 0.950 . S
C1248 H1240 0.950 . S
C1248 C1249 1.386 . S
C1248 C1250 1.391 . S
C1249 C1248 1.386 . S
C1249 C1253 1.393 . S
C1250 H1242 0.950 . S
C1250 C1248 1.391 . S
C1250 C1251 1.400 . S
C1251 C1250 1.400 . S
C1251 C1252 1.398 . S
C1251 C1257 1.491 . S
C1252 H1243 0.950 . S
C1252 C1251 1.398 . S
C1252 C1253 1.391 . S
C1253 H1241 0.950 . S
C1253 C1249 1.393 . S
C1253 C1252 1.391 . S
C1254 H1244 0.950 . S
C1254 C1255 1.386 . S
C1254 C1256 1.391 . S
C1255 C1254 1.386 . S
C1255 C1259 1.393 . S
C1256 H1245 0.950 . S
C1256 C1254 1.391 . S
C1256 C1257 1.400 . S
C1257 C1251 1.491 . S
C1257 C1256 1.400 . S
C1257 C1258 1.398 . S
C1258 H1246 0.950 . S
C1258 C1257 1.398 . S
C1258 C1259 1.391 . S
C1259 H1247 0.950 . S
C1259 C1255 1.393 . S
C1259 C1258 1.391 . S
H1260 C1268 0.950 . S
H1261 C1273 0.950 . S
H1262 C1270 0.950 . S
H1263 C1272 0.950 . S
H1264 C1274 0.950 . S
H1265 C1276 0.950 . S
H1266 C1278 0.950 . S
H1267 C1279 0.950 . S
C1268 H1260 0.950 . S
C1268 C1269 1.386 . S
C1268 C1270 1.391 . S
C1269 C1268 1.386 . S
C1269 C1273 1.393 . S
C1270 H1262 0.950 . S
C1270 C1268 1.391 . S
C1270 C1271 1.400 . S
C1271 C1270 1.400 . S
C1271 C1272 1.398 . S
C1271 C1277 1.491 . S
C1272 H1263 0.950 . S
C1272 C1271 1.398 . S
C1272 C1273 1.391 . S
C1273 H1261 0.950 . S
C1273 C1269 1.393 . S
C1273 C1272 1.391 . S
C1274 H1264 0.950 . S
C1274 C1275 1.386 . S
C1274 C1276 1.391 . S
C1275 C1274 1.386 . S
C1275 C1279 1.393 . S
C1276 H1265 0.950 . S
C1276 C1274 1.391 . S
C1276 C1277 1.400 . S
C1277 C1271 1.491 . S
C1277 C1276 1.400 . S
C1277 C1278 1.398 . S
C1278 H1266 0.950 . S
C1278 C1277 1.398 . S
C1278 C1279 1.391 . S
C1279 H1267 0.950 . S
C1279 C1275 1.393 . S
C1279 C1278 1.391 . S
H1280 C1288 0.950 . S
H1281 C1293 0.950 . S
H1282 C1290 0.950 . S
H1283 C1292 0.950 . S
H1284 C1294 0.950 . S
H1285 C1296 0.950 . S
H1286 C1298 0.950 . S
H1287 C1299 0.950 . S
C1288 H1280 0.950 . S
C1288 C1289 1.386 . S
C1288 C1290 1.391 . S
C1289 C1288 1.386 . S
C1289 C1293 1.393 . S
C1290 H1282 0.950 . S
C1290 C1288 1.391 . S
C1290 C1291 1.400 . S
C1291 C1290 1.400 . S
C1291 C1292 1.398 . S
C1291 C1297 1.491 . S
C1292 H1283 0.950 . S
C1292 C1291 1.398 . S
C1292 C1293 1.391 . S
C1293 H1281 0.950 . S
C1293 C1289 1.393 . S
C1293 C1292 1.391 . S
C1294 H1284 0.950 . S
C1294 C1295 1.386 . S
C1294 C1296 1.391 . S
C1295 C1294 1.386 . S
C1295 C1299 1.393 . S
C1296 H1285 0.950 . S
C1296 C1294 1.391 . S
C1296 C1297 1.400 . S
C1297 C1291 1.491 . S
C1297 C1296 1.400 . S
C1297 C1298 1.398 . S
C1298 H1286 0.950 . S
C1298 C1297 1.398 . S
C1298 C1299 1.391 . S
C1299 H1287 0.950 . S
C1299 C1295 1.393 . S
C1299 C1298 1.391 . S
H1300 C1308 0.950 . S
H1301 C1313 0.950 . S
H1302 C1310 0.950 . S
H1303 C1312 0.950 . S
H1304 C1314 0.950 . S
H1305 C1316 0.950 . S
H1306 C1318 0.950 . S
H1307 C1319 0.950 . S
C1308 H1300 0.950 . S
C1308 C1309 1.386 . S
C1308 C1310 1.391 . S
C1309 C1308 1.386 . S
C1309 C1313 1.393 . S
C1310 H1302 0.950 . S
C1310 C1308 1.391 . S
C1310 C1311 1.400 . S
C1311 C1310 1.400 . S
C1311 C1312 1.398 . S
C1311 C1317 1.491 . S
C1312 H1303 0.950 . S
C1312 C1311 1.398 . S
C1312 C1313 1.391 . S
C1313 H1301 0.950 . S
C1313 C1309 1.393 . S
C1313 C1312 1.391 . S
C1314 H1304 0.950 . S
C1314 C1315 1.386 . S
C1314 C1316 1.391 . S
C1315 C1314 1.386 . S
C1315 C1319 1.393 . S
C1316 H1305 0.950 . S
C1316 C1314 1.391 . S
C1316 C1317 1.400 . S
C1317 C1311 1.491 . S
C1317 C1316 1.400 . S
C1317 C1318 1.398 . S
C1318 H1306 0.950 . S
C1318 C1317 1.398 . S
C1318 C1319 1.391 . S
C1319 H1307 0.950 . S
C1319 C1315 1.393 . S
C1319 C1318 1.391 . S
H1320 C1328 0.950 . S
H1321 C1333 0.950 . S
H1322 C1330 0.950 . S
H1323 C1332 0.950 . S
H1324 C1334 0.950 . S
H1325 C1336 0.950 . S
H1326 C1338 0.950 . S
H1327 C1339 0.950 . S
C1328 H1320 0.950 . S
C1328 C1329 1.386 . S
C1328 C1330 1.391 . S
C1329 C1328 1.386 . S
C1329 C1333 1.393 . S
C1330 H1322 0.950 . S
C1330 C1328 1.391 . S
C1330 C1331 1.400 . S
C1331 C1330 1.400 . S
C1331 C1332 1.398 . S
C1331 C1337 1.491 . S
C1332 H1323 0.950 . S
C1332 C1331 1.398 . S
C1332 C1333 1.391 . S
C1333 H1321 0.950 . S
C1333 C1329 1.393 . S
C1333 C1332 1.391 . S
C1334 H1324 0.950 . S
C1334 C1335 1.386 . S
C1334 C1336 1.391 . S
C1335 C1334 1.386 . S
C1335 C1339 1.393 . S
C1336 H1325 0.950 . S
C1336 C1334 1.391 . S
C1336 C1337 1.400 . S
C1337 C1331 1.491 . S
C1337 C1336 1.400 . S
C1337 C1338 1.398 . S
C1338 H1326 0.950 . S
C1338 C1337 1.398 . S
C1338 C1339 1.391 . S
C1339 H1327 0.950 . S
C1339 C1335 1.393 . S
C1339 C1338 1.391 . S
H1340 C1348 0.950 . S
H1341 C1353 0.950 . S
H1342 C1350 0.950 . S
H1343 C1352 0.950 . S
H1344 C1354 0.950 . S
H1345 C1356 0.950 . S
H1346 C1358 0.950 . S
H1347 C1359 0.950 . S
C1348 H1340 0.950 . S
C1348 C1349 1.386 . S
C1348 C1350 1.391 . S
C1349 C1348 1.386 . S
C1349 C1353 1.393 . S
C1350 H1342 0.950 . S
C1350 C1348 1.391 . S
C1350 C1351 1.400 . S
C1351 C1350 1.400 . S
C1351 C1352 1.398 . S
C1351 C1357 1.491 . S
C1352 H1343 0.950 . S
C1352 C1351 1.398 . S
C1352 C1353 1.391 . S
C1353 H1341 0.950 . S
C1353 C1349 1.393 . S
C1353 C1352 1.391 . S
C1354 H1344 0.950 . S
C1354 C1355 1.386 . S
C1354 C1356 1.391 . S
C1355 C1354 1.386 . S
C1355 C1359 1.393 . S
C1356 H1345 0.950 . S
C1356 C1354 1.391 . S
C1356 C1357 1.400 . S
C1357 C1351 1.491 . S
C1357 C1356 1.400 . S
C1357 C1358 1.398 . S
C1358 H1346 0.950 . S
C1358 C1357 1.398 . S
C1358 C1359 1.391 . S
C1359 H1347 0.950 . S
C1359 C1355 1.393 . S
C1359 C1358 1.391 . S
H1360 C1368 0.950 . S
H1361 C1373 0.950 . S
H1362 C1370 0.950 . S
H1363 C1372 0.950 . S
H1364 C1374 0.950 . S
H1365 C1376 0.950 . S
H1366 C1378 0.950 . S
H1367 C1379 0.950 . S
C1368 H1360 0.950 . S
C1368 C1369 1.386 . S
C1368 C1370 1.391 . S
C1369 C1368 1.386 . S
C1369 C1373 1.393 . S
C1370 H1362 0.950 . S
C1370 C1368 1.391 . S
C1370 C1371 1.400 . S
C1371 C1370 1.400 . S
C1371 C1372 1.398 . S
C1371 C1377 1.491 . S
C1372 H1363 0.950 . S
C1372 C1371 1.398 . S
C1372 C1373 1.391 . S
C1373 H1361 0.950 . S
C1373 C1369 1.393 . S
C1373 C1372 1.391 . S
C1374 H1364 0.950 . S
C1374 C1375 1.386 . S
C1374 C1376 1.391 . S
C1375 C1374 1.386 . S
C1375 C1379 1.393 . S
C1376 H1365 0.950 . S
C1376 C1374 1.391 . S
C1376 C1377 1.400 . S
C1377 C1371 1.491 . S
C1377 C1376 1.400 . S
C1377 C1378 1.398 . S
C1378 H1366 0.950 . S
C1378 C1377 1.398 . S
C1378 C1379 1.391 . S
C1379 H1367 0.950 . S
C1379 C1375 1.393 . S
C1379 C1378 1.391 . S
H1380 C1388 0.950 . S
H1381 C1393 0.950 . S
H1382 C1390 0.950 . S
H1383 C1392 0.950 . S
H1384 C1394 0.950 . S
H1385 C1396 0.950 . S
H1386 C1398 0.950 . S
H1387 C1399 0.950 . S
C1388 H1380 0.950 . S
C1388 C1389 1.386 . S
C1388 C1390 1.391 . S
C1389 C1388 1.386 . S
C1389 C1393 1.393 . S
C1390 H1382 0.950 . S
C1390 C1388 1.391 . S
C1390 C1391 1.400 . S
C1391 C1390 1.400 . S
C1391 C1392 1.398 . S
C1391 C1397 1.491 . S
C1392 H1383 0.950 . S
C1392 C1391 1.398 . S
C1392 C1393 1.391 . S
C1393 H1381 0.950 . S
C1393 C1389 1.393 . S
C1393 C1392 1.391 . S
C1394 H1384 0.950 . S
C1394 C1395 1.386 . S
C1394 C1396 1.391 . S
C1395 C1394 1.386 . S
C1395 C1399 1.393 . S
C1396 H1385 0.950 . S
C1396 C1394 1.391 . S
C1396 C1397 1.400 . S
C1397 C1391 1.491 . S
C1397 C1396 1.400 . S
C1397 C1398 1.398 . S
C1398 H1386 0.950 . S
C1398 C1397 1.398 . S
C1398 C1399 1.391 . S
C1399 H1387 0.950 . S
C1399 C1395 1.393 . S
C1399 C1398 1.391 . S
H1400 C1408 0.950 . S
H1401 C1413 0.950 . S
H1402 C1410 0.950 . S
H1403 C1412 0.950 . S
H1404 C1414 0.950 . S
H1405 C1416 0.950 . S
H1406 C1418 0.950 . S
H1407 C1419 0.950 . S
C1408 H1400 0.950 . S
C1408 C1409 1.386 . S
C1408 C1410 1.391 . S
C1409 C1408 1.386 . S
C1409 C1413 1.393 . S
C1410 H1402 0.950 . S
C1410 C1408 1.391 . S
C1410 C1411 1.400 . S
C1411 C1410 1.400 . S
C1411 C1412 1.398 . S
C1411 C1417 1.491 . S
C1412 H1403 0.950 . S
C1412 C1411 1.398 . S
C1412 C1413 1.391 . S
C1413 H1401 0.950 . S
C1413 C1409 1.393 . S
C1413 C1412 1.391 . S
C1414 H1404 0.950 . S
C1414 C1415 1.386 . S
C1414 C1416 1.391 . S
C1415 C1414 1.386 . S
C1415 C1419 1.393 . S
C1416 H1405 0.950 . S
C1416 C1414 1.391 . S
C1416 C1417 1.400 . S
C1417 C1411 1.491 . S
C1417 C1416 1.400 . S
C1417 C1418 1.398 . S
C1418 H1406 0.950 . S
C1418 C1417 1.398 . S
C1418 C1419 1.391 . S
C1419 H1407 0.950 . S
C1419 C1415 1.393 . S
C1419 C1418 1.391 . S
H1420 C1428 0.950 . S
H1421 C1433 0.950 . S
H1422 C1430 0.950 . S
H1423 C1432 0.950 . S
H1424 C1434 0.950 . S
H1425 C1436 0.950 . S
H1426 C1438 0.950 . S
H1427 C1439 0.950 . S
C1428 H1420 0.950 . S
C1428 C1429 1.386 . S
C1428 C1430 1.391 . S
C1429 C1428 1.386 . S
C1429 C1433 1.393 . S
C1430 H1422 0.950 . S
C1430 C1428 1.391 . S
C1430 C1431 1.400 . S
C1431 C1430 1.400 . S
C1431 C1432 1.398 . S
C1431 C1437 1.491 . S
C1432 H1423 0.950 . S
C1432 C1431 1.398 . S
C1432 C1433 1.391 . S
C1433 H1421 0.950 . S
C1433 C1429 1.393 . S
C1433 C1432 1.391 . S
C1434 H1424 0.950 . S
C1434 C1435 1.386 . S
C1434 C1436 1.391 . S
C1435 C1434 1.386 . S
C1435 C1439 1.393 . S
C1436 H1425 0.950 . S
C1436 C1434 1.391 . S
C1436 C1437 1.400 . S
C1437 C1431 1.491 . S
C1437 C1436 1.400 . S
C1437 C1438 1.398 . S
C1438 H1426 0.950 . S
C1438 C1437 1.398 . S
C1438 C1439 1.391 . S
C1439 H1427 0.950 . S
C1439 C1435 1.393 . S
C1439 C1438 1.391 . S
C369 C266 1.470 . S
C375 C6 1.485 . S
C389 C29 1.536 . S
C395 C289 1.539 . S
C409 C46 1.495 . S
C415 C249 1.520 . S
C429 C49 1.561 . S
C435 C149 1.573 . S
C449 C169 1.867 . S
C455 C9 1.861 . S
C469 C26 1.715 . S
C475 C129 1.745 . S
C489 C76 1.737 . S
C495 C201 1.791 . S
C509 C81 1.569 . S
C515 C221 1.597 . S
C529 C181 1.495 . S
C535 C116 1.439 . S
C549 C321 1.546 . S
C555 C101 1.530 1_565 S
C569 C61 1.524 . S
C575 C356 1.496 . S
C589 C316 1.467 . S
C595 C96 1.469 . S
C609 C166 1.298 . S
C615 C269 1.321 . S
C629 C126 1.252 . S
C635 C286 1.251 . S
C649 C146 1.472 . S
C655 C246 1.461 . S
C669 C196 1.485 . S
C675 C336 1.499 . S
C689 C341 1.375 . S
C695 C216 1.336 . S
C709 C301 1.601 . S
C715 C236 1.562 . S
C729 C1 1.656 . S
C735 C89 1.666 . S
C749 C106 2.044 . S
C755 C36 2.013 . S
C769 C66 1.803 . S
C775 C41 1.862 . S
C789 C86 1.880 . S
C795 C56 1.924 . S
C809 C109 1.904 . S
C815 C16 1.792 . S
C829 C69 1.851 . S
C835 C21 1.861 . S
C849 C206 1.706 . S
C855 C136 1.688 . S
C869 C226 1.878 . S
C875 C156 1.886 . S
C889 C186 1.811 . S
C895 C176 1.767 . S
C909 C209 1.807 . S
C915 C161 1.796 . S
C929 C229 1.640 . S
C935 C121 1.696 . S
C949 C189 1.521 . S
C955 C141 1.510 . S
C969 C329 1.473 . S
C975 C241 1.452 . S
C989 C346 1.653 . S
C995 C276 1.618 . S
C1009 C281 1.591 . S
C1015 C306 1.452 . S
C1029 C296 1.792 . S
C1035 C326 1.776 . S
C1049 C256 1.494 . S
C1055 C349 1.531 . S
C1069 C309 1.234 . S
C1075 C261 1.268 . S
C1089 C19 1.733 . S
C1095 C8 1.733 . S
C1109 C28 1.738 . S
C1115 C39 1.738 . S
C1129 C59 1.732 . S
C1135 C48 1.732 . S
C1149 C68 1.713 . S
C1155 C79 1.713 . S
C1169 C88 1.729 . S
C1175 C99 1.729 . S
C1189 C119 1.734 . S
C1195 C108 1.734 . S
C1209 C139 1.740 1_554 S
C1215 C128 1.740 . S
C1229 C148 1.728 . S
C1235 C159 1.728 1_554 S
C1249 C179 1.743 1_554 S
C1255 C168 1.743 . S
C1269 C188 1.697 1_554 S
C1275 C199 1.697 . S
C1289 C208 1.734 1_554 S
C1295 C219 1.734 . S
C1309 C228 1.763 1_554 S
C1315 C239 1.763 . S
C1329 C248 1.708 . S
C1335 C259 1.708 1_556 S
C1349 C268 1.713 . S
C1355 C279 1.713 . S
C1369 C299 1.742 1_556 S
C1375 C288 1.742 . S
C1389 C319 1.703 1_556 S
C1395 C308 1.703 . S
C1409 C328 1.711 1_556 S
C1415 C339 1.711 . S
C1429 C348 1.739 . S
C1435 C359 1.739 1_556 S
