# Generated by pormake.
# Topology umf, (4)-cn, num edge types: 1
# Building blocks:
#     Node 0, Type 0, BuildingBlock: MUDLON_clean_sbu_0, # of connection points: 4
#     Node 1, Type 0, BuildingBlock: MUDLON_clean_sbu_0, # of connection points: 4
#     Node 2, Type 0, BuildingBlock: MUDLON_clean_sbu_0, # of connection points: 4
#     Node 3, Type 0, BuildingBlock: MUDLON_clean_sbu_0, # of connection points: 4
#     Node 4, Type 0, BuildingBlock: MUDLON_clean_sbu_0, # of connection points: 4
#     Node 5, Type 0, BuildingBlock: MUDLON_clean_sbu_0, # of connection points: 4
#     Node 6, Type 0, BuildingBlock: MUDLON_clean_sbu_0, # of connection points: 4
#     Node 7, Type 0, BuildingBlock: MUDLON_clean_sbu_0, # of connection points: 4
#     Edge 8, Type (0, 0), BuildingBlock: KIFKEQ_clean_linker_1, # of connection points: 2
#     Edge 9, Type (0, 0), BuildingBlock: KIFKEQ_clean_linker_1, # of connection points: 2
#     Edge 10, Type (0, 0), BuildingBlock: KIFKEQ_clean_linker_1, # of connection points: 2
#     Edge 11, Type (0, 0), BuildingBlock: KIFKEQ_clean_linker_1, # of connection points: 2
#     Edge 12, Type (0, 0), BuildingBlock: KIFKEQ_clean_linker_1, # of connection points: 2
#     Edge 13, Type (0, 0), BuildingBlock: KIFKEQ_clean_linker_1, # of connection points: 2
#     Edge 14, Type (0, 0), BuildingBlock: KIFKEQ_clean_linker_1, # of connection points: 2
#     Edge 15, Type (0, 0), BuildingBlock: KIFKEQ_clean_linker_1, # of connection points: 2
#     Edge 16, Type (0, 0), BuildingBlock: KIFKEQ_clean_linker_1, # of connection points: 2
#     Edge 17, Type (0, 0), BuildingBlock: KIFKEQ_clean_linker_1, # of connection points: 2
#     Edge 18, Type (0, 0), BuildingBlock: KIFKEQ_clean_linker_1, # of connection points: 2
#     Edge 19, Type (0, 0), BuildingBlock: KIFKEQ_clean_linker_1, # of connection points: 2
#     Edge 20, Type (0, 0), BuildingBlock: KIFKEQ_clean_linker_1, # of connection points: 2
#     Edge 21, Type (0, 0), BuildingBlock: KIFKEQ_clean_linker_1, # of connection points: 2
#     Edge 22, Type (0, 0), BuildingBlock: KIFKEQ_clean_linker_1, # of connection points: 2
#     Edge 23, Type (0, 0), BuildingBlock: KIFKEQ_clean_linker_1, # of connection points: 2
# Relax obj value: 0.092
# Max RMSD: 0.171
# Mean RMSD: 0.171
data_MOF--net-umf--node1-MUDLON_clean_sbu_0--edge1-KIFKEQ_clean_linker_1
_symmetry_space_group_name_H-M    P1
_symmetry_Int_Tables_number       1
_symmetry_cell_setting            triclinic
loop_
_symmetry_equiv_pos_as_xyz
'x, y, z'
_cell_length_a     30.031736
_cell_length_b     30.370345
_cell_length_c     56.031659
_cell_angle_alpha  89.696759
_cell_angle_beta   89.720668
_cell_angle_gamma 90.387722
loop_
_atom_site_label
_atom_site_type_symbol
_atom_site_fract_x
_atom_site_fract_y
_atom_site_fract_z
_atom_type_partial_charge
Mg0 Mg 0.05345 0.2499 0.16928 0.0
C1 C 0.0237 0.26606 0.12064 0.0
O2 O 0.99004 0.27684 0.13444 0.0
C3 C 0.09977 0.2485 0.21383 0.0
O4 O 0.0582 0.25908 0.21829 0.0
C5 C 0.05169 0.34341 0.17863 0.0
O6 O 0.0932 0.3349 0.17283 0.0
O7 O 0.02381 0.31174 0.17942 0.0
O8 O 0.05967 0.25345 0.13045 0.0
O9 O 0.01552 0.19079 0.17771 0.0
C10 C 0.01964 0.15972 0.16276 0.0
O11 O 0.04151 0.16736 0.14281 0.0
O12 O 0.11144 0.24308 0.19215 0.0
Mg13 Mg 0.7571 0.05026 0.67141 0.0
C14 C 0.76056 0.01297 0.62385 0.0
O15 O 0.76328 0.97957 0.63877 0.0
C16 C 0.75216 0.10228 0.71386 0.0
O17 O 0.73966 0.06199 0.71953 0.0
C18 C 0.66207 0.04708 0.67354 0.0
O19 O 0.67335 0.08307 0.66179 0.0
O20 O 0.6929 0.02199 0.68092 0.0
O21 O 0.75785 0.05163 0.63245 0.0
O22 O 0.81715 0.01599 0.68178 0.0
C23 C 0.85091 0.03331 0.6715 0.0
O24 O 0.84452 0.06587 0.65639 0.0
O25 O 0.76134 0.11068 0.69207 0.0
Mg26 Mg 0.94603 0.75255 0.17035 0.0
C27 C 0.98186 0.74827 0.12229 0.0
O28 O 0.01577 0.7433 0.13678 0.0
C29 C 0.88836 0.73547 0.21206 0.0
O30 O 0.92541 0.71471 0.21706 0.0
C31 C 0.95462 0.65851 0.17171 0.0
O32 O 0.91678 0.6666 0.1609 0.0
O33 O 0.97816 0.6909 0.17864 0.0
O34 O 0.94327 0.75347 0.13141 0.0
O35 O 0.9823 0.81225 0.17944 0.0
C36 C 0.96651 0.83844 0.19494 0.0
O37 O 0.93213 0.82576 0.20785 0.0
O38 O 0.88461 0.75321 0.19149 0.0
Mg39 Mg 0.25568 0.92227 0.66864 0.0
C40 C 0.24553 0.9607 0.6214 0.0
O41 O 0.24472 0.9938 0.63641 0.0
C42 C 0.27997 0.85252 0.70517 0.0
O43 O 0.31423 0.87898 0.70796 0.0
C44 C 0.33663 0.97189 0.69198 0.0
O45 O 0.31429 0.97212 0.7122 0.0
O46 O 0.31928 0.9551 0.67347 0.0
O47 O 0.24895 0.92183 0.62987 0.0
O48 O 0.19781 0.95848 0.68123 0.0
C49 C 0.16742 0.93703 0.69227 0.0
O50 O 0.1745 0.89567 0.69791 0.0
O51 O 0.25393 0.85911 0.68766 0.0
Mg52 Mg 0.06871 0.75249 0.89517 0.0
C53 C 0.03769 0.74241 0.94379 0.0
O54 O 0.00333 0.73481 0.92994 0.0
C55 C 0.11136 0.75573 0.84975 0.0
O56 O 0.06807 0.75327 0.8466 0.0
C57 C 0.06053 0.65866 0.88752 0.0
O58 O 0.10229 0.66536 0.89348 0.0
O59 O 0.03487 0.6917 0.88605 0.0
O60 O 0.07516 0.75107 0.93397 0.0
O61 O 0.03386 0.81316 0.88765 0.0
C62 C 0.05865 0.84643 0.89161 0.0
O63 O 0.09937 0.83969 0.89925 0.0
O64 O 0.12595 0.75541 0.87107 0.0
Mg65 Mg 0.24835 0.05289 0.39494 0.0
C66 C 0.26932 0.02742 0.44457 0.0
O67 O 0.2916 -0.00081 0.43155 0.0
C68 C 0.24615 0.10276 0.35153 0.0
O69 O 0.26041 0.06309 0.34638 0.0
C70 C 0.33143 0.99597 0.37914 0.0
O71 O 0.30561 0.96088 0.37904 0.0
O72 O 0.31524 0.03313 0.38458 0.0
O73 O 0.24778 0.05774 0.43397 0.0
O74 O 0.19018 0.01368 0.38498 0.0
C75 C 0.16687 0.99517 0.40123 0.0
O76 O 0.18354 0.99184 0.42277 0.0
O77 O 0.2382 0.11172 0.37333 0.0
Mg78 Mg 0.93793 0.25214 0.89435 0.0
C79 C 0.9711 0.2558 0.94236 0.0
O80 O 0.00571 0.25813 0.92795 0.0
C81 C 0.88996 0.25727 0.85002 0.0
O82 O 0.93106 0.2699 0.84541 0.0
C83 C 0.94677 0.34655 0.89026 0.0
O84 O 0.907 0.33929 0.89942 0.0
O85 O 0.97104 0.31363 0.88536 0.0
O86 O 0.93249 0.25261 0.93315 0.0
O87 O 0.97279 0.19179 0.88627 0.0
C88 C 0.94758 0.15848 0.88969 0.0
O89 O 0.90648 0.16514 0.89692 0.0
O90 O 0.87939 0.24869 0.87161 0.0
Mg91 Mg 0.75161 0.93052 0.39709 0.0
C92 C 0.73256 0.95232 0.44706 0.0
O93 O 0.70998 0.98111 0.4345 0.0
C94 C 0.75798 0.88715 0.35229 0.0
O95 O 0.74957 0.92897 0.34839 0.0
C96 C 0.66665 0.97932 0.37596 0.0
O97 O 0.69265 0.0053 0.36319 0.0
O98 O 0.6836 0.95061 0.3897 0.0
O99 O 0.75413 0.92268 0.43595 0.0
O100 O 0.80899 0.9713 0.38697 0.0
C101 C 0.83259 0.98898 0.40315 0.0
O102 O 0.81649 0.99083 0.42494 0.0
O103 O 0.76067 0.87393 0.37385 0.0
H104 H 0.10339 0.41723 0.17571 0.0
H105 H 0.96821 0.37375 0.1892 0.0
H106 H 0.0795 0.49341 0.177 0.0
H107 H 0.94444 0.45036 0.19117 0.0
H108 H 0.91236 0.58422 0.15688 0.0
H109 H 0.93549 0.50843 0.16209 0.0
H110 H 0.05088 0.55236 0.2014 0.0
H111 H 0.02816 0.62882 0.19562 0.0
C112 C 0.06864 0.42393 0.17932 0.0
C113 C 0.03757 0.38943 0.18207 0.0
C114 C 0.05502 0.4677 0.18024 0.0
C115 C 0.01003 0.47798 0.18403 0.0
C116 C 0.97924 0.44347 0.18782 0.0
C117 C 0.99287 0.39961 0.18682 0.0
C118 C 0.9426 0.57783 0.16672 0.0
C119 C 0.9686 0.61256 0.17572 0.0
C120 C 0.95564 0.53426 0.16991 0.0
C121 C 0.99492 0.5243 0.18225 0.0
C122 C 0.02064 0.55901 0.1916 0.0
C123 C 0.00761 0.60276 0.18835 0.0
H124 H 0.3844 0.99227 0.65216 0.0
H125 H 0.3952 0.98399 0.72893 0.0
H126 H 0.46311 0.01076 0.64919 0.0
H127 H 0.47468 0.00274 0.72587 0.0
H128 H 0.62517 0.98244 0.7022 0.0
H129 H 0.54565 0.96665 0.70835 0.0
H130 H 0.51252 0.07373 0.66081 0.0
H131 H 0.59114 0.08941 0.65461 0.0
C132 C 0.40354 0.99473 0.66844 0.0
C133 C 0.38356 0.98676 0.69079 0.0
C134 C 0.44862 0.00545 0.66673 0.0
C135 C 0.47498 0.00814 0.6873 0.0
C136 C 0.45511 0.00054 0.70973 0.0
C137 C 0.40963 0.99026 0.71148 0.0
C138 C 0.60083 0.00255 0.69311 0.0
C139 C 0.61444 0.03697 0.67781 0.0
C140 C 0.55541 0.99376 0.69678 0.0
C141 C 0.52301 0.01892 0.68499 0.0
C142 C 0.53676 0.05354 0.66995 0.0
C143 C 0.58187 0.06254 0.66646 0.0
H144 H 0.90475 0.42195 0.90307 0.0
H145 H 0.02485 0.37461 0.86936 0.0
H146 H 0.93189 0.49712 0.8994 0.0
H147 H 0.0516 0.45039 0.86499 0.0
H148 H 0.10701 0.58258 0.8925 0.0
H149 H 0.07908 0.50756 0.89038 0.0
H150 H 0.94855 0.55625 0.87227 0.0
H151 H 0.97635 0.6318 0.87514 0.0
C152 C 0.93679 0.42762 0.89459 0.0
C153 C 0.96281 0.39225 0.88666 0.0
C154 C 0.95219 0.47087 0.8923 0.0
C155 C 0.99393 0.4799 0.88188 0.0
C156 C 0.01954 0.44455 0.8734 0.0
C157 C 0.00418 0.40115 0.87581 0.0
C158 C 0.07239 0.57739 0.8879 0.0
C159 C 0.04378 0.61321 0.8842 0.0
C160 C 0.05645 0.53424 0.88649 0.0
C161 C 0.01153 0.52578 0.88122 0.0
C162 C 0.9832 0.56162 0.87673 0.0
C163 C 0.99914 0.60491 0.87826 0.0
H164 H 0.3815 0.92137 0.37324 0.0
H165 H 0.39171 0.0633 0.37547 0.0
H166 H 0.46249 0.91675 0.36961 0.0
H167 H 0.47226 0.0586 0.37231 0.0
H168 H 0.61624 0.03637 0.34915 0.0
H169 H 0.53495 0.03899 0.3466 0.0
H170 H 0.52486 0.93014 0.39631 0.0
H171 H 0.60541 0.92706 0.39861 0.0
C172 C 0.4009 0.95155 0.37277 0.0
C173 C 0.38008 0.99264 0.37486 0.0
C174 C 0.44733 0.94893 0.37083 0.0
C175 C 0.4739 0.98733 0.37084 0.0
C176 C 0.45287 0.02841 0.37202 0.0
C177 C 0.40659 0.03103 0.37402 0.0
C178 C 0.59663 0.01296 0.35946 0.0
C179 C 0.61743 0.98164 0.37413 0.0
C180 C 0.55006 0.0145 0.35804 0.0
C181 C 0.52338 0.98461 0.37117 0.0
C182 C 0.54431 0.95313 0.38563 0.0
C183 C 0.59064 0.95169 0.38712 0.0
H184 H 0.04953 0.26782 0.9656 0.0
H185 H 0.90902 0.24665 0.97844 0.0
H186 H 0.06265 0.27066 1.00824 0.0
H187 H 0.9224 0.24831 1.02146 0.0
H188 H 0.9551 0.30111 0.09548 0.0
H189 H 0.94219 0.29821 0.05274 0.0
H190 H 0.06459 0.22613 0.04349 0.0
H191 H 0.07812 0.23012 0.0864 0.0
C192 C 0.02135 0.26348 0.97754 0.0
C193 C 0.97813 0.25706 0.96855 0.0
C194 C 0.02901 0.2648 1.00208 0.0
C195 C 0.9937 0.25958 1.01839 0.0
C196 C 0.95037 0.25302 1.00942 0.0
C197 C 0.94266 0.25184 0.98476 0.0
C198 C 0.97943 0.28477 0.08435 0.0
C199 C 0.01773 0.26588 0.09438 0.0
C200 C 0.97178 0.28278 0.05981 0.0
C201 C 0.0021 0.26166 0.04459 0.0
C202 C 0.04071 0.2431 0.0546 0.0
C203 C 0.0485 0.24531 0.07922 0.0
H204 H 0.76652 0.93376 0.6015 0.0
H205 H 0.75128 0.07275 0.58715 0.0
H206 H 0.76051 0.91823 0.55915 0.0
H207 H 0.74623 0.0572 0.54447 0.0
H208 H 0.68555 0.00881 0.47482 0.0
H209 H 0.69436 0.02366 0.51708 0.0
H210 H 0.79799 0.92596 0.52103 0.0
H211 H 0.78855 0.91043 0.47853 0.0
C212 C 0.76224 0.96114 0.58928 0.0
C213 C 0.75914 0.00456 0.59778 0.0
C214 C 0.7591 0.95217 0.56491 0.0
C215 C 0.75275 0.98637 0.54833 0.0
C216 C 0.75044 0.02995 0.55678 0.0
C217 C 0.75361 0.03895 0.58123 0.0
C218 C 0.71013 0.99025 0.48467 0.0
C219 C 0.73636 0.95837 0.47324 0.0
C220 C 0.71546 -0.00087 0.50891 0.0
C221 C 0.74722 0.97643 0.52247 0.0
C222 C 0.77299 0.9439 0.51117 0.0
C223 C 0.7676 0.93495 0.48681 0.0
H224 H 0.92233 0.7653 0.08624 0.0
H225 H 0.05932 0.73011 0.09901 0.0
H226 H 0.93681 0.76512 0.04326 0.0
H227 H 0.07342 0.72864 0.05633 0.0
H228 H 0.09549 0.77088 0.97859 0.0
H229 H 0.08161 0.77394 1.02162 0.0
H230 H 0.9514 0.7159 1.01122 0.0
H231 H 0.96474 0.71406 0.9685 0.0
C232 C 0.95541 0.7573 0.07989 0.0
C233 C 0.98959 0.74774 0.0961 0.0
C234 C 0.96374 0.75698 0.05524 0.0
C235 C 0.00638 0.74686 0.04622 0.0
C236 C 0.04042 0.73731 0.06252 0.0
C237 C 0.03217 0.73784 0.08708 0.0
C238 C 0.06402 0.75867 0.98556 0.0
C239 C 0.03124 0.74236 0.97008 0.0
C240 C 0.05603 0.7603 1.01023 0.0
C241 C 0.01518 0.74542 1.01998 0.0
C242 C 0.98282 0.72854 1.00442 0.0
C243 C 0.99069 0.72715 0.97985 0.0
H244 H 0.21416 0.06838 0.47683 0.0
H245 H 0.31592 0.96901 0.47149 0.0
H246 H 0.20507 0.05115 0.51928 0.0
H247 H 0.30752 0.95249 0.51374 0.0
H248 H 0.25254 0.90185 0.58439 0.0
H249 H 0.25624 0.91861 0.54168 0.0
H250 H 0.24297 0.0572 0.55697 0.0
H251 H 0.23823 0.04046 0.59934 0.0
C252 C 0.23492 0.04326 0.48475 0.0
C253 C 0.26574 0.02011 0.47073 0.0
C254 C 0.22974 0.03334 0.50908 0.0
C255 C 0.2553 9e-05 0.51994 0.0
C256 C 0.28659 0.97758 0.50594 0.0
C257 C 0.2917 0.98742 0.48169 0.0
C258 C 0.25004 0.93581 0.57859 0.0
C259 C 0.24526 0.96975 0.59533 0.0
C260 C 0.25247 0.94551 0.55412 0.0
C261 C 0.25017 0.98936 0.54584 0.0
C262 C 0.24437 0.02307 0.56261 0.0
C263 C 0.24194 0.0134 0.58699 0.0
H264 H 0.18666 0.21992 0.21251 0.0
H265 H 0.08023 0.2536 0.26111 0.0
H266 H 0.23113 0.19442 0.24625 0.0
H267 H 0.12326 0.22657 0.29436 0.0
H268 H 0.20995 0.18581 0.35408 0.0
H269 H 0.18357 0.23088 0.32079 0.0
H270 H 0.22914 0.13211 0.2712 0.0
H271 H 0.25696 0.08864 0.30405 0.0
C272 C 0.17294 0.22228 0.23037 0.0
C273 C 0.12968 0.23822 0.23404 0.0
C274 C 0.19826 0.20742 0.24973 0.0
C275 C 0.18068 0.20784 0.27312 0.0
C276 C 0.13835 0.22611 0.27678 0.0
C277 C 0.11334 0.24125 0.25754 0.0
C278 C 0.21504 0.17428 0.33602 0.0
C279 C 0.23499 0.13337 0.33178 0.0
C280 C 0.19969 0.19993 0.31691 0.0
C281 C 0.20367 0.18501 0.2932 0.0
C282 C 0.22586 0.14517 0.28905 0.0
C283 C 0.24146 0.11987 0.30805 0.0
H284 H 0.90807 0.2658 0.80265 0.0
H285 H 0.80417 0.22463 0.85164 0.0
H286 H 0.86608 0.23663 0.76958 0.0
H287 H 0.76052 0.19718 0.8181 0.0
H288 H 0.74042 0.0892 0.76145 0.0
H289 H 0.76514 0.13534 0.79378 0.0
H290 H 0.80648 0.23546 0.74299 0.0
H291 H 0.78347 0.18764 0.71024 0.0
C292 C 0.87563 0.25144 0.80633 0.0
C293 C 0.8599 0.24676 0.8299 0.0
C294 C 0.85118 0.23502 0.7872 0.0
C295 C 0.80996 0.21389 0.79103 0.0
C296 C 0.79264 0.21225 0.81447 0.0
C297 C 0.81747 0.22828 0.83373 0.0
C298 C 0.75429 0.12127 0.75707 0.0
C299 C 0.76071 0.13436 0.73318 0.0
C300 C 0.7681 0.14813 0.77577 0.0
C301 C 0.78831 0.1892 0.77117 0.0
C302 C 0.79196 0.20364 0.74725 0.0
C303 C 0.77851 0.17639 0.72844 0.0
H304 H 0.76307 0.91133 0.3057 0.0
H305 H 0.77394 0.79771 0.35197 0.0
H306 H 0.78499 0.8676 0.27189 0.0
H307 H 0.79417 0.7527 0.3175 0.0
H308 H 0.89574 0.71239 0.25888 0.0
H309 H 0.856 0.74306 0.29249 0.0
H310 H 0.76962 0.81304 0.24403 0.0
H311 H 0.8114 0.78399 0.2102 0.0
C312 C 0.76935 0.87664 0.30862 0.0
C313 C 0.76723 0.85816 0.33166 0.0
C314 C 0.78149 0.85126 0.28903 0.0
C315 C 0.79141 0.80637 0.29176 0.0
C316 C 0.78745 0.78732 0.31471 0.0
C317 C 0.77568 0.81301 0.33448 0.0
C318 C 0.86782 0.73379 0.2553 0.0
C319 C 0.85738 0.74647 0.23181 0.0
C320 C 0.84466 0.75119 0.27471 0.0
C321 C 0.80998 0.78133 0.27115 0.0
C322 C 0.79699 0.79094 0.24753 0.0
C323 C 0.82064 0.77396 0.22807 0.0
H324 H 0.21485 0.78884 0.7055 0.0
H325 H 0.30977 0.85425 0.75111 0.0
H326 H 0.17952 0.75541 0.74045 0.0
H327 H 0.27311 0.8231 0.78604 0.0
H328 H 0.2033 0.75438 0.84748 0.0
H329 H 0.25016 0.76616 0.81205 0.0
H330 H 0.13188 0.7832 0.76934 0.0
H331 H 0.08595 0.76966 0.80403 0.0
C332 C 0.22859 0.79556 0.72295 0.0
C333 C 0.26473 0.82469 0.72549 0.0
C334 C 0.20805 0.7768 0.74307 0.0
C335 C 0.22255 0.78746 0.76625 0.0
C336 C 0.2609 0.81388 0.7686 0.0
C337 C 0.28193 0.83198 0.74846 0.0
C338 C 0.18755 0.76018 0.83042 0.0
C339 C 0.14091 0.76116 0.82864 0.0
C340 C 0.21433 0.76708 0.8101 0.0
C341 C 0.19499 0.77547 0.78764 0.0
C342 C 0.1483 0.77575 0.78602 0.0
C343 C 0.12176 0.76844 0.80613 0.0
H344 H 1.00032 0.12545 0.20706 0.0
H345 H 0.01189 0.09047 0.13265 0.0
H346 H 0.99114 0.04762 0.21756 0.0
H347 H 1.00173 0.01327 0.14301 0.0
H348 H 0.03231 0.87774 0.16827 0.0
H349 H 0.04461 0.95638 0.16234 0.0
H350 H 0.94145 0.98437 0.21399 0.0
H351 H 0.92995 0.90575 0.22043 0.0
C352 C 1.00004 0.10125 0.19292 0.0
C353 C 0.00712 0.11399 0.16905 0.0
C354 C 0.99493 0.05668 0.19894 0.0
C355 C 0.99665 0.02417 0.18117 0.0
C356 C 1.00161 0.03732 0.15721 0.0
C357 C 0.00693 0.08165 0.15124 0.0
C358 C 0.01284 0.90063 0.1787 0.0
C359 C 0.97978 0.88545 0.19459 0.0
C360 C 0.01955 0.94572 0.17513 0.0
C361 C 0.99325 0.97662 0.18729 0.0
C362 C 0.96222 0.96147 0.20433 0.0
C363 C 0.95561 0.91633 0.20798 0.0
H364 H 0.13894 0.02026 0.68125 0.0
H365 H 0.09289 0.89457 0.70857 0.0
H366 H 0.0622 0.04568 0.67946 0.0
H367 H 0.01636 0.91916 0.70582 0.0
H368 H 0.88056 0.98437 0.70957 0.0
H369 H 0.95767 0.96536 0.7188 0.0
H370 H 1.00139 0.03093 0.65404 0.0
H371 H 0.92519 0.05108 0.64544 0.0
C372 C 0.11251 -0.00178 0.6871 0.0
C373 C 0.12203 0.95522 0.69474 0.0
C374 C 0.06844 0.01261 0.68587 0.0
C375 C 0.0329 0.98416 0.69202 0.0
C376 C 0.04272 0.94209 0.70103 0.0
C377 C 0.08676 0.92788 0.70248 0.0
C378 C 0.90677 0.99456 0.69735 0.0
C379 C 0.89684 0.01922 0.6768 0.0
C380 C 0.95095 0.98372 0.70261 0.0
C381 C 0.98596 -0.00301 0.6873 0.0
C382 C 0.97563 0.02116 0.66661 0.0
C383 C 0.93175 0.03232 0.66152 0.0
H384 H 0.03013 0.13122 0.87475 0.0
H385 H 0.9015 0.08252 0.89811 0.0
H386 H 0.05683 0.05556 0.87196 0.0
H387 H 0.92838 0.0075 0.89603 0.0
H388 H 0.9782 0.87377 0.87399 0.0
H389 H 0.95179 0.94941 0.87014 0.0
H390 H 0.07613 -0.00268 0.89898 0.0
H391 H 0.10282 0.92231 0.90214 0.0
C392 C 0.00757 0.10443 0.87924 0.0
C393 C 0.96382 0.11292 0.88678 0.0
C394 C 0.02288 0.06108 0.87775 0.0
C395 C 0.99478 0.02539 0.88385 0.0
C396 C 0.95075 0.03403 0.89085 0.0
C397 C 0.93545 0.07721 0.89224 0.0
C398 C 0.99992 0.90052 0.87934 0.0
C399 C 0.04249 0.892 0.88847 0.0
C400 C 0.98477 0.94386 0.87723 0.0
C401 C 0.01182 0.97951 0.88428 0.0
C402 C 0.05466 0.97083 0.893 0.0
C403 C 0.06982 0.92766 0.89501 0.0
H404 H 0.89233 0.02338 0.43449 0.0
H405 H 0.88279 0.97066 0.36318 0.0
H406 H 0.9731 0.02246 0.43152 0.0
H407 H 0.96419 0.96968 0.36031 0.0
H408 H 0.10773 0.95921 0.4329 0.0
H409 H 0.0269 0.96038 0.43088 0.0
H410 H 0.03437 0.01717 0.36017 0.0
H411 H 0.11581 0.01593 0.3621 0.0
C412 C 0.9074 0.01221 0.41801 0.0
C413 C 0.88096 -0.00334 0.39918 0.0
C414 C 0.95378 0.01131 0.41641 0.0
C415 C 0.97502 0.995 0.3959 0.0
C416 C 0.94876 0.98221 0.37639 0.0
C417 C 0.90213 0.98292 0.37803 0.0
C418 C 0.09233 0.97133 0.41673 0.0
C419 C 0.11838 0.9879 0.39777 0.0
C420 C 0.04592 0.97238 0.41567 0.0
C421 C 0.02426 0.98986 0.3956 0.0
C422 C 0.05012 0.00373 0.37593 0.0
C423 C 0.09678 0.00288 0.37703 0.0
loop_
_geom_bond_atom_site_label_1
_geom_bond_atom_site_label_2
_geom_bond_distance
_geom_bond_site_symmetry_2
_ccdc_geom_bond_type
Mg0 O7 2.141 . S
Mg0 O8 2.048 . S
Mg0 O9 2.048 . S
Mg0 O12 2.141 . S
C1 O2 1.313 . S
C1 O8 1.195 . S
O2 C1 1.313 . S
C3 O4 1.245 . S
C3 O12 1.289 . S
O4 C3 1.245 . S
C5 O6 1.245 . S
C5 O7 1.289 . S
O6 C5 1.245 . S
O7 Mg0 2.141 . S
O7 C5 1.289 . S
O8 Mg0 2.048 . S
O8 C1 1.195 . S
O9 Mg0 2.048 . S
O9 C10 1.195 . S
C10 O9 1.195 . S
C10 O11 1.313 . S
O11 C10 1.313 . S
O12 Mg0 2.141 . S
O12 C3 1.289 . S
Mg13 O20 2.141 . S
Mg13 O21 2.048 . S
Mg13 O22 2.048 . S
Mg13 O25 2.141 . S
C14 O15 1.313 . S
C14 O21 1.195 . S
O15 C14 1.313 . S
C16 O17 1.245 . S
C16 O25 1.289 . S
O17 C16 1.245 . S
C18 O19 1.245 . S
C18 O20 1.289 . S
O19 C18 1.245 . S
O20 Mg13 2.141 . S
O20 C18 1.289 . S
O21 Mg13 2.048 . S
O21 C14 1.195 . S
O22 Mg13 2.048 . S
O22 C23 1.195 . S
C23 O22 1.195 . S
C23 O24 1.313 . S
O24 C23 1.313 . S
O25 Mg13 2.141 . S
O25 C16 1.289 . S
Mg26 O33 2.141 . S
Mg26 O34 2.048 . S
Mg26 O35 2.048 . S
Mg26 O38 2.141 . S
C27 O28 1.313 . S
C27 O34 1.195 . S
O28 C27 1.313 . S
C29 O30 1.245 . S
C29 O38 1.289 . S
O30 C29 1.245 . S
C31 O32 1.245 . S
C31 O33 1.289 . S
O32 C31 1.245 . S
O33 Mg26 2.141 . S
O33 C31 1.289 . S
O34 Mg26 2.048 . S
O34 C27 1.195 . S
O35 Mg26 2.048 . S
O35 C36 1.195 . S
C36 O35 1.195 . S
C36 O37 1.313 . S
O37 C36 1.313 . S
O38 Mg26 2.141 . S
O38 C29 1.289 . S
Mg39 O46 2.141 . S
Mg39 O47 2.048 . S
Mg39 O48 2.048 . S
Mg39 O51 2.141 . S
C40 O41 1.313 . S
C40 O47 1.195 . S
O41 C40 1.313 . S
C42 O43 1.245 . S
C42 O51 1.289 . S
O43 C42 1.245 . S
C44 O45 1.245 . S
C44 O46 1.289 . S
O45 C44 1.245 . S
O46 Mg39 2.141 . S
O46 C44 1.289 . S
O47 Mg39 2.048 . S
O47 C40 1.195 . S
O48 Mg39 2.048 . S
O48 C49 1.195 . S
C49 O48 1.195 . S
C49 O50 1.313 . S
O50 C49 1.313 . S
O51 Mg39 2.141 . S
O51 C42 1.289 . S
Mg52 O59 2.141 . S
Mg52 O60 2.048 . S
Mg52 O61 2.048 . S
Mg52 O64 2.141 . S
C53 O54 1.313 . S
C53 O60 1.195 . S
O54 C53 1.313 . S
C55 O56 1.245 . S
C55 O64 1.289 . S
O56 C55 1.245 . S
C57 O58 1.245 . S
C57 O59 1.289 . S
O58 C57 1.245 . S
O59 Mg52 2.141 . S
O59 C57 1.289 . S
O60 Mg52 2.048 . S
O60 C53 1.195 . S
O61 Mg52 2.048 . S
O61 C62 1.195 . S
C62 O61 1.195 . S
C62 O63 1.313 . S
O63 C62 1.313 . S
O64 Mg52 2.141 . S
O64 C55 1.289 . S
Mg65 O72 2.141 . S
Mg65 O73 2.048 . S
Mg65 O74 2.048 . S
Mg65 O77 2.141 . S
C66 O67 1.313 . S
C66 O73 1.195 . S
O67 C66 1.313 . S
C68 O69 1.245 . S
C68 O77 1.289 . S
O69 C68 1.245 . S
C70 O71 1.245 . S
C70 O72 1.289 . S
O71 C70 1.245 . S
O72 Mg65 2.141 . S
O72 C70 1.289 . S
O73 Mg65 2.048 . S
O73 C66 1.195 . S
O74 Mg65 2.048 . S
O74 C75 1.195 . S
C75 O74 1.195 . S
C75 O76 1.313 . S
O76 C75 1.313 . S
O77 Mg65 2.141 . S
O77 C68 1.289 . S
Mg78 O85 2.141 . S
Mg78 O86 2.048 . S
Mg78 O87 2.048 . S
Mg78 O90 2.141 . S
C79 O80 1.313 . S
C79 O86 1.195 . S
O80 C79 1.313 . S
C81 O82 1.245 . S
C81 O90 1.289 . S
O82 C81 1.245 . S
C83 O84 1.245 . S
C83 O85 1.289 . S
O84 C83 1.245 . S
O85 Mg78 2.141 . S
O85 C83 1.289 . S
O86 Mg78 2.048 . S
O86 C79 1.195 . S
O87 Mg78 2.048 . S
O87 C88 1.195 . S
C88 O87 1.195 . S
C88 O89 1.313 . S
O89 C88 1.313 . S
O90 Mg78 2.141 . S
O90 C81 1.289 . S
Mg91 O98 2.141 . S
Mg91 O99 2.048 . S
Mg91 O100 2.048 . S
Mg91 O103 2.141 . S
C92 O93 1.313 . S
C92 O99 1.195 . S
O93 C92 1.313 . S
C94 O95 1.245 . S
C94 O103 1.289 . S
O95 C94 1.245 . S
C96 O97 1.245 . S
C96 O98 1.289 . S
O97 C96 1.245 . S
O98 Mg91 2.141 . S
O98 C96 1.289 . S
O99 Mg91 2.048 . S
O99 C92 1.195 . S
O100 Mg91 2.048 . S
O100 C101 1.195 . S
C101 O100 1.195 . S
C101 O102 1.313 . S
O102 C101 1.313 . S
O103 Mg91 2.141 . S
O103 C94 1.289 . S
H104 C112 0.950 . S
H105 C117 0.950 . S
H106 C114 0.950 . S
H107 C116 0.950 . S
H108 C118 0.950 . S
H109 C120 0.950 . S
H110 C122 0.950 . S
H111 C123 0.950 . S
C112 H104 0.950 . S
C112 C113 1.386 . S
C112 C114 1.391 1_455 S
C113 C112 1.386 . S
C113 C117 1.393 . S
C114 H106 0.950 . S
C114 C112 1.391 1_655 S
C114 C115 1.400 1_655 S
C115 C114 1.400 1_455 S
C115 C116 1.398 . S
C115 C121 1.491 1_455 S
C116 H107 0.950 . S
C116 C115 1.398 . S
C116 C117 1.391 . S
C117 H105 0.950 . S
C117 C113 1.393 . S
C117 C116 1.391 . S
C118 H108 0.950 . S
C118 C119 1.386 . S
C118 C120 1.391 1_655 S
C119 C118 1.386 . S
C119 C123 1.393 . S
C120 H109 0.950 . S
C120 C118 1.391 1_455 S
C120 C121 1.400 1_455 S
C121 C115 1.491 1_655 S
C121 C120 1.400 1_655 S
C121 C122 1.398 . S
C122 H110 0.950 . S
C122 C121 1.398 . S
C122 C123 1.391 . S
C123 H111 0.950 . S
C123 C119 1.393 . S
C123 C122 1.391 . S
H124 C132 0.950 . S
H125 C137 0.950 . S
H126 C134 0.950 . S
H127 C136 0.950 . S
H128 C138 0.950 . S
H129 C140 0.950 . S
H130 C142 0.950 . S
H131 C143 0.950 . S
C132 H124 0.950 . S
C132 C133 1.386 . S
C132 C134 1.391 . S
C133 C132 1.386 . S
C133 C137 1.393 . S
C134 H126 0.950 . S
C134 C132 1.391 . S
C134 C135 1.400 . S
C135 C134 1.400 . S
C135 C136 1.398 1_565 S
C135 C141 1.491 1_565 S
C136 H127 0.950 . S
C136 C135 1.398 1_545 S
C136 C137 1.391 1_545 S
C137 H125 0.950 . S
C137 C133 1.393 . S
C137 C136 1.391 1_565 S
C138 H128 0.950 . S
C138 C139 1.386 . S
C138 C140 1.391 . S
C139 C138 1.386 . S
C139 C143 1.393 . S
C140 H129 0.950 . S
C140 C138 1.391 . S
C140 C141 1.400 . S
C141 C135 1.491 1_545 S
C141 C140 1.400 . S
C141 C142 1.398 1_545 S
C142 H130 0.950 . S
C142 C141 1.398 1_565 S
C142 C143 1.391 1_565 S
C143 H131 0.950 . S
C143 C139 1.393 . S
C143 C142 1.391 1_545 S
H144 C152 0.950 . S
H145 C157 0.950 . S
H146 C154 0.950 . S
H147 C156 0.950 . S
H148 C158 0.950 . S
H149 C160 0.950 . S
H150 C162 0.950 . S
H151 C163 0.950 . S
C152 H144 0.950 . S
C152 C153 1.386 . S
C152 C154 1.391 1_655 S
C153 C152 1.386 . S
C153 C157 1.393 . S
C154 H146 0.950 . S
C154 C152 1.391 1_455 S
C154 C155 1.400 1_455 S
C155 C154 1.400 1_655 S
C155 C156 1.398 . S
C155 C161 1.491 1_655 S
C156 H147 0.950 . S
C156 C155 1.398 . S
C156 C157 1.391 . S
C157 H145 0.950 . S
C157 C153 1.393 . S
C157 C156 1.391 . S
C158 H148 0.950 . S
C158 C159 1.386 . S
C158 C160 1.391 1_455 S
C159 C158 1.386 . S
C159 C163 1.393 . S
C160 H149 0.950 . S
C160 C158 1.391 1_655 S
C160 C161 1.400 1_655 S
C161 C155 1.491 1_455 S
C161 C160 1.400 1_455 S
C161 C162 1.398 . S
C162 H150 0.950 . S
C162 C161 1.398 . S
C162 C163 1.391 . S
C163 H151 0.950 . S
C163 C159 1.393 . S
C163 C162 1.391 . S
H164 C172 0.950 . S
H165 C177 0.950 . S
H166 C174 0.950 . S
H167 C176 0.950 . S
H168 C178 0.950 . S
H169 C180 0.950 . S
H170 C182 0.950 . S
H171 C183 0.950 . S
C172 H164 0.950 . S
C172 C173 1.386 . S
C172 C174 1.391 1_545 S
C173 C172 1.386 . S
C173 C177 1.393 . S
C174 H166 0.950 . S
C174 C172 1.391 1_565 S
C174 C175 1.400 1_565 S
C175 C174 1.400 1_545 S
C175 C176 1.398 . S
C175 C181 1.491 1_545 S
C176 H167 0.950 . S
C176 C175 1.398 . S
C176 C177 1.391 . S
C177 H165 0.950 . S
C177 C173 1.393 . S
C177 C176 1.391 . S
C178 H168 0.950 . S
C178 C179 1.386 . S
C178 C180 1.391 1_565 S
C179 C178 1.386 . S
C179 C183 1.393 . S
C180 H169 0.950 . S
C180 C178 1.391 1_545 S
C180 C181 1.400 1_545 S
C181 C175 1.491 1_565 S
C181 C180 1.400 1_565 S
C181 C182 1.398 . S
C182 H170 0.950 . S
C182 C181 1.398 . S
C182 C183 1.391 . S
C183 H171 0.950 . S
C183 C179 1.393 . S
C183 C182 1.391 . S
H184 C192 0.950 1_455 S
H185 C197 0.950 . S
H186 C194 0.950 . S
H187 C196 0.950 . S
H188 C198 0.950 1_655 S
H189 C200 0.950 . S
H190 C202 0.950 . S
H191 C203 0.950 . S
C192 H184 0.950 1_655 S
C192 C193 1.386 . S
C192 C194 1.391 1_655 S
C193 C192 1.386 . S
C193 C197 1.393 . S
C194 H186 0.950 . S
C194 C192 1.391 1_455 S
C194 C195 1.400 1_455 S
C195 C194 1.400 1_655 S
C195 C196 1.398 . S
C195 C201 1.491 1_656 S
C196 H187 0.950 . S
C196 C195 1.398 . S
C196 C197 1.391 . S
C197 H185 0.950 . S
C197 C193 1.393 . S
C197 C196 1.391 . S
C198 H188 0.950 1_455 S
C198 C199 1.386 . S
C198 C200 1.391 1_455 S
C199 C198 1.386 . S
C199 C203 1.393 . S
C200 H189 0.950 . S
C200 C198 1.391 1_655 S
C200 C201 1.400 1_655 S
C201 C195 1.491 1_454 S
C201 C200 1.400 1_455 S
C201 C202 1.398 . S
C202 H190 0.950 . S
C202 C201 1.398 . S
C202 C203 1.391 . S
C203 H191 0.950 . S
C203 C199 1.393 . S
C203 C202 1.391 . S
H204 C212 0.950 . S
H205 C217 0.950 . S
H206 C214 0.950 1_565 S
H207 C216 0.950 . S
H208 C218 0.950 . S
H209 C220 0.950 1_545 S
H210 C222 0.950 . S
H211 C223 0.950 . S
C212 H204 0.950 . S
C212 C213 1.386 . S
C212 C214 1.391 . S
C213 C212 1.386 . S
C213 C217 1.393 . S
C214 H206 0.950 1_545 S
C214 C212 1.391 . S
C214 C215 1.400 . S
C215 C214 1.400 . S
C215 C216 1.398 . S
C215 C221 1.491 1_545 S
C216 H207 0.950 . S
C216 C215 1.398 . S
C216 C217 1.391 . S
C217 H205 0.950 . S
C217 C213 1.393 . S
C217 C216 1.391 . S
C218 H208 0.950 . S
C218 C219 1.386 . S
C218 C220 1.391 . S
C219 C218 1.386 . S
C219 C223 1.393 . S
C220 H209 0.950 1_565 S
C220 C218 1.391 . S
C220 C221 1.400 . S
C221 C215 1.491 1_565 S
C221 C220 1.400 . S
C221 C222 1.398 . S
C222 H210 0.950 . S
C222 C221 1.398 . S
C222 C223 1.391 . S
C223 H211 0.950 . S
C223 C219 1.393 . S
C223 C222 1.391 . S
H224 C232 0.950 . S
H225 C237 0.950 . S
H226 C234 0.950 . S
H227 C236 0.950 1_455 S
H228 C238 0.950 . S
H229 C240 0.950 . S
H230 C242 0.950 1_655 S
H231 C243 0.950 . S
C232 H224 0.950 . S
C232 C233 1.386 . S
C232 C234 1.391 . S
C233 C232 1.386 . S
C233 C237 1.393 . S
C234 H226 0.950 . S
C234 C232 1.391 . S
C234 C235 1.400 . S
C235 C234 1.400 . S
C235 C236 1.398 . S
C235 C241 1.491 1_654 S
C236 H227 0.950 1_655 S
C236 C235 1.398 . S
C236 C237 1.391 . S
C237 H225 0.950 . S
C237 C233 1.393 . S
C237 C236 1.391 . S
C238 H228 0.950 . S
C238 C239 1.386 . S
C238 C240 1.391 . S
C239 C238 1.386 . S
C239 C243 1.393 . S
C240 H229 0.950 . S
C240 C238 1.391 . S
C240 C241 1.400 . S
C241 C235 1.491 1_456 S
C241 C240 1.400 . S
C241 C242 1.398 . S
C242 H230 0.950 1_455 S
C242 C241 1.398 . S
C242 C243 1.391 . S
C243 H231 0.950 . S
C243 C239 1.393 . S
C243 C242 1.391 . S
H244 C252 0.950 . S
H245 C257 0.950 1_565 S
H246 C254 0.950 . S
H247 C256 0.950 . S
H248 C258 0.950 . S
H249 C260 0.950 . S
H250 C262 0.950 . S
H251 C263 0.950 1_545 S
C252 H244 0.950 . S
C252 C253 1.386 . S
C252 C254 1.391 . S
C253 C252 1.386 . S
C253 C257 1.393 . S
C254 H246 0.950 . S
C254 C252 1.391 . S
C254 C255 1.400 . S
C255 C254 1.400 . S
C255 C256 1.398 1_545 S
C255 C261 1.491 1_545 S
C256 H247 0.950 . S
C256 C255 1.398 1_565 S
C256 C257 1.391 1_565 S
C257 H245 0.950 1_545 S
C257 C253 1.393 . S
C257 C256 1.391 1_545 S
C258 H248 0.950 . S
C258 C259 1.386 . S
C258 C260 1.391 . S
C259 C258 1.386 . S
C259 C263 1.393 . S
C260 H249 0.950 . S
C260 C258 1.391 . S
C260 C261 1.400 . S
C261 C255 1.491 1_565 S
C261 C260 1.400 . S
C261 C262 1.398 1_565 S
C262 H250 0.950 . S
C262 C261 1.398 1_545 S
C262 C263 1.391 1_545 S
C263 H251 0.950 1_565 S
C263 C259 1.393 . S
C263 C262 1.391 1_565 S
H264 C272 0.950 . S
H265 C277 0.950 . S
H266 C274 0.950 . S
H267 C276 0.950 . S
H268 C278 0.950 . S
H269 C280 0.950 . S
H270 C282 0.950 . S
H271 C283 0.950 . S
C272 H264 0.950 . S
C272 C273 1.386 . S
C272 C274 1.391 . S
C273 C272 1.386 . S
C273 C277 1.393 . S
C274 H266 0.950 . S
C274 C272 1.391 . S
C274 C275 1.400 . S
C275 C274 1.400 . S
C275 C276 1.398 . S
C275 C281 1.491 . S
C276 H267 0.950 . S
C276 C275 1.398 . S
C276 C277 1.391 . S
C277 H265 0.950 . S
C277 C273 1.393 . S
C277 C276 1.391 . S
C278 H268 0.950 . S
C278 C279 1.386 . S
C278 C280 1.391 . S
C279 C278 1.386 . S
C279 C283 1.393 . S
C280 H269 0.950 . S
C280 C278 1.391 . S
C280 C281 1.400 . S
C281 C275 1.491 . S
C281 C280 1.400 . S
C281 C282 1.398 . S
C282 H270 0.950 . S
C282 C281 1.398 . S
C282 C283 1.391 . S
C283 H271 0.950 . S
C283 C279 1.393 . S
C283 C282 1.391 . S
H284 C292 0.950 . S
H285 C297 0.950 . S
H286 C294 0.950 . S
H287 C296 0.950 . S
H288 C298 0.950 . S
H289 C300 0.950 . S
H290 C302 0.950 . S
H291 C303 0.950 . S
C292 H284 0.950 . S
C292 C293 1.386 . S
C292 C294 1.391 . S
C293 C292 1.386 . S
C293 C297 1.393 . S
C294 H286 0.950 . S
C294 C292 1.391 . S
C294 C295 1.400 . S
C295 C294 1.400 . S
C295 C296 1.398 . S
C295 C301 1.491 . S
C296 H287 0.950 . S
C296 C295 1.398 . S
C296 C297 1.391 . S
C297 H285 0.950 . S
C297 C293 1.393 . S
C297 C296 1.391 . S
C298 H288 0.950 . S
C298 C299 1.386 . S
C298 C300 1.391 . S
C299 C298 1.386 . S
C299 C303 1.393 . S
C300 H289 0.950 . S
C300 C298 1.391 . S
C300 C301 1.400 . S
C301 C295 1.491 . S
C301 C300 1.400 . S
C301 C302 1.398 . S
C302 H290 0.950 . S
C302 C301 1.398 . S
C302 C303 1.391 . S
C303 H291 0.950 . S
C303 C299 1.393 . S
C303 C302 1.391 . S
H304 C312 0.950 . S
H305 C317 0.950 . S
H306 C314 0.950 . S
H307 C316 0.950 . S
H308 C318 0.950 . S
H309 C320 0.950 . S
H310 C322 0.950 . S
H311 C323 0.950 . S
C312 H304 0.950 . S
C312 C313 1.386 . S
C312 C314 1.391 . S
C313 C312 1.386 . S
C313 C317 1.393 . S
C314 H306 0.950 . S
C314 C312 1.391 . S
C314 C315 1.400 . S
C315 C314 1.400 . S
C315 C316 1.398 . S
C315 C321 1.491 . S
C316 H307 0.950 . S
C316 C315 1.398 . S
C316 C317 1.391 . S
C317 H305 0.950 . S
C317 C313 1.393 . S
C317 C316 1.391 . S
C318 H308 0.950 . S
C318 C319 1.386 . S
C318 C320 1.391 . S
C319 C318 1.386 . S
C319 C323 1.393 . S
C320 H309 0.950 . S
C320 C318 1.391 . S
C320 C321 1.400 . S
C321 C315 1.491 . S
C321 C320 1.400 . S
C321 C322 1.398 . S
C322 H310 0.950 . S
C322 C321 1.398 . S
C322 C323 1.391 . S
C323 H311 0.950 . S
C323 C319 1.393 . S
C323 C322 1.391 . S
H324 C332 0.950 . S
H325 C337 0.950 . S
H326 C334 0.950 . S
H327 C336 0.950 . S
H328 C338 0.950 . S
H329 C340 0.950 . S
H330 C342 0.950 . S
H331 C343 0.950 . S
C332 H324 0.950 . S
C332 C333 1.386 . S
C332 C334 1.391 . S
C333 C332 1.386 . S
C333 C337 1.393 . S
C334 H326 0.950 . S
C334 C332 1.391 . S
C334 C335 1.400 . S
C335 C334 1.400 . S
C335 C336 1.398 . S
C335 C341 1.491 . S
C336 H327 0.950 . S
C336 C335 1.398 . S
C336 C337 1.391 . S
C337 H325 0.950 . S
C337 C333 1.393 . S
C337 C336 1.391 . S
C338 H328 0.950 . S
C338 C339 1.386 . S
C338 C340 1.391 . S
C339 C338 1.386 . S
C339 C343 1.393 . S
C340 H329 0.950 . S
C340 C338 1.391 . S
C340 C341 1.400 . S
C341 C335 1.491 . S
C341 C340 1.400 . S
C341 C342 1.398 . S
C342 H330 0.950 . S
C342 C341 1.398 . S
C342 C343 1.391 . S
C343 H331 0.950 . S
C343 C339 1.393 . S
C343 C342 1.391 . S
H344 C352 0.950 . S
H345 C357 0.950 . S
H346 C354 0.950 . S
H347 C356 0.950 1_655 S
H348 C358 0.950 . S
H349 C360 0.950 . S
H350 C362 0.950 1_455 S
H351 C363 0.950 . S
C352 H344 0.950 . S
C352 C353 1.386 . S
C352 C354 1.391 . S
C353 C352 1.386 . S
C353 C357 1.393 . S
C354 H346 0.950 . S
C354 C352 1.391 . S
C354 C355 1.400 . S
C355 C354 1.400 . S
C355 C356 1.398 . S
C355 C361 1.491 1_445 S
C356 H347 0.950 1_455 S
C356 C355 1.398 . S
C356 C357 1.391 . S
C357 H345 0.950 . S
C357 C353 1.393 . S
C357 C356 1.391 . S
C358 H348 0.950 . S
C358 C359 1.386 . S
C358 C360 1.391 . S
C359 C358 1.386 . S
C359 C363 1.393 . S
C360 H349 0.950 . S
C360 C358 1.391 . S
C360 C361 1.400 . S
C361 C355 1.491 1_665 S
C361 C360 1.400 . S
C361 C362 1.398 . S
C362 H350 0.950 1_655 S
C362 C361 1.398 . S
C362 C363 1.391 . S
C363 H351 0.950 . S
C363 C359 1.393 . S
C363 C362 1.391 . S
H364 C372 0.950 . S
H365 C377 0.950 . S
H366 C374 0.950 . S
H367 C376 0.950 1_545 S
H368 C378 0.950 . S
H369 C380 0.950 . S
H370 C382 0.950 1_565 S
H371 C383 0.950 . S
C372 H364 0.950 . S
C372 C373 1.386 . S
C372 C374 1.391 . S
C373 C372 1.386 . S
C373 C377 1.393 . S
C374 H366 0.950 . S
C374 C372 1.391 . S
C374 C375 1.400 . S
C375 C374 1.400 . S
C375 C376 1.398 . S
C375 C381 1.491 1_465 S
C376 H367 0.950 1_565 S
C376 C375 1.398 . S
C376 C377 1.391 . S
C377 H365 0.950 . S
C377 C373 1.393 . S
C377 C376 1.391 . S
C378 H368 0.950 . S
C378 C379 1.386 . S
C378 C380 1.391 . S
C379 C378 1.386 . S
C379 C383 1.393 . S
C380 H369 0.950 . S
C380 C378 1.391 . S
C380 C381 1.400 . S
C381 C375 1.491 1_645 S
C381 C380 1.400 . S
C381 C382 1.398 . S
C382 H370 0.950 1_545 S
C382 C381 1.398 . S
C382 C383 1.391 . S
C383 H371 0.950 . S
C383 C379 1.393 . S
C383 C382 1.391 . S
H384 C392 0.950 . S
H385 C397 0.950 . S
H386 C394 0.950 1_565 S
H387 C396 0.950 . S
H388 C398 0.950 . S
H389 C400 0.950 1_545 S
H390 C402 0.950 . S
H391 C403 0.950 . S
C392 H384 0.950 . S
C392 C393 1.386 . S
C392 C394 1.391 . S
C393 C392 1.386 . S
C393 C397 1.393 . S
C394 H386 0.950 1_545 S
C394 C392 1.391 . S
C394 C395 1.400 . S
C395 C394 1.400 . S
C395 C396 1.398 1_655 S
C395 C401 1.491 1_645 S
C396 H387 0.950 . S
C396 C395 1.398 1_455 S
C396 C397 1.391 1_455 S
C397 H385 0.950 . S
C397 C393 1.393 . S
C397 C396 1.391 1_655 S
C398 H388 0.950 . S
C398 C399 1.386 . S
C398 C400 1.391 . S
C399 C398 1.386 . S
C399 C403 1.393 . S
C400 H389 0.950 1_565 S
C400 C398 1.391 . S
C400 C401 1.400 . S
C401 C395 1.491 1_465 S
C401 C400 1.400 . S
C401 C402 1.398 1_455 S
C402 H390 0.950 . S
C402 C401 1.398 1_655 S
C402 C403 1.391 1_655 S
C403 H391 0.950 . S
C403 C399 1.393 . S
C403 C402 1.391 1_455 S
H404 C412 0.950 . S
H405 C417 0.950 . S
H406 C414 0.950 . S
H407 C416 0.950 1_455 S
H408 C418 0.950 . S
H409 C420 0.950 . S
H410 C422 0.950 1_655 S
H411 C423 0.950 . S
C412 H404 0.950 . S
C412 C413 1.386 . S
C412 C414 1.391 1_565 S
C413 C412 1.386 . S
C413 C417 1.393 . S
C414 H406 0.950 . S
C414 C412 1.391 1_545 S
C414 C415 1.400 1_545 S
C415 C414 1.400 1_565 S
C415 C416 1.398 . S
C415 C421 1.491 1_665 S
C416 H407 0.950 1_655 S
C416 C415 1.398 . S
C416 C417 1.391 . S
C417 H405 0.950 . S
C417 C413 1.393 . S
C417 C416 1.391 . S
C418 H408 0.950 . S
C418 C419 1.386 . S
C418 C420 1.391 1_545 S
C419 C418 1.386 . S
C419 C423 1.393 . S
C420 H409 0.950 . S
C420 C418 1.391 1_565 S
C420 C421 1.400 1_565 S
C421 C415 1.491 1_445 S
C421 C420 1.400 1_545 S
C421 C422 1.398 . S
C422 H410 0.950 1_455 S
C422 C421 1.398 . S
C422 C423 1.391 . S
C423 H411 0.950 . S
C423 C419 1.393 . S
C423 C422 1.391 . S
C113 C5 1.888 . S
C119 C31 1.890 . S
C133 C44 1.880 . S
C139 C18 1.878 . S
C153 C83 1.880 . S
C159 C57 1.882 . S
C173 C70 1.885 . S
C179 C96 1.887 . S
C193 C79 1.560 . S
C199 C1 1.556 . S
C213 C14 1.552 . S
C219 C92 1.549 . S
C233 C27 1.557 . S
C239 C53 1.560 . S
C253 C66 1.549 . S
C259 C40 1.553 . S
C273 C3 1.648 . S
C279 C68 1.636 . S
C293 C81 1.636 . S
C299 C16 1.648 . S
C313 C94 1.637 . S
C319 C29 1.648 . S
C333 C42 1.647 . S
C339 C55 1.637 . S
C353 C10 1.418 . S
C359 C36 1.420 . S
C373 C49 1.446 . S
C379 C23 1.447 . S
C393 C88 1.435 . S
C399 C62 1.438 . S
C413 C101 1.439 . S
C419 C75 1.436 . S
