# Generated by pormake.
# Topology srs-g, (5)-cn, num edge types: 1
# Building blocks:
#     Node 0, Type 0, BuildingBlock: XOMCOT_clean_sbu_0, # of connection points: 5
#     Node 1, Type 0, BuildingBlock: XOMCOT_clean_sbu_0, # of connection points: 5
#     Node 2, Type 0, BuildingBlock: XOMCOT_clean_sbu_0, # of connection points: 5
#     Node 3, Type 0, BuildingBlock: XOMCOT_clean_sbu_0, # of connection points: 5
#     Node 4, Type 0, BuildingBlock: XOMCOT_clean_sbu_0, # of connection points: 5
#     Node 5, Type 0, BuildingBlock: XOMCOT_clean_sbu_0, # of connection points: 5
#     Node 6, Type 0, BuildingBlock: XOMCOT_clean_sbu_0, # of connection points: 5
#     Node 7, Type 0, BuildingBlock: XOMCOT_clean_sbu_0, # of connection points: 5
#     Node 8, Type 0, BuildingBlock: XOMCOT_clean_sbu_0, # of connection points: 5
#     Node 9, Type 0, BuildingBlock: XOMCOT_clean_sbu_0, # of connection points: 5
#     Node 10, Type 0, BuildingBlock: XOMCOT_clean_sbu_0, # of connection points: 5
#     Node 11, Type 0, BuildingBlock: XOMCOT_clean_sbu_0, # of connection points: 5
#     Node 12, Type 0, BuildingBlock: XOMCOT_clean_sbu_0, # of connection points: 5
#     Node 13, Type 0, BuildingBlock: XOMCOT_clean_sbu_0, # of connection points: 5
#     Node 14, Type 0, BuildingBlock: XOMCOT_clean_sbu_0, # of connection points: 5
#     Node 15, Type 0, BuildingBlock: XOMCOT_clean_sbu_0, # of connection points: 5
#     Node 16, Type 0, BuildingBlock: XOMCOT_clean_sbu_0, # of connection points: 5
#     Node 17, Type 0, BuildingBlock: XOMCOT_clean_sbu_0, # of connection points: 5
#     Node 18, Type 0, BuildingBlock: XOMCOT_clean_sbu_0, # of connection points: 5
#     Node 19, Type 0, BuildingBlock: XOMCOT_clean_sbu_0, # of connection points: 5
#     Node 20, Type 0, BuildingBlock: XOMCOT_clean_sbu_0, # of connection points: 5
#     Node 21, Type 0, BuildingBlock: XOMCOT_clean_sbu_0, # of connection points: 5
#     Node 22, Type 0, BuildingBlock: XOMCOT_clean_sbu_0, # of connection points: 5
#     Node 23, Type 0, BuildingBlock: XOMCOT_clean_sbu_0, # of connection points: 5
#     Node 24, Type 0, BuildingBlock: XOMCOT_clean_sbu_0, # of connection points: 5
#     Node 25, Type 0, BuildingBlock: XOMCOT_clean_sbu_0, # of connection points: 5
#     Node 26, Type 0, BuildingBlock: XOMCOT_clean_sbu_0, # of connection points: 5
#     Node 27, Type 0, BuildingBlock: XOMCOT_clean_sbu_0, # of connection points: 5
#     Node 28, Type 0, BuildingBlock: XOMCOT_clean_sbu_0, # of connection points: 5
#     Node 29, Type 0, BuildingBlock: XOMCOT_clean_sbu_0, # of connection points: 5
#     Node 30, Type 0, BuildingBlock: XOMCOT_clean_sbu_0, # of connection points: 5
#     Node 31, Type 0, BuildingBlock: XOMCOT_clean_sbu_0, # of connection points: 5
#     Node 32, Type 0, BuildingBlock: XOMCOT_clean_sbu_0, # of connection points: 5
#     Node 33, Type 0, BuildingBlock: XOMCOT_clean_sbu_0, # of connection points: 5
#     Node 34, Type 0, BuildingBlock: XOMCOT_clean_sbu_0, # of connection points: 5
#     Node 35, Type 0, BuildingBlock: XOMCOT_clean_sbu_0, # of connection points: 5
#     Node 36, Type 0, BuildingBlock: XOMCOT_clean_sbu_0, # of connection points: 5
#     Node 37, Type 0, BuildingBlock: XOMCOT_clean_sbu_0, # of connection points: 5
#     Node 38, Type 0, BuildingBlock: XOMCOT_clean_sbu_0, # of connection points: 5
#     Node 39, Type 0, BuildingBlock: XOMCOT_clean_sbu_0, # of connection points: 5
#     Node 40, Type 0, BuildingBlock: XOMCOT_clean_sbu_0, # of connection points: 5
#     Node 41, Type 0, BuildingBlock: XOMCOT_clean_sbu_0, # of connection points: 5
#     Node 42, Type 0, BuildingBlock: XOMCOT_clean_sbu_0, # of connection points: 5
#     Node 43, Type 0, BuildingBlock: XOMCOT_clean_sbu_0, # of connection points: 5
#     Node 44, Type 0, BuildingBlock: XOMCOT_clean_sbu_0, # of connection points: 5
#     Node 45, Type 0, BuildingBlock: XOMCOT_clean_sbu_0, # of connection points: 5
#     Node 46, Type 0, BuildingBlock: XOMCOT_clean_sbu_0, # of connection points: 5
#     Node 47, Type 0, BuildingBlock: XOMCOT_clean_sbu_0, # of connection points: 5
#     Edge 48, Type (0, 0), None
#     Edge 49, Type (0, 0), None
#     Edge 50, Type (0, 0), None
#     Edge 51, Type (0, 0), None
#     Edge 52, Type (0, 0), None
#     Edge 53, Type (0, 0), None
#     Edge 54, Type (0, 0), None
#     Edge 55, Type (0, 0), None
#     Edge 56, Type (0, 0), None
#     Edge 57, Type (0, 0), None
#     Edge 58, Type (0, 0), None
#     Edge 59, Type (0, 0), None
#     Edge 60, Type (0, 0), None
#     Edge 61, Type (0, 0), None
#     Edge 62, Type (0, 0), None
#     Edge 63, Type (0, 0), None
#     Edge 64, Type (0, 0), None
#     Edge 65, Type (0, 0), None
#     Edge 66, Type (0, 0), None
#     Edge 67, Type (0, 0), None
#     Edge 68, Type (0, 0), None
#     Edge 69, Type (0, 0), None
#     Edge 70, Type (0, 0), None
#     Edge 71, Type (0, 0), None
#     Edge 72, Type (0, 0), None
#     Edge 73, Type (0, 0), None
#     Edge 74, Type (0, 0), None
#     Edge 75, Type (0, 0), None
#     Edge 76, Type (0, 0), None
#     Edge 77, Type (0, 0), None
#     Edge 78, Type (0, 0), None
#     Edge 79, Type (0, 0), None
#     Edge 80, Type (0, 0), None
#     Edge 81, Type (0, 0), None
#     Edge 82, Type (0, 0), None
#     Edge 83, Type (0, 0), None
#     Edge 84, Type (0, 0), None
#     Edge 85, Type (0, 0), None
#     Edge 86, Type (0, 0), None
#     Edge 87, Type (0, 0), None
#     Edge 88, Type (0, 0), None
#     Edge 89, Type (0, 0), None
#     Edge 90, Type (0, 0), None
#     Edge 91, Type (0, 0), None
#     Edge 92, Type (0, 0), None
#     Edge 93, Type (0, 0), None
#     Edge 94, Type (0, 0), None
#     Edge 95, Type (0, 0), None
#     Edge 96, Type (0, 0), None
#     Edge 97, Type (0, 0), None
#     Edge 98, Type (0, 0), None
#     Edge 99, Type (0, 0), None
#     Edge 100, Type (0, 0), None
#     Edge 101, Type (0, 0), None
#     Edge 102, Type (0, 0), None
#     Edge 103, Type (0, 0), None
#     Edge 104, Type (0, 0), None
#     Edge 105, Type (0, 0), None
#     Edge 106, Type (0, 0), None
#     Edge 107, Type (0, 0), None
#     Edge 108, Type (0, 0), None
#     Edge 109, Type (0, 0), None
#     Edge 110, Type (0, 0), None
#     Edge 111, Type (0, 0), None
#     Edge 112, Type (0, 0), None
#     Edge 113, Type (0, 0), None
#     Edge 114, Type (0, 0), None
#     Edge 115, Type (0, 0), None
#     Edge 116, Type (0, 0), None
#     Edge 117, Type (0, 0), None
#     Edge 118, Type (0, 0), None
#     Edge 119, Type (0, 0), None
#     Edge 120, Type (0, 0), None
#     Edge 121, Type (0, 0), None
#     Edge 122, Type (0, 0), None
#     Edge 123, Type (0, 0), None
#     Edge 124, Type (0, 0), None
#     Edge 125, Type (0, 0), None
#     Edge 126, Type (0, 0), None
#     Edge 127, Type (0, 0), None
#     Edge 128, Type (0, 0), None
#     Edge 129, Type (0, 0), None
#     Edge 130, Type (0, 0), None
#     Edge 131, Type (0, 0), None
#     Edge 132, Type (0, 0), None
#     Edge 133, Type (0, 0), None
#     Edge 134, Type (0, 0), None
#     Edge 135, Type (0, 0), None
#     Edge 136, Type (0, 0), None
#     Edge 137, Type (0, 0), None
#     Edge 138, Type (0, 0), None
#     Edge 139, Type (0, 0), None
#     Edge 140, Type (0, 0), None
#     Edge 141, Type (0, 0), None
#     Edge 142, Type (0, 0), None
#     Edge 143, Type (0, 0), None
#     Edge 144, Type (0, 0), None
#     Edge 145, Type (0, 0), None
#     Edge 146, Type (0, 0), None
#     Edge 147, Type (0, 0), None
#     Edge 148, Type (0, 0), None
#     Edge 149, Type (0, 0), None
#     Edge 150, Type (0, 0), None
#     Edge 151, Type (0, 0), None
#     Edge 152, Type (0, 0), None
#     Edge 153, Type (0, 0), None
#     Edge 154, Type (0, 0), None
#     Edge 155, Type (0, 0), None
#     Edge 156, Type (0, 0), None
#     Edge 157, Type (0, 0), None
#     Edge 158, Type (0, 0), None
#     Edge 159, Type (0, 0), None
#     Edge 160, Type (0, 0), None
#     Edge 161, Type (0, 0), None
#     Edge 162, Type (0, 0), None
#     Edge 163, Type (0, 0), None
#     Edge 164, Type (0, 0), None
#     Edge 165, Type (0, 0), None
#     Edge 166, Type (0, 0), None
#     Edge 167, Type (0, 0), None
# Relax obj value: 0.955
# Max RMSD: 0.279
# Mean RMSD: 0.279
data_MOF--net-srs-g--node1-XOMCOT_clean_sbu_0--edge1-none
_symmetry_space_group_name_H-M    P1
_symmetry_Int_Tables_number       1
_symmetry_cell_setting            triclinic
loop_
_symmetry_equiv_pos_as_xyz
'x, y, z'
_cell_length_a     45.888612
_cell_length_b     45.888187
_cell_length_c     45.887594
_cell_angle_alpha  90.026249
_cell_angle_beta   90.027152
_cell_angle_gamma 90.026717
loop_
_atom_site_label
_atom_site_type_symbol
_atom_site_fract_x
_atom_site_fract_y
_atom_site_fract_z
_atom_type_partial_charge
Co0 Co 0.06009 0.06308 0.17674 0.0
C1 C 0.10774 0.03196 0.20658 0.0
C2 C 0.07537 0.04792 0.23592 0.0
C3 C 0.09971 0.04182 0.25171 0.0
N4 N 0.08047 0.04253 0.20733 0.0
N5 N 0.11983 0.03156 0.23329 0.0
H6 H 0.12039 0.02946 0.1869 0.0
H7 H 0.0575 0.06042 0.24447 0.0
C8 C 0.04992 0.1228 0.2041 0.0
O9 O 0.02812 0.12896 0.18663 0.0
N10 N 0.04063 0.08592 0.14648 0.0
C11 C 0.0171 0.07998 0.12991 0.0
C12 C 0.01565 0.10034 0.10741 0.0
C13 C 0.05322 0.1094 0.1336 0.0
N14 N 0.03857 0.11869 0.10982 0.0
C15 C 0.02281 0.01747 0.19483 0.0
C16 C 0.99947 0.04726 0.24143 0.0
C17 C 1.00409 0.01699 0.24471 0.0
C18 C 0.01371 1.00201 0.21974 0.0
C19 C 1.00913 0.06195 0.21602 0.0
N20 N 0.02398 0.04732 0.19463 0.0
H21 H 0.03367 1.00527 0.17792 0.0
H22 H 1.00805 0.08535 0.21582 0.0
H23 H 1.00282 0.06149 0.13306 0.0
H24 H 0.07347 0.11897 0.14108 0.0
O25 O 0.06815 0.03242 0.1477 0.0
O26 O 0.09651 0.07033 0.15596 0.0
O27 O 0.06223 0.09796 0.20345 0.0
C28 C 0.09154 0.04694 0.14073 0.0
H29 H 0.1038 0.0482 0.27406 0.0
H30 H 0.99962 0.10087 0.0901 0.0
H31 H 0.99083 0.06001 0.25929 0.0
H32 H 0.01737 0.97872 0.22032 0.0
Co33 Co 0.20642 0.81016 0.42671 0.0
C34 C 0.23757 0.85781 0.45656 0.0
C35 C 0.22163 0.82543 0.48589 0.0
C36 C 0.22773 0.84978 0.50169 0.0
N37 N 0.227 0.83053 0.4573 0.0
N38 N 0.23798 0.86991 0.48327 0.0
H39 H 0.24007 0.87047 0.43688 0.0
H40 H 0.20913 0.80755 0.49444 0.0
C41 C 0.1467 0.79998 0.45405 0.0
O42 O 0.14051 0.77819 0.43658 0.0
N43 N 0.18354 0.79069 0.39645 0.0
C44 C 0.18945 0.76715 0.37989 0.0
C45 C 0.16907 0.7657 0.35739 0.0
C46 C 0.16006 0.80327 0.38356 0.0
N47 N 0.15074 0.78862 0.35979 0.0
C48 C 0.252 0.77287 0.4448 0.0
C49 C 0.22223 0.74948 0.49137 0.0
C50 C 0.25251 0.75409 0.49466 0.0
C51 C 0.26747 0.76373 0.4697 0.0
C52 C 0.20753 0.75918 0.46597 0.0
N53 N 0.22216 0.77404 0.4446 0.0
H54 H 0.2642 0.78375 0.42791 0.0
H55 H 0.18412 0.7581 0.46577 0.0
H56 H 0.20793 0.75287 0.38305 0.0
H57 H 0.15051 0.82353 0.39103 0.0
O58 O 0.23706 0.81822 0.39768 0.0
O59 O 0.19918 0.84657 0.40593 0.0
O60 O 0.17155 0.81229 0.45341 0.0
C61 C 0.22255 0.84161 0.3907 0.0
H62 H 0.22135 0.85386 0.52403 0.0
H63 H 0.16851 0.74966 0.34008 0.0
H64 H 0.20948 0.74082 0.50921 0.0
H65 H 0.29076 0.76739 0.47029 0.0
Co66 Co 0.45947 0.9564 0.67685 0.0
C67 C 0.41182 0.98751 0.70667 0.0
C68 C 0.4442 0.97158 0.73602 0.0
C69 C 0.41986 0.97768 0.7518 0.0
N70 N 0.4391 0.97695 0.70743 0.0
N71 N 0.39973 0.98791 0.73337 0.0
H72 H 0.39916 0.99 0.68698 0.0
H73 H 0.46207 0.95907 0.74458 0.0
C74 C 0.46966 0.89669 0.70417 0.0
O75 O 0.49147 0.89053 0.68672 0.0
N76 N 0.47893 0.93356 0.64659 0.0
C77 C 0.50246 0.9395 0.63004 0.0
C78 C 0.50391 0.91914 0.60753 0.0
C79 C 0.46635 0.91008 0.63368 0.0
N80 N 0.48099 0.90079 0.60991 0.0
C81 C 0.49675 1.00202 0.69498 0.0
C82 C 0.52008 0.97227 0.74159 0.0
C83 C 0.51545 1.00255 0.74488 0.0
C84 C 0.50584 0.0175 0.7199 0.0
C85 C 0.51043 0.95756 0.71618 0.0
N86 N 0.49559 0.97217 0.69477 0.0
H87 H 0.4859 0.01421 0.67805 0.0
H88 H 0.51152 0.93416 0.71598 0.0
H89 H 0.51674 0.95799 0.63321 0.0
H90 H 0.4461 0.9005 0.64113 0.0
O91 O 0.4514 0.98706 0.64782 0.0
O92 O 0.42305 0.94914 0.65603 0.0
O93 O 0.45734 0.92152 0.70353 0.0
C94 C 0.42802 0.97253 0.64082 0.0
H95 H 0.41578 0.9713 0.77415 0.0
H96 H 0.51994 0.91861 0.59023 0.0
H97 H 0.52872 0.95954 0.75946 0.0
H98 H 0.50217 0.04079 0.72048 0.0
Co99 Co 0.31303 0.20938 0.92684 0.0
C100 C 0.28192 0.16173 0.95666 0.0
C101 C 0.29788 0.19412 0.98601 0.0
C102 C 0.29179 0.16978 1.0018 0.0
N103 N 0.29249 0.189 0.95742 0.0
N104 N 0.28152 0.14964 0.98337 0.0
H105 H 0.2794 0.14906 0.93698 0.0
H106 H 0.31039 0.212 0.99457 0.0
C107 C 0.37276 0.21961 0.95419 0.0
O108 O 0.37892 0.24141 0.93673 0.0
N109 N 0.33587 0.22884 0.89658 0.0
C110 C 0.32993 0.25236 0.88003 0.0
C111 C 0.35028 0.25381 0.85753 0.0
C112 C 0.35934 0.21626 0.8837 0.0
N113 N 0.36863 0.23091 0.85993 0.0
C114 C 0.26744 0.24663 0.94495 0.0
C115 C 0.29724 0.27004 0.99154 0.0
C116 C 0.26697 0.26541 0.99483 0.0
C117 C 0.25199 0.25575 0.96987 0.0
C118 C 0.31192 0.26036 0.96613 0.0
N119 N 0.29728 0.24549 0.94474 0.0
H120 H 0.25522 0.23575 0.92805 0.0
H121 H 0.33532 0.26147 0.96592 0.0
H122 H 0.31144 0.26663 0.88318 0.0
H123 H 0.36892 0.19602 0.89116 0.0
O124 O 0.28236 0.20127 0.8978 0.0
O125 O 0.32027 0.17295 0.90604 0.0
O126 O 0.34792 0.20728 0.95354 0.0
C127 C 0.29688 0.1779 0.89082 0.0
H128 H 0.29818 0.16571 0.02415 0.0
H129 H 0.35082 0.26984 0.84023 0.0
H130 H 0.31 0.27871 1.0094 0.0
H131 H 0.2287 0.25207 0.97046 0.0
Co132 Co 0.06028 0.95609 0.34238 0.0
C133 C 0.10787 0.98722 0.31247 0.0
C134 C 0.07546 0.97119 0.28317 0.0
C135 C 0.09978 0.9773 0.26735 0.0
N136 N 0.0806 0.97662 0.31175 0.0
N137 N 0.11993 0.9876 0.28575 0.0
H138 H 0.12056 0.98976 0.33214 0.0
H139 H 0.05758 0.95866 0.27465 0.0
C140 C 0.05006 0.89633 0.3151 0.0
O141 O 0.02829 0.89017 0.33259 0.0
N142 N 0.04087 0.93326 0.37268 0.0
C143 C 0.01736 0.9392 0.38925 0.0
C144 C 0.01595 0.91887 0.41178 0.0
C145 C 0.05348 0.90981 0.38558 0.0
N146 N 0.03887 0.90054 0.40937 0.0
C147 C 0.02296 1.00164 0.32429 0.0
C148 C 0.99954 0.97181 0.27773 0.0
C149 C 1.00414 1.00208 0.27443 0.0
C150 C 0.01379 0.01708 0.29939 0.0
C151 C 1.00926 0.95714 0.30312 0.0
N152 N 0.02414 0.9718 0.3245 0.0
H153 H 0.03384 0.01387 0.34119 0.0
H154 H 1.00819 0.93373 0.30333 0.0
H155 H 1.00308 0.95767 0.3861 0.0
H156 H 0.07372 0.90025 0.3781 0.0
O157 O 0.06839 0.98679 0.37138 0.0
O158 O 0.09674 0.9489 0.36314 0.0
O159 O 0.06238 0.92117 0.31571 0.0
C160 C 0.09179 0.9723 0.37835 0.0
H161 H 0.10383 0.97089 0.24501 0.0
H162 H 0.99995 0.91834 0.4291 0.0
H163 H 0.99087 0.95904 0.25988 0.0
H164 H 0.01744 0.04037 0.2988 0.0
Co165 Co 0.3135 0.81021 0.59236 0.0
C166 C 0.28237 0.8578 0.56247 0.0
C167 C 0.29835 0.82541 0.53316 0.0
C168 C 0.29225 0.84973 0.51735 0.0
N169 N 0.29295 0.83053 0.56174 0.0
N170 N 0.28198 0.86987 0.53576 0.0
H171 H 0.27985 0.87047 0.58215 0.0
H172 H 0.31088 0.80754 0.52462 0.0
C173 C 0.37324 0.80005 0.5651 0.0
O174 O 0.3794 0.77827 0.58257 0.0
N175 N 0.33634 0.7908 0.62266 0.0
C176 C 0.33041 0.76727 0.63922 0.0
C177 C 0.35076 0.76587 0.66175 0.0
C178 C 0.3598 0.80342 0.63557 0.0
N179 N 0.36909 0.78881 0.65936 0.0
C180 C 0.26793 0.77285 0.57426 0.0
C181 C 0.29771 0.74951 0.52767 0.0
C182 C 0.26743 0.75409 0.52438 0.0
C183 C 0.25246 0.76371 0.54935 0.0
C184 C 0.31241 0.75921 0.55307 0.0
N185 N 0.29778 0.77406 0.57447 0.0
H186 H 0.25572 0.7837 0.59117 0.0
H187 H 0.33581 0.75816 0.55328 0.0
H188 H 0.31194 0.75297 0.63604 0.0
H189 H 0.36936 0.82367 0.62811 0.0
O190 O 0.28281 0.81827 0.62136 0.0
O191 O 0.3207 0.84665 0.61315 0.0
O192 O 0.3484 0.81235 0.56571 0.0
C193 C 0.29731 0.84167 0.62834 0.0
H194 H 0.29864 0.8538 0.49501 0.0
H195 H 0.35129 0.74985 0.67906 0.0
H196 H 0.31046 0.74086 0.50981 0.0
H197 H 0.22917 0.76734 0.54876 0.0
Co198 Co 0.45918 0.06346 0.84251 0.0
C199 C 0.41159 0.0323 0.81258 0.0
C200 C 0.44399 0.0483 0.7833 0.0
C201 C 0.41966 0.0422 0.76747 0.0
N202 N 0.43886 0.04289 0.81187 0.0
N203 N 0.39952 0.03191 0.78585 0.0
H204 H 0.39891 0.02977 0.83224 0.0
H205 H 0.46186 0.06083 0.77478 0.0
C206 C 0.46933 0.12322 0.81525 0.0
O207 O 0.49111 0.12941 0.83275 0.0
N208 N 0.47859 0.08632 0.87282 0.0
C209 C 0.50212 0.08041 0.8894 0.0
C210 C 0.50353 0.10077 0.91192 0.0
C211 C 0.46598 0.10977 0.88571 0.0
N212 N 0.4806 0.11908 0.90952 0.0
C213 C 0.49653 0.01793 0.82443 0.0
C214 C 0.51994 0.04775 0.77791 0.0
C215 C 0.51538 0.01747 0.7746 0.0
C216 C 0.50572 1.00248 0.79954 0.0
C217 C 0.5102 0.06243 0.8033 0.0
N218 N 0.49533 0.04777 0.82465 0.0
H219 H 0.48566 1.0057 0.84131 0.0
H220 H 0.51124 0.08584 0.80351 0.0
H221 H 0.51642 0.06195 0.88624 0.0
H222 H 0.44573 0.11932 0.87824 0.0
O223 O 0.45111 0.03278 0.87151 0.0
O224 O 0.42273 0.07064 0.86326 0.0
O225 O 0.45705 0.09836 0.81585 0.0
C226 C 0.4277 0.04726 0.87847 0.0
H227 H 0.41559 0.0486 0.74512 0.0
H228 H 0.51955 0.10132 0.92925 0.0
H229 H 0.52861 0.06052 0.76008 0.0
H230 H 0.5021 0.97918 0.79894 0.0
Co231 Co 0.20608 0.20925 0.09249 0.0
C232 C 0.23719 0.16166 0.06257 0.0
C233 C 0.22119 0.19405 0.03328 0.0
C234 C 0.22728 0.16973 0.01745 0.0
N235 N 0.22661 0.18893 0.06186 0.0
N236 N 0.23757 0.14959 0.03585 0.0
H237 H 0.23972 0.14899 0.08224 0.0
H238 H 0.20866 0.21192 0.02476 0.0
C239 C 0.14633 0.21941 0.0652 0.0
O240 O 0.14016 0.24119 0.08269 0.0
N241 N 0.18325 0.22866 0.12279 0.0
C242 C 0.18918 0.25219 0.13937 0.0
C243 C 0.16884 0.2536 0.16189 0.0
C244 C 0.15979 0.21605 0.13567 0.0
N245 N 0.15051 0.23066 0.15947 0.0
C246 C 0.25163 0.2466 0.07441 0.0
C247 C 0.2218 0.26996 0.02786 0.0
C248 C 0.25208 0.26538 0.02455 0.0
C249 C 0.26708 0.25575 0.04951 0.0
C250 C 0.20714 0.26025 0.05326 0.0
N251 N 0.22179 0.2454 0.07463 0.0
H252 H 0.26386 0.23573 0.0913 0.0
H253 H 0.18373 0.26132 0.05347 0.0
H254 H 0.20766 0.26649 0.13622 0.0
H255 H 0.15023 0.19579 0.12819 0.0
O256 O 0.23677 0.20118 0.12149 0.0
O257 O 0.19888 0.17281 0.11324 0.0
O258 O 0.17117 0.20711 0.06581 0.0
C259 C 0.22227 0.17778 0.12845 0.0
H260 H 0.22088 0.16566 0.99511 0.0
H261 H 0.16831 0.26962 0.17921 0.0
H262 H 0.20904 0.27862 0.01001 0.0
H263 H 0.29037 0.25211 0.04891 0.0
Co264 Co 0.17678 0.06011 0.06305 0.0
C265 C 0.20663 0.10779 0.03202 0.0
C266 C 0.23596 0.07536 0.04788 0.0
C267 C 0.25179 0.0997 0.04184 0.0
N268 N 0.20737 0.08049 0.04252 0.0
N269 N 0.23336 0.11986 0.03167 0.0
H270 H 0.18697 0.12047 0.02954 0.0
H271 H 0.24451 0.05746 0.06035 0.0
C272 C 0.20412 0.04992 0.12278 0.0
O273 O 0.18664 0.02813 0.12893 0.0
N274 N 0.14651 0.04065 0.08588 0.0
C275 C 0.12995 0.01711 0.07994 0.0
C276 C 0.10744 0.01566 0.10029 0.0
C277 C 0.13362 0.05323 0.10935 0.0
N278 N 0.10984 0.03859 0.11863 0.0
C279 C 0.19487 0.02284 0.01744 0.0
C280 C 0.24143 0.99944 0.04724 0.0
C281 C 0.24473 1.00406 0.01697 0.0
C282 C 0.21977 0.01371 1.00198 0.0
C283 C 0.21603 1.00913 0.06192 0.0
N284 N 0.19466 0.02399 0.04729 0.0
H285 H 0.17798 0.03371 1.00523 0.0
H286 H 0.21582 1.00804 0.08532 0.0
H287 H 0.13311 1.00282 0.06145 0.0
H288 H 0.14109 0.07348 0.11893 0.0
O289 O 0.14774 0.06818 0.03238 0.0
O290 O 0.156 0.09653 0.07031 0.0
O291 O 0.20348 0.06223 0.09794 0.0
C292 C 0.14077 0.09157 0.04691 0.0
H293 H 0.27415 0.10376 0.04821 0.0
H294 H 0.09014 0.99962 0.10082 0.0
H295 H 0.25928 0.99078 0.05999 0.0
H296 H 0.22037 0.01738 0.9787 0.0
Co297 Co 0.20938 0.92683 0.31301 0.0
C298 C 0.16171 0.95667 0.28196 0.0
C299 C 0.19416 0.98601 0.29783 0.0
C300 C 0.16983 1.00183 0.29177 0.0
N301 N 0.18901 0.95742 0.29247 0.0
N302 N 0.14966 0.98339 0.28159 0.0
H303 H 0.14901 0.937 0.27947 0.0
H304 H 0.21207 0.99457 0.3103 0.0
C305 C 0.21963 0.95418 0.37274 0.0
O306 O 0.24142 0.93671 0.3789 0.0
N307 N 0.22884 0.89658 0.33585 0.0
C308 C 0.25237 0.88002 0.32991 0.0
C309 C 0.25381 0.85752 0.35027 0.0
C310 C 0.21626 0.88368 0.35932 0.0
N311 N 0.2309 0.85991 0.36861 0.0
C312 C 0.24663 0.94494 0.26741 0.0
C313 C 0.27008 0.9915 0.29721 0.0
C314 C 0.26543 0.99481 0.26694 0.0
C315 C 0.25576 0.96985 0.25196 0.0
C316 C 0.26039 0.9661 0.31189 0.0
N317 N 0.2455 0.94472 0.29725 0.0
H318 H 0.23574 0.92804 0.2552 0.0
H319 H 0.2615 0.96589 0.3353 0.0
H320 H 0.26664 0.88318 0.31143 0.0
H321 H 0.19603 0.89115 0.3689 0.0
O322 O 0.20127 0.89779 0.28235 0.0
O323 O 0.17295 0.90604 0.32026 0.0
O324 O 0.2073 0.95354 0.3479 0.0
C325 C 0.17789 0.89082 0.29687 0.0
H326 H 0.16579 0.02419 0.29813 0.0
H327 H 0.26984 0.84022 0.3508 0.0
H328 H 0.27876 1.00936 0.30997 0.0
H329 H 0.25207 0.97044 0.22867 0.0
Co330 Co 0.34278 0.95935 0.56307 0.0
C331 C 0.31291 0.91167 0.53198 0.0
C332 C 0.28359 0.94411 0.54784 0.0
C333 C 0.26776 0.91976 0.54178 0.0
N334 N 0.31218 0.93897 0.54249 0.0
N335 N 0.28619 0.8996 0.53161 0.0
H336 H 0.33258 0.89899 0.52951 0.0
H337 H 0.27505 0.96202 0.5603 0.0
C338 C 0.31544 0.96953 0.62279 0.0
O339 O 0.33292 0.99132 0.62898 0.0
N340 N 0.37304 0.97882 0.58594 0.0
C341 C 0.3896 1.00236 0.58003 0.0
C342 C 0.41211 1.00381 0.6004 0.0
C343 C 0.38594 0.96623 0.60941 0.0
N344 N 0.40972 0.98088 0.61872 0.0
C345 C 0.32468 0.99663 0.51748 0.0
C346 C 0.27815 0.02006 0.54726 0.0
C347 C 0.27484 0.01545 0.51698 0.0
C348 C 0.29979 1.00578 0.50201 0.0
C349 C 0.30353 0.01035 0.56196 0.0
N350 N 0.3249 0.99547 0.54732 0.0
H351 H 0.34157 0.98574 0.50527 0.0
H352 H 0.30374 0.01143 0.58536 0.0
H353 H 0.38643 0.01664 0.56156 0.0
H354 H 0.37847 0.94598 0.61897 0.0
O355 O 0.37181 0.95128 0.53242 0.0
O356 O 0.36356 0.92293 0.57031 0.0
O357 O 0.31608 0.95723 0.59794 0.0
C358 C 0.37878 0.9279 0.54693 0.0
H359 H 0.2454 0.91571 0.54813 0.0
H360 H 0.42941 0.01985 0.60096 0.0
H361 H 0.2603 0.02873 0.56001 0.0
H362 H 0.29919 1.00212 0.47872 0.0
Co363 Co 0.31004 0.09263 0.8131 0.0
C364 C 0.35772 0.06281 0.78205 0.0
C365 C 0.32529 0.03345 0.7979 0.0
C366 C 0.34963 0.01765 0.79184 0.0
N367 N 0.33042 0.06205 0.79255 0.0
N368 N 0.36978 0.0361 0.78168 0.0
H369 H 0.3704 0.08249 0.77959 0.0
H370 H 0.30739 0.02489 0.81036 0.0
C371 C 0.29985 0.06531 0.87281 0.0
O372 O 0.27805 0.08276 0.87897 0.0
N373 N 0.29058 0.12289 0.83595 0.0
C374 C 0.26704 0.13943 0.83001 0.0
C375 C 0.26559 0.16194 0.85037 0.0
C376 C 0.30316 0.1358 0.85943 0.0
N377 N 0.28852 0.15958 0.86871 0.0
C378 C 0.27276 0.0745 0.76748 0.0
C379 C 0.2494 0.0279 0.79723 0.0
C380 C 0.25403 0.02461 0.76695 0.0
C381 C 0.26366 0.04958 0.752 0.0
C382 C 0.25906 0.05332 0.81194 0.0
N383 N 0.27392 0.07471 0.79732 0.0
H384 H 0.28363 0.09142 0.75528 0.0
H385 H 0.25797 0.05352 0.83534 0.0
H386 H 0.25275 0.13625 0.81153 0.0
H387 H 0.32341 0.12835 0.869 0.0
O388 O 0.31811 0.12166 0.78245 0.0
O389 O 0.34646 0.11345 0.82036 0.0
O390 O 0.31216 0.06594 0.84798 0.0
C391 C 0.34149 0.12866 0.79698 0.0
H392 H 0.35368 0.99529 0.79818 0.0
H393 H 0.24956 0.17923 0.85091 0.0
H394 H 0.24075 0.01004 0.80996 0.0
H395 H 0.26733 0.049 0.72871 0.0
Co396 Co 0.17715 0.95931 0.456 0.0
C397 C 0.20705 0.91169 0.48706 0.0
C398 C 0.23636 0.94413 0.47117 0.0
C399 C 0.25219 0.91981 0.47723 0.0
N400 N 0.20777 0.93898 0.47655 0.0
N401 N 0.23377 0.89965 0.48742 0.0
H402 H 0.18738 0.89899 0.48956 0.0
H403 H 0.24489 0.96202 0.45868 0.0
C404 C 0.20441 0.96947 0.39626 0.0
O405 O 0.18692 0.99123 0.39008 0.0
N406 N 0.14685 0.97871 0.43316 0.0
C407 C 0.13029 1.00224 0.43909 0.0
C408 C 0.10776 1.00365 0.41875 0.0
C409 C 0.13393 0.96609 0.40971 0.0
N410 N 0.11013 0.9807 0.40043 0.0
C411 C 0.19525 0.99666 0.50157 0.0
C412 C 0.24182 0.02003 0.47178 0.0
C413 C 0.24512 0.01544 0.50206 0.0
C414 C 0.22016 1.00581 0.51704 0.0
C415 C 0.21642 0.01032 0.45709 0.0
N416 N 0.19504 0.99546 0.47173 0.0
H417 H 0.17835 0.9858 0.51378 0.0
H418 H 0.21621 0.01137 0.43368 0.0
H419 H 0.13348 0.01655 0.45755 0.0
H420 H 0.14138 0.94584 0.40014 0.0
O421 O 0.14816 0.95124 0.48669 0.0
O422 O 0.15636 0.92286 0.44879 0.0
O423 O 0.2038 0.95717 0.4211 0.0
C424 C 0.14117 0.92784 0.47219 0.0
H425 H 0.27454 0.91577 0.47086 0.0
H426 H 0.09045 0.01967 0.41821 0.0
H427 H 0.25967 0.02869 0.45904 0.0
H428 H 0.22075 1.00218 0.54033 0.0
Co429 Co 0.31033 0.927 0.70603 0.0
C430 C 0.35796 0.95694 0.73713 0.0
C431 C 0.3255 0.98622 0.72122 0.0
C432 C 0.34983 1.00207 0.72729 0.0
N433 N 0.33066 0.95764 0.7266 0.0
N434 N 0.36999 0.98367 0.73749 0.0
H435 H 0.37066 0.93729 0.73963 0.0
H436 H 0.30759 0.99473 0.70875 0.0
C437 C 0.30017 0.95427 0.64629 0.0
O438 O 0.27841 0.93676 0.64008 0.0
N439 N 0.29092 0.8967 0.68317 0.0
C440 C 0.26739 0.88012 0.68908 0.0
C441 C 0.26598 0.85759 0.66873 0.0
C442 C 0.30354 0.88379 0.65972 0.0
N443 N 0.28893 0.85999 0.65042 0.0
C444 C 0.27299 0.94507 0.75158 0.0
C445 C 0.24953 0.99157 0.72175 0.0
C446 C 0.25411 0.99489 0.75204 0.0
C447 C 0.26378 0.96996 0.76703 0.0
C448 C 0.2593 0.96619 0.70708 0.0
N449 N 0.27418 0.94485 0.72174 0.0
H450 H 0.28388 0.9282 0.7638 0.0
H451 H 0.25824 0.96597 0.68367 0.0
H452 H 0.25309 0.88328 0.70754 0.0
H453 H 0.32379 0.89127 0.65018 0.0
O454 O 0.31841 0.898 0.73671 0.0
O455 O 0.34678 0.90625 0.69884 0.0
O456 O 0.31246 0.95367 0.67114 0.0
C457 C 0.34181 0.89104 0.72223 0.0
H458 H 0.35386 0.02443 0.72092 0.0
H459 H 0.24996 0.84027 0.66817 0.0
H460 H 0.24085 1.0094 0.70899 0.0
H461 H 0.26742 0.97057 0.79032 0.0
Co462 Co 0.34239 0.06027 0.95609 0.0
C463 C 0.31248 0.10788 0.98716 0.0
C464 C 0.28318 0.07542 0.97123 0.0
C465 C 0.26734 0.09974 0.9773 0.0
N466 N 0.31176 0.08059 0.97663 0.0
N467 N 0.28575 0.11991 0.98751 0.0
H468 H 0.33214 0.12059 0.98967 0.0
H469 H 0.27465 0.05751 0.95873 0.0
C470 C 0.3151 0.05005 0.89633 0.0
O471 O 0.3326 0.02829 0.89015 0.0
N472 N 0.37268 0.04086 0.93325 0.0
C473 C 0.38925 0.01734 0.93918 0.0
C474 C 0.41178 0.01594 0.91885 0.0
C475 C 0.38559 0.05347 0.90981 0.0
N476 N 0.40939 0.03887 0.90054 0.0
C477 C 0.3243 0.02294 1.00164 0.0
C478 C 0.27776 0.9995 0.9718 0.0
C479 C 0.27445 1.0041 1.00207 0.0
C480 C 0.2994 0.01377 0.01708 0.0
C481 C 0.30315 1.00923 0.95713 0.0
N482 N 0.32452 0.02412 0.97179 0.0
H483 H 0.34119 0.03383 0.01387 0.0
H484 H 0.30337 1.00815 0.93373 0.0
H485 H 0.38609 1.00305 0.95765 0.0
H486 H 0.37811 0.07372 0.90025 0.0
O487 O 0.37139 0.06837 0.98679 0.0
O488 O 0.36315 0.09672 0.9489 0.0
O489 O 0.31571 0.06236 0.92118 0.0
C490 C 0.37836 0.09177 0.9723 0.0
H491 H 0.24498 0.10376 0.97092 0.0
H492 H 0.42909 0.99993 0.91832 0.0
H493 H 0.25991 0.99082 0.95903 0.0
H494 H 0.2988 0.01742 0.04037 0.0
Co495 Co 0.20924 0.09246 0.20606 0.0
C496 C 0.16162 0.06253 0.2371 0.0
C497 C 0.19406 0.03324 0.22119 0.0
C498 C 0.16973 0.01739 0.22723 0.0
N499 N 0.18891 0.06182 0.22659 0.0
N500 N 0.14957 0.0358 0.23744 0.0
H501 H 0.14892 0.08219 0.23961 0.0
H502 H 0.21195 0.02472 0.2087 0.0
C503 C 0.2194 0.06518 0.1463 0.0
O504 O 0.24117 0.08268 0.14013 0.0
N505 N 0.22866 0.12276 0.18324 0.0
C506 C 0.25219 0.13933 0.18918 0.0
C507 C 0.25361 0.16186 0.16885 0.0
C508 C 0.21604 0.13566 0.15979 0.0
N509 N 0.23066 0.15946 0.15052 0.0
C510 C 0.24658 0.07437 0.25162 0.0
C511 C 0.26998 0.02784 0.22178 0.0
C512 C 0.2654 0.02453 0.25205 0.0
C513 C 0.25575 0.04947 0.26706 0.0
C514 C 0.26026 0.05324 0.20712 0.0
N515 N 0.24539 0.07459 0.22178 0.0
H516 H 0.23571 0.09125 0.26385 0.0
H517 H 0.26132 0.05345 0.18371 0.0
H518 H 0.2665 0.13616 0.20765 0.0
H519 H 0.19579 0.12819 0.15022 0.0
O520 O 0.20117 0.12146 0.23676 0.0
O521 O 0.1728 0.11322 0.19886 0.0
O522 O 0.20711 0.06578 0.17115 0.0
C523 C 0.17777 0.12842 0.22226 0.0
H524 H 0.16569 0.99503 0.22085 0.0
H525 H 0.26963 0.17917 0.16832 0.0
H526 H 0.27864 0.01 0.20901 0.0
H527 H 0.25211 0.04886 0.29035 0.0
Co528 Co 0.06308 0.17679 0.06009 0.0
C529 C 0.03198 0.20662 0.10774 0.0
C530 C 0.04792 0.23597 0.07538 0.0
C531 C 0.04183 0.25176 0.09973 0.0
N532 N 0.04254 0.20738 0.08047 0.0
N533 N 0.03158 0.23333 0.11985 0.0
H534 H 0.02948 0.18694 0.12039 0.0
H535 H 0.06042 0.24453 0.05751 0.0
C536 C 0.1228 0.20415 0.04992 0.0
O537 O 0.12898 0.18668 0.02813 0.0
N538 N 0.08593 0.14654 0.04062 0.0
C539 C 0.07999 0.12999 0.01707 0.0
C540 C 0.10034 0.10748 0.01562 0.0
C541 C 0.10939 0.13365 0.05321 0.0
N542 N 0.11868 0.10987 0.03856 0.0
C543 C 0.01749 0.1949 0.0228 0.0
C544 C 0.04729 0.24149 0.99946 0.0
C545 C 0.01701 0.24478 1.00407 0.0
C546 C 1.00203 0.21981 0.01369 0.0
C547 C 0.06197 0.21609 1.00913 0.0
N548 N 0.04733 0.19469 0.02397 0.0
H549 H 1.00528 0.17799 0.03366 0.0
H550 H 0.08537 0.21588 1.00805 0.0
H551 H 0.06151 0.13315 1.00278 0.0
H552 H 0.11897 0.14111 0.07347 0.0
O553 O 0.03242 0.14775 0.06814 0.0
O554 O 0.07033 0.156 0.0965 0.0
O555 O 0.09797 0.2035 0.06224 0.0
C556 C 0.04694 0.14078 0.09152 0.0
H557 H 0.04821 0.27411 0.10382 0.0
H558 H 0.10088 0.09019 0.99958 0.0
H559 H 0.06004 0.25935 0.99082 0.0
H560 H 0.97874 0.2204 0.01735 0.0
Co561 Co 0.56309 0.34277 0.95937 0.0
C562 C 0.53193 0.31293 0.91171 0.0
C563 C 0.54788 0.2836 0.94409 0.0
C564 C 0.54177 0.2678 0.91974 0.0
N565 N 0.5425 0.31218 0.93899 0.0
N566 N 0.53152 0.28622 0.89961 0.0
H567 H 0.52943 0.33261 0.89905 0.0
H568 H 0.56038 0.27505 0.96197 0.0
C569 C 0.6228 0.31543 0.96954 0.0
O570 O 0.629 0.3329 0.99134 0.0
N571 N 0.58597 0.37303 0.97883 0.0
C572 C 0.58006 0.38959 1.00237 0.0
C573 C 0.60043 0.41209 1.00383 0.0
C574 C 0.60944 0.38592 0.96625 0.0
N575 N 0.61876 0.40969 0.9809 0.0
C576 C 0.51751 0.32468 0.99665 0.0
C577 C 0.54728 0.27811 0.02004 0.0
C578 C 0.517 0.27482 0.01544 0.0
C579 C 0.50203 0.29978 1.00579 0.0
C580 C 0.56198 0.30351 0.01034 0.0
N581 N 0.54735 0.32489 0.99548 0.0
H582 H 0.5053 0.34157 0.98578 0.0
H583 H 0.58538 0.30371 0.01142 0.0
H584 H 0.56158 0.38643 0.01666 0.0
H585 H 0.61899 0.37846 0.946 0.0
O586 O 0.53244 0.37181 0.9513 0.0
O587 O 0.57032 0.36356 0.92295 0.0
O588 O 0.59796 0.31608 0.95723 0.0
C589 C 0.54695 0.37878 0.92792 0.0
H590 H 0.54815 0.24545 0.91566 0.0
H591 H 0.60099 0.4294 0.01987 0.0
H592 H 0.56003 0.26027 0.0287 0.0
H593 H 0.47874 0.29919 1.00213 0.0
Co594 Co 0.92685 0.31303 0.20939 0.0
C595 C 0.95667 0.28192 0.16174 0.0
C596 C 0.98602 0.29787 0.19414 0.0
C597 C 1.00181 0.29178 0.1698 0.0
N598 N 0.95743 0.29249 0.18902 0.0
N599 N 0.98338 0.28153 0.14966 0.0
H600 H 0.93699 0.27942 0.14907 0.0
H601 H 0.99458 0.31038 0.21203 0.0
C602 C 0.9542 0.37276 0.21964 0.0
O603 O 0.93673 0.37891 0.24143 0.0
N604 N 0.89659 0.33587 0.22886 0.0
C605 C 0.88004 0.32993 0.25238 0.0
C606 C 0.85753 0.35028 0.25383 0.0
C607 C 0.88371 0.35934 0.21628 0.0
N608 N 0.85993 0.36863 0.23092 0.0
C609 C 0.94496 0.26743 0.24665 0.0
C610 C 0.99154 0.29723 0.27007 0.0
C611 C 0.99483 0.26696 0.26543 0.0
C612 C 0.96987 0.25197 0.25577 0.0
C613 C 0.96614 0.31191 0.26039 0.0
N614 N 0.94475 0.29728 0.24551 0.0
H615 H 0.92805 0.25522 0.23577 0.0
H616 H 0.96594 0.33532 0.26149 0.0
H617 H 0.88319 0.31144 0.26664 0.0
H618 H 0.89117 0.36892 0.19604 0.0
O619 O 0.89781 0.28237 0.20129 0.0
O620 O 0.90606 0.32028 0.17297 0.0
O621 O 0.95355 0.34792 0.20731 0.0
C622 C 0.89083 0.29689 0.17791 0.0
H623 H 0.02416 0.29816 0.16574 0.0
H624 H 0.84023 0.35081 0.26985 0.0
H625 H 1.0094 0.30998 0.27874 0.0
H626 H 0.97045 0.22869 0.25209 0.0
Co627 Co 0.95639 0.67687 0.45949 0.0
C628 C 0.9875 0.70668 0.41184 0.0
C629 C 0.97157 0.73604 0.44421 0.0
C630 C 0.97767 0.75182 0.41987 0.0
N631 N 0.97695 0.70745 0.43912 0.0
N632 N 0.9879 0.73338 0.39974 0.0
H633 H 0.98999 0.68699 0.39918 0.0
H634 H 0.95907 0.74461 0.46208 0.0
C635 C 0.89668 0.7042 0.46967 0.0
O636 O 0.89052 0.68675 0.49148 0.0
N637 N 0.93354 0.64662 0.47896 0.0
C638 C 0.93948 0.63008 0.5025 0.0
C639 C 0.91912 0.60756 0.50394 0.0
C640 C 0.91006 0.63371 0.46637 0.0
N641 N 0.90077 0.60994 0.48102 0.0
C642 C 1.002 0.695 0.49678 0.0
C643 C 0.97226 0.74163 0.5201 0.0
C644 C 1.00254 0.74491 0.51547 0.0
C645 C 0.01749 0.71992 0.50587 0.0
C646 C 0.95755 0.71621 0.51045 0.0
N647 N 0.97216 0.6948 0.49561 0.0
H648 H 0.0142 0.67807 0.48594 0.0
H649 H 0.93415 0.71601 0.51153 0.0
H650 H 0.95797 0.63325 0.51678 0.0
H651 H 0.90049 0.64115 0.44612 0.0
O652 O 0.98705 0.64785 0.45144 0.0
O653 O 0.94914 0.65605 0.42308 0.0
O654 O 0.92151 0.70355 0.45736 0.0
C655 C 0.97252 0.64084 0.42806 0.0
H656 H 0.97129 0.77416 0.41578 0.0
H657 H 0.91858 0.59027 0.51997 0.0
H658 H 0.95953 0.7595 0.52873 0.0
H659 H 0.04078 0.7205 0.5022 0.0
Co660 Co 0.09247 0.20606 0.20925 0.0
C661 C 0.06255 0.23713 0.16163 0.0
C662 C 0.03326 0.2212 0.19406 0.0
C663 C 0.01741 0.22725 0.16974 0.0
N664 N 0.06185 0.2266 0.18892 0.0
N665 N 0.03582 0.23746 0.14959 0.0
H666 H 0.08221 0.23964 0.14894 0.0
H667 H 0.02474 0.20871 0.21196 0.0
C668 C 0.06518 0.14631 0.21939 0.0
O669 O 0.08268 0.14013 0.24116 0.0
N670 N 0.12277 0.18323 0.22866 0.0
C671 C 0.13934 0.18915 0.2522 0.0
C672 C 0.16186 0.16881 0.2536 0.0
C673 C 0.13567 0.15978 0.21603 0.0
N674 N 0.15946 0.1505 0.23065 0.0
C675 C 0.0744 0.25161 0.2466 0.0
C676 C 0.02786 0.22178 0.26998 0.0
C677 C 0.02455 0.25206 0.2654 0.0
C678 C 0.0495 0.26706 0.25576 0.0
C679 C 0.05325 0.20712 0.26026 0.0
N680 N 0.07461 0.22177 0.2454 0.0
H681 H 0.09129 0.26384 0.23573 0.0
H682 H 0.05346 0.18371 0.26132 0.0
H683 H 0.13618 0.20761 0.26651 0.0
H684 H 0.12819 0.15022 0.19578 0.0
O685 O 0.12148 0.23676 0.20119 0.0
O686 O 0.11323 0.19887 0.1728 0.0
O687 O 0.06579 0.17116 0.2071 0.0
C688 C 0.12844 0.22226 0.17779 0.0
H689 H 0.99506 0.22087 0.16569 0.0
H690 H 0.17917 0.16827 0.26963 0.0
H691 H 0.01001 0.20902 0.27864 0.0
H692 H 0.0489 0.29035 0.25213 0.0
Co693 Co 0.45648 0.84268 0.5601 0.0
C694 C 0.4876 0.81285 0.60775 0.0
C695 C 0.47163 0.7835 0.57535 0.0
C696 C 0.47774 0.76771 0.59969 0.0
N697 N 0.47703 0.81209 0.58047 0.0
N698 N 0.488 0.78615 0.61983 0.0
H699 H 0.49011 0.83254 0.62042 0.0
H700 H 0.45912 0.77494 0.55747 0.0
C701 C 0.39676 0.81532 0.54986 0.0
O702 O 0.39058 0.83279 0.52807 0.0
N703 N 0.43363 0.87293 0.54064 0.0
C704 C 0.43956 0.88948 0.51711 0.0
C705 C 0.41921 0.91198 0.51566 0.0
C706 C 0.41016 0.88582 0.55322 0.0
N707 N 0.40087 0.90959 0.53858 0.0
C708 C 0.50207 0.82457 0.52284 0.0
C709 C 0.47228 0.77797 0.49945 0.0
C710 C 0.50256 0.77469 0.50408 0.0
C711 C 0.51753 0.79966 0.51373 0.0
C712 C 0.45759 0.80338 0.50911 0.0
N713 N 0.47223 0.82478 0.52398 0.0
H714 H 0.51428 0.84149 0.53371 0.0
H715 H 0.43419 0.80358 0.50801 0.0
H716 H 0.45804 0.88632 0.50284 0.0
H717 H 0.40059 0.87836 0.57346 0.0
O718 O 0.48714 0.87172 0.5682 0.0
O719 O 0.44924 0.86347 0.59652 0.0
O720 O 0.42159 0.81597 0.56219 0.0
C721 C 0.47262 0.87869 0.59158 0.0
H722 H 0.47135 0.74537 0.60376 0.0
H723 H 0.41867 0.92928 0.49963 0.0
H724 H 0.45953 0.76011 0.49078 0.0
H725 H 0.54082 0.79908 0.51741 0.0
Co726 Co 0.927 0.70603 0.31034 0.0
C727 C 0.95693 0.73714 0.35796 0.0
C728 C 0.98621 0.72124 0.32551 0.0
C729 C 1.00207 0.7273 0.34984 0.0
N730 N 0.95763 0.72661 0.33067 0.0
N731 N 0.98367 0.7375 0.37 0.0
H732 H 0.93728 0.73964 0.37066 0.0
H733 H 0.99473 0.70876 0.3076 0.0
C734 C 0.95428 0.64629 0.3002 0.0
O735 O 0.93678 0.64008 0.27843 0.0
N736 N 0.8967 0.68316 0.29093 0.0
C737 C 0.88013 0.68906 0.2674 0.0
C738 C 0.85761 0.6687 0.26598 0.0
C739 C 0.88381 0.65971 0.30355 0.0
N740 N 0.86001 0.65039 0.28893 0.0
C741 C 0.94507 0.75157 0.27298 0.0
C742 C 0.99157 0.72175 0.24954 0.0
C743 C 0.99489 0.75203 0.2541 0.0
C744 C 0.96995 0.76702 0.26377 0.0
C745 C 0.9662 0.70707 0.2593 0.0
N746 N 0.94485 0.72173 0.27419 0.0
H747 H 0.9282 0.76379 0.28387 0.0
H748 H 0.96598 0.68366 0.25826 0.0
H749 H 0.88329 0.70752 0.25309 0.0
H750 H 0.89128 0.65017 0.3238 0.0
O751 O 0.898 0.73671 0.31841 0.0
O752 O 0.90625 0.69885 0.34679 0.0
O753 O 0.95368 0.67115 0.31248 0.0
C754 C 0.89104 0.72223 0.34181 0.0
H755 H 0.02442 0.72094 0.35388 0.0
H756 H 0.84029 0.66814 0.24996 0.0
H757 H 1.00941 0.70899 0.24086 0.0
H758 H 0.97056 0.79032 0.2674 0.0
Co759 Co 0.59235 0.31349 0.81021 0.0
C760 C 0.56245 0.28243 0.85783 0.0
C761 C 0.53314 0.29832 0.82539 0.0
C762 C 0.51731 0.29226 0.84972 0.0
N763 N 0.56173 0.29294 0.83054 0.0
N764 N 0.53573 0.28207 0.86988 0.0
H765 H 0.58212 0.27994 0.87053 0.0
H766 H 0.52461 0.3108 0.8075 0.0
C767 C 0.56508 0.37324 0.80007 0.0
O768 O 0.58256 0.3794 0.77829 0.0
N769 N 0.62264 0.33634 0.7908 0.0
C770 C 0.6392 0.33041 0.76727 0.0
C771 C 0.66173 0.35076 0.76587 0.0
C772 C 0.63556 0.3598 0.80343 0.0
N773 N 0.65935 0.36909 0.78881 0.0
C774 C 0.57424 0.26793 0.77286 0.0
C775 C 0.52767 0.29771 0.74948 0.0
C776 C 0.52437 0.26743 0.75406 0.0
C777 C 0.54934 0.25246 0.7637 0.0
C778 C 0.55307 0.31241 0.7592 0.0
N779 N 0.57445 0.29777 0.77406 0.0
H780 H 0.59114 0.25572 0.78372 0.0
H781 H 0.55328 0.33581 0.75815 0.0
H782 H 0.63602 0.31194 0.75297 0.0
H783 H 0.6281 0.36936 0.82368 0.0
O784 O 0.62134 0.28281 0.81827 0.0
O785 O 0.61314 0.3207 0.84666 0.0
O786 O 0.56569 0.34839 0.81235 0.0
C787 C 0.62833 0.29731 0.84168 0.0
H788 H 0.49496 0.29862 0.85375 0.0
H789 H 0.67903 0.3513 0.74985 0.0
H790 H 0.50982 0.31046 0.74083 0.0
H791 H 0.54874 0.22917 0.76733 0.0
Co792 Co 0.56027 0.56346 0.67706 0.0
C793 C 0.60786 0.53235 0.70698 0.0
C794 C 0.57547 0.54836 0.73627 0.0
C795 C 0.5998 0.54226 0.75209 0.0
N796 N 0.58059 0.54293 0.70769 0.0
N797 N 0.61993 0.53197 0.7337 0.0
H798 H 0.62053 0.52981 0.68731 0.0
H799 H 0.55761 0.56089 0.74479 0.0
C800 C 0.55012 0.62322 0.70434 0.0
O801 O 0.52834 0.62938 0.68685 0.0
N802 N 0.54086 0.58629 0.64676 0.0
C803 C 0.51733 0.58035 0.63018 0.0
C804 C 0.51592 0.60069 0.60765 0.0
C805 C 0.55347 0.60974 0.63386 0.0
N806 N 0.53886 0.61902 0.61006 0.0
C807 C 0.52292 0.51791 0.69514 0.0
C808 C 0.49956 0.54774 0.74169 0.0
C809 C 0.50412 0.51746 0.74499 0.0
C810 C 0.51376 0.50247 0.72004 0.0
C811 C 0.50927 0.56241 0.7163 0.0
N812 N 0.52412 0.54775 0.69492 0.0
H813 H 0.53378 0.50568 0.67824 0.0
H814 H 0.50822 0.58581 0.7161 0.0
H815 H 0.50303 0.56188 0.63333 0.0
H816 H 0.57373 0.61931 0.64134 0.0
O817 O 0.56833 0.53276 0.64806 0.0
O818 O 0.59671 0.57066 0.6563 0.0
O819 O 0.56241 0.59838 0.70373 0.0
C820 C 0.59174 0.54726 0.64109 0.0
H821 H 0.60387 0.54867 0.77444 0.0
H822 H 0.4999 0.60122 0.59033 0.0
H823 H 0.49091 0.5605 0.75954 0.0
H824 H 0.51739 0.47917 0.72063 0.0
Co825 Co 0.70604 0.31032 0.92699 0.0
C826 C 0.73721 0.35791 0.95692 0.0
C827 C 0.72122 0.32551 0.9862 0.0
C828 C 0.72733 0.34984 1.00203 0.0
N829 N 0.72662 0.33064 0.95762 0.0
N830 N 0.73761 0.36998 0.98364 0.0
H831 H 0.73973 0.37059 0.93725 0.0
H832 H 0.7087 0.30763 0.99472 0.0
C833 C 0.6463 0.30016 0.95428 0.0
O834 O 0.64009 0.27839 0.93677 0.0
N835 N 0.68316 0.29091 0.89669 0.0
C836 C 0.68907 0.26738 0.88011 0.0
C837 C 0.66871 0.26597 0.85759 0.0
C838 C 0.65972 0.30353 0.88379 0.0
N839 N 0.65041 0.28892 0.85999 0.0
C840 C 0.75158 0.27296 0.94505 0.0
C841 C 0.72177 0.24955 0.99158 0.0
C842 C 0.75206 0.25412 0.99488 0.0
C843 C 0.76704 0.26378 0.96994 0.0
C844 C 0.70709 0.2593 0.9662 0.0
N845 N 0.72173 0.27417 0.94484 0.0
H846 H 0.7638 0.28384 0.92817 0.0
H847 H 0.68368 0.25825 0.966 0.0
H848 H 0.70752 0.25308 0.88327 0.0
H849 H 0.65017 0.32378 0.89127 0.0
O850 O 0.73671 0.31839 0.89799 0.0
O851 O 0.69885 0.34677 0.90625 0.0
O852 O 0.67115 0.31245 0.95367 0.0
C853 C 0.72222 0.3418 0.89103 0.0
H854 H 0.72094 0.3539 0.02438 0.0
H855 H 0.66815 0.24995 0.84027 0.0
H856 H 0.70902 0.24089 1.00942 0.0
H857 H 0.79033 0.26741 0.97053 0.0
Co858 Co 0.9593 0.45602 0.17716 0.0
C859 C 0.91171 0.48714 0.20705 0.0
C860 C 0.9441 0.47115 0.23636 0.0
C861 C 0.91977 0.47725 0.25217 0.0
N862 N 0.93898 0.47656 0.20778 0.0
N863 N 0.89964 0.48752 0.23377 0.0
H864 H 0.89903 0.48966 0.18738 0.0
H865 H 0.96197 0.45863 0.2449 0.0
C866 C 0.96947 0.39628 0.20442 0.0
O867 O 0.99125 0.39011 0.18693 0.0
N868 N 0.97871 0.43319 0.14686 0.0
C869 C 1.00224 0.43912 0.13031 0.0
C870 C 1.00365 0.41878 0.10777 0.0
C871 C 0.9661 0.40973 0.13394 0.0
N872 N 0.98071 0.40045 0.11015 0.0
C873 C 0.99665 0.50159 0.19527 0.0
C874 C 0.02 0.4718 0.24186 0.0
C875 C 0.01542 0.50208 0.24515 0.0
C876 C 1.0058 0.51705 0.22019 0.0
C877 C 0.0103 0.45711 0.21645 0.0
N878 N 0.99545 0.47175 0.19506 0.0
H879 H 0.9858 0.5138 0.17837 0.0
H880 H 0.01135 0.43371 0.21624 0.0
H881 H 0.01654 0.4576 0.13349 0.0
H882 H 0.94585 0.40016 0.1414 0.0
O883 O 0.95124 0.48671 0.14817 0.0
O884 O 0.92286 0.44882 0.15637 0.0
O885 O 0.95717 0.42112 0.20381 0.0
C886 C 0.92783 0.47221 0.14118 0.0
H887 H 0.91571 0.47085 0.27451 0.0
H888 H 0.01967 0.41825 0.09046 0.0
H889 H 0.02865 0.45905 0.25971 0.0
H890 H 1.00216 0.54035 0.22078 0.0
Co891 Co 0.81341 0.70922 0.42712 0.0
C892 C 0.78228 0.66163 0.45703 0.0
C893 C 0.7983 0.69404 0.48632 0.0
C894 C 0.7922 0.66973 0.50214 0.0
N895 N 0.79287 0.6889 0.45774 0.0
N896 N 0.7819 0.64957 0.48375 0.0
H897 H 0.77974 0.64894 0.43736 0.0
H898 H 0.81083 0.71193 0.49485 0.0
C899 C 0.87316 0.71944 0.45441 0.0
O900 O 0.87934 0.7412 0.43691 0.0
N901 N 0.83624 0.72862 0.39682 0.0
C902 C 0.83031 0.75214 0.38025 0.0
C903 C 0.85065 0.75354 0.35773 0.0
C904 C 0.85969 0.71601 0.38392 0.0
N905 N 0.86897 0.73061 0.36012 0.0
C906 C 0.76786 0.74654 0.4452 0.0
C907 C 0.7977 0.76997 0.49176 0.0
C908 C 0.76742 0.76538 0.49506 0.0
C909 C 0.75242 0.75571 0.47011 0.0
C910 C 0.81237 0.76025 0.46636 0.0
N911 N 0.79771 0.74537 0.44499 0.0
H912 H 0.75563 0.73566 0.42831 0.0
H913 H 0.83577 0.76132 0.46615 0.0
H914 H 0.81185 0.76643 0.38341 0.0
H915 H 0.86925 0.69577 0.3914 0.0
O916 O 0.78271 0.7011 0.39811 0.0
O917 O 0.8206 0.67276 0.40636 0.0
O918 O 0.84832 0.70712 0.45379 0.0
C919 C 0.79721 0.67771 0.39115 0.0
H920 H 0.79861 0.66568 0.52449 0.0
H921 H 0.85118 0.76955 0.34041 0.0
H922 H 0.81047 0.77864 0.5096 0.0
H923 H 0.72913 0.75206 0.4707 0.0
Co924 Co 0.56011 0.45647 0.8427 0.0
C925 C 0.60775 0.4876 0.81287 0.0
C926 C 0.57535 0.47163 0.78352 0.0
C927 C 0.59969 0.47774 0.76773 0.0
N928 N 0.58047 0.47702 0.81211 0.0
N929 N 0.61983 0.488 0.78616 0.0
H930 H 0.62042 0.49011 0.83255 0.0
H931 H 0.55747 0.45912 0.77496 0.0
C932 C 0.54985 0.39676 0.81534 0.0
O933 O 0.52807 0.39058 0.83281 0.0
N934 N 0.54065 0.43363 0.87295 0.0
C935 C 0.51712 0.43957 0.88951 0.0
C936 C 0.51568 0.41922 0.91202 0.0
C937 C 0.55323 0.41016 0.88584 0.0
N938 N 0.53859 0.40088 0.90962 0.0
C939 C 0.52285 0.50208 0.8246 0.0
C940 C 0.49945 0.47229 0.778 0.0
C941 C 0.5041 0.50256 0.77471 0.0
C942 C 0.51375 0.51754 0.79968 0.0
C943 C 0.50912 0.4576 0.8034 0.0
N944 N 0.52399 0.47223 0.8248 0.0
H945 H 0.53373 0.51428 0.84151 0.0
H946 H 0.50801 0.4342 0.80361 0.0
H947 H 0.50285 0.45805 0.88635 0.0
H948 H 0.57346 0.40059 0.87837 0.0
O949 O 0.56822 0.48714 0.87174 0.0
O950 O 0.59653 0.44923 0.86349 0.0
O951 O 0.56219 0.42158 0.816 0.0
C952 C 0.59159 0.47262 0.87872 0.0
H953 H 0.60376 0.47135 0.74538 0.0
H954 H 0.49965 0.41868 0.92932 0.0
H955 H 0.49078 0.45954 0.76014 0.0
H956 H 0.51743 0.54082 0.7991 0.0
Co957 Co 0.81313 0.31004 0.09263 0.0
C958 C 0.78202 0.35769 0.06282 0.0
C959 C 0.79796 0.32532 0.03346 0.0
C960 C 0.79186 0.34967 0.01768 0.0
N961 N 0.79258 0.33042 0.06205 0.0
N962 N 0.78161 0.36979 0.03612 0.0
H963 H 0.77952 0.37035 0.08251 0.0
H964 H 0.81046 0.30746 0.02489 0.0
C965 C 0.87284 0.29987 0.06531 0.0
O966 O 0.879 0.27806 0.08277 0.0
N967 N 0.83598 0.29058 0.12289 0.0
C968 C 0.83004 0.26704 0.13943 0.0
C969 C 0.8504 0.2656 0.16195 0.0
C970 C 0.85945 0.30317 0.13581 0.0
N971 N 0.86874 0.28853 0.15958 0.0
C972 C 0.76752 0.27276 0.0745 0.0
C973 C 0.79726 0.24944 0.02788 0.0
C974 C 0.76699 0.25406 0.0246 0.0
C975 C 0.75203 0.26366 0.04958 0.0
C976 C 0.81198 0.25909 0.05329 0.0
N977 N 0.79736 0.27393 0.07471 0.0
H978 H 0.75533 0.2836 0.09143 0.0
H979 H 0.83538 0.25801 0.05349 0.0
H980 H 0.81156 0.25275 0.13624 0.0
H981 H 0.86902 0.32342 0.12836 0.0
O982 O 0.78247 0.3181 0.12166 0.0
O983 O 0.82038 0.34646 0.11346 0.0
O984 O 0.84801 0.31218 0.06596 0.0
C985 C 0.797 0.34149 0.12866 0.0
H986 H 0.79824 0.35375 0.99534 0.0
H987 H 0.85093 0.24956 0.17924 0.0
H988 H 0.81 0.2408 0.01001 0.0
H989 H 0.72875 0.26733 0.04901 0.0
Co990 Co 0.95936 0.56308 0.34282 0.0
C991 C 0.91171 0.53192 0.31297 0.0
C992 C 0.94409 0.54787 0.28364 0.0
C993 C 0.91975 0.54177 0.26784 0.0
N994 N 0.93899 0.5425 0.31223 0.0
N995 N 0.89962 0.53151 0.28625 0.0
H996 H 0.89905 0.52942 0.33265 0.0
H997 H 0.96197 0.56038 0.2751 0.0
C998 C 0.96955 0.62279 0.31548 0.0
O999 O 0.99133 0.629 0.33296 0.0
N1000 N 0.97882 0.58596 0.37309 0.0
C1001 C 1.00236 0.58005 0.38965 0.0
C1002 C 1.00381 0.60042 0.41215 0.0
C1003 C 0.96623 0.60943 0.38598 0.0
N1004 N 0.98088 0.61874 0.40976 0.0
C1005 C 0.99664 0.5175 0.32473 0.0
C1006 C 0.02004 0.54728 0.27818 0.0
C1007 C 0.01542 0.517 0.27487 0.0
C1008 C 1.00578 0.50203 0.29983 0.0
C1009 C 0.01034 0.56197 0.30357 0.0
N1010 N 0.99548 0.54734 0.32494 0.0
H1011 H 0.98576 0.50529 0.34162 0.0
H1012 H 0.01143 0.58538 0.30378 0.0
H1013 H 0.01664 0.56157 0.38649 0.0
H1014 H 0.94598 0.61898 0.3785 0.0
O1015 O 0.95129 0.53243 0.37186 0.0
O1016 O 0.92294 0.57032 0.3636 0.0
O1017 O 0.95723 0.59795 0.31612 0.0
C1018 C 0.9279 0.54695 0.37883 0.0
H1019 H 0.91567 0.54814 0.24549 0.0
H1020 H 0.01985 0.60098 0.42946 0.0
H1021 H 0.0287 0.56003 0.26033 0.0
H1022 H 1.00211 0.47874 0.29923 0.0
Co1023 Co 0.70645 0.70942 0.59277 0.0
C1024 C 0.73755 0.66177 0.56293 0.0
C1025 C 0.7216 0.69413 0.53359 0.0
C1026 C 0.72769 0.66979 0.51779 0.0
N1027 N 0.72699 0.68904 0.56218 0.0
N1028 N 0.73795 0.64967 0.53622 0.0
H1029 H 0.74006 0.64911 0.58261 0.0
H1030 H 0.7091 0.712 0.52503 0.0
C1031 C 0.64673 0.71959 0.56541 0.0
O1032 O 0.64057 0.74139 0.58288 0.0
N1033 N 0.68361 0.72888 0.62302 0.0
C1034 C 0.68956 0.75243 0.63958 0.0
C1035 C 0.6692 0.75388 0.66208 0.0
C1036 C 0.66014 0.7163 0.6359 0.0
N1037 N 0.65085 0.73095 0.65968 0.0
C1038 C 0.75205 0.74669 0.57466 0.0
C1039 C 0.72226 0.77004 0.52807 0.0
C1040 C 0.75253 0.76541 0.52478 0.0
C1041 C 0.76751 0.7558 0.54975 0.0
C1042 C 0.70757 0.76038 0.55348 0.0
N1043 N 0.72221 0.74553 0.57487 0.0
H1044 H 0.76426 0.73584 0.59157 0.0
H1045 H 0.68417 0.76147 0.55369 0.0
H1046 H 0.70804 0.76671 0.63643 0.0
H1047 H 0.65056 0.69605 0.62844 0.0
O1048 O 0.73712 0.70136 0.62181 0.0
O1049 O 0.6992 0.673 0.61355 0.0
O1050 O 0.67156 0.70728 0.56606 0.0
C1051 C 0.72259 0.67798 0.62878 0.0
H1052 H 0.7213 0.6657 0.49545 0.0
H1053 H 0.66867 0.76992 0.67939 0.0
H1054 H 0.70951 0.77869 0.51021 0.0
H1055 H 0.7908 0.75213 0.54916 0.0
Co1056 Co 0.67705 0.56027 0.56347 0.0
C1057 C 0.70698 0.60789 0.53241 0.0
C1058 C 0.73627 0.57545 0.54834 0.0
C1059 C 0.75212 0.59977 0.54228 0.0
N1060 N 0.70768 0.5806 0.54294 0.0
N1061 N 0.73371 0.61993 0.53207 0.0
H1062 H 0.68732 0.62058 0.52991 0.0
H1063 H 0.74479 0.55756 0.56082 0.0
C1064 C 0.70433 0.55013 0.62323 0.0
O1065 O 0.68684 0.52835 0.6294 0.0
N1066 N 0.64675 0.54086 0.5863 0.0
C1067 C 0.63018 0.51733 0.58037 0.0
C1068 C 0.60765 0.51592 0.6007 0.0
C1069 C 0.63385 0.55348 0.60975 0.0
N1070 N 0.61005 0.53887 0.61902 0.0
C1071 C 0.69513 0.52292 0.51792 0.0
C1072 C 0.74166 0.49952 0.54775 0.0
C1073 C 0.74497 0.5041 0.51747 0.0
C1074 C 0.72003 0.51374 0.50248 0.0
C1075 C 0.71627 0.50925 0.56242 0.0
N1076 N 0.69491 0.52412 0.54776 0.0
H1077 H 0.67824 0.53379 0.50569 0.0
H1078 H 0.71606 0.5082 0.58582 0.0
H1079 H 0.63334 0.50302 0.56191 0.0
H1080 H 0.64133 0.57374 0.61931 0.0
O1081 O 0.64805 0.56833 0.53277 0.0
O1082 O 0.6563 0.59671 0.57067 0.0
O1083 O 0.70373 0.56241 0.59838 0.0
C1084 C 0.64109 0.59174 0.54727 0.0
H1085 H 0.77448 0.60382 0.54866 0.0
H1086 H 0.59034 0.49989 0.60124 0.0
H1087 H 0.75951 0.49087 0.56052 0.0
H1088 H 0.72062 0.51738 0.47918 0.0
Co1089 Co 0.7092 0.42712 0.81342 0.0
C1090 C 0.66158 0.45705 0.78236 0.0
C1091 C 0.69405 0.48634 0.7983 0.0
C1092 C 0.66974 0.50218 0.79224 0.0
N1093 N 0.68888 0.45775 0.79289 0.0
N1094 N 0.64956 0.48378 0.78202 0.0
H1095 H 0.64887 0.43739 0.77984 0.0
H1096 H 0.71196 0.49486 0.81079 0.0
C1097 C 0.71942 0.4544 0.87319 0.0
O1098 O 0.74119 0.4369 0.87935 0.0
N1099 N 0.72861 0.39682 0.83625 0.0
C1100 C 0.75213 0.38025 0.83031 0.0
C1101 C 0.75354 0.35773 0.85064 0.0
C1102 C 0.716 0.38392 0.85969 0.0
N1103 N 0.73061 0.36012 0.86896 0.0
C1104 C 0.74653 0.44521 0.76787 0.0
C1105 C 0.76999 0.49175 0.79772 0.0
C1106 C 0.76539 0.49506 0.76744 0.0
C1107 C 0.75571 0.47011 0.75244 0.0
C1108 C 0.76025 0.46635 0.81238 0.0
N1109 N 0.74535 0.44499 0.79771 0.0
H1110 H 0.73563 0.42833 0.75564 0.0
H1111 H 0.76132 0.46614 0.83578 0.0
H1112 H 0.76642 0.38342 0.81185 0.0
H1113 H 0.69576 0.39139 0.86926 0.0
O1114 O 0.70109 0.39813 0.78272 0.0
O1115 O 0.67275 0.40636 0.82061 0.0
O1116 O 0.70711 0.45379 0.84834 0.0
C1117 C 0.67769 0.39116 0.79721 0.0
H1118 H 0.66571 0.52454 0.79862 0.0
H1119 H 0.76955 0.34041 0.85117 0.0
H1120 H 0.77867 0.50959 0.81049 0.0
H1121 H 0.75206 0.47072 0.72914 0.0
Co1122 Co 0.84252 0.45919 0.06348 0.0
C1123 C 0.81258 0.41157 0.03237 0.0
C1124 C 0.7833 0.44402 0.04828 0.0
C1125 C 0.76745 0.41969 0.04221 0.0
N1126 N 0.81188 0.43886 0.0429 0.0
N1127 N 0.78585 0.39953 0.032 0.0
H1128 H 0.83224 0.39887 0.02986 0.0
H1129 H 0.77478 0.46192 0.06077 0.0
C1130 C 0.81524 0.46933 0.12323 0.0
O1131 O 0.83274 0.49111 0.12943 0.0
N1132 N 0.87281 0.4786 0.08635 0.0
C1133 C 0.88939 0.50214 0.08045 0.0
C1134 C 0.91191 0.50355 0.1008 0.0
C1135 C 0.88572 0.46598 0.10979 0.0
N1136 N 0.90952 0.4806 0.1191 0.0
C1137 C 0.82444 0.49654 0.01794 0.0
C1138 C 0.77793 0.51998 0.04776 0.0
C1139 C 0.77461 0.51541 0.01748 0.0
C1140 C 0.79955 0.50574 1.00249 0.0
C1141 C 0.80331 0.51022 0.06244 0.0
N1142 N 0.82466 0.49534 0.04778 0.0
H1143 H 0.84131 0.48566 1.00571 0.0
H1144 H 0.80353 0.51127 0.08585 0.0
H1145 H 0.88622 0.51644 0.06199 0.0
H1146 H 0.87824 0.44573 0.11934 0.0
O1147 O 0.87151 0.45112 0.0328 0.0
O1148 O 0.86327 0.42274 0.07066 0.0
O1149 O 0.81584 0.45705 0.09837 0.0
C1150 C 0.87848 0.42772 0.04728 0.0
H1151 H 0.74509 0.41565 0.04857 0.0
H1152 H 0.92923 0.51957 0.10137 0.0
H1153 H 0.7601 0.52865 0.06053 0.0
H1154 H 0.79894 0.50211 0.97919 0.0
Co1155 Co 0.81022 0.59235 0.31351 0.0
C1156 C 0.85784 0.56244 0.28245 0.0
C1157 C 0.8254 0.53313 0.29835 0.0
C1158 C 0.84972 0.5173 0.29229 0.0
N1159 N 0.83055 0.56172 0.29297 0.0
N1160 N 0.86988 0.53572 0.2821 0.0
H1161 H 0.87054 0.58211 0.27996 0.0
H1162 H 0.8075 0.5246 0.31084 0.0
C1163 C 0.80006 0.56509 0.37326 0.0
O1164 O 0.77828 0.58258 0.37942 0.0
N1165 N 0.79081 0.62264 0.33634 0.0
C1166 C 0.76728 0.6392 0.33041 0.0
C1167 C 0.76587 0.66174 0.35075 0.0
C1168 C 0.80343 0.63557 0.3598 0.0
N1169 N 0.78882 0.65937 0.36907 0.0
C1170 C 0.77287 0.57424 0.26794 0.0
C1171 C 0.74949 0.52767 0.29772 0.0
C1172 C 0.75407 0.52437 0.26744 0.0
C1173 C 0.76371 0.54933 0.25247 0.0
C1174 C 0.75921 0.55307 0.31242 0.0
N1175 N 0.77407 0.57445 0.29778 0.0
H1176 H 0.78373 0.59114 0.25572 0.0
H1177 H 0.75816 0.55328 0.33582 0.0
H1178 H 0.75297 0.63601 0.31194 0.0
H1179 H 0.82368 0.62811 0.36936 0.0
O1180 O 0.81829 0.62133 0.28282 0.0
O1181 O 0.84666 0.61313 0.32072 0.0
O1182 O 0.81235 0.56569 0.34841 0.0
C1183 C 0.84169 0.62832 0.29732 0.0
H1184 H 0.85376 0.49495 0.29866 0.0
H1185 H 0.74985 0.67904 0.35128 0.0
H1186 H 0.74084 0.50981 0.31047 0.0
H1187 H 0.76735 0.54874 0.22918 0.0
Co1188 Co 0.67687 0.45946 0.95642 0.0
C1189 C 0.70671 0.41178 0.98746 0.0
C1190 C 0.73606 0.44421 0.97161 0.0
C1191 C 0.75186 0.41987 0.97766 0.0
N1192 N 0.70746 0.43908 0.97697 0.0
N1193 N 0.73342 0.39971 0.98782 0.0
H1194 H 0.68703 0.39909 0.98992 0.0
H1195 H 0.74461 0.46211 0.95915 0.0
C1196 C 0.70419 0.46966 0.89671 0.0
O1197 O 0.68672 0.49145 0.89054 0.0
N1198 N 0.64661 0.47892 0.93358 0.0
C1199 C 0.63007 0.50246 0.93952 0.0
C1200 C 0.60755 0.5039 0.91916 0.0
C1201 C 0.63369 0.46633 0.9101 0.0
N1202 N 0.60992 0.48097 0.90082 0.0
C1203 C 0.695 0.49673 1.00204 0.0
C1204 C 0.74159 0.52011 0.97229 0.0
C1205 C 0.74489 0.51546 1.00256 0.0
C1206 C 0.71992 0.50584 0.01752 0.0
C1207 C 0.71618 0.51044 0.95758 0.0
N1208 N 0.69479 0.49557 0.9722 0.0
H1209 H 0.67809 0.48587 0.01424 0.0
H1210 H 0.71597 0.51153 0.93418 0.0
H1211 H 0.63325 0.51674 0.958 0.0
H1212 H 0.64114 0.44608 0.90052 0.0
O1213 O 0.64785 0.45139 0.98708 0.0
O1214 O 0.65606 0.42304 0.94916 0.0
O1215 O 0.70355 0.45734 0.92154 0.0
C1216 C 0.64085 0.428 0.97255 0.0
H1217 H 0.77422 0.41582 0.97131 0.0
H1218 H 0.59026 0.51994 0.91862 0.0
H1219 H 0.75946 0.52876 0.95956 0.0
H1220 H 0.72051 0.50216 0.04081 0.0
Co1221 Co 0.81016 0.42672 0.20643 0.0
C1222 C 0.85784 0.45658 0.23753 0.0
C1223 C 0.8254 0.4859 0.22167 0.0
C1224 C 0.84975 0.50173 0.22774 0.0
N1225 N 0.83054 0.45731 0.22702 0.0
N1226 N 0.8699 0.4833 0.23791 0.0
H1227 H 0.87052 0.43691 0.24 0.0
H1228 H 0.80749 0.49445 0.20921 0.0
C1229 C 0.79997 0.45407 0.14672 0.0
O1230 O 0.77819 0.43658 0.14052 0.0
N1231 N 0.7907 0.39646 0.18355 0.0
C1232 C 0.76716 0.37989 0.18946 0.0
C1233 C 0.76571 0.35739 0.16909 0.0
C1234 C 0.80329 0.38357 0.16008 0.0
N1235 N 0.78864 0.35979 0.15077 0.0
C1236 C 0.77288 0.4448 0.25202 0.0
C1237 C 0.74945 0.49134 0.22225 0.0
C1238 C 0.75408 0.49465 0.25252 0.0
C1239 C 0.76374 0.4697 0.2675 0.0
C1240 C 0.75916 0.46595 0.20755 0.0
N1241 N 0.77404 0.44459 0.22218 0.0
H1242 H 0.78377 0.42791 0.26423 0.0
H1243 H 0.75807 0.46574 0.18414 0.0
H1244 H 0.75288 0.38305 0.20793 0.0
H1245 H 0.82354 0.39104 0.15053 0.0
O1246 O 0.81824 0.39768 0.23708 0.0
O1247 O 0.84658 0.40594 0.19919 0.0
O1248 O 0.81228 0.45342 0.17157 0.0
C1249 C 0.84162 0.39072 0.22257 0.0
H1250 H 0.85379 0.52409 0.2214 0.0
H1251 H 0.74967 0.34009 0.16852 0.0
H1252 H 0.74078 0.50919 0.2095 0.0
H1253 H 0.7674 0.4703 0.29079 0.0
Co1254 Co 0.84267 0.56012 0.4565 0.0
C1255 C 0.81282 0.60779 0.48755 0.0
C1256 C 0.78348 0.57534 0.47168 0.0
C1257 C 0.76767 0.59968 0.47774 0.0
N1258 N 0.81208 0.58049 0.47704 0.0
N1259 N 0.78611 0.61984 0.48791 0.0
H1260 H 0.8325 0.62049 0.49004 0.0
H1261 H 0.77493 0.55743 0.45921 0.0
C1262 C 0.81532 0.54986 0.39678 0.0
O1263 O 0.8328 0.52808 0.39061 0.0
N1264 N 0.87292 0.54065 0.43367 0.0
C1265 C 0.88948 0.51713 0.43961 0.0
C1266 C 0.91199 0.51568 0.41926 0.0
C1267 C 0.88582 0.55323 0.4102 0.0
N1268 N 0.9096 0.5386 0.40092 0.0
C1269 C 0.82456 0.52286 0.50211 0.0
C1270 C 0.77799 0.49942 0.47231 0.0
C1271 C 0.77469 0.50408 0.50258 0.0
C1272 C 0.79965 0.51374 0.51757 0.0
C1273 C 0.80339 0.50911 0.45763 0.0
N1274 N 0.82477 0.524 0.47227 0.0
H1275 H 0.84146 0.53376 0.51432 0.0
H1276 H 0.8036 0.508 0.43423 0.0
H1277 H 0.88632 0.50286 0.45809 0.0
H1278 H 0.87836 0.57347 0.40062 0.0
O1279 O 0.8717 0.56823 0.48717 0.0
O1280 O 0.86346 0.59654 0.44926 0.0
O1281 O 0.81596 0.5622 0.42161 0.0
C1282 C 0.87868 0.5916 0.47265 0.0
H1283 H 0.74531 0.60371 0.47137 0.0
H1284 H 0.92929 0.49965 0.41873 0.0
H1285 H 0.76014 0.49074 0.45956 0.0
H1286 H 0.79906 0.51743 0.54085 0.0
Co1287 Co 0.70941 0.59275 0.70647 0.0
C1288 C 0.66174 0.5629 0.73751 0.0
C1289 C 0.69416 0.53357 0.72165 0.0
C1290 C 0.66981 0.51775 0.7277 0.0
N1291 N 0.68903 0.56216 0.72701 0.0
N1292 N 0.64967 0.53618 0.73787 0.0
H1293 H 0.64906 0.58258 0.73999 0.0
H1294 H 0.71205 0.52502 0.70918 0.0
C1295 C 0.7196 0.56539 0.64675 0.0
O1296 O 0.74139 0.58288 0.64058 0.0
N1297 N 0.72888 0.62301 0.68363 0.0
C1298 C 0.75242 0.63957 0.68958 0.0
C1299 C 0.75388 0.66207 0.66922 0.0
C1300 C 0.7163 0.6359 0.66016 0.0
N1301 N 0.73094 0.65968 0.65088 0.0
C1302 C 0.74668 0.57465 0.75208 0.0
C1303 C 0.77007 0.52809 0.72229 0.0
C1304 C 0.76543 0.52478 0.75255 0.0
C1305 C 0.7558 0.54974 0.76754 0.0
C1306 C 0.76039 0.55349 0.7076 0.0
N1307 N 0.74553 0.57487 0.72224 0.0
H1308 H 0.73581 0.59155 0.76429 0.0
H1309 H 0.76149 0.5537 0.6842 0.0
H1310 H 0.76671 0.63641 0.70806 0.0
H1311 H 0.69605 0.62843 0.65058 0.0
O1312 O 0.70135 0.62179 0.73713 0.0
O1313 O 0.673 0.61354 0.69922 0.0
O1314 O 0.70729 0.56604 0.67158 0.0
C1315 C 0.67797 0.62876 0.72261 0.0
H1316 H 0.66576 0.49539 0.72134 0.0
H1317 H 0.76992 0.67937 0.66869 0.0
H1318 H 0.77872 0.51023 0.70953 0.0
H1319 H 0.75212 0.54914 0.79083 0.0
Co1320 Co 0.56346 0.67705 0.56028 0.0
C1321 C 0.53234 0.70696 0.60786 0.0
C1322 C 0.54835 0.73625 0.57548 0.0
C1323 C 0.54225 0.75208 0.5998 0.0
N1324 N 0.54292 0.70768 0.5806 0.0
N1325 N 0.53197 0.73368 0.61994 0.0
H1326 H 0.52981 0.6873 0.62054 0.0
H1327 H 0.56087 0.74478 0.55761 0.0
C1328 C 0.62321 0.70434 0.55013 0.0
O1329 O 0.62939 0.68683 0.52836 0.0
N1330 N 0.58629 0.64675 0.54087 0.0
C1331 C 0.58036 0.63017 0.51733 0.0
C1332 C 0.6007 0.60765 0.51593 0.0
C1333 C 0.60974 0.63385 0.55349 0.0
N1334 N 0.61902 0.61005 0.53888 0.0
C1335 C 0.51791 0.69512 0.52292 0.0
C1336 C 0.54774 0.74167 0.49955 0.0
C1337 C 0.51746 0.74497 0.50413 0.0
C1338 C 0.50246 0.72002 0.51376 0.0
C1339 C 0.56241 0.71628 0.50927 0.0
N1340 N 0.54775 0.69491 0.52412 0.0
H1341 H 0.50568 0.67823 0.53378 0.0
H1342 H 0.58581 0.71607 0.50822 0.0
H1343 H 0.5619 0.63333 0.50302 0.0
H1344 H 0.6193 0.64133 0.57375 0.0
O1345 O 0.53276 0.64804 0.56834 0.0
O1346 O 0.57065 0.65629 0.59672 0.0
O1347 O 0.59837 0.70372 0.56242 0.0
C1348 C 0.54726 0.64108 0.59174 0.0
H1349 H 0.54866 0.77442 0.60387 0.0
H1350 H 0.60124 0.59033 0.4999 0.0
H1351 H 0.5605 0.75952 0.4909 0.0
H1352 H 0.47917 0.72061 0.51738 0.0
Co1353 Co 0.06346 0.84252 0.45918 0.0
C1354 C 0.03229 0.81259 0.41159 0.0
C1355 C 0.04829 0.78331 0.44399 0.0
C1356 C 0.04219 0.76748 0.41966 0.0
N1357 N 0.04289 0.81189 0.43886 0.0
N1358 N 0.0319 0.78587 0.39952 0.0
H1359 H 0.02977 0.83225 0.39891 0.0
H1360 H 0.06081 0.77479 0.46187 0.0
C1361 C 0.12321 0.81524 0.46933 0.0
O1362 O 0.12942 0.83275 0.4911 0.0
N1363 N 0.08633 0.87282 0.47858 0.0
C1364 C 0.08044 0.8894 0.50212 0.0
C1365 C 0.10079 0.91192 0.50352 0.0
C1366 C 0.10978 0.88572 0.46596 0.0
N1367 N 0.11909 0.90952 0.48058 0.0
C1368 C 0.01793 0.82446 0.49654 0.0
C1369 C 0.04775 0.77793 0.51995 0.0
C1370 C 0.01746 0.77463 0.51539 0.0
C1371 C 1.00248 0.79957 0.50573 0.0
C1372 C 0.06243 0.80331 0.5102 0.0
N1373 N 0.04777 0.82467 0.49533 0.0
H1374 H 1.00571 0.84133 0.48566 0.0
H1375 H 0.08583 0.80353 0.51125 0.0
H1376 H 0.06198 0.88623 0.51642 0.0
H1377 H 0.11932 0.87824 0.44571 0.0
O1378 O 0.03279 0.87152 0.4511 0.0
O1379 O 0.07065 0.86327 0.42273 0.0
O1380 O 0.09835 0.81585 0.45704 0.0
C1381 C 0.04727 0.87848 0.4277 0.0
H1382 H 0.04858 0.74514 0.4156 0.0
H1383 H 0.10136 0.92924 0.51955 0.0
H1384 H 0.06051 0.7601 0.52863 0.0
H1385 H 0.97918 0.79897 0.50211 0.0
Co1386 Co 0.42713 0.81342 0.70921 0.0
C1387 C 0.45704 0.78235 0.66159 0.0
C1388 C 0.48634 0.79828 0.69406 0.0
C1389 C 0.50218 0.79222 0.66974 0.0
N1390 N 0.45775 0.79288 0.68889 0.0
N1391 N 0.48377 0.78201 0.64956 0.0
H1392 H 0.43738 0.77984 0.64888 0.0
H1393 H 0.49486 0.81077 0.71197 0.0
C1394 C 0.45442 0.87317 0.71942 0.0
O1395 O 0.43692 0.87935 0.74118 0.0
N1396 N 0.39683 0.83625 0.72862 0.0
C1397 C 0.38027 0.83032 0.75214 0.0
C1398 C 0.35774 0.85066 0.75355 0.0
C1399 C 0.38393 0.85969 0.716 0.0
N1400 N 0.36013 0.86897 0.73061 0.0
C1401 C 0.44521 0.76787 0.74654 0.0
C1402 C 0.49175 0.79771 0.77 0.0
C1403 C 0.49506 0.76743 0.76541 0.0
C1404 C 0.47011 0.75243 0.75573 0.0
C1405 C 0.46636 0.81237 0.76026 0.0
N1406 N 0.445 0.79771 0.74536 0.0
H1407 H 0.42833 0.75564 0.73564 0.0
H1408 H 0.46614 0.83578 0.76133 0.0
H1409 H 0.38343 0.81186 0.76643 0.0
H1410 H 0.3914 0.86926 0.69576 0.0
O1411 O 0.39812 0.78272 0.7011 0.0
O1412 O 0.40637 0.82061 0.67275 0.0
O1413 O 0.4538 0.84833 0.70711 0.0
C1414 C 0.39116 0.79721 0.6777 0.0
H1415 H 0.52454 0.7986 0.66572 0.0
H1416 H 0.34043 0.85119 0.76956 0.0
H1417 H 0.50959 0.81048 0.77868 0.0
H1418 H 0.47071 0.72914 0.75207 0.0
Co1419 Co 0.45601 0.17712 0.95931 0.0
C1420 C 0.48714 0.20702 0.91172 0.0
C1421 C 0.47115 0.23633 0.94411 0.0
C1422 C 0.47725 0.25214 0.91979 0.0
N1423 N 0.47656 0.20775 0.93899 0.0
N1424 N 0.48752 0.23373 0.89965 0.0
H1425 H 0.48966 0.18734 0.89904 0.0
H1426 H 0.45863 0.24486 0.96198 0.0
C1427 C 0.39627 0.20439 0.96947 0.0
O1428 O 0.3901 0.1869 0.99124 0.0
N1429 N 0.43317 0.14683 0.97871 0.0
C1430 C 0.4391 0.13027 1.00224 0.0
C1431 C 0.41875 0.10773 1.00364 0.0
C1432 C 0.40972 0.1339 0.96609 0.0
N1433 N 0.40044 0.11011 0.98069 0.0
C1434 C 0.50158 0.19522 0.99667 0.0
C1435 C 0.47179 0.24181 0.02001 0.0
C1436 C 0.50207 0.2451 0.01543 0.0
C1437 C 0.51705 0.22013 1.00581 0.0
C1438 C 0.4571 0.21641 0.01031 0.0
N1439 N 0.47173 0.19502 0.99546 0.0
H1440 H 0.51379 0.17831 0.98582 0.0
H1441 H 0.43369 0.2162 0.01136 0.0
H1442 H 0.45756 0.13345 0.01655 0.0
H1443 H 0.40016 0.14136 0.94583 0.0
O1444 O 0.4867 0.14813 0.95125 0.0
O1445 O 0.44881 0.15634 0.92286 0.0
O1446 O 0.42111 0.20378 0.95717 0.0
C1447 C 0.4722 0.14115 0.92784 0.0
H1448 H 0.47085 0.27448 0.91572 0.0
H1449 H 0.41821 0.09043 0.01966 0.0
H1450 H 0.45905 0.25967 0.02866 0.0
H1451 H 0.54034 0.22072 1.00218 0.0
Co1452 Co 0.59274 0.70646 0.70943 0.0
C1453 C 0.5629 0.7375 0.66174 0.0
C1454 C 0.53356 0.72164 0.69417 0.0
C1455 C 0.51774 0.72769 0.66982 0.0
N1456 N 0.56216 0.727 0.68904 0.0
N1457 N 0.53618 0.73785 0.64967 0.0
H1458 H 0.58257 0.73997 0.64907 0.0
H1459 H 0.52501 0.70918 0.71207 0.0
C1460 C 0.56539 0.64675 0.71961 0.0
O1461 O 0.58286 0.64057 0.7414 0.0
N1462 N 0.623 0.68362 0.72889 0.0
C1463 C 0.63956 0.68956 0.75244 0.0
C1464 C 0.66206 0.6692 0.75389 0.0
C1465 C 0.63589 0.66015 0.71631 0.0
N1466 N 0.65967 0.65086 0.73096 0.0
C1467 C 0.57465 0.75207 0.7467 0.0
C1468 C 0.52808 0.72227 0.77008 0.0
C1469 C 0.52478 0.75254 0.76544 0.0
C1470 C 0.54974 0.76753 0.75581 0.0
C1471 C 0.55348 0.70759 0.76041 0.0
N1472 N 0.57486 0.72223 0.74554 0.0
H1473 H 0.59154 0.76428 0.73583 0.0
H1474 H 0.55369 0.68419 0.7615 0.0
H1475 H 0.6364 0.70804 0.76673 0.0
H1476 H 0.62842 0.65057 0.69605 0.0
O1477 O 0.62178 0.73712 0.70136 0.0
O1478 O 0.61353 0.69921 0.67301 0.0
O1479 O 0.56604 0.67158 0.70729 0.0
C1480 C 0.62876 0.7226 0.67798 0.0
H1481 H 0.49538 0.72133 0.66577 0.0
H1482 H 0.67936 0.66867 0.76993 0.0
H1483 H 0.51023 0.70952 0.77874 0.0
H1484 H 0.54914 0.79081 0.75214 0.0
Co1485 Co 0.95611 0.34242 0.06029 0.0
C1486 C 0.98718 0.31249 0.10791 0.0
C1487 C 0.97125 0.2832 0.07543 0.0
C1488 C 0.9773 0.26736 0.09975 0.0
N1489 N 0.97665 0.31179 0.08061 0.0
N1490 N 0.98752 0.28576 0.11993 0.0
H1491 H 0.98969 0.33215 0.12062 0.0
H1492 H 0.95876 0.27469 0.05752 0.0
C1493 C 0.89636 0.31512 0.05006 0.0
O1494 O 0.89018 0.33262 0.02831 0.0
N1495 N 0.93328 0.37271 0.04089 0.0
C1496 C 0.93921 0.38929 0.01737 0.0
C1497 C 0.91887 0.41181 0.01597 0.0
C1498 C 0.90983 0.38561 0.0535 0.0
N1499 N 0.90055 0.40941 0.0389 0.0
C1500 C 1.00167 0.32435 0.02297 0.0
C1501 C 0.97184 0.2778 0.99951 0.0
C1502 C 1.00212 0.2745 1.00412 0.0
C1503 C 0.01711 0.29945 0.01379 0.0
C1504 C 0.95717 0.30319 1.00924 0.0
N1505 N 0.97183 0.32456 0.02414 0.0
H1506 H 0.0139 0.34123 0.03386 0.0
H1507 H 0.93377 0.3034 1.00816 0.0
H1508 H 0.95767 0.38613 1.00308 0.0
H1509 H 0.90027 0.37813 0.07374 0.0
O1510 O 0.98681 0.37142 0.06841 0.0
O1511 O 0.94892 0.36317 0.09675 0.0
O1512 O 0.92121 0.31574 0.06238 0.0
C1513 C 0.97232 0.37838 0.09181 0.0
H1514 H 0.97092 0.245 0.10377 0.0
H1515 H 0.91833 0.42912 0.99995 0.0
H1516 H 0.95908 0.25996 0.99082 0.0
H1517 H 0.0404 0.29885 0.01745 0.0
Co1518 Co 0.42672 0.20642 0.81016 0.0
C1519 C 0.45658 0.23751 0.85785 0.0
C1520 C 0.48591 0.22166 0.82541 0.0
C1521 C 0.50173 0.22772 0.84976 0.0
N1522 N 0.45732 0.227 0.83054 0.0
N1523 N 0.48331 0.23788 0.86991 0.0
H1524 H 0.43692 0.23997 0.87053 0.0
H1525 H 0.49445 0.20921 0.80749 0.0
C1526 C 0.45407 0.14671 0.79997 0.0
O1527 O 0.43658 0.14051 0.77819 0.0
N1528 N 0.39646 0.18355 0.7907 0.0
C1529 C 0.37991 0.18945 0.76715 0.0
C1530 C 0.3574 0.16908 0.7657 0.0
C1531 C 0.38357 0.16008 0.80328 0.0
N1532 N 0.35979 0.15076 0.78863 0.0
C1533 C 0.44481 0.25201 0.77288 0.0
C1534 C 0.49135 0.22224 0.74945 0.0
C1535 C 0.49465 0.25251 0.75407 0.0
C1536 C 0.46971 0.26749 0.76373 0.0
C1537 C 0.46596 0.20754 0.75916 0.0
N1538 N 0.4446 0.22217 0.77404 0.0
H1539 H 0.42793 0.26422 0.78377 0.0
H1540 H 0.46575 0.18414 0.75808 0.0
H1541 H 0.38307 0.20793 0.75287 0.0
H1542 H 0.39104 0.15052 0.82353 0.0
O1543 O 0.39769 0.23707 0.81823 0.0
O1544 O 0.40594 0.19918 0.84658 0.0
O1545 O 0.45343 0.17156 0.81228 0.0
C1546 C 0.39072 0.22255 0.84162 0.0
H1547 H 0.52409 0.22137 0.85381 0.0
H1548 H 0.3401 0.16852 0.74966 0.0
H1549 H 0.50919 0.20949 0.74077 0.0
H1550 H 0.4703 0.29078 0.7674 0.0
Co1551 Co 0.09263 0.8131 0.31003 0.0
C1552 C 0.0628 0.78206 0.35772 0.0
C1553 C 0.03345 0.7979 0.32528 0.0
C1554 C 0.01764 0.79184 0.34963 0.0
N1555 N 0.06204 0.79255 0.33042 0.0
N1556 N 0.03609 0.78169 0.36978 0.0
H1557 H 0.08248 0.7796 0.3704 0.0
H1558 H 0.02489 0.81035 0.30739 0.0
C1559 C 0.06529 0.8728 0.29983 0.0
O1560 O 0.08276 0.87897 0.27804 0.0
N1561 N 0.12288 0.83595 0.29057 0.0
C1562 C 0.13942 0.83001 0.26703 0.0
C1563 C 0.16193 0.85037 0.26558 0.0
C1564 C 0.13579 0.85943 0.30316 0.0
N1565 N 0.15957 0.86872 0.28851 0.0
C1566 C 0.0745 0.76748 0.27276 0.0
C1567 C 0.0279 0.79722 0.24939 0.0
C1568 C 0.02461 0.76695 0.25403 0.0
C1569 C 0.04958 0.75199 0.26365 0.0
C1570 C 0.05331 0.81193 0.25906 0.0
N1571 N 0.07471 0.79732 0.27392 0.0
H1572 H 0.09142 0.75529 0.28362 0.0
H1573 H 0.05352 0.83534 0.25796 0.0
H1574 H 0.13624 0.81153 0.25274 0.0
H1575 H 0.12835 0.869 0.32341 0.0
O1576 O 0.12165 0.78245 0.3181 0.0
O1577 O 0.11344 0.82036 0.34645 0.0
O1578 O 0.06594 0.84798 0.31216 0.0
C1579 C 0.12865 0.79698 0.34148 0.0
H1580 H 0.99529 0.79819 0.35368 0.0
H1581 H 0.17922 0.85091 0.24954 0.0
H1582 H 0.01003 0.80995 0.24074 0.0
H1583 H 0.049 0.72871 0.26733 0.0
loop_
_geom_bond_atom_site_label_1
_geom_bond_atom_site_label_2
_geom_bond_distance
_geom_bond_site_symmetry_2
_ccdc_geom_bond_type
Co0 N4 2.148 . S
Co0 N10 2.128 . S
Co0 N20 2.194 . S
Co0 O25 2.351 . S
Co0 O26 2.155 . S
Co0 O27 2.096 . S
C1 N4 1.301 . S
C1 N5 1.328 . S
C1 H6 0.930 . S
C2 C3 1.333 . S
C2 N4 1.317 . S
C2 H7 0.930 . S
C3 C2 1.333 . S
C3 N5 1.350 . S
C3 H29 0.931 . S
N4 Co0 2.148 . S
N4 C1 1.301 . S
N4 C2 1.317 . S
N5 C1 1.328 . S
N5 C3 1.350 . S
H6 C1 0.930 . S
H7 C2 0.930 . S
C8 O9 1.224 . S
C8 O27 1.247 . S
O9 C8 1.224 . S
N10 Co0 2.128 . S
N10 C11 1.355 . S
N10 C13 1.311 . S
C11 N10 1.355 . S
C11 C12 1.363 1_455 S
C11 H23 0.929 . S
C12 C11 1.363 1_655 S
C12 N14 1.375 . S
C12 H30 0.931 . S
C13 N10 1.311 . S
C13 N14 1.347 1_455 S
C13 H24 0.929 . S
N14 C12 1.375 . S
N14 C13 1.347 1_655 S
C15 C18 1.365 . S
C15 N20 1.328 1_565 S
C15 H21 0.929 . S
C16 C17 1.362 1_545 S
C16 C19 1.378 . S
C16 H31 0.929 1_455 S
C17 C16 1.362 1_565 S
C17 C18 1.366 . S
C18 C15 1.365 . S
C18 C17 1.366 . S
C18 H32 0.930 . S
C19 C16 1.378 . S
C19 N20 1.315 . S
C19 H22 0.930 . S
N20 Co0 2.194 . S
N20 C15 1.328 1_545 S
N20 C19 1.315 . S
H21 C15 0.929 . S
H22 C19 0.930 . S
H23 C11 0.929 . S
H24 C13 0.929 . S
O25 Co0 2.351 . S
O25 C28 1.244 . S
O26 Co0 2.155 . S
O26 C28 1.240 . S
O27 Co0 2.096 . S
O27 C8 1.247 . S
C28 O25 1.244 . S
C28 O26 1.240 . S
H29 C3 0.931 . S
H30 C12 0.931 . S
H31 C16 0.929 1_655 S
H32 C18 0.930 . S
Co33 N37 2.148 . S
Co33 N43 2.128 . S
Co33 N53 2.194 . S
Co33 O58 2.351 . S
Co33 O59 2.155 . S
Co33 O60 2.096 . S
C34 N37 1.301 . S
C34 N38 1.328 . S
C34 H39 0.930 . S
C35 C36 1.333 . S
C35 N37 1.317 . S
C35 H40 0.930 . S
C36 C35 1.333 . S
C36 N38 1.350 . S
C36 H62 0.931 . S
N37 Co33 2.148 . S
N37 C34 1.301 . S
N37 C35 1.317 . S
N38 C34 1.328 . S
N38 C36 1.350 . S
H39 C34 0.930 . S
H40 C35 0.930 . S
C41 O42 1.224 . S
C41 O60 1.247 . S
O42 C41 1.224 . S
N43 Co33 2.128 . S
N43 C44 1.355 . S
N43 C46 1.311 . S
C44 N43 1.355 . S
C44 C45 1.363 . S
C44 H56 0.929 . S
C45 C44 1.363 . S
C45 N47 1.375 . S
C45 H63 0.931 . S
C46 N43 1.311 . S
C46 N47 1.347 . S
C46 H57 0.929 . S
N47 C45 1.375 . S
N47 C46 1.347 . S
C48 C51 1.365 . S
C48 N53 1.328 . S
C48 H54 0.929 . S
C49 C50 1.362 . S
C49 C52 1.378 . S
C49 H64 0.929 . S
C50 C49 1.362 . S
C50 C51 1.366 . S
C51 C48 1.365 . S
C51 C50 1.366 . S
C51 H65 0.930 . S
C52 C49 1.378 . S
C52 N53 1.315 . S
C52 H55 0.930 . S
N53 Co33 2.194 . S
N53 C48 1.328 . S
N53 C52 1.315 . S
H54 C48 0.929 . S
H55 C52 0.930 . S
H56 C44 0.929 . S
H57 C46 0.929 . S
O58 Co33 2.351 . S
O58 C61 1.244 . S
O59 Co33 2.155 . S
O59 C61 1.240 . S
O60 Co33 2.096 . S
O60 C41 1.247 . S
C61 O58 1.244 . S
C61 O59 1.240 . S
H62 C36 0.931 . S
H63 C45 0.931 . S
H64 C49 0.929 . S
H65 C51 0.930 . S
Co66 N70 2.148 . S
Co66 N76 2.128 . S
Co66 N86 2.194 . S
Co66 O91 2.351 . S
Co66 O92 2.155 . S
Co66 O93 2.096 . S
C67 N70 1.301 . S
C67 N71 1.328 . S
C67 H72 0.930 . S
C68 C69 1.333 . S
C68 N70 1.317 . S
C68 H73 0.930 . S
C69 C68 1.333 . S
C69 N71 1.350 . S
C69 H95 0.931 . S
N70 Co66 2.148 . S
N70 C67 1.301 . S
N70 C68 1.317 . S
N71 C67 1.328 . S
N71 C69 1.350 . S
H72 C67 0.930 . S
H73 C68 0.930 . S
C74 O75 1.224 . S
C74 O93 1.247 . S
O75 C74 1.224 . S
N76 Co66 2.128 . S
N76 C77 1.355 . S
N76 C79 1.311 . S
C77 N76 1.355 . S
C77 C78 1.363 . S
C77 H89 0.929 . S
C78 C77 1.363 . S
C78 N80 1.375 . S
C78 H96 0.931 . S
C79 N76 1.311 . S
C79 N80 1.347 . S
C79 H90 0.929 . S
N80 C78 1.375 . S
N80 C79 1.347 . S
C81 C84 1.365 . S
C81 N86 1.328 1_545 S
C81 H87 0.929 . S
C82 C83 1.362 1_565 S
C82 C85 1.378 . S
C82 H97 0.929 . S
C83 C82 1.362 1_545 S
C83 C84 1.366 . S
C84 C81 1.365 . S
C84 C83 1.366 . S
C84 H98 0.930 . S
C85 C82 1.378 . S
C85 N86 1.315 . S
C85 H88 0.930 . S
N86 Co66 2.194 . S
N86 C81 1.328 1_565 S
N86 C85 1.315 . S
H87 C81 0.929 . S
H88 C85 0.930 . S
H89 C77 0.929 . S
H90 C79 0.929 . S
O91 Co66 2.351 . S
O91 C94 1.244 . S
O92 Co66 2.155 . S
O92 C94 1.240 . S
O93 Co66 2.096 . S
O93 C74 1.247 . S
C94 O91 1.244 . S
C94 O92 1.240 . S
H95 C69 0.931 . S
H96 C78 0.931 . S
H97 C82 0.929 . S
H98 C84 0.930 . S
Co99 N103 2.148 . S
Co99 N109 2.128 . S
Co99 N119 2.194 . S
Co99 O124 2.351 . S
Co99 O125 2.155 . S
Co99 O126 2.096 . S
C100 N103 1.301 . S
C100 N104 1.328 . S
C100 H105 0.930 . S
C101 C102 1.333 . S
C101 N103 1.317 . S
C101 H106 0.930 . S
C102 C101 1.333 . S
C102 N104 1.350 . S
C102 H128 0.931 . S
N103 Co99 2.148 . S
N103 C100 1.301 . S
N103 C101 1.317 . S
N104 C100 1.328 . S
N104 C102 1.350 . S
H105 C100 0.930 . S
H106 C101 0.930 . S
C107 O108 1.224 . S
C107 O126 1.247 . S
O108 C107 1.224 . S
N109 Co99 2.128 . S
N109 C110 1.355 . S
N109 C112 1.311 . S
C110 N109 1.355 . S
C110 C111 1.363 . S
C110 H122 0.929 . S
C111 C110 1.363 . S
C111 N113 1.375 . S
C111 H129 0.931 . S
C112 N109 1.311 . S
C112 N113 1.347 . S
C112 H123 0.929 . S
N113 C111 1.375 . S
N113 C112 1.347 . S
C114 C117 1.365 . S
C114 N119 1.328 . S
C114 H120 0.929 . S
C115 C116 1.362 . S
C115 C118 1.378 . S
C115 H130 0.929 . S
C116 C115 1.362 . S
C116 C117 1.366 . S
C117 C114 1.365 . S
C117 C116 1.366 . S
C117 H131 0.930 . S
C118 C115 1.378 . S
C118 N119 1.315 . S
C118 H121 0.930 . S
N119 Co99 2.194 . S
N119 C114 1.328 . S
N119 C118 1.315 . S
H120 C114 0.929 . S
H121 C118 0.930 . S
H122 C110 0.929 . S
H123 C112 0.929 . S
O124 Co99 2.351 . S
O124 C127 1.244 . S
O125 Co99 2.155 . S
O125 C127 1.240 . S
O126 Co99 2.096 . S
O126 C107 1.247 . S
C127 O124 1.244 . S
C127 O125 1.240 . S
H128 C102 0.931 . S
H129 C111 0.931 . S
H130 C115 0.929 . S
H131 C117 0.930 . S
Co132 N136 2.148 . S
Co132 N142 2.128 . S
Co132 N152 2.194 . S
Co132 O157 2.351 . S
Co132 O158 2.155 . S
Co132 O159 2.096 . S
C133 N136 1.301 . S
C133 N137 1.328 . S
C133 H138 0.930 . S
C134 C135 1.333 . S
C134 N136 1.317 . S
C134 H139 0.930 . S
C135 C134 1.333 . S
C135 N137 1.350 . S
C135 H161 0.931 . S
N136 Co132 2.148 . S
N136 C133 1.301 . S
N136 C134 1.317 . S
N137 C133 1.328 . S
N137 C135 1.350 . S
H138 C133 0.930 . S
H139 C134 0.930 . S
C140 O141 1.224 . S
C140 O159 1.247 . S
O141 C140 1.224 . S
N142 Co132 2.128 . S
N142 C143 1.355 . S
N142 C145 1.311 . S
C143 N142 1.355 . S
C143 C144 1.363 1_455 S
C143 H155 0.929 . S
C144 C143 1.363 1_655 S
C144 N146 1.375 . S
C144 H162 0.931 . S
C145 N142 1.311 . S
C145 N146 1.347 1_455 S
C145 H156 0.929 . S
N146 C144 1.375 . S
N146 C145 1.347 1_655 S
C147 C150 1.365 . S
C147 N152 1.328 1_545 S
C147 H153 0.929 . S
C148 C149 1.362 1_565 S
C148 C151 1.378 . S
C148 H163 0.929 1_455 S
C149 C148 1.362 1_545 S
C149 C150 1.366 . S
C150 C147 1.365 . S
C150 C149 1.366 . S
C150 H164 0.930 . S
C151 C148 1.378 . S
C151 N152 1.315 . S
C151 H154 0.930 . S
N152 Co132 2.194 . S
N152 C147 1.328 1_565 S
N152 C151 1.315 . S
H153 C147 0.929 . S
H154 C151 0.930 . S
H155 C143 0.929 . S
H156 C145 0.929 . S
O157 Co132 2.351 . S
O157 C160 1.244 . S
O158 Co132 2.155 . S
O158 C160 1.240 . S
O159 Co132 2.096 . S
O159 C140 1.247 . S
C160 O157 1.244 . S
C160 O158 1.240 . S
H161 C135 0.931 . S
H162 C144 0.931 . S
H163 C148 0.929 1_655 S
H164 C150 0.930 . S
Co165 N169 2.148 . S
Co165 N175 2.128 . S
Co165 N185 2.194 . S
Co165 O190 2.351 . S
Co165 O191 2.155 . S
Co165 O192 2.096 . S
C166 N169 1.301 . S
C166 N170 1.328 . S
C166 H171 0.930 . S
C167 C168 1.333 . S
C167 N169 1.317 . S
C167 H172 0.930 . S
C168 C167 1.333 . S
C168 N170 1.350 . S
C168 H194 0.931 . S
N169 Co165 2.148 . S
N169 C166 1.301 . S
N169 C167 1.317 . S
N170 C166 1.328 . S
N170 C168 1.350 . S
H171 C166 0.930 . S
H172 C167 0.930 . S
C173 O174 1.224 . S
C173 O192 1.247 . S
O174 C173 1.224 . S
N175 Co165 2.128 . S
N175 C176 1.355 . S
N175 C178 1.311 . S
C176 N175 1.355 . S
C176 C177 1.363 . S
C176 H188 0.929 . S
C177 C176 1.363 . S
C177 N179 1.375 . S
C177 H195 0.931 . S
C178 N175 1.311 . S
C178 N179 1.347 . S
C178 H189 0.929 . S
N179 C177 1.375 . S
N179 C178 1.347 . S
C180 C183 1.365 . S
C180 N185 1.328 . S
C180 H186 0.929 . S
C181 C182 1.362 . S
C181 C184 1.378 . S
C181 H196 0.929 . S
C182 C181 1.362 . S
C182 C183 1.366 . S
C183 C180 1.365 . S
C183 C182 1.366 . S
C183 H197 0.930 . S
C184 C181 1.378 . S
C184 N185 1.315 . S
C184 H187 0.930 . S
N185 Co165 2.194 . S
N185 C180 1.328 . S
N185 C184 1.315 . S
H186 C180 0.929 . S
H187 C184 0.930 . S
H188 C176 0.929 . S
H189 C178 0.929 . S
O190 Co165 2.351 . S
O190 C193 1.244 . S
O191 Co165 2.155 . S
O191 C193 1.240 . S
O192 Co165 2.096 . S
O192 C173 1.247 . S
C193 O190 1.244 . S
C193 O191 1.240 . S
H194 C168 0.931 . S
H195 C177 0.931 . S
H196 C181 0.929 . S
H197 C183 0.930 . S
Co198 N202 2.148 . S
Co198 N208 2.128 . S
Co198 N218 2.194 . S
Co198 O223 2.351 . S
Co198 O224 2.155 . S
Co198 O225 2.096 . S
C199 N202 1.301 . S
C199 N203 1.328 . S
C199 H204 0.930 . S
C200 C201 1.333 . S
C200 N202 1.317 . S
C200 H205 0.930 . S
C201 C200 1.333 . S
C201 N203 1.350 . S
C201 H227 0.931 . S
N202 Co198 2.148 . S
N202 C199 1.301 . S
N202 C200 1.317 . S
N203 C199 1.328 . S
N203 C201 1.350 . S
H204 C199 0.930 . S
H205 C200 0.930 . S
C206 O207 1.224 . S
C206 O225 1.247 . S
O207 C206 1.224 . S
N208 Co198 2.128 . S
N208 C209 1.355 . S
N208 C211 1.311 . S
C209 N208 1.355 . S
C209 C210 1.363 . S
C209 H221 0.929 . S
C210 C209 1.363 . S
C210 N212 1.375 . S
C210 H228 0.931 . S
C211 N208 1.311 . S
C211 N212 1.347 . S
C211 H222 0.929 . S
N212 C210 1.375 . S
N212 C211 1.347 . S
C213 C216 1.365 . S
C213 N218 1.328 1_565 S
C213 H219 0.929 . S
C214 C215 1.362 1_545 S
C214 C217 1.378 . S
C214 H229 0.929 . S
C215 C214 1.362 1_565 S
C215 C216 1.366 . S
C216 C213 1.365 . S
C216 C215 1.366 . S
C216 H230 0.930 . S
C217 C214 1.378 . S
C217 N218 1.315 . S
C217 H220 0.930 . S
N218 Co198 2.194 . S
N218 C213 1.328 1_545 S
N218 C217 1.315 . S
H219 C213 0.929 . S
H220 C217 0.930 . S
H221 C209 0.929 . S
H222 C211 0.929 . S
O223 Co198 2.351 . S
O223 C226 1.244 . S
O224 Co198 2.155 . S
O224 C226 1.240 . S
O225 Co198 2.096 . S
O225 C206 1.247 . S
C226 O223 1.244 . S
C226 O224 1.240 . S
H227 C201 0.931 . S
H228 C210 0.931 . S
H229 C214 0.929 . S
H230 C216 0.930 . S
Co231 N235 2.148 . S
Co231 N241 2.128 . S
Co231 N251 2.194 . S
Co231 O256 2.351 . S
Co231 O257 2.155 . S
Co231 O258 2.096 . S
C232 N235 1.301 . S
C232 N236 1.328 . S
C232 H237 0.930 . S
C233 C234 1.333 . S
C233 N235 1.317 . S
C233 H238 0.930 . S
C234 C233 1.333 . S
C234 N236 1.350 . S
C234 H260 0.931 . S
N235 Co231 2.148 . S
N235 C232 1.301 . S
N235 C233 1.317 . S
N236 C232 1.328 . S
N236 C234 1.350 . S
H237 C232 0.930 . S
H238 C233 0.930 . S
C239 O240 1.224 . S
C239 O258 1.247 . S
O240 C239 1.224 . S
N241 Co231 2.128 . S
N241 C242 1.355 . S
N241 C244 1.311 . S
C242 N241 1.355 . S
C242 C243 1.363 . S
C242 H254 0.929 . S
C243 C242 1.363 . S
C243 N245 1.375 . S
C243 H261 0.931 . S
C244 N241 1.311 . S
C244 N245 1.347 . S
C244 H255 0.929 . S
N245 C243 1.375 . S
N245 C244 1.347 . S
C246 C249 1.365 . S
C246 N251 1.328 . S
C246 H252 0.929 . S
C247 C248 1.362 . S
C247 C250 1.378 . S
C247 H262 0.929 . S
C248 C247 1.362 . S
C248 C249 1.366 . S
C249 C246 1.365 . S
C249 C248 1.366 . S
C249 H263 0.930 . S
C250 C247 1.378 . S
C250 N251 1.315 . S
C250 H253 0.930 . S
N251 Co231 2.194 . S
N251 C246 1.328 . S
N251 C250 1.315 . S
H252 C246 0.929 . S
H253 C250 0.930 . S
H254 C242 0.929 . S
H255 C244 0.929 . S
O256 Co231 2.351 . S
O256 C259 1.244 . S
O257 Co231 2.155 . S
O257 C259 1.240 . S
O258 Co231 2.096 . S
O258 C239 1.247 . S
C259 O256 1.244 . S
C259 O257 1.240 . S
H260 C234 0.931 . S
H261 C243 0.931 . S
H262 C247 0.929 . S
H263 C249 0.930 . S
Co264 N268 2.148 . S
Co264 N274 2.128 . S
Co264 N284 2.194 . S
Co264 O289 2.351 . S
Co264 O290 2.155 . S
Co264 O291 2.096 . S
C265 N268 1.301 . S
C265 N269 1.328 . S
C265 H270 0.930 . S
C266 C267 1.333 . S
C266 N268 1.317 . S
C266 H271 0.930 . S
C267 C266 1.333 . S
C267 N269 1.350 . S
C267 H293 0.931 . S
N268 Co264 2.148 . S
N268 C265 1.301 . S
N268 C266 1.317 . S
N269 C265 1.328 . S
N269 C267 1.350 . S
H270 C265 0.930 . S
H271 C266 0.930 . S
C272 O273 1.224 . S
C272 O291 1.247 . S
O273 C272 1.224 . S
N274 Co264 2.128 . S
N274 C275 1.355 . S
N274 C277 1.311 . S
C275 N274 1.355 . S
C275 C276 1.363 1_545 S
C275 H287 0.929 . S
C276 C275 1.363 1_565 S
C276 N278 1.375 . S
C276 H294 0.931 . S
C277 N274 1.311 . S
C277 N278 1.347 1_545 S
C277 H288 0.929 . S
N278 C276 1.375 . S
N278 C277 1.347 1_565 S
C279 C282 1.365 . S
C279 N284 1.328 1_556 S
C279 H285 0.929 . S
C280 C281 1.362 1_554 S
C280 C283 1.378 . S
C280 H295 0.929 1_545 S
C281 C280 1.362 1_556 S
C281 C282 1.366 . S
C282 C279 1.365 . S
C282 C281 1.366 . S
C282 H296 0.930 . S
C283 C280 1.378 . S
C283 N284 1.315 . S
C283 H286 0.930 . S
N284 Co264 2.194 . S
N284 C279 1.328 1_554 S
N284 C283 1.315 . S
H285 C279 0.929 . S
H286 C283 0.930 . S
H287 C275 0.929 . S
H288 C277 0.929 . S
O289 Co264 2.351 . S
O289 C292 1.244 . S
O290 Co264 2.155 . S
O290 C292 1.240 . S
O291 Co264 2.096 . S
O291 C272 1.247 . S
C292 O289 1.244 . S
C292 O290 1.240 . S
H293 C267 0.931 . S
H294 C276 0.931 . S
H295 C280 0.929 1_565 S
H296 C282 0.930 . S
Co297 N301 2.148 . S
Co297 N307 2.128 . S
Co297 N317 2.194 . S
Co297 O322 2.351 . S
Co297 O323 2.155 . S
Co297 O324 2.096 . S
C298 N301 1.301 . S
C298 N302 1.328 . S
C298 H303 0.930 . S
C299 C300 1.333 . S
C299 N301 1.317 . S
C299 H304 0.930 . S
C300 C299 1.333 . S
C300 N302 1.350 . S
C300 H326 0.931 . S
N301 Co297 2.148 . S
N301 C298 1.301 . S
N301 C299 1.317 . S
N302 C298 1.328 . S
N302 C300 1.350 . S
H303 C298 0.930 . S
H304 C299 0.930 . S
C305 O306 1.224 . S
C305 O324 1.247 . S
O306 C305 1.224 . S
N307 Co297 2.128 . S
N307 C308 1.355 . S
N307 C310 1.311 . S
C308 N307 1.355 . S
C308 C309 1.363 . S
C308 H320 0.929 . S
C309 C308 1.363 . S
C309 N311 1.375 . S
C309 H327 0.931 . S
C310 N307 1.311 . S
C310 N311 1.347 . S
C310 H321 0.929 . S
N311 C309 1.375 . S
N311 C310 1.347 . S
C312 C315 1.365 . S
C312 N317 1.328 . S
C312 H318 0.929 . S
C313 C314 1.362 . S
C313 C316 1.378 . S
C313 H328 0.929 . S
C314 C313 1.362 . S
C314 C315 1.366 . S
C315 C312 1.365 . S
C315 C314 1.366 . S
C315 H329 0.930 . S
C316 C313 1.378 . S
C316 N317 1.315 . S
C316 H319 0.930 . S
N317 Co297 2.194 . S
N317 C312 1.328 . S
N317 C316 1.315 . S
H318 C312 0.929 . S
H319 C316 0.930 . S
H320 C308 0.929 . S
H321 C310 0.929 . S
O322 Co297 2.351 . S
O322 C325 1.244 . S
O323 Co297 2.155 . S
O323 C325 1.240 . S
O324 Co297 2.096 . S
O324 C305 1.247 . S
C325 O322 1.244 . S
C325 O323 1.240 . S
H326 C300 0.931 . S
H327 C309 0.931 . S
H328 C313 0.929 . S
H329 C315 0.930 . S
Co330 N334 2.148 . S
Co330 N340 2.128 . S
Co330 N350 2.194 . S
Co330 O355 2.351 . S
Co330 O356 2.155 . S
Co330 O357 2.096 . S
C331 N334 1.301 . S
C331 N335 1.328 . S
C331 H336 0.930 . S
C332 C333 1.333 . S
C332 N334 1.317 . S
C332 H337 0.930 . S
C333 C332 1.333 . S
C333 N335 1.350 . S
C333 H359 0.931 . S
N334 Co330 2.148 . S
N334 C331 1.301 . S
N334 C332 1.317 . S
N335 C331 1.328 . S
N335 C333 1.350 . S
H336 C331 0.930 . S
H337 C332 0.930 . S
C338 O339 1.224 . S
C338 O357 1.247 . S
O339 C338 1.224 . S
N340 Co330 2.128 . S
N340 C341 1.355 . S
N340 C343 1.311 . S
C341 N340 1.355 . S
C341 C342 1.363 1_565 S
C341 H353 0.929 . S
C342 C341 1.363 1_545 S
C342 N344 1.375 . S
C342 H360 0.931 . S
C343 N340 1.311 . S
C343 N344 1.347 1_565 S
C343 H354 0.929 . S
N344 C342 1.375 . S
N344 C343 1.347 1_545 S
C345 C348 1.365 . S
C345 N350 1.328 . S
C345 H351 0.929 . S
C346 C347 1.362 . S
C346 C349 1.378 . S
C346 H361 0.929 1_565 S
C347 C346 1.362 . S
C347 C348 1.366 . S
C348 C345 1.365 . S
C348 C347 1.366 . S
C348 H362 0.930 . S
C349 C346 1.378 . S
C349 N350 1.315 . S
C349 H352 0.930 . S
N350 Co330 2.194 . S
N350 C345 1.328 . S
N350 C349 1.315 . S
H351 C345 0.929 . S
H352 C349 0.930 . S
H353 C341 0.929 . S
H354 C343 0.929 . S
O355 Co330 2.351 . S
O355 C358 1.244 . S
O356 Co330 2.155 . S
O356 C358 1.240 . S
O357 Co330 2.096 . S
O357 C338 1.247 . S
C358 O355 1.244 . S
C358 O356 1.240 . S
H359 C333 0.931 . S
H360 C342 0.931 . S
H361 C346 0.929 1_545 S
H362 C348 0.930 . S
Co363 N367 2.148 . S
Co363 N373 2.128 . S
Co363 N383 2.194 . S
Co363 O388 2.351 . S
Co363 O389 2.155 . S
Co363 O390 2.096 . S
C364 N367 1.301 . S
C364 N368 1.328 . S
C364 H369 0.930 . S
C365 C366 1.333 . S
C365 N367 1.317 . S
C365 H370 0.930 . S
C366 C365 1.333 . S
C366 N368 1.350 . S
C366 H392 0.931 . S
N367 Co363 2.148 . S
N367 C364 1.301 . S
N367 C365 1.317 . S
N368 C364 1.328 . S
N368 C366 1.350 . S
H369 C364 0.930 . S
H370 C365 0.930 . S
C371 O372 1.224 . S
C371 O390 1.247 . S
O372 C371 1.224 . S
N373 Co363 2.128 . S
N373 C374 1.355 . S
N373 C376 1.311 . S
C374 N373 1.355 . S
C374 C375 1.363 . S
C374 H386 0.929 . S
C375 C374 1.363 . S
C375 N377 1.375 . S
C375 H393 0.931 . S
C376 N373 1.311 . S
C376 N377 1.347 . S
C376 H387 0.929 . S
N377 C375 1.375 . S
N377 C376 1.347 . S
C378 C381 1.365 . S
C378 N383 1.328 . S
C378 H384 0.929 . S
C379 C380 1.362 . S
C379 C382 1.378 . S
C379 H394 0.929 . S
C380 C379 1.362 . S
C380 C381 1.366 . S
C381 C378 1.365 . S
C381 C380 1.366 . S
C381 H395 0.930 . S
C382 C379 1.378 . S
C382 N383 1.315 . S
C382 H385 0.930 . S
N383 Co363 2.194 . S
N383 C378 1.328 . S
N383 C382 1.315 . S
H384 C378 0.929 . S
H385 C382 0.930 . S
H386 C374 0.929 . S
H387 C376 0.929 . S
O388 Co363 2.351 . S
O388 C391 1.244 . S
O389 Co363 2.155 . S
O389 C391 1.240 . S
O390 Co363 2.096 . S
O390 C371 1.247 . S
C391 O388 1.244 . S
C391 O389 1.240 . S
H392 C366 0.931 . S
H393 C375 0.931 . S
H394 C379 0.929 . S
H395 C381 0.930 . S
Co396 N400 2.148 . S
Co396 N406 2.128 . S
Co396 N416 2.194 . S
Co396 O421 2.351 . S
Co396 O422 2.155 . S
Co396 O423 2.096 . S
C397 N400 1.301 . S
C397 N401 1.328 . S
C397 H402 0.930 . S
C398 C399 1.333 . S
C398 N400 1.317 . S
C398 H403 0.930 . S
C399 C398 1.333 . S
C399 N401 1.350 . S
C399 H425 0.931 . S
N400 Co396 2.148 . S
N400 C397 1.301 . S
N400 C398 1.317 . S
N401 C397 1.328 . S
N401 C399 1.350 . S
H402 C397 0.930 . S
H403 C398 0.930 . S
C404 O405 1.224 . S
C404 O423 1.247 . S
O405 C404 1.224 . S
N406 Co396 2.128 . S
N406 C407 1.355 . S
N406 C409 1.311 . S
C407 N406 1.355 . S
C407 C408 1.363 1_565 S
C407 H419 0.929 . S
C408 C407 1.363 1_545 S
C408 N410 1.375 . S
C408 H426 0.931 . S
C409 N406 1.311 . S
C409 N410 1.347 1_565 S
C409 H420 0.929 . S
N410 C408 1.375 . S
N410 C409 1.347 1_545 S
C411 C414 1.365 . S
C411 N416 1.328 . S
C411 H417 0.929 . S
C412 C413 1.362 . S
C412 C415 1.378 . S
C412 H427 0.929 1_565 S
C413 C412 1.362 . S
C413 C414 1.366 . S
C414 C411 1.365 . S
C414 C413 1.366 . S
C414 H428 0.930 . S
C415 C412 1.378 . S
C415 N416 1.315 . S
C415 H418 0.930 . S
N416 Co396 2.194 . S
N416 C411 1.328 . S
N416 C415 1.315 . S
H417 C411 0.929 . S
H418 C415 0.930 . S
H419 C407 0.929 . S
H420 C409 0.929 . S
O421 Co396 2.351 . S
O421 C424 1.244 . S
O422 Co396 2.155 . S
O422 C424 1.240 . S
O423 Co396 2.096 . S
O423 C404 1.247 . S
C424 O421 1.244 . S
C424 O422 1.240 . S
H425 C399 0.931 . S
H426 C408 0.931 . S
H427 C412 0.929 1_545 S
H428 C414 0.930 . S
Co429 N433 2.148 . S
Co429 N439 2.128 . S
Co429 N449 2.194 . S
Co429 O454 2.351 . S
Co429 O455 2.155 . S
Co429 O456 2.096 . S
C430 N433 1.301 . S
C430 N434 1.328 . S
C430 H435 0.930 . S
C431 C432 1.333 . S
C431 N433 1.317 . S
C431 H436 0.930 . S
C432 C431 1.333 . S
C432 N434 1.350 . S
C432 H458 0.931 . S
N433 Co429 2.148 . S
N433 C430 1.301 . S
N433 C431 1.317 . S
N434 C430 1.328 . S
N434 C432 1.350 . S
H435 C430 0.930 . S
H436 C431 0.930 . S
C437 O438 1.224 . S
C437 O456 1.247 . S
O438 C437 1.224 . S
N439 Co429 2.128 . S
N439 C440 1.355 . S
N439 C442 1.311 . S
C440 N439 1.355 . S
C440 C441 1.363 . S
C440 H452 0.929 . S
C441 C440 1.363 . S
C441 N443 1.375 . S
C441 H459 0.931 . S
C442 N439 1.311 . S
C442 N443 1.347 . S
C442 H453 0.929 . S
N443 C441 1.375 . S
N443 C442 1.347 . S
C444 C447 1.365 . S
C444 N449 1.328 . S
C444 H450 0.929 . S
C445 C446 1.362 . S
C445 C448 1.378 . S
C445 H460 0.929 . S
C446 C445 1.362 . S
C446 C447 1.366 . S
C447 C444 1.365 . S
C447 C446 1.366 . S
C447 H461 0.930 . S
C448 C445 1.378 . S
C448 N449 1.315 . S
C448 H451 0.930 . S
N449 Co429 2.194 . S
N449 C444 1.328 . S
N449 C448 1.315 . S
H450 C444 0.929 . S
H451 C448 0.930 . S
H452 C440 0.929 . S
H453 C442 0.929 . S
O454 Co429 2.351 . S
O454 C457 1.244 . S
O455 Co429 2.155 . S
O455 C457 1.240 . S
O456 Co429 2.096 . S
O456 C437 1.247 . S
C457 O454 1.244 . S
C457 O455 1.240 . S
H458 C432 0.931 . S
H459 C441 0.931 . S
H460 C445 0.929 . S
H461 C447 0.930 . S
Co462 N466 2.148 . S
Co462 N472 2.128 . S
Co462 N482 2.194 . S
Co462 O487 2.351 . S
Co462 O488 2.155 . S
Co462 O489 2.096 . S
C463 N466 1.301 . S
C463 N467 1.328 . S
C463 H468 0.930 . S
C464 C465 1.333 . S
C464 N466 1.317 . S
C464 H469 0.930 . S
C465 C464 1.333 . S
C465 N467 1.350 . S
C465 H491 0.931 . S
N466 Co462 2.148 . S
N466 C463 1.301 . S
N466 C464 1.317 . S
N467 C463 1.328 . S
N467 C465 1.350 . S
H468 C463 0.930 . S
H469 C464 0.930 . S
C470 O471 1.224 . S
C470 O489 1.247 . S
O471 C470 1.224 . S
N472 Co462 2.128 . S
N472 C473 1.355 . S
N472 C475 1.311 . S
C473 N472 1.355 . S
C473 C474 1.363 1_545 S
C473 H485 0.929 . S
C474 C473 1.363 1_565 S
C474 N476 1.375 . S
C474 H492 0.931 . S
C475 N472 1.311 . S
C475 N476 1.347 1_545 S
C475 H486 0.929 . S
N476 C474 1.375 . S
N476 C475 1.347 1_565 S
C477 C480 1.365 . S
C477 N482 1.328 1_554 S
C477 H483 0.929 . S
C478 C479 1.362 1_556 S
C478 C481 1.378 . S
C478 H493 0.929 1_545 S
C479 C478 1.362 1_554 S
C479 C480 1.366 . S
C480 C477 1.365 . S
C480 C479 1.366 . S
C480 H494 0.930 . S
C481 C478 1.378 . S
C481 N482 1.315 . S
C481 H484 0.930 . S
N482 Co462 2.194 . S
N482 C477 1.328 1_556 S
N482 C481 1.315 . S
H483 C477 0.929 . S
H484 C481 0.930 . S
H485 C473 0.929 . S
H486 C475 0.929 . S
O487 Co462 2.351 . S
O487 C490 1.244 . S
O488 Co462 2.155 . S
O488 C490 1.240 . S
O489 Co462 2.096 . S
O489 C470 1.247 . S
C490 O487 1.244 . S
C490 O488 1.240 . S
H491 C465 0.931 . S
H492 C474 0.931 . S
H493 C478 0.929 1_565 S
H494 C480 0.930 . S
Co495 N499 2.148 . S
Co495 N505 2.128 . S
Co495 N515 2.194 . S
Co495 O520 2.351 . S
Co495 O521 2.155 . S
Co495 O522 2.096 . S
C496 N499 1.301 . S
C496 N500 1.328 . S
C496 H501 0.930 . S
C497 C498 1.333 . S
C497 N499 1.317 . S
C497 H502 0.930 . S
C498 C497 1.333 . S
C498 N500 1.350 . S
C498 H524 0.931 . S
N499 Co495 2.148 . S
N499 C496 1.301 . S
N499 C497 1.317 . S
N500 C496 1.328 . S
N500 C498 1.350 . S
H501 C496 0.930 . S
H502 C497 0.930 . S
C503 O504 1.224 . S
C503 O522 1.247 . S
O504 C503 1.224 . S
N505 Co495 2.128 . S
N505 C506 1.355 . S
N505 C508 1.311 . S
C506 N505 1.355 . S
C506 C507 1.363 . S
C506 H518 0.929 . S
C507 C506 1.363 . S
C507 N509 1.375 . S
C507 H525 0.931 . S
C508 N505 1.311 . S
C508 N509 1.347 . S
C508 H519 0.929 . S
N509 C507 1.375 . S
N509 C508 1.347 . S
C510 C513 1.365 . S
C510 N515 1.328 . S
C510 H516 0.929 . S
C511 C512 1.362 . S
C511 C514 1.378 . S
C511 H526 0.929 . S
C512 C511 1.362 . S
C512 C513 1.366 . S
C513 C510 1.365 . S
C513 C512 1.366 . S
C513 H527 0.930 . S
C514 C511 1.378 . S
C514 N515 1.315 . S
C514 H517 0.930 . S
N515 Co495 2.194 . S
N515 C510 1.328 . S
N515 C514 1.315 . S
H516 C510 0.929 . S
H517 C514 0.930 . S
H518 C506 0.929 . S
H519 C508 0.929 . S
O520 Co495 2.351 . S
O520 C523 1.244 . S
O521 Co495 2.155 . S
O521 C523 1.240 . S
O522 Co495 2.096 . S
O522 C503 1.247 . S
C523 O520 1.244 . S
C523 O521 1.240 . S
H524 C498 0.931 . S
H525 C507 0.931 . S
H526 C511 0.929 . S
H527 C513 0.930 . S
Co528 N532 2.148 . S
Co528 N538 2.128 . S
Co528 N548 2.194 . S
Co528 O553 2.351 . S
Co528 O554 2.155 . S
Co528 O555 2.096 . S
C529 N532 1.301 . S
C529 N533 1.328 . S
C529 H534 0.930 . S
C530 C531 1.333 . S
C530 N532 1.317 . S
C530 H535 0.930 . S
C531 C530 1.333 . S
C531 N533 1.350 . S
C531 H557 0.931 . S
N532 Co528 2.148 . S
N532 C529 1.301 . S
N532 C530 1.317 . S
N533 C529 1.328 . S
N533 C531 1.350 . S
H534 C529 0.930 . S
H535 C530 0.930 . S
C536 O537 1.224 . S
C536 O555 1.247 . S
O537 C536 1.224 . S
N538 Co528 2.128 . S
N538 C539 1.355 . S
N538 C541 1.311 . S
C539 N538 1.355 . S
C539 C540 1.363 1_554 S
C539 H551 0.929 . S
C540 C539 1.363 1_556 S
C540 N542 1.375 . S
C540 H558 0.931 . S
C541 N538 1.311 . S
C541 N542 1.347 1_554 S
C541 H552 0.929 . S
N542 C540 1.375 . S
N542 C541 1.347 1_556 S
C543 C546 1.365 . S
C543 N548 1.328 1_655 S
C543 H549 0.929 . S
C544 C545 1.362 1_455 S
C544 C547 1.378 . S
C544 H559 0.929 1_554 S
C545 C544 1.362 1_655 S
C545 C546 1.366 . S
C546 C543 1.365 . S
C546 C545 1.366 . S
C546 H560 0.930 . S
C547 C544 1.378 . S
C547 N548 1.315 . S
C547 H550 0.930 . S
N548 Co528 2.194 . S
N548 C543 1.328 1_455 S
N548 C547 1.315 . S
H549 C543 0.929 . S
H550 C547 0.930 . S
H551 C539 0.929 . S
H552 C541 0.929 . S
O553 Co528 2.351 . S
O553 C556 1.244 . S
O554 Co528 2.155 . S
O554 C556 1.240 . S
O555 Co528 2.096 . S
O555 C536 1.247 . S
C556 O553 1.244 . S
C556 O554 1.240 . S
H557 C531 0.931 . S
H558 C540 0.931 . S
H559 C544 0.929 1_556 S
H560 C546 0.930 . S
Co561 N565 2.148 . S
Co561 N571 2.128 . S
Co561 N581 2.194 . S
Co561 O586 2.351 . S
Co561 O587 2.155 . S
Co561 O588 2.096 . S
C562 N565 1.301 . S
C562 N566 1.328 . S
C562 H567 0.930 . S
C563 C564 1.333 . S
C563 N565 1.317 . S
C563 H568 0.930 . S
C564 C563 1.333 . S
C564 N566 1.350 . S
C564 H590 0.931 . S
N565 Co561 2.148 . S
N565 C562 1.301 . S
N565 C563 1.317 . S
N566 C562 1.328 . S
N566 C564 1.350 . S
H567 C562 0.930 . S
H568 C563 0.930 . S
C569 O570 1.224 . S
C569 O588 1.247 . S
O570 C569 1.224 . S
N571 Co561 2.128 . S
N571 C572 1.355 . S
N571 C574 1.311 . S
C572 N571 1.355 . S
C572 C573 1.363 1_556 S
C572 H584 0.929 . S
C573 C572 1.363 1_554 S
C573 N575 1.375 . S
C573 H591 0.931 . S
C574 N571 1.311 . S
C574 N575 1.347 1_556 S
C574 H585 0.929 . S
N575 C573 1.375 . S
N575 C574 1.347 1_554 S
C576 C579 1.365 . S
C576 N581 1.328 . S
C576 H582 0.929 . S
C577 C578 1.362 . S
C577 C580 1.378 . S
C577 H592 0.929 1_556 S
C578 C577 1.362 . S
C578 C579 1.366 . S
C579 C576 1.365 . S
C579 C578 1.366 . S
C579 H593 0.930 . S
C580 C577 1.378 . S
C580 N581 1.315 . S
C580 H583 0.930 . S
N581 Co561 2.194 . S
N581 C576 1.328 . S
N581 C580 1.315 . S
H582 C576 0.929 . S
H583 C580 0.930 . S
H584 C572 0.929 . S
H585 C574 0.929 . S
O586 Co561 2.351 . S
O586 C589 1.244 . S
O587 Co561 2.155 . S
O587 C589 1.240 . S
O588 Co561 2.096 . S
O588 C569 1.247 . S
C589 O586 1.244 . S
C589 O587 1.240 . S
H590 C564 0.931 . S
H591 C573 0.931 . S
H592 C577 0.929 1_554 S
H593 C579 0.930 . S
Co594 N598 2.148 . S
Co594 N604 2.128 . S
Co594 N614 2.194 . S
Co594 O619 2.351 . S
Co594 O620 2.155 . S
Co594 O621 2.096 . S
C595 N598 1.301 . S
C595 N599 1.328 . S
C595 H600 0.930 . S
C596 C597 1.333 . S
C596 N598 1.317 . S
C596 H601 0.930 . S
C597 C596 1.333 . S
C597 N599 1.350 . S
C597 H623 0.931 . S
N598 Co594 2.148 . S
N598 C595 1.301 . S
N598 C596 1.317 . S
N599 C595 1.328 . S
N599 C597 1.350 . S
H600 C595 0.930 . S
H601 C596 0.930 . S
C602 O603 1.224 . S
C602 O621 1.247 . S
O603 C602 1.224 . S
N604 Co594 2.128 . S
N604 C605 1.355 . S
N604 C607 1.311 . S
C605 N604 1.355 . S
C605 C606 1.363 . S
C605 H617 0.929 . S
C606 C605 1.363 . S
C606 N608 1.375 . S
C606 H624 0.931 . S
C607 N604 1.311 . S
C607 N608 1.347 . S
C607 H618 0.929 . S
N608 C606 1.375 . S
N608 C607 1.347 . S
C609 C612 1.365 . S
C609 N614 1.328 . S
C609 H615 0.929 . S
C610 C611 1.362 . S
C610 C613 1.378 . S
C610 H625 0.929 . S
C611 C610 1.362 . S
C611 C612 1.366 . S
C612 C609 1.365 . S
C612 C611 1.366 . S
C612 H626 0.930 . S
C613 C610 1.378 . S
C613 N614 1.315 . S
C613 H616 0.930 . S
N614 Co594 2.194 . S
N614 C609 1.328 . S
N614 C613 1.315 . S
H615 C609 0.929 . S
H616 C613 0.930 . S
H617 C605 0.929 . S
H618 C607 0.929 . S
O619 Co594 2.351 . S
O619 C622 1.244 . S
O620 Co594 2.155 . S
O620 C622 1.240 . S
O621 Co594 2.096 . S
O621 C602 1.247 . S
C622 O619 1.244 . S
C622 O620 1.240 . S
H623 C597 0.931 . S
H624 C606 0.931 . S
H625 C610 0.929 . S
H626 C612 0.930 . S
Co627 N631 2.148 . S
Co627 N637 2.128 . S
Co627 N647 2.194 . S
Co627 O652 2.351 . S
Co627 O653 2.155 . S
Co627 O654 2.096 . S
C628 N631 1.301 . S
C628 N632 1.328 . S
C628 H633 0.930 . S
C629 C630 1.333 . S
C629 N631 1.317 . S
C629 H634 0.930 . S
C630 C629 1.333 . S
C630 N632 1.350 . S
C630 H656 0.931 . S
N631 Co627 2.148 . S
N631 C628 1.301 . S
N631 C629 1.317 . S
N632 C628 1.328 . S
N632 C630 1.350 . S
H633 C628 0.930 . S
H634 C629 0.930 . S
C635 O636 1.224 . S
C635 O654 1.247 . S
O636 C635 1.224 . S
N637 Co627 2.128 . S
N637 C638 1.355 . S
N637 C640 1.311 . S
C638 N637 1.355 . S
C638 C639 1.363 . S
C638 H650 0.929 . S
C639 C638 1.363 . S
C639 N641 1.375 . S
C639 H657 0.931 . S
C640 N637 1.311 . S
C640 N641 1.347 . S
C640 H651 0.929 . S
N641 C639 1.375 . S
N641 C640 1.347 . S
C642 C645 1.365 . S
C642 N647 1.328 1_455 S
C642 H648 0.929 . S
C643 C644 1.362 1_655 S
C643 C646 1.378 . S
C643 H658 0.929 . S
C644 C643 1.362 1_455 S
C644 C645 1.366 . S
C645 C642 1.365 . S
C645 C644 1.366 . S
C645 H659 0.930 . S
C646 C643 1.378 . S
C646 N647 1.315 . S
C646 H649 0.930 . S
N647 Co627 2.194 . S
N647 C642 1.328 1_655 S
N647 C646 1.315 . S
H648 C642 0.929 . S
H649 C646 0.930 . S
H650 C638 0.929 . S
H651 C640 0.929 . S
O652 Co627 2.351 . S
O652 C655 1.244 . S
O653 Co627 2.155 . S
O653 C655 1.240 . S
O654 Co627 2.096 . S
O654 C635 1.247 . S
C655 O652 1.244 . S
C655 O653 1.240 . S
H656 C630 0.931 . S
H657 C639 0.931 . S
H658 C643 0.929 . S
H659 C645 0.930 . S
Co660 N664 2.148 . S
Co660 N670 2.128 . S
Co660 N680 2.194 . S
Co660 O685 2.351 . S
Co660 O686 2.155 . S
Co660 O687 2.096 . S
C661 N664 1.301 . S
C661 N665 1.328 . S
C661 H666 0.930 . S
C662 C663 1.333 . S
C662 N664 1.317 . S
C662 H667 0.930 . S
C663 C662 1.333 . S
C663 N665 1.350 . S
C663 H689 0.931 . S
N664 Co660 2.148 . S
N664 C661 1.301 . S
N664 C662 1.317 . S
N665 C661 1.328 . S
N665 C663 1.350 . S
H666 C661 0.930 . S
H667 C662 0.930 . S
C668 O669 1.224 . S
C668 O687 1.247 . S
O669 C668 1.224 . S
N670 Co660 2.128 . S
N670 C671 1.355 . S
N670 C673 1.311 . S
C671 N670 1.355 . S
C671 C672 1.363 . S
C671 H683 0.929 . S
C672 C671 1.363 . S
C672 N674 1.375 . S
C672 H690 0.931 . S
C673 N670 1.311 . S
C673 N674 1.347 . S
C673 H684 0.929 . S
N674 C672 1.375 . S
N674 C673 1.347 . S
C675 C678 1.365 . S
C675 N680 1.328 . S
C675 H681 0.929 . S
C676 C677 1.362 . S
C676 C679 1.378 . S
C676 H691 0.929 . S
C677 C676 1.362 . S
C677 C678 1.366 . S
C678 C675 1.365 . S
C678 C677 1.366 . S
C678 H692 0.930 . S
C679 C676 1.378 . S
C679 N680 1.315 . S
C679 H682 0.930 . S
N680 Co660 2.194 . S
N680 C675 1.328 . S
N680 C679 1.315 . S
H681 C675 0.929 . S
H682 C679 0.930 . S
H683 C671 0.929 . S
H684 C673 0.929 . S
O685 Co660 2.351 . S
O685 C688 1.244 . S
O686 Co660 2.155 . S
O686 C688 1.240 . S
O687 Co660 2.096 . S
O687 C668 1.247 . S
C688 O685 1.244 . S
C688 O686 1.240 . S
H689 C663 0.931 . S
H690 C672 0.931 . S
H691 C676 0.929 . S
H692 C678 0.930 . S
Co693 N697 2.148 . S
Co693 N703 2.128 . S
Co693 N713 2.194 . S
Co693 O718 2.351 . S
Co693 O719 2.155 . S
Co693 O720 2.096 . S
C694 N697 1.301 . S
C694 N698 1.328 . S
C694 H699 0.930 . S
C695 C696 1.333 . S
C695 N697 1.317 . S
C695 H700 0.930 . S
C696 C695 1.333 . S
C696 N698 1.350 . S
C696 H722 0.931 . S
N697 Co693 2.148 . S
N697 C694 1.301 . S
N697 C695 1.317 . S
N698 C694 1.328 . S
N698 C696 1.350 . S
H699 C694 0.930 . S
H700 C695 0.930 . S
C701 O702 1.224 . S
C701 O720 1.247 . S
O702 C701 1.224 . S
N703 Co693 2.128 . S
N703 C704 1.355 . S
N703 C706 1.311 . S
C704 N703 1.355 . S
C704 C705 1.363 . S
C704 H716 0.929 . S
C705 C704 1.363 . S
C705 N707 1.375 . S
C705 H723 0.931 . S
C706 N703 1.311 . S
C706 N707 1.347 . S
C706 H717 0.929 . S
N707 C705 1.375 . S
N707 C706 1.347 . S
C708 C711 1.365 . S
C708 N713 1.328 . S
C708 H714 0.929 . S
C709 C710 1.362 . S
C709 C712 1.378 . S
C709 H724 0.929 . S
C710 C709 1.362 . S
C710 C711 1.366 . S
C711 C708 1.365 . S
C711 C710 1.366 . S
C711 H725 0.930 . S
C712 C709 1.378 . S
C712 N713 1.315 . S
C712 H715 0.930 . S
N713 Co693 2.194 . S
N713 C708 1.328 . S
N713 C712 1.315 . S
H714 C708 0.929 . S
H715 C712 0.930 . S
H716 C704 0.929 . S
H717 C706 0.929 . S
O718 Co693 2.351 . S
O718 C721 1.244 . S
O719 Co693 2.155 . S
O719 C721 1.240 . S
O720 Co693 2.096 . S
O720 C701 1.247 . S
C721 O718 1.244 . S
C721 O719 1.240 . S
H722 C696 0.931 . S
H723 C705 0.931 . S
H724 C709 0.929 . S
H725 C711 0.930 . S
Co726 N730 2.148 . S
Co726 N736 2.128 . S
Co726 N746 2.194 . S
Co726 O751 2.351 . S
Co726 O752 2.155 . S
Co726 O753 2.096 . S
C727 N730 1.301 . S
C727 N731 1.328 . S
C727 H732 0.930 . S
C728 C729 1.333 . S
C728 N730 1.317 . S
C728 H733 0.930 . S
C729 C728 1.333 . S
C729 N731 1.350 . S
C729 H755 0.931 . S
N730 Co726 2.148 . S
N730 C727 1.301 . S
N730 C728 1.317 . S
N731 C727 1.328 . S
N731 C729 1.350 . S
H732 C727 0.930 . S
H733 C728 0.930 . S
C734 O735 1.224 . S
C734 O753 1.247 . S
O735 C734 1.224 . S
N736 Co726 2.128 . S
N736 C737 1.355 . S
N736 C739 1.311 . S
C737 N736 1.355 . S
C737 C738 1.363 . S
C737 H749 0.929 . S
C738 C737 1.363 . S
C738 N740 1.375 . S
C738 H756 0.931 . S
C739 N736 1.311 . S
C739 N740 1.347 . S
C739 H750 0.929 . S
N740 C738 1.375 . S
N740 C739 1.347 . S
C741 C744 1.365 . S
C741 N746 1.328 . S
C741 H747 0.929 . S
C742 C743 1.362 . S
C742 C745 1.378 . S
C742 H757 0.929 . S
C743 C742 1.362 . S
C743 C744 1.366 . S
C744 C741 1.365 . S
C744 C743 1.366 . S
C744 H758 0.930 . S
C745 C742 1.378 . S
C745 N746 1.315 . S
C745 H748 0.930 . S
N746 Co726 2.194 . S
N746 C741 1.328 . S
N746 C745 1.315 . S
H747 C741 0.929 . S
H748 C745 0.930 . S
H749 C737 0.929 . S
H750 C739 0.929 . S
O751 Co726 2.351 . S
O751 C754 1.244 . S
O752 Co726 2.155 . S
O752 C754 1.240 . S
O753 Co726 2.096 . S
O753 C734 1.247 . S
C754 O751 1.244 . S
C754 O752 1.240 . S
H755 C729 0.931 . S
H756 C738 0.931 . S
H757 C742 0.929 . S
H758 C744 0.930 . S
Co759 N763 2.148 . S
Co759 N769 2.128 . S
Co759 N779 2.194 . S
Co759 O784 2.351 . S
Co759 O785 2.155 . S
Co759 O786 2.096 . S
C760 N763 1.301 . S
C760 N764 1.328 . S
C760 H765 0.930 . S
C761 C762 1.333 . S
C761 N763 1.317 . S
C761 H766 0.930 . S
C762 C761 1.333 . S
C762 N764 1.350 . S
C762 H788 0.931 . S
N763 Co759 2.148 . S
N763 C760 1.301 . S
N763 C761 1.317 . S
N764 C760 1.328 . S
N764 C762 1.350 . S
H765 C760 0.930 . S
H766 C761 0.930 . S
C767 O768 1.224 . S
C767 O786 1.247 . S
O768 C767 1.224 . S
N769 Co759 2.128 . S
N769 C770 1.355 . S
N769 C772 1.311 . S
C770 N769 1.355 . S
C770 C771 1.363 . S
C770 H782 0.929 . S
C771 C770 1.363 . S
C771 N773 1.375 . S
C771 H789 0.931 . S
C772 N769 1.311 . S
C772 N773 1.347 . S
C772 H783 0.929 . S
N773 C771 1.375 . S
N773 C772 1.347 . S
C774 C777 1.365 . S
C774 N779 1.328 . S
C774 H780 0.929 . S
C775 C776 1.362 . S
C775 C778 1.378 . S
C775 H790 0.929 . S
C776 C775 1.362 . S
C776 C777 1.366 . S
C777 C774 1.365 . S
C777 C776 1.366 . S
C777 H791 0.930 . S
C778 C775 1.378 . S
C778 N779 1.315 . S
C778 H781 0.930 . S
N779 Co759 2.194 . S
N779 C774 1.328 . S
N779 C778 1.315 . S
H780 C774 0.929 . S
H781 C778 0.930 . S
H782 C770 0.929 . S
H783 C772 0.929 . S
O784 Co759 2.351 . S
O784 C787 1.244 . S
O785 Co759 2.155 . S
O785 C787 1.240 . S
O786 Co759 2.096 . S
O786 C767 1.247 . S
C787 O784 1.244 . S
C787 O785 1.240 . S
H788 C762 0.931 . S
H789 C771 0.931 . S
H790 C775 0.929 . S
H791 C777 0.930 . S
Co792 N796 2.148 . S
Co792 N802 2.128 . S
Co792 N812 2.194 . S
Co792 O817 2.351 . S
Co792 O818 2.155 . S
Co792 O819 2.096 . S
C793 N796 1.301 . S
C793 N797 1.328 . S
C793 H798 0.930 . S
C794 C795 1.333 . S
C794 N796 1.317 . S
C794 H799 0.930 . S
C795 C794 1.333 . S
C795 N797 1.350 . S
C795 H821 0.931 . S
N796 Co792 2.148 . S
N796 C793 1.301 . S
N796 C794 1.317 . S
N797 C793 1.328 . S
N797 C795 1.350 . S
H798 C793 0.930 . S
H799 C794 0.930 . S
C800 O801 1.224 . S
C800 O819 1.247 . S
O801 C800 1.224 . S
N802 Co792 2.128 . S
N802 C803 1.355 . S
N802 C805 1.311 . S
C803 N802 1.355 . S
C803 C804 1.363 . S
C803 H815 0.929 . S
C804 C803 1.363 . S
C804 N806 1.375 . S
C804 H822 0.931 . S
C805 N802 1.311 . S
C805 N806 1.347 . S
C805 H816 0.929 . S
N806 C804 1.375 . S
N806 C805 1.347 . S
C807 C810 1.365 . S
C807 N812 1.328 . S
C807 H813 0.929 . S
C808 C809 1.362 . S
C808 C811 1.378 . S
C808 H823 0.929 . S
C809 C808 1.362 . S
C809 C810 1.366 . S
C810 C807 1.365 . S
C810 C809 1.366 . S
C810 H824 0.930 . S
C811 C808 1.378 . S
C811 N812 1.315 . S
C811 H814 0.930 . S
N812 Co792 2.194 . S
N812 C807 1.328 . S
N812 C811 1.315 . S
H813 C807 0.929 . S
H814 C811 0.930 . S
H815 C803 0.929 . S
H816 C805 0.929 . S
O817 Co792 2.351 . S
O817 C820 1.244 . S
O818 Co792 2.155 . S
O818 C820 1.240 . S
O819 Co792 2.096 . S
O819 C800 1.247 . S
C820 O817 1.244 . S
C820 O818 1.240 . S
H821 C795 0.931 . S
H822 C804 0.931 . S
H823 C808 0.929 . S
H824 C810 0.930 . S
Co825 N829 2.148 . S
Co825 N835 2.128 . S
Co825 N845 2.194 . S
Co825 O850 2.351 . S
Co825 O851 2.155 . S
Co825 O852 2.096 . S
C826 N829 1.301 . S
C826 N830 1.328 . S
C826 H831 0.930 . S
C827 C828 1.333 . S
C827 N829 1.317 . S
C827 H832 0.930 . S
C828 C827 1.333 . S
C828 N830 1.350 . S
C828 H854 0.931 . S
N829 Co825 2.148 . S
N829 C826 1.301 . S
N829 C827 1.317 . S
N830 C826 1.328 . S
N830 C828 1.350 . S
H831 C826 0.930 . S
H832 C827 0.930 . S
C833 O834 1.224 . S
C833 O852 1.247 . S
O834 C833 1.224 . S
N835 Co825 2.128 . S
N835 C836 1.355 . S
N835 C838 1.311 . S
C836 N835 1.355 . S
C836 C837 1.363 . S
C836 H848 0.929 . S
C837 C836 1.363 . S
C837 N839 1.375 . S
C837 H855 0.931 . S
C838 N835 1.311 . S
C838 N839 1.347 . S
C838 H849 0.929 . S
N839 C837 1.375 . S
N839 C838 1.347 . S
C840 C843 1.365 . S
C840 N845 1.328 . S
C840 H846 0.929 . S
C841 C842 1.362 . S
C841 C844 1.378 . S
C841 H856 0.929 . S
C842 C841 1.362 . S
C842 C843 1.366 . S
C843 C840 1.365 . S
C843 C842 1.366 . S
C843 H857 0.930 . S
C844 C841 1.378 . S
C844 N845 1.315 . S
C844 H847 0.930 . S
N845 Co825 2.194 . S
N845 C840 1.328 . S
N845 C844 1.315 . S
H846 C840 0.929 . S
H847 C844 0.930 . S
H848 C836 0.929 . S
H849 C838 0.929 . S
O850 Co825 2.351 . S
O850 C853 1.244 . S
O851 Co825 2.155 . S
O851 C853 1.240 . S
O852 Co825 2.096 . S
O852 C833 1.247 . S
C853 O850 1.244 . S
C853 O851 1.240 . S
H854 C828 0.931 . S
H855 C837 0.931 . S
H856 C841 0.929 . S
H857 C843 0.930 . S
Co858 N862 2.148 . S
Co858 N868 2.128 . S
Co858 N878 2.194 . S
Co858 O883 2.351 . S
Co858 O884 2.155 . S
Co858 O885 2.096 . S
C859 N862 1.301 . S
C859 N863 1.328 . S
C859 H864 0.930 . S
C860 C861 1.333 . S
C860 N862 1.317 . S
C860 H865 0.930 . S
C861 C860 1.333 . S
C861 N863 1.350 . S
C861 H887 0.931 . S
N862 Co858 2.148 . S
N862 C859 1.301 . S
N862 C860 1.317 . S
N863 C859 1.328 . S
N863 C861 1.350 . S
H864 C859 0.930 . S
H865 C860 0.930 . S
C866 O867 1.224 . S
C866 O885 1.247 . S
O867 C866 1.224 . S
N868 Co858 2.128 . S
N868 C869 1.355 . S
N868 C871 1.311 . S
C869 N868 1.355 . S
C869 C870 1.363 1_655 S
C869 H881 0.929 . S
C870 C869 1.363 1_455 S
C870 N872 1.375 . S
C870 H888 0.931 . S
C871 N868 1.311 . S
C871 N872 1.347 1_655 S
C871 H882 0.929 . S
N872 C870 1.375 . S
N872 C871 1.347 1_455 S
C873 C876 1.365 . S
C873 N878 1.328 . S
C873 H879 0.929 . S
C874 C875 1.362 . S
C874 C877 1.378 . S
C874 H889 0.929 1_655 S
C875 C874 1.362 . S
C875 C876 1.366 . S
C876 C873 1.365 . S
C876 C875 1.366 . S
C876 H890 0.930 . S
C877 C874 1.378 . S
C877 N878 1.315 . S
C877 H880 0.930 . S
N878 Co858 2.194 . S
N878 C873 1.328 . S
N878 C877 1.315 . S
H879 C873 0.929 . S
H880 C877 0.930 . S
H881 C869 0.929 . S
H882 C871 0.929 . S
O883 Co858 2.351 . S
O883 C886 1.244 . S
O884 Co858 2.155 . S
O884 C886 1.240 . S
O885 Co858 2.096 . S
O885 C866 1.247 . S
C886 O883 1.244 . S
C886 O884 1.240 . S
H887 C861 0.931 . S
H888 C870 0.931 . S
H889 C874 0.929 1_455 S
H890 C876 0.930 . S
Co891 N895 2.148 . S
Co891 N901 2.128 . S
Co891 N911 2.194 . S
Co891 O916 2.351 . S
Co891 O917 2.155 . S
Co891 O918 2.096 . S
C892 N895 1.301 . S
C892 N896 1.328 . S
C892 H897 0.930 . S
C893 C894 1.333 . S
C893 N895 1.317 . S
C893 H898 0.930 . S
C894 C893 1.333 . S
C894 N896 1.350 . S
C894 H920 0.931 . S
N895 Co891 2.148 . S
N895 C892 1.301 . S
N895 C893 1.317 . S
N896 C892 1.328 . S
N896 C894 1.350 . S
H897 C892 0.930 . S
H898 C893 0.930 . S
C899 O900 1.224 . S
C899 O918 1.247 . S
O900 C899 1.224 . S
N901 Co891 2.128 . S
N901 C902 1.355 . S
N901 C904 1.311 . S
C902 N901 1.355 . S
C902 C903 1.363 . S
C902 H914 0.929 . S
C903 C902 1.363 . S
C903 N905 1.375 . S
C903 H921 0.931 . S
C904 N901 1.311 . S
C904 N905 1.347 . S
C904 H915 0.929 . S
N905 C903 1.375 . S
N905 C904 1.347 . S
C906 C909 1.365 . S
C906 N911 1.328 . S
C906 H912 0.929 . S
C907 C908 1.362 . S
C907 C910 1.378 . S
C907 H922 0.929 . S
C908 C907 1.362 . S
C908 C909 1.366 . S
C909 C906 1.365 . S
C909 C908 1.366 . S
C909 H923 0.930 . S
C910 C907 1.378 . S
C910 N911 1.315 . S
C910 H913 0.930 . S
N911 Co891 2.194 . S
N911 C906 1.328 . S
N911 C910 1.315 . S
H912 C906 0.929 . S
H913 C910 0.930 . S
H914 C902 0.929 . S
H915 C904 0.929 . S
O916 Co891 2.351 . S
O916 C919 1.244 . S
O917 Co891 2.155 . S
O917 C919 1.240 . S
O918 Co891 2.096 . S
O918 C899 1.247 . S
C919 O916 1.244 . S
C919 O917 1.240 . S
H920 C894 0.931 . S
H921 C903 0.931 . S
H922 C907 0.929 . S
H923 C909 0.930 . S
Co924 N928 2.148 . S
Co924 N934 2.128 . S
Co924 N944 2.194 . S
Co924 O949 2.351 . S
Co924 O950 2.155 . S
Co924 O951 2.096 . S
C925 N928 1.301 . S
C925 N929 1.328 . S
C925 H930 0.930 . S
C926 C927 1.333 . S
C926 N928 1.317 . S
C926 H931 0.930 . S
C927 C926 1.333 . S
C927 N929 1.350 . S
C927 H953 0.931 . S
N928 Co924 2.148 . S
N928 C925 1.301 . S
N928 C926 1.317 . S
N929 C925 1.328 . S
N929 C927 1.350 . S
H930 C925 0.930 . S
H931 C926 0.930 . S
C932 O933 1.224 . S
C932 O951 1.247 . S
O933 C932 1.224 . S
N934 Co924 2.128 . S
N934 C935 1.355 . S
N934 C937 1.311 . S
C935 N934 1.355 . S
C935 C936 1.363 . S
C935 H947 0.929 . S
C936 C935 1.363 . S
C936 N938 1.375 . S
C936 H954 0.931 . S
C937 N934 1.311 . S
C937 N938 1.347 . S
C937 H948 0.929 . S
N938 C936 1.375 . S
N938 C937 1.347 . S
C939 C942 1.365 . S
C939 N944 1.328 . S
C939 H945 0.929 . S
C940 C941 1.362 . S
C940 C943 1.378 . S
C940 H955 0.929 . S
C941 C940 1.362 . S
C941 C942 1.366 . S
C942 C939 1.365 . S
C942 C941 1.366 . S
C942 H956 0.930 . S
C943 C940 1.378 . S
C943 N944 1.315 . S
C943 H946 0.930 . S
N944 Co924 2.194 . S
N944 C939 1.328 . S
N944 C943 1.315 . S
H945 C939 0.929 . S
H946 C943 0.930 . S
H947 C935 0.929 . S
H948 C937 0.929 . S
O949 Co924 2.351 . S
O949 C952 1.244 . S
O950 Co924 2.155 . S
O950 C952 1.240 . S
O951 Co924 2.096 . S
O951 C932 1.247 . S
C952 O949 1.244 . S
C952 O950 1.240 . S
H953 C927 0.931 . S
H954 C936 0.931 . S
H955 C940 0.929 . S
H956 C942 0.930 . S
Co957 N961 2.148 . S
Co957 N967 2.128 . S
Co957 N977 2.194 . S
Co957 O982 2.351 . S
Co957 O983 2.155 . S
Co957 O984 2.096 . S
C958 N961 1.301 . S
C958 N962 1.328 . S
C958 H963 0.930 . S
C959 C960 1.333 . S
C959 N961 1.317 . S
C959 H964 0.930 . S
C960 C959 1.333 . S
C960 N962 1.350 . S
C960 H986 0.931 . S
N961 Co957 2.148 . S
N961 C958 1.301 . S
N961 C959 1.317 . S
N962 C958 1.328 . S
N962 C960 1.350 . S
H963 C958 0.930 . S
H964 C959 0.930 . S
C965 O966 1.224 . S
C965 O984 1.247 . S
O966 C965 1.224 . S
N967 Co957 2.128 . S
N967 C968 1.355 . S
N967 C970 1.311 . S
C968 N967 1.355 . S
C968 C969 1.363 . S
C968 H980 0.929 . S
C969 C968 1.363 . S
C969 N971 1.375 . S
C969 H987 0.931 . S
C970 N967 1.311 . S
C970 N971 1.347 . S
C970 H981 0.929 . S
N971 C969 1.375 . S
N971 C970 1.347 . S
C972 C975 1.365 . S
C972 N977 1.328 . S
C972 H978 0.929 . S
C973 C974 1.362 . S
C973 C976 1.378 . S
C973 H988 0.929 . S
C974 C973 1.362 . S
C974 C975 1.366 . S
C975 C972 1.365 . S
C975 C974 1.366 . S
C975 H989 0.930 . S
C976 C973 1.378 . S
C976 N977 1.315 . S
C976 H979 0.930 . S
N977 Co957 2.194 . S
N977 C972 1.328 . S
N977 C976 1.315 . S
H978 C972 0.929 . S
H979 C976 0.930 . S
H980 C968 0.929 . S
H981 C970 0.929 . S
O982 Co957 2.351 . S
O982 C985 1.244 . S
O983 Co957 2.155 . S
O983 C985 1.240 . S
O984 Co957 2.096 . S
O984 C965 1.247 . S
C985 O982 1.244 . S
C985 O983 1.240 . S
H986 C960 0.931 . S
H987 C969 0.931 . S
H988 C973 0.929 . S
H989 C975 0.930 . S
Co990 N994 2.148 . S
Co990 N1000 2.128 . S
Co990 N1010 2.194 . S
Co990 O1015 2.351 . S
Co990 O1016 2.155 . S
Co990 O1017 2.096 . S
C991 N994 1.301 . S
C991 N995 1.328 . S
C991 H996 0.930 . S
C992 C993 1.333 . S
C992 N994 1.317 . S
C992 H997 0.930 . S
C993 C992 1.333 . S
C993 N995 1.350 . S
C993 H1019 0.931 . S
N994 Co990 2.148 . S
N994 C991 1.301 . S
N994 C992 1.317 . S
N995 C991 1.328 . S
N995 C993 1.350 . S
H996 C991 0.930 . S
H997 C992 0.930 . S
C998 O999 1.224 . S
C998 O1017 1.247 . S
O999 C998 1.224 . S
N1000 Co990 2.128 . S
N1000 C1001 1.355 . S
N1000 C1003 1.311 . S
C1001 N1000 1.355 . S
C1001 C1002 1.363 1_655 S
C1001 H1013 0.929 . S
C1002 C1001 1.363 1_455 S
C1002 N1004 1.375 . S
C1002 H1020 0.931 . S
C1003 N1000 1.311 . S
C1003 N1004 1.347 1_655 S
C1003 H1014 0.929 . S
N1004 C1002 1.375 . S
N1004 C1003 1.347 1_455 S
C1005 C1008 1.365 . S
C1005 N1010 1.328 . S
C1005 H1011 0.929 . S
C1006 C1007 1.362 . S
C1006 C1009 1.378 . S
C1006 H1021 0.929 1_655 S
C1007 C1006 1.362 . S
C1007 C1008 1.366 . S
C1008 C1005 1.365 . S
C1008 C1007 1.366 . S
C1008 H1022 0.930 . S
C1009 C1006 1.378 . S
C1009 N1010 1.315 . S
C1009 H1012 0.930 . S
N1010 Co990 2.194 . S
N1010 C1005 1.328 . S
N1010 C1009 1.315 . S
H1011 C1005 0.929 . S
H1012 C1009 0.930 . S
H1013 C1001 0.929 . S
H1014 C1003 0.929 . S
O1015 Co990 2.351 . S
O1015 C1018 1.244 . S
O1016 Co990 2.155 . S
O1016 C1018 1.240 . S
O1017 Co990 2.096 . S
O1017 C998 1.247 . S
C1018 O1015 1.244 . S
C1018 O1016 1.240 . S
H1019 C993 0.931 . S
H1020 C1002 0.931 . S
H1021 C1006 0.929 1_455 S
H1022 C1008 0.930 . S
Co1023 N1027 2.148 . S
Co1023 N1033 2.128 . S
Co1023 N1043 2.194 . S
Co1023 O1048 2.351 . S
Co1023 O1049 2.155 . S
Co1023 O1050 2.096 . S
C1024 N1027 1.301 . S
C1024 N1028 1.328 . S
C1024 H1029 0.930 . S
C1025 C1026 1.333 . S
C1025 N1027 1.317 . S
C1025 H1030 0.930 . S
C1026 C1025 1.333 . S
C1026 N1028 1.350 . S
C1026 H1052 0.931 . S
N1027 Co1023 2.148 . S
N1027 C1024 1.301 . S
N1027 C1025 1.317 . S
N1028 C1024 1.328 . S
N1028 C1026 1.350 . S
H1029 C1024 0.930 . S
H1030 C1025 0.930 . S
C1031 O1032 1.224 . S
C1031 O1050 1.247 . S
O1032 C1031 1.224 . S
N1033 Co1023 2.128 . S
N1033 C1034 1.355 . S
N1033 C1036 1.311 . S
C1034 N1033 1.355 . S
C1034 C1035 1.363 . S
C1034 H1046 0.929 . S
C1035 C1034 1.363 . S
C1035 N1037 1.375 . S
C1035 H1053 0.931 . S
C1036 N1033 1.311 . S
C1036 N1037 1.347 . S
C1036 H1047 0.929 . S
N1037 C1035 1.375 . S
N1037 C1036 1.347 . S
C1038 C1041 1.365 . S
C1038 N1043 1.328 . S
C1038 H1044 0.929 . S
C1039 C1040 1.362 . S
C1039 C1042 1.378 . S
C1039 H1054 0.929 . S
C1040 C1039 1.362 . S
C1040 C1041 1.366 . S
C1041 C1038 1.365 . S
C1041 C1040 1.366 . S
C1041 H1055 0.930 . S
C1042 C1039 1.378 . S
C1042 N1043 1.315 . S
C1042 H1045 0.930 . S
N1043 Co1023 2.194 . S
N1043 C1038 1.328 . S
N1043 C1042 1.315 . S
H1044 C1038 0.929 . S
H1045 C1042 0.930 . S
H1046 C1034 0.929 . S
H1047 C1036 0.929 . S
O1048 Co1023 2.351 . S
O1048 C1051 1.244 . S
O1049 Co1023 2.155 . S
O1049 C1051 1.240 . S
O1050 Co1023 2.096 . S
O1050 C1031 1.247 . S
C1051 O1048 1.244 . S
C1051 O1049 1.240 . S
H1052 C1026 0.931 . S
H1053 C1035 0.931 . S
H1054 C1039 0.929 . S
H1055 C1041 0.930 . S
Co1056 N1060 2.148 . S
Co1056 N1066 2.128 . S
Co1056 N1076 2.194 . S
Co1056 O1081 2.351 . S
Co1056 O1082 2.155 . S
Co1056 O1083 2.096 . S
C1057 N1060 1.301 . S
C1057 N1061 1.328 . S
C1057 H1062 0.930 . S
C1058 C1059 1.333 . S
C1058 N1060 1.317 . S
C1058 H1063 0.930 . S
C1059 C1058 1.333 . S
C1059 N1061 1.350 . S
C1059 H1085 0.931 . S
N1060 Co1056 2.148 . S
N1060 C1057 1.301 . S
N1060 C1058 1.317 . S
N1061 C1057 1.328 . S
N1061 C1059 1.350 . S
H1062 C1057 0.930 . S
H1063 C1058 0.930 . S
C1064 O1065 1.224 . S
C1064 O1083 1.247 . S
O1065 C1064 1.224 . S
N1066 Co1056 2.128 . S
N1066 C1067 1.355 . S
N1066 C1069 1.311 . S
C1067 N1066 1.355 . S
C1067 C1068 1.363 . S
C1067 H1079 0.929 . S
C1068 C1067 1.363 . S
C1068 N1070 1.375 . S
C1068 H1086 0.931 . S
C1069 N1066 1.311 . S
C1069 N1070 1.347 . S
C1069 H1080 0.929 . S
N1070 C1068 1.375 . S
N1070 C1069 1.347 . S
C1071 C1074 1.365 . S
C1071 N1076 1.328 . S
C1071 H1077 0.929 . S
C1072 C1073 1.362 . S
C1072 C1075 1.378 . S
C1072 H1087 0.929 . S
C1073 C1072 1.362 . S
C1073 C1074 1.366 . S
C1074 C1071 1.365 . S
C1074 C1073 1.366 . S
C1074 H1088 0.930 . S
C1075 C1072 1.378 . S
C1075 N1076 1.315 . S
C1075 H1078 0.930 . S
N1076 Co1056 2.194 . S
N1076 C1071 1.328 . S
N1076 C1075 1.315 . S
H1077 C1071 0.929 . S
H1078 C1075 0.930 . S
H1079 C1067 0.929 . S
H1080 C1069 0.929 . S
O1081 Co1056 2.351 . S
O1081 C1084 1.244 . S
O1082 Co1056 2.155 . S
O1082 C1084 1.240 . S
O1083 Co1056 2.096 . S
O1083 C1064 1.247 . S
C1084 O1081 1.244 . S
C1084 O1082 1.240 . S
H1085 C1059 0.931 . S
H1086 C1068 0.931 . S
H1087 C1072 0.929 . S
H1088 C1074 0.930 . S
Co1089 N1093 2.148 . S
Co1089 N1099 2.128 . S
Co1089 N1109 2.194 . S
Co1089 O1114 2.351 . S
Co1089 O1115 2.155 . S
Co1089 O1116 2.096 . S
C1090 N1093 1.301 . S
C1090 N1094 1.328 . S
C1090 H1095 0.930 . S
C1091 C1092 1.333 . S
C1091 N1093 1.317 . S
C1091 H1096 0.930 . S
C1092 C1091 1.333 . S
C1092 N1094 1.350 . S
C1092 H1118 0.931 . S
N1093 Co1089 2.148 . S
N1093 C1090 1.301 . S
N1093 C1091 1.317 . S
N1094 C1090 1.328 . S
N1094 C1092 1.350 . S
H1095 C1090 0.930 . S
H1096 C1091 0.930 . S
C1097 O1098 1.224 . S
C1097 O1116 1.247 . S
O1098 C1097 1.224 . S
N1099 Co1089 2.128 . S
N1099 C1100 1.355 . S
N1099 C1102 1.311 . S
C1100 N1099 1.355 . S
C1100 C1101 1.363 . S
C1100 H1112 0.929 . S
C1101 C1100 1.363 . S
C1101 N1103 1.375 . S
C1101 H1119 0.931 . S
C1102 N1099 1.311 . S
C1102 N1103 1.347 . S
C1102 H1113 0.929 . S
N1103 C1101 1.375 . S
N1103 C1102 1.347 . S
C1104 C1107 1.365 . S
C1104 N1109 1.328 . S
C1104 H1110 0.929 . S
C1105 C1106 1.362 . S
C1105 C1108 1.378 . S
C1105 H1120 0.929 . S
C1106 C1105 1.362 . S
C1106 C1107 1.366 . S
C1107 C1104 1.365 . S
C1107 C1106 1.366 . S
C1107 H1121 0.930 . S
C1108 C1105 1.378 . S
C1108 N1109 1.315 . S
C1108 H1111 0.930 . S
N1109 Co1089 2.194 . S
N1109 C1104 1.328 . S
N1109 C1108 1.315 . S
H1110 C1104 0.929 . S
H1111 C1108 0.930 . S
H1112 C1100 0.929 . S
H1113 C1102 0.929 . S
O1114 Co1089 2.351 . S
O1114 C1117 1.244 . S
O1115 Co1089 2.155 . S
O1115 C1117 1.240 . S
O1116 Co1089 2.096 . S
O1116 C1097 1.247 . S
C1117 O1114 1.244 . S
C1117 O1115 1.240 . S
H1118 C1092 0.931 . S
H1119 C1101 0.931 . S
H1120 C1105 0.929 . S
H1121 C1107 0.930 . S
Co1122 N1126 2.148 . S
Co1122 N1132 2.128 . S
Co1122 N1142 2.194 . S
Co1122 O1147 2.351 . S
Co1122 O1148 2.155 . S
Co1122 O1149 2.096 . S
C1123 N1126 1.301 . S
C1123 N1127 1.328 . S
C1123 H1128 0.930 . S
C1124 C1125 1.333 . S
C1124 N1126 1.317 . S
C1124 H1129 0.930 . S
C1125 C1124 1.333 . S
C1125 N1127 1.350 . S
C1125 H1151 0.931 . S
N1126 Co1122 2.148 . S
N1126 C1123 1.301 . S
N1126 C1124 1.317 . S
N1127 C1123 1.328 . S
N1127 C1125 1.350 . S
H1128 C1123 0.930 . S
H1129 C1124 0.930 . S
C1130 O1131 1.224 . S
C1130 O1149 1.247 . S
O1131 C1130 1.224 . S
N1132 Co1122 2.128 . S
N1132 C1133 1.355 . S
N1132 C1135 1.311 . S
C1133 N1132 1.355 . S
C1133 C1134 1.363 . S
C1133 H1145 0.929 . S
C1134 C1133 1.363 . S
C1134 N1136 1.375 . S
C1134 H1152 0.931 . S
C1135 N1132 1.311 . S
C1135 N1136 1.347 . S
C1135 H1146 0.929 . S
N1136 C1134 1.375 . S
N1136 C1135 1.347 . S
C1137 C1140 1.365 . S
C1137 N1142 1.328 1_556 S
C1137 H1143 0.929 . S
C1138 C1139 1.362 1_554 S
C1138 C1141 1.378 . S
C1138 H1153 0.929 . S
C1139 C1138 1.362 1_556 S
C1139 C1140 1.366 . S
C1140 C1137 1.365 . S
C1140 C1139 1.366 . S
C1140 H1154 0.930 . S
C1141 C1138 1.378 . S
C1141 N1142 1.315 . S
C1141 H1144 0.930 . S
N1142 Co1122 2.194 . S
N1142 C1137 1.328 1_554 S
N1142 C1141 1.315 . S
H1143 C1137 0.929 . S
H1144 C1141 0.930 . S
H1145 C1133 0.929 . S
H1146 C1135 0.929 . S
O1147 Co1122 2.351 . S
O1147 C1150 1.244 . S
O1148 Co1122 2.155 . S
O1148 C1150 1.240 . S
O1149 Co1122 2.096 . S
O1149 C1130 1.247 . S
C1150 O1147 1.244 . S
C1150 O1148 1.240 . S
H1151 C1125 0.931 . S
H1152 C1134 0.931 . S
H1153 C1138 0.929 . S
H1154 C1140 0.930 . S
Co1155 N1159 2.148 . S
Co1155 N1165 2.128 . S
Co1155 N1175 2.194 . S
Co1155 O1180 2.351 . S
Co1155 O1181 2.155 . S
Co1155 O1182 2.096 . S
C1156 N1159 1.301 . S
C1156 N1160 1.328 . S
C1156 H1161 0.930 . S
C1157 C1158 1.333 . S
C1157 N1159 1.317 . S
C1157 H1162 0.930 . S
C1158 C1157 1.333 . S
C1158 N1160 1.350 . S
C1158 H1184 0.931 . S
N1159 Co1155 2.148 . S
N1159 C1156 1.301 . S
N1159 C1157 1.317 . S
N1160 C1156 1.328 . S
N1160 C1158 1.350 . S
H1161 C1156 0.930 . S
H1162 C1157 0.930 . S
C1163 O1164 1.224 . S
C1163 O1182 1.247 . S
O1164 C1163 1.224 . S
N1165 Co1155 2.128 . S
N1165 C1166 1.355 . S
N1165 C1168 1.311 . S
C1166 N1165 1.355 . S
C1166 C1167 1.363 . S
C1166 H1178 0.929 . S
C1167 C1166 1.363 . S
C1167 N1169 1.375 . S
C1167 H1185 0.931 . S
C1168 N1165 1.311 . S
C1168 N1169 1.347 . S
C1168 H1179 0.929 . S
N1169 C1167 1.375 . S
N1169 C1168 1.347 . S
C1170 C1173 1.365 . S
C1170 N1175 1.328 . S
C1170 H1176 0.929 . S
C1171 C1172 1.362 . S
C1171 C1174 1.378 . S
C1171 H1186 0.929 . S
C1172 C1171 1.362 . S
C1172 C1173 1.366 . S
C1173 C1170 1.365 . S
C1173 C1172 1.366 . S
C1173 H1187 0.930 . S
C1174 C1171 1.378 . S
C1174 N1175 1.315 . S
C1174 H1177 0.930 . S
N1175 Co1155 2.194 . S
N1175 C1170 1.328 . S
N1175 C1174 1.315 . S
H1176 C1170 0.929 . S
H1177 C1174 0.930 . S
H1178 C1166 0.929 . S
H1179 C1168 0.929 . S
O1180 Co1155 2.351 . S
O1180 C1183 1.244 . S
O1181 Co1155 2.155 . S
O1181 C1183 1.240 . S
O1182 Co1155 2.096 . S
O1182 C1163 1.247 . S
C1183 O1180 1.244 . S
C1183 O1181 1.240 . S
H1184 C1158 0.931 . S
H1185 C1167 0.931 . S
H1186 C1171 0.929 . S
H1187 C1173 0.930 . S
Co1188 N1192 2.148 . S
Co1188 N1198 2.128 . S
Co1188 N1208 2.194 . S
Co1188 O1213 2.351 . S
Co1188 O1214 2.155 . S
Co1188 O1215 2.096 . S
C1189 N1192 1.301 . S
C1189 N1193 1.328 . S
C1189 H1194 0.930 . S
C1190 C1191 1.333 . S
C1190 N1192 1.317 . S
C1190 H1195 0.930 . S
C1191 C1190 1.333 . S
C1191 N1193 1.350 . S
C1191 H1217 0.931 . S
N1192 Co1188 2.148 . S
N1192 C1189 1.301 . S
N1192 C1190 1.317 . S
N1193 C1189 1.328 . S
N1193 C1191 1.350 . S
H1194 C1189 0.930 . S
H1195 C1190 0.930 . S
C1196 O1197 1.224 . S
C1196 O1215 1.247 . S
O1197 C1196 1.224 . S
N1198 Co1188 2.128 . S
N1198 C1199 1.355 . S
N1198 C1201 1.311 . S
C1199 N1198 1.355 . S
C1199 C1200 1.363 . S
C1199 H1211 0.929 . S
C1200 C1199 1.363 . S
C1200 N1202 1.375 . S
C1200 H1218 0.931 . S
C1201 N1198 1.311 . S
C1201 N1202 1.347 . S
C1201 H1212 0.929 . S
N1202 C1200 1.375 . S
N1202 C1201 1.347 . S
C1203 C1206 1.365 . S
C1203 N1208 1.328 1_554 S
C1203 H1209 0.929 . S
C1204 C1205 1.362 1_556 S
C1204 C1207 1.378 . S
C1204 H1219 0.929 . S
C1205 C1204 1.362 1_554 S
C1205 C1206 1.366 . S
C1206 C1203 1.365 . S
C1206 C1205 1.366 . S
C1206 H1220 0.930 . S
C1207 C1204 1.378 . S
C1207 N1208 1.315 . S
C1207 H1210 0.930 . S
N1208 Co1188 2.194 . S
N1208 C1203 1.328 1_556 S
N1208 C1207 1.315 . S
H1209 C1203 0.929 . S
H1210 C1207 0.930 . S
H1211 C1199 0.929 . S
H1212 C1201 0.929 . S
O1213 Co1188 2.351 . S
O1213 C1216 1.244 . S
O1214 Co1188 2.155 . S
O1214 C1216 1.240 . S
O1215 Co1188 2.096 . S
O1215 C1196 1.247 . S
C1216 O1213 1.244 . S
C1216 O1214 1.240 . S
H1217 C1191 0.931 . S
H1218 C1200 0.931 . S
H1219 C1204 0.929 . S
H1220 C1206 0.930 . S
Co1221 N1225 2.148 . S
Co1221 N1231 2.128 . S
Co1221 N1241 2.194 . S
Co1221 O1246 2.351 . S
Co1221 O1247 2.155 . S
Co1221 O1248 2.096 . S
C1222 N1225 1.301 . S
C1222 N1226 1.328 . S
C1222 H1227 0.930 . S
C1223 C1224 1.333 . S
C1223 N1225 1.317 . S
C1223 H1228 0.930 . S
C1224 C1223 1.333 . S
C1224 N1226 1.350 . S
C1224 H1250 0.931 . S
N1225 Co1221 2.148 . S
N1225 C1222 1.301 . S
N1225 C1223 1.317 . S
N1226 C1222 1.328 . S
N1226 C1224 1.350 . S
H1227 C1222 0.930 . S
H1228 C1223 0.930 . S
C1229 O1230 1.224 . S
C1229 O1248 1.247 . S
O1230 C1229 1.224 . S
N1231 Co1221 2.128 . S
N1231 C1232 1.355 . S
N1231 C1234 1.311 . S
C1232 N1231 1.355 . S
C1232 C1233 1.363 . S
C1232 H1244 0.929 . S
C1233 C1232 1.363 . S
C1233 N1235 1.375 . S
C1233 H1251 0.931 . S
C1234 N1231 1.311 . S
C1234 N1235 1.347 . S
C1234 H1245 0.929 . S
N1235 C1233 1.375 . S
N1235 C1234 1.347 . S
C1236 C1239 1.365 . S
C1236 N1241 1.328 . S
C1236 H1242 0.929 . S
C1237 C1238 1.362 . S
C1237 C1240 1.378 . S
C1237 H1252 0.929 . S
C1238 C1237 1.362 . S
C1238 C1239 1.366 . S
C1239 C1236 1.365 . S
C1239 C1238 1.366 . S
C1239 H1253 0.930 . S
C1240 C1237 1.378 . S
C1240 N1241 1.315 . S
C1240 H1243 0.930 . S
N1241 Co1221 2.194 . S
N1241 C1236 1.328 . S
N1241 C1240 1.315 . S
H1242 C1236 0.929 . S
H1243 C1240 0.930 . S
H1244 C1232 0.929 . S
H1245 C1234 0.929 . S
O1246 Co1221 2.351 . S
O1246 C1249 1.244 . S
O1247 Co1221 2.155 . S
O1247 C1249 1.240 . S
O1248 Co1221 2.096 . S
O1248 C1229 1.247 . S
C1249 O1246 1.244 . S
C1249 O1247 1.240 . S
H1250 C1224 0.931 . S
H1251 C1233 0.931 . S
H1252 C1237 0.929 . S
H1253 C1239 0.930 . S
Co1254 N1258 2.148 . S
Co1254 N1264 2.128 . S
Co1254 N1274 2.194 . S
Co1254 O1279 2.351 . S
Co1254 O1280 2.155 . S
Co1254 O1281 2.096 . S
C1255 N1258 1.301 . S
C1255 N1259 1.328 . S
C1255 H1260 0.930 . S
C1256 C1257 1.333 . S
C1256 N1258 1.317 . S
C1256 H1261 0.930 . S
C1257 C1256 1.333 . S
C1257 N1259 1.350 . S
C1257 H1283 0.931 . S
N1258 Co1254 2.148 . S
N1258 C1255 1.301 . S
N1258 C1256 1.317 . S
N1259 C1255 1.328 . S
N1259 C1257 1.350 . S
H1260 C1255 0.930 . S
H1261 C1256 0.930 . S
C1262 O1263 1.224 . S
C1262 O1281 1.247 . S
O1263 C1262 1.224 . S
N1264 Co1254 2.128 . S
N1264 C1265 1.355 . S
N1264 C1267 1.311 . S
C1265 N1264 1.355 . S
C1265 C1266 1.363 . S
C1265 H1277 0.929 . S
C1266 C1265 1.363 . S
C1266 N1268 1.375 . S
C1266 H1284 0.931 . S
C1267 N1264 1.311 . S
C1267 N1268 1.347 . S
C1267 H1278 0.929 . S
N1268 C1266 1.375 . S
N1268 C1267 1.347 . S
C1269 C1272 1.365 . S
C1269 N1274 1.328 . S
C1269 H1275 0.929 . S
C1270 C1271 1.362 . S
C1270 C1273 1.378 . S
C1270 H1285 0.929 . S
C1271 C1270 1.362 . S
C1271 C1272 1.366 . S
C1272 C1269 1.365 . S
C1272 C1271 1.366 . S
C1272 H1286 0.930 . S
C1273 C1270 1.378 . S
C1273 N1274 1.315 . S
C1273 H1276 0.930 . S
N1274 Co1254 2.194 . S
N1274 C1269 1.328 . S
N1274 C1273 1.315 . S
H1275 C1269 0.929 . S
H1276 C1273 0.930 . S
H1277 C1265 0.929 . S
H1278 C1267 0.929 . S
O1279 Co1254 2.351 . S
O1279 C1282 1.244 . S
O1280 Co1254 2.155 . S
O1280 C1282 1.240 . S
O1281 Co1254 2.096 . S
O1281 C1262 1.247 . S
C1282 O1279 1.244 . S
C1282 O1280 1.240 . S
H1283 C1257 0.931 . S
H1284 C1266 0.931 . S
H1285 C1270 0.929 . S
H1286 C1272 0.930 . S
Co1287 N1291 2.148 . S
Co1287 N1297 2.128 . S
Co1287 N1307 2.194 . S
Co1287 O1312 2.351 . S
Co1287 O1313 2.155 . S
Co1287 O1314 2.096 . S
C1288 N1291 1.301 . S
C1288 N1292 1.328 . S
C1288 H1293 0.930 . S
C1289 C1290 1.333 . S
C1289 N1291 1.317 . S
C1289 H1294 0.930 . S
C1290 C1289 1.333 . S
C1290 N1292 1.350 . S
C1290 H1316 0.931 . S
N1291 Co1287 2.148 . S
N1291 C1288 1.301 . S
N1291 C1289 1.317 . S
N1292 C1288 1.328 . S
N1292 C1290 1.350 . S
H1293 C1288 0.930 . S
H1294 C1289 0.930 . S
C1295 O1296 1.224 . S
C1295 O1314 1.247 . S
O1296 C1295 1.224 . S
N1297 Co1287 2.128 . S
N1297 C1298 1.355 . S
N1297 C1300 1.311 . S
C1298 N1297 1.355 . S
C1298 C1299 1.363 . S
C1298 H1310 0.929 . S
C1299 C1298 1.363 . S
C1299 N1301 1.375 . S
C1299 H1317 0.931 . S
C1300 N1297 1.311 . S
C1300 N1301 1.347 . S
C1300 H1311 0.929 . S
N1301 C1299 1.375 . S
N1301 C1300 1.347 . S
C1302 C1305 1.365 . S
C1302 N1307 1.328 . S
C1302 H1308 0.929 . S
C1303 C1304 1.362 . S
C1303 C1306 1.378 . S
C1303 H1318 0.929 . S
C1304 C1303 1.362 . S
C1304 C1305 1.366 . S
C1305 C1302 1.365 . S
C1305 C1304 1.366 . S
C1305 H1319 0.930 . S
C1306 C1303 1.378 . S
C1306 N1307 1.315 . S
C1306 H1309 0.930 . S
N1307 Co1287 2.194 . S
N1307 C1302 1.328 . S
N1307 C1306 1.315 . S
H1308 C1302 0.929 . S
H1309 C1306 0.930 . S
H1310 C1298 0.929 . S
H1311 C1300 0.929 . S
O1312 Co1287 2.351 . S
O1312 C1315 1.244 . S
O1313 Co1287 2.155 . S
O1313 C1315 1.240 . S
O1314 Co1287 2.096 . S
O1314 C1295 1.247 . S
C1315 O1312 1.244 . S
C1315 O1313 1.240 . S
H1316 C1290 0.931 . S
H1317 C1299 0.931 . S
H1318 C1303 0.929 . S
H1319 C1305 0.930 . S
Co1320 N1324 2.148 . S
Co1320 N1330 2.128 . S
Co1320 N1340 2.194 . S
Co1320 O1345 2.351 . S
Co1320 O1346 2.155 . S
Co1320 O1347 2.096 . S
C1321 N1324 1.301 . S
C1321 N1325 1.328 . S
C1321 H1326 0.930 . S
C1322 C1323 1.333 . S
C1322 N1324 1.317 . S
C1322 H1327 0.930 . S
C1323 C1322 1.333 . S
C1323 N1325 1.350 . S
C1323 H1349 0.931 . S
N1324 Co1320 2.148 . S
N1324 C1321 1.301 . S
N1324 C1322 1.317 . S
N1325 C1321 1.328 . S
N1325 C1323 1.350 . S
H1326 C1321 0.930 . S
H1327 C1322 0.930 . S
C1328 O1329 1.224 . S
C1328 O1347 1.247 . S
O1329 C1328 1.224 . S
N1330 Co1320 2.128 . S
N1330 C1331 1.355 . S
N1330 C1333 1.311 . S
C1331 N1330 1.355 . S
C1331 C1332 1.363 . S
C1331 H1343 0.929 . S
C1332 C1331 1.363 . S
C1332 N1334 1.375 . S
C1332 H1350 0.931 . S
C1333 N1330 1.311 . S
C1333 N1334 1.347 . S
C1333 H1344 0.929 . S
N1334 C1332 1.375 . S
N1334 C1333 1.347 . S
C1335 C1338 1.365 . S
C1335 N1340 1.328 . S
C1335 H1341 0.929 . S
C1336 C1337 1.362 . S
C1336 C1339 1.378 . S
C1336 H1351 0.929 . S
C1337 C1336 1.362 . S
C1337 C1338 1.366 . S
C1338 C1335 1.365 . S
C1338 C1337 1.366 . S
C1338 H1352 0.930 . S
C1339 C1336 1.378 . S
C1339 N1340 1.315 . S
C1339 H1342 0.930 . S
N1340 Co1320 2.194 . S
N1340 C1335 1.328 . S
N1340 C1339 1.315 . S
H1341 C1335 0.929 . S
H1342 C1339 0.930 . S
H1343 C1331 0.929 . S
H1344 C1333 0.929 . S
O1345 Co1320 2.351 . S
O1345 C1348 1.244 . S
O1346 Co1320 2.155 . S
O1346 C1348 1.240 . S
O1347 Co1320 2.096 . S
O1347 C1328 1.247 . S
C1348 O1345 1.244 . S
C1348 O1346 1.240 . S
H1349 C1323 0.931 . S
H1350 C1332 0.931 . S
H1351 C1336 0.929 . S
H1352 C1338 0.930 . S
Co1353 N1357 2.148 . S
Co1353 N1363 2.128 . S
Co1353 N1373 2.194 . S
Co1353 O1378 2.351 . S
Co1353 O1379 2.155 . S
Co1353 O1380 2.096 . S
C1354 N1357 1.301 . S
C1354 N1358 1.328 . S
C1354 H1359 0.930 . S
C1355 C1356 1.333 . S
C1355 N1357 1.317 . S
C1355 H1360 0.930 . S
C1356 C1355 1.333 . S
C1356 N1358 1.350 . S
C1356 H1382 0.931 . S
N1357 Co1353 2.148 . S
N1357 C1354 1.301 . S
N1357 C1355 1.317 . S
N1358 C1354 1.328 . S
N1358 C1356 1.350 . S
H1359 C1354 0.930 . S
H1360 C1355 0.930 . S
C1361 O1362 1.224 . S
C1361 O1380 1.247 . S
O1362 C1361 1.224 . S
N1363 Co1353 2.128 . S
N1363 C1364 1.355 . S
N1363 C1366 1.311 . S
C1364 N1363 1.355 . S
C1364 C1365 1.363 . S
C1364 H1376 0.929 . S
C1365 C1364 1.363 . S
C1365 N1367 1.375 . S
C1365 H1383 0.931 . S
C1366 N1363 1.311 . S
C1366 N1367 1.347 . S
C1366 H1377 0.929 . S
N1367 C1365 1.375 . S
N1367 C1366 1.347 . S
C1368 C1371 1.365 . S
C1368 N1373 1.328 1_655 S
C1368 H1374 0.929 . S
C1369 C1370 1.362 1_455 S
C1369 C1372 1.378 . S
C1369 H1384 0.929 . S
C1370 C1369 1.362 1_655 S
C1370 C1371 1.366 . S
C1371 C1368 1.365 . S
C1371 C1370 1.366 . S
C1371 H1385 0.930 . S
C1372 C1369 1.378 . S
C1372 N1373 1.315 . S
C1372 H1375 0.930 . S
N1373 Co1353 2.194 . S
N1373 C1368 1.328 1_455 S
N1373 C1372 1.315 . S
H1374 C1368 0.929 . S
H1375 C1372 0.930 . S
H1376 C1364 0.929 . S
H1377 C1366 0.929 . S
O1378 Co1353 2.351 . S
O1378 C1381 1.244 . S
O1379 Co1353 2.155 . S
O1379 C1381 1.240 . S
O1380 Co1353 2.096 . S
O1380 C1361 1.247 . S
C1381 O1378 1.244 . S
C1381 O1379 1.240 . S
H1382 C1356 0.931 . S
H1383 C1365 0.931 . S
H1384 C1369 0.929 . S
H1385 C1371 0.930 . S
Co1386 N1390 2.148 . S
Co1386 N1396 2.128 . S
Co1386 N1406 2.194 . S
Co1386 O1411 2.351 . S
Co1386 O1412 2.155 . S
Co1386 O1413 2.096 . S
C1387 N1390 1.301 . S
C1387 N1391 1.328 . S
C1387 H1392 0.930 . S
C1388 C1389 1.333 . S
C1388 N1390 1.317 . S
C1388 H1393 0.930 . S
C1389 C1388 1.333 . S
C1389 N1391 1.350 . S
C1389 H1415 0.931 . S
N1390 Co1386 2.148 . S
N1390 C1387 1.301 . S
N1390 C1388 1.317 . S
N1391 C1387 1.328 . S
N1391 C1389 1.350 . S
H1392 C1387 0.930 . S
H1393 C1388 0.930 . S
C1394 O1395 1.224 . S
C1394 O1413 1.247 . S
O1395 C1394 1.224 . S
N1396 Co1386 2.128 . S
N1396 C1397 1.355 . S
N1396 C1399 1.311 . S
C1397 N1396 1.355 . S
C1397 C1398 1.363 . S
C1397 H1409 0.929 . S
C1398 C1397 1.363 . S
C1398 N1400 1.375 . S
C1398 H1416 0.931 . S
C1399 N1396 1.311 . S
C1399 N1400 1.347 . S
C1399 H1410 0.929 . S
N1400 C1398 1.375 . S
N1400 C1399 1.347 . S
C1401 C1404 1.365 . S
C1401 N1406 1.328 . S
C1401 H1407 0.929 . S
C1402 C1403 1.362 . S
C1402 C1405 1.378 . S
C1402 H1417 0.929 . S
C1403 C1402 1.362 . S
C1403 C1404 1.366 . S
C1404 C1401 1.365 . S
C1404 C1403 1.366 . S
C1404 H1418 0.930 . S
C1405 C1402 1.378 . S
C1405 N1406 1.315 . S
C1405 H1408 0.930 . S
N1406 Co1386 2.194 . S
N1406 C1401 1.328 . S
N1406 C1405 1.315 . S
H1407 C1401 0.929 . S
H1408 C1405 0.930 . S
H1409 C1397 0.929 . S
H1410 C1399 0.929 . S
O1411 Co1386 2.351 . S
O1411 C1414 1.244 . S
O1412 Co1386 2.155 . S
O1412 C1414 1.240 . S
O1413 Co1386 2.096 . S
O1413 C1394 1.247 . S
C1414 O1411 1.244 . S
C1414 O1412 1.240 . S
H1415 C1389 0.931 . S
H1416 C1398 0.931 . S
H1417 C1402 0.929 . S
H1418 C1404 0.930 . S
Co1419 N1423 2.148 . S
Co1419 N1429 2.128 . S
Co1419 N1439 2.194 . S
Co1419 O1444 2.351 . S
Co1419 O1445 2.155 . S
Co1419 O1446 2.096 . S
C1420 N1423 1.301 . S
C1420 N1424 1.328 . S
C1420 H1425 0.930 . S
C1421 C1422 1.333 . S
C1421 N1423 1.317 . S
C1421 H1426 0.930 . S
C1422 C1421 1.333 . S
C1422 N1424 1.350 . S
C1422 H1448 0.931 . S
N1423 Co1419 2.148 . S
N1423 C1420 1.301 . S
N1423 C1421 1.317 . S
N1424 C1420 1.328 . S
N1424 C1422 1.350 . S
H1425 C1420 0.930 . S
H1426 C1421 0.930 . S
C1427 O1428 1.224 . S
C1427 O1446 1.247 . S
O1428 C1427 1.224 . S
N1429 Co1419 2.128 . S
N1429 C1430 1.355 . S
N1429 C1432 1.311 . S
C1430 N1429 1.355 . S
C1430 C1431 1.363 1_556 S
C1430 H1442 0.929 . S
C1431 C1430 1.363 1_554 S
C1431 N1433 1.375 . S
C1431 H1449 0.931 . S
C1432 N1429 1.311 . S
C1432 N1433 1.347 1_556 S
C1432 H1443 0.929 . S
N1433 C1431 1.375 . S
N1433 C1432 1.347 1_554 S
C1434 C1437 1.365 . S
C1434 N1439 1.328 . S
C1434 H1440 0.929 . S
C1435 C1436 1.362 . S
C1435 C1438 1.378 . S
C1435 H1450 0.929 1_556 S
C1436 C1435 1.362 . S
C1436 C1437 1.366 . S
C1437 C1434 1.365 . S
C1437 C1436 1.366 . S
C1437 H1451 0.930 . S
C1438 C1435 1.378 . S
C1438 N1439 1.315 . S
C1438 H1441 0.930 . S
N1439 Co1419 2.194 . S
N1439 C1434 1.328 . S
N1439 C1438 1.315 . S
H1440 C1434 0.929 . S
H1441 C1438 0.930 . S
H1442 C1430 0.929 . S
H1443 C1432 0.929 . S
O1444 Co1419 2.351 . S
O1444 C1447 1.244 . S
O1445 Co1419 2.155 . S
O1445 C1447 1.240 . S
O1446 Co1419 2.096 . S
O1446 C1427 1.247 . S
C1447 O1444 1.244 . S
C1447 O1445 1.240 . S
H1448 C1422 0.931 . S
H1449 C1431 0.931 . S
H1450 C1435 0.929 1_554 S
H1451 C1437 0.930 . S
Co1452 N1456 2.148 . S
Co1452 N1462 2.128 . S
Co1452 N1472 2.194 . S
Co1452 O1477 2.351 . S
Co1452 O1478 2.155 . S
Co1452 O1479 2.096 . S
C1453 N1456 1.301 . S
C1453 N1457 1.328 . S
C1453 H1458 0.930 . S
C1454 C1455 1.333 . S
C1454 N1456 1.317 . S
C1454 H1459 0.930 . S
C1455 C1454 1.333 . S
C1455 N1457 1.350 . S
C1455 H1481 0.931 . S
N1456 Co1452 2.148 . S
N1456 C1453 1.301 . S
N1456 C1454 1.317 . S
N1457 C1453 1.328 . S
N1457 C1455 1.350 . S
H1458 C1453 0.930 . S
H1459 C1454 0.930 . S
C1460 O1461 1.224 . S
C1460 O1479 1.247 . S
O1461 C1460 1.224 . S
N1462 Co1452 2.128 . S
N1462 C1463 1.355 . S
N1462 C1465 1.311 . S
C1463 N1462 1.355 . S
C1463 C1464 1.363 . S
C1463 H1475 0.929 . S
C1464 C1463 1.363 . S
C1464 N1466 1.375 . S
C1464 H1482 0.931 . S
C1465 N1462 1.311 . S
C1465 N1466 1.347 . S
C1465 H1476 0.929 . S
N1466 C1464 1.375 . S
N1466 C1465 1.347 . S
C1467 C1470 1.365 . S
C1467 N1472 1.328 . S
C1467 H1473 0.929 . S
C1468 C1469 1.362 . S
C1468 C1471 1.378 . S
C1468 H1483 0.929 . S
C1469 C1468 1.362 . S
C1469 C1470 1.366 . S
C1470 C1467 1.365 . S
C1470 C1469 1.366 . S
C1470 H1484 0.930 . S
C1471 C1468 1.378 . S
C1471 N1472 1.315 . S
C1471 H1474 0.930 . S
N1472 Co1452 2.194 . S
N1472 C1467 1.328 . S
N1472 C1471 1.315 . S
H1473 C1467 0.929 . S
H1474 C1471 0.930 . S
H1475 C1463 0.929 . S
H1476 C1465 0.929 . S
O1477 Co1452 2.351 . S
O1477 C1480 1.244 . S
O1478 Co1452 2.155 . S
O1478 C1480 1.240 . S
O1479 Co1452 2.096 . S
O1479 C1460 1.247 . S
C1480 O1477 1.244 . S
C1480 O1478 1.240 . S
H1481 C1455 0.931 . S
H1482 C1464 0.931 . S
H1483 C1468 0.929 . S
H1484 C1470 0.930 . S
Co1485 N1489 2.148 . S
Co1485 N1495 2.128 . S
Co1485 N1505 2.194 . S
Co1485 O1510 2.351 . S
Co1485 O1511 2.155 . S
Co1485 O1512 2.096 . S
C1486 N1489 1.301 . S
C1486 N1490 1.328 . S
C1486 H1491 0.930 . S
C1487 C1488 1.333 . S
C1487 N1489 1.317 . S
C1487 H1492 0.930 . S
C1488 C1487 1.333 . S
C1488 N1490 1.350 . S
C1488 H1514 0.931 . S
N1489 Co1485 2.148 . S
N1489 C1486 1.301 . S
N1489 C1487 1.317 . S
N1490 C1486 1.328 . S
N1490 C1488 1.350 . S
H1491 C1486 0.930 . S
H1492 C1487 0.930 . S
C1493 O1494 1.224 . S
C1493 O1512 1.247 . S
O1494 C1493 1.224 . S
N1495 Co1485 2.128 . S
N1495 C1496 1.355 . S
N1495 C1498 1.311 . S
C1496 N1495 1.355 . S
C1496 C1497 1.363 1_554 S
C1496 H1508 0.929 . S
C1497 C1496 1.363 1_556 S
C1497 N1499 1.375 . S
C1497 H1515 0.931 . S
C1498 N1495 1.311 . S
C1498 N1499 1.347 1_554 S
C1498 H1509 0.929 . S
N1499 C1497 1.375 . S
N1499 C1498 1.347 1_556 S
C1500 C1503 1.365 . S
C1500 N1505 1.328 1_455 S
C1500 H1506 0.929 . S
C1501 C1502 1.362 1_655 S
C1501 C1504 1.378 . S
C1501 H1516 0.929 1_554 S
C1502 C1501 1.362 1_455 S
C1502 C1503 1.366 . S
C1503 C1500 1.365 . S
C1503 C1502 1.366 . S
C1503 H1517 0.930 . S
C1504 C1501 1.378 . S
C1504 N1505 1.315 . S
C1504 H1507 0.930 . S
N1505 Co1485 2.194 . S
N1505 C1500 1.328 1_655 S
N1505 C1504 1.315 . S
H1506 C1500 0.929 . S
H1507 C1504 0.930 . S
H1508 C1496 0.929 . S
H1509 C1498 0.929 . S
O1510 Co1485 2.351 . S
O1510 C1513 1.244 . S
O1511 Co1485 2.155 . S
O1511 C1513 1.240 . S
O1512 Co1485 2.096 . S
O1512 C1493 1.247 . S
C1513 O1510 1.244 . S
C1513 O1511 1.240 . S
H1514 C1488 0.931 . S
H1515 C1497 0.931 . S
H1516 C1501 0.929 1_556 S
H1517 C1503 0.930 . S
Co1518 N1522 2.148 . S
Co1518 N1528 2.128 . S
Co1518 N1538 2.194 . S
Co1518 O1543 2.351 . S
Co1518 O1544 2.155 . S
Co1518 O1545 2.096 . S
C1519 N1522 1.301 . S
C1519 N1523 1.328 . S
C1519 H1524 0.930 . S
C1520 C1521 1.333 . S
C1520 N1522 1.317 . S
C1520 H1525 0.930 . S
C1521 C1520 1.333 . S
C1521 N1523 1.350 . S
C1521 H1547 0.931 . S
N1522 Co1518 2.148 . S
N1522 C1519 1.301 . S
N1522 C1520 1.317 . S
N1523 C1519 1.328 . S
N1523 C1521 1.350 . S
H1524 C1519 0.930 . S
H1525 C1520 0.930 . S
C1526 O1527 1.224 . S
C1526 O1545 1.247 . S
O1527 C1526 1.224 . S
N1528 Co1518 2.128 . S
N1528 C1529 1.355 . S
N1528 C1531 1.311 . S
C1529 N1528 1.355 . S
C1529 C1530 1.363 . S
C1529 H1541 0.929 . S
C1530 C1529 1.363 . S
C1530 N1532 1.375 . S
C1530 H1548 0.931 . S
C1531 N1528 1.311 . S
C1531 N1532 1.347 . S
C1531 H1542 0.929 . S
N1532 C1530 1.375 . S
N1532 C1531 1.347 . S
C1533 C1536 1.365 . S
C1533 N1538 1.328 . S
C1533 H1539 0.929 . S
C1534 C1535 1.362 . S
C1534 C1537 1.378 . S
C1534 H1549 0.929 . S
C1535 C1534 1.362 . S
C1535 C1536 1.366 . S
C1536 C1533 1.365 . S
C1536 C1535 1.366 . S
C1536 H1550 0.930 . S
C1537 C1534 1.378 . S
C1537 N1538 1.315 . S
C1537 H1540 0.930 . S
N1538 Co1518 2.194 . S
N1538 C1533 1.328 . S
N1538 C1537 1.315 . S
H1539 C1533 0.929 . S
H1540 C1537 0.930 . S
H1541 C1529 0.929 . S
H1542 C1531 0.929 . S
O1543 Co1518 2.351 . S
O1543 C1546 1.244 . S
O1544 Co1518 2.155 . S
O1544 C1546 1.240 . S
O1545 Co1518 2.096 . S
O1545 C1526 1.247 . S
C1546 O1543 1.244 . S
C1546 O1544 1.240 . S
H1547 C1521 0.931 . S
H1548 C1530 0.931 . S
H1549 C1534 0.929 . S
H1550 C1536 0.930 . S
Co1551 N1555 2.148 . S
Co1551 N1561 2.128 . S
Co1551 N1571 2.194 . S
Co1551 O1576 2.351 . S
Co1551 O1577 2.155 . S
Co1551 O1578 2.096 . S
C1552 N1555 1.301 . S
C1552 N1556 1.328 . S
C1552 H1557 0.930 . S
C1553 C1554 1.333 . S
C1553 N1555 1.317 . S
C1553 H1558 0.930 . S
C1554 C1553 1.333 . S
C1554 N1556 1.350 . S
C1554 H1580 0.931 . S
N1555 Co1551 2.148 . S
N1555 C1552 1.301 . S
N1555 C1553 1.317 . S
N1556 C1552 1.328 . S
N1556 C1554 1.350 . S
H1557 C1552 0.930 . S
H1558 C1553 0.930 . S
C1559 O1560 1.224 . S
C1559 O1578 1.247 . S
O1560 C1559 1.224 . S
N1561 Co1551 2.128 . S
N1561 C1562 1.355 . S
N1561 C1564 1.311 . S
C1562 N1561 1.355 . S
C1562 C1563 1.363 . S
C1562 H1574 0.929 . S
C1563 C1562 1.363 . S
C1563 N1565 1.375 . S
C1563 H1581 0.931 . S
C1564 N1561 1.311 . S
C1564 N1565 1.347 . S
C1564 H1575 0.929 . S
N1565 C1563 1.375 . S
N1565 C1564 1.347 . S
C1566 C1569 1.365 . S
C1566 N1571 1.328 . S
C1566 H1572 0.929 . S
C1567 C1568 1.362 . S
C1567 C1570 1.378 . S
C1567 H1582 0.929 . S
C1568 C1567 1.362 . S
C1568 C1569 1.366 . S
C1569 C1566 1.365 . S
C1569 C1568 1.366 . S
C1569 H1583 0.930 . S
C1570 C1567 1.378 . S
C1570 N1571 1.315 . S
C1570 H1573 0.930 . S
N1571 Co1551 2.194 . S
N1571 C1566 1.328 . S
N1571 C1570 1.315 . S
H1572 C1566 0.929 . S
H1573 C1570 0.930 . S
H1574 C1562 0.929 . S
H1575 C1564 0.929 . S
O1576 Co1551 2.351 . S
O1576 C1579 1.244 . S
O1577 Co1551 2.155 . S
O1577 C1579 1.240 . S
O1578 Co1551 2.096 . S
O1578 C1559 1.247 . S
C1579 O1576 1.244 . S
C1579 O1577 1.240 . S
H1580 C1554 0.931 . S
H1581 C1563 0.931 . S
H1582 C1567 0.929 . S
H1583 C1569 0.930 . S
C556 N14 3.583 1_455 S
N47 C1579 3.582 . S
N80 C721 3.585 . S
N113 C1546 3.582 . S
N146 C1381 3.582 1_655 S
N179 C1414 3.585 . S
N212 C1447 3.582 . S
C688 N245 3.583 . S
N278 C28 3.583 1_565 S
N311 C61 3.582 . S
N344 C94 3.582 1_545 S
N377 C127 3.585 . S
N410 C160 3.585 1_545 S
C193 N443 3.582 . S
C226 N476 3.582 1_545 S
N509 C259 3.583 . S
C292 N542 3.583 1_554 S
C1216 N575 3.582 1_556 S
C1249 N608 3.582 . S
C1282 N641 3.585 . S
N674 C523 3.583 . S
N707 C358 3.583 . S
C1183 N740 3.582 . S
N773 C1117 3.585 . S
N806 C1348 3.583 . S
C787 N839 3.582 . S
C1513 N872 3.585 1_655 S
N905 C754 3.582 . S
N938 C589 3.583 . S
C622 N971 3.585 . S
C655 N1004 3.582 1_655 S
C1480 N1037 3.583 . S
C820 N1070 3.583 . S
C853 N1103 3.582 . S
N1136 C886 3.582 . S
N1169 C919 3.585 . S
N1202 C952 3.585 . S
N1235 C985 3.582 . S
N1268 C1018 3.583 . S
C1051 N1301 3.583 . S
C1084 N1334 3.583 . S
C424 N1367 3.582 . S
N1400 C457 3.582 . S
C490 N1433 3.585 1_556 S
C1315 N1466 3.583 . S
N1499 C1150 3.582 1_556 S
N1532 C391 3.582 . S
C325 N1565 3.585 . S
N500 N5 0.853 . S
N38 N401 0.852 . S
N434 N71 0.852 . S
N467 N104 0.852 . S
N137 N302 0.852 . S
N170 N335 0.852 . S
N368 N203 0.852 . S
N236 N269 0.853 . S
N665 N533 0.853 . S
N566 N764 0.852 . S
N1490 N599 0.852 . S
N731 N632 0.852 . S
N698 N1391 0.852 . S
N797 N1292 0.853 . S
N1193 N830 0.852 . S
N1226 N863 0.852 . S
N1259 N896 0.852 . S
N1094 N929 0.852 . S
N962 N1127 0.852 . S
N1160 N995 0.852 . S
N1028 N1061 0.853 . S
N1457 N1325 0.853 . S
N1358 N1556 0.852 . S
N1523 N1424 0.852 . S
C668 C8 2.368 . S
C41 C1361 2.369 . S
C74 C1394 2.369 . S
C107 C1427 2.369 . S
C140 C1559 2.369 . S
C701 C173 2.369 . S
C206 C1526 2.369 . S
C239 C536 2.368 . S
C503 C272 2.368 . S
C404 C305 2.369 . S
C338 C437 2.369 . S
C470 C371 2.369 . S
C833 C569 2.369 . S
C602 C866 2.369 . S
C635 C899 2.369 . S
C998 C734 2.369 . S
C932 C767 2.369 . S
C800 C1460 2.368 . S
C1493 C965 2.369 . S
C1328 C1031 2.368 . S
C1064 C1295 2.368 . S
C1196 C1097 2.369 . S
C1130 C1229 2.369 . S
C1163 C1262 2.369 . S
C149 C17 2.988 1_545 S
C182 C50 2.983 . S
C215 C83 2.984 1_565 S
C116 C248 2.988 1_556 S
C479 C281 2.988 1_554 S
C512 C314 2.988 1_545 S
C347 C413 2.984 . S
C380 C446 2.983 1_545 S
C545 C1502 2.988 1_655 S
C578 C1436 2.984 . S
C611 C677 2.988 1_655 S
C1370 C644 2.984 1_655 S
C1337 C710 2.988 . S
C743 C1568 2.983 1_655 S
C1535 C776 2.983 . S
C941 C809 2.988 . S
C974 C842 2.983 1_554 S
C875 C1007 2.984 . S
C908 C1040 2.988 . S
C1073 C1271 2.988 . S
C1106 C1304 2.988 . S
C1139 C1205 2.984 1_556 S
C1172 C1238 2.983 . S
C1469 C1403 2.988 . S
