# Generated by pormake.
# Topology xff, (7)-cn, num edge types: 1
# Building blocks:
#     Node 0, Type 0, BuildingBlock: NUHQUE_clean_sbu_2, # of connection points: 7
#     Node 1, Type 0, BuildingBlock: NUHQUE_clean_sbu_2, # of connection points: 7
#     Node 2, Type 0, BuildingBlock: NUHQUE_clean_sbu_2, # of connection points: 7
#     Node 3, Type 0, BuildingBlock: NUHQUE_clean_sbu_2, # of connection points: 7
#     Node 4, Type 0, BuildingBlock: NUHQUE_clean_sbu_2, # of connection points: 7
#     Node 5, Type 0, BuildingBlock: NUHQUE_clean_sbu_2, # of connection points: 7
#     Node 6, Type 0, BuildingBlock: NUHQUE_clean_sbu_2, # of connection points: 7
#     Node 7, Type 0, BuildingBlock: NUHQUE_clean_sbu_2, # of connection points: 7
#     Node 8, Type 0, BuildingBlock: NUHQUE_clean_sbu_2, # of connection points: 7
#     Node 9, Type 0, BuildingBlock: NUHQUE_clean_sbu_2, # of connection points: 7
#     Node 10, Type 0, BuildingBlock: NUHQUE_clean_sbu_2, # of connection points: 7
#     Node 11, Type 0, BuildingBlock: NUHQUE_clean_sbu_2, # of connection points: 7
#     Node 12, Type 0, BuildingBlock: NUHQUE_clean_sbu_2, # of connection points: 7
#     Node 13, Type 0, BuildingBlock: NUHQUE_clean_sbu_2, # of connection points: 7
#     Node 14, Type 0, BuildingBlock: NUHQUE_clean_sbu_2, # of connection points: 7
#     Node 15, Type 0, BuildingBlock: NUHQUE_clean_sbu_2, # of connection points: 7
#     Edge 16, Type (0, 0), BuildingBlock: KIFKEQ_clean_linker_1, # of connection points: 2
#     Edge 17, Type (0, 0), BuildingBlock: KIFKEQ_clean_linker_1, # of connection points: 2
#     Edge 18, Type (0, 0), BuildingBlock: KIFKEQ_clean_linker_1, # of connection points: 2
#     Edge 19, Type (0, 0), BuildingBlock: KIFKEQ_clean_linker_1, # of connection points: 2
#     Edge 20, Type (0, 0), BuildingBlock: KIFKEQ_clean_linker_1, # of connection points: 2
#     Edge 21, Type (0, 0), BuildingBlock: KIFKEQ_clean_linker_1, # of connection points: 2
#     Edge 22, Type (0, 0), BuildingBlock: KIFKEQ_clean_linker_1, # of connection points: 2
#     Edge 23, Type (0, 0), BuildingBlock: KIFKEQ_clean_linker_1, # of connection points: 2
#     Edge 24, Type (0, 0), BuildingBlock: KIFKEQ_clean_linker_1, # of connection points: 2
#     Edge 25, Type (0, 0), BuildingBlock: KIFKEQ_clean_linker_1, # of connection points: 2
#     Edge 26, Type (0, 0), BuildingBlock: KIFKEQ_clean_linker_1, # of connection points: 2
#     Edge 27, Type (0, 0), BuildingBlock: KIFKEQ_clean_linker_1, # of connection points: 2
#     Edge 28, Type (0, 0), BuildingBlock: KIFKEQ_clean_linker_1, # of connection points: 2
#     Edge 29, Type (0, 0), BuildingBlock: KIFKEQ_clean_linker_1, # of connection points: 2
#     Edge 30, Type (0, 0), BuildingBlock: KIFKEQ_clean_linker_1, # of connection points: 2
#     Edge 31, Type (0, 0), BuildingBlock: KIFKEQ_clean_linker_1, # of connection points: 2
#     Edge 32, Type (0, 0), BuildingBlock: KIFKEQ_clean_linker_1, # of connection points: 2
#     Edge 33, Type (0, 0), BuildingBlock: KIFKEQ_clean_linker_1, # of connection points: 2
#     Edge 34, Type (0, 0), BuildingBlock: KIFKEQ_clean_linker_1, # of connection points: 2
#     Edge 35, Type (0, 0), BuildingBlock: KIFKEQ_clean_linker_1, # of connection points: 2
#     Edge 36, Type (0, 0), BuildingBlock: KIFKEQ_clean_linker_1, # of connection points: 2
#     Edge 37, Type (0, 0), BuildingBlock: KIFKEQ_clean_linker_1, # of connection points: 2
#     Edge 38, Type (0, 0), BuildingBlock: KIFKEQ_clean_linker_1, # of connection points: 2
#     Edge 39, Type (0, 0), BuildingBlock: KIFKEQ_clean_linker_1, # of connection points: 2
#     Edge 40, Type (0, 0), BuildingBlock: KIFKEQ_clean_linker_1, # of connection points: 2
#     Edge 41, Type (0, 0), BuildingBlock: KIFKEQ_clean_linker_1, # of connection points: 2
#     Edge 42, Type (0, 0), BuildingBlock: KIFKEQ_clean_linker_1, # of connection points: 2
#     Edge 43, Type (0, 0), BuildingBlock: KIFKEQ_clean_linker_1, # of connection points: 2
#     Edge 44, Type (0, 0), BuildingBlock: KIFKEQ_clean_linker_1, # of connection points: 2
#     Edge 45, Type (0, 0), BuildingBlock: KIFKEQ_clean_linker_1, # of connection points: 2
#     Edge 46, Type (0, 0), BuildingBlock: KIFKEQ_clean_linker_1, # of connection points: 2
#     Edge 47, Type (0, 0), BuildingBlock: KIFKEQ_clean_linker_1, # of connection points: 2
#     Edge 48, Type (0, 0), BuildingBlock: KIFKEQ_clean_linker_1, # of connection points: 2
#     Edge 49, Type (0, 0), BuildingBlock: KIFKEQ_clean_linker_1, # of connection points: 2
#     Edge 50, Type (0, 0), BuildingBlock: KIFKEQ_clean_linker_1, # of connection points: 2
#     Edge 51, Type (0, 0), BuildingBlock: KIFKEQ_clean_linker_1, # of connection points: 2
#     Edge 52, Type (0, 0), BuildingBlock: KIFKEQ_clean_linker_1, # of connection points: 2
#     Edge 53, Type (0, 0), BuildingBlock: KIFKEQ_clean_linker_1, # of connection points: 2
#     Edge 54, Type (0, 0), BuildingBlock: KIFKEQ_clean_linker_1, # of connection points: 2
#     Edge 55, Type (0, 0), BuildingBlock: KIFKEQ_clean_linker_1, # of connection points: 2
#     Edge 56, Type (0, 0), BuildingBlock: KIFKEQ_clean_linker_1, # of connection points: 2
#     Edge 57, Type (0, 0), BuildingBlock: KIFKEQ_clean_linker_1, # of connection points: 2
#     Edge 58, Type (0, 0), BuildingBlock: KIFKEQ_clean_linker_1, # of connection points: 2
#     Edge 59, Type (0, 0), BuildingBlock: KIFKEQ_clean_linker_1, # of connection points: 2
#     Edge 60, Type (0, 0), BuildingBlock: KIFKEQ_clean_linker_1, # of connection points: 2
#     Edge 61, Type (0, 0), BuildingBlock: KIFKEQ_clean_linker_1, # of connection points: 2
#     Edge 62, Type (0, 0), BuildingBlock: KIFKEQ_clean_linker_1, # of connection points: 2
#     Edge 63, Type (0, 0), BuildingBlock: KIFKEQ_clean_linker_1, # of connection points: 2
#     Edge 64, Type (0, 0), BuildingBlock: KIFKEQ_clean_linker_1, # of connection points: 2
#     Edge 65, Type (0, 0), BuildingBlock: KIFKEQ_clean_linker_1, # of connection points: 2
#     Edge 66, Type (0, 0), BuildingBlock: KIFKEQ_clean_linker_1, # of connection points: 2
#     Edge 67, Type (0, 0), BuildingBlock: KIFKEQ_clean_linker_1, # of connection points: 2
#     Edge 68, Type (0, 0), BuildingBlock: KIFKEQ_clean_linker_1, # of connection points: 2
#     Edge 69, Type (0, 0), BuildingBlock: KIFKEQ_clean_linker_1, # of connection points: 2
#     Edge 70, Type (0, 0), BuildingBlock: KIFKEQ_clean_linker_1, # of connection points: 2
#     Edge 71, Type (0, 0), BuildingBlock: KIFKEQ_clean_linker_1, # of connection points: 2
# Relax obj value: 0.133
# Max RMSD: 0.234
# Mean RMSD: 0.234
data_MOF--net-xff--node1-NUHQUE_clean_sbu_2--edge1-KIFKEQ_clean_linker_1
_symmetry_space_group_name_H-M    P1
_symmetry_Int_Tables_number       1
_symmetry_cell_setting            triclinic
loop_
_symmetry_equiv_pos_as_xyz
'x, y, z'
_cell_length_a     35.43835
_cell_length_b     35.449183
_cell_length_c     69.169262
_cell_angle_alpha  90.086967
_cell_angle_beta   90.186984
_cell_angle_gamma 89.871669
loop_
_atom_site_label
_atom_site_type_symbol
_atom_site_fract_x
_atom_site_fract_y
_atom_site_fract_z
_atom_type_partial_charge
O0 O 0.28599 0.25475 0.06996 0.0
Tb1 Tb 0.29206 0.23073 0.09892 0.0
Eu2 Eu 0.33617 0.13916 0.10508 0.0
C3 C 0.31493 0.26555 0.05939 0.0
O4 O 0.34898 0.254 0.06403 0.0
C5 C 0.38395 0.21775 0.1057 0.0
O6 O 0.34799 0.09589 0.12841 0.0
C7 C 0.3258 0.11159 0.07053 0.0
C8 C 0.36896 0.10562 0.14339 0.0
O9 O 0.38617 0.13839 0.14305 0.0
C10 C 0.25221 0.15793 0.1133 0.0
C11 C 0.30424 0.0858 0.05753 0.0
C12 C 0.28928 0.09998 0.03996 0.0
C13 C 0.27326 0.07539 0.02618 0.0
C14 C 0.27101 0.03689 0.03036 0.0
C15 C 0.28574 0.02215 0.04755 0.0
C16 C 0.30264 0.04655 0.06109 0.0
O17 O 0.35366 0.2391 0.10261 0.0
O18 O 0.38338 0.18073 0.1072 0.0
O19 O 0.25955 0.28257 0.10182 0.0
O20 O 0.27567 0.25384 0.12738 0.0
C21 C 0.25757 0.28301 0.12053 0.0
O22 O 0.28383 0.14966 0.12201 0.0
O23 O 0.25218 0.18297 0.09923 0.0
O24 O 0.34875 0.09652 0.08345 0.0
O25 O 0.30953 0.14299 0.0765 0.0
H26 H 0.2918 0.12973 0.0366 0.0
H27 H 0.25912 0.01785 1.01966 0.0
H28 H 0.31517 0.03482 0.07407 0.0
O29 O 0.51984 0.54404 0.33046 0.0
Tb30 Tb 0.53967 0.54622 0.36048 0.0
Eu31 Eu 0.62934 0.57901 0.33994 0.0
C32 C 0.49936 0.57192 0.32331 0.0
O33 O 0.49479 0.60265 0.33362 0.0
C34 C 0.55935 0.63356 0.3558 0.0
O35 O 0.66331 0.58582 0.36769 0.0
C36 C 0.66813 0.59101 0.3086 0.0
C37 C 0.64587 0.59039 0.38435 0.0
O38 O 0.6089 0.59188 0.38441 0.0
C39 C 0.6147 0.50106 0.35905 0.0
C40 C 0.69295 0.57202 0.29417 0.0
C41 C 0.67747 0.55591 0.27718 0.0
C42 C 0.70097 0.53902 0.26326 0.0
C43 C 0.74005 0.53852 0.26629 0.0
C44 C 0.75609 0.55574 0.28257 0.0
C45 C 0.73258 0.57256 0.29646 0.0
O46 O 0.54146 0.60697 0.36555 0.0
O47 O 0.58756 0.62703 0.34376 0.0
O48 O 0.50268 0.49817 0.36615 0.0
O49 O 0.4994 0.54567 0.38464 0.0
C50 C 0.48635 0.51194 0.38139 0.0
O51 O 0.62239 0.51612 0.34225 0.0
O52 O 0.59034 0.51745 0.37058 0.0
O53 O 0.68165 0.59665 0.32612 0.0
O54 O 0.6321 0.58199 0.30855 0.0
H55 H 0.64726 0.5565 0.2747 0.0
H56 H 0.75833 0.52617 0.25542 0.0
H57 H 0.74524 0.58634 0.30887 0.0
O58 O 0.23971 0.75988 0.571 0.0
Tb59 Tb 0.23291 0.79019 0.59834 0.0
Eu60 Eu 0.18662 0.88038 0.60739 0.0
C61 C 0.21212 0.75341 0.5586 0.0
O62 O 0.17983 0.77122 0.56059 0.0
C63 C 0.14128 0.80047 0.6052 0.0
O64 O 0.17107 0.91937 0.63197 0.0
C65 C 0.18952 0.91165 0.57338 0.0
C66 C 0.15919 0.90352 0.64804 0.0
O67 O 0.15394 0.86684 0.64809 0.0
C68 C 0.27206 0.86287 0.61252 0.0
C69 C 0.20887 0.93673 0.55926 0.0
C70 C 0.22221 0.92094 0.54178 0.0
C71 C 0.23616 0.94414 0.527 0.0
C72 C 0.23779 0.98313 0.52986 0.0
C73 C 0.22461 0.9996 0.54696 0.0
C74 C 0.20977 0.97642 0.56163 0.0
O75 O 0.17112 0.78088 0.59928 0.0
O76 O 0.14198 0.83639 0.61003 0.0
O77 O 0.27431 0.74637 0.60499 0.0
O78 O 0.24088 0.76775 0.62788 0.0
C79 C 0.26772 0.74404 0.62339 0.0
O80 O 0.24192 0.87228 0.62215 0.0
O81 O 0.26906 0.84072 0.59727 0.0
O82 O 0.17191 0.9269 0.58823 0.0
O83 O 0.20461 0.87845 0.57723 0.0
H84 H 0.22019 0.8908 0.53932 0.0
H85 H 0.2481 1.00101 0.5183 0.0
H86 H 0.19841 0.98935 0.57457 0.0
O87 O 1.00361 0.47056 0.83622 0.0
Tb88 Tb 0.97968 0.47426 0.86529 0.0
Eu89 Eu 0.89719 0.44289 0.84059 0.0
C90 C 0.03342 0.44848 0.8343 0.0
O91 O 0.04448 0.42906 0.84946 0.0
C92 C 0.96442 0.38849 0.85886 0.0
O93 O 0.86306 0.4415 0.8683 0.0
C94 C 0.85846 0.43131 0.80906 0.0
C95 C 0.86528 0.41444 0.8813 0.0
O96 O 0.88557 0.38427 0.87761 0.0
C97 C 0.90584 0.51919 0.86132 0.0
C98 C 0.83234 0.4501 0.79507 0.0
C99 C 0.84682 0.46623 0.77793 0.0
C100 C 0.82263 0.4832 0.76432 0.0
C101 C 0.78374 0.48376 0.7678 0.0
C102 C 0.76854 0.46655 0.78422 0.0
C103 C 0.79282 0.44961 0.79783 0.0
O104 O 0.97613 0.41436 0.87121 0.0
O105 O 0.94072 0.39595 0.84451 0.0
O106 O 0.0143 0.52386 0.87121 0.0
O107 O 0.01815 0.47701 0.8902 0.0
C108 C 0.03012 0.51111 0.88687 0.0
O109 O 0.90227 0.50609 0.84369 0.0
O110 O 0.92691 0.50062 0.87364 0.0
O111 O 0.84575 0.42286 0.82641 0.0
O112 O 0.89378 0.44282 0.80923 0.0
H113 H 0.87688 0.46561 0.77511 0.0
H114 H 0.7649 0.49616 0.75715 0.0
H115 H 0.78087 0.43589 0.81038 0.0
O116 O 0.72612 0.78352 0.96524 0.0
Tb117 Tb 0.72385 0.79666 0.93449 0.0
Eu118 Eu 0.69469 0.8854 0.95556 0.0
C119 C 0.70009 0.76166 0.97286 0.0
O120 O 0.67033 0.75286 0.96248 0.0
C121 C 0.63792 0.81664 0.941 0.0
O122 O 0.68519 0.92013 0.92832 0.0
C123 C 0.68629 0.92387 0.9874 0.0
C124 C 0.68012 0.90354 0.91142 0.0
O125 O 0.67951 0.86657 0.91071 0.0
C126 C 0.77102 0.86928 0.93477 0.0
C127 C 0.70596 0.94815 1.00187 0.0
C128 C 0.72022 0.93221 1.01917 0.0
C129 C 0.73482 0.95532 0.03395 0.0
C130 C 0.73627 0.99439 0.03104 0.0
C131 C 0.72214 0.01102 1.01412 0.0
C132 C 0.70668 0.98777 0.99962 0.0
O133 O 0.66313 0.79952 0.92999 0.0
O134 O 0.64637 0.84379 0.95339 0.0
O135 O 0.72524 0.75223 0.91213 0.0
O136 O 0.76968 0.75562 0.93257 0.0
C137 C 0.75716 0.73734 0.91762 0.0
O138 O 0.75712 0.87688 0.95186 0.0
O139 O 0.75399 0.84512 0.92336 0.0
O140 O 0.67931 0.93784 0.97013 0.0
O141 O 0.69508 0.88778 0.987 0.0
H142 H 0.71845 0.90205 1.02153 0.0
H143 H 0.74738 0.01225 0.04245 0.0
H144 H 0.69471 1.00063 0.98678 0.0
O145 O 0.49482 0.48895 0.72746 0.0
Tb146 Tb 0.46868 0.4831 0.69897 0.0
Eu147 Eu 0.3761 0.43906 0.6901 0.0
C148 C 0.50457 0.46004 0.73837 0.0
O149 O 0.49044 0.42661 0.73464 0.0
C150 C 0.45613 0.39189 0.69121 0.0
O151 O 0.34066 0.42136 0.66425 0.0
C152 C 0.34231 0.43883 0.7236 0.0
C153 C 0.3586 0.41163 0.64831 0.0
O154 O 0.39566 0.4104 0.64877 0.0
C155 C 0.39402 0.52594 0.68812 0.0
C156 C 0.31958 0.46026 0.73819 0.0
C157 C 0.33812 0.48033 0.75316 0.0
C158 C 0.31734 0.49803 0.76788 0.0
C159 C 0.27802 0.49569 0.76773 0.0
C160 C 0.25872 0.4749 0.7536 0.0
C161 C 0.27967 0.45698 0.73883 0.0
O162 O 0.47674 0.42157 0.69617 0.0
O163 O 0.41962 0.39306 0.68746 0.0
O164 O 0.52089 0.51467 0.69582 0.0
O165 O 0.49018 0.50123 0.67043 0.0
C166 C 0.52027 0.51804 0.67717 0.0
O167 O 0.38233 0.49706 0.67798 0.0
O168 O 0.42056 0.52216 0.7014 0.0
O169 O 0.32594 0.4274 0.70749 0.0
O170 O 0.3779 0.4485 0.72118 0.0
H171 H 0.36866 0.48165 0.75364 0.0
H172 H 0.26242 0.50839 0.77955 0.0
H173 H 0.26501 0.44006 0.72815 0.0
O174 O 0.79848 0.23929 0.46448 0.0
Tb175 Tb 0.79458 0.22469 0.43393 0.0
Eu176 Eu 0.81827 0.13829 0.45625 0.0
C177 C 0.82286 0.26592 0.46903 0.0
O178 O 0.84544 0.27822 0.4554 0.0
C179 C 0.87839 0.20283 0.44139 0.0
O180 O 0.82152 0.10621 0.42782 0.0
C181 C 0.82672 0.09622 0.48686 0.0
C182 C 0.8507 0.10761 0.41605 0.0
O183 O 0.8807 0.12687 0.4212 0.0
C184 C 0.7405 0.15659 0.43633 0.0
C185 C 0.80713 0.06936 0.50003 0.0
C186 C 0.78756 0.0827 0.51653 0.0
C187 C 0.77095 0.0573 0.52961 0.0
C188 C 0.7741 0.01849 0.52615 0.0
C189 C 0.79465 1.00465 0.51043 0.0
C190 C 0.81122 0.03003 0.49741 0.0
O191 O 0.85446 0.21707 0.42869 0.0
O192 O 0.8677 0.17927 0.45512 0.0
O193 O 0.75738 0.27386 0.43455 0.0
O194 O 0.79053 0.26442 0.40955 0.0
C195 C 0.7655 0.28651 0.41747 0.0
O196 O 0.75535 0.14751 0.45311 0.0
O197 O 0.75885 0.17867 0.42446 0.0
O198 O 0.83533 0.08476 0.46929 0.0
O199 O 0.81631 0.13187 0.4875 0.0
H200 H 0.78556 0.1127 0.51936 0.0
H201 H 0.76237 0.99871 0.53647 0.0
H202 H 0.82792 0.0191 0.48554 0.0
O203 O 0.02653 0.53723 0.22398 0.0
Tb204 Tb 0.05352 0.54364 0.19588 0.0
Eu205 Eu 0.14509 0.58999 0.18934 0.0
C206 C 0.01815 0.56551 0.23558 0.0
O207 O 0.0333 0.59875 0.2326 0.0
C208 C 0.06486 0.63586 0.19054 0.0
O209 O 0.18392 0.60621 0.16475 0.0
C210 C 0.17604 0.58293 0.22339 0.0
C211 C 0.16796 0.62025 0.14907 0.0
O212 O 0.13151 0.62705 0.14946 0.0
C213 C 0.12794 0.50524 0.18261 0.0
C214 C 0.201 0.56265 0.23741 0.0
C215 C 0.18474 0.54552 0.25389 0.0
C216 C 0.20766 0.53129 0.2689 0.0
C217 C 0.24691 0.53256 0.26688 0.0
C218 C 0.26376 0.54985 0.25096 0.0
C219 C 0.24083 0.56523 0.23627 0.0
O220 O 0.04413 0.60538 0.19394 0.0
O221 O 0.10169 0.63573 0.18806 0.0
O222 O 1.00681 0.50461 0.19124 0.0
O223 O 0.02931 0.53277 0.1669 0.0
C224 C 1.00405 0.50853 0.17265 0.0
O225 O 0.13599 0.53622 0.1734 0.0
O226 O 0.10313 0.50608 0.19673 0.0
O227 O 0.1914 0.60224 0.20917 0.0
O228 O 0.14307 0.56811 0.21885 0.0
H229 H 0.15434 0.54524 0.25558 0.0
H230 H 0.26475 0.52167 0.27838 0.0
H231 H 0.25399 0.58004 0.22439 0.0
O232 O 0.79072 0.73437 0.57254 0.0
Tb233 Tb 0.78807 0.71427 0.6023 0.0
Eu234 Eu 0.82507 0.61906 0.5938 0.0
C235 C 0.82002 0.75387 0.5665 0.0
O236 O 0.85026 0.75554 0.57745 0.0
C237 C 0.87554 0.69249 0.60233 0.0
O238 O 0.84723 0.58081 0.61748 0.0
C239 C 0.81252 0.58775 0.56044 0.0
C240 C 0.85926 0.59742 0.63341 0.0
O241 O 0.86146 0.63439 0.63352 0.0
C242 C 0.74313 0.63944 0.6107 0.0
C243 C 0.79304 0.56132 0.54702 0.0
C244 C 0.7782 0.5757 0.52953 0.0
C245 C 0.76481 0.55125 0.51502 0.0
C246 C 0.76477 0.51237 0.51856 0.0
C247 C 0.77946 0.4972 0.53574 0.0
C248 C 0.79388 0.52187 0.54995 0.0
O249 O 0.84743 0.70918 0.61156 0.0
O250 O 0.87039 0.6629 0.59118 0.0
O251 O 0.76734 0.77239 0.60387 0.0
O252 O 0.76761 0.7398 0.62944 0.0
C253 C 0.75926 0.77264 0.62215 0.0
O254 O 0.77459 0.62059 0.61321 0.0
O255 O 0.74255 0.67214 0.60165 0.0
O256 O 0.83665 0.57416 0.57323 0.0
O257 O 0.795 0.61873 0.56613 0.0
H258 H 0.77908 0.60578 0.52675 0.0
H259 H 0.75469 0.49349 0.50733 0.0
H260 H 0.80647 0.51032 0.56296 0.0
O261 O 0.03757 0.04771 0.83427 0.0
Tb262 Tb 0.05532 0.03939 0.86428 0.0
Eu263 Eu 0.14745 0.07192 0.84846 0.0
C264 C 1.0098 0.0721 0.83162 0.0
O265 O 0.99888 0.09223 0.84655 0.0
C266 C 0.07596 0.12512 0.86188 0.0
O267 O 0.17541 0.08465 0.87742 0.0
C268 C 0.1914 0.08506 0.81912 0.0
C269 C 0.15708 0.08056 0.89385 0.0
O270 O 0.12192 0.06909 0.89331 0.0
C271 C 0.12868 0.98888 0.86316 0.0
C272 C 0.21363 0.06401 0.80434 0.0
C273 C 0.19543 0.04507 0.78892 0.0
C274 C 0.21653 0.02586 0.77482 0.0
C275 C 0.25595 0.0255 0.77616 0.0
C276 C 0.27467 0.04534 0.79083 0.0
C277 C 0.25347 0.06473 0.80487 0.0
O278 O 0.06072 0.09841 0.87253 0.0
O279 O 0.10307 0.11831 0.84928 0.0
O280 O 1.00623 1.00255 0.86278 0.0
O281 O 0.01559 0.03412 0.88843 0.0
C282 C 0.99348 1.0099 0.87994 0.0
O283 O 0.14141 1.00853 0.84851 0.0
O284 O 0.09976 1.00054 0.87338 0.0
O285 O 0.20362 0.08434 0.83709 0.0
O286 O 0.15442 0.08311 0.81783 0.0
H287 H 0.16493 0.04528 0.78775 0.0
H288 H 0.27231 0.01151 0.76501 0.0
H289 H 0.26798 0.08061 0.81604 0.0
O290 O 0.72708 0.28478 0.07337 0.0
Tb291 Tb 0.73693 0.30805 0.10217 0.0
Eu292 Eu 0.69841 0.4014 0.09274 0.0
C293 C 0.70055 0.25906 0.07139 0.0
O294 O 0.67874 0.25208 0.08625 0.0
C295 C 0.64953 0.32768 0.10347 0.0
O296 O 0.67673 0.44008 0.1164 0.0
C297 C 0.70729 0.43059 0.05862 0.0
C298 C 0.66547 0.42381 0.13251 0.0
O299 O 0.66423 0.38683 0.13296 0.0
C300 C 0.78272 0.38395 0.10713 0.0
C301 C 0.72727 0.45707 0.04551 0.0
C302 C 0.74411 0.44287 0.02845 0.0
C303 C 0.75798 0.4676 1.01423 0.0
C304 C 0.75644 0.50654 1.0176 0.0
C305 C 0.73967 0.52119 0.0343 0.0
C306 C 0.72489 0.49649 0.0482 0.0
O307 O 0.6785 0.31253 0.11277 0.0
O308 O 0.65361 0.35647 0.09172 0.0
O309 O 0.76257 0.25203 0.10381 0.0
O310 O 0.75953 0.28474 0.12939 0.0
C311 C 0.77089 0.2528 0.12209 0.0
O312 O 0.75197 0.40369 0.11004 0.0
O313 O 0.78179 0.35023 0.09909 0.0
O314 O 0.68407 0.44456 0.07169 0.0
O315 O 0.72502 0.39975 0.0643 0.0
H316 H 0.74429 0.41276 0.02569 0.0
H317 H 0.76653 0.5258 1.00659 0.0
H318 H 0.71048 0.50806 0.06068 0.0
O319 O 0.48897 0.99471 0.32199 0.0
Tb320 Tb 0.46652 0.99178 0.35128 0.0
Eu321 Eu 0.37671 0.94564 0.3576 0.0
C322 C 0.49501 0.96446 0.31134 0.0
O323 O 0.47904 0.9325 0.31621 0.0
C324 C 0.45663 0.90051 0.35931 0.0
O325 O 0.33273 0.93189 0.3802 0.0
C326 C 0.35194 0.95086 0.32225 0.0
C327 C 0.34097 0.90753 0.39398 0.0
O328 O 0.37255 0.88825 0.39275 0.0
C329 C 0.39198 0.03118 0.36461 0.0
C330 C 0.32746 0.96918 0.30743 0.0
C331 C 0.34418 0.98389 0.29051 0.0
C332 C 0.32165 0.99568 0.27484 0.0
C333 C 0.28236 0.99372 0.27633 0.0
C334 C 0.2652 0.97939 0.29294 0.0
C335 C 0.28768 0.96701 0.30848 0.0
O336 O 0.47692 0.93079 0.35516 0.0
O337 O 0.41982 0.90042 0.36145 0.0
O338 O 0.51766 0.0255 0.35365 0.0
O339 O 0.4914 1.00725 0.37949 0.0
C340 C 0.51976 0.02604 0.37239 0.0
O341 O 0.38324 0.99993 0.37345 0.0
O342 O 0.41816 0.0311 0.35112 0.0
O343 O 0.33596 0.92972 0.33557 0.0
O344 O 0.3824 0.96861 0.32838 0.0
H345 H 0.37464 0.98427 0.28911 0.0
H346 H 0.26495 1.00209 0.26412 0.0
H347 H 0.27421 0.95447 0.32095 0.0
O348 O 0.2438 0.26882 0.48398 0.0
Tb349 Tb 0.23327 0.29749 0.45648 0.0
Eu350 Eu 0.19242 0.3805 0.43864 0.0
C351 C 0.21706 0.26056 0.4965 0.0
O352 O 0.18385 0.27671 0.49484 0.0
C353 C 0.14628 0.30479 0.44426 0.0
O354 O 0.17778 0.4171 0.41283 0.0
C355 C 0.18483 0.41205 0.47254 0.0
C356 C 0.17496 0.40053 0.3958 0.0
O357 O 0.17927 0.36374 0.39494 0.0
C358 C 0.27878 0.36846 0.44367 0.0
C359 C 0.20491 0.43581 0.4872 0.0
C360 C 0.2229 0.41875 0.50331 0.0
C361 C 0.24073 0.44097 0.51754 0.0
C362 C 0.24034 0.48026 0.5157 0.0
C363 C 0.2214 0.49791 0.50041 0.0
C364 C 0.20356 0.4757 0.48619 0.0
O365 O 0.17109 0.29442 0.45756 0.0
O366 O 0.15273 0.33296 0.43246 0.0
O367 O 0.26196 0.2445 0.4507 0.0
O368 O 0.24613 0.27824 0.42672 0.0
C369 C 0.26277 0.24695 0.43201 0.0
O370 O 0.2528 0.37481 0.43063 0.0
O371 O 0.27245 0.34558 0.45837 0.0
O372 O 0.17382 0.42808 0.45629 0.0
O373 O 0.19674 0.37715 0.47007 0.0
H374 H 0.22291 0.38834 0.50487 0.0
H375 H 0.25336 0.49745 0.52687 0.0
H376 H 0.18846 0.48954 0.47454 0.0
O377 O 0.99814 0.98893 0.22509 0.0
Tb378 Tb 0.97666 0.99002 0.19547 0.0
Eu379 Eu 0.88121 0.95028 0.20196 0.0
C380 C 0.01686 0.95943 0.23165 0.0
O381 O 0.01749 0.92842 0.22128 0.0
C382 C 0.95626 0.90192 0.19579 0.0
O383 O 0.84559 0.92574 0.17785 0.0
C384 C 0.84252 0.96594 0.23261 0.0
C385 C 0.86211 0.91765 0.16131 0.0
O386 O 0.89901 0.92042 0.16029 0.0
C387 C 0.90118 0.03135 0.18604 0.0
C388 C 0.8189 0.97448 0.24984 0.0
C389 C 0.83513 0.98798 0.26726 0.0
C390 C 0.81265 0.99276 0.28392 0.0
C391 C 0.77393 0.98501 0.2828 0.0
C392 C 0.75724 0.97271 0.26557 0.0
C393 C 0.77971 0.96748 0.24912 0.0
O394 O 0.97289 0.93021 0.18665 0.0
O395 O 0.92643 0.90687 0.20678 0.0
O396 O 0.03377 0.01281 0.19296 0.0
O397 O 0.99873 0.01349 0.16819 0.0
C398 C 0.03184 0.02267 0.17492 0.0
O399 O 0.88638 0.99879 0.1815 0.0
O400 O 0.93198 0.03303 0.19669 0.0
O401 O 0.83175 0.94075 0.21971 0.0
O402 O 0.87487 0.98284 0.22891 0.0
H403 H 0.86517 0.99343 0.26806 0.0
H404 H 0.75633 0.98917 0.29544 0.0
H405 H 0.76671 0.95745 0.23587 0.0
O406 O 0.27213 0.75679 0.9835 0.0
Tb407 Tb 0.28667 0.72727 0.95685 0.0
Eu408 Eu 0.32264 0.63973 0.93901 0.0
C409 C 0.29737 0.76389 0.99705 0.0
O410 O 0.33057 0.74749 0.99612 0.0
C411 C 0.37177 0.71303 0.94539 0.0
O412 O 0.33612 0.60469 0.91241 0.0
C413 C 0.33307 0.60572 0.97207 0.0
C414 C 0.34539 0.62225 0.89632 0.0
O415 O 0.34728 0.65925 0.89653 0.0
C416 C 0.23728 0.65708 0.94631 0.0
C417 C 0.31403 0.58279 0.98732 0.0
C418 C 0.29746 0.60057 1.00357 0.0
C419 C 0.28114 0.57901 1.01841 0.0
C420 C 0.28145 0.53963 1.01705 0.0
C421 C 0.29904 0.52129 1.00159 0.0
C422 C 0.31545 0.54286 0.98675 0.0
O423 O 0.34835 0.7226 0.95935 0.0
O424 O 0.36336 0.68635 0.93299 0.0
O425 O 0.27499 0.78482 0.94733 0.0
O426 O 0.26794 0.74045 0.9271 0.0
C427 C 0.26512 0.77683 0.92973 0.0
O428 O 0.26167 0.64863 0.9328 0.0
O429 O 0.2451 0.68174 0.96009 0.0
O430 O 0.3398 0.58973 0.95523 0.0
O431 O 0.32366 0.64156 0.97053 0.0
H432 H 0.29751 0.63105 1.00481 0.0
H433 H 0.26949 0.52302 0.02868 0.0
H434 H 0.32966 0.52853 0.97499 0.0
O435 O 0.53666 0.03746 0.71683 0.0
Tb436 Tb 0.55125 0.0396 0.68616 0.0
Eu437 Eu 0.64155 0.07074 0.70566 0.0
C438 C 0.51526 0.06421 0.72434 0.0
O439 O 0.50741 0.09411 0.71394 0.0
C440 C 0.56964 0.12679 0.69182 0.0
O441 O 0.67333 0.07995 0.6775 0.0
C442 C 0.68244 0.08038 0.73681 0.0
C443 C 0.65418 0.08576 0.6614 0.0
O444 O 0.61727 0.08714 0.66231 0.0
C445 C 0.6254 0.99383 0.685 0.0
C446 C 0.7071 0.06169 0.75165 0.0
C447 C 0.69109 0.04681 0.76878 0.0
C448 C 0.71424 0.0334 0.78388 0.0
C449 C 0.75341 0.03348 0.78146 0.0
C450 C 0.77027 0.04813 0.7648 0.0
C451 C 0.74699 0.06275 0.74999 0.0
O452 O 0.5511 0.10051 0.68205 0.0
O453 O 0.59963 0.11984 0.70286 0.0
O454 O 0.51181 0.99247 0.68437 0.0
O455 O 0.50835 0.03515 0.66307 0.0
C456 C 0.49428 1.00313 0.6688 0.0
O457 O 0.63481 1.00771 0.70193 0.0
O458 O 0.60062 0.01165 0.67426 0.0
O459 O 0.69558 0.08526 0.71921 0.0
O460 O 0.64607 0.07286 0.73705 0.0
H461 H 0.66078 0.04718 0.77079 0.0
H462 H 0.77119 0.02312 0.7931 0.0
H463 H 0.75992 0.07533 0.73739 0.0
H464 H 0.1883 0.50039 0.15884 0.0
H465 H 0.11378 0.4308 0.19289 0.0
H466 H 0.21875 0.44465 0.1461 0.0
H467 H 0.14507 0.374 0.1798 0.0
H468 H 0.24615 0.2882 0.16001 0.0
H469 H 0.21391 0.33975 0.17747 0.0
H470 H 0.19149 0.39529 0.12314 0.0
H471 H 0.2232 0.34465 0.10595 0.0
C472 C 0.17839 0.47314 0.16372 0.0
C473 C 0.14802 0.47019 0.1767 0.0
C474 C 0.196 0.44111 0.15636 0.0
C475 C 0.18396 0.40496 0.1617 0.0
C476 C 0.15488 0.4016 0.17543 0.0
C477 C 0.13694 0.43404 0.18285 0.0
C478 C 0.23415 0.31144 0.15189 0.0
C479 C 0.23754 0.31264 0.13164 0.0
C480 C 0.21553 0.34071 0.16185 0.0
C481 C 0.20048 0.37166 0.15167 0.0
C482 C 0.2032 0.37209 0.13142 0.0
C483 C 0.22139 0.34301 0.12156 0.0
H484 H 0.28461 0.44361 0.43973 0.0
H485 H 0.35143 0.34193 0.44166 0.0
H486 H 0.33856 0.47869 0.42763 0.0
H487 H 0.4061 0.37714 0.42945 0.0
H488 H 0.46394 0.43901 0.37747 0.0
H489 H 0.41863 0.40444 0.39711 0.0
H490 H 0.40249 0.50311 0.43289 0.0
H491 H 0.44785 0.5378 0.41305 0.0
C492 C 0.31139 0.42909 0.43816 0.0
C493 C 0.31403 0.39018 0.44173 0.0
C494 C 0.34234 0.44919 0.43121 0.0
C495 C 0.37662 0.43071 0.42737 0.0
C496 C 0.37995 0.39212 0.43207 0.0
C497 C 0.3489 0.37203 0.4393 0.0
C498 C 0.45082 0.45328 0.38958 0.0
C499 C 0.45914 0.49122 0.39362 0.0
C500 C 0.42517 0.43332 0.40099 0.0
C501 C 0.40701 0.45088 0.41666 0.0
C502 C 0.41582 0.48877 0.42087 0.0
C503 C 0.44174 0.50867 0.40951 0.0
H504 H 0.24473 0.71679 0.65866 0.0
H505 H 0.33593 0.71143 0.61759 0.0
H506 H 0.27613 0.66803 0.67831 0.0
H507 H 0.36759 0.66381 0.63733 0.0
H508 H 0.42754 0.59532 0.68428 0.0
H509 H 0.39795 0.65316 0.67161 0.0
H510 H 0.29008 0.59699 0.67007 0.0
H511 H 0.31968 0.53933 0.68217 0.0
C512 C 0.27175 0.70572 0.65404 0.0
C513 C 0.28778 0.71772 0.63656 0.0
C514 C 0.28969 0.67784 0.66524 0.0
C515 C 0.32445 0.66222 0.65941 0.0
C516 C 0.34113 0.67557 0.64235 0.0
C517 C 0.32283 0.70266 0.63098 0.0
C518 C 0.39739 0.59576 0.68167 0.0
C519 C 0.3759 0.5629 0.68418 0.0
C520 C 0.38049 0.6287 0.67431 0.0
C521 C 0.34166 0.6296 0.66983 0.0
C522 C 0.31992 0.59735 0.67353 0.0
C523 C 0.33691 0.5643 0.68039 0.0
H524 H 0.22915 0.58189 0.94616 0.0
H525 H 0.16563 0.68558 0.94339 0.0
H526 H 0.17424 0.54667 0.93522 0.0
H527 H 0.10988 0.65024 0.93249 0.0
H528 H 0.05294 0.58349 0.88174 0.0
H529 H 0.09744 0.6195 0.90131 0.0
H530 H 0.11011 0.52451 0.93988 0.0
H531 H 0.06577 0.48825 0.92 0.0
C532 C 0.20281 0.59689 0.9439 0.0
C533 C 0.2014 0.63631 0.94568 0.0
C534 C 0.1713 0.57673 0.93762 0.0
C535 C 0.13772 0.59564 0.93274 0.0
C536 C 0.13551 0.63491 0.93591 0.0
C537 C 0.16714 0.65511 0.9424 0.0
C538 C 0.06508 0.57037 0.89446 0.0
C539 C 0.05626 0.53294 0.89924 0.0
C540 C 0.09025 0.59118 0.90583 0.0
C541 C 0.10728 0.575 0.92225 0.0
C542 C 0.09768 0.53775 0.92727 0.0
C543 C 0.07236 0.51696 0.9159 0.0
H544 H 0.86177 0.56925 0.84048 0.0
H545 H 0.89519 0.54011 0.8987 0.0
H546 H 0.8244 0.62211 0.85321 0.0
H547 H 0.8575 0.59149 0.91128 0.0
H548 H 0.82604 0.71011 0.92718 0.0
H549 H 0.86059 0.65833 0.91251 0.0
H550 H 0.76868 0.63999 0.8724 0.0
H551 H 0.7343 0.69316 0.88695 0.0
C552 C 0.86101 0.57396 0.85595 0.0
C553 C 0.88195 0.55073 0.86852 0.0
C554 C 0.83943 0.6041 0.86326 0.0
C555 C 0.8383 0.61148 0.88329 0.0
C556 C 0.85842 0.58743 0.89577 0.0
C557 C 0.88002 0.55771 0.88851 0.0
C558 C 0.81313 0.69507 0.91524 0.0
C559 C 0.77735 0.70553 0.90831 0.0
C560 C 0.83288 0.66516 0.90686 0.0
C561 C 0.81732 0.64453 0.89138 0.0
C562 C 0.78163 0.65535 0.88422 0.0
C563 C 0.76182 0.6856 0.89261 0.0
H564 H 0.52294 0.53456 0.63804 0.0
H565 H 0.58528 0.54622 0.69143 0.0
H566 H 0.57474 0.56611 0.62064 0.0
H567 H 0.6363 0.57709 0.67427 0.0
H568 H 0.73818 0.57948 0.63502 0.0
H569 H 0.68258 0.55179 0.64939 0.0
H570 H 0.61198 0.63266 0.61984 0.0
H571 H 0.66847 0.66114 0.60519 0.0
C572 C 0.54754 0.54391 0.64603 0.0
C573 C 0.55018 0.53762 0.66607 0.0
C574 C 0.57701 0.56214 0.63612 0.0
C575 C 0.6097 0.57386 0.64608 0.0
C576 C 0.61173 0.56806 0.66614 0.0
C577 C 0.5824 0.55037 0.67598 0.0
C578 C 0.71097 0.59158 0.63141 0.0
C579 C 0.70803 0.62284 0.61895 0.0
C580 C 0.679 0.57562 0.63975 0.0
C581 C 0.64289 0.59012 0.63586 0.0
C582 C 0.63949 0.6208 0.62305 0.0
C583 C 0.67182 0.63723 0.61478 0.0
H584 H 0.76483 0.30665 0.37917 0.0
H585 H 0.72343 0.34009 0.43522 0.0
H586 H 0.72849 0.3577 0.36416 0.0
H587 H 0.6887 0.39194 0.42058 0.0
H588 H 0.59738 0.45442 0.38893 0.0
H589 H 0.63471 0.40297 0.40213 0.0
H590 H 0.72106 0.42352 0.35943 0.0
H591 H 0.68261 0.47416 0.34568 0.0
C592 C 0.74841 0.32531 0.38829 0.0
C593 C 0.74671 0.31929 0.40833 0.0
C594 C 0.72765 0.35469 0.37972 0.0
C595 C 0.70508 0.37887 0.39107 0.0
C596 C 0.70474 0.37341 0.41123 0.0
C597 C 0.72499 0.34385 0.4197 0.0
C598 C 0.62425 0.44786 0.38228 0.0
C599 C 0.63703 0.4685 0.36629 0.0
C600 C 0.64593 0.41847 0.38997 0.0
C601 C 0.68137 0.4092 0.38209 0.0
C602 C 0.69385 0.42948 0.36582 0.0
C603 C 0.67184 0.45866 0.35795 0.0
H604 H 0.84772 0.34764 0.11854 0.0
H605 H 0.8 0.4586 0.11016 0.0
H606 H 0.90488 0.37633 0.13226 0.0
H607 H 0.8571 0.48707 0.1235 0.0
H608 H 0.9794 0.52578 0.13591 0.0
H609 H 0.92895 0.49424 0.1175 0.0
H610 H 0.91536 0.41403 0.16382 0.0
H611 H 0.96485 0.44581 0.18224 0.0
C612 C 0.84969 0.3781 0.11929 0.0
C613 C 0.81922 0.4008 0.11336 0.0
C614 C 0.88232 0.39452 0.12722 0.0
C615 C 0.8855 0.434 0.12898 0.0
C616 C 0.8557 0.45664 0.12221 0.0
C617 C 0.82287 0.44026 0.11468 0.0
C618 C 0.96581 0.50121 0.14202 0.0
C619 C 0.97594 0.48835 0.16053 0.0
C620 C 0.93691 0.48323 0.13154 0.0
C621 C 0.91825 0.45154 0.13919 0.0
C622 C 0.92942 0.43805 0.15742 0.0
C623 C 0.95763 0.45643 0.16802 0.0
H624 H 0.68121 0.95031 0.70182 0.0
H625 H 0.61419 0.96088 0.64981 0.0
H626 H 0.71475 0.89661 0.68748 0.0
H627 H 0.64713 0.90743 0.63573 0.0
H628 H 0.74056 0.84084 0.60717 0.0
H629 H 0.70939 0.89355 0.62317 0.0
H630 H 0.70639 0.83023 0.67645 0.0
H631 H 0.73828 0.77732 0.66032 0.0
C632 C 0.67347 0.94112 0.6874 0.0
C633 C 0.6451 0.96015 0.67696 0.0
C634 C 0.69259 0.91023 0.67922 0.0
C635 C 0.68392 0.89786 0.66036 0.0
C636 C 0.65511 0.91656 0.65013 0.0
C637 C 0.636 0.94719 0.65829 0.0
C638 C 0.73339 0.83817 0.62232 0.0
C639 C 0.7417 0.80488 0.63246 0.0
C640 C 0.7153 0.86834 0.63149 0.0
C641 C 0.70497 0.86608 0.65108 0.0
C642 C 0.7141 0.83302 0.66138 0.0
C643 C 0.7322 0.80267 0.65214 0.0
H644 H 0.97265 1.00807 0.91795 0.0
H645 H 0.93919 0.97092 0.86101 0.0
H646 H 0.91957 0.97375 0.93197 0.0
H647 H 0.88526 0.93829 0.87469 0.0
H648 H 0.81707 0.84977 0.90496 0.0
H649 H 0.8709 0.88432 0.8925 0.0
H650 H 0.85331 0.97108 0.9356 0.0
H651 H 0.80042 0.93538 0.9486 0.0
C652 C 0.95357 0.99297 0.90845 0.0
C653 C 0.96005 0.99185 0.88846 0.0
C654 C 0.92306 0.97343 0.91643 0.0
C655 C 0.89819 0.95282 0.90451 0.0
C656 C 0.90427 0.95291 0.88441 0.0
C657 C 0.935 0.97191 0.87652 0.0
C658 C 0.82481 0.87614 0.91182 0.0
C659 C 0.80448 0.88988 0.92773 0.0
C660 C 0.85554 0.89618 0.90458 0.0
C661 C 0.86635 0.93084 0.91286 0.0
C662 C 0.84618 0.94434 0.92896 0.0
C663 C 0.81572 0.92395 0.93639 0.0
H664 H 0.83815 0.03472 0.16364 0.0
H665 H 0.92199 0.10629 0.19048 0.0
H666 H 0.80806 0.08936 0.14947 0.0
H667 H 0.89133 0.1618 0.17591 0.0
H668 H 0.79592 0.25157 0.15981 0.0
H669 H 0.82913 0.19973 0.17633 0.0
H670 H 0.8251 0.13402 0.12375 0.0
H671 H 0.79203 0.18519 0.10748 0.0
C672 C 0.85033 0.06215 0.16656 0.0
C673 C 0.88286 0.06591 0.17813 0.0
C674 C 0.833 0.09359 0.15831 0.0
C675 C 0.8475 0.12992 0.16134 0.0
C676 C 0.87945 0.13412 0.17333 0.0
C677 C 0.89709 0.10235 0.1816 0.0
C678 C 0.8022 0.22597 0.15186 0.0
C679 C 0.7911 0.22224 0.13242 0.0
C680 C 0.82142 0.19646 0.16126 0.0
C681 C 0.82952 0.16265 0.15139 0.0
C682 C 0.81883 0.15942 0.13186 0.0
C683 C 0.79993 0.18881 0.12251 0.0
H684 H 0.70371 0.0939 0.4505 0.0
H685 H 0.69604 0.18026 0.40668 0.0
H686 H 0.64856 0.06234 0.43637 0.0
H687 H 0.64095 0.14958 0.39299 0.0
H688 H 0.58018 0.06192 0.3575 0.0
H689 H 0.63114 0.09341 0.3745 0.0
H690 H 0.57998 0.06515 0.4292 0.0
H691 H 0.5288 0.03251 0.41189 0.0
C692 C 0.68994 0.10647 0.43807 0.0
C693 C 0.70462 0.13932 0.42956 0.0
C694 C 0.65827 0.08844 0.43 0.0
C695 C 0.64065 0.10302 0.41331 0.0
C696 C 0.65434 0.13693 0.4055 0.0
C697 C 0.68591 0.15468 0.41344 0.0
C698 C 0.57967 0.06241 0.37316 0.0
C699 C 0.55036 0.04493 0.38335 0.0
C700 C 0.60884 0.08073 0.38294 0.0
C701 C 0.60952 0.08235 0.40326 0.0
C702 C 0.58041 0.06436 0.41355 0.0
C703 C 0.55103 0.04584 0.40367 0.0
H704 H 0.32527 0.03433 0.38342 0.0
H705 H 0.41061 0.10649 0.35878 0.0
H706 H 0.29357 0.08881 0.39693 0.0
H707 H 0.37811 0.16195 0.37263 0.0
H708 H 0.2783 0.24942 0.39271 0.0
H709 H 0.30961 0.19981 0.37332 0.0
H710 H 0.3195 0.13063 0.42437 0.0
H711 H 0.28896 0.17928 0.44343 0.0
C712 C 0.33723 0.06193 0.38073 0.0
C713 C 0.37102 0.06589 0.3703 0.0
C714 C 0.31887 0.09322 0.38847 0.0
C715 C 0.3336 0.12959 0.38609 0.0
C716 C 0.36612 0.13418 0.37467 0.0
C717 C 0.38474 0.10249 0.36681 0.0
C718 C 0.28719 0.22352 0.39967 0.0
C719 C 0.28087 0.21809 0.41955 0.0
C720 C 0.3053 0.19535 0.38864 0.0
C721 C 0.31675 0.16126 0.39732 0.0
C722 C 0.31064 0.15635 0.4172 0.0
C723 C 0.29311 0.18433 0.42814 0.0
H724 H 0.03179 0.04901 0.13739 0.0
H725 H 0.10051 0.04221 0.18888 0.0
H726 H 0.08322 0.0821 0.12067 0.0
H727 H 0.1511 0.07538 0.17253 0.0
H728 H 0.2497 0.0933 0.13405 0.0
H729 H 0.1955 0.06109 0.14714 0.0
H730 H 0.1214 0.14263 0.12033 0.0
H731 H 0.17664 0.1752 0.1067 0.0
C732 C 0.05783 0.05458 0.14511 0.0
C733 C 0.06227 0.04266 0.16438 0.0
C734 C 0.08715 0.07376 0.1356 0.0
C735 C 0.12152 0.08113 0.14516 0.0
C736 C 0.12541 0.0696 0.16454 0.0
C737 C 0.09629 0.05064 0.17397 0.0
C738 C 0.22195 0.10458 0.13081 0.0
C739 C 0.21769 0.13732 0.11951 0.0
C740 C 0.19073 0.08604 0.13843 0.0
C741 C 0.15401 0.09961 0.13518 0.0
C742 C 0.14933 0.13143 0.12315 0.0
C743 C 0.18093 0.15014 0.11538 0.0
H744 H 0.28045 0.85157 0.9284 0.0
H745 H 0.21242 0.76582 0.90109 0.0
H746 H 0.24861 0.90016 0.90923 0.0
H747 H 0.17939 0.8149 0.88232 0.0
H748 H 0.10063 0.92833 0.88295 0.0
H749 H 0.13564 0.87411 0.8958 0.0
H750 H 0.23827 0.91764 0.87113 0.0
H751 H 0.20318 0.97131 0.85774 0.0
C752 C 0.25902 0.84309 0.91807 0.0
C753 C 0.24905 0.80493 0.91614 0.0
C754 C 0.24083 0.8709 0.9071 0.0
C755 C 0.21151 0.86132 0.89431 0.0
C756 C 0.20193 0.82303 0.89207 0.0
C757 C 0.22094 0.79499 0.9027 0.0
C758 C 0.13054 0.92601 0.87998 0.0
C759 C 0.14909 0.95415 0.86931 0.0
C760 C 0.15052 0.89488 0.88726 0.0
C761 C 0.18965 0.89166 0.88444 0.0
C762 C 0.20811 0.91939 0.87348 0.0
C763 C 0.18797 0.95003 0.86578 0.0
H764 H 0.33555 0.88227 0.59142 0.0
H765 H 0.2903 0.88017 0.64927 0.0
H766 H 0.39204 0.91526 0.60372 0.0
H767 H 0.34573 0.91254 0.66135 0.0
H768 H 0.46349 0.93769 0.6812 0.0
H769 H 0.41379 0.9005 0.66609 0.0
H770 H 0.40731 0.98046 0.61917 0.0
H771 H 0.45774 0.01788 0.6344 0.0
C772 C 0.33793 0.88827 0.60673 0.0
C773 C 0.30853 0.87857 0.61937 0.0
C774 C 0.36999 0.90746 0.61374 0.0
C775 C 0.37339 0.9165 0.63353 0.0
C776 C 0.34433 0.90572 0.64609 0.0
C777 C 0.3124 0.88723 0.63912 0.0
C778 C 0.45159 0.94737 0.66764 0.0
C779 C 0.46424 0.98094 0.6591 0.0
C780 C 0.42309 0.92602 0.65896 0.0
C781 C 0.40644 0.93755 0.64145 0.0
C782 C 0.41977 0.97065 0.63258 0.0
C783 C 0.44834 0.99225 0.64137 0.0
H784 H 0.34731 0.97649 0.04697 0.0
H785 H 0.22605 0.97463 0.05091 0.0
H786 H 0.34771 0.90925 0.03947 0.0
H787 H 0.2261 0.90692 0.04433 0.0
H788 H 0.23868 0.81406 0.99772 0.0
H789 H 0.23482 0.87266 1.01571 0.0
H790 H 0.33818 0.84455 0.04583 0.0
H791 H 0.34272 0.78627 0.02716 0.0
C792 C 0.32088 0.96118 0.04715 0.0
C793 C 0.28669 0.98058 0.04957 0.0
C794 C 0.32098 0.92256 0.04279 0.0
C795 C 0.28683 0.90251 0.0409 0.0
C796 C 0.25288 0.92148 0.04515 0.0
C797 C 0.2528 0.96015 0.04923 0.0
C798 C 0.26023 0.81993 1.00844 0.0
C799 C 0.29124 0.79558 1.01079 0.0
C800 C 0.25793 0.85363 1.01892 0.0
C801 C 0.28639 0.8638 0.0322 0.0
C802 C 0.31612 0.83815 0.03548 0.0
C803 C 0.31858 0.80453 0.02486 0.0
H804 H 0.97149 0.50493 0.23978 0.0
H805 H 0.9906 0.61767 0.26141 0.0
H806 H 0.91146 0.50296 0.25624 0.0
H807 H 0.93087 0.61511 0.27882 0.0
H808 H 0.79927 0.61791 0.27741 0.0
H809 H 0.8668 0.61936 0.27082 0.0
H810 H 0.87408 0.5001 0.28358 0.0
H811 H 0.806 0.49875 0.289 0.0
C812 C 0.96342 0.52897 0.24854 0.0
C813 C 0.98578 0.56165 0.24904 0.0
C814 C 0.92883 0.52776 0.25817 0.0
C815 C 0.91575 0.55905 0.26881 0.0
C816 C 0.93945 0.59077 0.27043 0.0
C817 C 0.97396 0.59213 0.26059 0.0
C818 C 0.81567 0.59235 0.27932 0.0
C819 C 0.79768 0.55827 0.28373 0.0
C820 C 0.85448 0.59307 0.27558 0.0
C821 C 0.87618 0.5597 0.27635 0.0
C822 C 0.85833 0.52618 0.28231 0.0
C823 C 0.81943 0.5254 0.2857 0.0
H824 H 0.27526 0.20973 0.49749 0.0
H825 H 0.16938 0.23633 0.52511 0.0
H826 H 0.27767 0.15009 0.51456 0.0
H827 H 0.17245 0.17704 0.54292 0.0
H828 H 0.16334 0.0456 0.54459 0.0
H829 H 0.16344 0.11257 0.53646 0.0
H830 H 0.28491 0.11456 0.54266 0.0
H831 H 0.28444 0.04711 0.54983 0.0
C832 C 0.25296 0.20336 0.50764 0.0
C833 C 0.22197 0.22783 0.50976 0.0
C834 C 0.2544 0.16901 0.51758 0.0
C835 C 0.22508 0.15821 0.53013 0.0
C836 C 0.19519 0.18382 0.53312 0.0
C837 C 0.19359 0.21808 0.52301 0.0
C838 C 0.18983 0.0608 0.54485 0.0
C839 C 0.22382 0.04138 0.54799 0.0
C840 C 0.19003 0.09927 0.54014 0.0
C841 C 0.22429 0.11923 0.53856 0.0
C842 C 0.25803 0.10015 0.54323 0.0
C843 C 0.25781 0.06161 0.54767 0.0
H844 H 0.71939 0.52397 0.79111 0.0
H845 H 0.72444 0.40479 0.77924 0.0
H846 H 0.65124 0.52353 0.78572 0.0
H847 H 0.65677 0.40422 0.77274 0.0
H848 H 0.53256 0.4075 0.76383 0.0
H849 H 0.59294 0.4092 0.78085 0.0
H850 H 0.61291 0.52125 0.75853 0.0
H851 H 0.55219 0.5201 0.74241 0.0
C852 C 0.70558 0.49748 0.7878 0.0
C853 C 0.72693 0.46435 0.78576 0.0
C854 C 0.66661 0.49723 0.78441 0.0
C855 C 0.64821 0.46399 0.77838 0.0
C856 C 0.6695 0.43034 0.77754 0.0
C857 C 0.7084 0.43054 0.78126 0.0
C858 C 0.54948 0.43285 0.76297 0.0
C859 C 0.53753 0.46356 0.75162 0.0
C860 C 0.58437 0.4337 0.77259 0.0
C861 C 0.60842 0.46514 0.77095 0.0
C862 C 0.5953 0.49665 0.76047 0.0
C863 C 0.5603 0.49595 0.75107 0.0
H864 H 0.7558 0.24676 0.0442 0.0
H865 H 0.64515 0.20966 0.06175 0.0
H866 H 0.76083 0.19225 1.02262 0.0
H867 H 0.65049 0.15503 0.04089 0.0
H868 H 0.66205 0.05594 1.00424 0.0
H869 H 0.65537 0.1234 1.0108 0.0
H870 H 0.77177 0.12745 0.02956 0.0
H871 H 0.77863 0.0608 1.0222 0.0
C872 C 0.73216 0.22756 0.04308 0.0
C873 C 0.70034 0.2322 0.05493 0.0
C874 C 0.73516 0.19608 0.03084 0.0
C875 C 0.70638 0.16869 0.0302 0.0
C876 C 0.6732 0.17541 0.04079 0.0
C877 C 0.67023 0.20674 0.05295 0.0
C878 C 0.68654 0.07164 1.00904 0.0
C879 C 0.72068 0.05295 1.01302 0.0
C880 C 0.68264 0.11025 1.01304 0.0
C881 C 0.71276 0.13089 1.02116 0.0
C882 C 0.7479 0.11279 1.02329 0.0
C883 C 0.75181 0.07436 1.01923 0.0
H884 H 0.03319 0.49781 0.80332 0.0
H885 H 0.08904 0.39858 0.82559 0.0
H886 H 0.08024 0.50168 0.77748 0.0
H887 H 0.13622 0.40299 0.80054 0.0
H888 H 0.21883 0.40863 0.75415 0.0
H889 H 0.15649 0.39915 0.76836 0.0
H890 H 0.14422 0.51974 0.7753 0.0
H891 H 0.20538 0.52895 0.76029 0.0
C892 C 0.05507 0.47649 0.80253 0.0
C893 C 0.05752 0.44817 0.81668 0.0
C894 C 0.08229 0.47882 0.7878 0.0
C895 C 0.11253 0.45284 0.78687 0.0
C896 C 0.11337 0.4233 0.80043 0.0
C897 C 0.08633 0.42099 0.81504 0.0
C898 C 0.20206 0.4331 0.75795 0.0
C899 C 0.21728 0.46949 0.7563 0.0
C900 C 0.1665 0.42772 0.76643 0.0
C901 C 0.14545 0.4586 0.77357 0.0
C902 C 0.15922 0.49516 0.77006 0.0
C903 C 0.19453 0.50049 0.76149 0.0
H904 H 0.85907 0.9686 0.52027 0.0
H905 H 0.74557 0.94889 0.50036 0.0
H906 H 0.86565 0.90232 0.5285 0.0
H907 H 0.75246 0.88164 0.50733 0.0
H908 H 0.75553 0.78844 0.55415 0.0
H909 H 0.75114 0.8452 0.53474 0.0
H910 H 0.8709 0.83867 0.52312 0.0
H911 H 0.87535 0.78313 0.54374 0.0
C912 C 0.83616 0.94952 0.51681 0.0
C913 C 0.80197 0.96361 0.50958 0.0
C914 C 0.83981 0.91131 0.52151 0.0
C915 C 0.80939 0.88617 0.51889 0.0
C916 C 0.77622 0.90004 0.51007 0.0
C917 C 0.77237 0.93846 0.50575 0.0
C918 C 0.78072 0.79857 0.54702 0.0
C919 C 0.81584 0.78156 0.55063 0.0
C920 C 0.77827 0.83127 0.53577 0.0
C921 C 0.81081 0.84739 0.52751 0.0
C922 C 0.84536 0.82806 0.52969 0.0
C923 C 0.84792 0.79586 0.54132 0.0
H924 H 0.31945 0.49764 0.24595 0.0
H925 H 0.30014 0.61424 0.26037 0.0
H926 H 0.38429 0.50239 0.25783 0.0
H927 H 0.36368 0.61893 0.27337 0.0
H928 H 0.47805 0.6253 0.29726 0.0
H929 H 0.42814 0.62069 0.27308 0.0
H930 H 0.41331 0.50297 0.28761 0.0
H931 H 0.46499 0.5074 0.31074 0.0
C932 C 0.32965 0.52467 0.25107 0.0
C933 C 0.3051 0.55577 0.25195 0.0
C934 C 0.36659 0.5273 0.25828 0.0
C935 C 0.37953 0.56085 0.26703 0.0
C936 C 0.35549 0.59266 0.26659 0.0
C937 C 0.31885 0.59015 0.25905 0.0
C938 C 0.4648 0.59819 0.2948 0.0
C939 C 0.47534 0.56674 0.30592 0.0
C940 C 0.43575 0.59558 0.28109 0.0
C941 C 0.41562 0.56168 0.27853 0.0
C942 C 0.42803 0.52958 0.28884 0.0
C943 C 0.45778 0.53202 0.30223 0.0
H944 H 0.72638 0.44375 0.52769 0.0
H945 H 0.84223 0.45626 0.54585 0.0
H946 H 0.73865 0.379 0.51833 0.0
H947 H 0.85428 0.39035 0.53763 0.0
H948 H 0.874 0.31549 0.48331 0.0
H949 H 0.86332 0.36399 0.50722 0.0
H950 H 0.7547 0.3152 0.52048 0.0
H951 H 0.76503 0.26716 0.49561 0.0
C952 C 0.75419 0.43209 0.53041 0.0
C953 C 0.78359 0.45544 0.537 0.0
C954 C 0.76125 0.39466 0.52516 0.0
C955 C 0.79786 0.37942 0.52662 0.0
C956 C 0.82602 0.4014 0.53567 0.0
C957 C 0.81902 0.43911 0.54069 0.0
C958 C 0.84814 0.31452 0.49161 0.0
C959 C 0.82 0.28796 0.48722 0.0
C960 C 0.84209 0.34231 0.50557 0.0
C961 C 0.80775 0.34425 0.5157 0.0
C962 C 0.78112 0.31526 0.51267 0.0
C963 C 0.78716 0.28742 0.49853 0.0
H964 H 0.32682 0.98904 0.79408 0.0
H965 H 0.31545 0.10823 0.78355 0.0
H966 H 0.393 0.99157 0.78443 0.0
H967 H 0.38045 0.11086 0.77264 0.0
H968 H 0.49645 0.11448 0.75236 0.0
H969 H 0.44463 0.10901 0.77524 0.0
H970 H 0.42581 0.99432 0.756 0.0
H971 H 0.47936 0.99936 0.73433 0.0
C972 C 0.33891 0.01597 0.7901 0.0
C973 C 0.31628 0.04851 0.78968 0.0
C974 C 0.3767 0.01742 0.78426 0.0
C975 C 0.39244 0.05127 0.77732 0.0
C976 C 0.37007 0.08427 0.77809 0.0
C977 C 0.33256 0.08291 0.78434 0.0
C978 C 0.48205 0.08767 0.75367 0.0
C979 C 0.49191 0.05733 0.74162 0.0
C980 C 0.45186 0.08464 0.76656 0.0
C981 C 0.4299 0.05158 0.76724 0.0
C982 C 0.44185 0.02024 0.75619 0.0
C983 C 0.47275 0.02301 0.74367 0.0
H984 H 0.7677 0.73156 0.98335 0.0
H985 H 0.65094 0.73777 1.00034 0.0
H986 H 0.77729 0.67832 1.00478 0.0
H987 H 0.66084 0.68626 1.02311 0.0
H988 H 0.79108 0.57722 0.0401 0.0
H989 H 0.78251 0.64401 0.03254 0.0
H990 H 0.66479 0.62257 1.01971 0.0
H991 H 0.67336 0.557 0.02865 0.0
C992 C 0.74451 0.72263 0.99242 0.0
C993 C 0.7085 0.73849 0.99007 0.0
C994 C 0.74994 0.69193 1.00484 0.0
C995 C 0.71961 0.67692 1.01551 0.0
C996 C 0.68461 0.69585 1.01467 0.0
C997 C 0.67897 0.72582 1.00183 0.0
C998 C 0.76313 0.58747 0.03646 0.0
C999 C 0.73277 0.56228 0.0351 0.0
C1000 C 0.75822 0.62561 0.03179 0.0
C1001 C 0.72309 0.63907 0.02503 0.0
C1002 C 0.69221 0.61399 0.02505 0.0
C1003 C 0.69699 0.57614 0.03016 0.0
H1004 H 0.05239 0.02345 0.24393 0.0
H1005 H 0.04431 0.90407 0.25512 0.0
H1006 H 0.10833 0.02699 0.26426 0.0
H1007 H 0.09901 0.90773 0.27647 0.0
H1008 H 0.2289 0.91675 0.28113 0.0
H1009 H 0.16321 0.91196 0.27129 0.0
H1010 H 0.14279 0.02479 0.2929 0.0
H1011 H 0.20956 0.02976 0.30177 0.0
C1012 C 0.06174 0.99821 0.25136 0.0
C1013 C 0.04422 0.9634 0.24776 0.0
C1014 C 0.09393 1.00019 0.26313 0.0
C1015 C 0.10899 0.96748 0.27184 0.0
C1016 C 0.08915 0.93334 0.26958 0.0
C1017 C 0.05747 0.93125 0.2575 0.0
C1018 C 0.20994 0.93995 0.28433 0.0
C1019 C 0.22397 0.97339 0.29238 0.0
C1020 C 0.17212 0.93732 0.27871 0.0
C1021 C 0.14728 0.96812 0.2811 0.0
C1022 C 0.16102 1.00073 0.29045 0.0
C1023 C 0.19911 1.00347 0.29584 0.0
H1024 H 0.27101 0.70414 0.55441 0.0
H1025 H 0.1604 0.72973 0.53147 0.0
H1026 H 0.27257 0.64634 0.53568 0.0
H1027 H 0.16248 0.67223 0.51203 0.0
H1028 H 0.27822 0.54869 0.49667 0.0
H1029 H 0.27682 0.61516 0.50595 0.0
H1030 H 0.1571 0.60643 0.51693 0.0
H1031 H 0.15865 0.54045 0.50673 0.0
C1032 C 0.24734 0.69793 0.54499 0.0
C1033 C 0.21546 0.7216 0.54461 0.0
C1034 C 0.24831 0.66469 0.53407 0.0
C1035 C 0.21756 0.65418 0.52228 0.0
C1036 C 0.18645 0.6789 0.52115 0.0
C1037 C 0.18538 0.71212 0.5322 0.0
C1038 C 0.25143 0.56154 0.50038 0.0
C1039 C 0.21849 0.53964 0.50084 0.0
C1040 C 0.25064 0.59948 0.50601 0.0
C1041 C 0.217 0.61627 0.51264 0.0
C1042 C 0.18353 0.59484 0.5118 0.0
C1043 C 0.18428 0.55697 0.5059 0.0
H1044 H 0.72003 0.9188 0.2855 0.0
H1045 H 0.70221 0.01169 0.24637 0.0
H1046 H 0.65221 0.91474 0.2911 0.0
H1047 H 0.63386 1.00796 0.252 0.0
H1048 H 0.5352 0.02499 0.29801 0.0
H1049 H 0.59593 0.02338 0.28156 0.0
H1050 H 0.58868 0.90213 0.27716 0.0
H1051 H 0.52799 0.90361 0.29368 0.0
C1052 C 0.70131 0.9376 0.27765 0.0
C1053 C 0.71613 0.96537 0.26543 0.0
C1054 C 0.66247 0.93528 0.28081 0.0
C1055 C 0.63758 0.9611 0.27203 0.0
C1056 C 0.65233 0.98779 0.25904 0.0
C1057 C 0.6913 0.98975 0.25567 0.0
C1058 C 0.54603 0.99805 0.29309 0.0
C1059 C 0.52687 0.96441 0.29742 0.0
C1060 C 0.58083 0.99715 0.28357 0.0
C1061 C 0.59738 0.96256 0.27826 0.0
C1062 C 0.5769 0.92917 0.2813 0.0
C1063 C 0.54196 0.93009 0.29067 0.0
H1064 H 0.25344 0.31123 0.05417 0.0
H1065 H 0.36623 0.2916 0.03296 0.0
H1066 H 0.24999 0.36937 0.03585 0.0
H1067 H 0.36224 0.34911 1.01374 0.0
H1068 H 0.24283 0.46953 0.99827 0.0
H1069 H 0.24556 0.40301 1.00731 0.0
H1070 H 0.3652 0.41409 1.01852 0.0
H1071 H 0.36231 0.4799 1.00839 0.0
C1072 C 0.27715 0.31872 0.04512 0.0
C1073 C 0.31022 0.29675 0.04519 0.0
C1074 C 0.27514 0.35222 0.03445 0.0
C1075 C 0.30597 0.36456 1.0233 0.0
C1076 C 0.3382 0.34124 1.02245 0.0
C1077 C 0.34037 0.30794 0.03334 0.0
C1078 C 0.26986 0.45716 1.00201 0.0
C1079 C 0.30243 0.47961 1.00243 0.0
C1080 C 0.27143 0.41917 1.00751 0.0
C1081 C 0.30549 0.4029 1.01407 0.0
C1082 C 0.33848 0.42509 1.01339 0.0
C1083 C 0.33696 0.46294 1.00756 0.0
H1084 H 0.96082 0.12672 0.82044 0.0
H1085 H 1.00211 0.01695 0.8036 0.0
H1086 H 0.90924 0.12123 0.79767 0.0
H1087 H 0.95079 0.0118 0.77993 0.0
H1088 H 0.82089 0.99198 0.77219 0.0
H1089 H 0.88597 0.99955 0.78244 0.0
H1090 H 0.88074 0.11772 0.76726 0.0
H1091 H 0.81455 0.11015 0.75791 0.0
C1092 C 0.95954 0.10178 0.81139 0.0
C1093 C 0.98533 0.07203 0.81409 0.0
C1094 C 0.9299 0.09871 0.7981 0.0
C1095 C 0.92512 0.06579 0.78698 0.0
C1096 C 0.95293 0.03729 0.78849 0.0
C1097 C 0.98271 0.04037 0.80191 0.0
C1098 C 0.83398 0.01937 0.77054 0.0
C1099 C 0.81233 0.05059 0.76455 0.0
C1100 C 0.87158 0.02376 0.77635 0.0
C1101 C 0.88879 0.05951 0.77618 0.0
C1102 C 0.86827 0.08993 0.76814 0.0
C1103 C 0.83042 0.08554 0.76246 0.0
H1104 H 0.30489 0.05563 0.9921 0.0
H1105 H 0.21369 0.121 1.0161 0.0
H1106 H 0.27836 0.06322 0.95977 0.0
H1107 H 0.18693 0.1292 0.98355 0.0
H1108 H 0.23174 0.09663 0.90131 0.0
H1109 H 0.26231 0.1041 0.93286 0.0
H1110 H 0.15514 0.08692 0.96101 0.0
H1111 H 0.12468 0.08001 0.92965 0.0
C1112 C 0.27969 0.07265 0.99031 0.0
C1113 C 0.26144 0.08791 1.00656 0.0
C1114 C 0.26444 0.07706 0.97176 0.0
C1115 C 0.23026 0.09658 0.96897 0.0
C1116 C 0.21303 0.11358 0.98518 0.0
C1117 C 0.22853 0.10935 1.00379 0.0
C1118 C 0.21466 0.09482 0.91423 0.0
C1119 C 0.17576 0.08745 0.91288 0.0
C1120 C 0.23221 0.09898 0.93235 0.0
C1121 C 0.21127 0.09611 0.94958 0.0
C1122 C 0.17217 0.08987 0.94813 0.0
C1123 C 0.15472 0.08553 0.93007 0.0
H1124 H 0.68406 0.49772 0.14087 0.0
H1125 H 0.63542 0.39754 0.16594 0.0
H1126 H 0.68535 0.52739 0.17297 0.0
H1127 H 0.63674 0.42699 0.1977 0.0
H1128 H 0.70808 0.46704 0.25051 0.0
H1129 H 0.69239 0.44213 0.21858 0.0
H1130 H 0.64637 0.55039 0.2022 0.0
H1131 H 0.66192 0.57523 0.23451 0.0
C1132 C 0.67286 0.48238 0.15309 0.0
C1133 C 0.66012 0.44507 0.15085 0.0
C1134 C 0.67356 0.49937 0.17148 0.0
C1135 C 0.66166 0.47928 0.18793 0.0
C1136 C 0.64673 0.44296 0.1854 0.0
C1137 C 0.64589 0.42614 0.16713 0.0
C1138 C 0.69385 0.48523 0.24022 0.0
C1139 C 0.68585 0.52288 0.245 0.0
C1140 C 0.68484 0.47103 0.22193 0.0
C1141 C 0.66811 0.49429 0.20782 0.0
C1142 C 0.65936 0.53184 0.21273 0.0
C1143 C 0.66786 0.54592 0.23124 0.0
H1144 H 0.28577 0.9563 0.40628 0.0
H1145 H 0.347 0.85616 0.42322 0.0
H1146 H 0.25725 0.95945 0.43827 0.0
H1147 H 0.31772 0.85859 0.455 0.0
H1148 H 0.30152 0.90908 0.5165 0.0
H1149 H 0.32294 0.89567 0.48359 0.0
H1150 H 0.21516 0.93322 0.46122 0.0
H1151 H 0.19467 0.94768 0.49414 0.0
C1152 C 0.29246 0.93443 0.41667 0.0
C1153 C 0.31886 0.90614 0.41219 0.0
C1154 C 0.27602 0.93614 0.43506 0.0
C1155 C 0.28537 0.90944 0.44941 0.0
C1156 C 0.31038 0.88009 0.44453 0.0
C1157 C 0.32697 0.87853 0.42621 0.0
C1158 C 0.28226 0.91352 0.50452 0.0
C1159 C 0.24642 0.92902 0.50776 0.0
C1160 C 0.29441 0.90588 0.48564 0.0
C1161 C 0.2709 0.91358 0.46961 0.0
C1162 C 0.23432 0.92754 0.47309 0.0
C1163 C 0.22235 0.93538 0.49194 0.0
H1164 H 0.84137 0.52344 0.64177 0.0
H1165 H 0.88703 0.62493 0.66728 0.0
H1166 H 0.83927 0.49425 0.67391 0.0
H1167 H 0.88476 0.59594 0.69909 0.0
H1168 H 0.81266 0.55456 0.75109 0.0
H1169 H 0.82823 0.57947 0.71922 0.0
H1170 H 0.87851 0.47266 0.70364 0.0
H1171 H 0.86309 0.44781 0.73586 0.0
C1172 C 0.85171 0.53921 0.65411 0.0
C1173 C 0.86394 0.57669 0.65194 0.0
C1174 C 0.85054 0.52248 0.67252 0.0
C1175 C 0.86136 0.54302 0.68907 0.0
C1176 C 0.87565 0.57961 0.68668 0.0
C1177 C 0.87704 0.59616 0.66839 0.0
C1178 C 0.82767 0.53666 0.74098 0.0
C1179 C 0.83694 0.49941 0.74596 0.0
C1180 C 0.83664 0.55089 0.72274 0.0
C1181 C 0.85462 0.52803 0.70889 0.0
C1182 C 0.86453 0.49088 0.71398 0.0
C1183 C 0.85608 0.4768 0.73243 0.0
H1184 H 0.7825 0.89557 0.04129 0.0
H1185 H 0.71519 0.98058 0.06969 0.0
H1186 H 0.80939 0.87715 0.07262 0.0
H1187 H 0.74263 0.96339 0.10065 0.0
H1188 H 0.78502 0.91928 0.15666 0.0
H1189 H 0.74973 0.91921 0.12626 0.0
H1190 H 0.85382 0.90465 0.09473 0.0
H1191 H 0.88873 0.90357 0.125 0.0
C1192 C 0.77303 0.90987 0.05425 0.0
C1193 C 0.74716 0.93986 0.05299 0.0
C1194 C 0.78866 0.89962 0.07219 0.0
C1195 C 0.77854 0.91901 0.08924 0.0
C1196 C 0.75097 0.9475 0.08798 0.0
C1197 C 0.73549 0.95769 0.07014 0.0
C1198 C 0.80026 0.9153 0.14326 0.0
C1199 C 0.83977 0.91186 0.1433 0.0
C1200 C 0.78006 0.91552 0.12579 0.0
C1201 C 0.79889 0.91242 0.10793 0.0
C1202 C 0.83819 0.90677 0.10811 0.0
C1203 C 0.85832 0.90644 0.12555 0.0
H1204 H 0.35698 0.46548 0.79734 0.0
H1205 H 0.31473 0.57231 0.77689 0.0
H1206 H 0.37134 0.49404 0.82889 0.0
H1207 H 0.32868 0.60093 0.80817 0.0
H1208 H 0.37335 0.65043 0.86269 0.0
H1209 H 0.3764 0.61996 0.83122 0.0
H1210 H 0.33245 0.51739 0.85601 0.0
H1211 H 0.33004 0.54786 0.88779 0.0
C1212 C 0.35208 0.49539 0.79941 0.0
C1213 C 0.33537 0.51693 0.78465 0.0
C1214 C 0.35971 0.51162 0.81754 0.0
C1215 C 0.35097 0.54976 0.82115 0.0
C1216 C 0.33626 0.57165 0.8059 0.0
C1217 C 0.32836 0.55536 0.78793 0.0
C1218 C 0.36468 0.62123 0.86154 0.0
C1219 C 0.35098 0.60175 0.87776 0.0
C1220 C 0.36636 0.60378 0.84343 0.0
C1221 C 0.35427 0.56634 0.84097 0.0
C1222 C 0.34228 0.54618 0.85738 0.0
C1223 C 0.34069 0.56369 0.8756 0.0
H1224 H 0.62069 0.1007 0.62679 0.0
H1225 H 0.72953 0.0766 0.65229 0.0
H1226 H 0.64867 0.1001 0.5948 0.0
H1227 H 0.75769 0.0757 0.61991 0.0
H1228 H 0.79964 0.10283 0.55815 0.0
H1229 H 0.77255 0.11455 0.59028 0.0
H1230 H 0.67406 0.05004 0.57419 0.0
H1231 H 0.70099 0.03866 0.54232 0.0
C1232 C 0.65071 0.09545 0.62562 0.0
C1233 C 0.67278 0.08834 0.64218 0.0
C1234 C 0.66674 0.09501 0.6072 0.0
C1235 C 0.70535 0.08751 0.60472 0.0
C1236 C 0.72787 0.08182 0.62131 0.0
C1237 C 0.71172 0.08216 0.63986 0.0
C1238 C 0.77182 0.092 0.56141 0.0
C1239 C 0.75228 0.07005 0.54772 0.0
C1240 C 0.75653 0.09826 0.57986 0.0
C1241 C 0.72118 0.08313 0.58486 0.0
C1242 C 0.70114 0.06246 0.57082 0.0
C1243 C 0.71655 0.05588 0.55254 0.0
H1244 H 0.17027 0.47758 0.39114 0.0
H1245 H 0.16932 0.373 0.35905 0.0
H1246 H 0.16863 0.51276 0.36076 0.0
H1247 H 0.16883 0.40784 0.32888 0.0
H1248 H 0.15354 0.477 0.27528 0.0
H1249 H 0.13704 0.44824 0.3064 0.0
H1250 H 0.21208 0.52572 0.33562 0.0
H1251 H 0.22728 0.55476 0.30487 0.0
C1252 C 0.16941 0.46208 0.37764 0.0
C1253 C 0.17031 0.42245 0.37759 0.0
C1254 C 0.16865 0.48224 0.36018 0.0
C1255 C 0.16887 0.46325 0.34223 0.0
C1256 C 0.16815 0.42359 0.3423 0.0
C1257 C 0.16881 0.40352 0.3597 0.0
C1258 C 0.16564 0.48836 0.28845 0.0
C1259 C 0.19202 0.51778 0.28762 0.0
C1260 C 0.15656 0.47168 0.30628 0.0
C1261 C 0.17356 0.48426 0.32362 0.0
C1262 C 0.19809 0.51532 0.32274 0.0
C1263 C 0.20711 0.53183 0.30504 0.0
H1264 H 0.72235 0.58356 0.39081 0.0
H1265 H 0.61643 0.59987 0.42041 0.0
H1266 H 0.75507 0.58146 0.42199 0.0
H1267 H 0.6487 0.59677 0.45136 0.0
H1268 H 0.71643 0.60957 0.50593 0.0
H1269 H 0.69125 0.62564 0.47391 0.0
H1270 H 0.76065 0.53858 0.44834 0.0
H1271 H 0.7865 0.52376 0.47999 0.0
C1272 C 0.70607 0.58691 0.40393 0.0
C1273 C 0.66672 0.59163 0.40305 0.0
C1274 C 0.72479 0.58554 0.42184 0.0
C1275 C 0.70459 0.58881 0.43931 0.0
C1276 C 0.66539 0.59471 0.43831 0.0
C1277 C 0.64677 0.59612 0.42047 0.0
C1278 C 0.72679 0.59451 0.49338 0.0
C1279 C 0.75298 0.56502 0.49554 0.0
C1280 C 0.71213 0.6034 0.47504 0.0
C1281 C 0.72352 0.58312 0.45846 0.0
C1282 C 0.7513 0.55507 0.46062 0.0
C1283 C 0.76585 0.54624 0.47886 0.0
H1284 H 0.13681 0.87704 0.6831 0.0
H1285 H 0.17824 0.97757 0.65508 0.0
H1286 H 0.14319 0.90762 0.71446 0.0
H1287 H 0.18456 1.00826 0.68669 0.0
H1288 H 0.17061 0.05873 0.74784 0.0
H1289 H 0.14946 0.03128 0.71701 0.0
H1290 H 0.20204 0.92555 0.73258 0.0
H1291 H 0.22327 0.95306 0.7631 0.0
C1292 C 0.14676 0.9059 0.68357 0.0
C1293 C 0.15748 0.92468 0.66656 0.0
C1294 C 0.1505 0.92336 0.70159 0.0
C1295 C 0.16478 0.96016 0.70307 0.0
C1296 C 0.1733 0.9799 0.686 0.0
C1297 C 0.16979 0.96229 0.6679 0.0
C1298 C 0.1768 0.02939 0.74478 0.0
C1299 C 0.19834 1.00786 0.75783 0.0
C1300 C 0.16507 0.01383 0.7271 0.0
C1301 C 0.17412 0.97629 0.72236 0.0
C1302 C 0.19426 0.95441 0.73587 0.0
C1303 C 0.20647 0.97011 0.75333 0.0
H1304 H 0.72995 0.48864 0.9794 0.0
H1305 H 0.81405 0.41653 1.00534 0.0
H1306 H 0.75351 0.47303 0.94738 0.0
H1307 H 0.83892 0.4016 0.97312 0.0
H1308 H 0.85792 0.36234 0.91045 0.0
H1309 H 0.83 0.37152 0.94239 0.0
H1310 H 0.80567 0.48763 0.92792 0.0
H1311 H 0.83232 0.47808 0.89598 0.0
C1312 C 0.75356 0.46931 0.97819 0.0
C1313 C 0.77039 0.45405 0.99487 0.0
C1314 C 0.76733 0.46056 0.95981 0.0
C1315 C 0.7987 0.43659 0.95752 0.0
C1316 C 0.81463 0.42004 0.97423 0.0
C1317 C 0.80049 0.42857 0.99272 0.0
C1318 C 0.84631 0.38974 0.91406 0.0
C1319 C 0.84712 0.41937 0.90054 0.0
C1320 C 0.83053 0.3951 0.93246 0.0
C1321 C 0.81529 0.43028 0.93786 0.0
C1322 C 0.81626 0.45986 0.92426 0.0
C1323 C 0.83177 0.45444 0.90588 0.0
H1324 H 0.35816 0.06121 0.26595 0.0
H1325 H 0.31984 0.95643 0.24124 0.0
H1326 H 0.37377 0.08441 0.23365 0.0
H1327 H 0.33677 0.97851 0.209 0.0
H1328 H 0.3197 0.0499 0.15407 0.0
H1329 H 0.31357 0.02074 0.18576 0.0
H1330 H 0.41168 0.08185 0.20577 0.0
H1331 H 0.41678 0.112 0.17426 0.0
C1332 C 0.35422 0.04277 0.25361 0.0
C1333 C 0.33805 1.00704 0.25602 0.0
C1334 C 0.36314 0.05595 0.23505 0.0
C1335 C 0.35626 0.03354 0.21851 0.0
C1336 C 0.34175 0.99698 0.22122 0.0
C1337 C 0.3325 0.98406 0.23971 0.0
C1338 C 0.34032 0.05663 0.16513 0.0
C1339 C 0.36863 0.08341 0.16161 0.0
C1340 C 0.33691 0.03981 0.18338 0.0
C1341 C 0.36197 0.04901 0.19856 0.0
C1342 C 0.39132 0.07457 0.19468 0.0
C1343 C 0.39448 0.09165 0.17651 0.0
H1344 H 0.31377 0.44722 0.52878 0.0
H1345 H 0.20713 0.40066 0.54649 0.0
H1346 H 0.34047 0.43339 0.56051 0.0
H1347 H 0.23385 0.38651 0.57854 0.0
H1348 H 0.28402 0.42594 0.63917 0.0
H1349 H 0.25493 0.42483 0.60696 0.0
H1350 H 0.3594 0.38377 0.58275 0.0
H1351 H 0.3884 0.38529 0.61464 0.0
C1352 C 0.2964 0.43296 0.53935 0.0
C1353 C 0.25856 0.42461 0.53512 0.0
C1354 C 0.31164 0.42504 0.55757 0.0
C1355 C 0.28931 0.40892 0.57218 0.0
C1356 C 0.25174 0.3992 0.5677 0.0
C1357 C 0.23658 0.40679 0.54929 0.0
C1358 C 0.30054 0.4161 0.62701 0.0
C1359 C 0.3387 0.40618 0.6295 0.0
C1360 C 0.28384 0.41533 0.60854 0.0
C1361 C 0.30496 0.40464 0.59218 0.0
C1362 C 0.34248 0.39283 0.59493 0.0
C1363 C 0.35908 0.3936 0.61329 0.0
H1364 H 0.90366 0.10898 0.38711 0.0
H1365 H 0.79402 0.06384 0.40115 0.0
H1366 H 0.90024 0.07917 0.35524 0.0
H1367 H 0.79045 0.03454 0.36934 0.0
H1368 H 0.80548 0.95801 0.31865 0.0
H1369 H 0.81833 0.98408 0.35061 0.0
H1370 H 0.86579 0.08361 0.32429 0.0
H1371 H 0.8532 0.05693 0.29213 0.0
C1372 C 0.87886 0.09262 0.38345 0.0
C1373 C 0.84917 0.08872 0.39679 0.0
C1374 C 0.87684 0.0757 0.36511 0.0
C1375 C 0.84519 0.05421 0.35968 0.0
C1376 C 0.8156 0.05028 0.37308 0.0
C1377 C 0.81753 0.0673 0.39135 0.0
C1378 C 0.81935 0.98515 0.3197 0.0
C1379 C 0.82817 1.00551 0.30288 0.0
C1380 C 0.82638 1.00029 0.33802 0.0
C1381 C 0.84237 0.03634 0.3401 0.0
C1382 C 0.85347 0.05575 0.32326 0.0
C1383 C 0.84644 0.04046 0.30482 0.0
H1384 H 0.31899 0.61485 0.04754 0.0
H1385 H 0.20802 0.57919 0.02974 0.0
H1386 H 0.29432 0.63129 0.07967 0.0
H1387 H 0.18321 0.59568 0.06156 0.0
H1388 H 0.14211 0.65134 0.11556 0.0
H1389 H 0.17087 0.64905 0.08371 0.0
H1390 H 0.26883 0.5938 0.10791 0.0
H1391 H 0.23994 0.59618 0.14006 0.0
C1392 C 0.28912 0.61164 0.05036 0.0
C1393 C 0.26521 0.59635 0.03614 0.0
C1394 C 0.27509 0.62056 0.06879 0.0
C1395 C 0.23679 0.61476 0.07322 0.0
C1396 C 0.21272 0.60097 0.05861 0.0
C1397 C 0.22683 0.5916 0.04036 0.0
C1398 C 0.17001 0.6391 0.11423 0.0
C1399 C 0.18852 0.62355 0.13041 0.0
C1400 C 0.18644 0.6377 0.09589 0.0
C1401 C 0.22195 0.62085 0.09318 0.0
C1402 C 0.2415 0.60716 0.10951 0.0
C1403 C 0.22492 0.60843 0.12794 0.0
H1404 H 0.68025 0.98067 0.90666 0.0
H1405 H 0.67394 0.87622 0.87462 0.0
H1406 H 0.67969 0.01586 0.87629 0.0
H1407 H 0.6746 0.91103 0.84444 0.0
H1408 H 0.73584 0.05679 0.81965 0.0
H1409 H 0.72164 0.02794 0.85058 0.0
H1410 H 0.64347 0.95222 0.82231 0.0
H1411 H 0.65907 0.98063 0.79102 0.0
C1412 C 0.67859 0.9652 0.89317 0.0
C1413 C 0.6774 0.92558 0.89314 0.0
C1414 C 0.67843 0.98537 0.87571 0.0
C1415 C 0.67726 0.96641 0.85776 0.0
C1416 C 0.67492 0.92681 0.85785 0.0
C1417 C 0.67492 0.90673 0.87526 0.0
C1418 C 0.71519 0.03431 0.82007 0.0
C1419 C 0.69895 0.02064 0.80285 0.0
C1420 C 0.70678 0.01788 0.83789 0.0
C1421 C 0.68167 0.98732 0.83908 0.0
C1422 C 0.66351 0.97522 0.82195 0.0
C1423 C 0.67202 0.99175 0.80403 0.0
H1424 H 0.58283 0.36527 0.09883 0.0
H1425 H 0.62758 0.2563 0.11453 0.0
H1426 H 0.51912 0.34108 0.10128 0.0
H1427 H 0.56395 0.23078 0.11538 0.0
H1428 H 0.44439 0.19553 0.12752 0.0
H1429 H 0.50698 0.22314 0.1291 0.0
H1430 H 0.47256 0.30754 0.08741 0.0
H1431 H 0.40919 0.28136 0.08719 0.0
C1432 C 0.57906 0.33589 0.10263 0.0
C1433 C 0.61054 0.31269 0.10627 0.0
C1434 C 0.54223 0.32172 0.10383 0.0
C1435 C 0.53548 0.28348 0.10822 0.0
C1436 C 0.56722 0.26046 0.11221 0.0
C1437 C 0.60409 0.275 0.11155 0.0
C1438 C 0.45017 0.22026 0.11884 0.0
C1439 C 0.42166 0.23621 0.10723 0.0
C1440 C 0.48644 0.23602 0.11956 0.0
C1441 C 0.49584 0.26772 0.10826 0.0
C1442 C 0.46694 0.28374 0.09672 0.0
C1443 C 0.43033 0.26854 0.09644 0.0
H1444 H 0.4889 0.65868 0.36561 0.0
H1445 H 0.6 0.69822 0.3505 0.0
H1446 H 0.46638 0.72339 0.36713 0.0
H1447 H 0.57835 0.76324 0.3532 0.0
H1448 H 0.51814 0.87473 0.33921 0.0
H1449 H 0.54383 0.81084 0.33897 0.0
H1450 H 0.46497 0.77912 0.3837 0.0
H1451 H 0.43801 0.84213 0.38287 0.0
C1452 C 0.50871 0.68129 0.36294 0.0
C1453 C 0.5462 0.67321 0.35787 0.0
C1454 C 0.49589 0.71865 0.36394 0.0
C1455 C 0.52042 0.74914 0.36036 0.0
C1456 C 0.55822 0.74087 0.35568 0.0
C1457 C 0.57081 0.70345 0.35426 0.0
C1458 C 0.50662 0.8541 0.34909 0.0
C1459 C 0.47587 0.8634 0.36094 0.0
C1460 C 0.52143 0.81733 0.34904 0.0
C1461 C 0.50635 0.78913 0.36116 0.0
C1462 C 0.47673 0.79932 0.37368 0.0
C1463 C 0.46144 0.83571 0.37339 0.0
H1464 H 0.08248 0.81806 0.62886 0.0
H1465 H 0.11482 0.74066 0.58363 0.0
H1466 H 0.01971 0.79087 0.6295 0.0
H1467 H 0.05114 0.71453 0.58342 0.0
H1468 H 0.94159 0.65439 0.59635 0.0
H1469 H 1.00575 0.67816 0.59826 0.0
H1470 H 0.96262 0.78836 0.61368 0.0
H1471 H 0.8985 0.76372 0.61278 0.0
C1472 C 0.07608 0.79526 0.61894 0.0
C1473 C 0.10376 0.78164 0.60614 0.0
C1474 C 0.03977 0.7798 0.61917 0.0
C1475 C 0.02961 0.75061 0.60636 0.0
C1476 C 0.05764 0.73656 0.59374 0.0
C1477 C 0.0943 0.75163 0.59377 0.0
C1478 C 0.94581 0.68368 0.60027 0.0
C1479 C 0.91476 0.70714 0.60439 0.0
C1480 C 0.9828 0.69749 0.60121 0.0
C1481 C 0.98996 0.73544 0.606 0.0
C1482 C 0.95873 0.75882 0.61027 0.0
C1483 C 0.92172 0.74477 0.60967 0.0
H1484 H 0.10904 0.19119 0.85049 0.0
H1485 H 1.00684 0.14726 0.87572 0.0
H1486 H 0.08179 0.25469 0.85084 0.0
H1487 H 0.97938 0.21066 0.87554 0.0
H1488 H 0.93365 0.32239 0.84563 0.0
H1489 H 0.96057 0.25877 0.8476 0.0
H1490 H 0.05799 0.30316 0.87737 0.0
H1491 H 0.03082 0.3666 0.87586 0.0
C1492 C 0.08081 0.19503 0.85613 0.0
C1493 C 0.06014 0.16402 0.86304 0.0
C1494 C 0.06528 0.23143 0.85637 0.0
C1495 C 0.02841 0.23759 0.86314 0.0
C1496 C 1.00776 0.2067 0.87012 0.0
C1497 C 0.02361 0.17042 0.8703 0.0
C1498 C 0.96072 0.31857 0.85268 0.0
C1499 C 0.98006 0.34964 0.86057 0.0
C1500 C 0.97603 0.28213 0.85388 0.0
C1501 C 0.01141 0.27604 0.86261 0.0
C1502 C 0.03077 0.30705 0.87049 0.0
C1503 C 0.01508 0.34334 0.86969 0.0
H1504 H 0.57526 0.85122 0.95589 0.0
H1505 H 0.61081 0.7508 0.92546 0.0
H1506 H 0.51078 0.82781 0.95649 0.0
H1507 H 0.5466 0.72675 0.92664 0.0
H1508 H 0.42218 0.70831 0.91577 0.0
H1509 H 0.48522 0.73475 0.91403 0.0
H1510 H 0.47173 0.78193 0.97126 0.0
H1511 H 0.40785 0.75651 0.97268 0.0
C1512 C 0.56937 0.82407 0.94936 0.0
C1513 C 0.59832 0.80294 0.94059 0.0
C1514 C 0.53234 0.81049 0.94983 0.0
C1515 C 0.52327 0.77525 0.94169 0.0
C1516 C 0.55224 0.75427 0.9328 0.0
C1517 C 0.58922 0.76802 0.93217 0.0
C1518 C 0.43257 0.72437 0.928 0.0
C1519 C 0.40994 0.73011 0.94442 0.0
C1520 C 0.46894 0.73939 0.92704 0.0
C1521 C 0.48392 0.76031 0.94255 0.0
C1522 C 0.46108 0.7664 0.95892 0.0
C1523 C 0.42447 0.75163 0.9598 0.0
H1524 H 0.4977 0.14952 0.68321 0.0
H1525 H 0.60702 0.19354 0.69883 0.0
H1526 H 0.47179 0.21279 0.68312 0.0
H1527 H 0.58185 0.25758 0.69747 0.0
H1528 H 0.51867 0.36712 0.71119 0.0
H1529 H 0.54631 0.30415 0.71133 0.0
H1530 H 0.46532 0.26895 0.66802 0.0
H1531 H 0.43639 0.33106 0.66901 0.0
C1532 C 0.51646 0.17285 0.68633 0.0
C1533 C 0.55454 0.16621 0.69104 0.0
C1534 C 0.50159 0.20953 0.68612 0.0
C1535 C 0.52447 0.24114 0.69014 0.0
C1536 C 0.56282 0.23439 0.69463 0.0
C1537 C 0.5775 0.19749 0.69527 0.0
C1538 C 0.50683 0.34588 0.70169 0.0
C1539 C 0.47503 0.35421 0.69022 0.0
C1540 C 0.52289 0.30956 0.70165 0.0
C1541 C 0.50818 0.28059 0.6898 0.0
C1542 C 0.47708 0.28961 0.67785 0.0
C1543 C 0.46053 0.32559 0.67825 0.0
H1544 H 0.11064 0.26301 0.4723 0.0
H1545 H 0.09606 0.30549 0.4143 0.0
H1546 H 0.04665 0.23767 0.47146 0.0
H1547 H 0.03307 0.2788 0.41303 0.0
H1548 H 0.90765 0.26493 0.42335 0.0
H1549 H 0.97217 0.2879 0.42422 0.0
H1550 H 1.0049 0.1923 0.45926 0.0
H1551 H 0.93976 0.17034 0.45908 0.0
C1552 C 0.09399 0.26648 0.45926 0.0
C1553 C 0.10845 0.28661 0.44344 0.0
C1554 C 0.05723 0.25176 0.45871 0.0
C1555 C 0.03413 0.25633 0.44222 0.0
C1556 C 0.04929 0.27546 0.4262 0.0
C1557 C 0.08571 0.29059 0.42687 0.0
C1558 C 0.92862 0.24868 0.43117 0.0
C1559 C 0.91838 0.21574 0.44113 0.0
C1560 C 0.96589 0.26177 0.4316 0.0
C1561 C 0.99426 0.24202 0.44176 0.0
C1562 C 0.98399 0.20876 0.45154 0.0
C1563 C 0.94655 0.19595 0.45132 0.0
H1564 H 1.00205 0.66038 0.21028 0.0
H1565 H 0.08555 0.69686 0.16917 0.0
H1566 H 0.97597 0.72408 0.21127 0.0
H1567 H 0.05832 0.75974 0.16906 0.0
H1568 H 0.0284 0.87938 0.18688 0.0
H1569 H 0.05323 0.81534 0.18542 0.0
H1570 H 0.94182 0.77159 0.19727 0.0
H1571 H 0.91791 0.83567 0.19994 0.0
C1572 C 0.01437 0.68185 0.20116 0.0
C1573 C 0.04606 0.67351 0.18976 0.0
C1574 C 0.99931 0.71858 0.20162 0.0
C1575 C 0.01499 0.74784 0.19036 0.0
C1576 C 0.04589 0.73878 0.17843 0.0
C1577 C 0.06139 0.70239 0.17831 0.0
C1578 C 1.00926 0.85603 0.18914 0.0
C1579 C 0.97122 0.86278 0.19364 0.0
C1580 C 0.02342 0.81903 0.18818 0.0
C1581 C 0.99975 0.78757 0.19122 0.0
C1582 C 0.96142 0.7946 0.19528 0.0
C1583 C 0.94751 0.83157 0.19666 0.0
loop_
_geom_bond_atom_site_label_1
_geom_bond_atom_site_label_2
_geom_bond_distance
_geom_bond_site_symmetry_2
_ccdc_geom_bond_type
O0 Tb1 2.292 . S
O0 C3 1.255 . S
Tb1 O0 2.292 . S
Tb1 O17 2.326 . S
Tb1 O19 2.500 . S
Tb1 O20 2.473 . S
Tb1 O23 2.324 . S
Eu2 O6 2.292 . S
Eu2 C7 2.852 . S
Eu2 O18 2.324 . S
Eu2 O22 2.326 . S
Eu2 O24 2.500 . S
Eu2 O25 2.473 . S
C3 O0 1.255 . S
C3 O4 1.247 . S
O4 C3 1.247 . S
C5 O17 1.242 . S
C5 O18 1.258 . S
O6 Eu2 2.292 . S
O6 C8 1.255 . S
C7 Eu2 2.852 . S
C7 C11 1.503 . S
C7 O24 1.273 . S
C7 O25 1.257 . S
C8 O6 1.255 . S
C8 O9 1.247 . S
O9 C8 1.247 . S
C10 O22 1.242 . S
C10 O23 1.258 . S
C11 C7 1.503 . S
C11 C12 1.379 . S
C11 C16 1.392 . S
C12 C11 1.379 . S
C12 C13 1.404 . S
C12 H26 0.929 . S
C13 C12 1.404 . S
C13 C14 1.389 . S
C14 C13 1.389 . S
C14 C15 1.399 1_545 S
C14 H27 0.929 1_544 S
C15 C14 1.399 1_565 S
C15 C16 1.390 1_565 S
C16 C11 1.392 . S
C16 C15 1.390 1_545 S
C16 H28 0.929 1_545 S
O17 Tb1 2.326 . S
O17 C5 1.242 . S
O18 Eu2 2.324 . S
O18 C5 1.258 . S
O19 Tb1 2.500 . S
O19 C21 1.273 . S
O20 Tb1 2.473 . S
O20 C21 1.257 . S
C21 O19 1.273 . S
C21 O20 1.257 . S
O22 Eu2 2.326 . S
O22 C10 1.242 . S
O23 Tb1 2.324 . S
O23 C10 1.258 . S
O24 Eu2 2.500 . S
O24 C7 1.273 . S
O25 Eu2 2.473 . S
O25 C7 1.257 . S
H26 C12 0.929 . S
H27 C14 0.929 1_566 S
H28 C16 0.929 1_565 S
O29 Tb30 2.292 . S
O29 C32 1.255 . S
Tb30 O29 2.292 . S
Tb30 O46 2.326 . S
Tb30 O48 2.500 . S
Tb30 O49 2.473 . S
Tb30 O52 2.324 . S
Eu31 O35 2.292 . S
Eu31 C36 2.852 . S
Eu31 O47 2.324 . S
Eu31 O51 2.326 . S
Eu31 O53 2.500 . S
Eu31 O54 2.473 . S
C32 O29 1.255 . S
C32 O33 1.247 . S
O33 C32 1.247 . S
C34 O46 1.242 . S
C34 O47 1.258 . S
O35 Eu31 2.292 . S
O35 C37 1.255 . S
C36 Eu31 2.852 . S
C36 C40 1.503 . S
C36 O53 1.273 . S
C36 O54 1.257 . S
C37 O35 1.255 . S
C37 O38 1.247 . S
O38 C37 1.247 . S
C39 O51 1.242 . S
C39 O52 1.258 . S
C40 C36 1.503 . S
C40 C41 1.379 . S
C40 C45 1.392 . S
C41 C40 1.379 . S
C41 C42 1.404 . S
C41 H55 0.929 . S
C42 C41 1.404 . S
C42 C43 1.389 . S
C43 C42 1.389 . S
C43 C44 1.399 . S
C43 H56 0.931 . S
C44 C43 1.399 . S
C44 C45 1.390 . S
C45 C40 1.392 . S
C45 C44 1.390 . S
C45 H57 0.929 . S
O46 Tb30 2.326 . S
O46 C34 1.242 . S
O47 Eu31 2.324 . S
O47 C34 1.258 . S
O48 Tb30 2.500 . S
O48 C50 1.273 . S
O49 Tb30 2.473 . S
O49 C50 1.257 . S
C50 O48 1.273 . S
C50 O49 1.257 . S
O51 Eu31 2.326 . S
O51 C39 1.242 . S
O52 Tb30 2.324 . S
O52 C39 1.258 . S
O53 Eu31 2.500 . S
O53 C36 1.273 . S
O54 Eu31 2.473 . S
O54 C36 1.257 . S
H55 C41 0.929 . S
H56 C43 0.931 . S
H57 C45 0.929 . S
O58 Tb59 2.292 . S
O58 C61 1.255 . S
Tb59 O58 2.292 . S
Tb59 O75 2.326 . S
Tb59 O77 2.500 . S
Tb59 O78 2.473 . S
Tb59 O81 2.324 . S
Eu60 O64 2.292 . S
Eu60 C65 2.852 . S
Eu60 O76 2.324 . S
Eu60 O80 2.326 . S
Eu60 O82 2.500 . S
Eu60 O83 2.473 . S
C61 O58 1.255 . S
C61 O62 1.247 . S
O62 C61 1.247 . S
C63 O75 1.242 . S
C63 O76 1.258 . S
O64 Eu60 2.292 . S
O64 C66 1.255 . S
C65 Eu60 2.852 . S
C65 C69 1.503 . S
C65 O82 1.273 . S
C65 O83 1.257 . S
C66 O64 1.255 . S
C66 O67 1.247 . S
O67 C66 1.247 . S
C68 O80 1.242 . S
C68 O81 1.258 . S
C69 C65 1.503 . S
C69 C70 1.379 . S
C69 C74 1.392 . S
C70 C69 1.379 . S
C70 C71 1.404 . S
C70 H84 0.929 . S
C71 C70 1.404 . S
C71 C72 1.389 . S
C72 C71 1.389 . S
C72 C73 1.399 1_565 S
C72 H85 0.929 1_565 S
C73 C72 1.399 1_545 S
C73 C74 1.390 1_545 S
C74 C69 1.392 . S
C74 C73 1.390 1_565 S
C74 H86 0.929 1_565 S
O75 Tb59 2.326 . S
O75 C63 1.242 . S
O76 Eu60 2.324 . S
O76 C63 1.258 . S
O77 Tb59 2.500 . S
O77 C79 1.273 . S
O78 Tb59 2.473 . S
O78 C79 1.257 . S
C79 O77 1.273 . S
C79 O78 1.257 . S
O80 Eu60 2.326 . S
O80 C68 1.242 . S
O81 Tb59 2.324 . S
O81 C68 1.258 . S
O82 Eu60 2.500 . S
O82 C65 1.273 . S
O83 Eu60 2.473 . S
O83 C65 1.257 . S
H84 C70 0.929 . S
H85 C72 0.929 1_545 S
H86 C74 0.929 1_545 S
O87 Tb88 2.292 . S
O87 C90 1.255 . S
Tb88 O87 2.292 . S
Tb88 O104 2.326 . S
Tb88 O106 2.500 1_655 S
Tb88 O107 2.473 . S
Tb88 O110 2.324 . S
Eu89 O93 2.292 . S
Eu89 C94 2.852 . S
Eu89 O105 2.324 . S
Eu89 O109 2.326 . S
Eu89 O111 2.500 . S
Eu89 O112 2.473 . S
C90 O87 1.255 . S
C90 O91 1.247 . S
O91 C90 1.247 . S
C92 O104 1.242 . S
C92 O105 1.258 . S
O93 Eu89 2.292 . S
O93 C95 1.255 . S
C94 Eu89 2.852 . S
C94 C98 1.503 . S
C94 O111 1.273 . S
C94 O112 1.257 . S
C95 O93 1.255 . S
C95 O96 1.247 . S
O96 C95 1.247 . S
C97 O109 1.242 . S
C97 O110 1.258 . S
C98 C94 1.503 . S
C98 C99 1.379 . S
C98 C103 1.392 . S
C99 C98 1.379 . S
C99 C100 1.404 . S
C99 H113 0.929 . S
C100 C99 1.404 . S
C100 C101 1.389 . S
C101 C100 1.389 . S
C101 C102 1.399 . S
C101 H114 0.931 . S
C102 C101 1.399 . S
C102 C103 1.390 . S
C103 C98 1.392 . S
C103 C102 1.390 . S
C103 H115 0.929 . S
O104 Tb88 2.326 . S
O104 C92 1.242 . S
O105 Eu89 2.324 . S
O105 C92 1.258 . S
O106 Tb88 2.500 1_455 S
O106 C108 1.273 1_455 S
O107 Tb88 2.473 . S
O107 C108 1.257 . S
C108 O106 1.273 1_655 S
C108 O107 1.257 . S
O109 Eu89 2.326 . S
O109 C97 1.242 . S
O110 Tb88 2.324 . S
O110 C97 1.258 . S
O111 Eu89 2.500 . S
O111 C94 1.273 . S
O112 Eu89 2.473 . S
O112 C94 1.257 . S
H113 C99 0.929 . S
H114 C101 0.931 . S
H115 C103 0.929 . S
O116 Tb117 2.292 . S
O116 C119 1.255 . S
Tb117 O116 2.292 . S
Tb117 O133 2.326 . S
Tb117 O135 2.500 . S
Tb117 O136 2.473 . S
Tb117 O139 2.324 . S
Eu118 O122 2.292 . S
Eu118 C123 2.852 . S
Eu118 O134 2.324 . S
Eu118 O138 2.326 . S
Eu118 O140 2.500 . S
Eu118 O141 2.473 . S
C119 O116 1.255 . S
C119 O120 1.247 . S
O120 C119 1.247 . S
C121 O133 1.242 . S
C121 O134 1.258 . S
O122 Eu118 2.292 . S
O122 C124 1.255 . S
C123 Eu118 2.852 . S
C123 C127 1.503 . S
C123 O140 1.273 . S
C123 O141 1.257 . S
C124 O122 1.255 . S
C124 O125 1.247 . S
O125 C124 1.247 . S
C126 O138 1.242 . S
C126 O139 1.258 . S
C127 C123 1.503 . S
C127 C128 1.379 . S
C127 C132 1.392 . S
C128 C127 1.379 . S
C128 C129 1.404 . S
C128 H142 0.929 . S
C129 C128 1.404 . S
C129 C130 1.389 . S
C130 C129 1.389 . S
C130 C131 1.399 1_565 S
C130 H143 0.929 1_566 S
C131 C130 1.399 1_545 S
C131 C132 1.390 1_545 S
C132 C127 1.392 . S
C132 C131 1.390 1_565 S
C132 H144 0.929 1_565 S
O133 Tb117 2.326 . S
O133 C121 1.242 . S
O134 Eu118 2.324 . S
O134 C121 1.258 . S
O135 Tb117 2.500 . S
O135 C137 1.273 . S
O136 Tb117 2.473 . S
O136 C137 1.257 . S
C137 O135 1.273 . S
C137 O136 1.257 . S
O138 Eu118 2.326 . S
O138 C126 1.242 . S
O139 Tb117 2.324 . S
O139 C126 1.258 . S
O140 Eu118 2.500 . S
O140 C123 1.273 . S
O141 Eu118 2.473 . S
O141 C123 1.257 . S
H142 C128 0.929 . S
H143 C130 0.929 1_544 S
H144 C132 0.929 1_545 S
O145 Tb146 2.292 . S
O145 C148 1.255 . S
Tb146 O145 2.292 . S
Tb146 O162 2.326 . S
Tb146 O164 2.500 . S
Tb146 O165 2.473 . S
Tb146 O168 2.324 . S
Eu147 O151 2.292 . S
Eu147 C152 2.852 . S
Eu147 O163 2.324 . S
Eu147 O167 2.326 . S
Eu147 O169 2.500 . S
Eu147 O170 2.473 . S
C148 O145 1.255 . S
C148 O149 1.247 . S
O149 C148 1.247 . S
C150 O162 1.242 . S
C150 O163 1.258 . S
O151 Eu147 2.292 . S
O151 C153 1.255 . S
C152 Eu147 2.852 . S
C152 C156 1.503 . S
C152 O169 1.273 . S
C152 O170 1.257 . S
C153 O151 1.255 . S
C153 O154 1.247 . S
O154 C153 1.247 . S
C155 O167 1.242 . S
C155 O168 1.258 . S
C156 C152 1.503 . S
C156 C157 1.379 . S
C156 C161 1.392 . S
C157 C156 1.379 . S
C157 C158 1.404 . S
C157 H171 0.929 . S
C158 C157 1.404 . S
C158 C159 1.389 . S
C159 C158 1.389 . S
C159 C160 1.399 . S
C159 H172 0.931 . S
C160 C159 1.399 . S
C160 C161 1.390 . S
C161 C156 1.392 . S
C161 C160 1.390 . S
C161 H173 0.929 . S
O162 Tb146 2.326 . S
O162 C150 1.242 . S
O163 Eu147 2.324 . S
O163 C150 1.258 . S
O164 Tb146 2.500 . S
O164 C166 1.273 . S
O165 Tb146 2.473 . S
O165 C166 1.257 . S
C166 O164 1.273 . S
C166 O165 1.257 . S
O167 Eu147 2.326 . S
O167 C155 1.242 . S
O168 Tb146 2.324 . S
O168 C155 1.258 . S
O169 Eu147 2.500 . S
O169 C152 1.273 . S
O170 Eu147 2.473 . S
O170 C152 1.257 . S
H171 C157 0.929 . S
H172 C159 0.931 . S
H173 C161 0.929 . S
O174 Tb175 2.292 . S
O174 C177 1.255 . S
Tb175 O174 2.292 . S
Tb175 O191 2.326 . S
Tb175 O193 2.500 . S
Tb175 O194 2.473 . S
Tb175 O197 2.324 . S
Eu176 O180 2.292 . S
Eu176 C181 2.852 . S
Eu176 O192 2.324 . S
Eu176 O196 2.326 . S
Eu176 O198 2.500 . S
Eu176 O199 2.473 . S
C177 O174 1.255 . S
C177 O178 1.247 . S
O178 C177 1.247 . S
C179 O191 1.242 . S
C179 O192 1.258 . S
O180 Eu176 2.292 . S
O180 C182 1.255 . S
C181 Eu176 2.852 . S
C181 C185 1.503 . S
C181 O198 1.273 . S
C181 O199 1.257 . S
C182 O180 1.255 . S
C182 O183 1.247 . S
O183 C182 1.247 . S
C184 O196 1.242 . S
C184 O197 1.258 . S
C185 C181 1.503 . S
C185 C186 1.379 . S
C185 C190 1.392 . S
C186 C185 1.379 . S
C186 C187 1.404 . S
C186 H200 0.929 . S
C187 C186 1.404 . S
C187 C188 1.389 . S
C188 C187 1.389 . S
C188 C189 1.399 1_545 S
C188 H201 0.929 1_545 S
C189 C188 1.399 1_565 S
C189 C190 1.390 1_565 S
C190 C185 1.392 . S
C190 C189 1.390 1_545 S
C190 H202 0.929 1_545 S
O191 Tb175 2.326 . S
O191 C179 1.242 . S
O192 Eu176 2.324 . S
O192 C179 1.258 . S
O193 Tb175 2.500 . S
O193 C195 1.273 . S
O194 Tb175 2.473 . S
O194 C195 1.257 . S
C195 O193 1.273 . S
C195 O194 1.257 . S
O196 Eu176 2.326 . S
O196 C184 1.242 . S
O197 Tb175 2.324 . S
O197 C184 1.258 . S
O198 Eu176 2.500 . S
O198 C181 1.273 . S
O199 Eu176 2.473 . S
O199 C181 1.257 . S
H200 C186 0.929 . S
H201 C188 0.929 1_565 S
H202 C190 0.929 1_565 S
O203 Tb204 2.292 . S
O203 C206 1.255 . S
Tb204 O203 2.292 . S
Tb204 O220 2.326 . S
Tb204 O222 2.500 1_455 S
Tb204 O223 2.473 . S
Tb204 O226 2.324 . S
Eu205 O209 2.292 . S
Eu205 C210 2.852 . S
Eu205 O221 2.324 . S
Eu205 O225 2.326 . S
Eu205 O227 2.500 . S
Eu205 O228 2.473 . S
C206 O203 1.255 . S
C206 O207 1.247 . S
O207 C206 1.247 . S
C208 O220 1.242 . S
C208 O221 1.258 . S
O209 Eu205 2.292 . S
O209 C211 1.255 . S
C210 Eu205 2.852 . S
C210 C214 1.503 . S
C210 O227 1.273 . S
C210 O228 1.257 . S
C211 O209 1.255 . S
C211 O212 1.247 . S
O212 C211 1.247 . S
C213 O225 1.242 . S
C213 O226 1.258 . S
C214 C210 1.503 . S
C214 C215 1.379 . S
C214 C219 1.392 . S
C215 C214 1.379 . S
C215 C216 1.404 . S
C215 H229 0.929 . S
C216 C215 1.404 . S
C216 C217 1.389 . S
C217 C216 1.389 . S
C217 C218 1.399 . S
C217 H230 0.931 . S
C218 C217 1.399 . S
C218 C219 1.390 . S
C219 C214 1.392 . S
C219 C218 1.390 . S
C219 H231 0.929 . S
O220 Tb204 2.326 . S
O220 C208 1.242 . S
O221 Eu205 2.324 . S
O221 C208 1.258 . S
O222 Tb204 2.500 1_655 S
O222 C224 1.273 1_655 S
O223 Tb204 2.473 . S
O223 C224 1.257 . S
C224 O222 1.273 1_455 S
C224 O223 1.257 . S
O225 Eu205 2.326 . S
O225 C213 1.242 . S
O226 Tb204 2.324 . S
O226 C213 1.258 . S
O227 Eu205 2.500 . S
O227 C210 1.273 . S
O228 Eu205 2.473 . S
O228 C210 1.257 . S
H229 C215 0.929 . S
H230 C217 0.931 . S
H231 C219 0.929 . S
O232 Tb233 2.292 . S
O232 C235 1.255 . S
Tb233 O232 2.292 . S
Tb233 O249 2.326 . S
Tb233 O251 2.500 . S
Tb233 O252 2.473 . S
Tb233 O255 2.324 . S
Eu234 O238 2.292 . S
Eu234 C239 2.852 . S
Eu234 O250 2.324 . S
Eu234 O254 2.326 . S
Eu234 O256 2.500 . S
Eu234 O257 2.473 . S
C235 O232 1.255 . S
C235 O236 1.247 . S
O236 C235 1.247 . S
C237 O249 1.242 . S
C237 O250 1.258 . S
O238 Eu234 2.292 . S
O238 C240 1.255 . S
C239 Eu234 2.852 . S
C239 C243 1.503 . S
C239 O256 1.273 . S
C239 O257 1.257 . S
C240 O238 1.255 . S
C240 O241 1.247 . S
O241 C240 1.247 . S
C242 O254 1.242 . S
C242 O255 1.258 . S
C243 C239 1.503 . S
C243 C244 1.379 . S
C243 C248 1.392 . S
C244 C243 1.379 . S
C244 C245 1.404 . S
C244 H258 0.929 . S
C245 C244 1.404 . S
C245 C246 1.389 . S
C246 C245 1.389 . S
C246 C247 1.399 . S
C246 H259 0.931 . S
C247 C246 1.399 . S
C247 C248 1.390 . S
C248 C243 1.392 . S
C248 C247 1.390 . S
C248 H260 0.929 . S
O249 Tb233 2.326 . S
O249 C237 1.242 . S
O250 Eu234 2.324 . S
O250 C237 1.258 . S
O251 Tb233 2.500 . S
O251 C253 1.273 . S
O252 Tb233 2.473 . S
O252 C253 1.257 . S
C253 O251 1.273 . S
C253 O252 1.257 . S
O254 Eu234 2.326 . S
O254 C242 1.242 . S
O255 Tb233 2.324 . S
O255 C242 1.258 . S
O256 Eu234 2.500 . S
O256 C239 1.273 . S
O257 Eu234 2.473 . S
O257 C239 1.257 . S
H258 C244 0.929 . S
H259 C246 0.931 . S
H260 C248 0.929 . S
O261 Tb262 2.292 . S
O261 C264 1.255 . S
Tb262 O261 2.292 . S
Tb262 O278 2.326 . S
Tb262 O280 2.500 1_455 S
Tb262 O281 2.473 . S
Tb262 O284 2.324 1_545 S
Eu263 O267 2.292 . S
Eu263 C268 2.852 . S
Eu263 O279 2.324 . S
Eu263 O283 2.326 . S
Eu263 O285 2.500 . S
Eu263 O286 2.473 . S
C264 O261 1.255 . S
C264 O265 1.247 . S
O265 C264 1.247 . S
C266 O278 1.242 . S
C266 O279 1.258 . S
O267 Eu263 2.292 . S
O267 C269 1.255 . S
C268 Eu263 2.852 . S
C268 C272 1.503 . S
C268 O285 1.273 . S
C268 O286 1.257 . S
C269 O267 1.255 . S
C269 O270 1.247 . S
O270 C269 1.247 . S
C271 O283 1.242 1_565 S
C271 O284 1.258 . S
C272 C268 1.503 . S
C272 C273 1.379 . S
C272 C277 1.392 . S
C273 C272 1.379 . S
C273 C274 1.404 . S
C273 H287 0.929 . S
C274 C273 1.404 . S
C274 C275 1.389 . S
C275 C274 1.389 . S
C275 C276 1.399 . S
C275 H288 0.931 . S
C276 C275 1.399 . S
C276 C277 1.390 . S
C277 C272 1.392 . S
C277 C276 1.390 . S
C277 H289 0.929 . S
O278 Tb262 2.326 . S
O278 C266 1.242 . S
O279 Eu263 2.324 . S
O279 C266 1.258 . S
O280 Tb262 2.500 1_655 S
O280 C282 1.273 1_655 S
O281 Tb262 2.473 . S
O281 C282 1.257 . S
C282 O280 1.273 1_455 S
C282 O281 1.257 . S
O283 Eu263 2.326 . S
O283 C271 1.242 1_545 S
O284 Tb262 2.324 1_565 S
O284 C271 1.258 . S
O285 Eu263 2.500 . S
O285 C268 1.273 . S
O286 Eu263 2.473 . S
O286 C268 1.257 . S
H287 C273 0.929 . S
H288 C275 0.931 . S
H289 C277 0.929 . S
O290 Tb291 2.292 . S
O290 C293 1.255 . S
Tb291 O290 2.292 . S
Tb291 O307 2.326 . S
Tb291 O309 2.500 . S
Tb291 O310 2.473 . S
Tb291 O313 2.324 . S
Eu292 O296 2.292 . S
Eu292 C297 2.852 . S
Eu292 O308 2.324 . S
Eu292 O312 2.326 . S
Eu292 O314 2.500 . S
Eu292 O315 2.473 . S
C293 O290 1.255 . S
C293 O294 1.247 . S
O294 C293 1.247 . S
C295 O307 1.242 . S
C295 O308 1.258 . S
O296 Eu292 2.292 . S
O296 C298 1.255 . S
C297 Eu292 2.852 . S
C297 C301 1.503 . S
C297 O314 1.273 . S
C297 O315 1.257 . S
C298 O296 1.255 . S
C298 O299 1.247 . S
O299 C298 1.247 . S
C300 O312 1.242 . S
C300 O313 1.258 . S
C301 C297 1.503 . S
C301 C302 1.379 . S
C301 C306 1.392 . S
C302 C301 1.379 . S
C302 C303 1.404 . S
C302 H316 0.929 . S
C303 C302 1.404 . S
C303 C304 1.389 . S
C304 C303 1.389 . S
C304 C305 1.399 . S
C304 H317 0.931 1_554 S
C305 C304 1.399 . S
C305 C306 1.390 . S
C306 C301 1.392 . S
C306 C305 1.390 . S
C306 H318 0.929 . S
O307 Tb291 2.326 . S
O307 C295 1.242 . S
O308 Eu292 2.324 . S
O308 C295 1.258 . S
O309 Tb291 2.500 . S
O309 C311 1.273 . S
O310 Tb291 2.473 . S
O310 C311 1.257 . S
C311 O309 1.273 . S
C311 O310 1.257 . S
O312 Eu292 2.326 . S
O312 C300 1.242 . S
O313 Tb291 2.324 . S
O313 C300 1.258 . S
O314 Eu292 2.500 . S
O314 C297 1.273 . S
O315 Eu292 2.473 . S
O315 C297 1.257 . S
H316 C302 0.929 . S
H317 C304 0.931 1_556 S
H318 C306 0.929 . S
O319 Tb320 2.292 . S
O319 C322 1.255 . S
Tb320 O319 2.292 . S
Tb320 O336 2.326 . S
Tb320 O338 2.500 . S
Tb320 O339 2.473 . S
Tb320 O342 2.324 1_565 S
Eu321 O325 2.292 . S
Eu321 C326 2.852 . S
Eu321 O337 2.324 . S
Eu321 O341 2.326 . S
Eu321 O343 2.500 . S
Eu321 O344 2.473 . S
C322 O319 1.255 . S
C322 O323 1.247 . S
O323 C322 1.247 . S
C324 O336 1.242 . S
C324 O337 1.258 . S
O325 Eu321 2.292 . S
O325 C327 1.255 . S
C326 Eu321 2.852 . S
C326 C330 1.503 . S
C326 O343 1.273 . S
C326 O344 1.257 . S
C327 O325 1.255 . S
C327 O328 1.247 . S
O328 C327 1.247 . S
C329 O341 1.242 1_545 S
C329 O342 1.258 . S
C330 C326 1.503 . S
C330 C331 1.379 . S
C330 C335 1.392 . S
C331 C330 1.379 . S
C331 C332 1.404 . S
C331 H345 0.929 . S
C332 C331 1.404 . S
C332 C333 1.389 . S
C333 C332 1.389 . S
C333 C334 1.399 . S
C333 H346 0.931 . S
C334 C333 1.399 . S
C334 C335 1.390 . S
C335 C330 1.392 . S
C335 C334 1.390 . S
C335 H347 0.929 . S
O336 Tb320 2.326 . S
O336 C324 1.242 . S
O337 Eu321 2.324 . S
O337 C324 1.258 . S
O338 Tb320 2.500 . S
O338 C340 1.273 . S
O339 Tb320 2.473 . S
O339 C340 1.257 . S
C340 O338 1.273 . S
C340 O339 1.257 . S
O341 Eu321 2.326 . S
O341 C329 1.242 1_565 S
O342 Tb320 2.324 1_545 S
O342 C329 1.258 . S
O343 Eu321 2.500 . S
O343 C326 1.273 . S
O344 Eu321 2.473 . S
O344 C326 1.257 . S
H345 C331 0.929 . S
H346 C333 0.931 . S
H347 C335 0.929 . S
O348 Tb349 2.292 . S
O348 C351 1.255 . S
Tb349 O348 2.292 . S
Tb349 O365 2.326 . S
Tb349 O367 2.500 . S
Tb349 O368 2.473 . S
Tb349 O371 2.324 . S
Eu350 O354 2.292 . S
Eu350 C355 2.852 . S
Eu350 O366 2.324 . S
Eu350 O370 2.326 . S
Eu350 O372 2.500 . S
Eu350 O373 2.473 . S
C351 O348 1.255 . S
C351 O352 1.247 . S
O352 C351 1.247 . S
C353 O365 1.242 . S
C353 O366 1.258 . S
O354 Eu350 2.292 . S
O354 C356 1.255 . S
C355 Eu350 2.852 . S
C355 C359 1.503 . S
C355 O372 1.273 . S
C355 O373 1.257 . S
C356 O354 1.255 . S
C356 O357 1.247 . S
O357 C356 1.247 . S
C358 O370 1.242 . S
C358 O371 1.258 . S
C359 C355 1.503 . S
C359 C360 1.379 . S
C359 C364 1.392 . S
C360 C359 1.379 . S
C360 C361 1.404 . S
C360 H374 0.929 . S
C361 C360 1.404 . S
C361 C362 1.389 . S
C362 C361 1.389 . S
C362 C363 1.399 . S
C362 H375 0.931 . S
C363 C362 1.399 . S
C363 C364 1.390 . S
C364 C359 1.392 . S
C364 C363 1.390 . S
C364 H376 0.929 . S
O365 Tb349 2.326 . S
O365 C353 1.242 . S
O366 Eu350 2.324 . S
O366 C353 1.258 . S
O367 Tb349 2.500 . S
O367 C369 1.273 . S
O368 Tb349 2.473 . S
O368 C369 1.257 . S
C369 O367 1.273 . S
C369 O368 1.257 . S
O370 Eu350 2.326 . S
O370 C358 1.242 . S
O371 Tb349 2.324 . S
O371 C358 1.258 . S
O372 Eu350 2.500 . S
O372 C355 1.273 . S
O373 Eu350 2.473 . S
O373 C355 1.257 . S
H374 C360 0.929 . S
H375 C362 0.931 . S
H376 C364 0.929 . S
O377 Tb378 2.292 . S
O377 C380 1.255 . S
Tb378 O377 2.292 . S
Tb378 O394 2.326 . S
Tb378 O396 2.500 1_655 S
Tb378 O397 2.473 . S
Tb378 O400 2.324 1_565 S
Eu379 O383 2.292 . S
Eu379 C384 2.852 . S
Eu379 O395 2.324 . S
Eu379 O399 2.326 . S
Eu379 O401 2.500 . S
Eu379 O402 2.473 . S
C380 O377 1.255 . S
C380 O381 1.247 . S
O381 C380 1.247 . S
C382 O394 1.242 . S
C382 O395 1.258 . S
O383 Eu379 2.292 . S
O383 C385 1.255 . S
C384 Eu379 2.852 . S
C384 C388 1.503 . S
C384 O401 1.273 . S
C384 O402 1.257 . S
C385 O383 1.255 . S
C385 O386 1.247 . S
O386 C385 1.247 . S
C387 O399 1.242 1_545 S
C387 O400 1.258 . S
C388 C384 1.503 . S
C388 C389 1.379 . S
C388 C393 1.392 . S
C389 C388 1.379 . S
C389 C390 1.404 . S
C389 H403 0.929 . S
C390 C389 1.404 . S
C390 C391 1.389 . S
C391 C390 1.389 . S
C391 C392 1.399 . S
C391 H404 0.931 . S
C392 C391 1.399 . S
C392 C393 1.390 . S
C393 C388 1.392 . S
C393 C392 1.390 . S
C393 H405 0.929 . S
O394 Tb378 2.326 . S
O394 C382 1.242 . S
O395 Eu379 2.324 . S
O395 C382 1.258 . S
O396 Tb378 2.500 1_455 S
O396 C398 1.273 1_455 S
O397 Tb378 2.473 . S
O397 C398 1.257 . S
C398 O396 1.273 1_655 S
C398 O397 1.257 . S
O399 Eu379 2.326 . S
O399 C387 1.242 1_565 S
O400 Tb378 2.324 1_545 S
O400 C387 1.258 . S
O401 Eu379 2.500 . S
O401 C384 1.273 . S
O402 Eu379 2.473 . S
O402 C384 1.257 . S
H403 C389 0.929 . S
H404 C391 0.931 . S
H405 C393 0.929 . S
O406 Tb407 2.292 . S
O406 C409 1.255 . S
Tb407 O406 2.292 . S
Tb407 O423 2.326 . S
Tb407 O425 2.500 . S
Tb407 O426 2.473 . S
Tb407 O429 2.324 . S
Eu408 O412 2.292 . S
Eu408 C413 2.852 . S
Eu408 O424 2.324 . S
Eu408 O428 2.326 . S
Eu408 O430 2.500 . S
Eu408 O431 2.473 . S
C409 O406 1.255 . S
C409 O410 1.247 . S
O410 C409 1.247 . S
C411 O423 1.242 . S
C411 O424 1.258 . S
O412 Eu408 2.292 . S
O412 C414 1.255 . S
C413 Eu408 2.852 . S
C413 C417 1.503 . S
C413 O430 1.273 . S
C413 O431 1.257 . S
C414 O412 1.255 . S
C414 O415 1.247 . S
O415 C414 1.247 . S
C416 O428 1.242 . S
C416 O429 1.258 . S
C417 C413 1.503 . S
C417 C418 1.379 . S
C417 C422 1.392 . S
C418 C417 1.379 . S
C418 C419 1.404 . S
C418 H432 0.929 . S
C419 C418 1.404 . S
C419 C420 1.389 . S
C420 C419 1.389 . S
C420 C421 1.399 . S
C420 H433 0.931 1_556 S
C421 C420 1.399 . S
C421 C422 1.390 . S
C422 C417 1.392 . S
C422 C421 1.390 . S
C422 H434 0.929 . S
O423 Tb407 2.326 . S
O423 C411 1.242 . S
O424 Eu408 2.324 . S
O424 C411 1.258 . S
O425 Tb407 2.500 . S
O425 C427 1.273 . S
O426 Tb407 2.473 . S
O426 C427 1.257 . S
C427 O425 1.273 . S
C427 O426 1.257 . S
O428 Eu408 2.326 . S
O428 C416 1.242 . S
O429 Tb407 2.324 . S
O429 C416 1.258 . S
O430 Eu408 2.500 . S
O430 C413 1.273 . S
O431 Eu408 2.473 . S
O431 C413 1.257 . S
H432 C418 0.929 . S
H433 C420 0.931 1_554 S
H434 C422 0.929 . S
O435 Tb436 2.292 . S
O435 C438 1.255 . S
Tb436 O435 2.292 . S
Tb436 O452 2.326 . S
Tb436 O454 2.500 . S
Tb436 O455 2.473 . S
Tb436 O458 2.324 1_545 S
Eu437 O441 2.292 . S
Eu437 C442 2.852 . S
Eu437 O453 2.324 . S
Eu437 O457 2.326 . S
Eu437 O459 2.500 . S
Eu437 O460 2.473 . S
C438 O435 1.255 . S
C438 O439 1.247 . S
O439 C438 1.247 . S
C440 O452 1.242 . S
C440 O453 1.258 . S
O441 Eu437 2.292 . S
O441 C443 1.255 . S
C442 Eu437 2.852 . S
C442 C446 1.503 . S
C442 O459 1.273 . S
C442 O460 1.257 . S
C443 O441 1.255 . S
C443 O444 1.247 . S
O444 C443 1.247 . S
C445 O457 1.242 1_565 S
C445 O458 1.258 . S
C446 C442 1.503 . S
C446 C447 1.379 . S
C446 C451 1.392 . S
C447 C446 1.379 . S
C447 C448 1.404 . S
C447 H461 0.929 . S
C448 C447 1.404 . S
C448 C449 1.389 . S
C449 C448 1.389 . S
C449 C450 1.399 . S
C449 H462 0.931 . S
C450 C449 1.399 . S
C450 C451 1.390 . S
C451 C446 1.392 . S
C451 C450 1.390 . S
C451 H463 0.929 . S
O452 Tb436 2.326 . S
O452 C440 1.242 . S
O453 Eu437 2.324 . S
O453 C440 1.258 . S
O454 Tb436 2.500 . S
O454 C456 1.273 . S
O455 Tb436 2.473 . S
O455 C456 1.257 . S
C456 O454 1.273 . S
C456 O455 1.257 . S
O457 Eu437 2.326 . S
O457 C445 1.242 1_545 S
O458 Tb436 2.324 1_565 S
O458 C445 1.258 . S
O459 Eu437 2.500 . S
O459 C442 1.273 . S
O460 Eu437 2.473 . S
O460 C442 1.257 . S
H461 C447 0.929 . S
H462 C449 0.931 . S
H463 C451 0.929 . S
H464 C472 0.950 . S
H465 C477 0.950 . S
H466 C474 0.950 . S
H467 C476 0.950 . S
H468 C478 0.950 . S
H469 C480 0.950 . S
H470 C482 0.950 . S
H471 C483 0.950 . S
C472 H464 0.950 . S
C472 C473 1.386 . S
C472 C474 1.391 . S
C473 C472 1.386 . S
C473 C477 1.393 . S
C474 H466 0.950 . S
C474 C472 1.391 . S
C474 C475 1.400 . S
C475 C474 1.400 . S
C475 C476 1.398 . S
C475 C481 1.491 . S
C476 H467 0.950 . S
C476 C475 1.398 . S
C476 C477 1.391 . S
C477 H465 0.950 . S
C477 C473 1.393 . S
C477 C476 1.391 . S
C478 H468 0.950 . S
C478 C479 1.386 . S
C478 C480 1.391 . S
C479 C478 1.386 . S
C479 C483 1.393 . S
C480 H469 0.950 . S
C480 C478 1.391 . S
C480 C481 1.400 . S
C481 C475 1.491 . S
C481 C480 1.400 . S
C481 C482 1.398 . S
C482 H470 0.950 . S
C482 C481 1.398 . S
C482 C483 1.391 . S
C483 H471 0.950 . S
C483 C479 1.393 . S
C483 C482 1.391 . S
H484 C492 0.950 . S
H485 C497 0.950 . S
H486 C494 0.950 . S
H487 C496 0.950 . S
H488 C498 0.950 . S
H489 C500 0.950 . S
H490 C502 0.950 . S
H491 C503 0.950 . S
C492 H484 0.950 . S
C492 C493 1.386 . S
C492 C494 1.391 . S
C493 C492 1.386 . S
C493 C497 1.393 . S
C494 H486 0.950 . S
C494 C492 1.391 . S
C494 C495 1.400 . S
C495 C494 1.400 . S
C495 C496 1.398 . S
C495 C501 1.491 . S
C496 H487 0.950 . S
C496 C495 1.398 . S
C496 C497 1.391 . S
C497 H485 0.950 . S
C497 C493 1.393 . S
C497 C496 1.391 . S
C498 H488 0.950 . S
C498 C499 1.386 . S
C498 C500 1.391 . S
C499 C498 1.386 . S
C499 C503 1.393 . S
C500 H489 0.950 . S
C500 C498 1.391 . S
C500 C501 1.400 . S
C501 C495 1.491 . S
C501 C500 1.400 . S
C501 C502 1.398 . S
C502 H490 0.950 . S
C502 C501 1.398 . S
C502 C503 1.391 . S
C503 H491 0.950 . S
C503 C499 1.393 . S
C503 C502 1.391 . S
H504 C512 0.950 . S
H505 C517 0.950 . S
H506 C514 0.950 . S
H507 C516 0.950 . S
H508 C518 0.950 . S
H509 C520 0.950 . S
H510 C522 0.950 . S
H511 C523 0.950 . S
C512 H504 0.950 . S
C512 C513 1.386 . S
C512 C514 1.391 . S
C513 C512 1.386 . S
C513 C517 1.393 . S
C514 H506 0.950 . S
C514 C512 1.391 . S
C514 C515 1.400 . S
C515 C514 1.400 . S
C515 C516 1.398 . S
C515 C521 1.491 . S
C516 H507 0.950 . S
C516 C515 1.398 . S
C516 C517 1.391 . S
C517 H505 0.950 . S
C517 C513 1.393 . S
C517 C516 1.391 . S
C518 H508 0.950 . S
C518 C519 1.386 . S
C518 C520 1.391 . S
C519 C518 1.386 . S
C519 C523 1.393 . S
C520 H509 0.950 . S
C520 C518 1.391 . S
C520 C521 1.400 . S
C521 C515 1.491 . S
C521 C520 1.400 . S
C521 C522 1.398 . S
C522 H510 0.950 . S
C522 C521 1.398 . S
C522 C523 1.391 . S
C523 H511 0.950 . S
C523 C519 1.393 . S
C523 C522 1.391 . S
H524 C532 0.950 . S
H525 C537 0.950 . S
H526 C534 0.950 . S
H527 C536 0.950 . S
H528 C538 0.950 . S
H529 C540 0.950 . S
H530 C542 0.950 . S
H531 C543 0.950 . S
C532 H524 0.950 . S
C532 C533 1.386 . S
C532 C534 1.391 . S
C533 C532 1.386 . S
C533 C537 1.393 . S
C534 H526 0.950 . S
C534 C532 1.391 . S
C534 C535 1.400 . S
C535 C534 1.400 . S
C535 C536 1.398 . S
C535 C541 1.491 . S
C536 H527 0.950 . S
C536 C535 1.398 . S
C536 C537 1.391 . S
C537 H525 0.950 . S
C537 C533 1.393 . S
C537 C536 1.391 . S
C538 H528 0.950 . S
C538 C539 1.386 . S
C538 C540 1.391 . S
C539 C538 1.386 . S
C539 C543 1.393 . S
C540 H529 0.950 . S
C540 C538 1.391 . S
C540 C541 1.400 . S
C541 C535 1.491 . S
C541 C540 1.400 . S
C541 C542 1.398 . S
C542 H530 0.950 . S
C542 C541 1.398 . S
C542 C543 1.391 . S
C543 H531 0.950 . S
C543 C539 1.393 . S
C543 C542 1.391 . S
H544 C552 0.950 . S
H545 C557 0.950 . S
H546 C554 0.950 . S
H547 C556 0.950 . S
H548 C558 0.950 . S
H549 C560 0.950 . S
H550 C562 0.950 . S
H551 C563 0.950 . S
C552 H544 0.950 . S
C552 C553 1.386 . S
C552 C554 1.391 . S
C553 C552 1.386 . S
C553 C557 1.393 . S
C554 H546 0.950 . S
C554 C552 1.391 . S
C554 C555 1.400 . S
C555 C554 1.400 . S
C555 C556 1.398 . S
C555 C561 1.491 . S
C556 H547 0.950 . S
C556 C555 1.398 . S
C556 C557 1.391 . S
C557 H545 0.950 . S
C557 C553 1.393 . S
C557 C556 1.391 . S
C558 H548 0.950 . S
C558 C559 1.386 . S
C558 C560 1.391 . S
C559 C558 1.386 . S
C559 C563 1.393 . S
C560 H549 0.950 . S
C560 C558 1.391 . S
C560 C561 1.400 . S
C561 C555 1.491 . S
C561 C560 1.400 . S
C561 C562 1.398 . S
C562 H550 0.950 . S
C562 C561 1.398 . S
C562 C563 1.391 . S
C563 H551 0.950 . S
C563 C559 1.393 . S
C563 C562 1.391 . S
H564 C572 0.950 . S
H565 C577 0.950 . S
H566 C574 0.950 . S
H567 C576 0.950 . S
H568 C578 0.950 . S
H569 C580 0.950 . S
H570 C582 0.950 . S
H571 C583 0.950 . S
C572 H564 0.950 . S
C572 C573 1.386 . S
C572 C574 1.391 . S
C573 C572 1.386 . S
C573 C577 1.393 . S
C574 H566 0.950 . S
C574 C572 1.391 . S
C574 C575 1.400 . S
C575 C574 1.400 . S
C575 C576 1.398 . S
C575 C581 1.491 . S
C576 H567 0.950 . S
C576 C575 1.398 . S
C576 C577 1.391 . S
C577 H565 0.950 . S
C577 C573 1.393 . S
C577 C576 1.391 . S
C578 H568 0.950 . S
C578 C579 1.386 . S
C578 C580 1.391 . S
C579 C578 1.386 . S
C579 C583 1.393 . S
C580 H569 0.950 . S
C580 C578 1.391 . S
C580 C581 1.400 . S
C581 C575 1.491 . S
C581 C580 1.400 . S
C581 C582 1.398 . S
C582 H570 0.950 . S
C582 C581 1.398 . S
C582 C583 1.391 . S
C583 H571 0.950 . S
C583 C579 1.393 . S
C583 C582 1.391 . S
H584 C592 0.950 . S
H585 C597 0.950 . S
H586 C594 0.950 . S
H587 C596 0.950 . S
H588 C598 0.950 . S
H589 C600 0.950 . S
H590 C602 0.950 . S
H591 C603 0.950 . S
C592 H584 0.950 . S
C592 C593 1.386 . S
C592 C594 1.391 . S
C593 C592 1.386 . S
C593 C597 1.393 . S
C594 H586 0.950 . S
C594 C592 1.391 . S
C594 C595 1.400 . S
C595 C594 1.400 . S
C595 C596 1.398 . S
C595 C601 1.491 . S
C596 H587 0.950 . S
C596 C595 1.398 . S
C596 C597 1.391 . S
C597 H585 0.950 . S
C597 C593 1.393 . S
C597 C596 1.391 . S
C598 H588 0.950 . S
C598 C599 1.386 . S
C598 C600 1.391 . S
C599 C598 1.386 . S
C599 C603 1.393 . S
C600 H589 0.950 . S
C600 C598 1.391 . S
C600 C601 1.400 . S
C601 C595 1.491 . S
C601 C600 1.400 . S
C601 C602 1.398 . S
C602 H590 0.950 . S
C602 C601 1.398 . S
C602 C603 1.391 . S
C603 H591 0.950 . S
C603 C599 1.393 . S
C603 C602 1.391 . S
H604 C612 0.950 . S
H605 C617 0.950 . S
H606 C614 0.950 . S
H607 C616 0.950 . S
H608 C618 0.950 . S
H609 C620 0.950 . S
H610 C622 0.950 . S
H611 C623 0.950 . S
C612 H604 0.950 . S
C612 C613 1.386 . S
C612 C614 1.391 . S
C613 C612 1.386 . S
C613 C617 1.393 . S
C614 H606 0.950 . S
C614 C612 1.391 . S
C614 C615 1.400 . S
C615 C614 1.400 . S
C615 C616 1.398 . S
C615 C621 1.491 . S
C616 H607 0.950 . S
C616 C615 1.398 . S
C616 C617 1.391 . S
C617 H605 0.950 . S
C617 C613 1.393 . S
C617 C616 1.391 . S
C618 H608 0.950 . S
C618 C619 1.386 . S
C618 C620 1.391 . S
C619 C618 1.386 . S
C619 C623 1.393 . S
C620 H609 0.950 . S
C620 C618 1.391 . S
C620 C621 1.400 . S
C621 C615 1.491 . S
C621 C620 1.400 . S
C621 C622 1.398 . S
C622 H610 0.950 . S
C622 C621 1.398 . S
C622 C623 1.391 . S
C623 H611 0.950 . S
C623 C619 1.393 . S
C623 C622 1.391 . S
H624 C632 0.950 . S
H625 C637 0.950 . S
H626 C634 0.950 . S
H627 C636 0.950 . S
H628 C638 0.950 . S
H629 C640 0.950 . S
H630 C642 0.950 . S
H631 C643 0.950 . S
C632 H624 0.950 . S
C632 C633 1.386 . S
C632 C634 1.391 . S
C633 C632 1.386 . S
C633 C637 1.393 . S
C634 H626 0.950 . S
C634 C632 1.391 . S
C634 C635 1.400 . S
C635 C634 1.400 . S
C635 C636 1.398 . S
C635 C641 1.491 . S
C636 H627 0.950 . S
C636 C635 1.398 . S
C636 C637 1.391 . S
C637 H625 0.950 . S
C637 C633 1.393 . S
C637 C636 1.391 . S
C638 H628 0.950 . S
C638 C639 1.386 . S
C638 C640 1.391 . S
C639 C638 1.386 . S
C639 C643 1.393 . S
C640 H629 0.950 . S
C640 C638 1.391 . S
C640 C641 1.400 . S
C641 C635 1.491 . S
C641 C640 1.400 . S
C641 C642 1.398 . S
C642 H630 0.950 . S
C642 C641 1.398 . S
C642 C643 1.391 . S
C643 H631 0.950 . S
C643 C639 1.393 . S
C643 C642 1.391 . S
H644 C652 0.950 . S
H645 C657 0.950 . S
H646 C654 0.950 . S
H647 C656 0.950 . S
H648 C658 0.950 . S
H649 C660 0.950 . S
H650 C662 0.950 . S
H651 C663 0.950 . S
C652 H644 0.950 . S
C652 C653 1.386 . S
C652 C654 1.391 . S
C653 C652 1.386 . S
C653 C657 1.393 1_545 S
C654 H646 0.950 . S
C654 C652 1.391 . S
C654 C655 1.400 1_545 S
C655 C654 1.400 1_565 S
C655 C656 1.398 . S
C655 C661 1.491 . S
C656 H647 0.950 . S
C656 C655 1.398 . S
C656 C657 1.391 . S
C657 H645 0.950 . S
C657 C653 1.393 1_565 S
C657 C656 1.391 . S
C658 H648 0.950 . S
C658 C659 1.386 . S
C658 C660 1.391 . S
C659 C658 1.386 . S
C659 C663 1.393 . S
C660 H649 0.950 . S
C660 C658 1.391 . S
C660 C661 1.400 . S
C661 C655 1.491 . S
C661 C660 1.400 . S
C661 C662 1.398 . S
C662 H650 0.950 . S
C662 C661 1.398 . S
C662 C663 1.391 . S
C663 H651 0.950 . S
C663 C659 1.393 . S
C663 C662 1.391 . S
H664 C672 0.950 . S
H665 C677 0.950 . S
H666 C674 0.950 . S
H667 C676 0.950 . S
H668 C678 0.950 . S
H669 C680 0.950 . S
H670 C682 0.950 . S
H671 C683 0.950 . S
C672 H664 0.950 . S
C672 C673 1.386 . S
C672 C674 1.391 . S
C673 C672 1.386 . S
C673 C677 1.393 . S
C674 H666 0.950 . S
C674 C672 1.391 . S
C674 C675 1.400 . S
C675 C674 1.400 . S
C675 C676 1.398 . S
C675 C681 1.491 . S
C676 H667 0.950 . S
C676 C675 1.398 . S
C676 C677 1.391 . S
C677 H665 0.950 . S
C677 C673 1.393 . S
C677 C676 1.391 . S
C678 H668 0.950 . S
C678 C679 1.386 . S
C678 C680 1.391 . S
C679 C678 1.386 . S
C679 C683 1.393 . S
C680 H669 0.950 . S
C680 C678 1.391 . S
C680 C681 1.400 . S
C681 C675 1.491 . S
C681 C680 1.400 . S
C681 C682 1.398 . S
C682 H670 0.950 . S
C682 C681 1.398 . S
C682 C683 1.391 . S
C683 H671 0.950 . S
C683 C679 1.393 . S
C683 C682 1.391 . S
H684 C692 0.950 . S
H685 C697 0.950 . S
H686 C694 0.950 . S
H687 C696 0.950 . S
H688 C698 0.950 . S
H689 C700 0.950 . S
H690 C702 0.950 . S
H691 C703 0.950 . S
C692 H684 0.950 . S
C692 C693 1.386 . S
C692 C694 1.391 . S
C693 C692 1.386 . S
C693 C697 1.393 . S
C694 H686 0.950 . S
C694 C692 1.391 . S
C694 C695 1.400 . S
C695 C694 1.400 . S
C695 C696 1.398 . S
C695 C701 1.491 . S
C696 H687 0.950 . S
C696 C695 1.398 . S
C696 C697 1.391 . S
C697 H685 0.950 . S
C697 C693 1.393 . S
C697 C696 1.391 . S
C698 H688 0.950 . S
C698 C699 1.386 1_545 S
C698 C700 1.391 . S
C699 C698 1.386 1_565 S
C699 C703 1.393 . S
C700 H689 0.950 . S
C700 C698 1.391 . S
C700 C701 1.400 . S
C701 C695 1.491 . S
C701 C700 1.400 . S
C701 C702 1.398 1_545 S
C702 H690 0.950 . S
C702 C701 1.398 1_565 S
C702 C703 1.391 . S
C703 H691 0.950 . S
C703 C699 1.393 . S
C703 C702 1.391 . S
H704 C712 0.950 . S
H705 C717 0.950 . S
H706 C714 0.950 . S
H707 C716 0.950 . S
H708 C718 0.950 . S
H709 C720 0.950 . S
H710 C722 0.950 . S
H711 C723 0.950 . S
C712 H704 0.950 . S
C712 C713 1.386 . S
C712 C714 1.391 . S
C713 C712 1.386 . S
C713 C717 1.393 . S
C714 H706 0.950 . S
C714 C712 1.391 . S
C714 C715 1.400 . S
C715 C714 1.400 . S
C715 C716 1.398 . S
C715 C721 1.491 . S
C716 H707 0.950 . S
C716 C715 1.398 . S
C716 C717 1.391 . S
C717 H705 0.950 . S
C717 C713 1.393 . S
C717 C716 1.391 . S
C718 H708 0.950 . S
C718 C719 1.386 . S
C718 C720 1.391 . S
C719 C718 1.386 . S
C719 C723 1.393 . S
C720 H709 0.950 . S
C720 C718 1.391 . S
C720 C721 1.400 . S
C721 C715 1.491 . S
C721 C720 1.400 . S
C721 C722 1.398 . S
C722 H710 0.950 . S
C722 C721 1.398 . S
C722 C723 1.391 . S
C723 H711 0.950 . S
C723 C719 1.393 . S
C723 C722 1.391 . S
H724 C732 0.950 . S
H725 C737 0.950 . S
H726 C734 0.950 . S
H727 C736 0.950 . S
H728 C738 0.950 . S
H729 C740 0.950 . S
H730 C742 0.950 . S
H731 C743 0.950 . S
C732 H724 0.950 . S
C732 C733 1.386 1_545 S
C732 C734 1.391 . S
C733 C732 1.386 1_565 S
C733 C737 1.393 . S
C734 H726 0.950 . S
C734 C732 1.391 . S
C734 C735 1.400 . S
C735 C734 1.400 . S
C735 C736 1.398 . S
C735 C741 1.491 . S
C736 H727 0.950 . S
C736 C735 1.398 . S
C736 C737 1.391 1_545 S
C737 H725 0.950 . S
C737 C733 1.393 . S
C737 C736 1.391 1_565 S
C738 H728 0.950 . S
C738 C739 1.386 . S
C738 C740 1.391 . S
C739 C738 1.386 . S
C739 C743 1.393 . S
C740 H729 0.950 . S
C740 C738 1.391 . S
C740 C741 1.400 . S
C741 C735 1.491 . S
C741 C740 1.400 . S
C741 C742 1.398 . S
C742 H730 0.950 . S
C742 C741 1.398 . S
C742 C743 1.391 . S
C743 H731 0.950 . S
C743 C739 1.393 . S
C743 C742 1.391 . S
H744 C752 0.950 . S
H745 C757 0.950 . S
H746 C754 0.950 . S
H747 C756 0.950 . S
H748 C758 0.950 . S
H749 C760 0.950 . S
H750 C762 0.950 . S
H751 C763 0.950 . S
C752 H744 0.950 . S
C752 C753 1.386 . S
C752 C754 1.391 . S
C753 C752 1.386 . S
C753 C757 1.393 . S
C754 H746 0.950 . S
C754 C752 1.391 . S
C754 C755 1.400 . S
C755 C754 1.400 . S
C755 C756 1.398 . S
C755 C761 1.491 . S
C756 H747 0.950 . S
C756 C755 1.398 . S
C756 C757 1.391 . S
C757 H745 0.950 . S
C757 C753 1.393 . S
C757 C756 1.391 . S
C758 H748 0.950 . S
C758 C759 1.386 . S
C758 C760 1.391 . S
C759 C758 1.386 . S
C759 C763 1.393 . S
C760 H749 0.950 . S
C760 C758 1.391 . S
C760 C761 1.400 . S
C761 C755 1.491 . S
C761 C760 1.400 . S
C761 C762 1.398 . S
C762 H750 0.950 . S
C762 C761 1.398 . S
C762 C763 1.391 . S
C763 H751 0.950 . S
C763 C759 1.393 . S
C763 C762 1.391 . S
H764 C772 0.950 . S
H765 C777 0.950 . S
H766 C774 0.950 . S
H767 C776 0.950 . S
H768 C778 0.950 . S
H769 C780 0.950 . S
H770 C782 0.950 . S
H771 C783 0.950 . S
C772 H764 0.950 . S
C772 C773 1.386 . S
C772 C774 1.391 . S
C773 C772 1.386 . S
C773 C777 1.393 . S
C774 H766 0.950 . S
C774 C772 1.391 . S
C774 C775 1.400 . S
C775 C774 1.400 . S
C775 C776 1.398 . S
C775 C781 1.491 . S
C776 H767 0.950 . S
C776 C775 1.398 . S
C776 C777 1.391 . S
C777 H765 0.950 . S
C777 C773 1.393 . S
C777 C776 1.391 . S
C778 H768 0.950 . S
C778 C779 1.386 . S
C778 C780 1.391 . S
C779 C778 1.386 . S
C779 C783 1.393 1_545 S
C780 H769 0.950 . S
C780 C778 1.391 . S
C780 C781 1.400 1_545 S
C781 C775 1.491 . S
C781 C780 1.400 1_565 S
C781 C782 1.398 . S
C782 H770 0.950 . S
C782 C781 1.398 . S
C782 C783 1.391 . S
C783 H771 0.950 . S
C783 C779 1.393 1_565 S
C783 C782 1.391 . S
H784 C792 0.950 . S
H785 C797 0.950 1_556 S
H786 C794 0.950 . S
H787 C796 0.950 . S
H788 C798 0.950 . S
H789 C800 0.950 . S
H790 C802 0.968 . S
H791 C803 0.950 . S
C792 H784 0.950 . S
C792 C793 1.386 . S
C792 C794 1.391 . S
C793 C792 1.386 . S
C793 C797 1.393 . S
C794 H786 0.950 . S
C794 C792 1.391 . S
C794 C795 1.400 . S
C795 C794 1.400 . S
C795 C796 1.398 1_554 S
C795 C801 1.491 1_554 S
C796 H787 0.950 . S
C796 C795 1.398 1_556 S
C796 C797 1.391 1_556 S
C797 H785 0.950 1_554 S
C797 C793 1.393 . S
C797 C796 1.391 1_554 S
C798 H788 0.950 . S
C798 C799 1.386 . S
C798 C800 1.391 . S
C799 C798 1.386 . S
C799 C803 1.393 . S
C800 H789 0.950 . S
C800 C798 1.391 . S
C800 C801 1.400 . S
C801 C795 1.491 1_556 S
C801 C800 1.400 . S
C801 C802 1.390 1_556 S
C802 H790 0.968 . S
C802 C801 1.390 1_554 S
C802 C803 1.382 1_554 S
C803 H791 0.950 . S
C803 C799 1.393 . S
C803 C802 1.382 1_556 S
H804 C812 0.950 . S
H805 C817 0.950 . S
H806 C814 0.950 . S
H807 C816 0.950 . S
H808 C818 0.950 . S
H809 C820 0.950 . S
H810 C822 0.950 . S
H811 C823 0.950 . S
C812 H804 0.950 . S
C812 C813 1.386 . S
C812 C814 1.391 . S
C813 C812 1.386 . S
C813 C817 1.393 . S
C814 H806 0.950 . S
C814 C812 1.391 . S
C814 C815 1.400 . S
C815 C814 1.400 . S
C815 C816 1.398 . S
C815 C821 1.491 . S
C816 H807 0.950 . S
C816 C815 1.398 . S
C816 C817 1.391 . S
C817 H805 0.950 . S
C817 C813 1.393 . S
C817 C816 1.391 . S
C818 H808 0.950 . S
C818 C819 1.386 . S
C818 C820 1.391 . S
C819 C818 1.386 . S
C819 C823 1.393 . S
C820 H809 0.950 . S
C820 C818 1.391 . S
C820 C821 1.400 . S
C821 C815 1.491 . S
C821 C820 1.400 . S
C821 C822 1.398 . S
C822 H810 0.950 . S
C822 C821 1.398 . S
C822 C823 1.391 . S
C823 H811 0.950 . S
C823 C819 1.393 . S
C823 C822 1.391 . S
H824 C832 0.950 . S
H825 C837 0.950 . S
H826 C834 0.950 . S
H827 C836 0.950 . S
H828 C838 0.950 . S
H829 C840 0.950 . S
H830 C842 0.950 . S
H831 C843 0.950 . S
C832 H824 0.950 . S
C832 C833 1.386 . S
C832 C834 1.391 . S
C833 C832 1.386 . S
C833 C837 1.393 . S
C834 H826 0.950 . S
C834 C832 1.391 . S
C834 C835 1.400 . S
C835 C834 1.400 . S
C835 C836 1.398 . S
C835 C841 1.491 . S
C836 H827 0.950 . S
C836 C835 1.398 . S
C836 C837 1.391 . S
C837 H825 0.950 . S
C837 C833 1.393 . S
C837 C836 1.391 . S
C838 H828 0.950 . S
C838 C839 1.386 . S
C838 C840 1.391 . S
C839 C838 1.386 . S
C839 C843 1.393 . S
C840 H829 0.950 . S
C840 C838 1.391 . S
C840 C841 1.400 . S
C841 C835 1.491 . S
C841 C840 1.400 . S
C841 C842 1.398 . S
C842 H830 0.950 . S
C842 C841 1.398 . S
C842 C843 1.391 . S
C843 H831 0.950 . S
C843 C839 1.393 . S
C843 C842 1.391 . S
H844 C852 0.950 . S
H845 C857 0.950 . S
H846 C854 0.950 . S
H847 C856 0.950 . S
H848 C858 0.950 . S
H849 C860 0.950 . S
H850 C862 0.950 . S
H851 C863 0.950 . S
C852 H844 0.950 . S
C852 C853 1.386 . S
C852 C854 1.391 . S
C853 C852 1.386 . S
C853 C857 1.393 . S
C854 H846 0.950 . S
C854 C852 1.391 . S
C854 C855 1.400 . S
C855 C854 1.400 . S
C855 C856 1.398 . S
C855 C861 1.491 . S
C856 H847 0.950 . S
C856 C855 1.398 . S
C856 C857 1.391 . S
C857 H845 0.950 . S
C857 C853 1.393 . S
C857 C856 1.391 . S
C858 H848 0.950 . S
C858 C859 1.386 . S
C858 C860 1.391 . S
C859 C858 1.386 . S
C859 C863 1.393 . S
C860 H849 0.950 . S
C860 C858 1.391 . S
C860 C861 1.400 . S
C861 C855 1.491 . S
C861 C860 1.400 . S
C861 C862 1.398 . S
C862 H850 0.950 . S
C862 C861 1.398 . S
C862 C863 1.391 . S
C863 H851 0.950 . S
C863 C859 1.393 . S
C863 C862 1.391 . S
H864 C872 0.950 . S
H865 C877 0.950 . S
H866 C874 0.953 . S
H867 C876 0.950 . S
H868 C878 0.950 1_554 S
H869 C880 0.950 . S
H870 C882 0.950 . S
H871 C883 0.950 . S
C872 H864 0.950 . S
C872 C873 1.386 . S
C872 C874 1.390 1_554 S
C873 C872 1.386 . S
C873 C877 1.393 . S
C874 H866 0.953 . S
C874 C872 1.390 1_556 S
C874 C875 1.399 1_556 S
C875 C874 1.399 1_554 S
C875 C876 1.398 . S
C875 C881 1.491 1_554 S
C876 H867 0.950 . S
C876 C875 1.398 . S
C876 C877 1.391 . S
C877 H865 0.950 . S
C877 C873 1.393 . S
C877 C876 1.391 . S
C878 H868 0.950 1_556 S
C878 C879 1.386 . S
C878 C880 1.391 1_556 S
C879 C878 1.386 . S
C879 C883 1.393 . S
C880 H869 0.950 . S
C880 C878 1.391 1_554 S
C880 C881 1.400 1_554 S
C881 C875 1.491 1_556 S
C881 C880 1.400 1_556 S
C881 C882 1.398 . S
C882 H870 0.950 . S
C882 C881 1.398 . S
C882 C883 1.391 . S
C883 H871 0.950 . S
C883 C879 1.393 . S
C883 C882 1.391 . S
H884 C892 0.950 . S
H885 C897 0.950 . S
H886 C894 0.950 . S
H887 C896 0.950 . S
H888 C898 0.950 . S
H889 C900 0.950 . S
H890 C902 0.950 . S
H891 C903 0.950 . S
C892 H884 0.950 . S
C892 C893 1.386 . S
C892 C894 1.391 . S
C893 C892 1.386 . S
C893 C897 1.393 . S
C894 H886 0.950 . S
C894 C892 1.391 . S
C894 C895 1.400 . S
C895 C894 1.400 . S
C895 C896 1.398 . S
C895 C901 1.491 . S
C896 H887 0.950 . S
C896 C895 1.398 . S
C896 C897 1.391 . S
C897 H885 0.950 . S
C897 C893 1.393 . S
C897 C896 1.391 . S
C898 H888 0.950 . S
C898 C899 1.386 . S
C898 C900 1.391 . S
C899 C898 1.386 . S
C899 C903 1.393 . S
C900 H889 0.950 . S
C900 C898 1.391 . S
C900 C901 1.400 . S
C901 C895 1.491 . S
C901 C900 1.400 . S
C901 C902 1.398 . S
C902 H890 0.950 . S
C902 C901 1.398 . S
C902 C903 1.391 . S
C903 H891 0.950 . S
C903 C899 1.393 . S
C903 C902 1.391 . S
H904 C912 0.950 . S
H905 C917 0.950 . S
H906 C914 0.950 . S
H907 C916 0.950 . S
H908 C918 0.950 . S
H909 C920 0.950 . S
H910 C922 0.950 . S
H911 C923 0.950 . S
C912 H904 0.950 . S
C912 C913 1.386 . S
C912 C914 1.391 . S
C913 C912 1.386 . S
C913 C917 1.393 . S
C914 H906 0.950 . S
C914 C912 1.391 . S
C914 C915 1.400 . S
C915 C914 1.400 . S
C915 C916 1.398 . S
C915 C921 1.491 . S
C916 H907 0.950 . S
C916 C915 1.398 . S
C916 C917 1.391 . S
C917 H905 0.950 . S
C917 C913 1.393 . S
C917 C916 1.391 . S
C918 H908 0.950 . S
C918 C919 1.386 . S
C918 C920 1.391 . S
C919 C918 1.386 . S
C919 C923 1.393 . S
C920 H909 0.950 . S
C920 C918 1.391 . S
C920 C921 1.400 . S
C921 C915 1.491 . S
C921 C920 1.400 . S
C921 C922 1.398 . S
C922 H910 0.950 . S
C922 C921 1.398 . S
C922 C923 1.391 . S
C923 H911 0.950 . S
C923 C919 1.393 . S
C923 C922 1.391 . S
H924 C932 0.950 . S
H925 C937 0.950 . S
H926 C934 0.950 . S
H927 C936 0.950 . S
H928 C938 0.950 . S
H929 C940 0.950 . S
H930 C942 0.950 . S
H931 C943 0.950 . S
C932 H924 0.950 . S
C932 C933 1.386 . S
C932 C934 1.391 . S
C933 C932 1.386 . S
C933 C937 1.393 . S
C934 H926 0.950 . S
C934 C932 1.391 . S
C934 C935 1.400 . S
C935 C934 1.400 . S
C935 C936 1.398 . S
C935 C941 1.491 . S
C936 H927 0.950 . S
C936 C935 1.398 . S
C936 C937 1.391 . S
C937 H925 0.950 . S
C937 C933 1.393 . S
C937 C936 1.391 . S
C938 H928 0.950 . S
C938 C939 1.386 . S
C938 C940 1.391 . S
C939 C938 1.386 . S
C939 C943 1.393 . S
C940 H929 0.950 . S
C940 C938 1.391 . S
C940 C941 1.400 . S
C941 C935 1.491 . S
C941 C940 1.400 . S
C941 C942 1.398 . S
C942 H930 0.950 . S
C942 C941 1.398 . S
C942 C943 1.391 . S
C943 H931 0.950 . S
C943 C939 1.393 . S
C943 C942 1.391 . S
H944 C952 0.950 . S
H945 C957 0.950 . S
H946 C954 0.950 . S
H947 C956 0.950 . S
H948 C958 0.950 . S
H949 C960 0.950 . S
H950 C962 0.950 . S
H951 C963 0.950 . S
C952 H944 0.950 . S
C952 C953 1.386 . S
C952 C954 1.391 . S
C953 C952 1.386 . S
C953 C957 1.393 . S
C954 H946 0.950 . S
C954 C952 1.391 . S
C954 C955 1.400 . S
C955 C954 1.400 . S
C955 C956 1.398 . S
C955 C961 1.491 . S
C956 H947 0.950 . S
C956 C955 1.398 . S
C956 C957 1.391 . S
C957 H945 0.950 . S
C957 C953 1.393 . S
C957 C956 1.391 . S
C958 H948 0.950 . S
C958 C959 1.386 . S
C958 C960 1.391 . S
C959 C958 1.386 . S
C959 C963 1.393 . S
C960 H949 0.950 . S
C960 C958 1.391 . S
C960 C961 1.400 . S
C961 C955 1.491 . S
C961 C960 1.400 . S
C961 C962 1.398 . S
C962 H950 0.950 . S
C962 C961 1.398 . S
C962 C963 1.391 . S
C963 H951 0.950 . S
C963 C959 1.393 . S
C963 C962 1.391 . S
H964 C972 0.950 . S
H965 C977 0.950 . S
H966 C974 0.950 . S
H967 C976 0.950 . S
H968 C978 0.950 . S
H969 C980 0.950 . S
H970 C982 0.950 . S
H971 C983 0.950 . S
C972 H964 0.950 . S
C972 C973 1.386 1_565 S
C972 C974 1.391 . S
C973 C972 1.386 1_545 S
C973 C977 1.393 . S
C974 H966 0.950 . S
C974 C972 1.391 . S
C974 C975 1.400 1_565 S
C975 C974 1.400 1_545 S
C975 C976 1.398 . S
C975 C981 1.491 . S
C976 H967 0.950 . S
C976 C975 1.398 . S
C976 C977 1.391 . S
C977 H965 0.950 . S
C977 C973 1.393 . S
C977 C976 1.391 . S
C978 H968 0.950 . S
C978 C979 1.386 . S
C978 C980 1.391 . S
C979 C978 1.386 . S
C979 C983 1.393 1_545 S
C980 H969 0.950 . S
C980 C978 1.391 . S
C980 C981 1.400 . S
C981 C975 1.491 . S
C981 C980 1.400 . S
C981 C982 1.398 1_545 S
C982 H970 0.950 . S
C982 C981 1.398 1_565 S
C982 C983 1.391 . S
C983 H971 0.950 . S
C983 C979 1.393 1_565 S
C983 C982 1.391 . S
H984 C992 0.950 . S
H985 C997 0.950 1_554 S
H986 C994 0.950 . S
H987 C996 0.950 . S
H988 C998 0.950 . S
H989 C1000 0.950 . S
H990 C1002 0.950 . S
H991 C1003 0.950 . S
C992 H984 0.950 . S
C992 C993 1.386 . S
C992 C994 1.391 . S
C993 C992 1.386 . S
C993 C997 1.393 . S
C994 H986 0.950 . S
C994 C992 1.391 . S
C994 C995 1.400 . S
C995 C994 1.400 . S
C995 C996 1.398 1_556 S
C995 C1001 1.491 1_556 S
C996 H987 0.950 . S
C996 C995 1.398 1_554 S
C996 C997 1.391 1_554 S
C997 H985 0.950 1_556 S
C997 C993 1.393 . S
C997 C996 1.391 1_556 S
C998 H988 0.950 . S
C998 C999 1.386 . S
C998 C1000 1.391 . S
C999 C998 1.386 . S
C999 C1003 1.393 1_554 S
C1000 H989 0.950 . S
C1000 C998 1.391 . S
C1000 C1001 1.400 . S
C1001 C995 1.491 1_554 S
C1001 C1000 1.400 . S
C1001 C1002 1.398 1_554 S
C1002 H990 0.950 . S
C1002 C1001 1.398 1_556 S
C1002 C1003 1.391 . S
C1003 H991 0.950 . S
C1003 C999 1.393 1_556 S
C1003 C1002 1.391 . S
H1004 C1012 0.950 1_545 S
H1005 C1017 0.950 . S
H1006 C1014 0.950 1_545 S
H1007 C1016 0.950 . S
H1008 C1018 0.950 . S
H1009 C1020 0.950 . S
H1010 C1022 0.950 1_545 S
H1011 C1023 0.950 1_545 S
C1012 H1004 0.950 1_565 S
C1012 C1013 1.386 . S
C1012 C1014 1.391 . S
C1013 C1012 1.386 . S
C1013 C1017 1.393 . S
C1014 H1006 0.950 1_565 S
C1014 C1012 1.391 . S
C1014 C1015 1.400 . S
C1015 C1014 1.400 . S
C1015 C1016 1.398 . S
C1015 C1021 1.491 . S
C1016 H1007 0.950 . S
C1016 C1015 1.398 . S
C1016 C1017 1.391 . S
C1017 H1005 0.950 . S
C1017 C1013 1.393 . S
C1017 C1016 1.391 . S
C1018 H1008 0.950 . S
C1018 C1019 1.386 . S
C1018 C1020 1.391 . S
C1019 C1018 1.386 . S
C1019 C1023 1.393 . S
C1020 H1009 0.950 . S
C1020 C1018 1.391 . S
C1020 C1021 1.400 . S
C1021 C1015 1.491 . S
C1021 C1020 1.400 . S
C1021 C1022 1.398 . S
C1022 H1010 0.950 1_565 S
C1022 C1021 1.398 . S
C1022 C1023 1.391 . S
C1023 H1011 0.950 1_565 S
C1023 C1019 1.393 . S
C1023 C1022 1.391 . S
H1024 C1032 0.950 . S
H1025 C1037 0.950 . S
H1026 C1034 0.950 . S
H1027 C1036 0.950 . S
H1028 C1038 0.950 . S
H1029 C1040 0.950 . S
H1030 C1042 0.950 . S
H1031 C1043 0.950 . S
C1032 H1024 0.950 . S
C1032 C1033 1.386 . S
C1032 C1034 1.391 . S
C1033 C1032 1.386 . S
C1033 C1037 1.393 . S
C1034 H1026 0.950 . S
C1034 C1032 1.391 . S
C1034 C1035 1.400 . S
C1035 C1034 1.400 . S
C1035 C1036 1.398 . S
C1035 C1041 1.491 . S
C1036 H1027 0.950 . S
C1036 C1035 1.398 . S
C1036 C1037 1.391 . S
C1037 H1025 0.950 . S
C1037 C1033 1.393 . S
C1037 C1036 1.391 . S
C1038 H1028 0.950 . S
C1038 C1039 1.386 . S
C1038 C1040 1.391 . S
C1039 C1038 1.386 . S
C1039 C1043 1.393 . S
C1040 H1029 0.950 . S
C1040 C1038 1.391 . S
C1040 C1041 1.400 . S
C1041 C1035 1.491 . S
C1041 C1040 1.400 . S
C1041 C1042 1.398 . S
C1042 H1030 0.950 . S
C1042 C1041 1.398 . S
C1042 C1043 1.391 . S
C1043 H1031 0.950 . S
C1043 C1039 1.393 . S
C1043 C1042 1.391 . S
H1044 C1052 0.950 . S
H1045 C1057 0.950 1_545 S
H1046 C1054 0.950 . S
H1047 C1056 0.961 . S
H1048 C1058 0.950 . S
H1049 C1060 0.950 . S
H1050 C1062 0.950 . S
H1051 C1063 0.950 . S
C1052 H1044 0.950 . S
C1052 C1053 1.386 . S
C1052 C1054 1.391 . S
C1053 C1052 1.386 . S
C1053 C1057 1.393 . S
C1054 H1046 0.950 . S
C1054 C1052 1.391 . S
C1054 C1055 1.400 . S
C1055 C1054 1.400 . S
C1055 C1056 1.398 . S
C1055 C1061 1.491 . S
C1056 H1047 0.961 . S
C1056 C1055 1.398 . S
C1056 C1057 1.391 . S
C1057 H1045 0.950 1_565 S
C1057 C1053 1.393 . S
C1057 C1056 1.391 . S
C1058 H1048 0.950 . S
C1058 C1059 1.386 . S
C1058 C1060 1.391 . S
C1059 C1058 1.386 . S
C1059 C1063 1.393 . S
C1060 H1049 0.950 . S
C1060 C1058 1.391 . S
C1060 C1061 1.400 . S
C1061 C1055 1.491 . S
C1061 C1060 1.400 . S
C1061 C1062 1.398 . S
C1062 H1050 0.950 . S
C1062 C1061 1.398 . S
C1062 C1063 1.391 . S
C1063 H1051 0.950 . S
C1063 C1059 1.393 . S
C1063 C1062 1.391 . S
H1064 C1072 0.950 . S
H1065 C1077 0.950 1_556 S
H1066 C1074 0.950 . S
H1067 C1076 0.950 . S
H1068 C1078 0.950 . S
H1069 C1080 0.950 . S
H1070 C1082 0.950 . S
H1071 C1083 0.950 . S
C1072 H1064 0.950 . S
C1072 C1073 1.386 . S
C1072 C1074 1.391 . S
C1073 C1072 1.386 . S
C1073 C1077 1.393 . S
C1074 H1066 0.950 . S
C1074 C1072 1.391 . S
C1074 C1075 1.400 . S
C1075 C1074 1.400 . S
C1075 C1076 1.398 1_554 S
C1075 C1081 1.491 1_554 S
C1076 H1067 0.950 . S
C1076 C1075 1.398 1_556 S
C1076 C1077 1.391 1_556 S
C1077 H1065 0.950 1_554 S
C1077 C1073 1.393 . S
C1077 C1076 1.391 1_554 S
C1078 H1068 0.950 . S
C1078 C1079 1.386 . S
C1078 C1080 1.391 . S
C1079 C1078 1.386 . S
C1079 C1083 1.393 1_556 S
C1080 H1069 0.950 . S
C1080 C1078 1.391 . S
C1080 C1081 1.400 . S
C1081 C1075 1.491 1_556 S
C1081 C1080 1.400 . S
C1081 C1082 1.398 1_556 S
C1082 H1070 0.950 . S
C1082 C1081 1.398 1_554 S
C1082 C1083 1.391 . S
C1083 H1071 0.950 . S
C1083 C1079 1.393 1_554 S
C1083 C1082 1.391 . S
H1084 C1092 0.950 . S
H1085 C1097 0.950 1_565 S
H1086 C1094 0.950 . S
H1087 C1096 0.950 . S
H1088 C1098 0.950 . S
H1089 C1100 0.950 . S
H1090 C1102 0.950 . S
H1091 C1103 0.950 . S
C1092 H1084 0.950 . S
C1092 C1093 1.386 . S
C1092 C1094 1.391 . S
C1093 C1092 1.386 . S
C1093 C1097 1.393 . S
C1094 H1086 0.950 . S
C1094 C1092 1.391 . S
C1094 C1095 1.400 . S
C1095 C1094 1.400 . S
C1095 C1096 1.398 1_545 S
C1095 C1101 1.491 . S
C1096 H1087 0.950 . S
C1096 C1095 1.398 1_565 S
C1096 C1097 1.391 1_565 S
C1097 H1085 0.950 1_545 S
C1097 C1093 1.393 . S
C1097 C1096 1.391 1_545 S
C1098 H1088 0.950 . S
C1098 C1099 1.386 1_565 S
C1098 C1100 1.391 . S
C1099 C1098 1.386 1_545 S
C1099 C1103 1.393 . S
C1100 H1089 0.950 . S
C1100 C1098 1.391 . S
C1100 C1101 1.400 1_565 S
C1101 C1095 1.491 . S
C1101 C1100 1.400 1_545 S
C1101 C1102 1.398 . S
C1102 H1090 0.950 . S
C1102 C1101 1.398 . S
C1102 C1103 1.391 . S
C1103 H1091 0.950 . S
C1103 C1099 1.393 . S
C1103 C1102 1.391 . S
H1104 C1112 0.950 . S
H1105 C1117 0.950 . S
H1106 C1114 0.950 . S
H1107 C1116 0.950 . S
H1108 C1118 0.950 . S
H1109 C1120 0.950 . S
H1110 C1122 0.950 . S
H1111 C1123 0.950 . S
C1112 H1104 0.950 . S
C1112 C1113 1.386 . S
C1112 C1114 1.391 . S
C1113 C1112 1.386 . S
C1113 C1117 1.393 . S
C1114 H1106 0.950 . S
C1114 C1112 1.391 . S
C1114 C1115 1.400 . S
C1115 C1114 1.400 . S
C1115 C1116 1.398 . S
C1115 C1121 1.491 . S
C1116 H1107 0.950 . S
C1116 C1115 1.398 . S
C1116 C1117 1.391 . S
C1117 H1105 0.950 . S
C1117 C1113 1.393 . S
C1117 C1116 1.391 . S
C1118 H1108 0.950 . S
C1118 C1119 1.386 . S
C1118 C1120 1.391 . S
C1119 C1118 1.386 . S
C1119 C1123 1.393 . S
C1120 H1109 0.950 . S
C1120 C1118 1.391 . S
C1120 C1121 1.400 . S
C1121 C1115 1.491 . S
C1121 C1120 1.400 . S
C1121 C1122 1.398 . S
C1122 H1110 0.950 . S
C1122 C1121 1.398 . S
C1122 C1123 1.391 . S
C1123 H1111 0.950 . S
C1123 C1119 1.393 . S
C1123 C1122 1.391 . S
H1124 C1132 0.950 . S
H1125 C1137 0.950 . S
H1126 C1134 0.950 . S
H1127 C1136 0.950 . S
H1128 C1138 0.950 . S
H1129 C1140 0.950 . S
H1130 C1142 0.950 . S
H1131 C1143 0.950 . S
C1132 H1124 0.950 . S
C1132 C1133 1.386 . S
C1132 C1134 1.391 . S
C1133 C1132 1.386 . S
C1133 C1137 1.393 . S
C1134 H1126 0.950 . S
C1134 C1132 1.391 . S
C1134 C1135 1.400 . S
C1135 C1134 1.400 . S
C1135 C1136 1.398 . S
C1135 C1141 1.491 . S
C1136 H1127 0.950 . S
C1136 C1135 1.398 . S
C1136 C1137 1.391 . S
C1137 H1125 0.950 . S
C1137 C1133 1.393 . S
C1137 C1136 1.391 . S
C1138 H1128 0.950 . S
C1138 C1139 1.386 . S
C1138 C1140 1.391 . S
C1139 C1138 1.386 . S
C1139 C1143 1.393 . S
C1140 H1129 0.950 . S
C1140 C1138 1.391 . S
C1140 C1141 1.400 . S
C1141 C1135 1.491 . S
C1141 C1140 1.400 . S
C1141 C1142 1.398 . S
C1142 H1130 0.950 . S
C1142 C1141 1.398 . S
C1142 C1143 1.391 . S
C1143 H1131 0.950 . S
C1143 C1139 1.393 . S
C1143 C1142 1.391 . S
H1144 C1152 0.950 . S
H1145 C1157 0.950 . S
H1146 C1154 0.950 . S
H1147 C1156 0.950 . S
H1148 C1158 0.950 . S
H1149 C1160 0.950 . S
H1150 C1162 0.950 . S
H1151 C1163 0.950 . S
C1152 H1144 0.950 . S
C1152 C1153 1.386 . S
C1152 C1154 1.391 . S
C1153 C1152 1.386 . S
C1153 C1157 1.393 . S
C1154 H1146 0.950 . S
C1154 C1152 1.391 . S
C1154 C1155 1.400 . S
C1155 C1154 1.400 . S
C1155 C1156 1.398 . S
C1155 C1161 1.491 . S
C1156 H1147 0.950 . S
C1156 C1155 1.398 . S
C1156 C1157 1.391 . S
C1157 H1145 0.950 . S
C1157 C1153 1.393 . S
C1157 C1156 1.391 . S
C1158 H1148 0.950 . S
C1158 C1159 1.386 . S
C1158 C1160 1.391 . S
C1159 C1158 1.386 . S
C1159 C1163 1.393 . S
C1160 H1149 0.950 . S
C1160 C1158 1.391 . S
C1160 C1161 1.400 . S
C1161 C1155 1.491 . S
C1161 C1160 1.400 . S
C1161 C1162 1.398 . S
C1162 H1150 0.950 . S
C1162 C1161 1.398 . S
C1162 C1163 1.391 . S
C1163 H1151 0.950 . S
C1163 C1159 1.393 . S
C1163 C1162 1.391 . S
H1164 C1172 0.950 . S
H1165 C1177 0.950 . S
H1166 C1174 0.950 . S
H1167 C1176 0.950 . S
H1168 C1178 0.950 . S
H1169 C1180 0.950 . S
H1170 C1182 0.950 . S
H1171 C1183 0.950 . S
C1172 H1164 0.950 . S
C1172 C1173 1.386 . S
C1172 C1174 1.391 . S
C1173 C1172 1.386 . S
C1173 C1177 1.393 . S
C1174 H1166 0.950 . S
C1174 C1172 1.391 . S
C1174 C1175 1.400 . S
C1175 C1174 1.400 . S
C1175 C1176 1.398 . S
C1175 C1181 1.491 . S
C1176 H1167 0.950 . S
C1176 C1175 1.398 . S
C1176 C1177 1.391 . S
C1177 H1165 0.950 . S
C1177 C1173 1.393 . S
C1177 C1176 1.391 . S
C1178 H1168 0.950 . S
C1178 C1179 1.386 . S
C1178 C1180 1.391 . S
C1179 C1178 1.386 . S
C1179 C1183 1.393 . S
C1180 H1169 0.950 . S
C1180 C1178 1.391 . S
C1180 C1181 1.400 . S
C1181 C1175 1.491 . S
C1181 C1180 1.400 . S
C1181 C1182 1.398 . S
C1182 H1170 0.950 . S
C1182 C1181 1.398 . S
C1182 C1183 1.391 . S
C1183 H1171 0.950 . S
C1183 C1179 1.393 . S
C1183 C1182 1.391 . S
H1184 C1192 0.950 . S
H1185 C1197 0.950 . S
H1186 C1194 0.950 . S
H1187 C1196 0.950 . S
H1188 C1198 0.950 . S
H1189 C1200 0.950 . S
H1190 C1202 0.950 . S
H1191 C1203 0.950 . S
C1192 H1184 0.950 . S
C1192 C1193 1.386 . S
C1192 C1194 1.391 . S
C1193 C1192 1.386 . S
C1193 C1197 1.393 . S
C1194 H1186 0.950 . S
C1194 C1192 1.391 . S
C1194 C1195 1.400 . S
C1195 C1194 1.400 . S
C1195 C1196 1.398 . S
C1195 C1201 1.491 . S
C1196 H1187 0.950 . S
C1196 C1195 1.398 . S
C1196 C1197 1.391 . S
C1197 H1185 0.950 . S
C1197 C1193 1.393 . S
C1197 C1196 1.391 . S
C1198 H1188 0.950 . S
C1198 C1199 1.386 . S
C1198 C1200 1.391 . S
C1199 C1198 1.386 . S
C1199 C1203 1.393 . S
C1200 H1189 0.950 . S
C1200 C1198 1.391 . S
C1200 C1201 1.400 . S
C1201 C1195 1.491 . S
C1201 C1200 1.400 . S
C1201 C1202 1.398 . S
C1202 H1190 0.950 . S
C1202 C1201 1.398 . S
C1202 C1203 1.391 . S
C1203 H1191 0.950 . S
C1203 C1199 1.393 . S
C1203 C1202 1.391 . S
H1204 C1212 0.950 . S
H1205 C1217 0.950 . S
H1206 C1214 0.950 . S
H1207 C1216 0.950 . S
H1208 C1218 0.950 . S
H1209 C1220 0.950 . S
H1210 C1222 0.950 . S
H1211 C1223 0.950 . S
C1212 H1204 0.950 . S
C1212 C1213 1.386 . S
C1212 C1214 1.391 . S
C1213 C1212 1.386 . S
C1213 C1217 1.393 . S
C1214 H1206 0.950 . S
C1214 C1212 1.391 . S
C1214 C1215 1.400 . S
C1215 C1214 1.400 . S
C1215 C1216 1.398 . S
C1215 C1221 1.491 . S
C1216 H1207 0.950 . S
C1216 C1215 1.398 . S
C1216 C1217 1.391 . S
C1217 H1205 0.950 . S
C1217 C1213 1.393 . S
C1217 C1216 1.391 . S
C1218 H1208 0.950 . S
C1218 C1219 1.386 . S
C1218 C1220 1.391 . S
C1219 C1218 1.386 . S
C1219 C1223 1.393 . S
C1220 H1209 0.950 . S
C1220 C1218 1.391 . S
C1220 C1221 1.400 . S
C1221 C1215 1.491 . S
C1221 C1220 1.400 . S
C1221 C1222 1.398 . S
C1222 H1210 0.950 . S
C1222 C1221 1.398 . S
C1222 C1223 1.391 . S
C1223 H1211 0.950 . S
C1223 C1219 1.393 . S
C1223 C1222 1.391 . S
H1224 C1232 0.950 . S
H1225 C1237 0.950 . S
H1226 C1234 0.950 . S
H1227 C1236 0.950 . S
H1228 C1238 0.950 . S
H1229 C1240 0.950 . S
H1230 C1242 0.950 . S
H1231 C1243 0.950 . S
C1232 H1224 0.950 . S
C1232 C1233 1.386 . S
C1232 C1234 1.391 . S
C1233 C1232 1.386 . S
C1233 C1237 1.393 . S
C1234 H1226 0.950 . S
C1234 C1232 1.391 . S
C1234 C1235 1.400 . S
C1235 C1234 1.400 . S
C1235 C1236 1.398 . S
C1235 C1241 1.491 . S
C1236 H1227 0.950 . S
C1236 C1235 1.398 . S
C1236 C1237 1.391 . S
C1237 H1225 0.950 . S
C1237 C1233 1.393 . S
C1237 C1236 1.391 . S
C1238 H1228 0.950 . S
C1238 C1239 1.386 . S
C1238 C1240 1.391 . S
C1239 C1238 1.386 . S
C1239 C1243 1.393 . S
C1240 H1229 0.950 . S
C1240 C1238 1.391 . S
C1240 C1241 1.400 . S
C1241 C1235 1.491 . S
C1241 C1240 1.400 . S
C1241 C1242 1.398 . S
C1242 H1230 0.950 . S
C1242 C1241 1.398 . S
C1242 C1243 1.391 . S
C1243 H1231 0.950 . S
C1243 C1239 1.393 . S
C1243 C1242 1.391 . S
H1244 C1252 0.950 . S
H1245 C1257 0.950 . S
H1246 C1254 0.950 . S
H1247 C1256 0.950 . S
H1248 C1258 0.950 . S
H1249 C1260 0.950 . S
H1250 C1262 0.950 . S
H1251 C1263 0.950 . S
C1252 H1244 0.950 . S
C1252 C1253 1.386 . S
C1252 C1254 1.391 . S
C1253 C1252 1.386 . S
C1253 C1257 1.393 . S
C1254 H1246 0.950 . S
C1254 C1252 1.391 . S
C1254 C1255 1.400 . S
C1255 C1254 1.400 . S
C1255 C1256 1.398 . S
C1255 C1261 1.491 . S
C1256 H1247 0.950 . S
C1256 C1255 1.398 . S
C1256 C1257 1.391 . S
C1257 H1245 0.950 . S
C1257 C1253 1.393 . S
C1257 C1256 1.391 . S
C1258 H1248 0.950 . S
C1258 C1259 1.386 . S
C1258 C1260 1.391 . S
C1259 C1258 1.386 . S
C1259 C1263 1.393 . S
C1260 H1249 0.950 . S
C1260 C1258 1.391 . S
C1260 C1261 1.400 . S
C1261 C1255 1.491 . S
C1261 C1260 1.400 . S
C1261 C1262 1.398 . S
C1262 H1250 0.950 . S
C1262 C1261 1.398 . S
C1262 C1263 1.391 . S
C1263 H1251 0.950 . S
C1263 C1259 1.393 . S
C1263 C1262 1.391 . S
H1264 C1272 0.950 . S
H1265 C1277 0.950 . S
H1266 C1274 0.950 . S
H1267 C1276 0.950 . S
H1268 C1278 0.950 . S
H1269 C1280 0.950 . S
H1270 C1282 0.950 . S
H1271 C1283 0.950 . S
C1272 H1264 0.950 . S
C1272 C1273 1.386 . S
C1272 C1274 1.391 . S
C1273 C1272 1.386 . S
C1273 C1277 1.393 . S
C1274 H1266 0.950 . S
C1274 C1272 1.391 . S
C1274 C1275 1.400 . S
C1275 C1274 1.400 . S
C1275 C1276 1.398 . S
C1275 C1281 1.491 . S
C1276 H1267 0.950 . S
C1276 C1275 1.398 . S
C1276 C1277 1.391 . S
C1277 H1265 0.950 . S
C1277 C1273 1.393 . S
C1277 C1276 1.391 . S
C1278 H1268 0.950 . S
C1278 C1279 1.386 . S
C1278 C1280 1.391 . S
C1279 C1278 1.386 . S
C1279 C1283 1.393 . S
C1280 H1269 0.950 . S
C1280 C1278 1.391 . S
C1280 C1281 1.400 . S
C1281 C1275 1.491 . S
C1281 C1280 1.400 . S
C1281 C1282 1.398 . S
C1282 H1270 0.950 . S
C1282 C1281 1.398 . S
C1282 C1283 1.391 . S
C1283 H1271 0.950 . S
C1283 C1279 1.393 . S
C1283 C1282 1.391 . S
H1284 C1292 0.950 . S
H1285 C1297 0.950 . S
H1286 C1294 0.950 . S
H1287 C1296 0.950 . S
H1288 C1298 0.950 . S
H1289 C1300 0.950 . S
H1290 C1302 0.948 1_565 S
H1291 C1303 0.950 . S
C1292 H1284 0.950 . S
C1292 C1293 1.386 . S
C1292 C1294 1.391 . S
C1293 C1292 1.386 . S
C1293 C1297 1.393 . S
C1294 H1286 0.950 . S
C1294 C1292 1.391 . S
C1294 C1295 1.400 . S
C1295 C1294 1.400 . S
C1295 C1296 1.398 . S
C1295 C1301 1.491 . S
C1296 H1287 0.950 . S
C1296 C1295 1.398 . S
C1296 C1297 1.391 . S
C1297 H1285 0.950 . S
C1297 C1293 1.393 . S
C1297 C1296 1.391 . S
C1298 H1288 0.950 . S
C1298 C1299 1.386 . S
C1298 C1300 1.391 1_545 S
C1299 C1298 1.386 . S
C1299 C1303 1.393 . S
C1300 H1289 0.950 . S
C1300 C1298 1.391 1_565 S
C1300 C1301 1.400 . S
C1301 C1295 1.491 . S
C1301 C1300 1.400 . S
C1301 C1302 1.398 1_565 S
C1302 H1290 0.948 1_545 S
C1302 C1301 1.398 1_545 S
C1302 C1303 1.391 . S
C1303 H1291 0.950 . S
C1303 C1299 1.393 . S
C1303 C1302 1.391 . S
H1304 C1312 0.950 . S
H1305 C1317 0.950 . S
H1306 C1314 0.950 . S
H1307 C1316 0.950 . S
H1308 C1318 0.950 . S
H1309 C1320 0.950 . S
H1310 C1322 0.950 . S
H1311 C1323 0.950 . S
C1312 H1304 0.950 . S
C1312 C1313 1.386 . S
C1312 C1314 1.391 . S
C1313 C1312 1.386 . S
C1313 C1317 1.393 . S
C1314 H1306 0.950 . S
C1314 C1312 1.391 . S
C1314 C1315 1.400 . S
C1315 C1314 1.400 . S
C1315 C1316 1.398 . S
C1315 C1321 1.491 . S
C1316 H1307 0.950 . S
C1316 C1315 1.398 . S
C1316 C1317 1.391 . S
C1317 H1305 0.950 . S
C1317 C1313 1.393 . S
C1317 C1316 1.391 . S
C1318 H1308 0.950 . S
C1318 C1319 1.386 . S
C1318 C1320 1.391 . S
C1319 C1318 1.386 . S
C1319 C1323 1.393 . S
C1320 H1309 0.950 . S
C1320 C1318 1.391 . S
C1320 C1321 1.400 . S
C1321 C1315 1.491 . S
C1321 C1320 1.400 . S
C1321 C1322 1.398 . S
C1322 H1310 0.950 . S
C1322 C1321 1.398 . S
C1322 C1323 1.391 . S
C1323 H1311 0.950 . S
C1323 C1319 1.393 . S
C1323 C1322 1.391 . S
H1324 C1332 0.950 . S
H1325 C1337 0.950 . S
H1326 C1334 0.950 . S
H1327 C1336 0.950 . S
H1328 C1338 0.950 . S
H1329 C1340 0.950 . S
H1330 C1342 0.950 . S
H1331 C1343 0.950 . S
C1332 H1324 0.950 . S
C1332 C1333 1.386 . S
C1332 C1334 1.391 . S
C1333 C1332 1.386 . S
C1333 C1337 1.393 . S
C1334 H1326 0.950 . S
C1334 C1332 1.391 . S
C1334 C1335 1.400 1_565 S
C1335 C1334 1.400 1_545 S
C1335 C1336 1.398 . S
C1335 C1341 1.491 . S
C1336 H1327 0.950 . S
C1336 C1335 1.398 . S
C1336 C1337 1.391 1_545 S
C1337 H1325 0.950 . S
C1337 C1333 1.393 . S
C1337 C1336 1.391 1_565 S
C1338 H1328 0.950 . S
C1338 C1339 1.386 . S
C1338 C1340 1.391 . S
C1339 C1338 1.386 . S
C1339 C1343 1.393 . S
C1340 H1329 0.950 . S
C1340 C1338 1.391 . S
C1340 C1341 1.400 . S
C1341 C1335 1.491 . S
C1341 C1340 1.400 . S
C1341 C1342 1.398 . S
C1342 H1330 0.950 . S
C1342 C1341 1.398 . S
C1342 C1343 1.391 . S
C1343 H1331 0.950 . S
C1343 C1339 1.393 . S
C1343 C1342 1.391 . S
H1344 C1352 0.950 . S
H1345 C1357 0.950 . S
H1346 C1354 0.950 . S
H1347 C1356 0.950 . S
H1348 C1358 0.950 . S
H1349 C1360 0.950 . S
H1350 C1362 0.950 . S
H1351 C1363 0.950 . S
C1352 H1344 0.950 . S
C1352 C1353 1.386 . S
C1352 C1354 1.391 . S
C1353 C1352 1.386 . S
C1353 C1357 1.393 . S
C1354 H1346 0.950 . S
C1354 C1352 1.391 . S
C1354 C1355 1.400 . S
C1355 C1354 1.400 . S
C1355 C1356 1.398 . S
C1355 C1361 1.491 . S
C1356 H1347 0.950 . S
C1356 C1355 1.398 . S
C1356 C1357 1.391 . S
C1357 H1345 0.950 . S
C1357 C1353 1.393 . S
C1357 C1356 1.391 . S
C1358 H1348 0.950 . S
C1358 C1359 1.386 . S
C1358 C1360 1.391 . S
C1359 C1358 1.386 . S
C1359 C1363 1.393 . S
C1360 H1349 0.950 . S
C1360 C1358 1.391 . S
C1360 C1361 1.400 . S
C1361 C1355 1.491 . S
C1361 C1360 1.400 . S
C1361 C1362 1.398 . S
C1362 H1350 0.950 . S
C1362 C1361 1.398 . S
C1362 C1363 1.391 . S
C1363 H1351 0.950 . S
C1363 C1359 1.393 . S
C1363 C1362 1.391 . S
H1364 C1372 0.950 . S
H1365 C1377 0.950 1_565 S
H1366 C1374 0.950 . S
H1367 C1376 0.950 . S
H1368 C1378 0.950 . S
H1369 C1380 0.950 . S
H1370 C1382 0.950 . S
H1371 C1383 0.950 . S
C1372 H1364 0.950 . S
C1372 C1373 1.386 . S
C1372 C1374 1.391 . S
C1373 C1372 1.386 . S
C1373 C1377 1.393 . S
C1374 H1366 0.950 . S
C1374 C1372 1.391 . S
C1374 C1375 1.400 . S
C1375 C1374 1.400 . S
C1375 C1376 1.398 1_545 S
C1375 C1381 1.491 . S
C1376 H1367 0.950 . S
C1376 C1375 1.398 1_565 S
C1376 C1377 1.391 1_565 S
C1377 H1365 0.950 1_545 S
C1377 C1373 1.393 . S
C1377 C1376 1.391 1_545 S
C1378 H1368 0.950 . S
C1378 C1379 1.386 . S
C1378 C1380 1.391 . S
C1379 C1378 1.386 . S
C1379 C1383 1.393 1_565 S
C1380 H1369 0.950 . S
C1380 C1378 1.391 . S
C1380 C1381 1.400 1_565 S
C1381 C1375 1.491 . S
C1381 C1380 1.400 1_545 S
C1381 C1382 1.398 . S
C1382 H1370 0.950 . S
C1382 C1381 1.398 . S
C1382 C1383 1.391 . S
C1383 H1371 0.950 . S
C1383 C1379 1.393 1_545 S
C1383 C1382 1.391 . S
H1384 C1392 0.950 . S
H1385 C1397 0.950 . S
H1386 C1394 0.950 . S
H1387 C1396 0.950 . S
H1388 C1398 0.950 . S
H1389 C1400 0.950 . S
H1390 C1402 0.950 . S
H1391 C1403 0.950 . S
C1392 H1384 0.950 . S
C1392 C1393 1.386 . S
C1392 C1394 1.391 . S
C1393 C1392 1.386 . S
C1393 C1397 1.393 . S
C1394 H1386 0.950 . S
C1394 C1392 1.391 . S
C1394 C1395 1.400 . S
C1395 C1394 1.400 . S
C1395 C1396 1.398 . S
C1395 C1401 1.491 . S
C1396 H1387 0.950 . S
C1396 C1395 1.398 . S
C1396 C1397 1.391 . S
C1397 H1385 0.950 . S
C1397 C1393 1.393 . S
C1397 C1396 1.391 . S
C1398 H1388 0.950 . S
C1398 C1399 1.386 . S
C1398 C1400 1.391 . S
C1399 C1398 1.386 . S
C1399 C1403 1.393 . S
C1400 H1389 0.950 . S
C1400 C1398 1.391 . S
C1400 C1401 1.400 . S
C1401 C1395 1.491 . S
C1401 C1400 1.400 . S
C1401 C1402 1.398 . S
C1402 H1390 0.950 . S
C1402 C1401 1.398 . S
C1402 C1403 1.391 . S
C1403 H1391 0.950 . S
C1403 C1399 1.393 . S
C1403 C1402 1.391 . S
H1404 C1412 0.950 . S
H1405 C1417 0.950 . S
H1406 C1414 0.950 . S
H1407 C1416 0.950 . S
H1408 C1418 0.950 . S
H1409 C1420 0.950 . S
H1410 C1422 0.950 . S
H1411 C1423 0.950 . S
C1412 H1404 0.950 . S
C1412 C1413 1.386 . S
C1412 C1414 1.391 . S
C1413 C1412 1.386 . S
C1413 C1417 1.393 . S
C1414 H1406 0.950 . S
C1414 C1412 1.391 . S
C1414 C1415 1.400 . S
C1415 C1414 1.400 . S
C1415 C1416 1.398 . S
C1415 C1421 1.491 . S
C1416 H1407 0.950 . S
C1416 C1415 1.398 . S
C1416 C1417 1.391 . S
C1417 H1405 0.950 . S
C1417 C1413 1.393 . S
C1417 C1416 1.391 . S
C1418 H1408 0.950 . S
C1418 C1419 1.386 . S
C1418 C1420 1.391 1_545 S
C1419 C1418 1.386 . S
C1419 C1423 1.393 . S
C1420 H1409 0.950 . S
C1420 C1418 1.391 1_565 S
C1420 C1421 1.400 . S
C1421 C1415 1.491 . S
C1421 C1420 1.400 . S
C1421 C1422 1.398 . S
C1422 H1410 0.950 . S
C1422 C1421 1.398 . S
C1422 C1423 1.391 1_565 S
C1423 H1411 0.950 . S
C1423 C1419 1.393 . S
C1423 C1422 1.391 1_545 S
H1424 C1432 0.950 . S
H1425 C1437 0.950 . S
H1426 C1434 0.950 . S
H1427 C1436 0.950 . S
H1428 C1438 0.950 . S
H1429 C1440 0.950 . S
H1430 C1442 0.950 . S
H1431 C1443 0.950 . S
C1432 H1424 0.950 . S
C1432 C1433 1.386 . S
C1432 C1434 1.391 . S
C1433 C1432 1.386 . S
C1433 C1437 1.393 . S
C1434 H1426 0.950 . S
C1434 C1432 1.391 . S
C1434 C1435 1.400 . S
C1435 C1434 1.400 . S
C1435 C1436 1.398 . S
C1435 C1441 1.491 . S
C1436 H1427 0.950 . S
C1436 C1435 1.398 . S
C1436 C1437 1.391 . S
C1437 H1425 0.950 . S
C1437 C1433 1.393 . S
C1437 C1436 1.391 . S
C1438 H1428 0.950 . S
C1438 C1439 1.386 . S
C1438 C1440 1.391 . S
C1439 C1438 1.386 . S
C1439 C1443 1.393 . S
C1440 H1429 0.950 . S
C1440 C1438 1.391 . S
C1440 C1441 1.400 . S
C1441 C1435 1.491 . S
C1441 C1440 1.400 . S
C1441 C1442 1.398 . S
C1442 H1430 0.950 . S
C1442 C1441 1.398 . S
C1442 C1443 1.391 . S
C1443 H1431 0.950 . S
C1443 C1439 1.393 . S
C1443 C1442 1.391 . S
H1444 C1452 0.950 . S
H1445 C1457 0.950 . S
H1446 C1454 0.950 . S
H1447 C1456 0.950 . S
H1448 C1458 0.950 . S
H1449 C1460 0.950 . S
H1450 C1462 0.950 . S
H1451 C1463 0.950 . S
C1452 H1444 0.950 . S
C1452 C1453 1.386 . S
C1452 C1454 1.391 . S
C1453 C1452 1.386 . S
C1453 C1457 1.393 . S
C1454 H1446 0.950 . S
C1454 C1452 1.391 . S
C1454 C1455 1.400 . S
C1455 C1454 1.400 . S
C1455 C1456 1.398 . S
C1455 C1461 1.491 . S
C1456 H1447 0.950 . S
C1456 C1455 1.398 . S
C1456 C1457 1.391 . S
C1457 H1445 0.950 . S
C1457 C1453 1.393 . S
C1457 C1456 1.391 . S
C1458 H1448 0.950 . S
C1458 C1459 1.386 . S
C1458 C1460 1.391 . S
C1459 C1458 1.386 . S
C1459 C1463 1.393 . S
C1460 H1449 0.950 . S
C1460 C1458 1.391 . S
C1460 C1461 1.400 . S
C1461 C1455 1.491 . S
C1461 C1460 1.400 . S
C1461 C1462 1.398 . S
C1462 H1450 0.950 . S
C1462 C1461 1.398 . S
C1462 C1463 1.391 . S
C1463 H1451 0.950 . S
C1463 C1459 1.393 . S
C1463 C1462 1.391 . S
H1464 C1472 0.950 . S
H1465 C1477 0.950 . S
H1466 C1474 0.950 . S
H1467 C1476 0.950 . S
H1468 C1478 0.950 . S
H1469 C1480 0.950 . S
H1470 C1482 0.950 . S
H1471 C1483 0.950 . S
C1472 H1464 0.950 . S
C1472 C1473 1.386 . S
C1472 C1474 1.391 . S
C1473 C1472 1.386 . S
C1473 C1477 1.393 . S
C1474 H1466 0.950 . S
C1474 C1472 1.391 . S
C1474 C1475 1.400 . S
C1475 C1474 1.400 . S
C1475 C1476 1.398 . S
C1475 C1481 1.491 1_455 S
C1476 H1467 0.950 . S
C1476 C1475 1.398 . S
C1476 C1477 1.391 . S
C1477 H1465 0.950 . S
C1477 C1473 1.393 . S
C1477 C1476 1.391 . S
C1478 H1468 0.950 . S
C1478 C1479 1.386 . S
C1478 C1480 1.391 . S
C1479 C1478 1.386 . S
C1479 C1483 1.393 . S
C1480 H1469 0.950 . S
C1480 C1478 1.391 . S
C1480 C1481 1.400 . S
C1481 C1475 1.491 1_655 S
C1481 C1480 1.400 . S
C1481 C1482 1.398 . S
C1482 H1470 0.950 . S
C1482 C1481 1.398 . S
C1482 C1483 1.391 . S
C1483 H1471 0.950 . S
C1483 C1479 1.393 . S
C1483 C1482 1.391 . S
H1484 C1492 0.950 . S
H1485 C1497 0.950 1_655 S
H1486 C1494 0.950 . S
H1487 C1496 0.950 . S
H1488 C1498 0.950 . S
H1489 C1500 0.950 . S
H1490 C1502 0.950 . S
H1491 C1503 0.950 1_455 S
C1492 H1484 0.950 . S
C1492 C1493 1.386 . S
C1492 C1494 1.391 . S
C1493 C1492 1.386 . S
C1493 C1497 1.393 . S
C1494 H1486 0.950 . S
C1494 C1492 1.391 . S
C1494 C1495 1.400 . S
C1495 C1494 1.400 . S
C1495 C1496 1.398 1_455 S
C1495 C1501 1.491 1_455 S
C1496 H1487 0.950 . S
C1496 C1495 1.398 1_655 S
C1496 C1497 1.391 1_655 S
C1497 H1485 0.950 1_455 S
C1497 C1493 1.393 . S
C1497 C1496 1.391 1_455 S
C1498 H1488 0.950 . S
C1498 C1499 1.386 . S
C1498 C1500 1.391 . S
C1499 C1498 1.386 . S
C1499 C1503 1.393 . S
C1500 H1489 0.950 . S
C1500 C1498 1.391 . S
C1500 C1501 1.400 . S
C1501 C1495 1.491 1_655 S
C1501 C1500 1.400 . S
C1501 C1502 1.398 1_655 S
C1502 H1490 0.950 . S
C1502 C1501 1.398 1_455 S
C1502 C1503 1.391 1_455 S
C1503 H1491 0.950 1_655 S
C1503 C1499 1.393 . S
C1503 C1502 1.391 1_655 S
H1504 C1512 0.950 . S
H1505 C1517 0.950 . S
H1506 C1514 0.950 . S
H1507 C1516 0.950 . S
H1508 C1518 0.950 . S
H1509 C1520 0.950 . S
H1510 C1522 0.950 . S
H1511 C1523 0.950 . S
C1512 H1504 0.950 . S
C1512 C1513 1.386 . S
C1512 C1514 1.391 . S
C1513 C1512 1.386 . S
C1513 C1517 1.393 . S
C1514 H1506 0.950 . S
C1514 C1512 1.391 . S
C1514 C1515 1.400 . S
C1515 C1514 1.400 . S
C1515 C1516 1.398 . S
C1515 C1521 1.491 . S
C1516 H1507 0.950 . S
C1516 C1515 1.398 . S
C1516 C1517 1.391 . S
C1517 H1505 0.950 . S
C1517 C1513 1.393 . S
C1517 C1516 1.391 . S
C1518 H1508 0.950 . S
C1518 C1519 1.386 . S
C1518 C1520 1.391 . S
C1519 C1518 1.386 . S
C1519 C1523 1.393 . S
C1520 H1509 0.950 . S
C1520 C1518 1.391 . S
C1520 C1521 1.400 . S
C1521 C1515 1.491 . S
C1521 C1520 1.400 . S
C1521 C1522 1.398 . S
C1522 H1510 0.950 . S
C1522 C1521 1.398 . S
C1522 C1523 1.391 . S
C1523 H1511 0.950 . S
C1523 C1519 1.393 . S
C1523 C1522 1.391 . S
H1524 C1532 0.950 . S
H1525 C1537 0.950 . S
H1526 C1534 0.950 . S
H1527 C1536 0.950 . S
H1528 C1538 0.950 . S
H1529 C1540 0.950 . S
H1530 C1542 0.950 . S
H1531 C1543 0.950 . S
C1532 H1524 0.950 . S
C1532 C1533 1.386 . S
C1532 C1534 1.391 . S
C1533 C1532 1.386 . S
C1533 C1537 1.393 . S
C1534 H1526 0.950 . S
C1534 C1532 1.391 . S
C1534 C1535 1.400 . S
C1535 C1534 1.400 . S
C1535 C1536 1.398 . S
C1535 C1541 1.491 . S
C1536 H1527 0.950 . S
C1536 C1535 1.398 . S
C1536 C1537 1.391 . S
C1537 H1525 0.950 . S
C1537 C1533 1.393 . S
C1537 C1536 1.391 . S
C1538 H1528 0.950 . S
C1538 C1539 1.386 . S
C1538 C1540 1.391 . S
C1539 C1538 1.386 . S
C1539 C1543 1.393 . S
C1540 H1529 0.950 . S
C1540 C1538 1.391 . S
C1540 C1541 1.400 . S
C1541 C1535 1.491 . S
C1541 C1540 1.400 . S
C1541 C1542 1.398 . S
C1542 H1530 0.950 . S
C1542 C1541 1.398 . S
C1542 C1543 1.391 . S
C1543 H1531 0.950 . S
C1543 C1539 1.393 . S
C1543 C1542 1.391 . S
H1544 C1552 0.950 . S
H1545 C1557 0.950 . S
H1546 C1554 0.950 . S
H1547 C1556 0.950 . S
H1548 C1558 0.950 . S
H1549 C1560 0.950 . S
H1550 C1562 0.950 . S
H1551 C1563 0.950 . S
C1552 H1544 0.950 . S
C1552 C1553 1.386 . S
C1552 C1554 1.391 . S
C1553 C1552 1.386 . S
C1553 C1557 1.393 . S
C1554 H1546 0.950 . S
C1554 C1552 1.391 . S
C1554 C1555 1.400 . S
C1555 C1554 1.400 . S
C1555 C1556 1.398 . S
C1555 C1561 1.491 1_455 S
C1556 H1547 0.950 . S
C1556 C1555 1.398 . S
C1556 C1557 1.391 . S
C1557 H1545 0.950 . S
C1557 C1553 1.393 . S
C1557 C1556 1.391 . S
C1558 H1548 0.950 . S
C1558 C1559 1.386 . S
C1558 C1560 1.391 . S
C1559 C1558 1.386 . S
C1559 C1563 1.393 . S
C1560 H1549 0.950 . S
C1560 C1558 1.391 . S
C1560 C1561 1.400 . S
C1561 C1555 1.491 1_655 S
C1561 C1560 1.400 . S
C1561 C1562 1.398 . S
C1562 H1550 0.950 . S
C1562 C1561 1.398 . S
C1562 C1563 1.391 . S
C1563 H1551 0.950 . S
C1563 C1559 1.393 . S
C1563 C1562 1.391 . S
H1564 C1572 0.950 1_655 S
H1565 C1577 0.950 . S
H1566 C1574 0.950 . S
H1567 C1576 0.950 . S
H1568 C1578 0.950 1_455 S
H1569 C1580 0.950 . S
H1570 C1582 0.950 . S
H1571 C1583 0.950 . S
C1572 H1564 0.950 1_455 S
C1572 C1573 1.386 . S
C1572 C1574 1.391 1_455 S
C1573 C1572 1.386 . S
C1573 C1577 1.393 . S
C1574 H1566 0.950 . S
C1574 C1572 1.391 1_655 S
C1574 C1575 1.400 1_655 S
C1575 C1574 1.400 1_455 S
C1575 C1576 1.398 . S
C1575 C1581 1.491 1_455 S
C1576 H1567 0.950 . S
C1576 C1575 1.398 . S
C1576 C1577 1.391 . S
C1577 H1565 0.950 . S
C1577 C1573 1.393 . S
C1577 C1576 1.391 . S
C1578 H1568 0.950 1_655 S
C1578 C1579 1.386 . S
C1578 C1580 1.391 1_655 S
C1579 C1578 1.386 . S
C1579 C1583 1.393 . S
C1580 H1569 0.950 . S
C1580 C1578 1.391 1_455 S
C1580 C1581 1.400 1_455 S
C1581 C1575 1.491 1_655 S
C1581 C1580 1.400 1_655 S
C1581 C1582 1.398 . S
C1582 H1570 0.950 . S
C1582 C1581 1.398 . S
C1582 C1583 1.391 . S
C1583 H1571 0.950 . S
C1583 C1579 1.393 . S
C1583 C1582 1.391 . S
C473 C213 2.277 . S
C479 C21 2.013 . S
C493 C358 2.271 . S
C499 C50 2.041 . S
C513 C79 2.021 . S
C519 C155 2.274 . S
C533 C416 2.275 . S
C539 C108 2.019 1_455 S
C553 C97 2.272 . S
C559 C137 2.042 . S
C573 C166 2.012 . S
C579 C242 2.277 . S
C593 C195 2.020 . S
C599 C39 2.279 . S
C613 C300 2.276 . S
C619 C224 2.015 1_655 S
C633 C445 2.272 . S
C639 C253 2.030 . S
C653 C282 2.015 1_655 S
C659 C126 2.276 . S
C673 C387 2.278 . S
C679 C311 2.011 . S
C693 C184 2.272 . S
C699 C340 2.027 . S
C713 C329 2.271 . S
C719 C369 2.042 . S
C733 C398 2.011 1_455 S
C739 C10 2.279 . S
C753 C427 2.036 . S
C759 C271 2.275 . S
C773 C68 2.277 . S
C779 C456 2.012 . S
C793 C15 1.218 . S
C799 C409 1.250 . S
C813 C206 1.242 1_655 S
C819 C44 1.187 . S
C833 C351 1.245 . S
C839 C73 1.186 . S
C853 C102 1.186 . S
C859 C148 1.242 . S
C873 C293 1.242 . S
C879 C131 1.205 . S
C893 C90 1.245 1_455 S
C899 C160 1.213 . S
C913 C189 1.185 . S
C919 C235 1.243 . S
C933 C218 1.218 . S
C939 C32 1.248 . S
C953 C247 1.202 . S
C959 C177 1.251 . S
C973 C276 1.188 . S
C979 C438 1.247 . S
C993 C119 1.241 . S
C999 C305 1.190 . S
C1013 C380 1.243 1_455 S
C1019 C334 1.185 . S
C1033 C61 1.251 . S
C1039 C363 1.202 . S
C1053 C392 1.186 . S
C1059 C322 1.242 . S
C1073 C3 1.251 . S
C1079 C421 1.208 . S
C1093 C264 1.249 1_655 S
C1099 C450 1.192 . S
C1113 C13 1.544 1_556 S
C1119 C269 1.484 . S
C1133 C298 1.487 . S
C1139 C42 1.548 . S
C1153 C327 1.480 . S
C1159 C71 1.540 . S
C1173 C240 1.472 . S
C1179 C100 1.537 . S
C1193 C129 1.538 1_554 S
C1199 C385 1.456 . S
C1213 C158 1.557 . S
C1219 C414 1.455 . S
C1233 C443 1.474 . S
C1239 C187 1.538 . S
C1253 C356 1.486 . S
C1259 C216 1.558 . S
C1273 C37 1.456 . S
C1279 C245 1.539 . S
C1293 C66 1.450 . S
C1299 C274 1.551 . S
C1313 C303 1.543 1_556 S
C1319 C95 1.483 . S
C1333 C332 1.546 . S
C1339 C8 1.450 . S
C1353 C361 1.540 . S
C1359 C153 1.480 . S
C1373 C182 1.471 . S
C1379 C390 1.537 . S
C1393 C419 1.560 1_554 S
C1399 C211 1.459 . S
C1413 C124 1.488 . S
C1419 C448 1.552 . S
C1433 C295 2.427 . S
C1439 C5 2.422 . S
C1453 C34 2.418 . S
C1459 C324 2.426 . S
C1473 C63 2.425 . S
C1479 C237 2.415 . S
C1493 C266 2.417 . S
C1499 C92 2.409 . S
C1513 C121 2.409 . S
C1519 C411 2.417 . S
C1533 C440 2.426 . S
C1539 C150 2.418 . S
C1553 C353 2.427 . S
C1559 C179 2.420 . S
C1573 C208 2.414 . S
C1579 C382 2.409 . S
