# Generated by pormake.
# Topology gis, (4)-cn, num edge types: 1
# Building blocks:
#     Node 0, Type 0, BuildingBlock: GALJAG_clean_sbu_0, # of connection points: 4
#     Node 1, Type 0, BuildingBlock: GALJAG_clean_sbu_0, # of connection points: 4
#     Node 2, Type 0, BuildingBlock: GALJAG_clean_sbu_0, # of connection points: 4
#     Node 3, Type 0, BuildingBlock: GALJAG_clean_sbu_0, # of connection points: 4
#     Node 4, Type 0, BuildingBlock: GALJAG_clean_sbu_0, # of connection points: 4
#     Node 5, Type 0, BuildingBlock: GALJAG_clean_sbu_0, # of connection points: 4
#     Node 6, Type 0, BuildingBlock: GALJAG_clean_sbu_0, # of connection points: 4
#     Node 7, Type 0, BuildingBlock: GALJAG_clean_sbu_0, # of connection points: 4
#     Node 8, Type 0, BuildingBlock: GALJAG_clean_sbu_0, # of connection points: 4
#     Node 9, Type 0, BuildingBlock: GALJAG_clean_sbu_0, # of connection points: 4
#     Node 10, Type 0, BuildingBlock: GALJAG_clean_sbu_0, # of connection points: 4
#     Node 11, Type 0, BuildingBlock: GALJAG_clean_sbu_0, # of connection points: 4
#     Node 12, Type 0, BuildingBlock: GALJAG_clean_sbu_0, # of connection points: 4
#     Node 13, Type 0, BuildingBlock: GALJAG_clean_sbu_0, # of connection points: 4
#     Node 14, Type 0, BuildingBlock: GALJAG_clean_sbu_0, # of connection points: 4
#     Node 15, Type 0, BuildingBlock: GALJAG_clean_sbu_0, # of connection points: 4
#     Edge 16, Type (0, 0), BuildingBlock: EYOCIG_clean_linker_4, # of connection points: 2
#     Edge 17, Type (0, 0), BuildingBlock: EYOCIG_clean_linker_4, # of connection points: 2
#     Edge 18, Type (0, 0), BuildingBlock: EYOCIG_clean_linker_4, # of connection points: 2
#     Edge 19, Type (0, 0), BuildingBlock: EYOCIG_clean_linker_4, # of connection points: 2
#     Edge 20, Type (0, 0), BuildingBlock: EYOCIG_clean_linker_4, # of connection points: 2
#     Edge 21, Type (0, 0), BuildingBlock: EYOCIG_clean_linker_4, # of connection points: 2
#     Edge 22, Type (0, 0), BuildingBlock: EYOCIG_clean_linker_4, # of connection points: 2
#     Edge 23, Type (0, 0), BuildingBlock: EYOCIG_clean_linker_4, # of connection points: 2
#     Edge 24, Type (0, 0), BuildingBlock: EYOCIG_clean_linker_4, # of connection points: 2
#     Edge 25, Type (0, 0), BuildingBlock: EYOCIG_clean_linker_4, # of connection points: 2
#     Edge 26, Type (0, 0), BuildingBlock: EYOCIG_clean_linker_4, # of connection points: 2
#     Edge 27, Type (0, 0), BuildingBlock: EYOCIG_clean_linker_4, # of connection points: 2
#     Edge 28, Type (0, 0), BuildingBlock: EYOCIG_clean_linker_4, # of connection points: 2
#     Edge 29, Type (0, 0), BuildingBlock: EYOCIG_clean_linker_4, # of connection points: 2
#     Edge 30, Type (0, 0), BuildingBlock: EYOCIG_clean_linker_4, # of connection points: 2
#     Edge 31, Type (0, 0), BuildingBlock: EYOCIG_clean_linker_4, # of connection points: 2
#     Edge 32, Type (0, 0), BuildingBlock: EYOCIG_clean_linker_4, # of connection points: 2
#     Edge 33, Type (0, 0), BuildingBlock: EYOCIG_clean_linker_4, # of connection points: 2
#     Edge 34, Type (0, 0), BuildingBlock: EYOCIG_clean_linker_4, # of connection points: 2
#     Edge 35, Type (0, 0), BuildingBlock: EYOCIG_clean_linker_4, # of connection points: 2
#     Edge 36, Type (0, 0), BuildingBlock: EYOCIG_clean_linker_4, # of connection points: 2
#     Edge 37, Type (0, 0), BuildingBlock: EYOCIG_clean_linker_4, # of connection points: 2
#     Edge 38, Type (0, 0), BuildingBlock: EYOCIG_clean_linker_4, # of connection points: 2
#     Edge 39, Type (0, 0), BuildingBlock: EYOCIG_clean_linker_4, # of connection points: 2
#     Edge 40, Type (0, 0), BuildingBlock: EYOCIG_clean_linker_4, # of connection points: 2
#     Edge 41, Type (0, 0), BuildingBlock: EYOCIG_clean_linker_4, # of connection points: 2
#     Edge 42, Type (0, 0), BuildingBlock: EYOCIG_clean_linker_4, # of connection points: 2
#     Edge 43, Type (0, 0), BuildingBlock: EYOCIG_clean_linker_4, # of connection points: 2
#     Edge 44, Type (0, 0), BuildingBlock: EYOCIG_clean_linker_4, # of connection points: 2
#     Edge 45, Type (0, 0), BuildingBlock: EYOCIG_clean_linker_4, # of connection points: 2
#     Edge 46, Type (0, 0), BuildingBlock: EYOCIG_clean_linker_4, # of connection points: 2
#     Edge 47, Type (0, 0), BuildingBlock: EYOCIG_clean_linker_4, # of connection points: 2
# Relax obj value: 0.052
# Max RMSD: 0.088
# Mean RMSD: 0.088
data_MOF--net-gis--node1-GALJAG_clean_sbu_0--edge1-EYOCIG_clean_linker_4
_symmetry_space_group_name_H-M    P1
_symmetry_Int_Tables_number       1
_symmetry_cell_setting            triclinic
loop_
_symmetry_equiv_pos_as_xyz
'x, y, z'
_cell_length_a     42.404221
_cell_length_b     42.420202
_cell_length_c     30.641506
_cell_angle_alpha  90.144463
_cell_angle_beta   90.143214
_cell_angle_gamma 89.998314
loop_
_atom_site_label
_atom_site_type_symbol
_atom_site_fract_x
_atom_site_fract_y
_atom_site_fract_z
_atom_type_partial_charge
In0 In 0.14093 0.60932 0.10524 0.0
O1 O 0.16008 0.59834 0.1734 0.0
O2 O 0.1931 0.60771 0.12271 0.0
C3 C 0.07832 0.60437 0.11764 0.0
C4 C 0.14627 0.67179 0.09204 0.0
C5 C 0.14938 0.56123 0.04907 0.0
O6 O 0.09791 0.59758 0.14723 0.0
O7 O 0.09007 0.61354 0.08217 0.0
O8 O 0.1523 0.5896 0.03752 0.0
O9 O 0.14254 0.55702 0.0886 0.0
C10 C 0.18856 0.60114 0.16225 0.0
O11 O 0.15325 0.65197 0.06285 0.0
O12 O 0.1367 0.66033 0.1275 0.0
In13 In 0.6416 0.89074 0.35469 0.0
O14 O 0.65399 0.84793 0.39686 0.0
O15 O 0.63722 0.83978 0.33216 0.0
C16 C 0.65003 0.93874 0.4111 0.0
C17 C 0.6891 0.89919 0.29785 0.0
C18 C 0.57895 0.8958 0.34226 0.0
O19 O 0.65315 0.91036 0.42251 0.0
O20 O 0.64304 0.94301 0.37159 0.0
O21 O 0.59845 0.90256 0.31268 0.0
O22 O 0.59081 0.88657 0.37772 0.0
C23 C 0.64687 0.8282 0.36757 0.0
O24 O 0.6606 0.90191 0.28662 0.0
O25 O 0.69374 0.89253 0.33738 0.0
In26 In 0.35942 0.39157 0.60549 0.0
O27 O 0.34811 0.41105 0.53766 0.0
O28 O 0.35767 0.44381 0.58888 0.0
C29 C 0.35392 0.32904 0.59267 0.0
C30 C 0.42207 0.39648 0.61795 0.0
C31 C 0.31186 0.39981 0.6623 0.0
O32 O 0.34685 0.34867 0.56335 0.0
O33 O 0.36369 0.34072 0.62803 0.0
O34 O 0.34035 0.4027 0.67359 0.0
O35 O 0.30728 0.39318 0.62271 0.0
C36 C 0.35093 0.43946 0.54927 0.0
O37 O 0.40259 0.40366 0.6474 0.0
O38 O 0.41019 0.38694 0.58259 0.0
In39 In 0.85913 0.10935 0.85562 0.0
O40 O 0.90203 0.09713 0.81353 0.0
O41 O 0.91004 0.11388 0.87829 0.0
C42 C 0.8111 0.10099 0.79924 0.0
C43 C 0.85115 0.06147 0.91188 0.0
C44 C 0.85376 0.17188 0.86852 0.0
O45 O 0.8395 0.09841 0.78762 0.0
O46 O 0.80683 0.10741 0.83894 0.0
O47 O 0.8468 0.15225 0.89784 0.0
O48 O 0.86334 0.1602 0.83312 0.0
C49 C 0.9217 0.10426 0.84292 0.0
O50 O 0.84839 0.08988 0.92353 0.0
O51 O 0.85756 0.05712 0.87221 0.0
In52 In 0.14182 0.39085 0.85542 0.0
O53 O 0.15434 0.34805 0.89746 0.0
O54 O 0.13738 0.33991 0.83284 0.0
C55 C 0.15 0.43857 0.91231 0.0
C56 C 0.18961 0.39915 0.79903 0.0
C57 C 0.07928 0.39626 0.84232 0.0
O58 O 0.15256 0.41012 0.92365 0.0
O59 O 0.1437 0.44304 0.87262 0.0
O60 O 0.09898 0.40346 0.81321 0.0
O61 O 0.09088 0.3864 0.87761 0.0
C62 C 0.14717 0.32833 0.86817 0.0
O63 O 0.16116 0.40159 0.78742 0.0
O64 O 0.19406 0.39287 0.83872 0.0
In65 In 0.85907 0.89121 0.10463 0.0
O66 O 0.8464 0.84823 0.06272 0.0
O67 O 0.86332 0.8404 0.12739 0.0
C68 C 0.85099 0.93891 0.04805 0.0
C69 C 0.81132 0.89978 0.16107 0.0
C70 C 0.9217 0.89629 0.11715 0.0
O71 O 0.84812 0.91047 0.03659 0.0
O72 O 0.85754 0.94338 0.08769 0.0
O73 O 0.90218 0.9036 0.14652 0.0
O74 O 0.90987 0.88647 0.08192 0.0
C75 C 0.85349 0.82866 0.09211 0.0
O76 O 0.83979 0.90231 0.17264 0.0
O77 O 0.80686 0.89334 0.12139 0.0
In78 In 0.35926 0.60903 0.35553 0.0
O79 O 0.34836 0.59021 0.42377 0.0
O80 O 0.35709 0.55695 0.37294 0.0
C81 C 0.35456 0.67172 0.36761 0.0
C82 C 0.42172 0.60315 0.34254 0.0
C83 C 0.31115 0.60081 0.29926 0.0
O84 O 0.34751 0.65235 0.39721 0.0
O85 O 0.36393 0.65971 0.33231 0.0
O86 O 0.33952 0.59772 0.28772 0.0
O87 O 0.30695 0.60766 0.33883 0.0
C88 C 0.35078 0.56168 0.41255 0.0
O89 O 0.40189 0.59602 0.31337 0.0
O90 O 0.41028 0.61315 0.37784 0.0
In91 In 0.641 0.10897 0.60497 0.0
O92 O 0.59793 0.0965 0.6465 0.0
O93 O 0.59015 0.11356 0.58197 0.0
C94 C 0.68853 0.10069 0.66215 0.0
C95 C 0.64959 0.0613 0.54811 0.0
C96 C 0.64645 0.17152 0.5926 0.0
O97 O 0.66003 0.09792 0.6732 0.0
O98 O 0.69314 0.10724 0.62262 0.0
O99 O 0.65364 0.15188 0.56327 0.0
O100 O 0.63658 0.15985 0.62776 0.0
C101 C 0.57837 0.10378 0.61711 0.0
O102 O 0.65223 0.08976 0.53689 0.0
O103 O 0.64297 0.05678 0.58764 0.0
In104 In 0.85985 0.39117 0.85516 0.0
O105 O 0.84905 0.41032 0.92336 0.0
O106 O 0.85785 0.44334 0.87249 0.0
C107 C 0.85426 0.32868 0.86798 0.0
C108 C 0.92241 0.39648 0.84243 0.0
C109 C 0.81224 0.39957 0.79819 0.0
O110 O 0.84711 0.34844 0.89715 0.0
O111 O 0.86415 0.34018 0.83273 0.0
O112 O 0.84073 0.40198 0.78694 0.0
O113 O 0.80768 0.39327 0.83781 0.0
C114 C 0.85151 0.43879 0.9121 0.0
O115 O 0.90268 0.40374 0.81324 0.0
O116 O 0.91082 0.38663 0.87765 0.0
In117 In 0.35876 0.1096 0.60462 0.0
O118 O 0.34645 0.1526 0.56287 0.0
O119 O 0.36315 0.16041 0.62771 0.0
C120 C 0.35043 0.0619 0.54775 0.0
C121 C 0.31094 0.10119 0.66093 0.0
C122 C 0.42137 0.10428 0.61722 0.0
O123 O 0.34764 0.09034 0.53648 0.0
O124 O 0.35704 0.05742 0.58735 0.0
O125 O 0.4018 0.09715 0.64655 0.0
O126 O 0.4096 0.11403 0.58198 0.0
C127 C 0.35352 0.17217 0.5924 0.0
O128 O 0.33938 0.09846 0.67249 0.0
O129 O 0.30653 0.10778 0.62134 0.0
In130 In 0.64112 0.6087 0.35531 0.0
O131 O 0.59823 0.59585 0.31327 0.0
O132 O 0.59021 0.61306 0.37774 0.0
C133 C 0.68871 0.6004 0.29854 0.0
C134 C 0.64956 0.56113 0.41207 0.0
C135 C 0.64637 0.6713 0.368 0.0
O136 O 0.66022 0.59779 0.28715 0.0
O137 O 0.69329 0.6068 0.3382 0.0
O138 O 0.65376 0.65172 0.39722 0.0
O139 O 0.63639 0.65955 0.3328 0.0
C140 C 0.57856 0.60307 0.34248 0.0
O141 O 0.65206 0.58962 0.42348 0.0
O142 O 0.64321 0.55655 0.3724 0.0
In143 In 0.14126 0.89121 0.10409 0.0
O144 O 0.09829 0.90358 0.14594 0.0
O145 O 0.09037 0.88691 0.08113 0.0
C146 C 0.18892 0.89963 0.16107 0.0
C147 C 0.14988 0.93877 0.04744 0.0
C148 C 0.1464 0.82862 0.09144 0.0
O149 O 0.16045 0.90259 0.1722 0.0
O150 O 0.19344 0.89279 0.12157 0.0
O151 O 0.15347 0.84817 0.06209 0.0
O152 O 0.13683 0.84039 0.12678 0.0
C153 C 0.07867 0.89652 0.11648 0.0
O154 O 0.15268 0.91029 0.03616 0.0
O155 O 0.14309 0.94335 0.08693 0.0
In156 In 0.85871 0.60935 0.10546 0.0
O157 O 0.83941 0.59826 0.17337 0.0
O158 O 0.8065 0.60735 0.12221 0.0
C159 C 0.92135 0.60454 0.11807 0.0
C160 C 0.85316 0.67183 0.09264 0.0
C161 C 0.85067 0.5613 0.04911 0.0
O162 O 0.90184 0.59761 0.14757 0.0
O163 O 0.9095 0.61383 0.08264 0.0
O164 O 0.84756 0.58967 0.03759 0.0
O165 O 0.85744 0.55708 0.0887 0.0
C166 C 0.81096 0.60084 0.16182 0.0
O167 O 0.84627 0.65209 0.06325 0.0
O168 O 0.86275 0.66029 0.1281 0.0
In169 In 0.14137 0.10904 0.85494 0.0
O170 O 0.09812 0.09691 0.8132 0.0
O171 O 0.09063 0.11355 0.87807 0.0
C172 C 0.18875 0.10084 0.79779 0.0
C173 C 0.14999 0.06112 0.91105 0.0
C174 C 0.14692 0.17153 0.86811 0.0
O175 O 0.16022 0.09816 0.78662 0.0
O176 O 0.19346 0.10726 0.83742 0.0
O177 O 0.15417 0.15181 0.89722 0.0
O178 O 0.13695 0.15997 0.83279 0.0
C179 C 0.07869 0.10401 0.84275 0.0
O180 O 0.15279 0.08953 0.9227 0.0
O181 O 0.14322 0.05679 0.87145 0.0
In182 In 0.64159 0.39101 0.60506 0.0
O183 O 0.59871 0.40307 0.64726 0.0
O184 O 0.59068 0.38657 0.58237 0.0
C185 C 0.68962 0.39958 0.66134 0.0
C186 C 0.64968 0.4388 0.54865 0.0
C187 C 0.64688 0.32842 0.59255 0.0
O188 O 0.66122 0.40245 0.67288 0.0
O189 O 0.69388 0.39276 0.62177 0.0
O190 O 0.65364 0.34795 0.56301 0.0
O191 O 0.63755 0.34023 0.62799 0.0
C192 C 0.57904 0.39604 0.61783 0.0
O193 O 0.65257 0.41037 0.53714 0.0
O194 O 0.64306 0.44321 0.58824 0.0
In195 In 0.35938 0.89126 0.35461 0.0
O196 O 0.34792 0.91079 0.42242 0.0
O197 O 0.35792 0.9435 0.37157 0.0
C198 C 0.35438 0.82869 0.36707 0.0
C199 C 0.42197 0.89629 0.34218 0.0
C200 C 0.31146 0.89962 0.29814 0.0
O201 O 0.34757 0.84828 0.39664 0.0
O202 O 0.36358 0.84042 0.3316 0.0
O203 O 0.33987 0.90268 0.28679 0.0
O204 O 0.30713 0.89269 0.33761 0.0
C205 C 0.35096 0.93919 0.41104 0.0
O206 O 0.40238 0.90309 0.3126 0.0
O207 O 0.41023 0.88709 0.37765 0.0
C208 C 0.14978 0.7668 0.08295 0.0
C209 C 0.14864 0.79515 0.08528 0.0
C210 C 0.14976 0.73352 0.08306 0.0
C211 C 0.14858 0.7052 0.08559 0.0
C212 C 0.48381 0.8994 0.33384 0.0
C213 C 0.45545 0.89837 0.33611 0.0
C214 C 0.5171 0.89927 0.33389 0.0
C215 C 0.54546 0.89806 0.33622 0.0
C216 C 0.35018 0.26725 0.58414 0.0
C217 C 0.35147 0.29559 0.58646 0.0
C218 C 0.35011 0.23397 0.58415 0.0
C219 C 0.35128 0.20563 0.58642 0.0
C220 C 0.01681 0.10077 0.83451 0.0
C221 C 0.04518 0.10186 0.8368 0.0
C222 C 0.98352 0.10081 0.83448 0.0
C223 C 0.95516 0.10198 0.83679 0.0
C224 C 0.15069 0.26658 0.87687 0.0
C225 C 0.14949 0.29491 0.87443 0.0
C226 C 0.15066 0.2333 0.87692 0.0
C227 C 0.14939 0.20496 0.87451 0.0
C228 C 0.98356 0.89983 0.12529 0.0
C229 C 0.95519 0.89863 0.12314 0.0
C230 C 0.01686 0.89988 0.12505 0.0
C231 C 0.0452 0.89873 0.1226 0.0
C232 C 0.35132 0.73359 0.37559 0.0
C233 C 0.35242 0.70523 0.37342 0.0
C234 C 0.35125 0.76687 0.3755 0.0
C235 C 0.3523 0.79522 0.37316 0.0
C236 C 0.51652 0.1005 0.62541 0.0
C237 C 0.54488 0.10161 0.62308 0.0
C238 C 0.48322 0.10061 0.62551 0.0
C239 C 0.45486 0.10187 0.62328 0.0
C240 C 0.85029 0.23367 0.87705 0.0
C241 C 0.85145 0.20532 0.87479 0.0
C242 C 0.85041 0.26695 0.87683 0.0
C243 C 0.85177 0.29527 0.87429 0.0
C244 C 0.65003 0.73312 0.37645 0.0
C245 C 0.64878 0.70477 0.37413 0.0
C246 C 0.65015 0.76641 0.37636 0.0
C247 C 0.64906 0.79476 0.3739 0.0
C248 C 0.8496 0.73358 0.0839 0.0
C249 C 0.85083 0.70525 0.08634 0.0
C250 C 0.84967 0.76686 0.08378 0.0
C251 C 0.851 0.7952 0.08603 0.0
C252 C 0.65027 0.26659 0.5842 0.0
C253 C 0.64912 0.29494 0.58645 0.0
C254 C 0.65018 0.23331 0.58426 0.0
C255 C 0.64888 0.20497 0.58657 0.0
C256 C 0.01748 0.39996 0.8336 0.0
C257 C 0.04583 0.3987 0.83598 0.0
C258 C 0.98419 0.39999 0.8337 0.0
C259 C 0.95585 0.3988 0.83617 0.0
C260 C 0.51677 0.59926 0.3338 0.0
C261 C 0.54511 0.60058 0.3362 0.0
C262 C 0.48347 0.59926 0.33378 0.0
C263 C 0.45514 0.6006 0.33618 0.0
C264 C 0.51723 0.39946 0.62638 0.0
C265 C 0.54558 0.3983 0.62401 0.0
C266 C 0.48394 0.39956 0.62637 0.0
C267 C 0.45557 0.39855 0.62403 0.0
C268 C 0.0165 0.60122 0.12617 0.0
C269 C 0.04485 0.60229 0.12374 0.0
C270 C 0.98321 0.60125 0.12634 0.0
C271 C 0.95484 0.60236 0.12412 0.0
C272 C 0.15416 0.51301 -0.00506 0.0
C273 C 0.1521 0.53542 0.01901 0.0
C274 C 0.1543 0.48653 0.96698 0.0
C275 C 0.15246 0.4642 0.94273 0.0
C276 C 0.7369 0.90405 0.2433 0.0
C277 C 0.71463 0.90197 0.26748 0.0
C278 C 0.76331 0.9042 0.21537 0.0
C279 C 0.78566 0.90231 0.19128 0.0
C280 C 0.34625 0.48754 0.49516 0.0
C281 C 0.34826 0.46518 0.51919 0.0
C282 C 0.34621 0.51396 0.46725 0.0
C283 C 0.34816 0.53621 0.44303 0.0
C284 C 0.73638 0.09632 0.71703 0.0
C285 C 0.71407 0.09817 0.69273 0.0
C286 C 0.76286 0.09641 0.74501 0.0
C287 C 0.78528 0.09838 0.76911 0.0
C288 C 0.84672 0.48667 0.9668 0.0
C289 C 0.84878 0.46438 0.94252 0.0
C290 C 0.84652 0.51311 -0.00519 0.0
C291 C 0.84828 0.53552 0.01894 0.0
C292 C 0.23647 0.09648 0.74301 0.0
C293 C 0.21422 0.09833 0.76727 0.0
C294 C 0.26289 0.09656 0.71509 0.0
C295 C 0.28524 0.09855 0.69105 0.0
C296 C 0.65408 0.51327 0.46658 0.0
C297 C 0.65215 0.53556 0.44242 0.0
C298 C 0.6541 0.48683 0.49445 0.0
C299 C 0.65221 0.46448 0.5185 0.0
C300 C 0.26332 0.90423 0.24379 0.0
C301 C 0.28572 0.90227 0.26791 0.0
C302 C 0.23684 0.90424 0.21581 0.0
C303 C 0.21451 0.90228 0.19155 0.0
C304 C 0.6544 0.01337 0.49345 0.0
C305 C 0.65234 0.03569 0.51769 0.0
C306 C 0.65451 0.9869 0.46544 0.0
C307 C 0.6526 0.9645 0.44131 0.0
C308 C 0.26403 0.40402 0.71689 0.0
C309 C 0.28631 0.40224 0.6927 0.0
C310 C 0.23762 0.40385 0.74481 0.0
C311 C 0.2153 0.40182 0.7689 0.0
C312 C 0.8468 0.01335 0.96593 0.0
C313 C 0.84866 0.03573 0.94193 0.0
C314 C 0.84675 0.98688 -0.00629 0.0
C315 C 0.84855 0.96454 0.0178 0.0
C316 C 0.23645 0.59656 0.217 0.0
C317 C 0.21414 0.59851 0.19272 0.0
C318 C 0.26292 0.59648 0.24501 0.0
C319 C 0.28534 0.59833 0.26912 0.0
C320 C 0.34606 0.01389 0.49316 0.0
C321 C 0.34791 0.03626 0.51734 0.0
C322 C 0.34619 0.98736 0.46527 0.0
C323 C 0.34823 0.96494 0.44122 0.0
C324 C 0.76296 0.59609 0.21604 0.0
C325 C 0.78529 0.59813 0.19196 0.0
C326 C 0.73655 0.59599 0.24397 0.0
C327 C 0.71428 0.59787 0.26817 0.0
C328 C 0.15467 0.9866 -0.00702 0.0
C329 C 0.15263 0.96431 0.01712 0.0
C330 C 0.1547 0.01303 0.96511 0.0
C331 C 0.15268 0.03539 0.9411 0.0
C332 C 0.73784 0.40423 0.71554 0.0
C333 C 0.71541 0.40224 0.69147 0.0
C334 C 0.76433 0.40422 0.74349 0.0
C335 C 0.78665 0.40223 0.76774 0.0
loop_
_geom_bond_atom_site_label_1
_geom_bond_atom_site_label_2
_geom_bond_distance
_geom_bond_site_symmetry_2
_ccdc_geom_bond_type
In0 O1 2.294 . S
In0 O2 2.326 . S
In0 O6 2.266 . S
In0 O7 2.326 . S
In0 O8 2.266 . S
In0 O9 2.326 . S
In0 O11 2.294 . S
In0 O12 2.326 . S
O1 In0 2.294 . S
O1 C10 1.240 . S
O2 In0 2.326 . S
O2 C10 1.252 . S
C3 O6 1.252 . S
C3 O7 1.260 . S
C4 O11 1.240 . S
C4 O12 1.252 . S
C5 O8 1.252 . S
C5 O9 1.260 . S
O6 In0 2.266 . S
O6 C3 1.252 . S
O7 In0 2.326 . S
O7 C3 1.260 . S
O8 In0 2.266 . S
O8 C5 1.252 . S
O9 In0 2.326 . S
O9 C5 1.260 . S
C10 O1 1.240 . S
C10 O2 1.252 . S
O11 In0 2.294 . S
O11 C4 1.240 . S
O12 In0 2.326 . S
O12 C4 1.252 . S
In13 O14 2.294 . S
In13 O15 2.326 . S
In13 O19 2.266 . S
In13 O20 2.326 . S
In13 O21 2.266 . S
In13 O22 2.326 . S
In13 O24 2.294 . S
In13 O25 2.326 . S
O14 In13 2.294 . S
O14 C23 1.240 . S
O15 In13 2.326 . S
O15 C23 1.252 . S
C16 O19 1.252 . S
C16 O20 1.260 . S
C17 O24 1.240 . S
C17 O25 1.252 . S
C18 O21 1.252 . S
C18 O22 1.260 . S
O19 In13 2.266 . S
O19 C16 1.252 . S
O20 In13 2.326 . S
O20 C16 1.260 . S
O21 In13 2.266 . S
O21 C18 1.252 . S
O22 In13 2.326 . S
O22 C18 1.260 . S
C23 O14 1.240 . S
C23 O15 1.252 . S
O24 In13 2.294 . S
O24 C17 1.240 . S
O25 In13 2.326 . S
O25 C17 1.252 . S
In26 O27 2.294 . S
In26 O28 2.326 . S
In26 O32 2.266 . S
In26 O33 2.326 . S
In26 O34 2.266 . S
In26 O35 2.326 . S
In26 O37 2.294 . S
In26 O38 2.326 . S
O27 In26 2.294 . S
O27 C36 1.240 . S
O28 In26 2.326 . S
O28 C36 1.252 . S
C29 O32 1.252 . S
C29 O33 1.260 . S
C30 O37 1.240 . S
C30 O38 1.252 . S
C31 O34 1.252 . S
C31 O35 1.260 . S
O32 In26 2.266 . S
O32 C29 1.252 . S
O33 In26 2.326 . S
O33 C29 1.260 . S
O34 In26 2.266 . S
O34 C31 1.252 . S
O35 In26 2.326 . S
O35 C31 1.260 . S
C36 O27 1.240 . S
C36 O28 1.252 . S
O37 In26 2.294 . S
O37 C30 1.240 . S
O38 In26 2.326 . S
O38 C30 1.252 . S
In39 O40 2.294 . S
In39 O41 2.326 . S
In39 O45 2.266 . S
In39 O46 2.326 . S
In39 O47 2.266 . S
In39 O48 2.326 . S
In39 O50 2.294 . S
In39 O51 2.326 . S
O40 In39 2.294 . S
O40 C49 1.240 . S
O41 In39 2.326 . S
O41 C49 1.252 . S
C42 O45 1.252 . S
C42 O46 1.260 . S
C43 O50 1.240 . S
C43 O51 1.252 . S
C44 O47 1.252 . S
C44 O48 1.260 . S
O45 In39 2.266 . S
O45 C42 1.252 . S
O46 In39 2.326 . S
O46 C42 1.260 . S
O47 In39 2.266 . S
O47 C44 1.252 . S
O48 In39 2.326 . S
O48 C44 1.260 . S
C49 O40 1.240 . S
C49 O41 1.252 . S
O50 In39 2.294 . S
O50 C43 1.240 . S
O51 In39 2.326 . S
O51 C43 1.252 . S
In52 O53 2.294 . S
In52 O54 2.326 . S
In52 O58 2.266 . S
In52 O59 2.326 . S
In52 O60 2.266 . S
In52 O61 2.326 . S
In52 O63 2.294 . S
In52 O64 2.326 . S
O53 In52 2.294 . S
O53 C62 1.240 . S
O54 In52 2.326 . S
O54 C62 1.252 . S
C55 O58 1.252 . S
C55 O59 1.260 . S
C56 O63 1.240 . S
C56 O64 1.252 . S
C57 O60 1.252 . S
C57 O61 1.260 . S
O58 In52 2.266 . S
O58 C55 1.252 . S
O59 In52 2.326 . S
O59 C55 1.260 . S
O60 In52 2.266 . S
O60 C57 1.252 . S
O61 In52 2.326 . S
O61 C57 1.260 . S
C62 O53 1.240 . S
C62 O54 1.252 . S
O63 In52 2.294 . S
O63 C56 1.240 . S
O64 In52 2.326 . S
O64 C56 1.252 . S
In65 O66 2.294 . S
In65 O67 2.326 . S
In65 O71 2.266 . S
In65 O72 2.326 . S
In65 O73 2.266 . S
In65 O74 2.326 . S
In65 O76 2.294 . S
In65 O77 2.326 . S
O66 In65 2.294 . S
O66 C75 1.240 . S
O67 In65 2.326 . S
O67 C75 1.252 . S
C68 O71 1.252 . S
C68 O72 1.260 . S
C69 O76 1.240 . S
C69 O77 1.252 . S
C70 O73 1.252 . S
C70 O74 1.260 . S
O71 In65 2.266 . S
O71 C68 1.252 . S
O72 In65 2.326 . S
O72 C68 1.260 . S
O73 In65 2.266 . S
O73 C70 1.252 . S
O74 In65 2.326 . S
O74 C70 1.260 . S
C75 O66 1.240 . S
C75 O67 1.252 . S
O76 In65 2.294 . S
O76 C69 1.240 . S
O77 In65 2.326 . S
O77 C69 1.252 . S
In78 O79 2.294 . S
In78 O80 2.326 . S
In78 O84 2.266 . S
In78 O85 2.326 . S
In78 O86 2.266 . S
In78 O87 2.326 . S
In78 O89 2.294 . S
In78 O90 2.326 . S
O79 In78 2.294 . S
O79 C88 1.240 . S
O80 In78 2.326 . S
O80 C88 1.252 . S
C81 O84 1.252 . S
C81 O85 1.260 . S
C82 O89 1.240 . S
C82 O90 1.252 . S
C83 O86 1.252 . S
C83 O87 1.260 . S
O84 In78 2.266 . S
O84 C81 1.252 . S
O85 In78 2.326 . S
O85 C81 1.260 . S
O86 In78 2.266 . S
O86 C83 1.252 . S
O87 In78 2.326 . S
O87 C83 1.260 . S
C88 O79 1.240 . S
C88 O80 1.252 . S
O89 In78 2.294 . S
O89 C82 1.240 . S
O90 In78 2.326 . S
O90 C82 1.252 . S
In91 O92 2.294 . S
In91 O93 2.326 . S
In91 O97 2.266 . S
In91 O98 2.326 . S
In91 O99 2.266 . S
In91 O100 2.326 . S
In91 O102 2.294 . S
In91 O103 2.326 . S
O92 In91 2.294 . S
O92 C101 1.240 . S
O93 In91 2.326 . S
O93 C101 1.252 . S
C94 O97 1.252 . S
C94 O98 1.260 . S
C95 O102 1.240 . S
C95 O103 1.252 . S
C96 O99 1.252 . S
C96 O100 1.260 . S
O97 In91 2.266 . S
O97 C94 1.252 . S
O98 In91 2.326 . S
O98 C94 1.260 . S
O99 In91 2.266 . S
O99 C96 1.252 . S
O100 In91 2.326 . S
O100 C96 1.260 . S
C101 O92 1.240 . S
C101 O93 1.252 . S
O102 In91 2.294 . S
O102 C95 1.240 . S
O103 In91 2.326 . S
O103 C95 1.252 . S
In104 O105 2.294 . S
In104 O106 2.326 . S
In104 O110 2.266 . S
In104 O111 2.326 . S
In104 O112 2.266 . S
In104 O113 2.326 . S
In104 O115 2.294 . S
In104 O116 2.326 . S
O105 In104 2.294 . S
O105 C114 1.240 . S
O106 In104 2.326 . S
O106 C114 1.252 . S
C107 O110 1.252 . S
C107 O111 1.260 . S
C108 O115 1.240 . S
C108 O116 1.252 . S
C109 O112 1.252 . S
C109 O113 1.260 . S
O110 In104 2.266 . S
O110 C107 1.252 . S
O111 In104 2.326 . S
O111 C107 1.260 . S
O112 In104 2.266 . S
O112 C109 1.252 . S
O113 In104 2.326 . S
O113 C109 1.260 . S
C114 O105 1.240 . S
C114 O106 1.252 . S
O115 In104 2.294 . S
O115 C108 1.240 . S
O116 In104 2.326 . S
O116 C108 1.252 . S
In117 O118 2.294 . S
In117 O119 2.326 . S
In117 O123 2.266 . S
In117 O124 2.326 . S
In117 O125 2.266 . S
In117 O126 2.326 . S
In117 O128 2.294 . S
In117 O129 2.326 . S
O118 In117 2.294 . S
O118 C127 1.240 . S
O119 In117 2.326 . S
O119 C127 1.252 . S
C120 O123 1.252 . S
C120 O124 1.260 . S
C121 O128 1.240 . S
C121 O129 1.252 . S
C122 O125 1.252 . S
C122 O126 1.260 . S
O123 In117 2.266 . S
O123 C120 1.252 . S
O124 In117 2.326 . S
O124 C120 1.260 . S
O125 In117 2.266 . S
O125 C122 1.252 . S
O126 In117 2.326 . S
O126 C122 1.260 . S
C127 O118 1.240 . S
C127 O119 1.252 . S
O128 In117 2.294 . S
O128 C121 1.240 . S
O129 In117 2.326 . S
O129 C121 1.252 . S
In130 O131 2.294 . S
In130 O132 2.326 . S
In130 O136 2.266 . S
In130 O137 2.326 . S
In130 O138 2.266 . S
In130 O139 2.326 . S
In130 O141 2.294 . S
In130 O142 2.326 . S
O131 In130 2.294 . S
O131 C140 1.240 . S
O132 In130 2.326 . S
O132 C140 1.252 . S
C133 O136 1.252 . S
C133 O137 1.260 . S
C134 O141 1.240 . S
C134 O142 1.252 . S
C135 O138 1.252 . S
C135 O139 1.260 . S
O136 In130 2.266 . S
O136 C133 1.252 . S
O137 In130 2.326 . S
O137 C133 1.260 . S
O138 In130 2.266 . S
O138 C135 1.252 . S
O139 In130 2.326 . S
O139 C135 1.260 . S
C140 O131 1.240 . S
C140 O132 1.252 . S
O141 In130 2.294 . S
O141 C134 1.240 . S
O142 In130 2.326 . S
O142 C134 1.252 . S
In143 O144 2.294 . S
In143 O145 2.326 . S
In143 O149 2.266 . S
In143 O150 2.326 . S
In143 O151 2.266 . S
In143 O152 2.326 . S
In143 O154 2.294 . S
In143 O155 2.326 . S
O144 In143 2.294 . S
O144 C153 1.240 . S
O145 In143 2.326 . S
O145 C153 1.252 . S
C146 O149 1.252 . S
C146 O150 1.260 . S
C147 O154 1.240 . S
C147 O155 1.252 . S
C148 O151 1.252 . S
C148 O152 1.260 . S
O149 In143 2.266 . S
O149 C146 1.252 . S
O150 In143 2.326 . S
O150 C146 1.260 . S
O151 In143 2.266 . S
O151 C148 1.252 . S
O152 In143 2.326 . S
O152 C148 1.260 . S
C153 O144 1.240 . S
C153 O145 1.252 . S
O154 In143 2.294 . S
O154 C147 1.240 . S
O155 In143 2.326 . S
O155 C147 1.252 . S
In156 O157 2.294 . S
In156 O158 2.326 . S
In156 O162 2.266 . S
In156 O163 2.326 . S
In156 O164 2.266 . S
In156 O165 2.326 . S
In156 O167 2.294 . S
In156 O168 2.326 . S
O157 In156 2.294 . S
O157 C166 1.240 . S
O158 In156 2.326 . S
O158 C166 1.252 . S
C159 O162 1.252 . S
C159 O163 1.260 . S
C160 O167 1.240 . S
C160 O168 1.252 . S
C161 O164 1.252 . S
C161 O165 1.260 . S
O162 In156 2.266 . S
O162 C159 1.252 . S
O163 In156 2.326 . S
O163 C159 1.260 . S
O164 In156 2.266 . S
O164 C161 1.252 . S
O165 In156 2.326 . S
O165 C161 1.260 . S
C166 O157 1.240 . S
C166 O158 1.252 . S
O167 In156 2.294 . S
O167 C160 1.240 . S
O168 In156 2.326 . S
O168 C160 1.252 . S
In169 O170 2.294 . S
In169 O171 2.326 . S
In169 O175 2.266 . S
In169 O176 2.326 . S
In169 O177 2.266 . S
In169 O178 2.326 . S
In169 O180 2.294 . S
In169 O181 2.326 . S
O170 In169 2.294 . S
O170 C179 1.240 . S
O171 In169 2.326 . S
O171 C179 1.252 . S
C172 O175 1.252 . S
C172 O176 1.260 . S
C173 O180 1.240 . S
C173 O181 1.252 . S
C174 O177 1.252 . S
C174 O178 1.260 . S
O175 In169 2.266 . S
O175 C172 1.252 . S
O176 In169 2.326 . S
O176 C172 1.260 . S
O177 In169 2.266 . S
O177 C174 1.252 . S
O178 In169 2.326 . S
O178 C174 1.260 . S
C179 O170 1.240 . S
C179 O171 1.252 . S
O180 In169 2.294 . S
O180 C173 1.240 . S
O181 In169 2.326 . S
O181 C173 1.252 . S
In182 O183 2.294 . S
In182 O184 2.326 . S
In182 O188 2.266 . S
In182 O189 2.326 . S
In182 O190 2.266 . S
In182 O191 2.326 . S
In182 O193 2.294 . S
In182 O194 2.326 . S
O183 In182 2.294 . S
O183 C192 1.240 . S
O184 In182 2.326 . S
O184 C192 1.252 . S
C185 O188 1.252 . S
C185 O189 1.260 . S
C186 O193 1.240 . S
C186 O194 1.252 . S
C187 O190 1.252 . S
C187 O191 1.260 . S
O188 In182 2.266 . S
O188 C185 1.252 . S
O189 In182 2.326 . S
O189 C185 1.260 . S
O190 In182 2.266 . S
O190 C187 1.252 . S
O191 In182 2.326 . S
O191 C187 1.260 . S
C192 O183 1.240 . S
C192 O184 1.252 . S
O193 In182 2.294 . S
O193 C186 1.240 . S
O194 In182 2.326 . S
O194 C186 1.252 . S
In195 O196 2.294 . S
In195 O197 2.326 . S
In195 O201 2.266 . S
In195 O202 2.326 . S
In195 O203 2.266 . S
In195 O204 2.326 . S
In195 O206 2.294 . S
In195 O207 2.326 . S
O196 In195 2.294 . S
O196 C205 1.240 . S
O197 In195 2.326 . S
O197 C205 1.252 . S
C198 O201 1.252 . S
C198 O202 1.260 . S
C199 O206 1.240 . S
C199 O207 1.252 . S
C200 O203 1.252 . S
C200 O204 1.260 . S
O201 In195 2.266 . S
O201 C198 1.252 . S
O202 In195 2.326 . S
O202 C198 1.260 . S
O203 In195 2.266 . S
O203 C200 1.252 . S
O204 In195 2.326 . S
O204 C200 1.260 . S
C205 O196 1.240 . S
C205 O197 1.252 . S
O206 In195 2.294 . S
O206 C199 1.240 . S
O207 In195 2.326 . S
O207 C199 1.252 . S
C208 C209 1.170 . S
C208 C210 1.380 . S
C209 C208 1.170 . S
C210 C208 1.380 . S
C210 C211 1.170 . S
C211 C210 1.170 . S
C212 C213 1.170 . S
C212 C214 1.380 . S
C213 C212 1.170 . S
C214 C212 1.380 . S
C214 C215 1.170 . S
C215 C214 1.170 . S
C216 C217 1.170 . S
C216 C218 1.380 . S
C217 C216 1.170 . S
C218 C216 1.380 . S
C218 C219 1.170 . S
C219 C218 1.170 . S
C220 C221 1.170 . S
C220 C222 1.380 1_455 S
C221 C220 1.170 . S
C222 C220 1.380 1_655 S
C222 C223 1.170 . S
C223 C222 1.170 . S
C224 C225 1.170 . S
C224 C226 1.380 . S
C225 C224 1.170 . S
C226 C224 1.380 . S
C226 C227 1.170 . S
C227 C226 1.170 . S
C228 C229 1.170 . S
C228 C230 1.380 1_655 S
C229 C228 1.170 . S
C230 C228 1.380 1_455 S
C230 C231 1.170 . S
C231 C230 1.170 . S
C232 C233 1.170 . S
C232 C234 1.380 . S
C233 C232 1.170 . S
C234 C232 1.380 . S
C234 C235 1.170 . S
C235 C234 1.170 . S
C236 C237 1.170 . S
C236 C238 1.380 . S
C237 C236 1.170 . S
C238 C236 1.380 . S
C238 C239 1.170 . S
C239 C238 1.170 . S
C240 C241 1.170 . S
C240 C242 1.380 . S
C241 C240 1.170 . S
C242 C240 1.380 . S
C242 C243 1.170 . S
C243 C242 1.170 . S
C244 C245 1.170 . S
C244 C246 1.380 . S
C245 C244 1.170 . S
C246 C244 1.380 . S
C246 C247 1.170 . S
C247 C246 1.170 . S
C248 C249 1.170 . S
C248 C250 1.380 . S
C249 C248 1.170 . S
C250 C248 1.380 . S
C250 C251 1.170 . S
C251 C250 1.170 . S
C252 C253 1.170 . S
C252 C254 1.380 . S
C253 C252 1.170 . S
C254 C252 1.380 . S
C254 C255 1.170 . S
C255 C254 1.170 . S
C256 C257 1.170 . S
C256 C258 1.380 1_455 S
C257 C256 1.170 . S
C258 C256 1.380 1_655 S
C258 C259 1.170 . S
C259 C258 1.170 . S
C260 C261 1.170 . S
C260 C262 1.380 . S
C261 C260 1.170 . S
C262 C260 1.380 . S
C262 C263 1.170 . S
C263 C262 1.170 . S
C264 C265 1.170 . S
C264 C266 1.380 . S
C265 C264 1.170 . S
C266 C264 1.380 . S
C266 C267 1.170 . S
C267 C266 1.170 . S
C268 C269 1.170 . S
C268 C270 1.380 1_455 S
C269 C268 1.170 . S
C270 C268 1.380 1_655 S
C270 C271 1.170 . S
C271 C270 1.170 . S
C272 C273 1.170 . S
C272 C274 1.380 1_554 S
C273 C272 1.170 . S
C274 C272 1.380 1_556 S
C274 C275 1.170 . S
C275 C274 1.170 . S
C276 C277 1.170 . S
C276 C278 1.380 . S
C277 C276 1.170 . S
C278 C276 1.380 . S
C278 C279 1.170 . S
C279 C278 1.170 . S
C280 C281 1.170 . S
C280 C282 1.380 . S
C281 C280 1.170 . S
C282 C280 1.380 . S
C282 C283 1.170 . S
C283 C282 1.170 . S
C284 C285 1.170 . S
C284 C286 1.380 . S
C285 C284 1.170 . S
C286 C284 1.380 . S
C286 C287 1.170 . S
C287 C286 1.170 . S
C288 C289 1.170 . S
C288 C290 1.380 1_556 S
C289 C288 1.170 . S
C290 C288 1.380 1_554 S
C290 C291 1.170 . S
C291 C290 1.170 . S
C292 C293 1.170 . S
C292 C294 1.380 . S
C293 C292 1.170 . S
C294 C292 1.380 . S
C294 C295 1.170 . S
C295 C294 1.170 . S
C296 C297 1.170 . S
C296 C298 1.380 . S
C297 C296 1.170 . S
C298 C296 1.380 . S
C298 C299 1.170 . S
C299 C298 1.170 . S
C300 C301 1.170 . S
C300 C302 1.380 . S
C301 C300 1.170 . S
C302 C300 1.380 . S
C302 C303 1.170 . S
C303 C302 1.170 . S
C304 C305 1.170 . S
C304 C306 1.380 1_545 S
C305 C304 1.170 . S
C306 C304 1.380 1_565 S
C306 C307 1.170 . S
C307 C306 1.170 . S
C308 C309 1.170 . S
C308 C310 1.380 . S
C309 C308 1.170 . S
C310 C308 1.380 . S
C310 C311 1.170 . S
C311 C310 1.170 . S
C312 C313 1.170 . S
C312 C314 1.380 1_546 S
C313 C312 1.170 . S
C314 C312 1.380 1_564 S
C314 C315 1.170 . S
C315 C314 1.170 . S
C316 C317 1.170 . S
C316 C318 1.380 . S
C317 C316 1.170 . S
C318 C316 1.380 . S
C318 C319 1.170 . S
C319 C318 1.170 . S
C320 C321 1.170 . S
C320 C322 1.380 1_545 S
C321 C320 1.170 . S
C322 C320 1.380 1_565 S
C322 C323 1.170 . S
C323 C322 1.170 . S
C324 C325 1.170 . S
C324 C326 1.380 . S
C325 C324 1.170 . S
C326 C324 1.380 . S
C326 C327 1.170 . S
C327 C326 1.170 . S
C328 C329 1.170 . S
C328 C330 1.380 1_564 S
C329 C328 1.170 . S
C330 C328 1.380 1_546 S
C330 C331 1.170 . S
C331 C330 1.170 . S
C332 C333 1.170 . S
C332 C334 1.380 . S
C333 C332 1.170 . S
C334 C332 1.380 . S
C334 C335 1.170 . S
C335 C334 1.170 . S
C209 C148 1.481 . S
C211 C4 1.483 . S
C213 C199 1.487 . S
C215 C18 1.481 . S
C217 C29 1.485 . S
C219 C127 1.484 . S
C221 C179 1.477 . S
C223 C49 1.479 . S
C225 C62 1.492 . S
C227 C174 1.490 . S
C229 C70 1.486 . S
C231 C153 1.487 . S
C233 C81 1.487 . S
C235 C198 1.486 . S
C237 C101 1.489 . S
C239 C122 1.483 . S
C241 C44 1.495 . S
C243 C107 1.495 . S
C245 C135 1.488 . S
C247 C23 1.488 . S
C249 C160 1.481 . S
C251 C75 1.484 . S
C253 C187 1.486 . S
C255 C96 1.490 . S
C257 C57 1.490 . S
C259 C108 1.488 . S
C261 C140 1.487 . S
C263 C82 1.490 . S
C265 C192 1.484 . S
C267 C30 1.481 . S
C269 C3 1.487 . S
C271 C159 1.489 . S
C273 C5 1.420 . S
C275 C55 1.426 . S
C277 C17 1.412 . S
C279 C69 1.407 . S
C281 C36 1.413 . S
C283 C88 1.417 . S
C285 C94 1.419 . S
C287 C42 1.413 . S
C289 C114 1.413 . S
C291 C161 1.411 . S
C293 C172 1.412 . S
C295 C121 1.408 . S
C297 C134 1.414 . S
C299 C186 1.413 . S
C301 C200 1.424 . S
C303 C146 1.426 . S
C305 C95 1.419 . S
C307 C16 1.415 . S
C309 C31 1.416 . S
C311 C56 1.409 . S
C313 C43 1.414 . S
C315 C68 1.418 . S
C317 C10 1.414 . S
C319 C83 1.407 . S
C321 C120 1.422 . S
C323 C205 1.420 . S
C325 C166 1.420 . S
C327 C133 1.422 . S
C329 C147 1.412 . S
C331 C173 1.412 . S
C333 C185 1.417 . S
C335 C109 1.419 . S
