# Generated by pormake.
# Topology zfe, (5)-cn, num edge types: 1
# Building blocks:
#     Node 0, Type 0, BuildingBlock: BEQFEK_clean_sbu_0, # of connection points: 5
#     Node 1, Type 0, BuildingBlock: BEQFEK_clean_sbu_0, # of connection points: 5
#     Node 2, Type 0, BuildingBlock: BEQFEK_clean_sbu_0, # of connection points: 5
#     Node 3, Type 0, BuildingBlock: BEQFEK_clean_sbu_0, # of connection points: 5
#     Node 4, Type 0, BuildingBlock: BEQFEK_clean_sbu_0, # of connection points: 5
#     Node 5, Type 0, BuildingBlock: BEQFEK_clean_sbu_0, # of connection points: 5
#     Node 6, Type 0, BuildingBlock: BEQFEK_clean_sbu_0, # of connection points: 5
#     Node 7, Type 0, BuildingBlock: BEQFEK_clean_sbu_0, # of connection points: 5
#     Node 8, Type 0, BuildingBlock: BEQFEK_clean_sbu_0, # of connection points: 5
#     Node 9, Type 0, BuildingBlock: BEQFEK_clean_sbu_0, # of connection points: 5
#     Node 10, Type 0, BuildingBlock: BEQFEK_clean_sbu_0, # of connection points: 5
#     Node 11, Type 0, BuildingBlock: BEQFEK_clean_sbu_0, # of connection points: 5
#     Node 12, Type 0, BuildingBlock: BEQFEK_clean_sbu_0, # of connection points: 5
#     Node 13, Type 0, BuildingBlock: BEQFEK_clean_sbu_0, # of connection points: 5
#     Node 14, Type 0, BuildingBlock: BEQFEK_clean_sbu_0, # of connection points: 5
#     Node 15, Type 0, BuildingBlock: BEQFEK_clean_sbu_0, # of connection points: 5
#     Edge 16, Type (0, 0), BuildingBlock: AJUNOK_clean_linker_0, # of connection points: 2
#     Edge 17, Type (0, 0), BuildingBlock: AJUNOK_clean_linker_0, # of connection points: 2
#     Edge 18, Type (0, 0), BuildingBlock: AJUNOK_clean_linker_0, # of connection points: 2
#     Edge 19, Type (0, 0), BuildingBlock: AJUNOK_clean_linker_0, # of connection points: 2
#     Edge 20, Type (0, 0), BuildingBlock: AJUNOK_clean_linker_0, # of connection points: 2
#     Edge 21, Type (0, 0), BuildingBlock: AJUNOK_clean_linker_0, # of connection points: 2
#     Edge 22, Type (0, 0), BuildingBlock: AJUNOK_clean_linker_0, # of connection points: 2
#     Edge 23, Type (0, 0), BuildingBlock: AJUNOK_clean_linker_0, # of connection points: 2
#     Edge 24, Type (0, 0), BuildingBlock: AJUNOK_clean_linker_0, # of connection points: 2
#     Edge 25, Type (0, 0), BuildingBlock: AJUNOK_clean_linker_0, # of connection points: 2
#     Edge 26, Type (0, 0), BuildingBlock: AJUNOK_clean_linker_0, # of connection points: 2
#     Edge 27, Type (0, 0), BuildingBlock: AJUNOK_clean_linker_0, # of connection points: 2
#     Edge 28, Type (0, 0), BuildingBlock: AJUNOK_clean_linker_0, # of connection points: 2
#     Edge 29, Type (0, 0), BuildingBlock: AJUNOK_clean_linker_0, # of connection points: 2
#     Edge 30, Type (0, 0), BuildingBlock: AJUNOK_clean_linker_0, # of connection points: 2
#     Edge 31, Type (0, 0), BuildingBlock: AJUNOK_clean_linker_0, # of connection points: 2
#     Edge 32, Type (0, 0), BuildingBlock: AJUNOK_clean_linker_0, # of connection points: 2
#     Edge 33, Type (0, 0), BuildingBlock: AJUNOK_clean_linker_0, # of connection points: 2
#     Edge 34, Type (0, 0), BuildingBlock: AJUNOK_clean_linker_0, # of connection points: 2
#     Edge 35, Type (0, 0), BuildingBlock: AJUNOK_clean_linker_0, # of connection points: 2
#     Edge 36, Type (0, 0), BuildingBlock: AJUNOK_clean_linker_0, # of connection points: 2
#     Edge 37, Type (0, 0), BuildingBlock: AJUNOK_clean_linker_0, # of connection points: 2
#     Edge 38, Type (0, 0), BuildingBlock: AJUNOK_clean_linker_0, # of connection points: 2
#     Edge 39, Type (0, 0), BuildingBlock: AJUNOK_clean_linker_0, # of connection points: 2
#     Edge 40, Type (0, 0), BuildingBlock: AJUNOK_clean_linker_0, # of connection points: 2
#     Edge 41, Type (0, 0), BuildingBlock: AJUNOK_clean_linker_0, # of connection points: 2
#     Edge 42, Type (0, 0), BuildingBlock: AJUNOK_clean_linker_0, # of connection points: 2
#     Edge 43, Type (0, 0), BuildingBlock: AJUNOK_clean_linker_0, # of connection points: 2
#     Edge 44, Type (0, 0), BuildingBlock: AJUNOK_clean_linker_0, # of connection points: 2
#     Edge 45, Type (0, 0), BuildingBlock: AJUNOK_clean_linker_0, # of connection points: 2
#     Edge 46, Type (0, 0), BuildingBlock: AJUNOK_clean_linker_0, # of connection points: 2
#     Edge 47, Type (0, 0), BuildingBlock: AJUNOK_clean_linker_0, # of connection points: 2
#     Edge 48, Type (0, 0), BuildingBlock: AJUNOK_clean_linker_0, # of connection points: 2
#     Edge 49, Type (0, 0), BuildingBlock: AJUNOK_clean_linker_0, # of connection points: 2
#     Edge 50, Type (0, 0), BuildingBlock: AJUNOK_clean_linker_0, # of connection points: 2
#     Edge 51, Type (0, 0), BuildingBlock: AJUNOK_clean_linker_0, # of connection points: 2
#     Edge 52, Type (0, 0), BuildingBlock: AJUNOK_clean_linker_0, # of connection points: 2
#     Edge 53, Type (0, 0), BuildingBlock: AJUNOK_clean_linker_0, # of connection points: 2
#     Edge 54, Type (0, 0), BuildingBlock: AJUNOK_clean_linker_0, # of connection points: 2
#     Edge 55, Type (0, 0), BuildingBlock: AJUNOK_clean_linker_0, # of connection points: 2
# Relax obj value: 0.096
# Max RMSD: 0.099
# Mean RMSD: 0.099
data_MOF--net-zfe--node1-BEQFEK_clean_sbu_0--edge1-AJUNOK_clean_linker_0
_symmetry_space_group_name_H-M    P1
_symmetry_Int_Tables_number       1
_symmetry_cell_setting            triclinic
loop_
_symmetry_equiv_pos_as_xyz
'x, y, z'
_cell_length_a     44.161779
_cell_length_b     44.178857
_cell_length_c     22.872888
_cell_angle_alpha  90.039375
_cell_angle_beta   89.963393
_cell_angle_gamma 90.048306
loop_
_atom_site_label
_atom_site_type_symbol
_atom_site_fract_x
_atom_site_fract_y
_atom_site_fract_z
_atom_type_partial_charge
Co0 Co 0.00434 0.17657 0.08242 0.0
Co1 Co 0.05788 0.223 0.07371 0.0
C2 C 0.01549 0.22315 0.17631 0.0
O3 O 0.0007 0.20122 0.15411 0.0
O4 O 0.03873 0.23433 0.15085 0.0
C5 C 0.94414 0.15269 0.10102 0.0
O6 O 0.93924 0.17832 0.1286 0.0
C7 C 0.09719 0.278 0.0656 0.0
C8 C 0.13202 0.2605 1.00486 0.0
C9 C 0.12325 0.28605 0.03533 0.0
N10 N 0.09053 0.24905 0.05238 0.0
N11 N 0.11168 0.23874 0.01663 0.0
C12 C 0.07859 0.2975 0.10508 0.0
H13 H 0.05431 0.29128 0.10138 0.0
H14 H 0.08182 0.32181 0.09452 0.0
H15 H 0.08578 0.29359 0.15094 0.0
C16 C 0.99115 0.20059 0.96508 0.0
N17 N 0.00654 0.20165 0.01575 0.0
N18 N 0.02927 0.22074 0.01072 0.0
C19 C 0.02937 0.23201 0.95577 0.0
C20 C 0.00545 0.21923 0.92462 0.0
C21 C 0.96363 0.18138 0.95567 0.0
H22 H 0.97006 0.15712 0.95749 0.0
H23 H 0.94717 0.18563 0.99137 0.0
H24 H 0.95263 0.18637 0.91315 0.0
O25 O 0.04059 0.15016 0.08635 0.0
O26 O 0.07791 0.1834 0.08209 0.0
H27 H 0.07477 0.23694 0.92536 0.0
H28 H 0.04851 0.26106 0.88842 0.0
C29 C 0.05434 0.25115 0.93133 0.0
H30 H 0.05969 0.26976 0.96213 0.0
H31 H 0.11205 0.21679 0.99974 0.0
O32 O 0.96973 0.14818 0.0773 0.0
C33 C 0.06876 0.15623 0.08585 0.0
Co34 Co 0.82244 0.00123 0.07917 0.0
Co35 Co 0.77913 0.05741 0.07437 0.0
C36 C 0.7774 0.01449 0.17526 0.0
O37 O 0.79828 -0.00122 0.15177 0.0
O38 O 0.76712 0.03834 0.15078 0.0
C39 C 0.83963 0.93865 0.09299 0.0
O40 O 0.81268 0.93563 0.11655 0.0
C41 C 0.72779 0.10186 0.06949 0.0
C42 C 0.74919 0.13614 0.01237 0.0
C43 C 0.72278 0.12966 0.04236 0.0
N44 N 0.75574 0.09229 0.05478 0.0
N45 N 0.76832 0.11304 0.021 0.0
C46 C 0.70786 0.08601 0.11262 0.0
H47 H 0.72178 0.0748 0.14655 0.0
H48 H 0.69468 0.06825 0.08958 0.0
H49 H 0.69198 0.10206 0.13388 0.0
C50 C 0.79694 0.9912 0.96152 0.0
N51 N 0.79709 0.00577 0.01318 0.0
N52 N 0.77915 0.02948 0.01013 0.0
C53 C 0.76736 0.03099 0.95567 0.0
C54 C 0.77832 0.00676 0.9229 0.0
C55 C 0.81592 0.96394 0.94856 0.0
H56 H 0.8118 0.9465 0.98244 0.0
H57 H 0.81058 0.95414 0.9051 0.0
H58 H 0.84022 0.97029 0.95031 0.0
O59 O 0.85147 0.03557 0.08401 0.0
O60 O 0.81999 0.07447 0.08399 0.0
H61 H 0.74115 0.05408 0.88855 0.0
H62 H 0.73169 0.06365 0.96305 0.0
C63 C 0.75044 0.05785 0.93282 0.0
H64 H 0.76616 0.07734 0.93006 0.0
H65 H 0.79021 0.11149 1.00406 0.0
O66 O 0.84762 0.96433 0.07327 0.0
C67 C 0.84671 0.06395 0.08622 0.0
Co68 Co 0.99192 0.82205 0.08255 0.0
Co69 Co 0.94066 0.77333 0.07666 0.0
C70 C 0.98154 0.77605 0.17933 0.0
O71 O 0.9957 0.798 0.15563 0.0
O72 O 0.95904 0.76342 0.15417 0.0
C73 C 0.05425 0.84014 0.08468 0.0
O74 O 0.05906 0.81114 0.09321 0.0
C75 C 0.90242 0.71792 0.07266 0.0
C76 C 0.86835 0.73251 0.00769 0.0
C77 C 0.87661 0.70847 0.04293 0.0
N78 N 0.90901 0.74626 0.05535 0.0
N79 N 0.88851 0.75479 0.0167 0.0
C80 C 0.92153 0.7001 0.11413 0.0
H81 H 0.94584 0.70467 0.10543 0.0
H82 H 0.91691 0.67548 0.11021 0.0
H83 H 0.91664 0.70757 0.15949 0.0
C84 C 0.003 0.79926 0.96296 0.0
N85 N 0.98968 0.79708 0.01575 0.0
N86 N 0.96974 0.77498 0.01487 0.0
C87 C 0.9707 0.76147 0.96196 0.0
C88 C 0.99158 0.77655 0.92693 0.0
C89 C 0.02229 0.8256 0.94514 0.0
H90 H 0.01467 0.8464 0.96797 0.0
H91 H 0.0461 0.82111 0.9579 0.0
H92 H 0.02133 0.82951 0.89727 0.0
O93 O 0.95569 0.84781 0.08628 0.0
O94 O 0.91962 0.81302 0.08329 0.0
H95 H 0.92898 0.74326 0.93023 0.0
H96 H 0.96202 0.72244 0.90776 0.0
C97 C 0.9515 0.73505 0.94452 0.0
H98 H 0.94846 0.71956 0.98217 0.0
H99 H 0.88836 0.77591 0.99627 0.0
O100 O 0.02724 0.84943 0.07836 0.0
C101 C 0.92781 0.8406 0.08635 0.0
Co102 Co 0.17075 0.99323 0.07789 0.0
Co103 Co 0.21904 0.94185 0.06871 0.0
C104 C 0.218 0.98115 0.17269 0.0
O105 O 0.19577 0.99548 0.15036 0.0
O106 O 0.23041 0.95893 0.14627 0.0
C107 C 0.15443 0.05572 0.08495 0.0
O108 O 0.18358 0.05933 0.09402 0.0
C109 C 0.26994 0.89756 0.06309 0.0
C110 C 0.25341 0.86954 0.98944 0.0
C111 C 0.27658 0.8721 0.02973 0.0
N112 N 0.24398 0.9095 0.04288 0.0
N113 N 0.23436 0.89266 0.99887 0.0
C114 C 0.28611 0.90882 0.11626 0.0
H115 H 0.26979 0.91083 0.15298 0.0
H116 H 0.29517 0.9318 0.10737 0.0
H117 H 0.30488 0.89358 0.12918 0.0
C118 C 0.1933 0.00528 0.958 0.0
N119 N 0.19531 0.99149 0.01035 0.0
N120 N 0.21761 0.97182 0.00905 0.0
C121 C 0.2315 0.97352 0.95666 0.0
C122 C 0.21632 0.99439 0.922 0.0
C123 C 0.16712 0.02483 0.94066 0.0
H124 H 0.14633 0.01752 0.96396 0.0
H125 H 0.17202 0.04859 0.95329 0.0
H126 H 0.16304 0.02388 0.89284 0.0
O127 O 0.14415 0.9575 0.08075 0.0
O128 O 0.17901 0.92174 0.07591 0.0
H129 H 0.25161 0.93369 0.92021 0.0
H130 H 0.27244 0.96788 0.90663 0.0
C131 C 0.25882 0.9555 0.93971 0.0
H132 H 0.27302 0.95087 0.97866 0.0
H133 H 0.21432 0.89667 0.97599 0.0
O134 O 0.14422 0.02922 0.07625 0.0
C135 C 0.15142 0.92967 0.07969 0.0
Co136 Co 0.00248 0.82247 0.51928 0.0
Co137 Co 0.05556 0.77566 0.52321 0.0
C138 C 0.01384 0.77668 0.42198 0.0
O139 O -0.00078 0.79814 0.4463 0.0
O140 O 0.03715 0.76498 0.44597 0.0
C141 C 0.94052 0.84069 0.50842 0.0
O142 O 0.93666 0.8128 0.48994 0.0
C143 C 0.10023 0.72453 0.5255 0.0
C144 C 0.12874 0.74074 0.59864 0.0
C145 C 0.12571 0.71747 0.55862 0.0
N146 N 0.08857 0.75059 0.54612 0.0
N147 N 0.10581 0.76006 0.58964 0.0
C148 C 0.08887 0.70868 0.47203 0.0
H149 H 0.08124 0.72549 0.43924 0.0
H150 H 0.06909 0.69448 0.48408 0.0
H151 H 0.10663 0.69408 0.45248 0.0
C152 C 0.99341 0.79926 0.63921 0.0
N153 N 0.00613 0.79768 0.58579 0.0
N154 N 0.02653 0.77603 0.58527 0.0
C155 C 0.02636 0.76209 0.63774 0.0
C156 C 0.00597 0.77685 0.67432 0.0
C157 C 0.97263 0.82425 0.65781 0.0
H158 H 0.9791 0.84565 0.63575 0.0
H159 H 0.94917 0.81846 0.64447 0.0
H160 H 0.97316 0.82771 0.70582 0.0
O161 O 0.03754 0.84943 0.51512 0.0
O162 O 0.07504 0.81629 0.51674 0.0
H163 H 0.06709 0.74063 0.66743 0.0
H164 H 0.03295 0.72103 0.68695 0.0
C165 C 0.04424 0.73426 0.65188 0.0
H166 H 0.04677 0.71997 0.61227 0.0
H167 H 0.10206 0.78005 0.61287 0.0
O168 O 0.96672 0.84908 0.52447 0.0
C169 C 0.06565 0.8435 0.51478 0.0
Co170 Co 0.17489 0.00291 0.5127 0.0
Co171 Co 0.22272 0.05486 0.5161 0.0
C172 C 0.2206 0.0125 0.41547 0.0
O173 O 0.199 0.99822 0.44003 0.0
O174 O 0.2326 0.03576 0.43914 0.0
C175 C 0.15471 0.94087 0.50705 0.0
O176 O 0.1825 0.93502 0.48991 0.0
C177 C 0.27835 0.09269 0.5193 0.0
C178 C 0.26427 0.12655 0.58522 0.0
C179 C 0.28823 0.11793 0.55005 0.0
N180 N 0.24987 0.0865 0.53635 0.0
N181 N 0.24159 0.10696 0.57537 0.0
C182 C 0.29581 0.07408 0.47639 0.0
H183 H 0.29156 0.04967 0.48454 0.0
H184 H 0.32044 0.07893 0.47917 0.0
H185 H 0.28773 0.07928 0.43158 0.0
C186 C 0.19676 0.99446 0.63326 0.0
N187 N 0.19944 0.00646 0.57943 0.0
N188 N 0.22136 0.02661 0.57932 0.0
C189 C 0.23429 0.02706 0.63277 0.0
C190 C 0.21867 0.00727 0.6692 0.0
C191 C 0.17095 0.97453 0.65134 0.0
H192 H 0.14981 0.98206 0.62964 0.0
H193 H 0.17571 0.951 0.63708 0.0
H194 H 0.1675 0.97475 0.69936 0.0
O195 O 0.14894 0.0388 0.50738 0.0
O196 O 0.18285 0.07575 0.50944 0.0
H197 H 0.25444 0.06887 0.65992 0.0
H198 H 0.27333 0.03569 0.68694 0.0
C199 C 0.2615 0.04555 0.64861 0.0
H200 H 0.27733 0.04664 0.61103 0.0
H201 H 0.22047 0.10728 0.59588 0.0
O202 O 0.14747 0.96792 0.51939 0.0
C203 C 0.15546 0.06682 0.50704 0.0
Co204 Co 0.9976 0.17817 0.51297 0.0
Co205 Co 0.94104 0.22091 0.5199 0.0
C206 C 0.98396 0.22352 0.41822 0.0
O207 O 0.0 0.20268 0.44099 0.0
O208 O 0.96015 0.23352 0.44357 0.0
C209 C 0.05957 0.1572 0.4963 0.0
O210 O 0.06416 0.18251 0.46748 0.0
C211 C 0.8945 0.27076 0.52634 0.0
C212 C 0.86161 0.24751 0.5838 0.0
C213 C 0.86635 0.27404 0.5531 0.0
N214 N 0.9057 0.24339 0.54083 0.0
N215 N 0.88584 0.22981 0.57519 0.0
C216 C 0.9095 0.29233 0.48514 0.0
H217 H 0.92581 0.28032 0.45657 0.0
H218 H 0.92204 0.30956 0.51085 0.0
H219 H 0.89236 0.30418 0.45806 0.0
C220 C 0.00773 0.20254 0.63104 0.0
N221 N 0.99298 0.20293 0.57965 0.0
N222 N 0.96897 0.2204 0.58402 0.0
C223 C 0.96742 0.23129 0.6392 0.0
C224 C 0.99168 0.21988 0.67125 0.0
C225 C 0.03625 0.18506 0.64141 0.0
H226 H 0.05282 0.19043 0.60647 0.0
H227 H 0.04643 0.19058 0.68447 0.0
H228 H 0.03132 0.16045 0.63903 0.0
O229 O 0.96345 0.14903 0.50773 0.0
O230 O 0.92419 0.17998 0.50912 0.0
H231 H 0.92173 0.23297 0.66934 0.0
H232 H 0.94608 0.25951 0.70524 0.0
C233 C 0.941 0.24868 0.66275 0.0
H234 H 0.93424 0.26643 0.63117 0.0
H235 H 0.88869 0.2081 0.59229 0.0
O236 O 0.03387 0.15232 0.51935 0.0
C237 C 0.93501 0.15342 0.50613 0.0
Co238 Co 0.82394 0.99462 0.51334 0.0
Co239 Co 0.77678 0.94169 0.52049 0.0
C240 C 0.77806 0.98352 0.41778 0.0
O241 O 0.80006 0.99807 0.44037 0.0
O242 O 0.76607 0.96087 0.44368 0.0
C243 C 0.84754 0.0547 0.49424 0.0
O244 O 0.82186 0.05909 0.46656 0.0
C245 C 0.72036 0.90512 0.53121 0.0
C246 C 0.73823 0.8663 0.58143 0.0
C247 C 0.712 0.87809 0.55767 0.0
N248 N 0.75016 0.90936 0.54024 0.0
N249 N 0.76067 0.88588 0.5697 0.0
C250 C 0.70043 0.92693 0.49953 0.0
H251 H 0.70912 0.95035 0.50494 0.0
H252 H 0.67675 0.92535 0.5156 0.0
H253 H 0.70069 0.92135 0.45222 0.0
C254 C 0.79865 0.00799 0.63029 0.0
N255 N 0.79811 0.99272 0.57937 0.0
N256 N 0.77895 0.97001 0.58361 0.0
C257 C 0.76733 0.96958 0.63824 0.0
C258 C 0.77931 0.99379 0.66974 0.0
C259 C 0.81876 0.03463 0.64166 0.0
H260 H 0.81669 0.05099 0.60515 0.0
H261 H 0.81277 0.04619 0.68316 0.0
H262 H 0.84266 0.02695 0.64351 0.0
O263 O 0.85014 0.95803 0.51022 0.0
O264 O 0.81604 0.92139 0.5121 0.0
H265 H 0.76363 0.92257 0.65796 0.0
H266 H 0.74442 0.946 0.70946 0.0
C267 C 0.74986 0.94335 0.66253 0.0
H268 H 0.7286 0.94039 0.63741 0.0
H269 H 0.7832 0.88341 0.58253 0.0
O270 O 0.85233 0.02933 0.51858 0.0
C271 C 0.84341 0.93001 0.50933 0.0
Co272 Co 0.50318 0.67615 0.5764 0.0
Co273 Co 0.55578 0.7234 0.57327 0.0
C274 C 0.51329 0.72153 0.67404 0.0
O275 O 0.49862 0.70017 0.64948 0.0
O276 O 0.53681 0.73305 0.65041 0.0
C277 C 0.44159 0.65473 0.58513 0.0
O278 O 0.4357 0.68213 0.60439 0.0
C279 C 0.59342 0.77913 0.57166 0.0
C280 C 0.62785 0.76562 0.5064 0.0
C281 C 0.61893 0.7893 0.54202 0.0
N282 N 0.58745 0.75075 0.55373 0.0
N283 N 0.60821 0.74283 0.51502 0.0
C284 C 0.57419 0.79629 0.61404 0.0
H285 H 0.54991 0.79181 0.60495 0.0
H286 H 0.57881 0.82096 0.61164 0.0
H287 H 0.57903 0.78815 0.65897 0.0
C288 C 0.49416 0.69948 0.45657 0.0
N289 N 0.5067 0.70116 0.51011 0.0
N290 N 0.52712 0.72284 0.51072 0.0
C291 C 0.52718 0.73665 0.45815 0.0
C292 C 0.50688 0.72184 0.42146 0.0
C293 C 0.47357 0.67434 0.43784 0.0
H294 H 0.48068 0.65283 0.45868 0.0
H295 H 0.4502 0.6795 0.45261 0.0
H296 H 0.47356 0.67137 0.3897 0.0
O297 O 0.53898 0.6501 0.58084 0.0
O298 O 0.57653 0.68327 0.57812 0.0
H299 H 0.56907 0.75721 0.43257 0.0
H300 H 0.53593 0.77631 0.40569 0.0
C301 C 0.54566 0.76406 0.44364 0.0
H302 H 0.54653 0.77946 0.4819 0.0
H303 H 0.60877 0.72186 0.49399 0.0
O304 O 0.46842 0.64825 0.5697 0.0
C305 C 0.56712 0.65603 0.58028 0.0
Co306 Co 0.32252 0.50155 0.57535 0.0
Co307 Co 0.27734 0.55611 0.56689 0.0
C308 C 0.27614 0.51401 0.66923 0.0
O309 O 0.29777 0.49878 0.64708 0.0
O310 O 0.26546 0.53741 0.64375 0.0
C311 C 0.34481 0.44103 0.59547 0.0
O312 O 0.31905 0.43693 0.62309 0.0
C313 C 0.22554 0.59997 0.5622 0.0
C314 C 0.24472 0.63217 0.49803 0.0
C315 C 0.21957 0.62681 0.53251 0.0
N316 N 0.25285 0.58978 0.54486 0.0
N317 N 0.26407 0.60923 0.50667 0.0
C318 C 0.20723 0.58578 0.60993 0.0
H319 H 0.22238 0.57723 0.6448 0.0
H320 H 0.19458 0.5662 0.59178 0.0
H321 H 0.19094 0.60214 0.62905 0.0
C322 C 0.29812 0.48902 0.45808 0.0
N323 N 0.2975 0.50437 0.50883 0.0
N324 N 0.27849 0.52718 0.50441 0.0
C325 C 0.26649 0.52708 0.45007 0.0
C326 C 0.27898 0.50323 0.41848 0.0
C327 C 0.31771 0.46193 0.44742 0.0
H328 H 0.31366 0.44499 0.48232 0.0
H329 H 0.31294 0.4514 0.40434 0.0
H330 H 0.34188 0.46873 0.4497 0.0
O331 O 0.34995 0.53688 0.57907 0.0
O332 O 0.31765 0.57498 0.57556 0.0
H333 H 0.26062 0.57144 0.41501 0.0
H334 H 0.23433 0.5443 0.38662 0.0
C335 C 0.24651 0.55156 0.4265 0.0
H336 H 0.22963 0.55828 0.45989 0.0
H337 H 0.28531 0.60704 0.4871 0.0
O338 O 0.3499 0.46624 0.57077 0.0
C339 C 0.3446 0.56513 0.57889 0.0
Co340 Co 0.496 0.31906 0.58112 0.0
Co341 Co 0.44009 0.27574 0.57869 0.0
C342 C 0.48433 0.27484 0.67829 0.0
O343 O 0.49994 0.29561 0.65417 0.0
O344 O 0.46024 0.26457 0.65454 0.0
C345 C 0.55729 0.34134 0.59508 0.0
O346 O 0.56219 0.31614 0.62401 0.0
C347 C 0.40309 0.22001 0.56697 0.0
C348 C 0.36196 0.23926 0.52634 0.0
C349 C 0.37514 0.21235 0.54366 0.0
N350 N 0.40653 0.25015 0.56231 0.0
N351 N 0.3817 0.26148 0.53864 0.0
C352 C 0.42664 0.19907 0.59055 0.0
H353 H 0.44949 0.20928 0.58582 0.0
H354 H 0.42567 0.17688 0.56781 0.0
H355 H 0.42222 0.19524 0.63774 0.0
C356 C 0.50568 0.29266 0.46408 0.0
N357 N 0.49136 0.29318 0.51599 0.0
N358 N 0.46707 0.276 0.51324 0.0
C359 C 0.46452 0.26487 0.45844 0.0
C360 C 0.48909 0.27488 0.42539 0.0
C361 C 0.53378 0.31042 0.45121 0.0
H362 H 0.55015 0.30755 0.4875 0.0
H363 H 0.54454 0.30296 0.40979 0.0
H364 H 0.528 0.33481 0.44819 0.0
O365 O 0.46097 0.34726 0.58617 0.0
O366 O 0.42184 0.31602 0.58724 0.0
H367 H 0.41655 0.26428 0.44714 0.0
H368 H 0.43652 0.24747 0.38754 0.0
C369 C 0.43634 0.25013 0.43566 0.0
H370 H 0.43357 0.22761 0.45636 0.0
H371 H 0.3785 0.2844 0.52959 0.0
O372 O 0.5315 0.34585 0.57225 0.0
C373 C 0.43255 0.34268 0.58855 0.0
Co374 Co 0.67418 0.49491 0.57595 0.0
Co375 Co 0.721 0.44158 0.57198 0.0
C376 C 0.7201 0.48331 0.67297 0.0
O377 O 0.69865 0.49793 0.64864 0.0
O378 O 0.73192 0.46003 0.64897 0.0
C379 C 0.65546 0.55786 0.58369 0.0
O380 O 0.68321 0.56325 0.60161 0.0
C381 C 0.7707 0.39476 0.56704 0.0
C382 C 0.75178 0.36716 0.49508 0.0
C383 C 0.77567 0.36873 0.534 0.0
N384 N 0.74493 0.40781 0.54814 0.0
N385 N 0.73392 0.39111 0.50516 0.0
C386 C 0.78881 0.40574 0.61803 0.0
H387 H 0.77437 0.41896 0.64834 0.0
H388 H 0.80719 0.42068 0.60183 0.0
H389 H 0.79926 0.38645 0.64164 0.0
C390 C 0.69665 0.50286 0.45548 0.0
N391 N 0.69874 0.49069 0.50924 0.0
N392 N 0.72041 0.47032 0.50969 0.0
C393 C 0.73388 0.46996 0.45674 0.0
C394 C 0.71877 0.48998 0.42005 0.0
C395 C 0.67136 0.52327 0.43698 0.0
H396 H 0.65016 0.51684 0.45986 0.0
H397 H 0.67705 0.54688 0.4494 0.0
H398 H 0.66753 0.52228 0.3891 0.0
O399 O 0.64681 0.46004 0.58094 0.0
O400 O 0.68023 0.42277 0.58003 0.0
H401 H 0.75491 0.42895 0.42714 0.0
H402 H 0.77458 0.46286 0.40657 0.0
C403 C 0.76152 0.45183 0.44217 0.0
H404 H 0.77603 0.44939 0.48146 0.0
H405 H 0.71383 0.39595 0.48308 0.0
O406 O 0.64797 0.53101 0.57016 0.0
C407 C 0.65296 0.43197 0.58217 0.0
Co408 Co 0.50015 0.31987 0.0176 0.0
Co409 Co 0.55461 0.27454 0.02551 0.0
C410 C 0.51456 0.27477 0.9213 0.0
O411 O 0.49925 0.29617 0.94408 0.0
O412 O 0.53722 0.26313 0.94765 0.0
C413 C 0.4589 0.36815 0.99352 0.0
O414 O 0.48189 0.37881 0.96341 0.0
C415 C 0.60097 0.2249 0.02895 0.0
C416 C 0.63025 0.24364 0.0986 0.0
C417 C 0.62718 0.21926 0.0611 0.0
N418 N 0.58892 0.25112 0.04806 0.0
N419 N 0.60675 0.26218 0.08924 0.0
C420 C 0.5894 0.20782 0.97706 0.0
H421 H 0.5804 0.22379 0.94402 0.0
H422 H 0.57058 0.19284 0.9911 0.0
H423 H 0.60752 0.19391 0.95687 0.0
C424 C 0.48704 0.29379 0.13358 0.0
N425 N 0.50263 0.29377 0.08304 0.0
N426 N 0.52509 0.27433 0.08676 0.0
C427 C 0.52447 0.26136 0.14026 0.0
C428 C 0.50044 0.27347 0.17201 0.0
C429 C 0.46107 0.31458 0.14601 0.0
H430 H 0.44366 0.31178 0.11151 0.0
H431 H 0.45059 0.30982 0.18914 0.0
H432 H 0.4691 0.33838 0.14466 0.0
O433 O 0.53499 0.34875 0.01692 0.0
O434 O 0.57212 0.31531 0.01885 0.0
H435 H 0.56846 0.25599 0.17729 0.0
H436 H 0.54188 0.22861 0.20256 0.0
C437 C 0.54916 0.24158 0.16372 0.0
H438 H 0.55678 0.22547 0.12962 0.0
H439 H 0.60302 0.28275 0.1105 0.0
O440 O 0.46195 0.3433 0.02079 0.0
C441 C 0.56316 0.34257 0.01675 0.0
Co442 Co 0.67077 0.50288 0.0124 0.0
Co443 Co 0.719 0.55488 0.01939 0.0
C444 C 0.71691 0.5144 0.91601 0.0
O445 O 0.69515 0.49967 0.93925 0.0
O446 O 0.729 0.53706 0.94161 0.0
C447 C 0.65189 0.44076 0.00953 0.0
O448 O 0.68081 0.4359 0.99993 0.0
C449 C 0.77454 0.59319 0.02706 0.0
C450 C 0.75912 0.62607 0.09363 0.0
C451 C 0.78379 0.61815 0.0596 0.0
N452 N 0.74585 0.5865 0.04217 0.0
N453 N 0.73681 0.60639 0.08165 0.0
C454 C 0.79287 0.57507 0.9847 0.0
H455 H 0.786 0.55092 0.98651 0.0
H456 H 0.81743 0.57725 0.99412 0.0
H457 H 0.78848 0.58349 0.9398 0.0
C458 C 0.69403 0.49152 0.1317 0.0
N459 N 0.69582 0.50509 0.07911 0.0
N460 N 0.71783 0.52516 0.07992 0.0
C461 C 0.73175 0.5239 0.13233 0.0
C462 C 0.71694 0.50288 0.16735 0.0
C463 C 0.66792 0.47198 0.14978 0.0
H464 H 0.64696 0.47947 0.1274 0.0
H465 H 0.67257 0.44825 0.13667 0.0
H466 H 0.66422 0.47279 0.19773 0.0
O467 O 0.64505 0.53893 0.00959 0.0
O468 O 0.67906 0.57568 0.01408 0.0
H469 H 0.75074 0.56528 0.16415 0.0
H470 H 0.77135 0.53194 0.18534 0.0
C471 C 0.75854 0.54274 0.14919 0.0
H472 H 0.77378 0.5457 0.1111 0.0
H473 H 0.7154 0.60626 0.101 0.0
O474 O 0.64284 0.46778 0.01656 0.0
C475 C 0.65164 0.5669 0.01106 0.0
Co476 Co 0.49371 0.67807 0.01286 0.0
Co477 Co 0.44129 0.72527 0.02012 0.0
C478 C 0.4818 0.72418 0.91694 0.0
O479 O 0.49657 0.70255 0.94028 0.0
O480 O 0.45906 0.73624 0.94246 0.0
C481 C 0.55622 0.65797 1.00587 0.0
O482 O 0.56271 0.68594 0.99084 0.0
C483 C 0.3956 0.77529 0.02407 0.0
C484 C 0.36807 0.75833 0.09804 0.0
C485 C 0.3699 0.78132 0.05724 0.0
N486 N 0.40835 0.74982 0.04482 0.0
N487 N 0.39177 0.73996 0.08899 0.0
C488 C 0.40641 0.79166 0.97079 0.0
H489 H 0.41252 0.7751 0.93628 0.0
H490 H 0.42714 0.80464 0.982 0.0
H491 H 0.38897 0.80745 0.95386 0.0
C492 C 0.50442 0.70031 0.13263 0.0
N493 N 0.49097 0.70245 0.08003 0.0
N494 N 0.47074 0.72424 0.08127 0.0
C495 C 0.4718 0.73777 0.13416 0.0
C496 C 0.49286 0.72284 0.16889 0.0
C497 C 0.52406 0.67416 0.14988 0.0
H498 H 0.51631 0.65326 0.12753 0.0
H499 H 0.54769 0.67879 0.13598 0.0
H500 H 0.52364 0.67033 0.1978 0.0
O501 O 0.45839 0.65138 0.00881 0.0
O502 O 0.42142 0.68504 0.01221 0.0
H503 H 0.43142 0.75658 0.17096 0.0
H504 H 0.46502 0.77827 0.18487 0.0
C505 C 0.45302 0.76449 0.15154 0.0
H506 H 0.44798 0.77874 0.11286 0.0
H507 H 0.39635 0.72017 0.11227 0.0
O508 O 0.52897 0.65096 0.01714 0.0
C509 C 0.43037 0.65775 0.00895 0.0
Co510 Co 0.31925 0.49989 0.00737 0.0
Co511 Co 0.2797 0.44128 0.0137 0.0
C512 C 0.27598 0.4848 0.91185 0.0
O513 O 0.29524 0.50244 0.93534 0.0
O514 O 0.26784 0.4602 0.93673 0.0
C515 C 0.33991 0.56211 0.99315 0.0
O516 O 0.31487 0.56683 0.96354 0.0
C517 C 0.22525 0.40225 0.01993 0.0
C518 C 0.2434 0.36332 0.06947 0.0
C519 C 0.21727 0.3746 0.04436 0.0
N520 N 0.25477 0.40717 0.03081 0.0
N521 N 0.26548 0.38369 0.05999 0.0
C522 C 0.2051 0.42436 0.9895 0.0
H523 H 0.21135 0.44779 1.00234 0.0
H524 H 0.18092 0.41997 0.9998 0.0
H525 H 0.20853 0.42228 0.9416 0.0
C526 C 0.294 0.5088 0.12498 0.0
N527 N 0.29438 0.4942 0.07341 0.0
N528 N 0.27855 0.46907 0.07773 0.0
C529 C 0.26825 0.46648 0.13312 0.0
C530 C 0.278 0.49144 0.16519 0.0
C531 C 0.30993 0.5382 0.13577 0.0
H532 H 0.33478 0.53456 0.1341 0.0
H533 H 0.304 0.55444 0.10066 0.0
H534 H 0.30361 0.54804 0.17873 0.0
O535 O 0.34903 0.46645 1.00135 0.0
O536 O 0.32119 0.42488 0.007 0.0
H537 H 0.27005 0.4194 0.15345 0.0
H538 H 0.24713 0.44079 0.20336 0.0
C539 C 0.25379 0.4384 0.15692 0.0
H540 H 0.23344 0.43279 0.13074 0.0
H541 H 0.28783 0.38179 0.0743 0.0
O542 O 0.34462 0.53632 0.01571 0.0
C543 C 0.34685 0.43774 1.00251 0.0
C544 C 0.15273 0.32426 0.0916 0.0
C545 C 0.14121 0.31415 0.03782 0.0
C546 C 0.1762 0.34565 0.09354 0.0
C547 C 0.18831 0.35804 0.04189 0.0
H548 H 0.14526 0.3139 0.13203 0.0
H549 H 0.18599 0.35143 0.13553 0.0
S550 S 0.16363 0.34111 0.89064 0.0
N551 N 0.14189 0.31957 0.93219 0.0
N552 N 0.18561 0.36023 0.93595 0.0
C553 C 0.17542 0.34973 0.98821 0.0
C554 C 0.15193 0.32761 0.98618 0.0
C555 C 0.70392 0.18204 0.05425 0.0
C556 C 0.69725 0.15111 0.048 0.0
C557 C 0.68097 0.20364 0.05765 0.0
C558 C 0.6503 0.19531 0.05446 0.0
H559 H 0.72719 0.18972 0.05692 0.0
H560 H 0.68738 0.22719 0.06258 0.0
S561 S 0.62055 0.11726 0.03754 0.0
N562 N 0.65773 0.11317 0.03671 0.0
N563 N 0.61428 0.15384 0.04632 0.0
C564 C 0.64313 0.16444 0.04835 0.0
C565 C 0.66669 0.14231 0.04439 0.0
C566 C 0.82435 0.64424 1.00245 0.0
C567 C 0.81226 0.63572 0.05681 0.0
C568 C 0.84696 0.66644 0.99874 0.0
C569 C 0.85847 0.68058 0.04922 0.0
H570 H 0.81483 0.6354 0.9623 0.0
H571 H 0.85443 0.67372 0.95584 0.0
S572 S 0.83595 0.66442 0.20219 0.0
N573 N 0.8149 0.64139 0.16238 0.0
N574 N 0.85711 0.68339 0.15527 0.0
C575 C 0.84786 0.67094 0.10398 0.0
C576 C 0.82477 0.64844 0.10775 0.0
C577 C 0.33117 0.85749 0.03986 0.0
C578 C 0.30042 0.84923 0.03833 0.0
C579 C 0.35388 0.83536 0.04461 0.0
C580 C 0.34636 0.80449 0.04841 0.0
H581 H 0.33766 0.88107 0.03657 0.0
H582 H 0.37736 0.84243 0.04621 0.0
S583 S 0.26914 0.77145 0.04631 0.0
N584 N 0.26368 0.8083 0.04084 0.0
N585 N 0.30618 0.76686 0.05007 0.0
C586 C 0.31569 0.7961 0.04706 0.0
C587 C 0.29275 0.81846 0.04176 0.0
C588 C 0.17924 0.70134 0.55162 0.0
C589 C 0.14845 0.69338 0.55025 0.0
C590 C 0.20184 0.67947 0.54625 0.0
C591 C 0.1946 0.64866 0.54021 0.0
H592 H 0.18598 0.7248 0.55653 0.0
H593 H 0.22527 0.68676 0.54729 0.0
S594 S 0.11738 0.61582 0.53461 0.0
N595 N 0.11172 0.6525 0.54352 0.0
N596 N 0.15448 0.61119 0.53185 0.0
C597 C 0.16391 0.64023 0.53876 0.0
C598 C 0.14075 0.66266 0.54412 0.0
C599 C 0.35406 0.16701 0.59329 0.0
C600 C 0.35987 0.18279 0.54126 0.0
C601 C 0.33232 0.14389 0.5948 0.0
C602 C 0.31636 0.1355 0.54411 0.0
H603 H 0.36439 0.17425 0.63391 0.0
H604 H 0.32662 0.13378 0.63654 0.0
S605 S 0.32632 0.16754 0.39578 0.0
N606 N 0.35024 0.1868 0.43705 0.0
N607 N 0.30976 0.1429 0.4397 0.0
C608 C 0.3239 0.14938 0.49095 0.0
C609 C 0.34561 0.17322 0.48961 0.0
C610 C 0.82972 0.35206 0.54753 0.0
C611 C 0.79886 0.34486 0.54085 0.0
C612 C 0.85178 0.32914 0.55037 0.0
C613 C 0.84358 0.2984 0.54693 0.0
H614 H 0.83689 0.37548 0.54955 0.0
H615 H 0.87526 0.33553 0.55624 0.0
S616 S 0.76577 0.26782 0.52988 0.0
N617 N 0.76131 0.30488 0.53153 0.0
N618 N 0.80252 0.2621 0.53639 0.0
C619 C 0.81279 0.29106 0.54051 0.0
C620 C 0.79051 0.31422 0.53743 0.0
C621 C 0.64617 0.83326 0.49933 0.0
C622 C 0.63642 0.81746 0.54931 0.0
C623 C 0.66884 0.85542 0.50303 0.0
C624 C 0.6828 0.86194 0.55671 0.0
H625 H 0.63743 0.82722 0.45663 0.0
H626 H 0.67714 0.86561 0.46305 0.0
S627 S 0.66368 0.82881 0.70089 0.0
N628 N 0.64083 0.81148 0.65452 0.0
N629 N 0.68365 0.85294 0.66142 0.0
C630 C 0.67188 0.84773 0.60744 0.0
C631 C 0.64857 0.8255 0.6038 0.0
C632 C 0.10188 0.07684 0.08484 0.0
C633 C 0.13337 0.0819 0.08581 0.0
C634 C 0.08129 0.10093 0.08573 0.0
C635 C 0.09124 0.13119 0.08734 0.0
H636 H 0.09292 0.05402 0.08349 0.0
H637 H 0.05734 0.09565 0.08463 0.0
S638 S 0.17147 0.15684 0.09024 0.0
N639 N 0.17357 0.11956 0.0885 0.0
N640 N 0.13499 0.16486 0.09006 0.0
C641 C 0.12273 0.13662 0.0885 0.0
C642 C 0.14373 0.11202 0.08777 0.0
C643 C 0.89009 0.13695 0.11227 0.0
C644 C 0.92002 0.12937 0.09734 0.0
C645 C 0.86674 0.11558 0.10878 0.0
C646 C 0.87234 0.08558 0.09088 0.0
H647 H 0.88448 0.1597 0.12624 0.0
H648 H 0.84406 0.12273 0.12043 0.0
S649 S 0.94692 0.05387 0.04786 0.0
N650 N 0.95413 0.08953 0.06438 0.0
N651 N 0.91021 0.04933 0.05835 0.0
C652 C 0.90224 0.07753 0.07643 0.0
C653 C 0.92604 0.09942 0.07943 0.0
C654 C 0.91302 0.89492 0.07611 0.0
C655 C 0.90462 0.86488 0.08852 0.0
C656 C 0.89177 0.91838 0.07704 0.0
C657 C 0.8612 0.91293 0.09101 0.0
H658 H 0.93623 0.90046 0.06508 0.0
H659 H 0.89956 0.94107 0.0672 0.0
S660 S 0.82732 0.83828 0.12715 0.0
N661 N 0.86343 0.83088 0.11515 0.0
N662 N 0.82351 0.8751 0.11736 0.0
C663 C 0.85239 0.883 0.10359 0.0
C664 C 0.87406 0.85898 0.10218 0.0
C665 C 0.09669 0.91489 0.08269 0.0
C666 C 0.12733 0.90615 0.08158 0.0
C667 C 0.07341 0.89339 0.08343 0.0
C668 C 0.07966 0.86214 0.08337 0.0
H669 H 0.09049 0.9386 0.08276 0.0
H670 H 0.05026 0.90146 0.08433 0.0
S671 S 0.15603 0.82703 0.07994 0.0
N672 N 0.16267 0.86379 0.07997 0.0
N673 N 0.11883 0.82345 0.08155 0.0
C674 C 0.11017 0.85297 0.08228 0.0
C675 C 0.13397 0.87491 0.08133 0.0
C676 C 0.1397 0.88642 0.4965 0.0
C677 C 0.1317 0.91641 0.51038 0.0
C678 C 0.11826 0.86302 0.49816 0.0
C679 C 0.08789 0.86868 0.51333 0.0
H680 H 0.1627 0.88089 0.48403 0.0
H681 H 0.12555 0.84034 0.48691 0.0
S682 S 0.05537 0.94308 0.55576 0.0
N683 N 0.09127 0.95032 0.54151 0.0
N684 N 0.0511 0.90646 0.54431 0.0
C685 C 0.07961 0.89854 0.52779 0.0
C686 C 0.10146 0.92234 0.52645 0.0
C687 C 0.11362 0.14106 0.48413 0.0
C688 C 0.08371 0.13395 0.5004 0.0
C689 C 0.1367 0.11931 0.48674 0.0
C690 C 0.1307 0.08947 0.50495 0.0
H691 H 0.11935 0.16365 0.46937 0.0
H692 H 0.15936 0.1259 0.47372 0.0
S693 S 0.05626 0.05922 0.55324 0.0
N694 N 0.04947 0.09486 0.5363 0.0
N695 N 0.09269 0.0541 0.54073 0.0
C696 C 0.10091 0.08205 0.52154 0.0
C697 C 0.07748 0.10425 0.51945 0.0
C698 C 0.86247 0.10892 0.48219 0.0
C699 C 0.87057 0.07915 0.49716 0.0
C700 C 0.88353 0.13259 0.48486 0.0
C701 C 0.91374 0.12747 0.50193 0.0
H702 H 0.83953 0.11417 0.46884 0.0
H703 H 0.87598 0.15513 0.4733 0.0
S704 S 0.94681 0.05348 0.54461 0.0
N705 N 0.91112 0.04572 0.52921 0.0
N706 N 0.95076 0.0902 0.5337 0.0
C707 C 0.92231 0.09773 0.51638 0.0
C708 C 0.90073 0.07361 0.51423 0.0
C709 C 0.92106 0.89354 0.52003 0.0
C710 C 0.9152 0.86277 0.50823 0.0
C711 C 0.89786 0.91513 0.5193 0.0
C712 C 0.86775 0.90686 0.50723 0.0
H713 H 0.94382 0.90117 0.52977 0.0
H714 H 0.9036 0.93843 0.52907 0.0
S715 S 0.84029 0.82931 0.47256 0.0
N716 N 0.877 0.8252 0.48337 0.0
N717 N 0.83337 0.86567 0.4822 0.0
C718 C 0.86154 0.87617 0.4951 0.0
C719 C 0.88524 0.85418 0.49554 0.0
C720 C 0.64108 0.6125 0.59508 0.0
C721 C 0.63267 0.58258 0.58133 0.0
C722 C 0.61983 0.63611 0.59446 0.0
C723 C 0.58924 0.63071 0.58059 0.0
H724 H 0.66426 0.61784 0.6066 0.0
H725 H 0.62744 0.65871 0.60554 0.0
S726 S 0.55559 0.55658 0.53919 0.0
N727 N 0.59157 0.54906 0.5518 0.0
N728 N 0.5518 0.59322 0.55098 0.0
C729 C 0.58056 0.60092 0.56627 0.0
C730 C 0.6022 0.57695 0.5665 0.0
C731 C 0.36394 0.61793 0.59265 0.0
C732 C 0.36997 0.58719 0.58113 0.0
C733 C 0.38719 0.63951 0.59382 0.0
C734 C 0.41746 0.63134 0.58303 0.0
H735 H 0.34102 0.62551 0.60106 0.0
H736 H 0.38127 0.66281 0.60305 0.0
S737 S 0.44548 0.55383 0.55 0.0
N738 N 0.40859 0.54969 0.55844 0.0
N739 N 0.45225 0.59018 0.56031 0.0
C740 C 0.42387 0.60067 0.57128 0.0
C741 C 0.40017 0.57863 0.57049 0.0
C742 C 0.35976 0.38701 0.60979 0.0
C743 C 0.36784 0.41663 0.59369 0.0
C744 C 0.38092 0.36344 0.60839 0.0
C745 C 0.41118 0.36853 0.5915 0.0
H746 H 0.33679 0.38181 0.62308 0.0
H747 H 0.37339 0.34099 0.62078 0.0
S748 S 0.44423 0.44223 0.54636 0.0
N749 N 0.40844 0.44994 0.56092 0.0
N750 N 0.44823 0.40565 0.55876 0.0
C751 C 0.41972 0.39815 0.57595 0.0
C752 C 0.39806 0.42216 0.57683 0.0
C753 C 0.61132 0.35763 0.60526 0.0
C754 C 0.58124 0.36477 0.5906 0.0
C755 C 0.63431 0.37946 0.60224 0.0
C756 C 0.62809 0.40944 0.58518 0.0
H757 H 0.61727 0.33494 0.61898 0.0
H758 H 0.65712 0.37278 0.6139 0.0
S759 S 0.55296 0.4399 0.54209 0.0
N760 N 0.54645 0.40406 0.55801 0.0
N761 N 0.58956 0.44505 0.5528 0.0
C762 C 0.59807 0.41693 0.57045 0.0
C763 C 0.5747 0.39462 0.57297 0.0
C764 C 0.59851 0.42128 0.01265 0.0
C765 C 0.62986 0.41531 0.01167 0.0
C766 C 0.57715 0.39775 0.01404 0.0
C767 C 0.5862 0.36722 0.0148 0.0
H768 H 0.59028 0.44436 0.01197 0.0
H769 H 0.55334 0.40363 0.01459 0.0
S770 S 0.66575 0.33934 0.01436 0.0
N771 N 0.66891 0.37654 0.01258 0.0
N772 N 0.62906 0.33239 0.01531 0.0
C773 C 0.61758 0.36094 0.01422 0.0
C774 C 0.63929 0.38492 0.01262 0.0
C775 C 0.61052 0.64213 0.99665 0.0
C776 C 0.58019 0.63446 0.00841 0.0
C777 C 0.63346 0.62021 0.99777 0.0
C778 C 0.62697 0.58968 0.01028 0.0
H779 H 0.6167 0.66525 0.98632 0.0
H780 H 0.65644 0.62726 0.98821 0.0
S781 S 0.55132 0.55783 0.04636 0.0
N782 N 0.54503 0.59411 0.0346 0.0
N783 N 0.58801 0.55308 0.03644 0.0
C784 C 0.59675 0.58172 0.02261 0.0
C785 C 0.57343 0.60405 0.02179 0.0
C786 C 0.35599 0.61631 0.98449 0.0
C787 C 0.36317 0.58617 0.99854 0.0
C788 C 0.37778 0.63933 0.98841 0.0
C789 C 0.40771 0.63304 1.00575 0.0
H790 H 0.33334 0.62226 0.97053 0.0
H791 H 0.37114 0.66219 0.97707 0.0
S792 S 0.43818 0.55782 0.04788 0.0
N793 N 0.40243 0.55131 0.03115 0.0
N794 N 0.44327 0.59446 0.03803 0.0
C795 C 0.41519 0.60299 0.02004 0.0
C796 C 0.39296 0.57961 0.01663 0.0
C797 C 0.42883 0.41531 0.97662 0.0
C798 C 0.42989 0.38507 0.99578 0.0
C799 C 0.40192 0.43206 0.97885 0.0
C800 C 0.37482 0.41916 0.99966 0.0
H801 H 0.44903 0.42636 0.96026 0.0
H802 H 0.4024 0.45531 0.96386 0.0
S803 S 0.36525 0.34061 0.05458 0.0
N804 N 0.4013 0.34279 0.03602 0.0
N805 N 0.35075 0.37417 0.0399 0.0
C806 C 0.37546 0.38883 0.01852 0.0
C807 C 0.40296 0.37184 0.01674 0.0
C808 C 0.02195 0.2332 0.33943 0.0
C809 C 0.99144 0.23264 0.35754 0.0
C810 C 0.02977 0.23352 0.27988 0.0
C811 C 0.00731 0.2325 0.23643 0.0
H812 H 0.03993 0.23153 0.37148 0.0
H813 H 0.05346 0.23186 0.26797 0.0
S814 S 0.92429 0.23465 0.26044 0.0
N815 N 0.93878 0.23461 0.327 0.0
N816 N 0.95347 0.23423 0.21523 0.0
C817 C 0.97682 0.23428 0.25389 0.0
C818 C 0.96887 0.23465 0.31446 0.0
C819 C 0.77012 0.02172 0.33879 0.0
C820 C 0.76936 0.99129 0.35709 0.0
C821 C 0.76936 0.02939 0.27922 0.0
C822 C 0.76866 0.00681 0.23592 0.0
H823 H 0.773 0.03966 0.37064 0.0
H824 H 0.77195 0.05294 0.26704 0.0
S825 S 0.76312 0.92406 0.26074 0.0
N826 N 0.76463 0.9387 0.32715 0.0
N827 N 0.76429 0.95306 0.21525 0.0
C828 C 0.76579 0.97648 0.25369 0.0
C829 C 0.76583 0.96871 0.31432 0.0
C830 C 0.01995 0.76843 0.25815 0.0
C831 C 0.98942 0.76827 0.24041 0.0
C832 C 0.02787 0.76808 0.31763 0.0
C833 C 0.00548 0.76851 0.36135 0.0
H834 H 0.03781 0.77034 0.22585 0.0
H835 H 0.05157 0.76992 0.32934 0.0
S836 S 0.92245 0.76555 0.3381 0.0
N837 N 0.93684 0.76574 0.27141 0.0
N838 N 0.95169 0.76633 0.38308 0.0
C839 C 0.97497 0.76659 0.34421 0.0
C840 C 0.96694 0.76611 0.28372 0.0
C841 C 0.22844 0.02677 0.3112 0.0
C842 C 0.2282 0.00423 0.35456 0.0
C843 C 0.22718 0.01909 0.25166 0.0
C844 C 0.22662 0.98865 0.23348 0.0
H845 H 0.22709 0.05044 0.32337 0.0
H846 H 0.22514 0.03709 0.21975 0.0
S847 S 0.22955 0.9213 0.32986 0.0
N848 N 0.22978 0.95036 0.37536 0.0
N849 N 0.22875 0.93594 0.26343 0.0
C850 C 0.229 0.96598 0.27627 0.0
C851 C 0.22943 0.97377 0.33688 0.0
C852 C 0.97059 0.77243 0.8254 0.0
C853 C 0.99588 0.77345 0.86281 0.0
C854 C 0.97408 0.77245 0.76443 0.0
C855 C 0.00294 0.77386 0.73869 0.0
H856 H 0.94788 0.7727 0.84322 0.0
H857 H 0.95402 0.7721 0.73719 0.0
S858 S 0.07636 0.7768 0.81746 0.0
N859 N 0.05071 0.7745 0.86981 0.0
N860 N 0.05724 0.77692 0.75546 0.0
C861 C 0.0284 0.77458 0.77563 0.0
C862 C 0.02486 0.77385 0.83762 0.0
C863 C 0.22176 0.97612 0.76009 0.0
C864 C 0.22063 0.00479 0.73374 0.0
C865 C 0.22099 0.97303 0.82104 0.0
C866 C 0.21949 0.99852 0.85791 0.0
H867 H 0.22253 0.9559 0.7333 0.0
H868 H 0.22055 0.95042 0.83922 0.0
S869 S 0.2164 0.07865 0.81076 0.0
N870 N 0.21722 0.05917 0.74914 0.0
N871 N 0.218 0.05336 0.86377 0.0
C872 C 0.21916 0.02733 0.83216 0.0
C873 C 0.21928 0.03048 0.77006 0.0
C874 C 0.99852 0.24649 0.82912 0.0
C875 C 0.00131 0.21916 0.86017 0.0
C876 C 0.99596 0.24669 0.76789 0.0
C877 C 0.99499 0.21952 0.73587 0.0
H878 H 0.99851 0.26789 0.85228 0.0
H879 H 0.99479 0.26824 0.74549 0.0
S880 S 0.00039 0.14186 0.79664 0.0
N881 N 0.00401 0.16429 0.85393 0.0
N882 N 0.99544 0.16454 0.74016 0.0
C883 C 0.99692 0.19205 0.76663 0.0
C884 C 0.00086 0.1919 0.82846 0.0
C885 C 0.80524 -0.00029 0.76609 0.0
C886 C 0.77813 0.99836 0.734 0.0
C887 C 0.80497 0.0026 0.82702 0.0
C888 C 0.77759 0.00339 0.85839 0.0
H889 H 0.82689 0.99815 0.74406 0.0
H890 H 0.82642 0.00419 0.84977 0.0
S891 S 0.7004 0.00025 0.79519 0.0
N892 N 0.72314 -0.00079 0.73784 0.0
N893 N 0.72267 0.00173 0.85313 0.0
C894 C 0.75031 0.0017 0.82702 0.0
C895 C 0.75057 -0.00015 0.76466 0.0
C896 C 0.51958 0.7325 0.83734 0.0
C897 C 0.48913 0.73185 0.85558 0.0
C898 C 0.52727 0.73207 0.77776 0.0
C899 C 0.50477 0.72999 0.73447 0.0
H900 H 0.5376 0.73174 0.86943 0.0
H901 H 0.55099 0.73095 0.7658 0.0
S902 S 0.42176 0.73054 0.759 0.0
N903 N 0.43639 0.73199 0.8254 0.0
N904 N 0.45085 0.72998 0.71356 0.0
C905 C 0.47427 0.73118 0.752 0.0
C906 C 0.46643 0.73244 0.81257 0.0
C907 C 0.26568 0.52185 0.83187 0.0
C908 C 0.26674 0.49152 0.85093 0.0
C909 C 0.26532 0.5291 0.77212 0.0
C910 C 0.26671 0.50626 0.72944 0.0
H911 H 0.26705 0.54015 0.86331 0.0
H912 H 0.26668 0.55269 0.75948 0.0
S913 S 0.26517 0.42348 0.75596 0.0
N914 N 0.26518 0.43857 0.82205 0.0
N915 N 0.26534 0.45224 0.70987 0.0
C916 C 0.26516 0.47592 0.74781 0.0
C917 C 0.26491 0.46853 0.80859 0.0
C918 C 0.47703 0.26597 0.84158 0.0
C919 C 0.50741 0.2663 0.86023 0.0
C920 C 0.46958 0.26551 0.78192 0.0
C921 C 0.49229 0.26623 0.73887 0.0
H922 H 0.45888 0.26774 0.8733 0.0
H923 H 0.44595 0.26718 0.76959 0.0
S924 S 0.57516 0.26375 0.76463 0.0
N925 N 0.56024 0.26404 0.83088 0.0
N926 N 0.54628 0.26422 0.71877 0.0
C927 C 0.52269 0.26443 0.75693 0.0
C928 C 0.53025 0.26417 0.81766 0.0
C929 C 0.72703 0.46871 0.77726 0.0
C930 C 0.72763 0.4913 0.73402 0.0
C931 C 0.7255 0.47634 0.83681 0.0
C932 C 0.72542 0.50677 0.85514 0.0
H933 H 0.72526 0.44509 0.76494 0.0
H934 H 0.72291 0.45834 0.86859 0.0
S935 S 0.73052 0.57416 0.75907 0.0
N936 N 0.7305 0.54514 0.71349 0.0
N937 N 0.72891 0.55947 0.8254 0.0
C938 C 0.72861 0.52944 0.81249 0.0
C939 C 0.72935 0.52169 0.75187 0.0
C940 C 0.499 0.30006 0.26805 0.0
C941 C 0.49664 0.27288 0.23639 0.0
C942 C 0.49654 0.30041 0.32903 0.0
C943 C 0.4925 0.2735 0.36088 0.0
H944 H 0.50287 0.32127 0.2455 0.0
H945 H 0.49757 0.32202 0.3513 0.0
S946 S 0.4847 0.19637 0.29863 0.0
N947 N 0.48848 0.21855 0.24094 0.0
N948 N 0.48672 0.21883 0.35629 0.0
C949 C 0.49044 0.2461 0.32981 0.0
C950 C 0.49188 0.24588 0.26742 0.0
C951 C 0.72231 0.5212 0.32926 0.0
C952 C 0.7212 0.49252 0.35558 0.0
C953 C 0.72165 0.52432 0.2683 0.0
C954 C 0.72031 0.49883 0.23141 0.0
H955 H 0.72292 0.54142 0.35608 0.0
H956 H 0.72115 0.54693 0.25012 0.0
S957 S 0.71747 0.41865 0.27841 0.0
N958 N 0.718 0.43812 0.34003 0.0
N959 N 0.71919 0.44398 0.22546 0.0
C960 C 0.72015 0.47 0.25712 0.0
C961 C 0.72009 0.46683 0.3192 0.0
C962 C 0.47514 0.72628 0.33131 0.0
C963 C 0.50396 0.72488 0.3571 0.0
C964 C 0.47175 0.72652 0.27035 0.0
C965 C 0.4971 0.72581 0.23301 0.0
H966 H 0.45504 0.72644 0.35848 0.0
H967 H 0.44907 0.72611 0.2525 0.0
S968 S 0.57753 0.72282 0.27853 0.0
N969 N 0.55832 0.72226 0.34047 0.0
N970 N 0.55194 0.72518 0.22614 0.0
C971 C 0.52604 0.72548 0.25826 0.0
C972 C 0.52949 0.72447 0.32025 0.0
C973 C 0.25139 0.49352 0.26206 0.0
C974 C 0.27847 0.49446 0.22974 0.0
C975 C 0.25166 0.49568 0.32333 0.0
C976 C 0.27896 0.49963 0.35404 0.0
H977 H 0.22988 0.491 0.23982 0.0
H978 H 0.23039 0.49433 0.3468 0.0
S979 S 0.356 0.50336 0.28973 0.0
N980 N 0.33338 0.49792 0.23327 0.0
N981 N 0.33362 0.50513 0.34744 0.0
C982 C 0.30611 0.50091 0.32209 0.0
C983 C 0.30592 0.49766 0.26015 0.0
loop_
_geom_bond_atom_site_label_1
_geom_bond_atom_site_label_2
_geom_bond_distance
_geom_bond_site_symmetry_2
_ccdc_geom_bond_type
Co0 O3 1.970 . S
Co0 N17 1.989 1_655 S
Co0 O25 1.967 1_655 S
Co0 O32 1.920 . S
Co1 O4 1.966 . S
Co1 N10 2.022 . S
Co1 N18 1.993 . S
Co1 O26 1.941 . S
C2 O3 1.258 1_455 S
C2 O4 1.263 . S
O3 Co0 1.970 . S
O3 C2 1.258 1_655 S
O4 Co1 1.966 . S
O4 C2 1.263 . S
C5 O6 1.235 . S
C5 O32 1.289 . S
O6 C5 1.235 . S
C7 C9 1.400 . S
C7 N10 1.351 . S
C7 C12 1.501 . S
C8 C9 1.387 . S
C8 N11 1.341 . S
C9 C7 1.400 . S
C9 C8 1.387 . S
N10 Co1 2.022 . S
N10 C7 1.351 . S
N10 N11 1.365 . S
N11 C8 1.341 . S
N11 N10 1.365 . S
N11 H31 0.862 1_554 S
C12 C7 1.501 . S
C12 H13 0.961 . S
C12 H14 0.961 . S
C12 H15 0.960 . S
H13 C12 0.961 . S
H14 C12 0.961 . S
H15 C12 0.960 . S
C16 N17 1.342 1_656 S
C16 C20 1.401 1_655 S
C16 C21 1.499 . S
N17 Co0 1.989 1_455 S
N17 C16 1.342 1_454 S
N17 N18 1.388 . S
N18 Co1 1.993 . S
N18 N17 1.388 . S
N18 C19 1.346 1_554 S
C19 N18 1.346 1_556 S
C19 C20 1.396 . S
C19 C29 1.510 . S
C20 C16 1.401 1_455 S
C20 C19 1.396 . S
C21 C16 1.499 . S
C21 H22 0.959 . S
C21 H23 0.960 . S
C21 H24 0.961 . S
H22 C21 0.959 . S
H23 C21 0.960 . S
H24 C21 0.961 . S
O25 Co0 1.967 1_455 S
O25 C33 1.258 . S
O26 Co1 1.941 . S
O26 C33 1.266 . S
H27 C29 0.959 . S
H28 C29 0.961 . S
C29 C19 1.510 . S
C29 H27 0.959 . S
C29 H28 0.961 . S
C29 H30 0.960 . S
H30 C29 0.960 . S
H31 N11 0.862 1_556 S
O32 Co0 1.920 . S
O32 C5 1.289 . S
C33 O25 1.258 . S
C33 O26 1.266 . S
Co34 O37 1.970 . S
Co34 N51 1.989 1_565 S
Co34 O59 1.967 1_565 S
Co34 O66 1.920 . S
Co35 O38 1.966 . S
Co35 N44 2.022 . S
Co35 N52 1.993 . S
Co35 O60 1.941 . S
C36 O37 1.258 1_545 S
C36 O38 1.263 . S
O37 Co34 1.970 . S
O37 C36 1.258 1_565 S
O38 Co35 1.966 . S
O38 C36 1.263 . S
C39 O40 1.235 . S
C39 O66 1.289 . S
O40 C39 1.235 . S
C41 C43 1.400 . S
C41 N44 1.351 . S
C41 C46 1.501 . S
C42 C43 1.387 . S
C42 N45 1.341 . S
C43 C41 1.400 . S
C43 C42 1.387 . S
N44 Co35 2.022 . S
N44 C41 1.351 . S
N44 N45 1.365 . S
N45 C42 1.341 . S
N45 N44 1.365 . S
N45 H65 0.862 1_554 S
C46 C41 1.501 . S
C46 H47 0.961 . S
C46 H48 0.961 . S
C46 H49 0.960 . S
H47 C46 0.961 . S
H48 C46 0.961 . S
H49 C46 0.960 . S
C50 N51 1.342 1_566 S
C50 C54 1.401 1_565 S
C50 C55 1.499 . S
N51 Co34 1.989 1_545 S
N51 C50 1.342 1_544 S
N51 N52 1.388 . S
N52 Co35 1.993 . S
N52 N51 1.388 . S
N52 C53 1.346 1_554 S
C53 N52 1.346 1_556 S
C53 C54 1.396 . S
C53 C63 1.510 . S
C54 C50 1.401 1_545 S
C54 C53 1.396 . S
C55 C50 1.499 . S
C55 H56 0.959 . S
C55 H57 0.960 . S
C55 H58 0.961 . S
H56 C55 0.959 . S
H57 C55 0.960 . S
H58 C55 0.961 . S
O59 Co34 1.967 1_545 S
O59 C67 1.258 . S
O60 Co35 1.941 . S
O60 C67 1.266 . S
H61 C63 0.959 . S
H62 C63 0.961 . S
C63 C53 1.510 . S
C63 H61 0.959 . S
C63 H62 0.961 . S
C63 H64 0.960 . S
H64 C63 0.960 . S
H65 N45 0.862 1_556 S
O66 Co34 1.920 . S
O66 C39 1.289 . S
C67 O59 1.258 . S
C67 O60 1.266 . S
Co68 O71 1.970 . S
Co68 N85 1.989 1_455 S
Co68 O93 1.967 1_455 S
Co68 O100 1.920 . S
Co69 O72 1.966 . S
Co69 N78 2.022 . S
Co69 N86 1.993 . S
Co69 O94 1.941 . S
C70 O71 1.258 1_655 S
C70 O72 1.263 . S
O71 Co68 1.970 . S
O71 C70 1.258 1_455 S
O72 Co69 1.966 . S
O72 C70 1.263 . S
C73 O74 1.235 . S
C73 O100 1.289 . S
O74 C73 1.235 . S
C75 C77 1.400 . S
C75 N78 1.351 . S
C75 C80 1.501 . S
C76 C77 1.387 . S
C76 N79 1.341 . S
C77 C75 1.400 . S
C77 C76 1.387 . S
N78 Co69 2.022 . S
N78 C75 1.351 . S
N78 N79 1.365 . S
N79 C76 1.341 . S
N79 N78 1.365 . S
N79 H99 0.862 1_554 S
C80 C75 1.501 . S
C80 H81 0.961 . S
C80 H82 0.961 . S
C80 H83 0.960 . S
H81 C80 0.961 . S
H82 C80 0.961 . S
H83 C80 0.960 . S
C84 N85 1.342 1_456 S
C84 C88 1.401 1_455 S
C84 C89 1.499 . S
N85 Co68 1.989 1_655 S
N85 C84 1.342 1_654 S
N85 N86 1.388 . S
N86 Co69 1.993 . S
N86 N85 1.388 . S
N86 C87 1.346 1_554 S
C87 N86 1.346 1_556 S
C87 C88 1.396 . S
C87 C97 1.510 . S
C88 C84 1.401 1_655 S
C88 C87 1.396 . S
C89 C84 1.499 . S
C89 H90 0.959 . S
C89 H91 0.960 . S
C89 H92 0.961 . S
H90 C89 0.959 . S
H91 C89 0.960 . S
H92 C89 0.961 . S
O93 Co68 1.967 1_655 S
O93 C101 1.258 . S
O94 Co69 1.941 . S
O94 C101 1.266 . S
H95 C97 0.959 . S
H96 C97 0.961 . S
C97 C87 1.510 . S
C97 H95 0.959 . S
C97 H96 0.961 . S
C97 H98 0.960 . S
H98 C97 0.960 . S
H99 N79 0.862 1_556 S
O100 Co68 1.920 . S
O100 C73 1.289 . S
C101 O93 1.258 . S
C101 O94 1.266 . S
Co102 O105 1.970 . S
Co102 N119 1.989 1_545 S
Co102 O127 1.967 1_545 S
Co102 O134 1.920 . S
Co103 O106 1.966 . S
Co103 N112 2.022 . S
Co103 N120 1.993 . S
Co103 O128 1.941 . S
C104 O105 1.258 1_565 S
C104 O106 1.263 . S
O105 Co102 1.970 . S
O105 C104 1.258 1_545 S
O106 Co103 1.966 . S
O106 C104 1.263 . S
C107 O108 1.235 . S
C107 O134 1.289 . S
O108 C107 1.235 . S
C109 C111 1.400 . S
C109 N112 1.351 . S
C109 C114 1.501 . S
C110 C111 1.387 . S
C110 N113 1.341 . S
C111 C109 1.400 . S
C111 C110 1.387 . S
N112 Co103 2.022 . S
N112 C109 1.351 . S
N112 N113 1.365 . S
N113 C110 1.341 . S
N113 N112 1.365 . S
N113 H133 0.862 1_554 S
C114 C109 1.501 . S
C114 H115 0.961 . S
C114 H116 0.961 . S
C114 H117 0.960 . S
H115 C114 0.961 . S
H116 C114 0.961 . S
H117 C114 0.960 . S
C118 N119 1.342 1_546 S
C118 C122 1.401 1_545 S
C118 C123 1.499 . S
N119 Co102 1.989 1_565 S
N119 C118 1.342 1_564 S
N119 N120 1.388 . S
N120 Co103 1.993 . S
N120 N119 1.388 . S
N120 C121 1.346 1_554 S
C121 N120 1.346 1_556 S
C121 C122 1.396 . S
C121 C131 1.510 . S
C122 C118 1.401 1_565 S
C122 C121 1.396 . S
C123 C118 1.499 . S
C123 H124 0.959 . S
C123 H125 0.960 . S
C123 H126 0.961 . S
H124 C123 0.959 . S
H125 C123 0.960 . S
H126 C123 0.961 . S
O127 Co102 1.967 1_565 S
O127 C135 1.258 . S
O128 Co103 1.941 . S
O128 C135 1.266 . S
H129 C131 0.959 . S
H130 C131 0.961 . S
C131 C121 1.510 . S
C131 H129 0.959 . S
C131 H130 0.961 . S
C131 H132 0.960 . S
H132 C131 0.960 . S
H133 N113 0.862 1_556 S
O134 Co102 1.920 . S
O134 C107 1.289 . S
C135 O127 1.258 . S
C135 O128 1.266 . S
Co136 O139 1.970 . S
Co136 N153 1.989 1_655 S
Co136 O161 1.967 1_655 S
Co136 O168 1.920 . S
Co137 O140 1.966 . S
Co137 N146 2.022 . S
Co137 N154 1.993 . S
Co137 O162 1.941 . S
C138 O139 1.258 1_455 S
C138 O140 1.263 . S
O139 Co136 1.970 . S
O139 C138 1.258 1_655 S
O140 Co137 1.966 . S
O140 C138 1.263 . S
C141 O142 1.235 . S
C141 O168 1.289 . S
O142 C141 1.235 . S
C143 C145 1.400 . S
C143 N146 1.351 . S
C143 C148 1.501 . S
C144 C145 1.387 . S
C144 N147 1.341 . S
C145 C143 1.400 . S
C145 C144 1.387 . S
N146 Co137 2.022 . S
N146 C143 1.351 . S
N146 N147 1.365 . S
N147 C144 1.341 . S
N147 N146 1.365 . S
N147 H167 0.862 . S
C148 C143 1.501 . S
C148 H149 0.961 . S
C148 H150 0.961 . S
C148 H151 0.960 . S
H149 C148 0.961 . S
H150 C148 0.961 . S
H151 C148 0.960 . S
C152 N153 1.342 1_655 S
C152 C156 1.401 1_655 S
C152 C157 1.499 . S
N153 Co136 1.989 1_455 S
N153 C152 1.342 1_455 S
N153 N154 1.388 . S
N154 Co137 1.993 . S
N154 N153 1.388 . S
N154 C155 1.346 . S
C155 N154 1.346 . S
C155 C156 1.396 . S
C155 C165 1.510 . S
C156 C152 1.401 1_455 S
C156 C155 1.396 . S
C157 C152 1.499 . S
C157 H158 0.959 . S
C157 H159 0.960 . S
C157 H160 0.961 . S
H158 C157 0.959 . S
H159 C157 0.960 . S
H160 C157 0.961 . S
O161 Co136 1.967 1_455 S
O161 C169 1.258 . S
O162 Co137 1.941 . S
O162 C169 1.266 . S
H163 C165 0.959 . S
H164 C165 0.961 . S
C165 C155 1.510 . S
C165 H163 0.959 . S
C165 H164 0.961 . S
C165 H166 0.960 . S
H166 C165 0.960 . S
H167 N147 0.862 . S
O168 Co136 1.920 . S
O168 C141 1.289 . S
C169 O161 1.258 . S
C169 O162 1.266 . S
Co170 O173 1.970 . S
Co170 N187 1.989 1_565 S
Co170 O195 1.967 1_565 S
Co170 O202 1.920 . S
Co171 O174 1.966 . S
Co171 N180 2.022 . S
Co171 N188 1.993 . S
Co171 O196 1.941 . S
C172 O173 1.258 1_545 S
C172 O174 1.263 . S
O173 Co170 1.970 . S
O173 C172 1.258 1_565 S
O174 Co171 1.966 . S
O174 C172 1.263 . S
C175 O176 1.235 . S
C175 O202 1.289 . S
O176 C175 1.235 . S
C177 C179 1.400 . S
C177 N180 1.351 . S
C177 C182 1.501 . S
C178 C179 1.387 . S
C178 N181 1.341 . S
C179 C177 1.400 . S
C179 C178 1.387 . S
N180 Co171 2.022 . S
N180 C177 1.351 . S
N180 N181 1.365 . S
N181 C178 1.341 . S
N181 N180 1.365 . S
N181 H201 0.862 . S
C182 C177 1.501 . S
C182 H183 0.961 . S
C182 H184 0.961 . S
C182 H185 0.960 . S
H183 C182 0.961 . S
H184 C182 0.961 . S
H185 C182 0.960 . S
C186 N187 1.342 1_565 S
C186 C190 1.401 1_565 S
C186 C191 1.499 . S
N187 Co170 1.989 1_545 S
N187 C186 1.342 1_545 S
N187 N188 1.388 . S
N188 Co171 1.993 . S
N188 N187 1.388 . S
N188 C189 1.346 . S
C189 N188 1.346 . S
C189 C190 1.396 . S
C189 C199 1.510 . S
C190 C186 1.401 1_545 S
C190 C189 1.396 . S
C191 C186 1.499 . S
C191 H192 0.959 . S
C191 H193 0.960 . S
C191 H194 0.961 . S
H192 C191 0.959 . S
H193 C191 0.960 . S
H194 C191 0.961 . S
O195 Co170 1.967 1_545 S
O195 C203 1.258 . S
O196 Co171 1.941 . S
O196 C203 1.266 . S
H197 C199 0.959 . S
H198 C199 0.961 . S
C199 C189 1.510 . S
C199 H197 0.959 . S
C199 H198 0.961 . S
C199 H200 0.960 . S
H200 C199 0.960 . S
H201 N181 0.862 . S
O202 Co170 1.920 . S
O202 C175 1.289 . S
C203 O195 1.258 . S
C203 O196 1.266 . S
Co204 O207 1.970 . S
Co204 N221 1.989 1_455 S
Co204 O229 1.967 1_455 S
Co204 O236 1.920 . S
Co205 O208 1.966 . S
Co205 N214 2.022 . S
Co205 N222 1.993 . S
Co205 O230 1.941 . S
C206 O207 1.258 1_655 S
C206 O208 1.263 . S
O207 Co204 1.970 . S
O207 C206 1.258 1_455 S
O208 Co205 1.966 . S
O208 C206 1.263 . S
C209 O210 1.235 . S
C209 O236 1.289 . S
O210 C209 1.235 . S
C211 C213 1.400 . S
C211 N214 1.351 . S
C211 C216 1.501 . S
C212 C213 1.387 . S
C212 N215 1.341 . S
C213 C211 1.400 . S
C213 C212 1.387 . S
N214 Co205 2.022 . S
N214 C211 1.351 . S
N214 N215 1.365 . S
N215 C212 1.341 . S
N215 N214 1.365 . S
N215 H235 0.862 . S
C216 C211 1.501 . S
C216 H217 0.961 . S
C216 H218 0.961 . S
C216 H219 0.960 . S
H217 C216 0.961 . S
H218 C216 0.961 . S
H219 C216 0.960 . S
C220 N221 1.342 1_455 S
C220 C224 1.401 1_455 S
C220 C225 1.499 . S
N221 Co204 1.989 1_655 S
N221 C220 1.342 1_655 S
N221 N222 1.388 . S
N222 Co205 1.993 . S
N222 N221 1.388 . S
N222 C223 1.346 . S
C223 N222 1.346 . S
C223 C224 1.396 . S
C223 C233 1.510 . S
C224 C220 1.401 1_655 S
C224 C223 1.396 . S
C225 C220 1.499 . S
C225 H226 0.959 . S
C225 H227 0.960 . S
C225 H228 0.961 . S
H226 C225 0.959 . S
H227 C225 0.960 . S
H228 C225 0.961 . S
O229 Co204 1.967 1_655 S
O229 C237 1.258 . S
O230 Co205 1.941 . S
O230 C237 1.266 . S
H231 C233 0.959 . S
H232 C233 0.961 . S
C233 C223 1.510 . S
C233 H231 0.959 . S
C233 H232 0.961 . S
C233 H234 0.960 . S
H234 C233 0.960 . S
H235 N215 0.862 . S
O236 Co204 1.920 . S
O236 C209 1.289 . S
C237 O229 1.258 . S
C237 O230 1.266 . S
Co238 O241 1.970 . S
Co238 N255 1.989 1_545 S
Co238 O263 1.967 1_545 S
Co238 O270 1.920 . S
Co239 O242 1.966 . S
Co239 N248 2.022 . S
Co239 N256 1.993 . S
Co239 O264 1.941 . S
C240 O241 1.258 1_565 S
C240 O242 1.263 . S
O241 Co238 1.970 . S
O241 C240 1.258 1_545 S
O242 Co239 1.966 . S
O242 C240 1.263 . S
C243 O244 1.235 . S
C243 O270 1.289 . S
O244 C243 1.235 . S
C245 C247 1.400 . S
C245 N248 1.351 . S
C245 C250 1.501 . S
C246 C247 1.387 . S
C246 N249 1.341 . S
C247 C245 1.400 . S
C247 C246 1.387 . S
N248 Co239 2.022 . S
N248 C245 1.351 . S
N248 N249 1.365 . S
N249 C246 1.341 . S
N249 N248 1.365 . S
N249 H269 0.862 . S
C250 C245 1.501 . S
C250 H251 0.961 . S
C250 H252 0.961 . S
C250 H253 0.960 . S
H251 C250 0.961 . S
H252 C250 0.961 . S
H253 C250 0.960 . S
C254 N255 1.342 1_545 S
C254 C258 1.401 1_545 S
C254 C259 1.499 . S
N255 Co238 1.989 1_565 S
N255 C254 1.342 1_565 S
N255 N256 1.388 . S
N256 Co239 1.993 . S
N256 N255 1.388 . S
N256 C257 1.346 . S
C257 N256 1.346 . S
C257 C258 1.396 . S
C257 C267 1.510 . S
C258 C254 1.401 1_565 S
C258 C257 1.396 . S
C259 C254 1.499 . S
C259 H260 0.959 . S
C259 H261 0.960 . S
C259 H262 0.961 . S
H260 C259 0.959 . S
H261 C259 0.960 . S
H262 C259 0.961 . S
O263 Co238 1.967 1_565 S
O263 C271 1.258 . S
O264 Co239 1.941 . S
O264 C271 1.266 . S
H265 C267 0.959 . S
H266 C267 0.961 . S
C267 C257 1.510 . S
C267 H265 0.959 . S
C267 H266 0.961 . S
C267 H268 0.960 . S
H268 C267 0.960 . S
H269 N249 0.862 . S
O270 Co238 1.920 . S
O270 C243 1.289 . S
C271 O263 1.258 . S
C271 O264 1.266 . S
Co272 O275 1.970 . S
Co272 N289 1.989 . S
Co272 O297 1.967 . S
Co272 O304 1.920 . S
Co273 O276 1.966 . S
Co273 N282 2.022 . S
Co273 N290 1.993 . S
Co273 O298 1.941 . S
C274 O275 1.258 . S
C274 O276 1.263 . S
O275 Co272 1.970 . S
O275 C274 1.258 . S
O276 Co273 1.966 . S
O276 C274 1.263 . S
C277 O278 1.235 . S
C277 O304 1.289 . S
O278 C277 1.235 . S
C279 C281 1.400 . S
C279 N282 1.351 . S
C279 C284 1.501 . S
C280 C281 1.387 . S
C280 N283 1.341 . S
C281 C279 1.400 . S
C281 C280 1.387 . S
N282 Co273 2.022 . S
N282 C279 1.351 . S
N282 N283 1.365 . S
N283 C280 1.341 . S
N283 N282 1.365 . S
N283 H303 0.862 . S
C284 C279 1.501 . S
C284 H285 0.961 . S
C284 H286 0.961 . S
C284 H287 0.960 . S
H285 C284 0.961 . S
H286 C284 0.961 . S
H287 C284 0.960 . S
C288 N289 1.342 . S
C288 C292 1.401 . S
C288 C293 1.499 . S
N289 Co272 1.989 . S
N289 C288 1.342 . S
N289 N290 1.388 . S
N290 Co273 1.993 . S
N290 N289 1.388 . S
N290 C291 1.346 . S
C291 N290 1.346 . S
C291 C292 1.396 . S
C291 C301 1.510 . S
C292 C288 1.401 . S
C292 C291 1.396 . S
C293 C288 1.499 . S
C293 H294 0.959 . S
C293 H295 0.960 . S
C293 H296 0.961 . S
H294 C293 0.959 . S
H295 C293 0.960 . S
H296 C293 0.961 . S
O297 Co272 1.967 . S
O297 C305 1.258 . S
O298 Co273 1.941 . S
O298 C305 1.266 . S
H299 C301 0.959 . S
H300 C301 0.961 . S
C301 C291 1.510 . S
C301 H299 0.959 . S
C301 H300 0.961 . S
C301 H302 0.960 . S
H302 C301 0.960 . S
H303 N283 0.862 . S
O304 Co272 1.920 . S
O304 C277 1.289 . S
C305 O297 1.258 . S
C305 O298 1.266 . S
Co306 O309 1.970 . S
Co306 N323 1.989 . S
Co306 O331 1.967 . S
Co306 O338 1.920 . S
Co307 O310 1.966 . S
Co307 N316 2.022 . S
Co307 N324 1.993 . S
Co307 O332 1.941 . S
C308 O309 1.258 . S
C308 O310 1.263 . S
O309 Co306 1.970 . S
O309 C308 1.258 . S
O310 Co307 1.966 . S
O310 C308 1.263 . S
C311 O312 1.235 . S
C311 O338 1.289 . S
O312 C311 1.235 . S
C313 C315 1.400 . S
C313 N316 1.351 . S
C313 C318 1.501 . S
C314 C315 1.387 . S
C314 N317 1.341 . S
C315 C313 1.400 . S
C315 C314 1.387 . S
N316 Co307 2.022 . S
N316 C313 1.351 . S
N316 N317 1.365 . S
N317 C314 1.341 . S
N317 N316 1.365 . S
N317 H337 0.862 . S
C318 C313 1.501 . S
C318 H319 0.961 . S
C318 H320 0.961 . S
C318 H321 0.960 . S
H319 C318 0.961 . S
H320 C318 0.961 . S
H321 C318 0.960 . S
C322 N323 1.342 . S
C322 C326 1.401 . S
C322 C327 1.499 . S
N323 Co306 1.989 . S
N323 C322 1.342 . S
N323 N324 1.388 . S
N324 Co307 1.993 . S
N324 N323 1.388 . S
N324 C325 1.346 . S
C325 N324 1.346 . S
C325 C326 1.396 . S
C325 C335 1.510 . S
C326 C322 1.401 . S
C326 C325 1.396 . S
C327 C322 1.499 . S
C327 H328 0.959 . S
C327 H329 0.960 . S
C327 H330 0.961 . S
H328 C327 0.959 . S
H329 C327 0.960 . S
H330 C327 0.961 . S
O331 Co306 1.967 . S
O331 C339 1.258 . S
O332 Co307 1.941 . S
O332 C339 1.266 . S
H333 C335 0.959 . S
H334 C335 0.961 . S
C335 C325 1.510 . S
C335 H333 0.959 . S
C335 H334 0.961 . S
C335 H336 0.960 . S
H336 C335 0.960 . S
H337 N317 0.862 . S
O338 Co306 1.920 . S
O338 C311 1.289 . S
C339 O331 1.258 . S
C339 O332 1.266 . S
Co340 O343 1.970 . S
Co340 N357 1.989 . S
Co340 O365 1.967 . S
Co340 O372 1.920 . S
Co341 O344 1.966 . S
Co341 N350 2.022 . S
Co341 N358 1.993 . S
Co341 O366 1.941 . S
C342 O343 1.258 . S
C342 O344 1.263 . S
O343 Co340 1.970 . S
O343 C342 1.258 . S
O344 Co341 1.966 . S
O344 C342 1.263 . S
C345 O346 1.235 . S
C345 O372 1.289 . S
O346 C345 1.235 . S
C347 C349 1.400 . S
C347 N350 1.351 . S
C347 C352 1.501 . S
C348 C349 1.387 . S
C348 N351 1.341 . S
C349 C347 1.400 . S
C349 C348 1.387 . S
N350 Co341 2.022 . S
N350 C347 1.351 . S
N350 N351 1.365 . S
N351 C348 1.341 . S
N351 N350 1.365 . S
N351 H371 0.862 . S
C352 C347 1.501 . S
C352 H353 0.961 . S
C352 H354 0.961 . S
C352 H355 0.960 . S
H353 C352 0.961 . S
H354 C352 0.961 . S
H355 C352 0.960 . S
C356 N357 1.342 . S
C356 C360 1.401 . S
C356 C361 1.499 . S
N357 Co340 1.989 . S
N357 C356 1.342 . S
N357 N358 1.388 . S
N358 Co341 1.993 . S
N358 N357 1.388 . S
N358 C359 1.346 . S
C359 N358 1.346 . S
C359 C360 1.396 . S
C359 C369 1.510 . S
C360 C356 1.401 . S
C360 C359 1.396 . S
C361 C356 1.499 . S
C361 H362 0.959 . S
C361 H363 0.960 . S
C361 H364 0.961 . S
H362 C361 0.959 . S
H363 C361 0.960 . S
H364 C361 0.961 . S
O365 Co340 1.967 . S
O365 C373 1.258 . S
O366 Co341 1.941 . S
O366 C373 1.266 . S
H367 C369 0.959 . S
H368 C369 0.961 . S
C369 C359 1.510 . S
C369 H367 0.959 . S
C369 H368 0.961 . S
C369 H370 0.960 . S
H370 C369 0.960 . S
H371 N351 0.862 . S
O372 Co340 1.920 . S
O372 C345 1.289 . S
C373 O365 1.258 . S
C373 O366 1.266 . S
Co374 O377 1.970 . S
Co374 N391 1.989 . S
Co374 O399 1.967 . S
Co374 O406 1.920 . S
Co375 O378 1.966 . S
Co375 N384 2.022 . S
Co375 N392 1.993 . S
Co375 O400 1.941 . S
C376 O377 1.258 . S
C376 O378 1.263 . S
O377 Co374 1.970 . S
O377 C376 1.258 . S
O378 Co375 1.966 . S
O378 C376 1.263 . S
C379 O380 1.235 . S
C379 O406 1.289 . S
O380 C379 1.235 . S
C381 C383 1.400 . S
C381 N384 1.351 . S
C381 C386 1.501 . S
C382 C383 1.387 . S
C382 N385 1.341 . S
C383 C381 1.400 . S
C383 C382 1.387 . S
N384 Co375 2.022 . S
N384 C381 1.351 . S
N384 N385 1.365 . S
N385 C382 1.341 . S
N385 N384 1.365 . S
N385 H405 0.862 . S
C386 C381 1.501 . S
C386 H387 0.961 . S
C386 H388 0.961 . S
C386 H389 0.960 . S
H387 C386 0.961 . S
H388 C386 0.961 . S
H389 C386 0.960 . S
C390 N391 1.342 . S
C390 C394 1.401 . S
C390 C395 1.499 . S
N391 Co374 1.989 . S
N391 C390 1.342 . S
N391 N392 1.388 . S
N392 Co375 1.993 . S
N392 N391 1.388 . S
N392 C393 1.346 . S
C393 N392 1.346 . S
C393 C394 1.396 . S
C393 C403 1.510 . S
C394 C390 1.401 . S
C394 C393 1.396 . S
C395 C390 1.499 . S
C395 H396 0.959 . S
C395 H397 0.960 . S
C395 H398 0.961 . S
H396 C395 0.959 . S
H397 C395 0.960 . S
H398 C395 0.961 . S
O399 Co374 1.967 . S
O399 C407 1.258 . S
O400 Co375 1.941 . S
O400 C407 1.266 . S
H401 C403 0.959 . S
H402 C403 0.961 . S
C403 C393 1.510 . S
C403 H401 0.959 . S
C403 H402 0.961 . S
C403 H404 0.960 . S
H404 C403 0.960 . S
H405 N385 0.862 . S
O406 Co374 1.920 . S
O406 C379 1.289 . S
C407 O399 1.258 . S
C407 O400 1.266 . S
Co408 O411 1.970 1_554 S
Co408 N425 1.989 . S
Co408 O433 1.967 1_554 S
Co408 O440 1.920 . S
Co409 O412 1.966 1_554 S
Co409 N418 2.022 . S
Co409 N426 1.993 . S
Co409 O434 1.941 . S
C410 O411 1.258 . S
C410 O412 1.263 . S
O411 Co408 1.970 1_556 S
O411 C410 1.258 . S
O412 Co409 1.966 1_556 S
O412 C410 1.263 . S
C413 O414 1.235 . S
C413 O440 1.289 . S
O414 C413 1.235 . S
C415 C417 1.400 1_556 S
C415 N418 1.351 1_556 S
C415 C420 1.501 . S
C416 C417 1.387 . S
C416 N419 1.341 . S
C417 C415 1.400 1_554 S
C417 C416 1.387 . S
N418 Co409 2.022 . S
N418 C415 1.351 1_554 S
N418 N419 1.365 . S
N419 C416 1.341 . S
N419 N418 1.365 . S
N419 H439 0.862 . S
C420 C415 1.501 . S
C420 H421 0.961 . S
C420 H422 0.961 . S
C420 H423 0.960 . S
H421 C420 0.961 . S
H422 C420 0.961 . S
H423 C420 0.960 . S
C424 N425 1.342 . S
C424 C428 1.401 . S
C424 C429 1.499 . S
N425 Co408 1.989 . S
N425 C424 1.342 . S
N425 N426 1.388 . S
N426 Co409 1.993 . S
N426 N425 1.388 . S
N426 C427 1.346 . S
C427 N426 1.346 . S
C427 C428 1.396 . S
C427 C437 1.510 . S
C428 C424 1.401 . S
C428 C427 1.396 . S
C429 C424 1.499 . S
C429 H430 0.959 . S
C429 H431 0.960 . S
C429 H432 0.961 . S
H430 C429 0.959 . S
H431 C429 0.960 . S
H432 C429 0.961 . S
O433 Co408 1.967 1_556 S
O433 C441 1.258 . S
O434 Co409 1.941 . S
O434 C441 1.266 1_554 S
H435 C437 0.959 . S
H436 C437 0.961 . S
C437 C427 1.510 . S
C437 H435 0.959 . S
C437 H436 0.961 . S
C437 H438 0.960 . S
H438 C437 0.960 . S
H439 N419 0.862 . S
O440 Co408 1.920 . S
O440 C413 1.289 . S
C441 O433 1.258 . S
C441 O434 1.266 1_556 S
Co442 O445 1.970 1_554 S
Co442 N459 1.989 . S
Co442 O467 1.967 1_554 S
Co442 O474 1.920 . S
Co443 O446 1.966 1_554 S
Co443 N452 2.022 . S
Co443 N460 1.993 . S
Co443 O468 1.941 . S
C444 O445 1.258 . S
C444 O446 1.263 . S
O445 Co442 1.970 1_556 S
O445 C444 1.258 . S
O446 Co443 1.966 1_556 S
O446 C444 1.263 . S
C447 O448 1.235 . S
C447 O474 1.289 . S
O448 C447 1.235 . S
C449 C451 1.400 1_556 S
C449 N452 1.351 1_556 S
C449 C454 1.501 . S
C450 C451 1.387 . S
C450 N453 1.341 . S
C451 C449 1.400 1_554 S
C451 C450 1.387 . S
N452 Co443 2.022 . S
N452 C449 1.351 1_554 S
N452 N453 1.365 . S
N453 C450 1.341 . S
N453 N452 1.365 . S
N453 H473 0.862 . S
C454 C449 1.501 . S
C454 H455 0.961 . S
C454 H456 0.961 . S
C454 H457 0.960 . S
H455 C454 0.961 . S
H456 C454 0.961 . S
H457 C454 0.960 . S
C458 N459 1.342 . S
C458 C462 1.401 . S
C458 C463 1.499 . S
N459 Co442 1.989 . S
N459 C458 1.342 . S
N459 N460 1.388 . S
N460 Co443 1.993 . S
N460 N459 1.388 . S
N460 C461 1.346 . S
C461 N460 1.346 . S
C461 C462 1.396 . S
C461 C471 1.510 . S
C462 C458 1.401 . S
C462 C461 1.396 . S
C463 C458 1.499 . S
C463 H464 0.959 . S
C463 H465 0.960 . S
C463 H466 0.961 . S
H464 C463 0.959 . S
H465 C463 0.960 . S
H466 C463 0.961 . S
O467 Co442 1.967 1_556 S
O467 C475 1.258 . S
O468 Co443 1.941 . S
O468 C475 1.266 1_554 S
H469 C471 0.959 . S
H470 C471 0.961 . S
C471 C461 1.510 . S
C471 H469 0.959 . S
C471 H470 0.961 . S
C471 H472 0.960 . S
H472 C471 0.960 . S
H473 N453 0.862 . S
O474 Co442 1.920 . S
O474 C447 1.289 . S
C475 O467 1.258 . S
C475 O468 1.266 1_556 S
Co476 O479 1.970 1_554 S
Co476 N493 1.989 . S
Co476 O501 1.967 1_554 S
Co476 O508 1.920 . S
Co477 O480 1.966 1_554 S
Co477 N486 2.022 . S
Co477 N494 1.993 . S
Co477 O502 1.941 . S
C478 O479 1.258 . S
C478 O480 1.263 . S
O479 Co476 1.970 1_556 S
O479 C478 1.258 . S
O480 Co477 1.966 1_556 S
O480 C478 1.263 . S
C481 O482 1.235 . S
C481 O508 1.289 . S
O482 C481 1.235 . S
C483 C485 1.400 1_556 S
C483 N486 1.351 1_556 S
C483 C488 1.501 . S
C484 C485 1.387 . S
C484 N487 1.341 . S
C485 C483 1.400 1_554 S
C485 C484 1.387 . S
N486 Co477 2.022 . S
N486 C483 1.351 1_554 S
N486 N487 1.365 . S
N487 C484 1.341 . S
N487 N486 1.365 . S
N487 H507 0.862 . S
C488 C483 1.501 . S
C488 H489 0.961 . S
C488 H490 0.961 . S
C488 H491 0.960 . S
H489 C488 0.961 . S
H490 C488 0.961 . S
H491 C488 0.960 . S
C492 N493 1.342 . S
C492 C496 1.401 . S
C492 C497 1.499 . S
N493 Co476 1.989 . S
N493 C492 1.342 . S
N493 N494 1.388 . S
N494 Co477 1.993 . S
N494 N493 1.388 . S
N494 C495 1.346 . S
C495 N494 1.346 . S
C495 C496 1.396 . S
C495 C505 1.510 . S
C496 C492 1.401 . S
C496 C495 1.396 . S
C497 C492 1.499 . S
C497 H498 0.959 . S
C497 H499 0.960 . S
C497 H500 0.961 . S
H498 C497 0.959 . S
H499 C497 0.960 . S
H500 C497 0.961 . S
O501 Co476 1.967 1_556 S
O501 C509 1.258 . S
O502 Co477 1.941 . S
O502 C509 1.266 1_554 S
H503 C505 0.959 . S
H504 C505 0.961 . S
C505 C495 1.510 . S
C505 H503 0.959 . S
C505 H504 0.961 . S
C505 H506 0.960 . S
H506 C505 0.960 . S
H507 N487 0.862 . S
O508 Co476 1.920 . S
O508 C481 1.289 . S
C509 O501 1.258 . S
C509 O502 1.266 1_556 S
Co510 O513 1.970 1_554 S
Co510 N527 1.989 . S
Co510 O535 1.967 1_554 S
Co510 O542 1.920 . S
Co511 O514 1.966 1_554 S
Co511 N520 2.022 . S
Co511 N528 1.993 . S
Co511 O536 1.941 . S
C512 O513 1.258 . S
C512 O514 1.263 . S
O513 Co510 1.970 1_556 S
O513 C512 1.258 . S
O514 Co511 1.966 1_556 S
O514 C512 1.263 . S
C515 O516 1.235 . S
C515 O542 1.289 . S
O516 C515 1.235 . S
C517 C519 1.400 1_556 S
C517 N520 1.351 1_556 S
C517 C522 1.501 . S
C518 C519 1.387 . S
C518 N521 1.341 . S
C519 C517 1.400 1_554 S
C519 C518 1.387 . S
N520 Co511 2.022 . S
N520 C517 1.351 1_554 S
N520 N521 1.365 . S
N521 C518 1.341 . S
N521 N520 1.365 . S
N521 H541 0.862 . S
C522 C517 1.501 . S
C522 H523 0.961 . S
C522 H524 0.961 . S
C522 H525 0.960 . S
H523 C522 0.961 . S
H524 C522 0.961 . S
H525 C522 0.960 . S
C526 N527 1.342 . S
C526 C530 1.401 . S
C526 C531 1.499 . S
N527 Co510 1.989 . S
N527 C526 1.342 . S
N527 N528 1.388 . S
N528 Co511 1.993 . S
N528 N527 1.388 . S
N528 C529 1.346 . S
C529 N528 1.346 . S
C529 C530 1.396 . S
C529 C539 1.510 . S
C530 C526 1.401 . S
C530 C529 1.396 . S
C531 C526 1.499 . S
C531 H532 0.959 . S
C531 H533 0.960 . S
C531 H534 0.961 . S
H532 C531 0.959 . S
H533 C531 0.960 . S
H534 C531 0.961 . S
O535 Co510 1.967 1_556 S
O535 C543 1.258 . S
O536 Co511 1.941 . S
O536 C543 1.266 1_554 S
H537 C539 0.959 . S
H538 C539 0.961 . S
C539 C529 1.510 . S
C539 H537 0.959 . S
C539 H538 0.961 . S
C539 H540 0.960 . S
H540 C539 0.960 . S
H541 N521 0.862 . S
O542 Co510 1.920 . S
O542 C515 1.289 . S
C543 O535 1.258 . S
C543 O536 1.266 1_556 S
C544 C545 1.369 . S
C544 C546 1.419 . S
C544 H548 0.930 . S
C545 C544 1.369 . S
C545 C554 1.429 1_554 S
C546 C544 1.419 . S
C546 C547 1.363 . S
C546 H549 0.929 . S
C547 C546 1.363 . S
C547 C553 1.428 1_554 S
H548 C544 0.930 . S
H549 C546 0.929 . S
S550 N551 1.613 . S
S550 N552 1.610 . S
N551 S550 1.613 . S
N551 C554 1.350 . S
N552 S550 1.610 . S
N552 C553 1.351 . S
C553 C547 1.428 1_556 S
C553 N552 1.351 . S
C553 C554 1.434 . S
C554 C545 1.429 1_556 S
C554 N551 1.350 . S
C554 C553 1.434 . S
C555 C556 1.369 . S
C555 C557 1.419 . S
C555 H559 0.930 . S
C556 C555 1.369 . S
C556 C565 1.429 . S
C557 C555 1.419 . S
C557 C558 1.363 . S
C557 H560 0.929 . S
C558 C557 1.363 . S
C558 C564 1.428 . S
H559 C555 0.930 . S
H560 C557 0.929 . S
S561 N562 1.613 . S
S561 N563 1.610 . S
N562 S561 1.613 . S
N562 C565 1.350 1_556 S
N563 S561 1.610 . S
N563 C564 1.351 1_556 S
C564 C558 1.428 . S
C564 N563 1.351 1_554 S
C564 C565 1.434 . S
C565 C556 1.429 . S
C565 N562 1.350 1_554 S
C565 C564 1.434 . S
C566 C567 1.369 1_556 S
C566 C568 1.419 . S
C566 H570 0.930 . S
C567 C566 1.369 1_554 S
C567 C576 1.429 . S
C568 C566 1.419 . S
C568 C569 1.363 1_556 S
C568 H571 0.929 . S
C569 C568 1.363 1_554 S
C569 C575 1.428 . S
H570 C566 0.930 . S
H571 C568 0.929 . S
S572 N573 1.613 . S
S572 N574 1.610 . S
N573 S572 1.613 . S
N573 C576 1.350 . S
N574 S572 1.610 . S
N574 C575 1.351 . S
C575 C569 1.428 . S
C575 N574 1.351 . S
C575 C576 1.434 . S
C576 C567 1.429 . S
C576 N573 1.350 . S
C576 C575 1.434 . S
C577 C578 1.369 . S
C577 C579 1.419 . S
C577 H581 0.930 . S
C578 C577 1.369 . S
C578 C587 1.429 . S
C579 C577 1.419 . S
C579 C580 1.363 . S
C579 H582 0.929 . S
C580 C579 1.363 . S
C580 C586 1.428 . S
H581 C577 0.930 . S
H582 C579 0.929 . S
S583 N584 1.613 . S
S583 N585 1.610 . S
N584 S583 1.613 . S
N584 C587 1.350 . S
N585 S583 1.610 . S
N585 C586 1.351 . S
C586 C580 1.428 . S
C586 N585 1.351 . S
C586 C587 1.434 . S
C587 C578 1.429 . S
C587 N584 1.350 . S
C587 C586 1.434 . S
C588 C589 1.369 . S
C588 C590 1.419 . S
C588 H592 0.930 . S
C589 C588 1.369 . S
C589 C598 1.429 . S
C590 C588 1.419 . S
C590 C591 1.363 . S
C590 H593 0.929 . S
C591 C590 1.363 . S
C591 C597 1.428 . S
H592 C588 0.930 . S
H593 C590 0.929 . S
S594 N595 1.613 . S
S594 N596 1.610 . S
N595 S594 1.613 . S
N595 C598 1.350 . S
N596 S594 1.610 . S
N596 C597 1.351 . S
C597 C591 1.428 . S
C597 N596 1.351 . S
C597 C598 1.434 . S
C598 C589 1.429 . S
C598 N595 1.350 . S
C598 C597 1.434 . S
C599 C600 1.369 . S
C599 C601 1.419 . S
C599 H603 0.930 . S
C600 C599 1.369 . S
C600 C609 1.429 . S
C601 C599 1.419 . S
C601 C602 1.363 . S
C601 H604 0.929 . S
C602 C601 1.363 . S
C602 C608 1.428 . S
H603 C599 0.930 . S
H604 C601 0.929 . S
S605 N606 1.613 . S
S605 N607 1.610 . S
N606 S605 1.613 . S
N606 C609 1.350 . S
N607 S605 1.610 . S
N607 C608 1.351 . S
C608 C602 1.428 . S
C608 N607 1.351 . S
C608 C609 1.434 . S
C609 C600 1.429 . S
C609 N606 1.350 . S
C609 C608 1.434 . S
C610 C611 1.369 . S
C610 C612 1.419 . S
C610 H614 0.930 . S
C611 C610 1.369 . S
C611 C620 1.429 . S
C612 C610 1.419 . S
C612 C613 1.363 . S
C612 H615 0.929 . S
C613 C612 1.363 . S
C613 C619 1.428 . S
H614 C610 0.930 . S
H615 C612 0.929 . S
S616 N617 1.613 . S
S616 N618 1.610 . S
N617 S616 1.613 . S
N617 C620 1.350 . S
N618 S616 1.610 . S
N618 C619 1.351 . S
C619 C613 1.428 . S
C619 N618 1.351 . S
C619 C620 1.434 . S
C620 C611 1.429 . S
C620 N617 1.350 . S
C620 C619 1.434 . S
C621 C622 1.369 . S
C621 C623 1.419 . S
C621 H625 0.930 . S
C622 C621 1.369 . S
C622 C631 1.429 . S
C623 C621 1.419 . S
C623 C624 1.363 . S
C623 H626 0.929 . S
C624 C623 1.363 . S
C624 C630 1.428 . S
H625 C621 0.930 . S
H626 C623 0.929 . S
S627 N628 1.613 . S
S627 N629 1.610 . S
N628 S627 1.613 . S
N628 C631 1.350 . S
N629 S627 1.610 . S
N629 C630 1.351 . S
C630 C624 1.428 . S
C630 N629 1.351 . S
C630 C631 1.434 . S
C631 C622 1.429 . S
C631 N628 1.350 . S
C631 C630 1.434 . S
C632 C633 1.369 . S
C632 C634 1.419 . S
C632 H636 0.930 . S
C633 C632 1.369 . S
C633 C642 1.429 . S
C634 C632 1.419 . S
C634 C635 1.363 . S
C634 H637 0.929 . S
C635 C634 1.363 . S
C635 C641 1.428 . S
H636 C632 0.930 . S
H637 C634 0.929 . S
S638 N639 1.613 . S
S638 N640 1.610 . S
N639 S638 1.613 . S
N639 C642 1.350 . S
N640 S638 1.610 . S
N640 C641 1.351 . S
C641 C635 1.428 . S
C641 N640 1.351 . S
C641 C642 1.434 . S
C642 C633 1.429 . S
C642 N639 1.350 . S
C642 C641 1.434 . S
C643 C644 1.369 . S
C643 C645 1.419 . S
C643 H647 0.930 . S
C644 C643 1.369 . S
C644 C653 1.429 . S
C645 C643 1.419 . S
C645 C646 1.363 . S
C645 H648 0.929 . S
C646 C645 1.363 . S
C646 C652 1.428 . S
H647 C643 0.930 . S
H648 C645 0.929 . S
S649 N650 1.613 . S
S649 N651 1.610 . S
N650 S649 1.613 . S
N650 C653 1.350 . S
N651 S649 1.610 . S
N651 C652 1.351 . S
C652 C646 1.428 . S
C652 N651 1.351 . S
C652 C653 1.434 . S
C653 C644 1.429 . S
C653 N650 1.350 . S
C653 C652 1.434 . S
C654 C655 1.369 . S
C654 C656 1.419 . S
C654 H658 0.930 . S
C655 C654 1.369 . S
C655 C664 1.429 . S
C656 C654 1.419 . S
C656 C657 1.363 . S
C656 H659 0.929 . S
C657 C656 1.363 . S
C657 C663 1.428 . S
H658 C654 0.930 . S
H659 C656 0.929 . S
S660 N661 1.613 . S
S660 N662 1.610 . S
N661 S660 1.613 . S
N661 C664 1.350 . S
N662 S660 1.610 . S
N662 C663 1.351 . S
C663 C657 1.428 . S
C663 N662 1.351 . S
C663 C664 1.434 . S
C664 C655 1.429 . S
C664 N661 1.350 . S
C664 C663 1.434 . S
C665 C666 1.369 . S
C665 C667 1.419 . S
C665 H669 0.930 . S
C666 C665 1.369 . S
C666 C675 1.429 . S
C667 C665 1.419 . S
C667 C668 1.363 . S
C667 H670 0.929 . S
C668 C667 1.363 . S
C668 C674 1.428 . S
H669 C665 0.930 . S
H670 C667 0.929 . S
S671 N672 1.613 . S
S671 N673 1.610 . S
N672 S671 1.613 . S
N672 C675 1.350 . S
N673 S671 1.610 . S
N673 C674 1.351 . S
C674 C668 1.428 . S
C674 N673 1.351 . S
C674 C675 1.434 . S
C675 C666 1.429 . S
C675 N672 1.350 . S
C675 C674 1.434 . S
C676 C677 1.369 . S
C676 C678 1.419 . S
C676 H680 0.930 . S
C677 C676 1.369 . S
C677 C686 1.429 . S
C678 C676 1.419 . S
C678 C679 1.363 . S
C678 H681 0.929 . S
C679 C678 1.363 . S
C679 C685 1.428 . S
H680 C676 0.930 . S
H681 C678 0.929 . S
S682 N683 1.613 . S
S682 N684 1.610 . S
N683 S682 1.613 . S
N683 C686 1.350 . S
N684 S682 1.610 . S
N684 C685 1.351 . S
C685 C679 1.428 . S
C685 N684 1.351 . S
C685 C686 1.434 . S
C686 C677 1.429 . S
C686 N683 1.350 . S
C686 C685 1.434 . S
C687 C688 1.369 . S
C687 C689 1.419 . S
C687 H691 0.930 . S
C688 C687 1.369 . S
C688 C697 1.429 . S
C689 C687 1.419 . S
C689 C690 1.363 . S
C689 H692 0.929 . S
C690 C689 1.363 . S
C690 C696 1.428 . S
H691 C687 0.930 . S
H692 C689 0.929 . S
S693 N694 1.613 . S
S693 N695 1.610 . S
N694 S693 1.613 . S
N694 C697 1.350 . S
N695 S693 1.610 . S
N695 C696 1.351 . S
C696 C690 1.428 . S
C696 N695 1.351 . S
C696 C697 1.434 . S
C697 C688 1.429 . S
C697 N694 1.350 . S
C697 C696 1.434 . S
C698 C699 1.369 . S
C698 C700 1.419 . S
C698 H702 0.930 . S
C699 C698 1.369 . S
C699 C708 1.429 . S
C700 C698 1.419 . S
C700 C701 1.363 . S
C700 H703 0.929 . S
C701 C700 1.363 . S
C701 C707 1.428 . S
H702 C698 0.930 . S
H703 C700 0.929 . S
S704 N705 1.613 . S
S704 N706 1.610 . S
N705 S704 1.613 . S
N705 C708 1.350 . S
N706 S704 1.610 . S
N706 C707 1.351 . S
C707 C701 1.428 . S
C707 N706 1.351 . S
C707 C708 1.434 . S
C708 C699 1.429 . S
C708 N705 1.350 . S
C708 C707 1.434 . S
C709 C710 1.369 . S
C709 C711 1.419 . S
C709 H713 0.930 . S
C710 C709 1.369 . S
C710 C719 1.429 . S
C711 C709 1.419 . S
C711 C712 1.363 . S
C711 H714 0.929 . S
C712 C711 1.363 . S
C712 C718 1.428 . S
H713 C709 0.930 . S
H714 C711 0.929 . S
S715 N716 1.613 . S
S715 N717 1.610 . S
N716 S715 1.613 . S
N716 C719 1.350 . S
N717 S715 1.610 . S
N717 C718 1.351 . S
C718 C712 1.428 . S
C718 N717 1.351 . S
C718 C719 1.434 . S
C719 C710 1.429 . S
C719 N716 1.350 . S
C719 C718 1.434 . S
C720 C721 1.369 . S
C720 C722 1.419 . S
C720 H724 0.930 . S
C721 C720 1.369 . S
C721 C730 1.429 . S
C722 C720 1.419 . S
C722 C723 1.363 . S
C722 H725 0.929 . S
C723 C722 1.363 . S
C723 C729 1.428 . S
H724 C720 0.930 . S
H725 C722 0.929 . S
S726 N727 1.613 . S
S726 N728 1.610 . S
N727 S726 1.613 . S
N727 C730 1.350 . S
N728 S726 1.610 . S
N728 C729 1.351 . S
C729 C723 1.428 . S
C729 N728 1.351 . S
C729 C730 1.434 . S
C730 C721 1.429 . S
C730 N727 1.350 . S
C730 C729 1.434 . S
C731 C732 1.369 . S
C731 C733 1.419 . S
C731 H735 0.930 . S
C732 C731 1.369 . S
C732 C741 1.429 . S
C733 C731 1.419 . S
C733 C734 1.363 . S
C733 H736 0.929 . S
C734 C733 1.363 . S
C734 C740 1.428 . S
H735 C731 0.930 . S
H736 C733 0.929 . S
S737 N738 1.613 . S
S737 N739 1.610 . S
N738 S737 1.613 . S
N738 C741 1.350 . S
N739 S737 1.610 . S
N739 C740 1.351 . S
C740 C734 1.428 . S
C740 N739 1.351 . S
C740 C741 1.434 . S
C741 C732 1.429 . S
C741 N738 1.350 . S
C741 C740 1.434 . S
C742 C743 1.369 . S
C742 C744 1.419 . S
C742 H746 0.930 . S
C743 C742 1.369 . S
C743 C752 1.429 . S
C744 C742 1.419 . S
C744 C745 1.363 . S
C744 H747 0.929 . S
C745 C744 1.363 . S
C745 C751 1.428 . S
H746 C742 0.930 . S
H747 C744 0.929 . S
S748 N749 1.613 . S
S748 N750 1.610 . S
N749 S748 1.613 . S
N749 C752 1.350 . S
N750 S748 1.610 . S
N750 C751 1.351 . S
C751 C745 1.428 . S
C751 N750 1.351 . S
C751 C752 1.434 . S
C752 C743 1.429 . S
C752 N749 1.350 . S
C752 C751 1.434 . S
C753 C754 1.369 . S
C753 C755 1.419 . S
C753 H757 0.930 . S
C754 C753 1.369 . S
C754 C763 1.429 . S
C755 C753 1.419 . S
C755 C756 1.363 . S
C755 H758 0.929 . S
C756 C755 1.363 . S
C756 C762 1.428 . S
H757 C753 0.930 . S
H758 C755 0.929 . S
S759 N760 1.613 . S
S759 N761 1.610 . S
N760 S759 1.613 . S
N760 C763 1.350 . S
N761 S759 1.610 . S
N761 C762 1.351 . S
C762 C756 1.428 . S
C762 N761 1.351 . S
C762 C763 1.434 . S
C763 C754 1.429 . S
C763 N760 1.350 . S
C763 C762 1.434 . S
C764 C765 1.369 . S
C764 C766 1.419 1_554 S
C764 H768 0.930 . S
C765 C764 1.369 . S
C765 C774 1.429 . S
C766 C764 1.419 1_556 S
C766 C767 1.363 . S
C766 H769 0.929 . S
C767 C766 1.363 . S
C767 C773 1.428 . S
H768 C764 0.930 . S
H769 C766 0.929 . S
S770 N771 1.613 1_556 S
S770 N772 1.610 . S
N771 S770 1.613 1_554 S
N771 C774 1.350 . S
N772 S770 1.610 . S
N772 C773 1.351 . S
C773 C767 1.428 . S
C773 N772 1.351 . S
C773 C774 1.434 1_556 S
C774 C765 1.429 . S
C774 N771 1.350 . S
C774 C773 1.434 1_554 S
C775 C776 1.369 1_556 S
C775 C777 1.419 . S
C775 H779 0.930 . S
C776 C775 1.369 1_554 S
C776 C785 1.429 . S
C777 C775 1.419 . S
C777 C778 1.363 . S
C777 H780 0.929 . S
C778 C777 1.363 . S
C778 C784 1.428 1_556 S
H779 C775 0.930 . S
H780 C777 0.929 . S
S781 N782 1.613 . S
S781 N783 1.610 . S
N782 S781 1.613 . S
N782 C785 1.350 . S
N783 S781 1.610 . S
N783 C784 1.351 . S
C784 C778 1.428 1_554 S
C784 N783 1.351 . S
C784 C785 1.434 . S
C785 C776 1.429 . S
C785 N782 1.350 . S
C785 C784 1.434 . S
C786 C787 1.369 1_556 S
C786 C788 1.419 . S
C786 H790 0.930 . S
C787 C786 1.369 1_554 S
C787 C796 1.429 . S
C788 C786 1.419 . S
C788 C789 1.363 . S
C788 H791 0.929 . S
C789 C788 1.363 . S
C789 C795 1.428 1_556 S
H790 C786 0.930 . S
H791 C788 0.929 . S
S792 N793 1.613 . S
S792 N794 1.610 . S
N793 S792 1.613 . S
N793 C796 1.350 . S
N794 S792 1.610 . S
N794 C795 1.351 . S
C795 C789 1.428 1_554 S
C795 N794 1.351 . S
C795 C796 1.434 . S
C796 C787 1.429 . S
C796 N793 1.350 . S
C796 C795 1.434 . S
C797 C798 1.369 1_556 S
C797 C799 1.419 . S
C797 H801 0.930 . S
C798 C797 1.369 1_554 S
C798 C807 1.429 . S
C799 C797 1.419 . S
C799 C800 1.363 . S
C799 H802 0.929 . S
C800 C799 1.363 . S
C800 C806 1.428 1_556 S
H801 C797 0.930 . S
H802 C799 0.929 . S
S803 N804 1.613 . S
S803 N805 1.610 . S
N804 S803 1.613 . S
N804 C807 1.350 . S
N805 S803 1.610 . S
N805 C806 1.351 . S
C806 C800 1.428 1_554 S
C806 N805 1.351 . S
C806 C807 1.434 . S
C807 C798 1.429 . S
C807 N804 1.350 . S
C807 C806 1.434 . S
C808 C809 1.369 1_455 S
C808 C810 1.419 . S
C808 H812 0.930 . S
C809 C808 1.369 1_655 S
C809 C818 1.429 . S
C810 C808 1.419 . S
C810 C811 1.363 . S
C810 H813 0.929 . S
C811 C810 1.363 . S
C811 C817 1.428 1_455 S
H812 C808 0.930 . S
H813 C810 0.929 . S
S814 N815 1.613 . S
S814 N816 1.610 . S
N815 S814 1.613 . S
N815 C818 1.350 . S
N816 S814 1.610 . S
N816 C817 1.351 . S
C817 C811 1.428 1_655 S
C817 N816 1.351 . S
C817 C818 1.434 . S
C818 C809 1.429 . S
C818 N815 1.350 . S
C818 C817 1.434 . S
C819 C820 1.369 1_545 S
C819 C821 1.419 . S
C819 H823 0.930 . S
C820 C819 1.369 1_565 S
C820 C829 1.429 . S
C821 C819 1.419 . S
C821 C822 1.363 . S
C821 H824 0.929 . S
C822 C821 1.363 . S
C822 C828 1.428 1_545 S
H823 C819 0.930 . S
H824 C821 0.929 . S
S825 N826 1.613 . S
S825 N827 1.610 . S
N826 S825 1.613 . S
N826 C829 1.350 . S
N827 S825 1.610 . S
N827 C828 1.351 . S
C828 C822 1.428 1_565 S
C828 N827 1.351 . S
C828 C829 1.434 . S
C829 C820 1.429 . S
C829 N826 1.350 . S
C829 C828 1.434 . S
C830 C831 1.369 1_455 S
C830 C832 1.419 . S
C830 H834 0.930 . S
C831 C830 1.369 1_655 S
C831 C840 1.429 . S
C832 C830 1.419 . S
C832 C833 1.363 . S
C832 H835 0.929 . S
C833 C832 1.363 . S
C833 C839 1.428 1_455 S
H834 C830 0.930 . S
H835 C832 0.929 . S
S836 N837 1.613 . S
S836 N838 1.610 . S
N837 S836 1.613 . S
N837 C840 1.350 . S
N838 S836 1.610 . S
N838 C839 1.351 . S
C839 C833 1.428 1_655 S
C839 N838 1.351 . S
C839 C840 1.434 . S
C840 C831 1.429 . S
C840 N837 1.350 . S
C840 C839 1.434 . S
C841 C842 1.369 . S
C841 C843 1.419 . S
C841 H845 0.930 . S
C842 C841 1.369 . S
C842 C851 1.429 1_545 S
C843 C841 1.419 . S
C843 C844 1.363 1_545 S
C843 H846 0.929 . S
C844 C843 1.363 1_565 S
C844 C850 1.428 . S
H845 C841 0.930 . S
H846 C843 0.929 . S
S847 N848 1.613 . S
S847 N849 1.610 . S
N848 S847 1.613 . S
N848 C851 1.350 . S
N849 S847 1.610 . S
N849 C850 1.351 . S
C850 C844 1.428 . S
C850 N849 1.351 . S
C850 C851 1.434 . S
C851 C842 1.429 1_565 S
C851 N848 1.350 . S
C851 C850 1.434 . S
C852 C853 1.370 1_655 S
C852 C854 1.419 . S
C852 H856 0.930 . S
C853 C852 1.370 1_455 S
C853 C862 1.427 . S
C854 C852 1.419 . S
C854 C855 1.350 1_655 S
C854 H857 0.929 . S
C855 C854 1.350 1_455 S
C855 C861 1.441 . S
H856 C852 0.930 . S
H857 C854 0.929 . S
S858 N859 1.613 . S
S858 N860 1.610 . S
N859 S858 1.613 . S
N859 C862 1.350 . S
N860 S858 1.610 . S
N860 C861 1.351 . S
C861 C855 1.441 . S
C861 N860 1.351 . S
C861 C862 1.434 . S
C862 C853 1.427 . S
C862 N859 1.350 . S
C862 C861 1.434 . S
C863 C864 1.352 1_565 S
C863 C865 1.419 . S
C863 H867 0.930 . S
C864 C863 1.352 1_545 S
C864 C873 1.446 . S
C865 C863 1.419 . S
C865 C866 1.364 1_565 S
C865 H868 0.929 . S
C866 C865 1.364 1_545 S
C866 C872 1.427 . S
H867 C863 0.930 . S
H868 C865 0.929 . S
S869 N870 1.613 . S
S869 N871 1.610 . S
N870 S869 1.613 . S
N870 C873 1.350 . S
N871 S869 1.610 . S
N871 C872 1.351 . S
C872 C866 1.427 . S
C872 N871 1.351 . S
C872 C873 1.434 . S
C873 C864 1.446 . S
C873 N870 1.350 . S
C873 C872 1.434 . S
C874 C875 1.368 1_655 S
C874 C876 1.419 . S
C874 H878 0.930 . S
C875 C874 1.368 1_455 S
C875 C884 1.430 . S
C876 C874 1.419 . S
C876 C877 1.363 . S
C876 H879 0.929 . S
C877 C876 1.363 . S
C877 C883 1.428 1_655 S
H878 C874 0.930 . S
H879 C876 0.929 . S
S880 N881 1.613 . S
S880 N882 1.610 . S
N881 S880 1.613 . S
N881 C884 1.350 . S
N882 S880 1.610 . S
N882 C883 1.351 . S
C883 C877 1.428 1_455 S
C883 N882 1.351 . S
C883 C884 1.434 . S
C884 C875 1.430 . S
C884 N881 1.350 . S
C884 C883 1.434 . S
C885 C886 1.370 1_565 S
C885 C887 1.419 . S
C885 H889 0.930 . S
C886 C885 1.370 1_545 S
C886 C895 1.428 . S
C887 C885 1.419 . S
C887 C888 1.358 1_565 S
C887 H890 0.929 . S
C888 C887 1.358 1_545 S
C888 C894 1.434 . S
H889 C885 0.930 . S
H890 C887 0.929 . S
S891 N892 1.613 . S
S891 N893 1.610 . S
N892 S891 1.613 . S
N892 C895 1.350 . S
N893 S891 1.610 . S
N893 C894 1.351 . S
C894 C888 1.434 . S
C894 N893 1.351 . S
C894 C895 1.434 . S
C895 C886 1.428 . S
C895 N892 1.350 . S
C895 C894 1.434 . S
C896 C897 1.369 . S
C896 C898 1.419 . S
C896 H900 0.930 . S
C897 C896 1.369 . S
C897 C906 1.429 . S
C898 C896 1.419 . S
C898 C899 1.363 . S
C898 H901 0.929 . S
C899 C898 1.363 . S
C899 C905 1.428 . S
H900 C896 0.930 . S
H901 C898 0.929 . S
S902 N903 1.613 . S
S902 N904 1.610 . S
N903 S902 1.613 . S
N903 C906 1.350 . S
N904 S902 1.610 . S
N904 C905 1.351 . S
C905 C899 1.428 . S
C905 N904 1.351 . S
C905 C906 1.434 . S
C906 C897 1.429 . S
C906 N903 1.350 . S
C906 C905 1.434 . S
C907 C908 1.369 . S
C907 C909 1.419 . S
C907 H911 0.930 . S
C908 C907 1.369 . S
C908 C917 1.429 . S
C909 C907 1.419 . S
C909 C910 1.363 . S
C909 H912 0.929 . S
C910 C909 1.363 . S
C910 C916 1.428 . S
H911 C907 0.930 . S
H912 C909 0.929 . S
S913 N914 1.613 . S
S913 N915 1.610 . S
N914 S913 1.613 . S
N914 C917 1.350 . S
N915 S913 1.610 . S
N915 C916 1.351 . S
C916 C910 1.428 . S
C916 N915 1.351 . S
C916 C917 1.434 . S
C917 C908 1.429 . S
C917 N914 1.350 . S
C917 C916 1.434 . S
C918 C919 1.369 . S
C918 C920 1.419 . S
C918 H922 0.930 . S
C919 C918 1.369 . S
C919 C928 1.429 . S
C920 C918 1.419 . S
C920 C921 1.363 . S
C920 H923 0.929 . S
C921 C920 1.363 . S
C921 C927 1.428 . S
H922 C918 0.930 . S
H923 C920 0.929 . S
S924 N925 1.613 . S
S924 N926 1.610 . S
N925 S924 1.613 . S
N925 C928 1.350 . S
N926 S924 1.610 . S
N926 C927 1.351 . S
C927 C921 1.428 . S
C927 N926 1.351 . S
C927 C928 1.434 . S
C928 C919 1.429 . S
C928 N925 1.350 . S
C928 C927 1.434 . S
C929 C930 1.369 . S
C929 C931 1.419 . S
C929 H933 0.930 . S
C930 C929 1.369 . S
C930 C939 1.429 . S
C931 C929 1.419 . S
C931 C932 1.363 . S
C931 H934 0.929 . S
C932 C931 1.363 . S
C932 C938 1.428 . S
H933 C929 0.930 . S
H934 C931 0.929 . S
S935 N936 1.613 . S
S935 N937 1.610 . S
N936 S935 1.613 . S
N936 C939 1.350 . S
N937 S935 1.610 . S
N937 C938 1.351 . S
C938 C932 1.428 . S
C938 N937 1.351 . S
C938 C939 1.434 . S
C939 C930 1.429 . S
C939 N936 1.350 . S
C939 C938 1.434 . S
C940 C941 1.369 . S
C940 C942 1.419 . S
C940 H944 0.930 . S
C941 C940 1.369 . S
C941 C950 1.429 . S
C942 C940 1.419 . S
C942 C943 1.363 . S
C942 H945 0.929 . S
C943 C942 1.363 . S
C943 C949 1.428 . S
H944 C940 0.930 . S
H945 C942 0.929 . S
S946 N947 1.613 . S
S946 N948 1.610 . S
N947 S946 1.613 . S
N947 C950 1.350 . S
N948 S946 1.610 . S
N948 C949 1.351 . S
C949 C943 1.428 . S
C949 N948 1.351 . S
C949 C950 1.434 . S
C950 C941 1.429 . S
C950 N947 1.350 . S
C950 C949 1.434 . S
C951 C952 1.369 . S
C951 C953 1.419 . S
C951 H955 0.930 . S
C952 C951 1.369 . S
C952 C961 1.429 . S
C953 C951 1.419 . S
C953 C954 1.363 . S
C953 H956 0.929 . S
C954 C953 1.363 . S
C954 C960 1.428 . S
H955 C951 0.930 . S
H956 C953 0.929 . S
S957 N958 1.613 . S
S957 N959 1.610 . S
N958 S957 1.613 . S
N958 C961 1.350 . S
N959 S957 1.610 . S
N959 C960 1.351 . S
C960 C954 1.428 . S
C960 N959 1.351 . S
C960 C961 1.434 . S
C961 C952 1.429 . S
C961 N958 1.350 . S
C961 C960 1.434 . S
C962 C963 1.369 . S
C962 C964 1.419 . S
C962 H966 0.930 . S
C963 C962 1.369 . S
C963 C972 1.429 . S
C964 C962 1.419 . S
C964 C965 1.363 . S
C964 H967 0.929 . S
C965 C964 1.363 . S
C965 C971 1.428 . S
H966 C962 0.930 . S
H967 C964 0.929 . S
S968 N969 1.613 . S
S968 N970 1.610 . S
N969 S968 1.613 . S
N969 C972 1.350 . S
N970 S968 1.610 . S
N970 C971 1.351 . S
C971 C965 1.428 . S
C971 N970 1.351 . S
C971 C972 1.434 . S
C972 C963 1.429 . S
C972 N969 1.350 . S
C972 C971 1.434 . S
C973 C974 1.369 . S
C973 C975 1.419 . S
C973 H977 0.930 . S
C974 C973 1.369 . S
C974 C983 1.429 . S
C975 C973 1.419 . S
C975 C976 1.363 . S
C975 H978 0.929 . S
C976 C975 1.363 . S
C976 C982 1.428 . S
H977 C973 0.930 . S
H978 C975 0.929 . S
S979 N980 1.613 . S
S979 N981 1.610 . S
N980 S979 1.613 . S
N980 C983 1.350 . S
N981 S979 1.610 . S
N981 C982 1.351 . S
C982 C976 1.428 . S
C982 N981 1.351 . S
C982 C983 1.434 . S
C983 C974 1.429 . S
C983 N980 1.350 . S
C983 C982 1.434 . S
C545 C9 1.417 . S
C547 C519 1.423 . S
C556 C43 1.423 . S
C558 C417 1.426 . S
C567 C451 1.417 . S
C569 C77 1.423 . S
C578 C111 1.417 . S
C580 C485 1.417 . S
C589 C145 1.423 . S
C591 C315 1.426 . S
C600 C349 1.415 . S
C602 C179 1.420 . S
C611 C383 1.419 . S
C613 C213 1.417 . S
C622 C281 1.424 . S
C624 C247 1.419 . S
C633 C107 1.537 . S
C635 C33 1.531 . S
C644 C5 1.540 . S
C646 C67 1.533 . S
C655 C101 1.531 . S
C657 C39 1.537 . S
C666 C135 1.530 . S
C668 C73 1.538 . S
C677 C175 1.539 . S
C679 C169 1.531 . S
C688 C209 1.539 . S
C690 C203 1.531 . S
C699 C243 1.540 . S
C701 C237 1.532 . S
C710 C141 1.537 . S
C712 C271 1.532 . S
C721 C379 1.539 . S
C723 C305 1.531 . S
C732 C339 1.533 . S
C734 C277 1.540 . S
C743 C311 1.540 . S
C745 C373 1.531 . S
C754 C345 1.540 . S
C756 C407 1.532 . S
C765 C447 1.537 . S
C767 C441 1.532 . S
C776 C481 1.540 . S
C778 C475 1.532 . S
C787 C515 1.540 . S
C789 C509 1.532 . S
C798 C413 1.539 . S
C800 C543 1.530 . S
C809 C206 1.428 . S
C811 C2 1.427 . S
C820 C240 1.427 . S
C822 C36 1.426 . S
C831 C70 1.425 . S
C833 C138 1.425 . S
C842 C172 1.426 . S
C844 C104 1.427 . S
C853 C88 1.537 1_455 S
C855 C156 1.537 . S
C864 C190 1.538 . S
C866 C122 1.538 1_545 S
C875 C20 1.536 . S
C877 C224 1.537 . S
C886 C258 1.540 1_545 S
C888 C54 1.539 . S
C897 C478 1.428 . S
C899 C274 1.427 . S
C908 C512 1.427 . S
C910 C308 1.426 . S
C919 C410 1.425 . S
C921 C342 1.425 . S
C930 C376 1.425 . S
C932 C444 1.427 . S
C941 C428 1.539 . S
C943 C360 1.539 . S
C952 C394 1.536 . S
C954 C462 1.539 . S
C963 C292 1.538 . S
C965 C496 1.539 . S
C974 C530 1.535 . S
C976 C326 1.537 . S
