# Generated by pormake.
# Topology afw, (4)-cn, num edge types: 1
# Building blocks:
#     Node 0, Type 0, BuildingBlock: TATPOV_clean_sbu_0, # of connection points: 4
#     Node 1, Type 0, BuildingBlock: TATPOV_clean_sbu_0, # of connection points: 4
#     Node 2, Type 0, BuildingBlock: TATPOV_clean_sbu_0, # of connection points: 4
#     Node 3, Type 0, BuildingBlock: TATPOV_clean_sbu_0, # of connection points: 4
#     Node 4, Type 0, BuildingBlock: TATPOV_clean_sbu_0, # of connection points: 4
#     Node 5, Type 0, BuildingBlock: TATPOV_clean_sbu_0, # of connection points: 4
#     Node 6, Type 0, BuildingBlock: TATPOV_clean_sbu_0, # of connection points: 4
#     Node 7, Type 0, BuildingBlock: TATPOV_clean_sbu_0, # of connection points: 4
#     Node 8, Type 0, BuildingBlock: TATPOV_clean_sbu_0, # of connection points: 4
#     Edge 9, Type (0, 0), BuildingBlock: MIFKUJ_clean_linker_0, # of connection points: 2
#     Edge 10, Type (0, 0), BuildingBlock: MIFKUJ_clean_linker_0, # of connection points: 2
#     Edge 11, Type (0, 0), BuildingBlock: MIFKUJ_clean_linker_0, # of connection points: 2
#     Edge 12, Type (0, 0), BuildingBlock: MIFKUJ_clean_linker_0, # of connection points: 2
#     Edge 13, Type (0, 0), BuildingBlock: MIFKUJ_clean_linker_0, # of connection points: 2
#     Edge 14, Type (0, 0), BuildingBlock: MIFKUJ_clean_linker_0, # of connection points: 2
#     Edge 15, Type (0, 0), BuildingBlock: MIFKUJ_clean_linker_0, # of connection points: 2
#     Edge 16, Type (0, 0), BuildingBlock: MIFKUJ_clean_linker_0, # of connection points: 2
#     Edge 17, Type (0, 0), BuildingBlock: MIFKUJ_clean_linker_0, # of connection points: 2
#     Edge 18, Type (0, 0), BuildingBlock: MIFKUJ_clean_linker_0, # of connection points: 2
#     Edge 19, Type (0, 0), BuildingBlock: MIFKUJ_clean_linker_0, # of connection points: 2
#     Edge 20, Type (0, 0), BuildingBlock: MIFKUJ_clean_linker_0, # of connection points: 2
#     Edge 21, Type (0, 0), BuildingBlock: MIFKUJ_clean_linker_0, # of connection points: 2
#     Edge 22, Type (0, 0), BuildingBlock: MIFKUJ_clean_linker_0, # of connection points: 2
#     Edge 23, Type (0, 0), BuildingBlock: MIFKUJ_clean_linker_0, # of connection points: 2
#     Edge 24, Type (0, 0), BuildingBlock: MIFKUJ_clean_linker_0, # of connection points: 2
#     Edge 25, Type (0, 0), BuildingBlock: MIFKUJ_clean_linker_0, # of connection points: 2
#     Edge 26, Type (0, 0), BuildingBlock: MIFKUJ_clean_linker_0, # of connection points: 2
# Relax obj value: 0.195
# Max RMSD: 0.218
# Mean RMSD: 0.213
data_MOF--net-afw--node1-TATPOV_clean_sbu_0--edge1-MIFKUJ_clean_linker_0
_symmetry_space_group_name_H-M    P1
_symmetry_Int_Tables_number       1
_symmetry_cell_setting            triclinic
loop_
_symmetry_equiv_pos_as_xyz
'x, y, z'
_cell_length_a     53.496135
_cell_length_b     52.155912
_cell_length_c     47.26028
_cell_angle_alpha  90.383086
_cell_angle_beta   89.901061
_cell_angle_gamma 120.00257
loop_
_atom_site_label
_atom_site_type_symbol
_atom_site_fract_x
_atom_site_fract_y
_atom_site_fract_z
_atom_type_partial_charge
Zn0 Zn -0.00041 0.20157 0.03989 0.0
Zn1 Zn 0.00643 0.23188 -0.00624 0.0
O2 O 0.04129 0.22512 -0.0079 0.0
O3 O 0.03281 0.19608 0.02869 0.0
O4 O 0.01287 0.25752 0.95956 0.0
O5 O 0.00653 0.23508 0.06529 0.0
O6 O 0.00552 0.2581 0.02683 0.0
C7 C 0.04791 0.20926 0.00726 0.0
C8 C 0.95179 0.17182 0.00228 0.0
O9 O 0.96832 0.19287 0.98588 0.0
O10 O 0.95917 0.17147 0.02763 0.0
C11 C 0.01042 0.24771 0.93442 0.0
O12 O 0.00252 0.2197 0.93042 0.0
C13 C 0.00691 0.25704 0.05373 0.0
Zn14 Zn 0.82572 0.83204 0.93233 0.0
Zn15 Zn 0.79772 0.80788 0.98039 0.0
O16 O 0.83768 0.81212 -0.0126 0.0
O17 O 0.86107 0.83311 0.94815 0.0
O18 O 0.77457 0.78615 0.01491 0.0
O19 O 0.79838 0.79727 0.90907 0.0
O20 O 0.77269 0.77964 0.94787 0.0
C21 C 0.8606 0.82295 0.97253 0.0
C22 C 0.80827 0.86866 0.96286 0.0
O23 O 0.80028 0.84856 0.98154 0.0
O24 O 0.81843 0.86617 0.93943 0.0
C25 C 0.7808 0.79533 0.04034 0.0
O26 O 0.80372 0.82122 0.04544 0.0
C27 C 0.77605 0.77762 0.92137 0.0
Zn28 Zn 0.19672 0.04597 0.06456 0.0
Zn29 Zn 0.21348 0.02836 0.01862 0.0
O30 O 0.17132 -0.00478 0.02272 0.0
O31 O 0.15765 0.00889 0.06123 0.0
O32 O 0.22776 0.01626 0.9843 0.0
O33 O 0.22751 0.04566 0.08784 0.0
O34 O 0.24055 0.02945 0.05067 0.0
C35 C 0.15207 0.99066 0.04108 0.0
C36 C 0.2128 0.08719 0.01939 0.0
O37 O 0.21682 0.06797 0.00658 0.0
O38 O 0.20465 0.08328 0.04493 0.0
C39 C 0.2234 0.02173 0.95917 0.0
O40 O 0.20864 0.03533 0.95511 0.0
C41 C 0.24354 0.03699 0.07673 0.0
Zn42 Zn 0.63319 0.51976 0.26095 0.0
Zn43 Zn 0.63301 0.54626 0.30831 0.0
O44 O 0.59784 0.50341 0.31029 0.0
O45 O 0.59605 0.48258 0.26917 0.0
O46 O 0.62626 0.56494 0.34304 0.0
O47 O 0.63359 0.55085 0.23644 0.0
O48 O 0.63771 0.57548 0.27576 0.0
C49 C 0.58579 0.48113 0.2936 0.0
C50 C 0.68264 0.53572 0.29847 0.0
O51 O 0.67045 0.54549 0.31504 0.0
O52 O 0.67126 0.5244 0.27475 0.0
C53 C 0.64093 0.57203 0.36581 0.0
O54 O 0.66337 0.56825 0.36763 0.0
C55 C 0.63712 0.57402 0.24874 0.0
Zn56 Zn 0.50751 0.14849 0.29614 0.0
Zn57 Zn 0.47405 0.12113 0.33792 0.0
O58 O 0.51169 0.11989 0.34594 0.0
O59 O 0.53528 0.13508 0.30582 0.0
O60 O 0.44846 0.09636 0.36993 0.0
O61 O 0.47725 0.12614 0.26722 0.0
O62 O 0.45036 0.09842 0.30218 0.0
C63 C 0.53306 0.12469 0.33036 0.0
C64 C 0.49711 0.18719 0.33131 0.0
O65 O 0.47878 0.16302 0.34305 0.0
O66 O 0.51328 0.18697 0.31183 0.0
C67 C 0.45566 0.1035 0.39565 0.0
O68 O 0.47945 0.12844 0.40142 0.0
C69 C 0.45423 0.10398 0.27575 0.0
Zn70 Zn 0.82549 0.34687 0.26528 0.0
Zn71 Zn 0.85865 0.35598 0.31143 0.0
O72 O 0.85 0.39009 0.3146 0.0
O73 O 0.82302 0.38293 0.27693 0.0
O74 O 0.88273 0.36126 0.34586 0.0
O75 O 0.85821 0.35214 0.24036 0.0
O76 O 0.88472 0.35815 0.27813 0.0
C77 C 0.83545 0.39772 0.29902 0.0
C78 C 0.80093 0.29812 0.30405 0.0
O79 O 0.8235 0.31522 0.31816 0.0
O80 O 0.79661 0.30608 0.28013 0.0
C81 C 0.87099 0.35328 0.37007 0.0
O82 O 0.84299 0.34223 0.37245 0.0
C83 C 0.88163 0.35654 0.2513 0.0
Zn84 Zn 0.32353 0.85107 0.72969 0.0
Zn85 Zn 0.32905 0.88164 0.68389 0.0
O86 O 0.36571 0.87778 0.68329 0.0
O87 O 0.35888 0.84888 0.71959 0.0
O88 O 0.3358 0.90774 0.64996 0.0
O89 O 0.32627 0.88297 0.75516 0.0
O90 O 0.32449 0.90576 0.71688 0.0
C91 C 0.37378 0.86308 0.69841 0.0
C92 C 0.27669 0.81976 0.69097 0.0
O93 O 0.29219 0.84169 0.67499 0.0
O94 O 0.28446 0.81922 0.71612 0.0
C95 C 0.32979 0.89809 0.62466 0.0
O96 O 0.31729 0.86945 0.61989 0.0
C97 C 0.32471 0.90401 0.74381 0.0
Zn98 Zn 0.13546 0.48719 0.5879 0.0
Zn99 Zn 0.1157 0.45911 0.63572 0.0
O100 O 0.15536 0.46156 0.63157 0.0
O101 O 0.17335 0.48901 0.59367 0.0
O102 O 0.09963 0.43478 0.67121 0.0
O103 O 0.10459 0.45436 0.5654 0.0
O104 O 0.08405 0.43414 0.60585 0.0
C105 C 0.17612 0.47521 0.61422 0.0
C106 C 0.12442 0.52126 0.62836 0.0
O107 O 0.11999 0.50004 0.64472 0.0
O108 O 0.1296 0.52024 0.60237 0.0
C109 C 0.10584 0.44517 0.69625 0.0
O110 O 0.12335 0.4737 0.70001 0.0
C111 C 0.08346 0.43438 0.57887 0.0
Zn112 Zn 0.50728 0.68315 0.71114 0.0
Zn113 Zn 0.52725 0.66852 0.66649 0.0
O114 O 0.48575 0.63319 0.66926 0.0
O115 O 0.46794 0.64815 0.70345 0.0
O116 O 0.54401 0.65842 0.63276 0.0
O117 O 0.5344 0.67901 0.73704 0.0
O118 O 0.55426 0.6715 0.69943 0.0
C119 C 0.46455 0.62925 0.68467 0.0
C120 C 0.52553 0.72663 0.66821 0.0
O121 O 0.5284 0.70727 0.65426 0.0
O122 O 0.51831 0.72252 0.69399 0.0
C123 C 0.53084 0.65139 0.60912 0.0
O124 O 0.50601 0.65066 0.60693 0.0
C125 C 0.55362 0.6747 0.72618 0.0
H126 H 0.22268 0.13988 0.04079 0.0
H127 H 0.20621 0.17144 0.02002 0.0
H128 H 0.18555 0.12101 0.94233 0.0
H129 H 0.20212 0.08919 0.9631 0.0
H130 H 0.20737 0.20486 0.97277 0.0
H131 H 0.11538 0.09743 0.93161 0.0
H132 H 0.09572 0.04343 0.93508 0.0
H133 H 0.12494 0.05384 0.0212 0.0
H134 H 0.14438 0.10779 0.01828 0.0
H135 H 0.08251 0.2286 0.95977 0.0
H136 H 0.11948 0.21603 0.94575 0.0
H137 H 0.10416 0.16632 0.02268 0.0
H138 H 0.06779 0.17864 0.03678 0.0
H139 H 0.10181 0.13459 0.97404 0.0
H140 H 0.16176 0.23273 0.01765 0.0
H141 H 0.18165 0.28678 0.01982 0.0
H142 H 0.21613 0.29538 0.93606 0.0
H143 H 0.19612 0.24128 0.93332 0.0
C144 C 0.21579 0.13628 0.01887 0.0
C145 C 0.21295 0.11166 0.00379 0.0
C146 C 0.20661 0.15453 0.0069 0.0
C147 C 0.19413 0.14817 0.97985 0.0
C148 C 0.19499 0.12614 0.96331 0.0
C149 C 0.20443 0.10795 0.97524 0.0
C150 C 0.17402 0.15895 0.97286 0.0
C151 C 0.18429 0.18955 0.97218 0.0
C152 C 0.14389 0.13898 0.97238 0.0
C153 C 0.13158 0.10655 0.97459 0.0
C154 C 0.11749 0.08812 0.95128 0.0
C155 C 0.1064 0.05755 0.95316 0.0
C156 C 0.10919 0.04523 0.97831 0.0
C157 C 0.12288 0.06342 0.00171 0.0
C158 C 0.13389 0.09396 -4e-05 0.0
C159 C 0.08728 0.21523 0.97378 0.0
C160 C 0.07205 0.20445 -0.00068 0.0
C161 C 0.10831 0.20805 0.96569 0.0
C162 C 0.11422 0.18997 0.98305 0.0
C163 C 0.09963 0.17999 0.00882 0.0
C164 C 0.07887 0.18718 0.0169 0.0
C165 C 0.13511 0.1805 0.9749 0.0
C166 C 0.12486 0.15 0.97291 0.0
C167 C 0.16512 0.20058 0.97338 0.0
C168 C 0.17713 0.233 0.97513 0.0
C169 C 0.17336 0.24614 -0.00038 0.0
C170 C 0.18471 0.27677 0.00097 0.0
C171 C 0.20005 0.2945 0.97805 0.0
C172 C 0.20417 0.28162 0.95377 0.0
C173 C 0.19285 0.25099 0.9523 0.0
H174 H 0.20883 0.31821 0.97914 0.0
H175 H 0.10067 0.02158 0.97969 0.0
H176 H 0.78385 0.89598 0.93451 0.0
H177 H 0.79497 0.94734 0.94087 0.0
H178 H 0.85175 0.95757 0.01036 0.0
H179 H 0.83828 0.90564 0.00565 0.0
H180 H 0.83364 0.99096 0.02128 0.0
H181 H 0.87332 0.97598 0.935 0.0
H182 H 0.8715 0.95411 0.88805 0.0
H183 H 0.81807 0.98759 0.85675 0.0
H184 H 0.81935 0.00939 0.90365 0.0
H185 H 0.95238 0.13767 0.95963 0.0
H186 H 0.91644 0.08597 0.95099 0.0
H187 H 0.85874 0.0934 0.01027 0.0
H188 H 0.89618 0.14447 0.02093 0.0
H189 H 0.86799 0.05099 0.934 0.0
H190 H 0.81961 0.03119 0.04621 0.0
H191 H 0.83244 0.05317 0.09413 0.0
H192 H 0.92245 0.08964 0.07527 0.0
H193 H 0.9101 0.06761 0.02738 0.0
C194 C 0.79791 0.9091 0.9517 0.0
C195 C 0.81018 0.89709 0.9697 0.0
C196 C 0.80461 0.93854 0.95511 0.0
C197 C 0.82503 0.95687 0.97549 0.0
C198 C 0.83597 0.94416 -0.00557 0.0
C199 C 0.82832 0.91444 -0.00823 0.0
C200 C 0.83695 0.98959 0.9759 0.0
C201 C 0.84098 0.004 0.00212 0.0
C202 C 0.8469 0.00697 0.95104 0.0
C203 C 0.84612 -0.00605 0.92287 0.0
C204 C 0.86106 0.97851 0.91813 0.0
C205 C 0.86013 0.96615 0.89154 0.0
C206 C 0.84459 0.96937 0.86946 0.0
C207 C 0.83003 0.98504 0.8739 0.0
C208 C 0.83084 -0.00259 0.90047 0.0
C209 C 0.93169 0.12842 0.97021 0.0
C210 C 0.92695 0.14481 -0.00903 0.0
C211 C 0.91108 0.09879 0.96532 0.0
C212 C 0.88504 0.08525 0.98063 0.0
C213 C 0.87902 0.10285 -0.00104 0.0
C214 C 0.90018 0.13216 0.00475 0.0
C215 C 0.86613 0.05238 0.9795 0.0
C216 C 0.86035 0.03793 0.95312 0.0
C217 C 0.8563 0.03498 0.00437 0.0
C218 C 0.86393 0.04812 0.03315 0.0
C219 C 0.84211 0.04387 0.05234 0.0
C220 C 0.84931 0.05633 0.07948 0.0
C221 C 0.87825 0.0729 0.08769 0.0
C222 C 0.90005 0.07691 0.06884 0.0
C223 C 0.89297 0.06445 0.04171 0.0
H224 H 0.88377 0.08256 0.10869 0.0
H225 H 0.8439 0.95978 0.84889 0.0
H226 H 0.90738 0.82971 0.94346 0.0
H227 H 0.95564 0.84679 0.96221 0.0
H228 H 0.92422 0.84334 0.04703 0.0
H229 H 0.87558 0.82603 0.02832 0.0
H230 H 0.96824 0.89835 0.03219 0.0
H231 H 0.95121 0.79967 0.03 0.0
H232 H 0.93555 0.75028 0.00963 0.0
H233 H -0.00057 0.78945 0.94436 0.0
H234 H 0.01523 0.83915 0.96408 0.0
H235 H 0.11063 0.96728 0.08182 0.0
H236 H 0.06033 0.92853 0.07619 0.0
H237 H 0.07614 0.91771 -0.01143 0.0
H238 H 0.12686 0.95599 -0.00574 0.0
H239 H 0.03855 0.86501 0.01162 0.0
H240 H 0.04898 0.96222 0.00711 0.0
H241 H 0.06409 0.01271 0.0242 0.0
H242 H 0.0119 0.97706 0.09846 0.0
H243 H -0.00335 0.92632 0.08193 0.0
C244 C 0.91055 0.83182 0.96617 0.0
C245 C 0.8878 0.82685 0.98442 0.0
C246 C 0.93813 0.8414 0.97688 0.0
C247 C 0.9435 0.8463 0.00601 0.0
C248 C 0.92045 0.83957 0.02447 0.0
C249 C 0.89269 0.82961 0.01378 0.0
C250 C 0.9737 0.86265 0.01628 0.0
C251 C -0.01654 0.89068 0.02844 0.0
C252 C -0.00632 0.85306 0.01039 0.0
C253 C -0.0157 0.82319 -0.00155 0.0
C254 C 0.96178 0.79779 0.01117 0.0
C255 C 0.95291 0.76972 -0.00023 0.0
C256 C 0.96646 0.76673 0.9757 0.0
C257 C -0.01104 0.7918 0.96301 0.0
C258 C -0.00209 0.81993 0.97433 0.0
C259 C 0.10352 0.9564 0.06143 0.0
C260 C 0.1226 0.96495 0.03836 0.0
C261 C 0.07475 0.93426 0.05826 0.0
C262 C 0.06437 0.92065 0.03183 0.0
C263 C 0.08371 0.92798 0.00914 0.0
C264 C 0.11265 0.94992 0.0124 0.0
C265 C 0.03299 0.90072 0.02726 0.0
C266 C 0.02314 0.87227 0.016 0.0
C267 C 0.01285 0.91003 0.03352 0.0
C268 C 0.02195 0.94051 0.04346 0.0
C269 C 0.0409 0.96516 0.02719 0.0
C270 C 0.04946 -0.00619 0.03675 0.0
C271 C 0.03907 -0.00191 0.06245 0.0
C272 C 0.01999 0.97371 0.07859 0.0
C273 C 0.01135 0.945 0.06913 0.0
H274 H 0.04574 0.0203 0.06981 0.0
H275 H 0.95955 0.74498 0.9669 0.0
H276 H 0.84165 0.42334 0.35146 0.0
H277 H 0.8297 0.46166 0.36462 0.0
H278 H 0.80942 0.46753 0.27744 0.0
H279 H 0.82105 0.4295 0.26428 0.0
H280 H 0.83867 0.52297 0.30488 0.0
H281 H 0.75748 0.42094 0.3224 0.0
H282 H 0.73602 0.37334 0.34772 0.0
H283 H 0.75324 0.41935 0.42734 0.0
H284 H 0.77511 0.46721 0.40245 0.0
H285 H 0.72079 0.53103 0.26409 0.0
H286 H 0.76042 0.52358 0.27769 0.0
H287 H 0.7446 0.53266 0.36576 0.0
H288 H 0.70433 0.54004 0.35211 0.0
H289 H 0.74602 0.48299 0.35674 0.0
H290 H 0.80985 0.58246 0.33728 0.0
H291 H 0.8308 0.63043 0.3129 0.0
H292 H 0.84841 0.59264 0.2399 0.0
H293 H 0.82717 0.54431 0.26361 0.0
C294 C 0.83515 0.43325 0.33509 0.0
C295 C 0.83194 0.42321 0.30689 0.0
C296 C 0.82835 0.45508 0.34263 0.0
C297 C 0.81859 0.46732 0.322 0.0
C298 C 0.81703 0.45848 0.29367 0.0
C299 C 0.82345 0.43654 0.28621 0.0
C300 C 0.80684 0.48682 0.32955 0.0
C301 C 0.81858 0.51453 0.31647 0.0
C302 C 0.78142 0.47637 0.34585 0.0
C303 C 0.76822 0.44759 0.36063 0.0
C304 C 0.75685 0.42087 0.34531 0.0
C305 C 0.7446 0.39387 0.35957 0.0
C306 C 0.74336 0.39334 0.38912 0.0
C307 C 0.7543 0.4198 0.40446 0.0
C308 C 0.76662 0.44686 0.3903 0.0
C309 C 0.72602 0.53202 0.28635 0.0
C310 C 0.70927 0.53585 0.30703 0.0
C311 C 0.74894 0.52806 0.29412 0.0
C312 C 0.75576 0.52789 0.32276 0.0
C313 C 0.73986 0.53295 0.34353 0.0
C314 C 0.71691 0.53719 0.3357 0.0
C315 C 0.77676 0.51832 0.33032 0.0
C316 C 0.76679 0.49239 0.34624 0.0
C317 C 0.80398 0.53063 0.31687 0.0
C318 C 0.81688 0.55967 0.30231 0.0
C319 C 0.81804 0.5843 0.31597 0.0
C320 C 0.82999 0.61158 0.30226 0.0
C321 C 0.84094 0.61458 0.27488 0.0
C322 C 0.83998 0.5903 0.26114 0.0
C323 C 0.82804 0.56296 0.27475 0.0
H324 H 0.85018 0.63572 0.2643 0.0
H325 H 0.73383 0.37245 0.40016 0.0
H326 H 0.45347 0.19859 0.34433 0.0
H327 H 0.45733 0.24771 0.34468 0.0
H328 H 0.54964 0.28892 0.33508 0.0
H329 H 0.54582 0.24036 0.33398 0.0
H330 H 0.4899 0.30489 0.37324 0.0
H331 H 0.56817 0.33222 0.2789 0.0
H332 H 0.57779 0.30574 0.24083 0.0
H333 H 0.4896 0.23535 0.2437 0.0
H334 H 0.47934 0.26164 0.28145 0.0
H335 H 0.58035 0.45812 0.34629 0.0
H336 H 0.55239 0.40583 0.3587 0.0
H337 H 0.5117 0.38597 0.27643 0.0
H338 H 0.54104 0.43803 0.26346 0.0
H339 H 0.53354 0.35429 0.28239 0.0
H340 H 0.47315 0.37227 0.34245 0.0
H341 H 0.46013 0.39713 0.37935 0.0
H342 H 0.50453 0.37521 0.44176 0.0
H343 H 0.51818 0.35057 0.40518 0.0
C344 C 0.4746 0.21824 0.34318 0.0
C345 C 0.49932 0.21578 0.33874 0.0
C346 C 0.47679 0.24623 0.34339 0.0
C347 C 0.50372 0.27187 0.33939 0.0
C348 C 0.52861 0.26939 0.3378 0.0
C349 C 0.5264 0.24164 0.33716 0.0
C350 C 0.50601 0.30074 0.33275 0.0
C351 C 0.49923 0.31578 0.35336 0.0
C352 C 0.51725 0.31442 0.30642 0.0
C353 C 0.52305 0.29883 0.28313 0.0
C354 C 0.55079 0.3112 0.27127 0.0
C355 C 0.55636 0.2962 0.24977 0.0
C356 C 0.53434 0.26885 0.23989 0.0
C357 C 0.50666 0.2565 0.25141 0.0
C358 C 0.50096 0.27144 0.27287 0.0
C359 C 0.56469 0.44273 0.33124 0.0
C360 C 0.56301 0.45202 0.30383 0.0
C361 C 0.54856 0.41274 0.33839 0.0
C362 C 0.52988 0.39169 0.3185 0.0
C363 C 0.52614 0.40161 0.29209 0.0
C364 C 0.54281 0.4314 0.2847 0.0
C365 C 0.51835 0.35944 0.32322 0.0
C366 C 0.52359 0.34357 0.30216 0.0
C367 C 0.50504 0.34497 0.34884 0.0
C368 C 0.49683 0.35969 0.37099 0.0
C369 C 0.48032 0.37292 0.364 0.0
C370 C 0.47279 0.38695 0.38487 0.0
C371 C 0.48153 0.38779 0.41287 0.0
C372 C 0.49777 0.37454 0.42006 0.0
C373 C 0.50536 0.36048 0.39927 0.0
H374 H 0.47569 0.39867 0.429 0.0
H375 H 0.53872 0.25725 0.22329 0.0
H376 H 0.57017 0.1142 0.30045 0.0
H377 H 0.61878 0.12792 0.31451 0.0
H378 H 0.60123 0.14516 0.39963 0.0
H379 H 0.5522 0.13191 0.38518 0.0
H380 H 0.6423 0.19273 0.37911 0.0
H381 H 0.63114 0.09861 0.38648 0.0
H382 H 0.61382 0.046 0.37608 0.0
H383 H 0.6577 0.06934 0.29617 0.0
H384 H 0.67492 0.12205 0.30579 0.0
H385 H 0.79357 0.28221 0.35977 0.0
H386 H 0.75224 0.2389 0.38077 0.0
H387 H 0.71703 0.20713 0.29751 0.0
H388 H 0.7579 0.25047 0.27638 0.0
H389 H 0.70806 0.16085 0.33853 0.0
H390 H 0.69767 0.24961 0.32713 0.0
H391 H 0.71415 0.30231 0.3366 0.0
H392 H 0.70992 0.28662 0.42603 0.0
H393 H 0.69374 0.23386 0.41701 0.0
C394 C 0.57626 0.11977 0.32246 0.0
C395 C 0.55769 0.12262 0.34158 0.0
C396 C 0.6041 0.12733 0.33064 0.0
C397 C 0.61391 0.13776 0.35819 0.0
C398 C 0.59419 0.13723 0.37825 0.0
C399 C 0.56614 0.12957 0.37001 0.0
C400 C 0.64554 0.15557 0.36319 0.0
C401 C 0.65673 0.18527 0.3714 0.0
C402 C 0.66463 0.14617 0.35305 0.0
C403 C 0.65441 0.11442 0.34695 0.0
C404 C 0.637 0.09256 0.36661 0.0
C405 C 0.6272 0.06268 0.36085 0.0
C406 C 0.63468 0.05434 0.3355 0.0
C407 C 0.65199 0.07585 0.31584 0.0
C408 C 0.66186 0.10576 0.32149 0.0
C409 C 0.77736 0.26564 0.3459 0.0
C410 C 0.7787 0.26991 0.31644 0.0
C411 C 0.75387 0.24089 0.35795 0.0
C412 C 0.73168 0.21991 0.34066 0.0
C413 C 0.7341 0.223 0.31116 0.0
C414 C 0.75729 0.24792 0.29915 0.0
C415 C 0.70375 0.19764 0.35283 0.0
C416 C 0.69357 0.1675 0.34772 0.0
C417 C 0.6855 0.20645 0.36601 0.0
C418 C 0.69489 0.23799 0.37142 0.0
C419 C 0.70045 0.25748 0.3488 0.0
C420 C 0.7097 0.28732 0.35408 0.0
C421 C 0.71317 0.29781 0.3819 0.0
C422 C 0.70729 0.27846 0.4045 0.0
C423 C 0.6981 0.2486 0.39932 0.0
H424 H 0.72034 0.32091 0.38594 0.0
H425 H 0.62705 0.03119 0.33108 0.0
H426 H 0.41446 0.89335 0.6571 0.0
H427 H 0.45444 0.88569 0.64271 0.0
H428 H 0.42908 0.81816 0.70635 0.0
H429 H 0.39046 0.82647 0.7214 0.0
H430 H 0.48391 0.849 0.70615 0.0
H431 H 0.40935 0.80417 0.6319 0.0
H432 H 0.37952 0.80741 0.59383 0.0
H433 H 0.45608 0.87036 0.55007 0.0
H434 H 0.48632 0.86761 0.58803 0.0
H435 H 0.48361 0.72291 0.63432 0.0
H436 H 0.47217 0.76224 0.62776 0.0
H437 H 0.55464 0.8255 0.66379 0.0
H438 H 0.56498 0.78541 0.67238 0.0
H439 H 0.48522 0.81373 0.60872 0.0
H440 H 0.54621 0.86777 0.71053 0.0
H441 H 0.56889 0.85754 0.75111 0.0
H442 H 0.50787 0.76458 0.74341 0.0
H443 H 0.48471 0.77436 0.70301 0.0
C444 C 0.41773 0.87716 0.6682 0.0
C445 C 0.39923 0.86051 0.6904 0.0
C446 C 0.44049 0.8727 0.65986 0.0
C447 C 0.44471 0.85117 0.67328 0.0
C448 C 0.42654 0.83508 0.69576 0.0
C449 C 0.40427 0.83979 0.70431 0.0
C450 C 0.46701 0.84388 0.66387 0.0
C451 C 0.48458 0.84184 0.68468 0.0
C452 C 0.46817 0.83471 0.63586 0.0
C453 C 0.45003 0.83594 0.61289 0.0
C454 C 0.41978 0.81876 0.61419 0.0
C455 C 0.40282 0.82051 0.59264 0.0
C456 C 0.4159 0.83916 0.56959 0.0
C457 C 0.44598 0.85598 0.56796 0.0
C458 C 0.46303 0.85432 0.58947 0.0
C459 C 0.49979 0.74546 0.63968 0.0
C460 C 0.52504 0.75127 0.65396 0.0
C461 C 0.49327 0.76802 0.63592 0.0
C462 C 0.51213 0.79675 0.64614 0.0
C463 C 0.53939 0.80336 0.65646 0.0
C464 C 0.54546 0.78055 0.66112 0.0
C465 C 0.50057 0.81707 0.6515 0.0
C466 C 0.48536 0.82192 0.62992 0.0
C467 C 0.50056 0.82782 0.67915 0.0
C468 C 0.51406 0.82177 0.70361 0.0
C469 C 0.53766 0.84519 0.71758 0.0
C470 C 0.55057 0.83946 0.74052 0.0
C471 C 0.5399 0.81042 0.74976 0.0
C472 C 0.51617 0.78705 0.73619 0.0
C473 C 0.50313 0.79267 0.7133 0.0
H474 H 0.54997 0.80604 0.76749 0.0
H475 H 0.40274 0.84054 0.55296 0.0
H476 H 0.27493 0.78727 0.64542 0.0
H477 H 0.23745 0.73665 0.63455 0.0
H478 H 0.18381 0.74144 0.7005 0.0
H479 H 0.22265 0.79124 0.71291 0.0
H480 H 0.1819 0.69474 0.70753 0.0
H481 H 0.16664 0.73384 0.6244 0.0
H482 H 0.17802 0.76353 0.58097 0.0
H483 H 0.21489 0.71458 0.54397 0.0
H484 H 0.20413 0.68486 0.58732 0.0
H485 H 0.10064 0.55238 0.60703 0.0
H486 H 0.11306 0.60297 0.61964 0.0
H487 H 0.17027 0.60429 0.68483 0.0
H488 H 0.15583 0.55298 0.67372 0.0
H489 H 0.15814 0.6483 0.61228 0.0
H490 H 0.18987 0.6565 0.73231 0.0
H491 H 0.17055 0.62704 0.77568 0.0
H492 H 0.08569 0.58184 0.73905 0.0
H493 H 0.10438 0.6113 0.6956 0.0
C494 C 0.25475 0.77773 0.65697 0.0
C495 C 0.25143 0.79303 0.67979 0.0
C496 C 0.23318 0.74877 0.6507 0.0
C497 C 0.20741 0.73499 0.66647 0.0
C498 C 0.20344 0.75128 0.68809 0.0
C499 C 0.22546 0.77985 0.695 0.0
C500 C 0.18636 0.70278 0.66256 0.0
C501 C 0.17639 0.68468 0.68665 0.0
C502 C 0.17811 0.6894 0.63545 0.0
C503 C 0.18467 0.70719 0.60922 0.0
C504 C 0.17734 0.72952 0.60708 0.0
C505 C 0.18366 0.74634 0.58246 0.0
C506 C 0.1972 0.74097 0.55974 0.0
C507 C 0.2044 0.71871 0.56158 0.0
C508 C 0.19814 0.70182 0.58616 0.0
C509 C 0.11499 0.56324 0.62477 0.0
C510 C 0.12709 0.54887 0.63964 0.0
C511 C 0.12232 0.59223 0.63182 0.0
C512 C 0.14264 0.60775 0.65328 0.0
C513 C 0.15391 0.59282 0.66878 0.0
C514 C 0.14577 0.56346 0.66237 0.0
C515 C 0.15455 0.64024 0.65724 0.0
C516 C 0.16294 0.65838 0.63316 0.0
C517 C 0.16003 0.6537 0.68436 0.0
C518 C 0.1486 0.63603 0.71059 0.0
C519 C 0.16705 0.64041 0.73355 0.0
C520 C 0.15621 0.62367 0.75815 0.0
C521 C 0.12692 0.60254 0.7601 0.0
C522 C 0.10839 0.59815 0.73748 0.0
C523 C 0.1191 0.61484 0.71284 0.0
H524 H 0.11858 0.58959 0.77915 0.0
H525 H 0.20208 0.75403 0.5407 0.0
H526 H 0.19019 0.44453 0.6522 0.0
H527 H 0.23884 0.45447 0.66428 0.0
H528 H 0.27465 0.52292 0.60097 0.0
H529 H 0.22661 0.51205 0.58788 0.0
H530 H 0.30652 0.50026 0.60279 0.0
H531 H 0.26436 0.53501 0.67506 0.0
H532 H 0.22837 0.52794 0.7115 0.0
H533 H 0.24835 0.46931 0.75682 0.0
H534 H 0.28426 0.47585 0.72045 0.0
H535 H 0.41367 0.62526 0.69868 0.0
H536 H 0.36533 0.58529 0.68822 0.0
H537 H 0.40057 0.53444 0.65068 0.0
H538 H 0.44958 0.57564 0.65974 0.0
H539 H 0.33311 0.53247 0.70249 0.0
H540 H 0.35465 0.48933 0.5994 0.0
H541 H 0.39076 0.50529 0.5611 0.0
H542 H 0.41253 0.59567 0.57439 0.0
H543 H 0.37635 0.58016 0.61254 0.0
C544 C 0.20846 0.46124 0.6405 0.0
C545 C 0.20456 0.47778 0.61936 0.0
C546 C 0.23626 0.46698 0.64748 0.0
C547 C 0.26056 0.48991 0.63397 0.0
C548 C 0.25639 0.50508 0.61174 0.0
C549 C 0.22876 0.49895 0.60438 0.0
C550 C 0.29041 0.50081 0.6445 0.0
C551 C 0.3123 0.50691 0.6247 0.0
C552 C 0.29814 0.5095 0.67308 0.0
C553 C 0.27663 0.50558 0.6949 0.0
C554 C 0.26092 0.52049 0.69273 0.0
C555 C 0.24057 0.51659 0.71336 0.0
C556 C 0.236 0.4981 0.7364 0.0
C557 C 0.25185 0.48355 0.73891 0.0
C558 C 0.27219 0.48733 0.7183 0.0
C559 C 0.41121 0.60553 0.68832 0.0
C560 C 0.43541 0.60367 0.67982 0.0
C561 C 0.38347 0.58253 0.68249 0.0
C562 C 0.37913 0.55679 0.66847 0.0
C563 C 0.40329 0.55426 0.66104 0.0
C564 C 0.43127 0.57774 0.66627 0.0
C565 C 0.34924 0.53399 0.66033 0.0
C566 C 0.32736 0.52511 0.68073 0.0
C567 C 0.34155 0.52408 0.63203 0.0
C568 C 0.36314 0.53363 0.60902 0.0
C569 C 0.36715 0.51259 0.59409 0.0
C570 C 0.38761 0.52155 0.57242 0.0
C571 C 0.40402 0.55149 0.5654 0.0
C572 C 0.39989 0.57251 0.57992 0.0
C573 C 0.37943 0.56365 0.60156 0.0
H574 H 0.41987 0.55838 0.54865 0.0
H575 H 0.22023 0.49511 0.75235 0.0
H576 H 0.00429 0.23344 0.87807 0.0
H577 H 0.01874 0.26712 0.8379 0.0
H578 H 0.04863 0.34152 0.89519 0.0
H579 H 0.03359 0.3079 0.93548 0.0
H580 H 0.02147 0.34859 0.85184 0.0
H581 H 0.09593 0.32398 0.86268 0.0
H582 H 0.11624 0.29093 0.86729 0.0
H583 H 0.08281 0.25344 0.78536 0.0
H584 H 0.06193 0.286 0.78043 0.0
H585 H 0.11118 0.4601 0.75252 0.0
H586 H 0.09312 0.42665 0.79302 0.0
H587 H 0.05641 0.35145 0.73631 0.0
H588 H 0.07437 0.38465 0.69574 0.0
H589 H 0.08717 0.34532 0.77951 0.0
H590 H 0.01338 0.37168 0.76918 0.0
H591 H -0.00558 0.40598 0.76538 0.0
H592 H 0.02887 0.44205 0.84745 0.0
H593 H 0.04839 0.40823 0.85157 0.0
C594 C 0.01382 0.25695 0.88215 0.0
C595 C 0.01795 0.26797 0.91001 0.0
C596 C 0.0222 0.27621 0.85914 0.0
C597 C 0.03524 0.30694 0.8635 0.0
C598 C 0.03869 0.31793 0.89128 0.0
C599 C 0.03014 0.29866 0.9143 0.0
C600 C 0.04569 0.32761 0.83913 0.0
C601 C 0.03613 0.34811 0.83623 0.0
C602 C 0.0645 0.32676 0.81847 0.0
C603 C 0.07712 0.30723 0.82131 0.0
C604 C 0.09272 0.30853 0.84574 0.0
C605 C 0.10436 0.28991 0.84839 0.0
C606 C 0.10075 0.27004 0.82666 0.0
C607 C 0.08555 0.26881 0.80219 0.0
C608 C 0.07383 0.28736 0.79945 0.0
C609 C 0.09916 0.43645 0.74865 0.0
C610 C 0.09421 0.42507 0.72087 0.0
C611 C 0.08876 0.41736 0.77182 0.0
C612 C 0.07326 0.38655 0.76767 0.0
C613 C 0.0683 0.37515 0.73999 0.0
C614 C 0.07852 0.39419 0.71682 0.0
C615 C 0.06282 0.36613 0.79217 0.0
C616 C 0.07248 0.34574 0.79512 0.0
C617 C 0.04435 0.36729 0.81298 0.0
C618 C 0.0326 0.38762 0.81055 0.0
C619 C 0.01713 0.3871 0.78631 0.0
C620 C 0.00624 0.40642 0.78412 0.0
C621 C 0.01051 0.42624 0.80613 0.0
C622 C 0.02562 0.42672 0.8304 0.0
C623 C 0.03658 0.40746 0.83268 0.0
H624 H 0.00205 0.44117 0.80439 0.0
H625 H 0.10979 0.25564 0.82875 0.0
H626 H 0.78251 0.75432 0.87223 0.0
H627 H 0.74467 0.72334 0.83845 0.0
H628 H 0.68004 0.71796 0.89671 0.0
H629 H 0.71788 0.74815 0.93108 0.0
H630 H 0.65955 0.66747 0.86497 0.0
H631 H 0.70985 0.77335 0.84842 0.0
H632 H 0.75312 0.82211 0.84055 0.0
H633 H 0.77345 0.78846 0.76614 0.0
H634 H 0.73046 0.73937 0.7738 0.0
H635 H 0.55353 0.67391 0.78372 0.0
H636 H 0.59148 0.67844 0.81506 0.0
H637 H 0.64146 0.67907 0.74305 0.0
H638 H 0.60341 0.67489 0.71119 0.0
H639 H 0.67212 0.72495 0.77757 0.0
H640 H 0.61413 0.62112 0.7898 0.0
H641 H 0.56955 0.57369 0.79825 0.0
H642 H 0.56184 0.60388 0.88081 0.0
H643 H 0.60614 0.65168 0.87272 0.0
C644 C 0.76017 0.74588 0.87812 0.0
C645 C 0.75309 0.75402 0.90403 0.0
C646 C 0.73859 0.7282 0.85882 0.0
C647 C 0.70964 0.71903 0.86478 0.0
C648 C 0.70229 0.72495 0.89164 0.0
C649 C 0.72391 0.74224 0.91123 0.0
C650 C 0.68772 0.70704 0.84191 0.0
C651 C 0.66219 0.67997 0.84584 0.0
C652 C 0.69153 0.72308 0.81666 0.0
C653 C 0.71717 0.75265 0.81186 0.0
C654 C 0.72366 0.77632 0.83048 0.0
C655 C 0.74811 0.80401 0.82605 0.0
C656 C 0.76607 0.80835 0.80291 0.0
C657 C 0.75955 0.78504 0.78409 0.0
C658 C 0.73515 0.75729 0.78845 0.0
C659 C 0.5724 0.67462 0.77443 0.0
C660 C 0.57557 0.67432 0.7449 0.0
C661 C 0.59398 0.67689 0.79247 0.0
C662 C 0.61916 0.67872 0.78145 0.0
C663 C 0.62207 0.67747 0.75199 0.0
C664 C 0.60036 0.67512 0.73382 0.0
C665 C 0.64357 0.68553 0.80072 0.0
C666 C 0.66963 0.71188 0.79624 0.0
C667 C 0.64004 0.6689 0.82549 0.0
C668 C 0.61344 0.64008 0.83057 0.0
C669 C 0.60284 0.61774 0.80969 0.0
C670 C 0.57762 0.59076 0.81443 0.0
C671 C 0.56286 0.58579 0.84004 0.0
C672 C 0.57331 0.60776 0.86098 0.0
C673 C 0.59851 0.63479 0.85635 0.0
H674 H 0.54333 0.56489 0.84366 0.0
H675 H 0.785 0.8298 0.79951 0.0
H676 H 0.33483 0.91256 0.80031 0.0
H677 H 0.31914 0.9382 0.83265 0.0
H678 H 0.28823 0.96689 0.76231 0.0
H679 H 0.30405 0.94109 0.7294 0.0
H680 H 0.31493 0.01021 0.80876 0.0
H681 H 0.24054 0.91009 0.79224 0.0
H682 H 0.22053 0.85623 0.78725 0.0
H683 H 0.24304 0.85164 0.8735 0.0
H684 H 0.26363 0.9056 0.87886 0.0
H685 H 0.22181 0.03383 0.90307 0.0
H686 H 0.24058 0.01876 0.86287 0.0
H687 H 0.26993 0.97499 0.91983 0.0
H688 H 0.25118 0.98979 0.96003 0.0
H689 H 0.24028 0.94008 0.87508 0.0
H690 H 0.31707 0.04066 0.89059 0.0
H691 H 0.33799 0.09468 0.8953 0.0
H692 H 0.31061 0.09852 0.81084 0.0
H693 H 0.28917 0.04442 0.80577 0.0
C694 C 0.32518 0.92474 0.79155 0.0
C695 C 0.32027 0.9244 0.7623 0.0
C696 C 0.31626 0.93941 0.81011 0.0
C697 C 0.30209 0.95394 0.79988 0.0
C698 C 0.29906 0.95566 0.77056 0.0
C699 C 0.30809 0.94093 0.75183 0.0
C700 C 0.2881 0.96449 0.82024 0.0
C701 C 0.29822 -0.00508 0.82295 0.0
C702 C 0.26652 0.94446 0.83887 0.0
C703 C 0.25383 0.91193 0.83587 0.0
C704 C 0.24142 0.89763 0.81008 0.0
C705 C 0.22994 0.86708 0.80719 0.0
C706 C 0.23056 0.85053 0.83003 0.0
C707 C 0.24259 0.8645 0.85582 0.0
C708 C 0.25414 0.89506 0.8588 0.0
C709 C 0.2323 0.02104 0.90704 0.0
C710 C 0.23495 0.01296 0.93477 0.0
C711 C 0.24314 0.01258 0.88405 0.0
C712 C 0.25679 -0.00409 0.88839 0.0
C713 C 0.25945 0.98785 0.91602 0.0
C714 C 0.24876 -0.00362 0.93898 0.0
C715 C 0.26759 0.98594 0.86422 0.0
C716 C 0.25674 0.95546 0.86073 0.0
C717 C 0.28836 0.00595 0.84489 0.0
C718 C 0.30121 0.03845 0.84793 0.0
C719 C 0.31527 0.05298 0.87312 0.0
C720 C 0.32727 0.08363 0.87583 0.0
C721 C 0.32555 0.10001 0.85342 0.0
C722 C 0.31188 0.08579 0.82821 0.0
C723 C 0.29982 0.05515 0.8254 0.0
H724 H 0.33486 0.12374 0.85556 0.0
H725 H 0.22167 0.82687 0.82775 0.0
H726 H 0.40643 0.04874 0.28278 0.0
H727 H 0.36891 0.01989 0.2475 0.0
H728 H 0.41356 0.08994 0.18688 0.0
H729 H 0.45123 0.11782 0.22116 0.0
H730 H 0.33222 0.02935 0.22505 0.0
H731 H 0.40317 0.07105 0.12141 0.0
H732 H 0.4497 0.07774 0.10469 0.0
H733 H 0.44614 0.0167 0.16724 0.0
H734 H 0.39935 0.00922 0.18409 0.0
H735 H 0.26739 0.06791 0.12485 0.0
H736 H 0.29994 0.06308 0.15718 0.0
H737 H 0.30049 -0.0035 0.10287 0.0
H738 H 0.26824 0.00205 0.06952 0.0
H739 H 0.35224 0.03078 0.12233 0.0
H740 H 0.26316 0.9758 0.16608 0.0
H741 H 0.21445 0.96212 0.18293 0.0
H742 H 0.2507 0.03609 0.24045 0.0
H743 H 0.29962 0.05054 0.22366 0.0
C744 C 0.40835 0.05767 0.26175 0.0
C745 C 0.4318 0.08553 0.25476 0.0
C746 C 0.38697 0.04116 0.24159 0.0
C747 C 0.38863 0.05237 0.21423 0.0
C748 C 0.41217 0.08014 0.20738 0.0
C749 C 0.43362 0.09632 0.22723 0.0
C750 C 0.36451 0.03725 0.19363 0.0
C751 C 0.33654 0.02917 0.20265 0.0
C752 C 0.36961 0.0354 0.16443 0.0
C753 C 0.39767 0.03959 0.15406 0.0
C754 C 0.41213 0.05882 0.13146 0.0
C755 C 0.43862 0.06282 0.122 0.0
C756 C 0.45088 0.04768 0.13491 0.0
C757 C 0.43665 0.02846 0.15729 0.0
C758 C 0.41016 0.02437 0.16684 0.0
C759 C 0.27442 0.05224 0.11968 0.0
C760 C 0.26507 0.03516 0.09479 0.0
C761 C 0.29286 0.04929 0.13834 0.0
C762 C 0.3019 0.02869 0.13297 0.0
C763 C 0.29344 0.01223 0.10763 0.0
C764 C 0.27515 0.0155 0.08858 0.0
C765 C 0.32097 0.02566 0.1538 0.0
C766 C 0.34782 0.03007 0.1448 0.0
C767 C 0.31451 0.02287 0.18307 0.0
C768 C 0.28513 0.01425 0.19357 0.0
C769 C 0.26077 0.98924 0.18224 0.0
C770 C 0.2331 0.98135 0.19178 0.0
C771 C 0.22949 -0.00178 0.21275 0.0
C772 C 0.25354 0.02301 0.22424 0.0
C773 C 0.28126 0.03102 0.21476 0.0
H774 H 0.20805 0.99208 0.2201 0.0
H775 H 0.4714 0.05083 0.12756 0.0
H776 H 0.02983 0.27359 0.10633 0.0
H777 H 0.02035 0.30275 0.14076 0.0
H778 H 0.97219 0.31975 0.07783 0.0
H779 H -0.01755 0.29123 0.04288 0.0
H780 H -0.00014 0.36656 0.11518 0.0
H781 H 0.93782 0.2606 0.11975 0.0
H782 H 0.92714 0.20894 0.12343 0.0
H783 H 0.96996 0.22847 0.20403 0.0
H784 H 0.98126 0.2804 0.20061 0.0
H785 H 0.8861 0.36425 0.19418 0.0
H786 H 0.91944 0.35946 0.16237 0.0
H787 H 0.96207 0.3468 0.23384 0.0
H788 H 0.92856 0.35149 0.26601 0.0
H789 H 0.94375 0.30235 0.1953 0.0
H790 H -0.00174 0.40755 0.1932 0.0
H791 H 0.00659 0.45828 0.18865 0.0
H792 H 0.97531 0.43971 0.1031 0.0
H793 H 0.96638 0.3887 0.10724 0.0
C794 C 0.01785 0.28418 0.09961 0.0
C795 C 0.00645 0.27978 0.0721 0.0
C796 C 0.01245 0.30083 0.11931 0.0
C797 C -0.00504 0.31275 0.11204 0.0
C798 C -0.01437 0.31058 0.08389 0.0
C799 C -0.00854 0.29427 0.06396 0.0
C800 C -0.01667 0.32384 0.1345 0.0
C801 C -0.01251 0.35256 0.13266 0.0
C802 C 0.96763 0.30569 0.15757 0.0
C803 C 0.96067 0.27444 0.15977 0.0
C804 C 0.94514 0.25392 0.13816 0.0
C805 C 0.93895 0.22459 0.14021 0.0
C806 C 0.94794 0.21545 0.16391 0.0
C807 C 0.96307 0.2356 0.18566 0.0
C808 C 0.96936 0.26498 0.18368 0.0
C809 C 0.90287 0.36096 0.20323 0.0
C810 C 0.90449 0.35792 0.23262 0.0
C811 C 0.92209 0.35849 0.18499 0.0
C812 C 0.94333 0.35294 0.19573 0.0
C813 C 0.94588 0.35122 0.22514 0.0
C814 C 0.92674 0.35391 0.24348 0.0
C815 C 0.96011 0.34511 0.17605 0.0
C816 C 0.95667 0.31673 0.17824 0.0
C817 C 0.97613 0.3635 0.15324 0.0
C818 C 0.98147 0.39419 0.15061 0.0
C819 C -0.00707 0.41419 0.17348 0.0
C820 C -0.00219 0.44302 0.17096 0.0
C821 C -0.00856 0.4522 0.14562 0.0
C822 C 0.98023 0.43257 0.12272 0.0
C823 C 0.9753 0.4037 0.12513 0.0
H824 H -0.00477 0.47454 0.14371 0.0
H825 H 0.94313 0.19273 0.16547 0.0
H826 H 0.66896 0.63286 0.26347 0.0
H827 H 0.69024 0.67485 0.23076 0.0
H828 H 0.64333 0.61604 0.16152 0.0
H829 H 0.6225 0.57422 0.19382 0.0
H830 H 0.69989 0.64571 0.1514 0.0
H831 H 0.62886 0.6698 0.18476 0.0
H832 H 0.60278 0.68172 0.2208 0.0
H833 H 0.68199 0.75872 0.246 0.0
H834 H 0.70863 0.74703 0.21035 0.0
H835 H 0.73274 0.74048 0.03666 0.0
H836 H 0.70584 0.70716 0.07523 0.0
H837 H 0.76182 0.77269 0.13611 0.0
H838 H 0.78891 0.80649 0.09749 0.0
H839 H 0.70367 0.7427 0.15324 0.0
H840 H 0.77458 0.71928 0.12057 0.0
H841 H 0.80155 0.70777 0.08521 0.0
H842 H 0.72343 0.62943 0.06015 0.0
H843 H 0.6959 0.64072 0.09509 0.0
C844 C 0.66253 0.62909 0.24143 0.0
C845 C 0.64428 0.60021 0.23116 0.0
C846 C 0.67475 0.6531 0.22274 0.0
C847 C 0.66859 0.64855 0.19361 0.0
C848 C 0.64863 0.62005 0.18383 0.0
C849 C 0.63665 0.59616 0.20236 0.0
C850 C 0.68516 0.67235 0.17275 0.0
C851 C 0.70032 0.66673 0.15163 0.0
C852 C 0.68677 0.70028 0.17369 0.0
C853 C 0.67079 0.70735 0.19509 0.0
C854 C 0.64076 0.68912 0.19816 0.0
C855 C 0.62587 0.69587 0.21848 0.0
C856 C 0.64073 0.72091 0.23574 0.0
C857 C 0.67051 0.7393 0.23265 0.0
C858 C 0.68551 0.73264 0.21237 0.0
C859 C 0.73927 0.74801 0.05822 0.0
C860 C 0.76322 0.77608 0.06394 0.0
C861 C 0.72383 0.72889 0.08027 0.0
C862 C 0.73204 0.7373 0.10853 0.0
C863 C 0.75514 0.76575 0.11444 0.0
C864 C 0.77068 0.78497 0.09233 0.0
C865 C 0.71752 0.71551 0.13153 0.0
C866 C 0.7031 0.72161 0.15311 0.0
C867 C 0.71664 0.68795 0.13123 0.0
C868 C 0.73314 0.681 0.11027 0.0
C869 C 0.76311 0.69973 0.10736 0.0
C870 C 0.77851 0.69322 0.08742 0.0
C871 C 0.7642 0.66792 0.0704 0.0
C872 C 0.73448 0.64904 0.07333 0.0
C873 C 0.71897 0.65546 0.09322 0.0
H874 H 0.77616 0.66292 0.05497 0.0
H875 H 0.62916 0.7261 0.25145 0.0
H876 H 0.02745 0.40314 0.59785 0.0
H877 H -0.01608 0.37973 0.56794 0.0
H878 H 0.03707 0.39711 0.49391 0.0
H879 H 0.08027 0.4201 0.52329 0.0
H880 H -0.0002 0.42629 0.50135 0.0
H881 H 0.00101 0.3332 0.504 0.0
H882 H -0.00184 0.2902 0.52842 0.0
H883 H 0.91415 0.2667 0.56014 0.0
H884 H 0.91672 0.30988 0.53623 0.0
H885 H 0.92954 0.37862 0.37283 0.0
H886 H 0.95899 0.38494 0.41445 0.0
H887 H 0.88238 0.3413 0.46589 0.0
H888 H 0.8525 0.33471 0.42414 0.0
H889 H 0.92358 0.32359 0.47804 0.0
H890 H 0.91881 0.41186 0.47148 0.0
H891 H 0.92047 0.45481 0.44814 0.0
H892 H 0.00945 0.48825 0.42666 0.0
H893 H 0.00822 0.44524 0.44949 0.0
C894 C 0.02973 0.401 0.57532 0.0
C895 C 0.05724 0.41387 0.56282 0.0
C896 C 0.0049 0.38769 0.55831 0.0
C897 C 0.00748 0.38699 0.52881 0.0
C898 C 0.03476 0.39755 0.51667 0.0
C899 C 0.0594 0.41074 0.5335 0.0
C900 C -0.01707 0.38004 0.50999 0.0
C901 C -0.0169 0.40384 0.49622 0.0
C902 C 0.96067 0.35084 0.50427 0.0
C903 C 0.95925 0.32503 0.51871 0.0
C904 C -0.0179 0.3191 0.51649 0.0
C905 C 0.98049 0.29463 0.53015 0.0
C906 C 0.95604 0.27579 0.54593 0.0
C907 C 0.93311 0.28135 0.54799 0.0
C908 C 0.93463 0.30581 0.53438 0.0
C909 C 0.91887 0.37025 0.39293 0.0
C910 C 0.8887 0.3564 0.39522 0.0
C911 C 0.93573 0.37389 0.4167 0.0
C912 C 0.92282 0.36383 0.44324 0.0
C913 C 0.89268 0.34923 0.44556 0.0
C914 C 0.87572 0.34566 0.42173 0.0
C915 C 0.94129 0.36985 0.46847 0.0
C916 C 0.93991 0.34605 0.48356 0.0
C917 C 0.96241 0.39916 0.47572 0.0
C918 C 0.96335 0.4252 0.46205 0.0
C919 C 0.93868 0.42826 0.4616 0.0
C920 C 0.93955 0.45263 0.44848 0.0
C921 C 0.96503 0.47422 0.43589 0.0
C922 C -0.01028 0.4715 0.43642 0.0
C923 C -0.01104 0.44714 0.44948 0.0
H924 H 0.96567 0.49308 0.42575 0.0
H925 H 0.95482 0.25685 0.55647 0.0
H926 H 0.66831 0.59154 0.41696 0.0
H927 H 0.65175 0.60721 0.45838 0.0
H928 H 0.57583 0.59193 0.41245 0.0
H929 H 0.59252 0.57689 0.37081 0.0
H930 H 0.59689 0.64175 0.44205 0.0
H931 H 0.57392 0.54178 0.46132 0.0
H932 H 0.58436 0.50108 0.46695 0.0
H933 H 0.64476 0.54944 0.53338 0.0
H934 H 0.63495 0.59061 0.5279 0.0
H935 H 0.50752 0.63413 0.5562 0.0
H936 H 0.52826 0.62268 0.51529 0.0
H937 H 0.60331 0.64139 0.5647 0.0
H938 H 0.58252 0.65249 0.6059 0.0
H939 H 0.58488 0.59163 0.53405 0.0
H940 H 0.60603 0.69084 0.51592 0.0
H941 H 0.59492 0.73107 0.51032 0.0
H942 H 0.5373 0.68373 0.44168 0.0
H943 H 0.54776 0.643 0.44713 0.0
C944 C 0.64815 0.59164 0.41562 0.0
C945 C 0.63168 0.58281 0.39059 0.0
C946 C 0.63864 0.60048 0.43938 0.0
C947 C 0.61231 0.60033 0.43869 0.0
C948 C 0.59618 0.59219 0.41352 0.0
C949 C 0.60574 0.58352 0.38973 0.0
C950 C 0.60129 0.60828 0.46423 0.0
C951 C 0.59398 0.63056 0.46208 0.0
C952 C 0.59809 0.59418 0.49059 0.0
C953 C 0.60392 0.5694 0.494 0.0
C954 C 0.58959 0.54382 0.47699 0.0
C955 C 0.59537 0.52065 0.48017 0.0
C956 C 0.61528 0.52271 0.50045 0.0
C957 C 0.62938 0.5479 0.51765 0.0
C958 C 0.6237 0.57115 0.51453 0.0
C959 C 0.52846 0.63587 0.5584 0.0
C960 C 0.5434 0.64435 0.58432 0.0
C961 C 0.54035 0.62942 0.53493 0.0
C962 C 0.56753 0.63156 0.53681 0.0
C963 C 0.58235 0.63968 0.56274 0.0
C964 C 0.57045 0.64608 0.58625 0.0
C965 C 0.5803 0.62495 0.5118 0.0
C966 C 0.58793 0.60292 0.51405 0.0
C967 C 0.58371 0.63923 0.48552 0.0
C968 C 0.57749 0.66375 0.4821 0.0
C969 C 0.59082 0.6889 0.49977 0.0
C970 C 0.58467 0.71181 0.4966 0.0
C971 C 0.56536 0.70992 0.4757 0.0
C972 C 0.55222 0.68515 0.45788 0.0
C973 C 0.55828 0.66216 0.46098 0.0
H974 H 0.56063 0.72768 0.47328 0.0
H975 H 0.61972 0.50475 0.50289 0.0
H976 H 0.31596 0.88544 0.56859 0.0
H977 H 0.33325 0.91993 0.52894 0.0
H978 H 0.38193 0.99254 0.58677 0.0
H979 H 0.36407 0.95835 0.62655 0.0
H980 H 0.35839 0.00923 0.54773 0.0
H981 H 0.41372 0.95973 0.54753 0.0
H982 H 0.42097 0.91659 0.54702 0.0
H983 H 0.37742 0.88878 0.46693 0.0
H984 H 0.36955 0.93154 0.46716 0.0
H985 H 0.46315 0.1132 0.45277 0.0
H986 H 0.43766 0.07788 0.49063 0.0
H987 H 0.38501 0.01158 0.42875 0.0
H988 H 0.4104 0.04675 0.3907 0.0
H989 H 0.4081 0.99065 0.46825 0.0
H990 H 0.35599 0.04347 0.46811 0.0
H991 H 0.35066 0.08776 0.46955 0.0
H992 H 0.39098 0.11092 0.5514 0.0
H993 H 0.39692 0.06697 0.55029 0.0
C994 C 0.33019 0.90878 0.57289 0.0
C995 C 0.33878 0.9191 0.60073 0.0
C996 C 0.34017 0.92847 0.55018 0.0
C997 C 0.35933 0.9588 0.55478 0.0
C998 C 0.36723 0.96925 0.58264 0.0
C999 C 0.35704 0.94963 0.60538 0.0
C1000 C 0.37176 0.97959 0.53062 0.0
C1001 C 0.3695 0.00529 0.5305 0.0
C1002 C 0.38584 0.97425 0.50782 0.0
C1003 C 0.39078 0.94866 0.50751 0.0
C1004 C 0.40551 0.9443 0.52991 0.0
C1005 C 0.40976 0.91993 0.52966 0.0
C1006 C 0.39959 0.89991 0.507 0.0
C1007 C 0.38524 0.90428 0.48449 0.0
C1008 C 0.3809 0.92858 0.48466 0.0
C1009 C 0.44598 0.09119 0.44719 0.0
C1010 C 0.43884 0.08281 0.41868 0.0
C1011 C 0.43137 0.07105 0.46888 0.0
C1012 C 0.40933 0.04213 0.46252 0.0
C1013 C 0.40193 0.03378 0.43412 0.0
C1014 C 0.41641 0.05397 0.41241 0.0
C1015 C 0.39484 0.0203 0.48548 0.0
C1016 C 0.39679 -0.00556 0.48539 0.0
C1017 C 0.38079 0.02567 0.50823 0.0
C1018 C 0.37712 0.05205 0.509 0.0
C1019 C 0.36393 0.05813 0.48632 0.0
C1020 C 0.36076 0.08315 0.4871 0.0
C1021 C 0.37054 0.10218 0.51052 0.0
C1022 C 0.38344 0.09618 0.53326 0.0
C1023 C 0.38668 0.07119 0.53258 0.0
H1024 H 0.36806 0.12155 0.51108 0.0
H1025 H 0.40289 0.88106 0.50685 0.0
loop_
_geom_bond_atom_site_label_1
_geom_bond_atom_site_label_2
_geom_bond_distance
_geom_bond_site_symmetry_2
_ccdc_geom_bond_type
Zn0 O3 2.031 . S
Zn0 O5 2.049 1_455 S
Zn0 O10 2.067 1_455 S
Zn1 O2 1.962 . S
Zn1 O4 1.986 1_554 S
Zn1 O6 1.996 . S
Zn1 O9 1.943 1_454 S
O2 Zn1 1.962 . S
O2 C7 1.254 . S
O3 Zn0 2.031 . S
O3 C7 1.269 . S
O4 Zn1 1.986 1_556 S
O4 C11 1.262 . S
O5 Zn0 2.049 1_655 S
O5 C13 1.260 . S
O6 Zn1 1.996 . S
O6 C13 1.257 1_455 S
C7 O2 1.254 . S
C7 O3 1.269 . S
C8 O9 1.249 1_554 S
C8 O10 1.270 . S
O9 Zn1 1.943 1_656 S
O9 C8 1.249 1_556 S
O10 Zn0 2.067 1_655 S
O10 C8 1.270 . S
C11 O4 1.262 . S
C11 O12 1.232 . S
O12 C11 1.232 . S
C13 O5 1.260 . S
C13 O6 1.257 1_655 S
Zn14 O17 2.031 . S
Zn14 O19 2.049 . S
Zn14 O24 2.067 . S
Zn15 O16 1.962 . S
Zn15 O18 1.986 . S
Zn15 O20 1.996 1_554 S
Zn15 O23 1.943 . S
O16 Zn15 1.962 . S
O16 C21 1.254 . S
O17 Zn14 2.031 . S
O17 C21 1.269 1_556 S
O18 Zn15 1.986 . S
O18 C25 1.262 . S
O19 Zn14 2.049 . S
O19 C27 1.260 . S
O20 Zn15 1.996 1_556 S
O20 C27 1.257 . S
C21 O16 1.254 . S
C21 O17 1.269 1_554 S
C22 O23 1.249 . S
C22 O24 1.270 1_554 S
O23 Zn15 1.943 . S
O23 C22 1.249 . S
O24 Zn14 2.067 . S
O24 C22 1.270 1_556 S
C25 O18 1.262 . S
C25 O26 1.232 . S
O26 C25 1.232 . S
C27 O19 1.260 . S
C27 O20 1.257 . S
Zn28 O31 2.031 1_545 S
Zn28 O33 2.049 . S
Zn28 O38 2.067 . S
Zn29 O30 1.962 1_545 S
Zn29 O32 1.986 1_554 S
Zn29 O34 1.996 . S
Zn29 O37 1.943 1_554 S
O30 Zn29 1.962 1_565 S
O30 C35 1.254 . S
O31 Zn28 2.031 1_565 S
O31 C35 1.269 . S
O32 Zn29 1.986 1_556 S
O32 C39 1.262 1_545 S
O33 Zn28 2.049 . S
O33 C41 1.260 . S
O34 Zn29 1.996 . S
O34 C41 1.257 . S
C35 O30 1.254 . S
C35 O31 1.269 . S
C36 O37 1.249 1_554 S
C36 O38 1.270 . S
O37 Zn29 1.943 1_556 S
O37 C36 1.249 1_556 S
O38 Zn28 2.067 . S
O38 C36 1.270 . S
C39 O32 1.262 1_565 S
C39 O40 1.232 . S
O40 C39 1.232 . S
C41 O33 1.260 . S
C41 O34 1.257 . S
Zn42 O45 2.031 . S
Zn42 O47 2.049 . S
Zn42 O52 2.067 . S
Zn43 O44 1.962 . S
Zn43 O46 1.986 . S
Zn43 O48 1.996 . S
Zn43 O51 1.943 . S
O44 Zn43 1.962 . S
O44 C49 1.254 . S
O45 Zn42 2.031 . S
O45 C49 1.269 . S
O46 Zn43 1.986 . S
O46 C53 1.262 . S
O47 Zn42 2.049 . S
O47 C55 1.260 . S
O48 Zn43 1.996 . S
O48 C55 1.257 . S
C49 O44 1.254 . S
C49 O45 1.269 . S
C50 O51 1.249 . S
C50 O52 1.270 . S
O51 Zn43 1.943 . S
O51 C50 1.249 . S
O52 Zn42 2.067 . S
O52 C50 1.270 . S
C53 O46 1.262 . S
C53 O54 1.232 . S
O54 C53 1.232 . S
C55 O47 1.260 . S
C55 O48 1.257 . S
Zn56 O59 2.031 . S
Zn56 O61 2.049 . S
Zn56 O66 2.067 . S
Zn57 O58 1.962 . S
Zn57 O60 1.986 . S
Zn57 O62 1.996 . S
Zn57 O65 1.943 . S
O58 Zn57 1.962 . S
O58 C63 1.254 . S
O59 Zn56 2.031 . S
O59 C63 1.269 . S
O60 Zn57 1.986 . S
O60 C67 1.262 . S
O61 Zn56 2.049 . S
O61 C69 1.260 . S
O62 Zn57 1.996 . S
O62 C69 1.257 . S
C63 O58 1.254 . S
C63 O59 1.269 . S
C64 O65 1.249 . S
C64 O66 1.270 . S
O65 Zn57 1.943 . S
O65 C64 1.249 . S
O66 Zn56 2.067 . S
O66 C64 1.270 . S
C67 O60 1.262 . S
C67 O68 1.232 . S
O68 C67 1.232 . S
C69 O61 1.260 . S
C69 O62 1.257 . S
Zn70 O73 2.031 . S
Zn70 O75 2.049 . S
Zn70 O80 2.067 . S
Zn71 O72 1.962 . S
Zn71 O74 1.986 . S
Zn71 O76 1.996 . S
Zn71 O79 1.943 . S
O72 Zn71 1.962 . S
O72 C77 1.254 . S
O73 Zn70 2.031 . S
O73 C77 1.269 . S
O74 Zn71 1.986 . S
O74 C81 1.262 . S
O75 Zn70 2.049 . S
O75 C83 1.260 . S
O76 Zn71 1.996 . S
O76 C83 1.257 . S
C77 O72 1.254 . S
C77 O73 1.269 . S
C78 O79 1.249 . S
C78 O80 1.270 . S
O79 Zn71 1.943 . S
O79 C78 1.249 . S
O80 Zn70 2.067 . S
O80 C78 1.270 . S
C81 O74 1.262 . S
C81 O82 1.232 . S
O82 C81 1.232 . S
C83 O75 1.260 . S
C83 O76 1.257 . S
Zn84 O87 2.031 . S
Zn84 O89 2.049 . S
Zn84 O94 2.067 . S
Zn85 O86 1.962 . S
Zn85 O88 1.986 . S
Zn85 O90 1.996 . S
Zn85 O93 1.943 . S
O86 Zn85 1.962 . S
O86 C91 1.254 . S
O87 Zn84 2.031 . S
O87 C91 1.269 . S
O88 Zn85 1.986 . S
O88 C95 1.262 . S
O89 Zn84 2.049 . S
O89 C97 1.260 . S
O90 Zn85 1.996 . S
O90 C97 1.257 . S
C91 O86 1.254 . S
C91 O87 1.269 . S
C92 O93 1.249 . S
C92 O94 1.270 . S
O93 Zn85 1.943 . S
O93 C92 1.249 . S
O94 Zn84 2.067 . S
O94 C92 1.270 . S
C95 O88 1.262 . S
C95 O96 1.232 . S
O96 C95 1.232 . S
C97 O89 1.260 . S
C97 O90 1.257 . S
Zn98 O101 2.031 . S
Zn98 O103 2.049 . S
Zn98 O108 2.067 . S
Zn99 O100 1.962 . S
Zn99 O102 1.986 . S
Zn99 O104 1.996 . S
Zn99 O107 1.943 . S
O100 Zn99 1.962 . S
O100 C105 1.254 . S
O101 Zn98 2.031 . S
O101 C105 1.269 . S
O102 Zn99 1.986 . S
O102 C109 1.262 . S
O103 Zn98 2.049 . S
O103 C111 1.260 . S
O104 Zn99 1.996 . S
O104 C111 1.257 . S
C105 O100 1.254 . S
C105 O101 1.269 . S
C106 O107 1.249 . S
C106 O108 1.270 . S
O107 Zn99 1.943 . S
O107 C106 1.249 . S
O108 Zn98 2.067 . S
O108 C106 1.270 . S
C109 O102 1.262 . S
C109 O110 1.232 . S
O110 C109 1.232 . S
C111 O103 1.260 . S
C111 O104 1.257 . S
Zn112 O115 2.031 . S
Zn112 O117 2.049 . S
Zn112 O122 2.067 . S
Zn113 O114 1.962 . S
Zn113 O116 1.986 . S
Zn113 O118 1.996 . S
Zn113 O121 1.943 . S
O114 Zn113 1.962 . S
O114 C119 1.254 . S
O115 Zn112 2.031 . S
O115 C119 1.269 . S
O116 Zn113 1.986 . S
O116 C123 1.262 . S
O117 Zn112 2.049 . S
O117 C125 1.260 . S
O118 Zn113 1.996 . S
O118 C125 1.257 . S
C119 O114 1.254 . S
C119 O115 1.269 . S
C120 O121 1.249 . S
C120 O122 1.270 . S
O121 Zn113 1.943 . S
O121 C120 1.249 . S
O122 Zn112 2.067 . S
O122 C120 1.270 . S
C123 O116 1.262 . S
C123 O124 1.232 . S
O124 C123 1.232 . S
C125 O117 1.260 . S
C125 O118 1.257 . S
H126 C144 0.951 . S
H127 C146 0.951 . S
H128 C148 0.950 . S
H129 C149 0.950 . S
H130 C151 0.950 . S
H131 C154 0.950 1_556 S
H132 C155 0.962 . S
H133 C157 0.950 . S
H134 C158 0.950 . S
H135 C159 0.951 . S
H136 C161 0.951 . S
H137 C163 0.950 . S
H138 C164 0.950 . S
H139 C166 0.950 . S
H140 C169 0.950 . S
H141 C170 0.950 . S
H142 C172 0.950 . S
H143 C173 0.950 . S
C144 H126 0.951 . S
C144 C145 1.369 1_554 S
C144 C146 1.388 . S
C145 C144 1.369 1_556 S
C145 C149 1.381 . S
C146 H127 0.951 . S
C146 C144 1.388 . S
C146 C147 1.366 . S
C147 C146 1.366 . S
C147 C148 1.414 1_554 S
C147 C150 1.499 . S
C148 H128 0.950 . S
C148 C147 1.414 1_556 S
C148 C149 1.374 . S
C149 H129 0.950 . S
C149 C145 1.381 . S
C149 C148 1.374 . S
C150 C147 1.499 . S
C150 C151 1.373 1_554 S
C150 C152 1.389 . S
C151 H130 0.950 . S
C151 C150 1.373 1_556 S
C151 C167 1.372 1_556 S
C152 C150 1.389 . S
C152 C153 1.524 . S
C152 C166 1.377 . S
C153 C152 1.524 . S
C153 C154 1.397 . S
C153 C158 1.363 . S
C154 H131 0.950 1_554 S
C154 C153 1.397 . S
C154 C155 1.334 . S
C155 H132 0.962 . S
C155 C154 1.334 . S
C155 C156 1.287 . S
C156 C155 1.287 . S
C156 C157 1.524 . S
C156 H175 0.913 1_545 S
C157 H133 0.950 . S
C157 C156 1.524 . S
C157 C158 1.415 . S
C158 H134 0.950 . S
C158 C153 1.363 . S
C158 C157 1.415 . S
C159 H135 0.951 . S
C159 C160 1.366 1_556 S
C159 C161 1.388 . S
C160 C159 1.366 1_554 S
C160 C164 1.385 . S
C161 H136 0.951 . S
C161 C159 1.388 . S
C161 C162 1.366 1_556 S
C162 C161 1.366 1_554 S
C162 C163 1.414 . S
C162 C165 1.499 . S
C163 H137 0.950 . S
C163 C162 1.414 . S
C163 C164 1.374 . S
C164 H138 0.950 . S
C164 C160 1.385 . S
C164 C163 1.374 . S
C165 C162 1.499 . S
C165 C166 1.373 . S
C165 C167 1.406 . S
C166 H139 0.950 . S
C166 C152 1.377 . S
C166 C165 1.373 . S
C167 C151 1.372 1_554 S
C167 C165 1.406 . S
C167 C168 1.514 1_554 S
C168 C167 1.514 1_556 S
C168 C169 1.397 1_556 S
C168 C173 1.363 . S
C169 H140 0.950 . S
C169 C168 1.397 1_554 S
C169 C170 1.334 . S
C170 H141 0.950 . S
C170 C169 1.334 . S
C170 C171 1.287 1_554 S
C171 C170 1.287 1_556 S
C171 C172 1.524 . S
C171 H174 0.999 . S
C172 H142 0.950 . S
C172 C171 1.524 . S
C172 C173 1.415 . S
C173 H143 0.950 . S
C173 C168 1.363 . S
C173 C172 1.415 . S
H174 C171 0.999 . S
H175 C156 0.913 1_565 S
H176 C194 0.951 1_556 S
H177 C196 0.951 1_556 S
H178 C198 0.950 . S
H179 C199 0.950 . S
H180 C201 0.950 1_565 S
H181 C204 0.950 . S
H182 C205 0.950 . S
H183 C207 0.950 . S
H184 C208 0.950 1_545 S
H185 C209 0.951 . S
H186 C211 0.951 . S
H187 C213 0.950 . S
H188 C214 0.950 . S
H189 C216 0.950 . S
H190 C219 0.950 . S
H191 C220 0.950 . S
H192 C222 0.950 . S
H193 C223 0.950 . S
C194 H176 0.951 1_554 S
C194 C195 1.366 . S
C194 C196 1.388 . S
C195 C194 1.366 . S
C195 C199 1.385 . S
C196 H177 0.951 1_554 S
C196 C194 1.388 . S
C196 C197 1.366 . S
C197 C196 1.366 . S
C197 C198 1.414 . S
C197 C200 1.499 . S
C198 H178 0.950 . S
C198 C197 1.414 . S
C198 C199 1.374 . S
C199 H179 0.950 . S
C199 C195 1.385 . S
C199 C198 1.374 . S
C200 C197 1.499 . S
C200 C201 1.373 1_565 S
C200 C202 1.390 1_554 S
C201 H180 0.950 1_545 S
C201 C200 1.373 1_545 S
C201 C217 1.377 . S
C202 C200 1.390 1_556 S
C202 C203 1.525 . S
C202 C216 1.374 1_565 S
C203 C202 1.525 . S
C203 C204 1.397 . S
C203 C208 1.363 . S
C204 H181 0.950 . S
C204 C203 1.397 . S
C204 C205 1.334 . S
C205 H182 0.950 . S
C205 C204 1.334 . S
C205 C206 1.287 . S
C206 C205 1.287 . S
C206 C207 1.524 . S
C206 H225 0.913 . S
C207 H183 0.950 . S
C207 C206 1.524 . S
C207 C208 1.415 . S
C208 H184 0.950 1_565 S
C208 C203 1.363 . S
C208 C207 1.415 . S
C209 H185 0.951 . S
C209 C210 1.366 . S
C209 C211 1.388 . S
C210 C209 1.366 . S
C210 C214 1.385 1_554 S
C211 H186 0.951 . S
C211 C209 1.388 . S
C211 C212 1.366 . S
C212 C211 1.366 . S
C212 C213 1.414 1_554 S
C212 C215 1.499 . S
C213 H187 0.950 . S
C213 C212 1.414 1_556 S
C213 C214 1.374 . S
C214 H188 0.950 . S
C214 C210 1.385 1_556 S
C214 C213 1.374 . S
C215 C212 1.499 . S
C215 C216 1.373 1_554 S
C215 C217 1.389 . S
C216 H189 0.950 . S
C216 C202 1.374 1_545 S
C216 C215 1.373 1_556 S
C217 C201 1.377 . S
C217 C215 1.389 . S
C217 C218 1.524 . S
C218 C217 1.524 . S
C218 C219 1.397 . S
C218 C223 1.363 . S
C219 H190 0.950 . S
C219 C218 1.397 . S
C219 C220 1.334 . S
C220 H191 0.950 . S
C220 C219 1.334 . S
C220 C221 1.287 . S
C221 C220 1.287 . S
C221 C222 1.524 . S
C221 H224 0.999 . S
C222 H192 0.950 . S
C222 C221 1.524 . S
C222 C223 1.415 . S
C223 H193 0.950 . S
C223 C218 1.363 . S
C223 C222 1.415 . S
H224 C221 0.999 . S
H225 C206 0.913 . S
H226 C244 0.951 . S
H227 C246 0.951 . S
H228 C248 0.950 . S
H229 C249 0.950 . S
H230 C251 0.950 . S
H231 C254 0.950 . S
H232 C255 0.950 1_554 S
H233 C257 0.950 . S
H234 C258 0.950 1_455 S
H235 C259 0.951 . S
H236 C261 0.951 . S
H237 C263 0.950 . S
H238 C264 0.950 . S
H239 C266 0.950 . S
H240 C269 0.930 1_556 S
H241 C270 0.950 . S
H242 C272 0.950 . S
H243 C273 0.950 . S
C244 H226 0.951 . S
C244 C245 1.366 1_556 S
C244 C246 1.388 . S
C245 C244 1.366 1_554 S
C245 C249 1.385 . S
C246 H227 0.951 . S
C246 C244 1.388 . S
C246 C247 1.366 1_556 S
C247 C246 1.366 1_554 S
C247 C248 1.414 . S
C247 C250 1.499 . S
C248 H228 0.950 . S
C248 C247 1.414 . S
C248 C249 1.374 . S
C249 H229 0.950 . S
C249 C245 1.385 . S
C249 C248 1.374 . S
C250 C247 1.499 . S
C250 C251 1.373 . S
C250 C252 1.389 1_554 S
C251 H230 0.950 . S
C251 C250 1.373 . S
C251 C267 1.377 1_655 S
C252 C250 1.389 1_556 S
C252 C253 1.524 . S
C252 C266 1.377 1_655 S
C253 C252 1.524 . S
C253 C254 1.397 1_556 S
C253 C258 1.363 . S
C254 H231 0.950 . S
C254 C253 1.397 1_554 S
C254 C255 1.334 1_554 S
C255 H232 0.950 1_556 S
C255 C254 1.334 1_556 S
C255 C256 1.287 . S
C256 C255 1.287 . S
C256 C257 1.524 . S
C256 H275 0.913 . S
C257 H233 0.950 . S
C257 C256 1.524 . S
C257 C258 1.415 . S
C258 H234 0.950 1_655 S
C258 C253 1.363 . S
C258 C257 1.415 . S
C259 H235 0.951 . S
C259 C260 1.366 . S
C259 C261 1.388 . S
C260 C259 1.366 . S
C260 C264 1.385 1_554 S
C261 H236 0.951 . S
C261 C259 1.388 . S
C261 C262 1.366 . S
C262 C261 1.366 . S
C262 C263 1.414 1_554 S
C262 C265 1.499 . S
C263 H237 0.950 . S
C263 C262 1.414 1_556 S
C263 C264 1.374 . S
C264 H238 0.950 . S
C264 C260 1.385 1_556 S
C264 C263 1.374 . S
C265 C262 1.499 . S
C265 C266 1.373 1_554 S
C265 C267 1.389 . S
C266 H239 0.950 . S
C266 C252 1.377 1_455 S
C266 C265 1.373 1_556 S
C267 C251 1.377 1_455 S
C267 C265 1.389 . S
C267 C268 1.524 . S
C268 C267 1.524 . S
C268 C269 1.397 . S
C268 C273 1.363 . S
C269 H240 0.930 1_554 S
C269 C268 1.397 . S
C269 C270 1.334 1_565 S
C270 H241 0.950 . S
C270 C269 1.334 1_545 S
C270 C271 1.287 . S
C271 C270 1.287 . S
C271 C272 1.524 1_545 S
C271 H274 0.999 . S
C272 H242 0.950 . S
C272 C271 1.524 1_565 S
C272 C273 1.415 . S
C273 H243 0.950 . S
C273 C268 1.363 . S
C273 C272 1.415 . S
H274 C271 0.999 . S
H275 C256 0.913 . S
H276 C294 0.951 . S
H277 C296 0.951 . S
H278 C298 0.950 . S
H279 C299 0.950 . S
H280 C301 0.950 . S
H281 C304 0.950 . S
H282 C305 0.950 . S
H283 C307 0.950 . S
H284 C308 0.950 . S
H285 C309 0.951 . S
H286 C311 0.951 . S
H287 C313 0.950 . S
H288 C314 0.950 . S
H289 C316 0.950 . S
H290 C319 0.950 . S
H291 C320 0.950 . S
H292 C322 0.950 . S
H293 C323 0.950 . S
C294 H276 0.951 . S
C294 C295 1.366 . S
C294 C296 1.388 . S
C295 C294 1.366 . S
C295 C299 1.385 . S
C296 H277 0.951 . S
C296 C294 1.388 . S
C296 C297 1.366 . S
C297 C296 1.366 . S
C297 C298 1.414 . S
C297 C300 1.499 . S
C298 H278 0.950 . S
C298 C297 1.414 . S
C298 C299 1.374 . S
C299 H279 0.950 . S
C299 C295 1.385 . S
C299 C298 1.374 . S
C300 C297 1.499 . S
C300 C301 1.373 . S
C300 C302 1.389 . S
C301 H280 0.950 . S
C301 C300 1.373 . S
C301 C317 1.377 . S
C302 C300 1.389 . S
C302 C303 1.524 . S
C302 C316 1.377 . S
C303 C302 1.524 . S
C303 C304 1.397 . S
C303 C308 1.363 . S
C304 H281 0.950 . S
C304 C303 1.397 . S
C304 C305 1.334 . S
C305 H282 0.950 . S
C305 C304 1.334 . S
C305 C306 1.287 . S
C306 C305 1.287 . S
C306 C307 1.524 . S
C306 H325 0.913 . S
C307 H283 0.950 . S
C307 C306 1.524 . S
C307 C308 1.415 . S
C308 H284 0.950 . S
C308 C303 1.363 . S
C308 C307 1.415 . S
C309 H285 0.951 . S
C309 C310 1.366 . S
C309 C311 1.388 . S
C310 C309 1.366 . S
C310 C314 1.385 . S
C311 H286 0.951 . S
C311 C309 1.388 . S
C311 C312 1.366 . S
C312 C311 1.366 . S
C312 C313 1.414 . S
C312 C315 1.499 . S
C313 H287 0.950 . S
C313 C312 1.414 . S
C313 C314 1.374 . S
C314 H288 0.950 . S
C314 C310 1.385 . S
C314 C313 1.374 . S
C315 C312 1.499 . S
C315 C316 1.373 . S
C315 C317 1.389 . S
C316 H289 0.950 . S
C316 C302 1.377 . S
C316 C315 1.373 . S
C317 C301 1.377 . S
C317 C315 1.389 . S
C317 C318 1.524 . S
C318 C317 1.524 . S
C318 C319 1.397 . S
C318 C323 1.363 . S
C319 H290 0.950 . S
C319 C318 1.397 . S
C319 C320 1.334 . S
C320 H291 0.950 . S
C320 C319 1.334 . S
C320 C321 1.287 . S
C321 C320 1.287 . S
C321 C322 1.524 . S
C321 H324 0.999 . S
C322 H292 0.950 . S
C322 C321 1.524 . S
C322 C323 1.415 . S
C323 H293 0.950 . S
C323 C318 1.363 . S
C323 C322 1.415 . S
H324 C321 0.999 . S
H325 C306 0.913 . S
H326 C344 0.951 . S
H327 C346 0.951 . S
H328 C348 0.950 . S
H329 C349 0.950 . S
H330 C351 0.950 . S
H331 C354 0.950 . S
H332 C355 0.950 . S
H333 C357 0.950 . S
H334 C358 0.950 . S
H335 C359 0.951 . S
H336 C361 0.951 . S
H337 C363 0.950 . S
H338 C364 0.950 . S
H339 C366 0.950 . S
H340 C369 0.950 . S
H341 C370 0.950 . S
H342 C372 0.950 . S
H343 C373 0.950 . S
C344 H326 0.951 . S
C344 C345 1.366 . S
C344 C346 1.388 . S
C345 C344 1.366 . S
C345 C349 1.385 . S
C346 H327 0.951 . S
C346 C344 1.388 . S
C346 C347 1.366 . S
C347 C346 1.366 . S
C347 C348 1.414 . S
C347 C350 1.499 . S
C348 H328 0.950 . S
C348 C347 1.414 . S
C348 C349 1.374 . S
C349 H329 0.950 . S
C349 C345 1.385 . S
C349 C348 1.374 . S
C350 C347 1.499 . S
C350 C351 1.373 . S
C350 C352 1.389 . S
C351 H330 0.950 . S
C351 C350 1.373 . S
C351 C367 1.377 . S
C352 C350 1.389 . S
C352 C353 1.524 . S
C352 C366 1.377 . S
C353 C352 1.524 . S
C353 C354 1.397 . S
C353 C358 1.363 . S
C354 H331 0.950 . S
C354 C353 1.397 . S
C354 C355 1.334 . S
C355 H332 0.950 . S
C355 C354 1.334 . S
C355 C356 1.287 . S
C356 C355 1.287 . S
C356 C357 1.524 . S
C356 H375 0.913 . S
C357 H333 0.950 . S
C357 C356 1.524 . S
C357 C358 1.415 . S
C358 H334 0.950 . S
C358 C353 1.363 . S
C358 C357 1.415 . S
C359 H335 0.951 . S
C359 C360 1.366 . S
C359 C361 1.388 . S
C360 C359 1.366 . S
C360 C364 1.385 . S
C361 H336 0.951 . S
C361 C359 1.388 . S
C361 C362 1.366 . S
C362 C361 1.366 . S
C362 C363 1.414 . S
C362 C365 1.499 . S
C363 H337 0.950 . S
C363 C362 1.414 . S
C363 C364 1.374 . S
C364 H338 0.950 . S
C364 C360 1.385 . S
C364 C363 1.374 . S
C365 C362 1.499 . S
C365 C366 1.373 . S
C365 C367 1.389 . S
C366 H339 0.950 . S
C366 C352 1.377 . S
C366 C365 1.373 . S
C367 C351 1.377 . S
C367 C365 1.389 . S
C367 C368 1.524 . S
C368 C367 1.524 . S
C368 C369 1.397 . S
C368 C373 1.363 . S
C369 H340 0.950 . S
C369 C368 1.397 . S
C369 C370 1.334 . S
C370 H341 0.950 . S
C370 C369 1.334 . S
C370 C371 1.287 . S
C371 C370 1.287 . S
C371 C372 1.524 . S
C371 H374 0.999 . S
C372 H342 0.950 . S
C372 C371 1.524 . S
C372 C373 1.415 . S
C373 H343 0.950 . S
C373 C368 1.363 . S
C373 C372 1.415 . S
H374 C371 0.999 . S
H375 C356 0.913 . S
H376 C394 0.951 . S
H377 C396 0.951 . S
H378 C398 0.950 . S
H379 C399 0.950 . S
H380 C401 0.950 . S
H381 C404 0.950 . S
H382 C405 0.950 . S
H383 C407 0.950 . S
H384 C408 0.950 . S
H385 C409 0.951 . S
H386 C411 0.951 . S
H387 C413 0.950 . S
H388 C414 0.950 . S
H389 C416 0.950 . S
H390 C419 0.950 . S
H391 C420 0.950 . S
H392 C422 0.950 . S
H393 C423 0.950 . S
C394 H376 0.951 . S
C394 C395 1.366 . S
C394 C396 1.388 . S
C395 C394 1.366 . S
C395 C399 1.385 . S
C396 H377 0.951 . S
C396 C394 1.388 . S
C396 C397 1.366 . S
C397 C396 1.366 . S
C397 C398 1.414 . S
C397 C400 1.499 . S
C398 H378 0.950 . S
C398 C397 1.414 . S
C398 C399 1.374 . S
C399 H379 0.950 . S
C399 C395 1.385 . S
C399 C398 1.374 . S
C400 C397 1.499 . S
C400 C401 1.373 . S
C400 C402 1.389 . S
C401 H380 0.950 . S
C401 C400 1.373 . S
C401 C417 1.377 . S
C402 C400 1.389 . S
C402 C403 1.524 . S
C402 C416 1.377 . S
C403 C402 1.524 . S
C403 C404 1.397 . S
C403 C408 1.363 . S
C404 H381 0.950 . S
C404 C403 1.397 . S
C404 C405 1.334 . S
C405 H382 0.950 . S
C405 C404 1.334 . S
C405 C406 1.287 . S
C406 C405 1.287 . S
C406 C407 1.524 . S
C406 H425 0.913 . S
C407 H383 0.950 . S
C407 C406 1.524 . S
C407 C408 1.415 . S
C408 H384 0.950 . S
C408 C403 1.363 . S
C408 C407 1.415 . S
C409 H385 0.951 . S
C409 C410 1.366 . S
C409 C411 1.388 . S
C410 C409 1.366 . S
C410 C414 1.385 . S
C411 H386 0.951 . S
C411 C409 1.388 . S
C411 C412 1.366 . S
C412 C411 1.366 . S
C412 C413 1.414 . S
C412 C415 1.499 . S
C413 H387 0.950 . S
C413 C412 1.414 . S
C413 C414 1.374 . S
C414 H388 0.950 . S
C414 C410 1.385 . S
C414 C413 1.374 . S
C415 C412 1.499 . S
C415 C416 1.373 . S
C415 C417 1.389 . S
C416 H389 0.950 . S
C416 C402 1.377 . S
C416 C415 1.373 . S
C417 C401 1.377 . S
C417 C415 1.389 . S
C417 C418 1.524 . S
C418 C417 1.524 . S
C418 C419 1.397 . S
C418 C423 1.363 . S
C419 H390 0.950 . S
C419 C418 1.397 . S
C419 C420 1.334 . S
C420 H391 0.950 . S
C420 C419 1.334 . S
C420 C421 1.287 . S
C421 C420 1.287 . S
C421 C422 1.524 . S
C421 H424 0.999 . S
C422 H392 0.950 . S
C422 C421 1.524 . S
C422 C423 1.415 . S
C423 H393 0.950 . S
C423 C418 1.363 . S
C423 C422 1.415 . S
H424 C421 0.999 . S
H425 C406 0.913 . S
H426 C444 0.951 . S
H427 C446 0.951 . S
H428 C448 0.950 . S
H429 C449 0.950 . S
H430 C451 0.950 . S
H431 C454 0.950 . S
H432 C455 0.950 . S
H433 C457 0.950 . S
H434 C458 0.950 . S
H435 C459 0.951 . S
H436 C461 0.951 . S
H437 C463 0.950 . S
H438 C464 0.950 . S
H439 C466 0.950 . S
H440 C469 0.950 . S
H441 C470 0.950 . S
H442 C472 0.950 . S
H443 C473 0.950 . S
C444 H426 0.951 . S
C444 C445 1.366 . S
C444 C446 1.388 . S
C445 C444 1.366 . S
C445 C449 1.385 . S
C446 H427 0.951 . S
C446 C444 1.388 . S
C446 C447 1.366 . S
C447 C446 1.366 . S
C447 C448 1.414 . S
C447 C450 1.499 . S
C448 H428 0.950 . S
C448 C447 1.414 . S
C448 C449 1.374 . S
C449 H429 0.950 . S
C449 C445 1.385 . S
C449 C448 1.374 . S
C450 C447 1.499 . S
C450 C451 1.373 . S
C450 C452 1.389 . S
C451 H430 0.950 . S
C451 C450 1.373 . S
C451 C467 1.377 . S
C452 C450 1.389 . S
C452 C453 1.524 . S
C452 C466 1.377 . S
C453 C452 1.524 . S
C453 C454 1.397 . S
C453 C458 1.363 . S
C454 H431 0.950 . S
C454 C453 1.397 . S
C454 C455 1.334 . S
C455 H432 0.950 . S
C455 C454 1.334 . S
C455 C456 1.287 . S
C456 C455 1.287 . S
C456 C457 1.524 . S
C456 H475 0.913 . S
C457 H433 0.950 . S
C457 C456 1.524 . S
C457 C458 1.415 . S
C458 H434 0.950 . S
C458 C453 1.363 . S
C458 C457 1.415 . S
C459 H435 0.951 . S
C459 C460 1.366 . S
C459 C461 1.388 . S
C460 C459 1.366 . S
C460 C464 1.385 . S
C461 H436 0.951 . S
C461 C459 1.388 . S
C461 C462 1.366 . S
C462 C461 1.366 . S
C462 C463 1.414 . S
C462 C465 1.499 . S
C463 H437 0.950 . S
C463 C462 1.414 . S
C463 C464 1.374 . S
C464 H438 0.950 . S
C464 C460 1.385 . S
C464 C463 1.374 . S
C465 C462 1.499 . S
C465 C466 1.373 . S
C465 C467 1.389 . S
C466 H439 0.950 . S
C466 C452 1.377 . S
C466 C465 1.373 . S
C467 C451 1.377 . S
C467 C465 1.389 . S
C467 C468 1.524 . S
C468 C467 1.524 . S
C468 C469 1.397 . S
C468 C473 1.363 . S
C469 H440 0.950 . S
C469 C468 1.397 . S
C469 C470 1.334 . S
C470 H441 0.950 . S
C470 C469 1.334 . S
C470 C471 1.287 . S
C471 C470 1.287 . S
C471 C472 1.524 . S
C471 H474 0.999 . S
C472 H442 0.950 . S
C472 C471 1.524 . S
C472 C473 1.415 . S
C473 H443 0.950 . S
C473 C468 1.363 . S
C473 C472 1.415 . S
H474 C471 0.999 . S
H475 C456 0.913 . S
H476 C494 0.951 . S
H477 C496 0.951 . S
H478 C498 0.950 . S
H479 C499 0.950 . S
H480 C501 0.950 . S
H481 C504 0.950 . S
H482 C505 0.950 . S
H483 C507 0.950 . S
H484 C508 0.950 . S
H485 C509 0.951 . S
H486 C511 0.951 . S
H487 C513 0.950 . S
H488 C514 0.950 . S
H489 C516 0.950 . S
H490 C519 0.950 . S
H491 C520 0.950 . S
H492 C522 0.950 . S
H493 C523 0.950 . S
C494 H476 0.951 . S
C494 C495 1.366 . S
C494 C496 1.388 . S
C495 C494 1.366 . S
C495 C499 1.385 . S
C496 H477 0.951 . S
C496 C494 1.388 . S
C496 C497 1.366 . S
C497 C496 1.366 . S
C497 C498 1.414 . S
C497 C500 1.499 . S
C498 H478 0.950 . S
C498 C497 1.414 . S
C498 C499 1.374 . S
C499 H479 0.950 . S
C499 C495 1.385 . S
C499 C498 1.374 . S
C500 C497 1.499 . S
C500 C501 1.373 . S
C500 C502 1.389 . S
C501 H480 0.950 . S
C501 C500 1.373 . S
C501 C517 1.377 . S
C502 C500 1.389 . S
C502 C503 1.524 . S
C502 C516 1.377 . S
C503 C502 1.524 . S
C503 C504 1.397 . S
C503 C508 1.363 . S
C504 H481 0.950 . S
C504 C503 1.397 . S
C504 C505 1.334 . S
C505 H482 0.950 . S
C505 C504 1.334 . S
C505 C506 1.287 . S
C506 C505 1.287 . S
C506 C507 1.524 . S
C506 H525 0.913 . S
C507 H483 0.950 . S
C507 C506 1.524 . S
C507 C508 1.415 . S
C508 H484 0.950 . S
C508 C503 1.363 . S
C508 C507 1.415 . S
C509 H485 0.951 . S
C509 C510 1.366 . S
C509 C511 1.388 . S
C510 C509 1.366 . S
C510 C514 1.385 . S
C511 H486 0.951 . S
C511 C509 1.388 . S
C511 C512 1.366 . S
C512 C511 1.366 . S
C512 C513 1.414 . S
C512 C515 1.499 . S
C513 H487 0.950 . S
C513 C512 1.414 . S
C513 C514 1.374 . S
C514 H488 0.950 . S
C514 C510 1.385 . S
C514 C513 1.374 . S
C515 C512 1.499 . S
C515 C516 1.373 . S
C515 C517 1.389 . S
C516 H489 0.950 . S
C516 C502 1.377 . S
C516 C515 1.373 . S
C517 C501 1.377 . S
C517 C515 1.389 . S
C517 C518 1.524 . S
C518 C517 1.524 . S
C518 C519 1.397 . S
C518 C523 1.363 . S
C519 H490 0.950 . S
C519 C518 1.397 . S
C519 C520 1.334 . S
C520 H491 0.950 . S
C520 C519 1.334 . S
C520 C521 1.287 . S
C521 C520 1.287 . S
C521 C522 1.524 . S
C521 H524 0.999 . S
C522 H492 0.950 . S
C522 C521 1.524 . S
C522 C523 1.415 . S
C523 H493 0.950 . S
C523 C518 1.363 . S
C523 C522 1.415 . S
H524 C521 0.999 . S
H525 C506 0.913 . S
H526 C544 0.951 . S
H527 C546 0.951 . S
H528 C548 0.950 . S
H529 C549 0.950 . S
H530 C551 0.950 . S
H531 C554 0.950 . S
H532 C555 0.950 . S
H533 C557 0.950 . S
H534 C558 0.950 . S
H535 C559 0.951 . S
H536 C561 0.951 . S
H537 C563 0.950 . S
H538 C564 0.950 . S
H539 C566 0.950 . S
H540 C569 0.950 . S
H541 C570 0.950 . S
H542 C572 0.950 . S
H543 C573 0.950 . S
C544 H526 0.951 . S
C544 C545 1.366 . S
C544 C546 1.388 . S
C545 C544 1.366 . S
C545 C549 1.385 . S
C546 H527 0.951 . S
C546 C544 1.388 . S
C546 C547 1.366 . S
C547 C546 1.366 . S
C547 C548 1.414 . S
C547 C550 1.499 . S
C548 H528 0.950 . S
C548 C547 1.414 . S
C548 C549 1.374 . S
C549 H529 0.950 . S
C549 C545 1.385 . S
C549 C548 1.374 . S
C550 C547 1.499 . S
C550 C551 1.373 . S
C550 C552 1.389 . S
C551 H530 0.950 . S
C551 C550 1.373 . S
C551 C567 1.377 . S
C552 C550 1.389 . S
C552 C553 1.524 . S
C552 C566 1.377 . S
C553 C552 1.524 . S
C553 C554 1.397 . S
C553 C558 1.363 . S
C554 H531 0.950 . S
C554 C553 1.397 . S
C554 C555 1.334 . S
C555 H532 0.950 . S
C555 C554 1.334 . S
C555 C556 1.287 . S
C556 C555 1.287 . S
C556 C557 1.524 . S
C556 H575 0.913 . S
C557 H533 0.950 . S
C557 C556 1.524 . S
C557 C558 1.415 . S
C558 H534 0.950 . S
C558 C553 1.363 . S
C558 C557 1.415 . S
C559 H535 0.951 . S
C559 C560 1.366 . S
C559 C561 1.388 . S
C560 C559 1.366 . S
C560 C564 1.385 . S
C561 H536 0.951 . S
C561 C559 1.388 . S
C561 C562 1.366 . S
C562 C561 1.366 . S
C562 C563 1.414 . S
C562 C565 1.499 . S
C563 H537 0.950 . S
C563 C562 1.414 . S
C563 C564 1.374 . S
C564 H538 0.950 . S
C564 C560 1.385 . S
C564 C563 1.374 . S
C565 C562 1.499 . S
C565 C566 1.373 . S
C565 C567 1.389 . S
C566 H539 0.950 . S
C566 C552 1.377 . S
C566 C565 1.373 . S
C567 C551 1.377 . S
C567 C565 1.389 . S
C567 C568 1.524 . S
C568 C567 1.524 . S
C568 C569 1.397 . S
C568 C573 1.363 . S
C569 H540 0.950 . S
C569 C568 1.397 . S
C569 C570 1.334 . S
C570 H541 0.950 . S
C570 C569 1.334 . S
C570 C571 1.287 . S
C571 C570 1.287 . S
C571 C572 1.524 . S
C571 H574 0.999 . S
C572 H542 0.950 . S
C572 C571 1.524 . S
C572 C573 1.415 . S
C573 H543 0.950 . S
C573 C568 1.363 . S
C573 C572 1.415 . S
H574 C571 0.999 . S
H575 C556 0.913 . S
H576 C594 0.951 . S
H577 C596 0.951 . S
H578 C598 0.950 . S
H579 C599 0.950 . S
H580 C601 0.950 . S
H581 C604 0.950 . S
H582 C605 0.950 . S
H583 C607 0.950 . S
H584 C608 0.950 . S
H585 C609 0.951 . S
H586 C611 0.951 . S
H587 C613 0.950 . S
H588 C614 0.950 . S
H589 C616 0.950 . S
H590 C619 0.950 . S
H591 C620 0.950 . S
H592 C622 0.950 . S
H593 C623 0.950 . S
C594 H576 0.951 . S
C594 C595 1.366 . S
C594 C596 1.388 . S
C595 C594 1.366 . S
C595 C599 1.385 . S
C596 H577 0.951 . S
C596 C594 1.388 . S
C596 C597 1.366 . S
C597 C596 1.366 . S
C597 C598 1.414 . S
C597 C600 1.499 . S
C598 H578 0.950 . S
C598 C597 1.414 . S
C598 C599 1.374 . S
C599 H579 0.950 . S
C599 C595 1.385 . S
C599 C598 1.374 . S
C600 C597 1.499 . S
C600 C601 1.373 . S
C600 C602 1.389 . S
C601 H580 0.950 . S
C601 C600 1.373 . S
C601 C617 1.377 . S
C602 C600 1.389 . S
C602 C603 1.524 . S
C602 C616 1.377 . S
C603 C602 1.524 . S
C603 C604 1.397 . S
C603 C608 1.363 . S
C604 H581 0.950 . S
C604 C603 1.397 . S
C604 C605 1.334 . S
C605 H582 0.950 . S
C605 C604 1.334 . S
C605 C606 1.287 . S
C606 C605 1.287 . S
C606 C607 1.524 . S
C606 H625 0.913 . S
C607 H583 0.950 . S
C607 C606 1.524 . S
C607 C608 1.415 . S
C608 H584 0.950 . S
C608 C603 1.363 . S
C608 C607 1.415 . S
C609 H585 0.951 . S
C609 C610 1.366 . S
C609 C611 1.388 . S
C610 C609 1.366 . S
C610 C614 1.385 . S
C611 H586 0.951 . S
C611 C609 1.388 . S
C611 C612 1.366 . S
C612 C611 1.366 . S
C612 C613 1.414 . S
C612 C615 1.499 . S
C613 H587 0.950 . S
C613 C612 1.414 . S
C613 C614 1.374 . S
C614 H588 0.950 . S
C614 C610 1.385 . S
C614 C613 1.374 . S
C615 C612 1.499 . S
C615 C616 1.373 . S
C615 C617 1.389 . S
C616 H589 0.950 . S
C616 C602 1.377 . S
C616 C615 1.373 . S
C617 C601 1.377 . S
C617 C615 1.389 . S
C617 C618 1.524 . S
C618 C617 1.524 . S
C618 C619 1.397 . S
C618 C623 1.363 . S
C619 H590 0.950 . S
C619 C618 1.397 . S
C619 C620 1.334 . S
C620 H591 0.950 . S
C620 C619 1.334 . S
C620 C621 1.287 . S
C621 C620 1.287 . S
C621 C622 1.524 . S
C621 H624 0.999 . S
C622 H592 0.950 . S
C622 C621 1.524 . S
C622 C623 1.415 . S
C623 H593 0.950 . S
C623 C618 1.363 . S
C623 C622 1.415 . S
H624 C621 0.999 . S
H625 C606 0.913 . S
H626 C644 0.951 . S
H627 C646 0.951 . S
H628 C648 0.950 . S
H629 C649 0.950 . S
H630 C651 0.950 . S
H631 C654 0.950 . S
H632 C655 0.950 . S
H633 C657 0.950 . S
H634 C658 0.950 . S
H635 C659 0.951 . S
H636 C661 0.951 . S
H637 C663 0.950 . S
H638 C664 0.950 . S
H639 C666 0.950 . S
H640 C669 0.950 . S
H641 C670 0.950 . S
H642 C672 0.950 . S
H643 C673 0.950 . S
C644 H626 0.951 . S
C644 C645 1.366 . S
C644 C646 1.388 . S
C645 C644 1.366 . S
C645 C649 1.385 . S
C646 H627 0.951 . S
C646 C644 1.388 . S
C646 C647 1.366 . S
C647 C646 1.366 . S
C647 C648 1.414 . S
C647 C650 1.499 . S
C648 H628 0.950 . S
C648 C647 1.414 . S
C648 C649 1.374 . S
C649 H629 0.950 . S
C649 C645 1.385 . S
C649 C648 1.374 . S
C650 C647 1.499 . S
C650 C651 1.373 . S
C650 C652 1.389 . S
C651 H630 0.950 . S
C651 C650 1.373 . S
C651 C667 1.377 . S
C652 C650 1.389 . S
C652 C653 1.524 . S
C652 C666 1.377 . S
C653 C652 1.524 . S
C653 C654 1.397 . S
C653 C658 1.363 . S
C654 H631 0.950 . S
C654 C653 1.397 . S
C654 C655 1.334 . S
C655 H632 0.950 . S
C655 C654 1.334 . S
C655 C656 1.287 . S
C656 C655 1.287 . S
C656 C657 1.524 . S
C656 H675 0.913 . S
C657 H633 0.950 . S
C657 C656 1.524 . S
C657 C658 1.415 . S
C658 H634 0.950 . S
C658 C653 1.363 . S
C658 C657 1.415 . S
C659 H635 0.951 . S
C659 C660 1.366 . S
C659 C661 1.388 . S
C660 C659 1.366 . S
C660 C664 1.385 . S
C661 H636 0.951 . S
C661 C659 1.388 . S
C661 C662 1.366 . S
C662 C661 1.366 . S
C662 C663 1.414 . S
C662 C665 1.499 . S
C663 H637 0.950 . S
C663 C662 1.414 . S
C663 C664 1.374 . S
C664 H638 0.950 . S
C664 C660 1.385 . S
C664 C663 1.374 . S
C665 C662 1.499 . S
C665 C666 1.373 . S
C665 C667 1.389 . S
C666 H639 0.950 . S
C666 C652 1.377 . S
C666 C665 1.373 . S
C667 C651 1.377 . S
C667 C665 1.389 . S
C667 C668 1.524 . S
C668 C667 1.524 . S
C668 C669 1.397 . S
C668 C673 1.363 . S
C669 H640 0.950 . S
C669 C668 1.397 . S
C669 C670 1.334 . S
C670 H641 0.950 . S
C670 C669 1.334 . S
C670 C671 1.287 . S
C671 C670 1.287 . S
C671 C672 1.524 . S
C671 H674 0.999 . S
C672 H642 0.950 . S
C672 C671 1.524 . S
C672 C673 1.415 . S
C673 H643 0.950 . S
C673 C668 1.363 . S
C673 C672 1.415 . S
H674 C671 0.999 . S
H675 C656 0.913 . S
H676 C694 0.951 . S
H677 C696 0.951 . S
H678 C698 0.950 . S
H679 C699 0.950 . S
H680 C701 0.950 . S
H681 C704 0.950 . S
H682 C705 0.950 . S
H683 C707 0.950 . S
H684 C708 0.950 . S
H685 C709 0.951 . S
H686 C711 0.951 . S
H687 C713 0.950 . S
H688 C714 0.950 . S
H689 C716 0.950 . S
H690 C719 0.950 1_565 S
H691 C720 0.950 . S
H692 C722 0.950 . S
H693 C723 0.950 . S
C694 H676 0.951 . S
C694 C695 1.366 . S
C694 C696 1.388 . S
C695 C694 1.366 . S
C695 C699 1.385 . S
C696 H677 0.951 . S
C696 C694 1.388 . S
C696 C697 1.366 . S
C697 C696 1.366 . S
C697 C698 1.414 . S
C697 C700 1.499 . S
C698 H678 0.950 . S
C698 C697 1.414 . S
C698 C699 1.374 . S
C699 H679 0.950 . S
C699 C695 1.385 . S
C699 C698 1.374 . S
C700 C697 1.499 . S
C700 C701 1.373 . S
C700 C702 1.389 . S
C701 H680 0.950 . S
C701 C700 1.373 . S
C701 C717 1.377 . S
C702 C700 1.389 . S
C702 C703 1.524 . S
C702 C716 1.377 . S
C703 C702 1.524 . S
C703 C704 1.397 . S
C703 C708 1.363 . S
C704 H681 0.950 . S
C704 C703 1.397 . S
C704 C705 1.334 . S
C705 H682 0.950 . S
C705 C704 1.334 . S
C705 C706 1.287 . S
C706 C705 1.287 . S
C706 C707 1.524 . S
C706 H725 0.913 . S
C707 H683 0.950 . S
C707 C706 1.524 . S
C707 C708 1.415 . S
C708 H684 0.950 . S
C708 C703 1.363 . S
C708 C707 1.415 . S
C709 H685 0.951 . S
C709 C710 1.366 1_545 S
C709 C711 1.388 . S
C710 C709 1.366 1_565 S
C710 C714 1.385 . S
C711 H686 0.951 . S
C711 C709 1.388 . S
C711 C712 1.366 1_545 S
C712 C711 1.366 1_565 S
C712 C713 1.414 . S
C712 C715 1.499 . S
C713 H687 0.950 . S
C713 C712 1.414 . S
C713 C714 1.374 . S
C714 H688 0.950 . S
C714 C710 1.385 . S
C714 C713 1.374 . S
C715 C712 1.499 . S
C715 C716 1.373 . S
C715 C717 1.389 . S
C716 H689 0.950 . S
C716 C702 1.377 . S
C716 C715 1.373 . S
C717 C701 1.377 . S
C717 C715 1.389 . S
C717 C718 1.524 1_565 S
C718 C717 1.524 1_545 S
C718 C719 1.397 . S
C718 C723 1.363 . S
C719 H690 0.950 1_545 S
C719 C718 1.397 . S
C719 C720 1.334 . S
C720 H691 0.950 . S
C720 C719 1.334 . S
C720 C721 1.287 . S
C721 C720 1.287 . S
C721 C722 1.524 . S
C721 H724 0.999 . S
C722 H692 0.950 . S
C722 C721 1.524 . S
C722 C723 1.415 . S
C723 H693 0.950 . S
C723 C718 1.363 . S
C723 C722 1.415 . S
H724 C721 0.999 . S
H725 C706 0.913 . S
H726 C744 0.951 . S
H727 C746 0.951 . S
H728 C748 0.950 . S
H729 C749 0.950 . S
H730 C751 0.950 . S
H731 C754 0.950 . S
H732 C755 0.950 . S
H733 C757 0.950 . S
H734 C758 0.950 . S
H735 C759 0.951 . S
H736 C761 0.951 . S
H737 C763 0.950 . S
H738 C764 0.950 . S
H739 C766 0.950 . S
H740 C769 0.950 . S
H741 C770 0.950 . S
H742 C772 0.950 . S
H743 C773 0.950 . S
C744 H726 0.951 . S
C744 C745 1.366 . S
C744 C746 1.388 . S
C745 C744 1.366 . S
C745 C749 1.385 . S
C746 H727 0.951 . S
C746 C744 1.388 . S
C746 C747 1.366 . S
C747 C746 1.366 . S
C747 C748 1.414 . S
C747 C750 1.499 . S
C748 H728 0.950 . S
C748 C747 1.414 . S
C748 C749 1.374 . S
C749 H729 0.950 . S
C749 C745 1.385 . S
C749 C748 1.374 . S
C750 C747 1.499 . S
C750 C751 1.373 . S
C750 C752 1.389 . S
C751 H730 0.950 . S
C751 C750 1.373 . S
C751 C767 1.377 . S
C752 C750 1.389 . S
C752 C753 1.524 . S
C752 C766 1.377 . S
C753 C752 1.524 . S
C753 C754 1.397 . S
C753 C758 1.363 . S
C754 H731 0.950 . S
C754 C753 1.397 . S
C754 C755 1.334 . S
C755 H732 0.950 . S
C755 C754 1.334 . S
C755 C756 1.287 . S
C756 C755 1.287 . S
C756 C757 1.524 . S
C756 H775 0.913 . S
C757 H733 0.950 . S
C757 C756 1.524 . S
C757 C758 1.415 . S
C758 H734 0.950 . S
C758 C753 1.363 . S
C758 C757 1.415 . S
C759 H735 0.951 . S
C759 C760 1.366 . S
C759 C761 1.388 . S
C760 C759 1.366 . S
C760 C764 1.385 . S
C761 H736 0.951 . S
C761 C759 1.388 . S
C761 C762 1.366 . S
C762 C761 1.366 . S
C762 C763 1.414 . S
C762 C765 1.499 . S
C763 H737 0.950 . S
C763 C762 1.414 . S
C763 C764 1.374 . S
C764 H738 0.950 . S
C764 C760 1.385 . S
C764 C763 1.374 . S
C765 C762 1.499 . S
C765 C766 1.373 . S
C765 C767 1.389 . S
C766 H739 0.950 . S
C766 C752 1.377 . S
C766 C765 1.373 . S
C767 C751 1.377 . S
C767 C765 1.389 . S
C767 C768 1.524 . S
C768 C767 1.524 . S
C768 C769 1.397 . S
C768 C773 1.363 . S
C769 H740 0.950 . S
C769 C768 1.397 . S
C769 C770 1.334 . S
C770 H741 0.950 . S
C770 C769 1.334 . S
C770 C771 1.287 . S
C771 C770 1.287 . S
C771 C772 1.524 . S
C771 H774 0.999 . S
C772 H742 0.950 . S
C772 C771 1.524 . S
C772 C773 1.415 . S
C773 H743 0.950 . S
C773 C768 1.363 . S
C773 C772 1.415 . S
H774 C771 0.999 . S
H775 C756 0.913 . S
H776 C794 0.951 1_455 S
H777 C796 0.951 . S
H778 C798 0.950 . S
H779 C799 0.950 . S
H780 C801 0.950 . S
H781 C804 0.950 . S
H782 C805 0.950 . S
H783 C807 0.950 . S
H784 C808 0.950 . S
H785 C809 0.951 . S
H786 C811 0.951 . S
H787 C813 0.950 . S
H788 C814 0.950 . S
H789 C816 0.950 . S
H790 C819 0.950 . S
H791 C820 0.950 1_455 S
H792 C822 0.950 . S
H793 C823 0.950 . S
C794 H776 0.951 1_655 S
C794 C795 1.366 . S
C794 C796 1.388 . S
C795 C794 1.366 . S
C795 C799 1.385 . S
C796 H777 0.951 . S
C796 C794 1.388 . S
C796 C797 1.366 . S
C797 C796 1.366 . S
C797 C798 1.414 . S
C797 C800 1.499 . S
C798 H778 0.950 . S
C798 C797 1.414 . S
C798 C799 1.374 . S
C799 H779 0.950 . S
C799 C795 1.385 . S
C799 C798 1.374 . S
C800 C797 1.499 . S
C800 C801 1.373 . S
C800 C802 1.389 . S
C801 H780 0.950 . S
C801 C800 1.373 . S
C801 C817 1.377 . S
C802 C800 1.389 . S
C802 C803 1.524 . S
C802 C816 1.377 . S
C803 C802 1.524 . S
C803 C804 1.397 . S
C803 C808 1.363 . S
C804 H781 0.950 . S
C804 C803 1.397 . S
C804 C805 1.334 . S
C805 H782 0.950 . S
C805 C804 1.334 . S
C805 C806 1.287 . S
C806 C805 1.287 . S
C806 C807 1.524 . S
C806 H825 0.913 . S
C807 H783 0.950 . S
C807 C806 1.524 . S
C807 C808 1.415 . S
C808 H784 0.950 . S
C808 C803 1.363 . S
C808 C807 1.415 . S
C809 H785 0.951 . S
C809 C810 1.366 . S
C809 C811 1.388 . S
C810 C809 1.366 . S
C810 C814 1.385 . S
C811 H786 0.951 . S
C811 C809 1.388 . S
C811 C812 1.366 . S
C812 C811 1.366 . S
C812 C813 1.414 . S
C812 C815 1.499 . S
C813 H787 0.950 . S
C813 C812 1.414 . S
C813 C814 1.374 . S
C814 H788 0.950 . S
C814 C810 1.385 . S
C814 C813 1.374 . S
C815 C812 1.499 . S
C815 C816 1.373 . S
C815 C817 1.389 . S
C816 H789 0.950 . S
C816 C802 1.377 . S
C816 C815 1.373 . S
C817 C801 1.377 . S
C817 C815 1.389 . S
C817 C818 1.524 . S
C818 C817 1.524 . S
C818 C819 1.397 . S
C818 C823 1.363 . S
C819 H790 0.950 . S
C819 C818 1.397 . S
C819 C820 1.334 . S
C820 H791 0.950 1_655 S
C820 C819 1.334 . S
C820 C821 1.287 . S
C821 C820 1.287 . S
C821 C822 1.524 . S
C821 H824 0.999 . S
C822 H792 0.950 . S
C822 C821 1.524 . S
C822 C823 1.415 . S
C823 H793 0.950 . S
C823 C818 1.363 . S
C823 C822 1.415 . S
H824 C821 0.999 . S
H825 C806 0.913 . S
H826 C844 0.951 . S
H827 C846 0.951 . S
H828 C848 0.950 . S
H829 C849 0.950 . S
H830 C851 0.950 . S
H831 C854 0.950 . S
H832 C855 0.950 . S
H833 C857 0.950 . S
H834 C858 0.950 . S
H835 C859 0.951 . S
H836 C861 0.951 . S
H837 C863 0.950 . S
H838 C864 0.950 . S
H839 C866 0.950 . S
H840 C869 0.950 . S
H841 C870 0.950 . S
H842 C872 0.950 . S
H843 C873 0.950 . S
C844 H826 0.951 . S
C844 C845 1.366 . S
C844 C846 1.388 . S
C845 C844 1.366 . S
C845 C849 1.385 . S
C846 H827 0.951 . S
C846 C844 1.388 . S
C846 C847 1.366 . S
C847 C846 1.366 . S
C847 C848 1.414 . S
C847 C850 1.499 . S
C848 H828 0.950 . S
C848 C847 1.414 . S
C848 C849 1.374 . S
C849 H829 0.950 . S
C849 C845 1.385 . S
C849 C848 1.374 . S
C850 C847 1.499 . S
C850 C851 1.373 . S
C850 C852 1.389 . S
C851 H830 0.950 . S
C851 C850 1.373 . S
C851 C867 1.377 . S
C852 C850 1.389 . S
C852 C853 1.524 . S
C852 C866 1.377 . S
C853 C852 1.524 . S
C853 C854 1.397 . S
C853 C858 1.363 . S
C854 H831 0.950 . S
C854 C853 1.397 . S
C854 C855 1.334 . S
C855 H832 0.950 . S
C855 C854 1.334 . S
C855 C856 1.287 . S
C856 C855 1.287 . S
C856 C857 1.524 . S
C856 H875 0.913 . S
C857 H833 0.950 . S
C857 C856 1.524 . S
C857 C858 1.415 . S
C858 H834 0.950 . S
C858 C853 1.363 . S
C858 C857 1.415 . S
C859 H835 0.951 . S
C859 C860 1.366 . S
C859 C861 1.388 . S
C860 C859 1.366 . S
C860 C864 1.385 . S
C861 H836 0.951 . S
C861 C859 1.388 . S
C861 C862 1.366 . S
C862 C861 1.366 . S
C862 C863 1.414 . S
C862 C865 1.499 . S
C863 H837 0.950 . S
C863 C862 1.414 . S
C863 C864 1.374 . S
C864 H838 0.950 . S
C864 C860 1.385 . S
C864 C863 1.374 . S
C865 C862 1.499 . S
C865 C866 1.373 . S
C865 C867 1.389 . S
C866 H839 0.950 . S
C866 C852 1.377 . S
C866 C865 1.373 . S
C867 C851 1.377 . S
C867 C865 1.389 . S
C867 C868 1.524 . S
C868 C867 1.524 . S
C868 C869 1.397 . S
C868 C873 1.363 . S
C869 H840 0.950 . S
C869 C868 1.397 . S
C869 C870 1.334 . S
C870 H841 0.950 . S
C870 C869 1.334 . S
C870 C871 1.287 . S
C871 C870 1.287 . S
C871 C872 1.524 . S
C871 H874 0.999 . S
C872 H842 0.950 . S
C872 C871 1.524 . S
C872 C873 1.415 . S
C873 H843 0.950 . S
C873 C868 1.363 . S
C873 C872 1.415 . S
H874 C871 0.999 . S
H875 C856 0.913 . S
H876 C894 0.951 . S
H877 C896 0.951 . S
H878 C898 0.950 . S
H879 C899 0.950 . S
H880 C901 0.950 . S
H881 C904 0.950 . S
H882 C905 0.950 . S
H883 C907 0.950 . S
H884 C908 0.950 1_655 S
H885 C909 0.951 . S
H886 C911 0.943 1_455 S
H887 C913 0.950 . S
H888 C914 0.950 . S
H889 C916 0.950 1_655 S
H890 C919 0.950 . S
H891 C920 0.950 . S
H892 C922 0.950 . S
H893 C923 0.950 . S
C894 H876 0.951 . S
C894 C895 1.366 . S
C894 C896 1.388 . S
C895 C894 1.366 . S
C895 C899 1.385 . S
C896 H877 0.951 . S
C896 C894 1.388 . S
C896 C897 1.366 . S
C897 C896 1.366 . S
C897 C898 1.414 . S
C897 C900 1.499 . S
C898 H878 0.950 . S
C898 C897 1.414 . S
C898 C899 1.374 . S
C899 H879 0.950 . S
C899 C895 1.385 . S
C899 C898 1.374 . S
C900 C897 1.499 . S
C900 C901 1.373 . S
C900 C902 1.389 . S
C901 H880 0.950 . S
C901 C900 1.373 . S
C901 C917 1.377 . S
C902 C900 1.389 . S
C902 C903 1.524 . S
C902 C916 1.377 . S
C903 C902 1.524 . S
C903 C904 1.397 . S
C903 C908 1.363 . S
C904 H881 0.950 . S
C904 C903 1.397 . S
C904 C905 1.334 . S
C905 H882 0.950 . S
C905 C904 1.334 . S
C905 C906 1.287 . S
C906 C905 1.287 . S
C906 C907 1.524 . S
C906 H925 0.913 . S
C907 H883 0.950 . S
C907 C906 1.524 . S
C907 C908 1.415 . S
C908 H884 0.950 1_455 S
C908 C903 1.363 . S
C908 C907 1.415 . S
C909 H885 0.951 . S
C909 C910 1.366 . S
C909 C911 1.388 . S
C910 C909 1.366 . S
C910 C914 1.385 . S
C911 H886 0.943 1_655 S
C911 C909 1.388 . S
C911 C912 1.366 . S
C912 C911 1.366 . S
C912 C913 1.414 . S
C912 C915 1.499 . S
C913 H887 0.950 . S
C913 C912 1.414 . S
C913 C914 1.374 . S
C914 H888 0.950 . S
C914 C910 1.385 . S
C914 C913 1.374 . S
C915 C912 1.499 . S
C915 C916 1.373 1_655 S
C915 C917 1.389 1_655 S
C916 H889 0.950 1_455 S
C916 C902 1.377 . S
C916 C915 1.373 1_455 S
C917 C901 1.377 . S
C917 C915 1.389 1_455 S
C917 C918 1.524 1_455 S
C918 C917 1.524 1_655 S
C918 C919 1.397 . S
C918 C923 1.363 1_655 S
C919 H890 0.950 . S
C919 C918 1.397 . S
C919 C920 1.334 . S
C920 H891 0.950 . S
C920 C919 1.334 . S
C920 C921 1.287 . S
C921 C920 1.287 . S
C921 C922 1.524 1_655 S
C921 H924 0.999 . S
C922 H892 0.950 . S
C922 C921 1.524 1_455 S
C922 C923 1.415 . S
C923 H893 0.950 . S
C923 C918 1.363 1_455 S
C923 C922 1.415 . S
H924 C921 0.999 . S
H925 C906 0.913 . S
H926 C944 0.951 . S
H927 C946 0.951 . S
H928 C948 0.950 . S
H929 C949 0.950 . S
H930 C951 0.950 . S
H931 C954 0.950 . S
H932 C955 0.950 . S
H933 C957 0.950 . S
H934 C958 0.950 . S
H935 C959 0.951 . S
H936 C961 0.951 . S
H937 C963 0.950 . S
H938 C964 0.950 . S
H939 C966 0.950 . S
H940 C969 0.950 . S
H941 C970 0.950 . S
H942 C972 0.950 . S
H943 C973 0.950 . S
C944 H926 0.951 . S
C944 C945 1.366 . S
C944 C946 1.388 . S
C945 C944 1.366 . S
C945 C949 1.385 . S
C946 H927 0.951 . S
C946 C944 1.388 . S
C946 C947 1.366 . S
C947 C946 1.366 . S
C947 C948 1.414 . S
C947 C950 1.499 . S
C948 H928 0.950 . S
C948 C947 1.414 . S
C948 C949 1.374 . S
C949 H929 0.950 . S
C949 C945 1.385 . S
C949 C948 1.374 . S
C950 C947 1.499 . S
C950 C951 1.373 . S
C950 C952 1.389 . S
C951 H930 0.950 . S
C951 C950 1.373 . S
C951 C967 1.377 . S
C952 C950 1.389 . S
C952 C953 1.524 . S
C952 C966 1.377 . S
C953 C952 1.524 . S
C953 C954 1.397 . S
C953 C958 1.363 . S
C954 H931 0.950 . S
C954 C953 1.397 . S
C954 C955 1.334 . S
C955 H932 0.950 . S
C955 C954 1.334 . S
C955 C956 1.287 . S
C956 C955 1.287 . S
C956 C957 1.524 . S
C956 H975 0.913 . S
C957 H933 0.950 . S
C957 C956 1.524 . S
C957 C958 1.415 . S
C958 H934 0.950 . S
C958 C953 1.363 . S
C958 C957 1.415 . S
C959 H935 0.951 . S
C959 C960 1.366 . S
C959 C961 1.388 . S
C960 C959 1.366 . S
C960 C964 1.385 . S
C961 H936 0.951 . S
C961 C959 1.388 . S
C961 C962 1.366 . S
C962 C961 1.366 . S
C962 C963 1.414 . S
C962 C965 1.499 . S
C963 H937 0.950 . S
C963 C962 1.414 . S
C963 C964 1.374 . S
C964 H938 0.950 . S
C964 C960 1.385 . S
C964 C963 1.374 . S
C965 C962 1.499 . S
C965 C966 1.373 . S
C965 C967 1.389 . S
C966 H939 0.950 . S
C966 C952 1.377 . S
C966 C965 1.373 . S
C967 C951 1.377 . S
C967 C965 1.389 . S
C967 C968 1.524 . S
C968 C967 1.524 . S
C968 C969 1.397 . S
C968 C973 1.363 . S
C969 H940 0.950 . S
C969 C968 1.397 . S
C969 C970 1.334 . S
C970 H941 0.950 . S
C970 C969 1.334 . S
C970 C971 1.287 . S
C971 C970 1.287 . S
C971 C972 1.524 . S
C971 H974 0.999 . S
C972 H942 0.950 . S
C972 C971 1.524 . S
C972 C973 1.415 . S
C973 H943 0.950 . S
C973 C968 1.363 . S
C973 C972 1.415 . S
H974 C971 0.999 . S
H975 C956 0.913 . S
H976 C994 0.951 . S
H977 C996 0.951 . S
H978 C998 0.950 . S
H979 C999 0.950 . S
H980 C1001 0.950 . S
H981 C1004 0.950 . S
H982 C1005 0.950 . S
H983 C1007 0.950 . S
H984 C1008 0.950 . S
H985 C1009 0.951 . S
H986 C1011 0.951 . S
H987 C1013 0.950 . S
H988 C1014 0.950 . S
H989 C1016 0.950 1_565 S
H990 C1019 0.950 . S
H991 C1020 0.950 . S
H992 C1022 0.950 . S
H993 C1023 0.950 . S
C994 H976 0.951 . S
C994 C995 1.366 . S
C994 C996 1.388 . S
C995 C994 1.366 . S
C995 C999 1.385 . S
C996 H977 0.951 . S
C996 C994 1.388 . S
C996 C997 1.366 . S
C997 C996 1.366 . S
C997 C998 1.414 . S
C997 C1000 1.499 . S
C998 H978 0.950 . S
C998 C997 1.414 . S
C998 C999 1.374 . S
C999 H979 0.950 . S
C999 C995 1.385 . S
C999 C998 1.374 . S
C1000 C997 1.499 . S
C1000 C1001 1.373 1_565 S
C1000 C1002 1.389 . S
C1001 H980 0.950 . S
C1001 C1000 1.373 1_545 S
C1001 C1017 1.377 . S
C1002 C1000 1.389 . S
C1002 C1003 1.524 . S
C1002 C1016 1.377 1_565 S
C1003 C1002 1.524 . S
C1003 C1004 1.397 . S
C1003 C1008 1.363 . S
C1004 H981 0.950 . S
C1004 C1003 1.397 . S
C1004 C1005 1.334 . S
C1005 H982 0.950 . S
C1005 C1004 1.334 . S
C1005 C1006 1.287 . S
C1006 C1005 1.287 . S
C1006 C1007 1.524 . S
C1006 H1025 0.913 . S
C1007 H983 0.950 . S
C1007 C1006 1.524 . S
C1007 C1008 1.415 . S
C1008 H984 0.950 . S
C1008 C1003 1.363 . S
C1008 C1007 1.415 . S
C1009 H985 0.951 . S
C1009 C1010 1.366 . S
C1009 C1011 1.388 . S
C1010 C1009 1.366 . S
C1010 C1014 1.385 . S
C1011 H986 0.951 . S
C1011 C1009 1.388 . S
C1011 C1012 1.366 . S
C1012 C1011 1.366 . S
C1012 C1013 1.414 . S
C1012 C1015 1.499 . S
C1013 H987 0.950 . S
C1013 C1012 1.414 . S
C1013 C1014 1.374 . S
C1014 H988 0.950 . S
C1014 C1010 1.385 . S
C1014 C1013 1.374 . S
C1015 C1012 1.499 . S
C1015 C1016 1.373 . S
C1015 C1017 1.389 . S
C1016 H989 0.950 1_545 S
C1016 C1002 1.377 1_545 S
C1016 C1015 1.373 . S
C1017 C1001 1.377 . S
C1017 C1015 1.389 . S
C1017 C1018 1.524 . S
C1018 C1017 1.524 . S
C1018 C1019 1.397 . S
C1018 C1023 1.363 . S
C1019 H990 0.950 . S
C1019 C1018 1.397 . S
C1019 C1020 1.334 . S
C1020 H991 0.950 . S
C1020 C1019 1.334 . S
C1020 C1021 1.287 . S
C1021 C1020 1.287 . S
C1021 C1022 1.524 . S
C1021 H1024 0.999 . S
C1022 H992 0.950 . S
C1022 C1021 1.524 . S
C1022 C1023 1.415 . S
C1023 H993 0.950 . S
C1023 C1018 1.363 . S
C1023 C1022 1.415 . S
H1024 C1021 0.999 . S
H1025 C1006 0.913 . S
C145 C36 0.876 1_556 S
C160 C7 0.891 . S
C195 C22 0.886 . S
C210 C8 0.887 . S
C245 C21 0.785 . S
C260 C35 0.786 . S
C295 C77 0.840 . S
C310 C50 0.829 . S
C345 C64 0.794 . S
C360 C49 0.798 . S
C395 C63 0.875 . S
C410 C78 0.863 . S
C445 C91 0.779 . S
C460 C120 0.777 . S
C495 C92 0.867 . S
C510 C106 0.865 . S
C545 C105 0.767 . S
C560 C119 0.766 . S
C595 C11 1.293 . S
C610 C109 1.292 . S
C645 C27 1.221 . S
C660 C125 1.219 . S
C695 C97 1.216 . S
C710 C39 1.292 . S
C745 C69 1.207 . S
C760 C41 1.211 . S
C795 C13 1.287 . S
C810 C83 1.283 . S
C845 C55 1.228 . S
C860 C25 1.295 . S
C895 C111 1.219 . S
C910 C81 1.298 . S
C945 C53 1.239 . S
C960 C123 1.237 . S
C995 C95 1.307 . S
C1010 C67 1.312 . S
