# Generated by pormake.
# Topology bcu-i, (5)-cn, num edge types: 1
# Building blocks:
#     Node 0, Type 0, BuildingBlock: XOMCOT_clean_sbu_0, # of connection points: 5
#     Node 1, Type 0, BuildingBlock: XOMCOT_clean_sbu_0, # of connection points: 5
#     Node 2, Type 0, BuildingBlock: XOMCOT_clean_sbu_0, # of connection points: 5
#     Node 3, Type 0, BuildingBlock: XOMCOT_clean_sbu_0, # of connection points: 5
#     Node 4, Type 0, BuildingBlock: XOMCOT_clean_sbu_0, # of connection points: 5
#     Node 5, Type 0, BuildingBlock: XOMCOT_clean_sbu_0, # of connection points: 5
#     Node 6, Type 0, BuildingBlock: XOMCOT_clean_sbu_0, # of connection points: 5
#     Node 7, Type 0, BuildingBlock: XOMCOT_clean_sbu_0, # of connection points: 5
#     Node 8, Type 0, BuildingBlock: XOMCOT_clean_sbu_0, # of connection points: 5
#     Node 9, Type 0, BuildingBlock: XOMCOT_clean_sbu_0, # of connection points: 5
#     Node 10, Type 0, BuildingBlock: XOMCOT_clean_sbu_0, # of connection points: 5
#     Node 11, Type 0, BuildingBlock: XOMCOT_clean_sbu_0, # of connection points: 5
#     Node 12, Type 0, BuildingBlock: XOMCOT_clean_sbu_0, # of connection points: 5
#     Node 13, Type 0, BuildingBlock: XOMCOT_clean_sbu_0, # of connection points: 5
#     Node 14, Type 0, BuildingBlock: XOMCOT_clean_sbu_0, # of connection points: 5
#     Node 15, Type 0, BuildingBlock: XOMCOT_clean_sbu_0, # of connection points: 5
#     Edge 16, Type (0, 0), None
#     Edge 17, Type (0, 0), None
#     Edge 18, Type (0, 0), None
#     Edge 19, Type (0, 0), None
#     Edge 20, Type (0, 0), None
#     Edge 21, Type (0, 0), None
#     Edge 22, Type (0, 0), None
#     Edge 23, Type (0, 0), None
#     Edge 24, Type (0, 0), None
#     Edge 25, Type (0, 0), None
#     Edge 26, Type (0, 0), None
#     Edge 27, Type (0, 0), None
#     Edge 28, Type (0, 0), None
#     Edge 29, Type (0, 0), None
#     Edge 30, Type (0, 0), None
#     Edge 31, Type (0, 0), None
#     Edge 32, Type (0, 0), None
#     Edge 33, Type (0, 0), None
#     Edge 34, Type (0, 0), None
#     Edge 35, Type (0, 0), None
#     Edge 36, Type (0, 0), None
#     Edge 37, Type (0, 0), None
#     Edge 38, Type (0, 0), None
#     Edge 39, Type (0, 0), None
#     Edge 40, Type (0, 0), None
#     Edge 41, Type (0, 0), None
#     Edge 42, Type (0, 0), None
#     Edge 43, Type (0, 0), None
#     Edge 44, Type (0, 0), None
#     Edge 45, Type (0, 0), None
#     Edge 46, Type (0, 0), None
#     Edge 47, Type (0, 0), None
#     Edge 48, Type (0, 0), None
#     Edge 49, Type (0, 0), None
#     Edge 50, Type (0, 0), None
#     Edge 51, Type (0, 0), None
#     Edge 52, Type (0, 0), None
#     Edge 53, Type (0, 0), None
#     Edge 54, Type (0, 0), None
#     Edge 55, Type (0, 0), None
# Relax obj value: 0.565
# Max RMSD: 0.271
# Mean RMSD: 0.271
data_MOF--net-bcu-i--node1-XOMCOT_clean_sbu_0--edge1-none
_symmetry_space_group_name_H-M    P1
_symmetry_Int_Tables_number       1
_symmetry_cell_setting            triclinic
loop_
_symmetry_equiv_pos_as_xyz
'x, y, z'
_cell_length_a     23.072403
_cell_length_b     23.179857
_cell_length_c     27.52829
_cell_angle_alpha  89.997426
_cell_angle_beta   90.000183
_cell_angle_gamma 90.000106
loop_
_atom_site_label
_atom_site_type_symbol
_atom_site_fract_x
_atom_site_fract_y
_atom_site_fract_z
_atom_type_partial_charge
Co0 Co 0.21865 0.11547 0.39266 0.0
C1 C 0.09741 0.14889 0.37262 0.0
C2 C 0.15187 0.17265 0.31295 0.0
C3 C 0.09601 0.19026 0.30285 0.0
N4 N 0.15316 0.14852 0.35769 0.0
N5 N 0.06214 0.17379 0.34012 0.0
H6 H 0.08216 0.13214 0.40692 0.0
H7 H 0.18847 0.17655 0.28868 0.0
C8 C 0.21065 0.002 0.3325 0.0
O9 O 0.23901 0.97467 0.29804 0.0
N10 N 0.28212 0.08033 0.42711 0.0
C11 C 0.32704 0.10616 0.44969 0.0
C12 C 0.35393 0.06593 0.47923 0.0
C13 C 0.2823 0.0254 0.44282 0.0
N14 N 0.32597 0.01533 0.47402 0.0
C15 C 0.26586 0.21941 0.35227 0.0
C16 C 0.33911 0.1629 0.28843 0.0
C17 C 0.32513 0.22075 0.28009 0.0
C18 C 0.29141 0.25037 0.3143 0.0
C19 C 0.31316 0.13393 0.32689 0.0
N20 N 0.27274 0.16101 0.35498 0.0
H21 H 0.23534 0.24092 0.37594 0.0
H22 H 0.32235 0.08858 0.33169 0.0
H23 H 0.33639 0.15184 0.44806 0.0
H24 H 0.24765 -0.0049 0.43577 0.0
O25 O 0.20745 0.16864 0.44587 0.0
O26 O 0.16565 0.0829 0.44062 0.0
O27 O 0.22485 0.05416 0.34097 0.0
C28 C 0.17288 0.13083 0.46468 0.0
H29 H 0.08114 0.2114 0.27005 0.0
H30 H 0.38763 0.07438 0.50564 0.0
H31 H 0.36699 0.13943 0.26368 0.0
H32 H 0.28071 0.29548 0.30931 0.0
Co33 Co 0.89497 0.16354 0.4021 0.0
C34 C 0.82417 0.0704 0.36181 0.0
C35 C 0.90375 0.03811 0.39156 0.0
C36 C 0.87059 0.99204 0.3765 0.0
N37 N 0.87445 0.087 0.38197 0.0
N38 N 0.82058 0.0126 0.35822 0.0
H39 H 0.79065 0.10015 0.35032 0.0
H40 H 0.9463 0.03624 0.408 0.0
C41 C 0.00466 0.18275 0.34603 0.0
O42 O 0.98021 0.22684 0.32418 0.0
N43 N 0.91762 0.23972 0.4256 0.0
C44 C 0.88429 0.27816 0.44979 0.0
C45 C 0.91924 0.31214 0.47873 0.0
C46 C 0.97209 0.25182 0.4403 0.0
N47 N 0.97457 0.29548 0.47244 0.0
C48 C 0.8379 0.24252 0.33706 0.0
C49 C 0.86871 0.18607 0.2521 0.0
C50 C 0.83958 0.23873 0.24936 0.0
C51 C 0.82309 0.26652 0.29239 0.0
C52 C 0.88362 0.16404 0.29757 0.0
N53 N 0.87015 0.19338 0.33934 0.0
H54 H 0.82351 0.26363 0.36966 0.0
H55 H 0.9083 0.12444 0.29912 0.0
H56 H 0.83756 0.27644 0.45217 0.0
H57 H 0.00788 0.22222 0.43621 0.0
O58 O 0.82215 0.16831 0.43639 0.0
O59 O 0.90388 0.13345 0.46746 0.0
O60 O 0.97638 0.15208 0.37688 0.0
C61 C 0.84873 0.14393 0.47262 0.0
H62 H 0.88466 0.94801 0.37507 0.0
H63 H 0.90444 0.34047 0.50742 0.0
H64 H 0.88129 0.1631 0.21949 0.0
H65 H 0.79849 0.30633 0.29146 0.0
Co66 Co 0.7718 0.87038 0.39265 0.0
C67 C 0.89303 0.83695 0.37262 0.0
C68 C 0.83857 0.81312 0.31297 0.0
C69 C 0.89443 0.79551 0.30288 0.0
N70 N 0.83728 0.83729 0.3577 0.0
N71 N 0.92831 0.81202 0.34013 0.0
H72 H 0.90829 0.85373 0.40691 0.0
H73 H 0.80197 0.8092 0.28871 0.0
C74 C 0.77983 0.98385 0.33252 0.0
O75 O 0.75154 0.0112 0.29803 0.0
N76 N 0.70834 0.90556 0.42708 0.0
C77 C 0.66336 0.87976 0.44961 0.0
C78 C 0.63647 0.91998 0.47915 0.0
C79 C 0.7082 0.96047 0.44282 0.0
N80 N 0.6645 0.97057 0.47399 0.0
C81 C 0.72455 0.76645 0.35229 0.0
C82 C 0.65134 0.82296 0.28843 0.0
C83 C 0.6653 0.7651 0.2801 0.0
C84 C 0.69899 0.73548 0.31433 0.0
C85 C 0.67729 0.85194 0.32687 0.0
N86 N 0.71769 0.82485 0.35498 0.0
H87 H 0.75505 0.74493 0.37598 0.0
H88 H 0.66813 0.89729 0.33165 0.0
H89 H 0.65397 0.83409 0.44794 0.0
H90 H 0.74289 0.99075 0.43582 0.0
O91 O 0.78297 0.81723 0.44588 0.0
O92 O 0.82481 0.90295 0.44059 0.0
O93 O 0.76565 0.93166 0.34093 0.0
C94 C 0.81756 0.85503 0.46467 0.0
H95 H 0.9093 0.77434 0.2701 0.0
H96 H 0.60274 0.91155 0.50552 0.0
H97 H 0.62348 0.84643 0.26366 0.0
H98 H 0.70967 0.69036 0.30936 0.0
Co99 Co 0.09548 0.82232 0.40209 0.0
C100 C 0.16622 0.91544 0.36171 0.0
C101 C 0.08672 0.94775 0.3916 0.0
C102 C 0.11987 -0.00618 0.3765 0.0
N103 N 0.11598 0.89886 0.38194 0.0
N104 N 0.16981 0.97324 0.3581 0.0
H105 H 0.19974 0.88568 0.3502 0.0
H106 H 0.04422 0.94963 0.40812 0.0
C107 C 0.98578 0.80306 0.34605 0.0
O108 O 0.01023 0.75896 0.32423 0.0
N109 N 0.07284 0.74614 0.42562 0.0
C110 C 0.10617 0.7077 0.44982 0.0
C111 C 0.07122 0.67373 0.47876 0.0
C112 C 0.01836 0.73403 0.44032 0.0
N113 N 0.01589 0.69038 0.47247 0.0
C114 C 0.15255 0.74333 0.33707 0.0
C115 C 0.12171 0.79974 0.2521 0.0
C116 C 0.15086 0.7471 0.24937 0.0
C117 C 0.16737 0.71933 0.29241 0.0
C118 C 0.10679 0.82178 0.29757 0.0
N119 N 0.12029 0.79245 0.33935 0.0
H120 H 0.16696 0.72223 0.36968 0.0
H121 H 0.0821 0.86137 0.29911 0.0
H122 H 0.1529 0.70943 0.45219 0.0
H123 H 0.98258 0.76363 0.43623 0.0
O124 O 0.1683 0.81756 0.43638 0.0
O125 O 0.08657 0.85241 0.46746 0.0
O126 O 0.01407 0.83376 0.37689 0.0
C127 C 0.14172 0.84194 0.47262 0.0
H128 H 0.10584 0.03786 0.37515 0.0
H129 H 0.08603 0.64541 0.50746 0.0
H130 H 0.10911 0.82269 0.21949 0.0
H131 H 0.19198 0.67952 0.29148 0.0
Co132 Co 0.21861 0.87033 0.58967 0.0
C133 C 0.09736 0.83693 0.6097 0.0
C134 C 0.15182 0.8131 0.66936 0.0
C135 C 0.09595 0.79549 0.67944 0.0
N136 N 0.15311 0.83728 0.62463 0.0
N137 N 0.06208 0.812 0.64218 0.0
H138 H 0.08211 0.8537 0.57541 0.0
H139 H 0.18841 0.80918 0.69362 0.0
C140 C 0.21065 0.9838 0.64981 0.0
O141 O 0.23901 0.01113 0.68426 0.0
N142 N 0.28207 0.90547 0.55521 0.0
C143 C 0.32718 0.87966 0.53287 0.0
C144 C 0.35408 0.91981 0.50325 0.0
C145 C 0.28212 0.96031 0.5393 0.0
N146 N 0.32585 0.97031 0.50813 0.0
C147 C 0.26581 0.76638 0.63005 0.0
C148 C 0.33903 0.82288 0.69391 0.0
C149 C 0.32505 0.76503 0.70225 0.0
C150 C 0.29134 0.73542 0.66803 0.0
C151 C 0.3131 0.85186 0.65545 0.0
N152 N 0.27269 0.82478 0.62735 0.0
H153 H 0.2353 0.74487 0.60637 0.0
H154 H 0.3223 0.8972 0.65066 0.0
H155 H 0.3367 0.83403 0.53474 0.0
H156 H 0.2474 0.99059 0.54619 0.0
O157 O 0.2074 0.81716 0.53645 0.0
O158 O 0.1656 0.9029 0.54171 0.0
O159 O 0.22481 0.93163 0.64136 0.0
C160 C 0.17283 0.85497 0.51765 0.0
H161 H 0.08107 0.77432 0.71222 0.0
H162 H 0.38797 0.91136 0.47701 0.0
H163 H 0.36691 0.84634 0.71868 0.0
H164 H 0.28064 0.6903 0.67301 0.0
Co165 Co 0.09553 0.16351 0.58023 0.0
C166 C 0.16625 0.07037 0.62059 0.0
C167 C 0.08673 0.03808 0.59073 0.0
C168 C 0.11986 0.992 0.60582 0.0
N169 N 0.11601 0.08696 0.60038 0.0
N170 N 0.16982 0.01257 0.6242 0.0
H171 H 0.19977 0.10012 0.6321 0.0
H172 H 0.04422 0.03622 0.57422 0.0
C173 C 0.98583 0.18283 0.63624 0.0
O174 O 0.0103 0.22694 0.65805 0.0
N175 N 0.07292 0.23969 0.5567 0.0
C176 C 0.10629 0.27818 0.53258 0.0
C177 C 0.0714 0.31216 0.50358 0.0
C178 C 0.01847 0.25175 0.5419 0.0
N179 N 0.0161 0.29539 0.50975 0.0
C180 C 0.15266 0.24244 0.64528 0.0
C181 C 0.12172 0.18604 0.73023 0.0
C182 C 0.15092 0.23866 0.73298 0.0
C183 C 0.16747 0.26642 0.68995 0.0
C184 C 0.1068 0.16403 0.68475 0.0
N185 N 0.12034 0.19335 0.64298 0.0
H186 H 0.16711 0.26353 0.61267 0.0
H187 H 0.08208 0.12446 0.6832 0.0
H188 H 0.15303 0.27648 0.53029 0.0
H189 H 0.98268 0.22214 0.54594 0.0
O190 O 0.16836 0.16824 0.54594 0.0
O191 O 0.08661 0.13342 0.51486 0.0
O192 O 0.01411 0.15211 0.60542 0.0
C193 C 0.14177 0.14388 0.50971 0.0
H194 H 0.10582 0.94796 0.60719 0.0
H195 H 0.08625 0.34054 0.47494 0.0
H196 H 0.10909 0.16309 0.76284 0.0
H197 H 0.19212 0.30621 0.69089 0.0
Co198 Co 0.77184 0.11554 0.58967 0.0
C199 C 0.89308 0.14895 0.6097 0.0
C200 C 0.83863 0.17277 0.66936 0.0
C201 C 0.89449 0.1904 0.67943 0.0
N202 N 0.83734 0.14859 0.62463 0.0
N203 N 0.92836 0.1739 0.64216 0.0
H204 H 0.90833 0.13217 0.57541 0.0
H205 H 0.80204 0.17669 0.69362 0.0
C206 C 0.7798 0.00205 0.64981 0.0
O207 O 0.75143 0.97472 0.68426 0.0
N208 N 0.70838 0.08039 0.55522 0.0
C209 C 0.66325 0.10619 0.53289 0.0
C210 C 0.63636 0.06605 0.50326 0.0
C211 C 0.70835 0.02556 0.53928 0.0
N212 N 0.66462 0.01557 0.50812 0.0
C213 C 0.72463 0.21948 0.63005 0.0
C214 C 0.65141 0.16297 0.69391 0.0
C215 C 0.66539 0.22082 0.70225 0.0
C216 C 0.69909 0.25044 0.66802 0.0
C217 C 0.67734 0.134 0.65545 0.0
N218 N 0.71775 0.16108 0.62735 0.0
H219 H 0.75513 0.24099 0.60636 0.0
H220 H 0.66815 0.08865 0.65066 0.0
H221 H 0.65371 0.15182 0.53478 0.0
H222 H 0.74309 -0.00471 0.54616 0.0
O223 O 0.78304 0.16871 0.53645 0.0
O224 O 0.82485 0.08297 0.54172 0.0
O225 O 0.76564 0.05424 0.64136 0.0
C226 C 0.81762 0.1309 0.51765 0.0
H227 H 0.90937 0.21156 0.71221 0.0
H228 H 0.60246 0.0745 0.47704 0.0
H229 H 0.62354 0.13951 0.71868 0.0
H230 H 0.70979 0.29556 0.67299 0.0
Co231 Co 0.89491 0.82236 0.58023 0.0
C232 C 0.82419 0.91549 0.62058 0.0
C233 C 0.90372 0.94778 0.59073 0.0
C234 C 0.87058 -0.00613 0.60582 0.0
N235 N 0.87443 0.8989 0.60037 0.0
N236 N 0.82062 0.97329 0.6242 0.0
H237 H 0.79066 0.88575 0.63208 0.0
H238 H 0.94623 0.94965 0.57422 0.0
C239 C 0.00461 0.80305 0.63625 0.0
O240 O 0.98015 0.75894 0.65806 0.0
N241 N 0.91753 0.74618 0.55671 0.0
C242 C 0.88417 0.70769 0.53259 0.0
C243 C 0.91906 0.6737 0.50361 0.0
C244 C 0.97199 0.73412 0.54193 0.0
N245 N 0.97436 0.69047 0.50978 0.0
C246 C 0.83779 0.74343 0.64528 0.0
C247 C 0.86871 0.79984 0.73023 0.0
C248 C 0.83952 0.74722 0.73298 0.0
C249 C 0.82297 0.71945 0.68996 0.0
C250 C 0.88364 0.82185 0.68475 0.0
N251 N 0.8701 0.79252 0.64299 0.0
H252 H 0.82334 0.72233 0.61268 0.0
H253 H 0.90836 0.86142 0.68319 0.0
H254 H 0.83743 0.70938 0.5303 0.0
H255 H 0.00777 0.76373 0.54596 0.0
O256 O 0.82209 0.81762 0.54594 0.0
O257 O 0.90383 0.85244 0.51486 0.0
O258 O 0.97633 0.83377 0.60543 0.0
C259 C 0.84867 0.84198 0.5097 0.0
H260 H 0.88463 0.0379 0.6072 0.0
H261 H 0.90422 0.64531 0.47497 0.0
H262 H 0.88134 0.82279 0.76284 0.0
H263 H 0.79833 0.67966 0.6909 0.0
Co264 Co 0.71862 0.61555 0.89268 0.0
C265 C 0.59736 0.64893 0.87264 0.0
C266 C 0.65182 0.67271 0.81296 0.0
C267 C 0.59595 0.6903 0.80287 0.0
N268 N 0.65311 0.64859 0.85771 0.0
N269 N 0.56208 0.67382 0.84014 0.0
H270 H 0.58212 0.63219 0.90695 0.0
H271 H 0.68841 0.67662 0.7887 0.0
C272 C 0.71064 0.50209 0.83251 0.0
O273 O 0.73901 0.47477 0.79805 0.0
N274 N 0.78209 0.58044 0.92713 0.0
C275 C 0.827 0.60627 0.94971 0.0
C276 C 0.85391 0.56606 0.97925 0.0
C277 C 0.78229 0.52551 0.94283 0.0
N278 N 0.82597 0.51544 0.97404 0.0
C279 C 0.76579 0.71951 0.85228 0.0
C280 C 0.83906 0.66301 0.78845 0.0
C281 C 0.82505 0.72085 0.7801 0.0
C282 C 0.79132 0.75047 0.81431 0.0
C283 C 0.81312 0.63404 0.82691 0.0
N284 N 0.77269 0.66111 0.855 0.0
H285 H 0.73526 0.74102 0.87595 0.0
H286 H 0.82233 0.5887 0.83172 0.0
H287 H 0.83634 0.65196 0.94808 0.0
H288 H 0.74765 0.49519 0.93578 0.0
O289 O 0.70739 0.66872 0.94589 0.0
O290 O 0.66562 0.58297 0.94063 0.0
O291 O 0.72483 0.55425 0.84099 0.0
C292 C 0.67284 0.6309 0.9647 0.0
H293 H 0.58106 0.71142 0.77007 0.0
H294 H 0.8876 0.57451 0.00566 0.0
H295 H 0.86695 0.63955 0.7637 0.0
H296 H 0.78061 0.79558 0.80931 0.0
Co297 Co 0.39491 0.6635 0.90212 0.0
C298 C 0.32415 0.57035 0.86183 0.0
C299 C 0.40375 0.53808 0.89158 0.0
C300 C 0.3706 0.49199 0.87651 0.0
N301 N 0.37443 0.58695 0.88199 0.0
N302 N 0.32058 0.51254 0.85824 0.0
H303 H 0.29062 0.60009 0.85035 0.0
H304 H 0.4463 0.53622 0.90802 0.0
C305 C 0.5046 0.68276 0.84605 0.0
O306 O 0.48013 0.72684 0.8242 0.0
N307 N 0.41754 0.73969 0.92562 0.0
C308 C 0.3842 0.77812 0.94981 0.0
C309 C 0.41913 0.81211 0.97875 0.0
C310 C 0.47201 0.75181 0.94032 0.0
N311 N 0.47447 0.79547 0.97246 0.0
C312 C 0.33782 0.74246 0.83707 0.0
C313 C 0.36865 0.68601 0.75212 0.0
C314 C 0.3395 0.73866 0.74937 0.0
C315 C 0.323 0.76645 0.7924 0.0
C316 C 0.38357 0.66399 0.79759 0.0
N317 N 0.37008 0.69333 0.83936 0.0
H318 H 0.32342 0.76357 0.86968 0.0
H319 H 0.40826 0.6244 0.79915 0.0
H320 H 0.33746 0.77638 0.95218 0.0
H321 H 0.5078 0.72222 0.93623 0.0
O322 O 0.32209 0.66825 0.93641 0.0
O323 O 0.40384 0.63342 0.96749 0.0
O324 O 0.47633 0.65207 0.87691 0.0
C325 C 0.34869 0.64388 0.97264 0.0
H326 H 0.38468 0.44797 0.87508 0.0
H327 H 0.40432 0.84043 0.00744 0.0
H328 H 0.38124 0.66304 0.71951 0.0
H329 H 0.2984 0.80626 0.79146 0.0
Co330 Co 0.27184 0.37031 0.89265 0.0
C331 C 0.39308 0.33692 0.87262 0.0
C332 C 0.33863 0.31308 0.81297 0.0
C333 C 0.3945 0.29549 0.80288 0.0
N334 N 0.33733 0.33724 0.8577 0.0
N335 N 0.42837 0.31201 0.84013 0.0
H336 H 0.40834 0.35369 0.90691 0.0
H337 H 0.30203 0.30915 0.78871 0.0
C338 C 0.27984 0.48378 0.83253 0.0
O339 O 0.25154 0.51113 0.79804 0.0
N340 N 0.20837 0.40546 0.92709 0.0
C341 C 0.1634 0.37965 0.94961 0.0
C342 C 0.1365 0.41987 0.97915 0.0
C343 C 0.20822 0.46038 0.94283 0.0
N344 N 0.16451 0.47046 0.97401 0.0
C345 C 0.22462 0.26637 0.85228 0.0
C346 C 0.1514 0.32288 0.78842 0.0
C347 C 0.16538 0.26503 0.78009 0.0
C348 C 0.19908 0.2354 0.81431 0.0
C349 C 0.17734 0.35185 0.82688 0.0
N350 N 0.21775 0.32477 0.85498 0.0
H351 H 0.25513 0.24485 0.87597 0.0
H352 H 0.16816 0.3972 0.83167 0.0
H353 H 0.15401 0.33398 0.94794 0.0
H354 H 0.24289 0.49067 0.93583 0.0
O355 O 0.28303 0.31715 0.94588 0.0
O356 O 0.32484 0.40289 0.9406 0.0
O357 O 0.26567 0.43159 0.84093 0.0
C358 C 0.31761 0.35496 0.96468 0.0
H359 H 0.40937 0.27434 0.77009 0.0
H360 H 0.10276 0.41142 0.00552 0.0
H361 H 0.12353 0.34634 0.76366 0.0
H362 H 0.20977 0.19029 0.80933 0.0
Co363 Co 0.59554 0.32237 0.9021 0.0
C364 C 0.66625 0.41551 0.86172 0.0
C365 C 0.58674 0.44779 0.89161 0.0
C366 C 0.61987 0.49388 0.87651 0.0
N367 N 0.61601 0.39891 0.88195 0.0
N368 N 0.66981 0.47331 0.85811 0.0
H369 H 0.69977 0.38577 0.85021 0.0
H370 H 0.54423 0.44966 0.90813 0.0
C371 C 0.48584 0.30308 0.84605 0.0
O372 O 0.51031 0.25898 0.82422 0.0
N373 N 0.57292 0.24618 0.92561 0.0
C374 C 0.60627 0.20775 0.9498 0.0
C375 C 0.57134 0.17376 0.97875 0.0
C376 C 0.51846 0.23405 0.94031 0.0
N377 N 0.516 0.19039 0.97246 0.0
C378 C 0.65264 0.24342 0.83706 0.0
C379 C 0.62176 0.29983 0.7521 0.0
C380 C 0.65093 0.2472 0.74936 0.0
C381 C 0.66746 0.21942 0.79239 0.0
C382 C 0.60684 0.32185 0.79757 0.0
N383 N 0.62036 0.29252 0.83934 0.0
H384 H 0.66706 0.22231 0.86967 0.0
H385 H 0.58214 0.36143 0.79912 0.0
H386 H 0.653 0.20949 0.95218 0.0
H387 H 0.48266 0.26363 0.93623 0.0
O388 O 0.66836 0.31763 0.93638 0.0
O389 O 0.58661 0.35245 0.96746 0.0
O390 O 0.51412 0.33378 0.87689 0.0
C391 C 0.64177 0.34199 0.97262 0.0
H392 H 0.60582 0.53792 0.87516 0.0
H393 H 0.58616 0.14544 0.00744 0.0
H394 H 0.60915 0.32279 0.71949 0.0
H395 H 0.69208 0.17962 0.79146 0.0
Co396 Co 0.71865 0.3704 0.08967 0.0
C397 C 0.59742 0.33696 0.1097 0.0
C398 C 0.65188 0.31314 0.16936 0.0
C399 C 0.59602 0.29551 0.17944 0.0
N400 N 0.65316 0.33733 0.12464 0.0
N401 N 0.56214 0.31201 0.14218 0.0
H402 H 0.58216 0.35373 0.07541 0.0
H403 H 0.68847 0.30922 0.19362 0.0
C404 C 0.71066 0.48387 0.14982 0.0
O405 O 0.73902 0.5112 0.18427 0.0
N406 N 0.7821 0.40556 0.05522 0.0
C407 C 0.82722 0.37977 0.03287 0.0
C408 C 0.8541 0.41992 0.00325 0.0
C409 C 0.78214 0.46041 0.03931 0.0
N410 N 0.82586 0.47042 0.00814 0.0
C411 C 0.76589 0.26646 0.13004 0.0
C412 C 0.83909 0.32296 0.19391 0.0
C413 C 0.82512 0.26511 0.20224 0.0
C414 C 0.79142 0.23549 0.16801 0.0
C415 C 0.81315 0.35194 0.15546 0.0
N416 N 0.77275 0.32486 0.12735 0.0
H417 H 0.73538 0.24494 0.10635 0.0
H418 H 0.82233 0.3973 0.15067 0.0
H419 H 0.83675 0.33414 0.03473 0.0
H420 H 0.7474 0.49067 0.0462 0.0
O421 O 0.70746 0.31723 0.03645 0.0
O422 O 0.66563 0.40296 0.04172 0.0
O423 O 0.72484 0.4317 0.14136 0.0
C424 C 0.67287 0.35503 0.01765 0.0
H425 H 0.58115 0.27433 0.21222 0.0
H426 H 0.888 0.41149 0.97702 0.0
H427 H 0.86696 0.34643 0.21868 0.0
H428 H 0.78074 0.19037 0.17299 0.0
Co429 Co 0.59548 0.66354 0.08025 0.0
C430 C 0.66623 0.57043 0.12061 0.0
C431 C 0.58672 0.53812 0.09075 0.0
C432 C 0.61987 0.49204 0.10584 0.0
N433 N 0.61598 0.58701 0.1004 0.0
N434 N 0.66982 0.51263 0.12422 0.0
H435 H 0.69974 0.60018 0.13212 0.0
H436 H 0.54421 0.53624 0.07423 0.0
C437 C 0.48577 0.68283 0.13626 0.0
O438 O 0.51023 0.72694 0.15807 0.0
N439 N 0.57284 0.73971 0.05672 0.0
C440 C 0.60619 0.77821 0.0326 0.0
C441 C 0.57129 0.81219 0.0036 0.0
C442 C 0.51838 0.75175 0.04192 0.0
N443 N 0.516 0.79539 0.00977 0.0
C444 C 0.65257 0.74249 0.14529 0.0
C445 C 0.62166 0.6861 0.23025 0.0
C446 C 0.65084 0.73873 0.23299 0.0
C447 C 0.66739 0.76649 0.18996 0.0
C448 C 0.60675 0.66407 0.18477 0.0
N449 N 0.62028 0.6934 0.143 0.0
H450 H 0.66702 0.76358 0.11269 0.0
H451 H 0.58204 0.62449 0.18322 0.0
H452 H 0.65293 0.77653 0.0303 0.0
H453 H 0.48261 0.72213 0.04596 0.0
O454 O 0.6683 0.66831 0.04596 0.0
O455 O 0.58657 0.63345 0.01488 0.0
O456 O 0.51406 0.65211 0.10544 0.0
C457 C 0.64172 0.64393 0.00973 0.0
H458 H 0.60584 0.448 0.10719 0.0
H459 H 0.58613 0.84057 0.97496 0.0
H460 H 0.60904 0.66315 0.26286 0.0
H461 H 0.69202 0.80628 0.19089 0.0
Co462 Co 0.2718 0.61545 0.08969 0.0
C463 C 0.39303 0.6489 0.10972 0.0
C464 C 0.33857 0.67271 0.16938 0.0
C465 C 0.39443 0.69036 0.17945 0.0
N466 N 0.33729 0.64852 0.12466 0.0
N467 N 0.4283 0.67387 0.14218 0.0
H468 H 0.40829 0.63212 0.07543 0.0
H469 H 0.30198 0.67662 0.19364 0.0
C470 C 0.2798 0.50196 0.14982 0.0
O471 O 0.25144 0.47462 0.18427 0.0
N472 N 0.20836 0.58029 0.05523 0.0
C473 C 0.16322 0.60607 0.03291 0.0
C474 C 0.13634 0.56593 0.00328 0.0
C475 C 0.20834 0.52545 0.0393 0.0
N476 N 0.16461 0.51545 0.00813 0.0
C477 C 0.22456 0.71938 0.13006 0.0
C478 C 0.15137 0.66286 0.19394 0.0
C479 C 0.16533 0.72071 0.20226 0.0
C480 C 0.19901 0.75034 0.16803 0.0
C481 C 0.17731 0.63388 0.15548 0.0
N482 N 0.2177 0.66097 0.12737 0.0
H483 H 0.25505 0.7409 0.10637 0.0
H484 H 0.16813 0.58853 0.1507 0.0
H485 H 0.15366 0.6517 0.03481 0.0
H486 H 0.24309 0.4952 0.04616 0.0
O487 O 0.28299 0.66863 0.03647 0.0
O488 O 0.32482 0.5829 0.04174 0.0
O489 O 0.26562 0.55414 0.14138 0.0
C490 C 0.31758 0.63083 0.01767 0.0
H491 H 0.4093 0.71153 0.21223 0.0
H492 H 0.10243 0.57437 0.97706 0.0
H493 H 0.1235 0.63939 0.21871 0.0
H494 H 0.20969 0.79546 0.173 0.0
Co495 Co 0.39497 0.32231 0.08023 0.0
C496 C 0.32421 0.41542 0.12059 0.0
C497 C 0.40373 0.44773 0.09074 0.0
C498 C 0.37058 0.4938 0.10584 0.0
N499 N 0.37446 0.39884 0.10037 0.0
N500 N 0.32063 0.47322 0.12421 0.0
H501 H 0.2907 0.38566 0.13209 0.0
H502 H 0.44624 0.44962 0.07423 0.0
C503 C 0.50468 0.30304 0.13625 0.0
O504 O 0.48023 0.25892 0.15806 0.0
N505 N 0.41762 0.24614 0.0567 0.0
C506 C 0.38427 0.20764 0.03258 0.0
C507 C 0.41918 0.17366 0.00359 0.0
C508 C 0.47208 0.2341 0.04192 0.0
N509 N 0.47447 0.19046 0.00977 0.0
C510 C 0.33788 0.24335 0.14527 0.0
C511 C 0.36878 0.29975 0.23023 0.0
C512 C 0.3396 0.24712 0.23297 0.0
C513 C 0.32306 0.21935 0.18995 0.0
C514 C 0.38369 0.32177 0.18475 0.0
N515 N 0.37017 0.29245 0.14298 0.0
H516 H 0.32344 0.22225 0.11267 0.0
H517 H 0.4084 0.36135 0.1832 0.0
H518 H 0.33753 0.20932 0.03028 0.0
H519 H 0.50785 0.26373 0.04596 0.0
O520 O 0.32215 0.31754 0.04594 0.0
O521 O 0.40387 0.35241 0.01486 0.0
O522 O 0.47638 0.33375 0.10543 0.0
C523 C 0.34872 0.34192 0.00971 0.0
H524 H 0.38462 0.53784 0.10721 0.0
H525 H 0.40435 0.14528 0.97496 0.0
H526 H 0.38139 0.3227 0.26284 0.0
H527 H 0.29843 0.17956 0.19088 0.0
loop_
_geom_bond_atom_site_label_1
_geom_bond_atom_site_label_2
_geom_bond_distance
_geom_bond_site_symmetry_2
_ccdc_geom_bond_type
Co0 N4 2.148 . S
Co0 N10 2.128 . S
Co0 N20 2.194 . S
Co0 O25 2.351 . S
Co0 O26 2.155 . S
Co0 O27 2.096 . S
C1 N4 1.301 . S
C1 N5 1.328 . S
C1 H6 0.930 . S
C2 C3 1.333 . S
C2 N4 1.317 . S
C2 H7 0.930 . S
C3 C2 1.333 . S
C3 N5 1.350 . S
C3 H29 0.931 . S
N4 Co0 2.148 . S
N4 C1 1.301 . S
N4 C2 1.317 . S
N5 C1 1.328 . S
N5 C3 1.350 . S
H6 C1 0.930 . S
H7 C2 0.930 . S
C8 O9 1.224 . S
C8 O27 1.247 . S
O9 C8 1.224 . S
N10 Co0 2.128 . S
N10 C11 1.355 . S
N10 C13 1.311 . S
C11 N10 1.355 . S
C11 C12 1.363 . S
C11 H23 0.929 . S
C12 C11 1.363 . S
C12 N14 1.375 . S
C12 H30 0.931 . S
C13 N10 1.311 . S
C13 N14 1.347 . S
C13 H24 0.929 . S
N14 C12 1.375 . S
N14 C13 1.347 . S
C15 C18 1.365 . S
C15 N20 1.328 . S
C15 H21 0.929 . S
C16 C17 1.362 . S
C16 C19 1.378 . S
C16 H31 0.929 . S
C17 C16 1.362 . S
C17 C18 1.366 . S
C18 C15 1.365 . S
C18 C17 1.366 . S
C18 H32 0.930 . S
C19 C16 1.378 . S
C19 N20 1.315 . S
C19 H22 0.930 . S
N20 Co0 2.194 . S
N20 C15 1.328 . S
N20 C19 1.315 . S
H21 C15 0.929 . S
H22 C19 0.930 . S
H23 C11 0.929 . S
H24 C13 0.929 . S
O25 Co0 2.351 . S
O25 C28 1.244 . S
O26 Co0 2.155 . S
O26 C28 1.240 . S
O27 Co0 2.096 . S
O27 C8 1.247 . S
C28 O25 1.244 . S
C28 O26 1.240 . S
H29 C3 0.931 . S
H30 C12 0.931 . S
H31 C16 0.929 . S
H32 C18 0.930 . S
Co33 N37 2.148 . S
Co33 N43 2.128 . S
Co33 N53 2.194 . S
Co33 O58 2.351 . S
Co33 O59 2.155 . S
Co33 O60 2.096 . S
C34 N37 1.301 . S
C34 N38 1.328 . S
C34 H39 0.930 . S
C35 C36 1.333 . S
C35 N37 1.317 . S
C35 H40 0.930 . S
C36 C35 1.333 . S
C36 N38 1.350 . S
C36 H62 0.931 . S
N37 Co33 2.148 . S
N37 C34 1.301 . S
N37 C35 1.317 . S
N38 C34 1.328 . S
N38 C36 1.350 . S
H39 C34 0.930 . S
H40 C35 0.930 . S
C41 O42 1.224 . S
C41 O60 1.247 . S
O42 C41 1.224 . S
N43 Co33 2.128 . S
N43 C44 1.355 . S
N43 C46 1.311 . S
C44 N43 1.355 . S
C44 C45 1.363 . S
C44 H56 0.929 . S
C45 C44 1.363 . S
C45 N47 1.375 . S
C45 H63 0.931 . S
C46 N43 1.311 . S
C46 N47 1.347 . S
C46 H57 0.929 . S
N47 C45 1.375 . S
N47 C46 1.347 . S
C48 C51 1.365 . S
C48 N53 1.328 . S
C48 H54 0.929 . S
C49 C50 1.362 . S
C49 C52 1.378 . S
C49 H64 0.929 . S
C50 C49 1.362 . S
C50 C51 1.366 . S
C51 C48 1.365 . S
C51 C50 1.366 . S
C51 H65 0.930 . S
C52 C49 1.378 . S
C52 N53 1.315 . S
C52 H55 0.930 . S
N53 Co33 2.194 . S
N53 C48 1.328 . S
N53 C52 1.315 . S
H54 C48 0.929 . S
H55 C52 0.930 . S
H56 C44 0.929 . S
H57 C46 0.929 . S
O58 Co33 2.351 . S
O58 C61 1.244 . S
O59 Co33 2.155 . S
O59 C61 1.240 . S
O60 Co33 2.096 . S
O60 C41 1.247 . S
C61 O58 1.244 . S
C61 O59 1.240 . S
H62 C36 0.931 . S
H63 C45 0.931 . S
H64 C49 0.929 . S
H65 C51 0.930 . S
Co66 N70 2.148 . S
Co66 N76 2.128 . S
Co66 N86 2.194 . S
Co66 O91 2.351 . S
Co66 O92 2.155 . S
Co66 O93 2.096 . S
C67 N70 1.301 . S
C67 N71 1.328 . S
C67 H72 0.930 . S
C68 C69 1.333 . S
C68 N70 1.317 . S
C68 H73 0.930 . S
C69 C68 1.333 . S
C69 N71 1.350 . S
C69 H95 0.931 . S
N70 Co66 2.148 . S
N70 C67 1.301 . S
N70 C68 1.317 . S
N71 C67 1.328 . S
N71 C69 1.350 . S
H72 C67 0.930 . S
H73 C68 0.930 . S
C74 O75 1.224 . S
C74 O93 1.247 . S
O75 C74 1.224 . S
N76 Co66 2.128 . S
N76 C77 1.355 . S
N76 C79 1.311 . S
C77 N76 1.355 . S
C77 C78 1.363 . S
C77 H89 0.929 . S
C78 C77 1.363 . S
C78 N80 1.375 . S
C78 H96 0.931 . S
C79 N76 1.311 . S
C79 N80 1.347 . S
C79 H90 0.929 . S
N80 C78 1.375 . S
N80 C79 1.347 . S
C81 C84 1.365 . S
C81 N86 1.328 . S
C81 H87 0.929 . S
C82 C83 1.362 . S
C82 C85 1.378 . S
C82 H97 0.929 . S
C83 C82 1.362 . S
C83 C84 1.366 . S
C84 C81 1.365 . S
C84 C83 1.366 . S
C84 H98 0.930 . S
C85 C82 1.378 . S
C85 N86 1.315 . S
C85 H88 0.930 . S
N86 Co66 2.194 . S
N86 C81 1.328 . S
N86 C85 1.315 . S
H87 C81 0.929 . S
H88 C85 0.930 . S
H89 C77 0.929 . S
H90 C79 0.929 . S
O91 Co66 2.351 . S
O91 C94 1.244 . S
O92 Co66 2.155 . S
O92 C94 1.240 . S
O93 Co66 2.096 . S
O93 C74 1.247 . S
C94 O91 1.244 . S
C94 O92 1.240 . S
H95 C69 0.931 . S
H96 C78 0.931 . S
H97 C82 0.929 . S
H98 C84 0.930 . S
Co99 N103 2.148 . S
Co99 N109 2.128 . S
Co99 N119 2.194 . S
Co99 O124 2.351 . S
Co99 O125 2.155 . S
Co99 O126 2.096 . S
C100 N103 1.301 . S
C100 N104 1.328 . S
C100 H105 0.930 . S
C101 C102 1.333 . S
C101 N103 1.317 . S
C101 H106 0.930 . S
C102 C101 1.333 . S
C102 N104 1.350 . S
C102 H128 0.931 . S
N103 Co99 2.148 . S
N103 C100 1.301 . S
N103 C101 1.317 . S
N104 C100 1.328 . S
N104 C102 1.350 . S
H105 C100 0.930 . S
H106 C101 0.930 . S
C107 O108 1.224 . S
C107 O126 1.247 . S
O108 C107 1.224 . S
N109 Co99 2.128 . S
N109 C110 1.355 . S
N109 C112 1.311 . S
C110 N109 1.355 . S
C110 C111 1.363 . S
C110 H122 0.929 . S
C111 C110 1.363 . S
C111 N113 1.375 . S
C111 H129 0.931 . S
C112 N109 1.311 . S
C112 N113 1.347 . S
C112 H123 0.929 . S
N113 C111 1.375 . S
N113 C112 1.347 . S
C114 C117 1.365 . S
C114 N119 1.328 . S
C114 H120 0.929 . S
C115 C116 1.362 . S
C115 C118 1.378 . S
C115 H130 0.929 . S
C116 C115 1.362 . S
C116 C117 1.366 . S
C117 C114 1.365 . S
C117 C116 1.366 . S
C117 H131 0.930 . S
C118 C115 1.378 . S
C118 N119 1.315 . S
C118 H121 0.930 . S
N119 Co99 2.194 . S
N119 C114 1.328 . S
N119 C118 1.315 . S
H120 C114 0.929 . S
H121 C118 0.930 . S
H122 C110 0.929 . S
H123 C112 0.929 . S
O124 Co99 2.351 . S
O124 C127 1.244 . S
O125 Co99 2.155 . S
O125 C127 1.240 . S
O126 Co99 2.096 . S
O126 C107 1.247 . S
C127 O124 1.244 . S
C127 O125 1.240 . S
H128 C102 0.931 . S
H129 C111 0.931 . S
H130 C115 0.929 . S
H131 C117 0.930 . S
Co132 N136 2.148 . S
Co132 N142 2.128 . S
Co132 N152 2.194 . S
Co132 O157 2.351 . S
Co132 O158 2.155 . S
Co132 O159 2.096 . S
C133 N136 1.301 . S
C133 N137 1.328 . S
C133 H138 0.930 . S
C134 C135 1.333 . S
C134 N136 1.317 . S
C134 H139 0.930 . S
C135 C134 1.333 . S
C135 N137 1.350 . S
C135 H161 0.931 . S
N136 Co132 2.148 . S
N136 C133 1.301 . S
N136 C134 1.317 . S
N137 C133 1.328 . S
N137 C135 1.350 . S
H138 C133 0.930 . S
H139 C134 0.930 . S
C140 O141 1.224 . S
C140 O159 1.247 . S
O141 C140 1.224 . S
N142 Co132 2.128 . S
N142 C143 1.355 . S
N142 C145 1.311 . S
C143 N142 1.355 . S
C143 C144 1.363 . S
C143 H155 0.929 . S
C144 C143 1.363 . S
C144 N146 1.375 . S
C144 H162 0.931 . S
C145 N142 1.311 . S
C145 N146 1.347 . S
C145 H156 0.929 . S
N146 C144 1.375 . S
N146 C145 1.347 . S
C147 C150 1.365 . S
C147 N152 1.328 . S
C147 H153 0.929 . S
C148 C149 1.362 . S
C148 C151 1.378 . S
C148 H163 0.929 . S
C149 C148 1.362 . S
C149 C150 1.366 . S
C150 C147 1.365 . S
C150 C149 1.366 . S
C150 H164 0.930 . S
C151 C148 1.378 . S
C151 N152 1.315 . S
C151 H154 0.930 . S
N152 Co132 2.194 . S
N152 C147 1.328 . S
N152 C151 1.315 . S
H153 C147 0.929 . S
H154 C151 0.930 . S
H155 C143 0.929 . S
H156 C145 0.929 . S
O157 Co132 2.351 . S
O157 C160 1.244 . S
O158 Co132 2.155 . S
O158 C160 1.240 . S
O159 Co132 2.096 . S
O159 C140 1.247 . S
C160 O157 1.244 . S
C160 O158 1.240 . S
H161 C135 0.931 . S
H162 C144 0.931 . S
H163 C148 0.929 . S
H164 C150 0.930 . S
Co165 N169 2.148 . S
Co165 N175 2.128 . S
Co165 N185 2.194 . S
Co165 O190 2.351 . S
Co165 O191 2.155 . S
Co165 O192 2.096 . S
C166 N169 1.301 . S
C166 N170 1.328 . S
C166 H171 0.930 . S
C167 C168 1.333 . S
C167 N169 1.317 . S
C167 H172 0.930 . S
C168 C167 1.333 . S
C168 N170 1.350 . S
C168 H194 0.931 . S
N169 Co165 2.148 . S
N169 C166 1.301 . S
N169 C167 1.317 . S
N170 C166 1.328 . S
N170 C168 1.350 . S
H171 C166 0.930 . S
H172 C167 0.930 . S
C173 O174 1.224 . S
C173 O192 1.247 . S
O174 C173 1.224 . S
N175 Co165 2.128 . S
N175 C176 1.355 . S
N175 C178 1.311 . S
C176 N175 1.355 . S
C176 C177 1.363 . S
C176 H188 0.929 . S
C177 C176 1.363 . S
C177 N179 1.375 . S
C177 H195 0.931 . S
C178 N175 1.311 . S
C178 N179 1.347 . S
C178 H189 0.929 . S
N179 C177 1.375 . S
N179 C178 1.347 . S
C180 C183 1.365 . S
C180 N185 1.328 . S
C180 H186 0.929 . S
C181 C182 1.362 . S
C181 C184 1.378 . S
C181 H196 0.929 . S
C182 C181 1.362 . S
C182 C183 1.366 . S
C183 C180 1.365 . S
C183 C182 1.366 . S
C183 H197 0.930 . S
C184 C181 1.378 . S
C184 N185 1.315 . S
C184 H187 0.930 . S
N185 Co165 2.194 . S
N185 C180 1.328 . S
N185 C184 1.315 . S
H186 C180 0.929 . S
H187 C184 0.930 . S
H188 C176 0.929 . S
H189 C178 0.929 . S
O190 Co165 2.351 . S
O190 C193 1.244 . S
O191 Co165 2.155 . S
O191 C193 1.240 . S
O192 Co165 2.096 . S
O192 C173 1.247 . S
C193 O190 1.244 . S
C193 O191 1.240 . S
H194 C168 0.931 . S
H195 C177 0.931 . S
H196 C181 0.929 . S
H197 C183 0.930 . S
Co198 N202 2.148 . S
Co198 N208 2.128 . S
Co198 N218 2.194 . S
Co198 O223 2.351 . S
Co198 O224 2.155 . S
Co198 O225 2.096 . S
C199 N202 1.301 . S
C199 N203 1.328 . S
C199 H204 0.930 . S
C200 C201 1.333 . S
C200 N202 1.317 . S
C200 H205 0.930 . S
C201 C200 1.333 . S
C201 N203 1.350 . S
C201 H227 0.931 . S
N202 Co198 2.148 . S
N202 C199 1.301 . S
N202 C200 1.317 . S
N203 C199 1.328 . S
N203 C201 1.350 . S
H204 C199 0.930 . S
H205 C200 0.930 . S
C206 O207 1.224 . S
C206 O225 1.247 . S
O207 C206 1.224 . S
N208 Co198 2.128 . S
N208 C209 1.355 . S
N208 C211 1.311 . S
C209 N208 1.355 . S
C209 C210 1.363 . S
C209 H221 0.929 . S
C210 C209 1.363 . S
C210 N212 1.375 . S
C210 H228 0.931 . S
C211 N208 1.311 . S
C211 N212 1.347 . S
C211 H222 0.929 . S
N212 C210 1.375 . S
N212 C211 1.347 . S
C213 C216 1.365 . S
C213 N218 1.328 . S
C213 H219 0.929 . S
C214 C215 1.362 . S
C214 C217 1.378 . S
C214 H229 0.929 . S
C215 C214 1.362 . S
C215 C216 1.366 . S
C216 C213 1.365 . S
C216 C215 1.366 . S
C216 H230 0.930 . S
C217 C214 1.378 . S
C217 N218 1.315 . S
C217 H220 0.930 . S
N218 Co198 2.194 . S
N218 C213 1.328 . S
N218 C217 1.315 . S
H219 C213 0.929 . S
H220 C217 0.930 . S
H221 C209 0.929 . S
H222 C211 0.929 . S
O223 Co198 2.351 . S
O223 C226 1.244 . S
O224 Co198 2.155 . S
O224 C226 1.240 . S
O225 Co198 2.096 . S
O225 C206 1.247 . S
C226 O223 1.244 . S
C226 O224 1.240 . S
H227 C201 0.931 . S
H228 C210 0.931 . S
H229 C214 0.929 . S
H230 C216 0.930 . S
Co231 N235 2.148 . S
Co231 N241 2.128 . S
Co231 N251 2.194 . S
Co231 O256 2.351 . S
Co231 O257 2.155 . S
Co231 O258 2.096 . S
C232 N235 1.301 . S
C232 N236 1.328 . S
C232 H237 0.930 . S
C233 C234 1.333 . S
C233 N235 1.317 . S
C233 H238 0.930 . S
C234 C233 1.333 . S
C234 N236 1.350 . S
C234 H260 0.931 . S
N235 Co231 2.148 . S
N235 C232 1.301 . S
N235 C233 1.317 . S
N236 C232 1.328 . S
N236 C234 1.350 . S
H237 C232 0.930 . S
H238 C233 0.930 . S
C239 O240 1.224 . S
C239 O258 1.247 . S
O240 C239 1.224 . S
N241 Co231 2.128 . S
N241 C242 1.355 . S
N241 C244 1.311 . S
C242 N241 1.355 . S
C242 C243 1.363 . S
C242 H254 0.929 . S
C243 C242 1.363 . S
C243 N245 1.375 . S
C243 H261 0.931 . S
C244 N241 1.311 . S
C244 N245 1.347 . S
C244 H255 0.929 . S
N245 C243 1.375 . S
N245 C244 1.347 . S
C246 C249 1.365 . S
C246 N251 1.328 . S
C246 H252 0.929 . S
C247 C248 1.362 . S
C247 C250 1.378 . S
C247 H262 0.929 . S
C248 C247 1.362 . S
C248 C249 1.366 . S
C249 C246 1.365 . S
C249 C248 1.366 . S
C249 H263 0.930 . S
C250 C247 1.378 . S
C250 N251 1.315 . S
C250 H253 0.930 . S
N251 Co231 2.194 . S
N251 C246 1.328 . S
N251 C250 1.315 . S
H252 C246 0.929 . S
H253 C250 0.930 . S
H254 C242 0.929 . S
H255 C244 0.929 . S
O256 Co231 2.351 . S
O256 C259 1.244 . S
O257 Co231 2.155 . S
O257 C259 1.240 . S
O258 Co231 2.096 . S
O258 C239 1.247 . S
C259 O256 1.244 . S
C259 O257 1.240 . S
H260 C234 0.931 . S
H261 C243 0.931 . S
H262 C247 0.929 . S
H263 C249 0.930 . S
Co264 N268 2.148 . S
Co264 N274 2.128 . S
Co264 N284 2.194 . S
Co264 O289 2.351 . S
Co264 O290 2.155 1_556 S
Co264 O291 2.096 . S
C265 N268 1.301 . S
C265 N269 1.328 . S
C265 H270 0.930 . S
C266 C267 1.333 . S
C266 N268 1.317 . S
C266 H271 0.930 . S
C267 C266 1.333 . S
C267 N269 1.350 . S
C267 H293 0.931 . S
N268 Co264 2.148 . S
N268 C265 1.301 . S
N268 C266 1.317 . S
N269 C265 1.328 . S
N269 C267 1.350 . S
H270 C265 0.930 . S
H271 C266 0.930 . S
C272 O273 1.224 . S
C272 O291 1.247 . S
O273 C272 1.224 . S
N274 Co264 2.128 . S
N274 C275 1.355 . S
N274 C277 1.311 . S
C275 N274 1.355 . S
C275 C276 1.363 . S
C275 H287 0.929 . S
C276 C275 1.363 . S
C276 N278 1.375 . S
C276 H294 0.931 . S
C277 N274 1.311 . S
C277 N278 1.347 . S
C277 H288 0.929 . S
N278 C276 1.375 . S
N278 C277 1.347 . S
C279 C282 1.365 . S
C279 N284 1.328 . S
C279 H285 0.929 . S
C280 C281 1.362 . S
C280 C283 1.378 . S
C280 H295 0.929 . S
C281 C280 1.362 . S
C281 C282 1.366 . S
C282 C279 1.365 . S
C282 C281 1.366 . S
C282 H296 0.930 . S
C283 C280 1.378 . S
C283 N284 1.315 . S
C283 H286 0.930 . S
N284 Co264 2.194 . S
N284 C279 1.328 . S
N284 C283 1.315 . S
H285 C279 0.929 . S
H286 C283 0.930 . S
H287 C275 0.929 . S
H288 C277 0.929 . S
O289 Co264 2.351 . S
O289 C292 1.244 . S
O290 Co264 2.155 1_554 S
O290 C292 1.240 1_554 S
O291 Co264 2.096 . S
O291 C272 1.247 . S
C292 O289 1.244 . S
C292 O290 1.240 1_556 S
H293 C267 0.931 . S
H294 C276 0.931 . S
H295 C280 0.929 . S
H296 C282 0.930 . S
Co297 N301 2.148 . S
Co297 N307 2.128 . S
Co297 N317 2.194 . S
Co297 O322 2.351 . S
Co297 O323 2.155 1_556 S
Co297 O324 2.096 . S
C298 N301 1.301 . S
C298 N302 1.328 . S
C298 H303 0.930 . S
C299 C300 1.333 . S
C299 N301 1.317 . S
C299 H304 0.930 . S
C300 C299 1.333 . S
C300 N302 1.350 . S
C300 H326 0.931 . S
N301 Co297 2.148 . S
N301 C298 1.301 . S
N301 C299 1.317 . S
N302 C298 1.328 . S
N302 C300 1.350 . S
H303 C298 0.930 . S
H304 C299 0.930 . S
C305 O306 1.224 . S
C305 O324 1.247 . S
O306 C305 1.224 . S
N307 Co297 2.128 . S
N307 C308 1.355 . S
N307 C310 1.311 . S
C308 N307 1.355 . S
C308 C309 1.363 . S
C308 H320 0.929 . S
C309 C308 1.363 . S
C309 N311 1.375 . S
C309 H327 0.931 . S
C310 N307 1.311 . S
C310 N311 1.347 . S
C310 H321 0.929 . S
N311 C309 1.375 . S
N311 C310 1.347 . S
C312 C315 1.365 . S
C312 N317 1.328 . S
C312 H318 0.929 . S
C313 C314 1.362 . S
C313 C316 1.378 . S
C313 H328 0.929 . S
C314 C313 1.362 . S
C314 C315 1.366 . S
C315 C312 1.365 . S
C315 C314 1.366 . S
C315 H329 0.930 . S
C316 C313 1.378 . S
C316 N317 1.315 . S
C316 H319 0.930 . S
N317 Co297 2.194 . S
N317 C312 1.328 . S
N317 C316 1.315 . S
H318 C312 0.929 . S
H319 C316 0.930 . S
H320 C308 0.929 . S
H321 C310 0.929 . S
O322 Co297 2.351 . S
O322 C325 1.244 . S
O323 Co297 2.155 1_554 S
O323 C325 1.240 1_554 S
O324 Co297 2.096 . S
O324 C305 1.247 . S
C325 O322 1.244 . S
C325 O323 1.240 1_556 S
H326 C300 0.931 . S
H327 C309 0.931 . S
H328 C313 0.929 . S
H329 C315 0.930 . S
Co330 N334 2.148 . S
Co330 N340 2.128 . S
Co330 N350 2.194 . S
Co330 O355 2.351 . S
Co330 O356 2.155 1_556 S
Co330 O357 2.096 . S
C331 N334 1.301 . S
C331 N335 1.328 . S
C331 H336 0.930 . S
C332 C333 1.333 . S
C332 N334 1.317 . S
C332 H337 0.930 . S
C333 C332 1.333 . S
C333 N335 1.350 . S
C333 H359 0.931 . S
N334 Co330 2.148 . S
N334 C331 1.301 . S
N334 C332 1.317 . S
N335 C331 1.328 . S
N335 C333 1.350 . S
H336 C331 0.930 . S
H337 C332 0.930 . S
C338 O339 1.224 . S
C338 O357 1.247 . S
O339 C338 1.224 . S
N340 Co330 2.128 . S
N340 C341 1.355 . S
N340 C343 1.311 . S
C341 N340 1.355 . S
C341 C342 1.363 . S
C341 H353 0.929 . S
C342 C341 1.363 . S
C342 N344 1.375 . S
C342 H360 0.931 . S
C343 N340 1.311 . S
C343 N344 1.347 . S
C343 H354 0.929 . S
N344 C342 1.375 . S
N344 C343 1.347 . S
C345 C348 1.365 . S
C345 N350 1.328 . S
C345 H351 0.929 . S
C346 C347 1.362 . S
C346 C349 1.378 . S
C346 H361 0.929 . S
C347 C346 1.362 . S
C347 C348 1.366 . S
C348 C345 1.365 . S
C348 C347 1.366 . S
C348 H362 0.930 . S
C349 C346 1.378 . S
C349 N350 1.315 . S
C349 H352 0.930 . S
N350 Co330 2.194 . S
N350 C345 1.328 . S
N350 C349 1.315 . S
H351 C345 0.929 . S
H352 C349 0.930 . S
H353 C341 0.929 . S
H354 C343 0.929 . S
O355 Co330 2.351 . S
O355 C358 1.244 . S
O356 Co330 2.155 1_554 S
O356 C358 1.240 1_554 S
O357 Co330 2.096 . S
O357 C338 1.247 . S
C358 O355 1.244 . S
C358 O356 1.240 1_556 S
H359 C333 0.931 . S
H360 C342 0.931 . S
H361 C346 0.929 . S
H362 C348 0.930 . S
Co363 N367 2.148 . S
Co363 N373 2.128 . S
Co363 N383 2.194 . S
Co363 O388 2.351 . S
Co363 O389 2.155 1_556 S
Co363 O390 2.096 . S
C364 N367 1.301 . S
C364 N368 1.328 . S
C364 H369 0.930 . S
C365 C366 1.333 . S
C365 N367 1.317 . S
C365 H370 0.930 . S
C366 C365 1.333 . S
C366 N368 1.350 . S
C366 H392 0.931 . S
N367 Co363 2.148 . S
N367 C364 1.301 . S
N367 C365 1.317 . S
N368 C364 1.328 . S
N368 C366 1.350 . S
H369 C364 0.930 . S
H370 C365 0.930 . S
C371 O372 1.224 . S
C371 O390 1.247 . S
O372 C371 1.224 . S
N373 Co363 2.128 . S
N373 C374 1.355 . S
N373 C376 1.311 . S
C374 N373 1.355 . S
C374 C375 1.363 . S
C374 H386 0.929 . S
C375 C374 1.363 . S
C375 N377 1.375 . S
C375 H393 0.931 . S
C376 N373 1.311 . S
C376 N377 1.347 . S
C376 H387 0.929 . S
N377 C375 1.375 . S
N377 C376 1.347 . S
C378 C381 1.365 . S
C378 N383 1.328 . S
C378 H384 0.929 . S
C379 C380 1.362 . S
C379 C382 1.378 . S
C379 H394 0.929 . S
C380 C379 1.362 . S
C380 C381 1.366 . S
C381 C378 1.365 . S
C381 C380 1.366 . S
C381 H395 0.930 . S
C382 C379 1.378 . S
C382 N383 1.315 . S
C382 H385 0.930 . S
N383 Co363 2.194 . S
N383 C378 1.328 . S
N383 C382 1.315 . S
H384 C378 0.929 . S
H385 C382 0.930 . S
H386 C374 0.929 . S
H387 C376 0.929 . S
O388 Co363 2.351 . S
O388 C391 1.244 . S
O389 Co363 2.155 1_554 S
O389 C391 1.240 1_554 S
O390 Co363 2.096 . S
O390 C371 1.247 . S
C391 O388 1.244 . S
C391 O389 1.240 1_556 S
H392 C366 0.931 . S
H393 C375 0.931 . S
H394 C379 0.929 . S
H395 C381 0.930 . S
Co396 N400 2.148 . S
Co396 N406 2.128 . S
Co396 N416 2.194 . S
Co396 O421 2.351 . S
Co396 O422 2.155 1_554 S
Co396 O423 2.096 . S
C397 N400 1.301 . S
C397 N401 1.328 . S
C397 H402 0.930 . S
C398 C399 1.333 . S
C398 N400 1.317 . S
C398 H403 0.930 . S
C399 C398 1.333 . S
C399 N401 1.350 . S
C399 H425 0.931 . S
N400 Co396 2.148 . S
N400 C397 1.301 . S
N400 C398 1.317 . S
N401 C397 1.328 . S
N401 C399 1.350 . S
H402 C397 0.930 . S
H403 C398 0.930 . S
C404 O405 1.224 . S
C404 O423 1.247 . S
O405 C404 1.224 . S
N406 Co396 2.128 . S
N406 C407 1.355 . S
N406 C409 1.311 . S
C407 N406 1.355 . S
C407 C408 1.363 . S
C407 H419 0.929 . S
C408 C407 1.363 . S
C408 N410 1.375 . S
C408 H426 0.931 . S
C409 N406 1.311 . S
C409 N410 1.347 . S
C409 H420 0.929 . S
N410 C408 1.375 . S
N410 C409 1.347 . S
C411 C414 1.365 . S
C411 N416 1.328 . S
C411 H417 0.929 . S
C412 C413 1.362 . S
C412 C415 1.378 . S
C412 H427 0.929 . S
C413 C412 1.362 . S
C413 C414 1.366 . S
C414 C411 1.365 . S
C414 C413 1.366 . S
C414 H428 0.930 . S
C415 C412 1.378 . S
C415 N416 1.315 . S
C415 H418 0.930 . S
N416 Co396 2.194 . S
N416 C411 1.328 . S
N416 C415 1.315 . S
H417 C411 0.929 . S
H418 C415 0.930 . S
H419 C407 0.929 . S
H420 C409 0.929 . S
O421 Co396 2.351 . S
O421 C424 1.244 . S
O422 Co396 2.155 1_556 S
O422 C424 1.240 1_556 S
O423 Co396 2.096 . S
O423 C404 1.247 . S
C424 O421 1.244 . S
C424 O422 1.240 1_554 S
H425 C399 0.931 . S
H426 C408 0.931 . S
H427 C412 0.929 . S
H428 C414 0.930 . S
Co429 N433 2.148 . S
Co429 N439 2.128 . S
Co429 N449 2.194 . S
Co429 O454 2.351 . S
Co429 O455 2.155 1_554 S
Co429 O456 2.096 . S
C430 N433 1.301 . S
C430 N434 1.328 . S
C430 H435 0.930 . S
C431 C432 1.333 . S
C431 N433 1.317 . S
C431 H436 0.930 . S
C432 C431 1.333 . S
C432 N434 1.350 . S
C432 H458 0.931 . S
N433 Co429 2.148 . S
N433 C430 1.301 . S
N433 C431 1.317 . S
N434 C430 1.328 . S
N434 C432 1.350 . S
H435 C430 0.930 . S
H436 C431 0.930 . S
C437 O438 1.224 . S
C437 O456 1.247 . S
O438 C437 1.224 . S
N439 Co429 2.128 . S
N439 C440 1.355 . S
N439 C442 1.311 . S
C440 N439 1.355 . S
C440 C441 1.363 . S
C440 H452 0.929 . S
C441 C440 1.363 . S
C441 N443 1.375 . S
C441 H459 0.931 . S
C442 N439 1.311 . S
C442 N443 1.347 . S
C442 H453 0.929 . S
N443 C441 1.375 . S
N443 C442 1.347 . S
C444 C447 1.365 . S
C444 N449 1.328 . S
C444 H450 0.929 . S
C445 C446 1.362 . S
C445 C448 1.378 . S
C445 H460 0.929 . S
C446 C445 1.362 . S
C446 C447 1.366 . S
C447 C444 1.365 . S
C447 C446 1.366 . S
C447 H461 0.930 . S
C448 C445 1.378 . S
C448 N449 1.315 . S
C448 H451 0.930 . S
N449 Co429 2.194 . S
N449 C444 1.328 . S
N449 C448 1.315 . S
H450 C444 0.929 . S
H451 C448 0.930 . S
H452 C440 0.929 . S
H453 C442 0.929 . S
O454 Co429 2.351 . S
O454 C457 1.244 . S
O455 Co429 2.155 1_556 S
O455 C457 1.240 1_556 S
O456 Co429 2.096 . S
O456 C437 1.247 . S
C457 O454 1.244 . S
C457 O455 1.240 1_554 S
H458 C432 0.931 . S
H459 C441 0.931 . S
H460 C445 0.929 . S
H461 C447 0.930 . S
Co462 N466 2.148 . S
Co462 N472 2.128 . S
Co462 N482 2.194 . S
Co462 O487 2.351 . S
Co462 O488 2.155 1_554 S
Co462 O489 2.096 . S
C463 N466 1.301 . S
C463 N467 1.328 . S
C463 H468 0.930 . S
C464 C465 1.333 . S
C464 N466 1.317 . S
C464 H469 0.930 . S
C465 C464 1.333 . S
C465 N467 1.350 . S
C465 H491 0.931 . S
N466 Co462 2.148 . S
N466 C463 1.301 . S
N466 C464 1.317 . S
N467 C463 1.328 . S
N467 C465 1.350 . S
H468 C463 0.930 . S
H469 C464 0.930 . S
C470 O471 1.224 . S
C470 O489 1.247 . S
O471 C470 1.224 . S
N472 Co462 2.128 . S
N472 C473 1.355 . S
N472 C475 1.311 . S
C473 N472 1.355 . S
C473 C474 1.363 . S
C473 H485 0.929 . S
C474 C473 1.363 . S
C474 N476 1.375 . S
C474 H492 0.931 . S
C475 N472 1.311 . S
C475 N476 1.347 . S
C475 H486 0.929 . S
N476 C474 1.375 . S
N476 C475 1.347 . S
C477 C480 1.365 . S
C477 N482 1.328 . S
C477 H483 0.929 . S
C478 C479 1.362 . S
C478 C481 1.378 . S
C478 H493 0.929 . S
C479 C478 1.362 . S
C479 C480 1.366 . S
C480 C477 1.365 . S
C480 C479 1.366 . S
C480 H494 0.930 . S
C481 C478 1.378 . S
C481 N482 1.315 . S
C481 H484 0.930 . S
N482 Co462 2.194 . S
N482 C477 1.328 . S
N482 C481 1.315 . S
H483 C477 0.929 . S
H484 C481 0.930 . S
H485 C473 0.929 . S
H486 C475 0.929 . S
O487 Co462 2.351 . S
O487 C490 1.244 . S
O488 Co462 2.155 1_556 S
O488 C490 1.240 1_556 S
O489 Co462 2.096 . S
O489 C470 1.247 . S
C490 O487 1.244 . S
C490 O488 1.240 1_554 S
H491 C465 0.931 . S
H492 C474 0.931 . S
H493 C478 0.929 . S
H494 C480 0.930 . S
Co495 N499 2.148 . S
Co495 N505 2.128 . S
Co495 N515 2.194 . S
Co495 O520 2.351 . S
Co495 O521 2.155 1_554 S
Co495 O522 2.096 . S
C496 N499 1.301 . S
C496 N500 1.328 . S
C496 H501 0.930 . S
C497 C498 1.333 . S
C497 N499 1.317 . S
C497 H502 0.930 . S
C498 C497 1.333 . S
C498 N500 1.350 . S
C498 H524 0.931 . S
N499 Co495 2.148 . S
N499 C496 1.301 . S
N499 C497 1.317 . S
N500 C496 1.328 . S
N500 C498 1.350 . S
H501 C496 0.930 . S
H502 C497 0.930 . S
C503 O504 1.224 . S
C503 O522 1.247 . S
O504 C503 1.224 . S
N505 Co495 2.128 . S
N505 C506 1.355 . S
N505 C508 1.311 . S
C506 N505 1.355 . S
C506 C507 1.363 . S
C506 H518 0.929 . S
C507 C506 1.363 . S
C507 N509 1.375 . S
C507 H525 0.931 . S
C508 N505 1.311 . S
C508 N509 1.347 . S
C508 H519 0.929 . S
N509 C507 1.375 . S
N509 C508 1.347 . S
C510 C513 1.365 . S
C510 N515 1.328 . S
C510 H516 0.929 . S
C511 C512 1.362 . S
C511 C514 1.378 . S
C511 H526 0.929 . S
C512 C511 1.362 . S
C512 C513 1.366 . S
C513 C510 1.365 . S
C513 C512 1.366 . S
C513 H527 0.930 . S
C514 C511 1.378 . S
C514 N515 1.315 . S
C514 H517 0.930 . S
N515 Co495 2.194 . S
N515 C510 1.328 . S
N515 C514 1.315 . S
H516 C510 0.929 . S
H517 C514 0.930 . S
H518 C506 0.929 . S
H519 C508 0.929 . S
O520 Co495 2.351 . S
O520 C523 1.244 . S
O521 Co495 2.155 1_556 S
O521 C523 1.240 1_556 S
O522 Co495 2.096 . S
O522 C503 1.247 . S
C523 O520 1.244 . S
C523 O521 1.240 1_554 S
H524 C498 0.931 . S
H525 C507 0.931 . S
H526 C511 0.929 . S
H527 C513 0.930 . S
C8 N104 2.439 1_545 S
N5 C41 2.439 1_455 S
C74 N38 2.438 1_565 S
N71 C107 2.439 1_655 S
N170 C140 2.439 1_545 S
N203 C173 2.438 1_655 S
N236 C206 2.439 1_565 S
C239 N137 2.439 1_655 S
C272 N368 2.438 . S
C305 N269 2.439 . S
C338 N302 2.439 . S
N335 C371 2.439 . S
N434 C404 2.439 . S
C437 N467 2.439 . S
C470 N500 2.439 . S
C503 N401 2.438 . S
C28 C193 1.021 . S
C61 C226 1.021 . S
C259 C94 1.021 . S
C127 C160 1.021 . S
C292 C457 1.021 1_556 S
C325 C490 1.021 1_556 S
C358 C523 1.021 1_556 S
C391 C424 1.021 1_556 S
C17 C512 2.240 . S
C413 C50 2.240 . S
C83 C446 2.240 . S
C116 C479 2.240 . S
C314 C149 2.240 . S
C347 C182 2.240 . S
C380 C215 2.240 . S
C281 C248 2.240 . S
N14 N146 1.633 1_545 S
N47 N179 1.633 1_655 S
N80 N212 1.633 1_565 S
N245 N113 1.633 1_655 S
N278 N410 1.633 1_556 S
N311 N443 1.633 1_556 S
N476 N344 1.633 1_554 S
N377 N509 1.633 1_556 S
