# Generated by pormake.
# Topology sxt, (3)-cn, num edge types: 1
# Building blocks:
#     Node 0, Type 0, BuildingBlock: OLANEW_clean_sbu_2, # of connection points: 3
#     Node 1, Type 0, BuildingBlock: OLANEW_clean_sbu_2, # of connection points: 3
#     Node 2, Type 0, BuildingBlock: OLANEW_clean_sbu_2, # of connection points: 3
#     Node 3, Type 0, BuildingBlock: OLANEW_clean_sbu_2, # of connection points: 3
#     Node 4, Type 0, BuildingBlock: OLANEW_clean_sbu_2, # of connection points: 3
#     Node 5, Type 0, BuildingBlock: OLANEW_clean_sbu_2, # of connection points: 3
#     Node 6, Type 0, BuildingBlock: OLANEW_clean_sbu_2, # of connection points: 3
#     Node 7, Type 0, BuildingBlock: OLANEW_clean_sbu_2, # of connection points: 3
#     Node 8, Type 0, BuildingBlock: OLANEW_clean_sbu_2, # of connection points: 3
#     Node 9, Type 0, BuildingBlock: OLANEW_clean_sbu_2, # of connection points: 3
#     Node 10, Type 0, BuildingBlock: OLANEW_clean_sbu_2, # of connection points: 3
#     Node 11, Type 0, BuildingBlock: OLANEW_clean_sbu_2, # of connection points: 3
#     Node 12, Type 0, BuildingBlock: OLANEW_clean_sbu_2, # of connection points: 3
#     Node 13, Type 0, BuildingBlock: OLANEW_clean_sbu_2, # of connection points: 3
#     Node 14, Type 0, BuildingBlock: OLANEW_clean_sbu_2, # of connection points: 3
#     Node 15, Type 0, BuildingBlock: OLANEW_clean_sbu_2, # of connection points: 3
#     Node 16, Type 0, BuildingBlock: OLANEW_clean_sbu_2, # of connection points: 3
#     Node 17, Type 0, BuildingBlock: OLANEW_clean_sbu_2, # of connection points: 3
#     Node 18, Type 0, BuildingBlock: OLANEW_clean_sbu_2, # of connection points: 3
#     Node 19, Type 0, BuildingBlock: OLANEW_clean_sbu_2, # of connection points: 3
#     Node 20, Type 0, BuildingBlock: OLANEW_clean_sbu_2, # of connection points: 3
#     Node 21, Type 0, BuildingBlock: OLANEW_clean_sbu_2, # of connection points: 3
#     Node 22, Type 0, BuildingBlock: OLANEW_clean_sbu_2, # of connection points: 3
#     Node 23, Type 0, BuildingBlock: OLANEW_clean_sbu_2, # of connection points: 3
#     Edge 24, Type (0, 0), BuildingBlock: OJICUG_clean_linker_0, # of connection points: 2
#     Edge 25, Type (0, 0), BuildingBlock: OJICUG_clean_linker_0, # of connection points: 2
#     Edge 26, Type (0, 0), BuildingBlock: OJICUG_clean_linker_0, # of connection points: 2
#     Edge 27, Type (0, 0), BuildingBlock: OJICUG_clean_linker_0, # of connection points: 2
#     Edge 28, Type (0, 0), BuildingBlock: OJICUG_clean_linker_0, # of connection points: 2
#     Edge 29, Type (0, 0), BuildingBlock: OJICUG_clean_linker_0, # of connection points: 2
#     Edge 30, Type (0, 0), BuildingBlock: OJICUG_clean_linker_0, # of connection points: 2
#     Edge 31, Type (0, 0), BuildingBlock: OJICUG_clean_linker_0, # of connection points: 2
#     Edge 32, Type (0, 0), BuildingBlock: OJICUG_clean_linker_0, # of connection points: 2
#     Edge 33, Type (0, 0), BuildingBlock: OJICUG_clean_linker_0, # of connection points: 2
#     Edge 34, Type (0, 0), BuildingBlock: OJICUG_clean_linker_0, # of connection points: 2
#     Edge 35, Type (0, 0), BuildingBlock: OJICUG_clean_linker_0, # of connection points: 2
#     Edge 36, Type (0, 0), BuildingBlock: OJICUG_clean_linker_0, # of connection points: 2
#     Edge 37, Type (0, 0), BuildingBlock: OJICUG_clean_linker_0, # of connection points: 2
#     Edge 38, Type (0, 0), BuildingBlock: OJICUG_clean_linker_0, # of connection points: 2
#     Edge 39, Type (0, 0), BuildingBlock: OJICUG_clean_linker_0, # of connection points: 2
#     Edge 40, Type (0, 0), BuildingBlock: OJICUG_clean_linker_0, # of connection points: 2
#     Edge 41, Type (0, 0), BuildingBlock: OJICUG_clean_linker_0, # of connection points: 2
#     Edge 42, Type (0, 0), BuildingBlock: OJICUG_clean_linker_0, # of connection points: 2
#     Edge 43, Type (0, 0), BuildingBlock: OJICUG_clean_linker_0, # of connection points: 2
#     Edge 44, Type (0, 0), BuildingBlock: OJICUG_clean_linker_0, # of connection points: 2
#     Edge 45, Type (0, 0), BuildingBlock: OJICUG_clean_linker_0, # of connection points: 2
#     Edge 46, Type (0, 0), BuildingBlock: OJICUG_clean_linker_0, # of connection points: 2
#     Edge 47, Type (0, 0), BuildingBlock: OJICUG_clean_linker_0, # of connection points: 2
#     Edge 48, Type (0, 0), BuildingBlock: OJICUG_clean_linker_0, # of connection points: 2
#     Edge 49, Type (0, 0), BuildingBlock: OJICUG_clean_linker_0, # of connection points: 2
#     Edge 50, Type (0, 0), BuildingBlock: OJICUG_clean_linker_0, # of connection points: 2
#     Edge 51, Type (0, 0), BuildingBlock: OJICUG_clean_linker_0, # of connection points: 2
#     Edge 52, Type (0, 0), BuildingBlock: OJICUG_clean_linker_0, # of connection points: 2
#     Edge 53, Type (0, 0), BuildingBlock: OJICUG_clean_linker_0, # of connection points: 2
#     Edge 54, Type (0, 0), BuildingBlock: OJICUG_clean_linker_0, # of connection points: 2
#     Edge 55, Type (0, 0), BuildingBlock: OJICUG_clean_linker_0, # of connection points: 2
#     Edge 56, Type (0, 0), BuildingBlock: OJICUG_clean_linker_0, # of connection points: 2
#     Edge 57, Type (0, 0), BuildingBlock: OJICUG_clean_linker_0, # of connection points: 2
#     Edge 58, Type (0, 0), BuildingBlock: OJICUG_clean_linker_0, # of connection points: 2
#     Edge 59, Type (0, 0), BuildingBlock: OJICUG_clean_linker_0, # of connection points: 2
# Relax obj value: 0.064
# Max RMSD: 0.189
# Mean RMSD: 0.062
data_MOF--net-sxt--node1-OLANEW_clean_sbu_2--edge1-OJICUG_clean_linker_0
_symmetry_space_group_name_H-M    P1
_symmetry_Int_Tables_number       1
_symmetry_cell_setting            triclinic
loop_
_symmetry_equiv_pos_as_xyz
'x, y, z'
_cell_length_a     26.688028
_cell_length_b     52.567611
_cell_length_c     40.980618
_cell_angle_alpha  89.471902
_cell_angle_beta   89.47419
_cell_angle_gamma 87.884842
loop_
_atom_site_label
_atom_site_type_symbol
_atom_site_fract_x
_atom_site_fract_y
_atom_site_fract_z
_atom_type_partial_charge
O0 O 0.1059 0.46943 0.32211 0.0
Cd1 Cd 0.11499 0.43463 0.36162 0.0
O2 O 0.17975 0.45799 0.30232 0.0
Cd3 Cd 0.24548 0.46311 0.27122 0.0
O4 O 0.30821 0.46997 0.23836 0.0
C5 C 0.33713 0.48817 0.24341 0.0
O6 O 0.32905 0.50271 0.26896 0.0
C7 C 0.14106 0.47285 0.30163 0.0
C8 C 0.02603 0.40968 0.37291 0.0
O9 O 0.03654 0.42951 0.38908 0.0
O10 O 0.05743 0.40176 0.35108 0.0
O11 O 0.2987 0.05086 0.2957 0.0
Cd12 Cd 0.34703 0.0712 0.33784 0.0
O13 O 0.32388 0.08047 0.26196 0.0
Cd14 Cd 0.32948 0.09711 0.21312 0.0
O15 O 0.32222 0.10847 0.16211 0.0
C16 C 0.29049 0.12599 0.15414 0.0
O17 O 0.26334 0.13728 0.17708 0.0
C18 C 0.29856 0.06081 0.26733 0.0
C19 C 0.42884 0.04083 0.35823 0.0
O20 O 0.38747 0.04115 0.37438 0.0
O21 O 0.43138 0.05478 0.3325 0.0
O22 O 0.10035 0.57725 0.21791 0.0
Cd23 Cd 0.09064 0.6151 0.18303 0.0
O24 O 0.12232 0.55127 0.17815 0.0
Cd25 Cd 0.09237 0.57812 0.14163 0.0
O26 O 0.02642 0.58686 0.11171 0.0
C27 C 0.98545 0.57978 0.12432 0.0
O28 O 0.98637 0.56961 0.15374 0.0
C29 C 0.11626 0.55542 0.20846 0.0
C30 C 0.11171 0.65747 0.22039 0.0
O31 O 0.06673 0.65012 0.21737 0.0
O32 O 0.14673 0.64518 0.20496 0.0
O33 O 0.1727 0.0255 0.14028 0.0
Cd34 Cd 0.1117 0.00699 0.10431 0.0
O35 O 0.1485 0.99855 0.17796 0.0
Cd36 Cd 0.14733 0.98738 0.22942 0.0
O37 O 0.16302 0.99741 0.27968 0.0
C38 C 0.162 0.02117 0.28527 0.0
O39 O 0.14941 0.03707 0.26156 0.0
C40 C 0.17645 0.01649 0.16905 0.0
C41 C 0.14178 0.95736 0.08841 0.0
O42 O 0.15259 0.9761 0.06973 0.0
O43 O 0.11625 0.96209 0.11443 0.0
O44 O 0.92081 0.54931 0.8564 0.0
Cd45 Cd 0.97333 0.55908 0.9028 0.0
O46 O 0.96992 0.57316 0.82711 0.0
Cd47 Cd 0.99929 0.58793 0.78086 0.0
O48 O 0.9953 0.59919 0.72953 0.0
C49 C 0.96745 0.61838 0.72175 0.0
O50 O 0.94461 0.63155 0.74498 0.0
C51 C 0.93251 0.55882 0.82889 0.0
C52 C 0.06957 0.53719 0.89457 0.0
O53 O 0.03527 0.52525 0.90974 0.0
O54 O 0.05845 0.55956 0.88351 0.0
O55 O 0.82486 0.07 0.76115 0.0
Cd56 Cd 0.81896 0.11473 0.74372 0.0
O57 O 0.78637 0.06 0.71638 0.0
Cd58 Cd 0.75543 0.03622 0.67816 0.0
O59 O 0.70761 0.024 0.63851 0.0
C60 C 0.67831 0.00562 0.64202 0.0
O61 O 0.67874 0.9927 0.66963 0.0
C62 C 0.80716 0.05306 0.74302 0.0
C63 C 0.76943 0.14711 0.78813 0.0
O64 O 0.74527 0.13517 0.76653 0.0
O65 O 0.81717 0.1435 0.78907 0.0
O66 O 0.89184 0.52612 0.68386 0.0
Cd67 Cd 0.88134 0.50377 0.63277 0.0
O68 O 0.82284 0.5095 0.70249 0.0
Cd69 Cd 0.76481 0.5066 0.74003 0.0
O70 O 0.70051 0.51598 0.77145 0.0
C71 C 0.68975 0.53948 0.77565 0.0
O72 O 0.71797 0.55641 0.76151 0.0
C73 C 0.86058 0.52305 0.70698 0.0
C74 C 0.93501 0.45731 0.63612 0.0
O75 O 0.95494 0.47711 0.62389 0.0
O76 O 0.88947 0.45943 0.64622 0.0
O77 O 0.86162 0.93895 0.79971 0.0
Cd78 Cd 0.89323 0.89481 0.80493 0.0
O79 O 0.83362 0.93029 0.75108 0.0
Cd80 Cd 0.80936 0.94215 0.70226 0.0
O81 O 0.80868 0.95914 0.65352 0.0
C82 C 0.82684 0.98101 0.64999 0.0
O83 O 0.843 0.9927 0.67586 0.0
C84 C 0.84057 0.94638 0.77343 0.0
C85 C 0.84513 0.86593 0.85227 0.0
O86 O 0.88189 0.87972 0.85973 0.0
O87 O 0.83062 0.86617 0.82253 0.0
O88 O 0.08433 0.07946 0.54888 0.0
Cd89 Cd 0.00956 0.10441 0.53176 0.0
O90 O 0.1193 0.09752 0.50666 0.0
Cd91 Cd 0.17348 0.09778 0.46662 0.0
O92 O 0.1922 0.0847 0.41779 0.0
C93 C 0.19539 0.06079 0.41349 0.0
O94 O 0.19194 0.04558 0.43898 0.0
C95 C 0.12193 0.08139 0.52991 0.0
C96 C 0.96564 0.13876 0.57581 0.0
O97 O 0.95522 0.11514 0.57662 0.0
O98 O 0.99829 0.14598 0.55488 0.0
O99 O 0.83073 0.30268 0.49067 0.0
Cd100 Cd 0.78863 0.31915 0.44189 0.0
O101 O 0.87749 0.2794 0.45757 0.0
Cd102 Cd 0.93652 0.25128 0.44494 0.0
O103 O 0.98265 0.21821 0.43062 0.0
C104 C 0.99338 0.20081 0.45138 0.0
O105 O 0.97797 0.20362 0.48173 0.0
C106 C 0.86785 0.28722 0.4863 0.0
C107 C 0.8567 0.35098 0.41183 0.0
O108 O 0.82481 0.35959 0.43294 0.0
O109 O 0.85491 0.32751 0.40385 0.0
O110 O 0.76195 0.97992 0.41659 0.0
Cd111 Cd 0.68843 0.95358 0.42059 0.0
O112 O 0.78306 0.96518 0.36807 0.0
Cd113 Cd 0.72984 0.9349 0.3712 0.0
O114 O 0.73063 0.89619 0.39045 0.0
C115 C 0.76003 0.89268 0.41443 0.0
O116 O 0.78339 0.91228 0.42578 0.0
C117 C 0.79052 0.98019 0.39156 0.0
C118 C 0.60234 0.98078 0.40058 0.0
O119 O 0.61326 0.97878 0.43092 0.0
O120 O 0.63188 0.96977 0.37984 0.0
O121 O 0.10319 0.77583 0.40796 0.0
Cd122 Cd 0.17113 0.79541 0.37715 0.0
O123 O 0.15316 0.74291 0.41978 0.0
Cd124 Cd 0.20226 0.74995 0.37811 0.0
O125 O 0.19872 0.73292 0.3298 0.0
C126 C 0.15431 0.73058 0.31954 0.0
O127 O 0.11683 0.74021 0.33704 0.0
C128 C 0.11164 0.7552 0.42377 0.0
C129 C 0.21617 0.83358 0.41246 0.0
O130 O 0.18276 0.83914 0.39102 0.0
O131 O 0.22827 0.81004 0.41727 0.0
O132 O 0.28272 0.98536 0.53171 0.0
Cd133 Cd 0.34755 0.95211 0.522 0.0
O134 O 0.33507 0.01682 0.53101 0.0
Cd135 Cd 0.40386 0.9931 0.53636 0.0
O136 O 0.47574 0.98526 0.56073 0.0
C137 C 0.51346 0.99813 0.55275 0.0
O138 O 0.50922 0.01446 0.52837 0.0
C139 C 0.29045 0.0091 0.5319 0.0
C140 C 0.30761 0.91276 0.48599 0.0
O141 O 0.31184 0.91093 0.51706 0.0
O142 O 0.32281 0.93296 0.47191 0.0
O143 O 0.04104 0.29352 0.58899 0.0
Cd144 Cd 0.08583 0.31116 0.63445 0.0
O145 O 0.99105 0.27498 0.62376 0.0
Cd146 Cd 0.92622 0.2535 0.63915 0.0
O147 O 0.85647 0.23342 0.65698 0.0
C148 C 0.84807 0.20965 0.65458 0.0
O149 O 0.85509 0.23392 0.65753 0.0
C150 C 0.00184 0.28111 0.59449 0.0
C151 C 0.04331 0.36007 0.64129 0.0
O152 O 0.08297 0.35612 0.62392 0.0
O153 O 0.02526 0.34108 0.65665 0.0
O154 O 0.00292 0.03593 0.37256 0.0
Cd155 Cd 0.08396 0.0545 0.3809 0.0
O156 O 0.98769 0.04403 0.42404 0.0
Cd157 Cd 0.94851 0.04099 0.47103 0.0
O158 O 0.91413 0.03335 0.51846 0.0
C159 C 0.8819 0.01625 0.52134 0.0
O160 O 0.86886 0.0038 0.49527 0.0
C161 C 0.97333 0.0352 0.397 0.0
C162 C 0.06813 0.10319 0.40555 0.0
O163 O 0.07315 0.09947 0.3748 0.0
O164 O 0.07207 0.08386 0.42476 0.0
O165 O 0.96545 0.67842 0.49716 0.0
Cd166 Cd 0.9016 0.652 0.52141 0.0
O167 O 0.91191 0.71094 0.49734 0.0
Cd168 Cd 0.88449 0.75029 0.49064 0.0
O169 O 0.8553 0.78844 0.47859 0.0
C170 C 0.81972 0.79143 0.45835 0.0
O171 O 0.8007 0.77126 0.44522 0.0
C172 C 0.95563 0.70176 0.49082 0.0
C173 C 0.92372 0.64127 0.58646 0.0
O174 O 0.94027 0.62665 0.56362 0.0
O175 O 0.89635 0.66086 0.5785 0.0
O176 O 0.33041 0.19353 0.93713 0.0
Cd177 Cd 0.25723 0.1699 0.95344 0.0
O178 O 0.30265 0.22586 0.96659 0.0
Cd179 Cd 0.30988 0.26565 0.97933 0.0
O180 O 0.32864 0.30455 0.96737 0.0
C181 C 0.34012 0.30893 0.93772 0.0
O182 O 0.33969 0.29015 0.9168 0.0
C183 C 0.33603 0.21578 0.94801 0.0
C184 C 0.26565 0.15506 0.01864 0.0
O185 O 0.28414 0.14105 0.99576 0.0
O186 O 0.24255 0.17597 0.01063 0.0
O187 O 0.61539 0.79344 0.00291 0.0
Cd188 Cd 0.69914 0.77415 0.99557 0.0
O189 O 0.60679 0.7816 0.05417 0.0
Cd190 Cd 0.67076 0.75458 0.0524 0.0
O191 O 0.68462 0.7134 0.05583 0.0
C192 C 0.64637 0.70159 0.0654 0.0
O193 O 0.60498 0.71487 0.07227 0.0
C194 C 0.59024 0.79383 0.02939 0.0
C195 C 0.74999 0.80275 0.9492 0.0
O196 O 0.72269 0.78443 0.9407 0.0
O197 O 0.75415 0.8072 0.97974 0.0
O198 O 0.41964 0.48827 0.91293 0.0
Cd199 Cd 0.36643 0.47104 0.87087 0.0
O200 O 0.49214 0.47324 0.89404 0.0
Cd201 Cd 0.45304 0.44887 0.861 0.0
O202 O 0.41769 0.41252 0.86752 0.0
C203 C 0.40371 0.40822 0.89674 0.0
O204 O 0.40944 0.42593 0.91868 0.0
C205 C 0.46722 0.48652 0.91472 0.0
C206 C 0.26894 0.49179 0.87711 0.0
O207 O 0.28199 0.47088 0.89154 0.0
O208 O 0.30182 0.50271 0.85941 0.0
O209 O 0.53622 0.26725 0.88819 0.0
Cd210 Cd 0.62006 0.28085 0.87224 0.0
O211 O 0.55843 0.25726 0.93842 0.0
Cd212 Cd 0.63713 0.25644 0.92353 0.0
O213 O 0.6872 0.23289 0.89278 0.0
C214 C 0.66424 0.21746 0.87505 0.0
O215 O 0.61502 0.21757 0.87668 0.0
C216 C 0.52454 0.26011 0.91693 0.0
C217 C 0.63706 0.33216 0.88442 0.0
O218 O 0.61958 0.32512 0.85704 0.0
O219 O 0.64577 0.31499 0.90627 0.0
O220 O 0.47861 0.59085 0.01583 0.0
Cd221 Cd 0.39205 0.60153 0.03264 0.0
O222 O 0.45803 0.60124 0.96558 0.0
Cd223 Cd 0.47549 0.60359 0.91323 0.0
O224 O 0.52396 0.59413 0.87147 0.0
C225 C 0.52452 0.5719 0.85945 0.0
O226 O 0.49242 0.55544 0.87048 0.0
C227 C 0.4902 0.59215 0.98574 0.0
C228 C 0.35609 0.6499 0.01411 0.0
O229 O 0.37429 0.6457 0.04258 0.0
O230 O 0.35559 0.63129 0.99415 0.0
O231 O 0.35285 0.8099 0.0479 0.0
Cd232 Cd 0.2615 0.80786 0.04672 0.0
O233 O 0.35972 0.82222 0.99668 0.0
Cd234 Cd 0.285 0.8086 0.98843 0.0
O235 O 0.27739 0.76813 0.99833 0.0
C236 C 0.29334 0.75224 0.97712 0.0
O237 O 0.3077 0.76069 0.94837 0.0
C238 C 0.37978 0.81762 0.02426 0.0
C239 C 0.21766 0.85564 0.05944 0.0
O240 O 0.22467 0.83922 0.08242 0.0
O241 O 0.23079 0.8493 0.03038 0.0
O242 O 0.60642 0.52091 0.03584 0.0
Cd243 Cd 0.6456 0.53883 0.08366 0.0
O244 O 0.53132 0.53415 0.0524 0.0
Cd245 Cd 0.55022 0.54156 0.10283 0.0
O246 O 0.51181 0.53256 0.14833 0.0
C247 C 0.48669 0.51255 0.14645 0.0
O248 O 0.48919 0.49943 0.1193 0.0
C249 C 0.55969 0.52407 0.03069 0.0
C250 C 0.64761 0.59182 0.07786 0.0
O251 O 0.68427 0.57766 0.06738 0.0
O252 O 0.61039 0.58094 0.09123 0.0
O253 O 0.66145 0.51686 0.92713 0.0
Cd254 Cd 0.72746 0.48552 0.91202 0.0
O255 O 0.71358 0.53882 0.95535 0.0
Cd256 Cd 0.74557 0.56782 0.98615 0.0
O257 O 0.80371 0.58177 0.018 0.0
C258 C 0.8094 0.5704 0.04528 0.0
O259 O 0.77916 0.55209 0.05309 0.0
C260 C 0.6693 0.53587 0.94515 0.0
C261 C 0.69219 0.43642 0.9044 0.0
O262 O 0.70829 0.44378 0.93201 0.0
O263 O 0.69227 0.45235 0.88053 0.0
C264 C 0.155 0.49146 0.24591 0.0
C265 C 0.13705 0.4942 0.27805 0.0
H266 H 0.16251 0.50866 0.19859 0.0
C267 C 0.11336 0.51732 0.28732 0.0
H268 H 0.17218 0.4736 0.23787 0.0
C269 C 0.10788 0.53741 0.26494 0.0
C270 C 0.12519 0.53464 0.2326 0.0
H271 H 0.09907 0.51989 0.31195 0.0
H272 H 0.08912 0.55494 0.27284 0.0
C273 C 0.149 0.51146 0.22335 0.0
C274 C 0.24337 0.06506 0.21836 0.0
C275 C 0.26969 0.04949 0.24094 0.0
H276 H 0.19352 0.0667 0.17755 0.0
C277 C 0.26695 0.02295 0.23874 0.0
H278 H 0.24363 0.08559 0.22008 0.0
C279 C 0.23789 0.01219 0.21463 0.0
C280 C 0.21052 0.02778 0.19261 0.0
H281 H 0.28703 0.01054 0.25578 0.0
H282 H 0.23642 0.99166 0.2134 0.0
C283 C 0.21441 0.05428 0.19419 0.0
C284 C 0.86871 0.51823 0.76718 0.0
C285 C 0.8702 0.53382 0.73922 0.0
H286 H 0.88815 0.51389 0.8176 0.0
C287 C 0.88625 0.5588 0.74191 0.0
H288 H 0.85654 0.49885 0.76561 0.0
C289 C 0.90276 0.56765 0.77187 0.0
C290 C 0.90612 0.55127 0.79909 0.0
H291 H 0.88677 0.57131 0.72076 0.0
H292 H 0.91364 0.58717 0.77357 0.0
C293 C 0.88684 0.52683 0.79687 0.0
C294 C 0.85358 0.0177 0.77219 0.0
C295 C 0.81331 0.02587 0.75234 0.0
H296 H 0.89368 0.98609 0.79435 0.0
C297 C 0.77965 0.00785 0.74166 0.0
H298 H 0.87986 0.03117 0.78113 0.0
C299 C 0.78768 0.98202 0.74919 0.0
C300 C 0.82935 0.97377 0.76767 0.0
H301 H 0.74686 0.01366 0.7278 0.0
H302 H 0.76114 0.96853 0.74068 0.0
C303 C 0.86147 0.99191 0.77982 0.0
C304 C 0.15851 0.03778 0.54121 0.0
C305 C 0.16542 0.0633 0.53244 0.0
H306 H 0.19246 0.00049 0.5474 0.0
C307 C 0.21386 0.07108 0.52466 0.0
H308 H 0.12147 0.03128 0.54725 0.0
C309 C 0.25456 0.05356 0.52496 0.0
C310 C 0.24754 0.02781 0.53275 0.0
H311 H 0.22033 0.09075 0.51837 0.0
H312 H 0.29139 0.06013 0.51856 0.0
C313 C 0.19909 0.02014 0.54107 0.0
C314 C 0.88233 0.28065 0.54599 0.0
C315 C 0.90118 0.28039 0.51388 0.0
H316 H 0.89938 0.28127 0.59675 0.0
C317 C 0.95315 0.27719 0.50879 0.0
H318 H 0.84249 0.28347 0.55063 0.0
C319 C 0.98574 0.27541 0.53525 0.0
C320 C 0.96709 0.27692 0.56736 0.0
H321 H 0.96916 0.27805 0.48449 0.0
H322 H 0.02578 0.27431 0.53055 0.0
C323 C 0.91496 0.27894 0.57248 0.0
C324 C 0.83993 0.01576 0.41363 0.0
C325 C 0.83501 0.99614 0.39096 0.0
H326 H 0.88629 0.04455 0.43203 0.0
C327 C 0.87459 0.99074 0.36893 0.0
H328 H 0.80974 0.02067 0.43053 0.0
C329 C 0.91906 0.00382 0.3706 0.0
C330 C 0.92486 0.02267 0.3942 0.0
H331 H 0.87199 0.97577 0.35111 0.0
H332 H 0.94947 0.99864 0.35397 0.0
C333 C 0.88421 0.02911 0.41493 0.0
C334 C 0.0837 0.72352 0.46533 0.0
C335 C 0.07184 0.74389 0.44401 0.0
H336 H 0.05621 0.69458 0.49707 0.0
C337 C 0.02122 0.75146 0.43976 0.0
H338 H 0.12232 0.7172 0.46915 0.0
C339 C 0.9832 0.7382 0.45544 0.0
C340 C 0.9951 0.71744 0.47616 0.0
H341 H 0.01082 0.76681 0.42305 0.0
H342 H 0.94468 0.74343 0.44987 0.0
C343 C 0.04579 0.71049 0.48124 0.0
C344 C 0.40862 0.24142 0.96381 0.0
C345 C 0.38138 0.22961 0.9394 0.0
H346 H 0.47579 0.26032 0.97584 0.0
C347 C 0.39956 0.22973 0.9072 0.0
H348 H 0.39553 0.24128 0.98891 0.0
C349 C 0.44473 0.24117 0.89957 0.0
C350 C 0.47325 0.25193 0.92423 0.0
H351 H 0.37914 0.22071 0.88801 0.0
H352 H 0.45853 0.24043 0.87464 0.0
C353 C 0.45448 0.25223 0.95636 0.0
C354 C 0.46576 0.82145 0.0001 0.0
C355 C 0.43499 0.81736 0.02753 0.0
H356 H 0.53935 0.8175 0.97925 0.0
C357 C 0.45745 0.80953 0.05704 0.0
H358 H 0.44974 0.8277 0.97706 0.0
C359 C 0.50885 0.80363 0.05829 0.0
C360 C 0.53885 0.80546 0.03006 0.0
H361 H 0.43493 0.80646 0.07875 0.0
H362 H 0.52442 0.79621 0.08092 0.0
C363 C 0.5172 0.81557 0.00135 0.0
C364 C 0.5654 0.5004 0.97774 0.0
C365 C 0.53744 0.51555 -7e-05 0.0
H366 H 0.56549 0.47973 0.93294 0.0
C367 C 0.48712 0.52208 0.99292 0.0
H368 H 0.60419 0.49496 0.98253 0.0
C369 C 0.46503 0.51344 0.9646 0.0
C370 C 0.49261 0.49793 0.94266 0.0
H371 H 0.46453 0.53382 0.0094 0.0
H372 H 0.42598 0.51859 0.96024 0.0
C373 C 0.54326 0.49176 0.94928 0.0
C374 C 0.58285 0.55321 0.93523 0.0
C375 C 0.62648 0.55328 0.95412 0.0
H376 H 0.50528 0.56383 0.93191 0.0
C377 C 0.62605 0.56787 0.98277 0.0
H378 H 0.58146 0.54185 0.91335 0.0
C379 C 0.58227 0.58143 0.99266 0.0
C380 C 0.5384 0.58065 0.97402 0.0
H381 H 0.65836 0.56776 -0.00154 0.0
H382 H 0.58223 0.59187 0.01533 0.0
C383 C 0.53931 0.56635 0.94536 0.0
C384 C 0.19177 0.024 0.37533 0.0
C385 C 0.19391 0.05038 0.38013 0.0
H386 H 0.17986 0.99401 0.34156 0.0
C387 C 0.18905 0.06686 0.35306 0.0
H388 H 0.19548 0.01079 0.39568 0.0
C389 C 0.17956 0.05726 0.32217 0.0
C390 C 0.17513 0.03098 0.31764 0.0
H391 H 0.1906 0.08728 0.35588 0.0
H392 H 0.17482 0.07053 0.30196 0.0
C393 C 0.18257 0.01438 0.34435 0.0
C394 C 0.94433 0.4056 0.40265 0.0
C395 C 0.98006 0.39572 0.3803 0.0
H396 H 0.87698 0.39939 0.42978 0.0
C397 C 0.97263 0.37183 0.36637 0.0
H398 H 0.94878 0.42403 0.41366 0.0
C399 C 0.9315 0.35763 0.37571 0.0
C400 C 0.89679 0.36713 0.399 0.0
H401 H 0.9994 0.36372 0.34899 0.0
H402 H 0.92766 0.33895 0.36531 0.0
C403 C 0.90305 0.3915 0.41182 0.0
C404 C 0.55368 0.00427 0.35725 0.0
C405 C 0.5574 0.99568 0.38973 0.0
H406 H 0.51038 0.02554 0.32196 0.0
C407 C 0.51815 0.00175 0.41173 0.0
H408 H 0.58341 -4e-05 0.33976 0.0
C409 C 0.4759 0.01606 0.40138 0.0
C410 C 0.47263 0.02501 0.36902 0.0
H411 H 0.51993 0.99532 0.4369 0.0
H412 H 0.44621 0.02047 0.41886 0.0
C413 C 0.51194 0.01898 0.34708 0.0
C414 C 0.08398 0.69223 0.25849 0.0
C415 C 0.12308 0.67844 0.24271 0.0
H416 H 0.06322 0.71972 0.29471 0.0
C417 C 0.17293 0.68371 0.25025 0.0
H418 H 0.04517 0.68877 0.2531 0.0
C419 C 0.18336 0.70148 0.27428 0.0
C420 C 0.14412 0.71437 0.29115 0.0
H421 H 0.20393 0.67347 0.23844 0.0
H422 H 0.2221 0.70445 0.28038 0.0
C423 C 0.09438 0.71002 0.28236 0.0
C424 C 0.6384 0.01544 0.58794 0.0
C425 C 0.63981 0.00108 0.61706 0.0
H426 H 0.5978 0.02558 0.54468 0.0
C427 C 0.60179 0.98378 0.62314 0.0
H428 H 0.6673 0.02878 0.58232 0.0
C429 C 0.5618 0.98195 0.60152 0.0
C430 C 0.55901 0.99735 0.5733 0.0
H431 H 0.60185 0.9723 0.64523 0.0
H432 H 0.5322 0.96912 0.60756 0.0
C433 C 0.5985 0.01358 0.56631 0.0
C434 C 0.96979 0.38854 0.65675 0.0
C435 C 0.01727 0.38542 0.64189 0.0
H436 H 0.90647 0.4136 0.66638 0.0
C437 C 0.03811 0.40636 0.62589 0.0
H438 H 0.95258 0.37277 0.66917 0.0
C439 C 0.01167 0.4298 0.62434 0.0
C440 C 0.96369 0.43274 0.63854 0.0
H441 H 0.0746 0.40457 0.61417 0.0
H442 H 0.02856 0.4455 0.61157 0.0
C443 C 0.94323 0.41192 0.655 0.0
C444 C 0.81995 0.9789 0.5891 0.0
C445 C 0.8355 0.99173 0.61699 0.0
H446 H 0.82212 0.97668 0.53699 0.0
C447 C 0.86266 0.01396 0.61298 0.0
H448 H 0.79861 0.96184 0.59135 0.0
C449 C 0.87634 0.02241 0.58184 0.0
C450 C 0.86289 0.00889 0.55401 0.0
H451 H 0.8749 0.02441 0.63394 0.0
H452 H 0.8986 0.03917 0.57967 0.0
C453 C 0.83343 0.98743 0.55793 0.0
C454 C 0.96686 0.61452 0.62945 0.0
C455 C 0.93583 0.6357 0.62101 0.0
H456 H 0.00146 0.59249 0.66783 0.0
C457 C 0.91638 0.65149 0.64592 0.0
H458 H 0.98253 0.602 0.61083 0.0
C459 C 0.92726 0.64606 0.67859 0.0
C460 C 0.95793 0.62475 0.68706 0.0
H461 H 0.89242 0.66799 0.64024 0.0
H462 H 0.91128 0.65849 0.6972 0.0
C463 C 0.97784 0.60911 0.66212 0.0
C464 C 0.35551 0.35466 0.94927 0.0
C465 C 0.35451 0.33459 0.92693 0.0
H466 H 0.37146 0.39366 0.95718 0.0
C467 C 0.36806 0.33917 0.89422 0.0
H468 H 0.34516 0.35178 0.97462 0.0
C469 C 0.38307 0.36322 0.88417 0.0
C470 C 0.38489 0.38317 0.90665 0.0
H471 H 0.36761 0.32411 0.87637 0.0
H472 H 0.39394 0.36606 0.85891 0.0
C473 C 0.37053 0.37869 0.93924 0.0
C474 C 0.64283 0.37738 0.86504 0.0
C475 C 0.64847 0.35915 0.89019 0.0
H476 H 0.65213 0.416 0.84978 0.0
C477 C 0.66673 0.36681 0.9205 0.0
H478 H 0.62882 0.37215 0.8414 0.0
C479 C 0.67998 0.39201 0.92534 0.0
C480 C 0.67547 0.41009 0.89993 0.0
H481 H 0.67141 0.35328 0.94042 0.0
H482 H 0.69456 0.39719 0.94884 0.0
C483 C 0.65626 0.40254 0.86983 0.0
C484 C 0.33047 0.68219 0.97151 0.0
C485 C 0.33655 0.67555 0.00457 0.0
H486 H 0.31198 0.71177 0.93685 0.0
C487 C 0.32462 0.69379 0.02851 0.0
H488 H 0.33926 0.66849 0.95252 0.0
C489 C 0.30808 0.71838 0.01957 0.0
C490 C 0.30399 0.72536 0.98648 0.0
H491 H 0.3285 0.68916 0.05419 0.0
H492 H 0.30033 0.73217 0.03862 0.0
C493 C 0.31478 0.70694 0.96254 0.0
C494 C 0.60549 0.63476 0.08387 0.0
C495 C 0.6479 0.61986 0.07458 0.0
H496 H 0.57182 0.67206 0.08824 0.0
C497 C 0.6902 0.63204 0.06218 0.0
H498 H 0.57223 0.626 0.0934 0.0
C499 C 0.69005 0.65862 0.05929 0.0
C500 C 0.64751 0.67348 0.06859 0.0
H501 H 0.72347 0.62106 0.05479 0.0
H502 H 0.72314 0.66748 0.04967 0.0
C503 C 0.60527 0.66123 0.08087 0.0
C504 C 0.57338 0.53781 0.82933 0.0
C505 C 0.5648 0.56374 0.83639 0.0
H506 H 0.61977 0.50976 0.80485 0.0
C507 C 0.59695 0.58161 0.82273 0.0
H508 H 0.54951 0.52353 0.83968 0.0
C509 C 0.63716 0.57372 0.80275 0.0
C510 C 0.64633 0.54776 0.79617 0.0
H511 H 0.59138 0.60173 0.82772 0.0
H512 H 0.66141 0.58799 0.79281 0.0
C513 C 0.61382 0.52989 0.80951 0.0
C514 C 0.83229 0.85211 0.91035 0.0
C515 C 0.82072 0.84986 0.87713 0.0
H516 H 0.81892 0.83904 0.9592 0.0
C517 C 0.78611 0.83184 0.86781 0.0
H518 H 0.85882 0.86581 0.91832 0.0
C519 C 0.76365 0.81633 0.89119 0.0
C520 C 0.77495 0.81868 0.92443 0.0
H521 H 0.77655 0.82956 0.8424 0.0
H522 H 0.73708 0.80265 0.8832 0.0
C523 C 0.80944 0.83676 0.93378 0.0
C524 C 0.18129 0.4906 0.89955 0.0
C525 C 0.21769 0.50321 0.88116 0.0
H526 H 0.10603 0.49139 0.91817 0.0
C527 C 0.20486 0.52702 0.86706 0.0
H528 H 0.18994 0.47223 0.91074 0.0
C529 C 0.15681 0.53806 0.87144 0.0
C530 C 0.12045 0.52548 0.8899 0.0
H531 H 0.23203 0.53726 0.85278 0.0
H532 H 0.1482 0.55645 0.86031 0.0
C533 C 0.13317 0.50159 0.90382 0.0
C534 C 0.76973 0.1802 0.83202 0.0
C535 C 0.74292 0.16486 0.81088 0.0
H536 H 0.76603 0.20901 0.86878 0.0
C537 C 0.6903 0.16693 0.81122 0.0
H538 H 0.81033 0.17909 0.8323 0.0
C539 C 0.66502 0.18396 0.83212 0.0
C540 C 0.69171 0.19946 0.85308 0.0
H541 H 0.66848 0.15538 0.7953 0.0
H542 H 0.62442 0.18503 0.83167 0.0
C543 C 0.74438 0.19739 0.85285 0.0
C544 C 0.89617 0.56821 0.11767 0.0
C545 C 0.93861 0.58016 0.10516 0.0
H546 H 0.82218 0.55587 0.10861 0.0
C547 C 0.93656 0.59089 0.07362 0.0
H548 H 0.89629 0.55986 0.14193 0.0
C549 C 0.89365 0.58877 0.05454 0.0
C550 C 0.85226 0.57564 0.06654 0.0
H551 H 0.96854 0.60033 0.06334 0.0
H552 H 0.89369 0.59654 0.02996 0.0
C553 C 0.85362 0.56588 0.09854 0.0
C554 C 0.19817 0.9008 0.04266 0.0
C555 C 0.19624 0.88138 0.06638 0.0
H556 H 0.18275 0.94009 0.03108 0.0
C557 C 0.17489 0.88697 0.09707 0.0
H558 H 0.21447 0.8971 0.01878 0.0
C559 C 0.15631 0.91155 0.10401 0.0
C560 C 0.15923 0.9311 0.08053 0.0
H561 H 0.17273 0.87239 0.11583 0.0
H562 H 0.14047 0.91531 0.12799 0.0
C563 C 0.18013 0.92545 0.04972 0.0
C564 C 0.40781 0.51475 0.22388 0.0
C565 C 0.37788 0.49355 0.2199 0.0
H566 H 0.46599 0.53737 0.20387 0.0
C567 C 0.3862 0.47792 0.19262 0.0
H568 H 0.40246 0.52713 0.2447 0.0
C569 C 0.42259 0.48374 0.16935 0.0
C570 C 0.4515 0.50535 0.17276 0.0
H571 H 0.36402 0.46136 0.18889 0.0
H572 H 0.4273 0.47153 0.14831 0.0
C573 C 0.44428 0.5206 0.20052 0.0
C574 C 0.24708 0.16162 0.07809 0.0
C575 C 0.27143 0.14747 0.05329 0.0
H576 H 0.23382 0.1659 0.12937 0.0
C577 C 0.30196 0.12615 0.06192 0.0
H578 H 0.22327 0.17814 0.07223 0.0
C579 C 0.30828 0.11924 0.09467 0.0
C580 C 0.28393 0.13339 0.11948 0.0
H581 H 0.32134 0.11488 0.0434 0.0
H582 H 0.33216 0.10275 0.1005 0.0
C583 C 0.25311 0.1546 0.11084 0.0
C584 C 0.82186 0.83881 0.46289 0.0
C585 C 0.80166 0.81732 0.44859 0.0
H586 H 0.8242 0.87937 0.46356 0.0
C587 C 0.76526 0.82085 0.4242 0.0
H588 H 0.84976 0.83677 0.48186 0.0
C589 C 0.75055 0.84536 0.41366 0.0
C590 C 0.7719 0.86681 0.42734 0.0
H591 H 0.74881 0.80468 0.41277 0.0
H592 H 0.72326 0.84746 0.39433 0.0
C593 C 0.80711 0.86326 0.45242 0.0
C594 C 0.26214 0.84822 0.4615 0.0
C595 C 0.24005 0.85376 0.43113 0.0
H596 H 0.30013 0.86265 0.50293 0.0
C597 C 0.24087 0.87877 0.4188 0.0
H598 H 0.26195 0.82912 0.47166 0.0
C599 C 0.26366 0.89782 0.43636 0.0
C600 C 0.28501 0.89238 0.46698 0.0
H601 H 0.22433 0.88357 0.39539 0.0
H602 H 0.26379 0.91691 0.42621 0.0
C603 C 0.28386 0.86741 0.47944 0.0
C604 C 0.9408 0.1836 0.591 0.0
C605 C 0.9387 0.1573 0.59723 0.0
H606 H 0.91226 0.2209 0.6029 0.0
C607 C 0.908 0.14881 0.62284 0.0
H608 H 0.96332 0.19071 0.57102 0.0
C609 C 0.87964 0.16622 0.64159 0.0
C610 C 0.88139 0.19241 0.63526 0.0
H611 H 0.90534 0.12868 0.62815 0.0
H612 H 0.8558 0.15913 0.66095 0.0
C613 C 0.912 0.20099 0.60961 0.0
C614 C 0.03362 0.17354 0.40803 0.0
C615 C 0.01806 0.17661 0.44066 0.0
H616 H 0.0621 0.14799 0.37142 0.0
C617 C 0.02326 0.15581 0.46232 0.0
H618 H 0.03044 0.18922 0.39075 0.0
C619 C 0.04136 0.13213 0.45119 0.0
C620 C 0.05479 0.1288 0.41822 0.0
H621 H 0.01171 0.15755 0.48762 0.0
H622 H 0.04302 0.11622 0.46817 0.0
C623 C 0.05179 0.14989 0.39693 0.0
loop_
_geom_bond_atom_site_label_1
_geom_bond_atom_site_label_2
_geom_bond_distance
_geom_bond_site_symmetry_2
_ccdc_geom_bond_type
O0 Cd1 2.300 . S
O0 C7 1.275 . S
Cd1 O0 2.300 . S
Cd1 O9 2.381 . S
Cd1 O10 2.378 . S
O2 Cd3 2.385 . S
O2 C7 1.255 . S
Cd3 O2 2.385 . S
Cd3 O4 2.317 . S
O4 Cd3 2.317 . S
O4 C5 1.232 . S
C5 O4 1.232 . S
C5 O6 1.218 . S
O6 C5 1.218 . S
C7 O0 1.275 . S
C7 O2 1.255 . S
C8 O9 1.258 . S
C8 O10 1.256 . S
O9 Cd1 2.381 . S
O9 C8 1.258 . S
O10 Cd1 2.378 . S
O10 C8 1.256 . S
O11 Cd12 2.300 . S
O11 C18 1.275 . S
Cd12 O11 2.300 . S
Cd12 O20 2.381 . S
Cd12 O21 2.378 . S
O13 Cd14 2.385 . S
O13 C18 1.255 . S
Cd14 O13 2.385 . S
Cd14 O15 2.317 . S
O15 Cd14 2.317 . S
O15 C16 1.232 . S
C16 O15 1.232 . S
C16 O17 1.218 . S
O17 C16 1.218 . S
C18 O11 1.275 . S
C18 O13 1.255 . S
C19 O20 1.258 . S
C19 O21 1.256 . S
O20 Cd12 2.381 . S
O20 C19 1.258 . S
O21 Cd12 2.378 . S
O21 C19 1.256 . S
O22 Cd23 2.300 . S
O22 C29 1.275 . S
Cd23 O22 2.300 . S
Cd23 O31 2.381 . S
Cd23 O32 2.378 . S
O24 Cd25 2.385 . S
O24 C29 1.255 . S
Cd25 O24 2.385 . S
Cd25 O26 2.317 1_455 S
O26 Cd25 2.317 1_655 S
O26 C27 1.232 . S
C27 O26 1.232 . S
C27 O28 1.218 . S
O28 C27 1.218 . S
C29 O22 1.275 . S
C29 O24 1.255 . S
C30 O31 1.258 . S
C30 O32 1.256 . S
O31 Cd23 2.381 . S
O31 C30 1.258 . S
O32 Cd23 2.378 . S
O32 C30 1.256 . S
O33 Cd34 2.300 1_545 S
O33 C40 1.275 . S
Cd34 O33 2.300 1_565 S
Cd34 O42 2.381 . S
Cd34 O43 2.378 . S
O35 Cd36 2.385 1_545 S
O35 C40 1.255 . S
Cd36 O35 2.385 1_565 S
Cd36 O37 2.317 . S
O37 Cd36 2.317 . S
O37 C38 1.232 1_565 S
C38 O37 1.232 1_545 S
C38 O39 1.218 . S
O39 C38 1.218 . S
C40 O33 1.275 . S
C40 O35 1.255 . S
C41 O42 1.258 . S
C41 O43 1.256 . S
O42 Cd34 2.381 . S
O42 C41 1.258 . S
O43 Cd34 2.378 . S
O43 C41 1.256 . S
O44 Cd45 2.300 1_655 S
O44 C51 1.275 . S
Cd45 O44 2.300 1_455 S
Cd45 O53 2.381 . S
Cd45 O54 2.378 . S
O46 Cd47 2.385 . S
O46 C51 1.255 . S
Cd47 O46 2.385 . S
Cd47 O48 2.317 1_655 S
O48 Cd47 2.317 1_455 S
O48 C49 1.232 1_455 S
C49 O48 1.232 1_655 S
C49 O50 1.218 . S
O50 C49 1.218 . S
C51 O44 1.275 . S
C51 O46 1.255 . S
C52 O53 1.258 . S
C52 O54 1.256 . S
O53 Cd45 2.381 . S
O53 C52 1.258 . S
O54 Cd45 2.378 . S
O54 C52 1.256 . S
O55 Cd56 2.300 . S
O55 C62 1.275 . S
Cd56 O55 2.300 . S
Cd56 O64 2.381 . S
Cd56 O65 2.378 . S
O57 Cd58 2.385 . S
O57 C62 1.255 . S
Cd58 O57 2.385 . S
Cd58 O59 2.317 . S
O59 Cd58 2.317 . S
O59 C60 1.232 . S
C60 O59 1.232 . S
C60 O61 1.218 . S
O61 C60 1.218 . S
C62 O55 1.275 . S
C62 O57 1.255 . S
C63 O64 1.258 . S
C63 O65 1.256 . S
O64 Cd56 2.381 . S
O64 C63 1.258 . S
O65 Cd56 2.378 . S
O65 C63 1.256 . S
O66 Cd67 2.300 . S
O66 C73 1.275 . S
Cd67 O66 2.300 . S
Cd67 O75 2.381 . S
Cd67 O76 2.378 . S
O68 Cd69 2.385 . S
O68 C73 1.255 . S
Cd69 O68 2.385 . S
Cd69 O70 2.317 . S
O70 Cd69 2.317 . S
O70 C71 1.232 . S
C71 O70 1.232 . S
C71 O72 1.218 . S
O72 C71 1.218 . S
C73 O66 1.275 . S
C73 O68 1.255 . S
C74 O75 1.258 . S
C74 O76 1.256 . S
O75 Cd67 2.381 . S
O75 C74 1.258 . S
O76 Cd67 2.378 . S
O76 C74 1.256 . S
O77 Cd78 2.300 . S
O77 C84 1.275 . S
Cd78 O77 2.300 . S
Cd78 O86 2.381 . S
Cd78 O87 2.378 . S
O79 Cd80 2.385 . S
O79 C84 1.255 . S
Cd80 O79 2.385 . S
Cd80 O81 2.317 . S
O81 Cd80 2.317 . S
O81 C82 1.232 . S
C82 O81 1.232 . S
C82 O83 1.218 . S
O83 C82 1.218 . S
C84 O77 1.275 . S
C84 O79 1.255 . S
C85 O86 1.258 . S
C85 O87 1.256 . S
O86 Cd78 2.381 . S
O86 C85 1.258 . S
O87 Cd78 2.378 . S
O87 C85 1.256 . S
O88 Cd89 2.300 . S
O88 C95 1.275 . S
Cd89 O88 2.300 . S
Cd89 O97 2.381 . S
Cd89 O98 2.378 . S
O90 Cd91 2.385 . S
O90 C95 1.255 . S
Cd91 O90 2.385 . S
Cd91 O92 2.317 . S
O92 Cd91 2.317 . S
O92 C93 1.232 . S
C93 O92 1.232 . S
C93 O94 1.218 . S
O94 C93 1.218 . S
C95 O88 1.275 . S
C95 O90 1.255 . S
C96 O97 1.258 . S
C96 O98 1.256 . S
O97 Cd89 2.381 . S
O97 C96 1.258 . S
O98 Cd89 2.378 . S
O98 C96 1.256 . S
O99 Cd100 2.300 1_655 S
O99 C106 1.275 . S
Cd100 O99 2.300 1_455 S
Cd100 O108 2.381 . S
Cd100 O109 2.378 . S
O101 Cd102 2.385 . S
O101 C106 1.255 1_455 S
Cd102 O101 2.385 . S
Cd102 O103 2.317 . S
O103 Cd102 2.317 . S
O103 C104 1.232 . S
C104 O103 1.232 . S
C104 O105 1.218 . S
O105 C104 1.218 . S
C106 O99 1.275 . S
C106 O101 1.255 1_655 S
C107 O108 1.258 . S
C107 O109 1.256 . S
O108 Cd100 2.381 . S
O108 C107 1.258 . S
O109 Cd100 2.378 . S
O109 C107 1.256 . S
O110 Cd111 2.300 . S
O110 C117 1.275 . S
Cd111 O110 2.300 . S
Cd111 O119 2.381 . S
Cd111 O120 2.378 . S
O112 Cd113 2.385 . S
O112 C117 1.255 . S
Cd113 O112 2.385 . S
Cd113 O114 2.317 . S
O114 Cd113 2.317 . S
O114 C115 1.232 . S
C115 O114 1.232 . S
C115 O116 1.218 . S
O116 C115 1.218 . S
C117 O110 1.275 . S
C117 O112 1.255 . S
C118 O119 1.258 . S
C118 O120 1.256 . S
O119 Cd111 2.381 . S
O119 C118 1.258 . S
O120 Cd111 2.378 . S
O120 C118 1.256 . S
O121 Cd122 2.300 . S
O121 C128 1.275 . S
Cd122 O121 2.300 . S
Cd122 O130 2.381 . S
Cd122 O131 2.378 . S
O123 Cd124 2.385 . S
O123 C128 1.255 . S
Cd124 O123 2.385 . S
Cd124 O125 2.317 . S
O125 Cd124 2.317 . S
O125 C126 1.232 . S
C126 O125 1.232 . S
C126 O127 1.218 . S
O127 C126 1.218 . S
C128 O121 1.275 . S
C128 O123 1.255 . S
C129 O130 1.258 . S
C129 O131 1.256 . S
O130 Cd122 2.381 . S
O130 C129 1.258 . S
O131 Cd122 2.378 . S
O131 C129 1.256 . S
O132 Cd133 2.300 . S
O132 C139 1.275 1_565 S
Cd133 O132 2.300 . S
Cd133 O141 2.381 . S
Cd133 O142 2.378 . S
O134 Cd135 2.385 . S
O134 C139 1.255 . S
Cd135 O134 2.385 . S
Cd135 O136 2.317 1_545 S
O136 Cd135 2.317 1_565 S
O136 C137 1.232 1_565 S
C137 O136 1.232 1_545 S
C137 O138 1.218 . S
O138 C137 1.218 . S
C139 O132 1.275 1_545 S
C139 O134 1.255 . S
C140 O141 1.258 . S
C140 O142 1.256 . S
O141 Cd133 2.381 . S
O141 C140 1.258 . S
O142 Cd133 2.378 . S
O142 C140 1.256 . S
O143 Cd144 2.300 1_455 S
O143 C150 1.275 . S
Cd144 O143 2.300 1_655 S
Cd144 O152 2.381 . S
Cd144 O153 2.378 . S
O145 Cd146 2.385 . S
O145 C150 1.255 1_655 S
Cd146 O145 2.385 . S
Cd146 O147 2.317 . S
O147 Cd146 2.317 . S
O147 C148 1.232 1_655 S
C148 O147 1.232 1_455 S
C148 O149 1.218 . S
O149 C148 1.218 . S
C150 O143 1.275 . S
C150 O145 1.255 1_455 S
C151 O152 1.258 . S
C151 O153 1.256 . S
O152 Cd144 2.381 . S
O152 C151 1.258 . S
O153 Cd144 2.378 . S
O153 C151 1.256 . S
O154 Cd155 2.300 . S
O154 C161 1.275 . S
Cd155 O154 2.300 . S
Cd155 O163 2.381 1_655 S
Cd155 O164 2.378 1_655 S
O156 Cd157 2.385 . S
O156 C161 1.255 . S
Cd157 O156 2.385 . S
Cd157 O158 2.317 . S
O158 Cd157 2.317 . S
O158 C159 1.232 . S
C159 O158 1.232 . S
C159 O160 1.218 1_545 S
O160 C159 1.218 1_565 S
C161 O154 1.275 . S
C161 O156 1.255 . S
C162 O163 1.258 . S
C162 O164 1.256 . S
O163 Cd155 2.381 1_455 S
O163 C162 1.258 . S
O164 Cd155 2.378 1_455 S
O164 C162 1.256 . S
O165 Cd166 2.300 . S
O165 C172 1.275 . S
Cd166 O165 2.300 . S
Cd166 O174 2.381 . S
Cd166 O175 2.378 . S
O167 Cd168 2.385 . S
O167 C172 1.255 . S
Cd168 O167 2.385 . S
Cd168 O169 2.317 . S
O169 Cd168 2.317 . S
O169 C170 1.232 . S
C170 O169 1.232 . S
C170 O171 1.218 . S
O171 C170 1.218 . S
C172 O165 1.275 . S
C172 O167 1.255 . S
C173 O174 1.258 . S
C173 O175 1.256 . S
O174 Cd166 2.381 . S
O174 C173 1.258 . S
O175 Cd166 2.378 . S
O175 C173 1.256 . S
O176 Cd177 2.300 1_556 S
O176 C183 1.275 . S
Cd177 O176 2.300 1_554 S
Cd177 O185 2.381 . S
Cd177 O186 2.378 . S
O178 Cd179 2.385 1_556 S
O178 C183 1.255 . S
Cd179 O178 2.385 1_554 S
Cd179 O180 2.317 1_554 S
O180 Cd179 2.317 1_556 S
O180 C181 1.232 . S
C181 O180 1.232 . S
C181 O182 1.218 . S
O182 C181 1.218 . S
C183 O176 1.275 . S
C183 O178 1.255 . S
C184 O185 1.258 . S
C184 O186 1.256 . S
O185 Cd177 2.381 . S
O185 C184 1.258 . S
O186 Cd177 2.378 . S
O186 C184 1.256 . S
O187 Cd188 2.301 . S
O187 C194 1.275 1_556 S
Cd188 O187 2.301 . S
Cd188 O196 2.389 . S
Cd188 O197 2.382 . S
O189 Cd190 2.385 . S
O189 C194 1.255 . S
Cd190 O189 2.385 . S
Cd190 O191 2.317 . S
O191 Cd190 2.317 . S
O191 C192 1.232 . S
C192 O191 1.232 . S
C192 O193 1.218 . S
O193 C192 1.218 . S
C194 O187 1.275 1_554 S
C194 O189 1.255 . S
C195 O196 1.258 . S
C195 O197 1.256 . S
O196 Cd188 2.389 . S
O196 C195 1.258 . S
O197 Cd188 2.382 . S
O197 C195 1.256 . S
O198 Cd199 2.300 . S
O198 C205 1.275 . S
Cd199 O198 2.300 . S
Cd199 O207 2.381 . S
Cd199 O208 2.378 . S
O200 Cd201 2.385 . S
O200 C205 1.255 . S
Cd201 O200 2.385 . S
Cd201 O202 2.317 . S
O202 Cd201 2.317 . S
O202 C203 1.232 . S
C203 O202 1.232 . S
C203 O204 1.218 . S
O204 C203 1.218 . S
C205 O198 1.275 . S
C205 O200 1.255 . S
C206 O207 1.258 . S
C206 O208 1.256 . S
O207 Cd199 2.381 . S
O207 C206 1.258 . S
O208 Cd199 2.378 . S
O208 C206 1.256 . S
O209 Cd210 2.300 . S
O209 C216 1.275 . S
Cd210 O209 2.300 . S
Cd210 O218 2.381 . S
Cd210 O219 2.378 . S
O211 Cd212 2.385 . S
O211 C216 1.255 . S
Cd212 O211 2.385 . S
Cd212 O213 2.317 . S
O213 Cd212 2.317 . S
O213 C214 1.232 . S
C214 O213 1.232 . S
C214 O215 1.218 . S
O215 C214 1.218 . S
C216 O209 1.275 . S
C216 O211 1.255 . S
C217 O218 1.258 . S
C217 O219 1.256 . S
O218 Cd210 2.381 . S
O218 C217 1.258 . S
O219 Cd210 2.378 . S
O219 C217 1.256 . S
O220 Cd221 2.300 . S
O220 C227 1.275 . S
Cd221 O220 2.300 . S
Cd221 O229 2.381 . S
Cd221 O230 2.378 . S
O222 Cd223 2.385 . S
O222 C227 1.255 . S
Cd223 O222 2.385 . S
Cd223 O224 2.317 . S
O224 Cd223 2.317 . S
O224 C225 1.232 . S
C225 O224 1.232 . S
C225 O226 1.218 . S
O226 C225 1.218 . S
C227 O220 1.275 . S
C227 O222 1.255 . S
C228 O229 1.258 . S
C228 O230 1.256 . S
O229 Cd221 2.381 . S
O229 C228 1.258 . S
O230 Cd221 2.378 . S
O230 C228 1.256 . S
O231 Cd232 2.300 . S
O231 C238 1.275 . S
Cd232 O231 2.300 . S
Cd232 O240 2.381 . S
Cd232 O241 2.378 . S
O233 Cd234 2.385 . S
O233 C238 1.255 1_556 S
Cd234 O233 2.385 . S
Cd234 O235 2.317 . S
O235 Cd234 2.317 . S
O235 C236 1.232 . S
C236 O235 1.232 . S
C236 O237 1.218 . S
O237 C236 1.218 . S
C238 O231 1.275 . S
C238 O233 1.255 1_554 S
C239 O240 1.258 . S
C239 O241 1.256 . S
O240 Cd232 2.381 . S
O240 C239 1.258 . S
O241 Cd232 2.378 . S
O241 C239 1.256 . S
O242 Cd243 2.300 . S
O242 C249 1.275 . S
Cd243 O242 2.300 . S
Cd243 O251 2.381 . S
Cd243 O252 2.378 . S
O244 Cd245 2.385 . S
O244 C249 1.255 . S
Cd245 O244 2.385 . S
Cd245 O246 2.317 . S
O246 Cd245 2.317 . S
O246 C247 1.232 . S
C247 O246 1.232 . S
C247 O248 1.218 . S
O248 C247 1.218 . S
C249 O242 1.275 . S
C249 O244 1.255 . S
C250 O251 1.258 . S
C250 O252 1.256 . S
O251 Cd243 2.381 . S
O251 C250 1.258 . S
O252 Cd243 2.378 . S
O252 C250 1.256 . S
O253 Cd254 2.300 . S
O253 C260 1.275 . S
Cd254 O253 2.300 . S
Cd254 O262 2.381 . S
Cd254 O263 2.378 . S
O255 Cd256 2.385 . S
O255 C260 1.255 . S
Cd256 O255 2.385 . S
Cd256 O257 2.317 . S
O257 Cd256 2.317 . S
O257 C258 1.232 . S
C258 O257 1.232 . S
C258 O259 1.218 . S
O259 C258 1.218 . S
C260 O253 1.275 . S
C260 O255 1.255 . S
C261 O262 1.258 . S
C261 O263 1.256 . S
O262 Cd254 2.381 . S
O262 C261 1.258 . S
O263 Cd254 2.378 . S
O263 C261 1.256 . S
C264 C265 1.387 . S
C264 H268 0.950 . S
C264 C273 1.390 . S
C265 C264 1.387 . S
C265 C267 1.387 . S
H266 C273 0.950 . S
C267 C265 1.387 . S
C267 C269 1.390 . S
C267 H271 0.950 . S
H268 C264 0.950 . S
C269 C267 1.390 . S
C269 C270 1.387 . S
C269 H272 0.950 . S
C270 C269 1.387 . S
C270 C273 1.387 . S
H271 C267 0.950 . S
H272 C269 0.950 . S
C273 C264 1.390 . S
C273 H266 0.950 . S
C273 C270 1.387 . S
C274 C275 1.387 . S
C274 H278 0.950 . S
C274 C283 1.390 . S
C275 C274 1.387 . S
C275 C277 1.387 . S
H276 C283 0.950 . S
C277 C275 1.387 . S
C277 C279 1.390 . S
C277 H281 0.950 . S
H278 C274 0.950 . S
C279 C277 1.390 . S
C279 C280 1.387 . S
C279 H282 0.950 . S
C280 C279 1.387 . S
C280 C283 1.387 . S
H281 C277 0.950 . S
H282 C279 0.950 . S
C283 C274 1.390 . S
C283 H276 0.950 . S
C283 C280 1.387 . S
C284 C285 1.387 . S
C284 H288 0.950 . S
C284 C293 1.390 . S
C285 C284 1.387 . S
C285 C287 1.387 . S
H286 C293 0.950 . S
C287 C285 1.387 . S
C287 C289 1.390 . S
C287 H291 0.950 . S
H288 C284 0.950 . S
C289 C287 1.390 . S
C289 C290 1.387 . S
C289 H292 0.950 . S
C290 C289 1.387 . S
C290 C293 1.387 . S
H291 C287 0.950 . S
H292 C289 0.950 . S
C293 C284 1.390 . S
C293 H286 0.950 . S
C293 C290 1.387 . S
C294 C295 1.387 . S
C294 H298 0.950 . S
C294 C303 1.390 . S
C295 C294 1.387 . S
C295 C297 1.387 . S
H296 C303 0.950 . S
C297 C295 1.387 . S
C297 C299 1.390 1_545 S
C297 H301 0.950 . S
H298 C294 0.950 . S
C299 C297 1.390 1_565 S
C299 C300 1.387 . S
C299 H302 0.950 . S
C300 C299 1.387 . S
C300 C303 1.387 1_565 S
H301 C297 0.950 . S
H302 C299 0.950 . S
C303 C294 1.390 . S
C303 H296 0.950 . S
C303 C300 1.387 1_545 S
C304 C305 1.387 . S
C304 H308 0.950 . S
C304 C313 1.390 . S
C305 C304 1.387 . S
C305 C307 1.387 . S
H306 C313 0.950 1_565 S
C307 C305 1.387 . S
C307 C309 1.390 . S
C307 H311 0.950 . S
H308 C304 0.950 . S
C309 C307 1.390 . S
C309 C310 1.387 . S
C309 H312 0.950 . S
C310 C309 1.387 . S
C310 C313 1.387 . S
H311 C307 0.950 . S
H312 C309 0.950 . S
C313 C304 1.390 . S
C313 H306 0.950 1_545 S
C313 C310 1.387 . S
C314 C315 1.387 . S
C314 H318 0.950 . S
C314 C323 1.390 . S
C315 C314 1.387 . S
C315 C317 1.387 1_655 S
H316 C323 0.950 . S
C317 C315 1.387 1_455 S
C317 C319 1.390 . S
C317 H321 0.950 . S
H318 C314 0.950 . S
C319 C317 1.390 . S
C319 C320 1.387 . S
C319 H322 0.950 . S
C320 C319 1.387 . S
C320 C323 1.387 1_455 S
H321 C317 0.950 . S
H322 C319 0.950 . S
C323 C314 1.390 . S
C323 H316 0.950 . S
C323 C320 1.387 1_655 S
C324 C325 1.387 . S
C324 H328 0.950 . S
C324 C333 1.390 . S
C325 C324 1.387 . S
C325 C327 1.387 . S
H326 C333 0.950 . S
C327 C325 1.387 . S
C327 C329 1.390 1_565 S
C327 H331 0.950 1_565 S
H328 C324 0.950 . S
C329 C327 1.390 1_545 S
C329 C330 1.387 1_545 S
C329 H332 0.950 . S
C330 C329 1.387 1_565 S
C330 C333 1.387 . S
H331 C327 0.950 1_545 S
H332 C329 0.950 . S
C333 C324 1.390 . S
C333 H326 0.950 . S
C333 C330 1.387 . S
C334 C335 1.387 . S
C334 H338 0.950 . S
C334 C343 1.390 . S
C335 C334 1.387 . S
C335 C337 1.387 . S
H336 C343 0.950 1_655 S
C337 C335 1.387 . S
C337 C339 1.390 . S
C337 H341 0.950 . S
H338 C334 0.950 . S
C339 C337 1.390 . S
C339 C340 1.387 1_455 S
C339 H342 0.950 1_455 S
C340 C339 1.387 1_655 S
C340 C343 1.387 1_655 S
H341 C337 0.950 . S
H342 C339 0.950 1_655 S
C343 C334 1.390 . S
C343 H336 0.950 1_455 S
C343 C340 1.387 1_455 S
C344 C345 1.387 . S
C344 H348 0.950 1_556 S
C344 C353 1.390 . S
C345 C344 1.387 . S
C345 C347 1.387 . S
H346 C353 0.950 1_554 S
C347 C345 1.387 . S
C347 C349 1.390 . S
C347 H351 0.950 . S
H348 C344 0.950 1_554 S
C349 C347 1.390 . S
C349 C350 1.387 . S
C349 H352 0.950 . S
C350 C349 1.387 . S
C350 C353 1.387 . S
H351 C347 0.950 . S
H352 C349 0.950 . S
C353 C344 1.390 . S
C353 H346 0.950 1_556 S
C353 C350 1.387 . S
C354 C355 1.387 1_556 S
C354 H358 0.950 . S
C354 C363 1.390 . S
C355 C354 1.387 1_554 S
C355 C357 1.387 . S
H356 C363 0.951 . S
C357 C355 1.387 . S
C357 C359 1.390 . S
C357 H361 0.950 . S
H358 C354 0.950 . S
C359 C357 1.390 . S
C359 C360 1.387 . S
C359 H362 0.950 . S
C360 C359 1.387 . S
C360 C363 1.386 1_554 S
H361 C357 0.950 . S
H362 C359 0.950 . S
C363 C354 1.390 . S
C363 H356 0.951 . S
C363 C360 1.386 1_556 S
C364 C365 1.387 . S
C364 H368 0.950 1_556 S
C364 C373 1.390 . S
C365 C364 1.387 . S
C365 C367 1.387 . S
H366 C373 0.950 . S
C367 C365 1.387 . S
C367 C369 1.390 . S
C367 H371 0.950 . S
H368 C364 0.950 1_554 S
C369 C367 1.390 . S
C369 C370 1.387 . S
C369 H372 0.950 . S
C370 C369 1.387 . S
C370 C373 1.387 . S
H371 C367 0.950 . S
H372 C369 0.950 . S
C373 C364 1.390 . S
C373 H366 0.950 . S
C373 C370 1.387 . S
C374 C375 1.387 1_556 S
C374 H378 0.950 . S
C374 C383 1.390 . S
C375 C374 1.387 1_554 S
C375 C377 1.387 . S
H376 C383 0.950 . S
C377 C375 1.387 . S
C377 C379 1.390 . S
C377 H381 0.950 . S
H378 C374 0.950 . S
C379 C377 1.390 . S
C379 C380 1.387 1_554 S
C379 H382 0.950 . S
C380 C379 1.387 1_556 S
C380 C383 1.387 . S
H381 C377 0.950 . S
H382 C379 0.950 . S
C383 C374 1.390 . S
C383 H376 0.950 . S
C383 C380 1.387 . S
C384 C385 1.387 1_655 S
C384 H388 0.950 . S
C384 C393 1.390 . S
C385 C384 1.387 1_455 S
C385 C387 1.387 . S
H386 C393 0.950 . S
C387 C385 1.387 . S
C387 C389 1.390 . S
C387 H391 0.950 . S
H388 C384 0.950 . S
C389 C387 1.390 . S
C389 C390 1.387 . S
C389 H392 0.950 . S
C390 C389 1.387 . S
C390 C393 1.387 1_455 S
H391 C387 0.950 . S
H392 C389 0.950 . S
C393 C384 1.390 . S
C393 H386 0.950 . S
C393 C390 1.387 1_655 S
C394 C395 1.387 . S
C394 H398 0.950 . S
C394 C403 1.390 . S
C395 C394 1.387 . S
C395 C397 1.387 . S
H396 C403 0.950 . S
C397 C395 1.387 . S
C397 C399 1.390 . S
C397 H401 0.950 . S
H398 C394 0.950 . S
C399 C397 1.390 . S
C399 C400 1.387 . S
C399 H402 0.950 . S
C400 C399 1.387 . S
C400 C403 1.387 . S
H401 C397 0.950 . S
H402 C399 0.950 . S
C403 C394 1.390 . S
C403 H396 0.950 . S
C403 C400 1.387 . S
C404 C405 1.387 . S
C404 H408 0.950 1_545 S
C404 C413 1.390 . S
C405 C404 1.387 . S
C405 C407 1.387 . S
H406 C413 0.950 . S
C407 C405 1.387 . S
C407 C409 1.390 . S
C407 H411 0.950 . S
H408 C404 0.950 1_565 S
C409 C407 1.390 . S
C409 C410 1.387 . S
C409 H412 0.950 . S
C410 C409 1.387 . S
C410 C413 1.387 . S
H411 C407 0.950 . S
H412 C409 0.950 . S
C413 C404 1.390 . S
C413 H406 0.950 . S
C413 C410 1.387 . S
C414 C415 1.387 . S
C414 H418 0.950 . S
C414 C423 1.390 . S
C415 C414 1.387 . S
C415 C417 1.387 . S
H416 C423 0.950 . S
C417 C415 1.387 . S
C417 C419 1.390 . S
C417 H421 0.950 . S
H418 C414 0.950 . S
C419 C417 1.390 . S
C419 C420 1.387 . S
C419 H422 0.950 . S
C420 C419 1.387 . S
C420 C423 1.387 . S
H421 C417 0.950 . S
H422 C419 0.950 . S
C423 C414 1.390 . S
C423 H416 0.950 . S
C423 C420 1.387 . S
C424 C425 1.387 . S
C424 H428 0.950 . S
C424 C433 1.390 . S
C425 C424 1.387 . S
C425 C427 1.387 . S
H426 C433 0.950 . S
C427 C425 1.387 . S
C427 C429 1.390 . S
C427 H431 0.950 . S
H428 C424 0.950 . S
C429 C427 1.390 . S
C429 C430 1.387 . S
C429 H432 0.950 1_545 S
C430 C429 1.387 . S
C430 C433 1.387 . S
H431 C427 0.950 . S
H432 C429 0.950 1_565 S
C433 C424 1.390 . S
C433 H426 0.950 . S
C433 C430 1.387 . S
C434 C435 1.387 . S
C434 H438 0.950 . S
C434 C443 1.390 . S
C435 C434 1.387 . S
C435 C437 1.387 . S
H436 C443 0.950 . S
C437 C435 1.387 . S
C437 C439 1.390 . S
C437 H441 0.950 . S
H438 C434 0.950 . S
C439 C437 1.390 . S
C439 C440 1.387 . S
C439 H442 0.950 . S
C440 C439 1.387 . S
C440 C443 1.387 . S
H441 C437 0.950 . S
H442 C439 0.950 . S
C443 C434 1.390 . S
C443 H436 0.950 . S
C443 C440 1.387 . S
C444 C445 1.387 . S
C444 H448 0.950 . S
C444 C453 1.390 . S
C445 C444 1.387 . S
C445 C447 1.387 . S
H446 C453 0.950 . S
C447 C445 1.387 . S
C447 C449 1.401 . S
C447 H451 0.950 . S
H448 C444 0.950 . S
C449 C447 1.401 . S
C449 C450 1.398 . S
C449 H452 0.929 1_565 S
C450 C449 1.398 . S
C450 C453 1.387 . S
H451 C447 0.950 . S
H452 C449 0.929 1_545 S
C453 C444 1.390 . S
C453 H446 0.950 . S
C453 C450 1.387 . S
C454 C455 1.387 . S
C454 H458 0.950 . S
C454 C463 1.390 . S
C455 C454 1.387 . S
C455 C457 1.387 . S
H456 C463 0.950 . S
C457 C455 1.387 . S
C457 C459 1.390 . S
C457 H461 0.950 . S
H458 C454 0.950 . S
C459 C457 1.390 . S
C459 C460 1.387 . S
C459 H462 0.950 . S
C460 C459 1.387 . S
C460 C463 1.387 . S
H461 C457 0.950 . S
H462 C459 0.950 . S
C463 C454 1.390 . S
C463 H456 0.950 . S
C463 C460 1.387 . S
C464 C465 1.387 . S
C464 H468 0.950 . S
C464 C473 1.390 . S
C465 C464 1.387 . S
C465 C467 1.387 . S
H466 C473 0.950 . S
C467 C465 1.387 . S
C467 C469 1.390 . S
C467 H471 0.950 . S
H468 C464 0.950 . S
C469 C467 1.390 . S
C469 C470 1.387 . S
C469 H472 0.950 . S
C470 C469 1.387 . S
C470 C473 1.387 . S
H471 C467 0.950 . S
H472 C469 0.950 . S
C473 C464 1.390 . S
C473 H466 0.950 . S
C473 C470 1.387 . S
C474 C475 1.387 . S
C474 H478 0.950 . S
C474 C483 1.390 . S
C475 C474 1.387 . S
C475 C477 1.387 1_556 S
H476 C483 0.950 . S
C477 C475 1.387 1_554 S
C477 C479 1.390 . S
C477 H481 0.950 . S
H478 C474 0.950 . S
C479 C477 1.390 . S
C479 C480 1.387 . S
C479 H482 0.950 . S
C480 C479 1.387 . S
C480 C483 1.387 1_554 S
H481 C477 0.950 . S
H482 C479 0.950 . S
C483 C474 1.390 . S
C483 H476 0.950 . S
C483 C480 1.387 1_556 S
C484 C485 1.387 . S
C484 H488 0.950 . S
C484 C493 1.390 . S
C485 C484 1.387 . S
C485 C487 1.387 1_556 S
H486 C493 0.950 . S
C487 C485 1.387 1_554 S
C487 C489 1.390 . S
C487 H491 0.950 . S
H488 C484 0.950 . S
C489 C487 1.390 . S
C489 C490 1.387 1_554 S
C489 H492 0.950 . S
C490 C489 1.387 1_556 S
C490 C493 1.387 . S
H491 C487 0.950 . S
H492 C489 0.950 . S
C493 C484 1.390 . S
C493 H486 0.950 . S
C493 C490 1.387 . S
C494 C495 1.387 . S
C494 H498 0.950 1_554 S
C494 C503 1.390 . S
C495 C494 1.387 . S
C495 C497 1.387 . S
H496 C503 0.950 1_556 S
C497 C495 1.387 . S
C497 C499 1.390 . S
C497 H501 0.950 . S
H498 C494 0.950 1_556 S
C499 C497 1.390 . S
C499 C500 1.387 . S
C499 H502 0.950 . S
C500 C499 1.387 . S
C500 C503 1.387 . S
H501 C497 0.950 . S
H502 C499 0.950 . S
C503 C494 1.390 . S
C503 H496 0.950 1_554 S
C503 C500 1.387 . S
C504 C505 1.387 . S
C504 H508 0.950 . S
C504 C513 1.390 . S
C505 C504 1.387 . S
C505 C507 1.387 . S
H506 C513 0.950 . S
C507 C505 1.387 . S
C507 C509 1.390 . S
C507 H511 0.950 . S
H508 C504 0.950 . S
C509 C507 1.390 . S
C509 C510 1.387 . S
C509 H512 0.950 . S
C510 C509 1.387 . S
C510 C513 1.387 . S
H511 C507 0.950 . S
H512 C509 0.950 . S
C513 C504 1.390 . S
C513 H506 0.950 . S
C513 C510 1.387 . S
C514 C515 1.387 . S
C514 H518 0.950 . S
C514 C523 1.390 . S
C515 C514 1.387 . S
C515 C517 1.387 . S
H516 C523 0.950 . S
C517 C515 1.387 . S
C517 C519 1.390 . S
C517 H521 0.950 . S
H518 C514 0.950 . S
C519 C517 1.390 . S
C519 C520 1.387 . S
C519 H522 0.950 . S
C520 C519 1.387 . S
C520 C523 1.387 . S
H521 C517 0.950 . S
H522 C519 0.950 . S
C523 C514 1.390 . S
C523 H516 0.950 . S
C523 C520 1.387 . S
C524 C525 1.387 . S
C524 H528 0.950 . S
C524 C533 1.390 . S
C525 C524 1.387 . S
C525 C527 1.387 . S
H526 C533 0.950 . S
C527 C525 1.387 . S
C527 C529 1.390 . S
C527 H531 0.950 . S
H528 C524 0.950 . S
C529 C527 1.390 . S
C529 C530 1.387 . S
C529 H532 0.950 . S
C530 C529 1.387 . S
C530 C533 1.387 . S
H531 C527 0.950 . S
H532 C529 0.950 . S
C533 C524 1.390 . S
C533 H526 0.950 . S
C533 C530 1.387 . S
C534 C535 1.387 . S
C534 H538 0.950 . S
C534 C543 1.390 . S
C535 C534 1.387 . S
C535 C537 1.387 . S
H536 C543 0.950 . S
C537 C535 1.387 . S
C537 C539 1.390 . S
C537 H541 0.950 . S
H538 C534 0.950 . S
C539 C537 1.390 . S
C539 C540 1.387 . S
C539 H542 0.950 . S
C540 C539 1.387 . S
C540 C543 1.387 . S
H541 C537 0.950 . S
H542 C539 0.950 . S
C543 C534 1.390 . S
C543 H536 0.950 . S
C543 C540 1.387 . S
C544 C545 1.387 . S
C544 H548 0.950 . S
C544 C553 1.390 . S
C545 C544 1.387 . S
C545 C547 1.387 . S
H546 C553 0.950 . S
C547 C545 1.387 . S
C547 C549 1.390 . S
C547 H551 0.950 . S
H548 C544 0.950 . S
C549 C547 1.390 . S
C549 C550 1.387 . S
C549 H552 0.950 . S
C550 C549 1.387 . S
C550 C553 1.387 . S
H551 C547 0.950 . S
H552 C549 0.950 . S
C553 C544 1.390 . S
C553 H546 0.950 . S
C553 C550 1.387 . S
C554 C555 1.387 . S
C554 H558 0.950 . S
C554 C563 1.390 . S
C555 C554 1.387 . S
C555 C557 1.387 . S
H556 C563 0.950 . S
C557 C555 1.387 . S
C557 C559 1.390 . S
C557 H561 0.950 . S
H558 C554 0.950 . S
C559 C557 1.390 . S
C559 C560 1.387 . S
C559 H562 0.950 . S
C560 C559 1.387 . S
C560 C563 1.387 . S
H561 C557 0.950 . S
H562 C559 0.950 . S
C563 C554 1.390 . S
C563 H556 0.950 . S
C563 C560 1.387 . S
C564 C565 1.387 . S
C564 H568 0.950 . S
C564 C573 1.390 . S
C565 C564 1.387 . S
C565 C567 1.387 . S
H566 C573 0.950 . S
C567 C565 1.387 . S
C567 C569 1.390 . S
C567 H571 0.950 . S
H568 C564 0.950 . S
C569 C567 1.390 . S
C569 C570 1.387 . S
C569 H572 0.950 . S
C570 C569 1.387 . S
C570 C573 1.387 . S
H571 C567 0.950 . S
H572 C569 0.950 . S
C573 C564 1.390 . S
C573 H566 0.950 . S
C573 C570 1.387 . S
C574 C575 1.387 . S
C574 H578 0.950 . S
C574 C583 1.390 . S
C575 C574 1.387 . S
C575 C577 1.387 . S
H576 C583 0.950 . S
C577 C575 1.387 . S
C577 C579 1.390 . S
C577 H581 0.950 . S
H578 C574 0.950 . S
C579 C577 1.390 . S
C579 C580 1.387 . S
C579 H582 0.950 . S
C580 C579 1.387 . S
C580 C583 1.387 . S
H581 C577 0.950 . S
H582 C579 0.950 . S
C583 C574 1.390 . S
C583 H576 0.950 . S
C583 C580 1.387 . S
C584 C585 1.387 . S
C584 H588 0.950 . S
C584 C593 1.390 . S
C585 C584 1.387 . S
C585 C587 1.387 . S
H586 C593 0.950 . S
C587 C585 1.387 . S
C587 C589 1.390 . S
C587 H591 0.950 . S
H588 C584 0.950 . S
C589 C587 1.390 . S
C589 C590 1.387 . S
C589 H592 0.950 . S
C590 C589 1.387 . S
C590 C593 1.387 . S
H591 C587 0.950 . S
H592 C589 0.950 . S
C593 C584 1.390 . S
C593 H586 0.950 . S
C593 C590 1.387 . S
C594 C595 1.387 . S
C594 H598 0.950 . S
C594 C603 1.390 . S
C595 C594 1.387 . S
C595 C597 1.387 . S
H596 C603 0.950 . S
C597 C595 1.387 . S
C597 C599 1.390 . S
C597 H601 0.950 . S
H598 C594 0.950 . S
C599 C597 1.390 . S
C599 C600 1.387 . S
C599 H602 0.950 . S
C600 C599 1.387 . S
C600 C603 1.387 . S
H601 C597 0.950 . S
H602 C599 0.950 . S
C603 C594 1.390 . S
C603 H596 0.950 . S
C603 C600 1.387 . S
C604 C605 1.387 . S
C604 H608 0.950 . S
C604 C613 1.390 . S
C605 C604 1.387 . S
C605 C607 1.387 . S
H606 C613 0.950 . S
C607 C605 1.387 . S
C607 C609 1.390 . S
C607 H611 0.950 . S
H608 C604 0.950 . S
C609 C607 1.390 . S
C609 C610 1.387 . S
C609 H612 0.950 . S
C610 C609 1.387 . S
C610 C613 1.387 . S
H611 C607 0.950 . S
H612 C609 0.950 . S
C613 C604 1.390 . S
C613 H606 0.950 . S
C613 C610 1.387 . S
C614 C615 1.387 1_455 S
C614 H618 0.950 . S
C614 C623 1.390 . S
C615 C614 1.387 1_655 S
C615 C617 1.387 . S
H616 C623 0.950 . S
C617 C615 1.387 . S
C617 C619 1.390 . S
C617 H621 0.950 . S
H618 C614 0.950 . S
C619 C617 1.390 . S
C619 C620 1.387 1_655 S
C619 H622 0.950 . S
C620 C619 1.387 1_455 S
C620 C623 1.387 . S
H621 C617 0.950 . S
H622 C619 0.950 . S
C623 C614 1.390 . S
C623 H616 0.950 . S
C623 C620 1.387 . S
C265 C7 1.533 . S
C270 C29 1.541 . S
C275 C18 1.327 . S
C280 C40 1.282 . S
C285 C73 1.473 . S
C290 C51 1.480 . S
C295 C62 1.338 . S
C300 C84 1.327 . S
C305 C95 1.347 . S
C310 C139 1.469 . S
C315 C106 1.030 . S
C320 C150 1.018 . S
C325 C117 1.418 . S
C330 C161 1.286 1_565 S
C335 C128 1.352 . S
C340 C172 1.200 . S
C345 C183 1.017 . S
C350 C216 1.186 . S
C355 C238 1.435 . S
C360 C194 1.412 . S
C365 C249 1.458 1_556 S
C370 C205 1.609 . S
C375 C260 1.400 . S
C380 C227 1.380 . S
C385 C93 1.536 . S
C390 C38 1.319 . S
C395 C8 1.546 . S
C400 C107 1.513 . S
C405 C118 1.638 1_545 S
C410 C19 1.558 . S
C415 C30 1.643 . S
C420 C126 1.629 . S
C425 C60 1.350 . S
C430 C137 1.444 . S
C435 C151 1.786 . S
C440 C74 1.786 . S
C445 C82 1.389 . S
C450 C159 1.304 1_565 S
C455 C173 1.644 . S
C460 C49 1.212 . S
C465 C181 1.374 . S
C470 C203 1.953 . S
C475 C217 1.591 . S
C480 C261 1.623 . S
C485 C228 1.507 . S
C490 C236 1.297 . S
C495 C250 1.862 . S
C500 C192 1.796 . S
C505 C225 1.333 . S
C510 C71 1.305 . S
C515 C85 1.691 . S
C520 C195 1.730 . S
C525 C206 1.764 . S
C530 C52 1.632 . S
C535 C63 1.565 . S
C540 C214 1.485 . S
C545 C27 1.438 . S
C550 C258 1.235 . S
C555 C239 1.738 . S
C560 C41 1.635 . S
C565 C5 1.558 . S
C570 C247 1.162 . S
C575 C184 1.648 . S
C580 C16 1.316 . S
C585 C170 1.159 . S
C590 C115 1.442 . S
C595 C129 1.517 . S
C600 C140 1.531 . S
C605 C96 1.685 . S
C610 C148 1.123 . S
C615 C104 1.388 1_655 S
C620 C162 1.790 . S
