# Generated by pormake.
# Topology rob, (6)-cn, num edge types: 1
# Building blocks:
#     Node 0, Type 0, BuildingBlock: PAMTUU_clean_sbu_0, # of connection points: 6
#     Node 1, Type 0, BuildingBlock: PAMTUU_clean_sbu_0, # of connection points: 6
#     Node 2, Type 0, BuildingBlock: PAMTUU_clean_sbu_0, # of connection points: 6
#     Node 3, Type 0, BuildingBlock: PAMTUU_clean_sbu_0, # of connection points: 6
#     Edge 4, Type (0, 0), BuildingBlock: ZUJKAS_clean_linker_0, # of connection points: 2
#     Edge 5, Type (0, 0), BuildingBlock: ZUJKAS_clean_linker_0, # of connection points: 2
#     Edge 6, Type (0, 0), BuildingBlock: ZUJKAS_clean_linker_0, # of connection points: 2
#     Edge 7, Type (0, 0), BuildingBlock: ZUJKAS_clean_linker_0, # of connection points: 2
#     Edge 8, Type (0, 0), BuildingBlock: ZUJKAS_clean_linker_0, # of connection points: 2
#     Edge 9, Type (0, 0), BuildingBlock: ZUJKAS_clean_linker_0, # of connection points: 2
#     Edge 10, Type (0, 0), BuildingBlock: ZUJKAS_clean_linker_0, # of connection points: 2
#     Edge 11, Type (0, 0), BuildingBlock: ZUJKAS_clean_linker_0, # of connection points: 2
#     Edge 12, Type (0, 0), BuildingBlock: ZUJKAS_clean_linker_0, # of connection points: 2
#     Edge 13, Type (0, 0), BuildingBlock: ZUJKAS_clean_linker_0, # of connection points: 2
#     Edge 14, Type (0, 0), BuildingBlock: ZUJKAS_clean_linker_0, # of connection points: 2
#     Edge 15, Type (0, 0), BuildingBlock: ZUJKAS_clean_linker_0, # of connection points: 2
# Relax obj value: 0.105
# Max RMSD: 0.190
# Mean RMSD: 0.190
data_MOF--net-rob--node1-PAMTUU_clean_sbu_0--edge1-ZUJKAS_clean_linker_0
_symmetry_space_group_name_H-M    P1
_symmetry_Int_Tables_number       1
_symmetry_cell_setting            triclinic
loop_
_symmetry_equiv_pos_as_xyz
'x, y, z'
_cell_length_a     21.490594
_cell_length_b     32.709357
_cell_length_c     44.527173
_cell_angle_alpha  90.036832
_cell_angle_beta   58.88133
_cell_angle_gamma 90.079226
loop_
_atom_site_label
_atom_site_type_symbol
_atom_site_fract_x
_atom_site_fract_y
_atom_site_fract_z
_atom_type_partial_charge
Tb0 Tb 0.18556 0.27508 0.98813 0.0
Tb1 Tb 0.30052 0.22391 0.00318 0.0
C2 C 0.3135 0.31871 0.98951 0.0
C3 C 0.08459 0.30632 0.9448 0.0
C4 C 0.05808 0.29882 0.88907 0.0
C5 C 0.07758 0.33673 0.89677 0.0
C6 C 0.09038 0.34044 0.92442 0.0
C7 C 0.06504 0.26833 0.9372 0.0
C8 C 0.05148 0.2647 0.90974 0.0
C9 C 0.10147 0.31091 0.97291 0.0
O10 O 0.28254 0.2624 0.93787 0.0
O11 O 0.32877 0.20602 0.95069 0.0
O12 O 0.20514 0.18618 0.01865 0.0
O13 O 0.17319 0.21094 0.98058 0.0
O14 O 0.40529 0.21221 0.99412 0.0
O15 O 0.31262 0.17763 0.03232 0.0
O16 O 0.23804 0.26326 0.04783 0.0
O17 O 0.13462 0.26996 0.04498 0.0
O18 O 0.24486 0.32081 0.99867 0.0
O19 O 0.34821 0.28366 0.98265 0.0
C20 C 0.32316 0.22937 0.9282 0.0
O21 O 0.08085 0.28154 0.99601 0.0
O22 O 0.16696 0.32358 0.96282 0.0
C23 C 0.17301 0.18161 0.00059 0.0
C24 C 0.40349 0.19017 0.0453 0.0
C25 C 0.43376 0.19524 0.09985 0.0
C26 C 0.44899 0.15931 0.07985 0.0
C27 C 0.434 0.15685 0.05285 0.0
C28 C 0.38938 0.22645 0.06466 0.0
C29 C 0.40476 0.22904 0.09161 0.0
C30 C 0.3813 0.18528 0.01927 0.0
C31 C 0.16902 0.27239 0.06226 0.0
H32 H 0.08236 0.36366 0.88157 0.0
H33 H 0.10543 0.37001 0.92973 0.0
H34 H 0.06083 0.24133 0.95223 0.0
H35 H 0.03722 0.23501 0.90423 0.0
H36 H 0.47218 0.13295 0.0852 0.0
H37 H 0.44488 0.12854 0.03832 0.0
H38 H 0.36499 0.25238 0.05946 0.0
H39 H 0.39182 0.25701 0.10671 0.0
Tb40 Tb 0.7087 0.76469 0.99941 0.0
Tb41 Tb 0.81329 0.70754 0.01727 0.0
C42 C 0.84006 0.80039 0.00244 0.0
C43 C 0.6099 0.8014 0.95634 0.0
C44 C 0.57521 0.79453 0.90334 0.0
C45 C 0.56322 0.83135 0.92195 0.0
C46 C 0.58044 0.83471 0.94816 0.0
C47 C 0.62067 0.76428 0.93843 0.0
C48 C 0.60321 0.76082 0.91225 0.0
C49 C 0.63461 0.80685 0.98139 0.0
O50 O 0.76698 0.72324 0.95588 0.0
O51 O 0.86752 0.71081 0.96015 0.0
O52 O 0.75008 0.66498 0.00642 0.0
O53 O 0.6527 0.70678 0.02044 0.0
O54 O 0.91522 0.69621 0.01141 0.0
O55 O 0.82256 0.65834 0.04505 0.0
O56 O 0.71418 0.72251 0.06595 0.0
O57 O 0.68351 0.7834 0.05135 0.0
O58 O 0.80846 0.79803 0.98398 0.0
O59 O 0.83421 0.77077 0.02351 0.0
C60 C 0.83436 0.71099 0.94223 0.0
O61 O 0.60615 0.78287 0.00872 0.0
O62 O 0.70466 0.81005 0.96722 0.0
C63 C 0.68232 0.67025 0.01484 0.0
C64 C 0.90419 0.6721 0.06404 0.0
C65 C 0.92728 0.67889 0.12087 0.0
C66 C 0.93593 0.64112 0.10396 0.0
C67 C 0.92459 0.63781 0.0758 0.0
C68 C 0.89537 0.70989 0.0808 0.0
C69 C 0.90721 0.7133 0.10883 0.0
C70 C 0.88933 0.66769 0.03536 0.0
C71 C 0.6812 0.75808 0.07477 0.0
H72 H 0.54083 0.85771 0.91611 0.0
H73 H 0.57209 0.86365 0.96158 0.0
H74 H 0.64414 0.73831 0.94414 0.0
H75 H 0.61381 0.73217 0.89822 0.0
H76 H 0.95205 0.61414 0.11234 0.0
H77 H 0.9313 0.60836 0.06333 0.0
H78 H 0.8787 0.73667 0.07242 0.0
H79 H 0.89925 0.7427 0.12152 0.0
Tb80 Tb 0.31561 0.76896 0.51644 0.0
Tb81 Tb 0.20691 0.71475 0.49884 0.0
C82 C 0.19491 0.81063 0.50793 0.0
C83 C 0.40977 0.80252 0.56287 0.0
C84 C 0.43807 0.79634 0.6182 0.0
C85 C 0.4284 0.83474 0.60688 0.0
C86 C 0.41462 0.83774 0.57949 0.0
C87 C 0.41854 0.76404 0.57425 0.0
C88 C 0.43284 0.76101 0.6015 0.0
C89 C 0.39424 0.80661 0.53431 0.0
O90 O 0.21288 0.759 0.56477 0.0
O91 O 0.17658 0.69881 0.55205 0.0
O92 O 0.30103 0.67767 0.48624 0.0
O93 O 0.32891 0.70513 0.52506 0.0
O94 O 0.10255 0.69998 0.50873 0.0
O95 O 0.1976 0.66886 0.46843 0.0
O96 O 0.27481 0.75081 0.45261 0.0
O97 O 0.37236 0.76364 0.45944 0.0
O98 O 0.26185 0.81327 0.50135 0.0
O99 O 0.16011 0.77553 0.51487 0.0
C100 C 0.1753 0.72489 0.57479 0.0
O101 O 0.41799 0.7776 0.51081 0.0
O102 O 0.32828 0.81758 0.54381 0.0
C103 C 0.33174 0.67491 0.50506 0.0
C104 C 0.10311 0.67929 0.45749 0.0
C105 C 0.06427 0.68598 0.40588 0.0
C106 C 0.06246 0.6479 0.42109 0.0
C107 C 0.08157 0.64467 0.44662 0.0
C108 C 0.10479 0.71745 0.44268 0.0
C109 C 0.08528 0.7208 0.4172 0.0
C110 C 0.12802 0.67439 0.48252 0.0
C111 C 0.3428 0.76154 0.4399 0.0
H112 H 0.43052 0.8626 0.61947 0.0
H113 H 0.40734 0.8677 0.57138 0.0
H114 H 0.41452 0.73631 0.56204 0.0
H115 H 0.44073 0.73094 0.60915 0.0
H116 H 0.04807 0.62028 0.41265 0.0
H117 H 0.08085 0.61487 0.45742 0.0
H118 H 0.12192 0.74454 0.45053 0.0
H119 H 0.08663 0.75067 0.40642 0.0
Tb120 Tb 0.80042 0.25751 0.50339 0.0
Tb121 Tb 0.69381 0.20263 0.48533 0.0
C122 C 0.66937 0.29513 0.50132 0.0
C123 C 0.89733 0.29256 0.54784 0.0
C124 C 0.92942 0.28547 0.60168 0.0
C125 C 0.95082 0.32034 0.58001 0.0
C126 C 0.93485 0.32381 0.55339 0.0
C127 C 0.87679 0.25738 0.56891 0.0
C128 C 0.89271 0.25385 0.59558 0.0
C129 C 0.87512 0.29839 0.52193 0.0
O130 O 0.74211 0.21526 0.54628 0.0
O131 O 0.64047 0.20596 0.5424 0.0
O132 O 0.75734 0.15881 0.49486 0.0
O133 O 0.85559 0.19992 0.48091 0.0
O134 O 0.59046 0.19203 0.49259 0.0
O135 O 0.68217 0.15465 0.45713 0.0
O136 O 0.79165 0.21824 0.43626 0.0
O137 O 0.82736 0.27712 0.45147 0.0
O138 O 0.70096 0.29141 0.51968 0.0
O139 O 0.67457 0.26633 0.47971 0.0
C140 C 0.67388 0.20464 0.56018 0.0
O141 O 0.90312 0.27365 0.49513 0.0
O142 O 0.80561 0.30304 0.53516 0.0
C143 C 0.82553 0.16356 0.48598 0.0
C144 C 0.59748 0.16978 0.44018 0.0
C145 C 0.56865 0.17889 0.38525 0.0
C146 C 0.5781 0.13984 0.39564 0.0
C147 C 0.59217 0.13539 0.42284 0.0
C148 C 0.5885 0.20886 0.42987 0.0
C149 C 0.57387 0.21335 0.40284 0.0
C150 C 0.61503 0.16436 0.46793 0.0
C151 C 0.82797 0.25284 0.4278 0.0
H152 H 0.97809 0.34557 0.58425 0.0
H153 H 0.95039 0.35137 0.53763 0.0
H154 H 0.8474 0.23298 0.5651 0.0
H155 H 0.87611 0.2264 0.61146 0.0
H156 H 0.5759 0.11263 0.38237 0.0
H157 H 0.59971 0.105 0.43011 0.0
H158 H 0.59295 0.23596 0.44264 0.0
H159 H 0.56607 0.24386 0.39595 0.0
H160 H 0.54233 0.66874 0.02889 0.0
H161 H 0.47474 0.60963 0.02694 0.0
H162 H 0.65841 0.53189 0.99976 0.0
H163 H 0.72611 0.59048 0.0021 0.0
H164 H 0.51458 0.55973 0.96894 0.0
H165 H 0.48931 0.46987 0.08034 0.0
H166 H 0.51373 0.52336 0.07406 0.0
H167 H 0.58087 0.48504 0.04908 0.0
C168 C 0.56812 0.639 0.02291 0.0
C169 C 0.63959 0.63432 0.01576 0.0
C170 C 0.52942 0.60531 0.02175 0.0
C171 C 0.56131 0.5664 0.01366 0.0
C172 C 0.63233 0.56155 0.00678 0.0
H173 H 0.45297 0.32631 0.97528 0.0
H174 H 0.51175 0.38783 0.98014 0.0
C175 C 0.67105 0.59516 0.00795 0.0
C176 C 0.52189 0.53116 0.01058 0.0
H177 H 0.46082 0.43514 0.04187 0.0
C178 C 0.50218 0.53259 0.98506 0.0
C179 C 0.50597 0.4959 0.03168 0.0
C180 C 0.52291 0.49346 0.06056 0.0
C181 C 0.46874 0.4991 0.97937 0.0
C182 C 0.45396 0.46361 1.00008 0.0
C183 C 0.47276 0.46239 0.02591 0.0
C184 C 0.4193 0.42718 0.99532 0.0
C185 C 0.45132 0.50152 0.95065 0.0
C186 C 0.34795 0.42911 0.00216 0.0
C187 C 0.31418 0.39406 0.99933 0.0
C188 C 0.35112 0.35642 0.98982 0.0
C189 C 0.42301 0.35479 0.98255 0.0
C190 C 0.45667 0.38986 0.9854 0.0
H191 H 0.48116 0.52681 0.932 0.0
H192 H 0.46488 0.47236 0.93578 0.0
H193 H 0.39224 0.50708 0.96253 0.0
H194 H 0.31784 0.45753 0.01044 0.0
H195 H 0.25863 0.39636 0.00532 0.0
H196 H 0.39652 0.65602 0.54252 0.0
H197 H 0.45393 0.59136 0.54234 0.0
H198 H 0.40495 0.54173 0.46713 0.0
H199 H 0.34814 0.60614 0.46679 0.0
H200 H 0.389 0.51231 0.55924 0.0
H201 H 0.62404 0.52013 0.42253 0.0
H202 H 0.56939 0.56423 0.44533 0.0
H203 H 0.53706 0.52723 0.42668 0.0
C204 C 0.39836 0.63146 0.52575 0.0
C205 C 0.36805 0.63632 0.50453 0.0
C206 C 0.43104 0.59455 0.52576 0.0
C207 C 0.43442 0.56207 0.50439 0.0
C208 C 0.40402 0.56674 0.48331 0.0
H209 H 0.60113 0.31494 0.46575 0.0
H210 H 0.54062 0.37921 0.46833 0.0
C211 C 0.37131 0.60355 0.48329 0.0
C212 C 0.46812 0.52285 0.50472 0.0
H213 H 0.60542 0.45721 0.45255 0.0
C214 C 0.43658 0.5003 0.53601 0.0
C215 C 0.52997 0.50736 0.4743 0.0
C216 C 0.56762 0.5311 0.44035 0.0
C217 C 0.46452 0.46212 0.53751 0.0
C218 C 0.52624 0.44657 0.50705 0.0
C219 C 0.5579 0.46921 0.4758 0.0
C220 C 0.55953 0.40704 0.50701 0.0
C221 C 0.42688 0.43832 0.57142 0.0
C222 C 0.59024 0.40154 0.52788 0.0
C223 C 0.62483 0.36488 0.52651 0.0
C224 C 0.62966 0.33316 0.50405 0.0
C225 C 0.59827 0.3387 0.48337 0.0
C226 C 0.56374 0.3754 0.48477 0.0
H227 H 0.37061 0.44944 0.58935 0.0
H228 H 0.42474 0.40524 0.5664 0.0
H229 H 0.4577 0.44192 0.58499 0.0
H230 H 0.58872 0.42592 0.54472 0.0
H231 H 0.64869 0.3617 0.54266 0.0
H232 H 0.15883 0.11415 0.04003 0.0
H233 H 0.10568 0.04799 0.03986 0.0
H234 H 0.05568 0.09351 0.96386 0.0
H235 H 0.10891 0.15962 0.96361 0.0
H236 H 0.96125 0.03123 0.05521 0.0
H237 H 0.17163 0.98714 0.91932 0.0
H238 H 0.1856 0.02727 0.94311 0.0
H239 H 0.13227 0.03676 0.92335 0.0
C240 C 0.1365 0.11013 0.02328 0.0
C241 C 0.1384 0.14211 0.00171 0.0
C242 C 0.10622 0.07233 0.02323 0.0
C243 C 0.07792 0.0658 0.00145 0.0
C244 C 0.07853 0.0978 0.98037 0.0
H245 H 0.86311 0.86838 0.96222 0.0
H246 H 0.92234 0.93213 0.96249 0.0
C247 C 0.10858 0.13562 0.98044 0.0
C248 C 0.04663 0.02569 0.00113 0.0
H249 H 0.06627 0.94526 0.94807 0.0
C250 C 0.98437 0.01223 0.03191 0.0
C251 C 0.07714 0.00117 0.97061 0.0
C252 C 0.14572 0.01353 0.93726 0.0
C253 C 0.95053 0.9752 0.03274 0.0
C254 C 0.98072 0.95082 0.00213 0.0
C255 C 0.04336 0.96413 0.97144 0.0
C256 C 0.94725 0.91169 0.0013 0.0
C257 C 0.88171 0.96299 0.06604 0.0
C258 C 0.9431 0.8789 0.02254 0.0
C259 C 0.90934 0.84243 0.02247 0.0
C260 C 0.87941 0.83811 0.00103 0.0
C261 C 0.88535 0.87073 0.97913 0.0
C262 C 0.91919 0.90717 0.97921 0.0
H263 H 0.85672 0.98922 0.08431 0.0
H264 H 0.84125 0.95025 0.06014 0.0
H265 H 0.89452 0.939 0.07963 0.0
H266 H 0.96568 0.88162 0.03929 0.0
H267 H 0.90602 0.81785 0.03953 0.0
H268 H 0.96453 0.16162 0.47308 0.0
H269 H 0.03243 0.10196 0.47341 0.0
H270 H 0.85168 0.02399 0.49541 0.0
H271 H 0.78343 0.08332 0.49481 0.0
H272 H 0.98852 0.04888 0.53056 0.0
H273 H 0.02675 0.96589 0.41341 0.0
H274 H 1.00185 0.01924 0.42126 0.0
H275 H 0.93437 0.98029 0.44404 0.0
C276 C 0.93941 0.13175 0.47757 0.0
C277 C 0.8685 0.12724 0.48388 0.0
C278 C 0.97833 0.09773 0.47779 0.0
C279 C 0.94733 0.05861 0.48404 0.0
C280 C 0.87702 0.05388 0.48989 0.0
H281 H 0.05983 0.81682 0.5164 0.0
H282 H 1.00175 0.87807 0.51079 0.0
C283 C 0.83798 0.08788 0.48972 0.0
C284 C 0.98678 0.02305 0.48651 0.0
H285 H 0.05455 0.92929 0.4512 0.0
C286 C 1.00356 0.02284 0.51306 0.0
C287 C 0.00606 0.98922 0.46363 0.0
C288 C 0.99199 0.98866 0.43376 0.0
C289 C 0.03751 0.98909 0.51797 0.0
C290 C 0.05603 0.95505 0.49535 0.0
C291 C 0.03997 0.95545 0.46855 0.0
C292 C 0.0912 0.9184 0.49937 0.0
C293 C 0.05141 0.98964 0.54791 0.0
C294 C 0.16086 0.9209 0.49464 0.0
C295 C 0.19424 0.88599 0.49793 0.0
C296 C 0.15858 0.84794 0.50582 0.0
C297 C 0.08872 0.84564 0.5105 0.0
C298 C 0.05547 0.88056 0.5072 0.0
H299 H 0.01897 0.01359 0.56755 0.0
H300 H 0.03842 0.95953 0.56133 0.0
H301 H 0.10977 -0.00386 0.53747 0.0
H302 H 0.18977 0.94976 0.48798 0.0
H303 H 0.24824 0.88881 0.49393 0.0
H304 H 0.48473 0.12994 0.36987 0.0
H305 H 0.46395 0.13633 0.32112 0.0
H306 H 0.59409 0.24601 0.28692 0.0
H307 H 0.61857 0.23866 0.33445 0.0
H308 H 0.39883 0.19574 0.30531 0.0
H309 H 0.68595 0.18171 0.19697 0.0
H310 H 0.65738 0.17033 0.24194 0.0
H311 H 0.67097 0.22247 0.22696 0.0
C312 C 0.51006 0.15508 0.35168 0.0
C313 C 0.55398 0.18355 0.35607 0.0
C314 C 0.49751 0.15889 0.32395 0.0
C315 C 0.52844 0.19124 0.29991 0.0
C316 C 0.57098 0.22024 0.30459 0.0
H317 H 0.49495 0.25713 0.11783 0.0
H318 H 0.5159 0.25866 0.16707 0.0
C319 C 0.58404 0.21629 0.33218 0.0
C320 C 0.51501 0.19479 0.27038 0.0
H321 H 0.59974 0.19859 0.18092 0.0
C322 C 0.44282 0.19631 0.27813 0.0
C323 C 0.5724 0.1956 0.23483 0.0
C324 C 0.651 0.19206 0.22457 0.0
C325 C 0.4265 0.19864 0.25142 0.0
C326 C 0.4838 0.19919 0.21597 0.0
C327 C 0.55596 0.19834 0.20815 0.0
C328 C 0.46984 0.1988 0.18662 0.0
C329 C 0.34802 0.20071 0.26128 0.0
C330 C 0.43755 0.16453 0.18117 0.0
C331 C 0.42579 0.16351 0.1531 0.0
C332 C 0.44604 0.19678 0.12984 0.0
C333 C 0.47818 0.23118 0.13543 0.0
C334 C 0.49047 0.23203 0.16343 0.0
H335 H 0.31167 0.20965 0.28916 0.0
H336 H 0.34104 0.22286 0.24435 0.0
H337 H 0.33062 0.17018 0.25744 0.0
H338 H 0.42199 0.13837 0.19852 0.0
H339 H 0.40023 0.13674 0.14977 0.0
H340 H 0.62558 0.70752 0.13084 0.0
H341 H 0.57886 0.72578 0.19183 0.0
H342 H 0.61252 0.8536 0.16382 0.0
H343 H 0.65803 0.8354 0.1023 0.0
H344 H 0.6555 0.76635 0.21696 0.0
H345 H 0.4043 0.85112 0.24792 0.0
H346 H 0.45282 0.81961 0.20928 0.0
H347 H 0.48891 0.86846 0.21108 0.0
C348 C 0.62217 0.73957 0.13767 0.0
C349 C 0.64517 0.77007 0.11192 0.0
C350 C 0.59579 0.74995 0.1725 0.0
C351 C 0.59238 0.791 0.18231 0.0
C352 C 0.61389 0.82177 0.15683 0.0
H353 H 0.47332 0.80259 0.40482 0.0
H354 H 0.54219 0.82082 0.34232 0.0
C355 C 0.63965 0.81136 0.1218 0.0
C356 C 0.56748 0.80042 0.21931 0.0
H357 H 0.42138 0.83644 0.29462 0.0
C358 C 0.60497 0.78233 0.23398 0.0
C359 C 0.50194 0.82157 0.24117 0.0
C360 C 0.45915 0.84119 0.22679 0.0
C361 C 0.57552 0.78168 0.27034 0.0
C362 C 0.50768 0.80069 0.29243 0.0
C363 C 0.47333 0.82184 0.27751 0.0
C364 C 0.46562 0.79291 0.33065 0.0
C365 C 0.61438 0.75785 0.28483 0.0
C366 C 0.39924 0.77211 0.34484 0.0
C367 C 0.35975 0.76214 0.38027 0.0
C368 C 0.38595 0.77254 0.40239 0.0
C369 C 0.45222 0.79378 0.38832 0.0
C370 C 0.49158 0.80418 0.35267 0.0
H371 H 0.66052 0.73976 0.26426 0.0
H372 H 0.63621 0.77937 0.29642 0.0
H373 H 0.57624 0.73666 0.30582 0.0
H374 H 0.37843 0.76288 0.32828 0.0
H375 H 0.30899 0.74572 0.39017 0.0
H376 H 0.60731 0.8512 0.85214 0.0
H377 H 0.58309 0.84735 0.80424 0.0
H378 H 0.48828 0.72782 0.83941 0.0
H379 H 0.51127 0.73167 0.88788 0.0
H380 H 0.63313 0.78521 0.75013 0.0
H381 H 0.33154 0.79432 0.83175 0.0
H382 H 0.3896 0.80961 0.84801 0.0
H383 H 0.37446 0.75638 0.84425 0.0
C384 C 0.58054 0.82425 0.84998 0.0
C385 C 0.56067 0.79188 0.87407 0.0
C386 C 0.5672 0.822 0.82242 0.0
C387 C 0.53317 0.78753 0.81849 0.0
C388 C 0.51376 0.75495 0.84224 0.0
H389 H 0.38873 0.7387 0.67072 0.0
H390 H 0.415 0.73393 0.71789 0.0
C391 C 0.52747 0.75707 0.86975 0.0
C392 C 0.51904 0.78568 0.78918 0.0
H393 H 0.38306 0.78591 0.77083 0.0
C394 C 0.57848 0.78529 0.75461 0.0
C395 C 0.44771 0.7855 0.79512 0.0
C396 C 0.38194 0.78676 0.83174 0.0
C397 C 0.56859 0.78466 0.72577 0.0
C398 C 0.49721 0.7856 0.73163 0.0
C399 C 0.43774 0.78531 0.76628 0.0
C400 C 0.48303 0.7879 0.70227 0.0
C401 C 0.63483 0.78231 0.68933 0.0
C402 C 0.51189 0.82002 0.67787 0.0
C403 C 0.49789 0.82252 0.65054 0.0
C404 C 0.45365 0.79328 0.6472 0.0
C405 C 0.42406 0.76138 0.67198 0.0
C406 C 0.43853 0.75878 0.69921 0.0
H407 H 0.68188 0.76876 0.68965 0.0
H408 H 0.62395 0.76385 0.6716 0.0
H409 H 0.65051 0.81363 0.67837 0.0
H410 H 0.54492 0.84346 0.6801 0.0
H411 H 0.5223 0.8473 0.63187 0.0
H412 H 0.53089 0.21739 0.6092 0.0
H413 H 0.47323 0.20836 0.67281 0.0
H414 H 0.67028 0.15407 0.65779 0.0
H415 H 0.72893 0.16472 0.59456 0.0
H416 H 0.44476 0.14567 0.71818 0.0
H417 H 0.64855 0.25085 0.71796 0.0
H418 H 0.6413 0.24329 0.6798 0.0
H419 H 0.68732 0.20623 0.6913 0.0
C420 C 0.56128 0.20293 0.61953 0.0
C421 C 0.63449 0.19237 0.59724 0.0
C422 C 0.52848 0.19782 0.65578 0.0
C423 C 0.5683 0.18163 0.67001 0.0
C424 C 0.63943 0.16784 0.64742 0.0
H425 H 0.43607 0.17541 0.89306 0.0
H426 H 0.49756 0.15703 0.8306 0.0
C427 C 0.67264 0.17371 0.61135 0.0
C428 C 0.53714 0.18198 0.70839 0.0
H429 H 0.56092 0.22287 0.77239 0.0
C430 C 0.47042 0.16227 0.73002 0.0
C431 C 0.57079 0.20382 0.72377 0.0
C432 C 0.64055 0.22757 0.70208 0.0
C433 C 0.4357 0.16451 0.76667 0.0
C434 C 0.46873 0.18691 0.78185 0.0
C435 C 0.53647 0.20538 0.7604 0.0
C436 C 0.43 0.19571 0.81971 0.0
C437 C 0.36317 0.14378 0.78902 0.0
C438 C 0.37268 0.22378 0.83374 0.0
C439 C 0.3384 0.23473 0.86897 0.0
C440 C 0.36069 0.2176 0.89087 0.0
C441 C 0.41779 0.18907 0.8768 0.0
C442 C 0.45276 0.17848 0.84128 0.0
H443 H 0.35219 0.12089 0.77388 0.0
H444 H 0.3607 0.12841 0.81185 0.0
H445 H 0.31948 0.16714 0.79927 0.0
H446 H 0.35517 0.23771 0.81725 0.0
H447 H 0.29416 0.25652 0.87903 0.0
H448 H 0.88051 0.62637 0.17633 0.0
H449 H 0.90077 0.63113 0.22546 0.0
H450 H 0.02113 0.743 0.18265 0.0
H451 H 1.00018 0.73869 0.13367 0.0
H452 H 0.02617 0.63027 0.22508 0.0
H453 H 0.88365 0.77643 0.28297 0.0
H454 H 0.87444 0.74919 0.25022 0.0
H455 H 0.95297 0.78068 0.23751 0.0
C456 C 0.91128 0.65201 0.17737 0.0
C457 C 0.93862 0.6822 0.15109 0.0
C458 C 0.9226 0.65478 0.20556 0.0
C459 C 0.9615 0.68776 0.20815 0.0
C460 C 0.98925 0.71785 0.18183 0.0
H461 H 0.1286 0.73423 0.34668 0.0
H462 H 0.10237 0.73607 0.29932 0.0
C463 C 0.97746 0.71527 0.15374 0.0
C464 C 0.97544 0.68959 0.2376 0.0
H465 H 0.95431 0.74923 0.30544 0.0
C466 C 0.01008 0.65622 0.24272 0.0
C467 C 0.9545 0.72346 0.2607 0.0
C468 C 0.9137 0.7593 0.25786 0.0
C469 C 0.02493 0.65597 0.26996 0.0
C470 C 0.00442 0.68987 0.29283 0.0
C471 C 0.97019 0.72336 0.28773 0.0
C472 C 0.01723 0.69056 0.32253 0.0
C473 C 0.06318 0.61961 0.27397 0.0
C474 C 0.97695 0.66499 0.3516 0.0
C475 C 0.99106 0.6642 0.37895 0.0
C476 C 0.04613 0.68885 0.37774 0.0
C477 C 0.08527 0.71516 0.34882 0.0
C478 C 0.0707 0.71611 0.32157 0.0
H479 H 0.0865 0.59915 0.25073 0.0
H480 H 0.10748 0.62983 0.27813 0.0
H481 H 0.02383 0.6017 0.29735 0.0
H482 H 0.93482 0.6454 0.35301 0.0
H483 H 0.95872 0.6442 0.40104 0.0
H484 H 0.86431 0.20381 0.37187 0.0
H485 H 0.92695 0.22286 0.31018 0.0
H486 H 0.94628 0.34707 0.33684 0.0
H487 H 0.88318 0.32826 0.39927 0.0
H488 H 0.888 0.33167 0.28774 0.0
H489 H 0.14995 0.25616 0.24944 0.0
H490 H 0.07072 0.22569 0.27693 0.0
H491 H 0.08599 0.27201 0.29392 0.0
C492 C 0.88199 0.2352 0.36477 0.0
C493 C 0.86901 0.26454 0.39044 0.0
C494 C 0.91786 0.24596 0.3295 0.0
C495 C 0.94131 0.28621 0.31917 0.0
C496 C 0.92856 0.31579 0.34453 0.0
H497 H 0.2268 0.31398 0.09461 0.0
H498 H 0.1697 0.32879 0.15706 0.0
C499 C 0.89298 0.30495 0.38003 0.0
C500 C 0.9786 0.29663 0.28165 0.0
H501 H 0.12697 0.27014 0.20348 0.0
C502 C 0.94095 0.31906 0.26919 0.0
C503 C 0.04774 0.28039 0.25779 0.0
C504 C 0.09142 0.2575 0.27012 0.0
C505 C 0.96928 0.3237 0.23304 0.0
C506 C 0.03615 0.30481 0.2091 0.0
C507 C 0.07543 0.28442 0.2218 0.0
C508 C 0.06515 0.30335 0.17089 0.0
C509 C 0.92688 0.3482 0.22092 0.0
C510 C 0.02463 0.2852 0.15775 0.0
C511 C 0.05699 0.27717 0.12186 0.0
C512 C 0.13066 0.28631 0.09892 0.0
C513 C 0.17003 0.30616 0.11188 0.0
C514 C 0.13745 0.3148 0.1475 0.0
H515 H 0.89236 0.37154 0.24071 0.0
H516 H 0.96349 0.36377 0.19559 0.0
H517 H 0.89041 0.32738 0.21733 0.0
H518 H 0.96931 0.27517 0.1754 0.0
H519 H 0.02576 0.26164 0.11245 0.0
H520 H 0.05117 0.31003 0.60206 0.0
H521 H 0.07138 0.30935 0.6513 0.0
H522 H 0.86091 0.25421 0.71705 0.0
H523 H 0.83946 0.25544 0.66817 0.0
H524 H 0.98099 0.34851 0.71792 0.0
H525 H 1.00122 0.1808 0.73131 0.0
H526 H 0.012 0.2038 0.69201 0.0
H527 H 0.923 0.19792 0.73017 0.0
C528 C 0.009 0.29782 0.62699 0.0
C529 C 0.94362 0.28282 0.63107 0.0
C530 C 0.02086 0.29726 0.65505 0.0
C531 C 0.96801 0.28135 0.68771 0.0
C532 C 0.90302 0.26593 0.69188 0.0
H533 H 0.94659 0.2591 0.88823 0.0
H534 H 0.92366 0.25501 0.83979 0.0
C535 C 0.89095 0.26659 0.66384 0.0
C536 C 0.9797 0.28274 0.71778 0.0
H537 H 1.0019 0.22282 0.77438 0.0
C538 C 0.98576 0.32105 0.73024 0.0
C539 C 0.98522 0.24687 0.73397 0.0
C540 C 0.9806 0.20494 0.72112 0.0
C541 C 0.99658 0.32453 0.75866 0.0
C542 C 1.00357 0.28866 0.77449 0.0
C543 C 0.99681 0.2503 0.7622 0.0
C544 C 0.01847 0.29035 0.80361 0.0
C545 C 0.9987 0.36669 0.77193 0.0
C546 C 0.08015 0.31081 0.79921 0.0
C547 C 0.09303 0.31342 0.82689 0.0
C548 C 0.04514 0.29503 0.85942 0.0
C549 C 0.9846 0.27346 0.86346 0.0
C550 C 0.97137 0.27119 0.83583 0.0
H551 H 0.97084 0.38952 0.76446 0.0
H552 H 0.97277 0.36694 0.80091 0.0
H553 H 0.05613 0.3765 0.76013 0.0
H554 H 0.11852 0.32476 0.7743 0.0
H555 H 0.14092 0.32954 0.82274 0.0
H556 H 0.11275 0.65191 0.60663 0.0
H557 H 0.04944 0.63652 0.66968 0.0
H558 H 0.08182 0.76086 0.69093 0.0
H559 H 0.14447 0.77659 0.62857 0.0
H560 H 0.10877 0.64881 0.71658 0.0
H561 H 0.85886 0.73787 0.75517 0.0
H562 H 0.91986 0.72082 0.71072 0.0
H563 H 0.94176 0.76525 0.72727 0.0
C564 C 0.10567 0.67604 0.62481 0.0
C565 C 0.13331 0.71551 0.61265 0.0
C566 C 0.06995 0.66712 0.66069 0.0
C567 C 0.06075 0.69769 0.68474 0.0
C568 C 0.08786 0.73704 0.67269 0.0
H569 H 0.97924 0.71685 0.89276 0.0
H570 H 0.03542 0.70444 0.82962 0.0
C571 C 0.12376 0.7459 0.63701 0.0
C572 C 0.02375 0.68902 0.72263 0.0
H573 H 0.88115 0.72081 0.80085 0.0
C574 C 0.05831 0.66388 0.73515 0.0
C575 C 0.95776 0.70848 0.74653 0.0
C576 C 0.91691 0.73433 0.73431 0.0
C577 C 0.03002 0.65927 0.7713 0.0
C578 C 0.96637 0.68086 0.79521 0.0
C579 C 0.93024 0.70444 0.78252 0.0
C580 C 0.93704 0.68121 0.83347 0.0
C581 C 0.06881 0.63168 0.78349 0.0
C582 C 0.86351 0.67196 0.85653 0.0
C583 C 0.83128 0.67986 0.89224 0.0
C584 C 0.87214 0.69681 0.90563 0.0
C585 C 0.94684 0.70354 0.88302 0.0
C586 C 0.97898 0.69621 0.84702 0.0
H587 H 0.10095 0.60792 0.76358 0.0
H588 H 0.10707 0.6502 0.78761 0.0
H589 H 0.0299 0.61639 0.80861 0.0
H590 H 0.8302 0.66038 0.84664 0.0
H591 H 0.77364 0.67397 0.90924 0.0
loop_
_geom_bond_atom_site_label_1
_geom_bond_atom_site_label_2
_geom_bond_distance
_geom_bond_site_symmetry_2
_ccdc_geom_bond_type
Tb0 C9 2.764 . S
Tb0 O10 2.325 . S
Tb0 O13 2.303 1_556 S
Tb0 O17 2.322 1_556 S
Tb0 O18 2.349 . S
Tb0 O21 2.415 . S
Tb0 O22 2.399 . S
Tb1 O11 2.322 1_554 S
Tb1 O12 2.349 . S
Tb1 O14 2.415 . S
Tb1 O15 2.399 . S
Tb1 O16 2.325 . S
Tb1 O19 2.307 . S
Tb1 C30 2.764 . S
C2 O18 1.261 . S
C2 O19 1.254 1_556 S
C3 C6 1.358 . S
C3 C7 1.332 . S
C3 C9 1.504 . S
C4 C5 1.373 . S
C4 C8 1.308 . S
C5 C4 1.373 . S
C5 C6 1.429 . S
C5 H32 0.932 . S
C6 C3 1.358 . S
C6 C5 1.429 . S
C6 H33 0.930 . S
C7 C3 1.332 . S
C7 C8 1.394 . S
C7 H34 0.932 . S
C8 C4 1.308 . S
C8 C7 1.394 . S
C8 H35 0.929 . S
C9 Tb0 2.764 . S
C9 C3 1.504 . S
C9 O21 1.239 . S
C9 O22 1.263 . S
O10 Tb0 2.325 . S
O10 C20 1.236 . S
O11 Tb1 2.322 1_556 S
O11 C20 1.257 . S
O12 Tb1 2.349 . S
O12 C23 1.261 . S
O13 Tb0 2.303 1_554 S
O13 C23 1.257 . S
O14 Tb1 2.415 . S
O14 C30 1.239 . S
O15 Tb1 2.399 . S
O15 C30 1.263 . S
O16 Tb1 2.325 . S
O16 C31 1.236 . S
O17 Tb0 2.322 1_554 S
O17 C31 1.257 . S
O18 Tb0 2.349 . S
O18 C2 1.261 . S
O19 Tb1 2.307 . S
O19 C2 1.254 1_554 S
C20 O10 1.236 . S
C20 O11 1.257 . S
O21 Tb0 2.415 . S
O21 C9 1.239 . S
O22 Tb0 2.399 . S
O22 C9 1.263 . S
C23 O12 1.261 . S
C23 O13 1.257 . S
C24 C27 1.358 . S
C24 C28 1.332 . S
C24 C30 1.504 . S
C25 C26 1.373 . S
C25 C29 1.308 . S
C26 C25 1.373 . S
C26 C27 1.429 . S
C26 H36 0.932 . S
C27 C24 1.358 . S
C27 C26 1.429 . S
C27 H37 0.930 . S
C28 C24 1.332 . S
C28 C29 1.394 . S
C28 H38 0.932 . S
C29 C25 1.308 . S
C29 C28 1.394 . S
C29 H39 0.929 . S
C30 Tb1 2.764 . S
C30 O14 1.239 . S
C30 O15 1.263 . S
C30 C24 1.504 . S
C31 O16 1.236 . S
C31 O17 1.257 . S
H32 C5 0.932 . S
H33 C6 0.930 . S
H34 C7 0.932 . S
H35 C8 0.929 . S
H36 C26 0.932 . S
H37 C27 0.930 . S
H38 C28 0.932 . S
H39 C29 0.929 . S
Tb40 C49 2.764 . S
Tb40 O50 2.325 . S
Tb40 O53 2.303 1_556 S
Tb40 O57 2.322 1_556 S
Tb40 O58 2.349 . S
Tb40 O61 2.415 . S
Tb40 O62 2.399 . S
Tb41 O51 2.322 1_554 S
Tb41 O52 2.349 . S
Tb41 O54 2.415 . S
Tb41 O55 2.399 . S
Tb41 O56 2.325 . S
Tb41 O59 2.307 . S
Tb41 C70 2.764 . S
C42 O58 1.261 . S
C42 O59 1.254 1_556 S
C43 C46 1.358 . S
C43 C47 1.332 . S
C43 C49 1.504 . S
C44 C45 1.373 . S
C44 C48 1.308 . S
C45 C44 1.373 . S
C45 C46 1.429 . S
C45 H72 0.932 . S
C46 C43 1.358 . S
C46 C45 1.429 . S
C46 H73 0.930 . S
C47 C43 1.332 . S
C47 C48 1.394 . S
C47 H74 0.932 . S
C48 C44 1.308 . S
C48 C47 1.394 . S
C48 H75 0.929 . S
C49 Tb40 2.764 . S
C49 C43 1.504 . S
C49 O61 1.239 . S
C49 O62 1.263 . S
O50 Tb40 2.325 . S
O50 C60 1.236 . S
O51 Tb41 2.322 1_556 S
O51 C60 1.257 . S
O52 Tb41 2.349 . S
O52 C63 1.261 . S
O53 Tb40 2.303 1_554 S
O53 C63 1.257 . S
O54 Tb41 2.415 . S
O54 C70 1.239 . S
O55 Tb41 2.399 . S
O55 C70 1.263 . S
O56 Tb41 2.325 . S
O56 C71 1.236 . S
O57 Tb40 2.322 1_554 S
O57 C71 1.257 . S
O58 Tb40 2.349 . S
O58 C42 1.261 . S
O59 Tb41 2.307 . S
O59 C42 1.254 1_554 S
C60 O50 1.236 . S
C60 O51 1.257 . S
O61 Tb40 2.415 . S
O61 C49 1.239 . S
O62 Tb40 2.399 . S
O62 C49 1.263 . S
C63 O52 1.261 . S
C63 O53 1.257 . S
C64 C67 1.358 . S
C64 C68 1.332 . S
C64 C70 1.504 . S
C65 C66 1.373 . S
C65 C69 1.308 . S
C66 C65 1.373 . S
C66 C67 1.429 . S
C66 H76 0.932 . S
C67 C64 1.358 . S
C67 C66 1.429 . S
C67 H77 0.930 . S
C68 C64 1.332 . S
C68 C69 1.394 . S
C68 H78 0.932 . S
C69 C65 1.308 . S
C69 C68 1.394 . S
C69 H79 0.929 . S
C70 Tb41 2.764 . S
C70 O54 1.239 . S
C70 O55 1.263 . S
C70 C64 1.504 . S
C71 O56 1.236 . S
C71 O57 1.257 . S
H72 C45 0.932 . S
H73 C46 0.930 . S
H74 C47 0.932 . S
H75 C48 0.929 . S
H76 C66 0.932 . S
H77 C67 0.930 . S
H78 C68 0.932 . S
H79 C69 0.929 . S
Tb80 C89 2.764 . S
Tb80 O90 2.325 . S
Tb80 O93 2.303 . S
Tb80 O97 2.322 . S
Tb80 O98 2.349 . S
Tb80 O101 2.415 . S
Tb80 O102 2.399 . S
Tb81 O91 2.322 . S
Tb81 O92 2.349 . S
Tb81 O94 2.415 . S
Tb81 O95 2.399 . S
Tb81 O96 2.325 . S
Tb81 O99 2.303 . S
Tb81 C110 2.764 . S
C82 O98 1.261 . S
C82 O99 1.257 . S
C83 C86 1.358 . S
C83 C87 1.332 . S
C83 C89 1.504 . S
C84 C85 1.373 . S
C84 C88 1.308 . S
C85 C84 1.373 . S
C85 C86 1.429 . S
C85 H112 0.932 . S
C86 C83 1.358 . S
C86 C85 1.429 . S
C86 H113 0.930 . S
C87 C83 1.332 . S
C87 C88 1.394 . S
C87 H114 0.932 . S
C88 C84 1.308 . S
C88 C87 1.394 . S
C88 H115 0.929 . S
C89 Tb80 2.764 . S
C89 C83 1.504 . S
C89 O101 1.239 . S
C89 O102 1.263 . S
O90 Tb80 2.325 . S
O90 C100 1.236 . S
O91 Tb81 2.322 . S
O91 C100 1.257 . S
O92 Tb81 2.349 . S
O92 C103 1.261 . S
O93 Tb80 2.303 . S
O93 C103 1.257 . S
O94 Tb81 2.415 . S
O94 C110 1.239 . S
O95 Tb81 2.399 . S
O95 C110 1.263 . S
O96 Tb81 2.325 . S
O96 C111 1.236 . S
O97 Tb80 2.322 . S
O97 C111 1.257 . S
O98 Tb80 2.349 . S
O98 C82 1.261 . S
O99 Tb81 2.303 . S
O99 C82 1.257 . S
C100 O90 1.236 . S
C100 O91 1.257 . S
O101 Tb80 2.415 . S
O101 C89 1.239 . S
O102 Tb80 2.399 . S
O102 C89 1.263 . S
C103 O92 1.261 . S
C103 O93 1.257 . S
C104 C107 1.358 . S
C104 C108 1.332 . S
C104 C110 1.504 . S
C105 C106 1.373 . S
C105 C109 1.308 . S
C106 C105 1.373 . S
C106 C107 1.429 . S
C106 H116 0.932 . S
C107 C104 1.358 . S
C107 C106 1.429 . S
C107 H117 0.930 . S
C108 C104 1.332 . S
C108 C109 1.394 . S
C108 H118 0.932 . S
C109 C105 1.308 . S
C109 C108 1.394 . S
C109 H119 0.929 . S
C110 Tb81 2.764 . S
C110 O94 1.239 . S
C110 O95 1.263 . S
C110 C104 1.504 . S
C111 O96 1.236 . S
C111 O97 1.257 . S
H112 C85 0.932 . S
H113 C86 0.930 . S
H114 C87 0.932 . S
H115 C88 0.929 . S
H116 C106 0.932 . S
H117 C107 0.930 . S
H118 C108 0.932 . S
H119 C109 0.929 . S
Tb120 C129 2.764 . S
Tb120 O130 2.325 . S
Tb120 O133 2.303 . S
Tb120 O137 2.322 . S
Tb120 O138 2.349 . S
Tb120 O141 2.415 . S
Tb120 O142 2.399 . S
Tb121 O131 2.322 . S
Tb121 O132 2.349 . S
Tb121 O134 2.415 . S
Tb121 O135 2.399 . S
Tb121 O136 2.325 . S
Tb121 O139 2.303 . S
Tb121 C150 2.764 . S
C122 O138 1.261 . S
C122 O139 1.257 . S
C123 C126 1.358 . S
C123 C127 1.332 . S
C123 C129 1.504 . S
C124 C125 1.373 . S
C124 C128 1.308 . S
C125 C124 1.373 . S
C125 C126 1.429 . S
C125 H152 0.932 . S
C126 C123 1.358 . S
C126 C125 1.429 . S
C126 H153 0.930 . S
C127 C123 1.332 . S
C127 C128 1.394 . S
C127 H154 0.932 . S
C128 C124 1.308 . S
C128 C127 1.394 . S
C128 H155 0.929 . S
C129 Tb120 2.764 . S
C129 C123 1.504 . S
C129 O141 1.239 . S
C129 O142 1.263 . S
O130 Tb120 2.325 . S
O130 C140 1.236 . S
O131 Tb121 2.322 . S
O131 C140 1.257 . S
O132 Tb121 2.349 . S
O132 C143 1.261 . S
O133 Tb120 2.303 . S
O133 C143 1.257 . S
O134 Tb121 2.415 . S
O134 C150 1.239 . S
O135 Tb121 2.399 . S
O135 C150 1.263 . S
O136 Tb121 2.325 . S
O136 C151 1.236 . S
O137 Tb120 2.322 . S
O137 C151 1.257 . S
O138 Tb120 2.349 . S
O138 C122 1.261 . S
O139 Tb121 2.303 . S
O139 C122 1.257 . S
C140 O130 1.236 . S
C140 O131 1.257 . S
O141 Tb120 2.415 . S
O141 C129 1.239 . S
O142 Tb120 2.399 . S
O142 C129 1.263 . S
C143 O132 1.261 . S
C143 O133 1.257 . S
C144 C147 1.358 . S
C144 C148 1.332 . S
C144 C150 1.504 . S
C145 C146 1.373 . S
C145 C149 1.308 . S
C146 C145 1.373 . S
C146 C147 1.429 . S
C146 H156 0.932 . S
C147 C144 1.358 . S
C147 C146 1.429 . S
C147 H157 0.930 . S
C148 C144 1.332 . S
C148 C149 1.394 . S
C148 H158 0.932 . S
C149 C145 1.308 . S
C149 C148 1.394 . S
C149 H159 0.929 . S
C150 Tb121 2.764 . S
C150 O134 1.239 . S
C150 O135 1.263 . S
C150 C144 1.504 . S
C151 O136 1.236 . S
C151 O137 1.257 . S
H152 C125 0.932 . S
H153 C126 0.930 . S
H154 C127 0.932 . S
H155 C128 0.929 . S
H156 C146 0.932 . S
H157 C147 0.930 . S
H158 C148 0.932 . S
H159 C149 0.929 . S
H160 C168 0.929 . S
H161 C170 0.930 . S
H162 C172 0.930 . S
H163 C175 0.929 . S
H164 C178 0.930 . S
H165 C180 0.960 . S
H166 C180 0.960 1_554 S
H167 C180 0.960 . S
C168 H160 0.929 . S
C168 C169 1.377 . S
C168 C170 1.384 . S
C169 C168 1.377 . S
C169 C175 1.390 1_554 S
C170 H161 0.930 . S
C170 C168 1.384 . S
C170 C171 1.372 . S
C171 C170 1.372 . S
C171 C172 1.400 1_554 S
C171 C176 1.490 . S
C172 H162 0.930 . S
C172 C171 1.400 1_556 S
C172 C175 1.386 . S
H173 C189 0.930 . S
H174 C190 0.931 . S
C175 H163 0.929 . S
C175 C169 1.390 1_556 S
C175 C172 1.386 . S
C176 C171 1.490 . S
C176 C178 1.395 . S
C176 C179 1.401 . S
H177 C183 0.930 1_556 S
C178 H164 0.930 . S
C178 C176 1.395 . S
C178 C181 1.403 . S
C179 C176 1.401 . S
C179 C180 1.530 1_554 S
C179 C183 1.394 . S
C180 H165 0.960 . S
C180 H166 0.960 1_556 S
C180 H167 0.960 . S
C180 C179 1.530 1_556 S
C181 C178 1.403 . S
C181 C182 1.392 . S
C181 C185 1.495 . S
C182 C181 1.392 . S
C182 C183 1.386 . S
C182 C184 1.478 . S
C183 H177 0.930 1_554 S
C183 C179 1.394 . S
C183 C182 1.386 . S
C184 C182 1.478 . S
C184 C186 1.381 . S
C184 C190 1.383 1_554 S
C185 C181 1.495 . S
C185 H191 0.959 . S
C185 H192 0.961 1_554 S
C185 H193 0.960 . S
C186 C184 1.381 . S
C186 C187 1.394 . S
C186 H194 0.930 . S
C187 C186 1.394 . S
C187 C188 1.383 . S
C187 H195 0.929 . S
C188 C187 1.383 . S
C188 C189 1.377 1_554 S
C189 H173 0.930 . S
C189 C188 1.377 1_556 S
C189 C190 1.379 . S
C190 H174 0.931 . S
C190 C184 1.383 1_556 S
C190 C189 1.379 . S
H191 C185 0.959 . S
H192 C185 0.961 1_556 S
H193 C185 0.960 . S
H194 C186 0.930 . S
H195 C187 0.929 . S
H196 C204 0.929 . S
H197 C206 0.930 . S
H198 C208 0.930 . S
H199 C211 0.929 . S
H200 C214 0.930 . S
H201 C216 0.960 . S
H202 C216 0.960 . S
H203 C216 0.960 . S
C204 H196 0.929 . S
C204 C205 1.377 . S
C204 C206 1.384 . S
C205 C204 1.377 . S
C205 C211 1.390 . S
C206 H197 0.930 . S
C206 C204 1.384 . S
C206 C207 1.372 . S
C207 C206 1.372 . S
C207 C208 1.400 . S
C207 C212 1.490 . S
C208 H198 0.930 . S
C208 C207 1.400 . S
C208 C211 1.386 . S
H209 C225 0.930 . S
H210 C226 0.931 . S
C211 H199 0.929 . S
C211 C205 1.390 . S
C211 C208 1.386 . S
C212 C207 1.490 . S
C212 C214 1.395 . S
C212 C215 1.403 . S
H213 C219 0.930 . S
C214 H200 0.930 . S
C214 C212 1.395 . S
C214 C217 1.403 . S
C215 C212 1.403 . S
C215 C216 1.524 . S
C215 C219 1.400 . S
C216 H201 0.960 . S
C216 H202 0.960 . S
C216 H203 0.960 . S
C216 C215 1.524 . S
C217 C214 1.403 . S
C217 C218 1.392 . S
C217 C221 1.495 . S
C218 C217 1.392 . S
C218 C219 1.385 . S
C218 C220 1.478 . S
C219 H213 0.930 . S
C219 C215 1.400 . S
C219 C218 1.385 . S
C220 C218 1.478 . S
C220 C222 1.381 . S
C220 C226 1.383 . S
C221 C217 1.495 . S
C221 H227 0.959 . S
C221 H228 0.961 . S
C221 H229 0.960 . S
C222 C220 1.381 . S
C222 C223 1.394 . S
C222 H230 0.930 . S
C223 C222 1.394 . S
C223 C224 1.383 . S
C223 H231 0.929 . S
C224 C223 1.383 . S
C224 C225 1.377 . S
C225 H209 0.930 . S
C225 C224 1.377 . S
C225 C226 1.379 . S
C226 H210 0.931 . S
C226 C220 1.383 . S
C226 C225 1.379 . S
H227 C221 0.959 . S
H228 C221 0.961 . S
H229 C221 0.960 . S
H230 C222 0.930 . S
H231 C223 0.929 . S
H232 C240 0.929 . S
H233 C242 0.930 . S
H234 C244 0.930 . S
H235 C247 0.929 . S
H236 C250 0.930 . S
H237 C252 0.960 . S
H238 C252 0.960 . S
H239 C252 0.960 1_545 S
C240 H232 0.929 . S
C240 C241 1.397 . S
C240 C242 1.384 . S
C241 C240 1.397 . S
C241 C247 1.358 1_554 S
C242 H233 0.930 . S
C242 C240 1.384 . S
C242 C243 1.372 . S
C243 C242 1.372 . S
C243 C244 1.400 1_554 S
C243 C248 1.490 . S
C244 H234 0.930 . S
C244 C243 1.400 1_556 S
C244 C247 1.386 . S
H245 C261 0.930 . S
H246 C262 0.931 . S
C247 H235 0.929 . S
C247 C241 1.358 1_556 S
C247 C244 1.386 . S
C248 C243 1.490 . S
C248 C250 1.395 1_455 S
C248 C251 1.403 1_544 S
H249 C255 0.930 . S
C250 H236 0.930 . S
C250 C248 1.395 1_655 S
C250 C253 1.403 . S
C251 C248 1.403 1_566 S
C251 C252 1.524 . S
C251 C255 1.400 . S
C252 H237 0.960 . S
C252 H238 0.960 . S
C252 H239 0.960 1_565 S
C252 C251 1.524 . S
C253 C250 1.403 . S
C253 C254 1.392 1_545 S
C253 C257 1.495 . S
C254 C253 1.392 1_565 S
C254 C255 1.385 1_654 S
C254 C256 1.478 . S
C255 H249 0.930 . S
C255 C251 1.400 . S
C255 C254 1.385 1_456 S
C256 C254 1.478 . S
C256 C258 1.381 . S
C256 C262 1.383 1_554 S
C257 C253 1.495 . S
C257 H263 0.959 . S
C257 H264 0.961 . S
C257 H265 0.958 . S
C258 C256 1.381 . S
C258 C259 1.394 . S
C258 H266 0.930 . S
C259 C258 1.394 . S
C259 C260 1.383 . S
C259 H267 0.929 . S
C260 C259 1.383 . S
C260 C261 1.377 1_554 S
C261 H245 0.930 . S
C261 C260 1.377 1_556 S
C261 C262 1.379 . S
C262 H246 0.931 . S
C262 C256 1.383 1_556 S
C262 C261 1.379 . S
H263 C257 0.959 . S
H264 C257 0.961 . S
H265 C257 0.958 . S
H266 C258 0.930 . S
H267 C259 0.929 . S
H268 C276 0.929 . S
H269 C278 0.930 . S
H270 C280 0.930 . S
H271 C283 0.929 . S
H272 C286 0.930 . S
H273 C288 0.960 . S
H274 C288 0.960 . S
H275 C288 0.960 1_655 S
C276 H268 0.929 . S
C276 C277 1.377 . S
C276 C278 1.384 . S
C277 C276 1.377 . S
C277 C283 1.390 . S
C278 H269 0.930 . S
C278 C276 1.384 . S
C278 C279 1.372 . S
C279 C278 1.372 . S
C279 C280 1.400 . S
C279 C284 1.490 . S
C280 H270 0.930 . S
C280 C279 1.400 . S
C280 C283 1.386 . S
H281 C297 0.930 . S
H282 C298 0.931 . S
C283 H271 0.929 . S
C283 C277 1.390 . S
C283 C280 1.386 . S
C284 C279 1.490 . S
C284 C286 1.395 . S
C284 C287 1.403 1_655 S
H285 C291 0.930 . S
C286 H272 0.930 . S
C286 C284 1.395 . S
C286 C289 1.403 1_545 S
C287 C284 1.403 1_455 S
C287 C288 1.524 . S
C287 C291 1.400 1_545 S
C288 H273 0.960 . S
C288 H274 0.960 . S
C288 H275 0.960 1_455 S
C288 C287 1.524 . S
C289 C286 1.403 1_565 S
C289 C290 1.392 1_655 S
C289 C293 1.495 . S
C290 C289 1.392 1_455 S
C290 C291 1.385 . S
C290 C292 1.478 . S
C291 H285 0.930 . S
C291 C287 1.400 1_565 S
C291 C290 1.385 . S
C292 C290 1.478 . S
C292 C294 1.381 . S
C292 C298 1.383 . S
C293 C289 1.495 . S
C293 H299 0.959 1_565 S
C293 H300 0.961 . S
C293 H301 0.960 1_655 S
C294 C292 1.381 . S
C294 C295 1.394 . S
C294 H302 0.930 . S
C295 C294 1.394 . S
C295 C296 1.383 . S
C295 H303 0.929 . S
C296 C295 1.383 . S
C296 C297 1.377 . S
C297 H281 0.930 . S
C297 C296 1.377 . S
C297 C298 1.379 . S
C298 H282 0.931 . S
C298 C292 1.383 . S
C298 C297 1.379 . S
H299 C293 0.959 1_545 S
H300 C293 0.961 . S
H301 C293 0.960 1_455 S
H302 C294 0.930 . S
H303 C295 0.929 . S
H304 C312 0.929 . S
H305 C314 0.930 . S
H306 C316 0.930 . S
H307 C319 0.929 . S
H308 C322 0.930 . S
H309 C324 0.960 . S
H310 C324 0.960 . S
H311 C324 0.960 . S
C312 H304 0.929 . S
C312 C313 1.377 . S
C312 C314 1.384 . S
C313 C312 1.377 . S
C313 C319 1.390 . S
C314 H305 0.930 . S
C314 C312 1.384 . S
C314 C315 1.372 . S
C315 C314 1.372 . S
C315 C316 1.400 . S
C315 C320 1.490 . S
C316 H306 0.930 . S
C316 C315 1.400 . S
C316 C319 1.386 . S
H317 C333 0.930 . S
H318 C334 0.931 . S
C319 H307 0.929 . S
C319 C313 1.390 . S
C319 C316 1.386 . S
C320 C315 1.490 . S
C320 C322 1.395 . S
C320 C323 1.403 . S
H321 C327 0.930 . S
C322 H308 0.930 . S
C322 C320 1.395 . S
C322 C325 1.403 . S
C323 C320 1.403 . S
C323 C324 1.524 . S
C323 C327 1.400 . S
C324 H309 0.960 . S
C324 H310 0.960 . S
C324 H311 0.960 . S
C324 C323 1.524 . S
C325 C322 1.403 . S
C325 C326 1.392 . S
C325 C329 1.495 . S
C326 C325 1.392 . S
C326 C327 1.385 . S
C326 C328 1.478 . S
C327 H321 0.930 . S
C327 C323 1.400 . S
C327 C326 1.385 . S
C328 C326 1.478 . S
C328 C330 1.381 . S
C328 C334 1.383 . S
C329 C325 1.495 . S
C329 H335 0.959 . S
C329 H336 0.961 . S
C329 H337 0.960 . S
C330 C328 1.381 . S
C330 C331 1.394 . S
C330 H338 0.930 . S
C331 C330 1.394 . S
C331 C332 1.383 . S
C331 H339 0.929 . S
C332 C331 1.383 . S
C332 C333 1.377 . S
C333 H317 0.930 . S
C333 C332 1.377 . S
C333 C334 1.379 . S
C334 H318 0.931 . S
C334 C328 1.383 . S
C334 C333 1.379 . S
H335 C329 0.959 . S
H336 C329 0.961 . S
H337 C329 0.960 . S
H338 C330 0.930 . S
H339 C331 0.929 . S
H340 C348 0.929 . S
H341 C350 0.930 . S
H342 C352 0.930 . S
H343 C355 0.929 . S
H344 C358 0.930 . S
H345 C360 0.960 . S
H346 C360 0.960 . S
H347 C360 0.960 . S
C348 H340 0.929 . S
C348 C349 1.377 . S
C348 C350 1.384 . S
C349 C348 1.377 . S
C349 C355 1.390 . S
C350 H341 0.930 . S
C350 C348 1.384 . S
C350 C351 1.372 . S
C351 C350 1.372 . S
C351 C352 1.400 . S
C351 C356 1.490 . S
C352 H342 0.930 . S
C352 C351 1.400 . S
C352 C355 1.386 . S
H353 C369 0.930 . S
H354 C370 0.931 . S
C355 H343 0.929 . S
C355 C349 1.390 . S
C355 C352 1.386 . S
C356 C351 1.490 . S
C356 C358 1.395 . S
C356 C359 1.403 . S
H357 C363 0.930 . S
C358 H344 0.930 . S
C358 C356 1.395 . S
C358 C361 1.403 . S
C359 C356 1.403 . S
C359 C360 1.524 . S
C359 C363 1.400 . S
C360 H345 0.960 . S
C360 H346 0.960 . S
C360 H347 0.960 . S
C360 C359 1.524 . S
C361 C358 1.403 . S
C361 C362 1.392 . S
C361 C365 1.495 . S
C362 C361 1.392 . S
C362 C363 1.385 . S
C362 C364 1.478 . S
C363 H357 0.930 . S
C363 C359 1.400 . S
C363 C362 1.385 . S
C364 C362 1.478 . S
C364 C366 1.381 . S
C364 C370 1.383 . S
C365 C361 1.495 . S
C365 H371 0.959 . S
C365 H372 0.961 . S
C365 H373 0.960 . S
C366 C364 1.381 . S
C366 C367 1.394 . S
C366 H374 0.930 . S
C367 C366 1.394 . S
C367 C368 1.383 . S
C367 H375 0.929 . S
C368 C367 1.383 . S
C368 C369 1.377 . S
C369 H353 0.930 . S
C369 C368 1.377 . S
C369 C370 1.379 . S
C370 H354 0.931 . S
C370 C364 1.383 . S
C370 C369 1.379 . S
H371 C365 0.959 . S
H372 C365 0.961 . S
H373 C365 0.960 . S
H374 C366 0.930 . S
H375 C367 0.929 . S
H376 C384 0.929 . S
H377 C386 0.930 . S
H378 C388 0.930 . S
H379 C391 0.929 . S
H380 C394 0.930 . S
H381 C396 0.960 . S
H382 C396 0.960 . S
H383 C396 0.960 . S
C384 H376 0.929 . S
C384 C385 1.377 . S
C384 C386 1.384 . S
C385 C384 1.377 . S
C385 C391 1.390 . S
C386 H377 0.930 . S
C386 C384 1.384 . S
C386 C387 1.372 . S
C387 C386 1.372 . S
C387 C388 1.400 . S
C387 C392 1.490 . S
C388 H378 0.930 . S
C388 C387 1.400 . S
C388 C391 1.386 . S
H389 C405 0.930 . S
H390 C406 0.931 . S
C391 H379 0.929 . S
C391 C385 1.390 . S
C391 C388 1.386 . S
C392 C387 1.490 . S
C392 C394 1.395 . S
C392 C395 1.403 . S
H393 C399 0.930 . S
C394 H380 0.930 . S
C394 C392 1.395 . S
C394 C397 1.403 . S
C395 C392 1.403 . S
C395 C396 1.524 . S
C395 C399 1.400 . S
C396 H381 0.960 . S
C396 H382 0.960 . S
C396 H383 0.960 . S
C396 C395 1.524 . S
C397 C394 1.403 . S
C397 C398 1.392 . S
C397 C401 1.495 . S
C398 C397 1.392 . S
C398 C399 1.385 . S
C398 C400 1.478 . S
C399 H393 0.930 . S
C399 C395 1.400 . S
C399 C398 1.385 . S
C400 C398 1.478 . S
C400 C402 1.381 . S
C400 C406 1.383 . S
C401 C397 1.495 . S
C401 H407 0.959 . S
C401 H408 0.961 . S
C401 H409 0.960 . S
C402 C400 1.381 . S
C402 C403 1.394 . S
C402 H410 0.930 . S
C403 C402 1.394 . S
C403 C404 1.383 . S
C403 H411 0.929 . S
C404 C403 1.383 . S
C404 C405 1.377 . S
C405 H389 0.930 . S
C405 C404 1.377 . S
C405 C406 1.379 . S
C406 H390 0.931 . S
C406 C400 1.383 . S
C406 C405 1.379 . S
H407 C401 0.959 . S
H408 C401 0.961 . S
H409 C401 0.960 . S
H410 C402 0.930 . S
H411 C403 0.929 . S
H412 C420 0.929 . S
H413 C422 0.930 . S
H414 C424 0.930 . S
H415 C427 0.929 . S
H416 C430 0.930 . S
H417 C432 0.960 . S
H418 C432 0.960 . S
H419 C432 0.960 . S
C420 H412 0.929 . S
C420 C421 1.377 . S
C420 C422 1.384 . S
C421 C420 1.377 . S
C421 C427 1.390 . S
C422 H413 0.930 . S
C422 C420 1.384 . S
C422 C423 1.372 . S
C423 C422 1.372 . S
C423 C424 1.400 . S
C423 C428 1.490 . S
C424 H414 0.930 . S
C424 C423 1.400 . S
C424 C427 1.386 . S
H425 C441 0.930 . S
H426 C442 0.931 . S
C427 H415 0.929 . S
C427 C421 1.390 . S
C427 C424 1.386 . S
C428 C423 1.490 . S
C428 C430 1.395 . S
C428 C431 1.403 . S
H429 C435 0.930 . S
C430 H416 0.930 . S
C430 C428 1.395 . S
C430 C433 1.403 . S
C431 C428 1.403 . S
C431 C432 1.524 . S
C431 C435 1.400 . S
C432 H417 0.960 . S
C432 H418 0.960 . S
C432 H419 0.960 . S
C432 C431 1.524 . S
C433 C430 1.403 . S
C433 C434 1.392 . S
C433 C437 1.495 . S
C434 C433 1.392 . S
C434 C435 1.385 . S
C434 C436 1.478 . S
C435 H429 0.930 . S
C435 C431 1.400 . S
C435 C434 1.385 . S
C436 C434 1.478 . S
C436 C438 1.381 . S
C436 C442 1.383 . S
C437 C433 1.495 . S
C437 H443 0.959 . S
C437 H444 0.961 . S
C437 H445 0.960 . S
C438 C436 1.381 . S
C438 C439 1.394 . S
C438 H446 0.930 . S
C439 C438 1.394 . S
C439 C440 1.383 . S
C439 H447 0.929 . S
C440 C439 1.383 . S
C440 C441 1.377 . S
C441 H425 0.930 . S
C441 C440 1.377 . S
C441 C442 1.379 . S
C442 H426 0.931 . S
C442 C436 1.383 . S
C442 C441 1.379 . S
H443 C437 0.959 . S
H444 C437 0.961 . S
H445 C437 0.960 . S
H446 C438 0.930 . S
H447 C439 0.929 . S
H448 C456 0.929 . S
H449 C458 0.930 . S
H450 C460 0.930 . S
H451 C463 0.929 1_455 S
H452 C466 0.930 . S
H453 C468 0.960 . S
H454 C468 0.960 . S
H455 C468 0.960 . S
C456 H448 0.929 . S
C456 C457 1.377 . S
C456 C458 1.384 . S
C457 C456 1.377 . S
C457 C463 1.390 . S
C458 H449 0.930 . S
C458 C456 1.384 . S
C458 C459 1.372 . S
C459 C458 1.372 . S
C459 C460 1.400 1_655 S
C459 C464 1.490 . S
C460 H450 0.930 . S
C460 C459 1.400 1_455 S
C460 C463 1.386 1_455 S
H461 C477 0.930 . S
H462 C478 0.931 . S
C463 H451 0.929 1_655 S
C463 C457 1.390 . S
C463 C460 1.386 1_655 S
C464 C459 1.490 . S
C464 C466 1.395 1_655 S
C464 C467 1.403 . S
H465 C471 0.930 . S
C466 H452 0.930 . S
C466 C464 1.395 1_455 S
C466 C469 1.403 . S
C467 C464 1.403 . S
C467 C468 1.524 . S
C467 C471 1.400 . S
C468 H453 0.960 . S
C468 H454 0.960 . S
C468 H455 0.960 . S
C468 C467 1.524 . S
C469 C466 1.403 . S
C469 C470 1.392 . S
C469 C473 1.495 . S
C470 C469 1.392 . S
C470 C471 1.385 1_455 S
C470 C472 1.478 . S
C471 H465 0.930 . S
C471 C467 1.400 . S
C471 C470 1.385 1_655 S
C472 C470 1.478 . S
C472 C474 1.381 1_455 S
C472 C478 1.383 . S
C473 C469 1.495 . S
C473 H479 0.959 . S
C473 H480 0.961 . S
C473 H481 0.960 . S
C474 C472 1.381 1_655 S
C474 C475 1.394 1_655 S
C474 H482 0.930 . S
C475 C474 1.394 1_455 S
C475 C476 1.383 . S
C475 H483 0.929 1_455 S
C476 C475 1.383 . S
C476 C477 1.377 . S
C477 H461 0.930 . S
C477 C476 1.377 . S
C477 C478 1.379 . S
C478 H462 0.931 . S
C478 C472 1.383 . S
C478 C477 1.379 . S
H479 C473 0.959 . S
H480 C473 0.961 . S
H481 C473 0.960 . S
H482 C474 0.930 . S
H483 C475 0.929 1_655 S
H484 C492 0.929 . S
H485 C494 0.930 . S
H486 C496 0.930 . S
H487 C499 0.929 . S
H488 C502 0.930 . S
H489 C504 0.960 . S
H490 C504 0.960 . S
H491 C504 0.960 . S
C492 H484 0.929 . S
C492 C493 1.377 . S
C492 C494 1.384 . S
C493 C492 1.377 . S
C493 C499 1.390 . S
C494 H485 0.930 . S
C494 C492 1.384 . S
C494 C495 1.372 . S
C495 C494 1.372 . S
C495 C496 1.400 . S
C495 C500 1.490 . S
C496 H486 0.930 . S
C496 C495 1.400 . S
C496 C499 1.386 . S
H497 C513 0.930 . S
H498 C514 0.931 . S
C499 H487 0.929 . S
C499 C493 1.390 . S
C499 C496 1.386 . S
C500 C495 1.490 . S
C500 C502 1.395 . S
C500 C503 1.403 1_655 S
H501 C507 0.930 . S
C502 H488 0.930 . S
C502 C500 1.395 . S
C502 C505 1.403 . S
C503 C500 1.403 1_455 S
C503 C504 1.524 . S
C503 C507 1.400 . S
C504 H489 0.960 . S
C504 H490 0.960 . S
C504 H491 0.960 . S
C504 C503 1.524 . S
C505 C502 1.403 . S
C505 C506 1.392 1_655 S
C505 C509 1.495 . S
C506 C505 1.392 1_455 S
C506 C507 1.385 . S
C506 C508 1.478 . S
C507 H501 0.930 . S
C507 C503 1.400 . S
C507 C506 1.385 . S
C508 C506 1.478 . S
C508 C510 1.381 . S
C508 C514 1.383 . S
C509 C505 1.495 . S
C509 H515 0.959 . S
C509 H516 0.961 . S
C509 H517 0.960 . S
C510 C508 1.381 . S
C510 C511 1.394 . S
C510 H518 0.930 . S
C511 C510 1.394 . S
C511 C512 1.383 . S
C511 H519 0.929 . S
C512 C511 1.383 . S
C512 C513 1.377 . S
C513 H497 0.930 . S
C513 C512 1.377 . S
C513 C514 1.379 . S
C514 H498 0.931 . S
C514 C508 1.383 . S
C514 C513 1.379 . S
H515 C509 0.959 . S
H516 C509 0.961 . S
H517 C509 0.960 . S
H518 C510 0.930 . S
H519 C511 0.929 . S
H520 C528 0.929 . S
H521 C530 0.930 . S
H522 C532 0.930 . S
H523 C535 0.929 . S
H524 C538 0.930 . S
H525 C540 0.960 . S
H526 C540 0.960 1_455 S
H527 C540 0.960 . S
C528 H520 0.929 . S
C528 C529 1.377 1_455 S
C528 C530 1.384 . S
C529 C528 1.377 1_655 S
C529 C535 1.390 . S
C530 H521 0.930 . S
C530 C528 1.384 . S
C530 C531 1.372 1_455 S
C531 C530 1.372 1_655 S
C531 C532 1.400 . S
C531 C536 1.490 . S
C532 H522 0.930 . S
C532 C531 1.400 . S
C532 C535 1.386 . S
H533 C549 0.930 . S
H534 C550 0.931 . S
C535 H523 0.929 . S
C535 C529 1.390 . S
C535 C532 1.386 . S
C536 C531 1.490 . S
C536 C538 1.395 1_655 S
C536 C539 1.403 . S
H537 C543 0.930 . S
C538 H524 0.930 . S
C538 C536 1.395 1_455 S
C538 C541 1.403 . S
C539 C536 1.403 . S
C539 C540 1.524 . S
C539 C543 1.400 . S
C540 H525 0.960 . S
C540 H526 0.960 1_655 S
C540 H527 0.960 . S
C540 C539 1.524 . S
C541 C538 1.403 . S
C541 C542 1.392 . S
C541 C545 1.495 . S
C542 C541 1.392 . S
C542 C543 1.385 1_455 S
C542 C544 1.478 . S
C543 H537 0.930 . S
C543 C539 1.400 . S
C543 C542 1.385 1_655 S
C544 C542 1.478 . S
C544 C546 1.381 . S
C544 C550 1.383 1_455 S
C545 C541 1.495 . S
C545 H551 0.959 . S
C545 H552 0.961 . S
C545 H553 0.960 . S
C546 C544 1.381 . S
C546 C547 1.394 . S
C546 H554 0.930 . S
C547 C546 1.394 . S
C547 C548 1.383 . S
C547 H555 0.929 . S
C548 C547 1.383 . S
C548 C549 1.377 1_455 S
C549 H533 0.930 . S
C549 C548 1.377 1_655 S
C549 C550 1.379 . S
C550 H534 0.931 . S
C550 C544 1.383 1_655 S
C550 C549 1.379 . S
H551 C545 0.959 . S
H552 C545 0.961 . S
H553 C545 0.960 . S
H554 C546 0.930 . S
H555 C547 0.929 . S
H556 C564 0.929 . S
H557 C566 0.930 . S
H558 C568 0.930 . S
H559 C571 0.929 . S
H560 C574 0.930 . S
H561 C576 0.960 . S
H562 C576 0.960 . S
H563 C576 0.960 . S
C564 H556 0.929 . S
C564 C565 1.377 . S
C564 C566 1.384 . S
C565 C564 1.377 . S
C565 C571 1.390 . S
C566 H557 0.930 . S
C566 C564 1.384 . S
C566 C567 1.372 . S
C567 C566 1.372 . S
C567 C568 1.400 . S
C567 C572 1.490 . S
C568 H558 0.930 . S
C568 C567 1.400 . S
C568 C571 1.386 . S
H569 C585 0.930 . S
H570 C586 0.931 . S
C571 H559 0.929 . S
C571 C565 1.390 . S
C571 C568 1.386 . S
C572 C567 1.490 . S
C572 C574 1.395 . S
C572 C575 1.403 1_455 S
H573 C579 0.930 . S
C574 H560 0.930 . S
C574 C572 1.395 . S
C574 C577 1.403 . S
C575 C572 1.403 1_655 S
C575 C576 1.524 . S
C575 C579 1.400 . S
C576 H561 0.960 . S
C576 H562 0.960 . S
C576 H563 0.960 . S
C576 C575 1.524 . S
C577 C574 1.403 . S
C577 C578 1.392 1_455 S
C577 C581 1.495 . S
C578 C577 1.392 1_655 S
C578 C579 1.385 . S
C578 C580 1.478 . S
C579 H573 0.930 . S
C579 C575 1.400 . S
C579 C578 1.385 . S
C580 C578 1.478 . S
C580 C582 1.381 . S
C580 C586 1.383 . S
C581 C577 1.495 . S
C581 H587 0.959 . S
C581 H588 0.961 . S
C581 H589 0.960 . S
C582 C580 1.381 . S
C582 C583 1.394 . S
C582 H590 0.930 . S
C583 C582 1.394 . S
C583 C584 1.383 . S
C583 H591 0.929 . S
C584 C583 1.383 . S
C584 C585 1.377 . S
C585 H569 0.930 . S
C585 C584 1.377 . S
C585 C586 1.379 . S
C586 H570 0.931 . S
C586 C580 1.383 . S
C586 C585 1.379 . S
H587 C581 0.959 . S
H588 C581 0.961 . S
H589 C581 0.960 . S
H590 C582 0.930 . S
H591 C583 0.929 . S
C169 C63 1.545 . S
C188 C2 1.535 1_554 S
C205 C103 1.549 . S
C224 C122 1.540 . S
C241 C23 1.561 . S
C260 C42 1.538 1_554 S
C277 C143 1.548 . S
C296 C82 1.536 . S
C313 C145 0.995 . S
C332 C25 0.973 . S
C349 C71 1.276 . S
C368 C111 1.267 . S
C385 C44 1.000 . S
C404 C84 1.015 . S
C421 C140 1.273 . S
C440 C20 1.277 . S
C457 C65 0.990 . S
C476 C105 0.996 . S
C493 C151 1.274 . S
C512 C31 1.280 . S
C529 C124 0.995 . S
C548 C4 1.009 . S
C565 C100 1.278 . S
C584 C60 1.287 . S
