# Generated by pormake.
# Topology uka, (4)-cn, num edge types: 1
# Building blocks:
#     Node 0, Type 0, BuildingBlock: AZAVOO_clean_sbu_0, # of connection points: 4
#     Node 1, Type 0, BuildingBlock: AZAVOO_clean_sbu_0, # of connection points: 4
#     Node 2, Type 0, BuildingBlock: AZAVOO_clean_sbu_0, # of connection points: 4
#     Node 3, Type 0, BuildingBlock: AZAVOO_clean_sbu_0, # of connection points: 4
#     Node 4, Type 0, BuildingBlock: AZAVOO_clean_sbu_0, # of connection points: 4
#     Node 5, Type 0, BuildingBlock: AZAVOO_clean_sbu_0, # of connection points: 4
#     Node 6, Type 0, BuildingBlock: AZAVOO_clean_sbu_0, # of connection points: 4
#     Node 7, Type 0, BuildingBlock: AZAVOO_clean_sbu_0, # of connection points: 4
#     Node 8, Type 0, BuildingBlock: AZAVOO_clean_sbu_0, # of connection points: 4
#     Node 9, Type 0, BuildingBlock: AZAVOO_clean_sbu_0, # of connection points: 4
#     Node 10, Type 0, BuildingBlock: AZAVOO_clean_sbu_0, # of connection points: 4
#     Node 11, Type 0, BuildingBlock: AZAVOO_clean_sbu_0, # of connection points: 4
#     Node 12, Type 0, BuildingBlock: AZAVOO_clean_sbu_0, # of connection points: 4
#     Node 13, Type 0, BuildingBlock: AZAVOO_clean_sbu_0, # of connection points: 4
#     Node 14, Type 0, BuildingBlock: AZAVOO_clean_sbu_0, # of connection points: 4
#     Node 15, Type 0, BuildingBlock: AZAVOO_clean_sbu_0, # of connection points: 4
#     Node 16, Type 0, BuildingBlock: AZAVOO_clean_sbu_0, # of connection points: 4
#     Node 17, Type 0, BuildingBlock: AZAVOO_clean_sbu_0, # of connection points: 4
#     Node 18, Type 0, BuildingBlock: AZAVOO_clean_sbu_0, # of connection points: 4
#     Node 19, Type 0, BuildingBlock: AZAVOO_clean_sbu_0, # of connection points: 4
#     Node 20, Type 0, BuildingBlock: AZAVOO_clean_sbu_0, # of connection points: 4
#     Node 21, Type 0, BuildingBlock: AZAVOO_clean_sbu_0, # of connection points: 4
#     Node 22, Type 0, BuildingBlock: AZAVOO_clean_sbu_0, # of connection points: 4
#     Node 23, Type 0, BuildingBlock: AZAVOO_clean_sbu_0, # of connection points: 4
#     Node 24, Type 0, BuildingBlock: AZAVOO_clean_sbu_0, # of connection points: 4
#     Node 25, Type 0, BuildingBlock: AZAVOO_clean_sbu_0, # of connection points: 4
#     Node 26, Type 0, BuildingBlock: AZAVOO_clean_sbu_0, # of connection points: 4
#     Node 27, Type 0, BuildingBlock: AZAVOO_clean_sbu_0, # of connection points: 4
#     Node 28, Type 0, BuildingBlock: AZAVOO_clean_sbu_0, # of connection points: 4
#     Node 29, Type 0, BuildingBlock: AZAVOO_clean_sbu_0, # of connection points: 4
#     Node 30, Type 0, BuildingBlock: AZAVOO_clean_sbu_0, # of connection points: 4
#     Node 31, Type 0, BuildingBlock: AZAVOO_clean_sbu_0, # of connection points: 4
#     Edge 32, Type (0, 0), BuildingBlock: OJICUG_clean_linker_0, # of connection points: 2
#     Edge 33, Type (0, 0), BuildingBlock: OJICUG_clean_linker_0, # of connection points: 2
#     Edge 34, Type (0, 0), BuildingBlock: OJICUG_clean_linker_0, # of connection points: 2
#     Edge 35, Type (0, 0), BuildingBlock: OJICUG_clean_linker_0, # of connection points: 2
#     Edge 36, Type (0, 0), BuildingBlock: OJICUG_clean_linker_0, # of connection points: 2
#     Edge 37, Type (0, 0), BuildingBlock: OJICUG_clean_linker_0, # of connection points: 2
#     Edge 38, Type (0, 0), BuildingBlock: OJICUG_clean_linker_0, # of connection points: 2
#     Edge 39, Type (0, 0), BuildingBlock: OJICUG_clean_linker_0, # of connection points: 2
#     Edge 40, Type (0, 0), BuildingBlock: OJICUG_clean_linker_0, # of connection points: 2
#     Edge 41, Type (0, 0), BuildingBlock: OJICUG_clean_linker_0, # of connection points: 2
#     Edge 42, Type (0, 0), BuildingBlock: OJICUG_clean_linker_0, # of connection points: 2
#     Edge 43, Type (0, 0), BuildingBlock: OJICUG_clean_linker_0, # of connection points: 2
#     Edge 44, Type (0, 0), BuildingBlock: OJICUG_clean_linker_0, # of connection points: 2
#     Edge 45, Type (0, 0), BuildingBlock: OJICUG_clean_linker_0, # of connection points: 2
#     Edge 46, Type (0, 0), BuildingBlock: OJICUG_clean_linker_0, # of connection points: 2
#     Edge 47, Type (0, 0), BuildingBlock: OJICUG_clean_linker_0, # of connection points: 2
#     Edge 48, Type (0, 0), BuildingBlock: OJICUG_clean_linker_0, # of connection points: 2
#     Edge 49, Type (0, 0), BuildingBlock: OJICUG_clean_linker_0, # of connection points: 2
#     Edge 50, Type (0, 0), BuildingBlock: OJICUG_clean_linker_0, # of connection points: 2
#     Edge 51, Type (0, 0), BuildingBlock: OJICUG_clean_linker_0, # of connection points: 2
#     Edge 52, Type (0, 0), BuildingBlock: OJICUG_clean_linker_0, # of connection points: 2
#     Edge 53, Type (0, 0), BuildingBlock: OJICUG_clean_linker_0, # of connection points: 2
#     Edge 54, Type (0, 0), BuildingBlock: OJICUG_clean_linker_0, # of connection points: 2
#     Edge 55, Type (0, 0), BuildingBlock: OJICUG_clean_linker_0, # of connection points: 2
#     Edge 56, Type (0, 0), BuildingBlock: OJICUG_clean_linker_0, # of connection points: 2
#     Edge 57, Type (0, 0), BuildingBlock: OJICUG_clean_linker_0, # of connection points: 2
#     Edge 58, Type (0, 0), BuildingBlock: OJICUG_clean_linker_0, # of connection points: 2
#     Edge 59, Type (0, 0), BuildingBlock: OJICUG_clean_linker_0, # of connection points: 2
#     Edge 60, Type (0, 0), BuildingBlock: OJICUG_clean_linker_0, # of connection points: 2
#     Edge 61, Type (0, 0), BuildingBlock: OJICUG_clean_linker_0, # of connection points: 2
#     Edge 62, Type (0, 0), BuildingBlock: OJICUG_clean_linker_0, # of connection points: 2
#     Edge 63, Type (0, 0), BuildingBlock: OJICUG_clean_linker_0, # of connection points: 2
#     Edge 64, Type (0, 0), BuildingBlock: OJICUG_clean_linker_0, # of connection points: 2
#     Edge 65, Type (0, 0), BuildingBlock: OJICUG_clean_linker_0, # of connection points: 2
#     Edge 66, Type (0, 0), BuildingBlock: OJICUG_clean_linker_0, # of connection points: 2
#     Edge 67, Type (0, 0), BuildingBlock: OJICUG_clean_linker_0, # of connection points: 2
#     Edge 68, Type (0, 0), BuildingBlock: OJICUG_clean_linker_0, # of connection points: 2
#     Edge 69, Type (0, 0), BuildingBlock: OJICUG_clean_linker_0, # of connection points: 2
#     Edge 70, Type (0, 0), BuildingBlock: OJICUG_clean_linker_0, # of connection points: 2
#     Edge 71, Type (0, 0), BuildingBlock: OJICUG_clean_linker_0, # of connection points: 2
#     Edge 72, Type (0, 0), BuildingBlock: OJICUG_clean_linker_0, # of connection points: 2
#     Edge 73, Type (0, 0), BuildingBlock: OJICUG_clean_linker_0, # of connection points: 2
#     Edge 74, Type (0, 0), BuildingBlock: OJICUG_clean_linker_0, # of connection points: 2
#     Edge 75, Type (0, 0), BuildingBlock: OJICUG_clean_linker_0, # of connection points: 2
#     Edge 76, Type (0, 0), BuildingBlock: OJICUG_clean_linker_0, # of connection points: 2
#     Edge 77, Type (0, 0), BuildingBlock: OJICUG_clean_linker_0, # of connection points: 2
#     Edge 78, Type (0, 0), BuildingBlock: OJICUG_clean_linker_0, # of connection points: 2
#     Edge 79, Type (0, 0), BuildingBlock: OJICUG_clean_linker_0, # of connection points: 2
#     Edge 80, Type (0, 0), BuildingBlock: OJICUG_clean_linker_0, # of connection points: 2
#     Edge 81, Type (0, 0), BuildingBlock: OJICUG_clean_linker_0, # of connection points: 2
#     Edge 82, Type (0, 0), BuildingBlock: OJICUG_clean_linker_0, # of connection points: 2
#     Edge 83, Type (0, 0), BuildingBlock: OJICUG_clean_linker_0, # of connection points: 2
#     Edge 84, Type (0, 0), BuildingBlock: OJICUG_clean_linker_0, # of connection points: 2
#     Edge 85, Type (0, 0), BuildingBlock: OJICUG_clean_linker_0, # of connection points: 2
#     Edge 86, Type (0, 0), BuildingBlock: OJICUG_clean_linker_0, # of connection points: 2
#     Edge 87, Type (0, 0), BuildingBlock: OJICUG_clean_linker_0, # of connection points: 2
#     Edge 88, Type (0, 0), BuildingBlock: OJICUG_clean_linker_0, # of connection points: 2
#     Edge 89, Type (0, 0), BuildingBlock: OJICUG_clean_linker_0, # of connection points: 2
#     Edge 90, Type (0, 0), BuildingBlock: OJICUG_clean_linker_0, # of connection points: 2
#     Edge 91, Type (0, 0), BuildingBlock: OJICUG_clean_linker_0, # of connection points: 2
#     Edge 92, Type (0, 0), BuildingBlock: OJICUG_clean_linker_0, # of connection points: 2
#     Edge 93, Type (0, 0), BuildingBlock: OJICUG_clean_linker_0, # of connection points: 2
#     Edge 94, Type (0, 0), BuildingBlock: OJICUG_clean_linker_0, # of connection points: 2
#     Edge 95, Type (0, 0), BuildingBlock: OJICUG_clean_linker_0, # of connection points: 2
# Relax obj value: 0.265
# Max RMSD: 0.266
# Mean RMSD: 0.247
data_MOF--net-uka--node1-AZAVOO_clean_sbu_0--edge1-OJICUG_clean_linker_0
_symmetry_space_group_name_H-M    P1
_symmetry_Int_Tables_number       1
_symmetry_cell_setting            triclinic
loop_
_symmetry_equiv_pos_as_xyz
'x, y, z'
_cell_length_a     44.049139
_cell_length_b     41.611226
_cell_length_c     30.973965
_cell_angle_alpha  89.980941
_cell_angle_beta   90.047411
_cell_angle_gamma 89.951372
loop_
_atom_site_label
_atom_site_type_symbol
_atom_site_fract_x
_atom_site_fract_y
_atom_site_fract_z
_atom_type_partial_charge
Mg0 Mg 0.11303 0.29778 0.25793 0.0
O1 O 0.10111 0.24507 0.27602 0.0
O2 O 0.05015 0.24364 0.277 0.0
Mg3 Mg 0.02981 0.29271 0.26377 0.0
C4 C 0.07598 0.22998 0.28096 0.0
C5 C 0.18126 0.27958 0.27168 0.0
O6 O 0.17109 0.27453 0.31096 0.0
O7 O 0.09822 0.29021 0.18784 0.0
O8 O 0.04761 0.2894 0.19473 0.0
O9 O 0.11416 0.31052 0.32789 0.0
O10 O 0.07295 0.31196 0.28705 0.0
C11 C 0.0716 0.28825 0.17177 0.0
C12 C 0.08507 0.31409 0.32475 0.0
O13 O 0.16246 0.28661 0.24196 0.0
Mg14 Mg 0.05136 0.84601 0.51772 0.0
O15 O 0.02177 0.85417 0.57877 0.0
O16 O 0.05446 0.8681 0.63099 0.0
Mg17 Mg 0.10295 0.86874 0.60509 0.0
C18 C 0.02749 0.86237 0.61784 0.0
C19 C 0.99393 0.82114 0.46841 0.0
O20 O 0.99617 0.79784 0.49686 0.0
O21 O 0.05767 0.89919 0.51076 0.0
O22 O 0.09088 0.91273 0.56223 0.0
O23 O 0.05719 0.79506 0.53263 0.0
O24 O 0.08755 0.83356 0.55688 0.0
C25 C 0.07416 0.91993 0.52986 0.0
C26 C 0.0799 0.80362 0.55649 0.0
O27 O 0.01108 0.84561 0.47194 0.0
Mg28 Mg 0.38641 0.6789 0.77567 0.0
O29 O 0.3927 0.73391 0.78418 0.0
O30 O 0.44317 0.74121 0.78576 0.0
Mg31 Mg 0.46839 0.69369 0.78265 0.0
C32 C 0.41607 0.75212 0.78669 0.0
C33 C 0.31635 0.68997 0.78207 0.0
O34 O 0.3239 0.69701 0.82201 0.0
O35 O 0.40208 0.68029 0.70561 0.0
O36 O 0.45224 0.68698 0.71312 0.0
O37 O 0.38479 0.67342 0.84724 0.0
O38 O 0.42685 0.67213 0.80824 0.0
C39 C 0.42867 0.68298 0.68982 0.0
C40 C 0.41413 0.6725 0.84561 0.0
O41 O 0.33712 0.68359 0.75496 0.0
Mg42 Mg 0.4582 0.14882 0.01624 0.0
O43 O 0.4892 0.13363 0.07315 0.0
O44 O 0.45784 0.11818 0.12607 0.0
Mg45 Mg 0.40852 0.12341 0.10445 0.0
C46 C 0.48458 0.12284 0.11132 0.0
C47 C 0.48935 0.14969 0.92935 0.0
O48 O 0.46057 0.14484 0.92022 0.0
O49 O 0.44769 0.09685 0.00213 0.0
O50 O 0.41583 0.0826 0.05492 0.0
O51 O 0.45703 0.1985 0.03969 0.0
O52 O 0.42436 0.16089 0.05985 0.0
C53 C 0.43044 0.0763 0.0203 0.0
C54 C 0.43452 0.18983 0.06387 0.0
O55 O 0.49746 0.15034 0.9687 0.0
Mg56 Mg 0.12042 0.70962 0.20539 0.0
O57 O 0.09601 0.75499 0.17768 0.0
O58 O 0.05089 0.73686 0.15422 0.0
Mg59 Mg 0.0463 0.68319 0.1651 0.0
C60 C 0.06998 0.75948 0.16012 0.0
C61 C 0.17019 0.7223 0.26874 0.0
O62 O 0.15539 0.69736 0.28405 0.0
O63 O 0.09028 0.70957 0.26606 0.0
O64 O 0.04638 0.69247 0.2376 0.0
O65 O 0.13898 0.70028 0.13936 0.0
O66 O 0.09566 0.68093 0.16486 0.0
C67 C 0.06237 0.70157 0.2697 0.0
C68 C 0.11399 0.68467 0.13307 0.0
O69 O 0.15868 0.73754 0.23713 0.0
Mg70 Mg 0.4712 0.87494 0.502 0.0
O71 O 0.50352 0.87335 0.44371 0.0
O72 O 0.47826 0.892 0.38624 0.0
Mg73 Mg 0.4305 0.90632 0.40822 0.0
C74 C 0.50223 0.88044 0.40359 0.0
C75 C 0.50351 0.84144 0.57329 0.0
O76 O 0.47538 0.83095 0.57374 0.0
O77 O 0.47742 0.92857 0.5067 0.0
O78 O 0.45066 0.9472 0.4507 0.0
O79 O 0.45513 0.82645 0.48767 0.0
O80 O 0.43399 0.87029 0.46029 0.0
C81 C 0.46698 0.95183 0.48435 0.0
C82 C 0.43545 0.83927 0.46195 0.0
O83 O 0.51045 0.86383 0.5472 0.0
Mg84 Mg 0.3825 0.30535 0.74369 0.0
O85 O 0.41452 0.26508 0.71783 0.0
O86 O 0.45089 0.29089 0.68079 0.0
Mg87 Mg 0.44361 0.34508 0.68449 0.0
C88 C 0.43864 0.26511 0.6947 0.0
C89 C 0.33781 0.25285 0.76839 0.0
O90 O 0.34513 0.24354 0.72921 0.0
O91 O 0.4164 0.31877 0.79659 0.0
O92 O 0.45186 0.34393 0.75765 0.0
O93 O 0.35673 0.30236 0.68179 0.0
O94 O 0.3953 0.3353 0.69373 0.0
C95 C 0.44137 0.33426 0.79384 0.0
C96 C 0.37591 0.3232 0.66727 0.0
O97 O 0.35547 0.27229 0.78758 0.0
Mg98 Mg 0.99536 0.14077 0.92746 0.0
O99 O 0.96091 0.13706 0.87146 0.0
O100 O 0.98713 0.12013 0.81397 0.0
Mg101 Mg 0.03707 0.11285 0.83266 0.0
C102 C 0.96228 0.12893 0.83166 0.0
C103 C 0.96602 0.17157 0.00247 0.0
O104 O 0.991 0.18724 0.99297 0.0
O105 O 0.99627 0.08672 0.93453 0.0
O106 O 0.02435 0.07089 0.87822 0.0
O107 O 0.00681 0.19068 0.9097 0.0
O108 O 0.03126 0.14818 0.88481 0.0
C109 C 0.00968 0.06478 0.91288 0.0
C110 C 0.02833 0.17898 0.88611 0.0
O111 O 0.95861 0.14776 0.97889 0.0
Mg112 Mg 0.8945 0.80562 0.77532 0.0
O113 O 0.89623 0.7794 0.71029 0.0
O114 O 0.88467 0.81454 0.65804 0.0
Mg115 Mg 0.87353 0.86219 0.69013 0.0
C116 C 0.89249 0.7865 0.67052 0.0
C117 C 0.88592 0.74898 0.84431 0.0
O118 O 0.87108 0.77025 0.8675 0.0
O119 O 0.84349 0.80367 0.774 0.0
O120 O 0.83147 0.83823 0.72162 0.0
O121 O 0.94262 0.81779 0.76796 0.0
O122 O 0.90549 0.84811 0.742 0.0
C123 C 0.82388 0.81797 0.75072 0.0
C124 C 0.93418 0.84134 0.74345 0.0
O125 O 0.8967 0.75704 0.80791 0.0
Mg126 Mg 0.03717 0.12425 0.49724 0.0
O127 O 0.0548 0.13311 0.42872 0.0
O128 O 0.0236 0.1096 0.38163 0.0
Mg129 Mg 0.98898 0.08091 0.42066 0.0
C130 C 0.04664 0.12709 0.39003 0.0
C131 C 0.08961 0.14342 0.56043 0.0
O132 O 0.07613 0.12199 0.58497 0.0
O133 O 0.05728 0.07381 0.49875 0.0
O134 O 0.02607 0.05008 0.45164 0.0
O135 O 0.00683 0.16608 0.48715 0.0
O136 O 0.99348 0.11576 0.47351 0.0
C137 C 0.04843 0.04906 0.47789 0.0
C138 C 0.98766 0.14599 0.47062 0.0
O139 O 0.08004 0.14771 0.52224 0.0
Mg140 Mg 0.61615 0.17093 0.27313 0.0
O141 O 0.6078 0.2055 0.2168 0.0
O142 O 0.6211 0.18027 0.15575 0.0
Mg143 Mg 0.63971 0.13107 0.17313 0.0
C144 C 0.61053 0.20462 0.17578 0.0
C145 C 0.59035 0.20432 0.35108 0.0
O146 O 0.58399 0.17375 0.35675 0.0
O147 O 0.66648 0.18173 0.26888 0.0
O148 O 0.67949 0.15623 0.20825 0.0
O149 O 0.57 0.15189 0.2654 0.0
O150 O 0.60936 0.13257 0.22957 0.0
C151 C 0.68629 0.17348 0.241 0.0
C152 C 0.58023 0.13398 0.23461 0.0
O153 O 0.6072 0.21216 0.31957 0.0
Mg154 Mg 0.459 0.87354 0.98191 0.0
O155 O 0.43584 0.85989 0.91805 0.0
O156 O 0.46225 0.88216 0.8644 0.0
Mg157 Mg 0.49949 0.91348 0.89373 0.0
C158 C 0.44076 0.86421 0.87783 0.0
C159 C 0.41684 0.85803 0.05892 0.0
O160 O 0.43493 0.87955 0.0763 0.0
O161 O 0.4384 0.92376 0.98165 0.0
O162 O 0.46562 0.94603 0.92868 0.0
O163 O 0.4897 0.83185 0.97134 0.0
O164 O 0.49999 0.88154 0.95012 0.0
C165 C 0.44556 0.94792 0.95833 0.0
C166 C 0.50695 0.85154 0.95029 0.0
O167 O 0.41957 0.85176 0.01899 0.0
Mg168 Mg 0.8263 0.21133 0.70815 0.0
O169 O 0.84943 0.23449 0.7664 0.0
O170 O 0.84043 0.20391 0.82454 0.0
Mg171 Mg 0.80938 0.16284 0.80347 0.0
C172 C 0.85299 0.22803 0.80638 0.0
C173 C 0.83422 0.25968 0.63012 0.0
O174 O 0.82608 0.23448 0.60736 0.0
O175 O 0.78072 0.22998 0.73119 0.0
O176 O 0.77039 0.19836 0.78747 0.0
O177 O 0.86851 0.18428 0.69696 0.0
O178 O 0.83202 0.16671 0.73985 0.0
C179 C 0.76322 0.22109 0.76165 0.0
C180 C 0.86 0.16476 0.72712 0.0
O181 O 0.83474 0.25763 0.67102 0.0
Mg182 Mg 0.52349 0.15257 0.5019 0.0
O183 O 0.49981 0.16799 0.56457 0.0
O184 O 0.52264 0.14803 0.62287 0.0
Mg185 Mg 0.55999 0.11499 0.59571 0.0
C186 C 0.50212 0.16539 0.60546 0.0
C187 C 0.47056 0.19879 0.47498 0.0
O188 O 0.4798 0.21281 0.5106 0.0
O189 O 0.50136 0.10323 0.50524 0.0
O190 O 0.52568 0.08168 0.56165 0.0
O191 O 0.55665 0.19298 0.50996 0.0
O192 O 0.56354 0.14421 0.5362 0.0
C193 C 0.50655 0.07967 0.53066 0.0
C194 C 0.57296 0.17334 0.53261 0.0
O195 O 0.48398 0.17342 0.46224 0.0
Mg196 Mg 0.64145 0.80232 0.26559 0.0
O197 O 0.63025 0.76912 0.32221 0.0
O198 O 0.63716 0.79529 0.38447 0.0
Mg199 Mg 0.65581 0.84472 0.36746 0.0
C200 C 0.62942 0.77026 0.36333 0.0
C201 C 0.61648 0.74071 0.22496 0.0
O202 O 0.59718 0.74677 0.25621 0.0
O203 O 0.69127 0.79301 0.27911 0.0
O204 O 0.69869 0.81993 0.34055 0.0
O205 O 0.5943 0.82052 0.26532 0.0
O206 O 0.63058 0.84131 0.306 0.0
C207 C 0.70844 0.80213 0.30992 0.0
C208 C 0.60205 0.83962 0.29633 0.0
O209 O 0.63873 0.7597 0.21912 0.0
Mg210 Mg 0.98952 0.85812 0.95522 0.0
O211 O 0.01693 0.84994 0.01785 0.0
O212 O 0.99059 0.87059 0.07278 0.0
Mg213 Mg 0.94916 0.89644 0.04492 0.0
C214 C 0.01333 0.85498 0.05823 0.0
C215 C 0.01858 0.81496 0.89324 0.0
O216 O 0.989 0.81248 0.88888 0.0
O217 O 0.00486 0.91038 0.94994 0.0
O218 O 0.97789 0.93093 0.00444 0.0
O219 O 0.96452 0.81374 0.97179 0.0
O220 O 0.94931 0.86242 0.99088 0.0
C221 C 0.99615 0.93427 0.97275 0.0
C222 C 0.94664 0.83174 0.99432 0.0
O223 O 0.02903 0.83723 0.91704 0.0
Mg224 Mg 0.62703 0.80133 0.75815 0.0
O225 O 0.62035 0.74899 0.78639 0.0
O226 O 0.56998 0.74227 0.79672 0.0
Mg227 Mg 0.54664 0.77973 0.75643 0.0
C228 C 0.59753 0.73324 0.8014 0.0
C229 C 0.69652 0.79227 0.77898 0.0
O230 O 0.68633 0.78869 0.81854 0.0
O231 O 0.61802 0.79024 0.6863 0.0
O232 O 0.58214 0.76082 0.71137 0.0
O233 O 0.62168 0.81897 0.82517 0.0
O234 O 0.58279 0.8125 0.7805 0.0
C235 C 0.5923 0.77737 0.68048 0.0
C236 C 0.59262 0.81876 0.81883 0.0
O237 O 0.67775 0.79554 0.74818 0.0
Mg238 Mg 0.54008 0.35417 0.03417 0.0
O239 O 0.50774 0.36372 0.0918 0.0
O240 O 0.53816 0.37401 0.14805 0.0
Mg241 Mg 0.58793 0.37046 0.12807 0.0
C242 C 0.51169 0.37082 0.13167 0.0
C243 C 0.51298 0.36034 0.94638 0.0
O244 O 0.54249 0.36336 0.94154 0.0
O245 O 0.5514 0.40669 0.02992 0.0
O246 O 0.5824 0.41598 0.08577 0.0
O247 O 0.54069 0.30258 0.04812 0.0
O248 O 0.57287 0.33771 0.07651 0.0
C249 C 0.56848 0.42531 0.05178 0.0
C250 C 0.56282 0.30862 0.07444 0.0
O251 O 0.50239 0.35808 0.98439 0.0
Mg252 Mg 0.88131 0.18391 0.26039 0.0
O253 O 0.89322 0.23752 0.27416 0.0
O254 O 0.94414 0.23892 0.27681 0.0
Mg255 Mg 0.96434 0.18912 0.26851 0.0
C256 C 0.91831 0.25279 0.27868 0.0
C257 C 0.81293 0.20205 0.27017 0.0
O258 O 0.82216 0.20748 0.30984 0.0
O259 O 0.89703 0.18771 0.19018 0.0
O260 O 0.94746 0.18929 0.19876 0.0
O261 O 0.87906 0.17467 0.3313 0.0
O262 O 0.92085 0.171 0.29198 0.0
C263 C 0.92387 0.18897 0.17482 0.0
C264 C 0.90816 0.1708 0.32938 0.0
O265 O 0.83241 0.19468 0.24157 0.0
Mg266 Mg 0.96064 0.65466 0.49849 0.0
O267 O 0.9924 0.64055 0.5555 0.0
O268 O 0.96095 0.6244 0.60797 0.0
Mg269 Mg 0.91141 0.62863 0.58697 0.0
C270 C 0.98772 0.62953 0.59359 0.0
C271 C 0.9932 0.68155 0.4241 0.0
O272 O 0.96766 0.69738 0.4295 0.0
O273 O 0.95168 0.6019 0.48485 0.0
O274 O 0.91961 0.58809 0.5376 0.0
O275 O 0.95775 0.70464 0.52148 0.0
O276 O 0.92649 0.666 0.54212 0.0
C277 C 0.9345 0.58138 0.50337 0.0
C278 C 0.93545 0.69538 0.54556 0.0
O279 O -0.00077 0.65849 0.44976 0.0
Mg280 Mg 0.62162 0.23115 0.74588 0.0
O281 O 0.5819 0.2528 0.70616 0.0
O282 O 0.56261 0.21348 0.66542 0.0
Mg283 Mg 0.58492 0.16633 0.68592 0.0
C284 C 0.56369 0.24293 0.67682 0.0
C285 C 0.65128 0.28971 0.7924 0.0
O286 O 0.65289 0.31841 0.80989 0.0
O287 O 0.58845 0.20972 0.79502 0.0
O288 O 0.56646 0.17181 0.75457 0.0
O289 O 0.64983 0.23918 0.68703 0.0
O290 O 0.62596 0.19373 0.70213 0.0
C291 C 0.56917 0.18705 0.79012 0.0
C292 C 0.64027 0.21124 0.67463 0.0
O293 O 0.62542 0.27802 0.78317 0.0
Mg294 Mg 0.97412 0.33623 0.94872 0.0
O295 O 0.00733 0.34454 0.89275 0.0
O296 O 0.98151 0.36608 0.83772 0.0
Mg297 Mg 0.93164 0.37114 0.85856 0.0
C298 C 0.00623 0.3559 0.85446 0.0
C299 C 0.02247 0.29988 0.00393 0.0
O300 O 0.00992 0.27545 0.9839 0.0
O301 O 0.97312 0.38952 0.9628 0.0
O302 O 0.94442 0.4093 0.90945 0.0
O303 O 0.9618 0.28757 0.92484 0.0
O304 O 0.93799 0.33217 0.9059 0.0
C305 C 0.95936 0.41286 0.94454 0.0
C306 C 0.94071 0.30147 0.90248 0.0
O307 O 0.01354 0.32821 0.99515 0.0
Mg308 Mg 0.88841 0.78005 0.23322 0.0
O309 O 0.90943 0.73103 0.21302 0.0
O310 O 0.95766 0.74317 0.19606 0.0
Mg311 Mg 0.96561 0.79732 0.19677 0.0
C312 C 0.93621 0.72286 0.20099 0.0
C313 C 0.83647 0.77848 0.29462 0.0
O314 O 0.85337 0.80283 0.30689 0.0
O315 O 0.91622 0.78172 0.29579 0.0
O316 O 0.96063 0.79939 0.27015 0.0
O317 O 0.87139 0.78679 0.1661 0.0
O318 O 0.9167 0.8019 0.18944 0.0
C319 C 0.943 0.79261 0.30155 0.0
C320 C 0.89813 0.79797 0.15784 0.0
O321 O 0.84704 0.75929 0.26645 0.0
Mg322 Mg 0.53413 0.62579 0.48158 0.0
O323 O 0.50297 0.63187 0.42257 0.0
O324 O 0.52993 0.62042 0.36349 0.0
Mg325 Mg 0.57812 0.6068 0.38506 0.0
C326 C 0.50522 0.62911 0.38163 0.0
C327 C 0.47839 0.65449 0.52594 0.0
O328 O 0.48544 0.67671 0.49755 0.0
O329 O 0.53237 0.57203 0.47624 0.0
O330 O 0.56131 0.56006 0.41913 0.0
O331 O 0.5479 0.6761 0.47807 0.0
O332 O 0.57179 0.63683 0.44356 0.0
C333 C 0.54509 0.55163 0.45144 0.0
C334 C 0.5688 0.66721 0.4513 0.0
O335 O 0.49323 0.62824 0.52613 0.0
Mg336 Mg 0.37849 0.30935 0.28336 0.0
O337 O 0.38789 0.27824 0.22327 0.0
O338 O 0.37476 0.30812 0.1659 0.0
Mg339 Mg 0.35552 0.35577 0.18824 0.0
C340 C 0.38547 0.28242 0.18249 0.0
C341 C 0.39061 0.27289 0.36696 0.0
O342 O 0.38487 0.30227 0.38023 0.0
O343 O 0.32813 0.29858 0.27682 0.0
O344 O 0.3156 0.32812 0.21932 0.0
O345 O 0.42462 0.32915 0.27916 0.0
O346 O 0.38555 0.35027 0.24445 0.0
C347 C 0.30854 0.30868 0.24966 0.0
C348 C 0.41462 0.34884 0.25017 0.0
O349 O 0.38701 0.26639 0.32723 0.0
Mg350 Mg 0.54212 0.63045 0.02092 0.0
O351 O 0.56866 0.64375 0.95931 0.0
O352 O 0.54508 0.61983 0.90421 0.0
Mg353 Mg 0.50541 0.59023 0.92971 0.0
C354 C 0.56603 0.63795 0.91895 0.0
C355 C 0.5753 0.64673 0.10302 0.0
O356 O 0.55358 0.62699 0.11494 0.0
O357 O 0.56267 0.58001 0.02312 0.0
O358 O 0.53748 0.55798 0.96788 0.0
O359 O 0.51145 0.67208 0.00737 0.0
O360 O 0.50287 0.62222 0.98561 0.0
C361 C 0.55634 0.55596 -0.00092 0.0
C362 C 0.49516 0.65197 0.98549 0.0
O363 O 0.57901 0.65199 0.063 0.0
Mg364 Mg 0.11906 0.66989 0.76232 0.0
O365 O 0.11832 0.70425 0.70446 0.0
O366 O 0.13361 0.67643 0.64649 0.0
Mg367 Mg 0.14502 0.62556 0.66711 0.0
C368 C 0.12421 0.70229 0.66415 0.0
C369 C 0.09005 0.70796 0.83284 0.0
O370 O 0.07854 0.67891 0.83561 0.0
O371 O 0.17004 0.67459 0.76485 0.0
O372 O 0.18479 0.64664 0.70706 0.0
O373 O 0.07182 0.65649 0.74864 0.0
O374 O 0.11098 0.63198 0.71849 0.0
C375 C 0.19083 0.6637 0.74031 0.0
C376 C 0.08196 0.63682 0.71983 0.0
O377 O 0.11195 0.7126 0.80697 0.0
Mg378 Mg 0.9548 0.37553 0.48079 0.0
O379 O 0.93727 0.3613 0.41367 0.0
O380 O 0.96974 0.37984 0.36444 0.0
Mg381 Mg 0.00553 0.40996 0.3994 0.0
C382 C 0.94615 0.36375 0.3746 0.0
C383 C 0.90571 0.35801 0.54919 0.0
O384 O 0.92487 0.37393 0.57371 0.0
O385 O 0.93757 0.4271 0.47423 0.0
O386 O 0.97081 0.44579 0.42589 0.0
O387 O 0.98362 0.33172 0.47769 0.0
O388 O -0.00103 0.38004 0.45711 0.0
C389 C 0.94837 0.44999 0.45136 0.0
C390 C 0.00376 0.34959 0.45905 0.0
O391 O 0.9106 0.35663 0.50885 0.0
Mg392 Mg 0.36734 0.71987 0.25201 0.0
O393 O 0.37784 0.7508 0.31156 0.0
O394 O 0.36902 0.72008 0.3695 0.0
Mg395 Mg 0.35245 0.67091 0.34779 0.0
C396 C 0.37725 0.74663 0.35242 0.0
C397 C 0.36308 0.76334 0.16984 0.0
O398 O 0.3533 0.73617 0.15332 0.0
O399 O 0.31681 0.72658 0.26411 0.0
O400 O 0.30909 0.69481 0.32108 0.0
O401 O 0.41501 0.70269 0.25134 0.0
O402 O 0.37854 0.67866 0.28807 0.0
C403 C 0.29925 0.71421 0.29229 0.0
C404 C 0.40713 0.68125 0.27942 0.0
O405 O 0.36924 0.76456 0.20987 0.0
Mg406 Mg 0.98702 0.615 0.98524 0.0
O407 O 0.97036 0.62808 0.05343 0.0
O408 O 0.00156 0.60612 0.1019 0.0
Mg409 Mg 0.0372 0.57723 0.06447 0.0
C410 C 0.97849 0.62331 0.09249 0.0
C411 C 0.94095 0.63732 0.9177 0.0
O412 O 0.96131 0.62263 0.89376 0.0
O413 O 0.96845 0.56434 0.9903 0.0
O414 O 0.00221 0.5425 0.03558 0.0
O415 O 0.01755 0.65738 0.98631 0.0
O416 O 0.03116 0.60877 0.00784 0.0
C417 C 0.97929 0.54012 0.01045 0.0
C418 C 0.0376 0.63882 0.00406 0.0
O419 O 0.94344 0.6357 0.95843 0.0
Mg420 Mg 0.15066 0.29212 0.72851 0.0
O421 O 0.12647 0.26127 0.77854 0.0
O422 O 0.13032 0.28549 0.8428 0.0
Mg423 Mg 0.15989 0.32988 0.83379 0.0
C424 C 0.12036 0.26296 0.81869 0.0
C425 C 0.14931 0.24868 0.64335 0.0
O426 O 0.15425 0.27564 0.62242 0.0
O427 O 0.19616 0.27485 0.75236 0.0
O428 O 0.20197 0.29904 0.8159 0.0
O429 O 0.10722 0.31698 0.71811 0.0
O430 O 0.14062 0.33241 0.76736 0.0
C431 C 0.21167 0.28039 0.7862 0.0
C432 C 0.11315 0.33377 0.75226 0.0
O433 O 0.14797 0.249 0.68424 0.0
Mg434 Mg 0.47958 0.35536 0.4701 0.0
O435 O 0.50107 0.33376 0.5315 0.0
O436 O 0.48581 0.36019 0.59019 0.0
Mg437 Mg 0.45458 0.40034 0.5657 0.0
C438 C 0.50071 0.33752 0.57238 0.0
C439 C 0.51394 0.29572 0.4397 0.0
O440 O 0.49484 0.28465 0.46866 0.0
O441 O 0.51087 0.39953 0.47018 0.0
O442 O 0.49235 0.42495 0.52797 0.0
O443 O 0.43963 0.3232 0.48204 0.0
O444 O 0.44342 0.37273 0.50682 0.0
C445 C 0.51044 0.42358 0.49585 0.0
C446 C 0.42899 0.34594 0.50621 0.0
O447 O 0.51326 0.3255 0.43056 0.0
C448 C 0.08673 0.16461 0.36232 0.0
C449 C 0.06045 0.1462 0.35476 0.0
H450 H 0.11305 0.20557 0.34333 0.0
C451 C 0.04419 0.15108 0.31622 0.0
H452 H 0.09993 0.16123 0.3915 0.0
C453 C 0.0516 0.17658 0.28895 0.0
C454 C 0.0757 0.19728 0.29925 0.0
H455 H 0.02393 0.13729 0.30917 0.0
H456 H 0.03684 0.1818 0.26181 0.0
C457 C 0.09444 0.18986 0.33454 0.0
C458 C 0.09888 0.74848 0.56639 0.0
C459 C 0.09515 0.77948 0.58315 0.0
H460 H 0.11163 0.69996 0.5787 0.0
C461 C 0.10347 0.78593 0.62598 0.0
H462 H 0.09262 0.74308 0.53333 0.0
C463 C 0.11388 0.76098 0.65247 0.0
C464 C 0.11671 0.72964 0.63594 0.0
H465 H 0.10046 0.80971 0.63952 0.0
H466 H 0.11904 0.76603 0.68599 0.0
C467 C 0.10989 0.72387 0.59235 0.0
C468 C 0.40252 0.82146 0.8601 0.0
C469 C 0.42592 0.84218 0.8466 0.0
H470 H 0.38008 0.77636 0.85001 0.0
C471 C 0.43953 0.83678 0.80615 0.0
H472 H 0.39133 0.82512 0.89084 0.0
C473 C 0.43329 0.80872 0.78313 0.0
C474 C 0.41281 0.786 0.79956 0.0
H475 H 0.45743 0.85233 0.79442 0.0
H476 H 0.44664 0.80332 0.75466 0.0
C477 C 0.39585 0.79363 0.83652 0.0
C478 C 0.41066 0.26804 0.11378 0.0
C479 C 0.39762 0.25804 0.15285 0.0
H480 H 0.43284 0.25413 0.0555 0.0
C481 C 0.39673 0.22514 0.16291 0.0
H482 H 0.41197 0.2933 0.10548 0.0
C483 C 0.40826 0.20253 0.13371 0.0
C484 C 0.4215 0.21274 0.09481 0.0
H485 H 0.38682 0.21694 0.19296 0.0
H486 H 0.40734 0.17727 0.14192 0.0
C487 C 0.42276 0.24565 0.0853 0.0
C488 C 0.07466 0.79985 0.10161 0.0
C489 C 0.06195 0.79078 0.1413 0.0
H490 H 0.06922 0.82765 0.0438 0.0
C491 C 0.03611 0.8069 0.15639 0.0
H492 H 0.0942 0.78715 0.08895 0.0
C493 C 0.02193 0.83025 0.13091 0.0
C494 C 0.0329 0.83726 0.08926 0.0
H495 H 0.02565 0.79978 0.18657 0.0
H496 H 0.00092 0.84071 0.14243 0.0
C497 C 0.06016 0.8228 0.07564 0.0
C498 C 0.39478 0.76526 0.42462 0.0
C499 C 0.38867 0.77233 0.38113 0.0
H500 H 0.41429 0.78114 0.48393 0.0
C501 C 0.39546 0.80325 0.36529 0.0
H502 H 0.38982 0.7418 0.43806 0.0
C503 C 0.40924 0.82613 0.39212 0.0
C504 C 0.41677 0.81813 0.4348 0.0
H505 H 0.39089 0.80946 0.33195 0.0
H506 H 0.41533 0.84934 0.37891 0.0
C507 C 0.40887 0.78779 0.45097 0.0
C508 C 0.47567 0.21949 0.69678 0.0
C509 C 0.45067 0.23473 0.67749 0.0
H510 H 0.51101 0.18434 0.68975 0.0
C511 C 0.44061 0.22429 0.63694 0.0
H512 H 0.4841 0.22761 0.72777 0.0
C513 C 0.45626 0.20023 0.61478 0.0
C514 C 0.48238 0.18605 0.63273 0.0
H515 H 0.42162 0.23603 0.62127 0.0
H516 H 0.44859 0.19371 0.58274 0.0
C517 C 0.49114 0.19492 0.67484 0.0
C518 C 0.09409 0.20964 0.81929 0.0
C519 C 0.09764 0.24071 0.83634 0.0
H520 H 0.06926 0.16537 0.82191 0.0
C521 C 0.0775 0.25159 0.86821 0.0
H522 H 0.10918 0.2009 0.7943 0.0
C523 C 0.05424 0.2318 0.88286 0.0
C524 C 0.05101 0.20047 0.86662 0.0
H525 H 0.0793 0.27569 0.88122 0.0
H526 H 0.03921 0.24087 0.90771 0.0
C527 C 0.07117 0.18947 0.83479 0.0
C528 C 0.97196 0.86313 0.63796 0.0
C529 C 0.00271 0.86268 0.65028 0.0
H530 H 0.92571 0.85851 0.65834 0.0
C531 C 0.00989 0.86037 0.69444 0.0
H532 H 0.96566 0.86524 0.60427 0.0
C533 C 0.98711 0.85596 0.72509 0.0
C534 C 0.95653 0.85448 0.7126 0.0
H535 H 0.03328 0.86008 0.70526 0.0
H536 H 0.99356 0.85212 0.75848 0.0
C537 C 0.94903 0.85951 0.669 0.0
C538 C 0.97252 0.17987 0.40843 0.0
C539 C 0.96476 0.15678 0.43951 0.0
H540 H 0.96057 0.20205 0.34842 0.0
C541 C 0.93704 0.14039 0.4361 0.0
H542 H 0.99405 0.19239 0.41007 0.0
C543 C 0.91768 0.14633 0.40127 0.0
C544 C 0.92643 0.16782 0.36873 0.0
H545 H 0.93087 0.12222 0.45958 0.0
H546 H 0.89674 0.13284 0.39851 0.0
C547 C 0.95363 0.18504 0.37292 0.0
C548 C 0.50516 0.11298 0.18543 0.0
C549 C 0.51061 0.11859 0.14132 0.0
H550 H 0.52332 0.11301 0.24944 0.0
C551 C 0.54075 0.12306 0.12752 0.0
H552 H 0.48236 0.10902 0.19736 0.0
C553 C 0.56449 0.12454 0.15767 0.0
C554 C 0.55835 0.12223 0.20207 0.0
H555 H 0.54584 0.12703 0.09373 0.0
H556 H 0.58707 0.12993 0.1463 0.0
C557 C 0.52869 0.11506 0.21541 0.0
C558 C 0.55839 0.85552 0.91857 0.0
C559 C 0.53025 0.8399 0.92053 0.0
H560 H 0.60067 0.86024 0.88507 0.0
C561 C 0.52315 0.81608 0.89019 0.0
H562 H 0.56403 0.87425 0.9415 0.0
C563 C 0.54355 0.80893 0.85705 0.0
C564 C 0.57159 0.82487 0.85468 0.0
H565 H 0.50127 0.80421 0.8908 0.0
H566 H 0.53725 0.79115 0.83326 0.0
C567 C 0.57919 0.8476 0.88633 0.0
C568 C 0.88044 0.14157 0.79662 0.0
C569 C 0.88394 0.1479 0.7523 0.0
H570 H 0.90254 0.13137 0.85687 0.0
C571 C 0.91274 0.14351 0.73367 0.0
H572 H 0.85871 0.1441 0.81214 0.0
C573 C 0.93782 0.13551 0.75917 0.0
C574 C 0.93484 0.13223 0.80414 0.0
H575 H 0.91627 0.14792 0.69956 0.0
H576 H 0.95986 0.13379 0.74386 0.0
C577 C 0.9057 0.13432 0.82242 0.0
C578 C 0.63456 0.17175 0.61616 0.0
C579 C 0.63519 0.20408 0.6288 0.0
H580 H 0.61442 0.13667 0.57493 0.0
C581 C 0.62101 0.22724 0.60259 0.0
H582 H 0.64538 0.15351 0.63587 0.0
C583 C 0.60254 0.21754 0.56817 0.0
C584 C 0.59842 0.18467 0.55962 0.0
H585 H 0.62095 0.25233 0.61193 0.0
H586 H 0.58939 0.23551 0.55108 0.0
C587 C 0.61637 0.16211 0.58174 0.0
C588 C 0.58213 0.85895 0.36778 0.0
C589 C 0.5781 0.85448 0.32319 0.0
H590 H 0.56123 0.8703 0.42836 0.0
C591 C 0.54951 0.86087 0.30495 0.0
H592 H 0.60365 0.85387 0.38299 0.0
C593 C 0.52522 0.87056 0.33085 0.0
C594 C 0.52881 0.87348 0.37578 0.0
H595 H 0.54571 0.85759 0.27067 0.0
H596 H 0.50333 0.8745 0.31581 0.0
C597 C 0.55767 0.86809 0.39388 0.0
C598 C 0.89172 0.8238 0.08624 0.0
C599 C 0.90806 0.80321 0.11349 0.0
H600 H 0.89167 0.84949 0.02616 0.0
C601 C 0.93503 0.78901 0.09902 0.0
H602 H 0.87085 0.83494 0.09715 0.0
C603 C 0.94622 0.79624 0.05815 0.0
C604 C 0.931 0.81852 0.03191 0.0
H605 H 0.94778 0.77288 0.11962 0.0
H606 H 0.96781 0.7861 0.04834 0.0
C607 C 0.90347 0.83193 0.04584 0.0
C608 C 0.60076 0.68404 0.9012 0.0
C609 C 0.58405 0.65703 0.88757 0.0
H610 H 0.61931 0.72981 0.8831 0.0
C611 C 0.58001 0.652 0.843 0.0
H612 H 0.60447 0.68861 0.93522 0.0
C613 C 0.58863 0.67555 0.81336 0.0
C614 C 0.60193 0.70424 0.8276 0.0
H615 H 0.56763 0.6313 0.8312 0.0
H616 H 0.58214 0.67275 0.77981 0.0
C617 C 0.6096 0.70754 0.87134 0.0
C618 C 0.59969 0.26326 0.16638 0.0
C619 C 0.59919 0.23176 0.15008 0.0
H620 H 0.58889 0.31277 0.15464 0.0
C621 C 0.58691 0.22596 0.10903 0.0
H622 H 0.60902 0.26823 0.19805 0.0
C623 C 0.57496 0.25112 0.08483 0.0
C624 C 0.57568 0.28265 0.10078 0.0
H625 H 0.58594 0.20183 0.09594 0.0
H626 H 0.56536 0.2459 0.05337 0.0
C627 C 0.58835 0.28867 0.14157 0.0
C628 C 0.89949 0.29617 0.32741 0.0
C629 C 0.91842 0.28653 0.29333 0.0
H630 H 0.89335 0.32876 0.38024 0.0
C631 C 0.94234 0.30673 0.28068 0.0
H632 H 0.88104 0.28089 0.338 0.0
C633 C 0.94925 0.33426 0.30447 0.0
C634 C 0.93273 0.34178 0.34198 0.0
H635 H 0.95726 0.29982 0.25446 0.0
H636 H 0.96932 0.34779 0.29571 0.0
C637 C 0.90671 0.3235 0.35176 0.0
C638 C 0.90028 0.72949 0.64696 0.0
C639 C 0.9006 0.76253 0.63753 0.0
H640 H 0.91074 0.68197 0.62471 0.0
C641 C 0.91096 0.7729 0.597 0.0
H642 H 0.89246 0.72091 0.67804 0.0
C643 C 0.92186 0.7508 0.56707 0.0
C644 C 0.922 0.71786 0.57667 0.0
H645 H 0.91178 0.79823 0.58897 0.0
H646 H 0.93047 0.75955 0.53647 0.0
C647 C 0.9106 0.70723 0.61647 0.0
C648 C 0.52637 0.32122 0.6417 0.0
C649 C 0.51624 0.3134 0.59995 0.0
H650 H 0.54956 0.3052 0.69879 0.0
C651 C 0.52018 0.28178 0.58499 0.0
H652 H 0.52336 0.34529 0.65431 0.0
C653 C 0.53437 0.25868 0.61079 0.0
C654 C 0.54566 0.26675 0.65189 0.0
H655 H 0.51208 0.27474 0.55336 0.0
H656 H 0.53723 0.23466 0.59791 0.0
C657 C 0.54128 0.29824 0.66721 0.0
C658 C 0.90191 0.2972 0.8437 0.0
C659 C 0.91925 0.28255 0.87632 0.0
H660 H 0.86729 0.29127 0.79568 0.0
C661 C 0.91444 0.24997 0.88592 0.0
H662 H 0.9051 0.32224 0.83559 0.0
C663 C 0.89226 0.23253 0.86393 0.0
C664 C 0.87493 0.24718 0.83131 0.0
H665 H 0.92735 0.2381 0.91111 0.0
H666 H 0.88906 0.2074 0.87193 0.0
C667 C 0.88019 0.27954 0.82099 0.0
C668 C 0.97981 0.6505 0.16459 0.0
C669 C 0.96352 0.64222 0.12712 0.0
H670 H 0.98361 0.68301 0.21808 0.0
C671 C 0.93478 0.65613 0.12035 0.0
H672 H 0.00195 0.64018 0.17091 0.0
C673 C 0.92383 0.67988 0.14837 0.0
C674 C 0.94175 0.6906 0.18299 0.0
H675 H 0.9216 0.65012 0.09194 0.0
H676 H 0.9028 0.69205 0.14039 0.0
C677 C 0.96926 0.67487 0.19185 0.0
C678 C 0.60646 0.74649 0.42942 0.0
C679 C 0.61691 0.74251 0.38699 0.0
H680 H 0.58297 0.72563 0.48271 0.0
C681 C 0.61342 0.71245 0.36669 0.0
H682 H 0.60874 0.76931 0.44596 0.0
C683 C 0.59889 0.68717 0.3881 0.0
C684 C 0.58723 0.69185 0.42973 0.0
H685 H 0.62136 0.70865 0.33399 0.0
H686 H 0.5957 0.66456 0.37146 0.0
C687 C 0.59157 0.72151 0.4504 0.0
C688 C 0.48999 0.37449 0.20611 0.0
C689 C 0.48518 0.3722 0.1613 0.0
H690 H 0.47108 0.3693 0.26926 0.0
C691 C 0.45529 0.36817 0.1461 0.0
H692 H 0.51256 0.37799 0.2192 0.0
C693 C 0.43123 0.36394 0.17522 0.0
C694 C 0.43679 0.36305 0.21989 0.0
H695 H 0.45069 0.36668 0.11181 0.0
H696 H 0.40888 0.35901 0.16255 0.0
C697 C 0.46615 0.36969 0.23497 0.0
C698 C 0.4791 0.68508 0.92294 0.0
C699 C 0.47186 0.66266 0.95509 0.0
H700 H 0.46616 0.70564 0.86222 0.0
C701 C 0.4441 0.64624 0.95337 0.0
H702 H 0.50067 0.69757 0.92347 0.0
C703 C 0.42423 0.65121 0.91894 0.0
C704 C 0.43247 0.67176 0.88509 0.0
H705 H 0.43838 0.62858 0.97777 0.0
H706 H 0.4034 0.63742 0.91737 0.0
C707 C 0.45963 0.68932 0.88777 0.0
C708 C 0.03091 0.61853 0.69807 0.0
C709 C 0.0607 0.62609 0.68593 0.0
H710 H 0.98483 0.61307 0.67866 0.0
C711 C 0.06733 0.6304 0.64193 0.0
H712 H 0.02518 0.61521 0.73181 0.0
C713 C 0.04388 0.63009 0.61113 0.0
C714 C 0.01359 0.6249 0.6239 0.0
H715 H 0.09006 0.63641 0.63167 0.0
H716 H 0.0493 0.63541 0.57779 0.0
C717 C 0.00772 0.61761 0.66748 0.0
C718 C 0.05546 0.35044 0.42749 0.0
C719 C 0.02696 0.33563 0.43087 0.0
H720 H 0.09678 0.35435 0.39131 0.0
C721 C 0.01889 0.31139 0.40159 0.0
H722 H 0.06187 0.36948 0.44953 0.0
C723 C 0.0383 0.30361 0.36756 0.0
C724 C 0.06627 0.31941 0.36313 0.0
H725 H 0.99677 0.30009 0.40321 0.0
H726 H 0.03115 0.28578 0.34426 0.0
C727 C 0.07527 0.34194 0.39423 0.0
C728 C 0.48357 0.64688 0.31064 0.0
C729 C 0.47909 0.63874 0.35423 0.0
H730 H 0.46428 0.66677 0.25304 0.0
C731 C 0.44988 0.64211 0.37198 0.0
H732 H 0.50577 0.64469 0.29591 0.0
C733 C 0.42595 0.65433 0.3471 0.0
C734 C 0.43085 0.66395 0.30419 0.0
H735 H 0.44563 0.636 0.40544 0.0
H736 H 0.4041 0.65761 0.36223 0.0
C737 C 0.4598 0.65962 0.28606 0.0
C738 C 0.06541 0.68546 0.03564 0.0
C739 C 0.06381 0.65232 0.02729 0.0
H740 H 0.08418 0.72213 0.07618 0.0
C741 C 0.08497 0.6316 0.04682 0.0
H742 H 0.0496 0.70205 0.02073 0.0
C743 C 0.10458 0.64313 0.07853 0.0
C744 C 0.10373 0.67558 0.09014 0.0
H745 H 0.0848 0.60606 0.04013 0.0
H746 H 0.11846 0.62626 0.09649 0.0
C747 C 0.08531 0.69702 0.06708 0.0
C748 C 0.05862 0.34983 0.75792 0.0
C749 C 0.08724 0.34655 0.77772 0.0
H750 H 0.0107 0.35566 0.76648 0.0
C751 C 0.08923 0.35043 0.82271 0.0
H752 H 0.05621 0.34722 0.72329 0.0
C753 C 0.06299 0.35441 0.84762 0.0
C754 C 0.03425 0.35561 0.82795 0.0
H755 H 0.11069 0.34862 0.83919 0.0
H756 H 0.06517 0.35569 0.88242 0.0
C757 C 0.03247 0.35458 0.7827 0.0
C758 C 0.39563 0.36542 0.56518 0.0
C759 C 0.40643 0.33957 0.5403 0.0
H760 H 0.37783 0.38026 0.6263 0.0
C761 C 0.40009 0.30804 0.55369 0.0
H762 H 0.39923 0.39002 0.555 0.0
C763 C 0.38658 0.30253 0.59385 0.0
C764 C 0.37987 0.32852 0.62102 0.0
H765 H 0.40783 0.2877 0.53511 0.0
H766 H 0.38412 0.27808 0.6053 0.0
C767 C 0.38313 0.35994 0.60576 0.0
C768 C 0.25563 0.30425 0.22033 0.0
C769 C 0.27648 0.29822 0.25378 0.0
H770 H 0.20941 0.30248 0.19931 0.0
C771 C 0.26611 0.28312 0.29162 0.0
H772 H 0.26287 0.3155 0.19053 0.0
C773 C 0.23533 0.27572 0.29673 0.0
C774 C 0.21431 0.28298 0.26394 0.0
H775 H 0.28157 0.27796 0.31794 0.0
H776 H 0.2279 0.26517 0.32689 0.0
C777 C 0.22495 0.29658 0.22526 0.0
C778 C 0.0607 0.95984 0.47319 0.0
C779 C 0.07282 0.95346 0.51426 0.0
H780 H 0.04441 0.99516 0.42905 0.0
C781 C 0.08144 0.97935 0.54072 0.0
H782 H 0.05445 0.94047 0.45159 0.0
C783 C 0.07567 0.01102 0.52764 0.0
C784 C 0.06126 0.01711 0.48792 0.0
H785 H 0.09107 0.97514 0.57241 0.0
H786 H 0.08072 0.03047 0.54973 0.0
C787 C 0.05507 0.99126 0.46016 0.0
C788 C 0.26093 0.69304 0.79956 0.0
C789 C 0.28411 0.68543 0.77017 0.0
H790 H 0.21336 0.69218 0.81327 0.0
C791 C 0.2763 0.67143 0.73037 0.0
H792 H 0.26618 0.70384 0.83048 0.0
C793 C 0.24605 0.66442 0.72065 0.0
C794 C 0.22288 0.6715 0.75035 0.0
H795 H 0.29362 0.66519 0.70702 0.0
H796 H 0.24088 0.65332 0.68989 0.0
C797 C 0.23063 0.68627 0.7897 0.0
C798 C 0.4395 0.03803 0.95971 0.0
C799 C 0.42872 0.04365 0.00167 0.0
H800 H 0.4522 0.00332 0.91245 0.0
C801 C 0.41846 0.01749 0.02643 0.0
H802 H 0.44696 0.05772 0.93943 0.0
C803 C 0.4215 0.98607 0.01091 0.0
C804 C 0.43475 0.98038 0.97033 0.0
H805 H 0.40974 0.02109 0.05875 0.0
H806 H 0.41533 0.96628 0.03186 0.0
C807 C 0.44234 0.00678 0.94414 0.0
C808 C 0.2224 0.743 0.25228 0.0
C809 C 0.20264 0.72628 0.27994 0.0
H810 H 0.26851 0.75223 0.23428 0.0
C811 C 0.21494 0.70896 0.31475 0.0
H812 H 0.21365 0.75656 0.22513 0.0
C813 C 0.24632 0.70636 0.31991 0.0
C814 C 0.26619 0.72096 0.29031 0.0
H815 H 0.20033 0.696 0.33683 0.0
H816 H 0.25493 0.69168 0.34609 0.0
C817 C 0.25388 0.7403 0.25736 0.0
C818 C 0.4669 0.01161 0.47166 0.0
C819 C 0.4745 0.98511 0.49775 0.0
H820 H 0.47074 0.06239 0.46172 0.0
C821 C 0.49017 0.99057 0.53662 0.0
H822 H 0.45465 0.00831 0.44166 0.0
C823 C 0.49918 0.0215 0.54824 0.0
C824 C 0.49288 0.04785 0.52125 0.0
H825 H 0.49608 0.97083 0.55784 0.0
H826 H 0.51196 0.02453 0.57786 0.0
C827 C 0.47602 0.04266 0.48328 0.0
C828 C 0.26393 0.2792 0.81887 0.0
C829 C 0.24296 0.26724 0.78866 0.0
H830 H 0.31066 0.28334 0.83695 0.0
C831 C 0.25308 0.24503 0.75759 0.0
H832 H 0.25686 0.29599 0.84362 0.0
C833 C 0.28389 0.23759 0.75393 0.0
C834 C 0.30532 0.25236 0.78106 0.0
H835 H 0.23745 0.23476 0.73437 0.0
H836 H 0.29108 0.22213 0.72772 0.0
C837 C 0.29483 0.27181 0.81513 0.0
C838 C 0.997 0.02492 0.97039 0.0
C839 C 0.00864 0.03132 0.92909 0.0
H840 H 0.98485 0.98953 0.01696 0.0
C841 C 0.01916 0.00551 0.9038 0.0
H842 H 0.98918 0.0442 0.99108 0.0
C843 C 0.01671 0.97386 0.91877 0.0
C844 C 0.00378 0.96747 0.95936 0.0
H845 H 0.02853 0.00965 0.87196 0.0
H846 H 0.02385 0.95441 0.89788 0.0
C847 C 0.99471 0.99346 0.98537 0.0
C848 C 0.78161 0.79581 0.79596 0.0
C849 C 0.79139 0.81053 0.7575 0.0
H850 H 0.74393 0.77854 0.83301 0.0
C851 C 0.76985 0.81782 0.7255 0.0
H852 H 0.79767 0.78984 0.82124 0.0
C853 C 0.73919 0.81083 0.73197 0.0
C854 C 0.72931 0.79687 0.77087 0.0
H855 H 0.77668 0.82888 0.69537 0.0
H856 H 0.72314 0.81713 0.70683 0.0
C857 C 0.75085 0.78929 0.80272 0.0
C858 C 0.72778 0.19789 0.28597 0.0
C859 C 0.71828 0.18364 0.24708 0.0
H860 H 0.76512 0.21518 0.32366 0.0
C861 C 0.73985 0.17835 0.2144 0.0
H862 H 0.71175 0.20252 0.31174 0.0
C863 C 0.77039 0.1859 0.2211 0.0
C864 C 0.78012 0.1987 0.26076 0.0
H865 H 0.7333 0.16777 0.18384 0.0
H866 H 0.78651 0.1806 0.19568 0.0
C867 C 0.75839 0.20524 0.29279 0.0
C868 C 0.70466 0.28775 0.76557 0.0
C869 C 0.67936 0.27176 0.78272 0.0
H870 H 0.75086 0.28399 0.74445 0.0
C871 C 0.68154 0.23883 0.7922 0.0
H872 H 0.70351 0.31316 0.7581 0.0
C873 C 0.70882 0.2223 0.78542 0.0
C874 C 0.73414 0.23825 0.76805 0.0
H875 H 0.66244 0.22609 0.80602 0.0
H876 H 0.71007 0.19703 0.79362 0.0
C877 C 0.73166 0.27104 0.75766 0.0
C878 C 0.78287 0.76354 0.27662 0.0
C879 C 0.80357 0.77925 0.30395 0.0
H880 H 0.73656 0.75869 0.25672 0.0
C881 C 0.7924 0.79995 0.33605 0.0
H882 H 0.79077 0.74752 0.25146 0.0
C883 C 0.76137 0.80641 0.33903 0.0
C884 C 0.74083 0.79249 0.30974 0.0
H885 H 0.80778 0.81232 0.3577 0.0
H886 H 0.75369 0.82338 0.3632 0.0
C887 C 0.75181 0.77022 0.27935 0.0
C888 C 0.57798 0.48383 0.06643 0.0
C889 C 0.57145 0.45891 0.03723 0.0
H890 H 0.57861 0.53478 0.07708 0.0
C891 C 0.56546 0.4665 0.99392 0.0
H892 H 0.58294 0.47858 0.09995 0.0
C893 C 0.56346 0.49837 0.98076 0.0
C894 C 0.56704 0.52344 0.01072 0.0
H895 H 0.56107 0.44777 0.97043 0.0
H896 H 0.55727 0.50331 0.94755 0.0
C897 C 0.5757 0.51597 0.05327 0.0
C898 C 0.92203 0.49136 0.49686 0.0
C899 C 0.93867 0.48352 0.45963 0.0
H900 H 0.90767 0.52851 0.54001 0.0
C901 C 0.95032 0.50856 0.43399 0.0
H902 H 0.9127 0.4727 0.5173 0.0
C903 C 0.94773 0.54048 0.4472 0.0
C904 C 0.93325 0.54817 0.48623 0.0
H905 H 0.96296 0.50345 0.4048 0.0
H906 H 0.9582 0.55899 0.42764 0.0
C907 C 0.91933 0.5234 0.51002 0.0
C908 C 0.9771 0.44975 0.00316 0.0
C909 C 0.96102 0.44514 0.96446 0.0
H910 H 0.99472 0.48332 0.04883 0.0
C911 C 0.94719 0.4718 0.94459 0.0
H912 H 0.9876 0.42971 0.01979 0.0
C913 C 0.95108 0.50266 0.96149 0.0
C914 C 0.96898 0.50747 -0.00146 0.0
H915 H 0.93424 0.46906 0.91508 0.0
H916 H 0.94147 0.52284 0.94412 0.0
C917 C 0.981 0.48054 0.02002 0.0
C918 C 0.53012 0.47717 0.51697 0.0
C919 C 0.52693 0.45349 0.48499 0.0
H920 H 0.53808 0.52658 0.53118 0.0
C921 C 0.53401 0.46136 0.44194 0.0
H922 H 0.52525 0.47185 0.5505 0.0
C923 C 0.54155 0.49309 0.43078 0.0
C924 C 0.54176 0.51725 0.4625 0.0
H925 H 0.53165 0.44365 0.41654 0.0
H926 H 0.54534 0.49906 0.39718 0.0
C927 C 0.53721 0.50866 0.50583 0.0
C928 C 0.04071 0.26472 0.06391 0.0
C929 C 0.04187 0.29435 0.04215 0.0
H930 H 0.04935 0.23965 0.1232 0.0
C931 C 0.05837 0.31981 0.06055 0.0
H932 H 0.0284 0.24458 0.05041 0.0
C933 C 0.07126 0.31651 0.10158 0.0
C934 C 0.06739 0.28794 0.12489 0.0
H935 H 0.05982 0.34284 0.04436 0.0
H936 H 0.08198 0.33715 0.11649 0.0
C937 C 0.05288 0.26174 0.10537 0.0
C938 C 0.94575 0.78186 0.38147 0.0
C939 C 0.95351 0.80063 0.34545 0.0
H940 H 0.95271 0.77353 0.4492 0.0
C941 C 0.97205 0.82771 0.35119 0.0
H942 H 0.93135 0.76095 0.37784 0.0
C943 C 0.9835 0.8354 0.39176 0.0
C944 C 0.97727 0.81578 0.42755 0.0
H945 H 0.97795 0.84294 0.32408 0.0
H946 H 0.99834 0.85605 0.39456 0.0
C947 C 0.95788 0.78916 0.42221 0.0
C948 C 0.4324 0.64588 0.62781 0.0
C949 C 0.43354 0.6774 0.64373 0.0
H950 H 0.4461 0.61369 0.5774 0.0
C951 C 0.44553 0.70195 0.61797 0.0
H952 H 0.42366 0.62657 0.64772 0.0
C953 C 0.45771 0.69478 0.57751 0.0
C954 C 0.45904 0.66276 0.56308 0.0
H955 H 0.44701 0.72631 0.63015 0.0
H956 H 0.46824 0.71394 0.55919 0.0
C957 C 0.44537 0.63852 0.58786 0.0
C958 C 0.55693 0.18437 0.8694 0.0
C959 C 0.54922 0.17751 0.82634 0.0
H960 H 0.54434 0.18023 0.93608 0.0
C961 C 0.52228 0.16052 0.81781 0.0
H962 H 0.57762 0.19723 0.87698 0.0
C963 C 0.50327 0.15099 0.85141 0.0
C964 C 0.51087 0.15782 0.89444 0.0
H965 H 0.51561 0.15492 0.78498 0.0
H966 H 0.48247 0.13838 0.8436 0.0
C967 C 0.53803 0.17437 0.90321 0.0
C968 C 0.00107 0.70818 0.35305 0.0
C969 C 0.01288 0.68947 0.38694 0.0
H970 H 0.00777 0.72666 0.28933 0.0
C971 C 0.04285 0.678 0.38398 0.0
H972 H 0.97813 0.71753 0.35433 0.0
C973 C 0.06021 0.68411 0.34692 0.0
C974 C 0.04753 0.70118 0.31218 0.0
H975 H 0.05261 0.66377 0.40979 0.0
H976 H 0.08279 0.67394 0.34438 0.0
C977 C 0.01806 0.71361 0.31588 0.0
C978 C 0.57883 0.81947 0.6252 0.0
C979 C 0.57043 0.79303 0.65088 0.0
H980 H 0.56416 0.85587 0.58074 0.0
C981 C 0.54014 0.78253 0.65007 0.0
H982 H 0.60201 0.82811 0.62501 0.0
C983 C 0.51855 0.79853 0.62518 0.0
C984 C 0.52672 0.82532 0.60015 0.0
H985 H 0.53292 0.76211 0.66918 0.0
H986 H 0.4954 0.78977 0.62562 0.0
C987 C 0.55714 0.83549 0.60005 0.0
C988 C 0.48826 0.3548 0.82994 0.0
C989 C 0.45893 0.34171 0.83344 0.0
H990 H 0.52799 0.37119 0.86269 0.0
C991 C 0.44681 0.33626 0.87481 0.0
H992 H 0.49835 0.35941 0.79868 0.0
C993 C 0.46388 0.34337 0.9118 0.0
C994 C 0.49345 0.35577 0.90803 0.0
H995 H 0.42423 0.32641 0.87866 0.0
H996 H 0.4542 0.33841 0.94324 0.0
C997 C 0.5053 0.36164 0.86673 0.0
C998 C 0.95033 0.20959 0.11029 0.0
C999 C 0.92877 0.18867 0.12791 0.0
H1000 H 0.97795 0.22128 0.05625 0.0
C1001 C 0.91608 0.16451 0.10186 0.0
H1002 H 0.96032 0.22845 0.1298 0.0
C1003 C 0.92683 0.15972 0.0597 0.0
C1004 C 0.95006 0.17936 0.04317 0.0
H1005 H 0.89955 0.14796 0.11508 0.0
H1006 H 0.91817 0.13971 0.04106 0.0
C1007 C 0.96055 0.20526 0.06822 0.0
C1008 C 0.90449 0.68334 0.92444 0.0
C1009 C 0.92075 0.66173 0.89819 0.0
H1010 H 0.88048 0.72807 0.9279 0.0
C1011 C 0.92112 0.66667 0.85337 0.0
H1012 H 0.90358 0.68008 0.95911 0.0
C1013 C 0.90797 0.69415 0.8356 0.0
C1014 C 0.89411 0.71723 0.86227 0.0
H1015 H 0.93312 0.65031 0.83219 0.0
H1016 H 0.91005 0.69806 0.80115 0.0
C1017 C 0.89126 0.71088 0.9066 0.0
C1018 C 0.13275 0.19125 0.64361 0.0
C1019 C 0.13996 0.21922 0.6202 0.0
H1020 H 0.11148 0.14508 0.64293 0.0
C1021 C 0.13485 0.2197 0.57547 0.0
H1022 H 0.1368 0.18988 0.67806 0.0
C1023 C 0.12042 0.19384 0.55527 0.0
C1024 C 0.11076 0.16709 0.57949 0.0
H1025 H 0.14043 0.24072 0.55644 0.0
H1026 H 0.11528 0.19571 0.52116 0.0
C1027 C 0.11827 0.16547 0.62347 0.0
C1028 C 0.55436 0.2835 0.38442 0.0
C1029 C 0.53559 0.27349 0.41857 0.0
H1030 H 0.58692 0.2695 0.33643 0.0
C1031 C 0.53719 0.24142 0.43238 0.0
H1032 H 0.55383 0.30815 0.37321 0.0
C1033 C 0.55589 0.21939 0.41143 0.0
C1034 C 0.57387 0.22895 0.37636 0.0
H1035 H 0.52364 0.23314 0.45916 0.0
H1036 H 0.55569 0.19462 0.42216 0.0
C1037 C 0.57341 0.26141 0.36353 0.0
C1038 C 0.38266 0.81049 0.06921 0.0
C1039 C 0.39801 0.83709 0.08677 0.0
H1040 H 0.35932 0.76638 0.08172 0.0
C1041 C 0.39805 0.84132 0.13177 0.0
H1042 H 0.38199 0.80664 0.03464 0.0
C1043 C 0.38505 0.81822 0.15877 0.0
C1044 C 0.37173 0.7904 0.14133 0.0
H1045 H 0.40942 0.86168 0.14635 0.0
H1046 H 0.38674 0.82149 0.19338 0.0
C1047 C 0.36966 0.78737 0.09623 0.0
C1048 C 0.86737 0.31367 0.54388 0.0
C1049 C 0.88266 0.33672 0.56901 0.0
H1050 H 0.8399 0.27124 0.54346 0.0
C1051 C 0.87838 0.33666 0.61394 0.0
H1052 H 0.87002 0.31314 0.50912 0.0
C1053 C 0.86101 0.3127 0.63359 0.0
C1054 C 0.84767 0.28817 0.60875 0.0
H1055 H 0.8896 0.35423 0.6342 0.0
H1056 H 0.85934 0.31254 0.66848 0.0
C1057 C 0.85012 0.28958 0.56357 0.0
C1058 C 0.41013 0.25761 0.43977 0.0
C1059 C 0.40687 0.25028 0.39578 0.0
H1060 H 0.43282 0.24686 0.49911 0.0
C1061 C 0.42232 0.22343 0.37898 0.0
H1062 H 0.39821 0.27782 0.45383 0.0
C1063 C 0.44215 0.20562 0.40509 0.0
C1064 C 0.44685 0.21439 0.44839 0.0
H1065 H 0.42029 0.21713 0.34517 0.0
H1066 H 0.45476 0.18594 0.39086 0.0
C1067 C 0.42996 0.23992 0.46571 0.0
C1068 C 0.58112 0.66585 0.17885 0.0
C1069 C 0.59047 0.66722 0.13554 0.0
H1070 H 0.58213 0.68807 0.241 0.0
C1071 C 0.61164 0.69078 0.12313 0.0
H1072 H 0.56503 0.64789 0.18963 0.0
C1073 C 0.62167 0.71379 0.15287 0.0
C1074 C 0.6104 0.71375 0.19528 0.0
H1075 H 0.6194 0.69236 0.09002 0.0
H1076 H 0.63689 0.73256 0.14205 0.0
C1077 C 0.59083 0.68898 0.20831 0.0
C1078 C 0.08622 0.76633 0.85407 0.0
C1079 C 0.07337 0.73541 0.85163 0.0
H1080 H 0.07895 0.81614 0.86988 0.0
C1081 C 0.04297 0.73114 0.8639 0.0
H1082 H 0.1096 0.77029 0.84469 0.0
C1083 C 0.02544 0.75722 0.87678 0.0
C1084 C 0.038 0.78818 0.87879 0.0
H1085 H 0.03227 0.70774 0.86225 0.0
H1086 H 0.00196 0.75302 0.88549 0.0
C1087 C 0.06873 0.79251 0.86821 0.0
loop_
_geom_bond_atom_site_label_1
_geom_bond_atom_site_label_2
_geom_bond_distance
_geom_bond_site_symmetry_2
_ccdc_geom_bond_type
Mg0 O1 2.028 . S
Mg0 O7 1.986 . S
Mg0 O9 2.114 . S
Mg0 O10 2.251 . S
Mg0 O13 2.010 . S
O1 Mg0 2.028 . S
O1 C4 1.250 . S
O2 Mg3 2.028 . S
O2 C4 1.248 . S
Mg3 O2 2.028 . S
Mg3 O8 2.032 . S
Mg3 O10 2.079 . S
C4 O1 1.250 . S
C4 O2 1.248 . S
C5 O6 1.264 . S
C5 O13 1.249 . S
O6 C5 1.264 . S
O7 Mg0 1.986 . S
O7 C11 1.246 . S
O8 Mg3 2.032 . S
O8 C11 1.259 . S
O9 Mg0 2.114 . S
O9 C12 1.252 . S
O10 Mg0 2.251 . S
O10 Mg3 2.079 . S
O10 C12 1.273 . S
C11 O7 1.246 . S
C11 O8 1.259 . S
C12 O9 1.252 . S
C12 O10 1.273 . S
O13 Mg0 2.010 . S
O13 C5 1.249 . S
Mg14 O15 2.028 1_455 S
Mg14 O21 1.986 1_455 S
Mg14 O23 2.114 . S
Mg14 O24 2.251 . S
Mg14 O27 2.010 1_455 S
O15 Mg14 2.028 1_655 S
O15 C18 1.250 . S
O16 Mg17 2.028 1_655 S
O16 C18 1.248 . S
Mg17 O16 2.028 1_455 S
Mg17 O22 2.032 . S
Mg17 O24 2.079 . S
C18 O15 1.250 . S
C18 O16 1.248 . S
C19 O20 1.272 . S
C19 O27 1.249 . S
O20 C19 1.272 . S
O21 Mg14 1.986 1_655 S
O21 C25 1.246 1_655 S
O22 Mg17 2.032 . S
O22 C25 1.259 . S
O23 Mg14 2.114 . S
O23 C26 1.252 . S
O24 Mg14 2.251 . S
O24 Mg17 2.079 . S
O24 C26 1.273 . S
C25 O21 1.246 1_455 S
C25 O22 1.259 . S
C26 O23 1.252 . S
C26 O24 1.273 . S
O27 Mg14 2.010 1_655 S
O27 C19 1.249 . S
Mg28 O29 2.028 . S
Mg28 O35 1.986 . S
Mg28 O37 2.114 . S
Mg28 O38 2.251 . S
Mg28 O41 2.010 . S
O29 Mg28 2.028 . S
O29 C32 1.250 . S
O30 Mg31 2.028 . S
O30 C32 1.248 . S
Mg31 O30 2.028 . S
Mg31 O36 2.032 . S
Mg31 O38 2.079 . S
C32 O29 1.250 . S
C32 O30 1.248 . S
C33 O34 1.264 . S
C33 O41 1.249 . S
O34 C33 1.264 . S
O35 Mg28 1.986 . S
O35 C39 1.246 . S
O36 Mg31 2.032 . S
O36 C39 1.259 . S
O37 Mg28 2.114 . S
O37 C40 1.252 . S
O38 Mg28 2.251 . S
O38 Mg31 2.079 . S
O38 C40 1.273 . S
C39 O35 1.246 . S
C39 O36 1.259 . S
C40 O37 1.252 . S
C40 O38 1.273 . S
O41 Mg28 2.010 . S
O41 C33 1.249 . S
Mg42 O43 2.028 . S
Mg42 O49 1.986 . S
Mg42 O51 2.114 . S
Mg42 O52 2.251 . S
Mg42 O55 2.010 1_554 S
O43 Mg42 2.028 . S
O43 C46 1.250 . S
O44 Mg45 2.028 . S
O44 C46 1.248 . S
Mg45 O44 2.028 . S
Mg45 O50 2.032 . S
Mg45 O52 2.079 . S
C46 O43 1.250 . S
C46 O44 1.248 . S
C47 O48 1.264 . S
C47 O55 1.249 . S
O48 C47 1.264 . S
O49 Mg42 1.986 . S
O49 C53 1.246 . S
O50 Mg45 2.032 . S
O50 C53 1.259 . S
O51 Mg42 2.114 . S
O51 C54 1.252 . S
O52 Mg42 2.251 . S
O52 Mg45 2.079 . S
O52 C54 1.273 . S
C53 O49 1.246 . S
C53 O50 1.259 . S
C54 O51 1.252 . S
C54 O52 1.273 . S
O55 Mg42 2.010 1_556 S
O55 C47 1.249 . S
Mg56 O57 2.028 . S
Mg56 O63 1.986 . S
Mg56 O65 2.114 . S
Mg56 O66 2.251 . S
Mg56 O69 2.010 . S
O57 Mg56 2.028 . S
O57 C60 1.250 . S
O58 Mg59 2.028 . S
O58 C60 1.248 . S
Mg59 O58 2.028 . S
Mg59 O64 2.032 . S
Mg59 O66 2.079 . S
C60 O57 1.250 . S
C60 O58 1.248 . S
C61 O62 1.264 . S
C61 O69 1.249 . S
O62 C61 1.264 . S
O63 Mg56 1.986 . S
O63 C67 1.246 . S
O64 Mg59 2.032 . S
O64 C67 1.259 . S
O65 Mg56 2.114 . S
O65 C68 1.252 . S
O66 Mg56 2.251 . S
O66 Mg59 2.079 . S
O66 C68 1.273 . S
C67 O63 1.246 . S
C67 O64 1.259 . S
C68 O65 1.252 . S
C68 O66 1.273 . S
O69 Mg56 2.010 . S
O69 C61 1.249 . S
Mg70 O71 2.028 . S
Mg70 O77 1.986 . S
Mg70 O79 2.114 . S
Mg70 O80 2.251 . S
Mg70 O83 2.010 . S
O71 Mg70 2.028 . S
O71 C74 1.250 . S
O72 Mg73 2.028 . S
O72 C74 1.248 . S
Mg73 O72 2.028 . S
Mg73 O78 2.032 . S
Mg73 O80 2.079 . S
C74 O71 1.250 . S
C74 O72 1.248 . S
C75 O76 1.264 . S
C75 O83 1.249 . S
O76 C75 1.264 . S
O77 Mg70 1.986 . S
O77 C81 1.246 . S
O78 Mg73 2.032 . S
O78 C81 1.259 . S
O79 Mg70 2.114 . S
O79 C82 1.252 . S
O80 Mg70 2.251 . S
O80 Mg73 2.079 . S
O80 C82 1.273 . S
C81 O77 1.246 . S
C81 O78 1.259 . S
C82 O79 1.252 . S
C82 O80 1.273 . S
O83 Mg70 2.010 . S
O83 C75 1.249 . S
Mg84 O85 2.028 . S
Mg84 O91 1.986 . S
Mg84 O93 2.114 . S
Mg84 O94 2.251 . S
Mg84 O97 2.010 . S
O85 Mg84 2.028 . S
O85 C88 1.250 . S
O86 Mg87 2.028 . S
O86 C88 1.248 . S
Mg87 O86 2.028 . S
Mg87 O92 2.032 . S
Mg87 O94 2.079 . S
C88 O85 1.250 . S
C88 O86 1.248 . S
C89 O90 1.264 . S
C89 O97 1.249 . S
O90 C89 1.264 . S
O91 Mg84 1.986 . S
O91 C95 1.246 . S
O92 Mg87 2.032 . S
O92 C95 1.259 . S
O93 Mg84 2.114 . S
O93 C96 1.252 . S
O94 Mg84 2.251 . S
O94 Mg87 2.079 . S
O94 C96 1.273 . S
C95 O91 1.246 . S
C95 O92 1.259 . S
C96 O93 1.252 . S
C96 O94 1.273 . S
O97 Mg84 2.010 . S
O97 C89 1.249 . S
Mg98 O99 2.028 1_455 S
Mg98 O105 1.986 1_455 S
Mg98 O107 2.114 . S
Mg98 O108 2.251 . S
Mg98 O111 2.010 1_456 S
O99 Mg98 2.028 1_655 S
O99 C102 1.250 . S
O100 Mg101 2.028 1_655 S
O100 C102 1.248 . S
Mg101 O100 2.028 1_455 S
Mg101 O106 2.032 . S
Mg101 O108 2.079 . S
C102 O99 1.250 . S
C102 O100 1.248 . S
C103 O104 1.271 . S
C103 O111 1.249 . S
O104 C103 1.271 . S
O105 Mg98 1.986 1_655 S
O105 C109 1.246 1_655 S
O106 Mg101 2.032 . S
O106 C109 1.259 . S
O107 Mg98 2.114 . S
O107 C110 1.252 . S
O108 Mg98 2.251 . S
O108 Mg101 2.079 . S
O108 C110 1.273 . S
C109 O105 1.246 1_455 S
C109 O106 1.259 . S
C110 O107 1.252 . S
C110 O108 1.273 . S
O111 Mg98 2.010 1_654 S
O111 C103 1.249 . S
Mg112 O113 2.028 . S
Mg112 O119 1.986 . S
Mg112 O121 2.114 . S
Mg112 O122 2.251 . S
Mg112 O125 2.010 . S
O113 Mg112 2.028 . S
O113 C116 1.250 . S
O114 Mg115 2.028 . S
O114 C116 1.248 . S
Mg115 O114 2.028 . S
Mg115 O120 2.032 . S
Mg115 O122 2.079 . S
C116 O113 1.250 . S
C116 O114 1.248 . S
C117 O118 1.264 . S
C117 O125 1.249 . S
O118 C117 1.264 . S
O119 Mg112 1.986 . S
O119 C123 1.246 . S
O120 Mg115 2.032 . S
O120 C123 1.259 . S
O121 Mg112 2.114 . S
O121 C124 1.252 . S
O122 Mg112 2.251 . S
O122 Mg115 2.079 . S
O122 C124 1.273 . S
C123 O119 1.246 . S
C123 O120 1.259 . S
C124 O121 1.252 . S
C124 O122 1.273 . S
O125 Mg112 2.010 . S
O125 C117 1.249 . S
Mg126 O127 2.028 . S
Mg126 O133 1.986 . S
Mg126 O135 2.114 1_455 S
Mg126 O136 2.251 1_455 S
Mg126 O139 2.010 . S
O127 Mg126 2.028 . S
O127 C130 1.250 . S
O128 Mg129 2.028 . S
O128 C130 1.248 . S
Mg129 O128 2.028 . S
Mg129 O134 2.032 . S
Mg129 O136 2.079 1_455 S
C130 O127 1.250 . S
C130 O128 1.248 . S
C131 O132 1.264 . S
C131 O139 1.249 . S
O132 C131 1.264 . S
O133 Mg126 1.986 . S
O133 C137 1.246 . S
O134 Mg129 2.032 . S
O134 C137 1.259 . S
O135 Mg126 2.114 1_655 S
O135 C138 1.252 . S
O136 Mg126 2.251 1_655 S
O136 Mg129 2.079 1_655 S
O136 C138 1.273 . S
C137 O133 1.246 . S
C137 O134 1.259 . S
C138 O135 1.252 . S
C138 O136 1.273 . S
O139 Mg126 2.010 . S
O139 C131 1.249 . S
Mg140 O141 2.028 . S
Mg140 O147 1.986 . S
Mg140 O149 2.114 . S
Mg140 O150 2.251 . S
Mg140 O153 2.010 . S
O141 Mg140 2.028 . S
O141 C144 1.250 . S
O142 Mg143 2.028 . S
O142 C144 1.248 . S
Mg143 O142 2.028 . S
Mg143 O148 2.032 . S
Mg143 O150 2.079 . S
C144 O141 1.250 . S
C144 O142 1.248 . S
C145 O146 1.264 . S
C145 O153 1.249 . S
O146 C145 1.264 . S
O147 Mg140 1.986 . S
O147 C151 1.246 . S
O148 Mg143 2.032 . S
O148 C151 1.259 . S
O149 Mg140 2.114 . S
O149 C152 1.252 . S
O150 Mg140 2.251 . S
O150 Mg143 2.079 . S
O150 C152 1.273 . S
C151 O147 1.246 . S
C151 O148 1.259 . S
C152 O149 1.252 . S
C152 O150 1.273 . S
O153 Mg140 2.010 . S
O153 C145 1.249 . S
Mg154 O155 2.028 . S
Mg154 O161 1.986 . S
Mg154 O163 2.114 . S
Mg154 O164 2.251 . S
Mg154 O167 2.010 1_556 S
O155 Mg154 2.028 . S
O155 C158 1.250 . S
O156 Mg157 2.028 . S
O156 C158 1.248 . S
Mg157 O156 2.028 . S
Mg157 O162 2.032 . S
Mg157 O164 2.079 . S
C158 O155 1.250 . S
C158 O156 1.248 . S
C159 O160 1.264 . S
C159 O167 1.249 . S
O160 C159 1.264 . S
O161 Mg154 1.986 . S
O161 C165 1.246 . S
O162 Mg157 2.032 . S
O162 C165 1.259 . S
O163 Mg154 2.114 . S
O163 C166 1.252 . S
O164 Mg154 2.251 . S
O164 Mg157 2.079 . S
O164 C166 1.273 . S
C165 O161 1.246 . S
C165 O162 1.259 . S
C166 O163 1.252 . S
C166 O164 1.273 . S
O167 Mg154 2.010 1_554 S
O167 C159 1.249 . S
Mg168 O169 2.028 . S
Mg168 O175 1.986 . S
Mg168 O177 2.114 . S
Mg168 O178 2.251 . S
Mg168 O181 2.010 . S
O169 Mg168 2.028 . S
O169 C172 1.250 . S
O170 Mg171 2.028 . S
O170 C172 1.248 . S
Mg171 O170 2.028 . S
Mg171 O176 2.032 . S
Mg171 O178 2.079 . S
C172 O169 1.250 . S
C172 O170 1.248 . S
C173 O174 1.264 . S
C173 O181 1.249 . S
O174 C173 1.264 . S
O175 Mg168 1.986 . S
O175 C179 1.246 . S
O176 Mg171 2.032 . S
O176 C179 1.259 . S
O177 Mg168 2.114 . S
O177 C180 1.252 . S
O178 Mg168 2.251 . S
O178 Mg171 2.079 . S
O178 C180 1.273 . S
C179 O175 1.246 . S
C179 O176 1.259 . S
C180 O177 1.252 . S
C180 O178 1.273 . S
O181 Mg168 2.010 . S
O181 C173 1.249 . S
Mg182 O183 2.028 . S
Mg182 O189 1.986 . S
Mg182 O191 2.114 . S
Mg182 O192 2.251 . S
Mg182 O195 2.010 . S
O183 Mg182 2.028 . S
O183 C186 1.250 . S
O184 Mg185 2.028 . S
O184 C186 1.248 . S
Mg185 O184 2.028 . S
Mg185 O190 2.032 . S
Mg185 O192 2.079 . S
C186 O183 1.250 . S
C186 O184 1.248 . S
C187 O188 1.264 . S
C187 O195 1.249 . S
O188 C187 1.264 . S
O189 Mg182 1.986 . S
O189 C193 1.246 . S
O190 Mg185 2.032 . S
O190 C193 1.259 . S
O191 Mg182 2.114 . S
O191 C194 1.252 . S
O192 Mg182 2.251 . S
O192 Mg185 2.079 . S
O192 C194 1.273 . S
C193 O189 1.246 . S
C193 O190 1.259 . S
C194 O191 1.252 . S
C194 O192 1.273 . S
O195 Mg182 2.010 . S
O195 C187 1.249 . S
Mg196 O197 2.028 . S
Mg196 O203 1.986 . S
Mg196 O205 2.114 . S
Mg196 O206 2.251 . S
Mg196 O209 2.010 . S
O197 Mg196 2.028 . S
O197 C200 1.250 . S
O198 Mg199 2.028 . S
O198 C200 1.248 . S
Mg199 O198 2.028 . S
Mg199 O204 2.032 . S
Mg199 O206 2.079 . S
C200 O197 1.250 . S
C200 O198 1.248 . S
C201 O202 1.264 . S
C201 O209 1.249 . S
O202 C201 1.264 . S
O203 Mg196 1.986 . S
O203 C207 1.246 . S
O204 Mg199 2.032 . S
O204 C207 1.259 . S
O205 Mg196 2.114 . S
O205 C208 1.252 . S
O206 Mg196 2.251 . S
O206 Mg199 2.079 . S
O206 C208 1.273 . S
C207 O203 1.246 . S
C207 O204 1.259 . S
C208 O205 1.252 . S
C208 O206 1.273 . S
O209 Mg196 2.010 . S
O209 C201 1.249 . S
Mg210 O211 2.028 . S
Mg210 O217 1.986 . S
Mg210 O219 2.114 1_455 S
Mg210 O220 2.251 1_455 S
Mg210 O223 2.010 1_554 S
O211 Mg210 2.028 . S
O211 C214 1.250 . S
O212 Mg213 2.028 . S
O212 C214 1.248 . S
Mg213 O212 2.028 . S
Mg213 O218 2.032 . S
Mg213 O220 2.079 1_455 S
C214 O211 1.250 . S
C214 O212 1.248 . S
C215 O216 1.264 . S
C215 O223 1.249 . S
O216 C215 1.264 . S
O217 Mg210 1.986 . S
O217 C221 1.246 . S
O218 Mg213 2.032 . S
O218 C221 1.259 . S
O219 Mg210 2.114 1_655 S
O219 C222 1.252 . S
O220 Mg210 2.251 1_655 S
O220 Mg213 2.079 1_655 S
O220 C222 1.273 . S
C221 O217 1.246 . S
C221 O218 1.259 . S
C222 O219 1.252 . S
C222 O220 1.273 . S
O223 Mg210 2.010 1_556 S
O223 C215 1.249 . S
Mg224 O225 2.028 . S
Mg224 O231 1.986 . S
Mg224 O233 2.114 . S
Mg224 O234 2.251 . S
Mg224 O237 2.010 . S
O225 Mg224 2.028 . S
O225 C228 1.250 . S
O226 Mg227 2.028 . S
O226 C228 1.248 . S
Mg227 O226 2.028 . S
Mg227 O232 2.032 . S
Mg227 O234 2.079 . S
C228 O225 1.250 . S
C228 O226 1.248 . S
C229 O230 1.264 . S
C229 O237 1.249 . S
O230 C229 1.264 . S
O231 Mg224 1.986 . S
O231 C235 1.246 . S
O232 Mg227 2.032 . S
O232 C235 1.259 . S
O233 Mg224 2.114 . S
O233 C236 1.252 . S
O234 Mg224 2.251 . S
O234 Mg227 2.079 . S
O234 C236 1.273 . S
C235 O231 1.246 . S
C235 O232 1.259 . S
C236 O233 1.252 . S
C236 O234 1.273 . S
O237 Mg224 2.010 . S
O237 C229 1.249 . S
Mg238 O239 2.028 . S
Mg238 O245 1.986 . S
Mg238 O247 2.114 . S
Mg238 O248 2.251 . S
Mg238 O251 2.010 1_554 S
O239 Mg238 2.028 . S
O239 C242 1.250 . S
O240 Mg241 2.028 . S
O240 C242 1.248 . S
Mg241 O240 2.028 . S
Mg241 O246 2.032 . S
Mg241 O248 2.079 . S
C242 O239 1.250 . S
C242 O240 1.248 . S
C243 O244 1.264 . S
C243 O251 1.249 . S
O244 C243 1.264 . S
O245 Mg238 1.986 . S
O245 C249 1.246 . S
O246 Mg241 2.032 . S
O246 C249 1.259 . S
O247 Mg238 2.114 . S
O247 C250 1.252 . S
O248 Mg238 2.251 . S
O248 Mg241 2.079 . S
O248 C250 1.273 . S
C249 O245 1.246 . S
C249 O246 1.259 . S
C250 O247 1.252 . S
C250 O248 1.273 . S
O251 Mg238 2.010 1_556 S
O251 C243 1.249 . S
Mg252 O253 2.028 . S
Mg252 O259 1.986 . S
Mg252 O261 2.114 . S
Mg252 O262 2.251 . S
Mg252 O265 2.010 . S
O253 Mg252 2.028 . S
O253 C256 1.250 . S
O254 Mg255 2.028 . S
O254 C256 1.248 . S
Mg255 O254 2.028 . S
Mg255 O260 2.032 . S
Mg255 O262 2.079 . S
C256 O253 1.250 . S
C256 O254 1.248 . S
C257 O258 1.264 . S
C257 O265 1.249 . S
O258 C257 1.264 . S
O259 Mg252 1.986 . S
O259 C263 1.246 . S
O260 Mg255 2.032 . S
O260 C263 1.259 . S
O261 Mg252 2.114 . S
O261 C264 1.252 . S
O262 Mg252 2.251 . S
O262 Mg255 2.079 . S
O262 C264 1.273 . S
C263 O259 1.246 . S
C263 O260 1.259 . S
C264 O261 1.252 . S
C264 O262 1.273 . S
O265 Mg252 2.010 . S
O265 C257 1.249 . S
Mg266 O267 2.028 1_655 S
Mg266 O273 1.986 1_655 S
Mg266 O275 2.114 . S
Mg266 O276 2.251 . S
Mg266 O279 2.010 1_655 S
O267 Mg266 2.028 1_455 S
O267 C270 1.250 . S
O268 Mg269 2.028 1_455 S
O268 C270 1.248 . S
Mg269 O268 2.028 1_655 S
Mg269 O274 2.032 . S
Mg269 O276 2.079 . S
C270 O267 1.250 . S
C270 O268 1.248 . S
C271 O272 1.272 . S
C271 O279 1.249 . S
O272 C271 1.272 . S
O273 Mg266 1.986 1_455 S
O273 C277 1.246 1_455 S
O274 Mg269 2.032 . S
O274 C277 1.259 . S
O275 Mg266 2.114 . S
O275 C278 1.252 . S
O276 Mg266 2.251 . S
O276 Mg269 2.079 . S
O276 C278 1.273 . S
C277 O273 1.246 1_655 S
C277 O274 1.259 . S
C278 O275 1.252 . S
C278 O276 1.273 . S
O279 Mg266 2.010 1_455 S
O279 C271 1.249 . S
Mg280 O281 2.028 . S
Mg280 O287 1.986 . S
Mg280 O289 2.114 . S
Mg280 O290 2.251 . S
Mg280 O293 2.010 . S
O281 Mg280 2.028 . S
O281 C284 1.250 . S
O282 Mg283 2.028 . S
O282 C284 1.248 . S
Mg283 O282 2.028 . S
Mg283 O288 2.032 . S
Mg283 O290 2.079 . S
C284 O281 1.250 . S
C284 O282 1.248 . S
C285 O286 1.264 . S
C285 O293 1.249 . S
O286 C285 1.264 . S
O287 Mg280 1.986 . S
O287 C291 1.246 . S
O288 Mg283 2.032 . S
O288 C291 1.259 . S
O289 Mg280 2.114 . S
O289 C292 1.252 . S
O290 Mg280 2.251 . S
O290 Mg283 2.079 . S
O290 C292 1.273 . S
C291 O287 1.246 . S
C291 O288 1.259 . S
C292 O289 1.252 . S
C292 O290 1.273 . S
O293 Mg280 2.010 . S
O293 C285 1.249 . S
Mg294 O295 2.028 1_655 S
Mg294 O301 1.986 1_655 S
Mg294 O303 2.114 . S
Mg294 O304 2.251 . S
Mg294 O307 2.010 1_656 S
O295 Mg294 2.028 1_455 S
O295 C298 1.250 . S
O296 Mg297 2.028 1_455 S
O296 C298 1.248 . S
Mg297 O296 2.028 1_655 S
Mg297 O302 2.032 . S
Mg297 O304 2.079 . S
C298 O295 1.250 . S
C298 O296 1.248 . S
C299 O300 1.271 . S
C299 O307 1.249 . S
O300 C299 1.271 . S
O301 Mg294 1.986 1_455 S
O301 C305 1.246 1_455 S
O302 Mg297 2.032 . S
O302 C305 1.259 . S
O303 Mg294 2.114 . S
O303 C306 1.252 . S
O304 Mg294 2.251 . S
O304 Mg297 2.079 . S
O304 C306 1.273 . S
C305 O301 1.246 1_655 S
C305 O302 1.259 . S
C306 O303 1.252 . S
C306 O304 1.273 . S
O307 Mg294 2.010 1_454 S
O307 C299 1.249 . S
Mg308 O309 2.028 . S
Mg308 O315 1.986 . S
Mg308 O317 2.114 . S
Mg308 O318 2.251 . S
Mg308 O321 2.010 . S
O309 Mg308 2.028 . S
O309 C312 1.250 . S
O310 Mg311 2.028 . S
O310 C312 1.248 . S
Mg311 O310 2.028 . S
Mg311 O316 2.032 . S
Mg311 O318 2.079 . S
C312 O309 1.250 . S
C312 O310 1.248 . S
C313 O314 1.264 . S
C313 O321 1.249 . S
O314 C313 1.264 . S
O315 Mg308 1.986 . S
O315 C319 1.246 . S
O316 Mg311 2.032 . S
O316 C319 1.259 . S
O317 Mg308 2.114 . S
O317 C320 1.252 . S
O318 Mg308 2.251 . S
O318 Mg311 2.079 . S
O318 C320 1.273 . S
C319 O315 1.246 . S
C319 O316 1.259 . S
C320 O317 1.252 . S
C320 O318 1.273 . S
O321 Mg308 2.010 . S
O321 C313 1.249 . S
Mg322 O323 2.028 . S
Mg322 O329 1.986 . S
Mg322 O331 2.114 . S
Mg322 O332 2.251 . S
Mg322 O335 2.010 . S
O323 Mg322 2.028 . S
O323 C326 1.250 . S
O324 Mg325 2.028 . S
O324 C326 1.248 . S
Mg325 O324 2.028 . S
Mg325 O330 2.032 . S
Mg325 O332 2.079 . S
C326 O323 1.250 . S
C326 O324 1.248 . S
C327 O328 1.264 . S
C327 O335 1.249 . S
O328 C327 1.264 . S
O329 Mg322 1.986 . S
O329 C333 1.246 . S
O330 Mg325 2.032 . S
O330 C333 1.259 . S
O331 Mg322 2.114 . S
O331 C334 1.252 . S
O332 Mg322 2.251 . S
O332 Mg325 2.079 . S
O332 C334 1.273 . S
C333 O329 1.246 . S
C333 O330 1.259 . S
C334 O331 1.252 . S
C334 O332 1.273 . S
O335 Mg322 2.010 . S
O335 C327 1.249 . S
Mg336 O337 2.028 . S
Mg336 O343 1.986 . S
Mg336 O345 2.114 . S
Mg336 O346 2.251 . S
Mg336 O349 2.010 . S
O337 Mg336 2.028 . S
O337 C340 1.250 . S
O338 Mg339 2.028 . S
O338 C340 1.248 . S
Mg339 O338 2.028 . S
Mg339 O344 2.032 . S
Mg339 O346 2.079 . S
C340 O337 1.250 . S
C340 O338 1.248 . S
C341 O342 1.264 . S
C341 O349 1.249 . S
O342 C341 1.264 . S
O343 Mg336 1.986 . S
O343 C347 1.246 . S
O344 Mg339 2.032 . S
O344 C347 1.259 . S
O345 Mg336 2.114 . S
O345 C348 1.252 . S
O346 Mg336 2.251 . S
O346 Mg339 2.079 . S
O346 C348 1.273 . S
C347 O343 1.246 . S
C347 O344 1.259 . S
C348 O345 1.252 . S
C348 O346 1.273 . S
O349 Mg336 2.010 . S
O349 C341 1.249 . S
Mg350 O351 2.028 . S
Mg350 O357 1.986 . S
Mg350 O359 2.114 . S
Mg350 O360 2.251 . S
Mg350 O363 2.010 1_556 S
O351 Mg350 2.028 . S
O351 C354 1.250 . S
O352 Mg353 2.028 . S
O352 C354 1.248 . S
Mg353 O352 2.028 . S
Mg353 O358 2.032 . S
Mg353 O360 2.079 . S
C354 O351 1.250 . S
C354 O352 1.248 . S
C355 O356 1.264 . S
C355 O363 1.249 . S
O356 C355 1.264 . S
O357 Mg350 1.986 . S
O357 C361 1.246 . S
O358 Mg353 2.032 . S
O358 C361 1.259 . S
O359 Mg350 2.114 . S
O359 C362 1.252 . S
O360 Mg350 2.251 . S
O360 Mg353 2.079 . S
O360 C362 1.273 . S
C361 O357 1.246 . S
C361 O358 1.259 . S
C362 O359 1.252 . S
C362 O360 1.273 . S
O363 Mg350 2.010 1_554 S
O363 C355 1.249 . S
Mg364 O365 2.028 . S
Mg364 O371 1.986 . S
Mg364 O373 2.114 . S
Mg364 O374 2.251 . S
Mg364 O377 2.010 . S
O365 Mg364 2.028 . S
O365 C368 1.250 . S
O366 Mg367 2.028 . S
O366 C368 1.248 . S
Mg367 O366 2.028 . S
Mg367 O372 2.032 . S
Mg367 O374 2.079 . S
C368 O365 1.250 . S
C368 O366 1.248 . S
C369 O370 1.264 . S
C369 O377 1.249 . S
O370 C369 1.264 . S
O371 Mg364 1.986 . S
O371 C375 1.246 . S
O372 Mg367 2.032 . S
O372 C375 1.259 . S
O373 Mg364 2.114 . S
O373 C376 1.252 . S
O374 Mg364 2.251 . S
O374 Mg367 2.079 . S
O374 C376 1.273 . S
C375 O371 1.246 . S
C375 O372 1.259 . S
C376 O373 1.252 . S
C376 O374 1.273 . S
O377 Mg364 2.010 . S
O377 C369 1.249 . S
Mg378 O379 2.028 . S
Mg378 O385 1.986 . S
Mg378 O387 2.114 1_655 S
Mg378 O388 2.251 1_655 S
Mg378 O391 2.010 . S
O379 Mg378 2.028 . S
O379 C382 1.250 . S
O380 Mg381 2.028 . S
O380 C382 1.248 . S
Mg381 O380 2.028 . S
Mg381 O386 2.032 . S
Mg381 O388 2.079 1_655 S
C382 O379 1.250 . S
C382 O380 1.248 . S
C383 O384 1.264 . S
C383 O391 1.249 . S
O384 C383 1.264 . S
O385 Mg378 1.986 . S
O385 C389 1.246 . S
O386 Mg381 2.032 . S
O386 C389 1.259 . S
O387 Mg378 2.114 1_455 S
O387 C390 1.252 . S
O388 Mg378 2.251 1_455 S
O388 Mg381 2.079 1_455 S
O388 C390 1.273 . S
C389 O385 1.246 . S
C389 O386 1.259 . S
C390 O387 1.252 . S
C390 O388 1.273 . S
O391 Mg378 2.010 . S
O391 C383 1.249 . S
Mg392 O393 2.028 . S
Mg392 O399 1.986 . S
Mg392 O401 2.114 . S
Mg392 O402 2.251 . S
Mg392 O405 2.010 . S
O393 Mg392 2.028 . S
O393 C396 1.250 . S
O394 Mg395 2.028 . S
O394 C396 1.248 . S
Mg395 O394 2.028 . S
Mg395 O400 2.032 . S
Mg395 O402 2.079 . S
C396 O393 1.250 . S
C396 O394 1.248 . S
C397 O398 1.264 . S
C397 O405 1.249 . S
O398 C397 1.264 . S
O399 Mg392 1.986 . S
O399 C403 1.246 . S
O400 Mg395 2.032 . S
O400 C403 1.259 . S
O401 Mg392 2.114 . S
O401 C404 1.252 . S
O402 Mg392 2.251 . S
O402 Mg395 2.079 . S
O402 C404 1.273 . S
C403 O399 1.246 . S
C403 O400 1.259 . S
C404 O401 1.252 . S
C404 O402 1.273 . S
O405 Mg392 2.010 . S
O405 C397 1.249 . S
Mg406 O407 2.028 . S
Mg406 O413 1.986 . S
Mg406 O415 2.114 1_655 S
Mg406 O416 2.251 1_655 S
Mg406 O419 2.010 1_554 S
O407 Mg406 2.028 . S
O407 C410 1.250 . S
O408 Mg409 2.028 . S
O408 C410 1.248 . S
Mg409 O408 2.028 . S
Mg409 O414 2.032 . S
Mg409 O416 2.079 1_655 S
C410 O407 1.250 . S
C410 O408 1.248 . S
C411 O412 1.264 . S
C411 O419 1.249 . S
O412 C411 1.264 . S
O413 Mg406 1.986 . S
O413 C417 1.246 . S
O414 Mg409 2.032 . S
O414 C417 1.259 . S
O415 Mg406 2.114 1_455 S
O415 C418 1.252 . S
O416 Mg406 2.251 1_455 S
O416 Mg409 2.079 1_455 S
O416 C418 1.273 . S
C417 O413 1.246 . S
C417 O414 1.259 . S
C418 O415 1.252 . S
C418 O416 1.273 . S
O419 Mg406 2.010 1_556 S
O419 C411 1.249 . S
Mg420 O421 2.028 . S
Mg420 O427 1.986 . S
Mg420 O429 2.114 . S
Mg420 O430 2.251 . S
Mg420 O433 2.010 . S
O421 Mg420 2.028 . S
O421 C424 1.250 . S
O422 Mg423 2.028 . S
O422 C424 1.248 . S
Mg423 O422 2.028 . S
Mg423 O428 2.032 . S
Mg423 O430 2.079 . S
C424 O421 1.250 . S
C424 O422 1.248 . S
C425 O426 1.264 . S
C425 O433 1.249 . S
O426 C425 1.264 . S
O427 Mg420 1.986 . S
O427 C431 1.246 . S
O428 Mg423 2.032 . S
O428 C431 1.259 . S
O429 Mg420 2.114 . S
O429 C432 1.252 . S
O430 Mg420 2.251 . S
O430 Mg423 2.079 . S
O430 C432 1.273 . S
C431 O427 1.246 . S
C431 O428 1.259 . S
C432 O429 1.252 . S
C432 O430 1.273 . S
O433 Mg420 2.010 . S
O433 C425 1.249 . S
Mg434 O435 2.028 . S
Mg434 O441 1.986 . S
Mg434 O443 2.114 . S
Mg434 O444 2.251 . S
Mg434 O447 2.010 . S
O435 Mg434 2.028 . S
O435 C438 1.250 . S
O436 Mg437 2.028 . S
O436 C438 1.248 . S
Mg437 O436 2.028 . S
Mg437 O442 2.032 . S
Mg437 O444 2.079 . S
C438 O435 1.250 . S
C438 O436 1.248 . S
C439 O440 1.264 . S
C439 O447 1.249 . S
O440 C439 1.264 . S
O441 Mg434 1.986 . S
O441 C445 1.246 . S
O442 Mg437 2.032 . S
O442 C445 1.259 . S
O443 Mg434 2.114 . S
O443 C446 1.252 . S
O444 Mg434 2.251 . S
O444 Mg437 2.079 . S
O444 C446 1.273 . S
C445 O441 1.246 . S
C445 O442 1.259 . S
C446 O443 1.252 . S
C446 O444 1.273 . S
O447 Mg434 2.010 . S
O447 C439 1.249 . S
C448 C449 1.387 . S
C448 H452 0.950 . S
C448 C457 1.390 . S
C449 C448 1.387 . S
C449 C451 1.387 . S
H450 C457 0.950 . S
C451 C449 1.387 . S
C451 C453 1.390 . S
C451 H455 0.950 . S
H452 C448 0.950 . S
C453 C451 1.390 . S
C453 C454 1.387 . S
C453 H456 0.950 . S
C454 C453 1.387 . S
C454 C457 1.387 . S
H455 C451 0.950 . S
H456 C453 0.950 . S
C457 C448 1.390 . S
C457 H450 0.950 . S
C457 C454 1.387 . S
C458 C459 1.387 . S
C458 H462 0.950 . S
C458 C467 1.390 . S
C459 C458 1.387 . S
C459 C461 1.387 . S
H460 C467 0.950 . S
C461 C459 1.387 . S
C461 C463 1.390 . S
C461 H465 0.950 . S
H462 C458 0.950 . S
C463 C461 1.390 . S
C463 C464 1.387 . S
C463 H466 0.950 . S
C464 C463 1.387 . S
C464 C467 1.387 . S
H465 C461 0.950 . S
H466 C463 0.950 . S
C467 C458 1.390 . S
C467 H460 0.950 . S
C467 C464 1.387 . S
C468 C469 1.387 . S
C468 H472 0.950 . S
C468 C477 1.390 . S
C469 C468 1.387 . S
C469 C471 1.387 . S
H470 C477 0.950 . S
C471 C469 1.387 . S
C471 C473 1.390 . S
C471 H475 0.950 . S
H472 C468 0.950 . S
C473 C471 1.390 . S
C473 C474 1.387 . S
C473 H476 0.950 . S
C474 C473 1.387 . S
C474 C477 1.387 . S
H475 C471 0.950 . S
H476 C473 0.950 . S
C477 C468 1.390 . S
C477 H470 0.950 . S
C477 C474 1.387 . S
C478 C479 1.387 . S
C478 H482 0.950 . S
C478 C487 1.390 . S
C479 C478 1.387 . S
C479 C481 1.387 . S
H480 C487 0.950 . S
C481 C479 1.387 . S
C481 C483 1.390 . S
C481 H485 0.950 . S
H482 C478 0.950 . S
C483 C481 1.390 . S
C483 C484 1.387 . S
C483 H486 0.950 . S
C484 C483 1.387 . S
C484 C487 1.387 . S
H485 C481 0.950 . S
H486 C483 0.950 . S
C487 C478 1.390 . S
C487 H480 0.950 . S
C487 C484 1.387 . S
C488 C489 1.387 . S
C488 H492 0.950 . S
C488 C497 1.390 . S
C489 C488 1.387 . S
C489 C491 1.387 . S
H490 C497 0.950 . S
C491 C489 1.387 . S
C491 C493 1.390 . S
C491 H495 0.950 . S
H492 C488 0.950 . S
C493 C491 1.390 . S
C493 C494 1.387 . S
C493 H496 0.950 . S
C494 C493 1.387 . S
C494 C497 1.387 . S
H495 C491 0.950 . S
H496 C493 0.950 . S
C497 C488 1.390 . S
C497 H490 0.950 . S
C497 C494 1.387 . S
C498 C499 1.387 . S
C498 H502 0.950 . S
C498 C507 1.390 . S
C499 C498 1.387 . S
C499 C501 1.387 . S
H500 C507 0.950 . S
C501 C499 1.387 . S
C501 C503 1.390 . S
C501 H505 0.950 . S
H502 C498 0.950 . S
C503 C501 1.390 . S
C503 C504 1.387 . S
C503 H506 0.950 . S
C504 C503 1.387 . S
C504 C507 1.387 . S
H505 C501 0.950 . S
H506 C503 0.950 . S
C507 C498 1.390 . S
C507 H500 0.950 . S
C507 C504 1.387 . S
C508 C509 1.387 . S
C508 H512 0.950 . S
C508 C517 1.390 . S
C509 C508 1.387 . S
C509 C511 1.387 . S
H510 C517 0.950 . S
C511 C509 1.387 . S
C511 C513 1.390 . S
C511 H515 0.950 . S
H512 C508 0.950 . S
C513 C511 1.390 . S
C513 C514 1.387 . S
C513 H516 0.950 . S
C514 C513 1.387 . S
C514 C517 1.387 . S
H515 C511 0.950 . S
H516 C513 0.950 . S
C517 C508 1.390 . S
C517 H510 0.950 . S
C517 C514 1.387 . S
C518 C519 1.387 . S
C518 H522 0.950 . S
C518 C527 1.390 . S
C519 C518 1.387 . S
C519 C521 1.387 . S
H520 C527 0.950 . S
C521 C519 1.387 . S
C521 C523 1.390 . S
C521 H525 0.950 . S
H522 C518 0.950 . S
C523 C521 1.390 . S
C523 C524 1.387 . S
C523 H526 0.950 . S
C524 C523 1.387 . S
C524 C527 1.387 . S
H525 C521 0.950 . S
H526 C523 0.950 . S
C527 C518 1.390 . S
C527 H520 0.950 . S
C527 C524 1.387 . S
C528 C529 1.387 . S
C528 H532 0.950 . S
C528 C537 1.390 . S
C529 C528 1.387 . S
C529 C531 1.387 . S
H530 C537 0.950 . S
C531 C529 1.387 . S
C531 C533 1.390 . S
C531 H535 0.950 . S
H532 C528 0.950 . S
C533 C531 1.390 . S
C533 C534 1.387 . S
C533 H536 0.950 . S
C534 C533 1.387 . S
C534 C537 1.387 . S
H535 C531 0.950 . S
H536 C533 0.950 . S
C537 C528 1.390 . S
C537 H530 0.950 . S
C537 C534 1.387 . S
C538 C539 1.387 . S
C538 H542 0.950 . S
C538 C547 1.390 . S
C539 C538 1.387 . S
C539 C541 1.387 . S
H540 C547 0.950 . S
C541 C539 1.387 . S
C541 C543 1.390 . S
C541 H545 0.950 . S
H542 C538 0.950 . S
C543 C541 1.390 . S
C543 C544 1.387 . S
C543 H546 0.950 . S
C544 C543 1.387 . S
C544 C547 1.387 . S
H545 C541 0.950 . S
H546 C543 0.950 . S
C547 C538 1.390 . S
C547 H540 0.950 . S
C547 C544 1.387 . S
C548 C549 1.387 . S
C548 H552 0.950 . S
C548 C557 1.390 . S
C549 C548 1.387 . S
C549 C551 1.387 . S
H550 C557 0.950 . S
C551 C549 1.387 . S
C551 C553 1.390 . S
C551 H555 0.950 . S
H552 C548 0.950 . S
C553 C551 1.390 . S
C553 C554 1.387 . S
C553 H556 0.950 . S
C554 C553 1.387 . S
C554 C557 1.387 . S
H555 C551 0.950 . S
H556 C553 0.950 . S
C557 C548 1.390 . S
C557 H550 0.950 . S
C557 C554 1.387 . S
C558 C559 1.387 . S
C558 H562 0.950 . S
C558 C567 1.390 . S
C559 C558 1.387 . S
C559 C561 1.387 . S
H560 C567 0.950 . S
C561 C559 1.387 . S
C561 C563 1.390 . S
C561 H565 0.950 . S
H562 C558 0.950 . S
C563 C561 1.390 . S
C563 C564 1.387 . S
C563 H566 0.950 . S
C564 C563 1.387 . S
C564 C567 1.387 . S
H565 C561 0.950 . S
H566 C563 0.950 . S
C567 C558 1.390 . S
C567 H560 0.950 . S
C567 C564 1.387 . S
C568 C569 1.387 . S
C568 H572 0.950 . S
C568 C577 1.390 . S
C569 C568 1.387 . S
C569 C571 1.387 . S
H570 C577 0.950 . S
C571 C569 1.387 . S
C571 C573 1.390 . S
C571 H575 0.950 . S
H572 C568 0.950 . S
C573 C571 1.390 . S
C573 C574 1.387 . S
C573 H576 0.950 . S
C574 C573 1.387 . S
C574 C577 1.387 . S
H575 C571 0.950 . S
H576 C573 0.950 . S
C577 C568 1.390 . S
C577 H570 0.950 . S
C577 C574 1.387 . S
C578 C579 1.387 . S
C578 H582 0.950 . S
C578 C587 1.390 . S
C579 C578 1.387 . S
C579 C581 1.387 . S
H580 C587 0.950 . S
C581 C579 1.387 . S
C581 C583 1.390 . S
C581 H585 0.950 . S
H582 C578 0.950 . S
C583 C581 1.390 . S
C583 C584 1.387 . S
C583 H586 0.950 . S
C584 C583 1.387 . S
C584 C587 1.387 . S
H585 C581 0.950 . S
H586 C583 0.950 . S
C587 C578 1.390 . S
C587 H580 0.950 . S
C587 C584 1.387 . S
C588 C589 1.387 . S
C588 H592 0.950 . S
C588 C597 1.390 . S
C589 C588 1.387 . S
C589 C591 1.387 . S
H590 C597 0.950 . S
C591 C589 1.387 . S
C591 C593 1.390 . S
C591 H595 0.950 . S
H592 C588 0.950 . S
C593 C591 1.390 . S
C593 C594 1.387 . S
C593 H596 0.950 . S
C594 C593 1.387 . S
C594 C597 1.387 . S
H595 C591 0.950 . S
H596 C593 0.950 . S
C597 C588 1.390 . S
C597 H590 0.950 . S
C597 C594 1.387 . S
C598 C599 1.387 . S
C598 H602 0.950 . S
C598 C607 1.390 . S
C599 C598 1.387 . S
C599 C601 1.387 . S
H600 C607 0.950 . S
C601 C599 1.387 . S
C601 C603 1.390 . S
C601 H605 0.950 . S
H602 C598 0.950 . S
C603 C601 1.390 . S
C603 C604 1.387 . S
C603 H606 0.950 . S
C604 C603 1.387 . S
C604 C607 1.387 . S
H605 C601 0.950 . S
H606 C603 0.950 . S
C607 C598 1.390 . S
C607 H600 0.950 . S
C607 C604 1.387 . S
C608 C609 1.387 . S
C608 H612 0.950 . S
C608 C617 1.390 . S
C609 C608 1.387 . S
C609 C611 1.387 . S
H610 C617 0.950 . S
C611 C609 1.387 . S
C611 C613 1.390 . S
C611 H615 0.950 . S
H612 C608 0.950 . S
C613 C611 1.390 . S
C613 C614 1.387 . S
C613 H616 0.950 . S
C614 C613 1.387 . S
C614 C617 1.387 . S
H615 C611 0.950 . S
H616 C613 0.950 . S
C617 C608 1.390 . S
C617 H610 0.950 . S
C617 C614 1.387 . S
C618 C619 1.387 . S
C618 H622 0.950 . S
C618 C627 1.390 . S
C619 C618 1.387 . S
C619 C621 1.387 . S
H620 C627 0.950 . S
C621 C619 1.387 . S
C621 C623 1.390 . S
C621 H625 0.950 . S
H622 C618 0.950 . S
C623 C621 1.390 . S
C623 C624 1.387 . S
C623 H626 0.950 . S
C624 C623 1.387 . S
C624 C627 1.387 . S
H625 C621 0.950 . S
H626 C623 0.950 . S
C627 C618 1.390 . S
C627 H620 0.950 . S
C627 C624 1.387 . S
C628 C629 1.387 . S
C628 H632 0.950 . S
C628 C637 1.390 . S
C629 C628 1.387 . S
C629 C631 1.387 . S
H630 C637 0.950 . S
C631 C629 1.387 . S
C631 C633 1.390 . S
C631 H635 0.950 . S
H632 C628 0.950 . S
C633 C631 1.390 . S
C633 C634 1.387 . S
C633 H636 0.950 . S
C634 C633 1.387 . S
C634 C637 1.387 . S
H635 C631 0.950 . S
H636 C633 0.950 . S
C637 C628 1.390 . S
C637 H630 0.950 . S
C637 C634 1.387 . S
C638 C639 1.387 . S
C638 H642 0.950 . S
C638 C647 1.390 . S
C639 C638 1.387 . S
C639 C641 1.387 . S
H640 C647 0.950 . S
C641 C639 1.387 . S
C641 C643 1.390 . S
C641 H645 0.950 . S
H642 C638 0.950 . S
C643 C641 1.390 . S
C643 C644 1.387 . S
C643 H646 0.950 . S
C644 C643 1.387 . S
C644 C647 1.387 . S
H645 C641 0.950 . S
H646 C643 0.950 . S
C647 C638 1.390 . S
C647 H640 0.950 . S
C647 C644 1.387 . S
C648 C649 1.387 . S
C648 H652 0.950 . S
C648 C657 1.390 . S
C649 C648 1.387 . S
C649 C651 1.387 . S
H650 C657 0.950 . S
C651 C649 1.387 . S
C651 C653 1.390 . S
C651 H655 0.950 . S
H652 C648 0.950 . S
C653 C651 1.390 . S
C653 C654 1.387 . S
C653 H656 0.950 . S
C654 C653 1.387 . S
C654 C657 1.387 . S
H655 C651 0.950 . S
H656 C653 0.950 . S
C657 C648 1.390 . S
C657 H650 0.950 . S
C657 C654 1.387 . S
C658 C659 1.387 . S
C658 H662 0.950 . S
C658 C667 1.390 . S
C659 C658 1.387 . S
C659 C661 1.387 . S
H660 C667 0.950 . S
C661 C659 1.387 . S
C661 C663 1.390 . S
C661 H665 0.950 . S
H662 C658 0.950 . S
C663 C661 1.390 . S
C663 C664 1.387 . S
C663 H666 0.950 . S
C664 C663 1.387 . S
C664 C667 1.387 . S
H665 C661 0.950 . S
H666 C663 0.950 . S
C667 C658 1.390 . S
C667 H660 0.950 . S
C667 C664 1.387 . S
C668 C669 1.387 . S
C668 H672 0.950 . S
C668 C677 1.390 . S
C669 C668 1.387 . S
C669 C671 1.387 . S
H670 C677 0.950 . S
C671 C669 1.387 . S
C671 C673 1.390 . S
C671 H675 0.950 . S
H672 C668 0.950 . S
C673 C671 1.390 . S
C673 C674 1.387 . S
C673 H676 0.950 . S
C674 C673 1.387 . S
C674 C677 1.387 . S
H675 C671 0.950 . S
H676 C673 0.950 . S
C677 C668 1.390 . S
C677 H670 0.950 . S
C677 C674 1.387 . S
C678 C679 1.387 . S
C678 H682 0.950 . S
C678 C687 1.390 . S
C679 C678 1.387 . S
C679 C681 1.387 . S
H680 C687 0.950 . S
C681 C679 1.387 . S
C681 C683 1.390 . S
C681 H685 0.950 . S
H682 C678 0.950 . S
C683 C681 1.390 . S
C683 C684 1.387 . S
C683 H686 0.950 . S
C684 C683 1.387 . S
C684 C687 1.387 . S
H685 C681 0.950 . S
H686 C683 0.950 . S
C687 C678 1.390 . S
C687 H680 0.950 . S
C687 C684 1.387 . S
C688 C689 1.387 . S
C688 H692 0.950 . S
C688 C697 1.390 . S
C689 C688 1.387 . S
C689 C691 1.387 . S
H690 C697 0.950 . S
C691 C689 1.387 . S
C691 C693 1.390 . S
C691 H695 0.950 . S
H692 C688 0.950 . S
C693 C691 1.390 . S
C693 C694 1.387 . S
C693 H696 0.950 . S
C694 C693 1.387 . S
C694 C697 1.387 . S
H695 C691 0.950 . S
H696 C693 0.950 . S
C697 C688 1.390 . S
C697 H690 0.950 . S
C697 C694 1.387 . S
C698 C699 1.387 . S
C698 H702 0.950 . S
C698 C707 1.390 . S
C699 C698 1.387 . S
C699 C701 1.387 . S
H700 C707 0.950 . S
C701 C699 1.387 . S
C701 C703 1.390 . S
C701 H705 0.950 . S
H702 C698 0.950 . S
C703 C701 1.390 . S
C703 C704 1.387 . S
C703 H706 0.950 . S
C704 C703 1.387 . S
C704 C707 1.387 . S
H705 C701 0.950 . S
H706 C703 0.950 . S
C707 C698 1.390 . S
C707 H700 0.950 . S
C707 C704 1.387 . S
C708 C709 1.387 . S
C708 H712 0.950 . S
C708 C717 1.390 . S
C709 C708 1.387 . S
C709 C711 1.387 . S
H710 C717 0.950 . S
C711 C709 1.387 . S
C711 C713 1.390 . S
C711 H715 0.950 . S
H712 C708 0.950 . S
C713 C711 1.390 . S
C713 C714 1.387 . S
C713 H716 0.950 . S
C714 C713 1.387 . S
C714 C717 1.387 . S
H715 C711 0.950 . S
H716 C713 0.950 . S
C717 C708 1.390 . S
C717 H710 0.950 . S
C717 C714 1.387 . S
C718 C719 1.387 . S
C718 H722 0.950 . S
C718 C727 1.390 . S
C719 C718 1.387 . S
C719 C721 1.387 . S
H720 C727 0.950 . S
C721 C719 1.387 . S
C721 C723 1.390 . S
C721 H725 0.950 . S
H722 C718 0.950 . S
C723 C721 1.390 . S
C723 C724 1.387 . S
C723 H726 0.950 . S
C724 C723 1.387 . S
C724 C727 1.387 . S
H725 C721 0.950 . S
H726 C723 0.950 . S
C727 C718 1.390 . S
C727 H720 0.950 . S
C727 C724 1.387 . S
C728 C729 1.387 . S
C728 H732 0.950 . S
C728 C737 1.390 . S
C729 C728 1.387 . S
C729 C731 1.387 . S
H730 C737 0.950 . S
C731 C729 1.387 . S
C731 C733 1.390 . S
C731 H735 0.950 . S
H732 C728 0.950 . S
C733 C731 1.390 . S
C733 C734 1.387 . S
C733 H736 0.950 . S
C734 C733 1.387 . S
C734 C737 1.387 . S
H735 C731 0.950 . S
H736 C733 0.950 . S
C737 C728 1.390 . S
C737 H730 0.950 . S
C737 C734 1.387 . S
C738 C739 1.387 . S
C738 H742 0.950 . S
C738 C747 1.390 . S
C739 C738 1.387 . S
C739 C741 1.387 . S
H740 C747 0.950 . S
C741 C739 1.387 . S
C741 C743 1.390 . S
C741 H745 0.950 . S
H742 C738 0.950 . S
C743 C741 1.390 . S
C743 C744 1.387 . S
C743 H746 0.950 . S
C744 C743 1.387 . S
C744 C747 1.387 . S
H745 C741 0.950 . S
H746 C743 0.950 . S
C747 C738 1.390 . S
C747 H740 0.950 . S
C747 C744 1.387 . S
C748 C749 1.387 . S
C748 H752 0.950 . S
C748 C757 1.390 . S
C749 C748 1.387 . S
C749 C751 1.387 . S
H750 C757 0.950 . S
C751 C749 1.387 . S
C751 C753 1.390 . S
C751 H755 0.950 . S
H752 C748 0.950 . S
C753 C751 1.390 . S
C753 C754 1.387 . S
C753 H756 0.950 . S
C754 C753 1.387 . S
C754 C757 1.387 . S
H755 C751 0.950 . S
H756 C753 0.950 . S
C757 C748 1.390 . S
C757 H750 0.950 . S
C757 C754 1.387 . S
C758 C759 1.387 . S
C758 H762 0.950 . S
C758 C767 1.390 . S
C759 C758 1.387 . S
C759 C761 1.387 . S
H760 C767 0.950 . S
C761 C759 1.387 . S
C761 C763 1.390 . S
C761 H765 0.950 . S
H762 C758 0.950 . S
C763 C761 1.390 . S
C763 C764 1.387 . S
C763 H766 0.950 . S
C764 C763 1.387 . S
C764 C767 1.387 . S
H765 C761 0.950 . S
H766 C763 0.950 . S
C767 C758 1.390 . S
C767 H760 0.950 . S
C767 C764 1.387 . S
C768 C769 1.387 . S
C768 H772 0.950 . S
C768 C777 1.390 . S
C769 C768 1.387 . S
C769 C771 1.387 . S
H770 C777 0.950 . S
C771 C769 1.387 . S
C771 C773 1.390 . S
C771 H775 0.950 . S
H772 C768 0.950 . S
C773 C771 1.390 . S
C773 C774 1.387 . S
C773 H776 0.950 . S
C774 C773 1.387 . S
C774 C777 1.387 . S
H775 C771 0.950 . S
H776 C773 0.950 . S
C777 C768 1.390 . S
C777 H770 0.950 . S
C777 C774 1.387 . S
C778 C779 1.387 . S
C778 H782 0.950 . S
C778 C787 1.390 1_565 S
C779 C778 1.387 . S
C779 C781 1.387 . S
H780 C787 0.950 . S
C781 C779 1.387 . S
C781 C783 1.390 1_565 S
C781 H785 0.948 1_455 S
H782 C778 0.950 . S
C783 C781 1.390 1_545 S
C783 C784 1.387 . S
C783 H786 0.950 . S
C784 C783 1.387 . S
C784 C787 1.387 . S
H785 C781 0.948 1_655 S
H786 C783 0.950 . S
C787 C778 1.390 1_545 S
C787 H780 0.950 . S
C787 C784 1.387 . S
C788 C789 1.387 . S
C788 H792 0.950 . S
C788 C797 1.390 . S
C789 C788 1.387 . S
C789 C791 1.387 . S
H790 C797 0.950 . S
C791 C789 1.387 . S
C791 C793 1.390 . S
C791 H795 0.950 . S
H792 C788 0.950 . S
C793 C791 1.390 . S
C793 C794 1.387 . S
C793 H796 0.950 . S
C794 C793 1.387 . S
C794 C797 1.387 . S
H795 C791 0.950 . S
H796 C793 0.950 . S
C797 C788 1.390 . S
C797 H790 0.950 . S
C797 C794 1.387 . S
C798 C799 1.387 1_556 S
C798 H802 0.950 . S
C798 C807 1.390 1_545 S
C799 C798 1.387 1_554 S
C799 C801 1.387 . S
H800 C807 0.950 . S
C801 C799 1.387 . S
C801 C803 1.390 1_545 S
C801 H805 0.950 . S
H802 C798 0.950 . S
C803 C801 1.390 1_565 S
C803 C804 1.387 1_554 S
C803 H806 0.950 . S
C804 C803 1.387 1_556 S
C804 C807 1.387 . S
H805 C801 0.950 . S
H806 C803 0.950 . S
C807 C798 1.390 1_565 S
C807 H800 0.950 . S
C807 C804 1.387 . S
C808 C809 1.387 . S
C808 H812 0.950 . S
C808 C817 1.390 . S
C809 C808 1.387 . S
C809 C811 1.387 . S
H810 C817 0.950 . S
C811 C809 1.387 . S
C811 C813 1.390 . S
C811 H815 0.950 . S
H812 C808 0.950 . S
C813 C811 1.390 . S
C813 C814 1.387 . S
C813 H816 0.950 . S
C814 C813 1.387 . S
C814 C817 1.387 . S
H815 C811 0.950 . S
H816 C813 0.950 . S
C817 C808 1.390 . S
C817 H810 0.950 . S
C817 C814 1.387 . S
C818 C819 1.387 . S
C818 H822 0.950 . S
C818 C827 1.390 1_565 S
C819 C818 1.387 . S
C819 C821 1.387 . S
H820 C827 0.950 . S
C821 C819 1.387 . S
C821 C823 1.390 1_565 S
C821 H825 0.950 . S
H822 C818 0.950 . S
C823 C821 1.390 1_545 S
C823 C824 1.387 . S
C823 H826 0.950 . S
C824 C823 1.387 . S
C824 C827 1.387 . S
H825 C821 0.950 . S
H826 C823 0.950 . S
C827 C818 1.390 1_545 S
C827 H820 0.950 . S
C827 C824 1.387 . S
C828 C829 1.387 . S
C828 H832 0.950 . S
C828 C837 1.390 . S
C829 C828 1.387 . S
C829 C831 1.387 . S
H830 C837 0.950 . S
C831 C829 1.387 . S
C831 C833 1.390 . S
C831 H835 0.950 . S
H832 C828 0.950 . S
C833 C831 1.390 . S
C833 C834 1.387 . S
C833 H836 0.950 . S
C834 C833 1.387 . S
C834 C837 1.387 . S
H835 C831 0.950 . S
H836 C833 0.950 . S
C837 C828 1.390 . S
C837 H830 0.950 . S
C837 C834 1.387 . S
C838 C839 1.387 1_655 S
C838 H842 0.950 . S
C838 C847 1.390 1_546 S
C839 C838 1.387 1_455 S
C839 C841 1.387 1_556 S
H840 C847 0.950 . S
C841 C839 1.387 1_554 S
C841 C843 1.390 1_545 S
C841 H845 0.950 . S
H842 C838 0.950 . S
C843 C841 1.390 1_565 S
C843 C844 1.387 . S
C843 H846 0.950 . S
C844 C843 1.387 . S
C844 C847 1.387 1_455 S
H845 C841 0.950 . S
H846 C843 0.950 . S
C847 C838 1.390 1_564 S
C847 H840 0.950 . S
C847 C844 1.387 1_655 S
C848 C849 1.387 . S
C848 H852 0.950 . S
C848 C857 1.390 . S
C849 C848 1.387 . S
C849 C851 1.387 . S
H850 C857 0.950 . S
C851 C849 1.387 . S
C851 C853 1.390 . S
C851 H855 0.950 . S
H852 C848 0.950 . S
C853 C851 1.390 . S
C853 C854 1.387 . S
C853 H856 0.950 . S
C854 C853 1.387 . S
C854 C857 1.387 . S
H855 C851 0.950 . S
H856 C853 0.950 . S
C857 C848 1.390 . S
C857 H850 0.950 . S
C857 C854 1.387 . S
C858 C859 1.387 . S
C858 H862 0.950 . S
C858 C867 1.390 . S
C859 C858 1.387 . S
C859 C861 1.387 . S
H860 C867 0.950 . S
C861 C859 1.387 . S
C861 C863 1.390 . S
C861 H865 0.950 . S
H862 C858 0.950 . S
C863 C861 1.390 . S
C863 C864 1.387 . S
C863 H866 0.950 . S
C864 C863 1.387 . S
C864 C867 1.387 . S
H865 C861 0.950 . S
H866 C863 0.950 . S
C867 C858 1.390 . S
C867 H860 0.950 . S
C867 C864 1.387 . S
C868 C869 1.387 . S
C868 H872 0.950 . S
C868 C877 1.390 . S
C869 C868 1.387 . S
C869 C871 1.387 . S
H870 C877 0.950 . S
C871 C869 1.387 . S
C871 C873 1.390 . S
C871 H875 0.950 . S
H872 C868 0.950 . S
C873 C871 1.390 . S
C873 C874 1.387 . S
C873 H876 0.950 . S
C874 C873 1.387 . S
C874 C877 1.387 . S
H875 C871 0.950 . S
H876 C873 0.950 . S
C877 C868 1.390 . S
C877 H870 0.950 . S
C877 C874 1.387 . S
C878 C879 1.387 . S
C878 H882 0.950 . S
C878 C887 1.390 . S
C879 C878 1.387 . S
C879 C881 1.387 . S
H880 C887 0.950 . S
C881 C879 1.387 . S
C881 C883 1.390 . S
C881 H885 0.950 . S
H882 C878 0.950 . S
C883 C881 1.390 . S
C883 C884 1.387 . S
C883 H886 0.950 . S
C884 C883 1.387 . S
C884 C887 1.387 . S
H885 C881 0.950 . S
H886 C883 0.950 . S
C887 C878 1.390 . S
C887 H880 0.950 . S
C887 C884 1.387 . S
C888 C889 1.387 . S
C888 H892 0.950 . S
C888 C897 1.390 . S
C889 C888 1.387 . S
C889 C891 1.387 1_554 S
H890 C897 0.950 . S
C891 C889 1.387 1_556 S
C891 C893 1.390 . S
C891 H895 0.950 . S
H892 C888 0.950 . S
C893 C891 1.390 . S
C893 C894 1.387 . S
C893 H896 0.950 . S
C894 C893 1.387 . S
C894 C897 1.387 1_556 S
H895 C891 0.950 . S
H896 C893 0.950 . S
C897 C888 1.390 . S
C897 H890 0.950 . S
C897 C894 1.387 1_554 S
C898 C899 1.387 . S
C898 H902 0.950 . S
C898 C907 1.390 . S
C899 C898 1.387 . S
C899 C901 1.387 1_655 S
H900 C907 0.950 . S
C901 C899 1.387 1_455 S
C901 C903 1.390 . S
C901 H905 0.950 . S
H902 C898 0.950 . S
C903 C901 1.390 . S
C903 C904 1.387 1_455 S
C903 H906 0.950 . S
C904 C903 1.387 1_655 S
C904 C907 1.387 . S
H905 C901 0.950 . S
H906 C903 0.950 . S
C907 C898 1.390 . S
C907 H900 0.950 . S
C907 C904 1.387 . S
C908 C909 1.387 1_455 S
C908 H912 0.950 . S
C908 C917 1.390 1_556 S
C909 C908 1.387 1_655 S
C909 C911 1.387 1_556 S
H910 C917 0.949 1_556 S
C911 C909 1.387 1_554 S
C911 C913 1.390 . S
C911 H915 0.950 . S
H912 C908 0.950 . S
C913 C911 1.390 . S
C913 C914 1.387 . S
C913 H916 0.950 . S
C914 C913 1.387 . S
C914 C917 1.387 1_655 S
H915 C911 0.950 . S
H916 C913 0.950 . S
C917 C908 1.390 1_554 S
C917 H910 0.949 1_554 S
C917 C914 1.387 1_455 S
C918 C919 1.387 . S
C918 H922 0.950 . S
C918 C927 1.390 . S
C919 C918 1.387 . S
C919 C921 1.387 . S
H920 C927 0.950 . S
C921 C919 1.387 . S
C921 C923 1.390 . S
C921 H925 0.950 . S
H922 C918 0.950 . S
C923 C921 1.390 . S
C923 C924 1.387 . S
C923 H926 0.950 . S
C924 C923 1.387 . S
C924 C927 1.387 . S
H925 C921 0.950 . S
H926 C923 0.950 . S
C927 C918 1.390 . S
C927 H920 0.950 . S
C927 C924 1.387 . S
C928 C929 1.387 . S
C928 H932 0.950 . S
C928 C937 1.390 . S
C929 C928 1.387 . S
C929 C931 1.387 . S
H930 C937 0.950 . S
C931 C929 1.387 . S
C931 C933 1.390 . S
C931 H935 0.950 . S
H932 C928 0.950 . S
C933 C931 1.390 . S
C933 C934 1.387 . S
C933 H936 0.950 . S
C934 C933 1.387 . S
C934 C937 1.387 . S
H935 C931 0.950 . S
H936 C933 0.950 . S
C937 C928 1.390 . S
C937 H930 0.950 . S
C937 C934 1.387 . S
C938 C939 1.387 . S
C938 H942 0.950 . S
C938 C947 1.390 . S
C939 C938 1.387 . S
C939 C941 1.387 . S
H940 C947 0.950 . S
C941 C939 1.387 . S
C941 C943 1.390 . S
C941 H945 0.950 . S
H942 C938 0.950 . S
C943 C941 1.390 . S
C943 C944 1.387 . S
C943 H946 0.950 . S
C944 C943 1.387 . S
C944 C947 1.387 . S
H945 C941 0.950 . S
H946 C943 0.950 . S
C947 C938 1.390 . S
C947 H940 0.950 . S
C947 C944 1.387 . S
C948 C949 1.387 . S
C948 H952 0.950 . S
C948 C957 1.390 . S
C949 C948 1.387 . S
C949 C951 1.387 . S
H950 C957 0.950 . S
C951 C949 1.387 . S
C951 C953 1.390 . S
C951 H955 0.950 . S
H952 C948 0.950 . S
C953 C951 1.390 . S
C953 C954 1.387 . S
C953 H956 0.950 . S
C954 C953 1.387 . S
C954 C957 1.387 . S
H955 C951 0.950 . S
H956 C953 0.950 . S
C957 C948 1.390 . S
C957 H950 0.950 . S
C957 C954 1.387 . S
C958 C959 1.387 . S
C958 H962 0.950 . S
C958 C967 1.390 . S
C959 C958 1.387 . S
C959 C961 1.387 . S
H960 C967 0.950 . S
C961 C959 1.387 . S
C961 C963 1.390 . S
C961 H965 0.950 . S
H962 C958 0.950 . S
C963 C961 1.390 . S
C963 C964 1.387 . S
C963 H966 0.950 . S
C964 C963 1.387 . S
C964 C967 1.387 . S
H965 C961 0.950 . S
H966 C963 0.950 . S
C967 C958 1.390 . S
C967 H960 0.950 . S
C967 C964 1.387 . S
C968 C969 1.387 . S
C968 H972 0.950 . S
C968 C977 1.390 . S
C969 C968 1.387 . S
C969 C971 1.387 . S
H970 C977 0.950 . S
C971 C969 1.387 . S
C971 C973 1.390 . S
C971 H975 0.950 . S
H972 C968 0.950 . S
C973 C971 1.390 . S
C973 C974 1.387 . S
C973 H976 0.950 . S
C974 C973 1.387 . S
C974 C977 1.387 . S
H975 C971 0.950 . S
H976 C973 0.950 . S
C977 C968 1.390 . S
C977 H970 0.950 . S
C977 C974 1.387 . S
C978 C979 1.387 . S
C978 H982 0.950 . S
C978 C987 1.390 . S
C979 C978 1.387 . S
C979 C981 1.387 . S
H980 C987 0.950 . S
C981 C979 1.387 . S
C981 C983 1.390 . S
C981 H985 0.950 . S
H982 C978 0.950 . S
C983 C981 1.390 . S
C983 C984 1.387 . S
C983 H986 0.950 . S
C984 C983 1.387 . S
C984 C987 1.387 . S
H985 C981 0.950 . S
H986 C983 0.950 . S
C987 C978 1.390 . S
C987 H980 0.950 . S
C987 C984 1.387 . S
C988 C989 1.387 . S
C988 H992 0.950 . S
C988 C997 1.390 . S
C989 C988 1.387 . S
C989 C991 1.387 . S
H990 C997 0.950 . S
C991 C989 1.387 . S
C991 C993 1.390 . S
C991 H995 0.950 . S
H992 C988 0.950 . S
C993 C991 1.390 . S
C993 C994 1.387 . S
C993 H996 0.950 . S
C994 C993 1.387 . S
C994 C997 1.387 . S
H995 C991 0.950 . S
H996 C993 0.950 . S
C997 C988 1.390 . S
C997 H990 0.950 . S
C997 C994 1.387 . S
C998 C999 1.387 . S
C998 H1002 0.950 . S
C998 C1007 1.390 . S
C999 C998 1.387 . S
C999 C1001 1.387 . S
H1000 C1007 0.950 . S
C1001 C999 1.387 . S
C1001 C1003 1.390 . S
C1001 H1005 0.950 . S
H1002 C998 0.950 . S
C1003 C1001 1.390 . S
C1003 C1004 1.387 . S
C1003 H1006 0.950 . S
C1004 C1003 1.387 . S
C1004 C1007 1.387 . S
H1005 C1001 0.950 . S
H1006 C1003 0.950 . S
C1007 C998 1.390 . S
C1007 H1000 0.950 . S
C1007 C1004 1.387 . S
C1008 C1009 1.387 . S
C1008 H1012 0.950 . S
C1008 C1017 1.390 . S
C1009 C1008 1.387 . S
C1009 C1011 1.387 . S
H1010 C1017 0.950 . S
C1011 C1009 1.387 . S
C1011 C1013 1.390 . S
C1011 H1015 0.950 . S
H1012 C1008 0.950 . S
C1013 C1011 1.390 . S
C1013 C1014 1.387 . S
C1013 H1016 0.950 . S
C1014 C1013 1.387 . S
C1014 C1017 1.387 . S
H1015 C1011 0.950 . S
H1016 C1013 0.950 . S
C1017 C1008 1.390 . S
C1017 H1010 0.950 . S
C1017 C1014 1.387 . S
C1018 C1019 1.387 . S
C1018 H1022 0.950 . S
C1018 C1027 1.390 . S
C1019 C1018 1.387 . S
C1019 C1021 1.387 . S
H1020 C1027 0.950 . S
C1021 C1019 1.387 . S
C1021 C1023 1.390 . S
C1021 H1025 0.950 . S
H1022 C1018 0.950 . S
C1023 C1021 1.390 . S
C1023 C1024 1.387 . S
C1023 H1026 0.950 . S
C1024 C1023 1.387 . S
C1024 C1027 1.387 . S
H1025 C1021 0.950 . S
H1026 C1023 0.950 . S
C1027 C1018 1.390 . S
C1027 H1020 0.950 . S
C1027 C1024 1.387 . S
C1028 C1029 1.387 . S
C1028 H1032 0.950 . S
C1028 C1037 1.390 . S
C1029 C1028 1.387 . S
C1029 C1031 1.387 . S
H1030 C1037 0.950 . S
C1031 C1029 1.387 . S
C1031 C1033 1.390 . S
C1031 H1035 0.950 . S
H1032 C1028 0.950 . S
C1033 C1031 1.390 . S
C1033 C1034 1.387 . S
C1033 H1036 0.950 . S
C1034 C1033 1.387 . S
C1034 C1037 1.387 . S
H1035 C1031 0.950 . S
H1036 C1033 0.950 . S
C1037 C1028 1.390 . S
C1037 H1030 0.950 . S
C1037 C1034 1.387 . S
C1038 C1039 1.387 . S
C1038 H1042 0.950 . S
C1038 C1047 1.390 . S
C1039 C1038 1.387 . S
C1039 C1041 1.387 . S
H1040 C1047 0.950 . S
C1041 C1039 1.387 . S
C1041 C1043 1.390 . S
C1041 H1045 0.950 . S
H1042 C1038 0.950 . S
C1043 C1041 1.390 . S
C1043 C1044 1.387 . S
C1043 H1046 0.950 . S
C1044 C1043 1.387 . S
C1044 C1047 1.387 . S
H1045 C1041 0.950 . S
H1046 C1043 0.950 . S
C1047 C1038 1.390 . S
C1047 H1040 0.950 . S
C1047 C1044 1.387 . S
C1048 C1049 1.387 . S
C1048 H1052 0.950 . S
C1048 C1057 1.390 . S
C1049 C1048 1.387 . S
C1049 C1051 1.387 . S
H1050 C1057 0.950 . S
C1051 C1049 1.387 . S
C1051 C1053 1.390 . S
C1051 H1055 0.950 . S
H1052 C1048 0.950 . S
C1053 C1051 1.390 . S
C1053 C1054 1.387 . S
C1053 H1056 0.950 . S
C1054 C1053 1.387 . S
C1054 C1057 1.387 . S
H1055 C1051 0.950 . S
H1056 C1053 0.950 . S
C1057 C1048 1.390 . S
C1057 H1050 0.950 . S
C1057 C1054 1.387 . S
C1058 C1059 1.387 . S
C1058 H1062 0.950 . S
C1058 C1067 1.390 . S
C1059 C1058 1.387 . S
C1059 C1061 1.387 . S
H1060 C1067 0.950 . S
C1061 C1059 1.387 . S
C1061 C1063 1.390 . S
C1061 H1065 0.950 . S
H1062 C1058 0.950 . S
C1063 C1061 1.390 . S
C1063 C1064 1.387 . S
C1063 H1066 0.950 . S
C1064 C1063 1.387 . S
C1064 C1067 1.387 . S
H1065 C1061 0.950 . S
H1066 C1063 0.950 . S
C1067 C1058 1.390 . S
C1067 H1060 0.950 . S
C1067 C1064 1.387 . S
C1068 C1069 1.387 . S
C1068 H1072 0.950 . S
C1068 C1077 1.390 . S
C1069 C1068 1.387 . S
C1069 C1071 1.387 . S
H1070 C1077 0.950 . S
C1071 C1069 1.387 . S
C1071 C1073 1.390 . S
C1071 H1075 0.950 . S
H1072 C1068 0.950 . S
C1073 C1071 1.390 . S
C1073 C1074 1.387 . S
C1073 H1076 0.950 . S
C1074 C1073 1.387 . S
C1074 C1077 1.387 . S
H1075 C1071 0.950 . S
H1076 C1073 0.950 . S
C1077 C1068 1.390 . S
C1077 H1070 0.950 . S
C1077 C1074 1.387 . S
C1078 C1079 1.387 . S
C1078 H1082 0.950 . S
C1078 C1087 1.390 . S
C1079 C1078 1.387 . S
C1079 C1081 1.387 . S
H1080 C1087 0.950 . S
C1081 C1079 1.387 . S
C1081 C1083 1.390 . S
C1081 H1085 0.950 . S
H1082 C1078 0.950 . S
C1083 C1081 1.390 . S
C1083 C1084 1.387 . S
C1083 H1086 0.950 . S
C1084 C1083 1.387 . S
C1084 C1087 1.387 . S
H1085 C1081 0.950 . S
H1086 C1083 0.950 . S
C1087 C1078 1.390 . S
C1087 H1080 0.950 . S
C1087 C1084 1.387 . S
C449 C130 1.213 . S
C454 C4 1.176 . S
C459 C26 1.275 . S
C464 C368 1.237 . S
C469 C158 1.214 . S
C474 C32 1.173 . S
C479 C340 1.237 . S
C484 C54 1.274 . S
C489 C60 1.175 . S
C494 C214 1.213 . S
C499 C396 1.238 . S
C504 C82 1.275 . S
C509 C88 1.172 . S
C514 C186 1.218 . S
C519 C424 1.239 . S
C524 C110 1.278 . S
C529 C18 1.151 . S
C534 C124 1.139 . S
C539 C138 1.170 . S
C544 C264 1.180 . S
C549 C46 1.147 . S
C554 C152 1.140 . S
C559 C166 1.167 . S
C564 C236 1.180 . S
C569 C180 1.140 . S
C574 C102 1.151 . S
C579 C292 1.182 . S
C584 C194 1.167 . S
C589 C208 1.138 . S
C594 C74 1.150 . S
C599 C320 1.182 . S
C604 C222 1.167 . S
C609 C354 1.214 . S
C614 C228 1.177 . S
C619 C144 1.237 . S
C624 C250 1.277 . S
C629 C256 1.176 . S
C634 C382 1.213 . S
C639 C116 1.238 . S
C644 C278 1.278 . S
C649 C438 1.217 . S
C654 C284 1.172 . S
C659 C306 1.278 . S
C664 C172 1.239 . S
C669 C410 1.218 . S
C674 C312 1.174 . S
C679 C200 1.237 . S
C684 C334 1.274 . S
C689 C242 1.151 . S
C694 C348 1.142 . S
C699 C362 1.170 . S
C704 C40 1.180 . S
C709 C376 1.139 . S
C714 C270 1.147 . S
C719 C390 1.167 . S
C724 C12 1.182 . S
C729 C326 1.149 . S
C734 C404 1.142 . S
C739 C418 1.170 . S
C744 C68 1.180 . S
C749 C432 1.140 . S
C754 C298 1.147 . S
C759 C446 1.167 . S
C764 C96 1.180 . S
C769 C347 1.366 . S
C774 C5 1.061 . S
C779 C25 1.403 . S
C784 C137 1.401 . S
C789 C33 1.055 . S
C794 C375 1.366 . S
C799 C53 1.403 . S
C804 C165 1.401 . S
C809 C61 1.055 . S
C814 C403 1.366 . S
C819 C81 1.404 . S
C824 C193 1.402 . S
C829 C431 1.366 . S
C834 C89 1.061 . S
C839 C109 1.404 . S
C844 C221 1.402 . S
C849 C123 1.366 . S
C854 C229 1.054 . S
C859 C151 1.366 . S
C864 C257 1.055 . S
C869 C285 1.056 . S
C874 C179 1.366 . S
C879 C313 1.055 . S
C884 C207 1.366 . S
C889 C249 1.404 . S
C894 C361 1.402 . S
C899 C389 1.402 . S
C904 C277 1.404 . S
C909 C305 1.404 . S
C914 C417 1.402 . S
C919 C445 1.401 . S
C924 C333 1.404 . S
C929 C299 1.465 . S
C934 C11 1.454 . S
C939 C319 1.454 . S
C944 C19 1.465 . S
C949 C39 1.451 . S
C954 C327 1.469 . S
C959 C291 1.452 . S
C964 C47 1.467 . S
C969 C271 1.467 . S
C974 C67 1.453 . S
C979 C235 1.453 . S
C984 C75 1.466 . S
C989 C95 1.452 . S
C994 C243 1.468 . S
C999 C263 1.452 . S
C1004 C103 1.468 . S
C1009 C411 1.329 . S
C1014 C117 1.364 . S
C1019 C425 1.365 . S
C1024 C131 1.327 . S
C1029 C439 1.326 . S
C1034 C145 1.362 . S
C1039 C159 1.329 . S
C1044 C397 1.364 . S
C1049 C383 1.329 . S
C1054 C173 1.363 . S
C1059 C341 1.365 . S
C1064 C187 1.330 . S
C1069 C355 1.328 . S
C1074 C201 1.366 . S
C1079 C369 1.362 . S
C1084 C215 1.325 . S
