# Generated by pormake.
# Topology whh, (6)-cn, num edge types: 1
# Building blocks:
#     Node 0, Type 0, BuildingBlock: OJICUG_clean_sbu_0, # of connection points: 6
#     Node 1, Type 0, BuildingBlock: OJICUG_clean_sbu_0, # of connection points: 6
#     Node 2, Type 0, BuildingBlock: OJICUG_clean_sbu_0, # of connection points: 6
#     Node 3, Type 0, BuildingBlock: OJICUG_clean_sbu_0, # of connection points: 6
#     Node 4, Type 0, BuildingBlock: OJICUG_clean_sbu_0, # of connection points: 6
#     Node 5, Type 0, BuildingBlock: OJICUG_clean_sbu_0, # of connection points: 6
#     Node 6, Type 0, BuildingBlock: OJICUG_clean_sbu_0, # of connection points: 6
#     Node 7, Type 0, BuildingBlock: OJICUG_clean_sbu_0, # of connection points: 6
#     Node 8, Type 0, BuildingBlock: OJICUG_clean_sbu_0, # of connection points: 6
#     Node 9, Type 0, BuildingBlock: OJICUG_clean_sbu_0, # of connection points: 6
#     Node 10, Type 0, BuildingBlock: OJICUG_clean_sbu_0, # of connection points: 6
#     Node 11, Type 0, BuildingBlock: OJICUG_clean_sbu_0, # of connection points: 6
#     Node 12, Type 0, BuildingBlock: OJICUG_clean_sbu_0, # of connection points: 6
#     Node 13, Type 0, BuildingBlock: OJICUG_clean_sbu_0, # of connection points: 6
#     Node 14, Type 0, BuildingBlock: OJICUG_clean_sbu_0, # of connection points: 6
#     Node 15, Type 0, BuildingBlock: OJICUG_clean_sbu_0, # of connection points: 6
#     Edge 16, Type (0, 0), BuildingBlock: XIVTED_clean_linker_0, # of connection points: 2
#     Edge 17, Type (0, 0), BuildingBlock: XIVTED_clean_linker_0, # of connection points: 2
#     Edge 18, Type (0, 0), BuildingBlock: XIVTED_clean_linker_0, # of connection points: 2
#     Edge 19, Type (0, 0), BuildingBlock: XIVTED_clean_linker_0, # of connection points: 2
#     Edge 20, Type (0, 0), BuildingBlock: XIVTED_clean_linker_0, # of connection points: 2
#     Edge 21, Type (0, 0), BuildingBlock: XIVTED_clean_linker_0, # of connection points: 2
#     Edge 22, Type (0, 0), BuildingBlock: XIVTED_clean_linker_0, # of connection points: 2
#     Edge 23, Type (0, 0), BuildingBlock: XIVTED_clean_linker_0, # of connection points: 2
#     Edge 24, Type (0, 0), BuildingBlock: XIVTED_clean_linker_0, # of connection points: 2
#     Edge 25, Type (0, 0), BuildingBlock: XIVTED_clean_linker_0, # of connection points: 2
#     Edge 26, Type (0, 0), BuildingBlock: XIVTED_clean_linker_0, # of connection points: 2
#     Edge 27, Type (0, 0), BuildingBlock: XIVTED_clean_linker_0, # of connection points: 2
#     Edge 28, Type (0, 0), BuildingBlock: XIVTED_clean_linker_0, # of connection points: 2
#     Edge 29, Type (0, 0), BuildingBlock: XIVTED_clean_linker_0, # of connection points: 2
#     Edge 30, Type (0, 0), BuildingBlock: XIVTED_clean_linker_0, # of connection points: 2
#     Edge 31, Type (0, 0), BuildingBlock: XIVTED_clean_linker_0, # of connection points: 2
#     Edge 32, Type (0, 0), BuildingBlock: XIVTED_clean_linker_0, # of connection points: 2
#     Edge 33, Type (0, 0), BuildingBlock: XIVTED_clean_linker_0, # of connection points: 2
#     Edge 34, Type (0, 0), BuildingBlock: XIVTED_clean_linker_0, # of connection points: 2
#     Edge 35, Type (0, 0), BuildingBlock: XIVTED_clean_linker_0, # of connection points: 2
#     Edge 36, Type (0, 0), BuildingBlock: XIVTED_clean_linker_0, # of connection points: 2
#     Edge 37, Type (0, 0), BuildingBlock: XIVTED_clean_linker_0, # of connection points: 2
#     Edge 38, Type (0, 0), BuildingBlock: XIVTED_clean_linker_0, # of connection points: 2
#     Edge 39, Type (0, 0), BuildingBlock: XIVTED_clean_linker_0, # of connection points: 2
#     Edge 40, Type (0, 0), BuildingBlock: XIVTED_clean_linker_0, # of connection points: 2
#     Edge 41, Type (0, 0), BuildingBlock: XIVTED_clean_linker_0, # of connection points: 2
#     Edge 42, Type (0, 0), BuildingBlock: XIVTED_clean_linker_0, # of connection points: 2
#     Edge 43, Type (0, 0), BuildingBlock: XIVTED_clean_linker_0, # of connection points: 2
#     Edge 44, Type (0, 0), BuildingBlock: XIVTED_clean_linker_0, # of connection points: 2
#     Edge 45, Type (0, 0), BuildingBlock: XIVTED_clean_linker_0, # of connection points: 2
#     Edge 46, Type (0, 0), BuildingBlock: XIVTED_clean_linker_0, # of connection points: 2
#     Edge 47, Type (0, 0), BuildingBlock: XIVTED_clean_linker_0, # of connection points: 2
#     Edge 48, Type (0, 0), BuildingBlock: XIVTED_clean_linker_0, # of connection points: 2
#     Edge 49, Type (0, 0), BuildingBlock: XIVTED_clean_linker_0, # of connection points: 2
#     Edge 50, Type (0, 0), BuildingBlock: XIVTED_clean_linker_0, # of connection points: 2
#     Edge 51, Type (0, 0), BuildingBlock: XIVTED_clean_linker_0, # of connection points: 2
#     Edge 52, Type (0, 0), BuildingBlock: XIVTED_clean_linker_0, # of connection points: 2
#     Edge 53, Type (0, 0), BuildingBlock: XIVTED_clean_linker_0, # of connection points: 2
#     Edge 54, Type (0, 0), BuildingBlock: XIVTED_clean_linker_0, # of connection points: 2
#     Edge 55, Type (0, 0), BuildingBlock: XIVTED_clean_linker_0, # of connection points: 2
#     Edge 56, Type (0, 0), BuildingBlock: XIVTED_clean_linker_0, # of connection points: 2
#     Edge 57, Type (0, 0), BuildingBlock: XIVTED_clean_linker_0, # of connection points: 2
#     Edge 58, Type (0, 0), BuildingBlock: XIVTED_clean_linker_0, # of connection points: 2
#     Edge 59, Type (0, 0), BuildingBlock: XIVTED_clean_linker_0, # of connection points: 2
#     Edge 60, Type (0, 0), BuildingBlock: XIVTED_clean_linker_0, # of connection points: 2
#     Edge 61, Type (0, 0), BuildingBlock: XIVTED_clean_linker_0, # of connection points: 2
#     Edge 62, Type (0, 0), BuildingBlock: XIVTED_clean_linker_0, # of connection points: 2
#     Edge 63, Type (0, 0), BuildingBlock: XIVTED_clean_linker_0, # of connection points: 2
# Relax obj value: 0.385
# Max RMSD: 0.252
# Mean RMSD: 0.252
data_MOF--net-whh--node1-OJICUG_clean_sbu_0--edge1-XIVTED_clean_linker_0
_symmetry_space_group_name_H-M    P1
_symmetry_Int_Tables_number       1
_symmetry_cell_setting            triclinic
loop_
_symmetry_equiv_pos_as_xyz
'x, y, z'
_cell_length_a     35.874354
_cell_length_b     35.892515
_cell_length_c     44.468797
_cell_angle_alpha  89.984537
_cell_angle_beta   89.99778
_cell_angle_gamma 89.998006
loop_
_atom_site_label
_atom_site_type_symbol
_atom_site_fract_x
_atom_site_fract_y
_atom_site_fract_z
_atom_type_partial_charge
Sc0 Sc 0.04895 0.67247 0.06963 0.0
Sc1 Sc 0.1027 0.61789 0.11702 0.0
Sc2 Sc 0.03104 0.67331 0.14587 0.0
O3 O 0.06131 0.65525 0.11147 0.0
C4 C 0.02057 0.7435 0.10591 0.0
C5 C 0.13378 0.68142 0.07195 0.0
C6 C 0.11598 0.6763 0.16857 0.0
C7 C 0.06784 0.59154 0.05812 0.0
C8 C 0.97304 0.6445 0.09605 0.0
C9 C 0.04499 0.58919 0.16652 0.0
O10 O 0.0225 0.72434 0.08203 0.0
O11 O 0.136 0.6487 0.08362 0.0
O12 O 0.08173 0.68604 0.17008 0.0
O13 O 0.07373 0.62438 0.04928 0.0
O14 O 0.98025 0.65972 0.1215 0.0
O15 O 0.07468 0.58438 0.15133 0.0
O16 O 0.99596 0.64444 0.07397 0.0
O17 O 0.07583 0.58219 0.08478 0.0
O18 O 0.02643 0.61918 0.16567 0.0
O19 O 0.10276 0.69825 0.06794 0.0
O20 O 0.03024 0.7303 0.13114 0.0
O21 O 0.12868 0.6517 0.15072 0.0
Sc22 Sc 0.83283 0.04718 0.07203 0.0
Sc23 Sc 0.88488 0.10275 0.11974 0.0
Sc24 Sc 0.82718 0.03332 0.14886 0.0
O25 O 0.84761 0.06137 0.11414 0.0
C26 C 0.76019 0.01809 0.10549 0.0
C27 C 0.82322 0.13189 0.07202 0.0
C28 C 0.82148 0.11907 0.16749 0.0
C29 C 0.91409 0.06608 0.06267 0.0
C30 C 0.86143 0.97328 0.10243 0.0
C31 C 0.90893 0.05064 0.17428 0.0
O32 O 0.78037 0.02068 0.08226 0.0
O33 O 0.85532 0.13476 0.08472 0.0
O34 O 0.80993 0.08537 0.16875 0.0
O35 O 0.88167 0.07182 0.05288 0.0
O36 O 0.84641 0.98188 0.12777 0.0
O37 O 0.91706 0.07613 0.15552 0.0
O38 O 0.86071 0.99458 0.07927 0.0
O39 O 0.92229 0.07478 0.08939 0.0
O40 O 0.87789 0.03392 0.17396 0.0
O41 O 0.80687 0.10063 0.06801 0.0
O42 O 0.77194 0.0278 0.13111 0.0
O43 O 0.84935 0.12989 0.15198 0.0
Sc44 Sc 0.4574 0.82998 0.07389 0.0
Sc45 Sc 0.4022 0.88235 0.12173 0.0
Sc46 Sc 0.47104 0.82383 0.15077 0.0
O47 O 0.44331 0.84472 0.11605 0.0
C48 C 0.48578 0.75684 0.10713 0.0
C49 C 0.37244 0.82168 0.0737 0.0
C50 C 0.385 0.81842 0.16877 0.0
C51 C 0.43998 0.91169 0.06516 0.0
C52 C 0.53167 0.85738 0.1045 0.0
C53 C 0.45405 0.90545 0.17672 0.0
O54 O 0.48296 0.77701 0.08391 0.0
O55 O 0.37009 0.85383 0.08632 0.0
O56 O 0.41867 0.80676 0.17023 0.0
O57 O 0.43381 0.87952 0.05502 0.0
O58 O 0.52268 0.84278 0.1299 0.0
O59 O 0.4287 0.91384 0.15791 0.0
O60 O 0.5105 0.85683 0.08125 0.0
O61 O 0.43088 0.91973 0.09183 0.0
O62 O 0.47063 0.87433 0.17625 0.0
O63 O 0.40348 0.8049 0.06968 0.0
O64 O 0.47656 0.76867 0.13284 0.0
O65 O 0.37444 0.84655 0.15346 0.0
Sc66 Sc 0.67287 0.45376 0.0694 0.0
Sc67 Sc 0.62071 0.39963 0.11817 0.0
Sc68 Sc 0.68048 0.46809 0.14598 0.0
O69 O 0.65865 0.44023 0.11178 0.0
C70 C 0.74671 0.48173 0.10162 0.0
C71 C 0.68121 0.36891 0.07014 0.0
C72 C 0.68468 0.38244 0.16525 0.0
C73 C 0.5912 0.43618 0.06114 0.0
C74 C 0.64635 0.52835 0.0996 0.0
C75 C 0.5988 0.45288 0.17264 0.0
O76 O 0.72586 0.4797 0.07874 0.0
O77 O 0.6492 0.36669 0.0831 0.0
O78 O 0.69702 0.41588 0.16609 0.0
O79 O 0.62334 0.42963 0.05109 0.0
O80 O 0.66194 0.51973 0.12472 0.0
O81 O 0.58974 0.42733 0.15418 0.0
O82 O 0.64598 0.50681 0.07659 0.0
O83 O 0.58322 0.42785 0.08798 0.0
O84 O 0.63021 0.4689 0.1717 0.0
O85 O 0.6979 0.39989 0.0656 0.0
O86 O 0.73546 0.47199 0.12737 0.0
O87 O 0.65626 0.37215 0.15019 0.0
Sc88 Sc 0.0315 0.82571 0.35006 0.0
Sc89 Sc 0.1046 0.87944 0.37854 0.0
Sc90 Sc 0.04709 0.82957 0.42658 0.0
O91 O 0.06149 0.84411 0.38448 0.0
C92 C 0.9729 0.8588 0.39772 0.0
C93 C 0.04948 0.90807 0.32723 0.0
C94 C 0.06835 0.91032 0.43527 0.0
C95 C 0.11697 0.81798 0.32929 0.0
C96 C 0.01737 0.75782 0.39187 0.0
C97 C 0.13166 0.81773 0.42685 0.0
O98 O 0.98046 0.84229 0.37287 0.0
O99 O 0.07914 0.91218 0.34256 0.0
O100 O 0.073 0.87793 0.44557 0.0
O101 O 0.08233 0.80989 0.32726 0.0
O102 O 0.01927 0.77793 0.41526 0.0
O103 O 0.13543 0.84951 0.41386 0.0
O104 O 0.02821 0.76959 0.36648 0.0
O105 O 0.13028 0.84274 0.34671 0.0
O106 O 0.09997 0.80207 0.43055 0.0
O107 O 0.0295 0.87906 0.32875 0.0
O108 O 0.99515 0.85914 0.42024 0.0
O109 O 0.078 0.91787 0.40863 0.0
Sc110 Sc 0.67167 0.04777 0.42769 0.0
Sc111 Sc 0.62298 0.10751 0.37884 0.0
Sc112 Sc 0.67605 0.03316 0.35046 0.0
O113 O 0.65701 0.06295 0.38551 0.0
C114 C 0.74489 0.02033 0.39307 0.0
C115 C 0.68303 0.13411 0.42891 0.0
C116 C 0.68503 0.11744 0.32885 0.0
C117 C 0.58941 0.0782 0.43853 0.0
C118 C 0.64437 0.97273 0.39718 0.0
C119 C 0.5932 0.05206 0.32821 0.0
O120 O 0.72571 0.02495 0.4167 0.0
O121 O 0.65462 0.13932 0.41198 0.0
O122 O 0.69457 0.08324 0.32835 0.0
O123 O 0.62094 0.06709 0.44768 0.0
O124 O 0.65765 0.98212 0.37159 0.0
O125 O 0.58805 0.0802 0.34514 0.0
O126 O 0.64588 0.99379 0.42037 0.0
O127 O 0.58377 0.08898 0.41182 0.0
O128 O 0.62326 0.03357 0.32812 0.0
O129 O 0.69629 0.10187 0.43475 0.0
O130 O 0.73174 0.02672 0.36717 0.0
O131 O 0.65876 0.13032 0.3449 0.0
Sc132 Sc 0.47267 0.6764 0.35229 0.0
Sc133 Sc 0.40013 0.62003 0.37819 0.0
Sc134 Sc 0.45486 0.66992 0.42827 0.0
O135 O 0.4421 0.65628 0.38563 0.0
C136 C 0.53012 0.64235 0.4005 0.0
C137 C 0.45755 0.59417 0.32755 0.0
C138 C 0.43515 0.58909 0.43519 0.0
C139 C 0.38776 0.68264 0.32978 0.0
C140 C 0.48474 0.743 0.39567 0.0
C141 C 0.37027 0.68058 0.42658 0.0
O142 O 0.52324 0.6599 0.37595 0.0
O143 O 0.42767 0.58868 0.34234 0.0
O144 O 0.42827 0.62103 0.44548 0.0
O145 O 0.42217 0.69196 0.3288 0.0
O146 O 0.48286 0.72204 0.41858 0.0
O147 O 0.36747 0.64896 0.41312 0.0
O148 O 0.47417 0.732 0.37001 0.0
O149 O 0.37473 0.65673 0.34623 0.0
O150 O 0.40157 0.69665 0.43126 0.0
O151 O 0.47644 0.62384 0.32986 0.0
O152 O 0.50718 0.64093 0.42253 0.0
O153 O 0.42673 0.58148 0.40831 0.0
Sc154 Sc 0.8235 0.46581 0.34691 0.0
Sc155 Sc 0.88058 0.39444 0.37432 0.0
Sc156 Sc 0.83243 0.45332 0.42432 0.0
O157 O 0.84544 0.43784 0.3818 0.0
C158 C 0.85806 0.52778 0.39076 0.0
C159 C 0.90379 0.4457 0.31936 0.0
C160 C 0.91649 0.42612 0.43238 0.0
C161 C 0.81344 0.38123 0.32867 0.0
C162 C 0.75717 0.48008 0.39289 0.0
C163 C 0.82448 0.36642 0.42687 0.0
O164 O 0.84635 0.51689 0.36501 0.0
O165 O 0.91327 0.42225 0.3394 0.0
O166 O 0.88532 0.43722 0.44227 0.0
O167 O 0.80134 0.41465 0.32926 0.0
O168 O 0.77646 0.47295 0.41601 0.0
O169 O 0.85159 0.36187 0.40851 0.0
O170 O 0.77023 0.47659 0.36665 0.0
O171 O 0.84325 0.37059 0.3416 0.0
O172 O 0.81098 0.39834 0.4334 0.0
O173 O 0.87208 0.46117 0.31928 0.0
O174 O 0.85497 0.50827 0.41478 0.0
O175 O 0.92104 0.4142 0.40586 0.0
Sc176 Sc 0.96677 0.32777 0.84089 0.0
Sc177 Sc 0.89652 0.38427 0.87078 0.0
Sc178 Sc 0.95618 0.33405 0.91855 0.0
O179 O 0.93986 0.34868 0.87667 0.0
C180 C 0.98294 0.2602 0.8851 0.0
C181 C 0.88186 0.3192 0.82355 0.0
C182 C 0.86906 0.32457 0.92079 0.0
C183 C 0.94643 0.40923 0.81576 0.0
C184 C 0.02979 0.36144 0.88439 0.0
C185 C 0.92909 0.4173 0.92976 0.0
O186 O 0.97812 0.27372 0.85915 0.0
O187 O 0.87198 0.34889 0.837 0.0
O188 O 0.90127 0.31129 0.92697 0.0
O189 O 0.96126 0.37727 0.81441 0.0
O190 O 0.01081 0.35792 0.90872 0.0
O191 O 0.917 0.42317 0.90345 0.0
O192 O 0.01833 0.34997 0.85871 0.0
O193 O 0.92411 0.4184 0.83673 0.0
O194 O 0.93972 0.38555 0.93862 0.0
O195 O 0.91504 0.30638 0.82373 0.0
O196 O 0.97665 0.27895 0.90862 0.0
O197 O 0.86425 0.35318 0.90399 0.0
Sc198 Sc 0.16786 0.95372 0.92037 0.0
Sc199 Sc 0.1157 0.89891 0.87088 0.0
Sc200 Sc 0.17166 0.97169 0.84383 0.0
O201 O 0.15193 0.94127 0.87806 0.0
C202 C 0.14159 0.03039 0.89264 0.0
C203 C 0.08519 0.92707 0.93164 0.0
C204 C 0.08777 0.95732 0.82168 0.0
C205 C 0.17703 0.86753 0.91803 0.0
C206 C 0.24099 0.98168 0.8859 0.0
C207 C 0.17635 0.8878 0.82018 0.0
O208 O 0.14189 0.00797 0.91507 0.0
O209 O 0.07817 0.9195 0.90443 0.0
O210 O 0.11846 0.97478 0.82206 0.0
O211 O 0.19215 0.89892 0.92414 0.0
O212 O 0.22802 0.97463 0.86004 0.0
O213 O 0.14994 0.87544 0.83633 0.0
O214 O 0.22148 0.97769 0.90943 0.0
O215 O 0.14665 0.86455 0.903 0.0
O216 O 0.18727 0.92164 0.82016 0.0
O217 O 0.118 0.93285 0.94098 0.0
O218 O 0.15584 0.02233 0.86705 0.0
O219 O 0.08178 0.92859 0.83778 0.0
Sc220 Sc 0.533 0.16943 0.84633 0.0
Sc221 Sc 0.60678 0.11622 0.87542 0.0
Sc222 Sc 0.54815 0.1669 0.92344 0.0
O223 O 0.56277 0.15094 0.88151 0.0
C224 C 0.52001 0.23903 0.88788 0.0
C225 C 0.61725 0.17679 0.82436 0.0
C226 C 0.63464 0.17889 0.92283 0.0
C227 C 0.55089 0.08587 0.82536 0.0
C228 C 0.473 0.1383 0.89374 0.0
C229 C 0.57771 0.08517 0.93607 0.0
O230 O 0.52709 0.2256 0.86219 0.0
O231 O 0.62979 0.15053 0.84059 0.0
O232 O 0.60243 0.19233 0.9288 0.0
O233 O 0.53294 0.11623 0.82459 0.0
O234 O 0.49428 0.14007 0.91686 0.0
O235 O 0.58754 0.07837 0.90929 0.0
O236 O 0.48204 0.15171 0.86809 0.0
O237 O 0.57867 0.0806 0.84266 0.0
O238 O 0.56851 0.11744 0.94477 0.0
O239 O 0.58322 0.187 0.82394 0.0
O240 O 0.52424 0.22015 0.91169 0.0
O241 O 0.63936 0.14908 0.90742 0.0
Sc242 Sc 0.33469 0.52961 0.84269 0.0
Sc243 Sc 0.38548 0.60429 0.87307 0.0
Sc244 Sc 0.33351 0.54587 0.91967 0.0
O245 O 0.35098 0.56009 0.87814 0.0
C246 C 0.26324 0.51688 0.88192 0.0
C247 C 0.32785 0.61404 0.82019 0.0
C248 C 0.32161 0.63169 0.91923 0.0
C249 C 0.41853 0.54862 0.82378 0.0
C250 C 0.36315 0.47049 0.89177 0.0
C251 C 0.41488 0.5745 0.93361 0.0
O252 O 0.27737 0.52455 0.85654 0.0
O253 O 0.35098 0.62771 0.83873 0.0
O254 O 0.30704 0.59967 0.92379 0.0
O255 O 0.3894 0.52868 0.82353 0.0
O256 O 0.3613 0.49243 0.91444 0.0
O257 O 0.42261 0.58342 0.90677 0.0
O258 O 0.35015 0.47891 0.86585 0.0
O259 O 0.42155 0.57792 0.83971 0.0
O260 O 0.38191 0.56753 0.94209 0.0
O261 O 0.31965 0.57951 0.81845 0.0
O262 O 0.28133 0.52104 0.90617 0.0
O263 O 0.35274 0.6361 0.90558 0.0
Sc264 Sc 0.95286 0.1733 0.56388 0.0
Sc265 Sc 0.89433 0.12437 0.6138 0.0
Sc266 Sc 0.96562 0.18139 0.64132 0.0
O267 O 0.9376 0.15973 0.60637 0.0
C268 C 0.02765 0.14759 0.59705 0.0
C269 C 0.92613 0.08923 0.55529 0.0
C270 C 0.94606 0.10068 0.66836 0.0
C271 C 0.86564 0.18131 0.56203 0.0
C272 C 0.97951 0.24825 0.59575 0.0
C273 C 0.88115 0.19077 0.66007 0.0
O274 O 0.00808 0.1509 0.57307 0.0
O275 O 0.91386 0.08448 0.58169 0.0
O276 O 0.96124 0.13251 0.66864 0.0
O277 O 0.89759 0.1946 0.55517 0.0
O278 O 0.97618 0.23485 0.62189 0.0
O279 O 0.87066 0.16097 0.64709 0.0
O280 O 0.97228 0.22926 0.5725 0.0
O281 O 0.86129 0.15401 0.58024 0.0
O282 O 0.91446 0.2032 0.65928 0.0
O283 O 0.93715 0.12052 0.54563 0.0
O284 O 0.01671 0.15894 0.62289 0.0
O285 O 0.92267 0.09123 0.64825 0.0
Sc286 Sc 0.3308 0.95753 0.56648 0.0
Sc287 Sc 0.38055 0.90136 0.6156 0.0
Sc288 Sc 0.3232 0.97196 0.64325 0.0
O289 O 0.34405 0.94334 0.60901 0.0
C290 C 0.3592 0.03145 0.59715 0.0
C291 C 0.41219 0.9389 0.55994 0.0
C292 C 0.4037 0.95318 0.67068 0.0
C293 C 0.32086 0.87271 0.5661 0.0
C294 C 0.25744 0.98777 0.59849 0.0
C295 C 0.31511 0.88614 0.66153 0.0
O296 O 0.35868 0.01008 0.57404 0.0
O297 O 0.41945 0.92923 0.58661 0.0
O298 O 0.37318 0.97082 0.66946 0.0
O299 O 0.30479 0.90406 0.56168 0.0
O300 O 0.26862 0.97841 0.62438 0.0
O301 O 0.34317 0.8747 0.64658 0.0
O302 O 0.27799 0.98439 0.5755 0.0
O303 O 0.35234 0.86977 0.57974 0.0
O304 O 0.30446 0.92016 0.66282 0.0
O305 O 0.38042 0.93251 0.54909 0.0
O306 O 0.34381 0.02301 0.62237 0.0
O307 O 0.41161 0.92718 0.65234 0.0
Sc308 Sc 0.54618 0.33429 0.57008 0.0
Sc309 Sc 0.60931 0.38172 0.61728 0.0
Sc310 Sc 0.53645 0.32918 0.64797 0.0
O311 O 0.56395 0.34842 0.61177 0.0
C312 C 0.474 0.36446 0.6051 0.0
C313 C 0.57691 0.41671 0.55888 0.0
C314 C 0.56168 0.40925 0.67279 0.0
C315 C 0.63301 0.32252 0.56566 0.0
C316 C 0.51774 0.26159 0.60415 0.0
C317 C 0.621 0.31564 0.66414 0.0
O318 O 0.49211 0.35888 0.58061 0.0
O319 O 0.59102 0.42163 0.58466 0.0
O320 O 0.54529 0.37811 0.67447 0.0
O321 O 0.60021 0.31067 0.55981 0.0
O322 O 0.52163 0.27604 0.62985 0.0
O323 O 0.63239 0.34486 0.65078 0.0
O324 O 0.52567 0.27919 0.58034 0.0
O325 O 0.63947 0.34965 0.58358 0.0
O326 O 0.58715 0.3048 0.66431 0.0
O327 O 0.5629 0.38602 0.55058 0.0
O328 O 0.48584 0.35413 0.63095 0.0
O329 O 0.58398 0.41725 0.65152 0.0
Sc330 Sc 0.17138 0.55044 0.56543 0.0
Sc331 Sc 0.11784 0.6058 0.61218 0.0
Sc332 Sc 0.17075 0.53271 0.64173 0.0
O333 O 0.15421 0.56349 0.60712 0.0
C334 C 0.14208 0.475 0.59175 0.0
C335 C 0.09089 0.57026 0.55403 0.0
C336 C 0.08708 0.54894 0.6616 0.0
C337 C 0.18148 0.63504 0.56641 0.0
C338 C 0.24156 0.52125 0.60267 0.0
C339 C 0.17475 0.61768 0.66464 0.0
O340 O 0.14213 0.49799 0.56973 0.0
O341 O 0.08151 0.57896 0.58052 0.0
O342 O 0.11589 0.52864 0.66024 0.0
O343 O 0.19825 0.60384 0.56326 0.0
O344 O 0.22821 0.53141 0.62777 0.0
O345 O 0.15257 0.63141 0.6453 0.0
O346 O 0.22267 0.52323 0.5786 0.0
O347 O 0.14882 0.63777 0.5781 0.0
O348 O 0.18268 0.58302 0.6669 0.0
O349 O 0.12372 0.57613 0.54512 0.0
O350 O 0.15764 0.48203 0.61709 0.0
O351 O 0.08401 0.57941 0.64715 0.0
H352 H 0.79491 0.49938 0.14705 0.0
H353 H 0.94564 0.60543 0.04722 0.0
H354 H 0.78219 0.50756 0.05065 0.0
H355 H 0.92182 0.63129 0.14019 0.0
H356 H 0.89226 0.56249 0.04702 0.0
H357 H 0.85011 0.53855 0.1439 0.0
C358 C 0.80393 0.50896 0.12512 0.0
C359 C 0.78348 0.50041 0.0991 0.0
C360 C 0.89872 0.57792 0.06729 0.0
C361 C 0.84681 0.5457 0.09546 0.0
C362 C 0.92899 0.60258 0.06741 0.0
C363 C 0.93826 0.62228 0.09373 0.0
C364 C 0.87811 0.57252 0.09378 0.0
C365 C 0.91587 0.617 0.11931 0.0
C366 C 0.83535 0.53161 0.1234 0.0
C367 C 0.79688 0.51365 0.07133 0.0
N368 N 0.88716 0.59246 0.11873 0.0
N369 N 0.82767 0.53583 0.07023 0.0
H370 H 0.99989 0.78762 0.15334 0.0
H371 H 0.89976 0.94404 0.0541 0.0
H372 H 0.99825 0.78354 0.05627 0.0
H373 H 0.87564 0.92379 0.14791 0.0
H374 H 0.94157 0.89006 0.0543 0.0
H375 H 0.96173 0.84376 0.15163 0.0
C376 C 0.99197 0.79874 0.13162 0.0
C377 C 0.00216 0.78053 0.10491 0.0
C378 C 0.92686 0.89738 0.07473 0.0
C379 C 0.958 0.84486 0.10286 0.0
C380 C 0.90282 0.92809 0.07463 0.0
C381 C 0.88381 0.93849 0.101 0.0
C382 C 0.9323 0.87722 0.10144 0.0
C383 C 0.8894 0.9169 0.12698 0.0
C384 C 0.96988 0.83069 0.13069 0.0
C385 C 0.99091 0.79645 0.07745 0.0
N386 N 0.91322 0.88751 0.12656 0.0
N387 N 0.96932 0.82764 0.07713 0.0
H388 H 0.58116 0.87071 0.15006 0.0
H389 H 0.72288 0.9941 0.05485 0.0
H390 H 0.56187 0.895 0.05613 0.0
H391 H 0.71443 0.99736 0.15173 0.0
H392 H 0.66699 0.95475 0.0533 0.0
H393 H 0.63473 0.91211 0.1493 0.0
C394 C 0.58834 0.88438 0.12913 0.0
C395 C 0.56681 0.87916 0.10309 0.0
C396 C 0.67729 0.96444 0.07482 0.0
C397 C 0.62834 0.92717 0.10225 0.0
C398 C 0.70911 0.98698 0.07575 0.0
C399 C 0.72362 0.99896 0.10349 0.0
C400 C 0.66025 0.95341 0.10182 0.0
C401 C 0.70449 0.98881 0.12981 0.0
C402 C 0.61885 0.90834 0.12882 0.0
C403 C 0.57767 0.89797 0.07673 0.0
N404 N 0.67413 0.96635 0.12832 0.0
N405 N 0.60773 0.92115 0.07697 0.0
H406 H 0.5055 0.71013 0.1531 0.0
H407 H 0.60854 0.5587 0.0514 0.0
H408 H 0.51013 0.72006 0.05635 0.0
H409 H 0.6325 0.5773 0.14545 0.0
H410 H 0.56669 0.61272 0.05217 0.0
H411 H 0.54441 0.65472 0.15007 0.0
C412 C 0.51426 0.70046 0.13113 0.0
C413 C 0.50466 0.72012 0.10494 0.0
C414 C 0.58141 0.60502 0.0725 0.0
C415 C 0.54971 0.65653 0.10142 0.0
C416 C 0.60545 0.57431 0.0721 0.0
C417 C 0.62436 0.56339 0.09839 0.0
C418 C 0.57582 0.62459 0.09947 0.0
C419 C 0.61881 0.58458 0.12457 0.0
C420 C 0.53678 0.66891 0.12947 0.0
C421 C 0.51696 0.70597 0.07715 0.0
N422 N 0.59492 0.61389 0.12447 0.0
N423 N 0.53897 0.67508 0.07611 0.0
H424 H 0.92219 0.86983 0.35275 0.0
H425 H 0.78441 0.00142 0.44412 0.0
H426 H 0.94524 0.90103 0.44476 0.0
H427 H 0.78987 0.9968 0.34714 0.0
H428 H 0.84071 0.9627 0.44664 0.0
H429 H 0.86954 0.91224 0.35245 0.0
C430 C 0.91602 0.88524 0.37309 0.0
C431 C 0.9383 0.88153 0.3989 0.0
C432 C 0.82969 0.97057 0.42487 0.0
C433 C 0.87769 0.93083 0.39849 0.0
C434 C 0.79763 0.99276 0.42337 0.0
C435 C 0.78205 0.00224 0.39535 0.0
C436 C 0.84594 0.95736 0.3982 0.0
C437 C 0.80056 0.99018 0.36927 0.0
C438 C 0.88601 0.9098 0.37277 0.0
C439 C 0.92875 0.90269 0.42441 0.0
N440 N 0.83114 0.96807 0.37136 0.0
N441 N 0.89907 0.92641 0.4236 0.0
H442 H 0.62727 0.92591 0.35076 0.0
H443 H 0.51168 0.77802 0.44645 0.0
H444 H 0.6111 0.93924 0.44646 0.0
H445 H 0.50283 0.791 0.35014 0.0
H446 H 0.55085 0.83403 0.44827 0.0
H447 H 0.58644 0.87208 0.35161 0.0
C448 C 0.61552 0.91736 0.37212 0.0
C449 C 0.62283 0.93737 0.39863 0.0
C450 C 0.53998 0.8247 0.42684 0.0
C451 C 0.57533 0.87535 0.39958 0.0
C452 C 0.51754 0.79281 0.42575 0.0
C453 C 0.504 0.77953 0.39805 0.0
C454 C 0.54933 0.84314 0.40003 0.0
C455 C 0.51259 0.79994 0.37201 0.0
C456 C 0.59183 0.88666 0.37248 0.0
C457 C 0.60637 0.92471 0.42547 0.0
N458 N 0.53494 0.83039 0.37363 0.0
N459 N 0.58338 0.89445 0.42528 0.0
H460 H 0.58115 0.63189 0.35575 0.0
H461 H 0.7199 0.49972 0.44502 0.0
H462 H 0.55736 0.59939 0.44736 0.0
H463 H 0.70972 0.50206 0.34823 0.0
H464 H 0.66365 0.5386 0.44865 0.0
H465 H 0.63344 0.5891 0.35521 0.0
C466 C 0.58711 0.61615 0.37597 0.0
C467 C 0.56468 0.61955 0.40171 0.0
C468 C 0.67365 0.53014 0.42671 0.0
C469 C 0.62488 0.56979 0.40101 0.0
C470 C 0.70564 0.50785 0.42458 0.0
C471 C 0.71996 0.49784 0.39624 0.0
C472 C 0.65627 0.54286 0.40033 0.0
C473 C 0.70016 0.50925 0.37058 0.0
C474 C 0.61689 0.59134 0.3755 0.0
C475 C 0.57395 0.59792 0.42706 0.0
N476 N 0.66976 0.53146 0.37325 0.0
N477 N 0.60346 0.57397 0.42611 0.0
H478 H 0.9903 0.72137 0.44184 0.0
H479 H 0.87711 0.57334 0.34383 0.0
H480 H 0.99885 0.7115 0.34528 0.0
H481 H 0.88895 0.56274 0.44016 0.0
H482 H 0.9177 0.62751 0.34496 0.0
H483 H 0.95101 0.66553 0.4426 0.0
C484 C 0.98432 0.7073 0.42084 0.0
C485 C 0.99787 0.72138 0.39342 0.0
C486 C 0.9114 0.61342 0.36589 0.0
C487 C 0.95237 0.65787 0.39417 0.0
C488 C 0.88789 0.58254 0.36533 0.0
C489 C 0.87945 0.56321 0.39196 0.0
C490 C 0.92659 0.6255 0.39328 0.0
C491 C 0.89458 0.57668 0.41905 0.0
C492 C 0.96178 0.67549 0.42132 0.0
C493 C 0.9891 0.70187 0.36697 0.0
N494 N 0.91743 0.607 0.41902 0.0
N495 N 0.9667 0.6714 0.368 0.0
H496 H 0.07666 0.37636 0.83729 0.0
H497 H 0.22188 0.49809 0.93183 0.0
H498 H 0.06398 0.39628 0.93255 0.0
H499 H 0.22028 0.49225 0.83484 0.0
H500 H 0.1652 0.46018 0.93331 0.0
H501 H 0.13134 0.41629 0.83704 0.0
C502 C 0.08547 0.38883 0.85829 0.0
C503 C 0.06541 0.38275 0.88502 0.0
C504 C 0.17712 0.46746 0.91172 0.0
C505 C 0.12844 0.42919 0.88473 0.0
C506 C 0.20945 0.48926 0.91081 0.0
C507 C 0.22613 0.49839 0.88313 0.0
C508 C 0.16143 0.45438 0.8848 0.0
C509 C 0.20859 0.48602 0.85671 0.0
C510 C 0.11671 0.41193 0.85805 0.0
C511 C 0.07849 0.39996 0.91141 0.0
N512 N 0.17748 0.46446 0.85823 0.0
N513 N 0.10914 0.42241 0.91059 0.0
H514 H 0.00285 0.21308 0.83953 0.0
H515 H 0.10371 0.06004 0.9414 0.0
H516 H 0.00518 0.22272 0.93635 0.0
H517 H 0.12887 0.08087 0.84786 0.0
H518 H 0.0619 0.11438 0.94101 0.0
H519 H 0.04108 0.15734 0.84309 0.0
C520 C 0.01099 0.20331 0.86162 0.0
C521 C 1.00099 0.22305 0.88766 0.0
C522 C 0.07689 0.10702 0.92073 0.0
C523 C 0.0454 0.15901 0.89183 0.0
C524 C 0.1009 0.07616 0.92094 0.0
C525 C 0.12004 0.06571 0.89464 0.0
C526 C 0.0716 0.1271 0.89393 0.0
C527 C 0.11495 0.08762 0.86875 0.0
C528 C 0.03313 0.17153 0.86361 0.0
C529 C 0.01234 0.20859 0.91564 0.0
N530 N 0.0911 0.11691 0.86903 0.0
N531 N 0.03415 0.17752 0.917 0.0
H532 H 0.28875 1.00011 0.84016 0.0
H533 H 0.44039 0.10327 0.94277 0.0
H534 H 0.27832 0.0049 0.93685 0.0
H535 H 0.42571 0.12178 0.84749 0.0
H536 H 0.38566 0.06195 0.94209 0.0
H537 H 0.34524 0.03744 0.84348 0.0
C538 C 0.29851 0.00858 0.86217 0.0
C539 C 0.27837 0.99947 0.88823 0.0
C540 C 0.39447 0.07532 0.92145 0.0
C541 C 0.34327 0.04288 0.89215 0.0
C542 C 0.42558 0.09905 0.92183 0.0
C543 C 0.4378 0.11634 0.89519 0.0
C544 C 0.37583 0.06844 0.89419 0.0
C545 C 0.41752 0.10942 0.86868 0.0
C546 C 0.33072 0.03021 0.86403 0.0
C547 C 0.29275 0.01134 0.91611 0.0
N548 N 0.38788 0.08596 0.86887 0.0
N549 N 0.32421 0.0326 0.91733 0.0
H550 H 0.50103 0.28539 0.84144 0.0
H551 H 0.39929 0.44031 0.94123 0.0
H552 H 0.4969 0.27743 0.93832 0.0
H553 H 0.37755 0.4205 0.84699 0.0
H554 H 0.44055 0.38554 0.94159 0.0
H555 H 0.46336 0.34166 0.84397 0.0
C556 C 0.49262 0.29564 0.86332 0.0
C557 C 0.50198 0.27626 0.88968 0.0
C558 C 0.42646 0.39324 0.92097 0.0
C559 C 0.45824 0.34089 0.89267 0.0
C560 C 0.40277 0.42435 0.92076 0.0
C561 C 0.38472 0.43519 0.89406 0.0
C562 C 0.43251 0.37326 0.89422 0.0
C563 C 0.39064 0.41347 0.86818 0.0
C564 C 0.4708 0.32772 0.86472 0.0
C565 C 0.49022 0.29127 0.91737 0.0
N566 N 0.41412 0.38389 0.8689 0.0
N567 N 0.46879 0.32261 0.91815 0.0
H568 H 0.07375 0.12946 0.6438 0.0
H569 H 0.22306 0.01573 0.54767 0.0
H570 H 0.06242 0.1161 0.54767 0.0
H571 H 0.20903 0.00546 0.6438 0.0
H572 H 0.16727 0.05531 0.54591 0.0
H573 H 0.12785 0.08888 0.64285 0.0
C574 C 0.08276 0.11834 0.62236 0.0
C575 C 0.0632 0.12632 0.59576 0.0
C576 C 0.17634 0.04406 0.56729 0.0
C577 C 0.12552 0.07915 0.59465 0.0
C578 C 0.20809 0.02134 0.56833 0.0
C579 C 0.22103 0.00729 0.59596 0.0
C580 C 0.15771 0.05311 0.59409 0.0
C581 C 0.20041 0.01564 0.62197 0.0
C582 C 0.11363 0.09483 0.62191 0.0
C583 C 0.07653 0.11081 0.56875 0.0
N584 N 0.17012 0.03821 0.6204 0.0
N585 N 0.10688 0.08792 0.56888 0.0
H586 H 0.49475 0.21718 0.65051 0.0
H587 H 0.40028 0.05932 0.54963 0.0
H588 H 0.49794 0.22162 0.55345 0.0
H589 H 0.37066 0.08241 0.64197 0.0
H590 H 0.44193 0.11353 0.55029 0.0
H591 H 0.45692 0.16115 0.64755 0.0
C592 C 0.48787 0.20623 0.6285 0.0
C593 C 0.49937 0.22456 0.60217 0.0
C594 C 0.42602 0.10677 0.57026 0.0
C595 C 0.4555 0.16009 0.59871 0.0
C596 C 0.40209 0.07594 0.56991 0.0
C597 C 0.38162 0.06624 0.59577 0.0
C598 C 0.42985 0.12774 0.59673 0.0
C599 C 0.38562 0.08867 0.62145 0.0
C600 C 0.46599 0.17426 0.62686 0.0
C601 C 0.4896 0.20861 0.57435 0.0
N602 N 0.40934 0.11811 0.62129 0.0
N603 N 0.46806 0.17734 0.57333 0.0
H604 H 0.2809 0.49684 0.55335 0.0
H605 H 0.4303 0.38618 0.65248 0.0
H606 H 0.28625 0.50179 0.65028 0.0
H607 H 0.43785 0.39424 0.55573 0.0
H608 H 0.37592 0.42656 0.65142 0.0
H609 H 0.33757 0.45892 0.5532 0.0
C610 C 0.29415 0.49036 0.5746 0.0
C611 C 0.27853 0.50252 0.6019 0.0
C612 C 0.38938 0.4195 0.63038 0.0
C613 C 0.34325 0.45855 0.60183 0.0
C614 C 0.42043 0.39615 0.63091 0.0
C615 C 0.4389 0.38656 0.60412 0.0
C616 C 0.37627 0.43346 0.60287 0.0
C617 C 0.42459 0.4007 0.57696 0.0
C618 C 0.32648 0.46857 0.57446 0.0
C619 C 0.2971 0.49314 0.62867 0.0
N620 N 0.39414 0.42341 0.57704 0.0
N621 N 0.32821 0.47152 0.62795 0.0
H622 H 0.13296 0.42155 0.63477 0.0
H623 H 0.99957 0.28602 0.54391 0.0
H624 H 0.09898 0.4495 0.54427 0.0
H625 H 0.00124 0.29521 0.64077 0.0
H626 H 0.03887 0.34206 0.54083 0.0
H627 H 0.09022 0.36927 0.63421 0.0
C628 C 0.11688 0.41653 0.61456 0.0
C629 C 0.11977 0.4402 0.58951 0.0
C630 C 0.03016 0.33189 0.56265 0.0
C631 C 0.0701 0.37995 0.58894 0.0
C632 C 0.00762 0.30002 0.56447 0.0
C633 C 0.99733 0.28547 0.59268 0.0
C634 C 0.04285 0.34883 0.58921 0.0
C635 C 0.00866 0.30493 0.61851 0.0
C636 C 0.09213 0.38673 0.6144 0.0
C637 C 0.09789 0.43196 0.56406 0.0
N638 N 0.03113 0.33517 0.61614 0.0
N639 N 0.07393 0.40243 0.5644 0.0
H640 H 0.13541 0.74876 0.16683 0.0
H641 H 0.13054 0.74421 0.33165 0.0
H642 H 0.15492 0.64666 0.21518 0.0
H643 H 0.16095 0.84438 0.28432 0.0
H644 H 0.15869 0.70716 0.29176 0.0
H645 H 0.1641 0.78359 0.20778 0.0
C646 C 0.14681 0.73373 0.18587 0.0
C647 C 0.14204 0.69525 0.18844 0.0
C648 C 0.16049 0.73723 0.29039 0.0
C649 C 0.17337 0.73455 0.23567 0.0
C650 C 0.1442 0.75826 0.3131 0.0
C651 C 0.14266 0.797 0.31044 0.0
C652 C 0.17341 0.75526 0.26433 0.0
C653 C 0.16108 0.81433 0.28654 0.0
C654 C 0.16341 0.75348 0.20918 0.0
C655 C 0.15758 0.67659 0.21299 0.0
N656 N 0.17473 0.79323 0.26374 0.0
N657 N 0.1716 0.6966 0.23628 0.0
H658 H 0.65567 0.16455 0.28721 0.0
H659 H 0.85238 0.16369 0.21 0.0
H660 H 0.75952 0.1282 0.32608 0.0
H661 H 0.74782 0.13519 0.16828 0.0
H662 H 0.8181 0.19158 0.25214 0.0
H663 H 0.69053 0.19372 0.24584 0.0
C664 C 0.68587 0.16399 0.28753 0.0
C665 C 0.70503 0.14307 0.30913 0.0
C666 C 0.80276 0.18083 0.23303 0.0
C667 C 0.74452 0.17658 0.26292 0.0
C668 C 0.82222 0.16485 0.20915 0.0
C669 C 0.80256 0.14623 0.18652 0.0
C670 C 0.76374 0.17789 0.23385 0.0
C671 C 0.76367 0.14847 0.18601 0.0
C672 C 0.70564 0.18078 0.26417 0.0
C673 C 0.74397 0.14325 0.30909 0.0
N674 N 0.74537 0.16338 0.20977 0.0
N675 N 0.76255 0.15924 0.28594 0.0
H676 H 0.36914 0.74484 0.16828 0.0
H677 H 0.37699 0.75701 0.32827 0.0
H678 H 0.33935 0.84819 0.21119 0.0
H679 H 0.34012 0.65428 0.28804 0.0
H680 H 0.34622 0.79165 0.28825 0.0
H681 H 0.34033 0.71071 0.20951 0.0
C682 C 0.35532 0.76022 0.18604 0.0
C683 C 0.35752 0.79906 0.18721 0.0
C684 C 0.34359 0.76159 0.28856 0.0
C685 C 0.32613 0.76063 0.23483 0.0
C686 C 0.36154 0.74192 0.31124 0.0
C687 C 0.36194 0.70302 0.31052 0.0
C688 C 0.32784 0.742 0.26433 0.0
C689 C 0.34099 0.68442 0.28866 0.0
C690 C 0.33863 0.74084 0.20951 0.0
C691 C 0.3388 0.81805 0.21013 0.0
N692 N 0.32577 0.7041 0.26565 0.0
N693 N 0.32498 0.79858 0.2338 0.0
H694 H 0.75854 0.36755 0.16798 0.0
H695 H 0.73871 0.37064 0.32606 0.0
H696 H 0.6527 0.33553 0.20575 0.0
H697 H 0.84247 0.33125 0.28903 0.0
H698 H 0.70533 0.3406 0.28502 0.0
H699 H 0.79017 0.33687 0.20965 0.0
C700 C 0.7421 0.35299 0.18472 0.0
C701 C 0.70321 0.35498 0.18432 0.0
C702 C 0.73529 0.33719 0.28633 0.0
C703 C 0.73877 0.32126 0.23243 0.0
C704 C 0.75428 0.35468 0.30963 0.0
C705 C 0.79324 0.35445 0.31 0.0
C706 C 0.7557 0.32128 0.26261 0.0
C707 C 0.81232 0.33275 0.28885 0.0
C708 C 0.76006 0.33516 0.20839 0.0
C709 C 0.68289 0.33519 0.20592 0.0
N710 N 0.79342 0.3181 0.2652 0.0
N711 N 0.70091 0.32024 0.2299 0.0
H712 H 0.86979 0.26533 0.6631 0.0
H713 H 0.86846 0.245 0.82075 0.0
H714 H 0.83182 0.16091 0.69985 0.0
H715 H 0.83351 0.35025 0.78363 0.0
H716 H 0.83784 0.21295 0.7793 0.0
H717 H 0.83948 0.29805 0.70435 0.0
C718 C 0.85409 0.24946 0.67953 0.0
C719 C 0.85433 0.21053 0.679 0.0
C720 C 0.83549 0.24299 0.78068 0.0
C721 C 0.82084 0.24734 0.72661 0.0
C722 C 0.85331 0.26121 0.80421 0.0
C723 C 0.85452 0.30012 0.80468 0.0
C724 C 0.82077 0.26408 0.75683 0.0
C725 C 0.83387 0.32008 0.78337 0.0
C726 C 0.83643 0.26808 0.70293 0.0
C727 C 0.83296 0.19105 0.70015 0.0
N728 N 0.81893 0.30186 0.7595 0.0
N729 N 0.81815 0.20961 0.72391 0.0
H730 H 0.34307 0.838 0.70292 0.0
H731 H 0.14519 0.84403 0.77712 0.0
H732 H 0.2408 0.87352 0.66098 0.0
H733 H 0.25006 0.87272 0.81828 0.0
H734 H 0.17923 0.81404 0.73571 0.0
H735 H 0.30666 0.80919 0.74348 0.0
C736 C 0.31291 0.83828 0.70167 0.0
C737 C 0.29458 0.85915 0.67959 0.0
C738 C 0.19464 0.82544 0.75452 0.0
C739 C 0.25337 0.8264 0.72504 0.0
C740 C 0.17535 0.84275 0.77788 0.0
C741 C 0.19524 0.86184 0.80013 0.0
C742 C 0.23373 0.82738 0.75391 0.0
C743 C 0.23407 0.85922 0.80073 0.0
C744 C 0.29224 0.82173 0.72461 0.0
C745 C 0.25566 0.8586 0.67843 0.0
N746 N 0.25221 0.84283 0.77755 0.0
N747 N 0.23619 0.84309 0.70131 0.0
H748 H 0.63084 0.2507 0.82319 0.0
H749 H 0.63193 0.24109 0.66323 0.0
H750 H 0.66226 0.14714 0.78136 0.0
H751 H 0.66968 0.34199 0.70592 0.0
H752 H 0.66022 0.20485 0.70351 0.0
H753 H 0.66153 0.28464 0.78271 0.0
C754 C 0.64512 0.23525 0.80571 0.0
C755 C 0.64319 0.19641 0.80471 0.0
C756 C 0.66373 0.23483 0.70363 0.0
C757 C 0.67714 0.23461 0.75804 0.0
C758 C 0.64728 0.25544 0.68074 0.0
C759 C 0.64751 0.29433 0.68215 0.0
C760 C 0.67851 0.25354 0.72868 0.0
C761 C 0.66828 0.31189 0.70469 0.0
C762 C 0.66301 0.2545 0.78276 0.0
C763 C 0.66261 0.17729 0.78223 0.0
N764 N 0.68187 0.29136 0.72786 0.0
N765 N 0.67777 0.19665 0.75902 0.0
H766 H 0.24026 0.65319 0.65617 0.0
H767 H 0.26086 0.64593 0.82985 0.0
H768 H 0.15106 0.6383 0.71984 0.0
H769 H 0.35056 0.63898 0.76576 0.0
H770 H 0.22134 0.6744 0.79127 0.0
H771 H 0.27913 0.67941 0.69621 0.0
C772 C 0.2286 0.65672 0.67848 0.0
C773 C 0.19315 0.643 0.68533 0.0
C774 C 0.25003 0.66778 0.78584 0.0
C775 C 0.23714 0.67162 0.73093 0.0
C776 C 0.2724 0.6515 0.80778 0.0
C777 C 0.30826 0.63948 0.80031 0.0
C778 C 0.26356 0.67074 0.75628 0.0
C779 C 0.32257 0.6474 0.77184 0.0
C780 C 0.25063 0.67164 0.70126 0.0
C781 C 0.17873 0.64813 0.71417 0.0
N782 N 0.2998 0.66183 0.75049 0.0
N783 N 0.20117 0.66133 0.73623 0.0
H784 H 0.20445 0.65242 0.06789 0.0
H785 H 0.30188 0.85098 0.06973 0.0
H786 H 0.14346 0.75554 0.05884 0.0
H787 H 0.36282 0.74813 0.05872 0.0
H788 H 0.24367 0.81683 0.06262 0.0
H789 H 0.26264 0.68681 0.06148 0.0
C790 C 0.20321 0.68223 0.06424 0.0
C791 C 0.1689 0.7011 0.06421 0.0
C792 C 0.2698 0.8018 0.06136 0.0
C793 C 0.23566 0.74078 0.05718 0.0
C794 C 0.30311 0.8213 0.06546 0.0
C795 C 0.3374 0.8024 0.06513 0.0
C796 C 0.27063 0.76299 0.05733 0.0
C797 C 0.33712 0.76392 0.05927 0.0
C798 C 0.23651 0.70186 0.06052 0.0
C799 C 0.16917 0.73976 0.05915 0.0
N800 N 0.30427 0.74543 0.05603 0.0
N801 N 0.20201 0.75835 0.05625 0.0
H802 H 0.8517 0.20266 0.06695 0.0
H803 H 0.65243 0.29801 0.06744 0.0
H804 H 0.74938 0.14042 0.05751 0.0
H805 H 0.75454 0.35962 0.05432 0.0
H806 H 0.68706 0.24 0.06069 0.0
H807 H 0.8168 0.26031 0.05923 0.0
C808 C 0.82198 0.20103 0.06291 0.0
C809 C 0.80345 0.16656 0.06321 0.0
C810 C 0.7018 0.26623 0.05888 0.0
C811 C 0.76318 0.23266 0.05473 0.0
C812 C 0.68203 0.29942 0.06278 0.0
C813 C 0.7006 0.33385 0.06179 0.0
C814 C 0.74056 0.26736 0.05442 0.0
C815 C 0.73899 0.33381 0.05544 0.0
C816 C 0.80205 0.23401 0.05845 0.0
C817 C 0.76488 0.16629 0.0576 0.0
N818 N 0.75776 0.3011 0.05244 0.0
N819 N 0.74597 0.19883 0.05404 0.0
H820 H 0.36188 0.75287 0.44574 0.0
H821 H 0.13906 0.74405 0.44255 0.0
H822 H 0.29907 0.65251 0.42836 0.0
H823 H 0.20254 0.84555 0.43273 0.0
H824 H 0.19723 0.70989 0.45071 0.0
H825 H 0.30337 0.78623 0.45422 0.0
C826 C 0.33588 0.73766 0.44411 0.0
C827 C 0.33548 0.69987 0.43584 0.0
C828 C 0.19831 0.73972 0.44712 0.0
C829 C 0.26839 0.73805 0.44549 0.0
C830 C 0.16511 0.7593 0.44258 0.0
C831 C 0.16588 0.79769 0.43642 0.0
C832 C 0.23252 0.75865 0.44567 0.0
C833 C 0.20056 0.8159 0.43689 0.0
C834 C 0.30248 0.75681 0.44887 0.0
C835 C 0.30082 0.68172 0.43425 0.0
N836 N 0.23248 0.79618 0.44114 0.0
N837 N 0.2687 0.70103 0.43876 0.0
H838 H 0.85344 0.29609 0.43202 0.0
H839 H 0.655 0.20419 0.43762 0.0
H840 H 0.75325 0.35935 0.44871 0.0
H841 H 0.75641 0.14031 0.44564 0.0
H842 H 0.69027 0.26094 0.44793 0.0
H843 H 0.81935 0.23887 0.4432 0.0
C844 C 0.82437 0.298 0.43844 0.0
C845 C 0.806 0.33255 0.43884 0.0
C846 C 0.70477 0.23448 0.44793 0.0
C847 C 0.7666 0.26698 0.45122 0.0
C848 C 0.68464 0.20205 0.44192 0.0
C849 C 0.7029 0.16751 0.44018 0.0
C850 C 0.74362 0.23254 0.45152 0.0
C851 C 0.74124 0.16636 0.44647 0.0
C852 C 0.80493 0.26529 0.44492 0.0
C853 C 0.76847 0.33334 0.44781 0.0
N854 N 0.76046 0.19849 0.45124 0.0
N855 N 0.74982 0.30098 0.45303 0.0
H856 H 0.64003 0.25256 0.93939 0.0
H857 H 0.86353 0.25196 0.94013 0.0
H858 H 0.70676 0.15379 0.92641 0.0
H859 H 0.79705 0.35013 0.92376 0.0
H860 H 0.80617 0.21627 0.94824 0.0
H861 H 0.69728 0.2887 0.94667 0.0
C862 C 0.66661 0.2383 0.93859 0.0
C863 C 0.66849 0.20008 0.93189 0.0
C864 C 0.80423 0.24574 0.94326 0.0
C865 C 0.73416 0.24139 0.94019 0.0
C866 C 0.83698 0.26623 0.93881 0.0
C867 C 0.83521 0.30409 0.93087 0.0
C868 C 0.76941 0.26326 0.94004 0.0
C869 C 0.79985 0.32094 0.92944 0.0
C870 C 0.6993 0.25902 0.9426 0.0
C871 C 0.70388 0.18324 0.93112 0.0
N872 N 0.76842 0.30039 0.93374 0.0
N873 N 0.73525 0.20401 0.935 0.0
H874 H 0.34884 0.70229 0.92715 0.0
H875 H 0.14897 0.79643 0.91945 0.0
H876 H 0.24658 0.63909 0.93047 0.0
H877 H 0.24993 0.85865 0.9358 0.0
H878 H 0.18359 0.73859 0.92688 0.0
H879 H 0.31305 0.75951 0.93389 0.0
C880 C 0.31887 0.70037 0.92966 0.0
C881 C 0.3007 0.66575 0.92793 0.0
C882 C 0.1981 0.76488 0.92924 0.0
C883 C 0.25938 0.73149 0.93527 0.0
C884 C 0.17835 0.79801 0.92494 0.0
C885 C 0.19659 0.8326 0.92667 0.0
C886 C 0.23659 0.76617 0.93491 0.0
C887 C 0.23466 0.83273 0.93412 0.0
C888 C 0.29843 0.73313 0.93356 0.0
C889 C 0.26181 0.66509 0.9316 0.0
N890 N 0.25347 0.80005 0.93753 0.0
N891 N 0.24241 0.69749 0.93463 0.0
H892 H 0.85938 0.25152 0.53769 0.0
H893 H 0.63656 0.25016 0.54553 0.0
H894 H 0.79397 0.15471 0.56087 0.0
H895 H 0.70419 0.34838 0.55812 0.0
H896 H 0.69319 0.21451 0.53416 0.0
H897 H 0.8016 0.28592 0.52806 0.0
C898 C 0.83298 0.23723 0.54022 0.0
C899 C 0.83158 0.20034 0.55076 0.0
C900 C 0.69545 0.24402 0.53895 0.0
C901 C 0.76546 0.23964 0.53978 0.0
C902 C 0.66316 0.26443 0.5453 0.0
C903 C 0.66569 0.30219 0.55338 0.0
C904 C 0.73041 0.26157 0.54038 0.0
C905 C 0.70097 0.31918 0.5526 0.0
C906 C 0.80002 0.25697 0.53483 0.0
C907 C 0.79644 0.1833 0.55338 0.0
N908 N 0.73195 0.2987 0.54654 0.0
N909 N 0.7648 0.20318 0.54827 0.0
H910 H 0.25352 0.86546 0.5369 0.0
H911 H 0.15113 0.70432 0.55786 0.0
H912 H 0.34388 0.80035 0.57377 0.0
H913 H 0.256 0.64548 0.55483 0.0
H914 H 0.18418 0.76263 0.54986 0.0
H915 H 0.21869 0.80806 0.5281 0.0
C916 C 0.26614 0.83913 0.54308 0.0
C917 C 0.30147 0.83797 0.55673 0.0
C918 C 0.20004 0.737 0.55005 0.0
C919 C 0.26106 0.77202 0.54765 0.0
C920 C 0.1811 0.70356 0.55496 0.0
C921 C 0.20079 0.66986 0.55729 0.0
C922 C 0.23912 0.73693 0.54768 0.0
C923 C 0.23962 0.67073 0.55325 0.0
C924 C 0.24599 0.8063 0.53834 0.0
C925 C 0.31655 0.80284 0.56365 0.0
N926 N 0.25754 0.70378 0.54918 0.0
N927 N 0.29613 0.77139 0.55933 0.0
H928 H 0.92863 0.41643 0.99075 0.0
H929 H 0.04909 0.60211 -0.00067 0.0
H930 H 0.9479 0.48867 0.91474 0.0
H931 H 0.03411 0.5259 0.07358 0.0
H932 H 0.00586 0.56512 0.96953 0.0
H933 H 0.95794 0.46226 0.02348 0.0
C934 C 0.93834 0.44241 0.9811 0.0
C935 C 0.93656 0.44864 0.95 0.0
C936 C 0.01204 0.55647 0.99233 0.0
C937 C 0.97093 0.50059 0.98706 0.0
C938 C 0.037 0.57735 0.00928 0.0
C939 C 0.04555 0.56679 0.03889 0.0
C940 C 0.99554 0.52477 0.00504 0.0
C941 C 0.02875 0.53473 0.0507 0.0
C942 C 0.95528 0.46842 -0.00027 0.0
C943 C 0.94899 0.48281 0.93861 0.0
N944 N 0.00453 0.51481 0.03369 0.0
N945 N 0.96641 0.50732 0.95712 0.0
H946 H 0.01238 0.94256 0.91822 0.0
H947 H 0.97748 0.02992 0.08071 0.0
H948 H 0.08863 0.93054 0.99277 0.0
H949 H 0.90708 0.04901 0.0034 0.0
H950 H 0.01449 0.9863 0.05087 0.0
H951 H 0.96743 0.9716 0.95207 0.0
C952 C 0.0193 0.9452 0.94184 0.0
C953 C 0.05457 0.93505 0.9526 0.0
C954 C 0.99094 1.00011 0.04048 0.0
C955 C 0.00386 0.96886 0.99115 0.0
C956 C 0.97016 0.02535 0.05737 0.0
C957 C 0.93951 0.04343 0.04437 0.0
C958 C 0.98099 0.99313 0.01044 0.0
C959 C 0.93068 0.03587 0.01425 0.0
C960 C 0.9938 0.9621 0.9611 0.0
C961 C 0.06202 0.93885 0.98343 0.0
N962 N 0.95139 0.01134 -0.00172 0.0
N963 N 0.03709 0.95607 0.00158 0.0
H964 H 0.56614 0.01161 0.92289 0.0
H965 H 0.47443 0.97582 0.08362 0.0
H966 H 0.57302 0.08892 -0.00292 0.0
H967 H 0.46027 0.90394 0.00654 0.0
H968 H 0.5185 0.01334 0.05465 0.0
H969 H 0.53815 0.96577 0.95659 0.0
C970 C 0.56266 0.01858 0.94643 0.0
C971 C 0.57094 0.05435 0.9571 0.0
C972 C 0.50571 0.98933 0.04413 0.0
C973 C 0.53831 0.00264 0.99544 0.0
C974 C 0.48022 0.96823 0.06052 0.0
C975 C 0.46329 0.93708 0.04732 0.0
C976 C 0.51412 0.9792 0.01437 0.0
C977 C 0.47242 0.92796 0.01752 0.0
C978 C 0.54634 0.99258 0.96559 0.0
C979 C 0.56611 0.06189 0.98782 0.0
N980 N 0.49714 0.94901 0.00203 0.0
N981 N 0.54946 0.03646 0.00584 0.0
H982 H 0.60126 0.4583 0.0032 0.0
H983 H 0.40982 0.56867 0.99462 0.0
H984 H 0.52444 0.46728 0.0777 0.0
H985 H 0.48828 0.56104 0.9212 0.0
H986 H 0.45544 0.53963 0.02771 0.0
H987 H 0.56292 0.50127 0.97461 0.0
C988 C 0.57608 0.46905 0.01348 0.0
C989 C 0.56577 0.45884 0.04279 0.0
C990 C 0.4629 0.54481 0.00449 0.0
C991 C 0.52197 0.50855 0.01019 0.0
C992 C 0.43695 0.56152 0.9856 0.0
C993 C 0.44505 0.56643 0.95497 0.0
C994 C 0.49696 0.53269 0.99254 0.0
C995 C 0.48077 0.55735 0.9446 0.0
C996 C 0.55439 0.4939 -0.0028 0.0
C997 C 0.53311 0.474 0.05502 0.0
N998 N 0.50524 0.54022 0.96327 0.0
N999 N 0.51224 0.49808 0.03858 0.0
H1000 H 0.93908 0.01722 0.57242 0.0
H1001 H 0.03388 0.97314 0.41452 0.0
H1002 H 0.93056 0.08824 0.49434 0.0
H1003 H 0.04703 0.90494 0.4939 0.0
H1004 H 0.98859 0.01119 0.44147 0.0
H1005 H 0.96836 0.96944 0.54121 0.0
C1006 C 0.94242 0.02231 0.54855 0.0
C1007 C 0.93335 0.05693 0.53599 0.0
C1008 C 0.00142 0.98791 0.45299 0.0
C1009 C 0.96738 0.00315 0.50053 0.0
C1010 C 0.02766 0.96652 0.43775 0.0
C1011 C 0.04463 0.93623 0.45217 0.0
C1012 C 0.99236 0.97906 0.48288 0.0
C1013 C 0.03486 0.92832 0.48205 0.0
C1014 C 0.95946 0.99524 0.53082 0.0
C1015 C 0.93806 0.06214 0.50498 0.0
N1016 N 0.00944 0.94973 0.49647 0.0
N1017 N 0.95539 0.03576 0.48836 0.0
H1018 H 0.47411 0.97457 0.58142 0.0
H1019 H 0.5157 0.07089 0.42393 0.0
H1020 H 0.40545 0.96283 0.50215 0.0
H1021 H 0.59121 0.07298 0.49955 0.0
H1022 H 0.46761 0.04473 0.45651 0.0
H1023 H 0.51142 0.02115 0.55504 0.0
C1024 C 0.46717 0.98146 0.55837 0.0
C1025 C 0.43715 0.9643 0.54371 0.0
C1026 C 0.49451 0.05156 0.46608 0.0
C1027 C 0.47905 0.01795 0.51374 0.0
C1028 C 0.52184 0.06677 0.44755 0.0
C1029 C 0.55772 0.07291 0.45893 0.0
C1030 C 0.50343 0.04246 0.49596 0.0
C1031 C 0.56413 0.06752 0.48974 0.0
C1032 C 0.48813 0.00839 0.54348 0.0
C1033 C 0.42872 0.97499 0.51414 0.0
N1034 N 0.53743 0.05186 0.50712 0.0
N1035 N 0.44973 0.00099 0.50006 0.0
H1036 H 0.56682 0.48985 0.57384 0.0
H1037 H 0.47409 0.52885 0.41441 0.0
H1038 H 0.5741 0.41524 0.49798 0.0
H1039 H 0.45628 0.59612 0.49368 0.0
H1040 H 0.52122 0.49337 0.44173 0.0
H1041 H 0.53964 0.53723 0.54095 0.0
C1042 C 0.56374 0.4839 0.55009 0.0
C1043 C 0.57163 0.44845 0.53863 0.0
C1044 C 0.50699 0.51593 0.45311 0.0
C1045 C 0.54004 0.5017 0.5013 0.0
C1046 C 0.47974 0.53582 0.43767 0.0
C1047 C 0.46076 0.56495 0.45202 0.0
C1048 C 0.51505 0.52513 0.48311 0.0
C1049 C 0.4699 0.57351 0.4819 0.0
C1050 C 0.54791 0.51074 0.5314 0.0
C1051 C 0.56737 0.44206 0.50773 0.0
N1052 N 0.49627 0.55352 0.49653 0.0
N1053 N 0.55116 0.46823 0.49018 0.0
H1054 H 0.1016 0.54878 0.4959 0.0
H1055 H 0.91883 0.42403 0.4933 0.0
H1056 H 0.02695 0.53485 0.57133 0.0
H1057 H 0.98705 0.44476 0.41514 0.0
H1058 H 0.96612 0.45326 0.52473 0.0
H1059 H 0.06581 0.50268 0.46796 0.0
C1060 C 0.07743 0.53629 0.50648 0.0
C1061 C 0.06686 0.54604 0.53583 0.0
C1062 C 0.9711 0.45088 0.50078 0.0
C1063 C 0.02635 0.4928 0.50419 0.0
C1064 C 0.94426 0.434 0.4829 0.0
C1065 C 0.94887 0.43288 0.45162 0.0
C1066 C 0.00233 0.46717 0.48712 0.0
C1067 C 0.98241 0.44549 0.4392 0.0
C1068 C 0.05729 0.5097 0.49062 0.0
C1069 C 0.03568 0.52864 0.54857 0.0
N1070 N 0.00765 0.46298 0.45698 0.0
N1071 N 0.01644 0.50287 0.53261 0.0
H1072 H 0.98096 0.45355 0.32 0.0
H1073 H 0.97496 0.56284 0.16338 0.0
H1074 H 0.88484 0.46329 0.26232 0.0
H1075 H 0.07784 0.54752 0.21178 0.0
H1076 H 0.94398 0.5205 0.19797 0.0
H1077 H 0.01945 0.4818 0.2799 0.0
C1078 C 0.96814 0.46089 0.29876 0.0
C1079 C 0.92954 0.45645 0.29463 0.0
C1080 C 0.97345 0.52581 0.20105 0.0
C1081 C 0.97308 0.4888 0.24895 0.0
C1082 C 0.99116 0.54996 0.18115 0.0
C1083 C 0.02897 0.55857 0.1847 0.0
C1084 C 0.99334 0.51054 0.22536 0.0
C1085 C 0.04866 0.54126 0.20819 0.0
C1086 C 0.99003 0.47717 0.27596 0.0
C1087 C 0.91433 0.46666 0.26674 0.0
N1088 N 0.03047 0.51844 0.22799 0.0
N1089 N 0.93596 0.48248 0.24524 0.0
H1090 H 0.98241 0.94038 0.33293 0.0
H1091 H 0.98593 0.04196 0.17258 0.0
H1092 H 0.08196 0.94418 0.27886 0.0
H1093 H 0.89085 0.03408 0.23154 0.0
H1094 H 0.02498 0.01413 0.21256 0.0
H1095 H 0.95207 0.98291 0.29812 0.0
C1096 C 0.99807 0.95082 0.31385 0.0
C1097 C 0.03469 0.93892 0.30875 0.0
C1098 C 0.99567 0.01907 0.21679 0.0
C1099 C 0.99968 0.98698 0.26787 0.0
C1100 C 0.97349 0.03511 0.19408 0.0
C1101 C 0.93504 0.03996 0.19868 0.0
C1102 C 0.97916 0.00824 0.24419 0.0
C1103 C 0.92025 0.03039 0.22684 0.0
C1104 C 0.98071 0.97502 0.29381 0.0
C1105 C 0.05373 0.95306 0.28362 0.0
N1106 N 0.94216 0.0149 0.24828 0.0
N1107 N 0.0358 0.97599 0.26377 0.0
H1108 H 0.55427 0.08508 0.28149 0.0
H1109 H 0.47028 0.88681 0.23394 0.0
H1110 H 0.56429 0.98328 0.33217 0.0
H1111 H 0.46239 0.98249 0.17568 0.0
H1112 H 0.49593 0.92598 0.27326 0.0
H1113 H 0.51263 0.05258 0.24572 0.0
C1114 C 0.54686 0.05625 0.28549 0.0
C1115 C 0.5625 0.03676 0.3098 0.0
C1116 C 0.48845 0.93878 0.25205 0.0
C1117 C 0.51565 0.99951 0.26913 0.0
C1118 C 0.47371 0.91631 0.22952 0.0
C1119 C 0.46452 0.9313 0.20136 0.0
C1120 C 0.49486 0.97678 0.24652 0.0
C1121 C 0.46914 0.96985 0.19709 0.0
C1122 C 0.52342 0.03765 0.265 0.0
C1123 C 0.55272 0.9993 0.31374 0.0
N1124 N 0.48457 0.99126 0.21931 0.0
N1125 N 0.5302 0.98199 0.29364 0.0
H1126 H 0.5278 0.56852 0.32983 0.0
H1127 H 0.5213 0.45825 0.17328 0.0
H1128 H 0.42481 0.55351 0.28148 0.0
H1129 H 0.61883 0.47462 0.22839 0.0
H1130 H 0.48294 0.48638 0.21357 0.0
H1131 H 0.55896 0.52735 0.29456 0.0
C1132 C 0.51163 0.55604 0.31186 0.0
C1133 C 0.47374 0.56444 0.30853 0.0
C1134 C 0.51268 0.48331 0.21687 0.0
C1135 C 0.5096 0.51763 0.26711 0.0
C1136 C 0.53451 0.46713 0.19396 0.0
C1137 C 0.57339 0.46451 0.19732 0.0
C1138 C 0.53 0.49654 0.24324 0.0
C1139 C 0.58909 0.47658 0.22453 0.0
C1140 C 0.52946 0.53254 0.29157 0.0
C1141 C 0.45408 0.54748 0.28486 0.0
N1142 N 0.5675 0.49212 0.24616 0.0
N1143 N 0.47238 0.52523 0.2647 0.0
H1144 H 0.05366 0.48226 0.65584 0.0
H1145 H 0.95798 0.48576 0.81824 0.0
H1146 H 0.05156 0.58177 0.70993 0.0
H1147 H 0.95829 0.39222 0.75744 0.0
H1148 H 0.98491 0.52476 0.77789 0.0
H1149 H 0.01125 0.45235 0.69107 0.0
C1150 C 0.04355 0.49804 0.67496 0.0
C1151 C 0.05588 0.53453 0.67994 0.0
C1152 C 0.97847 0.49583 0.77334 0.0
C1153 C 0.00809 0.49997 0.72133 0.0
C1154 C 0.96294 0.47367 0.79629 0.0
C1155 C 0.95628 0.4356 0.79127 0.0
C1156 C 0.98707 0.47969 0.74529 0.0
C1157 C 0.96345 0.42128 0.76248 0.0
C1158 C 0.01944 0.48092 0.69524 0.0
C1159 C 0.04227 0.55368 0.7052 0.0
N1160 N 0.9786 0.44315 0.74083 0.0
N1161 N 0.01949 0.53596 0.72529 0.0
H1162 H 0.95305 0.02335 0.6678 0.0
H1163 H 0.06331 0.02802 0.82416 0.0
H1164 H 0.96488 0.11944 0.7252 0.0
H1165 H 0.04544 0.92511 0.77646 0.0
H1166 H 0.02181 0.05969 0.78931 0.0
H1167 H 0.98111 0.98457 0.70783 0.0
C1168 C 0.96084 0.03614 0.68894 0.0
C1169 C 0.95701 0.0748 0.693 0.0
C1170 C 0.02637 0.03009 0.78643 0.0
C1171 C 0.98914 0.03089 0.73862 0.0
C1172 C 0.05005 0.01197 0.80648 0.0
C1173 C 0.05766 0.97392 0.80324 0.0
C1174 C 0.01058 0.01035 0.76226 0.0
C1175 C 0.03992 0.95447 0.77984 0.0
C1176 C 0.97701 0.01407 0.71171 0.0
C1177 C 0.96777 0.08991 0.7208 0.0
N1178 N 0.01756 0.97302 0.7599 0.0
N1179 N 0.98346 0.06811 0.74225 0.0
H1180 H 0.48119 0.95337 0.67136 0.0
H1181 H 0.48421 0.05324 0.8329 0.0
H1182 H 0.38504 0.97709 0.72633 0.0
H1183 H 0.58093 0.05107 0.77556 0.0
H1184 H 0.45139 0.01326 0.7974 0.0
H1185 H 0.52149 0.9782 0.71178 0.0
C1186 C 0.46864 0.96321 0.69204 0.0
C1187 C 0.42967 0.9635 0.69536 0.0
C1188 C 0.47998 0.02089 0.79261 0.0
C1189 C 0.47533 0.99156 0.74151 0.0
C1190 C 0.49882 0.04346 0.81307 0.0
C1191 C 0.53536 0.05508 0.80724 0.0
C1192 C 0.49744 0.01031 0.76561 0.0
C1193 C 0.55288 0.04219 0.78098 0.0
C1194 C 0.49158 0.97751 0.715 0.0
C1195 C 0.41486 0.97674 0.72255 0.0
N1196 N 0.53358 0.0208 0.76086 0.0
N1197 N 0.43758 0.99022 0.74437 0.0
H1198 H 0.45666 0.58449 0.77826 0.0
H1199 H 0.55818 0.394 0.73202 0.0
H1200 H 0.45063 0.48096 0.82705 0.0
H1201 H 0.54527 0.48465 0.66931 0.0
H1202 H 0.53211 0.43277 0.77164 0.0
H1203 H 0.50076 0.55516 0.74266 0.0
C1204 C 0.46544 0.55597 0.78191 0.0
C1205 C 0.45023 0.53504 0.8056 0.0
C1206 C 0.53531 0.44456 0.74937 0.0
C1207 C 0.50011 0.5015 0.76525 0.0
C1208 C 0.55041 0.42245 0.72674 0.0
C1209 C 0.55364 0.43604 0.6973 0.0
C1210 C 0.52263 0.48061 0.74263 0.0
C1211 C 0.54332 0.47318 0.69177 0.0
C1212 C 0.49028 0.53919 0.76151 0.0
C1213 C 0.46182 0.49803 0.8091 0.0
N1214 N 0.52764 0.49409 0.71416 0.0
N1215 N 0.48588 0.48251 0.78917 0.0
loop_
_geom_bond_atom_site_label_1
_geom_bond_atom_site_label_2
_geom_bond_distance
_geom_bond_site_symmetry_2
_ccdc_geom_bond_type
Sc0 O3 2.025 . S
Sc0 O10 2.105 . S
Sc0 O13 2.105 . S
Sc0 O16 2.105 1_455 S
Sc0 O19 2.105 . S
Sc1 O3 2.025 . S
Sc1 O11 2.105 . S
Sc1 O15 2.105 . S
Sc1 O17 2.105 . S
Sc1 O21 2.105 . S
Sc2 O3 2.025 1_655 S
Sc2 O12 2.105 1_655 S
Sc2 O14 2.105 . S
Sc2 O18 2.105 . S
Sc2 O20 2.105 . S
O3 Sc0 2.025 . S
O3 Sc1 2.025 . S
O3 Sc2 2.025 1_455 S
C4 O10 1.268 . S
C4 O20 1.268 1_455 S
C5 O11 1.268 . S
C5 O19 1.268 . S
C6 O12 1.268 . S
C6 O21 1.268 . S
C7 O13 1.268 . S
C7 O17 1.268 . S
C8 O14 1.268 . S
C8 O16 1.268 . S
C9 O15 1.268 . S
C9 O18 1.268 1_455 S
O10 Sc0 2.105 . S
O10 C4 1.268 . S
O11 Sc1 2.105 . S
O11 C5 1.268 . S
O12 Sc2 2.105 1_455 S
O12 C6 1.268 . S
O13 Sc0 2.105 . S
O13 C7 1.268 . S
O14 Sc2 2.105 . S
O14 C8 1.268 . S
O15 Sc1 2.105 . S
O15 C9 1.268 . S
O16 Sc0 2.105 1_655 S
O16 C8 1.268 . S
O17 Sc1 2.105 . S
O17 C7 1.268 . S
O18 Sc2 2.105 . S
O18 C9 1.268 1_655 S
O19 Sc0 2.105 . S
O19 C5 1.268 . S
O20 Sc2 2.105 . S
O20 C4 1.268 1_655 S
O21 Sc1 2.105 . S
O21 C6 1.268 . S
Sc22 O25 2.025 . S
Sc22 O32 2.105 . S
Sc22 O35 2.105 . S
Sc22 O38 2.105 1_545 S
Sc22 O41 2.105 . S
Sc23 O25 2.025 . S
Sc23 O33 2.105 . S
Sc23 O37 2.105 . S
Sc23 O39 2.105 . S
Sc23 O43 2.105 . S
Sc24 O25 2.025 1_565 S
Sc24 O34 2.105 1_565 S
Sc24 O36 2.105 . S
Sc24 O40 2.105 . S
Sc24 O42 2.105 . S
O25 Sc22 2.025 . S
O25 Sc23 2.025 . S
O25 Sc24 2.025 1_545 S
C26 O32 1.268 . S
C26 O42 1.268 1_545 S
C27 O33 1.268 . S
C27 O41 1.268 . S
C28 O34 1.268 . S
C28 O43 1.268 . S
C29 O35 1.268 . S
C29 O39 1.268 . S
C30 O36 1.268 . S
C30 O38 1.268 . S
C31 O37 1.268 . S
C31 O40 1.268 1_545 S
O32 Sc22 2.105 . S
O32 C26 1.268 . S
O33 Sc23 2.105 . S
O33 C27 1.268 . S
O34 Sc24 2.105 1_545 S
O34 C28 1.268 . S
O35 Sc22 2.105 . S
O35 C29 1.268 . S
O36 Sc24 2.105 . S
O36 C30 1.268 . S
O37 Sc23 2.105 . S
O37 C31 1.268 . S
O38 Sc22 2.105 1_565 S
O38 C30 1.268 . S
O39 Sc23 2.105 . S
O39 C29 1.268 . S
O40 Sc24 2.105 . S
O40 C31 1.268 1_565 S
O41 Sc22 2.105 . S
O41 C27 1.268 . S
O42 Sc24 2.105 . S
O42 C26 1.268 1_565 S
O43 Sc23 2.105 . S
O43 C28 1.268 . S
Sc44 O47 2.025 . S
Sc44 O54 2.105 . S
Sc44 O57 2.105 . S
Sc44 O60 2.105 . S
Sc44 O63 2.105 . S
Sc45 O47 2.025 . S
Sc45 O55 2.105 . S
Sc45 O59 2.105 . S
Sc45 O61 2.105 . S
Sc45 O65 2.105 . S
Sc46 O47 2.025 . S
Sc46 O56 2.105 . S
Sc46 O58 2.105 . S
Sc46 O62 2.105 . S
Sc46 O64 2.105 . S
O47 Sc44 2.025 . S
O47 Sc45 2.025 . S
O47 Sc46 2.025 . S
C48 O54 1.268 . S
C48 O64 1.268 . S
C49 O55 1.268 . S
C49 O63 1.268 . S
C50 O56 1.268 . S
C50 O65 1.268 . S
C51 O57 1.268 . S
C51 O61 1.268 . S
C52 O58 1.268 . S
C52 O60 1.268 . S
C53 O59 1.268 . S
C53 O62 1.268 . S
O54 Sc44 2.105 . S
O54 C48 1.268 . S
O55 Sc45 2.105 . S
O55 C49 1.268 . S
O56 Sc46 2.105 . S
O56 C50 1.268 . S
O57 Sc44 2.105 . S
O57 C51 1.268 . S
O58 Sc46 2.105 . S
O58 C52 1.268 . S
O59 Sc45 2.105 . S
O59 C53 1.268 . S
O60 Sc44 2.105 . S
O60 C52 1.268 . S
O61 Sc45 2.105 . S
O61 C51 1.268 . S
O62 Sc46 2.105 . S
O62 C53 1.268 . S
O63 Sc44 2.105 . S
O63 C49 1.268 . S
O64 Sc46 2.105 . S
O64 C48 1.268 . S
O65 Sc45 2.105 . S
O65 C50 1.268 . S
Sc66 O69 2.025 . S
Sc66 O76 2.105 . S
Sc66 O79 2.105 . S
Sc66 O82 2.105 . S
Sc66 O85 2.105 . S
Sc67 O69 2.025 . S
Sc67 O77 2.105 . S
Sc67 O81 2.105 . S
Sc67 O83 2.105 . S
Sc67 O87 2.105 . S
Sc68 O69 2.025 . S
Sc68 O78 2.105 . S
Sc68 O80 2.105 . S
Sc68 O84 2.105 . S
Sc68 O86 2.105 . S
O69 Sc66 2.025 . S
O69 Sc67 2.025 . S
O69 Sc68 2.025 . S
C70 O76 1.268 . S
C70 O86 1.268 . S
C71 O77 1.268 . S
C71 O85 1.268 . S
C72 O78 1.268 . S
C72 O87 1.268 . S
C73 O79 1.268 . S
C73 O83 1.268 . S
C74 O80 1.268 . S
C74 O82 1.268 . S
C75 O81 1.268 . S
C75 O84 1.268 . S
O76 Sc66 2.105 . S
O76 C70 1.268 . S
O77 Sc67 2.105 . S
O77 C71 1.268 . S
O78 Sc68 2.105 . S
O78 C72 1.268 . S
O79 Sc66 2.105 . S
O79 C73 1.268 . S
O80 Sc68 2.105 . S
O80 C74 1.268 . S
O81 Sc67 2.105 . S
O81 C75 1.268 . S
O82 Sc66 2.105 . S
O82 C74 1.268 . S
O83 Sc67 2.105 . S
O83 C73 1.268 . S
O84 Sc68 2.105 . S
O84 C75 1.268 . S
O85 Sc66 2.105 . S
O85 C71 1.268 . S
O86 Sc68 2.105 . S
O86 C70 1.268 . S
O87 Sc67 2.105 . S
O87 C72 1.268 . S
Sc88 O91 2.025 1_655 S
Sc88 O98 2.105 . S
Sc88 O101 2.105 1_655 S
Sc88 O104 2.105 . S
Sc88 O107 2.105 . S
Sc89 O91 2.025 . S
Sc89 O99 2.105 . S
Sc89 O103 2.105 . S
Sc89 O105 2.105 . S
Sc89 O109 2.105 . S
Sc90 O91 2.025 . S
Sc90 O100 2.105 . S
Sc90 O102 2.105 . S
Sc90 O106 2.105 . S
Sc90 O108 2.105 1_455 S
O91 Sc88 2.025 1_455 S
O91 Sc89 2.025 . S
O91 Sc90 2.025 . S
C92 O98 1.268 . S
C92 O108 1.268 . S
C93 O99 1.268 . S
C93 O107 1.268 1_455 S
C94 O100 1.268 . S
C94 O109 1.268 . S
C95 O101 1.268 . S
C95 O105 1.268 . S
C96 O102 1.268 . S
C96 O104 1.268 1_455 S
C97 O103 1.268 . S
C97 O106 1.268 . S
O98 Sc88 2.105 . S
O98 C92 1.268 . S
O99 Sc89 2.105 . S
O99 C93 1.268 . S
O100 Sc90 2.105 . S
O100 C94 1.268 . S
O101 Sc88 2.105 1_455 S
O101 C95 1.268 . S
O102 Sc90 2.105 . S
O102 C96 1.268 . S
O103 Sc89 2.105 . S
O103 C97 1.268 . S
O104 Sc88 2.105 . S
O104 C96 1.268 1_655 S
O105 Sc89 2.105 . S
O105 C95 1.268 . S
O106 Sc90 2.105 . S
O106 C97 1.268 . S
O107 Sc88 2.105 . S
O107 C93 1.268 1_655 S
O108 Sc90 2.105 1_655 S
O108 C92 1.268 . S
O109 Sc89 2.105 . S
O109 C94 1.268 . S
Sc110 O113 2.025 . S
Sc110 O120 2.105 . S
Sc110 O123 2.105 . S
Sc110 O126 2.105 1_545 S
Sc110 O129 2.105 . S
Sc111 O113 2.025 . S
Sc111 O121 2.105 . S
Sc111 O125 2.105 . S
Sc111 O127 2.105 . S
Sc111 O131 2.105 . S
Sc112 O113 2.025 1_565 S
Sc112 O122 2.105 1_565 S
Sc112 O124 2.105 . S
Sc112 O128 2.105 . S
Sc112 O130 2.105 . S
O113 Sc110 2.025 . S
O113 Sc111 2.025 . S
O113 Sc112 2.025 1_545 S
C114 O120 1.268 . S
C114 O130 1.268 1_545 S
C115 O121 1.268 . S
C115 O129 1.268 . S
C116 O122 1.268 . S
C116 O131 1.268 . S
C117 O123 1.268 . S
C117 O127 1.268 . S
C118 O124 1.268 . S
C118 O126 1.268 . S
C119 O125 1.268 . S
C119 O128 1.268 1_545 S
O120 Sc110 2.105 . S
O120 C114 1.268 . S
O121 Sc111 2.105 . S
O121 C115 1.268 . S
O122 Sc112 2.105 1_545 S
O122 C116 1.268 . S
O123 Sc110 2.105 . S
O123 C117 1.268 . S
O124 Sc112 2.105 . S
O124 C118 1.268 . S
O125 Sc111 2.105 . S
O125 C119 1.268 . S
O126 Sc110 2.105 1_565 S
O126 C118 1.268 . S
O127 Sc111 2.105 . S
O127 C117 1.268 . S
O128 Sc112 2.105 . S
O128 C119 1.268 1_565 S
O129 Sc110 2.105 . S
O129 C115 1.268 . S
O130 Sc112 2.105 . S
O130 C114 1.268 1_565 S
O131 Sc111 2.105 . S
O131 C116 1.268 . S
Sc132 O135 2.025 . S
Sc132 O142 2.105 . S
Sc132 O145 2.105 . S
Sc132 O148 2.105 . S
Sc132 O151 2.105 . S
Sc133 O135 2.025 . S
Sc133 O143 2.105 . S
Sc133 O147 2.105 . S
Sc133 O149 2.105 . S
Sc133 O153 2.105 . S
Sc134 O135 2.025 . S
Sc134 O144 2.105 . S
Sc134 O146 2.105 . S
Sc134 O150 2.105 . S
Sc134 O152 2.105 . S
O135 Sc132 2.025 . S
O135 Sc133 2.025 . S
O135 Sc134 2.025 . S
C136 O142 1.268 . S
C136 O152 1.268 . S
C137 O143 1.268 . S
C137 O151 1.268 . S
C138 O144 1.268 . S
C138 O153 1.268 . S
C139 O145 1.268 . S
C139 O149 1.268 . S
C140 O146 1.268 . S
C140 O148 1.268 . S
C141 O147 1.268 . S
C141 O150 1.268 . S
O142 Sc132 2.105 . S
O142 C136 1.268 . S
O143 Sc133 2.105 . S
O143 C137 1.268 . S
O144 Sc134 2.105 . S
O144 C138 1.268 . S
O145 Sc132 2.105 . S
O145 C139 1.268 . S
O146 Sc134 2.105 . S
O146 C140 1.268 . S
O147 Sc133 2.105 . S
O147 C141 1.268 . S
O148 Sc132 2.105 . S
O148 C140 1.268 . S
O149 Sc133 2.105 . S
O149 C139 1.268 . S
O150 Sc134 2.105 . S
O150 C141 1.268 . S
O151 Sc132 2.105 . S
O151 C137 1.268 . S
O152 Sc134 2.105 . S
O152 C136 1.268 . S
O153 Sc133 2.105 . S
O153 C138 1.268 . S
Sc154 O157 2.025 . S
Sc154 O164 2.105 . S
Sc154 O167 2.105 . S
Sc154 O170 2.105 . S
Sc154 O173 2.105 . S
Sc155 O157 2.025 . S
Sc155 O165 2.105 . S
Sc155 O169 2.105 . S
Sc155 O171 2.105 . S
Sc155 O175 2.105 . S
Sc156 O157 2.025 . S
Sc156 O166 2.105 . S
Sc156 O168 2.105 . S
Sc156 O172 2.105 . S
Sc156 O174 2.105 . S
O157 Sc154 2.025 . S
O157 Sc155 2.025 . S
O157 Sc156 2.025 . S
C158 O164 1.268 . S
C158 O174 1.268 . S
C159 O165 1.268 . S
C159 O173 1.268 . S
C160 O166 1.268 . S
C160 O175 1.268 . S
C161 O167 1.268 . S
C161 O171 1.268 . S
C162 O168 1.268 . S
C162 O170 1.268 . S
C163 O169 1.268 . S
C163 O172 1.268 . S
O164 Sc154 2.105 . S
O164 C158 1.268 . S
O165 Sc155 2.105 . S
O165 C159 1.268 . S
O166 Sc156 2.105 . S
O166 C160 1.268 . S
O167 Sc154 2.105 . S
O167 C161 1.268 . S
O168 Sc156 2.105 . S
O168 C162 1.268 . S
O169 Sc155 2.105 . S
O169 C163 1.268 . S
O170 Sc154 2.105 . S
O170 C162 1.268 . S
O171 Sc155 2.105 . S
O171 C161 1.268 . S
O172 Sc156 2.105 . S
O172 C163 1.268 . S
O173 Sc154 2.105 . S
O173 C159 1.268 . S
O174 Sc156 2.105 . S
O174 C158 1.268 . S
O175 Sc155 2.105 . S
O175 C160 1.268 . S
Sc176 O179 2.025 1_455 S
Sc176 O186 2.105 . S
Sc176 O189 2.105 . S
Sc176 O192 2.105 . S
Sc176 O195 2.105 1_455 S
Sc177 O179 2.025 . S
Sc177 O187 2.105 . S
Sc177 O191 2.105 . S
Sc177 O193 2.105 . S
Sc177 O197 2.105 . S
Sc178 O179 2.025 . S
Sc178 O188 2.105 . S
Sc178 O190 2.105 1_655 S
Sc178 O194 2.105 . S
Sc178 O196 2.105 . S
O179 Sc176 2.025 1_655 S
O179 Sc177 2.025 . S
O179 Sc178 2.025 . S
C180 O186 1.268 1_655 S
C180 O196 1.268 . S
C181 O187 1.268 . S
C181 O195 1.268 . S
C182 O188 1.268 . S
C182 O197 1.268 . S
C183 O189 1.268 1_655 S
C183 O193 1.268 . S
C184 O190 1.268 . S
C184 O192 1.268 . S
C185 O191 1.268 . S
C185 O194 1.268 . S
O186 Sc176 2.105 . S
O186 C180 1.268 1_455 S
O187 Sc177 2.105 . S
O187 C181 1.268 . S
O188 Sc178 2.105 . S
O188 C182 1.268 . S
O189 Sc176 2.105 . S
O189 C183 1.268 1_455 S
O190 Sc178 2.105 1_455 S
O190 C184 1.268 . S
O191 Sc177 2.105 . S
O191 C185 1.268 . S
O192 Sc176 2.105 . S
O192 C184 1.268 . S
O193 Sc177 2.105 . S
O193 C183 1.268 . S
O194 Sc178 2.105 . S
O194 C185 1.268 . S
O195 Sc176 2.105 1_655 S
O195 C181 1.268 . S
O196 Sc178 2.105 . S
O196 C180 1.268 . S
O197 Sc177 2.105 . S
O197 C182 1.268 . S
Sc198 O201 2.025 . S
Sc198 O208 2.105 1_565 S
Sc198 O211 2.105 . S
Sc198 O214 2.105 . S
Sc198 O217 2.105 . S
Sc199 O201 2.025 . S
Sc199 O209 2.105 . S
Sc199 O213 2.105 . S
Sc199 O215 2.105 . S
Sc199 O219 2.105 . S
Sc200 O201 2.025 1_545 S
Sc200 O210 2.105 . S
Sc200 O212 2.105 . S
Sc200 O216 2.105 1_545 S
Sc200 O218 2.105 . S
O201 Sc198 2.025 . S
O201 Sc199 2.025 . S
O201 Sc200 2.025 1_565 S
C202 O208 1.268 . S
C202 O218 1.268 . S
C203 O209 1.268 . S
C203 O217 1.268 . S
C204 O210 1.268 1_565 S
C204 O219 1.268 . S
C205 O211 1.268 . S
C205 O215 1.268 . S
C206 O212 1.268 1_565 S
C206 O214 1.268 . S
C207 O213 1.268 . S
C207 O216 1.268 . S
O208 Sc198 2.105 1_545 S
O208 C202 1.268 . S
O209 Sc199 2.105 . S
O209 C203 1.268 . S
O210 Sc200 2.105 . S
O210 C204 1.268 1_545 S
O211 Sc198 2.105 . S
O211 C205 1.268 . S
O212 Sc200 2.105 . S
O212 C206 1.268 1_545 S
O213 Sc199 2.105 . S
O213 C207 1.268 . S
O214 Sc198 2.105 . S
O214 C206 1.268 . S
O215 Sc199 2.105 . S
O215 C205 1.268 . S
O216 Sc200 2.105 1_565 S
O216 C207 1.268 . S
O217 Sc198 2.105 . S
O217 C203 1.268 . S
O218 Sc200 2.105 . S
O218 C202 1.268 . S
O219 Sc199 2.105 . S
O219 C204 1.268 . S
Sc220 O223 2.025 . S
Sc220 O230 2.105 . S
Sc220 O233 2.105 . S
Sc220 O236 2.105 . S
Sc220 O239 2.105 . S
Sc221 O223 2.025 . S
Sc221 O231 2.105 . S
Sc221 O235 2.105 . S
Sc221 O237 2.105 . S
Sc221 O241 2.105 . S
Sc222 O223 2.025 . S
Sc222 O232 2.105 . S
Sc222 O234 2.105 . S
Sc222 O238 2.105 . S
Sc222 O240 2.105 . S
O223 Sc220 2.025 . S
O223 Sc221 2.025 . S
O223 Sc222 2.025 . S
C224 O230 1.268 . S
C224 O240 1.268 . S
C225 O231 1.268 . S
C225 O239 1.268 . S
C226 O232 1.268 . S
C226 O241 1.268 . S
C227 O233 1.268 . S
C227 O237 1.268 . S
C228 O234 1.268 . S
C228 O236 1.268 . S
C229 O235 1.268 . S
C229 O238 1.268 . S
O230 Sc220 2.105 . S
O230 C224 1.268 . S
O231 Sc221 2.105 . S
O231 C225 1.268 . S
O232 Sc222 2.105 . S
O232 C226 1.268 . S
O233 Sc220 2.105 . S
O233 C227 1.268 . S
O234 Sc222 2.105 . S
O234 C228 1.268 . S
O235 Sc221 2.105 . S
O235 C229 1.268 . S
O236 Sc220 2.105 . S
O236 C228 1.268 . S
O237 Sc221 2.105 . S
O237 C227 1.268 . S
O238 Sc222 2.105 . S
O238 C229 1.268 . S
O239 Sc220 2.105 . S
O239 C225 1.268 . S
O240 Sc222 2.105 . S
O240 C224 1.268 . S
O241 Sc221 2.105 . S
O241 C226 1.268 . S
Sc242 O245 2.025 . S
Sc242 O252 2.105 . S
Sc242 O255 2.105 . S
Sc242 O258 2.105 . S
Sc242 O261 2.105 . S
Sc243 O245 2.025 . S
Sc243 O253 2.105 . S
Sc243 O257 2.105 . S
Sc243 O259 2.105 . S
Sc243 O263 2.105 . S
Sc244 O245 2.025 . S
Sc244 O254 2.105 . S
Sc244 O256 2.105 . S
Sc244 O260 2.105 . S
Sc244 O262 2.105 . S
O245 Sc242 2.025 . S
O245 Sc243 2.025 . S
O245 Sc244 2.025 . S
C246 O252 1.268 . S
C246 O262 1.268 . S
C247 O253 1.268 . S
C247 O261 1.268 . S
C248 O254 1.268 . S
C248 O263 1.268 . S
C249 O255 1.268 . S
C249 O259 1.268 . S
C250 O256 1.268 . S
C250 O258 1.268 . S
C251 O257 1.268 . S
C251 O260 1.268 . S
O252 Sc242 2.105 . S
O252 C246 1.268 . S
O253 Sc243 2.105 . S
O253 C247 1.268 . S
O254 Sc244 2.105 . S
O254 C248 1.268 . S
O255 Sc242 2.105 . S
O255 C249 1.268 . S
O256 Sc244 2.105 . S
O256 C250 1.268 . S
O257 Sc243 2.105 . S
O257 C251 1.268 . S
O258 Sc242 2.105 . S
O258 C250 1.268 . S
O259 Sc243 2.105 . S
O259 C249 1.268 . S
O260 Sc244 2.105 . S
O260 C251 1.268 . S
O261 Sc242 2.105 . S
O261 C247 1.268 . S
O262 Sc244 2.105 . S
O262 C246 1.268 . S
O263 Sc243 2.105 . S
O263 C248 1.268 . S
Sc264 O267 2.025 . S
Sc264 O274 2.105 1_655 S
Sc264 O277 2.105 . S
Sc264 O280 2.105 . S
Sc264 O283 2.105 . S
Sc265 O267 2.025 . S
Sc265 O275 2.105 . S
Sc265 O279 2.105 . S
Sc265 O281 2.105 . S
Sc265 O285 2.105 . S
Sc266 O267 2.025 1_455 S
Sc266 O276 2.105 . S
Sc266 O278 2.105 . S
Sc266 O282 2.105 1_455 S
Sc266 O284 2.105 . S
O267 Sc264 2.025 . S
O267 Sc265 2.025 . S
O267 Sc266 2.025 1_655 S
C268 O274 1.268 . S
C268 O284 1.268 . S
C269 O275 1.268 . S
C269 O283 1.268 . S
C270 O276 1.268 1_655 S
C270 O285 1.268 . S
C271 O277 1.268 . S
C271 O281 1.268 . S
C272 O278 1.268 1_655 S
C272 O280 1.268 . S
C273 O279 1.268 . S
C273 O282 1.268 . S
O274 Sc264 2.105 1_455 S
O274 C268 1.268 . S
O275 Sc265 2.105 . S
O275 C269 1.268 . S
O276 Sc266 2.105 . S
O276 C270 1.268 1_455 S
O277 Sc264 2.105 . S
O277 C271 1.268 . S
O278 Sc266 2.105 . S
O278 C272 1.268 1_455 S
O279 Sc265 2.105 . S
O279 C273 1.268 . S
O280 Sc264 2.105 . S
O280 C272 1.268 . S
O281 Sc265 2.105 . S
O281 C271 1.268 . S
O282 Sc266 2.105 1_655 S
O282 C273 1.268 . S
O283 Sc264 2.105 . S
O283 C269 1.268 . S
O284 Sc266 2.105 . S
O284 C268 1.268 . S
O285 Sc265 2.105 . S
O285 C270 1.268 . S
Sc286 O289 2.025 . S
Sc286 O296 2.105 1_565 S
Sc286 O299 2.105 . S
Sc286 O302 2.105 . S
Sc286 O305 2.105 . S
Sc287 O289 2.025 . S
Sc287 O297 2.105 . S
Sc287 O301 2.105 . S
Sc287 O303 2.105 . S
Sc287 O307 2.105 . S
Sc288 O289 2.025 1_545 S
Sc288 O298 2.105 . S
Sc288 O300 2.105 . S
Sc288 O304 2.105 1_545 S
Sc288 O306 2.105 . S
O289 Sc286 2.025 . S
O289 Sc287 2.025 . S
O289 Sc288 2.025 1_565 S
C290 O296 1.268 . S
C290 O306 1.268 . S
C291 O297 1.268 . S
C291 O305 1.268 . S
C292 O298 1.268 1_565 S
C292 O307 1.268 . S
C293 O299 1.268 . S
C293 O303 1.268 . S
C294 O300 1.268 1_565 S
C294 O302 1.268 . S
C295 O301 1.268 . S
C295 O304 1.268 . S
O296 Sc286 2.105 1_545 S
O296 C290 1.268 . S
O297 Sc287 2.105 . S
O297 C291 1.268 . S
O298 Sc288 2.105 . S
O298 C292 1.268 1_545 S
O299 Sc286 2.105 . S
O299 C293 1.268 . S
O300 Sc288 2.105 . S
O300 C294 1.268 1_545 S
O301 Sc287 2.105 . S
O301 C295 1.268 . S
O302 Sc286 2.105 . S
O302 C294 1.268 . S
O303 Sc287 2.105 . S
O303 C293 1.268 . S
O304 Sc288 2.105 1_565 S
O304 C295 1.268 . S
O305 Sc286 2.105 . S
O305 C291 1.268 . S
O306 Sc288 2.105 . S
O306 C290 1.268 . S
O307 Sc287 2.105 . S
O307 C292 1.268 . S
Sc308 O311 2.025 . S
Sc308 O318 2.105 . S
Sc308 O321 2.105 . S
Sc308 O324 2.105 . S
Sc308 O327 2.105 . S
Sc309 O311 2.025 . S
Sc309 O319 2.105 . S
Sc309 O323 2.105 . S
Sc309 O325 2.105 . S
Sc309 O329 2.105 . S
Sc310 O311 2.025 . S
Sc310 O320 2.105 . S
Sc310 O322 2.105 . S
Sc310 O326 2.105 . S
Sc310 O328 2.105 . S
O311 Sc308 2.025 . S
O311 Sc309 2.025 . S
O311 Sc310 2.025 . S
C312 O318 1.268 . S
C312 O328 1.268 . S
C313 O319 1.268 . S
C313 O327 1.268 . S
C314 O320 1.268 . S
C314 O329 1.268 . S
C315 O321 1.268 . S
C315 O325 1.268 . S
C316 O322 1.268 . S
C316 O324 1.268 . S
C317 O323 1.268 . S
C317 O326 1.268 . S
O318 Sc308 2.105 . S
O318 C312 1.268 . S
O319 Sc309 2.105 . S
O319 C313 1.268 . S
O320 Sc310 2.105 . S
O320 C314 1.268 . S
O321 Sc308 2.105 . S
O321 C315 1.268 . S
O322 Sc310 2.105 . S
O322 C316 1.268 . S
O323 Sc309 2.105 . S
O323 C317 1.268 . S
O324 Sc308 2.105 . S
O324 C316 1.268 . S
O325 Sc309 2.105 . S
O325 C315 1.268 . S
O326 Sc310 2.105 . S
O326 C317 1.268 . S
O327 Sc308 2.105 . S
O327 C313 1.268 . S
O328 Sc310 2.105 . S
O328 C312 1.268 . S
O329 Sc309 2.105 . S
O329 C314 1.268 . S
Sc330 O333 2.025 . S
Sc330 O340 2.105 . S
Sc330 O343 2.105 . S
Sc330 O346 2.105 . S
Sc330 O349 2.105 . S
Sc331 O333 2.025 . S
Sc331 O341 2.105 . S
Sc331 O345 2.105 . S
Sc331 O347 2.105 . S
Sc331 O351 2.105 . S
Sc332 O333 2.025 . S
Sc332 O342 2.105 . S
Sc332 O344 2.105 . S
Sc332 O348 2.105 . S
Sc332 O350 2.105 . S
O333 Sc330 2.025 . S
O333 Sc331 2.025 . S
O333 Sc332 2.025 . S
C334 O340 1.268 . S
C334 O350 1.268 . S
C335 O341 1.268 . S
C335 O349 1.268 . S
C336 O342 1.268 . S
C336 O351 1.268 . S
C337 O343 1.268 . S
C337 O347 1.268 . S
C338 O344 1.268 . S
C338 O346 1.268 . S
C339 O345 1.268 . S
C339 O348 1.268 . S
O340 Sc330 2.105 . S
O340 C334 1.268 . S
O341 Sc331 2.105 . S
O341 C335 1.268 . S
O342 Sc332 2.105 . S
O342 C336 1.268 . S
O343 Sc330 2.105 . S
O343 C337 1.268 . S
O344 Sc332 2.105 . S
O344 C338 1.268 . S
O345 Sc331 2.105 . S
O345 C339 1.268 . S
O346 Sc330 2.105 . S
O346 C338 1.268 . S
O347 Sc331 2.105 . S
O347 C337 1.268 . S
O348 Sc332 2.105 . S
O348 C339 1.268 . S
O349 Sc330 2.105 . S
O349 C335 1.268 . S
O350 Sc332 2.105 . S
O350 C334 1.268 . S
O351 Sc331 2.105 . S
O351 C336 1.268 . S
H352 C358 0.930 . S
H353 C362 0.930 . S
H354 C367 0.929 . S
H355 C365 0.929 . S
H356 C360 0.929 . S
H357 C366 0.929 . S
C358 H352 0.930 . S
C358 C359 1.367 . S
C358 C366 1.378 . S
C359 C358 1.367 . S
C359 C367 1.433 . S
C360 H356 0.929 . S
C360 C362 1.378 . S
C360 C364 1.350 . S
C361 C364 1.463 . S
C361 C366 1.350 . S
C361 N369 1.427 . S
C362 H353 0.930 . S
C362 C360 1.378 . S
C362 C363 1.367 . S
C363 C362 1.367 . S
C363 C365 1.433 . S
C364 C360 1.350 . S
C364 C361 1.463 . S
C364 N368 1.427 . S
C365 H355 0.929 . S
C365 C363 1.433 . S
C365 N368 1.384 . S
C366 H357 0.929 . S
C366 C358 1.378 . S
C366 C361 1.350 . S
C367 H354 0.929 . S
C367 C359 1.433 . S
C367 N369 1.384 . S
N368 C364 1.427 . S
N368 C365 1.384 . S
N369 C361 1.427 . S
N369 C367 1.384 . S
H370 C376 0.930 1_455 S
H371 C380 0.930 . S
H372 C385 0.929 . S
H373 C383 0.929 . S
H374 C378 0.929 . S
H375 C384 0.929 . S
C376 H370 0.930 1_655 S
C376 C377 1.367 . S
C376 C384 1.378 . S
C377 C376 1.367 . S
C377 C385 1.433 . S
C378 H374 0.929 . S
C378 C380 1.378 . S
C378 C382 1.350 . S
C379 C382 1.463 . S
C379 C384 1.350 . S
C379 N387 1.427 . S
C380 H371 0.930 . S
C380 C378 1.378 . S
C380 C381 1.367 . S
C381 C380 1.367 . S
C381 C383 1.433 . S
C382 C378 1.350 . S
C382 C379 1.463 . S
C382 N386 1.427 . S
C383 H373 0.929 . S
C383 C381 1.433 . S
C383 N386 1.384 . S
C384 H375 0.929 . S
C384 C376 1.378 . S
C384 C379 1.350 . S
C385 H372 0.929 . S
C385 C377 1.433 . S
C385 N387 1.384 . S
N386 C382 1.427 . S
N386 C383 1.384 . S
N387 C379 1.427 . S
N387 C385 1.384 . S
H388 C394 0.930 . S
H389 C398 0.930 . S
H390 C403 0.929 . S
H391 C401 0.929 . S
H392 C396 0.929 . S
H393 C402 0.929 . S
C394 H388 0.930 . S
C394 C395 1.367 . S
C394 C402 1.378 . S
C395 C394 1.367 . S
C395 C403 1.433 . S
C396 H392 0.929 . S
C396 C398 1.378 . S
C396 C400 1.350 . S
C397 C400 1.463 . S
C397 C402 1.350 . S
C397 N405 1.427 . S
C398 H389 0.930 . S
C398 C396 1.378 . S
C398 C399 1.367 . S
C399 C398 1.367 . S
C399 C401 1.433 1_565 S
C400 C396 1.350 . S
C400 C397 1.463 . S
C400 N404 1.427 . S
C401 H391 0.929 . S
C401 C399 1.433 1_545 S
C401 N404 1.384 1_545 S
C402 H393 0.929 . S
C402 C394 1.378 . S
C402 C397 1.350 . S
C403 H390 0.929 . S
C403 C395 1.433 . S
C403 N405 1.384 . S
N404 C400 1.427 . S
N404 C401 1.384 1_565 S
N405 C397 1.427 . S
N405 C403 1.384 . S
H406 C412 0.930 . S
H407 C416 0.930 . S
H408 C421 0.929 . S
H409 C419 0.929 . S
H410 C414 0.929 . S
H411 C420 0.929 . S
C412 H406 0.930 . S
C412 C413 1.367 . S
C412 C420 1.378 . S
C413 C412 1.367 . S
C413 C421 1.433 . S
C414 H410 0.929 . S
C414 C416 1.378 . S
C414 C418 1.350 . S
C415 C418 1.463 . S
C415 C420 1.350 . S
C415 N423 1.427 . S
C416 H407 0.930 . S
C416 C414 1.378 . S
C416 C417 1.367 . S
C417 C416 1.367 . S
C417 C419 1.433 . S
C418 C414 1.350 . S
C418 C415 1.463 . S
C418 N422 1.427 . S
C419 H409 0.929 . S
C419 C417 1.433 . S
C419 N422 1.384 . S
C420 H411 0.929 . S
C420 C412 1.378 . S
C420 C415 1.350 . S
C421 H408 0.929 . S
C421 C413 1.433 . S
C421 N423 1.384 . S
N422 C418 1.427 . S
N422 C419 1.384 . S
N423 C415 1.427 . S
N423 C421 1.384 . S
H424 C430 0.930 . S
H425 C434 0.930 . S
H426 C439 0.929 . S
H427 C437 0.929 . S
H428 C432 0.929 . S
H429 C438 0.929 . S
C430 H424 0.930 . S
C430 C431 1.367 . S
C430 C438 1.378 . S
C431 C430 1.367 . S
C431 C439 1.433 . S
C432 H428 0.929 . S
C432 C434 1.378 1_565 S
C432 C436 1.350 . S
C433 C436 1.463 . S
C433 C438 1.350 . S
C433 N441 1.427 . S
C434 H425 0.930 . S
C434 C432 1.378 1_545 S
C434 C435 1.367 1_545 S
C435 C434 1.367 1_565 S
C435 C437 1.433 . S
C436 C432 1.350 . S
C436 C433 1.463 . S
C436 N440 1.427 . S
C437 H427 0.929 . S
C437 C435 1.433 . S
C437 N440 1.384 . S
C438 H429 0.929 . S
C438 C430 1.378 . S
C438 C433 1.350 . S
C439 H426 0.929 . S
C439 C431 1.433 . S
C439 N441 1.384 . S
N440 C436 1.427 . S
N440 C437 1.384 . S
N441 C433 1.427 . S
N441 C439 1.384 . S
H442 C448 0.930 . S
H443 C452 0.930 . S
H444 C457 0.929 . S
H445 C455 0.929 . S
H446 C450 0.929 . S
H447 C456 0.929 . S
C448 H442 0.930 . S
C448 C449 1.367 . S
C448 C456 1.378 . S
C449 C448 1.367 . S
C449 C457 1.433 . S
C450 H446 0.929 . S
C450 C452 1.378 . S
C450 C454 1.350 . S
C451 C454 1.463 . S
C451 C456 1.350 . S
C451 N459 1.427 . S
C452 H443 0.930 . S
C452 C450 1.378 . S
C452 C453 1.367 . S
C453 C452 1.367 . S
C453 C455 1.433 . S
C454 C450 1.350 . S
C454 C451 1.463 . S
C454 N458 1.427 . S
C455 H445 0.929 . S
C455 C453 1.433 . S
C455 N458 1.384 . S
C456 H447 0.929 . S
C456 C448 1.378 . S
C456 C451 1.350 . S
C457 H444 0.929 . S
C457 C449 1.433 . S
C457 N459 1.384 . S
N458 C454 1.427 . S
N458 C455 1.384 . S
N459 C451 1.427 . S
N459 C457 1.384 . S
H460 C466 0.930 . S
H461 C470 0.930 . S
H462 C475 0.929 . S
H463 C473 0.929 . S
H464 C468 0.929 . S
H465 C474 0.929 . S
C466 H460 0.930 . S
C466 C467 1.367 . S
C466 C474 1.378 . S
C467 C466 1.367 . S
C467 C475 1.433 . S
C468 H464 0.929 . S
C468 C470 1.378 . S
C468 C472 1.350 . S
C469 C472 1.463 . S
C469 C474 1.350 . S
C469 N477 1.427 . S
C470 H461 0.930 . S
C470 C468 1.378 . S
C470 C471 1.367 . S
C471 C470 1.367 . S
C471 C473 1.433 . S
C472 C468 1.350 . S
C472 C469 1.463 . S
C472 N476 1.427 . S
C473 H463 0.929 . S
C473 C471 1.433 . S
C473 N476 1.384 . S
C474 H465 0.929 . S
C474 C466 1.378 . S
C474 C469 1.350 . S
C475 H462 0.929 . S
C475 C467 1.433 . S
C475 N477 1.384 . S
N476 C472 1.427 . S
N476 C473 1.384 . S
N477 C469 1.427 . S
N477 C475 1.384 . S
H478 C484 0.930 . S
H479 C488 0.930 . S
H480 C493 0.929 . S
H481 C491 0.929 . S
H482 C486 0.929 . S
H483 C492 0.929 . S
C484 H478 0.930 . S
C484 C485 1.367 . S
C484 C492 1.378 . S
C485 C484 1.367 . S
C485 C493 1.433 . S
C486 H482 0.929 . S
C486 C488 1.378 . S
C486 C490 1.350 . S
C487 C490 1.463 . S
C487 C492 1.350 . S
C487 N495 1.427 . S
C488 H479 0.930 . S
C488 C486 1.378 . S
C488 C489 1.367 . S
C489 C488 1.367 . S
C489 C491 1.433 . S
C490 C486 1.350 . S
C490 C487 1.463 . S
C490 N494 1.427 . S
C491 H481 0.929 . S
C491 C489 1.433 . S
C491 N494 1.384 . S
C492 H483 0.929 . S
C492 C484 1.378 . S
C492 C487 1.350 . S
C493 H480 0.929 . S
C493 C485 1.433 . S
C493 N495 1.384 . S
N494 C490 1.427 . S
N494 C491 1.384 . S
N495 C487 1.427 . S
N495 C493 1.384 . S
H496 C502 0.930 . S
H497 C506 0.930 . S
H498 C511 0.929 . S
H499 C509 0.929 . S
H500 C504 0.929 . S
H501 C510 0.929 . S
C502 H496 0.930 . S
C502 C503 1.367 . S
C502 C510 1.378 . S
C503 C502 1.367 . S
C503 C511 1.433 . S
C504 H500 0.929 . S
C504 C506 1.378 . S
C504 C508 1.350 . S
C505 C508 1.463 . S
C505 C510 1.350 . S
C505 N513 1.427 . S
C506 H497 0.930 . S
C506 C504 1.378 . S
C506 C507 1.367 . S
C507 C506 1.367 . S
C507 C509 1.433 . S
C508 C504 1.350 . S
C508 C505 1.463 . S
C508 N512 1.427 . S
C509 H499 0.929 . S
C509 C507 1.433 . S
C509 N512 1.384 . S
C510 H501 0.929 . S
C510 C502 1.378 . S
C510 C505 1.350 . S
C511 H498 0.929 . S
C511 C503 1.433 . S
C511 N513 1.384 . S
N512 C508 1.427 . S
N512 C509 1.384 . S
N513 C505 1.427 . S
N513 C511 1.384 . S
H514 C520 0.930 . S
H515 C524 0.930 . S
H516 C529 0.929 . S
H517 C527 0.929 . S
H518 C522 0.929 . S
H519 C528 0.929 . S
C520 H514 0.930 . S
C520 C521 1.367 . S
C520 C528 1.378 . S
C521 C520 1.367 . S
C521 C529 1.433 1_455 S
C522 H518 0.929 . S
C522 C524 1.378 . S
C522 C526 1.350 . S
C523 C526 1.463 . S
C523 C528 1.350 . S
C523 N531 1.427 . S
C524 H515 0.930 . S
C524 C522 1.378 . S
C524 C525 1.367 . S
C525 C524 1.367 . S
C525 C527 1.433 . S
C526 C522 1.350 . S
C526 C523 1.463 . S
C526 N530 1.427 . S
C527 H517 0.929 . S
C527 C525 1.433 . S
C527 N530 1.384 . S
C528 H519 0.929 . S
C528 C520 1.378 . S
C528 C523 1.350 . S
C529 H516 0.929 . S
C529 C521 1.433 1_655 S
C529 N531 1.384 1_655 S
N530 C526 1.427 . S
N530 C527 1.384 . S
N531 C523 1.427 . S
N531 C529 1.384 1_455 S
H532 C538 0.930 . S
H533 C542 0.930 . S
H534 C547 0.929 . S
H535 C545 0.929 . S
H536 C540 0.929 . S
H537 C546 0.929 . S
C538 H532 0.930 . S
C538 C539 1.367 . S
C538 C546 1.378 . S
C539 C538 1.367 . S
C539 C547 1.433 1_545 S
C540 H536 0.929 . S
C540 C542 1.378 . S
C540 C544 1.350 . S
C541 C544 1.463 . S
C541 C546 1.350 . S
C541 N549 1.427 . S
C542 H533 0.930 . S
C542 C540 1.378 . S
C542 C543 1.367 . S
C543 C542 1.367 . S
C543 C545 1.433 . S
C544 C540 1.350 . S
C544 C541 1.463 . S
C544 N548 1.427 . S
C545 H535 0.929 . S
C545 C543 1.433 . S
C545 N548 1.384 . S
C546 H537 0.929 . S
C546 C538 1.378 . S
C546 C541 1.350 . S
C547 H534 0.929 . S
C547 C539 1.433 1_565 S
C547 N549 1.384 1_565 S
N548 C544 1.427 . S
N548 C545 1.384 . S
N549 C541 1.427 . S
N549 C547 1.384 1_545 S
H550 C556 0.930 . S
H551 C560 0.930 . S
H552 C565 0.929 . S
H553 C563 0.929 . S
H554 C558 0.929 . S
H555 C564 0.929 . S
C556 H550 0.930 . S
C556 C557 1.367 . S
C556 C564 1.378 . S
C557 C556 1.367 . S
C557 C565 1.433 . S
C558 H554 0.929 . S
C558 C560 1.378 . S
C558 C562 1.350 . S
C559 C562 1.463 . S
C559 C564 1.350 . S
C559 N567 1.427 . S
C560 H551 0.930 . S
C560 C558 1.378 . S
C560 C561 1.367 . S
C561 C560 1.367 . S
C561 C563 1.433 . S
C562 C558 1.350 . S
C562 C559 1.463 . S
C562 N566 1.427 . S
C563 H553 0.929 . S
C563 C561 1.433 . S
C563 N566 1.384 . S
C564 H555 0.929 . S
C564 C556 1.378 . S
C564 C559 1.350 . S
C565 H552 0.929 . S
C565 C557 1.433 . S
C565 N567 1.384 . S
N566 C562 1.427 . S
N566 C563 1.384 . S
N567 C559 1.427 . S
N567 C565 1.384 . S
H568 C574 0.930 . S
H569 C578 0.930 . S
H570 C583 0.929 . S
H571 C581 0.929 . S
H572 C576 0.929 . S
H573 C582 0.929 . S
C574 H568 0.930 . S
C574 C575 1.367 . S
C574 C582 1.378 . S
C575 C574 1.367 . S
C575 C583 1.433 . S
C576 H572 0.929 . S
C576 C578 1.378 . S
C576 C580 1.350 . S
C577 C580 1.463 . S
C577 C582 1.350 . S
C577 N585 1.427 . S
C578 H569 0.930 . S
C578 C576 1.378 . S
C578 C579 1.367 . S
C579 C578 1.367 . S
C579 C581 1.433 . S
C580 C576 1.350 . S
C580 C577 1.463 . S
C580 N584 1.427 . S
C581 H571 0.929 . S
C581 C579 1.433 . S
C581 N584 1.384 . S
C582 H573 0.929 . S
C582 C574 1.378 . S
C582 C577 1.350 . S
C583 H570 0.929 . S
C583 C575 1.433 . S
C583 N585 1.384 . S
N584 C580 1.427 . S
N584 C581 1.384 . S
N585 C577 1.427 . S
N585 C583 1.384 . S
H586 C592 0.930 . S
H587 C596 0.930 . S
H588 C601 0.929 . S
H589 C599 0.929 . S
H590 C594 0.929 . S
H591 C600 0.929 . S
C592 H586 0.930 . S
C592 C593 1.367 . S
C592 C600 1.378 . S
C593 C592 1.367 . S
C593 C601 1.433 . S
C594 H590 0.929 . S
C594 C596 1.378 . S
C594 C598 1.350 . S
C595 C598 1.463 . S
C595 C600 1.350 . S
C595 N603 1.427 . S
C596 H587 0.930 . S
C596 C594 1.378 . S
C596 C597 1.367 . S
C597 C596 1.367 . S
C597 C599 1.433 . S
C598 C594 1.350 . S
C598 C595 1.463 . S
C598 N602 1.427 . S
C599 H589 0.929 . S
C599 C597 1.433 . S
C599 N602 1.384 . S
C600 H591 0.929 . S
C600 C592 1.378 . S
C600 C595 1.350 . S
C601 H588 0.929 . S
C601 C593 1.433 . S
C601 N603 1.384 . S
N602 C598 1.427 . S
N602 C599 1.384 . S
N603 C595 1.427 . S
N603 C601 1.384 . S
H604 C610 0.930 . S
H605 C614 0.930 . S
H606 C619 0.929 . S
H607 C617 0.929 . S
H608 C612 0.929 . S
H609 C618 0.929 . S
C610 H604 0.930 . S
C610 C611 1.367 . S
C610 C618 1.378 . S
C611 C610 1.367 . S
C611 C619 1.433 . S
C612 H608 0.929 . S
C612 C614 1.378 . S
C612 C616 1.350 . S
C613 C616 1.463 . S
C613 C618 1.350 . S
C613 N621 1.427 . S
C614 H605 0.930 . S
C614 C612 1.378 . S
C614 C615 1.367 . S
C615 C614 1.367 . S
C615 C617 1.433 . S
C616 C612 1.350 . S
C616 C613 1.463 . S
C616 N620 1.427 . S
C617 H607 0.929 . S
C617 C615 1.433 . S
C617 N620 1.384 . S
C618 H609 0.929 . S
C618 C610 1.378 . S
C618 C613 1.350 . S
C619 H606 0.929 . S
C619 C611 1.433 . S
C619 N621 1.384 . S
N620 C616 1.427 . S
N620 C617 1.384 . S
N621 C613 1.427 . S
N621 C619 1.384 . S
H622 C628 0.930 . S
H623 C632 0.930 . S
H624 C637 0.929 . S
H625 C635 0.953 . S
H626 C630 0.929 . S
H627 C636 0.929 . S
C628 H622 0.930 . S
C628 C629 1.367 . S
C628 C636 1.378 . S
C629 C628 1.367 . S
C629 C637 1.433 . S
C630 H626 0.929 . S
C630 C632 1.378 . S
C630 C634 1.350 . S
C631 C634 1.463 . S
C631 C636 1.350 . S
C631 N639 1.427 . S
C632 H623 0.930 . S
C632 C630 1.378 . S
C632 C633 1.367 . S
C633 C632 1.367 . S
C633 C635 1.427 1_455 S
C634 C630 1.350 . S
C634 C631 1.463 . S
C634 N638 1.427 . S
C635 H625 0.953 . S
C635 C633 1.427 1_655 S
C635 N638 1.365 1_655 S
C636 H627 0.929 . S
C636 C628 1.378 . S
C636 C631 1.350 . S
C637 H624 0.929 . S
C637 C629 1.433 . S
C637 N639 1.384 . S
N638 C634 1.427 . S
N638 C635 1.365 1_455 S
N639 C631 1.427 . S
N639 C637 1.384 . S
H640 C646 0.930 . S
H641 C650 0.930 . S
H642 C655 0.929 . S
H643 C653 0.929 . S
H644 C648 0.929 . S
H645 C654 0.929 . S
C646 H640 0.930 . S
C646 C647 1.367 . S
C646 C654 1.378 . S
C647 C646 1.367 . S
C647 C655 1.433 . S
C648 H644 0.929 . S
C648 C650 1.378 . S
C648 C652 1.350 . S
C649 C652 1.463 . S
C649 C654 1.350 . S
C649 N657 1.427 . S
C650 H641 0.930 . S
C650 C648 1.378 . S
C650 C651 1.367 . S
C651 C650 1.367 . S
C651 C653 1.433 . S
C652 C648 1.350 . S
C652 C649 1.463 . S
C652 N656 1.427 . S
C653 H643 0.929 . S
C653 C651 1.433 . S
C653 N656 1.384 . S
C654 H645 0.929 . S
C654 C646 1.378 . S
C654 C649 1.350 . S
C655 H642 0.929 . S
C655 C647 1.433 . S
C655 N657 1.384 . S
N656 C652 1.427 . S
N656 C653 1.384 . S
N657 C649 1.427 . S
N657 C655 1.384 . S
H658 C664 0.930 . S
H659 C668 0.930 . S
H660 C673 0.929 . S
H661 C671 0.929 . S
H662 C666 0.929 . S
H663 C672 0.929 . S
C664 H658 0.930 . S
C664 C665 1.367 . S
C664 C672 1.378 . S
C665 C664 1.367 . S
C665 C673 1.433 . S
C666 H662 0.929 . S
C666 C668 1.378 . S
C666 C670 1.350 . S
C667 C670 1.463 . S
C667 C672 1.350 . S
C667 N675 1.427 . S
C668 H659 0.930 . S
C668 C666 1.378 . S
C668 C669 1.367 . S
C669 C668 1.367 . S
C669 C671 1.433 . S
C670 C666 1.350 . S
C670 C667 1.463 . S
C670 N674 1.427 . S
C671 H661 0.929 . S
C671 C669 1.433 . S
C671 N674 1.384 . S
C672 H663 0.929 . S
C672 C664 1.378 . S
C672 C667 1.350 . S
C673 H660 0.929 . S
C673 C665 1.433 . S
C673 N675 1.384 . S
N674 C670 1.427 . S
N674 C671 1.384 . S
N675 C667 1.427 . S
N675 C673 1.384 . S
H676 C682 0.930 . S
H677 C686 0.930 . S
H678 C691 0.929 . S
H679 C689 0.929 . S
H680 C684 0.929 . S
H681 C690 0.929 . S
C682 H676 0.930 . S
C682 C683 1.367 . S
C682 C690 1.378 . S
C683 C682 1.367 . S
C683 C691 1.433 . S
C684 H680 0.929 . S
C684 C686 1.378 . S
C684 C688 1.350 . S
C685 C688 1.463 . S
C685 C690 1.350 . S
C685 N693 1.427 . S
C686 H677 0.930 . S
C686 C684 1.378 . S
C686 C687 1.367 . S
C687 C686 1.367 . S
C687 C689 1.433 . S
C688 C684 1.350 . S
C688 C685 1.463 . S
C688 N692 1.427 . S
C689 H679 0.929 . S
C689 C687 1.433 . S
C689 N692 1.384 . S
C690 H681 0.929 . S
C690 C682 1.378 . S
C690 C685 1.350 . S
C691 H678 0.929 . S
C691 C683 1.433 . S
C691 N693 1.384 . S
N692 C688 1.427 . S
N692 C689 1.384 . S
N693 C685 1.427 . S
N693 C691 1.384 . S
H694 C700 0.930 . S
H695 C704 0.930 . S
H696 C709 0.929 . S
H697 C707 0.929 . S
H698 C702 0.929 . S
H699 C708 0.929 . S
C700 H694 0.930 . S
C700 C701 1.367 . S
C700 C708 1.378 . S
C701 C700 1.367 . S
C701 C709 1.433 . S
C702 H698 0.929 . S
C702 C704 1.378 . S
C702 C706 1.350 . S
C703 C706 1.463 . S
C703 C708 1.350 . S
C703 N711 1.427 . S
C704 H695 0.930 . S
C704 C702 1.378 . S
C704 C705 1.367 . S
C705 C704 1.367 . S
C705 C707 1.433 . S
C706 C702 1.350 . S
C706 C703 1.463 . S
C706 N710 1.427 . S
C707 H697 0.929 . S
C707 C705 1.433 . S
C707 N710 1.384 . S
C708 H699 0.929 . S
C708 C700 1.378 . S
C708 C703 1.350 . S
C709 H696 0.929 . S
C709 C701 1.433 . S
C709 N711 1.384 . S
N710 C706 1.427 . S
N710 C707 1.384 . S
N711 C703 1.427 . S
N711 C709 1.384 . S
H712 C718 0.930 . S
H713 C722 0.930 . S
H714 C727 0.929 . S
H715 C725 0.929 . S
H716 C720 0.929 . S
H717 C726 0.929 . S
C718 H712 0.930 . S
C718 C719 1.367 . S
C718 C726 1.378 . S
C719 C718 1.367 . S
C719 C727 1.433 . S
C720 H716 0.929 . S
C720 C722 1.378 . S
C720 C724 1.350 . S
C721 C724 1.463 . S
C721 C726 1.350 . S
C721 N729 1.427 . S
C722 H713 0.930 . S
C722 C720 1.378 . S
C722 C723 1.367 . S
C723 C722 1.367 . S
C723 C725 1.433 . S
C724 C720 1.350 . S
C724 C721 1.463 . S
C724 N728 1.427 . S
C725 H715 0.929 . S
C725 C723 1.433 . S
C725 N728 1.384 . S
C726 H717 0.929 . S
C726 C718 1.378 . S
C726 C721 1.350 . S
C727 H714 0.929 . S
C727 C719 1.433 . S
C727 N729 1.384 . S
N728 C724 1.427 . S
N728 C725 1.384 . S
N729 C721 1.427 . S
N729 C727 1.384 . S
H730 C736 0.930 . S
H731 C740 0.930 . S
H732 C745 0.929 . S
H733 C743 0.929 . S
H734 C738 0.929 . S
H735 C744 0.929 . S
C736 H730 0.930 . S
C736 C737 1.367 . S
C736 C744 1.378 . S
C737 C736 1.367 . S
C737 C745 1.433 . S
C738 H734 0.929 . S
C738 C740 1.378 . S
C738 C742 1.350 . S
C739 C742 1.463 . S
C739 C744 1.350 . S
C739 N747 1.427 . S
C740 H731 0.930 . S
C740 C738 1.378 . S
C740 C741 1.367 . S
C741 C740 1.367 . S
C741 C743 1.433 . S
C742 C738 1.350 . S
C742 C739 1.463 . S
C742 N746 1.427 . S
C743 H733 0.929 . S
C743 C741 1.433 . S
C743 N746 1.384 . S
C744 H735 0.929 . S
C744 C736 1.378 . S
C744 C739 1.350 . S
C745 H732 0.929 . S
C745 C737 1.433 . S
C745 N747 1.384 . S
N746 C742 1.427 . S
N746 C743 1.384 . S
N747 C739 1.427 . S
N747 C745 1.384 . S
H748 C754 0.930 . S
H749 C758 0.930 . S
H750 C763 0.929 . S
H751 C761 0.929 . S
H752 C756 0.929 . S
H753 C762 0.929 . S
C754 H748 0.930 . S
C754 C755 1.367 . S
C754 C762 1.378 . S
C755 C754 1.367 . S
C755 C763 1.433 . S
C756 H752 0.929 . S
C756 C758 1.378 . S
C756 C760 1.350 . S
C757 C760 1.463 . S
C757 C762 1.350 . S
C757 N765 1.427 . S
C758 H749 0.930 . S
C758 C756 1.378 . S
C758 C759 1.367 . S
C759 C758 1.367 . S
C759 C761 1.433 . S
C760 C756 1.350 . S
C760 C757 1.463 . S
C760 N764 1.427 . S
C761 H751 0.929 . S
C761 C759 1.433 . S
C761 N764 1.384 . S
C762 H753 0.929 . S
C762 C754 1.378 . S
C762 C757 1.350 . S
C763 H750 0.929 . S
C763 C755 1.433 . S
C763 N765 1.384 . S
N764 C760 1.427 . S
N764 C761 1.384 . S
N765 C757 1.427 . S
N765 C763 1.384 . S
H766 C772 0.930 . S
H767 C776 0.930 . S
H768 C781 0.929 . S
H769 C779 0.929 . S
H770 C774 0.929 . S
H771 C780 0.929 . S
C772 H766 0.930 . S
C772 C773 1.367 . S
C772 C780 1.378 . S
C773 C772 1.367 . S
C773 C781 1.433 . S
C774 H770 0.929 . S
C774 C776 1.378 . S
C774 C778 1.350 . S
C775 C778 1.463 . S
C775 C780 1.350 . S
C775 N783 1.427 . S
C776 H767 0.930 . S
C776 C774 1.378 . S
C776 C777 1.367 . S
C777 C776 1.367 . S
C777 C779 1.433 . S
C778 C774 1.350 . S
C778 C775 1.463 . S
C778 N782 1.427 . S
C779 H769 0.929 . S
C779 C777 1.433 . S
C779 N782 1.384 . S
C780 H771 0.929 . S
C780 C772 1.378 . S
C780 C775 1.350 . S
C781 H768 0.929 . S
C781 C773 1.433 . S
C781 N783 1.384 . S
N782 C778 1.427 . S
N782 C779 1.384 . S
N783 C775 1.427 . S
N783 C781 1.384 . S
H784 C790 0.930 . S
H785 C794 0.930 . S
H786 C799 0.929 . S
H787 C797 0.929 . S
H788 C792 0.929 . S
H789 C798 0.929 . S
C790 H784 0.930 . S
C790 C791 1.367 . S
C790 C798 1.378 . S
C791 C790 1.367 . S
C791 C799 1.433 . S
C792 H788 0.929 . S
C792 C794 1.378 . S
C792 C796 1.350 . S
C793 C796 1.463 . S
C793 C798 1.350 . S
C793 N801 1.427 . S
C794 H785 0.930 . S
C794 C792 1.378 . S
C794 C795 1.367 . S
C795 C794 1.367 . S
C795 C797 1.433 . S
C796 C792 1.350 . S
C796 C793 1.463 . S
C796 N800 1.427 . S
C797 H787 0.929 . S
C797 C795 1.433 . S
C797 N800 1.384 . S
C798 H789 0.929 . S
C798 C790 1.378 . S
C798 C793 1.350 . S
C799 H786 0.929 . S
C799 C791 1.433 . S
C799 N801 1.384 . S
N800 C796 1.427 . S
N800 C797 1.384 . S
N801 C793 1.427 . S
N801 C799 1.384 . S
H802 C808 0.930 . S
H803 C812 0.930 . S
H804 C817 0.929 . S
H805 C815 0.929 . S
H806 C810 0.929 . S
H807 C816 0.929 . S
C808 H802 0.930 . S
C808 C809 1.367 . S
C808 C816 1.378 . S
C809 C808 1.367 . S
C809 C817 1.433 . S
C810 H806 0.929 . S
C810 C812 1.378 . S
C810 C814 1.350 . S
C811 C814 1.463 . S
C811 C816 1.350 . S
C811 N819 1.427 . S
C812 H803 0.930 . S
C812 C810 1.378 . S
C812 C813 1.367 . S
C813 C812 1.367 . S
C813 C815 1.433 . S
C814 C810 1.350 . S
C814 C811 1.463 . S
C814 N818 1.427 . S
C815 H805 0.929 . S
C815 C813 1.433 . S
C815 N818 1.384 . S
C816 H807 0.929 . S
C816 C808 1.378 . S
C816 C811 1.350 . S
C817 H804 0.929 . S
C817 C809 1.433 . S
C817 N819 1.384 . S
N818 C814 1.427 . S
N818 C815 1.384 . S
N819 C811 1.427 . S
N819 C817 1.384 . S
H820 C826 0.930 . S
H821 C830 0.930 . S
H822 C835 0.929 . S
H823 C833 0.929 . S
H824 C828 0.929 . S
H825 C834 0.929 . S
C826 H820 0.930 . S
C826 C827 1.367 . S
C826 C834 1.378 . S
C827 C826 1.367 . S
C827 C835 1.433 . S
C828 H824 0.929 . S
C828 C830 1.378 . S
C828 C832 1.350 . S
C829 C832 1.463 . S
C829 C834 1.350 . S
C829 N837 1.427 . S
C830 H821 0.930 . S
C830 C828 1.378 . S
C830 C831 1.367 . S
C831 C830 1.367 . S
C831 C833 1.433 . S
C832 C828 1.350 . S
C832 C829 1.463 . S
C832 N836 1.427 . S
C833 H823 0.929 . S
C833 C831 1.433 . S
C833 N836 1.384 . S
C834 H825 0.929 . S
C834 C826 1.378 . S
C834 C829 1.350 . S
C835 H822 0.929 . S
C835 C827 1.433 . S
C835 N837 1.384 . S
N836 C832 1.427 . S
N836 C833 1.384 . S
N837 C829 1.427 . S
N837 C835 1.384 . S
H838 C844 0.930 . S
H839 C848 0.930 . S
H840 C853 0.929 . S
H841 C851 0.929 . S
H842 C846 0.929 . S
H843 C852 0.929 . S
C844 H838 0.930 . S
C844 C845 1.367 . S
C844 C852 1.378 . S
C845 C844 1.367 . S
C845 C853 1.433 . S
C846 H842 0.929 . S
C846 C848 1.378 . S
C846 C850 1.350 . S
C847 C850 1.463 . S
C847 C852 1.350 . S
C847 N855 1.427 . S
C848 H839 0.930 . S
C848 C846 1.378 . S
C848 C849 1.367 . S
C849 C848 1.367 . S
C849 C851 1.433 . S
C850 C846 1.350 . S
C850 C847 1.463 . S
C850 N854 1.427 . S
C851 H841 0.929 . S
C851 C849 1.433 . S
C851 N854 1.384 . S
C852 H843 0.929 . S
C852 C844 1.378 . S
C852 C847 1.350 . S
C853 H840 0.929 . S
C853 C845 1.433 . S
C853 N855 1.384 . S
N854 C850 1.427 . S
N854 C851 1.384 . S
N855 C847 1.427 . S
N855 C853 1.384 . S
H856 C862 0.930 . S
H857 C866 0.930 . S
H858 C871 0.929 . S
H859 C869 0.929 . S
H860 C864 0.929 . S
H861 C870 0.929 . S
C862 H856 0.930 . S
C862 C863 1.367 . S
C862 C870 1.378 . S
C863 C862 1.367 . S
C863 C871 1.433 . S
C864 H860 0.929 . S
C864 C866 1.378 . S
C864 C868 1.350 . S
C865 C868 1.463 . S
C865 C870 1.350 . S
C865 N873 1.427 . S
C866 H857 0.930 . S
C866 C864 1.378 . S
C866 C867 1.367 . S
C867 C866 1.367 . S
C867 C869 1.433 . S
C868 C864 1.350 . S
C868 C865 1.463 . S
C868 N872 1.427 . S
C869 H859 0.929 . S
C869 C867 1.433 . S
C869 N872 1.384 . S
C870 H861 0.929 . S
C870 C862 1.378 . S
C870 C865 1.350 . S
C871 H858 0.929 . S
C871 C863 1.433 . S
C871 N873 1.384 . S
N872 C868 1.427 . S
N872 C869 1.384 . S
N873 C865 1.427 . S
N873 C871 1.384 . S
H874 C880 0.930 . S
H875 C884 0.930 . S
H876 C889 0.929 . S
H877 C887 0.929 . S
H878 C882 0.929 . S
H879 C888 0.929 . S
C880 H874 0.930 . S
C880 C881 1.367 . S
C880 C888 1.378 . S
C881 C880 1.367 . S
C881 C889 1.433 . S
C882 H878 0.929 . S
C882 C884 1.378 . S
C882 C886 1.350 . S
C883 C886 1.463 . S
C883 C888 1.350 . S
C883 N891 1.427 . S
C884 H875 0.930 . S
C884 C882 1.378 . S
C884 C885 1.367 . S
C885 C884 1.367 . S
C885 C887 1.433 . S
C886 C882 1.350 . S
C886 C883 1.463 . S
C886 N890 1.427 . S
C887 H877 0.929 . S
C887 C885 1.433 . S
C887 N890 1.384 . S
C888 H879 0.929 . S
C888 C880 1.378 . S
C888 C883 1.350 . S
C889 H876 0.929 . S
C889 C881 1.433 . S
C889 N891 1.384 . S
N890 C886 1.427 . S
N890 C887 1.384 . S
N891 C883 1.427 . S
N891 C889 1.384 . S
H892 C898 0.930 . S
H893 C902 0.930 . S
H894 C907 0.929 . S
H895 C905 0.929 . S
H896 C900 0.929 . S
H897 C906 0.929 . S
C898 H892 0.930 . S
C898 C899 1.367 . S
C898 C906 1.378 . S
C899 C898 1.367 . S
C899 C907 1.433 . S
C900 H896 0.929 . S
C900 C902 1.378 . S
C900 C904 1.350 . S
C901 C904 1.463 . S
C901 C906 1.350 . S
C901 N909 1.427 . S
C902 H893 0.930 . S
C902 C900 1.378 . S
C902 C903 1.367 . S
C903 C902 1.367 . S
C903 C905 1.433 . S
C904 C900 1.350 . S
C904 C901 1.463 . S
C904 N908 1.427 . S
C905 H895 0.929 . S
C905 C903 1.433 . S
C905 N908 1.384 . S
C906 H897 0.929 . S
C906 C898 1.378 . S
C906 C901 1.350 . S
C907 H894 0.929 . S
C907 C899 1.433 . S
C907 N909 1.384 . S
N908 C904 1.427 . S
N908 C905 1.384 . S
N909 C901 1.427 . S
N909 C907 1.384 . S
H910 C916 0.930 . S
H911 C920 0.930 . S
H912 C925 0.929 . S
H913 C923 0.929 . S
H914 C918 0.929 . S
H915 C924 0.929 . S
C916 H910 0.930 . S
C916 C917 1.367 . S
C916 C924 1.378 . S
C917 C916 1.367 . S
C917 C925 1.433 . S
C918 H914 0.929 . S
C918 C920 1.378 . S
C918 C922 1.350 . S
C919 C922 1.463 . S
C919 C924 1.350 . S
C919 N927 1.427 . S
C920 H911 0.930 . S
C920 C918 1.378 . S
C920 C921 1.367 . S
C921 C920 1.367 . S
C921 C923 1.433 . S
C922 C918 1.350 . S
C922 C919 1.463 . S
C922 N926 1.427 . S
C923 H913 0.929 . S
C923 C921 1.433 . S
C923 N926 1.384 . S
C924 H915 0.929 . S
C924 C916 1.378 . S
C924 C919 1.350 . S
C925 H912 0.929 . S
C925 C917 1.433 . S
C925 N927 1.384 . S
N926 C922 1.427 . S
N926 C923 1.384 . S
N927 C919 1.427 . S
N927 C925 1.384 . S
H928 C934 0.930 . S
H929 C938 0.930 . S
H930 C943 0.929 . S
H931 C941 0.929 . S
H932 C936 0.930 1_556 S
H933 C942 0.930 1_554 S
C934 H928 0.930 . S
C934 C935 1.367 . S
C934 C942 1.377 . S
C935 C934 1.367 . S
C935 C943 1.433 . S
C936 H932 0.930 1_554 S
C936 C938 1.377 . S
C936 C940 1.349 . S
C937 C940 1.463 1_656 S
C937 C942 1.349 . S
C937 N945 1.427 . S
C938 H929 0.930 . S
C938 C936 1.377 . S
C938 C939 1.367 . S
C939 C938 1.367 . S
C939 C941 1.433 . S
C940 C936 1.349 . S
C940 C937 1.463 1_454 S
C940 N944 1.427 . S
C941 H931 0.929 . S
C941 C939 1.433 . S
C941 N944 1.384 . S
C942 H933 0.930 1_556 S
C942 C934 1.377 . S
C942 C937 1.349 . S
C943 H930 0.929 . S
C943 C935 1.433 . S
C943 N945 1.384 . S
N944 C940 1.427 . S
N944 C941 1.384 . S
N945 C937 1.427 . S
N945 C943 1.384 . S
H946 C952 0.930 . S
H947 C956 0.930 . S
H948 C961 0.929 . S
H949 C959 0.929 . S
H950 C954 0.929 . S
H951 C960 0.929 . S
C952 H946 0.930 . S
C952 C953 1.367 . S
C952 C960 1.378 1_565 S
C953 C952 1.367 . S
C953 C961 1.433 . S
C954 H950 0.929 . S
C954 C956 1.378 1_565 S
C954 C958 1.350 1_565 S
C955 C958 1.463 1_466 S
C955 C960 1.350 1_565 S
C955 N963 1.441 . S
C956 H947 0.930 . S
C956 C954 1.378 1_545 S
C956 C957 1.367 . S
C957 C956 1.367 . S
C957 C959 1.433 . S
C958 C954 1.350 1_545 S
C958 C955 1.463 1_644 S
C958 N962 1.441 . S
C959 H949 0.929 . S
C959 C957 1.433 . S
C959 N962 1.410 . S
C960 H951 0.929 . S
C960 C952 1.378 1_545 S
C960 C955 1.350 1_545 S
C961 H948 0.929 . S
C961 C953 1.433 . S
C961 N963 1.410 . S
N962 C958 1.441 . S
N962 C959 1.410 . S
N963 C955 1.441 . S
N963 C961 1.410 . S
H964 C970 0.930 . S
H965 C974 0.930 . S
H966 C979 0.929 . S
H967 C977 0.929 . S
H968 C972 0.910 1_545 S
H969 C978 0.910 1_565 S
C970 H964 0.930 . S
C970 C971 1.367 . S
C970 C978 1.391 . S
C971 C970 1.367 . S
C971 C979 1.433 . S
C972 H968 0.910 1_565 S
C972 C974 1.391 . S
C972 C976 1.356 . S
C973 C976 1.463 1_546 S
C973 C978 1.356 . S
C973 N981 1.429 . S
C974 H965 0.930 . S
C974 C972 1.391 . S
C974 C975 1.367 . S
C975 C974 1.367 . S
C975 C977 1.433 . S
C976 C972 1.356 . S
C976 C973 1.463 1_564 S
C976 N980 1.429 . S
C977 H967 0.929 . S
C977 C975 1.433 . S
C977 N980 1.387 . S
C978 H969 0.910 1_545 S
C978 C970 1.391 . S
C978 C973 1.356 . S
C979 H966 0.929 . S
C979 C971 1.433 . S
C979 N981 1.387 . S
N980 C976 1.429 . S
N980 C977 1.387 . S
N981 C973 1.429 . S
N981 C979 1.387 . S
H982 C988 0.930 . S
H983 C992 0.930 . S
H984 C997 0.929 . S
H985 C995 0.929 . S
H986 C990 0.929 . S
H987 C996 0.929 . S
C988 H982 0.930 . S
C988 C989 1.367 . S
C988 C996 1.378 . S
C989 C988 1.367 . S
C989 C997 1.433 . S
C990 H986 0.929 . S
C990 C992 1.378 . S
C990 C994 1.350 . S
C991 C994 1.463 1_554 S
C991 C996 1.350 . S
C991 N999 1.427 . S
C992 H983 0.930 . S
C992 C990 1.378 . S
C992 C993 1.367 . S
C993 C992 1.367 . S
C993 C995 1.433 . S
C994 C990 1.350 . S
C994 C991 1.463 1_556 S
C994 N998 1.427 . S
C995 H985 0.929 . S
C995 C993 1.433 . S
C995 N998 1.384 . S
C996 H987 0.929 . S
C996 C988 1.378 . S
C996 C991 1.350 . S
C997 H984 0.929 . S
C997 C989 1.433 . S
C997 N999 1.384 . S
N998 C994 1.427 . S
N998 C995 1.384 . S
N999 C991 1.427 . S
N999 C997 1.384 . S
H1000 C1006 0.930 . S
H1001 C1010 0.930 . S
H1002 C1015 0.929 . S
H1003 C1013 0.929 . S
H1004 C1008 0.929 . S
H1005 C1014 0.929 . S
C1006 H1000 0.930 . S
C1006 C1007 1.367 . S
C1006 C1014 1.378 1_545 S
C1007 C1006 1.367 . S
C1007 C1015 1.433 . S
C1008 H1004 0.929 . S
C1008 C1010 1.378 1_545 S
C1008 C1012 1.350 1_545 S
C1009 C1012 1.463 1_645 S
C1009 C1014 1.350 1_545 S
C1009 N1017 1.427 . S
C1010 H1001 0.930 . S
C1010 C1008 1.378 1_565 S
C1010 C1011 1.367 . S
C1011 C1010 1.367 . S
C1011 C1013 1.433 . S
C1012 C1008 1.350 1_565 S
C1012 C1009 1.463 1_465 S
C1012 N1016 1.427 . S
C1013 H1003 0.929 . S
C1013 C1011 1.433 . S
C1013 N1016 1.384 . S
C1014 H1005 0.929 . S
C1014 C1006 1.378 1_565 S
C1014 C1009 1.350 1_565 S
C1015 H1002 0.929 . S
C1015 C1007 1.433 . S
C1015 N1017 1.384 . S
N1016 C1012 1.427 . S
N1016 C1013 1.384 . S
N1017 C1009 1.427 . S
N1017 C1015 1.384 . S
H1018 C1024 0.930 . S
H1019 C1028 0.930 . S
H1020 C1033 0.929 . S
H1021 C1031 0.929 . S
H1022 C1026 0.929 . S
H1023 C1032 0.929 . S
C1024 H1018 0.930 . S
C1024 C1025 1.367 . S
C1024 C1032 1.378 1_565 S
C1025 C1024 1.367 . S
C1025 C1033 1.433 . S
C1026 H1022 0.929 . S
C1026 C1028 1.378 1_565 S
C1026 C1030 1.350 1_565 S
C1027 C1030 1.463 1_565 S
C1027 C1032 1.350 1_565 S
C1027 N1035 1.427 . S
C1028 H1019 0.930 . S
C1028 C1026 1.378 1_545 S
C1028 C1029 1.367 . S
C1029 C1028 1.367 . S
C1029 C1031 1.433 . S
C1030 C1026 1.350 1_545 S
C1030 C1027 1.463 1_545 S
C1030 N1034 1.427 . S
C1031 H1021 0.929 . S
C1031 C1029 1.433 . S
C1031 N1034 1.384 . S
C1032 H1023 0.929 . S
C1032 C1024 1.378 1_545 S
C1032 C1027 1.350 1_545 S
C1033 H1020 0.929 . S
C1033 C1025 1.433 . S
C1033 N1035 1.384 . S
N1034 C1030 1.427 . S
N1034 C1031 1.384 . S
N1035 C1027 1.427 . S
N1035 C1033 1.384 . S
H1036 C1042 0.930 . S
H1037 C1046 0.930 . S
H1038 C1051 0.929 . S
H1039 C1049 0.929 . S
H1040 C1044 0.929 . S
H1041 C1050 0.929 . S
C1042 H1036 0.930 . S
C1042 C1043 1.367 . S
C1042 C1050 1.378 . S
C1043 C1042 1.367 . S
C1043 C1051 1.433 . S
C1044 H1040 0.929 . S
C1044 C1046 1.378 . S
C1044 C1048 1.350 . S
C1045 C1048 1.463 . S
C1045 C1050 1.350 . S
C1045 N1053 1.427 . S
C1046 H1037 0.930 . S
C1046 C1044 1.378 . S
C1046 C1047 1.367 . S
C1047 C1046 1.367 . S
C1047 C1049 1.433 . S
C1048 C1044 1.350 . S
C1048 C1045 1.463 . S
C1048 N1052 1.427 . S
C1049 H1039 0.929 . S
C1049 C1047 1.433 . S
C1049 N1052 1.384 . S
C1050 H1041 0.929 . S
C1050 C1042 1.378 . S
C1050 C1045 1.350 . S
C1051 H1038 0.929 . S
C1051 C1043 1.433 . S
C1051 N1053 1.384 . S
N1052 C1048 1.427 . S
N1052 C1049 1.384 . S
N1053 C1045 1.427 . S
N1053 C1051 1.384 . S
H1054 C1060 0.930 . S
H1055 C1064 0.930 . S
H1056 C1069 0.929 . S
H1057 C1067 0.929 . S
H1058 C1062 0.929 . S
H1059 C1068 0.929 . S
C1060 H1054 0.930 . S
C1060 C1061 1.367 . S
C1060 C1068 1.378 . S
C1061 C1060 1.367 . S
C1061 C1069 1.433 . S
C1062 H1058 0.929 . S
C1062 C1064 1.378 . S
C1062 C1066 1.350 . S
C1063 C1066 1.463 1_455 S
C1063 C1068 1.350 . S
C1063 N1071 1.427 . S
C1064 H1055 0.930 . S
C1064 C1062 1.378 . S
C1064 C1065 1.367 . S
C1065 C1064 1.367 . S
C1065 C1067 1.433 . S
C1066 C1062 1.350 . S
C1066 C1063 1.463 1_655 S
C1066 N1070 1.427 . S
C1067 H1057 0.929 . S
C1067 C1065 1.433 . S
C1067 N1070 1.384 . S
C1068 H1059 0.929 . S
C1068 C1060 1.378 . S
C1068 C1063 1.350 . S
C1069 H1056 0.929 . S
C1069 C1061 1.433 . S
C1069 N1071 1.384 . S
N1070 C1066 1.427 . S
N1070 C1067 1.384 . S
N1071 C1063 1.427 . S
N1071 C1069 1.384 . S
H1072 C1078 0.930 . S
H1073 C1082 0.930 . S
H1074 C1087 0.929 . S
H1075 C1085 0.929 . S
H1076 C1080 0.929 . S
H1077 C1086 0.929 1_455 S
C1078 H1072 0.930 . S
C1078 C1079 1.367 . S
C1078 C1086 1.378 . S
C1079 C1078 1.367 . S
C1079 C1087 1.433 . S
C1080 H1076 0.929 . S
C1080 C1082 1.378 . S
C1080 C1084 1.350 . S
C1081 C1084 1.463 . S
C1081 C1086 1.350 . S
C1081 N1089 1.427 . S
C1082 H1073 0.930 . S
C1082 C1080 1.378 . S
C1082 C1083 1.335 1_655 S
C1083 C1082 1.335 1_455 S
C1083 C1085 1.454 . S
C1084 C1080 1.350 . S
C1084 C1081 1.463 . S
C1084 N1088 1.427 1_655 S
C1085 H1075 0.929 . S
C1085 C1083 1.454 . S
C1085 N1088 1.384 . S
C1086 H1077 0.929 1_655 S
C1086 C1078 1.378 . S
C1086 C1081 1.350 . S
C1087 H1074 0.929 . S
C1087 C1079 1.433 . S
C1087 N1089 1.384 . S
N1088 C1084 1.427 1_455 S
N1088 C1085 1.384 . S
N1089 C1081 1.427 . S
N1089 C1087 1.384 . S
H1090 C1096 0.930 . S
H1091 C1100 0.930 . S
H1092 C1105 0.929 . S
H1093 C1103 0.929 . S
H1094 C1098 0.929 . S
H1095 C1104 0.929 . S
C1096 H1090 0.930 . S
C1096 C1097 1.367 1_655 S
C1096 C1104 1.378 . S
C1097 C1096 1.367 1_455 S
C1097 C1105 1.433 . S
C1098 H1094 0.929 . S
C1098 C1100 1.378 . S
C1098 C1102 1.350 1_545 S
C1099 C1102 1.463 . S
C1099 C1104 1.350 . S
C1099 N1107 1.427 . S
C1100 H1091 0.930 . S
C1100 C1098 1.378 . S
C1100 C1101 1.367 . S
C1101 C1100 1.367 . S
C1101 C1103 1.433 1_545 S
C1102 C1098 1.350 1_565 S
C1102 C1099 1.463 . S
C1102 N1106 1.427 . S
C1103 H1093 0.929 . S
C1103 C1101 1.433 1_565 S
C1103 N1106 1.384 . S
C1104 H1095 0.929 . S
C1104 C1096 1.378 . S
C1104 C1099 1.350 . S
C1105 H1092 0.929 . S
C1105 C1097 1.433 . S
C1105 N1107 1.384 1_455 S
N1106 C1102 1.427 . S
N1106 C1103 1.384 . S
N1107 C1099 1.427 . S
N1107 C1105 1.384 1_655 S
H1108 C1114 0.930 . S
H1109 C1118 0.930 . S
H1110 C1123 0.929 . S
H1111 C1121 0.929 . S
H1112 C1116 0.929 . S
H1113 C1122 0.929 . S
C1114 H1108 0.930 . S
C1114 C1115 1.367 . S
C1114 C1122 1.378 . S
C1115 C1114 1.367 . S
C1115 C1123 1.433 1_545 S
C1116 H1112 0.929 . S
C1116 C1118 1.378 . S
C1116 C1120 1.350 . S
C1117 C1120 1.463 . S
C1117 C1122 1.350 1_565 S
C1117 N1125 1.427 . S
C1118 H1109 0.930 . S
C1118 C1116 1.378 . S
C1118 C1119 1.367 . S
C1119 C1118 1.367 . S
C1119 C1121 1.433 . S
C1120 C1116 1.350 . S
C1120 C1117 1.463 . S
C1120 N1124 1.427 . S
C1121 H1111 0.929 . S
C1121 C1119 1.433 . S
C1121 N1124 1.384 . S
C1122 H1113 0.929 . S
C1122 C1114 1.378 . S
C1122 C1117 1.350 1_545 S
C1123 H1110 0.929 . S
C1123 C1115 1.433 1_565 S
C1123 N1125 1.384 . S
N1124 C1120 1.427 . S
N1124 C1121 1.384 . S
N1125 C1117 1.427 . S
N1125 C1123 1.384 . S
H1126 C1132 0.930 . S
H1127 C1136 0.930 . S
H1128 C1141 0.929 . S
H1129 C1139 0.929 . S
H1130 C1134 0.929 . S
H1131 C1140 0.929 . S
C1132 H1126 0.930 . S
C1132 C1133 1.367 . S
C1132 C1140 1.378 . S
C1133 C1132 1.367 . S
C1133 C1141 1.433 . S
C1134 H1130 0.929 . S
C1134 C1136 1.378 . S
C1134 C1138 1.350 . S
C1135 C1138 1.463 . S
C1135 C1140 1.350 . S
C1135 N1143 1.427 . S
C1136 H1127 0.930 . S
C1136 C1134 1.378 . S
C1136 C1137 1.367 . S
C1137 C1136 1.367 . S
C1137 C1139 1.433 . S
C1138 C1134 1.350 . S
C1138 C1135 1.463 . S
C1138 N1142 1.427 . S
C1139 H1129 0.929 . S
C1139 C1137 1.433 . S
C1139 N1142 1.384 . S
C1140 H1131 0.929 . S
C1140 C1132 1.378 . S
C1140 C1135 1.350 . S
C1141 H1128 0.929 . S
C1141 C1133 1.433 . S
C1141 N1143 1.384 . S
N1142 C1138 1.427 . S
N1142 C1139 1.384 . S
N1143 C1135 1.427 . S
N1143 C1141 1.384 . S
H1144 C1150 0.930 . S
H1145 C1154 0.930 . S
H1146 C1159 0.929 . S
H1147 C1157 0.929 . S
H1148 C1152 0.929 . S
H1149 C1158 0.929 . S
C1150 H1144 0.930 . S
C1150 C1151 1.367 . S
C1150 C1158 1.378 . S
C1151 C1150 1.367 . S
C1151 C1159 1.433 . S
C1152 H1148 0.929 . S
C1152 C1154 1.378 . S
C1152 C1156 1.350 1_655 S
C1153 C1156 1.463 . S
C1153 C1158 1.350 . S
C1153 N1161 1.427 . S
C1154 H1145 0.930 . S
C1154 C1152 1.378 . S
C1154 C1155 1.367 . S
C1155 C1154 1.367 . S
C1155 C1157 1.433 1_655 S
C1156 C1152 1.350 1_455 S
C1156 C1153 1.463 . S
C1156 N1160 1.427 . S
C1157 H1147 0.929 . S
C1157 C1155 1.433 1_455 S
C1157 N1160 1.384 . S
C1158 H1149 0.929 . S
C1158 C1150 1.378 . S
C1158 C1153 1.350 . S
C1159 H1146 0.929 . S
C1159 C1151 1.433 . S
C1159 N1161 1.384 . S
N1160 C1156 1.427 . S
N1160 C1157 1.384 . S
N1161 C1153 1.427 . S
N1161 C1159 1.384 . S
H1162 C1168 0.930 . S
H1163 C1172 0.930 . S
H1164 C1177 0.929 . S
H1165 C1175 0.929 . S
H1166 C1170 0.929 . S
H1167 C1176 0.929 1_665 S
C1168 H1162 0.930 . S
C1168 C1169 1.367 . S
C1168 C1176 1.378 1_655 S
C1169 C1168 1.367 . S
C1169 C1177 1.433 1_655 S
C1170 H1166 0.929 . S
C1170 C1172 1.378 . S
C1170 C1174 1.350 . S
C1171 C1174 1.463 . S
C1171 C1176 1.350 . S
C1171 N1179 1.427 . S
C1172 H1163 0.930 . S
C1172 C1170 1.378 . S
C1172 C1173 1.367 1_545 S
C1173 C1172 1.367 1_565 S
C1173 C1175 1.433 . S
C1174 C1170 1.350 . S
C1174 C1171 1.463 . S
C1174 N1178 1.427 1_545 S
C1175 H1165 0.929 . S
C1175 C1173 1.433 . S
C1175 N1178 1.384 . S
C1176 H1167 0.929 1_445 S
C1176 C1168 1.378 1_455 S
C1176 C1171 1.350 . S
C1177 H1164 0.929 . S
C1177 C1169 1.433 1_455 S
C1177 N1179 1.384 . S
N1178 C1174 1.427 1_565 S
N1178 C1175 1.384 . S
N1179 C1171 1.427 . S
N1179 C1177 1.384 . S
H1180 C1186 0.930 . S
H1181 C1190 0.930 . S
H1182 C1195 0.929 . S
H1183 C1193 0.929 . S
H1184 C1188 0.929 . S
H1185 C1194 0.929 . S
C1186 H1180 0.930 . S
C1186 C1187 1.367 . S
C1186 C1194 1.378 . S
C1187 C1186 1.367 . S
C1187 C1195 1.433 1_565 S
C1188 H1184 0.929 . S
C1188 C1190 1.378 . S
C1188 C1192 1.350 . S
C1189 C1192 1.463 . S
C1189 C1194 1.350 1_545 S
C1189 N1197 1.427 . S
C1190 H1181 0.930 . S
C1190 C1188 1.378 . S
C1190 C1191 1.367 . S
C1191 C1190 1.367 . S
C1191 C1193 1.433 . S
C1192 C1188 1.350 . S
C1192 C1189 1.463 . S
C1192 N1196 1.427 . S
C1193 H1183 0.929 . S
C1193 C1191 1.433 . S
C1193 N1196 1.384 . S
C1194 H1185 0.929 . S
C1194 C1186 1.378 . S
C1194 C1189 1.350 1_565 S
C1195 H1182 0.929 . S
C1195 C1187 1.433 1_545 S
C1195 N1197 1.384 . S
N1196 C1192 1.427 . S
N1196 C1193 1.384 . S
N1197 C1189 1.427 . S
N1197 C1195 1.384 . S
H1198 C1204 0.930 . S
H1199 C1208 0.930 . S
H1200 C1213 0.929 . S
H1201 C1211 0.929 . S
H1202 C1206 0.929 . S
H1203 C1212 0.929 . S
C1204 H1198 0.930 . S
C1204 C1205 1.367 . S
C1204 C1212 1.378 . S
C1205 C1204 1.367 . S
C1205 C1213 1.433 . S
C1206 H1202 0.929 . S
C1206 C1208 1.378 . S
C1206 C1210 1.350 . S
C1207 C1210 1.463 . S
C1207 C1212 1.350 . S
C1207 N1215 1.427 . S
C1208 H1199 0.930 . S
C1208 C1206 1.378 . S
C1208 C1209 1.367 . S
C1209 C1208 1.367 . S
C1209 C1211 1.433 . S
C1210 C1206 1.350 . S
C1210 C1207 1.463 . S
C1210 N1214 1.427 . S
C1211 H1201 0.929 . S
C1211 C1209 1.433 . S
C1211 N1214 1.384 . S
C1212 H1203 0.929 . S
C1212 C1204 1.378 . S
C1212 C1207 1.350 . S
C1213 H1200 0.929 . S
C1213 C1205 1.433 . S
C1213 N1215 1.384 . S
N1214 C1210 1.427 . S
N1214 C1211 1.384 . S
N1215 C1207 1.427 . S
N1215 C1213 1.384 . S
C359 C70 1.214 . S
C363 C8 1.248 . S
C377 C4 1.214 1_655 S
C381 C30 1.248 . S
C395 C52 1.237 . S
C399 C26 1.205 1_565 S
C413 C48 1.209 . S
C417 C74 1.248 . S
C431 C92 1.238 . S
C435 C114 1.220 1_565 S
C449 C118 1.236 . S
C453 C140 1.217 . S
C467 C136 1.235 . S
C471 C162 1.214 . S
C485 C96 1.212 1_655 S
C489 C158 1.235 . S
C503 C184 1.241 . S
C507 C246 1.221 . S
C521 C180 1.204 1_455 S
C525 C202 1.246 . S
C539 C206 1.204 1_545 S
C543 C228 1.246 . S
C557 C224 1.216 . S
C561 C250 1.247 . S
C575 C268 1.235 . S
C579 C294 1.213 1_545 S
C593 C316 1.206 . S
C597 C290 1.247 . S
C611 C338 1.217 . S
C615 C312 1.236 . S
C629 C334 1.237 . S
C633 C272 1.205 1_455 S
C647 C6 0.606 . S
C651 C95 0.620 . S
C665 C116 0.585 . S
C669 C28 0.607 . S
C683 C50 0.605 . S
C687 C139 0.620 . S
C701 C72 0.621 . S
C705 C161 0.599 . S
C719 C273 0.620 . S
C723 C181 0.604 . S
C737 C295 0.609 . S
C741 C207 0.585 . S
C755 C225 0.620 . S
C759 C317 0.593 . S
C773 C339 0.594 . S
C777 C247 0.620 . S
C791 C5 2.009 . S
C795 C49 2.009 . S
C809 C27 2.011 . S
C813 C71 2.008 . S
C827 C141 2.014 . S
C831 C97 2.013 . S
C845 C163 2.011 . S
C849 C115 2.008 . S
C863 C226 2.011 . S
C867 C182 2.014 . S
C881 C248 2.008 . S
C885 C205 2.010 . S
C899 C271 2.014 . S
C903 C315 2.011 . S
C917 C293 2.013 . S
C921 C337 2.009 . S
C935 C185 1.504 . S
C939 C7 1.504 . S
C953 C203 1.506 . S
C957 C29 1.506 . S
C971 C229 1.510 . S
C975 C51 1.510 . S
C989 C73 1.497 . S
C993 C251 1.497 . S
C1007 C269 1.513 . S
C1011 C94 1.513 . S
C1025 C291 1.499 . S
C1029 C117 1.499 . S
C1043 C313 1.499 . S
C1047 C138 1.499 . S
C1061 C335 1.504 . S
C1065 C160 1.504 . S
C1079 C159 1.257 . S
C1083 C9 1.262 . S
C1097 C93 1.238 . S
C1101 C31 1.249 . S
C1115 C119 1.239 . S
C1119 C53 1.237 . S
C1133 C137 1.253 . S
C1137 C75 1.257 . S
C1151 C336 1.241 . S
C1155 C183 1.253 . S
C1169 C270 1.255 . S
C1173 C204 1.244 . S
C1187 C292 1.253 . S
C1191 C227 1.241 . S
C1205 C249 1.242 . S
C1209 C314 1.236 . S
