# Generated by pormake.
# Topology wne, (6)-cn, num edge types: 1
# Building blocks:
#     Node 0, Type 0, BuildingBlock: JUFBIX_clean_sbu_0, # of connection points: 6
#     Node 1, Type 0, BuildingBlock: JUFBIX_clean_sbu_0, # of connection points: 6
#     Node 2, Type 0, BuildingBlock: JUFBIX_clean_sbu_0, # of connection points: 6
#     Node 3, Type 0, BuildingBlock: JUFBIX_clean_sbu_0, # of connection points: 6
#     Node 4, Type 0, BuildingBlock: JUFBIX_clean_sbu_0, # of connection points: 6
#     Node 5, Type 0, BuildingBlock: JUFBIX_clean_sbu_0, # of connection points: 6
#     Node 6, Type 0, BuildingBlock: JUFBIX_clean_sbu_0, # of connection points: 6
#     Node 7, Type 0, BuildingBlock: JUFBIX_clean_sbu_0, # of connection points: 6
#     Node 8, Type 0, BuildingBlock: JUFBIX_clean_sbu_0, # of connection points: 6
#     Node 9, Type 0, BuildingBlock: JUFBIX_clean_sbu_0, # of connection points: 6
#     Node 10, Type 0, BuildingBlock: JUFBIX_clean_sbu_0, # of connection points: 6
#     Node 11, Type 0, BuildingBlock: JUFBIX_clean_sbu_0, # of connection points: 6
#     Node 12, Type 0, BuildingBlock: JUFBIX_clean_sbu_0, # of connection points: 6
#     Node 13, Type 0, BuildingBlock: JUFBIX_clean_sbu_0, # of connection points: 6
#     Node 14, Type 0, BuildingBlock: JUFBIX_clean_sbu_0, # of connection points: 6
#     Node 15, Type 0, BuildingBlock: JUFBIX_clean_sbu_0, # of connection points: 6
#     Node 16, Type 0, BuildingBlock: JUFBIX_clean_sbu_0, # of connection points: 6
#     Node 17, Type 0, BuildingBlock: JUFBIX_clean_sbu_0, # of connection points: 6
#     Node 18, Type 0, BuildingBlock: JUFBIX_clean_sbu_0, # of connection points: 6
#     Node 19, Type 0, BuildingBlock: JUFBIX_clean_sbu_0, # of connection points: 6
#     Node 20, Type 0, BuildingBlock: JUFBIX_clean_sbu_0, # of connection points: 6
#     Node 21, Type 0, BuildingBlock: JUFBIX_clean_sbu_0, # of connection points: 6
#     Node 22, Type 0, BuildingBlock: JUFBIX_clean_sbu_0, # of connection points: 6
#     Node 23, Type 0, BuildingBlock: JUFBIX_clean_sbu_0, # of connection points: 6
#     Node 24, Type 0, BuildingBlock: JUFBIX_clean_sbu_0, # of connection points: 6
#     Node 25, Type 0, BuildingBlock: JUFBIX_clean_sbu_0, # of connection points: 6
#     Node 26, Type 0, BuildingBlock: JUFBIX_clean_sbu_0, # of connection points: 6
#     Node 27, Type 0, BuildingBlock: JUFBIX_clean_sbu_0, # of connection points: 6
#     Node 28, Type 0, BuildingBlock: JUFBIX_clean_sbu_0, # of connection points: 6
#     Node 29, Type 0, BuildingBlock: JUFBIX_clean_sbu_0, # of connection points: 6
#     Node 30, Type 0, BuildingBlock: JUFBIX_clean_sbu_0, # of connection points: 6
#     Node 31, Type 0, BuildingBlock: JUFBIX_clean_sbu_0, # of connection points: 6
#     Node 32, Type 0, BuildingBlock: JUFBIX_clean_sbu_0, # of connection points: 6
#     Node 33, Type 0, BuildingBlock: JUFBIX_clean_sbu_0, # of connection points: 6
#     Node 34, Type 0, BuildingBlock: JUFBIX_clean_sbu_0, # of connection points: 6
#     Node 35, Type 0, BuildingBlock: JUFBIX_clean_sbu_0, # of connection points: 6
#     Edge 36, Type (0, 0), BuildingBlock: AJUNOK_clean_linker_0, # of connection points: 2
#     Edge 37, Type (0, 0), BuildingBlock: AJUNOK_clean_linker_0, # of connection points: 2
#     Edge 38, Type (0, 0), BuildingBlock: AJUNOK_clean_linker_0, # of connection points: 2
#     Edge 39, Type (0, 0), BuildingBlock: AJUNOK_clean_linker_0, # of connection points: 2
#     Edge 40, Type (0, 0), BuildingBlock: AJUNOK_clean_linker_0, # of connection points: 2
#     Edge 41, Type (0, 0), BuildingBlock: AJUNOK_clean_linker_0, # of connection points: 2
#     Edge 42, Type (0, 0), BuildingBlock: AJUNOK_clean_linker_0, # of connection points: 2
#     Edge 43, Type (0, 0), BuildingBlock: AJUNOK_clean_linker_0, # of connection points: 2
#     Edge 44, Type (0, 0), BuildingBlock: AJUNOK_clean_linker_0, # of connection points: 2
#     Edge 45, Type (0, 0), BuildingBlock: AJUNOK_clean_linker_0, # of connection points: 2
#     Edge 46, Type (0, 0), BuildingBlock: AJUNOK_clean_linker_0, # of connection points: 2
#     Edge 47, Type (0, 0), BuildingBlock: AJUNOK_clean_linker_0, # of connection points: 2
#     Edge 48, Type (0, 0), BuildingBlock: AJUNOK_clean_linker_0, # of connection points: 2
#     Edge 49, Type (0, 0), BuildingBlock: AJUNOK_clean_linker_0, # of connection points: 2
#     Edge 50, Type (0, 0), BuildingBlock: AJUNOK_clean_linker_0, # of connection points: 2
#     Edge 51, Type (0, 0), BuildingBlock: AJUNOK_clean_linker_0, # of connection points: 2
#     Edge 52, Type (0, 0), BuildingBlock: AJUNOK_clean_linker_0, # of connection points: 2
#     Edge 53, Type (0, 0), BuildingBlock: AJUNOK_clean_linker_0, # of connection points: 2
#     Edge 54, Type (0, 0), BuildingBlock: AJUNOK_clean_linker_0, # of connection points: 2
#     Edge 55, Type (0, 0), BuildingBlock: AJUNOK_clean_linker_0, # of connection points: 2
#     Edge 56, Type (0, 0), BuildingBlock: AJUNOK_clean_linker_0, # of connection points: 2
#     Edge 57, Type (0, 0), BuildingBlock: AJUNOK_clean_linker_0, # of connection points: 2
#     Edge 58, Type (0, 0), BuildingBlock: AJUNOK_clean_linker_0, # of connection points: 2
#     Edge 59, Type (0, 0), BuildingBlock: AJUNOK_clean_linker_0, # of connection points: 2
#     Edge 60, Type (0, 0), BuildingBlock: AJUNOK_clean_linker_0, # of connection points: 2
#     Edge 61, Type (0, 0), BuildingBlock: AJUNOK_clean_linker_0, # of connection points: 2
#     Edge 62, Type (0, 0), BuildingBlock: AJUNOK_clean_linker_0, # of connection points: 2
#     Edge 63, Type (0, 0), BuildingBlock: AJUNOK_clean_linker_0, # of connection points: 2
#     Edge 64, Type (0, 0), BuildingBlock: AJUNOK_clean_linker_0, # of connection points: 2
#     Edge 65, Type (0, 0), BuildingBlock: AJUNOK_clean_linker_0, # of connection points: 2
#     Edge 66, Type (0, 0), BuildingBlock: AJUNOK_clean_linker_0, # of connection points: 2
#     Edge 67, Type (0, 0), BuildingBlock: AJUNOK_clean_linker_0, # of connection points: 2
#     Edge 68, Type (0, 0), BuildingBlock: AJUNOK_clean_linker_0, # of connection points: 2
#     Edge 69, Type (0, 0), BuildingBlock: AJUNOK_clean_linker_0, # of connection points: 2
#     Edge 70, Type (0, 0), BuildingBlock: AJUNOK_clean_linker_0, # of connection points: 2
#     Edge 71, Type (0, 0), BuildingBlock: AJUNOK_clean_linker_0, # of connection points: 2
#     Edge 72, Type (0, 0), BuildingBlock: AJUNOK_clean_linker_0, # of connection points: 2
#     Edge 73, Type (0, 0), BuildingBlock: AJUNOK_clean_linker_0, # of connection points: 2
#     Edge 74, Type (0, 0), BuildingBlock: AJUNOK_clean_linker_0, # of connection points: 2
#     Edge 75, Type (0, 0), BuildingBlock: AJUNOK_clean_linker_0, # of connection points: 2
#     Edge 76, Type (0, 0), BuildingBlock: AJUNOK_clean_linker_0, # of connection points: 2
#     Edge 77, Type (0, 0), BuildingBlock: AJUNOK_clean_linker_0, # of connection points: 2
#     Edge 78, Type (0, 0), BuildingBlock: AJUNOK_clean_linker_0, # of connection points: 2
#     Edge 79, Type (0, 0), BuildingBlock: AJUNOK_clean_linker_0, # of connection points: 2
#     Edge 80, Type (0, 0), BuildingBlock: AJUNOK_clean_linker_0, # of connection points: 2
#     Edge 81, Type (0, 0), BuildingBlock: AJUNOK_clean_linker_0, # of connection points: 2
#     Edge 82, Type (0, 0), BuildingBlock: AJUNOK_clean_linker_0, # of connection points: 2
#     Edge 83, Type (0, 0), BuildingBlock: AJUNOK_clean_linker_0, # of connection points: 2
#     Edge 84, Type (0, 0), BuildingBlock: AJUNOK_clean_linker_0, # of connection points: 2
#     Edge 85, Type (0, 0), BuildingBlock: AJUNOK_clean_linker_0, # of connection points: 2
#     Edge 86, Type (0, 0), BuildingBlock: AJUNOK_clean_linker_0, # of connection points: 2
#     Edge 87, Type (0, 0), BuildingBlock: AJUNOK_clean_linker_0, # of connection points: 2
#     Edge 88, Type (0, 0), BuildingBlock: AJUNOK_clean_linker_0, # of connection points: 2
#     Edge 89, Type (0, 0), BuildingBlock: AJUNOK_clean_linker_0, # of connection points: 2
#     Edge 90, Type (0, 0), BuildingBlock: AJUNOK_clean_linker_0, # of connection points: 2
#     Edge 91, Type (0, 0), BuildingBlock: AJUNOK_clean_linker_0, # of connection points: 2
#     Edge 92, Type (0, 0), BuildingBlock: AJUNOK_clean_linker_0, # of connection points: 2
#     Edge 93, Type (0, 0), BuildingBlock: AJUNOK_clean_linker_0, # of connection points: 2
#     Edge 94, Type (0, 0), BuildingBlock: AJUNOK_clean_linker_0, # of connection points: 2
#     Edge 95, Type (0, 0), BuildingBlock: AJUNOK_clean_linker_0, # of connection points: 2
#     Edge 96, Type (0, 0), BuildingBlock: AJUNOK_clean_linker_0, # of connection points: 2
#     Edge 97, Type (0, 0), BuildingBlock: AJUNOK_clean_linker_0, # of connection points: 2
#     Edge 98, Type (0, 0), BuildingBlock: AJUNOK_clean_linker_0, # of connection points: 2
#     Edge 99, Type (0, 0), BuildingBlock: AJUNOK_clean_linker_0, # of connection points: 2
#     Edge 100, Type (0, 0), BuildingBlock: AJUNOK_clean_linker_0, # of connection points: 2
#     Edge 101, Type (0, 0), BuildingBlock: AJUNOK_clean_linker_0, # of connection points: 2
#     Edge 102, Type (0, 0), BuildingBlock: AJUNOK_clean_linker_0, # of connection points: 2
#     Edge 103, Type (0, 0), BuildingBlock: AJUNOK_clean_linker_0, # of connection points: 2
#     Edge 104, Type (0, 0), BuildingBlock: AJUNOK_clean_linker_0, # of connection points: 2
#     Edge 105, Type (0, 0), BuildingBlock: AJUNOK_clean_linker_0, # of connection points: 2
#     Edge 106, Type (0, 0), BuildingBlock: AJUNOK_clean_linker_0, # of connection points: 2
#     Edge 107, Type (0, 0), BuildingBlock: AJUNOK_clean_linker_0, # of connection points: 2
#     Edge 108, Type (0, 0), BuildingBlock: AJUNOK_clean_linker_0, # of connection points: 2
#     Edge 109, Type (0, 0), BuildingBlock: AJUNOK_clean_linker_0, # of connection points: 2
#     Edge 110, Type (0, 0), BuildingBlock: AJUNOK_clean_linker_0, # of connection points: 2
#     Edge 111, Type (0, 0), BuildingBlock: AJUNOK_clean_linker_0, # of connection points: 2
#     Edge 112, Type (0, 0), BuildingBlock: AJUNOK_clean_linker_0, # of connection points: 2
#     Edge 113, Type (0, 0), BuildingBlock: AJUNOK_clean_linker_0, # of connection points: 2
#     Edge 114, Type (0, 0), BuildingBlock: AJUNOK_clean_linker_0, # of connection points: 2
#     Edge 115, Type (0, 0), BuildingBlock: AJUNOK_clean_linker_0, # of connection points: 2
#     Edge 116, Type (0, 0), BuildingBlock: AJUNOK_clean_linker_0, # of connection points: 2
#     Edge 117, Type (0, 0), BuildingBlock: AJUNOK_clean_linker_0, # of connection points: 2
#     Edge 118, Type (0, 0), BuildingBlock: AJUNOK_clean_linker_0, # of connection points: 2
#     Edge 119, Type (0, 0), BuildingBlock: AJUNOK_clean_linker_0, # of connection points: 2
#     Edge 120, Type (0, 0), BuildingBlock: AJUNOK_clean_linker_0, # of connection points: 2
#     Edge 121, Type (0, 0), BuildingBlock: AJUNOK_clean_linker_0, # of connection points: 2
#     Edge 122, Type (0, 0), BuildingBlock: AJUNOK_clean_linker_0, # of connection points: 2
#     Edge 123, Type (0, 0), BuildingBlock: AJUNOK_clean_linker_0, # of connection points: 2
#     Edge 124, Type (0, 0), BuildingBlock: AJUNOK_clean_linker_0, # of connection points: 2
#     Edge 125, Type (0, 0), BuildingBlock: AJUNOK_clean_linker_0, # of connection points: 2
#     Edge 126, Type (0, 0), BuildingBlock: AJUNOK_clean_linker_0, # of connection points: 2
#     Edge 127, Type (0, 0), BuildingBlock: AJUNOK_clean_linker_0, # of connection points: 2
#     Edge 128, Type (0, 0), BuildingBlock: AJUNOK_clean_linker_0, # of connection points: 2
#     Edge 129, Type (0, 0), BuildingBlock: AJUNOK_clean_linker_0, # of connection points: 2
#     Edge 130, Type (0, 0), BuildingBlock: AJUNOK_clean_linker_0, # of connection points: 2
#     Edge 131, Type (0, 0), BuildingBlock: AJUNOK_clean_linker_0, # of connection points: 2
#     Edge 132, Type (0, 0), BuildingBlock: AJUNOK_clean_linker_0, # of connection points: 2
#     Edge 133, Type (0, 0), BuildingBlock: AJUNOK_clean_linker_0, # of connection points: 2
#     Edge 134, Type (0, 0), BuildingBlock: AJUNOK_clean_linker_0, # of connection points: 2
#     Edge 135, Type (0, 0), BuildingBlock: AJUNOK_clean_linker_0, # of connection points: 2
#     Edge 136, Type (0, 0), BuildingBlock: AJUNOK_clean_linker_0, # of connection points: 2
#     Edge 137, Type (0, 0), BuildingBlock: AJUNOK_clean_linker_0, # of connection points: 2
#     Edge 138, Type (0, 0), BuildingBlock: AJUNOK_clean_linker_0, # of connection points: 2
#     Edge 139, Type (0, 0), BuildingBlock: AJUNOK_clean_linker_0, # of connection points: 2
#     Edge 140, Type (0, 0), BuildingBlock: AJUNOK_clean_linker_0, # of connection points: 2
#     Edge 141, Type (0, 0), BuildingBlock: AJUNOK_clean_linker_0, # of connection points: 2
#     Edge 142, Type (0, 0), BuildingBlock: AJUNOK_clean_linker_0, # of connection points: 2
#     Edge 143, Type (0, 0), BuildingBlock: AJUNOK_clean_linker_0, # of connection points: 2
# Relax obj value: 0.305
# Max RMSD: 0.217
# Mean RMSD: 0.217
data_MOF--net-wne--node1-JUFBIX_clean_sbu_0--edge1-AJUNOK_clean_linker_0
_symmetry_space_group_name_H-M    P1
_symmetry_Int_Tables_number       1
_symmetry_cell_setting            triclinic
loop_
_symmetry_equiv_pos_as_xyz
'x, y, z'
_cell_length_a     54.484814
_cell_length_b     54.44255
_cell_length_c     27.710439
_cell_angle_alpha  90.007843
_cell_angle_beta   90.056589
_cell_angle_gamma 120.08212
loop_
_atom_site_label
_atom_site_type_symbol
_atom_site_fract_x
_atom_site_fract_y
_atom_site_fract_z
_atom_type_partial_charge
Co0 Co 0.2615 0.23786 0.08504 0.0
C1 C 0.31353 0.25774 1.0304 0.0
Co2 Co 0.29832 0.24321 0.12722 0.0
C3 C 0.21325 0.24632 0.05314 0.0
C4 C 0.21482 0.21298 1.01513 0.0
N5 N 0.22877 0.23293 0.04927 0.0
N6 N 0.19023 0.23523 1.02322 0.0
C7 C 0.19133 0.21418 0.99961 0.0
H8 H 0.21825 0.26337 0.0784 0.0
H9 H 0.22104 0.1981 1.00253 0.0
C10 C 0.25139 0.22672 0.18723 0.0
N11 N 0.3288 0.24895 0.16283 0.0
C12 C 0.34354 0.23593 0.15355 0.0
C13 C 0.33573 0.25878 0.20837 0.0
N14 N 0.35764 0.23494 0.19247 0.0
C15 C 0.35333 0.24984 0.22701 0.0
C16 C 0.29401 0.29166 0.12112 0.0
O17 O 0.23938 0.22844 0.14824 0.0
O18 O 0.27627 0.23081 0.18374 0.0
O19 O 0.3075 0.28084 0.1405 0.0
O20 O 0.27293 0.27653 0.09413 0.0
O21 O 0.32179 0.25624 0.07239 0.0
H22 H 0.32568 0.26835 0.22862 0.0
H23 H 0.34015 0.2232 0.12143 0.0
O24 O 0.28684 0.24932 1.0248 0.0
O25 O 0.25036 0.19754 0.07531 0.0
O26 O 0.28862 0.20449 0.11283 0.0
C27 C 0.26625 0.18783 0.08939 0.0
H28 H 0.17615 0.20054 0.97275 0.0
H29 H 0.35915 0.25073 0.26458 0.0
Co30 Co 0.80858 0.03471 0.08298 0.0
C31 C 0.78879 0.0667 1.0272 0.0
Co32 Co 0.80452 0.06745 0.12353 0.0
C33 C 0.80015 0.97773 0.05281 0.0
C34 C 0.83261 1.01239 1.01298 0.0
N35 N 0.81322 1.00661 0.04792 0.0
N36 N 0.81094 0.96563 1.02271 0.0
C37 C 0.83143 0.98763 0.99794 0.0
H38 H 0.78355 0.96586 0.07885 0.0
H39 H 0.84708 0.03342 0.99942 0.0
C40 C 0.82062 0.03697 0.1848 0.0
N41 N 0.79893 0.09249 0.15844 0.0
C42 C 0.81209 0.12034 0.14944 0.0
C43 C 0.78838 0.08934 0.20342 0.0
N44 N 0.81246 0.13522 0.18826 0.0
C45 C 0.79702 0.11582 0.22216 0.0
C46 C 0.75517 1.01481 0.11877 0.0
O47 O 0.81851 0.02274 0.14627 0.0
O48 O 0.8167 0.05786 0.18063 0.0
O49 O 0.76699 0.03962 0.13647 0.0
O50 O 0.76969 1.00734 0.09339 0.0
O51 O 0.79167 0.07774 0.06844 0.0
H52 H 0.77849 0.06962 0.2234 0.0
H53 H 0.82534 0.12987 0.11804 0.0
O54 O 0.7966 0.04794 1.02219 0.0
O55 O 0.84899 0.06392 0.07216 0.0
O56 O 0.84314 0.09606 0.10927 0.0
C57 C 0.85928 0.08974 0.08582 0.0
H58 H 0.84465 0.98593 0.97053 0.0
H59 H 0.79573 0.12056 0.25972 0.0
Co60 Co 1.00953 0.78247 0.08441 0.0
C61 C 0.97724 0.7311 1.02621 0.0
Co62 Co 0.97656 0.7445 0.12262 0.0
C63 C 0.06521 0.83528 0.0604 0.0
C64 C 0.03432 0.82134 1.00392 0.0
N65 N 0.03783 0.81513 0.04961 0.0
N66 N 0.07867 0.85344 1.02299 0.0
C67 C 0.05909 0.8444 0.98759 0.0
H68 H 0.07541 0.83595 0.09431 0.0
H69 H 1.01506 0.80939 0.98316 0.0
C70 C 1.00789 0.79001 0.18671 0.0
N71 N 0.95095 0.71297 0.15562 0.0
C72 C 0.92303 0.69952 0.14734 0.0
C73 C 0.95402 0.7014 0.19658 0.0
N74 N 0.90821 0.68212 0.18354 0.0
C75 C 0.92757 0.68265 0.21439 0.0
C76 C 0.02891 0.74789 0.11784 0.0
O77 O 1.02151 0.80363 0.14862 0.0
O78 O 0.98684 0.76526 0.18097 0.0
O79 O 1.0038 0.73411 0.13385 0.0
O80 O 0.03673 0.77071 0.09456 0.0
O81 O 0.9658 0.72228 0.06684 0.0
H82 H 0.97388 0.70791 0.21454 0.0
H83 H 0.91345 0.70528 0.11865 0.0
O84 O 0.99637 0.75768 1.02279 0.0
O85 O 0.98064 0.79412 0.07357 0.0
O86 O 0.94863 0.75555 0.10982 0.0
C87 C 0.9548 0.77817 0.08685 0.0
H88 H 0.06255 0.85369 0.95193 0.0
H89 H 0.92296 0.67309 0.24991 0.0
Co90 Co 0.2454 0.25354 0.49326 0.0
C91 C 0.26498 0.30539 0.54865 0.0
Co92 Co 0.24929 0.29006 0.45211 0.0
C93 C 0.25302 0.20436 0.52232 0.0
C94 C 0.22268 0.20842 0.5653 0.0
N95 N 0.24097 0.22098 0.52846 0.0
N96 N 0.24255 0.18193 0.55338 0.0
C97 C 0.22347 0.18463 0.58027 0.0
H98 H 0.26864 0.2082 0.49482 0.0
H99 H 0.20924 0.21587 0.5802 0.0
C100 C 0.23384 0.24357 0.39114 0.0
N101 N 0.25449 0.32064 0.41738 0.0
C102 C 0.24005 0.33409 0.42555 0.0
C103 C 0.266 0.32909 0.37317 0.0
N104 N 0.23962 0.34852 0.38677 0.0
C105 C 0.2567 0.34629 0.354 0.0
C106 C 0.29862 0.28713 0.45669 0.0
O107 O 0.23574 0.23162 0.43004 0.0
O108 O 0.23724 0.26823 0.39488 0.0
O109 O 0.28675 0.30002 0.43892 0.0
O110 O 0.28424 0.26537 0.48276 0.0
O111 O 0.2621 0.31335 0.50724 0.0
H112 H 0.27726 0.32048 0.35389 0.0
H113 H 0.22626 0.32971 0.45645 0.0
O114 O 0.25723 0.27883 0.55394 0.0
O115 O 0.20495 0.24183 0.50418 0.0
O116 O 0.21068 0.2796 0.46655 0.0
C117 C 0.19463 0.25722 0.49025 0.0
H118 H 0.21095 0.17037 0.609 0.0
H119 H 0.25912 0.35332 0.3169 0.0
Co120 Co 0.79374 1.00309 0.49027 0.0
C121 C 0.74097 0.97021 0.54415 0.0
Co122 Co 0.75674 0.97211 0.44783 0.0
C123 C 0.84556 0.05803 0.5178 0.0
C124 C 0.83046 0.02708 0.57421 0.0
N125 N 0.82548 0.03052 0.52772 0.0
N126 N 0.86249 0.07171 0.55645 0.0
C127 C 0.85278 0.05208 0.59181 0.0
H128 H 0.84691 0.06821 0.48358 0.0
H129 H 0.81804 1.0078 0.59467 0.0
C130 C 0.80439 1.00327 0.3887 0.0
N131 N 0.7266 0.9481 0.41094 0.0
C132 C 0.7107 0.92032 0.41951 0.0
C133 C 0.72015 0.95189 0.36556 0.0
N134 N 0.69616 0.906 0.38028 0.0
C135 C 0.70159 0.92576 0.34626 0.0
C136 C 0.76149 0.02496 0.45532 0.0
O137 O 0.8166 1.01623 0.42815 0.0
O138 O 0.77925 0.98283 0.39159 0.0
O139 O 0.74738 1.00057 0.4364 0.0
O140 O 0.78294 0.0308 0.4811 0.0
O141 O 0.73281 0.96052 0.50212 0.0
H142 H 0.73091 0.97172 0.34596 0.0
H143 H 0.71334 0.91027 0.45125 0.0
O144 O 0.76756 0.98876 0.54973 0.0
O145 O 0.80445 0.97363 0.50045 0.0
O146 O 0.76643 0.94295 0.46095 0.0
C147 C 0.78836 0.94814 0.48543 0.0
H148 H 0.86105 0.05568 0.62826 0.0
H149 H 0.69579 0.92132 0.30855 0.0
Co150 Co 0.04341 0.79894 0.49424 0.0
C151 C 0.07686 0.78026 0.54905 0.0
Co152 Co 0.07625 0.79535 0.45316 0.0
C153 C 0.98777 0.79551 0.5203 0.0
C154 C 1.01813 0.81025 0.57765 0.0
N155 N 1.01501 0.80222 0.53096 0.0
N156 N 0.97399 0.79884 0.5587 0.0
C157 C 0.99327 0.80803 0.59462 0.0
H158 H 0.97789 0.78733 0.48559 0.0
H159 H 0.03718 0.81679 0.5986 0.0
C160 C 0.0438 0.80975 0.3926 0.0
N161 N 0.10152 0.79058 0.4172 0.0
C162 C 0.12929 0.80336 0.4268 0.0
C163 C 0.09873 0.78095 0.37155 0.0
N164 N 0.14437 0.80439 0.38793 0.0
C165 C 0.12527 0.7899 0.35314 0.0
C166 C 1.02435 0.74545 0.45778 0.0
O167 O 0.03023 0.80821 0.43159 0.0
O168 O 0.0653 0.80677 0.39646 0.0
O169 O 0.0492 0.75768 0.44054 0.0
O170 O 1.01664 0.75972 0.48348 0.0
O171 O 0.08774 0.78318 0.50771 0.0
H172 H 0.07926 0.77147 0.35106 0.0
H173 H 0.13868 0.81585 0.459 0.0
O174 O 0.05755 0.78727 0.55395 0.0
O175 O 0.07222 0.83977 0.50571 0.0
O176 O 0.10408 0.83403 0.46714 0.0
C177 C 0.09802 0.85003 0.49168 0.0
H178 H 0.98958 0.81269 0.631 0.0
H179 H 0.1303 0.78955 0.31543 0.0
Co180 Co 0.75358 0.79199 0.95109 0.0
C181 C 0.80008 0.80942 0.88971 0.0
Co182 Co 0.79135 0.79961 0.99265 0.0
C183 C 0.70637 0.79621 0.92429 0.0
C184 C 0.71481 0.77258 0.87188 0.0
N185 N 0.72214 0.78413 0.91629 0.0
N186 N 0.69129 0.79509 0.88523 0.0
C187 C 0.69594 0.7796 0.8524 0.0
H188 H 0.70967 0.80987 0.95495 0.0
H189 H 0.72534 0.76319 0.85261 0.0
C190 C 0.73981 0.77891 0.04879 0.0
N191 N 0.82501 0.80648 1.02716 0.0
C192 C 0.84125 0.79395 1.0223 0.0
C193 C 0.83909 0.82688 0.06054 0.0
N194 N 0.86479 0.8059 0.05096 0.0
C195 C 0.86333 0.8267 0.07479 0.0
C196 C 0.78433 0.84815 0.98674 0.0
O197 O 0.73093 0.77916 1.00673 0.0
O198 O 0.76676 0.78845 0.05392 0.0
O199 O 0.80117 0.83954 1.00049 0.0
O200 O 0.76191 0.83063 0.9641 0.0
O201 O 0.81273 0.80871 0.92862 0.0
H202 H 0.83238 0.84132 0.07354 0.0
H203 H 0.83628 0.77681 0.99728 0.0
O204 O 0.77485 0.80427 0.8936 0.0
O205 O 0.74574 0.75444 0.93946 0.0
O206 O 0.78122 0.76114 0.98578 0.0
C207 C 0.76011 0.74489 0.95978 0.0
H208 H 0.68969 0.77735 0.81481 0.0
H209 H 0.87863 0.8407 0.10118 0.0
Co210 Co 0.25027 0.97083 0.95441 0.0
C211 C 0.23549 1.00256 0.89423 0.0
Co212 Co 0.24564 1.00271 0.99671 0.0
C213 C 0.24279 0.91842 0.92554 0.0
C214 C 0.26931 0.95078 0.87546 0.0
N215 N 0.25656 0.94649 0.91881 0.0
N216 N 0.24429 0.9046 0.88669 0.0
C217 C 0.26152 0.9248 0.85528 0.0
H218 H 0.22821 0.90808 0.95513 0.0
H219 H 0.28054 0.97108 0.85736 0.0
C220 C 0.26491 0.96997 0.05099 0.0
N221 N 0.24049 0.03028 1.03226 0.0
C222 C 0.25219 0.05892 1.02566 0.0
C223 C 0.22202 0.02442 0.06883 0.0
N224 N 0.24138 0.07077 0.05614 0.0
C225 C 0.2224 0.04893 0.08319 0.0
C226 C 0.19505 0.94761 0.99058 0.0
O227 O 0.2614 0.95895 1.0096 0.0
O228 O 0.25777 0.98919 0.0568 0.0
O229 O 0.20523 0.97282 1.0074 0.0
O230 O 0.21125 0.94237 0.96496 0.0
O231 O 0.23602 1.01533 0.93373 0.0
H232 H 0.20872 1.0035 0.08386 0.0
H233 H 0.2678 0.07075 0.99814 0.0
O234 O 0.23996 0.98199 0.89723 0.0
O235 O 0.28834 0.99864 0.94505 0.0
O236 O 0.28442 0.03064 0.98695 0.0
C237 C 0.29951 0.02342 0.96271 0.0
H238 H 0.26499 0.92102 0.81821 0.0
H239 H 0.20966 0.05057 0.11158 0.0
Co240 Co 0.07341 0.29144 0.94899 0.0
C241 C 0.04437 0.24401 0.88926 0.0
Co242 Co 0.04354 0.25398 0.9914 0.0
C243 C 0.12447 0.3382 0.91845 0.0
C244 C 0.09151 0.32756 0.86668 0.0
N245 N 0.09646 0.32221 0.91213 0.0
N246 N 0.13769 0.35147 0.87767 0.0
C247 C 0.11708 0.34528 0.84502 0.0
H248 H 0.1354 0.33615 0.9495 0.0
H249 H 0.07128 0.31612 0.8484 0.0
C250 C 0.07418 0.30644 0.04579 0.0
N251 N 1.01689 0.2207 1.02692 0.0
C252 C 0.98813 0.20399 1.02176 0.0
C253 C 1.02336 0.20731 0.06131 0.0
N254 N 0.97675 0.18074 0.05098 0.0
C255 C 0.99905 0.18298 0.07581 0.0
C256 C 0.09926 0.26144 0.98589 0.0
O257 O 0.08315 0.31507 1.00355 0.0
O258 O 0.05739 0.2794 0.05179 0.0
O259 O 0.07379 0.24446 0.99961 0.0
O260 O 0.10405 0.28377 0.96306 0.0
O261 O 0.03086 0.23172 0.92819 0.0
H262 H 0.04455 0.21452 0.07472 0.0
H263 H 0.97582 0.20836 0.99607 0.0
O264 O 0.06447 0.26924 0.89284 0.0
O265 O 0.04341 0.29861 0.93631 0.0
O266 O 1.01511 0.26385 0.98419 0.0
C267 C 1.01968 0.28452 0.95732 0.0
H268 H 0.1205 0.34968 0.80675 0.0
H269 H 0.99787 0.16806 0.10284 0.0
Co270 Co 0.8018 0.74638 0.62535 0.0
C271 C 0.81764 0.793 0.68582 0.0
Co272 Co 0.80848 0.78365 0.58267 0.0
C273 C 0.80821 0.70078 0.65349 0.0
C274 C 0.78244 0.70719 0.70429 0.0
N275 N 0.79476 0.71533 0.66056 0.0
N276 N 0.80703 0.68568 0.69247 0.0
C277 C 0.79024 0.689 0.72433 0.0
H278 H 0.82251 0.70482 0.62354 0.0
H279 H 0.77171 0.71664 0.72277 0.0
C280 C 0.78897 0.73179 0.52758 0.0
N281 N 0.81458 0.81693 0.54732 0.0
C282 C 0.80213 0.83329 0.55204 0.0
C283 C 0.83447 0.83054 0.51305 0.0
N284 N 0.81372 0.85648 0.52252 0.0
C285 C 0.83414 0.85463 0.49826 0.0
C286 C 0.85796 0.77797 0.59025 0.0
O287 O 0.79084 0.72366 0.56948 0.0
O288 O 0.79673 0.75836 0.52217 0.0
O289 O 0.84857 0.79358 0.57323 0.0
O290 O 0.84106 0.7565 0.61545 0.0
O291 O 0.81804 0.80566 0.64619 0.0
H292 H 0.84867 0.82362 0.49979 0.0
H293 H 0.78535 0.82871 0.57758 0.0
O294 O 0.81209 0.76759 0.68294 0.0
O295 O 0.76361 0.73675 0.63402 0.0
O296 O 0.76996 0.77328 0.59097 0.0
C297 C 0.75381 0.75132 0.61531 0.0
H298 H 0.78716 0.68204 0.76156 0.0
H299 H 0.84783 0.86961 0.47128 0.0
Co300 Co 0.30216 0.06831 0.62231 0.0
C301 C 0.25807 0.03783 0.68857 0.0
Co302 Co 0.26326 0.03575 0.58525 0.0
C303 C 0.34722 0.12189 0.64684 0.0
C304 C 0.34751 0.09054 0.6926 0.0
N305 N 0.33464 0.09383 0.65356 0.0
N306 N 0.36527 0.13645 0.68253 0.0
C307 C 0.36596 0.11691 0.71136 0.0
H308 H 0.34042 0.13169 0.62003 0.0
H309 H 0.34219 0.07044 0.70863 0.0
C310 C 0.31374 0.06758 0.52516 0.0
N311 N 0.22909 1.00791 0.55254 0.0
C312 C 0.21284 0.97909 0.55783 0.0
C313 C 0.21471 1.014 0.51943 0.0
N314 N 0.18898 0.96735 0.52984 0.0
C315 C 0.1903 0.9895 0.50593 0.0
C316 C 0.2685 0.09086 0.58972 0.0
O317 O 0.32268 0.07905 0.56571 0.0
O318 O 0.28717 0.04813 0.52216 0.0
O319 O 0.25265 0.06521 0.57582 0.0
O320 O 0.29118 0.09682 0.61225 0.0
O321 O 0.24327 0.02467 0.65096 0.0
H322 H 0.22135 0.03505 0.50594 0.0
H323 H 0.21807 0.96699 0.58254 0.0
O324 O 0.28302 0.05817 0.68162 0.0
O325 O 0.31244 0.04014 0.63069 0.0
O326 O 0.27391 1.00794 0.59402 0.0
C327 C 0.29702 1.01492 0.61554 0.0
H328 H 0.37636 0.12122 0.74619 0.0
H329 H 0.17479 0.98805 0.4799 0.0
Co330 Co 0.98095 0.24432 0.62693 0.0
C331 C 1.01057 0.22703 0.68586 0.0
Co332 Co 1.01082 0.23763 0.58283 0.0
C333 C 0.9296 0.23997 0.65375 0.0
C334 C 0.96147 0.26317 0.70683 0.0
N335 N 0.95737 0.25174 0.66234 0.0
N336 N 0.91552 0.24132 0.69238 0.0
C337 C 0.93553 0.25644 0.72572 0.0
H338 H 0.9193 0.22645 0.62286 0.0
H339 H 0.98133 0.27246 0.7264 0.0
C340 C 0.97982 0.25865 0.52936 0.0
N341 N 0.03757 0.23133 0.54747 0.0
C342 C 0.06614 0.24277 0.55395 0.0
C343 C 0.03131 0.21235 0.51155 0.0
N344 N 0.07758 0.2313 0.52406 0.0
C345 C 0.05555 0.21218 0.49744 0.0
C346 C 0.95556 0.18862 0.58933 0.0
O347 O 0.97062 0.25729 0.57173 0.0
O348 O 0.99736 0.24946 0.52268 0.0
O349 O 0.9807 0.19784 0.57329 0.0
O350 O 0.95089 0.20555 0.61427 0.0
O351 O 1.02328 0.22782 0.64611 0.0
H352 H 1.01032 0.19913 0.49671 0.0
H353 H 0.07823 0.2587 0.58094 0.0
O354 O 0.9904 0.23208 0.68359 0.0
O355 O 1.01051 0.2819 0.63882 0.0
O356 O 0.03919 0.27601 0.59106 0.0
C357 C 0.03441 0.29181 0.61834 0.0
H358 H 0.93133 0.25877 0.76314 0.0
H359 H 0.05692 0.19908 0.46938 0.0
Co360 Co 0.92799 0.56948 0.41583 0.0
C361 C 0.98069 0.58891 0.36169 0.0
Co362 Co 0.96468 0.57403 0.45756 0.0
C363 C 0.87596 0.57262 0.38934 0.0
C364 C 0.89151 0.55776 0.33216 0.0
N365 N 0.89646 0.56593 0.37877 0.0
N366 N 0.8588 0.56914 0.35094 0.0
C367 C 0.86883 0.55989 0.3151 0.0
H368 H 0.87434 0.58093 0.42393 0.0
H369 H 0.90406 0.55125 0.31134 0.0
C370 C 0.91715 0.55808 0.51703 0.0
N371 N 0.99452 0.57865 0.49396 0.0
C372 C 1.008 0.56414 0.48651 0.0
C373 C 1.00214 0.58967 0.53871 0.0
N374 N 1.02188 0.5635 0.52597 0.0
C375 C 1.01893 0.58012 0.55878 0.0
C376 C 0.96164 0.6232 0.45191 0.0
O377 O 0.9051 0.55933 0.47779 0.0
O378 O 0.94223 0.56261 0.51406 0.0
O379 O 0.9754 0.6122 0.46956 0.0
O380 O 0.93965 0.60814 0.42679 0.0
O381 O 0.98852 0.58604 0.40322 0.0
H382 H 0.99322 0.60079 0.55755 0.0
H383 H 1.00407 0.55056 0.45544 0.0
O384 O 0.95432 0.5818 0.35643 0.0
O385 O 0.91634 0.52922 0.40393 0.0
O386 O 0.95352 0.53491 0.44382 0.0
C387 C 0.93153 0.51888 0.41897 0.0
H388 H 0.86046 0.55521 0.2787 0.0
H389 H 1.02531 0.58218 0.59625 0.0
Co390 Co 0.4745 0.36771 0.41767 0.0
C391 C 0.45521 0.40037 0.36252 0.0
Co392 Co 0.46948 0.39958 0.45929 0.0
C393 C 0.46783 0.31154 0.38745 0.0
C394 C 0.49872 0.34647 0.3459 0.0
N395 N 0.4799 0.34031 0.38198 0.0
N396 N 0.47875 0.2999 0.35672 0.0
C397 C 0.49818 0.32202 0.33071 0.0
H398 H 0.45185 0.29945 0.4143 0.0
H399 H 0.51233 0.36755 0.3317 0.0
C400 C 0.48494 0.36831 0.5198 0.0
N401 N 0.46269 0.42354 0.495 0.0
C402 C 0.47569 0.45156 0.48811 0.0
C403 C 0.45025 0.41901 0.53867 0.0
N404 N 0.47423 0.46523 0.52724 0.0
C405 C 0.45754 0.44485 0.55887 0.0
C406 C 0.42073 0.34677 0.45142 0.0
O407 O 0.48397 0.35514 0.48055 0.0
O408 O 0.48078 0.38909 0.51657 0.0
O409 O 0.43188 0.37135 0.46976 0.0
O410 O 0.43579 0.33978 0.42659 0.0
O411 O 0.45758 0.4108 0.40418 0.0
H412 H 0.43969 0.39873 0.55695 0.0
H413 H 0.48985 0.46208 0.45816 0.0
O414 O 0.46275 0.38141 0.35729 0.0
O415 O 0.51491 0.39762 0.40807 0.0
O416 O 0.50819 0.4287 0.44716 0.0
C417 C 0.52466 0.42321 0.42279 0.0
H418 H 0.51112 0.3206 0.30245 0.0
H419 H 0.45434 0.4485 0.59616 0.0
Co420 Co 0.67736 0.11592 0.41546 0.0
C421 C 0.6452 0.06352 0.36147 0.0
Co422 Co 0.64557 0.07952 0.45792 0.0
C423 C 0.73388 0.16508 0.38514 0.0
C424 C 0.69918 0.16142 0.34342 0.0
N425 N 0.70509 0.14858 0.37957 0.0
N426 N 0.74577 0.18766 0.35437 0.0
C427 C 0.72378 0.18521 0.32828 0.0
H428 H 0.74581 0.16106 0.41212 0.0
H429 H 0.67815 0.15419 0.32918 0.0
C430 C 0.6764 0.12679 0.51744 0.0
N431 N 0.62142 0.04902 0.49414 0.0
C432 C 0.59339 0.03404 0.48742 0.0
C433 C 0.62596 0.04128 0.53799 0.0
N434 N 0.57977 0.01904 0.52672 0.0
C435 C 0.60019 0.02275 0.55828 0.0
C436 C 0.69849 0.08367 0.45256 0.0
O437 O 0.69004 0.13836 0.47822 0.0
O438 O 0.65534 0.10195 0.51451 0.0
O439 O 0.67397 0.07075 0.47104 0.0
O440 O 0.70503 0.1048 0.42531 0.0
O441 O 0.63507 0.05569 0.40337 0.0
H442 H 0.64622 0.05111 0.55632 0.0
H443 H 0.58285 0.03752 0.45729 0.0
O444 O 0.66353 0.09018 0.35539 0.0
O445 O 0.6477 0.12672 0.40513 0.0
O446 O 0.61639 0.0887 0.44348 0.0
C447 C 0.62202 0.11078 0.41926 0.0
H448 H 0.72538 0.19969 0.30006 0.0
H449 H 0.59665 1.0158 0.59551 0.0
Co450 Co 0.91227 0.58687 0.82218 0.0
C451 C 0.93153 0.63916 0.87619 0.0
Co452 Co 0.91581 0.62297 0.78003 0.0
C453 C 0.92002 0.53784 0.85233 0.0
C454 C 0.88969 0.54203 0.89512 0.0
N455 N 0.90791 0.55445 0.85814 0.0
N456 N 0.90971 0.51559 0.88378 0.0
C457 C 0.89062 0.51836 0.91051 0.0
H458 H 0.93555 0.54155 0.82474 0.0
H459 H 0.87618 0.54946 0.90978 0.0
C460 C 0.90033 0.57617 0.7202 0.0
N461 N 0.92118 0.65337 0.74461 0.0
C462 C 0.90835 0.6683 0.75395 0.0
C463 C 0.93179 0.66091 0.69968 0.0
N464 N 0.90833 0.6832 0.71549 0.0
C465 C 0.92354 0.67912 0.68136 0.0
C466 C 0.96558 0.62055 0.78637 0.0
O467 O 0.90229 0.56443 0.75935 0.0
O468 O 0.90399 0.60092 0.72341 0.0
O469 O 0.95363 0.63312 0.76765 0.0
O470 O 0.95111 0.59857 0.81186 0.0
O471 O 0.9282 0.64641 0.83453 0.0
H472 H 0.94161 0.65108 0.67957 0.0
H473 H 0.8952 0.66464 0.78546 0.0
O474 O 0.9244 0.6128 0.88229 0.0
O475 O 0.87184 0.57547 0.8333 0.0
O476 O 0.87709 0.61261 0.79392 0.0
C477 C 0.8613 0.59059 0.81874 0.0
H478 H 0.87811 0.50418 0.93934 0.0
H479 H 0.92505 0.68549 0.64396 0.0
Co480 Co 0.45739 0.33483 0.82522 0.0
C481 C 0.40543 0.30283 0.88072 0.0
Co482 Co 0.42023 0.30259 0.78441 0.0
C483 C 0.50705 0.39126 0.85454 0.0
C484 C 0.50305 0.35655 0.89666 0.0
N485 N 0.49029 0.36254 0.86047 0.0
N486 N 0.52976 0.40302 0.88508 0.0
C487 C 0.52709 0.38104 0.91144 0.0
H488 H 0.50311 0.40323 0.82751 0.0
H489 H 0.49558 0.33554 0.91119 0.0
C490 C 0.4669 0.33326 0.72328 0.0
N491 N 0.38939 0.27799 0.74918 0.0
C492 C 0.37486 0.24998 0.75671 0.0
C493 C 0.38192 0.28183 0.70465 0.0
N494 N 0.36072 0.23569 0.71715 0.0
C495 C 0.36437 0.25565 0.6846 0.0
C496 C 0.4241 0.35531 0.79083 0.0
O497 O 0.47929 0.347 0.76206 0.0
O498 O 0.44191 0.3126 0.7272 0.0
O499 O 0.41071 0.33062 0.77278 0.0
O500 O 0.44631 0.36253 0.81552 0.0
O501 O 0.39726 0.29194 0.83939 0.0
H502 H 0.39169 0.30189 0.68567 0.0
H503 H 0.37862 0.24003 0.78743 0.0
O504 O 0.43207 0.32148 0.88591 0.0
O505 O 0.46818 0.30523 0.83553 0.0
O506 O 0.43002 0.27373 0.79768 0.0
C507 C 0.45225 0.27952 0.82153 0.0
H508 H 0.54155 0.38258 0.93966 0.0
H509 H 0.35859 0.25162 0.64682 0.0
Co510 Co 0.71055 0.13278 0.82237 0.0
C511 C 0.74389 0.11382 0.87764 0.0
Co512 Co 0.74363 0.1293 0.78182 0.0
C513 C 0.6549 0.12925 0.84855 0.0
C514 C 0.6858 0.14498 0.90509 0.0
N515 N 0.68222 0.13614 0.85883 0.0
N516 N 0.64152 0.13327 0.88683 0.0
C517 C 0.66114 0.14308 0.92223 0.0
H518 H 0.6447 0.1205 0.81426 0.0
H519 H 0.70508 0.15191 0.92559 0.0
C520 C 0.71182 0.14435 0.72098 0.0
N521 N 0.76911 0.12482 0.74618 0.0
C522 C 0.79708 0.13936 0.75404 0.0
C523 C 0.76585 0.1135 0.70172 0.0
N524 N 0.81173 0.13975 0.71499 0.0
C525 C 0.79227 0.12294 0.68214 0.0
C526 C 0.69176 0.07946 0.78652 0.0
O527 O 0.69812 0.14284 0.75985 0.0
O528 O 0.73281 0.14058 0.72488 0.0
O529 O 0.71669 0.09141 0.76948 0.0
O530 O 0.68377 0.09391 0.81094 0.0
O531 O 0.75524 0.11734 0.83657 0.0
H532 H 0.74586 0.10225 0.68265 0.0
H533 H 0.80663 0.15316 0.78489 0.0
O534 O 0.72427 0.12047 0.88225 0.0
O535 O 0.73902 0.17324 0.83464 0.0
O536 O 0.77121 0.16827 0.79577 0.0
C537 C 0.76475 0.18397 0.82025 0.0
H538 H 0.6578 0.14834 0.9584 0.0
H539 H 0.79673 0.1208 0.64479 0.0
Co540 Co 0.42207 0.12768 0.28064 0.0
C541 C 0.46936 0.14518 0.22164 0.0
Co542 Co 0.45877 0.1333 0.32359 0.0
C543 C 0.37693 0.13503 0.25229 0.0
C544 C 0.38347 0.10969 0.20072 0.0
N545 N 0.39148 0.12161 0.2448 0.0
N546 N 0.36187 0.13417 0.21341 0.0
C547 C 0.36524 0.11757 0.18106 0.0
H548 H 0.38066 0.14891 0.28294 0.0
H549 H 0.39284 0.09896 0.18195 0.0
C550 C 0.40626 0.11196 0.37684 0.0
N551 N 0.49172 0.13865 0.35921 0.0
C552 C 0.50783 0.12596 0.35407 0.0
C553 C 0.50565 0.15855 0.39343 0.0
N554 N 0.53117 0.13741 0.38328 0.0
C555 C 0.52966 0.15798 0.4078 0.0
C556 C 0.45345 0.18294 0.31983 0.0
O557 O 0.39834 0.11383 0.3348 0.0
O558 O 0.43305 0.12117 0.38348 0.0
O559 O 0.46939 0.1733 0.33384 0.0
O560 O 0.43121 0.16631 0.29599 0.0
O561 O 0.48108 0.14327 0.26082 0.0
H562 H 0.49908 0.17304 0.40676 0.0
H563 H 0.50301 0.10918 0.32832 0.0
O564 O 0.44435 0.1408 0.22444 0.0
O565 O 0.41358 0.09016 0.2667 0.0
O566 O 0.44789 0.09484 0.31415 0.0
C567 C 0.42713 0.07956 0.28668 0.0
H568 H 0.35804 0.11443 0.144 0.0
H569 H 0.54488 0.17165 0.43458 0.0
Co570 Co 0.91864 0.30375 0.282 0.0
C571 C 0.90181 0.33349 0.22115 0.0
Co572 Co 0.91251 0.33482 0.32371 0.0
C573 C 0.91261 0.25175 0.25337 0.0
C574 C 0.93865 0.28448 0.2035 0.0
N575 N 0.92581 0.27982 0.24683 0.0
N576 N 0.91444 0.23821 0.21434 0.0
C577 C 0.93147 0.2587 0.18315 0.0
H578 H 0.89806 0.24108 0.28286 0.0
H579 H 0.94938 0.30481 0.1854 0.0
C580 C 0.93291 0.30351 0.37921 0.0
N581 N 0.90637 0.36195 0.35866 0.0
C582 C 0.91813 0.39066 0.35295 0.0
C583 C 0.88699 0.35557 0.39387 0.0
N584 N 0.90648 0.40204 0.38263 0.0
C585 C 0.88691 0.37984 0.40828 0.0
C586 C 0.86303 0.27937 0.31885 0.0
O587 O 0.93166 0.29373 0.33731 0.0
O588 O 0.92412 0.3215 0.38446 0.0
O589 O 0.87253 0.30499 0.3328 0.0
O590 O 0.87989 0.27382 0.29569 0.0
O591 O 0.90296 0.34697 0.26016 0.0
H592 H 0.87339 0.33446 0.40797 0.0
H593 H 0.93442 0.40289 0.32664 0.0
O594 O 0.90626 0.31292 0.22482 0.0
O595 O 0.9562 0.33313 0.26954 0.0
O596 O 0.951 0.36297 0.31541 0.0
C597 C 0.96651 0.35747 0.28873 0.0
H598 H 0.93505 0.2552 0.14598 0.0
H599 H 0.87349 0.38107 0.43584 0.0
Co600 Co 0.7414 0.62327 0.28254 0.0
C601 C 0.71052 0.5764 0.2226 0.0
Co602 Co 0.70981 0.5866 0.32499 0.0
C603 C 0.79338 0.66896 0.25392 0.0
C604 C 0.76107 0.66144 0.2025 0.0
N605 N 0.7654 0.65398 0.24674 0.0
N606 N 0.80723 0.68366 0.21454 0.0
C607 C 0.78699 0.67958 0.18228 0.0
H608 H 0.80371 0.66525 0.28419 0.0
H609 H 0.74089 0.65147 0.18387 0.0
C610 C 0.74212 0.63878 0.37931 0.0
N611 N 0.68241 0.55367 0.36063 0.0
C612 C 0.6536 0.53732 0.35557 0.0
C613 C 0.68854 0.54027 0.3955 0.0
N614 N 0.64187 0.51431 0.38545 0.0
C615 C 0.66404 0.51628 0.41032 0.0
C616 C 0.76504 0.59176 0.31916 0.0
O617 O 0.75278 0.64654 0.33773 0.0
O618 O 0.7233 0.61225 0.38512 0.0
O619 O 0.7398 0.5764 0.33552 0.0
O620 O 0.77025 0.61338 0.29396 0.0
O621 O 0.69742 0.56417 0.2619 0.0
H622 H 0.70963 0.54726 0.40914 0.0
H623 H 0.64152 0.54178 0.32954 0.0
O624 O 0.73082 0.60159 0.22571 0.0
O625 O 0.71341 0.63273 0.27215 0.0
O626 O 0.68181 0.59734 0.31537 0.0
C627 C 0.6889 0.6195 0.29062 0.0
H628 H 0.79077 0.68573 0.14465 0.0
H629 H 0.66261 0.50145 0.43773 0.0
Co630 Co 0.47101 0.08066 0.9599 0.0
C631 C 0.48726 0.12791 1.01903 0.0
Co632 Co 0.4754 0.11694 0.91726 0.0
C633 C 0.47717 0.035 0.98981 0.0
C634 C 0.45383 0.04411 0.04178 0.0
N635 N 0.46463 0.05041 0.99672 0.0
N636 N 0.47671 0.02095 1.02984 0.0
C637 C 0.46174 0.02624 0.06265 0.0
H638 H 0.49054 0.03781 0.95897 0.0
H639 H 0.44425 0.0547 0.06028 0.0
C640 C 0.45569 0.06477 0.86324 0.0
N641 N 0.48052 0.14959 0.8814 0.0
C642 C 0.46829 0.16606 0.88727 0.0
C643 C 0.49945 0.1627 0.8456 0.0
N644 N 0.4791 0.18886 0.85696 0.0
C645 C 0.49877 0.18663 0.83097 0.0
C646 C 0.5257 0.11182 0.92171 0.0
O647 O 0.45845 0.05689 0.90492 0.0
O648 O 0.46301 0.0912 0.85776 0.0
O649 O 0.5157 0.1272 0.90581 0.0
O650 O 0.50951 0.0903 0.94732 0.0
O651 O 0.48584 0.13973 0.97965 0.0
H652 H 0.51325 0.15555 0.83123 0.0
H653 H 0.45228 0.16185 0.91421 0.0
O654 O 0.48292 0.10292 1.01621 0.0
O655 O 0.43367 0.07135 0.97164 0.0
O656 O 0.43648 0.10603 0.92785 0.0
C657 C 0.42188 0.08423 0.95376 0.0
H658 H 0.46013 0.02088 0.10059 0.0
H659 H 0.51171 0.20124 0.80294 0.0
Co660 Co 0.96537 0.39902 0.95895 0.0
C661 C 0.91833 0.36892 1.01809 0.0
Co662 Co 0.92873 0.36845 0.91557 0.0
C663 C 1.01133 0.45097 0.9879 0.0
C664 C 1.00412 0.41842 0.03856 0.0
N665 N 0.99622 0.42293 0.99483 0.0
N666 N 1.02666 0.46465 1.02693 0.0
C667 C 1.02285 0.44427 0.05866 0.0
H668 H 1.00778 0.46155 0.95787 0.0
H669 H 0.99436 0.39815 0.05689 0.0
C670 C 0.98095 0.39972 0.86202 0.0
N671 N 0.89568 0.34143 0.88 0.0
C672 C 0.87884 0.31272 0.88565 0.0
C673 C 0.88249 0.34777 0.84502 0.0
N674 N 0.85567 0.30127 0.85619 0.0
C675 C 0.85813 0.32345 0.83068 0.0
C676 C 0.93456 0.42366 0.92093 0.0
O677 O 0.98896 0.40901 0.90434 0.0
O678 O 0.95412 0.38236 0.85537 0.0
O679 O 0.91843 0.3981 0.90673 0.0
O680 O 0.95681 0.42908 0.94455 0.0
O681 O 0.90663 0.35557 0.97865 0.0
H682 H 0.88985 0.36889 0.83114 0.0
H683 H 0.88303 0.30053 0.91185 0.0
O684 O 0.94327 0.38978 1.01548 0.0
O685 O 0.97329 0.36947 0.97201 0.0
O686 O 0.93921 0.34053 0.92341 0.0
C687 C 0.95964 0.34553 0.95126 0.0
H688 H 0.02999 0.44793 0.09582 0.0
H689 H 0.84333 0.32215 0.80329 0.0
Co690 Co 0.6456 0.57538 0.95896 0.0
C691 C 0.67581 0.55882 1.01917 0.0
Co692 Co 0.67681 0.56968 0.91676 0.0
C693 C 0.59295 0.56779 0.98718 0.0
C694 C 0.62505 0.59356 0.03833 0.0
N695 N 0.62102 0.58158 0.99429 0.0
N696 N 0.57892 0.56852 1.02635 0.0
C697 C 0.59898 0.58532 0.05841 0.0
H698 H 0.58274 0.55373 0.95688 0.0
H699 H 0.64524 0.60443 0.05691 0.0
C700 C 0.64517 0.58988 0.86188 0.0
N701 N 0.70424 0.56413 0.88147 0.0
C702 C 0.73297 0.57614 0.88707 0.0
C703 C 0.698 0.54489 0.84597 0.0
N704 N 0.74449 0.56478 0.85704 0.0
C705 C 0.72235 0.54513 0.83129 0.0
C706 C 0.6218 0.51993 0.92108 0.0
O707 O 0.63546 0.58854 0.90386 0.0
O708 O 0.66319 0.58117 0.85636 0.0
O709 O 0.64741 0.52954 0.90721 0.0
O710 O 0.61619 0.53665 0.94448 0.0
O711 O 0.68929 0.5603 0.98003 0.0
H712 H 0.67692 0.53116 0.83184 0.0
H713 H 0.74512 0.59241 0.91355 0.0
O714 O 0.65497 0.56285 1.01588 0.0
O715 O 0.67465 0.61309 0.9722 0.0
O716 O 0.70444 0.60826 0.92549 0.0
C717 C 0.6989 0.62359 0.95262 0.0
H718 H 0.59506 0.58823 0.0957 0.0
H719 H 0.72369 0.53188 0.80349 0.0
Co720 Co 0.59684 0.90359 0.74853 0.0
C721 C 0.64911 0.9233 0.69378 0.0
Co722 Co 0.63343 0.90742 0.78958 0.0
C723 C 0.54474 0.90709 0.72369 0.0
C724 C 0.55931 0.89139 0.66627 0.0
N725 N 0.56498 0.90012 0.71255 0.0
N726 N 0.52704 0.90322 0.68594 0.0
C727 C 0.53646 0.89345 0.64995 0.0
H728 H 0.54367 0.91582 0.7582 0.0
H729 H 0.57145 0.88449 0.64519 0.0
C730 C 0.58653 0.89195 0.85 0.0
N731 N 0.66359 0.91217 0.8252 0.0
C732 C 0.67686 0.89742 0.81826 0.0
C733 C 0.67184 0.92403 0.8693 0.0
N734 N 0.69116 0.89741 0.8576 0.0
C735 C 0.68876 0.91473 0.8896 0.0
C736 C 0.631 0.95697 0.78481 0.0
O737 O 0.5745 0.89352 0.81096 0.0
O738 O 0.61132 0.89572 0.84653 0.0
O739 O 0.64402 0.94519 0.80234 0.0
O740 O 0.60878 0.9424 0.75987 0.0
O741 O 0.65697 0.91988 0.73492 0.0
H742 H 0.66323 0.93555 0.88775 0.0
H743 H 0.67245 0.88321 0.78798 0.0
O744 O 0.62268 0.91594 0.6886 0.0
O745 O 0.58497 0.8632 0.73633 0.0
O746 O 0.62237 0.86857 0.77513 0.0
C747 C 0.60018 0.8527 0.75065 0.0
H748 H 0.52755 0.88836 0.61394 0.0
H749 H 0.69539 0.91725 0.927 0.0
Co750 Co 0.1418 0.70176 0.7529 0.0
C751 C 0.12216 0.73382 0.69859 0.0
Co752 Co 0.13808 0.73408 0.79501 0.0
C753 C 0.13352 0.64495 0.72163 0.0
C754 C 0.16606 0.67991 0.68245 0.0
N755 N 0.14657 0.67387 0.71732 0.0
N756 N 0.14441 0.63308 0.69126 0.0
C757 C 0.16495 0.65527 0.6669 0.0
H758 H 0.11685 0.63289 0.74746 0.0
H759 H 0.18053 0.70103 0.66928 0.0
C760 C 0.15384 0.70323 0.85501 0.0
N761 N 0.13194 0.75856 0.83043 0.0
C762 C 0.14409 0.78635 0.82158 0.0
C763 C 0.1208 0.75485 0.87505 0.0
N764 N 0.14332 0.80077 0.86021 0.0
C765 C 0.12809 0.78101 0.89375 0.0
C766 C 0.08841 0.68183 0.78877 0.0
O767 O 0.15128 0.68919 0.81602 0.0
O768 O 0.1508 0.72469 0.85163 0.0
O769 O 0.10102 0.70606 0.80843 0.0
O770 O 0.10252 0.67432 0.76228 0.0
O771 O 0.1247 0.7442 0.74032 0.0
H772 H 0.11123 0.73504 0.89476 0.0
H773 H 0.15732 0.79633 0.79037 0.0
O774 O 0.13031 0.71541 0.69262 0.0
O775 O 0.18252 0.7313 0.74274 0.0
O776 O 0.17624 0.76307 0.78031 0.0
C777 C 0.19245 0.75714 0.75623 0.0
H778 H 0.17825 0.65376 0.63941 0.0
H779 H 0.12605 0.78545 0.93116 0.0
Co780 Co 0.34252 0.44949 0.75432 0.0
C781 C 0.30999 0.3975 0.69867 0.0
Co782 Co 0.30987 0.41268 0.79529 0.0
C783 C 0.39945 0.49866 0.72478 0.0
C784 C 0.36493 0.49479 0.68227 0.0
N785 N 0.37069 0.48212 0.7189 0.0
N786 N 0.41143 0.52115 0.69379 0.0
C787 C 0.38955 0.51854 0.6672 0.0
H788 H 0.41129 0.49472 0.75206 0.0
H789 H 0.34398 0.48744 0.66757 0.0
C790 C 0.34093 0.45962 0.85612 0.0
N791 N 0.28458 0.38211 0.83045 0.0
C792 C 0.25678 0.36746 0.82083 0.0
C793 C 0.28725 0.37518 0.87608 0.0
N794 N 0.24153 0.3537 0.85977 0.0
C795 C 0.26057 0.35782 0.89448 0.0
C796 C 0.36223 0.41575 0.79028 0.0
O797 O 0.35478 0.47163 0.81729 0.0
O798 O 0.32 0.43473 0.85243 0.0
O799 O 0.33746 0.40272 0.80806 0.0
O800 O 0.36967 0.43781 0.76496 0.0
O801 O 0.29911 0.38935 0.74004 0.0
H802 H 0.30678 0.38519 0.8966 0.0
H803 H 0.24759 0.37076 0.78858 0.0
O804 O 0.32908 0.42403 0.69387 0.0
O805 O 0.31338 0.46082 0.74319 0.0
O806 O 0.2816 0.42298 0.7812 0.0
C807 C 0.28764 0.44519 0.75713 0.0
H808 H 0.39126 0.53286 0.63859 0.0
H809 H 0.25552 0.35244 0.93217 0.0
Co810 Co 0.57874 0.9197 0.15525 0.0
C811 C 0.59803 0.97142 0.21126 0.0
Co812 Co 0.58367 0.9567 0.11409 0.0
C813 C 0.58565 0.87032 0.1854 0.0
C814 C 0.55348 0.87309 0.22494 0.0
N815 N 0.5732 0.88664 0.1904 0.0
N816 N 0.57418 0.84717 0.21499 0.0
C817 C 0.55389 0.84904 0.23962 0.0
H818 H 0.60232 0.87489 0.15962 0.0
H819 H 0.53931 0.88001 0.23841 0.0
C820 C 0.56814 0.91003 0.05298 0.0
N821 N 0.59006 0.98758 0.07904 0.0
C822 C 0.57749 1.00279 0.08808 0.0
C823 C 0.60078 0.99498 1.03414 0.0
N824 N 0.57744 1.01744 0.04931 0.0
C825 C 0.59275 1.01329 1.01548 0.0
C826 C 0.63266 0.95312 0.12137 0.0
O827 O 0.56941 0.89787 0.09205 0.0
O828 O 0.5722 0.93495 0.05648 0.0
O829 O 0.62126 0.9663 0.10299 0.0
O830 O 0.61768 0.93095 0.14623 0.0
O831 O 0.5958 0.97973 0.16972 0.0
H832 H 0.61036 0.98487 1.01416 0.0
H833 H 0.56439 0.99939 0.11953 0.0
O834 O 0.5903 0.94482 0.21605 0.0
O835 O 0.53823 0.90885 0.16483 0.0
O836 O 0.54498 0.94688 0.12664 0.0
C837 C 0.52846 0.9247 0.15054 0.0
H838 H 0.54034 0.83411 0.26679 0.0
H839 H 0.59421 0.01942 0.97795 0.0
Co840 Co 0.12586 0.66926 0.16023 0.0
C841 C 0.07355 0.6362 0.21373 0.0
Co842 Co 0.08975 0.63705 0.11739 0.0
C843 C 0.17476 0.72588 0.19085 0.0
C844 C 0.16973 0.69138 0.2348 0.0
N845 N 0.15795 0.69717 0.19679 0.0
N846 N 0.19651 0.73783 0.22326 0.0
C847 C 0.19325 0.716 0.2507 0.0
H848 H 0.17154 0.7377 0.16258 0.0
H849 H 0.16192 0.67044 0.24986 0.0
C850 C 0.13684 0.66866 0.05835 0.0
N851 N 0.05971 0.61216 0.0811 0.0
C852 C 0.04521 0.58426 0.08962 0.0
C853 C 0.0528 0.6154 1.03574 0.0
N854 N 0.0312 0.5695 0.05035 0.0
C855 C 0.03544 0.58895 1.01639 0.0
C856 C 0.09215 0.68892 0.12412 0.0
O857 O 0.14873 0.68198 0.09774 0.0
O858 O 0.11183 0.64803 0.06115 0.0
O859 O 0.07933 0.66425 0.10598 0.0
O860 O 0.11425 0.69655 0.14941 0.0
O861 O 0.06608 0.62529 0.17219 0.0
H862 H 0.06266 0.63524 1.0161 0.0
H863 H 0.04868 0.57471 0.12126 0.0
O864 O 0.09989 0.65544 0.21972 0.0
O865 O 0.13702 0.63998 0.17183 0.0
O866 O 0.10058 0.60908 0.12965 0.0
C867 C 0.12216 0.61469 0.15521 0.0
H868 H 0.20702 0.71772 0.2803 0.0
H869 H 0.0297 0.58431 0.9787 0.0
Co870 Co 0.37676 0.46727 0.16137 0.0
C871 C 0.40821 0.44613 0.21439 0.0
Co872 Co 0.40697 0.46074 0.11754 0.0
C873 C 0.32151 0.46362 0.18856 0.0
C874 C 0.35391 0.48385 0.2421 0.0
N875 N 0.34936 0.47212 0.1978 0.0
N876 N 0.30868 0.46935 0.22565 0.0
C877 C 0.32926 0.48213 0.25913 0.0
H878 H 0.31058 0.45253 0.156 0.0
H879 H 0.37382 0.49263 0.26138 0.0
C880 C 0.37681 0.47793 0.05894 0.0
N881 N 0.43147 0.45477 0.08164 0.0
C882 C 0.45939 0.46781 0.0901 0.0
C883 C 0.42797 0.44423 1.03654 0.0
N884 N 0.47394 0.46796 0.051 0.0
C885 C 0.45428 0.45269 1.01728 0.0
C886 C 0.35417 0.41304 0.12558 0.0
O887 O 0.36424 0.47742 0.09871 0.0
O888 O 0.39684 0.47266 0.06119 0.0
O889 O 0.37822 0.42288 0.10561 0.0
O890 O 0.349 0.42893 0.15186 0.0
O891 O 0.4179 0.44802 0.17228 0.0
H892 H 0.40811 0.43441 1.01692 0.0
H893 H 0.46921 0.48101 0.12151 0.0
O894 O 0.39039 0.45498 0.22093 0.0
O895 O 0.40634 0.50715 0.17232 0.0
O896 O 0.43606 0.49964 0.1306 0.0
C897 C 0.43142 0.51646 0.15586 0.0
H898 H 0.3266 0.48948 0.29398 0.0
H899 H 0.45874 0.4512 0.97967 0.0
Co900 Co 0.08808 0.46006 0.61577 0.0
C901 C 0.13512 0.47804 0.55569 0.0
Co902 Co 0.12545 0.4675 0.65826 0.0
C903 C 0.04092 0.46394 0.58805 0.0
C904 C 0.05028 0.44125 0.53515 0.0
N905 N 0.05705 0.4523 0.57997 0.0
N906 N 1.02598 0.4629 0.54884 0.0
C907 C 0.03128 0.44808 0.51558 0.0
H908 H 0.04371 0.47715 0.61917 0.0
H909 H 0.06117 0.43225 0.51584 0.0
C910 C 0.07332 0.4463 0.71298 0.0
N911 N 0.15882 0.47423 0.69366 0.0
C912 C 0.17467 0.46122 0.69003 0.0
C913 C 0.17317 0.49509 0.72621 0.0
N914 N 0.19824 0.47333 0.71858 0.0
C915 C 0.19721 0.49471 0.74111 0.0
C916 C 0.11829 0.51597 0.65265 0.0
O917 O 0.06482 0.44673 0.67069 0.0
O918 O 0.10024 0.45585 0.7188 0.0
O919 O 0.13505 0.50731 0.66663 0.0
O920 O 0.09608 0.49858 0.62936 0.0
O921 O 0.14746 0.47707 0.59481 0.0
H922 H 0.16684 0.51001 0.73814 0.0
H923 H 0.16945 0.44363 0.6659 0.0
O924 O 0.10987 0.47284 0.55906 0.0
O925 O 0.08055 0.42263 0.60357 0.0
O926 O 0.11556 0.42918 0.65089 0.0
C927 C 0.09475 0.41301 0.62428 0.0
H928 H 1.02518 0.446 0.47795 0.0
H929 H 0.2127 0.50901 0.76697 0.0
Co930 Co 0.58313 0.63533 0.61575 0.0
C931 C 0.56656 0.66563 0.55576 0.0
Co932 Co 0.57879 0.66737 0.65768 0.0
C933 C 0.57662 0.58289 0.58971 0.0
C934 C 0.59953 0.61394 0.53539 0.0
N935 N 0.5891 0.61067 0.58049 0.0
N936 N 0.57647 0.5681 0.55093 0.0
C937 C 0.59148 0.58756 0.51684 0.0
H938 H 0.56358 0.57322 0.62128 0.0
H939 H 0.60889 0.63359 0.51523 0.0
C940 C 0.59933 0.63591 0.71207 0.0
N941 N 0.57375 0.69512 0.69276 0.0
C942 C 0.58542 0.72373 0.68593 0.0
C943 C 0.55508 0.68929 0.729 0.0
N944 N 0.57437 0.73557 0.71592 0.0
C945 C 0.55531 0.71377 0.74294 0.0
C946 C 0.52847 0.61216 0.65515 0.0
O947 O 0.59668 0.62543 0.67041 0.0
O948 O 0.59108 0.65426 0.71799 0.0
O949 O 0.53863 0.63795 0.66882 0.0
O950 O 0.5446 0.6061 0.63098 0.0
O951 O 0.56862 0.67938 0.59484 0.0
H952 H 0.54171 0.66839 0.74406 0.0
H953 H 0.60115 0.73553 0.65856 0.0
O954 O 0.57023 0.64455 0.559 0.0
O955 O 0.62052 0.66381 0.60176 0.0
O956 O 0.61749 0.69504 0.6471 0.0
C957 C 0.63205 0.6885 0.61986 0.0
H958 H 0.59272 0.58282 0.47926 0.0
H959 H 0.54245 0.71545 0.77106 0.0
Co960 Co 0.40972 0.95717 0.6167 0.0
C961 C 0.37937 0.91038 0.55694 0.0
Co962 Co 0.37795 0.92078 0.65929 0.0
C963 C 0.46198 1.00298 0.59046 0.0
C964 C 0.43085 0.99515 0.53645 0.0
N965 N 0.43419 0.98787 0.58145 0.0
N966 N 0.47669 1.0176 0.55163 0.0
C967 C 0.45719 1.01338 0.51774 0.0
H968 H 0.47162 0.9994 0.62188 0.0
H969 H 0.41115 0.98496 0.5164 0.0
C970 C 0.40956 0.97266 0.71362 0.0
N971 N 0.35019 0.88782 0.69446 0.0
C972 C 0.32145 0.87128 0.68864 0.0
C973 C 0.35612 0.87455 0.72985 0.0
N974 N 0.30958 0.84828 0.71856 0.0
C975 C 0.33158 0.85046 0.74425 0.0
C976 C 0.43319 0.92585 0.65512 0.0
O977 O 0.42023 0.98047 0.67203 0.0
O978 O 0.39089 0.94612 0.71941 0.0
O979 O 0.40783 0.91039 0.67093 0.0
O980 O 0.4385 0.94748 0.62993 0.0
O981 O 0.36603 0.89845 0.59624 0.0
H982 H 0.3771 0.88169 0.74416 0.0
H983 H 0.30953 0.87561 0.66206 0.0
O984 O 0.40001 0.9354 0.5599 0.0
O985 O 0.38176 0.96641 0.60404 0.0
O986 O 0.35007 0.93179 0.64822 0.0
C987 C 0.35699 0.95325 0.62146 0.0
H988 H 0.46182 0.0195 0.4802 0.0
H989 H 0.33001 0.83573 0.77197 0.0
Co990 Co 0.13527 0.41376 0.29303 0.0
C991 C 0.15218 0.46109 0.35228 0.0
Co992 Co 0.14239 0.4508 0.24963 0.0
C993 C 0.14081 0.36761 0.32134 0.0
C994 C 0.11627 0.37528 0.37292 0.0
N995 N 0.12836 0.38306 0.32899 0.0
N996 N 0.13894 0.35189 0.3599 0.0
C997 C 0.12308 0.35623 0.39238 0.0
H998 H 0.15485 0.37123 0.29109 0.0
H999 H 0.1062 0.38531 0.39173 0.0
C1000 C 0.12189 0.39837 0.19566 0.0
N1001 N 0.1478 0.48313 0.21309 0.0
C1002 C 0.14111 0.50363 0.22362 0.0
C1003 C 0.15711 0.48875 0.16715 0.0
N1004 N 0.1457 0.5215 0.18586 0.0
C1005 C 0.15567 0.5119 0.15044 0.0
C1006 C 0.19152 0.44511 0.25711 0.0
O1007 O 0.12344 0.39027 0.23774 0.0
O1008 O 0.13021 0.425 0.18996 0.0
O1009 O 0.18236 0.46081 0.23963 0.0
O1010 O 0.17436 0.42357 0.28201 0.0
O1011 O 0.1524 0.47348 0.31245 0.0
H1012 H 0.16379 0.47627 0.14649 0.0
H1013 H 0.13187 0.50468 0.25758 0.0
O1014 O 0.14639 0.43558 0.34988 0.0
O1015 O 0.09727 0.40466 0.30308 0.0
O1016 O 0.10403 0.44063 0.25809 0.0
C1017 C 0.08775 0.4192 0.28337 0.0
H1018 H 0.11998 0.34921 0.42956 0.0
H1019 H 0.16119 0.5208 0.11449 0.0
Co1020 Co 0.63165 0.73336 0.29474 0.0
C1021 C 0.58381 0.70211 0.35328 0.0
Co1022 Co 0.59536 0.70128 0.25235 0.0
C1023 C 0.6764 0.78599 0.3234 0.0
C1024 C 0.66852 0.75449 0.37666 0.0
N1025 N 0.66152 0.75808 0.33157 0.0
N1026 N 0.69058 0.80046 0.36273 0.0
C1027 C 0.68638 0.78077 0.39619 0.0
H1028 H 0.67337 0.79585 0.29181 0.0
H1029 H 0.6586 0.73453 0.39597 0.0
C1030 C 0.64839 0.73368 0.19939 0.0
N1031 N 0.56387 0.67346 0.21508 0.0
C1032 C 0.54328 0.64626 0.22565 0.0
C1033 C 0.55904 0.67667 0.1684 0.0
N1034 N 0.52617 0.63255 0.18722 0.0
C1035 C 0.53632 0.65182 0.15132 0.0
C1036 C 0.60002 0.75618 0.25426 0.0
O1037 O 0.65603 0.74431 0.24103 0.0
O1038 O 0.62186 0.71509 0.19332 0.0
O1039 O 0.58427 0.73045 0.24005 0.0
O1040 O 0.62182 0.76196 0.27943 0.0
O1041 O 0.57221 0.68856 0.31398 0.0
H1042 H 0.57171 0.69573 0.14757 0.0
H1043 H 0.54157 0.63633 0.26029 0.0
O1044 O 0.6087 0.72308 0.35059 0.0
O1045 O 0.64113 0.70558 0.30841 0.0
O1046 O 0.60657 0.67385 0.26374 0.0
C1047 C 0.62813 0.68093 0.29014 0.0
H1048 H 0.69254 0.78516 0.43377 0.0
H1049 H 0.52799 0.6481 0.11489 0.0
Co1050 Co 0.31432 0.9105 0.29476 0.0
C1051 C 0.34457 0.89333 0.35391 0.0
Co1052 Co 0.34447 0.9036 0.25161 0.0
C1053 C 0.26296 0.90545 0.32392 0.0
C1054 C 0.29524 0.92787 0.37681 0.0
N1055 N 0.29093 0.91779 0.33128 0.0
N1056 N 0.24913 0.90486 0.36427 0.0
C1057 C 0.26932 0.91948 0.39751 0.0
H1058 H 0.2525 0.89237 0.29266 0.0
H1059 H 0.31527 0.9368 0.39579 0.0
C1060 C 0.31247 0.92406 0.1979 0.0
N1061 N 0.37109 0.89716 0.21542 0.0
C1062 C 0.4 0.91003 0.21881 0.0
C1063 C 0.36436 0.87641 0.18257 0.0
N1064 N 0.41126 0.89791 0.18985 0.0
C1065 C 0.38866 0.87669 0.1673 0.0
C1066 C 0.28916 0.85452 0.25876 0.0
O1067 O 0.30348 0.92319 0.24025 0.0
O1068 O 0.33017 0.91498 0.1916 0.0
O1069 O 0.31449 0.86372 0.24369 0.0
O1070 O 0.28415 0.87167 0.28225 0.0
O1071 O 0.35759 0.89432 0.31449 0.0
H1072 H 0.34302 0.86158 0.17075 0.0
H1073 H 0.41254 0.92748 0.24313 0.0
O1074 O 0.32438 0.89834 0.35113 0.0
O1075 O 0.34393 0.94829 0.30584 0.0
O1076 O 0.37258 0.94198 0.2586 0.0
C1077 C 0.36771 0.95807 0.2849 0.0
H1078 H 0.26546 0.91997 0.43574 0.0
H1079 H 0.38963 0.86239 0.14122 0.0
C1080 C 0.28102 0.15037 0.08022 0.0
C1081 C 0.25951 0.15776 0.07826 0.0
C1082 C 0.27536 0.12236 0.07082 0.0
C1083 C 0.24778 0.10018 0.05998 0.0
H1084 H 0.30256 0.16639 0.08924 0.0
H1085 H 0.29251 0.11782 0.07361 0.0
S1086 S 0.18385 0.10755 0.04935 0.0
N1087 N 0.20945 0.13993 0.06294 0.0
N1088 N 0.19885 0.08767 0.0471 0.0
C1089 C 0.22617 0.10722 0.05759 0.0
C1090 C 0.23199 0.13579 0.06614 0.0
C1091 C 0.92542 0.16379 0.06629 0.0
C1092 C 0.94727 0.15793 0.05572 0.0
C1093 C 0.89732 0.14175 0.0759 0.0
C1094 C 0.88945 0.11267 0.07434 0.0
H1095 H 0.9303 0.18563 0.06866 0.0
H1096 H 0.88159 0.14765 0.08471 0.0
S1097 S 0.93857 0.08595 0.04599 0.0
N1098 N 0.9589 0.12083 0.04332 0.0
N1099 N 0.90643 0.07973 0.05961 0.0
C1100 C 0.91106 0.10663 0.06247 0.0
C1101 C 0.93976 0.12909 0.05373 0.0
C1102 C 0.91596 0.81983 0.05983 0.0
C1103 C 0.88705 0.79852 0.05649 0.0
C1104 C 0.93773 0.81325 0.06827 0.0
C1105 C 0.93164 0.78505 0.07522 0.0
H1106 H 0.92181 0.84189 0.05588 0.0
H1107 H 0.95946 0.8305 0.07056 0.0
S1108 S 0.85932 0.72128 0.07026 0.0
N1109 N 0.85376 0.74801 0.06045 0.0
N1110 N 0.89393 0.73557 0.07714 0.0
C1111 C 0.90273 0.76357 0.07175 0.0
C1112 C 0.88072 0.77028 0.06218 0.0
C1113 C 0.12902 0.26554 0.51025 0.0
C1114 C 0.10694 0.23776 0.51989 0.0
C1115 C 0.15704 0.27148 0.50088 0.0
C1116 C 0.16457 0.25004 0.50177 0.0
H1117 H 0.12439 0.28267 0.50836 0.0
H1118 H 0.17299 0.29318 0.49272 0.0
S1119 S 0.11469 0.1739 0.52757 0.0
N1120 N 0.09464 0.18868 0.53067 0.0
N1121 N 0.14705 0.19983 0.5149 0.0
C1122 C 0.14273 0.2223 0.51279 0.0
C1123 C 0.11409 0.21619 0.52125 0.0
C1124 C 0.82227 0.93 0.50623 0.0
C1125 C 0.79442 0.92438 0.49695 0.0
C1126 C 0.82828 0.90787 0.51519 0.0
C1127 C 0.8067 0.87902 0.51693 0.0
H1128 H 0.83974 0.95167 0.50541 0.0
H1129 H 0.85013 0.9134 0.5208 0.0
S1130 S 0.73013 0.85238 0.49687 0.0
N1131 N 0.74493 0.88713 0.49082 0.0
N1132 N 0.75627 0.84625 0.50905 0.0
C1133 C 0.77876 0.87311 0.50894 0.0
C1134 C 0.77265 0.89551 0.49862 0.0
C1135 C 0.11559 0.90187 0.51453 0.0
C1136 C 0.12142 0.8799 0.50428 0.0
C1137 C 0.13762 0.93011 0.52367 0.0
C1138 C 0.16656 0.93769 0.52455 0.0
H1139 H 0.09386 0.89743 0.51418 0.0
H1140 H 0.13196 0.94628 0.52995 0.0
S1141 S 0.19375 0.88853 0.50156 0.0
N1142 N 0.159 0.86828 0.49642 0.0
N1143 N 0.19961 0.92062 0.51465 0.0
C1144 C 0.17266 0.9159 0.51563 0.0
C1145 C 0.15038 0.88733 0.50527 0.0
C1146 C 0.82486 0.92851 1.01475 0.0
C1147 C 0.80348 0.93594 1.0174 0.0
C1148 C 0.81852 0.90029 1.00584 0.0
C1149 C 0.7905 0.87807 0.99756 0.0
H1150 H 0.84683 0.94479 1.0196 0.0
H1151 H 0.83588 0.89599 1.00437 0.0
S1152 S 0.72655 0.8861 1.00025 0.0
N1153 N 0.753 0.91844 1.01156 0.0
N1154 N 0.74103 0.86594 0.99335 0.0
C1155 C 0.76888 0.88527 1.00013 0.0
C1156 C 0.77535 0.91392 1.01041 0.0
C1157 C 0.15189 0.90028 0.96918 0.0
C1158 C 0.16496 0.92394 1.00056 0.0
C1159 C 0.12417 0.87737 0.97734 0.0
C1160 C 0.10815 0.87629 1.01809 0.0
H1161 H 0.16307 0.89955 0.93738 0.0
H1162 H 0.11512 0.86018 0.95138 0.0
S1163 S 0.13211 0.93193 0.11261 0.0
N1164 N 0.15917 0.94433 0.07478 0.0
N1165 N 0.10764 0.90101 0.09054 0.0
C1166 C 0.12098 0.89941 0.05035 0.0
C1167 C 0.14909 0.92319 0.04147 0.0
C1168 C 0.13914 0.2215 1.01762 0.0
C1169 C 0.16809 0.24274 1.01742 0.0
C1170 C 0.11725 0.22774 1.00834 0.0
C1171 C 0.12313 0.25546 0.99686 0.0
H1172 H 0.13335 0.19973 1.02503 0.0
H1173 H 0.09548 0.21048 1.00923 0.0
S1174 S 0.19556 0.31886 0.99049 0.0
N1175 N 0.20135 0.29274 1.0049 0.0
N1176 N 0.16079 0.30446 0.98605 0.0
C1177 C 0.15211 0.27691 0.99638 0.0
C1178 C 0.17435 0.2706 1.00699 0.0
C1179 C 0.92827 0.7775 0.60407 0.0
C1180 C 0.94461 0.79257 0.56356 0.0
C1181 C 0.9006 0.7729 0.61198 0.0
C1182 C 0.88791 0.78384 0.5806 0.0
H1183 H 0.93699 0.76907 0.63002 0.0
H1184 H 0.88918 0.76092 0.64359 0.0
S1185 S 0.92155 0.82496 0.469 0.0
N1186 N 0.94568 0.81816 0.49126 0.0
N1187 N 0.89435 0.81036 0.50654 0.0
C1188 C 0.90407 0.79903 0.5399 0.0
C1189 C 0.9321 0.80314 0.53127 0.0
C1190 C 0.2828 0.143 0.57992 0.0
C1191 C 0.26147 0.11395 0.57848 0.0
C1192 C 0.2769 0.16506 0.56949 0.0
C1193 C 0.24928 0.15921 0.55801 0.0
H1194 H 0.30437 0.14885 0.5892 0.0
H1195 H 0.2939 0.18691 0.57192 0.0
S1196 S 0.18576 0.08735 0.54848 0.0
N1197 N 0.21152 0.08108 0.56307 0.0
N1198 N 0.20051 0.12223 0.54525 0.0
C1199 C 0.22785 0.13041 0.55621 0.0
C1200 C 0.2339 0.10795 0.56587 0.0
C1201 C 0.90815 0.14533 0.61052 0.0
C1202 C 0.93172 0.15864 0.57917 0.0
C1203 C 0.88565 0.11731 0.60245 0.0
C1204 C 0.88497 0.10132 0.56179 0.0
H1205 H 0.90728 0.15648 0.64228 0.0
H1206 H 0.8685 0.10802 0.62836 0.0
S1207 S 0.94041 0.12617 0.46711 0.0
N1208 N 0.95233 0.15325 0.50492 0.0
N1209 N 0.90979 0.10129 0.48928 0.0
C1210 C 0.90792 0.11451 0.52947 0.0
C1211 C 0.93126 0.14285 0.53828 0.0
C1212 C 0.94607 0.48134 0.40916 0.0
C1213 C 0.92466 0.48887 0.40707 0.0
C1214 C 0.9404 0.45342 0.39902 0.0
C1215 C 0.9129 0.43143 0.38732 0.0
H1216 H 0.96756 0.4972 0.41881 0.0
H1217 H 0.95748 0.44877 0.40193 0.0
S1218 S 0.84921 0.4392 0.37609 0.0
N1219 N 0.87479 0.47141 0.39074 0.0
N1220 N 0.86411 0.41924 0.37353 0.0
C1221 C 0.89137 0.43859 0.38483 0.0
C1222 C 0.89723 0.46711 0.3941 0.0
C1223 C 0.6049 0.463 0.39346 0.0
C1224 C 0.61227 0.49186 0.39092 0.0
C1225 C 0.57669 0.44099 0.40245 0.0
C1226 C 0.55453 0.44676 0.41098 0.0
H1227 H 0.62119 0.45739 0.3885 0.0
H1228 H 0.57239 0.4193 0.40396 0.0
S1229 S 0.5625 0.51883 0.40864 0.0
N1230 N 0.59477 0.52478 0.3971 0.0
N1231 N 0.54243 0.48413 0.41539 0.0
C1232 C 0.56172 0.47562 0.40842 0.0
C1233 C 0.59028 0.49789 0.39806 0.0
C1234 C 0.58247 0.15155 0.3903 0.0
C1235 C 0.55355 0.13014 0.38835 0.0
C1236 C 0.60442 0.14523 0.39885 0.0
C1237 C 0.59855 0.11722 0.40746 0.0
H1238 H 0.58818 0.1735 0.38524 0.0
H1239 H 0.62614 0.16258 0.4 0.0
S1240 S 0.5263 0.05328 0.4067 0.0
N1241 N 0.52048 0.07971 0.39529 0.0
N1242 N 0.561 0.06778 0.41264 0.0
C1243 C 0.56963 0.09563 0.40547 0.0
C1244 C 0.54741 0.10205 0.39561 0.0
C1245 C 0.82354 0.6048 0.82909 0.0
C1246 C 0.83132 0.58356 0.83122 0.0
C1247 C 0.79565 0.59896 0.83974 0.0
C1248 C 0.77392 0.57145 0.85208 0.0
H1249 H 0.83918 0.62628 0.81897 0.0
H1250 H 0.7908 0.61591 0.8367 0.0
S1251 S 0.78244 0.50819 0.86386 0.0
N1252 N 0.8144 0.53385 0.84842 0.0
N1253 N 0.76228 0.52286 0.86656 0.0
C1254 C 0.78135 0.5501 0.85468 0.0
C1255 C 0.80985 0.55613 0.84487 0.0
C1256 C 0.49339 0.24008 0.84753 0.0
C1257 C 0.47192 0.2113 0.85204 0.0
C1258 C 0.48701 0.26201 0.83914 0.0
C1259 C 0.45885 0.25619 0.83324 0.0
H1260 H 0.51541 0.2457 0.85044 0.0
H1261 H 0.50439 0.28364 0.83593 0.0
S1262 S 0.39471 0.18437 0.84186 0.0
N1263 N 0.42128 0.17845 0.85076 0.0
N1264 N 0.40923 0.21894 0.83366 0.0
C1265 C 0.4372 0.22742 0.83789 0.0
C1266 C 0.44371 0.20526 0.84762 0.0
C1267 C 0.81661 0.2219 0.83089 0.0
C1268 C 0.78758 0.21409 0.83231 0.0
C1269 C 0.83865 0.24995 0.84079 0.0
C1270 C 0.83284 0.27181 0.85154 0.0
H1271 H 0.82248 0.20616 0.8219 0.0
H1272 H 0.86047 0.25479 0.83843 0.0
S1273 S 0.76099 0.26328 0.86103 0.0
N1274 N 0.7547 0.23111 0.84717 0.0
N1275 N 0.79585 0.28356 0.86395 0.0
C1276 C 0.80404 0.26437 0.85345 0.0
C1277 C 0.78157 0.23569 0.84443 0.0
C1278 C 0.43881 0.22054 0.32982 0.0
C1279 C 0.46019 0.21296 0.33157 0.0
C1280 C 0.44458 0.2485 0.34018 0.0
C1281 C 0.47215 0.27045 0.35184 0.0
H1282 H 0.4173 0.20469 0.32028 0.0
H1283 H 0.42753 0.2532 0.33755 0.0
S1284 S 0.53578 0.26255 0.36213 0.0
N1285 N 0.51013 0.2304 0.34744 0.0
N1286 N 0.52092 0.28253 0.36511 0.0
C1287 C 0.49363 0.26323 0.35394 0.0
C1288 C 0.48769 0.23471 0.3444 0.0
C1289 C 0.79708 0.20477 0.33758 0.0
C1290 C 0.77528 0.21045 0.34976 0.0
C1291 C 0.8251 0.22697 0.32751 0.0
C1292 C 0.8329 0.25602 0.33002 0.0
H1293 H 0.79221 0.18297 0.33434 0.0
H1294 H 0.84082 0.22125 0.31761 0.0
S1295 S 0.78377 0.28221 0.36211 0.0
N1296 N 0.7636 0.2473 0.36429 0.0
N1297 N 0.8158 0.28864 0.34713 0.0
C1298 C 0.81129 0.26182 0.34331 0.0
C1299 C 0.78273 0.23924 0.3526 0.0
C1300 C 0.81235 0.59614 0.2978 0.0
C1301 C 0.78866 0.58532 0.32897 0.0
C1302 C 0.83511 0.59112 0.30571 0.0
C1303 C 0.83595 0.57569 0.34599 0.0
H1304 H 0.81323 0.60838 0.26635 0.0
H1305 H 0.85237 0.59951 0.27998 0.0
S1306 S 0.78012 0.54333 0.43985 0.0
N1307 N 0.76798 0.55846 0.4025 0.0
N1308 N 0.811 0.54983 0.41783 0.0
C1309 C 0.81279 0.56519 0.37805 0.0
C1310 C 0.78918 0.56975 0.36942 0.0
C1311 C 0.59648 0.11244 0.93376 0.0
C1312 C 0.61215 0.12686 0.89235 0.0
C1313 C 0.56891 0.10781 0.94248 0.0
C1314 C 0.55562 0.11805 0.91099 0.0
H1315 H 0.60568 0.10456 0.95983 0.0
H1316 H 0.55803 0.09634 0.9748 0.0
S1317 S 0.58729 0.15715 0.79696 0.0
N1318 N 0.61194 0.15102 0.81894 0.0
N1319 N 0.56067 0.14312 0.83574 0.0
C1320 C 0.57107 0.13257 0.86933 0.0
C1321 C 0.59904 0.13672 0.8599 0.0
C1322 C 0.9437 0.49836 0.90146 0.0
C1323 C 0.91633 0.49277 0.88854 0.0
C1324 C 0.94934 0.4761 0.91203 0.0
C1325 C 0.92799 0.44709 0.90935 0.0
H1326 H 0.9607 0.52015 0.90492 0.0
H1327 H 0.9707 0.48176 0.92245 0.0
S1328 S 0.85284 0.42114 0.87569 0.0
N1329 N 0.86777 0.45605 0.87334 0.0
N1330 N 0.87826 0.41459 0.89141 0.0
C1331 C 0.90067 0.44138 0.89539 0.0
C1332 C 0.89489 0.46402 0.88557 0.0
C1333 C 0.5695 0.48237 0.91162 0.0
C1334 C 0.59845 0.48991 0.90952 0.0
C1335 C 0.5472 0.45442 0.90143 0.0
C1336 C 0.55269 0.43246 0.88957 0.0
H1337 H 0.56392 0.49823 0.92132 0.0
H1338 H 0.52546 0.44974 0.90439 0.0
S1339 S 0.62415 0.44027 0.8782 0.0
N1340 N 0.63082 0.47244 0.893 0.0
N1341 N 0.58925 0.42031 0.87565 0.0
C1342 C 0.58139 0.43965 0.88707 0.0
C1343 C 0.60408 0.46815 0.89645 0.0
C1344 C 0.61447 0.81508 0.73988 0.0
C1345 C 0.59308 0.82265 0.73862 0.0
C1346 C 0.6086 0.78706 0.73019 0.0
C1347 C 0.58091 0.76501 0.71978 0.0
H1348 H 0.63609 0.83097 0.74864 0.0
H1349 H 0.62568 0.78238 0.73252 0.0
S1350 S 0.51718 0.77286 0.71091 0.0
N1351 N 0.54301 0.80518 0.72431 0.0
N1352 N 0.53197 0.75281 0.70793 0.0
C1353 C 0.55939 0.77222 0.718 0.0
C1354 C 0.56545 0.80085 0.72681 0.0
C1355 C 0.24451 0.77485 0.7358 0.0
C1356 C 0.22225 0.78057 0.74365 0.0
C1357 C 0.27271 0.79691 0.72681 0.0
C1358 C 0.27998 0.82573 0.72364 0.0
H1359 H 0.24031 0.75322 0.73797 0.0
H1360 H 0.2891 0.79138 0.72247 0.0
S1361 S 0.22991 0.85249 0.73943 0.0
N1362 N 0.20993 0.81781 0.74663 0.0
N1363 N 0.26226 0.85851 0.72847 0.0
C1364 C 0.25788 0.83167 0.73002 0.0
C1365 C 0.22933 0.80938 0.74032 0.0
C1366 C 0.2493 0.48673 0.72558 0.0
C1367 C 0.22024 0.46569 0.7249 0.0
C1368 C 0.27091 0.48002 0.73472 0.0
C1369 C 0.26452 0.45204 0.74514 0.0
H1370 H 0.25538 0.50865 0.71894 0.0
H1371 H 0.29279 0.49707 0.73475 0.0
S1372 S 0.19164 0.38908 0.7485 0.0
N1373 N 0.18642 0.41568 0.73522 0.0
N1374 N 0.22632 0.40306 0.75364 0.0
C1375 C 0.23543 0.43084 0.74455 0.0
C1376 C 0.21356 0.43762 0.73414 0.0
C1377 C 0.44851 0.88398 0.1825 0.0
C1378 C 0.44083 0.90525 0.18331 0.0
C1379 C 0.47671 0.89034 0.17304 0.0
C1380 C 0.49854 0.9182 0.16236 0.0
H1381 H 0.43249 0.86213 0.18931 0.0
H1382 H 0.48125 0.87313 0.17305 0.0
S1383 S 0.48957 0.98167 0.15914 0.0
N1384 N 0.45763 0.95535 0.17281 0.0
N1385 N 0.50991 0.96733 0.15371 0.0
C1386 C 0.491 0.93963 0.16301 0.0
C1387 C 0.46247 0.9332 0.17379 0.0
C1388 C 0.11961 0.56848 0.13198 0.0
C1389 C 0.12912 0.59143 0.16466 0.0
C1390 C 0.12484 0.54584 0.13955 0.0
C1391 C 0.13916 0.54435 0.1809 0.0
H1392 H 0.1082 0.5681 0.09968 0.0
H1393 H 0.11741 0.52914 0.11274 0.0
S1394 S 0.16781 0.59807 0.27886 0.0
N1395 N 0.15354 0.61075 0.24072 0.0
N1396 N 0.16252 0.56786 0.25543 0.0
C1397 C 0.14836 0.56677 0.21443 0.0
C1398 C 0.14362 0.59031 0.20617 0.0
C1399 C 0.50214 0.58671 0.14231 0.0
C1400 C 0.50314 0.60317 0.18242 0.0
C1401 C 0.47917 0.55896 0.13452 0.0
C1402 C 0.45545 0.54635 0.16566 0.0
H1403 H 0.51942 0.59542 0.1166 0.0
H1404 H 0.47987 0.54742 0.10318 0.0
S1405 S 0.44738 0.58035 0.27622 0.0
N1406 N 0.47839 0.60451 0.25415 0.0
N1407 N 0.43496 0.55294 0.23903 0.0
C1408 C 0.45617 0.56262 0.20599 0.0
C1409 C 0.47999 0.59074 0.21451 0.0
C1410 C 0.15844 0.59604 0.68311 0.0
C1411 C 0.13703 0.60344 0.68531 0.0
C1412 C 0.15222 0.56792 0.67351 0.0
C1413 C 0.12431 0.54579 0.66404 0.0
H1414 H 0.18034 0.61227 0.68884 0.0
H1415 H 0.1696 0.56365 0.67247 0.0
S1416 S 0.06036 0.55381 0.665 0.0
N1417 N 0.08665 0.58601 0.67766 0.0
N1418 N 0.07491 0.53372 0.65818 0.0
C1419 C 0.10267 0.55297 0.66612 0.0
C1420 C 0.109 0.58151 0.6771 0.0
C1421 C 0.49059 0.56001 0.66608 0.0
C1422 C 0.49847 0.5891 0.66768 0.0
C1423 C 0.46264 0.53797 0.67691 0.0
C1424 C 0.44096 0.54384 0.68896 0.0
H1425 H 0.50619 0.55412 0.6562 0.0
H1426 H 0.4577 0.51611 0.67424 0.0
S1427 S 0.4497 0.6158 0.69917 0.0
N1428 N 0.48163 0.62201 0.68395 0.0
N1429 N 0.42948 0.58093 0.70246 0.0
C1430 C 0.4485 0.57268 0.691 0.0
C1431 C 0.47702 0.59512 0.68098 0.0
C1432 C 0.5031 0.92501 0.64099 0.0
C1433 C 0.50424 0.90991 0.68149 0.0
C1434 C 0.4803 0.92999 0.63332 0.0
C1435 C 0.45683 0.91944 0.66496 0.0
H1436 H 0.52015 0.93316 0.61485 0.0
H1437 H 0.48096 0.94197 0.60164 0.0
S1438 S 0.44921 0.87852 0.77683 0.0
N1439 N 0.47989 0.88477 0.75423 0.0
N1440 N 0.43675 0.89329 0.73931 0.0
C1441 C 0.45767 0.90423 0.70571 0.0
C1442 C 0.48136 0.89973 0.71411 0.0
C1443 C 0.23725 0.46553 0.20686 0.0
C1444 C 0.22167 0.45126 0.24868 0.0
C1445 C 0.26513 0.47042 0.19829 0.0
C1446 C 0.279 0.46183 0.23165 0.0
H1447 H 0.22773 0.47276 0.18023 0.0
H1448 H 0.27621 0.48164 0.16596 0.0
S1449 S 0.24831 0.42414 0.3468 0.0
N1450 N 0.22289 0.42855 0.32344 0.0
N1451 N 0.27479 0.43836 0.30796 0.0
C1452 C 0.26371 0.44767 0.27341 0.0
C1453 C 0.23531 0.44223 0.2817 0.0
C1454 C 0.56582 0.77384 0.2327 0.0
C1455 C 0.59376 0.77962 0.24135 0.0
C1456 C 0.5597 0.79585 0.22332 0.0
C1457 C 0.58126 0.82469 0.22055 0.0
H1458 H 0.54838 0.75218 0.23454 0.0
H1459 H 0.53779 0.79026 0.21834 0.0
S1460 S 0.65805 0.85163 0.23831 0.0
N1461 N 0.64332 0.81695 0.24544 0.0
N1462 N 0.63176 0.85758 0.22654 0.0
C1463 C 0.60929 0.83071 0.22772 0.0
C1464 C 0.61551 0.80846 0.23842 0.0
C1465 C 0.23663 0.81682 0.25284 0.0
C1466 C 0.26552 0.82448 0.24808 0.0
C1467 C 0.21415 0.78894 0.24265 0.0
C1468 C 0.21944 0.76722 0.22798 0.0
H1469 H 0.23124 0.83251 0.26457 0.0
H1470 H 0.19248 0.78412 0.24763 0.0
S1471 S 0.29056 0.7752 0.21034 0.0
N1472 N 0.29752 0.8072 0.22702 0.0
N1473 N 0.25563 0.75525 0.2096 0.0
C1474 C 0.24803 0.77447 0.22326 0.0
C1475 C 0.27088 0.80286 0.23274 0.0
C1476 C 0.34586 0.19158 0.2367 0.0
C1477 C 0.36134 0.21114 0.20014 0.0
C1478 C 0.344 0.16512 0.23824 0.0
C1479 C 0.35745 0.15732 0.20324 0.0
H1480 H 0.33439 0.19645 0.26339 0.0
H1481 H 0.33276 0.15085 0.26779 0.0
S1482 S 0.40025 0.20116 0.09995 0.0
N1483 N 0.38991 0.22114 0.12807 0.0
N1484 N 0.38686 0.17133 0.13107 0.0
C1485 C 0.37273 0.17661 0.1662 0.0
C1486 C 0.37473 0.20359 0.16484 0.0
C1487 C 0.85667 0.16441 0.23183 0.0
C1488 C 0.83671 0.16221 0.19739 0.0
C1489 C 0.88344 0.18859 0.23416 0.0
C1490 C 0.89109 0.21117 0.20204 0.0
H1491 H 0.85179 0.14698 0.25614 0.0
H1492 H 0.89801 0.19024 0.26229 0.0
S1493 S 0.84609 0.21547 0.10567 0.0
N1494 N 0.82613 0.18396 0.13043 0.0
N1495 N 0.87646 0.23011 0.13539 0.0
C1496 C 0.87137 0.20906 0.16715 0.0
C1497 C 0.84412 0.18445 0.16489 0.0
C1498 C 0.83535 0.66891 0.16738 0.0
C1499 C 0.83396 0.6865 0.20313 0.0
C1500 C 0.85899 0.66552 0.16379 0.0
C1501 C 0.88165 0.67928 0.19617 0.0
H1502 H 0.81766 0.65698 0.14316 0.0
H1503 H 0.86006 0.65277 0.13477 0.0
S1504 S 0.88836 0.72821 0.29495 0.0
N1505 N 0.85697 0.718 0.27076 0.0
N1506 N 0.90189 0.71194 0.2638 0.0
C1507 C 0.8805 0.69694 0.23197 0.0
C1508 C 0.85659 0.70058 0.23528 0.0
C1509 C 0.18012 0.36176 0.40867 0.0
C1510 C 0.16146 0.34669 0.37076 0.0
C1511 C 0.20655 0.36371 0.41188 0.0
C1512 C 0.21524 0.35094 0.37707 0.0
H1513 H 0.17483 0.37327 0.4346 0.0
H1514 H 0.22039 0.37515 0.44182 0.0
S1515 S 0.17279 0.30702 0.27339 0.0
N1516 N 0.15244 0.3176 0.2995 0.0
N1517 N 0.2022 0.32077 0.30576 0.0
C1518 C 0.19639 0.33512 0.33978 0.0
C1519 C 0.16944 0.33301 0.33675 0.0
C1520 C 0.70999 0.84957 0.33826 0.0
C1521 C 0.69432 0.82788 0.37152 0.0
C1522 C 0.70865 0.87445 0.33845 0.0
C1523 C 0.69139 0.87821 0.37177 0.0
H1524 H 0.72282 0.84684 0.31132 0.0
H1525 H 0.72197 0.8913 0.31369 0.0
S1526 S 0.64554 0.82759 0.46505 0.0
N1527 N 0.66017 0.81124 0.43739 0.0
N1528 N 0.65837 0.85872 0.43827 0.0
C1529 C 0.67543 0.85664 0.40478 0.0
C1530 C 0.6768 0.83134 0.40472 0.0
C1531 C 0.19756 0.88016 0.36685 0.0
C1532 C 0.22287 0.88022 0.37494 0.0
C1533 C 0.17177 0.85477 0.36926 0.0
C1534 C 0.17093 0.829 0.37915 0.0
H1535 H 0.19788 0.89968 0.35793 0.0
H1536 H 0.15223 0.85512 0.36407 0.0
S1537 S 0.23162 0.81815 0.39988 0.0
N1538 N 0.24594 0.85268 0.39115 0.0
N1539 N 0.19695 0.80477 0.39601 0.0
C1540 C 0.19602 0.82879 0.3869 0.0
C1541 C 0.22222 0.85454 0.38473 0.0
C1542 C 0.70531 0.83832 0.83941 0.0
C1543 C 0.68773 0.81866 0.87438 0.0
C1544 C 0.708 0.8651 0.83655 0.0
C1545 C 0.69336 0.87306 0.86863 0.0
H1546 H 0.71795 0.83337 0.81551 0.0
H1547 H 0.72114 0.87961 0.80853 0.0
S1548 S 0.64379 0.82862 0.96507 0.0
N1549 N 0.65529 0.80848 0.94098 0.0
N1550 N 0.65953 0.85878 0.93474 0.0
C1551 C 0.67541 0.85344 0.9033 0.0
C1552 C 0.67273 0.8262 0.90621 0.0
C1553 C 0.18674 0.83077 0.90506 0.0
C1554 C 0.16689 0.8281 0.87001 0.0
C1555 C 0.21333 0.85516 0.9075 0.0
C1556 C 0.22088 0.8775 0.87495 0.0
H1557 H 0.18201 0.81347 0.92959 0.0
H1558 H 0.22788 0.85709 0.93587 0.0
S1559 S 0.176 0.88082 0.77738 0.0
N1560 N 0.15623 0.84932 0.80232 0.0
N1561 N 0.2062 0.89594 0.80766 0.0
C1562 C 0.20118 0.87509 0.83979 0.0
C1563 C 0.17414 0.85024 0.83733 0.0
C1564 C 0.1666 0.33428 0.83992 0.0
C1565 C 0.1648 0.3551 0.86718 0.0
C1566 C 0.19147 0.33285 0.83974 0.0
C1567 C 0.21484 0.35182 0.86753 0.0
H1568 H 0.14831 0.31841 0.82024 0.0
H1569 H 0.19266 0.31708 0.81765 0.0
S1570 S 0.22078 0.41111 0.94207 0.0
N1571 N 0.18811 0.39539 0.92071 0.0
N1572 N 0.23539 0.39323 0.92008 0.0
C1573 C 0.21338 0.37307 0.894 0.0
C1574 C 0.18819 0.37458 0.89384 0.0
C1575 C 0.83767 0.66701 0.67076 0.0
C1576 C 0.83048 0.68198 0.70358 0.0
C1577 C 0.86427 0.66925 0.67235 0.0
C1578 C 0.88451 0.68665 0.70677 0.0
H1579 H 0.82282 0.65425 0.64279 0.0
H1580 H 0.86874 0.6566 0.6476 0.0
S1581 S 0.87652 0.73079 0.79976 0.0
N1582 N 0.84597 0.71547 0.77051 0.0
N1583 N 0.89596 0.71893 0.77417 0.0
C1584 C 0.87763 0.70167 0.73977 0.0
C1585 C 0.85056 0.69942 0.73822 0.0
C1586 C 0.3816 0.18591 0.66576 0.0
C1587 C 0.36805 0.16273 0.69711 0.0
C1588 C 0.37745 0.20906 0.67018 0.0
C1589 C 0.35937 0.20952 0.70591 0.0
H1590 H 0.3946 0.1855 0.63656 0.0
H1591 H 0.38905 0.22705 0.64642 0.0
S1592 S 0.31826 0.15359 0.79573 0.0
N1593 N 0.33525 0.14106 0.76398 0.0
N1594 N 0.32794 0.18519 0.77294 0.0
C1595 C 0.34577 0.18652 0.73749 0.0
C1596 C 0.35009 0.16302 0.73313 0.0
C1597 C 0.88502 0.19804 0.73706 0.0
C1598 C 0.88797 0.21816 0.70236 0.0
C1599 C 0.86066 0.17138 0.73856 0.0
C1600 C 0.83863 0.16401 0.70534 0.0
H1601 H 0.90219 0.20251 0.76174 0.0
H1602 H 0.85863 0.15649 0.76636 0.0
S1603 S 0.83572 0.20996 0.60937 0.0
N1604 N 0.86703 0.22953 0.63509 0.0
N1605 N 0.8205 0.17941 0.63858 0.0
C1606 C 0.84114 0.18413 0.67099 0.0
C1607 C 0.86595 0.21126 0.66955 0.0
C1608 C 0.0392 0.53204 0.5015 0.0
C1609 C 1.02493 0.53946 0.53541 0.0
C1610 C 0.03742 0.50563 0.50329 0.0
C1611 C 1.02117 0.48579 0.53902 0.0
H1612 H 0.0514 0.54672 0.47299 0.0
H1613 H 0.04982 0.50117 0.47796 0.0
S1614 S 0.97902 0.49434 0.63493 0.0
N1615 N 0.99307 0.52444 0.60448 0.0
N1616 N 0.99044 0.47481 0.60834 0.0
C1617 C 1.00649 0.49274 0.57259 0.0
C1618 C 1.0083 0.51962 0.57088 0.0
C1619 C 0.53199 0.53882 0.5083 0.0
C1620 C 0.5523 0.54103 0.54198 0.0
C1621 C 0.50515 0.51471 0.50675 0.0
C1622 C 0.49778 0.49224 0.53895 0.0
H1623 H 0.53664 0.55619 0.48401 0.0
H1624 H 0.49029 0.51304 0.47915 0.0
S1625 S 0.54375 0.48798 0.63351 0.0
N1626 N 0.56354 0.51938 0.60827 0.0
N1627 N 0.51304 0.47336 0.6048 0.0
C1628 C 0.51788 0.49433 0.57304 0.0
C1629 C 0.5452 0.51885 0.57446 0.0
C1630 C 0.53068 1.00151 0.50443 0.0
C1631 C 0.5526 1.01516 0.53828 0.0
C1632 C 0.50662 1.00421 0.5066 0.0
C1633 C 0.50383 0.02079 0.54265 0.0
H1634 H 0.53279 0.98953 0.47512 0.0
H1635 H 0.48971 0.99258 0.48084 0.0
S1636 S 0.55457 0.06013 0.64054 0.0
N1637 N 0.56986 0.04564 0.60928 0.0
N1638 N 0.52402 0.05022 0.61344 0.0
C1639 C 0.52536 0.03427 0.57693 0.0
C1640 C 0.5498 0.03143 0.57499 0.0
C1641 C 0.54836 0.03819 0.06987 0.0
C1642 C 0.55328 0.02026 0.04025 0.0
C1643 C 0.52207 0.03674 0.06949 0.0
C1644 C 0.49995 1.01693 0.04009 0.0
H1645 H 0.56486 0.05302 0.09386 0.0
H1646 H 0.51927 0.05182 0.09084 0.0
S1647 S 0.50138 0.96402 0.95901 0.0
N1648 N 0.53346 0.98102 0.98302 0.0
N1649 N 0.484 0.97882 0.98212 0.0
C1650 C 0.5044 0.99856 1.01128 0.0
C1651 C 0.53112 1.00013 1.01127 0.0
C1652 C 0.04587 0.51409 1.0047 0.0
C1653 C 0.03125 0.49217 1.03817 0.0
C1654 C 0.04414 0.53876 1.00657 0.0
C1655 C 0.02758 0.54211 0.0419 0.0
H1656 H 0.0579 0.51156 0.97597 0.0
H1657 H 0.05646 0.55565 0.98119 0.0
S1658 S 0.98533 0.49126 0.13771 0.0
N1659 N 0.99951 0.47531 0.10742 0.0
N1660 N 0.99682 0.52226 0.11119 0.0
C1661 C 1.01307 0.52054 0.07568 0.0
C1662 C 1.01489 0.49548 0.07399 0.0
C1663 C 0.50469 0.51148 1.00662 0.0
C1664 C 0.50142 0.49155 0.04193 0.0
C1665 C 0.52948 0.53781 1.00421 0.0
C1666 C 0.55163 0.54505 1.03715 0.0
H1667 H 0.48759 0.50702 0.98177 0.0
H1668 H 0.53181 0.55244 0.97571 0.0
S1669 S 0.55351 0.49965 0.13522 0.0
N1670 N 0.522 0.48037 0.11 0.0
N1671 N 0.56923 0.52983 0.10494 0.0
C1672 C 0.54862 0.52523 0.07255 0.0
C1673 C 0.52339 0.49844 0.0749 0.0
C1674 C 0.36548 0.28139 1.00355 0.0
C1675 C 0.33635 0.27017 0.99105 0.0
C1676 C 0.38781 0.29284 0.96899 0.0
C1677 C 0.38243 0.29354 0.91949 0.0
H1678 H 0.37133 0.28122 0.04085 0.0
H1679 H 0.40934 0.30046 0.98113 0.0
S1680 S 0.31064 0.26894 0.86667 0.0
N1681 N 0.30421 0.2622 0.92483 0.0
N1682 N 0.34525 0.28309 0.86027 0.0
C1683 C 0.35347 0.28298 0.90656 0.0
C1684 C 0.33082 0.27155 0.94189 0.0
C1685 C 0.78292 0.07858 0.93917 0.0
C1686 C 0.7753 0.07609 0.98818 0.0
C1687 C 0.77259 0.09065 0.90475 0.0
C1688 C 0.75373 0.10075 0.91685 0.0
H1689 H 0.7977 0.07199 0.92745 0.0
H1690 H 0.77979 0.0922 0.86788 0.0
S1691 S 0.72505 0.097 0.03964 0.0
N1692 N 0.74608 0.08352 0.04636 0.0
N1693 N 0.72689 0.10556 0.98206 0.0
C1694 C 0.74522 0.09749 0.96543 0.0
C1695 C 0.7559 0.08543 1.00065 0.0
C1696 C 0.94475 0.6573 0.96399 0.0
C1697 C 0.94467 0.66279 0.91437 0.0
C1698 C 0.95584 0.67956 0.99877 0.0
C1699 C 0.96803 0.70879 0.98629 0.0
H1700 H 0.93564 0.63559 0.97632 0.0
H1701 H 0.95465 0.67361 1.03636 0.0
S1702 S 0.97438 0.73552 0.86143 0.0
N1703 N 0.95882 0.70076 0.85486 0.0
N1704 N 0.97978 0.74157 0.91993 0.0
C1705 C 0.96887 0.71469 0.93688 0.0
C1706 C 0.9572 0.69209 0.90133 0.0
C1707 C 0.27152 0.32312 0.63685 0.0
C1708 C 0.27837 0.32845 0.58758 0.0
C1709 C 0.28192 0.34549 0.67143 0.0
C1710 C 0.30011 0.37464 0.65924 0.0
H1711 H 0.25733 0.30159 0.64875 0.0
H1712 H 0.27531 0.33966 0.70852 0.0
S1713 S 0.32663 0.40022 0.53564 0.0
N1714 N 0.30615 0.36557 0.52898 0.0
N1715 N 0.32544 0.40672 0.59355 0.0
C1716 C 0.30783 0.38011 0.61035 0.0
C1717 C 0.29708 0.3574 0.57497 0.0
C1718 C 0.66675 0.93067 0.60563 0.0
C1719 C 0.6721 0.93707 0.65506 0.0
C1720 C 0.68907 0.9415 0.57108 0.0
C1721 C 0.71815 0.95971 0.58351 0.0
H1722 H 0.64524 0.91652 0.59357 0.0
H1723 H 0.68325 0.93526 0.53384 0.0
S1724 S 0.7437 0.98534 0.70759 0.0
N1725 N 0.70911 0.96453 0.7141 0.0
N1726 N 0.7502 0.9847 0.64954 0.0
C1727 C 0.72364 0.96702 0.63258 0.0
C1728 C 0.70099 0.95581 0.66792 0.0
C1729 C 0.10464 0.7562 0.57596 0.0
C1730 C 0.08686 0.76752 0.58835 0.0
C1731 C 0.11515 0.74444 0.61056 0.0
C1732 C 0.10883 0.74355 0.65995 0.0
H1733 H 0.11079 0.75649 0.53873 0.0
H1734 H 0.12897 0.73671 0.59855 0.0
S1735 S 0.06195 0.76849 0.7124 0.0
N1736 N 0.06256 0.77547 0.65429 0.0
N1737 N 0.08211 0.75403 0.71898 0.0
C1738 C 0.09057 0.75424 0.67279 0.0
C1739 C 0.07969 0.76595 0.63739 0.0
C1740 C 0.66591 0.74334 0.11128 0.0
C1741 C 0.67153 0.74332 0.16082 0.0
C1742 C 0.68806 0.75475 0.07647 0.0
C1743 C 0.71731 0.76663 0.08869 0.0
H1744 H 0.64426 0.73515 0.09924 0.0
H1745 H 0.68195 0.75432 0.03916 0.0
S1746 S 0.7437 0.7696 0.21317 0.0
N1747 N 0.70905 0.755 0.21991 0.0
N1748 N 0.74986 0.77583 0.15484 0.0
C1749 C 0.72312 0.76592 0.13796 0.0
C1750 C 0.7006 0.75451 0.17359 0.0
C1751 C 0.27337 0.95982 0.13866 0.0
C1752 C 0.2788 0.96039 0.08896 0.0
C1753 C 0.28443 0.94819 0.17253 0.0
C1754 C 0.3019 0.93664 0.1591 0.0
H1755 H 0.25982 0.96769 0.15152 0.0
H1756 H 0.2789 0.94816 0.21006 0.0
S1757 S 0.32497 0.93532 1.03382 0.0
N1758 N 0.30464 0.94967 1.02848 0.0
N1759 N 0.32521 0.92851 0.09183 0.0
C1760 C 0.30827 0.93799 0.10973 0.0
C1761 C 0.29684 0.94959 0.07507 0.0
C1762 C 0.10139 0.34688 0.16743 0.0
C1763 C 0.1092 0.37549 0.15633 0.0
C1764 C 0.08904 0.32443 0.13306 0.0
C1765 C 0.08387 0.32917 0.08515 0.0
H1766 H 0.10502 0.34159 0.2034 0.0
H1767 H 0.08433 0.3034 0.14385 0.0
S1768 S 0.09771 0.39906 1.03711 0.0
N1769 N 0.10881 0.40623 0.09358 0.0
N1770 N 0.08612 0.36489 1.02941 0.0
C1771 C 0.09089 0.35749 0.0738 0.0
C1772 C 0.10334 0.38028 0.10893 0.0
C1773 C 0.76567 0.67973 0.50117 0.0
C1774 C 0.77629 0.70875 0.48843 0.0
C1775 C 0.7537 0.65712 0.46706 0.0
C1776 C 0.75182 0.66207 0.41774 0.0
H1777 H 0.76667 0.67416 0.53834 0.0
H1778 H 0.74662 0.63572 0.47936 0.0
S1779 S 0.77404 0.73326 0.36453 0.0
N1780 N 0.78213 0.74023 0.42225 0.0
N1781 N 0.76028 0.69862 0.35849 0.0
C1782 C 0.76168 0.69087 0.40458 0.0
C1783 C 0.77364 0.71382 0.43949 0.0
C1784 C 0.36541 0.09614 0.49793 0.0
C1785 C 0.3364 0.07716 0.48561 0.0
C1786 C 0.38794 0.10635 0.464 0.0
C1787 C 0.383 0.0985 0.41516 0.0
H1788 H 0.3711 0.10358 0.53471 0.0
H1789 H 0.40927 0.1212 0.47601 0.0
S1790 S 0.31198 0.04766 0.36307 0.0
N1791 N 0.30497 0.04979 0.4204 0.0
N1792 N 0.34654 0.0688 0.3567 0.0
C1793 C 0.35426 0.07892 0.40234 0.0
C1794 C 0.33132 0.06835 0.4372 0.0
C1795 C 0.96913 0.26565 0.44124 0.0
C1796 C 0.96962 0.27165 0.49073 0.0
C1797 C 0.95736 0.2761 0.40653 0.0
C1798 C 0.94555 0.29349 0.41882 0.0
H1799 H 0.97728 0.25218 0.42918 0.0
H1800 H 0.95747 0.27021 0.36924 0.0
S1801 S 0.94323 0.31743 0.54312 0.0
N1802 N 0.95815 0.29768 0.54977 0.0
N1803 N 0.93659 0.317 0.48489 0.0
C1804 C 0.9466 0.30027 0.46799 0.0
C1805 C 0.9584 0.2895 0.50352 0.0
C1806 C 0.0553 0.62499 0.30147 0.0
C1807 C 0.05023 0.62632 0.25201 0.0
C1808 C 0.03277 0.61297 0.33559 0.0
C1809 C 1.00372 0.60186 0.32272 0.0
H1810 H 0.07677 0.63254 0.31389 0.0
H1811 H 0.03839 0.61238 0.37288 0.0
S1812 S 0.97881 0.60238 0.19835 0.0
N1813 N 1.01348 0.61664 0.19242 0.0
N1814 N 0.972 0.59484 0.25623 0.0
C1815 C 0.9985 0.60396 0.27363 0.0
C1816 C 1.02138 0.61589 0.23869 0.0
C1817 C 0.43276 0.42976 0.33589 0.0
C1818 C 0.44247 0.41061 0.32342 0.0
C1819 C 0.42077 0.44032 0.30182 0.0
C1820 C 0.41795 0.43266 0.25281 0.0
H1821 H 0.43454 0.437 0.3728 0.0
H1822 H 0.41443 0.45525 0.31386 0.0
S1823 S 0.43755 0.38159 0.20047 0.0
N1824 N 0.44647 0.38342 0.25789 0.0
N1825 N 0.4245 0.40301 0.19419 0.0
C1826 C 0.42688 0.41298 0.23992 0.0
C1827 C 0.4389 0.40209 0.27481 0.0
C1828 C 0.63428 0.04573 0.27327 0.0
C1829 C 0.63518 0.04032 0.3227 0.0
C1830 C 0.62237 0.0234 0.2386 0.0
C1831 C 0.61085 0.99419 0.25085 0.0
H1832 H 0.64214 0.06733 0.26124 0.0
H1833 H 0.62214 0.02934 0.20138 0.0
S1834 S 0.60983 0.96825 0.37496 0.0
N1835 N 0.62449 1.00295 0.3816 0.0
N1836 N 0.60276 0.96189 0.31684 0.0
C1837 C 0.61239 0.98859 0.29995 0.0
C1838 C 0.62429 1.01126 0.33543 0.0
C1839 C 0.41998 0.99039 0.80179 0.0
C1840 C 0.4192 0.99579 0.75231 0.0
C1841 C 0.43164 1.01273 0.83642 0.0
C1842 C 0.44297 0.04187 0.82398 0.0
H1843 H 0.41224 0.96883 0.81387 0.0
H1844 H 0.43186 1.0069 0.87371 0.0
S1845 S 0.44417 0.06766 0.69968 0.0
N1846 N 0.42976 0.03299 0.69317 0.0
N1847 N 0.45103 0.07409 0.75783 0.0
C1848 C 0.44151 0.04742 0.77484 0.0
C1849 C 0.42989 0.02476 0.73943 0.0
C1850 C 1.02148 0.42349 0.73996 0.0
C1851 C 0.05049 0.43384 0.75234 0.0
C1852 C 0.99905 0.41166 0.77428 0.0
C1853 C 1.00415 0.40961 0.82347 0.0
H1854 H 1.01579 0.42464 0.70292 0.0
H1855 H 0.97765 0.40477 0.76222 0.0
S1856 S 0.07546 0.43134 0.87577 0.0
N1857 N 0.08218 0.43946 0.81805 0.0
N1858 N 0.04091 0.41777 0.88221 0.0
C1859 C 0.03297 0.41928 0.8363 0.0
C1860 C 0.05575 0.43117 0.80117 0.0
C1861 C 0.60736 0.62628 0.8003 0.0
C1862 C 0.61279 0.62622 0.75069 0.0
C1863 C 0.61802 0.61467 0.83495 0.0
C1864 C 0.63506 0.60251 0.82243 0.0
H1865 H 0.59414 0.63467 0.8125 0.0
H1866 H 0.61256 0.61516 0.87236 0.0
S1867 S 0.65756 0.59886 0.6977 0.0
N1868 N 0.63798 0.61396 0.69127 0.0
N1869 N 0.65769 0.59271 0.75602 0.0
C1870 C 0.64133 0.60309 0.77313 0.0
C1871 C 0.63034 0.6147 0.73769 0.0
C1872 C 0.22152 0.24222 0.30203 0.0
C1873 C 0.23164 0.23214 0.34015 0.0
C1874 C 0.22527 0.23805 0.2525 0.0
C1875 C 0.23974 0.22387 0.23816 0.0
H1876 H 0.21183 0.25487 0.31051 0.0
H1877 H 0.21863 0.24787 0.22544 0.0
S1878 S 0.26881 0.19142 0.32253 0.0
N1879 N 0.2552 0.20557 0.35882 0.0
N1880 N 0.26252 0.19796 0.26706 0.0
C1881 C 0.24853 0.2123 0.27587 0.0
C1882 C 0.24441 0.21629 0.32624 0.0
C1883 C 0.81023 0.99996 0.25051 0.0
C1884 C 0.82375 0.02858 0.23591 0.0
C1885 C 0.80637 0.9922 0.30009 0.0
C1886 C 0.81618 1.01254 0.33801 0.0
H1887 H 0.80062 0.98333 0.22361 0.0
H1888 H 0.79407 0.96982 0.3088 0.0
S1889 S 0.85546 0.09051 0.31976 0.0
N1890 N 0.84896 0.0775 0.26439 0.0
N1891 N 0.84191 0.06282 0.3563 0.0
C1892 C 0.83148 0.04119 0.32388 0.0
C1893 C 0.83514 0.04915 0.27344 0.0
C1894 C 1.02453 0.82307 0.2628 0.0
C1895 C 1.0188 0.79782 0.23838 0.0
C1896 C 0.03118 0.82699 0.31344 0.0
C1897 C 0.03145 0.80546 0.34199 0.0
H1898 H 1.0237 0.83976 0.24293 0.0
H1899 H 0.03657 0.84709 0.33 0.0
S1900 S 1.01923 0.73622 0.2955 0.0
N1901 N 1.01628 0.75233 0.24738 0.0
N1902 N 1.02544 0.75828 0.34067 0.0
C1903 C 1.02548 0.78035 0.31763 0.0
C1904 C 1.02002 0.77692 0.26671 0.0
C1905 C 0.83072 0.79518 0.77455 0.0
C1906 C 0.82011 0.80482 0.73654 0.0
C1907 C 0.82685 0.79914 0.82413 0.0
C1908 C 0.81166 0.81255 0.83864 0.0
H1909 H 0.84086 0.78296 0.76591 0.0
H1910 H 0.83396 0.78968 0.85111 0.0
S1911 S 0.78085 0.84342 0.75454 0.0
N1912 N 0.79518 0.83006 0.7181 0.0
N1913 N 0.78752 0.83718 0.80996 0.0
C1914 C 0.80228 0.82364 0.80101 0.0
C1915 C 0.8066 0.81993 0.75059 0.0
C1916 C 0.21786 1.01117 0.81222 0.0
C1917 C 0.24005 1.01566 0.84442 0.0
C1918 C 0.22289 1.01782 0.76173 0.0
C1919 C 0.25018 0.02844 0.74109 0.0
H1920 H 0.1964 1.0018 0.82578 0.0
H1921 H 0.20536 1.01452 0.73891 0.0
S1922 S 0.3143 0.03977 0.80873 0.0
N1923 N 0.28965 0.02981 0.8505 0.0
N1924 N 0.29858 0.03987 0.75795 0.0
C1925 C 0.27193 0.03187 0.77323 0.0
C1926 C 0.26704 0.02612 0.8239 0.0
C1927 C 0.99965 0.21295 0.77409 0.0
C1928 C 1.01994 0.22415 0.73623 0.0
C1929 C 1.00744 0.21668 0.82368 0.0
C1930 C 0.03604 0.23224 0.83829 0.0
H1931 H 0.97727 0.20253 0.76535 0.0
H1932 H 0.99084 0.20923 0.85061 0.0
S1933 S 0.09783 0.26447 0.7545 0.0
N1934 N 0.07014 0.24995 0.71795 0.0
N1935 N 0.08489 0.25721 0.80985 0.0
C1936 C 0.05658 0.24207 0.80076 0.0
C1937 C 0.04859 0.23797 0.75034 0.0
C1938 C 0.88841 0.57526 0.63109 0.0
C1939 C 0.89759 0.56437 0.66938 0.0
C1940 C 0.89196 0.57076 0.58168 0.0
C1941 C 0.90524 0.55539 0.56762 0.0
H1942 H 0.87973 0.58883 0.63933 0.0
H1943 H 0.88623 0.58129 0.55448 0.0
S1944 S 0.93046 0.51968 0.65244 0.0
N1945 N 0.91826 0.53523 0.68854 0.0
N1946 N 0.92534 0.52709 0.5968 0.0
C1947 C 0.91285 0.54287 0.60544 0.0
C1948 C 0.90889 0.54718 0.65573 0.0
C1949 C 0.49757 0.37884 0.60881 0.0
C1950 C 0.48699 0.35875 0.57052 0.0
C1951 C 0.49362 0.37073 0.65823 0.0
C1952 C 0.47841 0.342 0.67227 0.0
H1953 H 0.5078 0.40128 0.60052 0.0
H1954 H 0.50073 0.38717 0.68548 0.0
S1955 S 0.44768 0.28065 0.58723 0.0
N1956 N 0.46206 0.30858 0.55126 0.0
N1957 N 0.45429 0.29328 0.64285 0.0
C1958 C 0.46906 0.32169 0.63435 0.0
C1959 C 0.47343 0.32999 0.58409 0.0
C1960 C 0.71464 0.15114 0.58205 0.0
C1961 C 0.68601 0.13881 0.56799 0.0
C1962 C 0.72278 0.15483 0.63146 0.0
C1963 C 0.70287 0.14675 0.66981 0.0
H1964 H 0.73073 0.15604 0.55489 0.0
H1965 H 0.74495 0.16279 0.63966 0.0
S1966 S 0.62558 0.11683 0.65281 0.0
N1967 N 0.63791 0.12085 0.59719 0.0
N1968 N 0.65331 0.12825 0.68891 0.0
C1969 C 0.67448 0.1364 0.65611 0.0
C1970 C 0.6661 0.13228 0.6058 0.0
C1971 C 0.49552 0.13354 0.15731 0.0
C1972 C 0.48152 0.14825 0.17119 0.0
C1973 C 0.49943 0.12932 0.10796 0.0
C1974 C 0.48994 0.13985 0.06961 0.0
H1975 H 0.50153 0.12327 0.18456 0.0
H1976 H 0.5086 0.11616 0.09977 0.0
S1977 S 0.45501 0.18269 0.08611 0.0
N1978 N 0.46034 0.17555 0.14179 0.0
N1979 N 0.46804 0.16785 0.05016 0.0
C1980 C 0.4779 0.15641 0.08309 0.0
C1981 C 0.47358 0.16045 0.13331 0.0
C1982 C 0.89104 0.32242 0.13173 0.0
C1983 C 0.89904 0.34232 0.17015 0.0
C1984 C 0.89442 0.33056 0.08238 0.0
C1985 C 0.90634 0.35918 0.06849 0.0
H1986 H 0.8834 0.30028 0.13983 0.0
H1987 H 0.88967 0.31452 0.05511 0.0
S1988 S 0.92828 0.41959 0.15359 0.0
N1989 N 0.91721 0.39185 0.18955 0.0
N1990 N 0.92405 0.40726 0.0979 0.0
C1991 C 0.91284 0.37907 0.10639 0.0
C1992 C 0.90904 0.37068 0.15664 0.0
C1993 C 0.67294 0.54986 0.15757 0.0
C1994 C 0.70163 0.5645 0.17184 0.0
C1995 C 0.66495 0.54612 0.10806 0.0
C1996 C 0.68511 0.5564 0.06994 0.0
H1997 H 0.65651 0.54315 0.18468 0.0
H1998 H 0.64257 0.53635 0.0996 0.0
S1999 S 0.76309 0.5941 0.0874 0.0
N2000 N 0.75034 0.58764 0.14289 0.0
N2001 N 0.73526 0.58033 0.05115 0.0
C2002 C 0.71378 0.56933 0.08377 0.0
C2003 C 0.72197 0.57344 0.1341 0.0
C2004 C 0.58572 0.88081 0.93957 0.0
C2005 C 0.57501 0.88985 0.90083 0.0
C2006 C 0.58115 0.88472 0.98881 0.0
C2007 C 0.56599 0.89835 1.00222 0.0
H2008 H 0.5991 0.87184 0.93181 0.0
H2009 H 0.59139 0.87889 1.01639 0.0
S2010 S 0.53135 0.92396 0.91579 0.0
N2011 N 0.54657 0.91109 0.88045 0.0
N2012 N 0.53843 0.91901 0.97176 0.0
C2013 C 0.55386 0.90606 0.96389 0.0
C2014 C 0.55816 0.90165 0.91382 0.0
C2015 C 0.1629 0.70634 0.99345 0.0
C2016 C 0.14878 0.67766 1.00771 0.0
C2017 C 0.16646 0.71427 0.94396 0.0
C2018 C 0.1564 0.69405 0.90581 0.0
H2019 H 0.16933 0.72278 1.02057 0.0
H2020 H 0.17586 0.73663 0.93555 0.0
S2021 S 0.12043 0.61609 0.9233 0.0
N2022 N 0.12666 0.62893 0.97879 0.0
N2023 N 0.13353 0.64388 0.88703 0.0
C2024 C 0.1441 0.66542 0.91964 0.0
C2025 C 0.14024 0.65729 0.96997 0.0
C2026 C 0.38712 0.49057 0.97002 0.0
C2027 C 0.36724 0.48047 1.00854 0.0
C2028 C 0.37876 0.48641 0.92069 0.0
C2029 C 0.34996 0.4714 0.907 0.0
H2030 H 0.40956 0.50049 0.97805 0.0
H2031 H 0.39502 0.49311 0.89327 0.0
S2032 S 0.28929 0.44237 0.99302 0.0
N2033 N 0.31738 0.45657 1.02856 0.0
N2034 N 0.30149 0.44827 0.93714 0.0
C2035 C 0.32991 0.46266 0.94519 0.0
C2036 C 0.33851 0.46731 0.99534 0.0
C2037 C 0.16189 0.46766 0.49036 0.0
C2038 C 0.14695 0.48134 0.50482 0.0
C2039 C 0.16562 0.46356 0.4408 0.0
C2040 C 0.15509 0.47327 0.40278 0.0
H2041 H 0.16881 0.45805 0.51736 0.0
H2042 H 0.17552 0.45111 0.43219 0.0
S2043 S 0.11673 0.51277 0.42065 0.0
N2044 N 0.12333 0.50648 0.4761 0.0
N2045 N 0.13071 0.49904 0.38424 0.0
C2046 C 0.14195 0.48874 0.41676 0.0
C2047 C 0.13779 0.49263 0.46717 0.0
C2048 C 0.55866 0.66363 0.41713 0.0
C2049 C 0.57182 0.69244 0.40372 0.0
C2050 C 0.55506 0.65519 0.46635 0.0
C2051 C 0.56402 0.67497 0.50507 0.0
H2052 H 0.55307 0.64758 0.38954 0.0
H2053 H 0.54647 0.63285 0.47408 0.0
S2054 S 0.59683 0.75281 0.48995 0.0
N2055 N 0.59178 0.74067 0.43404 0.0
N2056 N 0.58457 0.72472 0.52537 0.0
C2057 C 0.57528 0.70361 0.49208 0.0
C2058 C 0.5793 0.71229 0.442 0.0
C2059 C 0.39027 0.90872 0.46811 0.0
C2060 C 0.37014 0.89847 0.50628 0.0
C2061 C 0.38225 0.90453 0.41864 0.0
C2062 C 0.35354 0.89015 0.40447 0.0
H2063 H 0.41263 0.92162 0.47652 0.0
H2064 H 0.39863 0.91457 0.39151 0.0
S2065 S 0.29223 0.85693 0.48907 0.0
N2066 N 0.32008 0.87135 0.52525 0.0
N2067 N 0.30492 0.86367 0.43353 0.0
C2068 C 0.33328 0.87829 0.44223 0.0
C2069 C 0.34151 0.88231 0.49254 0.0
C2070 C 0.30543 0.33789 0.08458 0.0
C2071 C 0.30509 0.32231 0.12539 0.0
C2072 C 0.32065 0.36764 0.08501 0.0
C2073 C 0.33507 0.3824 0.12671 0.0
H2074 H 0.29535 0.32708 0.05128 0.0
H2075 H 0.32182 0.37911 0.05233 0.0
S2076 S 0.33878 0.35165 0.24383 0.0
N2077 N 0.31929 0.32388 0.20907 0.0
N2078 N 0.34701 0.37982 0.21029 0.0
C2079 C 0.33359 0.36716 0.16842 0.0
C2080 C 0.31874 0.33701 0.16769 0.0
C2081 C 0.67911 0.99678 0.12377 0.0
C2082 C 0.66376 0.96703 0.12086 0.0
C2083 C 0.70857 1.01159 0.12441 0.0
C2084 C 0.72405 0.99737 0.1213 0.0
H2085 H 0.66828 1.00886 0.12613 0.0
H2086 H 0.71926 0.03456 0.12624 0.0
S2087 S 0.69396 0.91947 0.1133 0.0
N2088 N 0.66589 0.92355 0.11593 0.0
N2089 N 0.72199 0.95177 0.11531 0.0
C2090 C 0.70909 0.96756 0.11828 0.0
C2091 C 0.67875 0.95228 0.11873 0.0
C2092 C 0.03289 0.70496 0.12393 0.0
C2093 C 0.04671 0.73469 0.12089 0.0
C2094 C 0.04811 0.69078 0.12443 0.0
C2095 C 0.07785 0.70568 0.12272 0.0
H2096 H 1.00995 0.69228 0.12494 0.0
H2097 H 0.03631 0.66781 0.12669 0.0
S2098 S 0.12444 0.78373 0.11624 0.0
N2099 N 0.09193 0.77882 0.11663 0.0
N2100 N 0.12091 0.75177 0.11917 0.0
C2101 C 0.09221 0.73545 0.12073 0.0
C2102 C 0.07652 0.75006 0.11921 0.0
C2103 C 0.37472 0.34365 0.4401 0.0
C2104 C 0.38977 0.32967 0.45073 0.0
C2105 C 0.34528 0.32919 0.44029 0.0
C2106 C 0.3296 0.30019 0.45199 0.0
H2107 H 0.38585 0.36612 0.43162 0.0
H2108 H 0.33483 0.34126 0.43268 0.0
S2109 S 0.35925 0.25361 0.48057 0.0
N2110 N 0.38743 0.28514 0.47096 0.0
N2111 N 0.33137 0.25762 0.47287 0.0
C2112 C 0.34438 0.28568 0.46179 0.0
C2113 C 0.37469 0.30049 0.46063 0.0
C2114 C 0.75645 0.06599 0.42818 0.0
C2115 C 0.74839 0.04259 0.45856 0.0
C2116 C 0.74118 0.0805 0.42827 0.0
C2117 C 0.7175 0.07184 0.45871 0.0
H2118 H 0.77387 0.07239 0.40312 0.0
H2119 H 0.74718 0.0977 0.40287 0.0
S2120 S 0.69043 1.01323 0.54851 0.0
N2121 N 0.71717 1.01258 0.52193 0.0
N2122 N 0.6887 0.03974 0.52313 0.0
C2123 C 0.7105 0.04934 0.49114 0.0
C2124 C 0.72589 0.03467 0.4907 0.0
C2125 C 0.98091 0.69901 0.47823 0.0
C2126 C 1.00612 0.71441 0.45137 0.0
C2127 C 0.96566 0.66917 0.47745 0.0
C2128 C 0.97535 0.65411 0.44998 0.0
H2129 H 0.97347 0.70999 0.50131 0.0
H2130 H 0.94685 0.65788 0.49959 0.0
S2131 S 0.0379 0.68367 0.36949 0.0
N2132 N 0.03843 0.71169 0.39339 0.0
N2133 N 1.0098 0.65598 0.39271 0.0
C2134 C 0.99956 0.66906 0.42143 0.0
C2135 C 1.01495 0.69917 0.42185 0.0
C2136 C 0.73035 0.67012 0.91415 0.0
C2137 C 0.71883 0.65416 0.95645 0.0
C2138 C 0.74498 0.69985 0.91553 0.0
C2139 C 0.74934 0.71429 0.95945 0.0
H2140 H 0.72648 0.65961 0.87946 0.0
H2141 H 0.75214 0.71159 0.88201 0.0
S2142 S 0.7255 0.68219 0.08051 0.0
N2143 N 0.71381 0.65478 0.04346 0.0
N2144 N 0.74255 0.71076 0.04636 0.0
C2145 C 0.73944 0.69858 1.00227 0.0
C2146 C 0.72382 0.66839 1.0007 0.0
C2147 C 0.34601 0.02762 0.97427 0.0
C2148 C 0.33051 0.04092 0.96228 0.0
C2149 C 0.37545 0.04237 0.97299 0.0
C2150 C 0.39079 0.07102 0.95869 0.0
H2151 H 0.33523 1.00544 0.98469 0.0
H2152 H 0.38616 0.03073 0.98204 0.0
S2153 S 0.35983 0.11574 0.92478 0.0
N2154 N 0.33204 0.08443 0.93736 0.0
N2155 N 0.38809 0.11244 0.93328 0.0
C2156 C 0.37554 0.08484 0.94717 0.0
C2157 C 0.34521 0.06973 0.9495 0.0
C2158 C 0.97686 0.31645 0.91113 0.0
C2159 C 0.9702 0.3256 0.95404 0.0
C2160 C 0.99192 0.30185 0.91232 0.0
C2161 C 0.99976 0.29514 0.95648 0.0
H2162 H 0.97199 0.32217 0.87643 0.0
H2163 H 0.99824 0.29655 0.8786 0.0
S2164 S 0.98542 0.31264 0.07871 0.0
N2165 N 0.97153 0.32618 0.04162 0.0
N2166 N 0.99865 0.29741 0.04404 0.0
C2167 C 0.99176 0.30274 0.99964 0.0
C2168 C 0.97726 0.31838 0.99837 0.0
C2169 C 0.70804 0.7452 0.64617 0.0
C2170 C 0.72307 0.73886 0.61212 0.0
C2171 C 0.67825 0.72999 0.64662 0.0
C2172 C 0.66284 0.70787 0.61333 0.0
H2173 H 0.71934 0.76115 0.67361 0.0
H2174 H 0.66733 0.73458 0.67475 0.0
S2175 S 0.69327 0.6856 0.51403 0.0
N2176 N 0.72107 0.71103 0.54241 0.0
N2177 N 0.66529 0.68243 0.54274 0.0
C2178 C 0.67795 0.70261 0.57751 0.0
C2179 C 0.70808 0.71809 0.57713 0.0
C2180 C 0.31557 0.9585 0.64642 0.0
C2181 C 0.33822 0.96529 0.61447 0.0
C2182 C 0.30117 0.97389 0.64576 0.0
C2183 C 0.30914 0.99635 0.61317 0.0
H2184 H 0.30988 0.94223 0.67361 0.0
H2185 H 0.28462 0.96901 0.672 0.0
S2186 S 0.36409 0.02031 0.51825 0.0
N2187 N 0.36555 0.99423 0.54592 0.0
N2188 N 0.33885 0.02319 0.54591 0.0
C2189 C 0.33046 1.00228 0.57948 0.0
C2190 C 0.3449 0.98665 0.57972 0.0
C2191 C 0.07681 0.36786 0.57888 0.0
C2192 C 0.08436 0.38245 0.62305 0.0
C2193 C 0.06249 0.33815 0.57767 0.0
C2194 C 0.05451 0.32232 0.62064 0.0
H2195 H 0.0812 0.37946 0.54524 0.0
H2196 H 0.05601 0.3275 0.54305 0.0
S2197 S 0.07003 0.35056 0.74527 0.0
N2198 N 0.08421 0.37908 0.71058 0.0
N2199 N 0.05596 0.32308 0.70818 0.0
C2200 C 0.06266 0.33664 0.66491 0.0
C2201 C 0.078 0.36684 0.66614 0.0
C2202 C 1.01194 0.62109 0.77983 0.0
C2203 C 0.99672 0.63534 0.78734 0.0
C2204 C 0.04182 0.63603 0.78069 0.0
C2205 C 0.05708 0.66535 0.79075 0.0
H2206 H 1.00074 0.59853 0.77227 0.0
H2207 H 0.05299 0.62464 0.7735 0.0
S2208 S 1.02637 0.71161 0.81604 0.0
N2209 N 0.99874 0.67981 0.80674 0.0
N2210 N 0.05427 0.70768 0.80965 0.0
C2211 C 0.04176 0.67944 0.79967 0.0
C2212 C 1.01172 0.66447 0.79768 0.0
C2213 C 0.38067 0.35805 0.79787 0.0
C2214 C 0.41015 0.37239 0.79116 0.0
C2215 C 0.36586 0.37266 0.79925 0.0
C2216 C 0.3798 0.40224 0.793 0.0
H2217 H 0.36884 0.33521 0.8025 0.0
H2218 H 0.34306 0.36037 0.80394 0.0
S2219 S 0.45708 0.44985 0.77506 0.0
N2220 N 0.4532 0.41781 0.77977 0.0
N2221 N 0.42496 0.44561 0.78046 0.0
C2222 C 0.4094 0.41704 0.7865 0.0
C2223 C 0.42471 0.40204 0.78622 0.0
C2224 C 0.68924 0.03308 0.78522 0.0
C2225 C 0.67474 0.04834 0.78484 0.0
C2226 C 0.67462 1.0036 0.78649 0.0
C2227 C 0.64485 0.98806 0.78651 0.0
H2228 H 0.71222 0.04398 0.78548 0.0
H2229 H 0.68689 0.99291 0.78652 0.0
S2230 S 0.59675 1.01779 0.78496 0.0
N2231 N 0.62896 0.04597 0.78489 0.0
N2232 N 0.60113 0.98985 0.78547 0.0
C2233 C 0.62989 1.00288 0.78555 0.0
C2234 C 0.64494 0.03322 0.78533 0.0
C2235 C 0.4151 0.03366 0.3251 0.0
C2236 C 0.41625 0.0489 0.28328 0.0
C2237 C 0.40012 1.00392 0.32528 0.0
C2238 C 0.3868 0.98875 0.28322 0.0
H2239 H 0.42433 0.04474 0.35862 0.0
H2240 H 0.39826 0.99275 0.35866 0.0
S2241 S 0.38541 1.01855 0.16373 0.0
N2242 N 0.40386 0.04662 0.19846 0.0
N2243 N 0.37672 0.99066 0.19834 0.0
C2244 C 0.38911 1.00367 0.24061 0.0
C2245 C 0.40364 0.03384 0.24073 0.0
C2246 C 1.01279 0.39106 0.32646 0.0
C2247 C 0.99705 0.37758 0.2847 0.0
C2248 C 0.04252 0.40575 0.32564 0.0
C2249 C 0.05715 0.40814 0.28269 0.0
H2250 H 1.00212 0.38869 0.36058 0.0
H2251 H 0.05411 0.4145 0.35895 0.0
S2252 S 1.0258 0.37885 0.16298 0.0
N2253 N 0.99821 0.36875 0.19897 0.0
N2254 N 0.05413 0.39747 0.19706 0.0
C2255 C 0.0417 0.39626 0.24019 0.0
C2256 C 1.01154 0.38067 0.24126 0.0
C2257 C 0.67157 0.67797 0.29051 0.0
C2258 C 0.64183 0.66364 0.29195 0.0
C2259 C 0.68615 0.66316 0.2892 0.0
C2260 C 0.67168 0.63335 0.29016 0.0
H2261 H 0.68383 0.70096 0.28932 0.0
H2262 H 0.70913 0.67537 0.28815 0.0
S2263 S 0.59377 0.5857 0.2954 0.0
N2264 N 0.59812 0.61803 0.29439 0.0
N2265 N 0.62596 0.58981 0.29382 0.0
C2266 C 0.64191 0.61856 0.29247 0.0
C2267 C 0.62686 0.63382 0.29268 0.0
loop_
_geom_bond_atom_site_label_1
_geom_bond_atom_site_label_2
_geom_bond_distance
_geom_bond_site_symmetry_2
_ccdc_geom_bond_type
Co0 N5 2.057 . S
Co0 O17 2.021 . S
Co0 O20 2.062 . S
Co0 O24 2.117 1_554 S
Co0 O25 2.020 . S
C1 O21 1.259 1_556 S
C1 O24 1.258 . S
Co2 N11 2.057 . S
Co2 O18 2.117 . S
Co2 O19 2.020 . S
Co2 O21 2.021 . S
Co2 O26 2.062 . S
C3 N5 1.316 . S
C3 N6 1.347 1_554 S
C3 H8 0.931 . S
C4 N5 1.375 1_556 S
C4 C7 1.350 . S
C4 H9 0.930 . S
N5 Co0 2.057 . S
N5 C3 1.316 . S
N5 C4 1.375 1_554 S
N6 C3 1.347 1_556 S
N6 C7 1.373 . S
C7 C4 1.350 . S
C7 N6 1.373 . S
C7 H28 0.931 . S
H8 C3 0.931 . S
H9 C4 0.930 . S
C10 O17 1.259 . S
C10 O18 1.258 . S
N11 Co2 2.057 . S
N11 C12 1.316 . S
N11 C13 1.375 . S
C12 N11 1.316 . S
C12 N14 1.347 . S
C12 H23 0.931 . S
C13 N11 1.375 . S
C13 C15 1.350 . S
C13 H22 0.930 . S
N14 C12 1.347 . S
N14 C15 1.373 . S
C15 C13 1.350 . S
C15 N14 1.373 . S
C15 H29 0.931 . S
C16 O19 1.256 . S
C16 O20 1.255 . S
O17 Co0 2.021 . S
O17 C10 1.259 . S
O18 Co2 2.117 . S
O18 C10 1.258 . S
O19 Co2 2.020 . S
O19 C16 1.256 . S
O20 Co0 2.062 . S
O20 C16 1.255 . S
O21 C1 1.259 1_554 S
O21 Co2 2.021 . S
H22 C13 0.930 . S
H23 C12 0.931 . S
O24 Co0 2.117 1_556 S
O24 C1 1.258 . S
O25 Co0 2.020 . S
O25 C27 1.256 . S
O26 Co2 2.062 . S
O26 C27 1.255 . S
C27 O25 1.256 . S
C27 O26 1.255 . S
H28 C7 0.931 . S
H29 C15 0.931 . S
Co30 N35 2.057 1_545 S
Co30 O47 2.021 1_545 S
Co30 O50 2.062 1_545 S
Co30 O54 2.117 1_554 S
Co30 O55 2.020 . S
C31 O51 1.259 1_556 S
C31 O54 1.258 . S
Co32 N41 2.057 . S
Co32 O48 2.117 . S
Co32 O49 2.020 . S
Co32 O51 2.021 . S
Co32 O56 2.062 . S
C33 N35 1.316 . S
C33 N36 1.347 1_554 S
C33 H38 0.931 . S
C34 N35 1.375 1_556 S
C34 C37 1.350 . S
C34 H39 0.930 . S
N35 Co30 2.057 1_565 S
N35 C33 1.316 . S
N35 C34 1.375 1_554 S
N36 C33 1.347 1_556 S
N36 C37 1.373 . S
C37 C34 1.350 . S
C37 N36 1.373 . S
C37 H58 0.931 . S
H38 C33 0.931 . S
H39 C34 0.930 . S
C40 O47 1.259 1_545 S
C40 O48 1.258 . S
N41 Co32 2.057 . S
N41 C42 1.316 . S
N41 C43 1.375 . S
C42 N41 1.316 . S
C42 N44 1.347 . S
C42 H53 0.931 . S
C43 N41 1.375 . S
C43 C45 1.350 . S
C43 H52 0.930 . S
N44 C42 1.347 . S
N44 C45 1.373 . S
C45 C43 1.350 . S
C45 N44 1.373 . S
C45 H59 0.931 . S
C46 O49 1.256 1_565 S
C46 O50 1.255 . S
O47 Co30 2.021 1_565 S
O47 C40 1.259 1_565 S
O48 Co32 2.117 . S
O48 C40 1.258 . S
O49 Co32 2.020 . S
O49 C46 1.256 1_545 S
O50 Co30 2.062 1_565 S
O50 C46 1.255 . S
O51 C31 1.259 1_554 S
O51 Co32 2.021 . S
H52 C43 0.930 . S
H53 C42 0.931 . S
O54 Co30 2.117 1_556 S
O54 C31 1.258 . S
O55 Co30 2.020 . S
O55 C57 1.256 . S
O56 Co32 2.062 . S
O56 C57 1.255 . S
C57 O55 1.256 . S
C57 O56 1.255 . S
H58 C37 0.931 . S
H59 C45 0.931 . S
Co60 N65 2.057 1_655 S
Co60 O77 2.021 1_655 S
Co60 O80 2.062 1_655 S
Co60 O84 2.117 1_554 S
Co60 O85 2.020 . S
C61 O81 1.259 1_556 S
C61 O84 1.258 . S
Co62 N71 2.057 . S
Co62 O78 2.117 . S
Co62 O79 2.020 . S
Co62 O81 2.021 . S
Co62 O86 2.062 . S
C63 N65 1.316 . S
C63 N66 1.347 1_554 S
C63 H68 0.931 . S
C64 N65 1.375 1_556 S
C64 C67 1.350 . S
C64 H69 0.930 . S
N65 Co60 2.057 1_455 S
N65 C63 1.316 . S
N65 C64 1.375 1_554 S
N66 C63 1.347 1_556 S
N66 C67 1.373 . S
C67 C64 1.350 . S
C67 N66 1.373 . S
C67 H88 0.931 . S
H68 C63 0.931 . S
H69 C64 0.930 . S
C70 O77 1.259 1_655 S
C70 O78 1.258 . S
N71 Co62 2.057 . S
N71 C72 1.316 . S
N71 C73 1.375 . S
C72 N71 1.316 . S
C72 N74 1.347 . S
C72 H83 0.931 . S
C73 N71 1.375 . S
C73 C75 1.350 . S
C73 H82 0.930 . S
N74 C72 1.347 . S
N74 C75 1.373 . S
C75 C73 1.350 . S
C75 N74 1.373 . S
C75 H89 0.931 . S
C76 O79 1.256 1_455 S
C76 O80 1.255 . S
O77 Co60 2.021 1_455 S
O77 C70 1.259 1_455 S
O78 Co62 2.117 . S
O78 C70 1.258 . S
O79 Co62 2.020 . S
O79 C76 1.256 1_655 S
O80 Co60 2.062 1_455 S
O80 C76 1.255 . S
O81 C61 1.259 1_554 S
O81 Co62 2.021 . S
H82 C73 0.930 . S
H83 C72 0.931 . S
O84 Co60 2.117 1_556 S
O84 C61 1.258 . S
O85 Co60 2.020 . S
O85 C87 1.256 . S
O86 Co62 2.062 . S
O86 C87 1.255 . S
C87 O85 1.256 . S
C87 O86 1.255 . S
H88 C67 0.931 . S
H89 C75 0.931 . S
Co90 N95 2.057 . S
Co90 O107 2.021 . S
Co90 O110 2.062 . S
Co90 O114 2.117 . S
Co90 O115 2.020 . S
C91 O111 1.259 . S
C91 O114 1.258 . S
Co92 N101 2.057 . S
Co92 O108 2.117 . S
Co92 O109 2.020 . S
Co92 O111 2.021 . S
Co92 O116 2.062 . S
C93 N95 1.316 . S
C93 N96 1.347 . S
C93 H98 0.931 . S
C94 N95 1.375 . S
C94 C97 1.350 . S
C94 H99 0.930 . S
N95 Co90 2.057 . S
N95 C93 1.316 . S
N95 C94 1.375 . S
N96 C93 1.347 . S
N96 C97 1.373 . S
C97 C94 1.350 . S
C97 N96 1.373 . S
C97 H118 0.931 . S
H98 C93 0.931 . S
H99 C94 0.930 . S
C100 O107 1.259 . S
C100 O108 1.258 . S
N101 Co92 2.057 . S
N101 C102 1.316 . S
N101 C103 1.375 . S
C102 N101 1.316 . S
C102 N104 1.347 . S
C102 H113 0.931 . S
C103 N101 1.375 . S
C103 C105 1.350 . S
C103 H112 0.930 . S
N104 C102 1.347 . S
N104 C105 1.373 . S
C105 C103 1.350 . S
C105 N104 1.373 . S
C105 H119 0.931 . S
C106 O109 1.256 . S
C106 O110 1.255 . S
O107 Co90 2.021 . S
O107 C100 1.259 . S
O108 Co92 2.117 . S
O108 C100 1.258 . S
O109 Co92 2.020 . S
O109 C106 1.256 . S
O110 Co90 2.062 . S
O110 C106 1.255 . S
O111 C91 1.259 . S
O111 Co92 2.021 . S
H112 C103 0.930 . S
H113 C102 0.931 . S
O114 Co90 2.117 . S
O114 C91 1.258 . S
O115 Co90 2.020 . S
O115 C117 1.256 . S
O116 Co92 2.062 . S
O116 C117 1.255 . S
C117 O115 1.256 . S
C117 O116 1.255 . S
H118 C97 0.931 . S
H119 C105 0.931 . S
Co120 N125 2.057 1_565 S
Co120 O137 2.021 1_565 S
Co120 O140 2.062 1_565 S
Co120 O144 2.117 . S
Co120 O145 2.020 . S
C121 O141 1.259 . S
C121 O144 1.258 . S
Co122 N131 2.057 . S
Co122 O138 2.117 . S
Co122 O139 2.020 . S
Co122 O141 2.021 . S
Co122 O146 2.062 . S
C123 N125 1.316 . S
C123 N126 1.347 . S
C123 H128 0.931 . S
C124 N125 1.375 . S
C124 C127 1.350 . S
C124 H129 0.930 . S
N125 Co120 2.057 1_545 S
N125 C123 1.316 . S
N125 C124 1.375 . S
N126 C123 1.347 . S
N126 C127 1.373 . S
C127 C124 1.350 . S
C127 N126 1.373 . S
C127 H148 0.931 . S
H128 C123 0.931 . S
H129 C124 0.930 . S
C130 O137 1.259 1_565 S
C130 O138 1.258 . S
N131 Co122 2.057 . S
N131 C132 1.316 . S
N131 C133 1.375 . S
C132 N131 1.316 . S
C132 N134 1.347 . S
C132 H143 0.931 . S
C133 N131 1.375 . S
C133 C135 1.350 . S
C133 H142 0.930 . S
N134 C132 1.347 . S
N134 C135 1.373 . S
C135 C133 1.350 . S
C135 N134 1.373 . S
C135 H149 0.931 . S
C136 O139 1.256 1_545 S
C136 O140 1.255 . S
O137 Co120 2.021 1_545 S
O137 C130 1.259 1_545 S
O138 Co122 2.117 . S
O138 C130 1.258 . S
O139 Co122 2.020 . S
O139 C136 1.256 1_565 S
O140 Co120 2.062 1_545 S
O140 C136 1.255 . S
O141 C121 1.259 . S
O141 Co122 2.021 . S
H142 C133 0.930 . S
H143 C132 0.931 . S
O144 Co120 2.117 . S
O144 C121 1.258 . S
O145 Co120 2.020 . S
O145 C147 1.256 . S
O146 Co122 2.062 . S
O146 C147 1.255 . S
C147 O145 1.256 . S
C147 O146 1.255 . S
H148 C127 0.931 . S
H149 C135 0.931 . S
Co150 N155 2.057 1_455 S
Co150 O167 2.021 1_455 S
Co150 O170 2.062 1_455 S
Co150 O174 2.117 . S
Co150 O175 2.020 . S
C151 O171 1.259 . S
C151 O174 1.258 . S
Co152 N161 2.057 . S
Co152 O168 2.117 . S
Co152 O169 2.020 . S
Co152 O171 2.021 . S
Co152 O176 2.062 . S
C153 N155 1.316 . S
C153 N156 1.347 . S
C153 H158 0.931 . S
C154 N155 1.375 . S
C154 C157 1.350 . S
C154 H159 0.930 . S
N155 Co150 2.057 1_655 S
N155 C153 1.316 . S
N155 C154 1.375 . S
N156 C153 1.347 . S
N156 C157 1.373 . S
C157 C154 1.350 . S
C157 N156 1.373 . S
C157 H178 0.931 . S
H158 C153 0.931 . S
H159 C154 0.930 . S
C160 O167 1.259 1_455 S
C160 O168 1.258 . S
N161 Co152 2.057 . S
N161 C162 1.316 . S
N161 C163 1.375 . S
C162 N161 1.316 . S
C162 N164 1.347 . S
C162 H173 0.931 . S
C163 N161 1.375 . S
C163 C165 1.350 . S
C163 H172 0.930 . S
N164 C162 1.347 . S
N164 C165 1.373 . S
C165 C163 1.350 . S
C165 N164 1.373 . S
C165 H179 0.931 . S
C166 O169 1.256 1_655 S
C166 O170 1.255 . S
O167 Co150 2.021 1_655 S
O167 C160 1.259 1_655 S
O168 Co152 2.117 . S
O168 C160 1.258 . S
O169 Co152 2.020 . S
O169 C166 1.256 1_455 S
O170 Co150 2.062 1_655 S
O170 C166 1.255 . S
O171 C151 1.259 . S
O171 Co152 2.021 . S
H172 C163 0.930 . S
H173 C162 0.931 . S
O174 Co150 2.117 . S
O174 C151 1.258 . S
O175 Co150 2.020 . S
O175 C177 1.256 . S
O176 Co152 2.062 . S
O176 C177 1.255 . S
C177 O175 1.256 . S
C177 O176 1.255 . S
H178 C157 0.931 . S
H179 C165 0.931 . S
Co180 N185 2.057 . S
Co180 O197 2.021 . S
Co180 O200 2.062 . S
Co180 O204 2.117 . S
Co180 O205 2.020 . S
C181 O201 1.259 . S
C181 O204 1.258 . S
Co182 N191 2.057 . S
Co182 O198 2.117 1_556 S
Co182 O199 2.020 . S
Co182 O201 2.021 . S
Co182 O206 2.062 . S
C183 N185 1.316 . S
C183 N186 1.347 . S
C183 H188 0.931 . S
C184 N185 1.375 . S
C184 C187 1.350 . S
C184 H189 0.930 . S
N185 Co180 2.057 . S
N185 C183 1.316 . S
N185 C184 1.375 . S
N186 C183 1.347 . S
N186 C187 1.373 . S
C187 C184 1.350 . S
C187 N186 1.373 . S
C187 H208 0.931 . S
H188 C183 0.931 . S
H189 C184 0.930 . S
C190 O197 1.259 1_554 S
C190 O198 1.258 . S
N191 Co182 2.057 . S
N191 C192 1.316 . S
N191 C193 1.375 1_556 S
C192 N191 1.316 . S
C192 N194 1.347 1_556 S
C192 H203 0.931 . S
C193 N191 1.375 1_554 S
C193 C195 1.350 . S
C193 H202 0.930 . S
N194 C192 1.347 1_554 S
N194 C195 1.373 . S
C195 C193 1.350 . S
C195 N194 1.373 . S
C195 H209 0.931 . S
C196 O199 1.256 . S
C196 O200 1.255 . S
O197 Co180 2.021 . S
O197 C190 1.259 1_556 S
O198 Co182 2.117 1_554 S
O198 C190 1.258 . S
O199 Co182 2.020 . S
O199 C196 1.256 . S
O200 Co180 2.062 . S
O200 C196 1.255 . S
O201 C181 1.259 . S
O201 Co182 2.021 . S
H202 C193 0.930 . S
H203 C192 0.931 . S
O204 Co180 2.117 . S
O204 C181 1.258 . S
O205 Co180 2.020 . S
O205 C207 1.256 . S
O206 Co182 2.062 . S
O206 C207 1.255 . S
C207 O205 1.256 . S
C207 O206 1.255 . S
H208 C187 0.931 . S
H209 C195 0.931 . S
Co210 N215 2.057 . S
Co210 O227 2.021 . S
Co210 O230 2.062 . S
Co210 O234 2.117 . S
Co210 O235 2.020 . S
C211 O231 1.259 1_565 S
C211 O234 1.258 . S
Co212 N221 2.057 1_565 S
Co212 O228 2.117 1_556 S
Co212 O229 2.020 . S
Co212 O231 2.021 1_565 S
Co212 O236 2.062 1_565 S
C213 N215 1.316 . S
C213 N216 1.347 . S
C213 H218 0.931 . S
C214 N215 1.375 . S
C214 C217 1.350 . S
C214 H219 0.930 . S
N215 Co210 2.057 . S
N215 C213 1.316 . S
N215 C214 1.375 . S
N216 C213 1.347 . S
N216 C217 1.373 . S
C217 C214 1.350 . S
C217 N216 1.373 . S
C217 H238 0.931 . S
H218 C213 0.931 . S
H219 C214 0.930 . S
C220 O227 1.259 1_554 S
C220 O228 1.258 . S
N221 Co212 2.057 1_545 S
N221 C222 1.316 . S
N221 C223 1.375 1_556 S
C222 N221 1.316 . S
C222 N224 1.347 1_556 S
C222 H233 0.931 . S
C223 N221 1.375 1_554 S
C223 C225 1.350 . S
C223 H232 0.930 . S
N224 C222 1.347 1_554 S
N224 C225 1.373 . S
C225 C223 1.350 . S
C225 N224 1.373 . S
C225 H239 0.931 . S
C226 O229 1.256 . S
C226 O230 1.255 . S
O227 Co210 2.021 . S
O227 C220 1.259 1_556 S
O228 Co212 2.117 1_554 S
O228 C220 1.258 . S
O229 Co212 2.020 . S
O229 C226 1.256 . S
O230 Co210 2.062 . S
O230 C226 1.255 . S
O231 C211 1.259 1_545 S
O231 Co212 2.021 1_545 S
H232 C223 0.930 . S
H233 C222 0.931 . S
O234 Co210 2.117 . S
O234 C211 1.258 . S
O235 Co210 2.020 . S
O235 C237 1.256 1_565 S
O236 Co212 2.062 1_545 S
O236 C237 1.255 . S
C237 O235 1.256 1_545 S
C237 O236 1.255 . S
H238 C217 0.931 . S
H239 C225 0.931 . S
Co240 N245 2.057 . S
Co240 O257 2.021 . S
Co240 O260 2.062 . S
Co240 O264 2.117 . S
Co240 O265 2.020 . S
C241 O261 1.259 1_455 S
C241 O264 1.258 . S
Co242 N251 2.057 1_455 S
Co242 O258 2.117 1_556 S
Co242 O259 2.020 . S
Co242 O261 2.021 1_455 S
Co242 O266 2.062 1_455 S
C243 N245 1.316 . S
C243 N246 1.347 . S
C243 H248 0.931 . S
C244 N245 1.375 . S
C244 C247 1.350 . S
C244 H249 0.930 . S
N245 Co240 2.057 . S
N245 C243 1.316 . S
N245 C244 1.375 . S
N246 C243 1.347 . S
N246 C247 1.373 . S
C247 C244 1.350 . S
C247 N246 1.373 . S
C247 H268 0.931 . S
H248 C243 0.931 . S
H249 C244 0.930 . S
C250 O257 1.259 1_554 S
C250 O258 1.258 . S
N251 Co242 2.057 1_655 S
N251 C252 1.316 . S
N251 C253 1.375 1_556 S
C252 N251 1.316 . S
C252 N254 1.347 1_556 S
C252 H263 0.931 . S
C253 N251 1.375 1_554 S
C253 C255 1.350 . S
C253 H262 0.930 . S
N254 C252 1.347 1_554 S
N254 C255 1.373 . S
C255 C253 1.350 . S
C255 N254 1.373 . S
C255 H269 0.931 . S
C256 O259 1.256 . S
C256 O260 1.255 . S
O257 Co240 2.021 . S
O257 C250 1.259 1_556 S
O258 Co242 2.117 1_554 S
O258 C250 1.258 . S
O259 Co242 2.020 . S
O259 C256 1.256 . S
O260 Co240 2.062 . S
O260 C256 1.255 . S
O261 C241 1.259 1_655 S
O261 Co242 2.021 1_655 S
H262 C253 0.930 . S
H263 C252 0.931 . S
O264 Co240 2.117 . S
O264 C241 1.258 . S
O265 Co240 2.020 . S
O265 C267 1.256 1_455 S
O266 Co242 2.062 1_655 S
O266 C267 1.255 . S
C267 O265 1.256 1_655 S
C267 O266 1.255 . S
H268 C247 0.931 . S
H269 C255 0.931 . S
Co270 N275 2.057 . S
Co270 O287 2.021 . S
Co270 O290 2.062 . S
Co270 O294 2.117 . S
Co270 O295 2.020 . S
C271 O291 1.259 . S
C271 O294 1.258 . S
Co272 N281 2.057 . S
Co272 O288 2.117 . S
Co272 O289 2.020 . S
Co272 O291 2.021 . S
Co272 O296 2.062 . S
C273 N275 1.316 . S
C273 N276 1.347 . S
C273 H278 0.931 . S
C274 N275 1.375 . S
C274 C277 1.350 . S
C274 H279 0.930 . S
N275 Co270 2.057 . S
N275 C273 1.316 . S
N275 C274 1.375 . S
N276 C273 1.347 . S
N276 C277 1.373 . S
C277 C274 1.350 . S
C277 N276 1.373 . S
C277 H298 0.931 . S
H278 C273 0.931 . S
H279 C274 0.930 . S
C280 O287 1.259 . S
C280 O288 1.258 . S
N281 Co272 2.057 . S
N281 C282 1.316 . S
N281 C283 1.375 . S
C282 N281 1.316 . S
C282 N284 1.347 . S
C282 H293 0.931 . S
C283 N281 1.375 . S
C283 C285 1.350 . S
C283 H292 0.930 . S
N284 C282 1.347 . S
N284 C285 1.373 . S
C285 C283 1.350 . S
C285 N284 1.373 . S
C285 H299 0.931 . S
C286 O289 1.256 . S
C286 O290 1.255 . S
O287 Co270 2.021 . S
O287 C280 1.259 . S
O288 Co272 2.117 . S
O288 C280 1.258 . S
O289 Co272 2.020 . S
O289 C286 1.256 . S
O290 Co270 2.062 . S
O290 C286 1.255 . S
O291 C271 1.259 . S
O291 Co272 2.021 . S
H292 C283 0.930 . S
H293 C282 0.931 . S
O294 Co270 2.117 . S
O294 C271 1.258 . S
O295 Co270 2.020 . S
O295 C297 1.256 . S
O296 Co272 2.062 . S
O296 C297 1.255 . S
C297 O295 1.256 . S
C297 O296 1.255 . S
H298 C277 0.931 . S
H299 C285 0.931 . S
Co300 N305 2.057 . S
Co300 O317 2.021 . S
Co300 O320 2.062 . S
Co300 O324 2.117 . S
Co300 O325 2.020 . S
C301 O321 1.259 1_545 S
C301 O324 1.258 . S
Co302 N311 2.057 1_545 S
Co302 O318 2.117 . S
Co302 O319 2.020 . S
Co302 O321 2.021 1_545 S
Co302 O326 2.062 1_545 S
C303 N305 1.316 . S
C303 N306 1.347 . S
C303 H308 0.931 . S
C304 N305 1.375 . S
C304 C307 1.350 . S
C304 H309 0.930 . S
N305 Co300 2.057 . S
N305 C303 1.316 . S
N305 C304 1.375 . S
N306 C303 1.347 . S
N306 C307 1.373 . S
C307 C304 1.350 . S
C307 N306 1.373 . S
C307 H328 0.931 . S
H308 C303 0.931 . S
H309 C304 0.930 . S
C310 O317 1.259 . S
C310 O318 1.258 . S
N311 Co302 2.057 1_565 S
N311 C312 1.316 . S
N311 C313 1.375 . S
C312 N311 1.316 . S
C312 N314 1.347 . S
C312 H323 0.931 . S
C313 N311 1.375 . S
C313 C315 1.350 . S
C313 H322 0.930 . S
N314 C312 1.347 . S
N314 C315 1.373 . S
C315 C313 1.350 . S
C315 N314 1.373 . S
C315 H329 0.931 . S
C316 O319 1.256 . S
C316 O320 1.255 . S
O317 Co300 2.021 . S
O317 C310 1.259 . S
O318 Co302 2.117 . S
O318 C310 1.258 . S
O319 Co302 2.020 . S
O319 C316 1.256 . S
O320 Co300 2.062 . S
O320 C316 1.255 . S
O321 C301 1.259 1_565 S
O321 Co302 2.021 1_565 S
H322 C313 0.930 . S
H323 C312 0.931 . S
O324 Co300 2.117 . S
O324 C301 1.258 . S
O325 Co300 2.020 . S
O325 C327 1.256 1_545 S
O326 Co302 2.062 1_565 S
O326 C327 1.255 . S
C327 O325 1.256 1_565 S
C327 O326 1.255 . S
H328 C307 0.931 . S
H329 C315 0.931 . S
Co330 N335 2.057 . S
Co330 O347 2.021 . S
Co330 O350 2.062 . S
Co330 O354 2.117 . S
Co330 O355 2.020 . S
C331 O351 1.259 1_655 S
C331 O354 1.258 . S
Co332 N341 2.057 1_655 S
Co332 O348 2.117 . S
Co332 O349 2.020 . S
Co332 O351 2.021 1_655 S
Co332 O356 2.062 1_655 S
C333 N335 1.316 . S
C333 N336 1.347 . S
C333 H338 0.931 . S
C334 N335 1.375 . S
C334 C337 1.350 . S
C334 H339 0.930 . S
N335 Co330 2.057 . S
N335 C333 1.316 . S
N335 C334 1.375 . S
N336 C333 1.347 . S
N336 C337 1.373 . S
C337 C334 1.350 . S
C337 N336 1.373 . S
C337 H358 0.931 . S
H338 C333 0.931 . S
H339 C334 0.930 . S
C340 O347 1.259 . S
C340 O348 1.258 . S
N341 Co332 2.057 1_455 S
N341 C342 1.316 . S
N341 C343 1.375 . S
C342 N341 1.316 . S
C342 N344 1.347 . S
C342 H353 0.931 . S
C343 N341 1.375 . S
C343 C345 1.350 . S
C343 H352 0.930 . S
N344 C342 1.347 . S
N344 C345 1.373 . S
C345 C343 1.350 . S
C345 N344 1.373 . S
C345 H359 0.931 . S
C346 O349 1.256 . S
C346 O350 1.255 . S
O347 Co330 2.021 . S
O347 C340 1.259 . S
O348 Co332 2.117 . S
O348 C340 1.258 . S
O349 Co332 2.020 . S
O349 C346 1.256 . S
O350 Co330 2.062 . S
O350 C346 1.255 . S
O351 C331 1.259 1_455 S
O351 Co332 2.021 1_455 S
H352 C343 0.930 . S
H353 C342 0.931 . S
O354 Co330 2.117 . S
O354 C331 1.258 . S
O355 Co330 2.020 . S
O355 C357 1.256 1_655 S
O356 Co332 2.062 1_455 S
O356 C357 1.255 . S
C357 O355 1.256 1_455 S
C357 O356 1.255 . S
H358 C337 0.931 . S
H359 C345 0.931 . S
Co360 N365 2.057 . S
Co360 O377 2.021 . S
Co360 O380 2.062 . S
Co360 O384 2.117 . S
Co360 O385 2.020 . S
C361 O381 1.259 . S
C361 O384 1.258 . S
Co362 N371 2.057 . S
Co362 O378 2.117 . S
Co362 O379 2.020 . S
Co362 O381 2.021 . S
Co362 O386 2.062 . S
C363 N365 1.316 . S
C363 N366 1.347 . S
C363 H368 0.931 . S
C364 N365 1.375 . S
C364 C367 1.350 . S
C364 H369 0.930 . S
N365 Co360 2.057 . S
N365 C363 1.316 . S
N365 C364 1.375 . S
N366 C363 1.347 . S
N366 C367 1.373 . S
C367 C364 1.350 . S
C367 N366 1.373 . S
C367 H388 0.931 . S
H368 C363 0.931 . S
H369 C364 0.930 . S
C370 O377 1.259 . S
C370 O378 1.258 . S
N371 Co362 2.057 . S
N371 C372 1.316 . S
N371 C373 1.375 . S
C372 N371 1.316 . S
C372 N374 1.347 . S
C372 H383 0.931 . S
C373 N371 1.375 . S
C373 C375 1.350 . S
C373 H382 0.930 . S
N374 C372 1.347 . S
N374 C375 1.373 . S
C375 C373 1.350 . S
C375 N374 1.373 . S
C375 H389 0.931 . S
C376 O379 1.256 . S
C376 O380 1.255 . S
O377 Co360 2.021 . S
O377 C370 1.259 . S
O378 Co362 2.117 . S
O378 C370 1.258 . S
O379 Co362 2.020 . S
O379 C376 1.256 . S
O380 Co360 2.062 . S
O380 C376 1.255 . S
O381 C361 1.259 . S
O381 Co362 2.021 . S
H382 C373 0.930 . S
H383 C372 0.931 . S
O384 Co360 2.117 . S
O384 C361 1.258 . S
O385 Co360 2.020 . S
O385 C387 1.256 . S
O386 Co362 2.062 . S
O386 C387 1.255 . S
C387 O385 1.256 . S
C387 O386 1.255 . S
H388 C367 0.931 . S
H389 C375 0.931 . S
Co390 N395 2.057 . S
Co390 O407 2.021 . S
Co390 O410 2.062 . S
Co390 O414 2.117 . S
Co390 O415 2.020 . S
C391 O411 1.259 . S
C391 O414 1.258 . S
Co392 N401 2.057 . S
Co392 O408 2.117 . S
Co392 O409 2.020 . S
Co392 O411 2.021 . S
Co392 O416 2.062 . S
C393 N395 1.316 . S
C393 N396 1.347 . S
C393 H398 0.931 . S
C394 N395 1.375 . S
C394 C397 1.350 . S
C394 H399 0.930 . S
N395 Co390 2.057 . S
N395 C393 1.316 . S
N395 C394 1.375 . S
N396 C393 1.347 . S
N396 C397 1.373 . S
C397 C394 1.350 . S
C397 N396 1.373 . S
C397 H418 0.931 . S
H398 C393 0.931 . S
H399 C394 0.930 . S
C400 O407 1.259 . S
C400 O408 1.258 . S
N401 Co392 2.057 . S
N401 C402 1.316 . S
N401 C403 1.375 . S
C402 N401 1.316 . S
C402 N404 1.347 . S
C402 H413 0.931 . S
C403 N401 1.375 . S
C403 C405 1.350 . S
C403 H412 0.930 . S
N404 C402 1.347 . S
N404 C405 1.373 . S
C405 C403 1.350 . S
C405 N404 1.373 . S
C405 H419 0.931 . S
C406 O409 1.256 . S
C406 O410 1.255 . S
O407 Co390 2.021 . S
O407 C400 1.259 . S
O408 Co392 2.117 . S
O408 C400 1.258 . S
O409 Co392 2.020 . S
O409 C406 1.256 . S
O410 Co390 2.062 . S
O410 C406 1.255 . S
O411 C391 1.259 . S
O411 Co392 2.021 . S
H412 C403 0.930 . S
H413 C402 0.931 . S
O414 Co390 2.117 . S
O414 C391 1.258 . S
O415 Co390 2.020 . S
O415 C417 1.256 . S
O416 Co392 2.062 . S
O416 C417 1.255 . S
C417 O415 1.256 . S
C417 O416 1.255 . S
H418 C397 0.931 . S
H419 C405 0.931 . S
Co420 N425 2.057 . S
Co420 O437 2.021 . S
Co420 O440 2.062 . S
Co420 O444 2.117 . S
Co420 O445 2.020 . S
C421 O441 1.259 . S
C421 O444 1.258 . S
Co422 N431 2.057 . S
Co422 O438 2.117 . S
Co422 O439 2.020 . S
Co422 O441 2.021 . S
Co422 O446 2.062 . S
C423 N425 1.316 . S
C423 N426 1.347 . S
C423 H428 0.931 . S
C424 N425 1.375 . S
C424 C427 1.350 . S
C424 H429 0.930 . S
N425 Co420 2.057 . S
N425 C423 1.316 . S
N425 C424 1.375 . S
N426 C423 1.347 . S
N426 C427 1.373 . S
C427 C424 1.350 . S
C427 N426 1.373 . S
C427 H448 0.931 . S
H428 C423 0.931 . S
H429 C424 0.930 . S
C430 O437 1.259 . S
C430 O438 1.258 . S
N431 Co422 2.057 . S
N431 C432 1.316 . S
N431 C433 1.375 . S
C432 N431 1.316 . S
C432 N434 1.347 . S
C432 H443 0.931 . S
C433 N431 1.375 . S
C433 C435 1.350 . S
C433 H442 0.930 . S
N434 C432 1.347 . S
N434 C435 1.373 . S
C435 C433 1.350 . S
C435 N434 1.373 . S
C435 H449 0.931 . S
C436 O439 1.256 . S
C436 O440 1.255 . S
O437 Co420 2.021 . S
O437 C430 1.259 . S
O438 Co422 2.117 . S
O438 C430 1.258 . S
O439 Co422 2.020 . S
O439 C436 1.256 . S
O440 Co420 2.062 . S
O440 C436 1.255 . S
O441 C421 1.259 . S
O441 Co422 2.021 . S
H442 C433 0.930 . S
H443 C432 0.931 . S
O444 Co420 2.117 . S
O444 C421 1.258 . S
O445 Co420 2.020 . S
O445 C447 1.256 . S
O446 Co422 2.062 . S
O446 C447 1.255 . S
C447 O445 1.256 . S
C447 O446 1.255 . S
H448 C427 0.931 . S
H449 C435 0.931 . S
Co450 N455 2.057 . S
Co450 O467 2.021 . S
Co450 O470 2.062 . S
Co450 O474 2.117 . S
Co450 O475 2.020 . S
C451 O471 1.259 . S
C451 O474 1.258 . S
Co452 N461 2.057 . S
Co452 O468 2.117 . S
Co452 O469 2.020 . S
Co452 O471 2.021 . S
Co452 O476 2.062 . S
C453 N455 1.316 . S
C453 N456 1.347 . S
C453 H458 0.931 . S
C454 N455 1.375 . S
C454 C457 1.350 . S
C454 H459 0.930 . S
N455 Co450 2.057 . S
N455 C453 1.316 . S
N455 C454 1.375 . S
N456 C453 1.347 . S
N456 C457 1.373 . S
C457 C454 1.350 . S
C457 N456 1.373 . S
C457 H478 0.931 . S
H458 C453 0.931 . S
H459 C454 0.930 . S
C460 O467 1.259 . S
C460 O468 1.258 . S
N461 Co452 2.057 . S
N461 C462 1.316 . S
N461 C463 1.375 . S
C462 N461 1.316 . S
C462 N464 1.347 . S
C462 H473 0.931 . S
C463 N461 1.375 . S
C463 C465 1.350 . S
C463 H472 0.930 . S
N464 C462 1.347 . S
N464 C465 1.373 . S
C465 C463 1.350 . S
C465 N464 1.373 . S
C465 H479 0.931 . S
C466 O469 1.256 . S
C466 O470 1.255 . S
O467 Co450 2.021 . S
O467 C460 1.259 . S
O468 Co452 2.117 . S
O468 C460 1.258 . S
O469 Co452 2.020 . S
O469 C466 1.256 . S
O470 Co450 2.062 . S
O470 C466 1.255 . S
O471 C451 1.259 . S
O471 Co452 2.021 . S
H472 C463 0.930 . S
H473 C462 0.931 . S
O474 Co450 2.117 . S
O474 C451 1.258 . S
O475 Co450 2.020 . S
O475 C477 1.256 . S
O476 Co452 2.062 . S
O476 C477 1.255 . S
C477 O475 1.256 . S
C477 O476 1.255 . S
H478 C457 0.931 . S
H479 C465 0.931 . S
Co480 N485 2.057 . S
Co480 O497 2.021 . S
Co480 O500 2.062 . S
Co480 O504 2.117 . S
Co480 O505 2.020 . S
C481 O501 1.259 . S
C481 O504 1.258 . S
Co482 N491 2.057 . S
Co482 O498 2.117 . S
Co482 O499 2.020 . S
Co482 O501 2.021 . S
Co482 O506 2.062 . S
C483 N485 1.316 . S
C483 N486 1.347 . S
C483 H488 0.931 . S
C484 N485 1.375 . S
C484 C487 1.350 . S
C484 H489 0.930 . S
N485 Co480 2.057 . S
N485 C483 1.316 . S
N485 C484 1.375 . S
N486 C483 1.347 . S
N486 C487 1.373 . S
C487 C484 1.350 . S
C487 N486 1.373 . S
C487 H508 0.931 . S
H488 C483 0.931 . S
H489 C484 0.930 . S
C490 O497 1.259 . S
C490 O498 1.258 . S
N491 Co482 2.057 . S
N491 C492 1.316 . S
N491 C493 1.375 . S
C492 N491 1.316 . S
C492 N494 1.347 . S
C492 H503 0.931 . S
C493 N491 1.375 . S
C493 C495 1.350 . S
C493 H502 0.930 . S
N494 C492 1.347 . S
N494 C495 1.373 . S
C495 C493 1.350 . S
C495 N494 1.373 . S
C495 H509 0.931 . S
C496 O499 1.256 . S
C496 O500 1.255 . S
O497 Co480 2.021 . S
O497 C490 1.259 . S
O498 Co482 2.117 . S
O498 C490 1.258 . S
O499 Co482 2.020 . S
O499 C496 1.256 . S
O500 Co480 2.062 . S
O500 C496 1.255 . S
O501 C481 1.259 . S
O501 Co482 2.021 . S
H502 C493 0.930 . S
H503 C492 0.931 . S
O504 Co480 2.117 . S
O504 C481 1.258 . S
O505 Co480 2.020 . S
O505 C507 1.256 . S
O506 Co482 2.062 . S
O506 C507 1.255 . S
C507 O505 1.256 . S
C507 O506 1.255 . S
H508 C487 0.931 . S
H509 C495 0.931 . S
Co510 N515 2.057 . S
Co510 O527 2.021 . S
Co510 O530 2.062 . S
Co510 O534 2.117 . S
Co510 O535 2.020 . S
C511 O531 1.259 . S
C511 O534 1.258 . S
Co512 N521 2.057 . S
Co512 O528 2.117 . S
Co512 O529 2.020 . S
Co512 O531 2.021 . S
Co512 O536 2.062 . S
C513 N515 1.316 . S
C513 N516 1.347 . S
C513 H518 0.931 . S
C514 N515 1.375 . S
C514 C517 1.350 . S
C514 H519 0.930 . S
N515 Co510 2.057 . S
N515 C513 1.316 . S
N515 C514 1.375 . S
N516 C513 1.347 . S
N516 C517 1.373 . S
C517 C514 1.350 . S
C517 N516 1.373 . S
C517 H538 0.931 . S
H518 C513 0.931 . S
H519 C514 0.930 . S
C520 O527 1.259 . S
C520 O528 1.258 . S
N521 Co512 2.057 . S
N521 C522 1.316 . S
N521 C523 1.375 . S
C522 N521 1.316 . S
C522 N524 1.347 . S
C522 H533 0.931 . S
C523 N521 1.375 . S
C523 C525 1.350 . S
C523 H532 0.930 . S
N524 C522 1.347 . S
N524 C525 1.373 . S
C525 C523 1.350 . S
C525 N524 1.373 . S
C525 H539 0.931 . S
C526 O529 1.256 . S
C526 O530 1.255 . S
O527 Co510 2.021 . S
O527 C520 1.259 . S
O528 Co512 2.117 . S
O528 C520 1.258 . S
O529 Co512 2.020 . S
O529 C526 1.256 . S
O530 Co510 2.062 . S
O530 C526 1.255 . S
O531 C511 1.259 . S
O531 Co512 2.021 . S
H532 C523 0.930 . S
H533 C522 0.931 . S
O534 Co510 2.117 . S
O534 C511 1.258 . S
O535 Co510 2.020 . S
O535 C537 1.256 . S
O536 Co512 2.062 . S
O536 C537 1.255 . S
C537 O535 1.256 . S
C537 O536 1.255 . S
H538 C517 0.931 . S
H539 C525 0.931 . S
Co540 N545 2.057 . S
Co540 O557 2.021 . S
Co540 O560 2.062 . S
Co540 O564 2.117 . S
Co540 O565 2.020 . S
C541 O561 1.259 . S
C541 O564 1.258 . S
Co542 N551 2.057 . S
Co542 O558 2.117 . S
Co542 O559 2.020 . S
Co542 O561 2.021 . S
Co542 O566 2.062 . S
C543 N545 1.316 . S
C543 N546 1.347 . S
C543 H548 0.931 . S
C544 N545 1.375 . S
C544 C547 1.350 . S
C544 H549 0.930 . S
N545 Co540 2.057 . S
N545 C543 1.316 . S
N545 C544 1.375 . S
N546 C543 1.347 . S
N546 C547 1.373 . S
C547 C544 1.350 . S
C547 N546 1.373 . S
C547 H568 0.931 . S
H548 C543 0.931 . S
H549 C544 0.930 . S
C550 O557 1.259 . S
C550 O558 1.258 . S
N551 Co542 2.057 . S
N551 C552 1.316 . S
N551 C553 1.375 . S
C552 N551 1.316 . S
C552 N554 1.347 . S
C552 H563 0.931 . S
C553 N551 1.375 . S
C553 C555 1.350 . S
C553 H562 0.930 . S
N554 C552 1.347 . S
N554 C555 1.373 . S
C555 C553 1.350 . S
C555 N554 1.373 . S
C555 H569 0.931 . S
C556 O559 1.256 . S
C556 O560 1.255 . S
O557 Co540 2.021 . S
O557 C550 1.259 . S
O558 Co542 2.117 . S
O558 C550 1.258 . S
O559 Co542 2.020 . S
O559 C556 1.256 . S
O560 Co540 2.062 . S
O560 C556 1.255 . S
O561 C541 1.259 . S
O561 Co542 2.021 . S
H562 C553 0.930 . S
H563 C552 0.931 . S
O564 Co540 2.117 . S
O564 C541 1.258 . S
O565 Co540 2.020 . S
O565 C567 1.256 . S
O566 Co542 2.062 . S
O566 C567 1.255 . S
C567 O565 1.256 . S
C567 O566 1.255 . S
H568 C547 0.931 . S
H569 C555 0.931 . S
Co570 N575 2.057 . S
Co570 O587 2.021 . S
Co570 O590 2.062 . S
Co570 O594 2.117 . S
Co570 O595 2.020 . S
C571 O591 1.259 . S
C571 O594 1.258 . S
Co572 N581 2.057 . S
Co572 O588 2.117 . S
Co572 O589 2.020 . S
Co572 O591 2.021 . S
Co572 O596 2.062 . S
C573 N575 1.316 . S
C573 N576 1.347 . S
C573 H578 0.931 . S
C574 N575 1.375 . S
C574 C577 1.350 . S
C574 H579 0.930 . S
N575 Co570 2.057 . S
N575 C573 1.316 . S
N575 C574 1.375 . S
N576 C573 1.347 . S
N576 C577 1.373 . S
C577 C574 1.350 . S
C577 N576 1.373 . S
C577 H598 0.931 . S
H578 C573 0.931 . S
H579 C574 0.930 . S
C580 O587 1.259 . S
C580 O588 1.258 . S
N581 Co572 2.057 . S
N581 C582 1.316 . S
N581 C583 1.375 . S
C582 N581 1.316 . S
C582 N584 1.347 . S
C582 H593 0.931 . S
C583 N581 1.375 . S
C583 C585 1.350 . S
C583 H592 0.930 . S
N584 C582 1.347 . S
N584 C585 1.373 . S
C585 C583 1.350 . S
C585 N584 1.373 . S
C585 H599 0.931 . S
C586 O589 1.256 . S
C586 O590 1.255 . S
O587 Co570 2.021 . S
O587 C580 1.259 . S
O588 Co572 2.117 . S
O588 C580 1.258 . S
O589 Co572 2.020 . S
O589 C586 1.256 . S
O590 Co570 2.062 . S
O590 C586 1.255 . S
O591 C571 1.259 . S
O591 Co572 2.021 . S
H592 C583 0.930 . S
H593 C582 0.931 . S
O594 Co570 2.117 . S
O594 C571 1.258 . S
O595 Co570 2.020 . S
O595 C597 1.256 . S
O596 Co572 2.062 . S
O596 C597 1.255 . S
C597 O595 1.256 . S
C597 O596 1.255 . S
H598 C577 0.931 . S
H599 C585 0.931 . S
Co600 N605 2.057 . S
Co600 O617 2.021 . S
Co600 O620 2.062 . S
Co600 O624 2.117 . S
Co600 O625 2.020 . S
C601 O621 1.259 . S
C601 O624 1.258 . S
Co602 N611 2.057 . S
Co602 O618 2.117 . S
Co602 O619 2.020 . S
Co602 O621 2.021 . S
Co602 O626 2.062 . S
C603 N605 1.316 . S
C603 N606 1.347 . S
C603 H608 0.931 . S
C604 N605 1.375 . S
C604 C607 1.350 . S
C604 H609 0.930 . S
N605 Co600 2.057 . S
N605 C603 1.316 . S
N605 C604 1.375 . S
N606 C603 1.347 . S
N606 C607 1.373 . S
C607 C604 1.350 . S
C607 N606 1.373 . S
C607 H628 0.931 . S
H608 C603 0.931 . S
H609 C604 0.930 . S
C610 O617 1.259 . S
C610 O618 1.258 . S
N611 Co602 2.057 . S
N611 C612 1.316 . S
N611 C613 1.375 . S
C612 N611 1.316 . S
C612 N614 1.347 . S
C612 H623 0.931 . S
C613 N611 1.375 . S
C613 C615 1.350 . S
C613 H622 0.930 . S
N614 C612 1.347 . S
N614 C615 1.373 . S
C615 C613 1.350 . S
C615 N614 1.373 . S
C615 H629 0.931 . S
C616 O619 1.256 . S
C616 O620 1.255 . S
O617 Co600 2.021 . S
O617 C610 1.259 . S
O618 Co602 2.117 . S
O618 C610 1.258 . S
O619 Co602 2.020 . S
O619 C616 1.256 . S
O620 Co600 2.062 . S
O620 C616 1.255 . S
O621 C601 1.259 . S
O621 Co602 2.021 . S
H622 C613 0.930 . S
H623 C612 0.931 . S
O624 Co600 2.117 . S
O624 C601 1.258 . S
O625 Co600 2.020 . S
O625 C627 1.256 . S
O626 Co602 2.062 . S
O626 C627 1.255 . S
C627 O625 1.256 . S
C627 O626 1.255 . S
H628 C607 0.931 . S
H629 C615 0.931 . S
Co630 N635 2.057 . S
Co630 O647 2.021 . S
Co630 O650 2.062 . S
Co630 O654 2.117 . S
Co630 O655 2.020 . S
C631 O651 1.259 . S
C631 O654 1.258 . S
Co632 N641 2.057 . S
Co632 O648 2.117 . S
Co632 O649 2.020 . S
Co632 O651 2.021 . S
Co632 O656 2.062 . S
C633 N635 1.316 . S
C633 N636 1.347 . S
C633 H638 0.931 . S
C634 N635 1.375 1_554 S
C634 C637 1.350 . S
C634 H639 0.930 . S
N635 Co630 2.057 . S
N635 C633 1.316 . S
N635 C634 1.375 1_556 S
N636 C633 1.347 . S
N636 C637 1.373 1_556 S
C637 C634 1.350 . S
C637 N636 1.373 1_554 S
C637 H658 0.931 . S
H638 C633 0.931 . S
H639 C634 0.930 . S
C640 O647 1.259 . S
C640 O648 1.258 . S
N641 Co632 2.057 . S
N641 C642 1.316 . S
N641 C643 1.375 . S
C642 N641 1.316 . S
C642 N644 1.347 . S
C642 H653 0.931 . S
C643 N641 1.375 . S
C643 C645 1.350 . S
C643 H652 0.930 . S
N644 C642 1.347 . S
N644 C645 1.373 . S
C645 C643 1.350 . S
C645 N644 1.373 . S
C645 H659 0.931 . S
C646 O649 1.256 . S
C646 O650 1.255 . S
O647 Co630 2.021 . S
O647 C640 1.259 . S
O648 Co632 2.117 . S
O648 C640 1.258 . S
O649 Co632 2.020 . S
O649 C646 1.256 . S
O650 Co630 2.062 . S
O650 C646 1.255 . S
O651 C631 1.259 . S
O651 Co632 2.021 . S
H652 C643 0.930 . S
H653 C642 0.931 . S
O654 Co630 2.117 . S
O654 C631 1.258 . S
O655 Co630 2.020 . S
O655 C657 1.256 . S
O656 Co632 2.062 . S
O656 C657 1.255 . S
C657 O655 1.256 . S
C657 O656 1.255 . S
H658 C637 0.931 . S
H659 C645 0.931 . S
Co660 N665 2.057 . S
Co660 O677 2.021 . S
Co660 O680 2.062 . S
Co660 O684 2.117 . S
Co660 O685 2.020 . S
C661 O681 1.259 . S
C661 O684 1.258 . S
Co662 N671 2.057 . S
Co662 O678 2.117 . S
Co662 O679 2.020 . S
Co662 O681 2.021 . S
Co662 O686 2.062 . S
C663 N665 1.316 . S
C663 N666 1.347 . S
C663 H668 0.931 . S
C664 N665 1.375 1_554 S
C664 C667 1.350 . S
C664 H669 0.930 . S
N665 Co660 2.057 . S
N665 C663 1.316 . S
N665 C664 1.375 1_556 S
N666 C663 1.347 . S
N666 C667 1.373 1_556 S
C667 C664 1.350 . S
C667 N666 1.373 1_554 S
C667 H688 0.931 . S
H668 C663 0.931 . S
H669 C664 0.930 . S
C670 O677 1.259 . S
C670 O678 1.258 . S
N671 Co662 2.057 . S
N671 C672 1.316 . S
N671 C673 1.375 . S
C672 N671 1.316 . S
C672 N674 1.347 . S
C672 H683 0.931 . S
C673 N671 1.375 . S
C673 C675 1.350 . S
C673 H682 0.930 . S
N674 C672 1.347 . S
N674 C675 1.373 . S
C675 C673 1.350 . S
C675 N674 1.373 . S
C675 H689 0.931 . S
C676 O679 1.256 . S
C676 O680 1.255 . S
O677 Co660 2.021 . S
O677 C670 1.259 . S
O678 Co662 2.117 . S
O678 C670 1.258 . S
O679 Co662 2.020 . S
O679 C676 1.256 . S
O680 Co660 2.062 . S
O680 C676 1.255 . S
O681 C661 1.259 . S
O681 Co662 2.021 . S
H682 C673 0.930 . S
H683 C672 0.931 . S
O684 Co660 2.117 . S
O684 C661 1.258 . S
O685 Co660 2.020 . S
O685 C687 1.256 . S
O686 Co662 2.062 . S
O686 C687 1.255 . S
C687 O685 1.256 . S
C687 O686 1.255 . S
H688 C667 0.931 . S
H689 C675 0.931 . S
Co690 N695 2.057 . S
Co690 O707 2.021 . S
Co690 O710 2.062 . S
Co690 O714 2.117 . S
Co690 O715 2.020 . S
C691 O711 1.259 . S
C691 O714 1.258 . S
Co692 N701 2.057 . S
Co692 O708 2.117 . S
Co692 O709 2.020 . S
Co692 O711 2.021 . S
Co692 O716 2.062 . S
C693 N695 1.316 . S
C693 N696 1.347 . S
C693 H698 0.931 . S
C694 N695 1.375 1_554 S
C694 C697 1.350 . S
C694 H699 0.930 . S
N695 Co690 2.057 . S
N695 C693 1.316 . S
N695 C694 1.375 1_556 S
N696 C693 1.347 . S
N696 C697 1.373 1_556 S
C697 C694 1.350 . S
C697 N696 1.373 1_554 S
C697 H718 0.931 . S
H698 C693 0.931 . S
H699 C694 0.930 . S
C700 O707 1.259 . S
C700 O708 1.258 . S
N701 Co692 2.057 . S
N701 C702 1.316 . S
N701 C703 1.375 . S
C702 N701 1.316 . S
C702 N704 1.347 . S
C702 H713 0.931 . S
C703 N701 1.375 . S
C703 C705 1.350 . S
C703 H712 0.930 . S
N704 C702 1.347 . S
N704 C705 1.373 . S
C705 C703 1.350 . S
C705 N704 1.373 . S
C705 H719 0.931 . S
C706 O709 1.256 . S
C706 O710 1.255 . S
O707 Co690 2.021 . S
O707 C700 1.259 . S
O708 Co692 2.117 . S
O708 C700 1.258 . S
O709 Co692 2.020 . S
O709 C706 1.256 . S
O710 Co690 2.062 . S
O710 C706 1.255 . S
O711 C691 1.259 . S
O711 Co692 2.021 . S
H712 C703 0.930 . S
H713 C702 0.931 . S
O714 Co690 2.117 . S
O714 C691 1.258 . S
O715 Co690 2.020 . S
O715 C717 1.256 . S
O716 Co692 2.062 . S
O716 C717 1.255 . S
C717 O715 1.256 . S
C717 O716 1.255 . S
H718 C697 0.931 . S
H719 C705 0.931 . S
Co720 N725 2.057 . S
Co720 O737 2.021 . S
Co720 O740 2.062 . S
Co720 O744 2.117 . S
Co720 O745 2.020 . S
C721 O741 1.259 . S
C721 O744 1.258 . S
Co722 N731 2.057 . S
Co722 O738 2.117 . S
Co722 O739 2.020 . S
Co722 O741 2.021 . S
Co722 O746 2.062 . S
C723 N725 1.316 . S
C723 N726 1.347 . S
C723 H728 0.931 . S
C724 N725 1.375 . S
C724 C727 1.350 . S
C724 H729 0.930 . S
N725 Co720 2.057 . S
N725 C723 1.316 . S
N725 C724 1.375 . S
N726 C723 1.347 . S
N726 C727 1.373 . S
C727 C724 1.350 . S
C727 N726 1.373 . S
C727 H748 0.931 . S
H728 C723 0.931 . S
H729 C724 0.930 . S
C730 O737 1.259 . S
C730 O738 1.258 . S
N731 Co722 2.057 . S
N731 C732 1.316 . S
N731 C733 1.375 . S
C732 N731 1.316 . S
C732 N734 1.347 . S
C732 H743 0.931 . S
C733 N731 1.375 . S
C733 C735 1.350 . S
C733 H742 0.930 . S
N734 C732 1.347 . S
N734 C735 1.373 . S
C735 C733 1.350 . S
C735 N734 1.373 . S
C735 H749 0.931 . S
C736 O739 1.256 . S
C736 O740 1.255 . S
O737 Co720 2.021 . S
O737 C730 1.259 . S
O738 Co722 2.117 . S
O738 C730 1.258 . S
O739 Co722 2.020 . S
O739 C736 1.256 . S
O740 Co720 2.062 . S
O740 C736 1.255 . S
O741 C721 1.259 . S
O741 Co722 2.021 . S
H742 C733 0.930 . S
H743 C732 0.931 . S
O744 Co720 2.117 . S
O744 C721 1.258 . S
O745 Co720 2.020 . S
O745 C747 1.256 . S
O746 Co722 2.062 . S
O746 C747 1.255 . S
C747 O745 1.256 . S
C747 O746 1.255 . S
H748 C727 0.931 . S
H749 C735 0.931 . S
Co750 N755 2.057 . S
Co750 O767 2.021 . S
Co750 O770 2.062 . S
Co750 O774 2.117 . S
Co750 O775 2.020 . S
C751 O771 1.259 . S
C751 O774 1.258 . S
Co752 N761 2.057 . S
Co752 O768 2.117 . S
Co752 O769 2.020 . S
Co752 O771 2.021 . S
Co752 O776 2.062 . S
C753 N755 1.316 . S
C753 N756 1.347 . S
C753 H758 0.931 . S
C754 N755 1.375 . S
C754 C757 1.350 . S
C754 H759 0.930 . S
N755 Co750 2.057 . S
N755 C753 1.316 . S
N755 C754 1.375 . S
N756 C753 1.347 . S
N756 C757 1.373 . S
C757 C754 1.350 . S
C757 N756 1.373 . S
C757 H778 0.931 . S
H758 C753 0.931 . S
H759 C754 0.930 . S
C760 O767 1.259 . S
C760 O768 1.258 . S
N761 Co752 2.057 . S
N761 C762 1.316 . S
N761 C763 1.375 . S
C762 N761 1.316 . S
C762 N764 1.347 . S
C762 H773 0.931 . S
C763 N761 1.375 . S
C763 C765 1.350 . S
C763 H772 0.930 . S
N764 C762 1.347 . S
N764 C765 1.373 . S
C765 C763 1.350 . S
C765 N764 1.373 . S
C765 H779 0.931 . S
C766 O769 1.256 . S
C766 O770 1.255 . S
O767 Co750 2.021 . S
O767 C760 1.259 . S
O768 Co752 2.117 . S
O768 C760 1.258 . S
O769 Co752 2.020 . S
O769 C766 1.256 . S
O770 Co750 2.062 . S
O770 C766 1.255 . S
O771 C751 1.259 . S
O771 Co752 2.021 . S
H772 C763 0.930 . S
H773 C762 0.931 . S
O774 Co750 2.117 . S
O774 C751 1.258 . S
O775 Co750 2.020 . S
O775 C777 1.256 . S
O776 Co752 2.062 . S
O776 C777 1.255 . S
C777 O775 1.256 . S
C777 O776 1.255 . S
H778 C757 0.931 . S
H779 C765 0.931 . S
Co780 N785 2.057 . S
Co780 O797 2.021 . S
Co780 O800 2.062 . S
Co780 O804 2.117 . S
Co780 O805 2.020 . S
C781 O801 1.259 . S
C781 O804 1.258 . S
Co782 N791 2.057 . S
Co782 O798 2.117 . S
Co782 O799 2.020 . S
Co782 O801 2.021 . S
Co782 O806 2.062 . S
C783 N785 1.316 . S
C783 N786 1.347 . S
C783 H788 0.931 . S
C784 N785 1.375 . S
C784 C787 1.350 . S
C784 H789 0.930 . S
N785 Co780 2.057 . S
N785 C783 1.316 . S
N785 C784 1.375 . S
N786 C783 1.347 . S
N786 C787 1.373 . S
C787 C784 1.350 . S
C787 N786 1.373 . S
C787 H808 0.931 . S
H788 C783 0.931 . S
H789 C784 0.930 . S
C790 O797 1.259 . S
C790 O798 1.258 . S
N791 Co782 2.057 . S
N791 C792 1.316 . S
N791 C793 1.375 . S
C792 N791 1.316 . S
C792 N794 1.347 . S
C792 H803 0.931 . S
C793 N791 1.375 . S
C793 C795 1.350 . S
C793 H802 0.930 . S
N794 C792 1.347 . S
N794 C795 1.373 . S
C795 C793 1.350 . S
C795 N794 1.373 . S
C795 H809 0.931 . S
C796 O799 1.256 . S
C796 O800 1.255 . S
O797 Co780 2.021 . S
O797 C790 1.259 . S
O798 Co782 2.117 . S
O798 C790 1.258 . S
O799 Co782 2.020 . S
O799 C796 1.256 . S
O800 Co780 2.062 . S
O800 C796 1.255 . S
O801 C781 1.259 . S
O801 Co782 2.021 . S
H802 C793 0.930 . S
H803 C792 0.931 . S
O804 Co780 2.117 . S
O804 C781 1.258 . S
O805 Co780 2.020 . S
O805 C807 1.256 . S
O806 Co782 2.062 . S
O806 C807 1.255 . S
C807 O805 1.256 . S
C807 O806 1.255 . S
H808 C787 0.931 . S
H809 C795 0.931 . S
Co810 N815 2.057 . S
Co810 O827 2.021 . S
Co810 O830 2.062 . S
Co810 O834 2.117 . S
Co810 O835 2.020 . S
C811 O831 1.259 . S
C811 O834 1.258 . S
Co812 N821 2.057 . S
Co812 O828 2.117 . S
Co812 O829 2.020 . S
Co812 O831 2.021 . S
Co812 O836 2.062 . S
C813 N815 1.316 . S
C813 N816 1.347 . S
C813 H818 0.931 . S
C814 N815 1.375 . S
C814 C817 1.350 . S
C814 H819 0.930 . S
N815 Co810 2.057 . S
N815 C813 1.316 . S
N815 C814 1.375 . S
N816 C813 1.347 . S
N816 C817 1.373 . S
C817 C814 1.350 . S
C817 N816 1.373 . S
C817 H838 0.931 . S
H818 C813 0.931 . S
H819 C814 0.930 . S
C820 O827 1.259 . S
C820 O828 1.258 . S
N821 Co812 2.057 . S
N821 C822 1.316 . S
N821 C823 1.375 1_554 S
C822 N821 1.316 . S
C822 N824 1.347 . S
C822 H833 0.931 . S
C823 N821 1.375 1_556 S
C823 C825 1.350 . S
C823 H832 0.930 . S
N824 C822 1.347 . S
N824 C825 1.373 1_554 S
C825 C823 1.350 . S
C825 N824 1.373 1_556 S
C825 H839 0.931 . S
C826 O829 1.256 . S
C826 O830 1.255 . S
O827 Co810 2.021 . S
O827 C820 1.259 . S
O828 Co812 2.117 . S
O828 C820 1.258 . S
O829 Co812 2.020 . S
O829 C826 1.256 . S
O830 Co810 2.062 . S
O830 C826 1.255 . S
O831 C811 1.259 . S
O831 Co812 2.021 . S
H832 C823 0.930 . S
H833 C822 0.931 . S
O834 Co810 2.117 . S
O834 C811 1.258 . S
O835 Co810 2.020 . S
O835 C837 1.256 . S
O836 Co812 2.062 . S
O836 C837 1.255 . S
C837 O835 1.256 . S
C837 O836 1.255 . S
H838 C817 0.931 . S
H839 C825 0.931 . S
Co840 N845 2.057 . S
Co840 O857 2.021 . S
Co840 O860 2.062 . S
Co840 O864 2.117 . S
Co840 O865 2.020 . S
C841 O861 1.259 . S
C841 O864 1.258 . S
Co842 N851 2.057 . S
Co842 O858 2.117 . S
Co842 O859 2.020 . S
Co842 O861 2.021 . S
Co842 O866 2.062 . S
C843 N845 1.316 . S
C843 N846 1.347 . S
C843 H848 0.931 . S
C844 N845 1.375 . S
C844 C847 1.350 . S
C844 H849 0.930 . S
N845 Co840 2.057 . S
N845 C843 1.316 . S
N845 C844 1.375 . S
N846 C843 1.347 . S
N846 C847 1.373 . S
C847 C844 1.350 . S
C847 N846 1.373 . S
C847 H868 0.931 . S
H848 C843 0.931 . S
H849 C844 0.930 . S
C850 O857 1.259 . S
C850 O858 1.258 . S
N851 Co842 2.057 . S
N851 C852 1.316 . S
N851 C853 1.375 1_554 S
C852 N851 1.316 . S
C852 N854 1.347 . S
C852 H863 0.931 . S
C853 N851 1.375 1_556 S
C853 C855 1.350 . S
C853 H862 0.930 . S
N854 C852 1.347 . S
N854 C855 1.373 1_554 S
C855 C853 1.350 . S
C855 N854 1.373 1_556 S
C855 H869 0.931 . S
C856 O859 1.256 . S
C856 O860 1.255 . S
O857 Co840 2.021 . S
O857 C850 1.259 . S
O858 Co842 2.117 . S
O858 C850 1.258 . S
O859 Co842 2.020 . S
O859 C856 1.256 . S
O860 Co840 2.062 . S
O860 C856 1.255 . S
O861 C841 1.259 . S
O861 Co842 2.021 . S
H862 C853 0.930 . S
H863 C852 0.931 . S
O864 Co840 2.117 . S
O864 C841 1.258 . S
O865 Co840 2.020 . S
O865 C867 1.256 . S
O866 Co842 2.062 . S
O866 C867 1.255 . S
C867 O865 1.256 . S
C867 O866 1.255 . S
H868 C847 0.931 . S
H869 C855 0.931 . S
Co870 N875 2.057 . S
Co870 O887 2.021 . S
Co870 O890 2.062 . S
Co870 O894 2.117 . S
Co870 O895 2.020 . S
C871 O891 1.259 . S
C871 O894 1.258 . S
Co872 N881 2.057 . S
Co872 O888 2.117 . S
Co872 O889 2.020 . S
Co872 O891 2.021 . S
Co872 O896 2.062 . S
C873 N875 1.316 . S
C873 N876 1.347 . S
C873 H878 0.931 . S
C874 N875 1.375 . S
C874 C877 1.350 . S
C874 H879 0.930 . S
N875 Co870 2.057 . S
N875 C873 1.316 . S
N875 C874 1.375 . S
N876 C873 1.347 . S
N876 C877 1.373 . S
C877 C874 1.350 . S
C877 N876 1.373 . S
C877 H898 0.931 . S
H878 C873 0.931 . S
H879 C874 0.930 . S
C880 O887 1.259 . S
C880 O888 1.258 . S
N881 Co872 2.057 . S
N881 C882 1.316 . S
N881 C883 1.375 1_554 S
C882 N881 1.316 . S
C882 N884 1.347 . S
C882 H893 0.931 . S
C883 N881 1.375 1_556 S
C883 C885 1.350 . S
C883 H892 0.930 . S
N884 C882 1.347 . S
N884 C885 1.373 1_554 S
C885 C883 1.350 . S
C885 N884 1.373 1_556 S
C885 H899 0.931 . S
C886 O889 1.256 . S
C886 O890 1.255 . S
O887 Co870 2.021 . S
O887 C880 1.259 . S
O888 Co872 2.117 . S
O888 C880 1.258 . S
O889 Co872 2.020 . S
O889 C886 1.256 . S
O890 Co870 2.062 . S
O890 C886 1.255 . S
O891 C871 1.259 . S
O891 Co872 2.021 . S
H892 C883 0.930 . S
H893 C882 0.931 . S
O894 Co870 2.117 . S
O894 C871 1.258 . S
O895 Co870 2.020 . S
O895 C897 1.256 . S
O896 Co872 2.062 . S
O896 C897 1.255 . S
C897 O895 1.256 . S
C897 O896 1.255 . S
H898 C877 0.931 . S
H899 C885 0.931 . S
Co900 N905 2.057 . S
Co900 O917 2.021 . S
Co900 O920 2.062 . S
Co900 O924 2.117 . S
Co900 O925 2.020 . S
C901 O921 1.259 . S
C901 O924 1.258 . S
Co902 N911 2.057 . S
Co902 O918 2.117 . S
Co902 O919 2.020 . S
Co902 O921 2.021 . S
Co902 O926 2.062 . S
C903 N905 1.316 . S
C903 N906 1.347 . S
C903 H908 0.931 . S
C904 N905 1.375 . S
C904 C907 1.350 . S
C904 H909 0.930 . S
N905 Co900 2.057 . S
N905 C903 1.316 . S
N905 C904 1.375 . S
N906 C903 1.347 . S
N906 C907 1.373 . S
C907 C904 1.350 . S
C907 N906 1.373 . S
C907 H928 0.931 . S
H908 C903 0.931 . S
H909 C904 0.930 . S
C910 O917 1.259 . S
C910 O918 1.258 . S
N911 Co902 2.057 . S
N911 C912 1.316 . S
N911 C913 1.375 . S
C912 N911 1.316 . S
C912 N914 1.347 . S
C912 H923 0.931 . S
C913 N911 1.375 . S
C913 C915 1.350 . S
C913 H922 0.930 . S
N914 C912 1.347 . S
N914 C915 1.373 . S
C915 C913 1.350 . S
C915 N914 1.373 . S
C915 H929 0.931 . S
C916 O919 1.256 . S
C916 O920 1.255 . S
O917 Co900 2.021 . S
O917 C910 1.259 . S
O918 Co902 2.117 . S
O918 C910 1.258 . S
O919 Co902 2.020 . S
O919 C916 1.256 . S
O920 Co900 2.062 . S
O920 C916 1.255 . S
O921 C901 1.259 . S
O921 Co902 2.021 . S
H922 C913 0.930 . S
H923 C912 0.931 . S
O924 Co900 2.117 . S
O924 C901 1.258 . S
O925 Co900 2.020 . S
O925 C927 1.256 . S
O926 Co902 2.062 . S
O926 C927 1.255 . S
C927 O925 1.256 . S
C927 O926 1.255 . S
H928 C907 0.931 . S
H929 C915 0.931 . S
Co930 N935 2.057 . S
Co930 O947 2.021 . S
Co930 O950 2.062 . S
Co930 O954 2.117 . S
Co930 O955 2.020 . S
C931 O951 1.259 . S
C931 O954 1.258 . S
Co932 N941 2.057 . S
Co932 O948 2.117 . S
Co932 O949 2.020 . S
Co932 O951 2.021 . S
Co932 O956 2.062 . S
C933 N935 1.316 . S
C933 N936 1.347 . S
C933 H938 0.931 . S
C934 N935 1.375 . S
C934 C937 1.350 . S
C934 H939 0.930 . S
N935 Co930 2.057 . S
N935 C933 1.316 . S
N935 C934 1.375 . S
N936 C933 1.347 . S
N936 C937 1.373 . S
C937 C934 1.350 . S
C937 N936 1.373 . S
C937 H958 0.931 . S
H938 C933 0.931 . S
H939 C934 0.930 . S
C940 O947 1.259 . S
C940 O948 1.258 . S
N941 Co932 2.057 . S
N941 C942 1.316 . S
N941 C943 1.375 . S
C942 N941 1.316 . S
C942 N944 1.347 . S
C942 H953 0.931 . S
C943 N941 1.375 . S
C943 C945 1.350 . S
C943 H952 0.930 . S
N944 C942 1.347 . S
N944 C945 1.373 . S
C945 C943 1.350 . S
C945 N944 1.373 . S
C945 H959 0.931 . S
C946 O949 1.256 . S
C946 O950 1.255 . S
O947 Co930 2.021 . S
O947 C940 1.259 . S
O948 Co932 2.117 . S
O948 C940 1.258 . S
O949 Co932 2.020 . S
O949 C946 1.256 . S
O950 Co930 2.062 . S
O950 C946 1.255 . S
O951 C931 1.259 . S
O951 Co932 2.021 . S
H952 C943 0.930 . S
H953 C942 0.931 . S
O954 Co930 2.117 . S
O954 C931 1.258 . S
O955 Co930 2.020 . S
O955 C957 1.256 . S
O956 Co932 2.062 . S
O956 C957 1.255 . S
C957 O955 1.256 . S
C957 O956 1.255 . S
H958 C937 0.931 . S
H959 C945 0.931 . S
Co960 N965 2.057 . S
Co960 O977 2.021 . S
Co960 O980 2.062 . S
Co960 O984 2.117 . S
Co960 O985 2.020 . S
C961 O981 1.259 . S
C961 O984 1.258 . S
Co962 N971 2.057 . S
Co962 O978 2.117 . S
Co962 O979 2.020 . S
Co962 O981 2.021 . S
Co962 O986 2.062 . S
C963 N965 1.316 . S
C963 N966 1.347 . S
C963 H968 0.931 . S
C964 N965 1.375 . S
C964 C967 1.350 . S
C964 H969 0.930 . S
N965 Co960 2.057 . S
N965 C963 1.316 . S
N965 C964 1.375 . S
N966 C963 1.347 . S
N966 C967 1.373 . S
C967 C964 1.350 . S
C967 N966 1.373 . S
C967 H988 0.931 . S
H968 C963 0.931 . S
H969 C964 0.930 . S
C970 O977 1.259 . S
C970 O978 1.258 . S
N971 Co962 2.057 . S
N971 C972 1.316 . S
N971 C973 1.375 . S
C972 N971 1.316 . S
C972 N974 1.347 . S
C972 H983 0.931 . S
C973 N971 1.375 . S
C973 C975 1.350 . S
C973 H982 0.930 . S
N974 C972 1.347 . S
N974 C975 1.373 . S
C975 C973 1.350 . S
C975 N974 1.373 . S
C975 H989 0.931 . S
C976 O979 1.256 . S
C976 O980 1.255 . S
O977 Co960 2.021 . S
O977 C970 1.259 . S
O978 Co962 2.117 . S
O978 C970 1.258 . S
O979 Co962 2.020 . S
O979 C976 1.256 . S
O980 Co960 2.062 . S
O980 C976 1.255 . S
O981 C961 1.259 . S
O981 Co962 2.021 . S
H982 C973 0.930 . S
H983 C972 0.931 . S
O984 Co960 2.117 . S
O984 C961 1.258 . S
O985 Co960 2.020 . S
O985 C987 1.256 . S
O986 Co962 2.062 . S
O986 C987 1.255 . S
C987 O985 1.256 . S
C987 O986 1.255 . S
H988 C967 0.931 . S
H989 C975 0.931 . S
Co990 N995 2.057 . S
Co990 O1007 2.021 . S
Co990 O1010 2.062 . S
Co990 O1014 2.117 . S
Co990 O1015 2.020 . S
C991 O1011 1.259 . S
C991 O1014 1.258 . S
Co992 N1001 2.057 . S
Co992 O1008 2.117 . S
Co992 O1009 2.020 . S
Co992 O1011 2.021 . S
Co992 O1016 2.062 . S
C993 N995 1.316 . S
C993 N996 1.347 . S
C993 H998 0.931 . S
C994 N995 1.375 . S
C994 C997 1.350 . S
C994 H999 0.930 . S
N995 Co990 2.057 . S
N995 C993 1.316 . S
N995 C994 1.375 . S
N996 C993 1.347 . S
N996 C997 1.373 . S
C997 C994 1.350 . S
C997 N996 1.373 . S
C997 H1018 0.931 . S
H998 C993 0.931 . S
H999 C994 0.930 . S
C1000 O1007 1.259 . S
C1000 O1008 1.258 . S
N1001 Co992 2.057 . S
N1001 C1002 1.316 . S
N1001 C1003 1.375 . S
C1002 N1001 1.316 . S
C1002 N1004 1.347 . S
C1002 H1013 0.931 . S
C1003 N1001 1.375 . S
C1003 C1005 1.350 . S
C1003 H1012 0.930 . S
N1004 C1002 1.347 . S
N1004 C1005 1.373 . S
C1005 C1003 1.350 . S
C1005 N1004 1.373 . S
C1005 H1019 0.931 . S
C1006 O1009 1.256 . S
C1006 O1010 1.255 . S
O1007 Co990 2.021 . S
O1007 C1000 1.259 . S
O1008 Co992 2.117 . S
O1008 C1000 1.258 . S
O1009 Co992 2.020 . S
O1009 C1006 1.256 . S
O1010 Co990 2.062 . S
O1010 C1006 1.255 . S
O1011 C991 1.259 . S
O1011 Co992 2.021 . S
H1012 C1003 0.930 . S
H1013 C1002 0.931 . S
O1014 Co990 2.117 . S
O1014 C991 1.258 . S
O1015 Co990 2.020 . S
O1015 C1017 1.256 . S
O1016 Co992 2.062 . S
O1016 C1017 1.255 . S
C1017 O1015 1.256 . S
C1017 O1016 1.255 . S
H1018 C997 0.931 . S
H1019 C1005 0.931 . S
Co1020 N1025 2.057 . S
Co1020 O1037 2.021 . S
Co1020 O1040 2.062 . S
Co1020 O1044 2.117 . S
Co1020 O1045 2.020 . S
C1021 O1041 1.259 . S
C1021 O1044 1.258 . S
Co1022 N1031 2.057 . S
Co1022 O1038 2.117 . S
Co1022 O1039 2.020 . S
Co1022 O1041 2.021 . S
Co1022 O1046 2.062 . S
C1023 N1025 1.316 . S
C1023 N1026 1.347 . S
C1023 H1028 0.931 . S
C1024 N1025 1.375 . S
C1024 C1027 1.350 . S
C1024 H1029 0.930 . S
N1025 Co1020 2.057 . S
N1025 C1023 1.316 . S
N1025 C1024 1.375 . S
N1026 C1023 1.347 . S
N1026 C1027 1.373 . S
C1027 C1024 1.350 . S
C1027 N1026 1.373 . S
C1027 H1048 0.931 . S
H1028 C1023 0.931 . S
H1029 C1024 0.930 . S
C1030 O1037 1.259 . S
C1030 O1038 1.258 . S
N1031 Co1022 2.057 . S
N1031 C1032 1.316 . S
N1031 C1033 1.375 . S
C1032 N1031 1.316 . S
C1032 N1034 1.347 . S
C1032 H1043 0.931 . S
C1033 N1031 1.375 . S
C1033 C1035 1.350 . S
C1033 H1042 0.930 . S
N1034 C1032 1.347 . S
N1034 C1035 1.373 . S
C1035 C1033 1.350 . S
C1035 N1034 1.373 . S
C1035 H1049 0.931 . S
C1036 O1039 1.256 . S
C1036 O1040 1.255 . S
O1037 Co1020 2.021 . S
O1037 C1030 1.259 . S
O1038 Co1022 2.117 . S
O1038 C1030 1.258 . S
O1039 Co1022 2.020 . S
O1039 C1036 1.256 . S
O1040 Co1020 2.062 . S
O1040 C1036 1.255 . S
O1041 C1021 1.259 . S
O1041 Co1022 2.021 . S
H1042 C1033 0.930 . S
H1043 C1032 0.931 . S
O1044 Co1020 2.117 . S
O1044 C1021 1.258 . S
O1045 Co1020 2.020 . S
O1045 C1047 1.256 . S
O1046 Co1022 2.062 . S
O1046 C1047 1.255 . S
C1047 O1045 1.256 . S
C1047 O1046 1.255 . S
H1048 C1027 0.931 . S
H1049 C1035 0.931 . S
Co1050 N1055 2.057 . S
Co1050 O1067 2.021 . S
Co1050 O1070 2.062 . S
Co1050 O1074 2.117 . S
Co1050 O1075 2.020 . S
C1051 O1071 1.259 . S
C1051 O1074 1.258 . S
Co1052 N1061 2.057 . S
Co1052 O1068 2.117 . S
Co1052 O1069 2.020 . S
Co1052 O1071 2.021 . S
Co1052 O1076 2.062 . S
C1053 N1055 1.316 . S
C1053 N1056 1.347 . S
C1053 H1058 0.931 . S
C1054 N1055 1.375 . S
C1054 C1057 1.350 . S
C1054 H1059 0.930 . S
N1055 Co1050 2.057 . S
N1055 C1053 1.316 . S
N1055 C1054 1.375 . S
N1056 C1053 1.347 . S
N1056 C1057 1.373 . S
C1057 C1054 1.350 . S
C1057 N1056 1.373 . S
C1057 H1078 0.931 . S
H1058 C1053 0.931 . S
H1059 C1054 0.930 . S
C1060 O1067 1.259 . S
C1060 O1068 1.258 . S
N1061 Co1052 2.057 . S
N1061 C1062 1.316 . S
N1061 C1063 1.375 . S
C1062 N1061 1.316 . S
C1062 N1064 1.347 . S
C1062 H1073 0.931 . S
C1063 N1061 1.375 . S
C1063 C1065 1.350 . S
C1063 H1072 0.930 . S
N1064 C1062 1.347 . S
N1064 C1065 1.373 . S
C1065 C1063 1.350 . S
C1065 N1064 1.373 . S
C1065 H1079 0.931 . S
C1066 O1069 1.256 . S
C1066 O1070 1.255 . S
O1067 Co1050 2.021 . S
O1067 C1060 1.259 . S
O1068 Co1052 2.117 . S
O1068 C1060 1.258 . S
O1069 Co1052 2.020 . S
O1069 C1066 1.256 . S
O1070 Co1050 2.062 . S
O1070 C1066 1.255 . S
O1071 C1051 1.259 . S
O1071 Co1052 2.021 . S
H1072 C1063 0.930 . S
H1073 C1062 0.931 . S
O1074 Co1050 2.117 . S
O1074 C1051 1.258 . S
O1075 Co1050 2.020 . S
O1075 C1077 1.256 . S
O1076 Co1052 2.062 . S
O1076 C1077 1.255 . S
C1077 O1075 1.256 . S
C1077 O1076 1.255 . S
H1078 C1057 0.931 . S
H1079 C1065 0.931 . S
C1080 C1081 1.369 . S
C1080 C1082 1.419 . S
C1080 H1084 0.930 . S
C1081 C1080 1.369 . S
C1081 C1090 1.429 . S
C1082 C1080 1.419 . S
C1082 C1083 1.363 . S
C1082 H1085 0.929 1_554 S
C1083 C1082 1.363 . S
C1083 C1089 1.428 . S
H1084 C1080 0.930 . S
H1085 C1082 0.929 1_556 S
S1086 N1087 1.613 . S
S1086 N1088 1.610 . S
N1087 S1086 1.613 . S
N1087 C1090 1.350 . S
N1088 S1086 1.610 . S
N1088 C1089 1.351 . S
C1089 C1083 1.428 . S
C1089 N1088 1.351 . S
C1089 C1090 1.434 . S
C1090 C1081 1.429 . S
C1090 N1087 1.350 . S
C1090 C1089 1.434 . S
C1091 C1092 1.369 1_556 S
C1091 C1093 1.419 . S
C1091 H1095 0.930 . S
C1092 C1091 1.369 1_554 S
C1092 C1101 1.429 . S
C1093 C1091 1.419 . S
C1093 C1094 1.363 1_556 S
C1093 H1096 0.929 . S
C1094 C1093 1.363 1_554 S
C1094 C1100 1.428 . S
H1095 C1091 0.930 . S
H1096 C1093 0.929 . S
S1097 N1098 1.613 . S
S1097 N1099 1.610 . S
N1098 S1097 1.613 . S
N1098 C1101 1.350 . S
N1099 S1097 1.610 . S
N1099 C1100 1.351 . S
C1100 C1094 1.428 . S
C1100 N1099 1.351 . S
C1100 C1101 1.434 . S
C1101 C1092 1.429 . S
C1101 N1098 1.350 . S
C1101 C1100 1.434 . S
C1102 C1103 1.369 . S
C1102 C1104 1.419 . S
C1102 H1106 0.930 . S
C1103 C1102 1.369 . S
C1103 C1112 1.429 . S
C1104 C1102 1.419 . S
C1104 C1105 1.363 . S
C1104 H1107 0.929 . S
C1105 C1104 1.363 . S
C1105 C1111 1.428 . S
H1106 C1102 0.930 . S
H1107 C1104 0.929 . S
S1108 N1109 1.613 . S
S1108 N1110 1.610 . S
N1109 S1108 1.613 . S
N1109 C1112 1.350 . S
N1110 S1108 1.610 . S
N1110 C1111 1.351 . S
C1111 C1105 1.428 . S
C1111 N1110 1.351 . S
C1111 C1112 1.434 . S
C1112 C1103 1.429 . S
C1112 N1109 1.350 . S
C1112 C1111 1.434 . S
C1113 C1114 1.369 . S
C1113 C1115 1.419 . S
C1113 H1117 0.930 . S
C1114 C1113 1.369 . S
C1114 C1123 1.429 . S
C1115 C1113 1.419 . S
C1115 C1116 1.363 . S
C1115 H1118 0.929 . S
C1116 C1115 1.363 . S
C1116 C1122 1.428 . S
H1117 C1113 0.930 . S
H1118 C1115 0.929 . S
S1119 N1120 1.613 . S
S1119 N1121 1.610 . S
N1120 S1119 1.613 . S
N1120 C1123 1.350 . S
N1121 S1119 1.610 . S
N1121 C1122 1.351 . S
C1122 C1116 1.428 . S
C1122 N1121 1.351 . S
C1122 C1123 1.434 . S
C1123 C1114 1.429 . S
C1123 N1120 1.350 . S
C1123 C1122 1.434 . S
C1124 C1125 1.369 . S
C1124 C1126 1.419 . S
C1124 H1128 0.930 . S
C1125 C1124 1.369 . S
C1125 C1134 1.429 . S
C1126 C1124 1.419 . S
C1126 C1127 1.363 . S
C1126 H1129 0.929 . S
C1127 C1126 1.363 . S
C1127 C1133 1.428 . S
H1128 C1124 0.930 . S
H1129 C1126 0.929 . S
S1130 N1131 1.613 . S
S1130 N1132 1.610 . S
N1131 S1130 1.613 . S
N1131 C1134 1.350 . S
N1132 S1130 1.610 . S
N1132 C1133 1.351 . S
C1133 C1127 1.428 . S
C1133 N1132 1.351 . S
C1133 C1134 1.434 . S
C1134 C1125 1.429 . S
C1134 N1131 1.350 . S
C1134 C1133 1.434 . S
C1135 C1136 1.369 . S
C1135 C1137 1.419 . S
C1135 H1139 0.930 . S
C1136 C1135 1.369 . S
C1136 C1145 1.429 . S
C1137 C1135 1.419 . S
C1137 C1138 1.363 . S
C1137 H1140 0.929 . S
C1138 C1137 1.363 . S
C1138 C1144 1.428 . S
H1139 C1135 0.930 . S
H1140 C1137 0.929 . S
S1141 N1142 1.613 . S
S1141 N1143 1.610 . S
N1142 S1141 1.613 . S
N1142 C1145 1.350 . S
N1143 S1141 1.610 . S
N1143 C1144 1.351 . S
C1144 C1138 1.428 . S
C1144 N1143 1.351 . S
C1144 C1145 1.434 . S
C1145 C1136 1.429 . S
C1145 N1142 1.350 . S
C1145 C1144 1.434 . S
C1146 C1147 1.369 . S
C1146 C1148 1.419 . S
C1146 H1150 0.930 . S
C1147 C1146 1.369 . S
C1147 C1156 1.429 . S
C1148 C1146 1.419 . S
C1148 C1149 1.363 . S
C1148 H1151 0.929 . S
C1149 C1148 1.363 . S
C1149 C1155 1.428 . S
H1150 C1146 0.930 . S
H1151 C1148 0.929 . S
S1152 N1153 1.613 . S
S1152 N1154 1.610 . S
N1153 S1152 1.613 . S
N1153 C1156 1.350 1_554 S
N1154 S1152 1.610 . S
N1154 C1155 1.351 1_554 S
C1155 C1149 1.428 . S
C1155 N1154 1.351 1_556 S
C1155 C1156 1.434 . S
C1156 C1147 1.429 . S
C1156 N1153 1.350 1_556 S
C1156 C1155 1.434 . S
C1157 C1158 1.369 . S
C1157 C1159 1.419 . S
C1157 H1161 0.930 . S
C1158 C1157 1.369 . S
C1158 C1167 1.429 1_556 S
C1159 C1157 1.419 . S
C1159 C1160 1.363 . S
C1159 H1162 0.929 . S
C1160 C1159 1.363 . S
C1160 C1166 1.428 1_556 S
H1161 C1157 0.930 . S
H1162 C1159 0.929 . S
S1163 N1164 1.613 . S
S1163 N1165 1.610 . S
N1164 S1163 1.613 . S
N1164 C1167 1.350 . S
N1165 S1163 1.610 . S
N1165 C1166 1.351 . S
C1166 C1160 1.428 1_554 S
C1166 N1165 1.351 . S
C1166 C1167 1.434 . S
C1167 C1158 1.429 1_554 S
C1167 N1164 1.350 . S
C1167 C1166 1.434 . S
C1168 C1169 1.373 . S
C1168 C1170 1.420 . S
C1168 H1172 0.925 1_556 S
C1169 C1168 1.373 . S
C1169 C1178 1.429 . S
C1170 C1168 1.420 . S
C1170 C1171 1.363 . S
C1170 H1173 0.929 1_556 S
C1171 C1170 1.363 . S
C1171 C1177 1.428 . S
H1172 C1168 0.925 1_554 S
H1173 C1170 0.929 1_554 S
S1174 N1175 1.613 . S
S1174 N1176 1.610 . S
N1175 S1174 1.613 . S
N1175 C1178 1.350 . S
N1176 S1174 1.610 . S
N1176 C1177 1.351 . S
C1177 C1171 1.428 . S
C1177 N1176 1.351 . S
C1177 C1178 1.434 . S
C1178 C1169 1.429 . S
C1178 N1175 1.350 . S
C1178 C1177 1.434 . S
C1179 C1180 1.369 . S
C1179 C1181 1.419 . S
C1179 H1183 0.930 . S
C1180 C1179 1.369 . S
C1180 C1189 1.429 . S
C1181 C1179 1.419 . S
C1181 C1182 1.363 . S
C1181 H1184 0.929 . S
C1182 C1181 1.363 . S
C1182 C1188 1.428 . S
H1183 C1179 0.930 . S
H1184 C1181 0.929 . S
S1185 N1186 1.613 . S
S1185 N1187 1.610 . S
N1186 S1185 1.613 . S
N1186 C1189 1.350 . S
N1187 S1185 1.610 . S
N1187 C1188 1.351 . S
C1188 C1182 1.428 . S
C1188 N1187 1.351 . S
C1188 C1189 1.434 . S
C1189 C1180 1.429 . S
C1189 N1186 1.350 . S
C1189 C1188 1.434 . S
C1190 C1191 1.369 . S
C1190 C1192 1.419 . S
C1190 H1194 0.930 . S
C1191 C1190 1.369 . S
C1191 C1200 1.429 . S
C1192 C1190 1.419 . S
C1192 C1193 1.363 . S
C1192 H1195 0.929 . S
C1193 C1192 1.363 . S
C1193 C1199 1.428 . S
H1194 C1190 0.930 . S
H1195 C1192 0.929 . S
S1196 N1197 1.613 . S
S1196 N1198 1.610 . S
N1197 S1196 1.613 . S
N1197 C1200 1.350 . S
N1198 S1196 1.610 . S
N1198 C1199 1.351 . S
C1199 C1193 1.428 . S
C1199 N1198 1.351 . S
C1199 C1200 1.434 . S
C1200 C1191 1.429 . S
C1200 N1197 1.350 . S
C1200 C1199 1.434 . S
C1201 C1202 1.369 . S
C1201 C1203 1.419 . S
C1201 H1205 0.930 . S
C1202 C1201 1.369 . S
C1202 C1211 1.429 . S
C1203 C1201 1.419 . S
C1203 C1204 1.363 . S
C1203 H1206 0.929 . S
C1204 C1203 1.363 . S
C1204 C1210 1.428 . S
H1205 C1201 0.930 . S
H1206 C1203 0.929 . S
S1207 N1208 1.613 . S
S1207 N1209 1.610 . S
N1208 S1207 1.613 . S
N1208 C1211 1.350 . S
N1209 S1207 1.610 . S
N1209 C1210 1.351 . S
C1210 C1204 1.428 . S
C1210 N1209 1.351 . S
C1210 C1211 1.434 . S
C1211 C1202 1.429 . S
C1211 N1208 1.350 . S
C1211 C1210 1.434 . S
C1212 C1213 1.369 . S
C1212 C1214 1.419 . S
C1212 H1216 0.930 . S
C1213 C1212 1.369 . S
C1213 C1222 1.429 . S
C1214 C1212 1.419 . S
C1214 C1215 1.363 . S
C1214 H1217 0.929 . S
C1215 C1214 1.363 . S
C1215 C1221 1.428 . S
H1216 C1212 0.930 . S
H1217 C1214 0.929 . S
S1218 N1219 1.613 . S
S1218 N1220 1.610 . S
N1219 S1218 1.613 . S
N1219 C1222 1.350 . S
N1220 S1218 1.610 . S
N1220 C1221 1.351 . S
C1221 C1215 1.428 . S
C1221 N1220 1.351 . S
C1221 C1222 1.434 . S
C1222 C1213 1.429 . S
C1222 N1219 1.350 . S
C1222 C1221 1.434 . S
C1223 C1224 1.369 . S
C1223 C1225 1.419 . S
C1223 H1227 0.930 . S
C1224 C1223 1.369 . S
C1224 C1233 1.429 . S
C1225 C1223 1.419 . S
C1225 C1226 1.363 . S
C1225 H1228 0.929 . S
C1226 C1225 1.363 . S
C1226 C1232 1.428 . S
H1227 C1223 0.930 . S
H1228 C1225 0.929 . S
S1229 N1230 1.613 . S
S1229 N1231 1.610 . S
N1230 S1229 1.613 . S
N1230 C1233 1.350 . S
N1231 S1229 1.610 . S
N1231 C1232 1.351 . S
C1232 C1226 1.428 . S
C1232 N1231 1.351 . S
C1232 C1233 1.434 . S
C1233 C1224 1.429 . S
C1233 N1230 1.350 . S
C1233 C1232 1.434 . S
C1234 C1235 1.369 . S
C1234 C1236 1.419 . S
C1234 H1238 0.930 . S
C1235 C1234 1.369 . S
C1235 C1244 1.429 . S
C1236 C1234 1.419 . S
C1236 C1237 1.363 . S
C1236 H1239 0.929 . S
C1237 C1236 1.363 . S
C1237 C1243 1.428 . S
H1238 C1234 0.930 . S
H1239 C1236 0.929 . S
S1240 N1241 1.613 . S
S1240 N1242 1.610 . S
N1241 S1240 1.613 . S
N1241 C1244 1.350 . S
N1242 S1240 1.610 . S
N1242 C1243 1.351 . S
C1243 C1237 1.428 . S
C1243 N1242 1.351 . S
C1243 C1244 1.434 . S
C1244 C1235 1.429 . S
C1244 N1241 1.350 . S
C1244 C1243 1.434 . S
C1245 C1246 1.369 . S
C1245 C1247 1.419 . S
C1245 H1249 0.930 . S
C1246 C1245 1.369 . S
C1246 C1255 1.429 . S
C1247 C1245 1.419 . S
C1247 C1248 1.363 . S
C1247 H1250 0.929 . S
C1248 C1247 1.363 . S
C1248 C1254 1.428 . S
H1249 C1245 0.930 . S
H1250 C1247 0.929 . S
S1251 N1252 1.613 . S
S1251 N1253 1.610 . S
N1252 S1251 1.613 . S
N1252 C1255 1.350 . S
N1253 S1251 1.610 . S
N1253 C1254 1.351 . S
C1254 C1248 1.428 . S
C1254 N1253 1.351 . S
C1254 C1255 1.434 . S
C1255 C1246 1.429 . S
C1255 N1252 1.350 . S
C1255 C1254 1.434 . S
C1256 C1257 1.369 . S
C1256 C1258 1.419 . S
C1256 H1260 0.930 . S
C1257 C1256 1.369 . S
C1257 C1266 1.429 . S
C1258 C1256 1.419 . S
C1258 C1259 1.363 . S
C1258 H1261 0.929 . S
C1259 C1258 1.363 . S
C1259 C1265 1.428 . S
H1260 C1256 0.930 . S
H1261 C1258 0.929 . S
S1262 N1263 1.613 . S
S1262 N1264 1.610 . S
N1263 S1262 1.613 . S
N1263 C1266 1.350 . S
N1264 S1262 1.610 . S
N1264 C1265 1.351 . S
C1265 C1259 1.428 . S
C1265 N1264 1.351 . S
C1265 C1266 1.434 . S
C1266 C1257 1.429 . S
C1266 N1263 1.350 . S
C1266 C1265 1.434 . S
C1267 C1268 1.369 . S
C1267 C1269 1.419 . S
C1267 H1271 0.930 . S
C1268 C1267 1.369 . S
C1268 C1277 1.429 . S
C1269 C1267 1.419 . S
C1269 C1270 1.363 . S
C1269 H1272 0.929 . S
C1270 C1269 1.363 . S
C1270 C1276 1.428 . S
H1271 C1267 0.930 . S
H1272 C1269 0.929 . S
S1273 N1274 1.613 . S
S1273 N1275 1.610 . S
N1274 S1273 1.613 . S
N1274 C1277 1.350 . S
N1275 S1273 1.610 . S
N1275 C1276 1.351 . S
C1276 C1270 1.428 . S
C1276 N1275 1.351 . S
C1276 C1277 1.434 . S
C1277 C1268 1.429 . S
C1277 N1274 1.350 . S
C1277 C1276 1.434 . S
C1278 C1279 1.369 . S
C1278 C1280 1.419 . S
C1278 H1282 0.930 . S
C1279 C1278 1.369 . S
C1279 C1288 1.429 . S
C1280 C1278 1.419 . S
C1280 C1281 1.363 . S
C1280 H1283 0.929 . S
C1281 C1280 1.363 . S
C1281 C1287 1.428 . S
H1282 C1278 0.930 . S
H1283 C1280 0.929 . S
S1284 N1285 1.613 . S
S1284 N1286 1.610 . S
N1285 S1284 1.613 . S
N1285 C1288 1.350 . S
N1286 S1284 1.610 . S
N1286 C1287 1.351 . S
C1287 C1281 1.428 . S
C1287 N1286 1.351 . S
C1287 C1288 1.434 . S
C1288 C1279 1.429 . S
C1288 N1285 1.350 . S
C1288 C1287 1.434 . S
C1289 C1290 1.369 . S
C1289 C1291 1.419 . S
C1289 H1293 0.930 . S
C1290 C1289 1.369 . S
C1290 C1299 1.429 . S
C1291 C1289 1.419 . S
C1291 C1292 1.363 . S
C1291 H1294 0.929 . S
C1292 C1291 1.363 . S
C1292 C1298 1.428 . S
H1293 C1289 0.930 . S
H1294 C1291 0.929 . S
S1295 N1296 1.613 . S
S1295 N1297 1.610 . S
N1296 S1295 1.613 . S
N1296 C1299 1.350 . S
N1297 S1295 1.610 . S
N1297 C1298 1.351 . S
C1298 C1292 1.428 . S
C1298 N1297 1.351 . S
C1298 C1299 1.434 . S
C1299 C1290 1.429 . S
C1299 N1296 1.350 . S
C1299 C1298 1.434 . S
C1300 C1301 1.369 . S
C1300 C1302 1.419 . S
C1300 H1304 0.930 . S
C1301 C1300 1.369 . S
C1301 C1310 1.429 . S
C1302 C1300 1.419 . S
C1302 C1303 1.363 . S
C1302 H1305 0.929 . S
C1303 C1302 1.363 . S
C1303 C1309 1.428 . S
H1304 C1300 0.930 . S
H1305 C1302 0.929 . S
S1306 N1307 1.613 . S
S1306 N1308 1.610 . S
N1307 S1306 1.613 . S
N1307 C1310 1.350 . S
N1308 S1306 1.610 . S
N1308 C1309 1.351 . S
C1309 C1303 1.428 . S
C1309 N1308 1.351 . S
C1309 C1310 1.434 . S
C1310 C1301 1.429 . S
C1310 N1307 1.350 . S
C1310 C1309 1.434 . S
C1311 C1312 1.369 . S
C1311 C1313 1.419 . S
C1311 H1315 0.930 . S
C1312 C1311 1.369 . S
C1312 C1321 1.429 . S
C1313 C1311 1.419 . S
C1313 C1314 1.363 . S
C1313 H1316 0.929 . S
C1314 C1313 1.363 . S
C1314 C1320 1.428 . S
H1315 C1311 0.930 . S
H1316 C1313 0.929 . S
S1317 N1318 1.613 . S
S1317 N1319 1.610 . S
N1318 S1317 1.613 . S
N1318 C1321 1.350 . S
N1319 S1317 1.610 . S
N1319 C1320 1.351 . S
C1320 C1314 1.428 . S
C1320 N1319 1.351 . S
C1320 C1321 1.434 . S
C1321 C1312 1.429 . S
C1321 N1318 1.350 . S
C1321 C1320 1.434 . S
C1322 C1323 1.369 . S
C1322 C1324 1.419 . S
C1322 H1326 0.930 . S
C1323 C1322 1.369 . S
C1323 C1332 1.429 . S
C1324 C1322 1.419 . S
C1324 C1325 1.363 . S
C1324 H1327 0.929 . S
C1325 C1324 1.363 . S
C1325 C1331 1.428 . S
H1326 C1322 0.930 . S
H1327 C1324 0.929 . S
S1328 N1329 1.613 . S
S1328 N1330 1.610 . S
N1329 S1328 1.613 . S
N1329 C1332 1.350 . S
N1330 S1328 1.610 . S
N1330 C1331 1.351 . S
C1331 C1325 1.428 . S
C1331 N1330 1.351 . S
C1331 C1332 1.434 . S
C1332 C1323 1.429 . S
C1332 N1329 1.350 . S
C1332 C1331 1.434 . S
C1333 C1334 1.369 . S
C1333 C1335 1.419 . S
C1333 H1337 0.930 . S
C1334 C1333 1.369 . S
C1334 C1343 1.429 . S
C1335 C1333 1.419 . S
C1335 C1336 1.363 . S
C1335 H1338 0.929 . S
C1336 C1335 1.363 . S
C1336 C1342 1.428 . S
H1337 C1333 0.930 . S
H1338 C1335 0.929 . S
S1339 N1340 1.613 . S
S1339 N1341 1.610 . S
N1340 S1339 1.613 . S
N1340 C1343 1.350 . S
N1341 S1339 1.610 . S
N1341 C1342 1.351 . S
C1342 C1336 1.428 . S
C1342 N1341 1.351 . S
C1342 C1343 1.434 . S
C1343 C1334 1.429 . S
C1343 N1340 1.350 . S
C1343 C1342 1.434 . S
C1344 C1345 1.369 . S
C1344 C1346 1.419 . S
C1344 H1348 0.930 . S
C1345 C1344 1.369 . S
C1345 C1354 1.429 . S
C1346 C1344 1.419 . S
C1346 C1347 1.363 . S
C1346 H1349 0.929 . S
C1347 C1346 1.363 . S
C1347 C1353 1.428 . S
H1348 C1344 0.930 . S
H1349 C1346 0.929 . S
S1350 N1351 1.613 . S
S1350 N1352 1.610 . S
N1351 S1350 1.613 . S
N1351 C1354 1.350 . S
N1352 S1350 1.610 . S
N1352 C1353 1.351 . S
C1353 C1347 1.428 . S
C1353 N1352 1.351 . S
C1353 C1354 1.434 . S
C1354 C1345 1.429 . S
C1354 N1351 1.350 . S
C1354 C1353 1.434 . S
C1355 C1356 1.369 . S
C1355 C1357 1.419 . S
C1355 H1359 0.930 . S
C1356 C1355 1.369 . S
C1356 C1365 1.429 . S
C1357 C1355 1.419 . S
C1357 C1358 1.363 . S
C1357 H1360 0.929 . S
C1358 C1357 1.363 . S
C1358 C1364 1.428 . S
H1359 C1355 0.930 . S
H1360 C1357 0.929 . S
S1361 N1362 1.613 . S
S1361 N1363 1.610 . S
N1362 S1361 1.613 . S
N1362 C1365 1.350 . S
N1363 S1361 1.610 . S
N1363 C1364 1.351 . S
C1364 C1358 1.428 . S
C1364 N1363 1.351 . S
C1364 C1365 1.434 . S
C1365 C1356 1.429 . S
C1365 N1362 1.350 . S
C1365 C1364 1.434 . S
C1366 C1367 1.369 . S
C1366 C1368 1.419 . S
C1366 H1370 0.930 . S
C1367 C1366 1.369 . S
C1367 C1376 1.429 . S
C1368 C1366 1.419 . S
C1368 C1369 1.363 . S
C1368 H1371 0.929 . S
C1369 C1368 1.363 . S
C1369 C1375 1.428 . S
H1370 C1366 0.930 . S
H1371 C1368 0.929 . S
S1372 N1373 1.613 . S
S1372 N1374 1.610 . S
N1373 S1372 1.613 . S
N1373 C1376 1.350 . S
N1374 S1372 1.610 . S
N1374 C1375 1.351 . S
C1375 C1369 1.428 . S
C1375 N1374 1.351 . S
C1375 C1376 1.434 . S
C1376 C1367 1.429 . S
C1376 N1373 1.350 . S
C1376 C1375 1.434 . S
C1377 C1378 1.369 . S
C1377 C1379 1.419 . S
C1377 H1381 0.930 . S
C1378 C1377 1.369 . S
C1378 C1387 1.429 . S
C1379 C1377 1.419 . S
C1379 C1380 1.363 . S
C1379 H1382 0.929 . S
C1380 C1379 1.363 . S
C1380 C1386 1.428 . S
H1381 C1377 0.930 . S
H1382 C1379 0.929 . S
S1383 N1384 1.613 . S
S1383 N1385 1.610 . S
N1384 S1383 1.613 . S
N1384 C1387 1.350 . S
N1385 S1383 1.610 . S
N1385 C1386 1.351 . S
C1386 C1380 1.428 . S
C1386 N1385 1.351 . S
C1386 C1387 1.434 . S
C1387 C1378 1.429 . S
C1387 N1384 1.350 . S
C1387 C1386 1.434 . S
C1388 C1389 1.369 . S
C1388 C1390 1.419 . S
C1388 H1392 0.930 . S
C1389 C1388 1.369 . S
C1389 C1398 1.429 . S
C1390 C1388 1.419 . S
C1390 C1391 1.363 . S
C1390 H1393 0.929 . S
C1391 C1390 1.363 . S
C1391 C1397 1.428 . S
H1392 C1388 0.930 . S
H1393 C1390 0.929 . S
S1394 N1395 1.613 . S
S1394 N1396 1.610 . S
N1395 S1394 1.613 . S
N1395 C1398 1.350 . S
N1396 S1394 1.610 . S
N1396 C1397 1.351 . S
C1397 C1391 1.428 . S
C1397 N1396 1.351 . S
C1397 C1398 1.434 . S
C1398 C1389 1.429 . S
C1398 N1395 1.350 . S
C1398 C1397 1.434 . S
C1399 C1400 1.369 . S
C1399 C1401 1.419 . S
C1399 H1403 0.930 . S
C1400 C1399 1.369 . S
C1400 C1409 1.429 . S
C1401 C1399 1.419 . S
C1401 C1402 1.363 . S
C1401 H1404 0.929 . S
C1402 C1401 1.363 . S
C1402 C1408 1.428 . S
H1403 C1399 0.930 . S
H1404 C1401 0.929 . S
S1405 N1406 1.613 . S
S1405 N1407 1.610 . S
N1406 S1405 1.613 . S
N1406 C1409 1.350 . S
N1407 S1405 1.610 . S
N1407 C1408 1.351 . S
C1408 C1402 1.428 . S
C1408 N1407 1.351 . S
C1408 C1409 1.434 . S
C1409 C1400 1.429 . S
C1409 N1406 1.350 . S
C1409 C1408 1.434 . S
C1410 C1411 1.369 . S
C1410 C1412 1.419 . S
C1410 H1414 0.930 . S
C1411 C1410 1.369 . S
C1411 C1420 1.429 . S
C1412 C1410 1.419 . S
C1412 C1413 1.363 . S
C1412 H1415 0.929 . S
C1413 C1412 1.363 . S
C1413 C1419 1.428 . S
H1414 C1410 0.930 . S
H1415 C1412 0.929 . S
S1416 N1417 1.613 . S
S1416 N1418 1.610 . S
N1417 S1416 1.613 . S
N1417 C1420 1.350 . S
N1418 S1416 1.610 . S
N1418 C1419 1.351 . S
C1419 C1413 1.428 . S
C1419 N1418 1.351 . S
C1419 C1420 1.434 . S
C1420 C1411 1.429 . S
C1420 N1417 1.350 . S
C1420 C1419 1.434 . S
C1421 C1422 1.369 . S
C1421 C1423 1.419 . S
C1421 H1425 0.930 . S
C1422 C1421 1.369 . S
C1422 C1431 1.429 . S
C1423 C1421 1.419 . S
C1423 C1424 1.363 . S
C1423 H1426 0.929 . S
C1424 C1423 1.363 . S
C1424 C1430 1.428 . S
H1425 C1421 0.930 . S
H1426 C1423 0.929 . S
S1427 N1428 1.613 . S
S1427 N1429 1.610 . S
N1428 S1427 1.613 . S
N1428 C1431 1.350 . S
N1429 S1427 1.610 . S
N1429 C1430 1.351 . S
C1430 C1424 1.428 . S
C1430 N1429 1.351 . S
C1430 C1431 1.434 . S
C1431 C1422 1.429 . S
C1431 N1428 1.350 . S
C1431 C1430 1.434 . S
C1432 C1433 1.369 . S
C1432 C1434 1.419 . S
C1432 H1436 0.930 . S
C1433 C1432 1.369 . S
C1433 C1442 1.429 . S
C1434 C1432 1.419 . S
C1434 C1435 1.363 . S
C1434 H1437 0.929 . S
C1435 C1434 1.363 . S
C1435 C1441 1.428 . S
H1436 C1432 0.930 . S
H1437 C1434 0.929 . S
S1438 N1439 1.613 . S
S1438 N1440 1.610 . S
N1439 S1438 1.613 . S
N1439 C1442 1.350 . S
N1440 S1438 1.610 . S
N1440 C1441 1.351 . S
C1441 C1435 1.428 . S
C1441 N1440 1.351 . S
C1441 C1442 1.434 . S
C1442 C1433 1.429 . S
C1442 N1439 1.350 . S
C1442 C1441 1.434 . S
C1443 C1444 1.369 . S
C1443 C1445 1.419 . S
C1443 H1447 0.930 . S
C1444 C1443 1.369 . S
C1444 C1453 1.429 . S
C1445 C1443 1.419 . S
C1445 C1446 1.363 . S
C1445 H1448 0.929 . S
C1446 C1445 1.363 . S
C1446 C1452 1.428 . S
H1447 C1443 0.930 . S
H1448 C1445 0.929 . S
S1449 N1450 1.613 . S
S1449 N1451 1.610 . S
N1450 S1449 1.613 . S
N1450 C1453 1.350 . S
N1451 S1449 1.610 . S
N1451 C1452 1.351 . S
C1452 C1446 1.428 . S
C1452 N1451 1.351 . S
C1452 C1453 1.434 . S
C1453 C1444 1.429 . S
C1453 N1450 1.350 . S
C1453 C1452 1.434 . S
C1454 C1455 1.369 . S
C1454 C1456 1.419 . S
C1454 H1458 0.930 . S
C1455 C1454 1.369 . S
C1455 C1464 1.429 . S
C1456 C1454 1.419 . S
C1456 C1457 1.363 . S
C1456 H1459 0.929 . S
C1457 C1456 1.363 . S
C1457 C1463 1.428 . S
H1458 C1454 0.930 . S
H1459 C1456 0.929 . S
S1460 N1461 1.613 . S
S1460 N1462 1.610 . S
N1461 S1460 1.613 . S
N1461 C1464 1.350 . S
N1462 S1460 1.610 . S
N1462 C1463 1.351 . S
C1463 C1457 1.428 . S
C1463 N1462 1.351 . S
C1463 C1464 1.434 . S
C1464 C1455 1.429 . S
C1464 N1461 1.350 . S
C1464 C1463 1.434 . S
C1465 C1466 1.369 . S
C1465 C1467 1.419 . S
C1465 H1469 0.930 . S
C1466 C1465 1.369 . S
C1466 C1475 1.429 . S
C1467 C1465 1.419 . S
C1467 C1468 1.363 . S
C1467 H1470 0.929 . S
C1468 C1467 1.363 . S
C1468 C1474 1.428 . S
H1469 C1465 0.930 . S
H1470 C1467 0.929 . S
S1471 N1472 1.613 . S
S1471 N1473 1.610 . S
N1472 S1471 1.613 . S
N1472 C1475 1.350 . S
N1473 S1471 1.610 . S
N1473 C1474 1.351 . S
C1474 C1468 1.428 . S
C1474 N1473 1.351 . S
C1474 C1475 1.434 . S
C1475 C1466 1.429 . S
C1475 N1472 1.350 . S
C1475 C1474 1.434 . S
C1476 C1477 1.369 . S
C1476 C1478 1.419 . S
C1476 H1480 0.930 . S
C1477 C1476 1.369 . S
C1477 C1486 1.429 . S
C1478 C1476 1.419 . S
C1478 C1479 1.363 . S
C1478 H1481 0.929 . S
C1479 C1478 1.363 . S
C1479 C1485 1.428 . S
H1480 C1476 0.930 . S
H1481 C1478 0.929 . S
S1482 N1483 1.613 . S
S1482 N1484 1.610 . S
N1483 S1482 1.613 . S
N1483 C1486 1.350 . S
N1484 S1482 1.610 . S
N1484 C1485 1.351 . S
C1485 C1479 1.428 . S
C1485 N1484 1.351 . S
C1485 C1486 1.434 . S
C1486 C1477 1.429 . S
C1486 N1483 1.350 . S
C1486 C1485 1.434 . S
C1487 C1488 1.369 . S
C1487 C1489 1.419 . S
C1487 H1491 0.930 . S
C1488 C1487 1.369 . S
C1488 C1497 1.429 . S
C1489 C1487 1.419 . S
C1489 C1490 1.363 . S
C1489 H1492 0.929 . S
C1490 C1489 1.363 . S
C1490 C1496 1.428 . S
H1491 C1487 0.930 . S
H1492 C1489 0.929 . S
S1493 N1494 1.613 . S
S1493 N1495 1.610 . S
N1494 S1493 1.613 . S
N1494 C1497 1.350 . S
N1495 S1493 1.610 . S
N1495 C1496 1.351 . S
C1496 C1490 1.428 . S
C1496 N1495 1.351 . S
C1496 C1497 1.434 . S
C1497 C1488 1.429 . S
C1497 N1494 1.350 . S
C1497 C1496 1.434 . S
C1498 C1499 1.369 . S
C1498 C1500 1.419 . S
C1498 H1502 0.930 . S
C1499 C1498 1.369 . S
C1499 C1508 1.429 . S
C1500 C1498 1.419 . S
C1500 C1501 1.363 . S
C1500 H1503 0.929 . S
C1501 C1500 1.363 . S
C1501 C1507 1.428 . S
H1502 C1498 0.930 . S
H1503 C1500 0.929 . S
S1504 N1505 1.613 . S
S1504 N1506 1.610 . S
N1505 S1504 1.613 . S
N1505 C1508 1.350 . S
N1506 S1504 1.610 . S
N1506 C1507 1.351 . S
C1507 C1501 1.428 . S
C1507 N1506 1.351 . S
C1507 C1508 1.434 . S
C1508 C1499 1.429 . S
C1508 N1505 1.350 . S
C1508 C1507 1.434 . S
C1509 C1510 1.369 . S
C1509 C1511 1.419 . S
C1509 H1513 0.930 . S
C1510 C1509 1.369 . S
C1510 C1519 1.429 . S
C1511 C1509 1.419 . S
C1511 C1512 1.363 . S
C1511 H1514 0.929 . S
C1512 C1511 1.363 . S
C1512 C1518 1.428 . S
H1513 C1509 0.930 . S
H1514 C1511 0.929 . S
S1515 N1516 1.613 . S
S1515 N1517 1.610 . S
N1516 S1515 1.613 . S
N1516 C1519 1.350 . S
N1517 S1515 1.610 . S
N1517 C1518 1.351 . S
C1518 C1512 1.428 . S
C1518 N1517 1.351 . S
C1518 C1519 1.434 . S
C1519 C1510 1.429 . S
C1519 N1516 1.350 . S
C1519 C1518 1.434 . S
C1520 C1521 1.369 . S
C1520 C1522 1.419 . S
C1520 H1524 0.930 . S
C1521 C1520 1.369 . S
C1521 C1530 1.429 . S
C1522 C1520 1.419 . S
C1522 C1523 1.363 . S
C1522 H1525 0.929 . S
C1523 C1522 1.363 . S
C1523 C1529 1.428 . S
H1524 C1520 0.930 . S
H1525 C1522 0.929 . S
S1526 N1527 1.613 . S
S1526 N1528 1.610 . S
N1527 S1526 1.613 . S
N1527 C1530 1.350 . S
N1528 S1526 1.610 . S
N1528 C1529 1.351 . S
C1529 C1523 1.428 . S
C1529 N1528 1.351 . S
C1529 C1530 1.434 . S
C1530 C1521 1.429 . S
C1530 N1527 1.350 . S
C1530 C1529 1.434 . S
C1531 C1532 1.369 . S
C1531 C1533 1.419 . S
C1531 H1535 0.930 . S
C1532 C1531 1.369 . S
C1532 C1541 1.429 . S
C1533 C1531 1.419 . S
C1533 C1534 1.363 . S
C1533 H1536 0.929 . S
C1534 C1533 1.363 . S
C1534 C1540 1.428 . S
H1535 C1531 0.930 . S
H1536 C1533 0.929 . S
S1537 N1538 1.613 . S
S1537 N1539 1.610 . S
N1538 S1537 1.613 . S
N1538 C1541 1.350 . S
N1539 S1537 1.610 . S
N1539 C1540 1.351 . S
C1540 C1534 1.428 . S
C1540 N1539 1.351 . S
C1540 C1541 1.434 . S
C1541 C1532 1.429 . S
C1541 N1538 1.350 . S
C1541 C1540 1.434 . S
C1542 C1543 1.369 . S
C1542 C1544 1.419 . S
C1542 H1546 0.930 . S
C1543 C1542 1.369 . S
C1543 C1552 1.429 . S
C1544 C1542 1.419 . S
C1544 C1545 1.363 . S
C1544 H1547 0.929 . S
C1545 C1544 1.363 . S
C1545 C1551 1.428 . S
H1546 C1542 0.930 . S
H1547 C1544 0.929 . S
S1548 N1549 1.613 . S
S1548 N1550 1.610 . S
N1549 S1548 1.613 . S
N1549 C1552 1.350 . S
N1550 S1548 1.610 . S
N1550 C1551 1.351 . S
C1551 C1545 1.428 . S
C1551 N1550 1.351 . S
C1551 C1552 1.434 . S
C1552 C1543 1.429 . S
C1552 N1549 1.350 . S
C1552 C1551 1.434 . S
C1553 C1554 1.369 . S
C1553 C1555 1.419 . S
C1553 H1557 0.930 . S
C1554 C1553 1.369 . S
C1554 C1563 1.429 . S
C1555 C1553 1.419 . S
C1555 C1556 1.363 . S
C1555 H1558 0.929 . S
C1556 C1555 1.363 . S
C1556 C1562 1.428 . S
H1557 C1553 0.930 . S
H1558 C1555 0.929 . S
S1559 N1560 1.613 . S
S1559 N1561 1.610 . S
N1560 S1559 1.613 . S
N1560 C1563 1.350 . S
N1561 S1559 1.610 . S
N1561 C1562 1.351 . S
C1562 C1556 1.428 . S
C1562 N1561 1.351 . S
C1562 C1563 1.434 . S
C1563 C1554 1.429 . S
C1563 N1560 1.350 . S
C1563 C1562 1.434 . S
C1564 C1565 1.369 . S
C1564 C1566 1.419 . S
C1564 H1568 0.930 . S
C1565 C1564 1.369 . S
C1565 C1574 1.429 . S
C1566 C1564 1.419 . S
C1566 C1567 1.363 . S
C1566 H1569 0.929 . S
C1567 C1566 1.363 . S
C1567 C1573 1.428 . S
H1568 C1564 0.930 . S
H1569 C1566 0.929 . S
S1570 N1571 1.613 . S
S1570 N1572 1.610 . S
N1571 S1570 1.613 . S
N1571 C1574 1.350 . S
N1572 S1570 1.610 . S
N1572 C1573 1.351 . S
C1573 C1567 1.428 . S
C1573 N1572 1.351 . S
C1573 C1574 1.434 . S
C1574 C1565 1.429 . S
C1574 N1571 1.350 . S
C1574 C1573 1.434 . S
C1575 C1576 1.369 . S
C1575 C1577 1.419 . S
C1575 H1579 0.930 . S
C1576 C1575 1.369 . S
C1576 C1585 1.429 . S
C1577 C1575 1.419 . S
C1577 C1578 1.363 . S
C1577 H1580 0.929 . S
C1578 C1577 1.363 . S
C1578 C1584 1.428 . S
H1579 C1575 0.930 . S
H1580 C1577 0.929 . S
S1581 N1582 1.613 . S
S1581 N1583 1.610 . S
N1582 S1581 1.613 . S
N1582 C1585 1.350 . S
N1583 S1581 1.610 . S
N1583 C1584 1.351 . S
C1584 C1578 1.428 . S
C1584 N1583 1.351 . S
C1584 C1585 1.434 . S
C1585 C1576 1.429 . S
C1585 N1582 1.350 . S
C1585 C1584 1.434 . S
C1586 C1587 1.369 . S
C1586 C1588 1.419 . S
C1586 H1590 0.930 . S
C1587 C1586 1.369 . S
C1587 C1596 1.429 . S
C1588 C1586 1.419 . S
C1588 C1589 1.363 . S
C1588 H1591 0.929 . S
C1589 C1588 1.363 . S
C1589 C1595 1.428 . S
H1590 C1586 0.930 . S
H1591 C1588 0.929 . S
S1592 N1593 1.613 . S
S1592 N1594 1.610 . S
N1593 S1592 1.613 . S
N1593 C1596 1.350 . S
N1594 S1592 1.610 . S
N1594 C1595 1.351 . S
C1595 C1589 1.428 . S
C1595 N1594 1.351 . S
C1595 C1596 1.434 . S
C1596 C1587 1.429 . S
C1596 N1593 1.350 . S
C1596 C1595 1.434 . S
C1597 C1598 1.369 . S
C1597 C1599 1.419 . S
C1597 H1601 0.930 . S
C1598 C1597 1.369 . S
C1598 C1607 1.429 . S
C1599 C1597 1.419 . S
C1599 C1600 1.363 . S
C1599 H1602 0.929 . S
C1600 C1599 1.363 . S
C1600 C1606 1.428 . S
H1601 C1597 0.930 . S
H1602 C1599 0.929 . S
S1603 N1604 1.613 . S
S1603 N1605 1.610 . S
N1604 S1603 1.613 . S
N1604 C1607 1.350 . S
N1605 S1603 1.610 . S
N1605 C1606 1.351 . S
C1606 C1600 1.428 . S
C1606 N1605 1.351 . S
C1606 C1607 1.434 . S
C1607 C1598 1.429 . S
C1607 N1604 1.350 . S
C1607 C1606 1.434 . S
C1608 C1609 1.369 . S
C1608 C1610 1.419 . S
C1608 H1612 0.930 . S
C1609 C1608 1.369 . S
C1609 C1618 1.429 1_455 S
C1610 C1608 1.419 . S
C1610 C1611 1.363 1_455 S
C1610 H1613 0.929 . S
C1611 C1610 1.363 1_655 S
C1611 C1617 1.428 . S
H1612 C1608 0.930 . S
H1613 C1610 0.929 . S
S1614 N1615 1.613 . S
S1614 N1616 1.610 . S
N1615 S1614 1.613 . S
N1615 C1618 1.350 . S
N1616 S1614 1.610 . S
N1616 C1617 1.351 . S
C1617 C1611 1.428 . S
C1617 N1616 1.351 . S
C1617 C1618 1.434 . S
C1618 C1609 1.429 1_655 S
C1618 N1615 1.350 . S
C1618 C1617 1.434 . S
C1619 C1620 1.369 . S
C1619 C1621 1.419 . S
C1619 H1623 0.930 . S
C1620 C1619 1.369 . S
C1620 C1629 1.429 . S
C1621 C1619 1.419 . S
C1621 C1622 1.363 . S
C1621 H1624 0.929 . S
C1622 C1621 1.363 . S
C1622 C1628 1.428 . S
H1623 C1619 0.930 . S
H1624 C1621 0.929 . S
S1625 N1626 1.613 . S
S1625 N1627 1.610 . S
N1626 S1625 1.613 . S
N1626 C1629 1.350 . S
N1627 S1625 1.610 . S
N1627 C1628 1.351 . S
C1628 C1622 1.428 . S
C1628 N1627 1.351 . S
C1628 C1629 1.434 . S
C1629 C1620 1.429 . S
C1629 N1626 1.350 . S
C1629 C1628 1.434 . S
C1630 C1631 1.369 . S
C1630 C1632 1.419 . S
C1630 H1634 0.930 . S
C1631 C1630 1.369 . S
C1631 C1640 1.429 1_565 S
C1632 C1630 1.419 . S
C1632 C1633 1.363 1_565 S
C1632 H1635 0.929 . S
C1633 C1632 1.363 1_545 S
C1633 C1639 1.428 . S
H1634 C1630 0.930 . S
H1635 C1632 0.929 . S
S1636 N1637 1.613 . S
S1636 N1638 1.610 . S
N1637 S1636 1.613 . S
N1637 C1640 1.350 . S
N1638 S1636 1.610 . S
N1638 C1639 1.351 . S
C1639 C1633 1.428 . S
C1639 N1638 1.351 . S
C1639 C1640 1.434 . S
C1640 C1631 1.429 1_545 S
C1640 N1637 1.350 . S
C1640 C1639 1.434 . S
C1641 C1642 1.369 1_566 S
C1641 C1643 1.419 . S
C1641 H1645 0.930 . S
C1642 C1641 1.369 1_544 S
C1642 C1651 1.429 . S
C1643 C1641 1.419 . S
C1643 C1644 1.363 . S
C1643 H1646 0.929 . S
C1644 C1643 1.363 . S
C1644 C1650 1.428 1_566 S
H1645 C1641 0.930 . S
H1646 C1643 0.929 . S
S1647 N1648 1.613 . S
S1647 N1649 1.610 . S
N1648 S1647 1.613 . S
N1648 C1651 1.350 . S
N1649 S1647 1.610 . S
N1649 C1650 1.351 . S
C1650 C1644 1.428 1_544 S
C1650 N1649 1.351 . S
C1650 C1651 1.434 . S
C1651 C1642 1.429 . S
C1651 N1648 1.350 . S
C1651 C1650 1.434 . S
C1652 C1653 1.369 . S
C1652 C1654 1.419 . S
C1652 H1656 0.930 . S
C1653 C1652 1.369 . S
C1653 C1662 1.429 1_456 S
C1654 C1652 1.419 . S
C1654 C1655 1.363 1_456 S
C1654 H1657 0.929 . S
C1655 C1654 1.363 1_654 S
C1655 C1661 1.428 . S
H1656 C1652 0.930 . S
H1657 C1654 0.929 . S
S1658 N1659 1.613 . S
S1658 N1660 1.610 . S
N1659 S1658 1.613 . S
N1659 C1662 1.350 . S
N1660 S1658 1.610 . S
N1660 C1661 1.351 . S
C1661 C1655 1.428 . S
C1661 N1660 1.351 . S
C1661 C1662 1.434 . S
C1662 C1653 1.429 1_654 S
C1662 N1659 1.350 . S
C1662 C1661 1.434 . S
C1663 C1664 1.369 . S
C1663 C1665 1.419 . S
C1663 H1667 0.930 . S
C1664 C1663 1.369 . S
C1664 C1673 1.429 1_554 S
C1665 C1663 1.419 . S
C1665 C1666 1.363 1_554 S
C1665 H1668 0.929 . S
C1666 C1665 1.363 1_556 S
C1666 C1672 1.428 . S
H1667 C1663 0.930 . S
H1668 C1665 0.929 . S
S1669 N1670 1.613 . S
S1669 N1671 1.610 . S
N1670 S1669 1.613 . S
N1670 C1673 1.350 . S
N1671 S1669 1.610 . S
N1671 C1672 1.351 . S
C1672 C1666 1.428 . S
C1672 N1671 1.351 . S
C1672 C1673 1.434 . S
C1673 C1664 1.429 1_556 S
C1673 N1670 1.350 . S
C1673 C1672 1.434 . S
C1674 C1675 1.369 . S
C1674 C1676 1.419 . S
C1674 H1678 0.930 . S
C1675 C1674 1.369 . S
C1675 C1684 1.429 . S
C1676 C1674 1.419 . S
C1676 C1677 1.363 . S
C1676 H1679 0.929 . S
C1677 C1676 1.363 . S
C1677 C1683 1.428 . S
H1678 C1674 0.930 . S
H1679 C1676 0.929 . S
S1680 N1681 1.613 . S
S1680 N1682 1.610 . S
N1681 S1680 1.613 . S
N1681 C1684 1.350 . S
N1682 S1680 1.610 . S
N1682 C1683 1.351 . S
C1683 C1677 1.428 . S
C1683 N1682 1.351 . S
C1683 C1684 1.434 . S
C1684 C1675 1.429 . S
C1684 N1681 1.350 . S
C1684 C1683 1.434 . S
C1685 C1686 1.369 . S
C1685 C1687 1.419 . S
C1685 H1689 0.930 . S
C1686 C1685 1.369 . S
C1686 C1695 1.429 . S
C1687 C1685 1.419 . S
C1687 C1688 1.363 . S
C1687 H1690 0.929 . S
C1688 C1687 1.363 . S
C1688 C1694 1.428 . S
H1689 C1685 0.930 . S
H1690 C1687 0.929 . S
S1691 N1692 1.613 . S
S1691 N1693 1.610 . S
N1692 S1691 1.613 . S
N1692 C1695 1.350 . S
N1693 S1691 1.610 . S
N1693 C1694 1.351 . S
C1694 C1688 1.428 . S
C1694 N1693 1.351 . S
C1694 C1695 1.434 . S
C1695 C1686 1.429 . S
C1695 N1692 1.350 . S
C1695 C1694 1.434 . S
C1696 C1697 1.369 . S
C1696 C1698 1.419 . S
C1696 H1700 0.930 . S
C1697 C1696 1.369 . S
C1697 C1706 1.429 . S
C1698 C1696 1.419 . S
C1698 C1699 1.363 . S
C1698 H1701 0.929 . S
C1699 C1698 1.363 . S
C1699 C1705 1.428 . S
H1700 C1696 0.930 . S
H1701 C1698 0.929 . S
S1702 N1703 1.613 . S
S1702 N1704 1.610 . S
N1703 S1702 1.613 . S
N1703 C1706 1.350 . S
N1704 S1702 1.610 . S
N1704 C1705 1.351 . S
C1705 C1699 1.428 . S
C1705 N1704 1.351 . S
C1705 C1706 1.434 . S
C1706 C1697 1.429 . S
C1706 N1703 1.350 . S
C1706 C1705 1.434 . S
C1707 C1708 1.369 . S
C1707 C1709 1.419 . S
C1707 H1711 0.930 . S
C1708 C1707 1.369 . S
C1708 C1717 1.429 . S
C1709 C1707 1.419 . S
C1709 C1710 1.363 . S
C1709 H1712 0.929 . S
C1710 C1709 1.363 . S
C1710 C1716 1.428 . S
H1711 C1707 0.930 . S
H1712 C1709 0.929 . S
S1713 N1714 1.613 . S
S1713 N1715 1.610 . S
N1714 S1713 1.613 . S
N1714 C1717 1.350 . S
N1715 S1713 1.610 . S
N1715 C1716 1.351 . S
C1716 C1710 1.428 . S
C1716 N1715 1.351 . S
C1716 C1717 1.434 . S
C1717 C1708 1.429 . S
C1717 N1714 1.350 . S
C1717 C1716 1.434 . S
C1718 C1719 1.369 . S
C1718 C1720 1.419 . S
C1718 H1722 0.930 . S
C1719 C1718 1.369 . S
C1719 C1728 1.429 . S
C1720 C1718 1.419 . S
C1720 C1721 1.363 . S
C1720 H1723 0.929 . S
C1721 C1720 1.363 . S
C1721 C1727 1.428 . S
H1722 C1718 0.930 . S
H1723 C1720 0.929 . S
S1724 N1725 1.613 . S
S1724 N1726 1.610 . S
N1725 S1724 1.613 . S
N1725 C1728 1.350 . S
N1726 S1724 1.610 . S
N1726 C1727 1.351 . S
C1727 C1721 1.428 . S
C1727 N1726 1.351 . S
C1727 C1728 1.434 . S
C1728 C1719 1.429 . S
C1728 N1725 1.350 . S
C1728 C1727 1.434 . S
C1729 C1730 1.369 . S
C1729 C1731 1.419 . S
C1729 H1733 0.930 . S
C1730 C1729 1.369 . S
C1730 C1739 1.429 . S
C1731 C1729 1.419 . S
C1731 C1732 1.363 . S
C1731 H1734 0.929 . S
C1732 C1731 1.363 . S
C1732 C1738 1.428 . S
H1733 C1729 0.930 . S
H1734 C1731 0.929 . S
S1735 N1736 1.613 . S
S1735 N1737 1.610 . S
N1736 S1735 1.613 . S
N1736 C1739 1.350 . S
N1737 S1735 1.610 . S
N1737 C1738 1.351 . S
C1738 C1732 1.428 . S
C1738 N1737 1.351 . S
C1738 C1739 1.434 . S
C1739 C1730 1.429 . S
C1739 N1736 1.350 . S
C1739 C1738 1.434 . S
C1740 C1741 1.369 . S
C1740 C1742 1.419 . S
C1740 H1744 0.930 . S
C1741 C1740 1.369 . S
C1741 C1750 1.429 . S
C1742 C1740 1.419 . S
C1742 C1743 1.363 . S
C1742 H1745 0.929 . S
C1743 C1742 1.363 . S
C1743 C1749 1.428 . S
H1744 C1740 0.930 . S
H1745 C1742 0.929 . S
S1746 N1747 1.613 . S
S1746 N1748 1.610 . S
N1747 S1746 1.613 . S
N1747 C1750 1.350 . S
N1748 S1746 1.610 . S
N1748 C1749 1.351 . S
C1749 C1743 1.428 . S
C1749 N1748 1.351 . S
C1749 C1750 1.434 . S
C1750 C1741 1.429 . S
C1750 N1747 1.350 . S
C1750 C1749 1.434 . S
C1751 C1752 1.369 . S
C1751 C1753 1.419 . S
C1751 H1755 0.930 . S
C1752 C1751 1.369 . S
C1752 C1761 1.429 . S
C1753 C1751 1.419 . S
C1753 C1754 1.363 . S
C1753 H1756 0.929 . S
C1754 C1753 1.363 . S
C1754 C1760 1.428 . S
H1755 C1751 0.930 . S
H1756 C1753 0.929 . S
S1757 N1758 1.613 . S
S1757 N1759 1.610 1_556 S
N1758 S1757 1.613 . S
N1758 C1761 1.350 1_556 S
N1759 S1757 1.610 1_554 S
N1759 C1760 1.351 . S
C1760 C1754 1.428 . S
C1760 N1759 1.351 . S
C1760 C1761 1.434 . S
C1761 C1752 1.429 . S
C1761 N1758 1.350 1_554 S
C1761 C1760 1.434 . S
C1762 C1763 1.369 . S
C1762 C1764 1.419 . S
C1762 H1766 0.930 . S
C1763 C1762 1.369 . S
C1763 C1772 1.429 . S
C1764 C1762 1.419 . S
C1764 C1765 1.363 . S
C1764 H1767 0.929 . S
C1765 C1764 1.363 . S
C1765 C1771 1.428 . S
H1766 C1762 0.930 . S
H1767 C1764 0.929 . S
S1768 N1769 1.613 1_556 S
S1768 N1770 1.610 . S
N1769 S1768 1.613 1_554 S
N1769 C1772 1.350 . S
N1770 S1768 1.610 . S
N1770 C1771 1.351 1_556 S
C1771 C1765 1.428 . S
C1771 N1770 1.351 1_554 S
C1771 C1772 1.434 . S
C1772 C1763 1.429 . S
C1772 N1769 1.350 . S
C1772 C1771 1.434 . S
C1773 C1774 1.369 . S
C1773 C1775 1.419 . S
C1773 H1777 0.930 . S
C1774 C1773 1.369 . S
C1774 C1783 1.429 . S
C1775 C1773 1.419 . S
C1775 C1776 1.363 . S
C1775 H1778 0.929 . S
C1776 C1775 1.363 . S
C1776 C1782 1.428 . S
H1777 C1773 0.930 . S
H1778 C1775 0.929 . S
S1779 N1780 1.613 . S
S1779 N1781 1.610 . S
N1780 S1779 1.613 . S
N1780 C1783 1.350 . S
N1781 S1779 1.610 . S
N1781 C1782 1.351 . S
C1782 C1776 1.428 . S
C1782 N1781 1.351 . S
C1782 C1783 1.434 . S
C1783 C1774 1.429 . S
C1783 N1780 1.350 . S
C1783 C1782 1.434 . S
C1784 C1785 1.369 . S
C1784 C1786 1.419 . S
C1784 H1788 0.930 . S
C1785 C1784 1.369 . S
C1785 C1794 1.429 . S
C1786 C1784 1.419 . S
C1786 C1787 1.363 . S
C1786 H1789 0.929 . S
C1787 C1786 1.363 . S
C1787 C1793 1.428 . S
H1788 C1784 0.930 . S
H1789 C1786 0.929 . S
S1790 N1791 1.613 . S
S1790 N1792 1.610 . S
N1791 S1790 1.613 . S
N1791 C1794 1.350 . S
N1792 S1790 1.610 . S
N1792 C1793 1.351 . S
C1793 C1787 1.428 . S
C1793 N1792 1.351 . S
C1793 C1794 1.434 . S
C1794 C1785 1.429 . S
C1794 N1791 1.350 . S
C1794 C1793 1.434 . S
C1795 C1796 1.369 . S
C1795 C1797 1.419 . S
C1795 H1799 0.930 . S
C1796 C1795 1.369 . S
C1796 C1805 1.429 . S
C1797 C1795 1.419 . S
C1797 C1798 1.363 . S
C1797 H1800 0.929 . S
C1798 C1797 1.363 . S
C1798 C1804 1.428 . S
H1799 C1795 0.930 . S
H1800 C1797 0.929 . S
S1801 N1802 1.613 . S
S1801 N1803 1.610 . S
N1802 S1801 1.613 . S
N1802 C1805 1.350 . S
N1803 S1801 1.610 . S
N1803 C1804 1.351 . S
C1804 C1798 1.428 . S
C1804 N1803 1.351 . S
C1804 C1805 1.434 . S
C1805 C1796 1.429 . S
C1805 N1802 1.350 . S
C1805 C1804 1.434 . S
C1806 C1807 1.369 . S
C1806 C1808 1.419 1_455 S
C1806 H1810 0.930 . S
C1807 C1806 1.369 . S
C1807 C1816 1.429 . S
C1808 C1806 1.419 1_655 S
C1808 C1809 1.363 . S
C1808 H1811 0.929 . S
C1809 C1808 1.363 . S
C1809 C1815 1.428 . S
H1810 C1806 0.930 . S
H1811 C1808 0.929 . S
S1812 N1813 1.613 1_655 S
S1812 N1814 1.610 . S
N1813 S1812 1.613 1_455 S
N1813 C1816 1.350 . S
N1814 S1812 1.610 . S
N1814 C1815 1.351 . S
C1815 C1809 1.428 . S
C1815 N1814 1.351 . S
C1815 C1816 1.434 1_655 S
C1816 C1807 1.429 . S
C1816 N1813 1.350 . S
C1816 C1815 1.434 1_455 S
C1817 C1818 1.369 . S
C1817 C1819 1.419 . S
C1817 H1821 0.930 . S
C1818 C1817 1.369 . S
C1818 C1827 1.429 . S
C1819 C1817 1.419 . S
C1819 C1820 1.363 . S
C1819 H1822 0.929 . S
C1820 C1819 1.363 . S
C1820 C1826 1.428 . S
H1821 C1817 0.930 . S
H1822 C1819 0.929 . S
S1823 N1824 1.613 . S
S1823 N1825 1.610 . S
N1824 S1823 1.613 . S
N1824 C1827 1.350 . S
N1825 S1823 1.610 . S
N1825 C1826 1.351 . S
C1826 C1820 1.428 . S
C1826 N1825 1.351 . S
C1826 C1827 1.434 . S
C1827 C1818 1.429 . S
C1827 N1824 1.350 . S
C1827 C1826 1.434 . S
C1828 C1829 1.369 . S
C1828 C1830 1.419 1_545 S
C1828 H1832 0.930 . S
C1829 C1828 1.369 . S
C1829 C1838 1.429 . S
C1830 C1828 1.419 1_565 S
C1830 C1831 1.363 . S
C1830 H1833 0.929 . S
C1831 C1830 1.363 . S
C1831 C1837 1.428 . S
H1832 C1828 0.930 . S
H1833 C1830 0.929 . S
S1834 N1835 1.613 1_565 S
S1834 N1836 1.610 . S
N1835 S1834 1.613 1_545 S
N1835 C1838 1.350 . S
N1836 S1834 1.610 . S
N1836 C1837 1.351 . S
C1837 C1831 1.428 . S
C1837 N1836 1.351 . S
C1837 C1838 1.434 1_565 S
C1838 C1829 1.429 . S
C1838 N1835 1.350 . S
C1838 C1837 1.434 1_545 S
C1839 C1840 1.369 . S
C1839 C1841 1.419 1_565 S
C1839 H1843 0.930 . S
C1840 C1839 1.369 . S
C1840 C1849 1.429 . S
C1841 C1839 1.419 1_545 S
C1841 C1842 1.363 . S
C1841 H1844 0.929 . S
C1842 C1841 1.363 . S
C1842 C1848 1.428 . S
H1843 C1839 0.930 . S
H1844 C1841 0.929 . S
S1845 N1846 1.613 1_545 S
S1845 N1847 1.610 . S
N1846 S1845 1.613 1_565 S
N1846 C1849 1.350 . S
N1847 S1845 1.610 . S
N1847 C1848 1.351 . S
C1848 C1842 1.428 . S
C1848 N1847 1.351 . S
C1848 C1849 1.434 1_545 S
C1849 C1840 1.429 . S
C1849 N1846 1.350 . S
C1849 C1848 1.434 1_565 S
C1850 C1851 1.369 . S
C1850 C1852 1.419 1_455 S
C1850 H1854 0.930 . S
C1851 C1850 1.369 . S
C1851 C1860 1.429 . S
C1852 C1850 1.419 1_655 S
C1852 C1853 1.363 . S
C1852 H1855 0.929 . S
C1853 C1852 1.363 . S
C1853 C1859 1.428 . S
H1854 C1850 0.930 . S
H1855 C1852 0.929 . S
S1856 N1857 1.613 . S
S1856 N1858 1.610 1_455 S
N1857 S1856 1.613 . S
N1857 C1860 1.350 . S
N1858 S1856 1.610 1_655 S
N1858 C1859 1.351 . S
C1859 C1853 1.428 . S
C1859 N1858 1.351 . S
C1859 C1860 1.434 1_655 S
C1860 C1851 1.429 . S
C1860 N1857 1.350 . S
C1860 C1859 1.434 1_455 S
C1861 C1862 1.369 . S
C1861 C1863 1.419 . S
C1861 H1865 0.930 . S
C1862 C1861 1.369 . S
C1862 C1871 1.429 . S
C1863 C1861 1.419 . S
C1863 C1864 1.363 . S
C1863 H1866 0.929 . S
C1864 C1863 1.363 . S
C1864 C1870 1.428 . S
H1865 C1861 0.930 . S
H1866 C1863 0.929 . S
S1867 N1868 1.613 . S
S1867 N1869 1.610 . S
N1868 S1867 1.613 . S
N1868 C1871 1.350 . S
N1869 S1867 1.610 . S
N1869 C1870 1.351 . S
C1870 C1864 1.428 . S
C1870 N1869 1.351 . S
C1870 C1871 1.434 . S
C1871 C1862 1.429 . S
C1871 N1868 1.350 . S
C1871 C1870 1.434 . S
C1872 C1873 1.369 . S
C1872 C1874 1.419 . S
C1872 H1876 0.930 . S
C1873 C1872 1.369 . S
C1873 C1882 1.429 . S
C1874 C1872 1.419 . S
C1874 C1875 1.363 . S
C1874 H1877 0.929 . S
C1875 C1874 1.363 . S
C1875 C1881 1.428 . S
H1876 C1872 0.930 . S
H1877 C1874 0.929 . S
S1878 N1879 1.613 . S
S1878 N1880 1.610 . S
N1879 S1878 1.613 . S
N1879 C1882 1.350 . S
N1880 S1878 1.610 . S
N1880 C1881 1.351 . S
C1881 C1875 1.428 . S
C1881 N1880 1.351 . S
C1881 C1882 1.434 . S
C1882 C1873 1.429 . S
C1882 N1879 1.350 . S
C1882 C1881 1.434 . S
C1883 C1884 1.369 1_565 S
C1883 C1885 1.419 . S
C1883 H1887 0.930 . S
C1884 C1883 1.369 1_545 S
C1884 C1893 1.429 . S
C1885 C1883 1.419 . S
C1885 C1886 1.363 . S
C1885 H1888 0.929 . S
C1886 C1885 1.363 . S
C1886 C1892 1.428 1_565 S
H1887 C1883 0.930 . S
H1888 C1885 0.929 . S
S1889 N1890 1.613 . S
S1889 N1891 1.610 . S
N1890 S1889 1.613 . S
N1890 C1893 1.350 . S
N1891 S1889 1.610 . S
N1891 C1892 1.351 . S
C1892 C1886 1.428 1_545 S
C1892 N1891 1.351 . S
C1892 C1893 1.434 . S
C1893 C1884 1.429 . S
C1893 N1890 1.350 . S
C1893 C1892 1.434 . S
C1894 C1895 1.369 . S
C1894 C1896 1.419 . S
C1894 H1898 0.930 . S
C1895 C1894 1.369 . S
C1895 C1904 1.429 1_655 S
C1896 C1894 1.419 . S
C1896 C1897 1.363 1_655 S
C1896 H1899 0.929 . S
C1897 C1896 1.363 1_455 S
C1897 C1903 1.428 . S
H1898 C1894 0.930 . S
H1899 C1896 0.929 . S
S1900 N1901 1.613 . S
S1900 N1902 1.610 . S
N1901 S1900 1.613 . S
N1901 C1904 1.350 . S
N1902 S1900 1.610 . S
N1902 C1903 1.351 . S
C1903 C1897 1.428 . S
C1903 N1902 1.351 . S
C1903 C1904 1.434 . S
C1904 C1895 1.429 1_455 S
C1904 N1901 1.350 . S
C1904 C1903 1.434 . S
C1905 C1906 1.369 . S
C1905 C1907 1.419 . S
C1905 H1909 0.930 . S
C1906 C1905 1.369 . S
C1906 C1915 1.429 . S
C1907 C1905 1.419 . S
C1907 C1908 1.363 . S
C1907 H1910 0.929 . S
C1908 C1907 1.363 . S
C1908 C1914 1.428 . S
H1909 C1905 0.930 . S
H1910 C1907 0.929 . S
S1911 N1912 1.613 . S
S1911 N1913 1.610 . S
N1912 S1911 1.613 . S
N1912 C1915 1.350 . S
N1913 S1911 1.610 . S
N1913 C1914 1.351 . S
C1914 C1908 1.428 . S
C1914 N1913 1.351 . S
C1914 C1915 1.434 . S
C1915 C1906 1.429 . S
C1915 N1912 1.350 . S
C1915 C1914 1.434 . S
C1916 C1917 1.369 1_545 S
C1916 C1918 1.419 . S
C1916 H1920 0.930 . S
C1917 C1916 1.369 1_565 S
C1917 C1926 1.429 . S
C1918 C1916 1.419 . S
C1918 C1919 1.363 . S
C1918 H1921 0.929 . S
C1919 C1918 1.363 . S
C1919 C1925 1.428 1_545 S
H1920 C1916 0.930 . S
H1921 C1918 0.929 . S
S1922 N1923 1.613 . S
S1922 N1924 1.610 . S
N1923 S1922 1.613 . S
N1923 C1926 1.350 . S
N1924 S1922 1.610 . S
N1924 C1925 1.351 . S
C1925 C1919 1.428 1_565 S
C1925 N1924 1.351 . S
C1925 C1926 1.434 . S
C1926 C1917 1.429 . S
C1926 N1923 1.350 . S
C1926 C1925 1.434 . S
C1927 C1928 1.369 . S
C1927 C1929 1.419 . S
C1927 H1931 0.930 . S
C1928 C1927 1.369 . S
C1928 C1937 1.429 1_655 S
C1929 C1927 1.419 . S
C1929 C1930 1.363 1_655 S
C1929 H1932 0.929 . S
C1930 C1929 1.363 1_455 S
C1930 C1936 1.428 . S
H1931 C1927 0.930 . S
H1932 C1929 0.929 . S
S1933 N1934 1.613 . S
S1933 N1935 1.610 . S
N1934 S1933 1.613 . S
N1934 C1937 1.350 . S
N1935 S1933 1.610 . S
N1935 C1936 1.351 . S
C1936 C1930 1.428 . S
C1936 N1935 1.351 . S
C1936 C1937 1.434 . S
C1937 C1928 1.429 1_455 S
C1937 N1934 1.350 . S
C1937 C1936 1.434 . S
C1938 C1939 1.369 . S
C1938 C1940 1.419 . S
C1938 H1942 0.930 . S
C1939 C1938 1.369 . S
C1939 C1948 1.429 . S
C1940 C1938 1.419 . S
C1940 C1941 1.363 . S
C1940 H1943 0.929 . S
C1941 C1940 1.363 . S
C1941 C1947 1.428 . S
H1942 C1938 0.930 . S
H1943 C1940 0.929 . S
S1944 N1945 1.613 . S
S1944 N1946 1.610 . S
N1945 S1944 1.613 . S
N1945 C1948 1.350 . S
N1946 S1944 1.610 . S
N1946 C1947 1.351 . S
C1947 C1941 1.428 . S
C1947 N1946 1.351 . S
C1947 C1948 1.434 . S
C1948 C1939 1.429 . S
C1948 N1945 1.350 . S
C1948 C1947 1.434 . S
C1949 C1950 1.369 . S
C1949 C1951 1.419 . S
C1949 H1953 0.930 . S
C1950 C1949 1.369 . S
C1950 C1959 1.429 . S
C1951 C1949 1.419 . S
C1951 C1952 1.363 . S
C1951 H1954 0.929 . S
C1952 C1951 1.363 . S
C1952 C1958 1.428 . S
H1953 C1949 0.930 . S
H1954 C1951 0.929 . S
S1955 N1956 1.613 . S
S1955 N1957 1.610 . S
N1956 S1955 1.613 . S
N1956 C1959 1.350 . S
N1957 S1955 1.610 . S
N1957 C1958 1.351 . S
C1958 C1952 1.428 . S
C1958 N1957 1.351 . S
C1958 C1959 1.434 . S
C1959 C1950 1.429 . S
C1959 N1956 1.350 . S
C1959 C1958 1.434 . S
C1960 C1961 1.369 . S
C1960 C1962 1.419 . S
C1960 H1964 0.930 . S
C1961 C1960 1.369 . S
C1961 C1970 1.429 . S
C1962 C1960 1.419 . S
C1962 C1963 1.363 . S
C1962 H1965 0.929 . S
C1963 C1962 1.363 . S
C1963 C1969 1.428 . S
H1964 C1960 0.930 . S
H1965 C1962 0.929 . S
S1966 N1967 1.613 . S
S1966 N1968 1.610 . S
N1967 S1966 1.613 . S
N1967 C1970 1.350 . S
N1968 S1966 1.610 . S
N1968 C1969 1.351 . S
C1969 C1963 1.428 . S
C1969 N1968 1.351 . S
C1969 C1970 1.434 . S
C1970 C1961 1.429 . S
C1970 N1967 1.350 . S
C1970 C1969 1.434 . S
C1971 C1972 1.369 . S
C1971 C1973 1.419 . S
C1971 H1975 0.930 . S
C1972 C1971 1.369 . S
C1972 C1981 1.429 . S
C1973 C1971 1.419 . S
C1973 C1974 1.363 . S
C1973 H1976 0.929 . S
C1974 C1973 1.363 . S
C1974 C1980 1.428 . S
H1975 C1971 0.930 . S
H1976 C1973 0.929 . S
S1977 N1978 1.613 . S
S1977 N1979 1.610 . S
N1978 S1977 1.613 . S
N1978 C1981 1.350 . S
N1979 S1977 1.610 . S
N1979 C1980 1.351 . S
C1980 C1974 1.428 . S
C1980 N1979 1.351 . S
C1980 C1981 1.434 . S
C1981 C1972 1.429 . S
C1981 N1978 1.350 . S
C1981 C1980 1.434 . S
C1982 C1983 1.369 . S
C1982 C1984 1.419 . S
C1982 H1986 0.930 . S
C1983 C1982 1.369 . S
C1983 C1992 1.429 . S
C1984 C1982 1.419 . S
C1984 C1985 1.363 . S
C1984 H1987 0.929 . S
C1985 C1984 1.363 . S
C1985 C1991 1.428 . S
H1986 C1982 0.930 . S
H1987 C1984 0.929 . S
S1988 N1989 1.613 . S
S1988 N1990 1.610 . S
N1989 S1988 1.613 . S
N1989 C1992 1.350 . S
N1990 S1988 1.610 . S
N1990 C1991 1.351 . S
C1991 C1985 1.428 . S
C1991 N1990 1.351 . S
C1991 C1992 1.434 . S
C1992 C1983 1.429 . S
C1992 N1989 1.350 . S
C1992 C1991 1.434 . S
C1993 C1994 1.369 . S
C1993 C1995 1.419 . S
C1993 H1997 0.930 . S
C1994 C1993 1.369 . S
C1994 C2003 1.429 . S
C1995 C1993 1.419 . S
C1995 C1996 1.363 . S
C1995 H1998 0.929 . S
C1996 C1995 1.363 . S
C1996 C2002 1.428 . S
H1997 C1993 0.930 . S
H1998 C1995 0.929 . S
S1999 N2000 1.613 . S
S1999 N2001 1.610 . S
N2000 S1999 1.613 . S
N2000 C2003 1.350 . S
N2001 S1999 1.610 . S
N2001 C2002 1.351 . S
C2002 C1996 1.428 . S
C2002 N2001 1.351 . S
C2002 C2003 1.434 . S
C2003 C1994 1.429 . S
C2003 N2000 1.350 . S
C2003 C2002 1.434 . S
C2004 C2005 1.369 . S
C2004 C2006 1.419 . S
C2004 H2008 0.930 . S
C2005 C2004 1.369 . S
C2005 C2014 1.429 . S
C2006 C2004 1.419 . S
C2006 C2007 1.363 . S
C2006 H2009 0.929 . S
C2007 C2006 1.363 . S
C2007 C2013 1.428 . S
H2008 C2004 0.930 . S
H2009 C2006 0.929 . S
S2010 N2011 1.613 . S
S2010 N2012 1.610 . S
N2011 S2010 1.613 . S
N2011 C2014 1.350 . S
N2012 S2010 1.610 . S
N2012 C2013 1.351 . S
C2013 C2007 1.428 . S
C2013 N2012 1.351 . S
C2013 C2014 1.434 . S
C2014 C2005 1.429 . S
C2014 N2011 1.350 . S
C2014 C2013 1.434 . S
C2015 C2016 1.369 . S
C2015 C2017 1.419 . S
C2015 H2019 0.930 . S
C2016 C2015 1.369 . S
C2016 C2025 1.429 . S
C2017 C2015 1.419 . S
C2017 C2018 1.363 . S
C2017 H2020 0.929 . S
C2018 C2017 1.363 . S
C2018 C2024 1.428 . S
H2019 C2015 0.930 . S
H2020 C2017 0.929 . S
S2021 N2022 1.613 . S
S2021 N2023 1.610 . S
N2022 S2021 1.613 . S
N2022 C2025 1.350 . S
N2023 S2021 1.610 . S
N2023 C2024 1.351 . S
C2024 C2018 1.428 . S
C2024 N2023 1.351 . S
C2024 C2025 1.434 . S
C2025 C2016 1.429 . S
C2025 N2022 1.350 . S
C2025 C2024 1.434 . S
C2026 C2027 1.369 . S
C2026 C2028 1.419 . S
C2026 H2030 0.930 . S
C2027 C2026 1.369 . S
C2027 C2036 1.429 . S
C2028 C2026 1.419 . S
C2028 C2029 1.363 . S
C2028 H2031 0.929 . S
C2029 C2028 1.363 . S
C2029 C2035 1.428 . S
H2030 C2026 0.930 . S
H2031 C2028 0.929 . S
S2032 N2033 1.613 . S
S2032 N2034 1.610 . S
N2033 S2032 1.613 . S
N2033 C2036 1.350 . S
N2034 S2032 1.610 . S
N2034 C2035 1.351 . S
C2035 C2029 1.428 . S
C2035 N2034 1.351 . S
C2035 C2036 1.434 . S
C2036 C2027 1.429 . S
C2036 N2033 1.350 . S
C2036 C2035 1.434 . S
C2037 C2038 1.369 . S
C2037 C2039 1.419 . S
C2037 H2041 0.930 . S
C2038 C2037 1.369 . S
C2038 C2047 1.429 . S
C2039 C2037 1.419 . S
C2039 C2040 1.363 . S
C2039 H2042 0.929 . S
C2040 C2039 1.363 . S
C2040 C2046 1.428 . S
H2041 C2037 0.930 . S
H2042 C2039 0.929 . S
S2043 N2044 1.613 . S
S2043 N2045 1.610 . S
N2044 S2043 1.613 . S
N2044 C2047 1.350 . S
N2045 S2043 1.610 . S
N2045 C2046 1.351 . S
C2046 C2040 1.428 . S
C2046 N2045 1.351 . S
C2046 C2047 1.434 . S
C2047 C2038 1.429 . S
C2047 N2044 1.350 . S
C2047 C2046 1.434 . S
C2048 C2049 1.369 . S
C2048 C2050 1.419 . S
C2048 H2052 0.930 . S
C2049 C2048 1.369 . S
C2049 C2058 1.429 . S
C2050 C2048 1.419 . S
C2050 C2051 1.363 . S
C2050 H2053 0.929 . S
C2051 C2050 1.363 . S
C2051 C2057 1.428 . S
H2052 C2048 0.930 . S
H2053 C2050 0.929 . S
S2054 N2055 1.613 . S
S2054 N2056 1.610 . S
N2055 S2054 1.613 . S
N2055 C2058 1.350 . S
N2056 S2054 1.610 . S
N2056 C2057 1.351 . S
C2057 C2051 1.428 . S
C2057 N2056 1.351 . S
C2057 C2058 1.434 . S
C2058 C2049 1.429 . S
C2058 N2055 1.350 . S
C2058 C2057 1.434 . S
C2059 C2060 1.369 . S
C2059 C2061 1.419 . S
C2059 H2063 0.930 . S
C2060 C2059 1.369 . S
C2060 C2069 1.429 . S
C2061 C2059 1.419 . S
C2061 C2062 1.363 . S
C2061 H2064 0.929 . S
C2062 C2061 1.363 . S
C2062 C2068 1.428 . S
H2063 C2059 0.930 . S
H2064 C2061 0.929 . S
S2065 N2066 1.613 . S
S2065 N2067 1.610 . S
N2066 S2065 1.613 . S
N2066 C2069 1.350 . S
N2067 S2065 1.610 . S
N2067 C2068 1.351 . S
C2068 C2062 1.428 . S
C2068 N2067 1.351 . S
C2068 C2069 1.434 . S
C2069 C2060 1.429 . S
C2069 N2066 1.350 . S
C2069 C2068 1.434 . S
C2070 C2071 1.369 . S
C2070 C2072 1.419 . S
C2070 H2074 0.930 . S
C2071 C2070 1.369 . S
C2071 C2080 1.429 . S
C2072 C2070 1.419 . S
C2072 C2073 1.363 . S
C2072 H2075 0.929 . S
C2073 C2072 1.363 . S
C2073 C2079 1.428 . S
H2074 C2070 0.930 . S
H2075 C2072 0.929 . S
S2076 N2077 1.613 . S
S2076 N2078 1.610 . S
N2077 S2076 1.613 . S
N2077 C2080 1.350 . S
N2078 S2076 1.610 . S
N2078 C2079 1.351 . S
C2079 C2073 1.428 . S
C2079 N2078 1.351 . S
C2079 C2080 1.434 . S
C2080 C2071 1.429 . S
C2080 N2077 1.350 . S
C2080 C2079 1.434 . S
C2081 C2082 1.369 . S
C2081 C2083 1.419 . S
C2081 H2085 0.930 . S
C2082 C2081 1.369 . S
C2082 C2091 1.429 . S
C2083 C2081 1.419 . S
C2083 C2084 1.363 . S
C2083 H2086 0.929 . S
C2084 C2083 1.363 . S
C2084 C2090 1.428 . S
H2085 C2081 0.930 . S
H2086 C2083 0.929 . S
S2087 N2088 1.613 1_556 S
S2087 N2089 1.610 1_556 S
N2088 S2087 1.613 1_554 S
N2088 C2091 1.350 . S
N2089 S2087 1.610 1_554 S
N2089 C2090 1.351 . S
C2090 C2084 1.428 . S
C2090 N2089 1.351 . S
C2090 C2091 1.434 . S
C2091 C2082 1.429 . S
C2091 N2088 1.350 . S
C2091 C2090 1.434 . S
C2092 C2093 1.369 . S
C2092 C2094 1.419 . S
C2092 H2096 0.930 . S
C2093 C2092 1.369 . S
C2093 C2102 1.429 . S
C2094 C2092 1.419 . S
C2094 C2095 1.363 . S
C2094 H2097 0.929 . S
C2095 C2094 1.363 . S
C2095 C2101 1.428 . S
H2096 C2092 0.930 . S
H2097 C2094 0.929 . S
S2098 N2099 1.613 1_556 S
S2098 N2100 1.610 1_556 S
N2099 S2098 1.613 1_554 S
N2099 C2102 1.350 . S
N2100 S2098 1.610 1_554 S
N2100 C2101 1.351 . S
C2101 C2095 1.428 . S
C2101 N2100 1.351 . S
C2101 C2102 1.434 . S
C2102 C2093 1.429 . S
C2102 N2099 1.350 . S
C2102 C2101 1.434 . S
C2103 C2104 1.369 . S
C2103 C2105 1.419 . S
C2103 H2107 0.930 . S
C2104 C2103 1.369 . S
C2104 C2113 1.429 . S
C2105 C2103 1.419 . S
C2105 C2106 1.363 . S
C2105 H2108 0.929 . S
C2106 C2105 1.363 . S
C2106 C2112 1.428 . S
H2107 C2103 0.930 . S
H2108 C2105 0.929 . S
S2109 N2110 1.613 . S
S2109 N2111 1.610 . S
N2110 S2109 1.613 . S
N2110 C2113 1.350 . S
N2111 S2109 1.610 . S
N2111 C2112 1.351 . S
C2112 C2106 1.428 . S
C2112 N2111 1.351 . S
C2112 C2113 1.434 . S
C2113 C2104 1.429 . S
C2113 N2110 1.350 . S
C2113 C2112 1.434 . S
C2114 C2115 1.369 . S
C2114 C2116 1.419 . S
C2114 H2118 0.930 . S
C2115 C2114 1.369 . S
C2115 C2124 1.429 . S
C2116 C2114 1.419 . S
C2116 C2117 1.363 . S
C2116 H2119 0.929 . S
C2117 C2116 1.363 . S
C2117 C2123 1.428 . S
H2118 C2114 0.930 . S
H2119 C2116 0.929 . S
S2120 N2121 1.613 . S
S2120 N2122 1.610 1_565 S
N2121 S2120 1.613 . S
N2121 C2124 1.350 1_565 S
N2122 S2120 1.610 1_545 S
N2122 C2123 1.351 . S
C2123 C2117 1.428 . S
C2123 N2122 1.351 . S
C2123 C2124 1.434 . S
C2124 C2115 1.429 . S
C2124 N2121 1.350 1_545 S
C2124 C2123 1.434 . S
C2125 C2126 1.369 . S
C2125 C2127 1.419 . S
C2125 H2129 0.930 . S
C2126 C2125 1.369 . S
C2126 C2135 1.429 . S
C2127 C2125 1.419 . S
C2127 C2128 1.363 . S
C2127 H2130 0.929 . S
C2128 C2127 1.363 . S
C2128 C2134 1.428 . S
H2129 C2125 0.930 . S
H2130 C2127 0.929 . S
S2131 N2132 1.613 1_655 S
S2131 N2133 1.610 . S
N2132 S2131 1.613 1_455 S
N2132 C2135 1.350 1_455 S
N2133 S2131 1.610 . S
N2133 C2134 1.351 . S
C2134 C2128 1.428 . S
C2134 N2133 1.351 . S
C2134 C2135 1.434 . S
C2135 C2126 1.429 . S
C2135 N2132 1.350 1_655 S
C2135 C2134 1.434 . S
C2136 C2137 1.369 . S
C2136 C2138 1.419 . S
C2136 H2140 0.930 . S
C2137 C2136 1.369 . S
C2137 C2146 1.429 . S
C2138 C2136 1.419 . S
C2138 C2139 1.363 . S
C2138 H2141 0.929 . S
C2139 C2138 1.363 . S
C2139 C2145 1.428 . S
H2140 C2136 0.930 . S
H2141 C2138 0.929 . S
S2142 N2143 1.613 1_554 S
S2142 N2144 1.610 1_554 S
N2143 S2142 1.613 1_556 S
N2143 C2146 1.350 . S
N2144 S2142 1.610 1_556 S
N2144 C2145 1.351 . S
C2145 C2139 1.428 . S
C2145 N2144 1.351 . S
C2145 C2146 1.434 . S
C2146 C2137 1.429 . S
C2146 N2143 1.350 . S
C2146 C2145 1.434 . S
C2147 C2148 1.369 . S
C2147 C2149 1.419 . S
C2147 H2151 0.930 . S
C2148 C2147 1.369 . S
C2148 C2157 1.429 . S
C2149 C2147 1.419 . S
C2149 C2150 1.363 . S
C2149 H2152 0.929 . S
C2150 C2149 1.363 . S
C2150 C2156 1.428 . S
H2151 C2147 0.930 . S
H2152 C2149 0.929 . S
S2153 N2154 1.613 . S
S2153 N2155 1.610 . S
N2154 S2153 1.613 . S
N2154 C2157 1.350 . S
N2155 S2153 1.610 . S
N2155 C2156 1.351 . S
C2156 C2150 1.428 . S
C2156 N2155 1.351 . S
C2156 C2157 1.434 . S
C2157 C2148 1.429 . S
C2157 N2154 1.350 . S
C2157 C2156 1.434 . S
C2158 C2159 1.369 . S
C2158 C2160 1.419 . S
C2158 H2162 0.930 . S
C2159 C2158 1.369 . S
C2159 C2168 1.429 . S
C2160 C2158 1.419 . S
C2160 C2161 1.363 . S
C2160 H2163 0.929 . S
C2161 C2160 1.363 . S
C2161 C2167 1.428 . S
H2162 C2158 0.930 . S
H2163 C2160 0.929 . S
S2164 N2165 1.613 . S
S2164 N2166 1.610 1_554 S
N2165 S2164 1.613 . S
N2165 C2168 1.350 1_554 S
N2166 S2164 1.610 1_556 S
N2166 C2167 1.351 . S
C2167 C2161 1.428 . S
C2167 N2166 1.351 . S
C2167 C2168 1.434 . S
C2168 C2159 1.429 . S
C2168 N2165 1.350 1_556 S
C2168 C2167 1.434 . S
C2169 C2170 1.369 . S
C2169 C2171 1.419 . S
C2169 H2173 0.930 . S
C2170 C2169 1.369 . S
C2170 C2179 1.429 . S
C2171 C2169 1.419 . S
C2171 C2172 1.363 . S
C2171 H2174 0.929 . S
C2172 C2171 1.363 . S
C2172 C2178 1.428 . S
H2173 C2169 0.930 . S
H2174 C2171 0.929 . S
S2175 N2176 1.613 . S
S2175 N2177 1.610 . S
N2176 S2175 1.613 . S
N2176 C2179 1.350 . S
N2177 S2175 1.610 . S
N2177 C2178 1.351 . S
C2178 C2172 1.428 . S
C2178 N2177 1.351 . S
C2178 C2179 1.434 . S
C2179 C2170 1.429 . S
C2179 N2176 1.350 . S
C2179 C2178 1.434 . S
C2180 C2181 1.369 . S
C2180 C2182 1.419 . S
C2180 H2184 0.930 . S
C2181 C2180 1.369 . S
C2181 C2190 1.429 . S
C2182 C2180 1.419 . S
C2182 C2183 1.363 . S
C2182 H2185 0.929 . S
C2183 C2182 1.363 . S
C2183 C2189 1.428 . S
H2184 C2180 0.930 . S
H2185 C2182 0.929 . S
S2186 N2187 1.613 1_545 S
S2186 N2188 1.610 . S
N2187 S2186 1.613 1_565 S
N2187 C2190 1.350 . S
N2188 S2186 1.610 . S
N2188 C2189 1.351 1_545 S
C2189 C2183 1.428 . S
C2189 N2188 1.351 1_565 S
C2189 C2190 1.434 . S
C2190 C2181 1.429 . S
C2190 N2187 1.350 . S
C2190 C2189 1.434 . S
C2191 C2192 1.369 . S
C2191 C2193 1.419 . S
C2191 H2195 0.930 . S
C2192 C2191 1.369 . S
C2192 C2201 1.429 . S
C2193 C2191 1.419 . S
C2193 C2194 1.363 . S
C2193 H2196 0.929 . S
C2194 C2193 1.363 . S
C2194 C2200 1.428 . S
H2195 C2191 0.930 . S
H2196 C2193 0.929 . S
S2197 N2198 1.613 . S
S2197 N2199 1.610 . S
N2198 S2197 1.613 . S
N2198 C2201 1.350 . S
N2199 S2197 1.610 . S
N2199 C2200 1.351 . S
C2200 C2194 1.428 . S
C2200 N2199 1.351 . S
C2200 C2201 1.434 . S
C2201 C2192 1.429 . S
C2201 N2198 1.350 . S
C2201 C2200 1.434 . S
C2202 C2203 1.369 . S
C2202 C2204 1.419 1_655 S
C2202 H2206 0.930 . S
C2203 C2202 1.369 . S
C2203 C2212 1.429 . S
C2204 C2202 1.419 1_455 S
C2204 C2205 1.363 . S
C2204 H2207 0.929 . S
C2205 C2204 1.363 . S
C2205 C2211 1.428 . S
H2206 C2202 0.930 . S
H2207 C2204 0.929 . S
S2208 N2209 1.613 . S
S2208 N2210 1.610 1_655 S
N2209 S2208 1.613 . S
N2209 C2212 1.350 . S
N2210 S2208 1.610 1_455 S
N2210 C2211 1.351 . S
C2211 C2205 1.428 . S
C2211 N2210 1.351 . S
C2211 C2212 1.434 1_455 S
C2212 C2203 1.429 . S
C2212 N2209 1.350 . S
C2212 C2211 1.434 1_655 S
C2213 C2214 1.369 . S
C2213 C2215 1.419 . S
C2213 H2217 0.930 . S
C2214 C2213 1.369 . S
C2214 C2223 1.429 . S
C2215 C2213 1.419 . S
C2215 C2216 1.363 . S
C2215 H2218 0.929 . S
C2216 C2215 1.363 . S
C2216 C2222 1.428 . S
H2217 C2213 0.930 . S
H2218 C2215 0.929 . S
S2219 N2220 1.613 . S
S2219 N2221 1.610 . S
N2220 S2219 1.613 . S
N2220 C2223 1.350 . S
N2221 S2219 1.610 . S
N2221 C2222 1.351 . S
C2222 C2216 1.428 . S
C2222 N2221 1.351 . S
C2222 C2223 1.434 . S
C2223 C2214 1.429 . S
C2223 N2220 1.350 . S
C2223 C2222 1.434 . S
C2224 C2225 1.369 . S
C2224 C2226 1.419 1_545 S
C2224 H2228 0.930 . S
C2225 C2224 1.369 . S
C2225 C2234 1.429 . S
C2226 C2224 1.419 1_565 S
C2226 C2227 1.363 . S
C2226 H2229 0.929 . S
C2227 C2226 1.363 . S
C2227 C2233 1.428 . S
H2228 C2224 0.930 . S
H2229 C2226 0.929 . S
S2230 N2231 1.613 . S
S2230 N2232 1.610 1_545 S
N2231 S2230 1.613 . S
N2231 C2234 1.350 . S
N2232 S2230 1.610 1_565 S
N2232 C2233 1.351 . S
C2233 C2227 1.428 . S
C2233 N2232 1.351 . S
C2233 C2234 1.434 1_565 S
C2234 C2225 1.429 . S
C2234 N2231 1.350 . S
C2234 C2233 1.434 1_545 S
C2235 C2236 1.369 . S
C2235 C2237 1.419 1_545 S
C2235 H2239 0.930 . S
C2236 C2235 1.369 . S
C2236 C2245 1.429 . S
C2237 C2235 1.419 1_565 S
C2237 C2238 1.363 . S
C2237 H2240 0.929 . S
C2238 C2237 1.363 . S
C2238 C2244 1.428 . S
H2239 C2235 0.930 . S
H2240 C2237 0.929 . S
S2241 N2242 1.613 1_565 S
S2241 N2243 1.610 . S
N2242 S2241 1.613 1_545 S
N2242 C2245 1.350 . S
N2243 S2241 1.610 . S
N2243 C2244 1.351 . S
C2244 C2238 1.428 . S
C2244 N2243 1.351 . S
C2244 C2245 1.434 1_565 S
C2245 C2236 1.429 . S
C2245 N2242 1.350 . S
C2245 C2244 1.434 1_545 S
C2246 C2247 1.369 . S
C2246 C2248 1.419 1_655 S
C2246 H2250 0.930 . S
C2247 C2246 1.369 . S
C2247 C2256 1.429 . S
C2248 C2246 1.419 1_455 S
C2248 C2249 1.363 . S
C2248 H2251 0.929 . S
C2249 C2248 1.363 . S
C2249 C2255 1.428 . S
H2250 C2246 0.930 . S
H2251 C2248 0.929 . S
S2252 N2253 1.570 1_455 S
S2252 N2254 1.627 . S
N2253 S2252 1.570 1_655 S
N2253 C2256 1.350 . S
N2254 S2252 1.627 . S
N2254 C2255 1.351 . S
C2255 C2249 1.428 . S
C2255 N2254 1.351 . S
C2255 C2256 1.434 1_455 S
C2256 C2247 1.429 . S
C2256 N2253 1.350 . S
C2256 C2255 1.434 1_655 S
C2257 C2258 1.369 . S
C2257 C2259 1.419 . S
C2257 H2261 0.930 . S
C2258 C2257 1.369 . S
C2258 C2267 1.429 . S
C2259 C2257 1.419 . S
C2259 C2260 1.363 . S
C2259 H2262 0.929 . S
C2260 C2259 1.363 . S
C2260 C2266 1.428 . S
H2261 C2257 0.930 . S
H2262 C2259 0.929 . S
S2263 N2264 1.613 . S
S2263 N2265 1.610 . S
N2264 S2263 1.613 . S
N2264 C2267 1.350 . S
N2265 S2263 1.610 . S
N2265 C2266 1.351 . S
C2266 C2260 1.428 . S
C2266 N2265 1.351 . S
C2266 C2267 1.434 . S
C2267 C2258 1.429 . S
C2267 N2264 1.350 . S
C2267 C2266 1.434 . S
C1081 C27 1.456 . S
C1083 N224 1.471 . S
C1092 N254 1.471 . S
C1094 C57 1.456 . S
C1103 N194 1.477 . S
C1105 C87 1.450 . S
C1114 N344 1.471 . S
C1116 C117 1.455 . S
C1125 C147 1.451 . S
C1127 N284 1.477 . S
C1136 C177 1.448 . S
C1138 N314 1.477 . S
C1147 N36 1.478 . S
C1149 C196 1.451 . S
C1158 C226 1.450 . S
C1160 N66 1.477 . S
C1169 N6 1.478 . S
C1171 C256 1.450 . S
C1180 N156 1.474 . S
C1182 C286 1.455 . S
C1191 C316 1.458 . S
C1193 N96 1.471 . S
C1202 C346 1.451 . S
C1204 N126 1.477 . S
C1213 C387 1.452 . S
C1215 N584 1.474 . S
C1224 N614 1.478 . S
C1226 C417 1.449 . S
C1235 N554 1.479 . S
C1237 C447 1.450 . S
C1246 C477 1.456 . S
C1248 N704 1.471 . S
C1257 N644 1.477 . S
C1259 C507 1.450 . S
C1268 C537 1.457 . S
C1270 N674 1.471 . S
C1279 C556 1.458 . S
C1281 N396 1.471 . S
C1290 N426 1.470 . S
C1292 C586 1.457 . S
C1301 C616 1.456 . S
C1303 N366 1.474 . S
C1312 N516 1.471 . S
C1314 C646 1.457 . S
C1323 N456 1.470 . S
C1325 C676 1.457 . S
C1334 C706 1.458 . S
C1336 N486 1.471 . S
C1345 C747 1.458 . S
C1347 N944 1.471 . S
C1356 C777 1.448 . S
C1358 N974 1.478 . S
C1367 N914 1.479 . S
C1369 C807 1.450 . S
C1378 N1064 1.478 . S
C1380 C837 1.452 . S
C1389 C867 1.453 . S
C1391 N1004 1.476 . S
C1400 N1034 1.477 . S
C1402 C897 1.453 . S
C1411 N756 1.477 . S
C1413 C916 1.453 . S
C1422 C946 1.458 . S
C1424 N786 1.471 . S
C1433 N726 1.475 . S
C1435 C976 1.455 . S
C1444 C1006 1.450 . S
C1446 N876 1.475 . S
C1455 C1036 1.448 . S
C1457 N816 1.478 . S
C1466 C1066 1.458 . S
C1468 N846 1.472 . S
C1477 N14 1.091 . S
C1479 N546 1.077 . S
C1488 N44 1.093 . S
C1490 N576 1.075 . S
C1499 N606 1.091 . S
C1501 N74 1.077 . S
C1510 N996 1.093 . S
C1512 N104 1.075 . S
C1521 N1026 1.089 . S
C1523 N134 1.078 . S
C1532 N1056 1.077 . S
C1534 N164 1.088 . S
C1543 N186 1.077 . S
C1545 N734 1.087 . S
C1554 N764 1.093 . S
C1556 N216 1.075 . S
C1565 N246 1.089 . S
C1567 N794 1.078 . S
C1576 N276 1.073 . S
C1578 N464 1.091 . S
C1587 N306 1.086 . S
C1589 N494 1.081 . S
C1598 N336 1.091 . S
C1600 N524 1.076 . S
C1609 N374 1.074 1_455 S
C1611 N906 1.090 1_655 S
C1620 N936 1.076 . S
C1622 N404 1.088 . S
C1631 N434 1.077 1_565 S
C1633 N966 1.088 1_545 S
C1642 N824 1.085 1_545 S
C1644 N636 1.081 1_565 S
C1653 N666 1.074 1_455 S
C1655 N854 1.090 1_655 S
C1664 N884 1.091 . S
C1666 N696 1.077 . S
C1675 C1 2.269 . S
C1677 C481 2.265 . S
C1686 C31 2.267 . S
C1688 C511 2.266 . S
C1697 C451 2.266 . S
C1699 C61 2.268 . S
C1708 C91 2.267 . S
C1710 C781 2.267 . S
C1719 C721 2.266 . S
C1721 C121 2.267 . S
C1730 C151 2.269 . S
C1732 C751 2.265 . S
C1741 C1030 2.263 . S
C1743 C190 2.270 . S
C1752 C220 2.263 . S
C1754 C1060 2.270 . S
C1763 C1000 2.270 . S
C1765 C250 2.264 . S
C1774 C280 2.271 . S
C1776 C610 2.264 . S
C1785 C310 2.270 . S
C1787 C550 2.264 . S
C1796 C340 2.265 . S
C1798 C580 2.269 . S
C1807 C841 2.263 . S
C1809 C361 2.270 . S
C1818 C391 2.268 . S
C1820 C871 2.266 . S
C1829 C421 2.266 . S
C1831 C811 2.267 . S
C1840 C970 2.263 . S
C1842 C640 2.269 . S
C1851 C910 2.269 . S
C1853 C670 2.265 . S
C1862 C940 2.267 . S
C1864 C700 2.267 . S
C1873 C100 1.904 . S
C1875 C10 1.903 . S
C1884 C40 1.902 . S
C1886 C130 1.903 . S
C1895 C70 1.902 . S
C1897 C160 1.902 . S
C1906 C271 1.905 . S
C1908 C181 1.904 . S
C1917 C211 1.902 . S
C1919 C301 1.902 . S
C1928 C331 1.904 . S
C1930 C241 1.903 . S
C1939 C460 1.902 . S
C1941 C370 1.902 . S
C1950 C400 1.903 . S
C1952 C490 1.902 . S
C1961 C430 1.903 . S
C1963 C520 1.904 . S
C1972 C541 1.903 . S
C1974 C631 1.902 1_554 S
C1983 C571 1.905 . S
C1985 C661 1.904 1_554 S
C1994 C601 1.903 . S
C1996 C691 1.904 1_554 S
C2005 C730 1.905 . S
C2007 C820 1.904 1_556 S
C2016 C850 1.902 1_556 S
C2018 C760 1.903 . S
C2027 C880 1.902 1_556 S
C2029 C790 1.902 . S
C2038 C901 1.902 . S
C2040 C991 1.903 . S
C2049 C1021 1.903 . S
C2051 C931 1.904 . S
C2060 C961 1.905 . S
C2062 C1051 1.903 . S
C2071 C16 1.687 . S
C2073 C886 1.685 . S
C2082 C826 1.687 . S
C2084 C46 1.685 . S
C2093 C76 1.684 . S
C2095 C856 1.687 . S
C2104 C406 1.687 . S
C2106 C106 1.685 . S
C2115 C136 1.686 . S
C2117 C436 1.684 . S
C2126 C166 1.687 . S
C2128 C376 1.684 . S
C2137 C717 1.686 . S
C2139 C207 1.684 . S
C2148 C237 1.687 . S
C2150 C657 1.685 . S
C2159 C687 1.687 . S
C2161 C267 1.684 . S
C2170 C297 1.684 . S
C2172 C957 1.686 . S
C2181 C987 1.684 . S
C2183 C327 1.686 . S
C2192 C927 1.684 . S
C2194 C357 1.687 . S
C2203 C466 1.684 . S
C2205 C766 1.686 . S
C2214 C496 1.686 . S
C2216 C796 1.687 . S
C2225 C526 1.685 . S
C2227 C736 1.687 . S
C2236 C567 1.686 . S
C2238 C1077 1.684 . S
C2247 C597 1.685 . S
C2249 C1017 1.685 . S
C2258 C1047 1.685 . S
C2260 C627 1.687 . S
