# Generated by pormake.
# Topology afw, (4)-cn, num edge types: 1
# Building blocks:
#     Node 0, Type 0, BuildingBlock: NAHDIM_clean_sbu_0, # of connection points: 4
#     Node 1, Type 0, BuildingBlock: NAHDIM_clean_sbu_0, # of connection points: 4
#     Node 2, Type 0, BuildingBlock: NAHDIM_clean_sbu_0, # of connection points: 4
#     Node 3, Type 0, BuildingBlock: NAHDIM_clean_sbu_0, # of connection points: 4
#     Node 4, Type 0, BuildingBlock: NAHDIM_clean_sbu_0, # of connection points: 4
#     Node 5, Type 0, BuildingBlock: NAHDIM_clean_sbu_0, # of connection points: 4
#     Node 6, Type 0, BuildingBlock: NAHDIM_clean_sbu_0, # of connection points: 4
#     Node 7, Type 0, BuildingBlock: NAHDIM_clean_sbu_0, # of connection points: 4
#     Node 8, Type 0, BuildingBlock: NAHDIM_clean_sbu_0, # of connection points: 4
#     Edge 9, Type (0, 0), BuildingBlock: AJUNOK_clean_linker_0, # of connection points: 2
#     Edge 10, Type (0, 0), BuildingBlock: AJUNOK_clean_linker_0, # of connection points: 2
#     Edge 11, Type (0, 0), BuildingBlock: AJUNOK_clean_linker_0, # of connection points: 2
#     Edge 12, Type (0, 0), BuildingBlock: AJUNOK_clean_linker_0, # of connection points: 2
#     Edge 13, Type (0, 0), BuildingBlock: AJUNOK_clean_linker_0, # of connection points: 2
#     Edge 14, Type (0, 0), BuildingBlock: AJUNOK_clean_linker_0, # of connection points: 2
#     Edge 15, Type (0, 0), BuildingBlock: AJUNOK_clean_linker_0, # of connection points: 2
#     Edge 16, Type (0, 0), BuildingBlock: AJUNOK_clean_linker_0, # of connection points: 2
#     Edge 17, Type (0, 0), BuildingBlock: AJUNOK_clean_linker_0, # of connection points: 2
#     Edge 18, Type (0, 0), BuildingBlock: AJUNOK_clean_linker_0, # of connection points: 2
#     Edge 19, Type (0, 0), BuildingBlock: AJUNOK_clean_linker_0, # of connection points: 2
#     Edge 20, Type (0, 0), BuildingBlock: AJUNOK_clean_linker_0, # of connection points: 2
#     Edge 21, Type (0, 0), BuildingBlock: AJUNOK_clean_linker_0, # of connection points: 2
#     Edge 22, Type (0, 0), BuildingBlock: AJUNOK_clean_linker_0, # of connection points: 2
#     Edge 23, Type (0, 0), BuildingBlock: AJUNOK_clean_linker_0, # of connection points: 2
#     Edge 24, Type (0, 0), BuildingBlock: AJUNOK_clean_linker_0, # of connection points: 2
#     Edge 25, Type (0, 0), BuildingBlock: AJUNOK_clean_linker_0, # of connection points: 2
#     Edge 26, Type (0, 0), BuildingBlock: AJUNOK_clean_linker_0, # of connection points: 2
# Relax obj value: 0.262
# Max RMSD: 0.265
# Mean RMSD: 0.246
data_MOF--net-afw--node1-NAHDIM_clean_sbu_0--edge1-AJUNOK_clean_linker_0
_symmetry_space_group_name_H-M    P1
_symmetry_Int_Tables_number       1
_symmetry_cell_setting            triclinic
loop_
_symmetry_equiv_pos_as_xyz
'x, y, z'
_cell_length_a     28.840017
_cell_length_b     30.699979
_cell_length_c     26.482843
_cell_angle_alpha  92.71131
_cell_angle_beta   89.901302
_cell_angle_gamma 118.7464
loop_
_atom_site_label
_atom_site_type_symbol
_atom_site_fract_x
_atom_site_fract_y
_atom_site_fract_z
_atom_type_partial_charge
C0 C 0.02903 0.27824 0.91743 0.0
O1 O 0.05776 0.30159 0.95824 0.0
O2 O 0.06553 0.19014 0.97574 0.0
Zn3 Zn 0.00247 0.20103 -0.01835 0.0
O4 O 0.00481 0.24396 0.04176 0.0
C5 C 0.89637 0.11031 0.9687 0.0
O6 O 0.88504 0.13063 0.93142 0.0
O7 O 0.99773 0.23179 0.91823 0.0
C8 C -0.00109 0.22692 0.08541 0.0
O9 O 0.99758 0.18394 0.09026 0.0
C10 C 0.11352 0.21733 -0.01021 0.0
O11 O 0.12807 0.26048 0.0139 0.0
O12 O 0.94117 0.13357 -0.00884 0.0
C13 C 0.74561 0.73957 0.09093 0.0
O14 O 0.70737 0.7256 0.05692 0.0
O15 O 0.8751 0.83479 -0.00426 0.0
Zn16 Zn 0.80244 0.81612 0.02119 0.0
O17 O 0.7468 0.77544 0.96851 0.0
C18 C 0.79094 0.89942 -0.00462 0.0
O19 O 0.77149 0.87108 0.95382 0.0
O20 O 0.78931 0.77855 0.08451 0.0
C21 C 0.74847 0.74401 0.93681 0.0
O22 O 0.78922 0.73589 0.93777 0.0
C23 C 0.90549 0.81807 0.00944 0.0
O24 O 0.88797 0.78168 0.04057 0.0
O25 O 0.80348 0.88201 0.03251 0.0
C26 C 0.27797 0.96787 0.90195 0.0
O27 O 0.27739 0.95563 0.94889 0.0
O28 O 0.15331 0.96815 0.96138 0.0
Zn29 Zn 0.22901 0.01889 0.9499 0.0
O30 O 0.27572 0.03304 0.01138 0.0
C31 C 0.23896 0.11691 0.96861 0.0
O32 O 0.26671 0.11819 0.00844 0.0
O33 O 0.25863 -0.00395 0.89179 0.0
C34 C 0.26021 0.01596 0.05456 0.0
O35 O 0.20978 0.98546 0.06081 0.0
C36 C 0.13079 0.92167 0.96737 0.0
O37 O 0.15924 0.89877 0.96844 0.0
O38 O 0.22373 0.08049 0.93612 0.0
C39 C 0.73389 0.61737 0.25723 0.0
O40 O 0.77309 0.63552 0.29076 0.0
O41 O 0.76633 0.52536 0.30904 0.0
Zn42 Zn 0.7051 0.53874 0.32002 0.0
O43 O 0.71385 0.58071 0.3833 0.0
C44 C 0.60593 0.44186 0.30061 0.0
O45 O 0.60642 0.45316 0.25331 0.0
O46 O 0.69675 0.57317 0.26111 0.0
C47 C 0.70942 0.56107 0.42541 0.0
O48 O 0.70392 0.51604 0.42563 0.0
C49 C 0.80617 0.54043 0.33881 0.0
O50 O 0.81137 0.57026 0.37812 0.0
O51 O 0.64186 0.47245 0.33127 0.0
C52 C 0.40165 0.05544 0.39095 0.0
O53 O 0.39793 0.03071 0.34791 0.0
O54 O 0.5198 0.13872 0.31312 0.0
Zn55 Zn 0.44827 0.13341 0.32471 0.0
O56 O 0.39754 0.09225 0.26857 0.0
C57 C 0.48743 0.23677 0.35543 0.0
O58 O 0.50343 0.22394 0.39577 0.0
O59 O 0.421 0.10238 0.39097 0.0
C60 C 0.41139 0.10209 0.22324 0.0
O61 O 0.45914 0.13814 0.21483 0.0
C62 C 0.55062 0.14413 0.34998 0.0
O63 O 0.53347 0.14208 0.39626 0.0
O64 O 0.45978 0.20326 0.32185 0.0
C65 C 0.9772 0.35801 0.4023 0.0
O66 O 0.99041 0.37807 0.35825 0.0
O67 O 0.87633 0.3752 0.34266 0.0
Zn68 Zn 0.8823 0.31287 0.34836 0.0
O69 O 0.91527 0.29531 0.28932 0.0
C70 C 0.77693 0.24047 0.3206 0.0
O71 O 0.79515 0.25732 0.27617 0.0
O72 O 0.92948 0.32543 0.40858 0.0
C73 C 0.9152 0.30527 0.24338 0.0
O74 O 0.89064 0.32965 0.22989 0.0
C75 C 0.90194 0.41426 0.31844 0.0
O76 O 0.93969 0.41852 0.28799 0.0
O77 O 0.80838 0.25751 0.35882 0.0
C78 C 0.37489 0.9497 0.57406 0.0
O79 O 0.40051 0.97398 0.61591 0.0
O80 O 0.435 0.87054 0.6204 0.0
Zn81 Zn 0.36475 0.86932 0.63022 0.0
O82 O 0.35969 0.90464 0.69466 0.0
C83 C 0.32371 0.7673 0.64858 0.0
O84 O 0.37198 0.7863 0.66733 0.0
O85 O 0.35392 0.90251 0.57118 0.0
C86 C 0.35084 0.88524 0.73735 0.0
O87 O 0.34849 0.84175 0.74094 0.0
C88 C 0.47039 0.87849 0.65356 0.0
O89 O 0.46597 0.8939 0.69953 0.0
O90 O 0.30884 0.79628 0.63018 0.0
C91 C 0.09617 0.37936 0.73037 0.0
O92 O 0.08139 0.35476 0.68629 0.0
O93 O 0.2421 0.44935 0.66945 0.0
Zn94 Zn 0.17437 0.45333 0.66999 0.0
O95 O 0.12811 0.42006 0.60807 0.0
C96 C 0.18207 0.55515 0.66359 0.0
O97 O 0.13105 0.53581 0.65424 0.0
O98 O 0.13494 0.42332 0.73257 0.0
C99 C 0.13055 0.44317 0.56879 0.0
O100 O 0.16615 0.49025 0.56705 0.0
C101 C 0.27264 0.46935 0.63307 0.0
O102 O 0.25386 0.48154 0.59427 0.0
O103 O 0.20164 0.52687 0.67183 0.0
C104 C 0.64911 0.63944 0.6016 0.0
O105 O 0.63513 0.61426 0.64273 0.0
O106 O 0.5204 0.62508 0.64462 0.0
Zn107 Zn 0.5948 0.68119 0.65355 0.0
O108 O 0.62759 0.67929 0.71917 0.0
C109 C 0.57072 0.75616 0.61858 0.0
O110 O 0.55588 0.72706 0.57713 0.0
O111 O 0.63706 0.67383 0.59686 0.0
C112 C 0.60937 0.68628 0.76057 0.0
O113 O 0.56719 0.69218 0.75936 0.0
C114 C 0.49875 0.58548 0.66868 0.0
O115 O 0.526 0.57837 0.70396 0.0
O116 O 0.59129 0.7452 0.65482 0.0
C117 C 0.1688 0.13523 0.9377 0.0
C118 C 0.21424 0.14959 0.96821 0.0
C119 C 0.13792 0.15885 0.94376 0.0
C120 C 0.15138 0.19825 0.98017 0.0
H121 H 0.1551 0.10367 0.9107 0.0
H122 H 0.10218 0.14494 0.92064 0.0
S123 S 0.27079 0.25507 0.06444 0.0
N124 N 0.27441 0.20933 0.03249 0.0
N125 N 0.21637 0.25409 0.04351 0.0
C126 C 0.19879 0.21551 0.00836 0.0
C127 C 0.23018 0.19108 0.00248 0.0
C128 C 0.80067 0.97273 0.94973 0.0
C129 C 0.8086 0.95346 -0.00575 0.0
C130 C 0.82635 0.02402 0.94295 0.0
C131 C 0.86107 0.05792 0.98037 0.0
H132 H 0.77669 0.94797 0.91858 0.0
H133 H 0.82146 0.0368 0.90692 0.0
S134 S 0.88704 0.02782 0.10789 0.0
N135 N 0.84746 0.97324 0.07937 0.0
N136 N 0.89571 0.06951 0.06653 0.0
C137 C 0.86562 0.03959 0.0268 0.0
C138 C 0.83932 0.9874 0.03382 0.0
C139 C 0.99459 0.82227 0.00542 0.0
C140 C 0.96189 0.84321 -0.00526 0.0
C141 C 0.04888 0.84718 -0.00469 0.0
C142 C 0.07273 0.89429 0.97466 0.0
H143 H 0.97835 0.78658 0.02236 0.0
H144 H 0.07249 0.82986 0.00495 0.0
S145 S 0.00434 0.9646 0.93741 0.0
N146 N 0.95732 0.91331 0.96032 0.0
N147 N 0.05883 0.95996 0.9417 0.0
C148 C 0.04024 0.91514 0.96266 0.0
C149 C 0.98501 0.88967 0.97255 0.0
C150 C 0.87321 0.47064 0.28105 0.0
C151 C 0.88693 0.45368 0.32388 0.0
C152 C 0.84929 0.50101 0.28615 0.0
C153 C 0.83979 0.51639 0.3342 0.0
H154 H 0.87799 0.45793 0.24352 0.0
H155 H 0.83651 0.51114 0.2523 0.0
S156 S 0.87386 0.48578 0.45786 0.0
N157 N 0.89276 0.45665 0.41551 0.0
N158 N 0.84961 0.51514 0.42528 0.0
C159 C 0.85671 0.50227 0.37721 0.0
C160 C 0.87978 0.47043 0.37198 0.0
C161 C 0.50935 0.3033 0.29412 0.0
C162 C 0.51004 0.29001 0.34423 0.0
C163 C 0.53824 0.35288 0.28072 0.0
C164 C 0.56884 0.3912 0.31691 0.0
H165 H 0.48852 0.27497 0.26435 0.0
H166 H 0.53842 0.36075 0.24126 0.0
S167 S 0.5764 0.37725 0.45492 0.0
N168 N 0.53856 0.32003 0.43123 0.0
N169 N 0.59235 0.41314 0.40637 0.0
C170 C 0.5666 0.37888 0.36784 0.0
C171 C 0.53737 0.32835 0.3814 0.0
C172 C 0.64351 0.1782 0.38294 0.0
C173 C 0.60751 0.1609 0.34149 0.0
C174 C 0.69824 0.20152 0.37592 0.0
C175 C 0.71925 0.20849 0.32714 0.0
H176 H 0.62957 0.17579 0.42124 0.0
H177 H 0.72418 0.21612 0.40905 0.0
S178 S 0.64191 0.16277 0.20611 0.0
N179 N 0.59676 0.1471 0.25001 0.0
N180 N 0.69952 0.1908 0.23678 0.0
C181 C 0.68367 0.18825 0.28544 0.0
C182 C 0.62787 0.1645 0.2926 0.0
C183 C 0.50452 0.83444 0.59526 0.0
C184 C 0.50636 0.85711 0.64332 0.0
C185 C 0.52825 0.80433 0.5869 0.0
C186 C 0.55512 0.79567 0.62613 0.0
H187 H 0.48213 0.83771 0.56425 0.0
H188 H 0.52323 0.78586 0.54986 0.0
S189 S 0.57953 0.85319 0.75677 0.0
N190 N 0.54326 0.87391 0.72905 0.0
N191 N 0.58814 0.81755 0.71332 0.0
C192 C 0.56124 0.8215 0.67325 0.0
C193 C 0.53687 0.85217 0.68182 0.0
C194 C 0.2325 0.69361 0.64915 0.0
C195 C 0.28777 0.71317 0.65042 0.0
C196 C 0.19841 0.64251 0.65372 0.0
C197 C 0.2184 0.6092 0.65954 0.0
H198 H 0.21547 0.71802 0.6455 0.0
H199 H 0.15614 0.62916 0.65296 0.0
S200 S 0.36052 0.64153 0.66061 0.0
N201 N 0.36094 0.69496 0.65483 0.0
N202 N 0.29758 0.59963 0.66343 0.0
C203 C 0.27378 0.6284 0.65971 0.0
C204 C 0.30825 0.68017 0.65512 0.0
C205 C 0.36404 0.52249 0.60342 0.0
C206 C 0.33077 0.4906 0.63965 0.0
C207 C 0.41848 0.55145 0.61255 0.0
C208 C 0.44226 0.54943 0.65804 0.0
H209 H 0.34776 0.52717 0.56854 0.0
H210 H 0.44186 0.57678 0.58415 0.0
S211 S 0.37421 0.46725 0.76267 0.0
N212 N 0.32648 0.45517 0.72099 0.0
N213 N 0.42923 0.50946 0.73789 0.0
C214 C 0.41025 0.5152 0.6932 0.0
C215 C 0.35444 0.48582 0.68406 0.0
C216 C 0.07812 0.3549 0.8697 0.0
C217 C 0.0392 0.30456 0.86981 0.0
C218 C 0.0945 0.37931 0.8246 0.0
C219 C 0.07266 0.35443 0.7776 0.0
H220 H 0.0977 0.3754 0.90459 0.0
H221 H 0.12595 0.41752 0.82666 0.0
S222 S 0.96406 0.22441 0.75755 0.0
N223 N 0.97524 0.23204 0.81928 0.0
N224 N 0.00596 0.27797 0.73433 0.0
C225 C 0.0313 0.30498 0.77731 0.0
C226 C 0.01456 0.28004 0.82342 0.0
C227 C 0.71937 0.70284 0.85054 0.0
C228 C 0.70832 0.72224 0.89525 0.0
C229 C 0.68574 0.68911 0.8079 0.0
C230 C 0.63961 0.69404 0.80838 0.0
H231 H 0.75548 0.70032 0.84754 0.0
H232 H 0.69715 0.67621 0.77374 0.0
S233 S 0.58877 0.73582 0.91882 0.0
N234 N 0.64501 0.74045 0.93945 0.0
N235 N 0.5818 0.71465 0.85934 0.0
C236 C 0.62625 0.71021 0.85398 0.0
C237 C 0.66063 0.72434 0.89738 0.0
C238 C 0.32298 0.94588 0.77283 0.0
C239 C 0.33677 0.90851 0.78084 0.0
C240 C 0.3046 0.96519 0.81225 0.0
C241 C 0.29968 0.94823 0.86145 0.0
H242 H 0.32496 0.95952 0.73545 0.0
H243 H 0.29364 -0.00674 0.80383 0.0
S244 S 0.3344 0.85338 0.90325 0.0
N245 N 0.34691 0.85709 0.84231 0.0
N246 N 0.31269 0.8934 0.91645 0.0
C247 C 0.315 0.91199 0.87037 0.0
C248 C 0.33345 0.89214 0.8301 0.0
C249 C 0.38703 0.09287 0.13151 0.0
C250 C 0.37306 0.07637 0.18065 0.0
C251 C 0.35062 0.07218 0.09101 0.0
C252 C 0.2986 0.03405 0.09781 0.0
H253 H 0.4261 0.12286 0.12424 0.0
H254 H 0.36328 0.08715 0.05421 0.0
S255 S 0.24334 0.97427 0.21816 0.0
N256 N 0.30448 0.01719 0.23334 0.0
N257 N 0.23598 0.97831 0.15705 0.0
C258 C 0.28455 0.01587 0.1464 0.0
C259 C 0.32177 0.03699 0.18781 0.0
C260 C 0.9678 0.28596 0.11777 0.0
C261 C 0.98385 0.25047 0.12776 0.0
C262 C 0.94655 0.30404 0.15557 0.0
C263 C 0.94092 0.28778 0.20506 0.0
H264 H 0.96986 0.29871 0.07997 0.0
H265 H 0.93367 0.33041 0.14557 0.0
S266 S 0.98168 0.19873 0.25213 0.0
N267 N 0.996 0.20222 0.19159 0.0
N268 N 0.95649 0.23641 0.26287 0.0
C269 C 0.95904 0.25396 0.21618 0.0
C270 C 0.98038 0.23528 0.17751 0.0
C271 C 0.77841 0.69514 0.21016 0.0
C272 C 0.73425 0.64802 0.21543 0.0
C273 C 0.78113 0.72468 0.17045 0.0
C274 C 0.73972 0.7085 0.13427 0.0
H275 H 0.81172 0.70934 0.23659 0.0
H276 H 0.81642 0.76033 0.16791 0.0
S277 S 0.61406 0.58877 0.13194 0.0
N278 N 0.64726 0.58703 0.18181 0.0
N279 N 0.65224 0.64259 0.10713 0.0
C280 C 0.69473 0.66183 0.13956 0.0
C281 C 0.69204 0.63159 0.18007 0.0
C282 C 0.1016 0.44105 0.47978 0.0
C283 C 0.09211 0.41836 0.5263 0.0
C284 C 0.06474 0.42041 0.43966 0.0
C285 C 0.01658 0.37646 0.44454 0.0
H286 H 0.13764 0.47541 0.47429 0.0
H287 H 0.07375 0.43989 0.40492 0.0
S288 S 0.97338 0.30109 0.55786 0.0
N289 N 0.03175 0.34833 0.57449 0.0
N290 N 0.96218 0.30968 0.49901 0.0
C291 C 0.00696 0.35265 0.49048 0.0
C292 C 0.04481 0.37352 0.53134 0.0
C293 C 0.69226 0.62565 0.46923 0.0
C294 C 0.70233 0.58529 0.47227 0.0
C295 C 0.67742 0.64446 0.51177 0.0
C296 C 0.6722 0.62375 0.55908 0.0
H297 H 0.69353 0.64157 0.43326 0.0
H298 H 0.66798 0.67418 0.50694 0.0
S299 S 0.70224 0.5227 0.58884 0.0
N300 N 0.71189 0.52891 0.52758 0.0
N301 N 0.68426 0.56431 0.60762 0.0
C302 C 0.68562 0.58557 0.56336 0.0
C303 C 0.70061 0.56633 0.51996 0.0
C304 C 0.36073 0.95159 0.48125 0.0
C305 C 0.37602 0.97706 0.52896 0.0
C306 C 0.36731 0.97717 0.43716 0.0
C307 C 0.38921 0.02928 0.43887 0.0
H308 H 0.34526 0.91168 0.47755 0.0
H309 H 0.35642 0.95584 0.40129 0.0
S310 S 0.42991 0.11302 0.55492 0.0
N311 N 0.40981 0.05704 0.57574 0.0
N312 N 0.42213 0.10511 0.49283 0.0
C313 C 0.40203 0.05501 0.48656 0.0
C314 C 0.39549 0.02891 0.53156 0.0
loop_
_geom_bond_atom_site_label_1
_geom_bond_atom_site_label_2
_geom_bond_distance
_geom_bond_site_symmetry_2
_ccdc_geom_bond_type
C0 O1 1.160 . S
C0 O7 1.185 . S
O1 C0 1.160 . S
O2 Zn3 1.899 1_556 S
O2 C10 1.271 1_556 S
Zn3 O2 1.899 1_554 S
Zn3 O4 2.032 . S
Zn3 O7 2.086 1_554 S
Zn3 O12 1.977 1_454 S
O4 Zn3 2.032 . S
O4 C8 1.278 1_455 S
C5 O6 1.203 . S
C5 O12 1.267 1_554 S
O6 C5 1.203 . S
O7 C0 1.185 . S
O7 Zn3 2.086 1_556 S
C8 O4 1.278 1_655 S
C8 O9 1.211 . S
O9 C8 1.211 . S
C10 O2 1.271 1_554 S
C10 O11 1.273 . S
O11 C10 1.273 . S
O12 Zn3 1.977 1_656 S
O12 C5 1.267 1_556 S
C13 O14 1.160 . S
C13 O20 1.185 . S
O14 C13 1.160 . S
O15 Zn16 1.899 . S
O15 C23 1.284 1_554 S
Zn16 O15 1.899 . S
Zn16 O17 2.032 1_554 S
Zn16 O20 2.086 . S
Zn16 O25 1.977 . S
O17 Zn16 2.032 1_556 S
O17 C21 1.278 . S
C18 O19 1.203 1_554 S
C18 O25 1.267 . S
O19 C18 1.203 1_556 S
O20 C13 1.185 . S
O20 Zn16 2.086 . S
C21 O17 1.278 . S
C21 O22 1.211 . S
O22 C21 1.211 . S
C23 O15 1.284 1_556 S
C23 O24 1.273 . S
O24 C23 1.273 . S
O25 Zn16 1.977 . S
O25 C18 1.267 . S
C26 O27 1.160 . S
C26 O33 1.185 1_565 S
O27 C26 1.160 . S
O28 Zn29 1.899 1_565 S
O28 C36 1.284 1_556 S
Zn29 O28 1.899 1_545 S
Zn29 O30 2.032 1_556 S
Zn29 O33 2.086 . S
Zn29 O38 1.977 . S
O30 Zn29 2.032 1_554 S
O30 C34 1.278 . S
C31 O32 1.203 . S
C31 O38 1.267 1_554 S
O32 C31 1.203 . S
O33 C26 1.185 1_545 S
O33 Zn29 2.086 . S
C34 O30 1.278 . S
C34 O35 1.211 . S
O35 C34 1.211 . S
C36 O28 1.284 1_554 S
C36 O37 1.273 . S
O37 C36 1.273 . S
O38 Zn29 1.977 . S
O38 C31 1.267 1_556 S
C39 O40 1.160 . S
C39 O46 1.185 . S
O40 C39 1.160 . S
O41 Zn42 1.899 . S
O41 C49 1.284 . S
Zn42 O41 1.899 . S
Zn42 O43 2.032 . S
Zn42 O46 2.086 . S
Zn42 O51 1.977 . S
O43 Zn42 2.032 . S
O43 C47 1.278 . S
C44 O45 1.203 . S
C44 O51 1.267 . S
O45 C44 1.203 . S
O46 C39 1.185 . S
O46 Zn42 2.086 . S
C47 O43 1.278 . S
C47 O48 1.211 . S
O48 C47 1.211 . S
C49 O41 1.284 . S
C49 O50 1.273 . S
O50 C49 1.273 . S
O51 Zn42 1.977 . S
O51 C44 1.267 . S
C52 O53 1.160 . S
C52 O59 1.185 . S
O53 C52 1.160 . S
O54 Zn55 1.899 . S
O54 C62 1.284 . S
Zn55 O54 1.899 . S
Zn55 O56 2.032 . S
Zn55 O59 2.086 . S
Zn55 O64 1.977 . S
O56 Zn55 2.032 . S
O56 C60 1.278 . S
C57 O58 1.203 . S
C57 O64 1.267 . S
O58 C57 1.203 . S
O59 C52 1.185 . S
O59 Zn55 2.086 . S
C60 O56 1.278 . S
C60 O61 1.211 . S
O61 C60 1.211 . S
C62 O54 1.284 . S
C62 O63 1.273 . S
O63 C62 1.273 . S
O64 Zn55 1.977 . S
O64 C57 1.267 . S
C65 O66 1.160 . S
C65 O72 1.185 . S
O66 C65 1.160 . S
O67 Zn68 1.899 . S
O67 C75 1.284 . S
Zn68 O67 1.899 . S
Zn68 O69 2.032 . S
Zn68 O72 2.086 . S
Zn68 O77 1.977 . S
O69 Zn68 2.032 . S
O69 C73 1.278 . S
C70 O71 1.203 . S
C70 O77 1.267 . S
O71 C70 1.203 . S
O72 C65 1.185 . S
O72 Zn68 2.086 . S
C73 O69 1.278 . S
C73 O74 1.211 . S
O74 C73 1.211 . S
C75 O67 1.284 . S
C75 O76 1.273 . S
O76 C75 1.273 . S
O77 Zn68 1.977 . S
O77 C70 1.267 . S
C78 O79 1.160 . S
C78 O85 1.185 . S
O79 C78 1.160 . S
O80 Zn81 1.899 . S
O80 C88 1.284 . S
Zn81 O80 1.899 . S
Zn81 O82 2.032 . S
Zn81 O85 2.086 . S
Zn81 O90 1.977 . S
O82 Zn81 2.032 . S
O82 C86 1.278 . S
C83 O84 1.203 . S
C83 O90 1.267 . S
O84 C83 1.203 . S
O85 C78 1.185 . S
O85 Zn81 2.086 . S
C86 O82 1.278 . S
C86 O87 1.211 . S
O87 C86 1.211 . S
C88 O80 1.284 . S
C88 O89 1.273 . S
O89 C88 1.273 . S
O90 Zn81 1.977 . S
O90 C83 1.267 . S
C91 O92 1.160 . S
C91 O98 1.185 . S
O92 C91 1.160 . S
O93 Zn94 1.899 . S
O93 C101 1.284 . S
Zn94 O93 1.899 . S
Zn94 O95 2.032 . S
Zn94 O98 2.086 . S
Zn94 O103 1.977 . S
O95 Zn94 2.032 . S
O95 C99 1.278 . S
C96 O97 1.203 . S
C96 O103 1.267 . S
O97 C96 1.203 . S
O98 C91 1.185 . S
O98 Zn94 2.086 . S
C99 O95 1.278 . S
C99 O100 1.211 . S
O100 C99 1.211 . S
C101 O93 1.284 . S
C101 O102 1.273 . S
O102 C101 1.273 . S
O103 Zn94 1.977 . S
O103 C96 1.267 . S
C104 O105 1.160 . S
C104 O111 1.185 . S
O105 C104 1.160 . S
O106 Zn107 1.899 . S
O106 C114 1.284 . S
Zn107 O106 1.899 . S
Zn107 O108 2.032 . S
Zn107 O111 2.086 . S
Zn107 O116 1.977 . S
O108 Zn107 2.032 . S
O108 C112 1.278 . S
C109 O110 1.203 . S
C109 O116 1.267 . S
O110 C109 1.203 . S
O111 C104 1.185 . S
O111 Zn107 2.086 . S
C112 O108 1.278 . S
C112 O113 1.211 . S
O113 C112 1.211 . S
C114 O106 1.284 . S
C114 O115 1.273 . S
O115 C114 1.273 . S
O116 Zn107 1.977 . S
O116 C109 1.267 . S
C117 C118 1.369 . S
C117 C119 1.419 . S
C117 H121 0.930 1_554 S
C118 C117 1.369 . S
C118 C127 1.429 . S
C119 C117 1.419 . S
C119 C120 1.363 . S
C119 H122 0.929 . S
C120 C119 1.363 . S
C120 C126 1.428 . S
H121 C117 0.930 1_556 S
H122 C119 0.929 . S
S123 N124 1.613 . S
S123 N125 1.610 . S
N124 S123 1.613 . S
N124 C127 1.350 . S
N125 S123 1.610 . S
N125 C126 1.351 . S
C126 C120 1.428 . S
C126 N125 1.351 . S
C126 C127 1.434 . S
C127 C118 1.429 . S
C127 N124 1.350 . S
C127 C126 1.434 . S
C128 C129 1.369 1_556 S
C128 C130 1.419 1_565 S
C128 H132 0.930 . S
C129 C128 1.369 1_554 S
C129 C138 1.429 . S
C130 C128 1.419 1_545 S
C130 C131 1.363 1_556 S
C130 H133 0.929 . S
C131 C130 1.363 1_554 S
C131 C137 1.428 . S
H132 C128 0.930 . S
H133 C130 0.929 . S
S134 N135 1.613 1_545 S
S134 N136 1.610 . S
N135 S134 1.613 1_565 S
N135 C138 1.350 . S
N136 S134 1.610 . S
N136 C137 1.351 . S
C137 C131 1.428 . S
C137 N136 1.351 . S
C137 C138 1.434 1_545 S
C138 C129 1.429 . S
C138 N135 1.350 . S
C138 C137 1.434 1_565 S
C139 C140 1.369 1_454 S
C139 C141 1.419 . S
C139 H143 0.930 1_454 S
C140 C139 1.369 1_656 S
C140 C149 1.429 1_556 S
C141 C139 1.419 . S
C141 C142 1.363 . S
C141 H144 0.929 . S
C142 C141 1.363 . S
C142 C148 1.428 . S
H143 C139 0.930 1_656 S
H144 C141 0.929 . S
S145 N146 1.613 1_454 S
S145 N147 1.610 . S
N146 S145 1.613 1_656 S
N146 C149 1.350 1_556 S
N147 S145 1.610 . S
N147 C148 1.351 . S
C148 C142 1.428 . S
C148 N147 1.351 . S
C148 C149 1.434 1_455 S
C149 C140 1.429 1_554 S
C149 N146 1.350 1_554 S
C149 C148 1.434 1_655 S
C150 C151 1.369 . S
C150 C152 1.419 . S
C150 H154 0.930 . S
C151 C150 1.369 . S
C151 C160 1.429 . S
C152 C150 1.419 . S
C152 C153 1.363 . S
C152 H155 0.929 . S
C153 C152 1.363 . S
C153 C159 1.428 . S
H154 C150 0.930 . S
H155 C152 0.929 . S
S156 N157 1.613 . S
S156 N158 1.610 . S
N157 S156 1.613 . S
N157 C160 1.350 . S
N158 S156 1.610 . S
N158 C159 1.351 . S
C159 C153 1.428 . S
C159 N158 1.351 . S
C159 C160 1.434 . S
C160 C151 1.429 . S
C160 N157 1.350 . S
C160 C159 1.434 . S
C161 C162 1.369 . S
C161 C163 1.419 . S
C161 H165 0.930 . S
C162 C161 1.369 . S
C162 C171 1.429 . S
C163 C161 1.419 . S
C163 C164 1.363 . S
C163 H166 0.929 . S
C164 C163 1.363 . S
C164 C170 1.428 . S
H165 C161 0.930 . S
H166 C163 0.929 . S
S167 N168 1.613 . S
S167 N169 1.610 . S
N168 S167 1.613 . S
N168 C171 1.350 . S
N169 S167 1.610 . S
N169 C170 1.351 . S
C170 C164 1.428 . S
C170 N169 1.351 . S
C170 C171 1.434 . S
C171 C162 1.429 . S
C171 N168 1.350 . S
C171 C170 1.434 . S
C172 C173 1.369 . S
C172 C174 1.419 . S
C172 H176 0.930 . S
C173 C172 1.369 . S
C173 C182 1.429 . S
C174 C172 1.419 . S
C174 C175 1.363 . S
C174 H177 0.929 . S
C175 C174 1.363 . S
C175 C181 1.428 . S
H176 C172 0.930 . S
H177 C174 0.929 . S
S178 N179 1.613 . S
S178 N180 1.610 . S
N179 S178 1.613 . S
N179 C182 1.350 . S
N180 S178 1.610 . S
N180 C181 1.351 . S
C181 C175 1.428 . S
C181 N180 1.351 . S
C181 C182 1.434 . S
C182 C173 1.429 . S
C182 N179 1.350 . S
C182 C181 1.434 . S
C183 C184 1.369 . S
C183 C185 1.419 . S
C183 H187 0.930 . S
C184 C183 1.369 . S
C184 C193 1.429 . S
C185 C183 1.419 . S
C185 C186 1.363 . S
C185 H188 0.929 . S
C186 C185 1.363 . S
C186 C192 1.428 . S
H187 C183 0.930 . S
H188 C185 0.929 . S
S189 N190 1.613 . S
S189 N191 1.610 . S
N190 S189 1.613 . S
N190 C193 1.350 . S
N191 S189 1.610 . S
N191 C192 1.351 . S
C192 C186 1.428 . S
C192 N191 1.351 . S
C192 C193 1.434 . S
C193 C184 1.429 . S
C193 N190 1.350 . S
C193 C192 1.434 . S
C194 C195 1.369 . S
C194 C196 1.419 . S
C194 H198 0.930 . S
C195 C194 1.369 . S
C195 C204 1.429 . S
C196 C194 1.419 . S
C196 C197 1.363 . S
C196 H199 0.929 . S
C197 C196 1.363 . S
C197 C203 1.428 . S
H198 C194 0.930 . S
H199 C196 0.929 . S
S200 N201 1.613 . S
S200 N202 1.610 . S
N201 S200 1.613 . S
N201 C204 1.350 . S
N202 S200 1.610 . S
N202 C203 1.351 . S
C203 C197 1.428 . S
C203 N202 1.351 . S
C203 C204 1.434 . S
C204 C195 1.429 . S
C204 N201 1.350 . S
C204 C203 1.434 . S
C205 C206 1.369 . S
C205 C207 1.419 . S
C205 H209 0.930 . S
C206 C205 1.369 . S
C206 C215 1.429 . S
C207 C205 1.419 . S
C207 C208 1.363 . S
C207 H210 0.929 . S
C208 C207 1.363 . S
C208 C214 1.428 . S
H209 C205 0.930 . S
H210 C207 0.929 . S
S211 N212 1.613 . S
S211 N213 1.610 . S
N212 S211 1.613 . S
N212 C215 1.350 . S
N213 S211 1.610 . S
N213 C214 1.351 . S
C214 C208 1.428 . S
C214 N213 1.351 . S
C214 C215 1.434 . S
C215 C206 1.429 . S
C215 N212 1.350 . S
C215 C214 1.434 . S
C216 C217 1.369 . S
C216 C218 1.419 . S
C216 H220 0.930 . S
C217 C216 1.369 . S
C217 C226 1.429 . S
C218 C216 1.419 . S
C218 C219 1.363 . S
C218 H221 0.929 . S
C219 C218 1.363 . S
C219 C225 1.428 . S
H220 C216 0.930 . S
H221 C218 0.929 . S
S222 N223 1.613 . S
S222 N224 1.610 . S
N223 S222 1.613 . S
N223 C226 1.350 . S
N224 S222 1.610 . S
N224 C225 1.351 . S
C225 C219 1.428 . S
C225 N224 1.351 . S
C225 C226 1.434 . S
C226 C217 1.429 . S
C226 N223 1.350 . S
C226 C225 1.434 . S
C227 C228 1.369 . S
C227 C229 1.419 . S
C227 H231 0.930 . S
C228 C227 1.369 . S
C228 C237 1.429 . S
C229 C227 1.419 . S
C229 C230 1.363 . S
C229 H232 0.929 . S
C230 C229 1.363 . S
C230 C236 1.428 . S
H231 C227 0.930 . S
H232 C229 0.929 . S
S233 N234 1.613 . S
S233 N235 1.610 . S
N234 S233 1.613 . S
N234 C237 1.350 . S
N235 S233 1.610 . S
N235 C236 1.351 . S
C236 C230 1.428 . S
C236 N235 1.351 . S
C236 C237 1.434 . S
C237 C228 1.429 . S
C237 N234 1.350 . S
C237 C236 1.434 . S
C238 C239 1.369 . S
C238 C240 1.419 . S
C238 H242 0.930 1_565 S
C239 C238 1.369 . S
C239 C248 1.429 . S
C240 C238 1.419 . S
C240 C241 1.363 . S
C240 H243 0.929 1_565 S
C241 C240 1.363 . S
C241 C247 1.428 . S
H242 C238 0.930 1_545 S
H243 C240 0.929 1_545 S
S244 N245 1.613 . S
S244 N246 1.610 . S
N245 S244 1.613 . S
N245 C248 1.350 . S
N246 S244 1.610 . S
N246 C247 1.351 . S
C247 C241 1.428 . S
C247 N246 1.351 . S
C247 C248 1.434 . S
C248 C239 1.429 . S
C248 N245 1.350 . S
C248 C247 1.434 . S
C249 C250 1.369 . S
C249 C251 1.419 . S
C249 H253 0.930 . S
C250 C249 1.369 . S
C250 C259 1.429 . S
C251 C249 1.419 . S
C251 C252 1.363 . S
C251 H254 0.929 . S
C252 C251 1.363 . S
C252 C258 1.428 . S
H253 C249 0.930 . S
H254 C251 0.929 . S
S255 N256 1.613 . S
S255 N257 1.610 . S
N256 S255 1.613 . S
N256 C259 1.350 1_565 S
N257 S255 1.610 . S
N257 C258 1.351 1_565 S
C258 C252 1.428 . S
C258 N257 1.351 1_545 S
C258 C259 1.434 . S
C259 C250 1.429 . S
C259 N256 1.350 1_545 S
C259 C258 1.434 . S
C260 C261 1.369 1_455 S
C260 C262 1.419 1_455 S
C260 H264 0.930 . S
C261 C260 1.369 1_655 S
C261 C270 1.429 . S
C262 C260 1.419 1_655 S
C262 C263 1.363 . S
C262 H265 0.929 . S
C263 C262 1.363 . S
C263 C269 1.428 . S
H264 C260 0.930 . S
H265 C262 0.929 . S
S266 N267 1.613 . S
S266 N268 1.610 . S
N267 S266 1.613 . S
N267 C270 1.350 . S
N268 S266 1.610 . S
N268 C269 1.351 . S
C269 C263 1.428 . S
C269 N268 1.351 . S
C269 C270 1.434 . S
C270 C261 1.429 . S
C270 N267 1.350 . S
C270 C269 1.434 . S
C271 C272 1.369 . S
C271 C273 1.419 . S
C271 H275 0.930 . S
C272 C271 1.369 . S
C272 C281 1.429 . S
C273 C271 1.419 . S
C273 C274 1.363 . S
C273 H276 0.929 . S
C274 C273 1.363 . S
C274 C280 1.428 . S
H275 C271 0.930 . S
H276 C273 0.929 . S
S277 N278 1.613 . S
S277 N279 1.610 . S
N278 S277 1.613 . S
N278 C281 1.350 . S
N279 S277 1.610 . S
N279 C280 1.351 . S
C280 C274 1.428 . S
C280 N279 1.351 . S
C280 C281 1.434 . S
C281 C272 1.429 . S
C281 N278 1.350 . S
C281 C280 1.434 . S
C282 C283 1.369 . S
C282 C284 1.419 . S
C282 H286 0.930 . S
C283 C282 1.369 . S
C283 C292 1.429 . S
C284 C282 1.419 . S
C284 C285 1.363 . S
C284 H287 0.929 . S
C285 C284 1.363 . S
C285 C291 1.428 . S
H286 C282 0.930 . S
H287 C284 0.929 . S
S288 N289 1.613 . S
S288 N290 1.610 . S
N289 S288 1.613 . S
N289 C292 1.350 . S
N290 S288 1.610 . S
N290 C291 1.351 . S
C291 C285 1.428 . S
C291 N290 1.351 . S
C291 C292 1.434 . S
C292 C283 1.429 . S
C292 N289 1.350 . S
C292 C291 1.434 . S
C293 C294 1.369 . S
C293 C295 1.419 . S
C293 H297 0.930 . S
C294 C293 1.369 . S
C294 C303 1.429 . S
C295 C293 1.419 . S
C295 C296 1.363 . S
C295 H298 0.929 . S
C296 C295 1.363 . S
C296 C302 1.428 . S
H297 C293 0.930 . S
H298 C295 0.929 . S
S299 N300 1.613 . S
S299 N301 1.610 . S
N300 S299 1.613 . S
N300 C303 1.350 . S
N301 S299 1.610 . S
N301 C302 1.351 . S
C302 C296 1.428 . S
C302 N301 1.351 . S
C302 C303 1.434 . S
C303 C294 1.429 . S
C303 N300 1.350 . S
C303 C302 1.434 . S
C304 C305 1.369 . S
C304 C306 1.419 1_565 S
C304 H308 0.930 . S
C305 C304 1.369 . S
C305 C314 1.429 1_565 S
C306 C304 1.419 1_545 S
C306 C307 1.363 . S
C306 H309 0.929 1_545 S
C307 C306 1.363 . S
C307 C313 1.428 . S
H308 C304 0.930 . S
H309 C306 0.929 1_565 S
S310 N311 1.613 . S
S310 N312 1.610 . S
N311 S310 1.613 . S
N311 C314 1.350 . S
N312 S310 1.610 . S
N312 C313 1.351 . S
C313 C307 1.428 . S
C313 N312 1.351 . S
C313 C314 1.434 . S
C314 C305 1.429 1_545 S
C314 N311 1.350 . S
C314 C313 1.434 . S
C118 C31 1.147 . S
C120 C10 1.241 . S
C129 C18 1.151 . S
C131 C5 1.134 . S
C140 C23 1.250 . S
C142 C36 1.251 . S
C151 C75 1.241 . S
C153 C49 1.240 . S
C162 C57 1.113 . S
C164 C44 1.118 . S
C173 C62 1.237 . S
C175 C70 1.136 . S
C184 C88 1.227 . S
C186 C109 1.141 . S
C195 C83 1.073 . S
C197 C96 1.077 . S
C206 C101 1.232 . S
C208 C114 1.238 . S
C217 C0 1.337 . S
C219 C91 1.359 . S
C228 C21 1.349 . S
C230 C112 1.345 . S
C239 C86 1.299 . S
C241 C26 1.308 . S
C250 C60 1.309 . S
C252 C34 1.316 . S
C261 C8 1.330 . S
C263 C73 1.341 . S
C272 C39 1.352 . S
C274 C13 1.340 . S
C283 C99 1.329 . S
C285 C65 1.324 1_455 S
C294 C47 1.348 . S
C296 C104 1.346 . S
C305 C78 1.368 . S
C307 C52 1.355 . S
