# Generated by pormake.
# Topology snp, (6)-cn, num edge types: 1
# Building blocks:
#     Node 0, Type 0, BuildingBlock: BETFEN_clean_sbu_0, # of connection points: 6
#     Node 1, Type 0, BuildingBlock: BETFEN_clean_sbu_0, # of connection points: 6
#     Node 2, Type 0, BuildingBlock: BETFEN_clean_sbu_0, # of connection points: 6
#     Node 3, Type 0, BuildingBlock: BETFEN_clean_sbu_0, # of connection points: 6
#     Edge 4, Type (0, 0), BuildingBlock: FUNLAD_clean_linker_1, # of connection points: 2
#     Edge 5, Type (0, 0), BuildingBlock: FUNLAD_clean_linker_1, # of connection points: 2
#     Edge 6, Type (0, 0), BuildingBlock: FUNLAD_clean_linker_1, # of connection points: 2
#     Edge 7, Type (0, 0), BuildingBlock: FUNLAD_clean_linker_1, # of connection points: 2
#     Edge 8, Type (0, 0), BuildingBlock: FUNLAD_clean_linker_1, # of connection points: 2
#     Edge 9, Type (0, 0), BuildingBlock: FUNLAD_clean_linker_1, # of connection points: 2
#     Edge 10, Type (0, 0), BuildingBlock: FUNLAD_clean_linker_1, # of connection points: 2
#     Edge 11, Type (0, 0), BuildingBlock: FUNLAD_clean_linker_1, # of connection points: 2
#     Edge 12, Type (0, 0), BuildingBlock: FUNLAD_clean_linker_1, # of connection points: 2
#     Edge 13, Type (0, 0), BuildingBlock: FUNLAD_clean_linker_1, # of connection points: 2
#     Edge 14, Type (0, 0), BuildingBlock: FUNLAD_clean_linker_1, # of connection points: 2
#     Edge 15, Type (0, 0), BuildingBlock: FUNLAD_clean_linker_1, # of connection points: 2
# Relax obj value: 0.239
# Max RMSD: 0.216
# Mean RMSD: 0.216
data_MOF--net-snp--node1-BETFEN_clean_sbu_0--edge1-FUNLAD_clean_linker_1
_symmetry_space_group_name_H-M    P1
_symmetry_Int_Tables_number       1
_symmetry_cell_setting            triclinic
loop_
_symmetry_equiv_pos_as_xyz
'x, y, z'
_cell_length_a     25.903321
_cell_length_b     26.242441
_cell_length_c     37.637056
_cell_angle_alpha  84.483724
_cell_angle_beta   84.564541
_cell_angle_gamma 94.96893
loop_
_atom_site_label
_atom_site_type_symbol
_atom_site_fract_x
_atom_site_fract_y
_atom_site_fract_z
_atom_type_partial_charge
Pr0 Pr 0.24042 0.04307 0.23414 0.0
Pr1 Pr 0.21642 0.95097 0.18353 0.0
C2 C 0.22821 0.11288 0.28099 0.0
C3 C 0.20268 0.11531 0.31752 0.0
C4 C 0.22453 0.09433 0.34781 0.0
C5 C 0.2025 0.10006 0.38227 0.0
C6 C 0.15827 0.12704 0.38718 0.0
C7 C 0.1349 0.1458 0.35707 0.0
C8 C 0.1572 0.14045 0.32249 0.0
C9 C 0.33339 0.02051 0.19725 0.0
C10 C 0.22733 0.92053 0.2705 0.0
C11 C 0.21173 0.87579 0.13962 0.0
C12 C 0.19778 0.8691 0.10284 0.0
C13 C 0.14721 0.87499 0.0933 0.0
C14 C 0.13498 0.8683 0.05846 0.0
C15 C 0.17284 0.85582 0.03225 0.0
C16 C 0.22352 0.85027 0.04182 0.0
C17 C 0.23564 0.85652 0.07673 0.0
C18 C 0.13254 -0.00209 0.21346 0.0
C19 C 0.22311 0.07104 0.14831 0.0
O20 O 0.19799 0.10774 0.25519 0.0
O21 O 0.26879 0.08636 0.27831 0.0
O22 O 0.28845 -0.00083 0.19559 0.0
O23 O 0.33126 0.05601 0.21893 0.0
O24 O 0.2266 0.90376 0.23842 0.0
O25 O 0.22946 0.96989 0.27554 0.0
O26 O 0.2548 0.9048 0.14224 0.0
O27 O 0.17391 0.88168 0.16416 0.0
O28 O 0.17135 0.98587 0.22875 0.0
O29 O 0.13481 0.98383 0.18113 0.0
O30 O 0.21784 0.08611 0.18091 0.0
O31 O 0.23192 0.02362 0.14222 0.0
H32 H 0.25918 0.07414 0.34502 0.0
H33 H 0.22036 0.08359 0.40502 0.0
H34 H 0.10047 0.1663 0.36028 0.0
H35 H 0.13945 0.15684 0.29964 0.0
H36 H 0.11702 0.88491 0.11266 0.0
H37 H 0.0957 0.87307 0.05194 0.0
H38 H 0.25437 0.84214 1.02235 0.0
H39 H 0.27493 0.85194 0.08327 0.0
Pr40 Pr 0.97867 0.2447 0.69801 0.0
Pr41 Pr 0.08111 0.23875 0.7335 0.0
C42 C 0.91122 0.26178 0.64874 0.0
C43 C 0.90732 0.2488 0.61128 0.0
C44 C 0.86533 0.21535 0.60379 0.0
C45 C 0.86139 0.20177 0.56894 0.0
C46 C 0.89927 0.22116 0.54046 0.0
C47 C 0.94117 0.25516 0.54789 0.0
C48 C 0.94526 0.26858 0.58285 0.0
C49 C 0.99405 0.14678 0.7278 0.0
C50 C 0.08947 0.22214 0.64951 0.0
C51 C 0.15718 0.22139 0.77595 0.0
C52 C 0.16392 0.21565 0.81431 0.0
C53 C 0.21421 0.21852 0.82507 0.0
C54 C 0.22141 0.21208 0.86146 0.0
C55 C 0.17846 0.20283 0.88776 0.0
C56 C 0.12782 0.20064 0.87676 0.0
C57 C 0.12072 0.20718 0.84029 0.0
C58 C 0.06746 0.33422 0.7001 0.0
C59 C 0.96807 0.24914 0.7834 0.0
O60 O 0.94875 0.2961 0.65409 0.0
O61 O 0.90347 0.22336 0.67411 0.0
O62 O 0.02874 0.17862 0.71044 0.0
O63 O 0.94875 0.16474 0.72894 0.0
O64 O 0.11306 0.21423 0.6787 0.0
O65 O 0.04235 0.23789 0.65033 0.0
O66 O 0.12819 0.18451 0.76425 0.0
O67 O 0.14888 0.26731 0.76237 0.0
O68 O 0.0322 0.30552 0.71973 0.0
O69 O 0.11194 0.31493 0.6981 0.0
O70 O 0.94549 0.26362 0.7545 0.0
O71 O 0.01547 0.23395 0.78149 0.0
H72 H 0.83544 0.1995 0.62501 0.0
H73 H 0.8284 0.1759 0.56425 0.0
H74 H 0.97045 0.27235 0.52685 0.0
H75 H 0.97815 0.29459 0.58751 0.0
H76 H 0.24797 0.2252 0.80529 0.0
H77 H 0.2608 0.21366 0.86904 0.0
H78 H 0.09351 0.19264 0.89582 0.0
H79 H 0.08153 0.20488 0.83237 0.0
Pr80 Pr 0.83741 0.07034 0.11482 0.0
Pr81 Pr 0.81117 0.98352 0.06736 0.0
C82 C 0.8459 0.14412 0.15989 0.0
C83 C 0.85952 0.14722 0.19717 0.0
C84 C 0.89796 0.11869 0.2111 0.0
C85 C 0.91063 0.12273 0.24625 0.0
C86 C 0.88477 0.15471 0.26853 0.0
C87 C 0.84607 0.183 0.25446 0.0
C88 C 0.83363 0.17916 0.21926 0.0
C89 C 0.92227 0.02993 0.0797 0.0
C90 C 0.83452 0.95234 0.15227 0.0
C91 C 0.80939 0.90742 1.02424 0.0
C92 C 0.81399 0.90292 0.98525 0.0
C93 C 0.78377 0.9302 0.96229 0.0
C94 C 0.78777 0.92432 0.9256 0.0
C95 C 0.82268 0.89194 0.91101 0.0
C96 C 0.8532 0.86496 0.93402 0.0
C97 C 0.84882 0.87046 0.97076 0.0
C98 C 0.72409 0.02201 0.09989 0.0
C99 C 0.81754 0.10216 0.03021 0.0
O100 O 0.80157 0.11817 0.15623 0.0
O101 O 0.88337 0.13659 0.13564 0.0
O102 O 0.88171 0.04103 0.06634 0.0
O103 O 0.92108 0.04081 0.11269 0.0
O104 O 0.82916 0.93576 0.12062 0.0
O105 O 0.83379 0.00102 0.15767 0.0
O106 O 0.85166 0.92441 0.03763 0.0
O107 O 0.76729 0.92547 0.03804 0.0
O108 O 0.76419 0.01307 0.11531 0.0
O109 O 0.72792 0.00999 0.06711 0.0
O110 O 0.81239 0.11657 0.06304 0.0
O111 O 0.82572 0.05453 1.02449 0.0
H112 H 0.91836 0.09337 0.1948 0.0
H113 H 0.94062 0.10051 0.25615 0.0
H114 H 0.82605 0.20918 0.2701 0.0
H115 H 0.80396 0.20161 0.20914 0.0
H116 H 0.75674 0.95579 0.97265 0.0
H117 H 0.76352 0.94517 0.90856 0.0
H118 H 0.87942 0.83844 0.92403 0.0
H119 H 0.87231 0.84887 0.98796 0.0
Pr120 Pr 0.95783 0.78528 0.57582 0.0
Pr121 Pr 0.06015 0.76532 0.61178 0.0
C122 C 0.88786 0.81824 0.53259 0.0
C123 C 0.88744 0.83316 0.49397 0.0
C124 C 0.84141 0.82411 0.47787 0.0
C125 C 0.8407 0.83665 0.44099 0.0
C126 C 0.88632 0.85825 0.41952 0.0
C127 C 0.93221 0.86785 0.4359 0.0
C128 C 0.9329 0.85509 0.47277 0.0
C129 C 0.96397 0.68497 0.60282 0.0
C130 C 0.07095 0.77202 0.52595 0.0
C131 C 0.12599 0.73414 0.65875 0.0
C132 C 0.13267 0.74356 0.69641 0.0
C133 C 0.14084 0.79378 0.70627 0.0
C134 C 0.14523 0.80219 0.74211 0.0
C135 C 0.14106 0.76049 0.76913 0.0
C136 C 0.13326 0.71034 0.75906 0.0
C137 C 0.129 0.70196 0.7232 0.0
C138 C 0.04933 0.86717 0.58805 0.0
C139 C 0.9522 0.78991 0.66244 0.0
O140 O 0.91621 0.84904 0.55006 0.0
O141 O 0.8917 0.76951 0.54193 0.0
O142 O 0.00171 0.7138 0.58578 0.0
O143 O 0.92074 0.70667 0.60487 0.0
O144 O 0.09034 0.75038 0.55418 0.0
O145 O 0.02577 0.79232 0.52849 0.0
O146 O 0.08349 0.70611 0.65373 0.0
O147 O 0.13831 0.77304 0.63399 0.0
O148 O 0.01414 0.83452 0.60329 0.0
O149 O 0.09455 0.84917 0.58818 0.0
O150 O 0.92905 0.8039 0.63368 0.0
O151 O -0.00239 0.77055 0.66034 0.0
H152 H 0.80594 0.80735 0.49387 0.0
H153 H 0.80414 0.83018 0.42967 0.0
H154 H 0.96772 0.88491 0.4201 0.0
H155 H 0.9689 0.86223 0.48471 0.0
H156 H 0.14364 0.8268 0.68633 0.0
H157 H 0.15238 0.84143 0.74818 0.0
H158 H 0.13017 0.67737 0.77909 0.0
H159 H 0.12247 0.66287 0.71642 0.0
H160 H 0.95427 0.99057 0.0347 0.0
C161 C 0.96176 0.00187 0.06089 0.0
H162 H 0.02986 0.96447 0.05932 0.0
H163 H 0.07668 0.13012 0.17713 0.0
H164 H 0.09444 0.19269 0.12452 0.0
H165 H 0.07868 0.16835 0.06448 0.0
H166 H 0.0448 0.0814 0.05673 0.0
C167 C 0.00524 0.98803 0.07434 0.0
C168 C 0.02004 0.00148 0.10961 0.0
C169 C 0.03967 0.05249 0.11361 0.0
C170 C 0.04904 0.06637 0.14812 0.0
C171 C 0.06874 0.11754 0.15148 0.0
C172 C 0.07907 0.15383 0.12152 0.0
C173 C 0.07015 0.14015 0.08772 0.0
C174 C 0.05057 0.09016 0.08366 0.0
H175 H 0.09909 0.04127 0.25582 0.0
C176 C 0.09335 0.02892 0.22963 0.0
H177 H 0.0261 0.06758 0.22768 0.0
H178 H 0.98857 0.89914 0.10998 0.0
H179 H 0.97652 0.83513 0.16189 0.0
H180 H 0.99111 0.85964 0.22213 0.0
H181 H 0.01652 0.94816 0.23092 0.0
C182 C 0.05151 0.04315 0.21408 0.0
C183 C 0.03943 0.02899 0.17833 0.0
C184 C 0.021 0.97766 0.17414 0.0
C185 C 0.01227 0.96368 0.13955 0.0
C186 C 0.99562 0.91184 0.13576 0.0
C187 C 0.98858 0.87474 0.1653 0.0
C188 C -0.00332 0.88852 0.19921 0.0
C189 C 0.01176 0.93945 0.20384 0.0
H190 H 0.00285 0.93117 0.58358 0.0
C191 C 0.04173 0.92138 0.5884 0.0
H192 H 0.10597 0.9369 0.61685 0.0
H193 H 0.94478 0.11631 0.65438 0.0
H194 H 0.95669 0.1478 0.59129 0.0
H195 H 0.00675 0.10213 0.54754 0.0
H196 H 0.04559 0.02466 0.56683 0.0
C197 C 0.06875 0.94879 0.60974 0.0
C198 C 0.0391 0.97726 0.63557 0.0
C199 C 0.01683 0.02246 0.62367 0.0
C200 C 0.98799 0.04868 0.64886 0.0
C201 C 0.96684 0.09442 0.63648 0.0
C202 C 0.97325 0.11297 0.60025 0.0
C203 C 0.00136 0.08719 0.57561 0.0
C204 C 0.02322 0.0426 0.58705 0.0
H205 H 0.03873 0.08076 0.72617 0.0
C206 C -0.0008 0.09201 0.72694 0.0
H207 H 0.92448 0.07591 0.71079 0.0
H208 H 0.06653 0.88485 0.66612 0.0
H209 H 0.04749 0.84987 0.72834 0.0
H210 H -0.00022 0.89741 0.77214 0.0
H211 H 0.97003 0.98025 0.75358 0.0
C212 C 0.96313 0.0633 0.71245 0.0
C213 C 0.98203 0.02965 0.68578 0.0
C214 C 0.00086 0.98259 0.69723 0.0
C215 C 0.02915 0.95595 0.67206 0.0
C216 C 0.04584 0.90772 0.68406 0.0
C217 C 0.03513 0.88702 0.71979 0.0
C218 C 0.00817 0.91373 0.74445 0.0
C219 C 0.99144 0.96119 0.73349 0.0
H220 H 0.67168 0.03193 0.14817 0.0
C221 C 0.67354 0.02837 0.11955 0.0
H222 H 0.63124 0.02327 0.07441 0.0
H223 H 0.44247 0.93965 0.201 0.0
H224 H 0.48604 0.86153 0.20444 0.0
H225 H 0.57134 0.858 0.17002 0.0
H226 H 0.61394 0.93291 0.13235 0.0
C227 C 0.62968 0.02627 0.10309 0.0
C228 C 0.57761 0.02772 0.12299 0.0
C229 C 0.55258 0.98312 0.14407 0.0
C230 C 0.5026 0.98467 0.16301 0.0
C231 C 0.47962 0.94029 0.18517 0.0
C232 C 0.50435 0.89518 0.18754 0.0
C233 C 0.55243 0.89323 0.16822 0.0
C234 C 0.57649 0.93656 0.14675 0.0
H235 H 0.37983 0.98295 0.15635 0.0
C236 C 0.38166 0.0099 0.17648 0.0
H237 H 0.42841 0.06249 0.20165 0.0
H238 H 0.61435 0.1191 0.08393 0.0
H239 H 0.56965 0.19661 0.07866 0.0
H240 H 0.48198 0.19881 0.11009 0.0
H241 H 0.43851 0.12365 0.14701 0.0
C242 C 0.42742 0.03466 0.18205 0.0
C243 C 0.47726 0.03046 0.15997 0.0
C244 C 0.50185 0.07461 0.1381 0.0
C245 C 0.55209 0.07322 0.11965 0.0
C246 C 0.576 0.11799 0.09832 0.0
C247 C 0.55081 0.16275 0.09509 0.0
C248 C 0.50149 0.16401 0.11282 0.0
C249 C 0.47707 0.1206 0.13406 0.0
H250 H 0.09378 0.40608 0.66621 0.0
C251 C 0.06035 0.38458 0.68223 0.0
H252 H 0.98113 0.38443 0.70205 0.0
H253 H 0.01294 0.63019 0.68277 0.0
H254 H 0.00853 0.61354 0.7475 0.0
H255 H 0.00426 0.52474 0.77673 0.0
H256 H 0.00472 0.45221 0.74125 0.0
C257 C 0.01458 0.40455 0.68526 0.0
C258 C 0.01058 0.45678 0.66792 0.0
C259 C 0.00896 0.49838 0.68918 0.0
C260 C 0.01095 0.54935 0.67239 0.0
C261 C 0.01086 0.59056 0.69412 0.0
C262 C 0.00847 0.58155 0.73135 0.0
C263 C 0.00614 0.53158 0.74779 0.0
C264 C 0.00644 0.49032 0.7271 0.0
H265 H 0.93282 0.61216 0.63401 0.0
C266 C 0.96767 0.63287 0.6192 0.0
H267 H 0.04729 0.63029 0.60152 0.0
H268 H 0.00988 0.3846 0.61986 0.0
H269 H 0.01502 0.4012 0.55502 0.0
H270 H 0.02005 0.49005 0.5257 0.0
H271 H 0.01973 0.56268 0.56113 0.0
C272 C 0.01235 0.61087 0.61699 0.0
C273 C 0.01382 0.55821 0.63445 0.0
C274 C 0.01509 0.51655 0.61322 0.0
C275 C 0.01289 0.46557 0.63003 0.0
C276 C 0.01259 0.42426 0.60838 0.0
C277 C 0.01524 0.43324 0.57114 0.0
C278 C 0.018 0.48324 0.55465 0.0
C279 C 0.0178 0.52457 0.5753 0.0
H280 H 0.15606 0.20513 0.61269 0.0
C281 C 0.11465 0.20989 0.61513 0.0
H282 H 0.04499 0.20649 0.59024 0.0
H283 H 0.13699 0.23701 0.42992 0.0
H284 H 0.09625 0.31574 0.43574 0.0
H285 H 0.06189 0.33784 0.49511 0.0
H286 H 0.06827 0.2813 0.54891 0.0
C287 C 0.08633 0.20145 0.58779 0.0
C288 C 0.10953 0.18836 0.55265 0.0
C289 C 0.10525 0.22178 0.52137 0.0
C290 C 0.12454 0.20878 0.48715 0.0
C291 C 0.12146 0.24389 0.45651 0.0
C292 C 0.09859 0.28961 0.45948 0.0
C293 C 0.07932 0.30209 0.49288 0.0
C294 C 0.08292 0.26899 0.52357 0.0
H295 H 0.09548 0.1413 0.42818 0.0
C296 C 0.13698 0.13759 0.4233 0.0
H297 H 0.20996 0.1461 0.44414 0.0
H298 H 0.12059 0.11322 0.60705 0.0
H299 H 0.16105 0.03456 0.6011 0.0
H300 H 0.1949 0.01233 0.54166 0.0
H301 H 0.18907 0.06938 0.48788 0.0
C302 C 0.16818 0.14801 0.44879 0.0
C303 C 0.14732 0.16188 0.4843 0.0
C304 C 0.15195 0.12861 0.51557 0.0
C305 C 0.13283 0.14167 0.54984 0.0
C306 C 0.13626 0.10663 0.58045 0.0
C307 C 0.15887 0.0608 0.57738 0.0
C308 C 0.17782 0.04824 0.54393 0.0
C309 C 0.17433 0.08146 0.51328 0.0
H310 H 0.96267 0.23529 0.8418 0.0
C311 C 0.93984 0.24441 0.8196 0.0
H312 H 0.86387 0.24829 0.8044 0.0
H313 H 0.78272 0.07509 0.93244 0.0
H314 H 0.75534 0.03705 0.88018 0.0
H315 H 0.77693 0.08271 0.8195 0.0
H316 H 0.82506 0.16707 0.81073 0.0
C317 C 0.8878 0.24237 0.82634 0.0
C318 C 0.86303 0.22136 0.86294 0.0
C319 C 0.83368 0.17261 0.86764 0.0
C320 C 0.82239 0.1457 0.90256 0.0
C321 C 0.79344 0.09674 0.90644 0.0
C322 C 0.77727 0.07452 0.8767 0.0
C323 C 0.78933 0.10029 0.84255 0.0
C324 C 0.81712 0.14875 0.8379 0.0
H325 H 0.79901 0.1757 1.00202 0.0
C326 C 0.81734 0.14052 0.99875 0.0
H327 H 0.85902 0.09683 0.96397 0.0
H328 H 0.90646 0.31933 0.86401 0.0
H329 H 0.9361 0.35747 0.91584 0.0
H330 H 0.92529 0.30776 0.97557 0.0
H331 H 0.88376 0.2208 0.98415 0.0
C332 C 0.841 0.13239 0.96661 0.0
C333 C 0.84133 0.16699 0.93269 0.0
C334 C 0.86725 0.21754 0.9283 0.0
C335 C 0.87636 0.24528 0.89349 0.0
C336 C 0.90055 0.29621 0.88974 0.0
C337 C 0.91747 0.31852 0.91921 0.0
C338 C 0.91118 0.2906 0.95285 0.0
C339 C 0.88671 0.24063 0.95747 0.0
H340 H 0.91724 0.90235 0.36767 0.0
C341 C 0.88686 0.87332 0.38041 0.0
H342 H 0.82353 0.82128 0.37104 0.0
H343 H 0.83369 0.00718 0.23645 0.0
H344 H 0.80687 0.06094 0.28216 0.0
H345 H 0.79965 0.02861 0.34629 0.0
H346 H 0.81939 0.94227 0.36504 0.0
C347 C 0.85208 0.85292 0.36005 0.0
C348 C 0.85317 0.87136 0.3213 0.0
C349 C 0.84122 0.92199 0.3108 0.0
C350 C 0.84499 0.9404 0.2738 0.0
C351 C 0.83247 -0.00884 0.26412 0.0
C352 C 0.81668 0.02252 0.29011 0.0
C353 C 0.8126 0.00432 0.3262 0.0
C354 C 0.82446 0.95468 0.33659 0.0
H355 H 0.81211 0.88079 0.18856 0.0
C356 C 0.83836 0.91589 0.18392 0.0
H357 H 0.89428 0.96577 0.20334 0.0
H358 H 0.87508 0.77132 0.33249 0.0
H359 H 0.89788 0.71564 0.28678 0.0
H360 H 0.90342 0.74712 0.2225 0.0
H361 H 0.88639 0.83427 0.20359 0.0
C362 C 0.8685 0.93031 0.2091 0.0
C363 C 0.85987 0.90789 0.24728 0.0
C364 C 0.869 0.85633 0.25775 0.0
C365 C 0.86577 0.83813 0.29487 0.0
C366 C 0.87653 0.78698 0.30472 0.0
C367 C 0.88976 0.75462 0.27876 0.0
C368 C 0.89283 0.77232 0.24257 0.0
C369 C 0.88269 0.82251 0.23206 0.0
H370 H 0.15226 0.73328 0.82528 0.0
C371 C 0.14622 0.76718 0.80772 0.0
H372 H 0.13729 0.84702 0.80613 0.0
H373 H 0.09405 0.77093 0.98102 0.0
H374 H 0.01334 0.72781 0.96648 0.0
H375 H 0.9946 0.72602 0.90353 0.0
H376 H 0.05696 0.76655 0.85467 0.0
C377 C 0.14348 0.81204 0.82226 0.0
C378 C 0.15244 0.81639 0.86059 0.0
C379 C 0.115 0.79378 0.88896 0.0
C380 C 0.12499 0.79654 0.9254 0.0
C381 C 0.08787 0.77153 0.95299 0.0
C382 C 0.04143 0.74639 0.945 0.0
C383 C 0.03094 0.74524 0.90955 0.0
C384 C 0.06718 0.76849 0.88175 0.0
H385 H 0.12519 0.86975 0.98685 0.0
C386 C 0.1587 0.85111 0.99503 0.0
H387 H 0.2177 0.80473 0.97873 0.0
H388 H 0.2312 0.86616 0.81291 0.0
H389 H 0.30987 0.91329 0.82737 0.0
H390 H 0.32605 0.92026 0.89033 0.0
H391 H 0.26377 0.88001 0.93928 0.0
C392 C 0.18448 0.82434 0.97139 0.0
C393 C 0.17174 0.82337 0.93348 0.0
C394 C 0.2083 0.84743 0.90506 0.0
C395 C 0.19867 0.84394 0.86869 0.0
C396 C 0.23626 0.86794 0.84099 0.0
C397 C 0.28165 0.89509 0.8489 0.0
C398 C 0.29079 0.89896 0.88435 0.0
C399 C 0.25474 0.87551 0.9122 0.0
H400 H 0.78914 0.89024 0.85903 0.0
C401 C 0.82414 0.88476 0.87223 0.0
H402 H 0.90228 0.86697 0.86517 0.0
H403 H 0.86807 0.72713 0.74119 0.0
H404 H 0.87066 0.66225 0.79132 0.0
H405 H 0.87107 0.68634 0.85307 0.0
H406 H 0.86788 0.77517 0.8651 0.0
C407 C 0.86654 0.87198 0.85289 0.0
C408 C 0.86477 0.85816 0.81553 0.0
C409 C 0.86782 0.8062 0.80889 0.0
C410 C 0.8695 0.79254 0.7732 0.0
C411 C 0.86945 0.73992 0.7676 0.0
C412 C 0.8703 0.70222 0.79618 0.0
C413 C 0.87041 0.71576 0.83094 0.0
C414 C 0.86881 0.767 0.83743 0.0
H415 H 0.95532 0.79116 0.72008 0.0
C416 C 0.93102 0.79951 0.6986 0.0
H417 H 0.86142 0.82928 0.68533 0.0
H418 H 0.85611 0.96097 0.81894 0.0
H419 H 0.8502 0.02499 0.76894 0.0
H420 H 0.85388 0.00121 0.70695 0.0
H421 H 0.86426 0.91364 0.69455 0.0
C422 C 0.88566 0.81915 0.70643 0.0
C423 C 0.87102 0.83124 0.74391 0.0
C424 C 0.86439 0.88266 0.75071 0.0
C425 C 0.86154 0.89623 0.78657 0.0
C426 C 0.85711 0.94824 0.79243 0.0
C427 C 0.85393 0.98546 0.76393 0.0
C428 C 0.85611 0.97211 0.72902 0.0
C429 C 0.86198 0.92156 0.72228 0.0
H430 H 0.19362 0.84626 0.29932 0.0
C431 C 0.21489 0.8828 0.30255 0.0
H432 H 0.24134 0.93336 0.33844 0.0
H433 H 0.06103 0.89009 0.46083 0.0
H434 H 0.05483 0.97884 0.43909 0.0
H435 H 0.10732 0.01886 0.38381 0.0
H436 H 0.1672 0.97087 0.35059 0.0
C437 C 0.22013 0.89661 0.33563 0.0
C438 C 0.1869 0.87045 0.36789 0.0
C439 C 0.15076 0.8989 0.38647 0.0
C440 C 0.11864 0.87515 0.41738 0.0
C441 C 0.08489 0.90535 0.43638 0.0
C442 C 0.08116 0.95661 0.42435 0.0
C443 C 0.11087 0.9792 0.39334 0.0
C444 C 0.14534 0.95102 0.37458 0.0
H445 H 0.14564 0.77694 0.49173 0.0
C446 C 0.10419 0.7805 0.49141 0.0
H447 H 0.04428 0.8024 0.46082 0.0
H448 H 0.25587 0.80657 0.34143 0.0
H449 H 0.25746 0.71578 0.36052 0.0
H450 H 0.19475 0.67205 0.40976 0.0
H451 H 0.13103 0.71913 0.44082 0.0
C452 C 0.08567 0.79823 0.46086 0.0
C453 C 0.1209 0.82231 0.42888 0.0
C454 C 0.15608 0.79352 0.4098 0.0
C455 C 0.19027 0.81805 0.37999 0.0
C456 C 0.22744 0.78931 0.36308 0.0
C457 C 0.229 0.73725 0.37394 0.0
C458 C 0.19384 0.71268 0.40176 0.0
C459 C 0.15769 0.74027 0.41955 0.0
H460 H 0.22822 0.18466 0.93083 0.0
C461 C 0.18868 0.192 0.92582 0.0
H462 H 0.11215 0.19462 0.95128 0.0
H463 H 0.1706 0.01918 0.06716 0.0
H464 H 0.11869 0.96791 0.03111 0.0
H465 H 0.08508 0.00714 0.97696 0.0
H466 H 0.10481 0.09823 0.95775 0.0
C467 C 0.15232 0.18803 0.95417 0.0
C468 C 0.16537 0.16713 0.98992 0.0
C469 C 0.15214 0.1143 1.0014 0.0
C470 C 0.1714 0.09173 0.0327 0.0
C471 C 0.15813 0.03848 0.0432 0.0
C472 C 0.12789 0.0085 1.02292 0.0
C473 C 0.10901 0.03062 0.99239 0.0
C474 C 0.12073 0.08291 0.98166 0.0
H475 H 0.19118 0.13921 0.12285 0.0
C476 C 0.21307 0.10675 0.11765 0.0
H477 H 0.24762 0.06396 0.07891 0.0
H478 H 0.19212 0.27055 0.9772 0.0
H479 H 0.24699 0.32249 1.01166 0.0
H480 H 0.28391 0.28302 0.06458 0.0
H481 H 0.26586 0.19182 0.0836 0.0
C482 C 0.22596 0.09673 0.08379 0.0
C483 C 0.20343 0.1223 0.05268 0.0
C484 C 0.21526 0.17566 0.04179 0.0
C485 C 0.1955 0.19818 1.01057 0.0
C486 C 0.20714 0.25153 1.00032 0.0
C487 C 0.23841 0.28172 1.01989 0.0
C488 C 0.25905 0.25952 0.04975 0.0
C489 C 0.24799 0.2071 0.06058 0.0
H490 H 0.93926 0.14881 0.31072 0.0
C491 C 0.90083 0.15939 0.30545 0.0
H492 H 0.83163 0.18592 0.32829 0.0
H493 H 0.93246 0.11709 0.47892 0.0
H494 H 0.92364 0.02988 0.46213 0.0
H495 H 0.89785 0.01265 0.40264 0.0
H496 H 0.88153 0.08247 0.35935 0.0
C497 C 0.87042 0.17563 0.33249 0.0
C498 C 0.8893 0.18509 0.36803 0.0
C499 C 0.89804 0.14375 0.39336 0.0
C500 C 0.91163 0.15356 0.42818 0.0
C501 C 0.92109 0.11167 0.4525 0.0
C502 C 0.91629 0.06147 0.44317 0.0
C503 C 0.90187 0.05178 0.40964 0.0
C504 C 0.89271 0.09225 0.38497 0.0
H505 H 0.85412 0.18784 0.4995 0.0
C506 C 0.89193 0.20661 0.50351 0.0
H507 H 0.96668 0.234 0.47712 0.0
H508 H 0.87843 0.27353 0.32582 0.0
H509 H 0.88781 0.36048 0.34263 0.0
H510 H 0.91014 0.37715 0.40298 0.0
H511 H 0.92321 0.30696 0.44699 0.0
C512 C 0.92826 0.21545 0.47483 0.0
C513 C 0.91568 0.20457 0.438 0.0
C514 C 0.90831 0.2459 0.41239 0.0
C515 C 0.895 0.2362 0.37757 0.0
C516 C 0.88792 0.2785 0.35274 0.0
C517 C 0.89337 0.32868 0.36198 0.0
C518 C 0.906 0.33807 0.39595 0.0
C519 C 0.91341 0.29737 0.42096 0.0
loop_
_geom_bond_atom_site_label_1
_geom_bond_atom_site_label_2
_geom_bond_distance
_geom_bond_site_symmetry_2
_ccdc_geom_bond_type
Pr0 C2 2.880 . S
Pr0 O20 2.562 . S
Pr0 O21 2.490 . S
Pr0 O22 2.695 . S
Pr0 O23 2.512 . S
Pr0 O25 2.437 . S
Pr0 O28 2.436 . S
Pr0 O30 2.438 . S
Pr1 C11 2.880 . S
Pr1 O22 2.436 1_565 S
Pr1 O24 2.438 . S
Pr1 O26 2.562 . S
Pr1 O27 2.490 . S
Pr1 O28 2.695 1_565 S
Pr1 O29 2.512 . S
Pr1 O31 2.437 1_565 S
C2 Pr0 2.880 . S
C2 C3 1.491 . S
C2 O20 1.254 . S
C2 O21 1.225 . S
C3 C2 1.491 . S
C3 C4 1.392 . S
C3 C8 1.356 . S
C4 C3 1.392 . S
C4 C5 1.368 . S
C4 H32 0.929 . S
C5 C4 1.368 . S
C5 C6 1.386 . S
C5 H33 0.929 . S
C6 C5 1.386 . S
C6 C7 1.373 . S
C7 C6 1.373 . S
C7 C8 1.409 . S
C7 H34 0.931 . S
C8 C3 1.356 . S
C8 C7 1.409 . S
C8 H35 0.930 . S
C9 O22 1.270 . S
C9 O23 1.248 . S
C10 O24 1.267 . S
C10 O25 1.278 1_565 S
C11 Pr1 2.880 . S
C11 C12 1.491 . S
C11 O26 1.254 . S
C11 O27 1.225 . S
C12 C11 1.491 . S
C12 C13 1.392 . S
C12 C17 1.356 . S
C13 C12 1.392 . S
C13 C14 1.368 1_554 S
C13 H36 0.929 . S
C14 C13 1.368 1_556 S
C14 C15 1.386 . S
C14 H37 0.929 . S
C15 C14 1.386 . S
C15 C16 1.373 . S
C16 C15 1.373 . S
C16 C17 1.409 1_556 S
C16 H38 0.931 . S
C17 C12 1.356 . S
C17 C16 1.409 1_554 S
C17 H39 0.930 . S
C18 O28 1.270 . S
C18 O29 1.248 1_545 S
C19 O30 1.267 . S
C19 O31 1.278 . S
O20 Pr0 2.562 . S
O20 C2 1.254 . S
O21 Pr0 2.490 . S
O21 C2 1.225 . S
O22 Pr0 2.695 . S
O22 Pr1 2.436 1_545 S
O22 C9 1.270 . S
O23 Pr0 2.512 . S
O23 C9 1.248 . S
O24 Pr1 2.438 . S
O24 C10 1.267 . S
O25 Pr0 2.437 . S
O25 C10 1.278 1_545 S
O26 Pr1 2.562 . S
O26 C11 1.254 . S
O27 Pr1 2.490 . S
O27 C11 1.225 . S
O28 Pr0 2.436 . S
O28 Pr1 2.695 1_545 S
O28 C18 1.270 . S
O29 Pr1 2.512 . S
O29 C18 1.248 1_565 S
O30 Pr0 2.438 . S
O30 C19 1.267 . S
O31 Pr1 2.437 1_545 S
O31 C19 1.278 . S
H32 C4 0.929 . S
H33 C5 0.929 . S
H34 C7 0.931 . S
H35 C8 0.930 . S
H36 C13 0.929 . S
H37 C14 0.929 . S
H38 C16 0.931 . S
H39 C17 0.930 . S
Pr40 C42 2.880 . S
Pr40 O60 2.562 . S
Pr40 O61 2.490 . S
Pr40 O62 2.695 1_655 S
Pr40 O63 2.512 . S
Pr40 O65 2.437 1_655 S
Pr40 O68 2.436 1_655 S
Pr40 O70 2.438 . S
Pr41 C51 2.880 . S
Pr41 O62 2.436 . S
Pr41 O64 2.438 . S
Pr41 O66 2.562 . S
Pr41 O67 2.490 . S
Pr41 O68 2.695 . S
Pr41 O69 2.512 . S
Pr41 O71 2.437 . S
C42 Pr40 2.880 . S
C42 C43 1.491 . S
C42 O60 1.254 . S
C42 O61 1.225 . S
C43 C42 1.491 . S
C43 C44 1.392 . S
C43 C48 1.356 . S
C44 C43 1.392 . S
C44 C45 1.368 . S
C44 H72 0.929 . S
C45 C44 1.368 . S
C45 C46 1.386 . S
C45 H73 0.929 . S
C46 C45 1.386 . S
C46 C47 1.373 . S
C47 C46 1.373 . S
C47 C48 1.409 . S
C47 H74 0.931 . S
C48 C43 1.356 . S
C48 C47 1.409 . S
C48 H75 0.930 . S
C49 O62 1.270 . S
C49 O63 1.248 1_455 S
C50 O64 1.267 . S
C50 O65 1.278 . S
C51 Pr41 2.880 . S
C51 C52 1.491 . S
C51 O66 1.254 . S
C51 O67 1.225 . S
C52 C51 1.491 . S
C52 C53 1.392 . S
C52 C57 1.356 . S
C53 C52 1.392 . S
C53 C54 1.368 . S
C53 H76 0.929 . S
C54 C53 1.368 . S
C54 C55 1.386 . S
C54 H77 0.929 . S
C55 C54 1.386 . S
C55 C56 1.373 . S
C56 C55 1.373 . S
C56 C57 1.409 . S
C56 H78 0.931 . S
C57 C52 1.356 . S
C57 C56 1.409 . S
C57 H79 0.930 . S
C58 O68 1.270 . S
C58 O69 1.248 . S
C59 O70 1.267 . S
C59 O71 1.278 1_655 S
O60 Pr40 2.562 . S
O60 C42 1.254 . S
O61 Pr40 2.490 . S
O61 C42 1.225 . S
O62 Pr40 2.695 1_455 S
O62 Pr41 2.436 . S
O62 C49 1.270 . S
O63 Pr40 2.512 . S
O63 C49 1.248 1_655 S
O64 Pr41 2.438 . S
O64 C50 1.267 . S
O65 Pr40 2.437 1_455 S
O65 C50 1.278 . S
O66 Pr41 2.562 . S
O66 C51 1.254 . S
O67 Pr41 2.490 . S
O67 C51 1.225 . S
O68 Pr40 2.436 1_455 S
O68 Pr41 2.695 . S
O68 C58 1.270 . S
O69 Pr41 2.512 . S
O69 C58 1.248 . S
O70 Pr40 2.438 . S
O70 C59 1.267 . S
O71 Pr41 2.437 . S
O71 C59 1.278 1_455 S
H72 C44 0.929 . S
H73 C45 0.929 . S
H74 C47 0.931 . S
H75 C48 0.930 . S
H76 C53 0.929 . S
H77 C54 0.929 . S
H78 C56 0.931 . S
H79 C57 0.930 . S
Pr80 C82 2.880 . S
Pr80 O100 2.562 . S
Pr80 O101 2.490 . S
Pr80 O102 2.695 . S
Pr80 O103 2.512 . S
Pr80 O105 2.437 . S
Pr80 O108 2.436 . S
Pr80 O110 2.438 . S
Pr81 C91 2.880 1_554 S
Pr81 O102 2.436 1_565 S
Pr81 O104 2.438 . S
Pr81 O106 2.562 . S
Pr81 O107 2.490 . S
Pr81 O108 2.695 1_565 S
Pr81 O109 2.512 . S
Pr81 O111 2.437 1_565 S
C82 Pr80 2.880 . S
C82 C83 1.491 . S
C82 O100 1.254 . S
C82 O101 1.225 . S
C83 C82 1.491 . S
C83 C84 1.392 . S
C83 C88 1.356 . S
C84 C83 1.392 . S
C84 C85 1.368 . S
C84 H112 0.929 . S
C85 C84 1.368 . S
C85 C86 1.386 . S
C85 H113 0.929 . S
C86 C85 1.386 . S
C86 C87 1.373 . S
C87 C86 1.373 . S
C87 C88 1.409 . S
C87 H114 0.931 . S
C88 C83 1.356 . S
C88 C87 1.409 . S
C88 H115 0.930 . S
C89 O102 1.270 . S
C89 O103 1.248 . S
C90 O104 1.267 . S
C90 O105 1.278 1_565 S
C91 Pr81 2.880 1_556 S
C91 C92 1.491 . S
C91 O106 1.254 1_556 S
C91 O107 1.225 1_556 S
C92 C91 1.491 . S
C92 C93 1.392 . S
C92 C97 1.356 . S
C93 C92 1.392 . S
C93 C94 1.368 . S
C93 H116 0.929 . S
C94 C93 1.368 . S
C94 C95 1.386 . S
C94 H117 0.929 . S
C95 C94 1.386 . S
C95 C96 1.373 . S
C96 C95 1.373 . S
C96 C97 1.409 . S
C96 H118 0.931 . S
C97 C92 1.356 . S
C97 C96 1.409 . S
C97 H119 0.930 . S
C98 O108 1.270 . S
C98 O109 1.248 1_545 S
C99 O110 1.267 . S
C99 O111 1.278 . S
O100 Pr80 2.562 . S
O100 C82 1.254 . S
O101 Pr80 2.490 . S
O101 C82 1.225 . S
O102 Pr80 2.695 . S
O102 Pr81 2.436 1_545 S
O102 C89 1.270 . S
O103 Pr80 2.512 . S
O103 C89 1.248 . S
O104 Pr81 2.438 . S
O104 C90 1.267 . S
O105 Pr80 2.437 . S
O105 C90 1.278 1_545 S
O106 Pr81 2.562 . S
O106 C91 1.254 1_554 S
O107 Pr81 2.490 . S
O107 C91 1.225 1_554 S
O108 Pr80 2.436 . S
O108 Pr81 2.695 1_545 S
O108 C98 1.270 . S
O109 Pr81 2.512 . S
O109 C98 1.248 1_565 S
O110 Pr80 2.438 . S
O110 C99 1.267 . S
O111 Pr81 2.437 1_545 S
O111 C99 1.278 . S
H112 C84 0.929 . S
H113 C85 0.929 . S
H114 C87 0.931 . S
H115 C88 0.930 . S
H116 C93 0.929 . S
H117 C94 0.929 . S
H118 C96 0.931 . S
H119 C97 0.930 . S
Pr120 C122 2.880 . S
Pr120 O140 2.562 . S
Pr120 O141 2.490 . S
Pr120 O142 2.695 1_655 S
Pr120 O143 2.512 . S
Pr120 O145 2.437 1_655 S
Pr120 O148 2.436 1_655 S
Pr120 O150 2.438 . S
Pr121 C131 2.880 . S
Pr121 O142 2.436 . S
Pr121 O144 2.438 . S
Pr121 O146 2.562 . S
Pr121 O147 2.490 . S
Pr121 O148 2.695 . S
Pr121 O149 2.512 . S
Pr121 O151 2.437 . S
C122 Pr120 2.880 . S
C122 C123 1.491 . S
C122 O140 1.254 . S
C122 O141 1.225 . S
C123 C122 1.491 . S
C123 C124 1.392 . S
C123 C128 1.356 . S
C124 C123 1.392 . S
C124 C125 1.368 . S
C124 H152 0.929 . S
C125 C124 1.368 . S
C125 C126 1.386 . S
C125 H153 0.929 . S
C126 C125 1.386 . S
C126 C127 1.373 . S
C127 C126 1.373 . S
C127 C128 1.409 . S
C127 H154 0.931 . S
C128 C123 1.356 . S
C128 C127 1.409 . S
C128 H155 0.930 . S
C129 O142 1.270 . S
C129 O143 1.248 1_455 S
C130 O144 1.267 . S
C130 O145 1.278 . S
C131 Pr121 2.880 . S
C131 C132 1.491 . S
C131 O146 1.254 . S
C131 O147 1.225 . S
C132 C131 1.491 . S
C132 C133 1.392 . S
C132 C137 1.356 . S
C133 C132 1.392 . S
C133 C134 1.368 . S
C133 H156 0.929 . S
C134 C133 1.368 . S
C134 C135 1.386 . S
C134 H157 0.929 . S
C135 C134 1.386 . S
C135 C136 1.373 . S
C136 C135 1.373 . S
C136 C137 1.409 . S
C136 H158 0.931 . S
C137 C132 1.356 . S
C137 C136 1.409 . S
C137 H159 0.930 . S
C138 O148 1.270 . S
C138 O149 1.248 . S
C139 O150 1.267 . S
C139 O151 1.278 1_655 S
O140 Pr120 2.562 . S
O140 C122 1.254 . S
O141 Pr120 2.490 . S
O141 C122 1.225 . S
O142 Pr120 2.695 1_455 S
O142 Pr121 2.436 . S
O142 C129 1.270 . S
O143 Pr120 2.512 . S
O143 C129 1.248 1_655 S
O144 Pr121 2.438 . S
O144 C130 1.267 . S
O145 Pr120 2.437 1_455 S
O145 C130 1.278 . S
O146 Pr121 2.562 . S
O146 C131 1.254 . S
O147 Pr121 2.490 . S
O147 C131 1.225 . S
O148 Pr120 2.436 1_455 S
O148 Pr121 2.695 . S
O148 C138 1.270 . S
O149 Pr121 2.512 . S
O149 C138 1.248 . S
O150 Pr120 2.438 . S
O150 C139 1.267 . S
O151 Pr121 2.437 . S
O151 C139 1.278 1_455 S
H152 C124 0.929 . S
H153 C125 0.929 . S
H154 C127 0.931 . S
H155 C128 0.930 . S
H156 C133 0.929 . S
H157 C134 0.929 . S
H158 C136 0.931 . S
H159 C137 0.930 . S
H160 C161 0.951 . S
C161 H160 0.951 . S
C161 C167 1.265 . S
H162 C167 0.950 . S
H163 C171 0.949 . S
H164 C172 0.950 . S
H165 C173 0.951 . S
H166 C174 0.951 1_655 S
C167 C161 1.265 . S
C167 H162 0.950 . S
C167 C168 1.478 . S
C168 C167 1.478 . S
C168 C169 1.397 1_655 S
C168 C185 1.394 1_545 S
C169 C168 1.397 1_455 S
C169 C170 1.438 . S
C169 C174 1.429 . S
C170 C169 1.438 . S
C170 C171 1.428 . S
C170 C183 1.394 . S
C171 H163 0.949 . S
C171 C170 1.428 . S
C171 C172 1.345 . S
C172 H164 0.950 . S
C172 C171 1.345 . S
C172 C173 1.424 . S
C173 H165 0.951 . S
C173 C172 1.424 . S
C173 C174 1.347 . S
C174 H166 0.951 1_455 S
C174 C169 1.429 . S
C174 C173 1.347 . S
H175 C176 0.951 . S
C176 H175 0.951 . S
C176 C182 1.265 . S
H177 C182 0.950 . S
H178 C186 0.949 . S
H179 C187 0.950 . S
H180 C188 0.951 . S
H181 C189 0.951 . S
C182 C176 1.265 . S
C182 H177 0.950 . S
C182 C183 1.478 . S
C183 C170 1.394 . S
C183 C182 1.478 . S
C183 C184 1.397 1_545 S
C184 C183 1.397 1_565 S
C184 C185 1.438 1_455 S
C184 C189 1.429 . S
C185 C168 1.394 1_565 S
C185 C184 1.438 1_655 S
C185 C186 1.428 . S
C186 H178 0.949 . S
C186 C185 1.428 . S
C186 C187 1.345 . S
C187 H179 0.950 . S
C187 C186 1.345 . S
C187 C188 1.424 . S
C188 H180 0.951 . S
C188 C187 1.424 . S
C188 C189 1.347 1_655 S
C189 H181 0.951 . S
C189 C184 1.429 . S
C189 C188 1.347 1_455 S
H190 C191 0.951 1_655 S
C191 H190 0.951 1_455 S
C191 C197 1.265 . S
H192 C197 0.950 . S
H193 C201 0.949 . S
H194 C202 0.950 . S
H195 C203 0.951 . S
H196 C204 0.951 . S
C197 C191 1.265 . S
C197 H192 0.950 . S
C197 C198 1.478 . S
C198 C197 1.478 . S
C198 C199 1.397 1_565 S
C198 C215 1.394 . S
C199 C198 1.397 1_545 S
C199 C200 1.438 . S
C199 C204 1.429 . S
C200 C199 1.438 . S
C200 C201 1.428 1_455 S
C200 C213 1.394 . S
C201 H193 0.949 . S
C201 C200 1.428 1_655 S
C201 C202 1.345 . S
C202 H194 0.950 . S
C202 C201 1.345 . S
C202 C203 1.424 . S
C203 H195 0.951 . S
C203 C202 1.424 . S
C203 C204 1.347 1_655 S
C204 H196 0.951 . S
C204 C199 1.429 . S
C204 C203 1.347 1_455 S
H205 C206 0.951 . S
C206 H205 0.951 . S
C206 C212 1.265 . S
H207 C212 0.950 1_655 S
H208 C216 0.949 . S
H209 C217 0.950 . S
H210 C218 0.951 . S
H211 C219 0.951 1_545 S
C212 C206 1.265 . S
C212 H207 0.950 1_455 S
C212 C213 1.478 . S
C213 C200 1.394 . S
C213 C212 1.478 . S
C213 C214 1.397 . S
C214 C213 1.397 . S
C214 C215 1.438 1_545 S
C214 C219 1.429 1_545 S
C215 C198 1.394 . S
C215 C214 1.438 1_565 S
C215 C216 1.428 . S
C216 H208 0.949 . S
C216 C215 1.428 . S
C216 C217 1.345 . S
C217 H209 0.950 . S
C217 C216 1.345 . S
C217 C218 1.424 . S
C218 H210 0.951 . S
C218 C217 1.424 . S
C218 C219 1.347 . S
C219 H211 0.951 1_565 S
C219 C214 1.429 1_565 S
C219 C218 1.347 . S
H220 C221 0.951 . S
C221 H220 0.951 . S
C221 C227 1.265 . S
H222 C227 0.950 1_565 S
H223 C231 0.949 . S
H224 C232 0.950 . S
H225 C233 0.951 . S
H226 C234 0.951 . S
C227 C221 1.265 . S
C227 H222 0.950 1_545 S
C227 C228 1.478 . S
C228 C227 1.478 . S
C228 C229 1.397 1_545 S
C228 C245 1.394 . S
C229 C228 1.397 1_565 S
C229 C230 1.438 . S
C229 C234 1.429 . S
C230 C229 1.438 . S
C230 C231 1.428 . S
C230 C243 1.394 1_565 S
C231 H223 0.949 . S
C231 C230 1.428 . S
C231 C232 1.345 . S
C232 H224 0.950 . S
C232 C231 1.345 . S
C232 C233 1.424 . S
C233 H225 0.951 . S
C233 C232 1.424 . S
C233 C234 1.347 . S
C234 H226 0.951 . S
C234 C229 1.429 . S
C234 C233 1.347 . S
H235 C236 0.951 . S
C236 H235 0.951 . S
C236 C242 1.265 . S
H237 C242 0.950 . S
H238 C246 0.949 . S
H239 C247 0.950 . S
H240 C248 0.951 . S
H241 C249 0.951 . S
C242 C236 1.265 . S
C242 H237 0.950 . S
C242 C243 1.478 . S
C243 C230 1.394 1_545 S
C243 C242 1.478 . S
C243 C244 1.397 . S
C244 C243 1.397 . S
C244 C245 1.438 . S
C244 C249 1.429 . S
C245 C228 1.394 . S
C245 C244 1.438 . S
C245 C246 1.428 . S
C246 H238 0.949 . S
C246 C245 1.428 . S
C246 C247 1.345 . S
C247 H239 0.950 . S
C247 C246 1.345 . S
C247 C248 1.424 . S
C248 H240 0.951 . S
C248 C247 1.424 . S
C248 C249 1.347 . S
C249 H241 0.951 . S
C249 C244 1.429 . S
C249 C248 1.347 . S
H250 C251 0.951 . S
C251 H250 0.951 . S
C251 C257 1.265 . S
H252 C257 0.950 1_655 S
H253 C261 0.949 . S
H254 C262 0.950 . S
H255 C263 0.951 . S
H256 C264 0.951 . S
C257 C251 1.265 . S
C257 H252 0.950 1_455 S
C257 C258 1.478 . S
C258 C257 1.478 . S
C258 C259 1.397 1_455 S
C258 C275 1.394 . S
C259 C258 1.397 1_655 S
C259 C260 1.438 . S
C259 C264 1.429 . S
C260 C259 1.438 . S
C260 C261 1.428 . S
C260 C273 1.394 1_655 S
C261 H253 0.949 . S
C261 C260 1.428 . S
C261 C262 1.345 . S
C262 H254 0.950 . S
C262 C261 1.345 . S
C262 C263 1.424 . S
C263 H255 0.951 . S
C263 C262 1.424 . S
C263 C264 1.347 . S
C264 H256 0.951 . S
C264 C259 1.429 . S
C264 C263 1.347 . S
H265 C266 0.951 1_655 S
C266 H265 0.951 1_455 S
C266 C272 1.265 . S
H267 C272 0.950 . S
H268 C276 0.949 . S
H269 C277 0.950 . S
H270 C278 0.951 . S
H271 C279 0.951 . S
C272 C266 1.265 . S
C272 H267 0.950 . S
C272 C273 1.478 . S
C273 C260 1.394 1_455 S
C273 C272 1.478 . S
C273 C274 1.397 . S
C274 C273 1.397 . S
C274 C275 1.438 . S
C274 C279 1.429 . S
C275 C258 1.394 . S
C275 C274 1.438 . S
C275 C276 1.428 . S
C276 H268 0.949 . S
C276 C275 1.428 . S
C276 C277 1.345 . S
C277 H269 0.950 . S
C277 C276 1.345 . S
C277 C278 1.424 . S
C278 H270 0.951 . S
C278 C277 1.424 . S
C278 C279 1.347 . S
C279 H271 0.951 . S
C279 C274 1.429 . S
C279 C278 1.347 . S
H280 C281 0.951 . S
C281 H280 0.951 . S
C281 C287 1.265 . S
H282 C287 0.950 . S
H283 C291 0.949 . S
H284 C292 0.950 . S
H285 C293 0.951 . S
H286 C294 0.951 . S
C287 C281 1.265 . S
C287 H282 0.950 . S
C287 C288 1.478 . S
C288 C287 1.478 . S
C288 C289 1.397 . S
C288 C305 1.394 . S
C289 C288 1.397 . S
C289 C290 1.438 . S
C289 C294 1.429 . S
C290 C289 1.438 . S
C290 C291 1.428 . S
C290 C303 1.394 . S
C291 H283 0.949 . S
C291 C290 1.428 . S
C291 C292 1.345 . S
C292 H284 0.950 . S
C292 C291 1.345 . S
C292 C293 1.424 . S
C293 H285 0.951 . S
C293 C292 1.424 . S
C293 C294 1.347 . S
C294 H286 0.951 . S
C294 C289 1.429 . S
C294 C293 1.347 . S
H295 C296 0.951 . S
C296 H295 0.951 . S
C296 C302 1.265 . S
H297 C302 0.950 . S
H298 C306 0.949 . S
H299 C307 0.950 . S
H300 C308 0.951 . S
H301 C309 0.951 . S
C302 C296 1.265 . S
C302 H297 0.950 . S
C302 C303 1.478 . S
C303 C290 1.394 . S
C303 C302 1.478 . S
C303 C304 1.397 . S
C304 C303 1.397 . S
C304 C305 1.438 . S
C304 C309 1.429 . S
C305 C288 1.394 . S
C305 C304 1.438 . S
C305 C306 1.428 . S
C306 H298 0.949 . S
C306 C305 1.428 . S
C306 C307 1.345 . S
C307 H299 0.950 . S
C307 C306 1.345 . S
C307 C308 1.424 . S
C308 H300 0.951 . S
C308 C307 1.424 . S
C308 C309 1.347 . S
C309 H301 0.951 . S
C309 C304 1.429 . S
C309 C308 1.347 . S
H310 C311 0.951 . S
C311 H310 0.951 . S
C311 C317 1.265 . S
H312 C317 0.950 . S
H313 C321 0.949 . S
H314 C322 0.950 1_565 S
H315 C323 0.951 . S
H316 C324 0.951 . S
C317 C311 1.265 . S
C317 H312 0.950 . S
C317 C318 1.478 . S
C318 C317 1.478 . S
C318 C319 1.397 . S
C318 C335 1.394 . S
C319 C318 1.397 . S
C319 C320 1.438 . S
C319 C324 1.429 . S
C320 C319 1.438 . S
C320 C321 1.428 . S
C320 C333 1.394 . S
C321 H313 0.949 . S
C321 C320 1.428 . S
C321 C322 1.345 . S
C322 H314 0.950 1_545 S
C322 C321 1.345 . S
C322 C323 1.424 . S
C323 H315 0.951 . S
C323 C322 1.424 . S
C323 C324 1.347 . S
C324 H316 0.951 . S
C324 C319 1.429 . S
C324 C323 1.347 . S
H325 C326 0.951 . S
C326 H325 0.951 . S
C326 C332 1.265 . S
H327 C332 0.950 . S
H328 C336 0.949 . S
H329 C337 0.950 . S
H330 C338 0.951 . S
H331 C339 0.951 . S
C332 C326 1.265 . S
C332 H327 0.950 . S
C332 C333 1.478 . S
C333 C320 1.394 . S
C333 C332 1.478 . S
C333 C334 1.397 . S
C334 C333 1.397 . S
C334 C335 1.438 . S
C334 C339 1.429 . S
C335 C318 1.394 . S
C335 C334 1.438 . S
C335 C336 1.428 . S
C336 H328 0.949 . S
C336 C335 1.428 . S
C336 C337 1.345 . S
C337 H329 0.950 . S
C337 C336 1.345 . S
C337 C338 1.424 . S
C338 H330 0.951 . S
C338 C337 1.424 . S
C338 C339 1.347 . S
C339 H331 0.951 . S
C339 C334 1.429 . S
C339 C338 1.347 . S
H340 C341 0.951 . S
C341 H340 0.951 . S
C341 C347 1.265 . S
H342 C347 0.950 . S
H343 C351 0.944 1_545 S
H344 C352 0.950 . S
H345 C353 0.951 1_545 S
H346 C354 0.951 . S
C347 C341 1.265 . S
C347 H342 0.950 . S
C347 C348 1.478 . S
C348 C347 1.478 . S
C348 C349 1.397 . S
C348 C365 1.394 . S
C349 C348 1.397 . S
C349 C350 1.438 . S
C349 C354 1.429 . S
C350 C349 1.438 . S
C350 C351 1.428 . S
C350 C363 1.394 . S
C351 H343 0.944 1_565 S
C351 C350 1.428 . S
C351 C352 1.345 1_565 S
C352 H344 0.950 . S
C352 C351 1.345 1_545 S
C352 C353 1.424 1_545 S
C353 H345 0.951 1_565 S
C353 C352 1.424 1_565 S
C353 C354 1.347 . S
C354 H346 0.951 . S
C354 C349 1.429 . S
C354 C353 1.347 . S
H355 C356 0.951 . S
C356 H355 0.951 . S
C356 C362 1.265 . S
H357 C362 0.950 . S
H358 C366 0.949 . S
H359 C367 0.950 . S
H360 C368 0.951 . S
H361 C369 0.951 . S
C362 C356 1.265 . S
C362 H357 0.950 . S
C362 C363 1.478 . S
C363 C350 1.394 . S
C363 C362 1.478 . S
C363 C364 1.397 . S
C364 C363 1.397 . S
C364 C365 1.438 . S
C364 C369 1.429 . S
C365 C348 1.394 . S
C365 C364 1.438 . S
C365 C366 1.428 . S
C366 H358 0.949 . S
C366 C365 1.428 . S
C366 C367 1.345 . S
C367 H359 0.950 . S
C367 C366 1.345 . S
C367 C368 1.424 . S
C368 H360 0.951 . S
C368 C367 1.424 . S
C368 C369 1.347 . S
C369 H361 0.951 . S
C369 C364 1.429 . S
C369 C368 1.347 . S
H370 C371 0.951 . S
C371 H370 0.951 . S
C371 C377 1.265 . S
H372 C377 0.950 . S
H373 C381 0.949 . S
H374 C382 0.950 . S
H375 C383 0.951 . S
H376 C384 0.951 . S
C377 C371 1.265 . S
C377 H372 0.950 . S
C377 C378 1.478 . S
C378 C377 1.478 . S
C378 C379 1.397 . S
C378 C395 1.394 . S
C379 C378 1.397 . S
C379 C380 1.438 . S
C379 C384 1.429 . S
C380 C379 1.438 . S
C380 C381 1.428 . S
C380 C393 1.394 . S
C381 H373 0.949 . S
C381 C380 1.428 . S
C381 C382 1.345 . S
C382 H374 0.950 . S
C382 C381 1.345 . S
C382 C383 1.424 . S
C383 H375 0.951 . S
C383 C382 1.424 . S
C383 C384 1.347 . S
C384 H376 0.951 . S
C384 C379 1.429 . S
C384 C383 1.347 . S
H385 C386 0.951 . S
C386 H385 0.951 . S
C386 C392 1.265 . S
H387 C392 0.950 . S
H388 C396 0.949 . S
H389 C397 0.950 . S
H390 C398 0.951 . S
H391 C399 0.951 . S
C392 C386 1.265 . S
C392 H387 0.950 . S
C392 C393 1.478 . S
C393 C380 1.394 . S
C393 C392 1.478 . S
C393 C394 1.397 . S
C394 C393 1.397 . S
C394 C395 1.438 . S
C394 C399 1.429 . S
C395 C378 1.394 . S
C395 C394 1.438 . S
C395 C396 1.428 . S
C396 H388 0.949 . S
C396 C395 1.428 . S
C396 C397 1.345 . S
C397 H389 0.950 . S
C397 C396 1.345 . S
C397 C398 1.424 . S
C398 H390 0.951 . S
C398 C397 1.424 . S
C398 C399 1.347 . S
C399 H391 0.951 . S
C399 C394 1.429 . S
C399 C398 1.347 . S
H400 C401 0.951 . S
C401 H400 0.951 . S
C401 C407 1.265 . S
H402 C407 0.950 . S
H403 C411 0.949 . S
H404 C412 0.950 . S
H405 C413 0.951 . S
H406 C414 0.951 . S
C407 C401 1.265 . S
C407 H402 0.950 . S
C407 C408 1.478 . S
C408 C407 1.478 . S
C408 C409 1.397 . S
C408 C425 1.394 . S
C409 C408 1.397 . S
C409 C410 1.438 . S
C409 C414 1.429 . S
C410 C409 1.438 . S
C410 C411 1.428 . S
C410 C423 1.394 . S
C411 H403 0.949 . S
C411 C410 1.428 . S
C411 C412 1.345 . S
C412 H404 0.950 . S
C412 C411 1.345 . S
C412 C413 1.424 . S
C413 H405 0.951 . S
C413 C412 1.424 . S
C413 C414 1.347 . S
C414 H406 0.951 . S
C414 C409 1.429 . S
C414 C413 1.347 . S
H415 C416 0.951 . S
C416 H415 0.951 . S
C416 C422 1.265 . S
H417 C422 0.950 . S
H418 C426 0.949 . S
H419 C427 0.943 1_545 S
H420 C428 0.951 . S
H421 C429 0.951 . S
C422 C416 1.265 . S
C422 H417 0.950 . S
C422 C423 1.478 . S
C423 C410 1.394 . S
C423 C422 1.478 . S
C423 C424 1.397 . S
C424 C423 1.397 . S
C424 C425 1.438 . S
C424 C429 1.429 . S
C425 C408 1.394 . S
C425 C424 1.438 . S
C425 C426 1.428 . S
C426 H418 0.949 . S
C426 C425 1.428 . S
C426 C427 1.345 . S
C427 H419 0.943 1_565 S
C427 C426 1.345 . S
C427 C428 1.424 . S
C428 H420 0.951 . S
C428 C427 1.424 . S
C428 C429 1.347 . S
C429 H421 0.951 . S
C429 C424 1.429 . S
C429 C428 1.347 . S
H430 C431 0.951 . S
C431 H430 0.951 . S
C431 C437 1.265 . S
H432 C437 0.950 . S
H433 C441 0.949 . S
H434 C442 0.950 1_545 S
H435 C443 0.951 . S
H436 C444 0.951 . S
C437 C431 1.265 . S
C437 H432 0.950 . S
C437 C438 1.478 . S
C438 C437 1.478 . S
C438 C439 1.397 . S
C438 C455 1.394 . S
C439 C438 1.397 . S
C439 C440 1.438 . S
C439 C444 1.429 . S
C440 C439 1.438 . S
C440 C441 1.428 . S
C440 C453 1.394 . S
C441 H433 0.949 . S
C441 C440 1.428 . S
C441 C442 1.345 . S
C442 H434 0.950 1_565 S
C442 C441 1.345 . S
C442 C443 1.424 1_565 S
C443 H435 0.951 . S
C443 C442 1.424 1_545 S
C443 C444 1.347 1_545 S
C444 H436 0.951 . S
C444 C439 1.429 . S
C444 C443 1.347 1_565 S
H445 C446 0.951 . S
C446 H445 0.951 . S
C446 C452 1.265 . S
H447 C452 0.950 . S
H448 C456 0.949 . S
H449 C457 0.950 . S
H450 C458 0.951 . S
H451 C459 0.951 . S
C452 C446 1.265 . S
C452 H447 0.950 . S
C452 C453 1.478 . S
C453 C440 1.394 . S
C453 C452 1.478 . S
C453 C454 1.397 . S
C454 C453 1.397 . S
C454 C455 1.438 . S
C454 C459 1.429 . S
C455 C438 1.394 . S
C455 C454 1.438 . S
C455 C456 1.428 . S
C456 H448 0.949 . S
C456 C455 1.428 . S
C456 C457 1.345 . S
C457 H449 0.950 . S
C457 C456 1.345 . S
C457 C458 1.424 . S
C458 H450 0.951 . S
C458 C457 1.424 . S
C458 C459 1.347 . S
C459 H451 0.951 . S
C459 C454 1.429 . S
C459 C458 1.347 . S
H460 C461 0.951 . S
C461 H460 0.951 . S
C461 C467 1.265 . S
H462 C467 0.950 . S
H463 C471 0.945 1_554 S
H464 C472 0.950 1_565 S
H465 C473 0.951 . S
H466 C474 0.951 . S
C467 C461 1.265 . S
C467 H462 0.950 . S
C467 C468 1.478 . S
C468 C467 1.478 . S
C468 C469 1.397 . S
C468 C485 1.394 . S
C469 C468 1.397 . S
C469 C470 1.438 . S
C469 C474 1.429 . S
C470 C469 1.438 . S
C470 C471 1.429 . S
C470 C483 1.394 1_556 S
C471 H463 0.945 1_556 S
C471 C470 1.429 . S
C471 C472 1.348 . S
C472 H464 0.950 1_545 S
C472 C471 1.348 . S
C472 C473 1.424 . S
C473 H465 0.951 . S
C473 C472 1.424 . S
C473 C474 1.347 . S
C474 H466 0.951 . S
C474 C469 1.429 . S
C474 C473 1.347 . S
H475 C476 0.951 . S
C476 H475 0.951 . S
C476 C482 1.265 . S
H477 C482 0.950 . S
H478 C486 0.949 . S
H479 C487 0.950 . S
H480 C488 0.951 1_554 S
H481 C489 0.951 . S
C482 C476 1.265 . S
C482 H477 0.950 . S
C482 C483 1.478 . S
C483 C470 1.394 1_554 S
C483 C482 1.478 . S
C483 C484 1.397 1_554 S
C484 C483 1.397 1_556 S
C484 C485 1.438 . S
C484 C489 1.429 1_556 S
C485 C468 1.394 . S
C485 C484 1.438 . S
C485 C486 1.428 . S
C486 H478 0.949 . S
C486 C485 1.428 . S
C486 C487 1.345 . S
C487 H479 0.950 . S
C487 C486 1.345 . S
C487 C488 1.424 . S
C488 H480 0.951 1_556 S
C488 C487 1.424 . S
C488 C489 1.347 1_556 S
C489 H481 0.951 . S
C489 C484 1.429 1_554 S
C489 C488 1.347 1_554 S
H490 C491 0.951 . S
C491 H490 0.951 . S
C491 C497 1.265 . S
H492 C497 0.950 . S
H493 C501 0.949 . S
H494 C502 0.950 . S
H495 C503 0.951 . S
H496 C504 0.951 . S
C497 C491 1.265 . S
C497 H492 0.950 . S
C497 C498 1.478 . S
C498 C497 1.478 . S
C498 C499 1.397 . S
C498 C515 1.394 . S
C499 C498 1.397 . S
C499 C500 1.438 . S
C499 C504 1.429 . S
C500 C499 1.438 . S
C500 C501 1.428 . S
C500 C513 1.394 . S
C501 H493 0.949 . S
C501 C500 1.428 . S
C501 C502 1.345 . S
C502 H494 0.950 . S
C502 C501 1.345 . S
C502 C503 1.424 . S
C503 H495 0.951 . S
C503 C502 1.424 . S
C503 C504 1.347 . S
C504 H496 0.951 . S
C504 C499 1.429 . S
C504 C503 1.347 . S
H505 C506 0.951 . S
C506 H505 0.951 . S
C506 C512 1.265 . S
H507 C512 0.950 . S
H508 C516 0.949 . S
H509 C517 0.950 . S
H510 C518 0.951 . S
H511 C519 0.951 . S
C512 C506 1.265 . S
C512 H507 0.950 . S
C512 C513 1.478 . S
C513 C500 1.394 . S
C513 C512 1.478 . S
C513 C514 1.397 . S
C514 C513 1.397 . S
C514 C515 1.438 . S
C514 C519 1.429 . S
C515 C498 1.394 . S
C515 C514 1.438 . S
C515 C516 1.428 . S
C516 H508 0.949 . S
C516 C515 1.428 . S
C516 C517 1.345 . S
C517 H509 0.950 . S
C517 C516 1.345 . S
C517 C518 1.424 . S
C518 H510 0.951 . S
C518 C517 1.424 . S
C518 C519 1.347 . S
C519 H511 0.951 . S
C519 C514 1.429 . S
C519 C518 1.347 . S
C161 C89 0.544 . S
C176 C18 0.544 . S
C191 C138 0.673 . S
C206 C49 0.673 . S
C221 C98 1.014 . S
C236 C9 1.014 . S
C251 C58 0.956 . S
C266 C129 0.956 . S
C281 C50 1.501 . S
C296 C6 1.526 . S
C311 C59 2.290 . S
C326 C99 2.295 1_556 S
C341 C126 1.526 . S
C356 C90 1.556 . S
C371 C135 0.920 . S
C386 C15 0.824 . S
C401 C95 1.554 . S
C416 C139 1.536 . S
C431 C10 2.286 . S
C446 C130 2.292 . S
C461 C55 1.558 . S
C476 C19 1.473 . S
C491 C86 0.826 . S
C506 C46 0.899 . S
