# Generated by pormake.
# Topology sxb, (6)-cn, num edge types: 1
# Building blocks:
#     Node 0, Type 0, BuildingBlock: BETDAH_clean_sbu_0, # of connection points: 6
#     Node 1, Type 0, BuildingBlock: BETDAH_clean_sbu_0, # of connection points: 6
#     Node 2, Type 0, BuildingBlock: BETDAH_clean_sbu_0, # of connection points: 6
#     Node 3, Type 0, BuildingBlock: BETDAH_clean_sbu_0, # of connection points: 6
#     Edge 4, Type (0, 0), BuildingBlock: ZUJKAS_clean_linker_0, # of connection points: 2
#     Edge 5, Type (0, 0), BuildingBlock: ZUJKAS_clean_linker_0, # of connection points: 2
#     Edge 6, Type (0, 0), BuildingBlock: ZUJKAS_clean_linker_0, # of connection points: 2
#     Edge 7, Type (0, 0), BuildingBlock: ZUJKAS_clean_linker_0, # of connection points: 2
#     Edge 8, Type (0, 0), BuildingBlock: ZUJKAS_clean_linker_0, # of connection points: 2
#     Edge 9, Type (0, 0), BuildingBlock: ZUJKAS_clean_linker_0, # of connection points: 2
#     Edge 10, Type (0, 0), BuildingBlock: ZUJKAS_clean_linker_0, # of connection points: 2
#     Edge 11, Type (0, 0), BuildingBlock: ZUJKAS_clean_linker_0, # of connection points: 2
#     Edge 12, Type (0, 0), BuildingBlock: ZUJKAS_clean_linker_0, # of connection points: 2
#     Edge 13, Type (0, 0), BuildingBlock: ZUJKAS_clean_linker_0, # of connection points: 2
#     Edge 14, Type (0, 0), BuildingBlock: ZUJKAS_clean_linker_0, # of connection points: 2
#     Edge 15, Type (0, 0), BuildingBlock: ZUJKAS_clean_linker_0, # of connection points: 2
# Relax obj value: 0.277
# Max RMSD: 0.114
# Mean RMSD: 0.071
data_MOF--net-sxb--node1-BETDAH_clean_sbu_0--edge1-ZUJKAS_clean_linker_0
_symmetry_space_group_name_H-M    P1
_symmetry_Int_Tables_number       1
_symmetry_cell_setting            triclinic
loop_
_symmetry_equiv_pos_as_xyz
'x, y, z'
_cell_length_a     21.246626
_cell_length_b     42.931677
_cell_length_c     38.642431
_cell_angle_alpha  93.583443
_cell_angle_beta   92.853732
_cell_angle_gamma 70.486417
loop_
_atom_site_label
_atom_site_type_symbol
_atom_site_fract_x
_atom_site_fract_y
_atom_site_fract_z
_atom_type_partial_charge
Ho0 Ho 1.02378 1.03266 0.02983 0.0
Ho1 Ho 0.15493 1.04629 0.02688 0.0
C2 C 1.01965 0.10885 0.0265 0.0
C3 C 0.90951 1.02876 0.04142 0.0
C4 C 0.85324 1.04013 0.01633 0.0
C5 C 0.80984 1.02203 0.00922 0.0
C6 C 0.76984 1.02692 0.97878 0.0
C7 C 0.77421 0.04927 0.95442 0.0
C8 C 0.81497 0.06871 0.96291 0.0
C9 C 0.85322 0.06449 0.99367 0.0
C10 C 1.0496 1.03745 0.96117 0.0
C11 C 0.15785 0.96922 0.02617 0.0
C12 C 0.2639 0.0496 0.00407 0.0
C13 C 0.2877 1.04334 0.96819 0.0
C14 C 0.28853 0.07007 0.94933 0.0
C15 C 0.30553 0.06537 0.91456 0.0
C16 C 0.32295 1.03373 0.89794 0.0
C17 C 0.3213 1.00697 0.91656 0.0
C18 C 0.30337 1.01175 0.95134 0.0
C19 C 0.10987 0.05075 0.09278 0.0
O20 O 0.99139 0.08876 0.03884 0.0
O21 O 1.08097 0.0967 0.01468 0.0
O22 O 0.95861 1.00327 0.02964 0.0
O23 O 0.93031 0.05195 0.05655 0.0
O24 O 0.99882 1.03105 0.97157 0.0
O25 O 1.08321 1.04031 0.98804 0.0
O26 O 0.18777 0.99005 0.01704 0.0
O27 O 0.09533 0.98054 0.03662 0.0
O28 O 0.26172 1.0242 0.02038 0.0
O29 O 0.2106 0.0755 0.00857 0.0
O30 O 0.14465 0.06772 0.08194 0.0
O31 O 0.10598 1.02992 0.06879 0.0
H32 H 0.80954 1.0029 0.02616 0.0
H33 H 0.73729 1.01228 0.97389 0.0
H34 H 0.82074 0.08591 0.94502 0.0
H35 H 0.88696 0.07856 -0.00173 0.0
H36 H 0.27597 0.09471 0.96154 0.0
H37 H 0.30809 0.08631 0.90113 0.0
H38 H 0.33525 0.98228 0.90441 0.0
H39 H 0.30197 0.9907 0.96494 0.0
Ho40 Ho 0.12321 0.99924 0.5336 0.0
Ho41 Ho 1.06919 0.07338 0.52053 0.0
C42 C 0.9559 1.036 0.52715 0.0
C43 C 0.15572 0.94089 0.55783 0.0
C44 C 0.14588 0.90955 0.54688 0.0
C45 C 0.15848 0.88463 0.57055 0.0
C46 C 0.15058 0.85437 0.56016 0.0
C47 C 0.13032 0.84862 0.52585 0.0
C48 C 0.11817 0.87368 0.50215 0.0
C49 C 0.1257 0.90398 0.51262 0.0
C50 C 0.1142 1.01349 0.46539 0.0
C51 C 0.23441 1.03761 0.53061 0.0
C52 C 1.03634 0.12817 0.48959 0.0
C53 C 1.06265 0.15564 0.49342 0.0
C54 C 1.05174 0.17796 0.46706 0.0
C55 C 1.08443 0.2014 0.46872 0.0
C56 C 0.12844 0.20268 0.49679 0.0
C57 C 0.13734 0.18087 0.52368 0.0
C58 C 0.10486 0.15749 0.52194 0.0
C59 C 0.09466 0.06533 0.59061 0.0
O60 O 1.00789 1.00839 0.5331 0.0
O61 O 0.96786 0.06376 0.52054 0.0
O62 O 0.19376 0.95007 0.53809 0.0
O63 O 0.1024 0.96531 0.56698 0.0
O64 O 0.15801 0.98786 0.47856 0.0
O65 O 1.07323 1.02839 0.48854 0.0
O66 O 0.18413 0.06246 0.51731 0.0
O67 O 0.22029 1.01251 0.5434 0.0
O68 O 1.00463 0.12402 0.51626 0.0
O69 O 1.07885 0.10047 0.47712 0.0
O70 O 1.0709 0.09378 0.57663 0.0
O71 O 0.10335 1.04372 0.56616 0.0
H72 H 0.17443 0.88858 0.59705 0.0
H73 H 0.16037 0.83545 0.57891 0.0
H74 H 0.10129 0.87017 0.47574 0.0
H75 H 0.11567 0.92307 0.49405 0.0
H76 H 1.01969 0.17656 0.44473 0.0
H77 H 1.07642 0.21805 0.44776 0.0
H78 H 0.17184 0.1808 0.5453 0.0
H79 H 0.11468 0.14002 0.54224 0.0
Ho80 Ho 0.53204 0.53285 0.02355 0.0
Ho81 Ho 0.6531 0.54575 0.02044 0.0
C82 C 0.52443 0.6099 0.02019 0.0
C83 C 0.4102 0.53634 0.02966 0.0
C84 C 0.35362 0.55584 0.00766 0.0
C85 C 0.30483 0.58393 0.02189 0.0
C86 C 0.25825 0.60586 0.00029 0.0
C87 C 0.25961 0.60009 0.96403 0.0
C88 C 0.30732 0.57155 0.94992 0.0
C89 C 0.3538 0.5497 0.97143 0.0
C90 C 0.57101 0.5311 0.95686 0.0
C91 C 0.65953 0.46871 0.02734 0.0
C92 C 0.76579 0.54817 0.00083 0.0
C93 C 0.78268 0.5659 0.97352 0.0
C94 C 0.73215 0.5887 0.95435 0.0
C95 C 0.74798 0.60316 0.92605 0.0
C96 C 0.81492 0.59545 0.9169 0.0
C97 C 0.86538 0.57325 0.93711 0.0
C98 C 0.84928 0.55838 0.96488 0.0
C99 C 0.61425 0.54959 0.08716 0.0
O100 O 0.49641 0.58937 0.03163 0.0
O101 O 0.58558 0.59751 0.00847 0.0
O102 O 0.45414 0.51105 0.01419 0.0
O103 O 0.43833 0.55373 0.04994 0.0
O104 O 0.5467 0.51037 0.96893 0.0
O105 O 0.57289 0.55225 0.98064 0.0
O106 O 0.6891 0.48885 0.01628 0.0
O107 O 0.59731 0.48142 0.03769 0.0
O108 O 0.74058 0.52545 0.98951 0.0
O109 O 0.73337 0.56635 0.02683 0.0
O110 O 0.643 0.56846 0.0747 0.0
O111 O 0.61089 0.52783 0.0642 0.0
H112 H 0.30427 0.58955 0.04962 0.0
H113 H 0.2221 0.62772 0.01193 0.0
H114 H 0.30871 0.566 0.92217 0.0
H115 H 0.39108 0.52851 0.95941 0.0
H116 H 0.68046 0.59502 0.96112 0.0
H117 H 0.70781 0.62007 0.91126 0.0
H118 H 0.9177 0.56754 0.93183 0.0
H119 H 0.88886 0.5409 0.97952 0.0
Ho120 Ho 0.613 0.52466 0.5264 0.0
Ho121 Ho 0.56415 0.59483 0.52111 0.0
C122 C 0.44861 0.56005 0.52254 0.0
C123 C 0.66258 0.46341 0.54165 0.0
C124 C 0.63984 0.435 0.53389 0.0
C125 C 0.65426 0.40979 0.55735 0.0
C126 C 0.62604 0.3847 0.55206 0.0
C127 C 0.58311 0.38458 0.52317 0.0
C128 C 0.57076 0.40932 0.49913 0.0
C129 C 0.59867 0.43439 0.50451 0.0
C130 C 0.57514 0.54255 0.4602 0.0
C131 C 0.72944 0.56005 0.52393 0.0
C132 C 0.54292 0.65467 0.50469 0.0
C133 C 0.58888 0.66796 0.48827 0.0
C134 C 0.63102 0.64898 0.46229 0.0
C135 C 0.68469 0.65762 0.45203 0.0
C136 C 0.69764 0.6853 0.46778 0.0
C137 C 0.65323 0.70531 0.49247 0.0
C138 C 0.59927 0.69668 0.50262 0.0
C139 C 0.56066 0.5756 0.58658 0.0
O140 O 0.49947 0.53447 0.53405 0.0
O141 O 0.46314 0.58557 0.51131 0.0
O142 O 0.68083 0.47537 0.51503 0.0
O143 O 0.62465 0.4865 0.56251 0.0
O144 O 0.56201 0.51929 0.47491 0.0
O145 O 0.60783 0.55529 0.48143 0.0
O146 O 0.67757 0.58785 0.52087 0.0
O147 O 0.71666 0.53199 0.52711 0.0
O148 O 0.56225 0.64449 0.53587 0.0
O149 O 0.52131 0.63386 0.48546 0.0
O150 O 0.5129 0.59869 0.57192 0.0
O151 O 0.60805 0.56413 0.56601 0.0
H152 H 0.68567 0.41006 0.58026 0.0
H153 H 0.63661 0.36581 0.57089 0.0
H154 H 0.537 0.41022 0.47697 0.0
H155 H 0.58627 0.45388 0.4863 0.0
H156 H 0.62461 0.62648 0.45116 0.0
H157 H 0.71738 0.64197 0.43262 0.0
H158 H 0.66224 0.72659 0.50544 0.0
H159 H 0.56801 0.71135 0.5231 0.0
H160 H 0.56717 0.66058 0.00106 0.0
H161 H 0.50604 0.7203 0.00223 0.0
H162 H 0.33319 0.70322 0.03948 0.0
H163 H 0.39437 0.6437 0.039 0.0
H164 H 0.39624 0.75874 0.96928 0.0
H165 H 0.34286 0.77441 0.10906 0.0
H166 H 0.40019 0.73675 0.09025 0.0
H167 H 0.31149 0.74442 0.08688 0.0
C168 C 0.51623 0.66945 0.0097 0.0
C169 C 0.4865 0.64681 0.02026 0.0
C170 C 0.48097 0.70388 0.01031 0.0
C171 C 0.41471 0.71713 0.02169 0.0
C172 C 0.38457 0.69442 0.03157 0.0
H173 H 0.11525 0.91795 0.04359 0.0
H174 H 0.1766 0.85833 0.04166 0.0
C175 C 0.41979 0.66002 0.03102 0.0
C176 C 0.37715 0.7543 0.02258 0.0
H177 H 0.28666 0.82031 0.07494 0.0
C178 C 0.37273 0.77209 0.99254 0.0
C179 C 0.34568 0.77249 0.0527 0.0
C180 C 0.35074 0.75615 0.08664 0.0
C181 C 0.33727 0.80658 0.99153 0.0
C182 C 0.3057 0.82475 0.02163 0.0
C183 C 0.31018 0.80697 0.05167 0.0
C184 C 0.26784 0.86189 0.02255 0.0
C185 C 0.33234 0.82297 0.95763 0.0
C186 C 0.29775 0.8848 0.01297 0.0
C187 C 0.26241 0.91922 0.014 0.0
C188 C 0.19576 0.93223 0.02492 0.0
C189 C 0.16614 0.90932 0.03489 0.0
C190 C 0.20153 0.87491 0.03385 0.0
H191 H 0.3406 0.80474 0.93518 0.0
H192 H 0.28278 0.84228 0.95395 0.0
H193 H 0.37137 0.83486 0.95755 0.0
H194 H 0.34911 0.87615 0.00503 0.0
H195 H 0.28771 0.93569 0.00634 0.0
H196 H 0.61607 0.4189 0.04854 0.0
H197 H 0.67648 0.35916 0.04894 0.0
H198 H 0.8478 0.37407 0.00708 0.0
H199 H 0.78819 0.43372 0.00719 0.0
H200 H 0.72724 0.31213 -0.00094 0.0
H201 H 0.93968 0.31736 0.08505 0.0
H202 H 0.86588 0.35296 0.07919 0.0
H203 H 0.93018 0.34131 0.04756 0.0
C204 C 0.66682 0.40961 0.03964 0.0
C205 C 0.69688 0.43174 0.02811 0.0
C206 C 0.70157 0.37514 0.03979 0.0
C207 C 0.76795 0.36139 0.02868 0.0
C208 C 0.79769 0.38348 0.01679 0.0
H209 H 1.06181 0.15907 0.0054 0.0
H210 H 1.00085 0.21874 0.00555 0.0
C211 C 0.76302 0.41791 0.01663 0.0
C212 C 0.80509 0.32419 0.02872 0.0
H213 H 0.95057 0.26534 0.05619 0.0
C214 C 0.77589 0.30206 0.01181 0.0
C215 C 0.86906 0.31023 0.04514 0.0
C216 C 0.90283 0.33163 0.06555 0.0
C217 C 0.8087 0.26724 0.01016 0.0
C218 C 0.87273 0.25329 0.02651 0.0
C219 C 0.90189 0.27542 0.04346 0.0
C220 C 0.91014 0.21612 0.02633 0.0
C221 C 0.77492 0.2458 0.98983 0.0
C222 C 0.88099 0.19383 0.03832 0.0
C223 C 0.91602 0.15941 0.03822 0.0
C224 C 0.98192 0.14581 0.02634 0.0
C225 C 1.01131 0.16816 0.01466 0.0
C226 C 0.97625 0.2026 0.01481 0.0
H227 H 0.73758 0.26009 0.97054 0.0
H228 H 0.81182 0.22463 0.97596 0.0
H229 H 0.74817 0.23588 0.00791 0.0
H230 H 0.83106 0.20306 0.04828 0.0
H231 H 0.89127 0.14342 0.04768 0.0
H232 H 0.19392 0.2144 0.44265 0.0
H233 H 0.27357 0.24461 0.44494 0.0
H234 H 0.23706 0.26958 0.55361 0.0
H235 H 0.1566 0.23986 0.55151 0.0
H236 H 0.25803 0.31293 0.46859 0.0
H237 H 0.44235 0.2181 0.54746 0.0
H238 H 0.3734 0.21039 0.52351 0.0
H239 H 0.35947 0.23417 0.56403 0.0
C240 C 0.20172 0.22694 0.46685 0.0
C241 C 0.16945 0.22458 0.49699 0.0
C242 C 0.24752 0.24395 0.46814 0.0
C243 C 0.26186 0.25864 0.49958 0.0
C244 C 0.2274 0.25776 0.52929 0.0
H245 H 0.52044 0.36571 0.57371 0.0
H246 H 0.44648 0.33258 0.56629 0.0
C247 C 0.18154 0.24083 0.52803 0.0
C248 C 0.31437 0.27408 0.50165 0.0
H249 H 0.46684 0.26709 0.53928 0.0
C250 C 0.30395 0.30288 0.4838 0.0
C251 C 0.37407 0.26064 0.52147 0.0
C252 C 0.38855 0.22896 0.54001 0.0
C253 C 0.35104 0.31934 0.48618 0.0
C254 C 0.41042 0.30613 0.50638 0.0
C255 C 0.42124 0.27703 0.52379 0.0
C256 C 0.46041 0.32311 0.51107 0.0
C257 C 0.33589 0.35129 0.46804 0.0
C258 C 0.49444 0.3276 0.48264 0.0
C259 C 0.53691 0.3464 0.48681 0.0
C260 C 0.54623 0.36076 0.51953 0.0
C261 C 0.51476 0.35468 0.54827 0.0
C262 C 0.47222 0.33596 0.54405 0.0
H263 H 0.2823 0.36168 0.46001 0.0
H264 H 0.34933 0.37006 0.48508 0.0
H265 H 0.36593 0.34664 0.44441 0.0
H266 H 0.48695 0.31721 0.45713 0.0
H267 H 0.56133 0.35031 0.46433 0.0
H268 H 1.06279 0.81767 0.56121 0.0
H269 H 1.02608 0.77178 0.54028 0.0
H270 H 0.13086 0.7634 0.44542 0.0
H271 H 0.16701 0.81003 0.46622 0.0
H272 H 1.00783 0.76924 0.43104 0.0
H273 H 0.0958 0.67366 0.52654 0.0
H274 H 1.05914 0.71242 0.54985 0.0
H275 H 0.13205 0.70605 0.52459 0.0
C276 C 1.07982 0.8054 0.53637 0.0
C277 C 0.11742 0.81752 0.51526 0.0
C278 C 1.05924 0.77892 0.52449 0.0
C279 C 1.07666 0.76367 0.49148 0.0
C280 C 0.11725 0.77462 0.47107 0.0
H281 H 0.82305 0.64016 0.46013 0.0
H282 H 0.92758 0.6514 0.45503 0.0
C283 C 0.13745 0.80135 0.48286 0.0
C284 C 1.04251 0.74074 0.4765 0.0
H285 H 0.98138 0.68199 0.50145 0.0
C286 C 1.00371 0.74941 0.44587 0.0
C287 C 1.03853 0.71403 0.4949 0.0
C288 C 1.08441 0.70082 0.52555 0.0
C289 C 0.95512 0.73498 0.43574 0.0
C290 C 0.94381 0.71216 0.4574 0.0
C291 C 0.98843 0.70034 0.48541 0.0
C292 C 0.88065 0.70457 0.45497 0.0
C293 C 0.91418 0.74563 0.40288 0.0
C294 C 0.81951 0.73068 0.45639 0.0
C295 C 0.75977 0.72436 0.45893 0.0
C296 C 0.75996 0.69178 0.46069 0.0
C297 C 0.82106 0.66554 0.45833 0.0
C298 C 0.88093 0.6719 0.45559 0.0
H299 H 0.94512 0.75055 0.38293 0.0
H300 H 0.89276 0.72664 0.39206 0.0
H301 H 0.87278 0.76906 0.40843 0.0
H302 H 0.81807 0.75617 0.45706 0.0
H303 H 0.71358 0.74506 0.46043 0.0
H304 H 0.44131 0.98822 0.88097 0.0
H305 H 0.51486 0.99621 0.83944 0.0
H306 H 0.35105 0.07401 0.79453 0.0
H307 H 0.27753 0.06752 0.83841 0.0
H308 H 0.55008 1.009 0.77715 0.0
H309 H 0.43622 0.13185 0.84571 0.0
H310 H 0.40434 0.09994 0.85627 0.0
H311 H 0.38995 0.11596 0.81338 0.0
C312 C 0.41999 1.00606 0.86134 0.0
C313 C 0.35475 1.02834 0.86391 0.0
C314 C 0.46225 1.01059 0.83721 0.0
C315 C 0.43957 1.03735 0.81528 0.0
C316 C 0.37064 0.05458 0.81263 0.0
H317 H 0.72394 0.10333 0.91355 0.0
H318 H 0.66259 0.10659 0.85843 0.0
C319 C 0.32854 0.05073 0.83756 0.0
C320 C 0.48963 0.05247 0.80592 0.0
H321 H 0.55037 0.10613 0.85314 0.0
C322 C 0.54995 1.03113 0.79238 0.0
C323 C 0.48975 0.0825 0.82355 0.0
C324 C 0.42665 0.10906 0.83537 0.0
C325 C 0.61118 1.03463 0.80372 0.0
C326 C 0.61112 0.05989 0.82907 0.0
C327 C 0.55089 0.0856 0.83521 0.0
C328 C 0.66563 0.05557 0.85597 0.0
C329 C 0.67501 1.0095 0.79097 0.0
C330 C 0.69052 1.0255 0.87267 0.0
C331 C 0.72766 1.02323 0.90375 0.0
C332 C 0.73907 0.05127 0.91976 0.0
C333 C 0.71677 0.08103 0.90223 0.0
C334 C 0.68133 0.083 0.87051 0.0
H335 H 0.67116 1.00531 0.7624 0.0
H336 H 0.71901 1.01747 0.79745 0.0
H337 H 0.68267 0.98545 0.8026 0.0
H338 H 0.67776 1.00409 0.86302 0.0
H339 H 0.74577 0.99954 0.9156 0.0
H340 H 0.28715 0.08597 0.51014 0.0
H341 H 0.40346 0.08534 0.50968 0.0
H342 H 0.47072 0.98892 0.55176 0.0
H343 H 0.35494 0.98938 0.55184 0.0
H344 H 0.50372 0.08521 0.55294 0.0
H345 H 0.60662 0.96559 0.48039 0.0
H346 H 0.51799 0.98533 0.4852 0.0
H347 H 0.56866 0.96154 0.51949 0.0
C348 C 0.32631 0.06437 0.51924 0.0
C349 C 0.30861 1.03764 0.53084 0.0
C350 C 0.39435 0.06402 0.51902 0.0
C351 C 0.44991 1.03674 0.52989 0.0
C352 C 0.43194 1.01024 0.54195 0.0
H353 H 0.90364 0.98598 0.54353 0.0
H354 H 0.78724 0.98691 0.54461 0.0
C355 C 0.36397 1.01066 0.54236 0.0
C356 C 0.52473 1.03635 0.52921 0.0
H357 H 0.68588 0.98878 0.50573 0.0
C358 C 0.5429 0.06395 0.54231 0.0
C359 C 0.57936 1.00912 0.51575 0.0
C360 C 0.56733 0.97884 0.49909 0.0
C361 C 0.61044 0.06481 0.54322 0.0
C362 C 0.66513 1.03763 0.52957 0.0
C363 C 0.64684 1.01004 0.51644 0.0
C364 C 0.74011 1.03718 0.52879 0.0
C365 C 0.62221 0.09492 0.56051 0.0
C366 C 0.75795 0.06452 0.51898 0.0
C367 C 0.82592 0.06405 0.51861 0.0
C368 C 0.88167 1.03604 0.52747 0.0
C369 C 0.86422 1.0084 0.53655 0.0
C370 C 0.79606 1.00893 0.5371 0.0
H371 H 0.58342 0.10747 0.57971 0.0
H372 H 0.67188 0.08843 0.57405 0.0
H373 H 0.61944 0.11289 0.54058 0.0
H374 H 0.7191 0.08661 0.51086 0.0
H375 H 0.83468 0.08605 0.51096 0.0
H376 H 0.75488 0.65903 0.89496 0.0
H377 H 0.8037 0.68844 0.85843 0.0
H378 H 0.96935 0.59798 0.84005 0.0
H379 H 0.9162 0.56836 0.8719 0.0
H380 H 0.88922 0.70701 0.87622 0.0
H381 H 1.01968 0.63925 0.76833 0.0
H382 H 0.94761 0.62956 0.7805 0.0
H383 H 1.03171 0.60391 0.79303 0.0
C384 C 0.80001 0.64513 0.88159 0.0
C385 C 0.83356 0.6116 0.8879 0.0
C386 C 0.82847 0.66213 0.86076 0.0
C387 C 0.89224 0.64629 0.84712 0.0
C388 C 0.92045 0.61171 0.84962 0.0
H389 H 0.12666 0.62821 0.97405 0.0
H390 H 1.04156 0.65876 0.93355 0.0
C391 C 0.89078 0.59457 0.86913 0.0
C392 C 0.93706 0.66568 0.84044 0.0
H393 H 0.10354 0.63653 0.82682 0.0
C394 C 0.93524 0.69235 0.86403 0.0
C395 C 0.99651 0.65075 0.82199 0.0
C396 C 0.9982 0.62963 0.78919 0.0
C397 C 0.99482 0.69624 0.87736 0.0
C398 C 1.05594 0.67229 0.86762 0.0
C399 C 1.05663 0.65295 0.83684 0.0
C400 C 0.1103 0.65955 0.89406 0.0
C401 C 0.99173 0.72285 0.90519 0.0
C402 C 0.17792 0.649 0.88555 0.0
C403 C 0.22713 0.63081 0.90887 0.0
C404 C 0.20941 0.62277 0.94097 0.0
C405 C 0.14215 0.63452 0.94991 0.0
C406 C 0.09329 0.65241 0.92669 0.0
H407 H 0.95556 0.74678 0.89708 0.0
H408 H 0.97321 0.71675 0.92937 0.0
H409 H 1.04131 0.7258 0.91065 0.0
H410 H 0.19239 0.65374 0.86045 0.0
H411 H 0.27883 0.6223 0.90142 0.0
H412 H 0.39595 0.50926 0.5344 0.0
H413 H 0.27951 0.51019 0.53378 0.0
H414 H 0.21187 0.61354 0.51248 0.0
H415 H 0.3279 0.6121 0.51139 0.0
H416 H 0.17372 0.53202 0.56621 0.0
H417 H 1.08486 0.59768 0.44589 0.0
H418 H 0.17196 0.584 0.45883 0.0
H419 H 0.11519 0.62226 0.47707 0.0
C420 C 0.35664 0.53228 0.52916 0.0
C421 C 0.3743 0.56048 0.52253 0.0
C422 C 0.28845 0.53288 0.5289 0.0
C423 C 0.23277 0.56172 0.52206 0.0
C424 C 0.25073 0.5901 0.51632 0.0
H425 H 0.77912 0.61274 0.51649 0.0
H426 H 0.89487 0.61297 0.51674 0.0
C427 C 0.31884 0.5894 0.51615 0.0
C428 C 0.15787 0.56207 0.52199 0.0
H429 H 1.00143 0.59136 0.48043 0.0
C430 C 0.13695 0.54491 0.54698 0.0
C431 C 0.10593 0.57879 0.49765 0.0
C432 C 0.12062 0.59644 0.46816 0.0
C433 C 1.06952 0.54445 0.54877 0.0
C434 C 1.01784 0.56099 0.52435 0.0
C435 C 1.03846 0.57837 0.49951 0.0
C436 C 0.94354 0.56068 0.52414 0.0
C437 C 1.05427 0.52698 0.57824 0.0
C438 C 0.92726 0.53143 0.52754 0.0
C439 C 0.85971 0.53129 0.52753 0.0
C440 C 0.80324 0.56034 0.52381 0.0
C441 C 0.81928 0.58955 0.51974 0.0
C442 C 0.88695 0.58967 0.51977 0.0
H443 H 1.0898 0.52574 0.60062 0.0
H444 H 1.00278 0.53954 0.58735 0.0
H445 H 1.05933 0.5012 0.56935 0.0
H446 H 0.96714 0.50803 0.52972 0.0
H447 H 0.85189 0.50793 0.53036 0.0
H448 H 0.19573 0.97776 0.41462 0.0
H449 H 0.18759 0.9858 0.3524 0.0
H450 H 1.01027 0.07074 0.36669 0.0
H451 H 1.01753 0.06225 0.42953 0.0
H452 H 0.99721 1.03156 0.30872 0.0
H453 H 0.23772 0.05444 0.30432 0.0
H454 H 0.24693 1.01585 0.32289 0.0
H455 H 0.19858 0.05411 0.34459 0.0
C456 C 0.15492 0.99826 0.40468 0.0
C457 C 0.10756 1.01948 0.42733 0.0
C458 C 0.15056 1.00297 0.3689 0.0
C459 C 0.09908 1.02929 0.35447 0.0
C460 C 1.05085 0.05033 0.37694 0.0
H461 H 0.12378 0.09287 0.14592 0.0
H462 H 0.11588 0.08858 0.2082 0.0
C463 C 1.05512 1.04555 0.41297 0.0
C464 C 0.09619 1.03446 0.31606 0.0
H465 H 0.18931 1.04365 0.24992 0.0
C466 C 1.03911 1.0344 0.29594 0.0
C467 C 0.15027 1.03863 0.29899 0.0
C468 C 0.21154 1.04112 0.31883 0.0
C469 C 1.03535 1.03757 0.25954 0.0
C470 C 1.09062 1.04035 0.24231 0.0
C471 C 0.14702 1.04112 0.26262 0.0
C472 C 1.09082 1.04358 0.20359 0.0
C473 C 0.97148 1.0386 0.24005 0.0
C474 C 1.07903 1.0199 0.17946 0.0
C475 C 1.08311 1.02248 0.14343 0.0
C476 C 0.09988 0.04861 0.13061 0.0
C477 C 0.11085 0.07238 0.15473 0.0
C478 C 0.10647 0.0699 0.19055 0.0
H479 H 0.9284 1.0459 0.25752 0.0
H480 H 0.96007 0.05619 0.21889 0.0
H481 H 0.97692 1.0136 0.22836 0.0
H482 H 1.06836 0.99887 0.18846 0.0
H483 H 1.07482 1.00358 0.12569 0.0
H484 H 0.97591 1.0278 0.90504 0.0
H485 H 0.99405 1.03095 0.84378 0.0
H486 H 0.17215 0.05525 0.87061 0.0
H487 H 0.15437 0.05154 0.93265 0.0
H488 H 0.99494 0.08266 0.80915 0.0
H489 H 0.24073 0.98354 0.79428 0.0
H490 H 0.18812 0.98659 0.83053 0.0
H491 H 0.23624 1.0137 0.82928 0.0
C492 C 1.01939 1.03356 0.89804 0.0
C493 C 1.06389 1.03923 0.92392 0.0
C494 C 1.02969 1.03541 0.8628 0.0
C495 C 1.08497 1.04292 0.85203 0.0
C496 C 0.12986 0.04864 0.87785 0.0
H497 H 1.08338 0.11234 0.64262 0.0
H498 H 1.08596 0.10665 0.70525 0.0
C499 C 0.1195 1.04674 0.91342 0.0
C500 C 0.09258 1.04605 0.81392 0.0
H501 H 0.19507 1.01455 0.74516 0.0
C502 C 1.03896 0.06781 0.7953 0.0
C503 C 0.14928 1.02632 0.79531 0.0
C504 C 0.2068 1.00097 0.81313 0.0
C505 C 1.04022 0.07043 0.75913 0.0
C506 C 0.09761 0.05141 0.74058 0.0
C507 C 0.15127 1.02946 0.75912 0.0
C508 C 0.1021 0.05406 0.70208 0.0
C509 C 0.97873 0.09293 0.74103 0.0
C510 C 0.11359 1.02619 0.67882 0.0
C511 C 0.11307 1.02935 0.64263 0.0
C512 C 0.1011 0.06049 0.62885 0.0
C513 C 0.09205 0.08803 0.65221 0.0
C514 C 0.09307 0.08483 0.6882 0.0
H515 H 0.93337 0.09766 0.75642 0.0
H516 H 0.98537 0.11711 0.73767 0.0
H517 H 0.97008 0.08224 0.71505 0.0
H518 H 0.12118 1.00206 0.6886 0.0
H519 H 0.12044 1.00761 0.62544 0.0
H520 H 0.63347 0.57672 0.42197 0.0
H521 H 0.63365 0.57849 0.3587 0.0
H522 H 0.5174 0.5129 0.34808 0.0
H523 H 0.51474 0.51235 0.41128 0.0
H524 H 0.6854 0.53031 0.31132 0.0
H525 H 0.41332 0.5812 0.28242 0.0
H526 H 0.44825 0.5812 0.32592 0.0
H527 H 0.43615 0.54437 0.30633 0.0
C528 C 0.60645 0.56344 0.40618 0.0
C529 C 0.57302 0.54496 0.42179 0.0
C530 C 0.60712 0.56415 0.36989 0.0
C531 C 0.57445 0.54633 0.34824 0.0
C532 C 0.54136 0.52769 0.36389 0.0
H533 H 0.56579 0.50793 0.12101 0.0
H534 H 0.55548 0.506 0.18406 0.0
C535 C 0.54031 0.52718 0.40016 0.0
C536 C 0.5779 0.54601 0.30948 0.0
H537 H 0.4828 0.55987 0.23402 0.0
C538 C 0.64094 0.53695 0.29454 0.0
C539 C 0.5201 0.5545 0.2872 0.0
C540 C 0.45064 0.56618 0.30126 0.0
C541 C 0.64778 0.53593 0.25835 0.0
C542 C 0.5901 0.54442 0.23617 0.0
C543 C 0.52707 0.55315 0.25094 0.0
C544 C 0.59445 0.54584 0.19779 0.0
C545 C 0.71695 0.52542 0.24404 0.0
C546 C 0.61857 0.5692 0.1844 0.0
C547 C 0.62407 0.57046 0.14857 0.0
C548 C 0.60582 0.54831 0.12508 0.0
C549 C 0.5806 0.52521 0.13839 0.0
C550 C 0.57463 0.52412 0.17441 0.0
H551 H 0.75577 0.51219 0.26328 0.0
H552 H 0.72039 0.50911 0.22024 0.0
H553 H 0.72804 0.54769 0.23705 0.0
H554 H 0.63319 0.58657 0.20174 0.0
H555 H 0.64323 0.58874 0.13928 0.0
H556 H 0.67136 0.54441 0.62683 0.0
H557 H 0.67722 0.53672 0.68936 0.0
H558 H 0.4635 0.58342 0.6936 0.0
H559 H 0.45821 0.59266 0.63147 0.0
H560 H 0.51675 0.60557 0.74609 0.0
H561 H 0.63763 0.46972 0.74147 0.0
H562 H 0.68777 0.48977 0.72211 0.0
H563 H 0.60731 0.49223 0.70284 0.0
C564 C 0.62561 0.55284 0.6411 0.0
C565 C 0.56428 0.56909 0.62416 0.0
C566 C 0.62888 0.54819 0.67692 0.0
C567 C 0.57064 0.55882 0.69653 0.0
C568 C 0.50931 0.57487 0.67938 0.0
H569 H 0.54102 0.49389 0.9028 0.0
H570 H 0.54126 0.50163 0.84068 0.0
C571 C 0.50623 0.58007 0.64375 0.0
C572 C 0.5734 0.55433 0.73494 0.0
H573 H 0.6317 0.4973 0.7972 0.0
C574 C 0.54169 0.5818 0.75715 0.0
C575 C 0.60503 0.5233 0.74978 0.0
C576 C 0.6357 0.49203 0.72778 0.0
C577 C 0.54069 0.57922 0.79332 0.0
C578 C 0.57468 0.54849 0.80831 0.0
C579 C 0.60628 0.521 0.78609 0.0
C580 C 0.57563 0.54387 0.84661 0.0
C581 C 0.50095 0.60932 0.81479 0.0
C582 C 0.59562 0.56465 0.87119 0.0
C583 C 0.59406 0.56065 0.90693 0.0
C584 C 0.57448 0.53516 0.91902 0.0
C585 C 0.55643 0.51379 0.89446 0.0
C586 C 0.55674 0.51816 0.8588 0.0
H587 H 0.46185 0.627 0.79879 0.0
H588 H 0.47636 0.60241 0.83635 0.0
H589 H 0.53493 0.62238 0.82597 0.0
H590 H 0.61242 0.58408 0.86283 0.0
H591 H 0.60772 0.57763 0.92509 0.0
loop_
_geom_bond_atom_site_label_1
_geom_bond_atom_site_label_2
_geom_bond_distance
_geom_bond_site_symmetry_2
_ccdc_geom_bond_type
Ho0 C3 2.811 . S
Ho0 O20 2.322 1_565 S
Ho0 O22 2.378 . S
Ho0 O23 2.524 1_566 S
Ho0 O24 2.381 . S
Ho0 O25 2.674 1_655 S
Ho0 O27 2.346 1_655 S
Ho0 O31 2.296 1_566 S
Ho1 C12 2.811 . S
Ho1 O21 2.346 1_455 S
Ho1 O25 2.300 1_544 S
Ho1 O26 2.322 1_545 S
Ho1 O28 2.378 . S
Ho1 O29 2.524 1_544 S
Ho1 O30 2.381 . S
Ho1 O31 2.679 1_455 S
C2 O20 1.259 . S
C2 O21 1.268 1_556 S
C3 Ho0 2.811 . S
C3 C4 1.488 1_565 S
C3 O22 1.215 . S
C3 O23 1.289 1_566 S
C4 C3 1.488 1_545 S
C4 C5 1.348 1_556 S
C4 C9 1.413 . S
C5 C4 1.348 1_554 S
C5 C6 1.442 . S
C5 H32 0.930 . S
C6 C5 1.442 . S
C6 C7 1.381 1_554 S
C6 H33 0.931 . S
C7 C6 1.381 1_556 S
C7 C8 1.321 . S
C8 C7 1.321 . S
C8 C9 1.403 . S
C8 H34 0.934 . S
C9 C4 1.413 . S
C9 C8 1.403 . S
C9 H35 0.930 1_545 S
C10 O24 1.275 . S
C10 O25 1.258 1_655 S
C11 O26 1.259 . S
C11 O27 1.268 1_554 S
C12 Ho1 2.811 . S
C12 C13 1.488 1_545 S
C12 O28 1.215 . S
C12 O29 1.289 1_544 S
C13 C12 1.488 1_565 S
C13 C14 1.348 1_554 S
C13 C18 1.413 . S
C14 C13 1.348 1_556 S
C14 C15 1.442 . S
C14 H36 0.930 . S
C15 C14 1.442 . S
C15 C16 1.381 1_556 S
C15 H37 0.931 . S
C16 C15 1.381 1_554 S
C16 C17 1.321 . S
C17 C16 1.321 . S
C17 C18 1.403 . S
C17 H38 0.934 . S
C18 C13 1.413 . S
C18 C17 1.403 . S
C18 H39 0.930 1_565 S
C19 O30 1.275 . S
C19 O31 1.260 1_455 S
O20 Ho0 2.322 1_545 S
O20 C2 1.259 . S
O21 Ho1 2.346 1_655 S
O21 C2 1.268 1_554 S
O22 Ho0 2.378 . S
O22 C3 1.215 . S
O23 Ho0 2.524 1_544 S
O23 C3 1.289 1_544 S
O24 Ho0 2.381 . S
O24 C10 1.275 . S
O25 Ho0 2.674 1_455 S
O25 Ho1 2.300 1_566 S
O25 C10 1.258 1_455 S
O26 Ho1 2.322 1_565 S
O26 C11 1.259 . S
O27 Ho0 2.346 1_455 S
O27 C11 1.268 1_556 S
O28 Ho1 2.378 . S
O28 C12 1.215 . S
O29 Ho1 2.524 1_566 S
O29 C12 1.289 1_566 S
O30 Ho1 2.381 . S
O30 C19 1.275 . S
O31 Ho0 2.296 1_544 S
O31 Ho1 2.679 1_655 S
O31 C19 1.260 1_655 S
H32 C5 0.930 . S
H33 C6 0.931 . S
H34 C8 0.934 . S
H35 C9 0.930 1_565 S
H36 C14 0.930 . S
H37 C15 0.931 . S
H38 C17 0.934 . S
H39 C18 0.930 1_545 S
Ho40 C43 2.811 1_455 S
Ho40 O60 2.322 1_455 S
Ho40 O62 2.378 1_455 S
Ho40 O63 2.524 1_455 S
Ho40 O64 2.381 . S
Ho40 O65 2.669 1_565 S
Ho40 O67 2.346 . S
Ho40 O71 2.305 1_455 S
Ho41 C52 2.811 1_655 S
Ho41 O61 2.346 . S
Ho41 O65 2.305 1_655 S
Ho41 O66 2.322 1_655 S
Ho41 O68 2.378 1_655 S
Ho41 O69 2.524 1_655 S
Ho41 O70 2.381 . S
Ho41 O71 2.669 1_545 S
C42 O60 1.259 1_545 S
C42 O61 1.268 . S
C43 Ho40 2.811 1_655 S
C43 C44 1.488 . S
C43 O62 1.215 . S
C43 O63 1.289 . S
C44 C43 1.488 . S
C44 C45 1.348 . S
C44 C49 1.413 . S
C45 C44 1.348 . S
C45 C46 1.442 . S
C45 H72 0.930 . S
C46 C45 1.442 . S
C46 C47 1.381 . S
C46 H73 0.931 . S
C47 C46 1.381 . S
C47 C48 1.321 . S
C48 C47 1.321 . S
C48 C49 1.403 . S
C48 H74 0.934 . S
C49 C44 1.413 . S
C49 C48 1.403 . S
C49 H75 0.930 . S
C50 O64 1.272 . S
C50 O65 1.257 1_565 S
C51 O66 1.259 1_565 S
C51 O67 1.268 . S
C52 Ho41 2.811 1_455 S
C52 C53 1.488 . S
C52 O68 1.215 . S
C52 O69 1.289 . S
C53 C52 1.488 . S
C53 C54 1.348 . S
C53 C58 1.413 . S
C54 C53 1.348 . S
C54 C55 1.442 . S
C54 H76 0.930 . S
C55 C54 1.442 . S
C55 C56 1.381 . S
C55 H77 0.931 . S
C56 C55 1.381 . S
C56 C57 1.321 . S
C57 C56 1.321 . S
C57 C58 1.403 . S
C57 H78 0.934 . S
C58 C53 1.413 . S
C58 C57 1.403 . S
C58 H79 0.930 . S
C59 O70 1.273 . S
C59 O71 1.257 1_545 S
O60 Ho40 2.322 1_655 S
O60 C42 1.259 1_565 S
O61 Ho41 2.346 . S
O61 C42 1.268 . S
O62 Ho40 2.378 1_655 S
O62 C43 1.215 . S
O63 Ho40 2.524 1_655 S
O63 C43 1.289 . S
O64 Ho40 2.381 . S
O64 C50 1.272 . S
O65 Ho40 2.669 1_545 S
O65 Ho41 2.305 1_455 S
O65 C50 1.257 1_545 S
O66 Ho41 2.322 1_455 S
O66 C51 1.259 1_545 S
O67 Ho40 2.346 . S
O67 C51 1.268 . S
O68 Ho41 2.378 1_455 S
O68 C52 1.215 . S
O69 Ho41 2.524 1_455 S
O69 C52 1.289 . S
O70 Ho41 2.381 . S
O70 C59 1.273 . S
O71 Ho40 2.305 1_655 S
O71 Ho41 2.669 1_565 S
O71 C59 1.257 1_565 S
H72 C45 0.930 . S
H73 C46 0.931 . S
H74 C48 0.934 . S
H75 C49 0.930 . S
H76 C54 0.930 . S
H77 C55 0.931 . S
H78 C57 0.934 . S
H79 C58 0.930 . S
Ho80 C83 2.811 . S
Ho80 O100 2.322 . S
Ho80 O102 2.378 . S
Ho80 O103 2.524 1_556 S
Ho80 O104 2.381 . S
Ho80 O105 2.669 . S
Ho80 O107 2.346 . S
Ho80 O111 2.305 1_556 S
Ho81 C92 2.811 . S
Ho81 O101 2.346 . S
Ho81 O105 2.305 1_554 S
Ho81 O106 2.322 . S
Ho81 O108 2.378 . S
Ho81 O109 2.524 1_554 S
Ho81 O110 2.381 . S
Ho81 O111 2.669 . S
C82 O100 1.259 . S
C82 O101 1.268 1_556 S
C83 Ho80 2.811 . S
C83 C84 1.488 . S
C83 O102 1.215 . S
C83 O103 1.289 1_556 S
C84 C83 1.488 . S
C84 C85 1.348 1_556 S
C84 C89 1.413 . S
C85 C84 1.348 1_554 S
C85 C86 1.442 . S
C85 H112 0.930 . S
C86 C85 1.442 . S
C86 C87 1.381 1_554 S
C86 H113 0.931 . S
C87 C86 1.381 1_556 S
C87 C88 1.321 . S
C88 C87 1.321 . S
C88 C89 1.403 . S
C88 H114 0.934 . S
C89 C84 1.413 . S
C89 C88 1.403 . S
C89 H115 0.930 . S
C90 O104 1.275 . S
C90 O105 1.256 . S
C91 O106 1.259 . S
C91 O107 1.268 1_554 S
C92 Ho81 2.811 . S
C92 C93 1.488 . S
C92 O108 1.215 . S
C92 O109 1.289 1_554 S
C93 C92 1.488 . S
C93 C94 1.348 1_554 S
C93 C98 1.413 . S
C94 C93 1.348 1_556 S
C94 C95 1.442 . S
C94 H116 0.930 . S
C95 C94 1.442 . S
C95 C96 1.381 1_556 S
C95 H117 0.931 . S
C96 C95 1.381 1_554 S
C96 C97 1.321 . S
C97 C96 1.321 . S
C97 C98 1.403 . S
C97 H118 0.934 . S
C98 C93 1.413 . S
C98 C97 1.403 . S
C98 H119 0.930 . S
C99 O110 1.275 . S
C99 O111 1.256 . S
O100 Ho80 2.322 . S
O100 C82 1.259 . S
O101 Ho81 2.346 . S
O101 C82 1.268 1_554 S
O102 Ho80 2.378 . S
O102 C83 1.215 . S
O103 Ho80 2.524 1_554 S
O103 C83 1.289 1_554 S
O104 Ho80 2.381 . S
O104 C90 1.275 . S
O105 Ho80 2.669 . S
O105 Ho81 2.305 1_556 S
O105 C90 1.256 . S
O106 Ho81 2.322 . S
O106 C91 1.259 . S
O107 Ho80 2.346 . S
O107 C91 1.268 1_556 S
O108 Ho81 2.378 . S
O108 C92 1.215 . S
O109 Ho81 2.524 1_556 S
O109 C92 1.289 1_556 S
O110 Ho81 2.381 . S
O110 C99 1.275 . S
O111 Ho80 2.305 1_554 S
O111 Ho81 2.669 . S
O111 C99 1.256 . S
H112 C85 0.930 . S
H113 C86 0.931 . S
H114 C88 0.934 . S
H115 C89 0.930 . S
H116 C94 0.930 . S
H117 C95 0.931 . S
H118 C97 0.934 . S
H119 C98 0.930 . S
Ho120 C123 2.811 . S
Ho120 O140 2.322 . S
Ho120 O142 2.378 . S
Ho120 O143 2.524 . S
Ho120 O144 2.381 . S
Ho120 O145 2.669 . S
Ho120 O147 2.346 . S
Ho120 O151 2.305 . S
Ho121 C132 2.811 . S
Ho121 O141 2.346 . S
Ho121 O145 2.305 . S
Ho121 O146 2.322 . S
Ho121 O148 2.378 . S
Ho121 O149 2.524 . S
Ho121 O150 2.381 . S
Ho121 O151 2.669 . S
C122 O140 1.259 . S
C122 O141 1.268 . S
C123 Ho120 2.811 . S
C123 C124 1.488 . S
C123 O142 1.215 . S
C123 O143 1.289 . S
C124 C123 1.488 . S
C124 C125 1.348 . S
C124 C129 1.413 . S
C125 C124 1.348 . S
C125 C126 1.442 . S
C125 H152 0.930 . S
C126 C125 1.442 . S
C126 C127 1.381 . S
C126 H153 0.931 . S
C127 C126 1.381 . S
C127 C128 1.321 . S
C128 C127 1.321 . S
C128 C129 1.403 . S
C128 H154 0.934 . S
C129 C124 1.413 . S
C129 C128 1.403 . S
C129 H155 0.930 . S
C130 O144 1.275 . S
C130 O145 1.256 . S
C131 O146 1.259 . S
C131 O147 1.268 . S
C132 Ho121 2.811 . S
C132 C133 1.488 . S
C132 O148 1.215 . S
C132 O149 1.289 . S
C133 C132 1.488 . S
C133 C134 1.348 . S
C133 C138 1.413 . S
C134 C133 1.348 . S
C134 C135 1.442 . S
C134 H156 0.930 . S
C135 C134 1.442 . S
C135 C136 1.381 . S
C135 H157 0.931 . S
C136 C135 1.381 . S
C136 C137 1.321 . S
C137 C136 1.321 . S
C137 C138 1.403 . S
C137 H158 0.934 . S
C138 C133 1.413 . S
C138 C137 1.403 . S
C138 H159 0.930 . S
C139 O150 1.275 . S
C139 O151 1.256 . S
O140 Ho120 2.322 . S
O140 C122 1.259 . S
O141 Ho121 2.346 . S
O141 C122 1.268 . S
O142 Ho120 2.378 . S
O142 C123 1.215 . S
O143 Ho120 2.524 . S
O143 C123 1.289 . S
O144 Ho120 2.381 . S
O144 C130 1.275 . S
O145 Ho120 2.669 . S
O145 Ho121 2.305 . S
O145 C130 1.256 . S
O146 Ho121 2.322 . S
O146 C131 1.259 . S
O147 Ho120 2.346 . S
O147 C131 1.268 . S
O148 Ho121 2.378 . S
O148 C132 1.215 . S
O149 Ho121 2.524 . S
O149 C132 1.289 . S
O150 Ho121 2.381 . S
O150 C139 1.275 . S
O151 Ho120 2.305 . S
O151 Ho121 2.669 . S
O151 C139 1.256 . S
H152 C125 0.930 . S
H153 C126 0.931 . S
H154 C128 0.934 . S
H155 C129 0.930 . S
H156 C134 0.930 . S
H157 C135 0.931 . S
H158 C137 0.934 . S
H159 C138 0.930 . S
H160 C168 0.929 . S
H161 C170 0.930 . S
H162 C172 0.930 . S
H163 C175 0.929 . S
H164 C178 0.930 . S
H165 C180 0.960 . S
H166 C180 0.960 . S
H167 C180 0.960 1_556 S
C168 H160 0.929 . S
C168 C169 1.377 . S
C168 C170 1.384 . S
C169 C168 1.377 . S
C169 C175 1.390 1_554 S
C170 H161 0.930 . S
C170 C168 1.384 . S
C170 C171 1.372 . S
C171 C170 1.372 . S
C171 C172 1.400 1_554 S
C171 C176 1.490 . S
C172 H162 0.930 . S
C172 C171 1.400 1_556 S
C172 C175 1.386 . S
H173 C189 0.930 . S
H174 C190 0.931 . S
C175 H163 0.929 . S
C175 C169 1.390 1_556 S
C175 C172 1.386 . S
C176 C171 1.490 . S
C176 C178 1.395 1_554 S
C176 C179 1.403 . S
H177 C183 0.930 . S
C178 H164 0.930 . S
C178 C176 1.395 1_556 S
C178 C181 1.403 . S
C179 C176 1.403 . S
C179 C180 1.524 . S
C179 C183 1.400 . S
C180 H165 0.960 . S
C180 H166 0.960 . S
C180 H167 0.960 1_554 S
C180 C179 1.524 . S
C181 C178 1.403 . S
C181 C182 1.394 . S
C181 C185 1.495 . S
C182 C181 1.394 . S
C182 C183 1.383 1_556 S
C182 C184 1.478 . S
C183 H177 0.930 . S
C183 C179 1.400 . S
C183 C182 1.383 1_554 S
C184 C182 1.478 . S
C184 C186 1.381 1_556 S
C184 C190 1.383 . S
C185 C181 1.495 . S
C185 H191 0.959 . S
C185 H192 0.961 . S
C185 H193 0.960 1_556 S
C186 C184 1.381 1_554 S
C186 C187 1.394 . S
C186 H194 0.930 . S
C187 C186 1.394 . S
C187 C188 1.383 1_554 S
C187 H195 0.929 . S
C188 C187 1.383 1_556 S
C188 C189 1.377 . S
C189 H173 0.930 . S
C189 C188 1.377 . S
C189 C190 1.379 . S
C190 H174 0.931 . S
C190 C184 1.383 . S
C190 C189 1.379 . S
H191 C185 0.959 . S
H192 C185 0.961 . S
H193 C185 0.960 1_554 S
H194 C186 0.930 . S
H195 C187 0.929 . S
H196 C204 0.929 . S
H197 C206 0.930 . S
H198 C208 0.930 . S
H199 C211 0.929 . S
H200 C214 0.930 . S
H201 C216 0.960 . S
H202 C216 0.960 . S
H203 C216 0.960 . S
C204 H196 0.929 . S
C204 C205 1.368 1_554 S
C204 C206 1.384 . S
C205 C204 1.368 1_556 S
C205 C211 1.399 . S
C206 H197 0.930 . S
C206 C204 1.384 . S
C206 C207 1.385 . S
C207 C206 1.385 . S
C207 C208 1.387 1_554 S
C207 C212 1.490 . S
C208 H198 0.930 . S
C208 C207 1.387 1_556 S
C208 C211 1.386 . S
H209 C225 0.930 . S
H210 C226 0.931 . S
C211 H199 0.929 . S
C211 C205 1.399 . S
C211 C208 1.386 . S
C212 C207 1.490 . S
C212 C214 1.390 1_554 S
C212 C215 1.407 . S
H213 C219 0.930 . S
C214 H200 0.930 . S
C214 C212 1.390 1_556 S
C214 C217 1.403 . S
C215 C212 1.407 . S
C215 C216 1.524 . S
C215 C219 1.400 . S
C216 H201 0.960 . S
C216 H202 0.960 . S
C216 H203 0.960 . S
C216 C215 1.524 . S
C217 C214 1.403 . S
C217 C218 1.392 . S
C217 C221 1.495 . S
C218 C217 1.392 . S
C218 C219 1.385 1_556 S
C218 C220 1.478 . S
C219 H213 0.930 . S
C219 C215 1.400 . S
C219 C218 1.385 1_554 S
C220 C218 1.478 . S
C220 C222 1.381 1_556 S
C220 C226 1.383 . S
C221 C217 1.495 . S
C221 H227 0.959 . S
C221 H228 0.961 . S
C221 H229 0.960 . S
C222 C220 1.381 1_554 S
C222 C223 1.394 . S
C222 H230 0.930 . S
C223 C222 1.394 . S
C223 C224 1.381 1_554 S
C223 H231 0.929 . S
C224 C223 1.381 1_556 S
C224 C225 1.379 . S
C225 H209 0.930 . S
C225 C224 1.379 . S
C225 C226 1.379 . S
C226 H210 0.931 . S
C226 C220 1.383 . S
C226 C225 1.379 . S
H227 C221 0.959 . S
H228 C221 0.961 . S
H229 C221 0.960 . S
H230 C222 0.930 . S
H231 C223 0.929 . S
H232 C240 0.929 . S
H233 C242 0.930 . S
H234 C244 0.930 . S
H235 C247 0.929 . S
H236 C250 0.930 . S
H237 C252 0.960 . S
H238 C252 0.960 . S
H239 C252 0.960 . S
C240 H232 0.929 . S
C240 C241 1.377 . S
C240 C242 1.384 . S
C241 C240 1.377 . S
C241 C247 1.390 . S
C242 H233 0.930 . S
C242 C240 1.384 . S
C242 C243 1.372 . S
C243 C242 1.372 . S
C243 C244 1.400 . S
C243 C248 1.490 . S
C244 H234 0.930 . S
C244 C243 1.400 . S
C244 C247 1.386 . S
H245 C261 0.930 . S
H246 C262 0.931 . S
C247 H235 0.929 . S
C247 C241 1.390 . S
C247 C244 1.386 . S
C248 C243 1.490 . S
C248 C250 1.395 . S
C248 C251 1.403 . S
H249 C255 0.930 . S
C250 H236 0.930 . S
C250 C248 1.395 . S
C250 C253 1.403 . S
C251 C248 1.403 . S
C251 C252 1.524 . S
C251 C255 1.400 . S
C252 H237 0.960 . S
C252 H238 0.960 . S
C252 H239 0.960 . S
C252 C251 1.524 . S
C253 C250 1.403 . S
C253 C254 1.392 . S
C253 C257 1.495 . S
C254 C253 1.392 . S
C254 C255 1.385 . S
C254 C256 1.478 . S
C255 H249 0.930 . S
C255 C251 1.400 . S
C255 C254 1.385 . S
C256 C254 1.478 . S
C256 C258 1.381 . S
C256 C262 1.383 . S
C257 C253 1.495 . S
C257 H263 0.959 . S
C257 H264 0.961 . S
C257 H265 0.960 . S
C258 C256 1.381 . S
C258 C259 1.394 . S
C258 H266 0.930 . S
C259 C258 1.394 . S
C259 C260 1.383 . S
C259 H267 0.929 . S
C260 C259 1.383 . S
C260 C261 1.377 . S
C261 H245 0.930 . S
C261 C260 1.377 . S
C261 C262 1.379 . S
C262 H246 0.931 . S
C262 C256 1.383 . S
C262 C261 1.379 . S
H263 C257 0.959 . S
H264 C257 0.961 . S
H265 C257 0.960 . S
H266 C258 0.930 . S
H267 C259 0.929 . S
H268 C276 0.929 . S
H269 C278 0.930 . S
H270 C280 0.930 . S
H271 C283 0.929 . S
H272 C286 0.930 . S
H273 C288 0.960 . S
H274 C288 0.960 . S
H275 C288 0.960 . S
C276 H268 0.929 . S
C276 C277 1.377 . S
C276 C278 1.384 . S
C277 C276 1.377 . S
C277 C283 1.390 . S
C278 H269 0.930 . S
C278 C276 1.384 . S
C278 C279 1.372 . S
C279 C278 1.372 . S
C279 C280 1.400 . S
C279 C284 1.490 . S
C280 H270 0.930 . S
C280 C279 1.400 . S
C280 C283 1.386 . S
H281 C297 0.930 . S
H282 C298 0.931 . S
C283 H271 0.929 . S
C283 C277 1.390 . S
C283 C280 1.386 . S
C284 C279 1.490 . S
C284 C286 1.395 . S
C284 C287 1.403 . S
H285 C291 0.930 . S
C286 H272 0.930 . S
C286 C284 1.395 . S
C286 C289 1.403 . S
C287 C284 1.403 . S
C287 C288 1.524 . S
C287 C291 1.400 . S
C288 H273 0.960 . S
C288 H274 0.960 . S
C288 H275 0.960 . S
C288 C287 1.524 . S
C289 C286 1.403 . S
C289 C290 1.392 . S
C289 C293 1.495 . S
C290 C289 1.392 . S
C290 C291 1.385 . S
C290 C292 1.478 . S
C291 H285 0.930 . S
C291 C287 1.400 . S
C291 C290 1.385 . S
C292 C290 1.478 . S
C292 C294 1.381 . S
C292 C298 1.383 . S
C293 C289 1.495 . S
C293 H299 0.959 . S
C293 H300 0.961 . S
C293 H301 0.960 . S
C294 C292 1.381 . S
C294 C295 1.394 . S
C294 H302 0.930 . S
C295 C294 1.394 . S
C295 C296 1.383 . S
C295 H303 0.929 . S
C296 C295 1.383 . S
C296 C297 1.377 . S
C297 H281 0.930 . S
C297 C296 1.377 . S
C297 C298 1.379 . S
C298 H282 0.931 . S
C298 C292 1.383 . S
C298 C297 1.379 . S
H299 C293 0.959 . S
H300 C293 0.961 . S
H301 C293 0.960 . S
H302 C294 0.930 . S
H303 C295 0.929 . S
H304 C312 0.929 . S
H305 C314 0.930 . S
H306 C316 0.930 . S
H307 C319 0.929 . S
H308 C322 0.930 . S
H309 C324 0.960 . S
H310 C324 0.960 . S
H311 C324 0.960 . S
C312 H304 0.929 . S
C312 C313 1.377 . S
C312 C314 1.384 . S
C313 C312 1.377 . S
C313 C319 1.390 1_554 S
C314 H305 0.930 . S
C314 C312 1.384 . S
C314 C315 1.372 . S
C315 C314 1.372 . S
C315 C316 1.400 1_554 S
C315 C320 1.490 . S
C316 H306 0.930 . S
C316 C315 1.400 1_556 S
C316 C319 1.386 . S
H317 C333 0.930 . S
H318 C334 0.931 . S
C319 H307 0.929 . S
C319 C313 1.390 1_556 S
C319 C316 1.386 . S
C320 C315 1.490 . S
C320 C322 1.395 . S
C320 C323 1.403 1_564 S
H321 C327 0.930 . S
C322 H308 0.930 . S
C322 C320 1.395 . S
C322 C325 1.403 . S
C323 C320 1.403 1_546 S
C323 C324 1.524 . S
C323 C327 1.400 . S
C324 H309 0.960 . S
C324 H310 0.960 . S
C324 H311 0.960 . S
C324 C323 1.524 . S
C325 C322 1.403 . S
C325 C326 1.392 1_565 S
C325 C329 1.495 . S
C326 C325 1.392 1_545 S
C326 C327 1.385 1_554 S
C326 C328 1.478 . S
C327 H321 0.930 . S
C327 C323 1.400 . S
C327 C326 1.385 1_556 S
C328 C326 1.478 . S
C328 C330 1.381 . S
C328 C334 1.383 1_554 S
C329 C325 1.495 . S
C329 H335 0.959 . S
C329 H336 0.961 . S
C329 H337 0.960 . S
C330 C328 1.381 . S
C330 C331 1.394 . S
C330 H338 0.930 . S
C331 C330 1.394 . S
C331 C332 1.383 1_554 S
C331 H339 0.929 . S
C332 C331 1.383 1_556 S
C332 C333 1.377 . S
C333 H317 0.930 . S
C333 C332 1.377 . S
C333 C334 1.379 . S
C334 H318 0.931 . S
C334 C328 1.383 1_556 S
C334 C333 1.379 . S
H335 C329 0.959 . S
H336 C329 0.961 . S
H337 C329 0.960 . S
H338 C330 0.930 . S
H339 C331 0.929 . S
H340 C348 0.929 . S
H341 C350 0.930 . S
H342 C352 0.930 . S
H343 C355 0.929 . S
H344 C358 0.930 . S
H345 C360 0.960 . S
H346 C360 0.960 . S
H347 C360 0.960 . S
C348 H340 0.929 . S
C348 C349 1.377 1_545 S
C348 C350 1.384 . S
C349 C348 1.377 1_565 S
C349 C355 1.390 . S
C350 H341 0.930 . S
C350 C348 1.384 . S
C350 C351 1.372 1_545 S
C351 C350 1.372 1_565 S
C351 C352 1.399 . S
C351 C356 1.490 1_565 S
C352 H342 0.930 . S
C352 C351 1.399 . S
C352 C355 1.386 . S
H353 C369 0.930 . S
H354 C370 0.931 . S
C355 H343 0.929 . S
C355 C349 1.390 . S
C355 C352 1.386 . S
C356 C351 1.490 1_545 S
C356 C358 1.395 . S
C356 C359 1.403 1_545 S
H357 C363 0.930 . S
C358 H344 0.930 . S
C358 C356 1.395 . S
C358 C361 1.403 . S
C359 C356 1.403 1_565 S
C359 C360 1.524 . S
C359 C363 1.400 . S
C360 H345 0.960 . S
C360 H346 0.960 . S
C360 H347 0.960 . S
C360 C359 1.524 . S
C361 C358 1.403 . S
C361 C362 1.392 . S
C361 C365 1.495 . S
C362 C361 1.392 . S
C362 C363 1.385 1_545 S
C362 C364 1.478 . S
C363 H357 0.930 . S
C363 C359 1.400 . S
C363 C362 1.385 1_565 S
C364 C362 1.478 . S
C364 C366 1.381 . S
C364 C370 1.383 1_545 S
C365 C361 1.495 . S
C365 H371 0.959 . S
C365 H372 0.961 . S
C365 H373 0.960 . S
C366 C364 1.381 . S
C366 C367 1.394 . S
C366 H374 0.930 . S
C367 C366 1.394 . S
C367 C368 1.383 . S
C367 H375 0.929 . S
C368 C367 1.383 . S
C368 C369 1.377 1_545 S
C369 H353 0.930 . S
C369 C368 1.377 1_565 S
C369 C370 1.379 . S
C370 H354 0.931 . S
C370 C364 1.383 1_565 S
C370 C369 1.379 . S
H371 C365 0.959 . S
H372 C365 0.961 . S
H373 C365 0.960 . S
H374 C366 0.930 . S
H375 C367 0.929 . S
H376 C384 0.929 . S
H377 C386 0.930 . S
H378 C388 0.930 . S
H379 C391 0.929 . S
H380 C394 0.930 . S
H381 C396 0.942 1_455 S
H382 C396 0.972 . S
H383 C396 0.970 . S
C384 H376 0.929 . S
C384 C385 1.377 1_556 S
C384 C386 1.384 . S
C385 C384 1.377 1_554 S
C385 C391 1.390 . S
C386 H377 0.930 . S
C386 C384 1.384 . S
C386 C387 1.378 . S
C387 C386 1.378 . S
C387 C388 1.392 1_556 S
C387 C392 1.490 . S
C388 H378 0.930 . S
C388 C387 1.392 1_554 S
C388 C391 1.386 . S
H389 C405 0.930 . S
H390 C406 0.931 . S
C391 H379 0.929 . S
C391 C385 1.390 . S
C391 C388 1.386 . S
C392 C387 1.490 . S
C392 C394 1.391 1_556 S
C392 C395 1.408 . S
H393 C399 0.930 . S
C394 H380 0.930 . S
C394 C392 1.391 1_554 S
C394 C397 1.403 . S
C395 C392 1.408 . S
C395 C396 1.521 . S
C395 C399 1.400 1_655 S
C396 H381 0.942 1_655 S
C396 H382 0.972 . S
C396 H383 0.970 . S
C396 C395 1.521 . S
C397 C394 1.403 . S
C397 C398 1.392 1_655 S
C397 C401 1.495 . S
C398 C397 1.392 1_455 S
C398 C399 1.385 1_554 S
C398 C400 1.478 . S
C399 H393 0.930 . S
C399 C395 1.400 1_455 S
C399 C398 1.385 1_556 S
C400 C398 1.478 . S
C400 C402 1.381 1_554 S
C400 C406 1.383 . S
C401 C397 1.495 . S
C401 H407 0.959 . S
C401 H408 0.961 1_655 S
C401 H409 0.960 1_655 S
C402 C400 1.381 1_556 S
C402 C403 1.394 . S
C402 H410 0.930 . S
C403 C402 1.394 . S
C403 C404 1.395 . S
C403 H411 0.929 . S
C404 C403 1.395 . S
C404 C405 1.362 1_556 S
C405 H389 0.930 . S
C405 C404 1.362 1_554 S
C405 C406 1.379 . S
C406 H390 0.931 . S
C406 C400 1.383 . S
C406 C405 1.379 . S
H407 C401 0.959 . S
H408 C401 0.961 1_455 S
H409 C401 0.960 1_455 S
H410 C402 0.930 . S
H411 C403 0.929 . S
H412 C420 0.929 . S
H413 C422 0.930 . S
H414 C424 0.930 . S
H415 C427 0.929 . S
H416 C430 0.930 . S
H417 C432 0.965 . S
H418 C432 0.960 . S
H419 C432 0.960 . S
C420 H412 0.929 . S
C420 C421 1.377 . S
C420 C422 1.384 . S
C421 C420 1.377 . S
C421 C427 1.390 . S
C422 H413 0.930 . S
C422 C420 1.384 . S
C422 C423 1.372 . S
C423 C422 1.372 . S
C423 C424 1.400 . S
C423 C428 1.490 . S
C424 H414 0.930 . S
C424 C423 1.400 . S
C424 C427 1.386 . S
H425 C441 0.930 . S
H426 C442 0.931 . S
C427 H415 0.929 . S
C427 C421 1.390 . S
C427 C424 1.386 . S
C428 C423 1.490 . S
C428 C430 1.395 . S
C428 C431 1.403 . S
H429 C435 0.930 . S
C430 H416 0.930 . S
C430 C428 1.395 . S
C430 C433 1.403 1_455 S
C431 C428 1.403 . S
C431 C432 1.524 . S
C431 C435 1.400 1_455 S
C432 H417 0.965 . S
C432 H418 0.960 . S
C432 H419 0.960 . S
C432 C431 1.524 . S
C433 C430 1.403 1_655 S
C433 C434 1.392 . S
C433 C437 1.495 . S
C434 C433 1.392 . S
C434 C435 1.385 . S
C434 C436 1.478 . S
C435 H429 0.930 . S
C435 C431 1.400 1_655 S
C435 C434 1.385 . S
C436 C434 1.478 . S
C436 C438 1.381 . S
C436 C442 1.383 . S
C437 C433 1.495 . S
C437 H443 0.948 1_655 S
C437 H444 0.961 . S
C437 H445 0.960 . S
C438 C436 1.381 . S
C438 C439 1.394 . S
C438 H446 0.930 . S
C439 C438 1.394 . S
C439 C440 1.383 . S
C439 H447 0.929 . S
C440 C439 1.383 . S
C440 C441 1.377 . S
C441 H425 0.930 . S
C441 C440 1.377 . S
C441 C442 1.379 . S
C442 H426 0.931 . S
C442 C436 1.383 . S
C442 C441 1.379 . S
H443 C437 0.948 1_455 S
H444 C437 0.961 . S
H445 C437 0.960 . S
H446 C438 0.930 . S
H447 C439 0.929 . S
H448 C456 0.929 . S
H449 C458 0.930 . S
H450 C460 0.930 . S
H451 C463 0.929 . S
H452 C466 0.930 . S
H453 C468 0.960 . S
H454 C468 0.960 . S
H455 C468 0.960 . S
C456 H448 0.929 . S
C456 C457 1.364 1_565 S
C456 C458 1.384 . S
C457 C456 1.364 1_545 S
C457 C463 1.404 1_655 S
C458 H449 0.930 . S
C458 C456 1.384 . S
C458 C459 1.367 1_565 S
C459 C458 1.367 1_545 S
C459 C460 1.404 1_655 S
C459 C464 1.490 . S
C460 H450 0.930 . S
C460 C459 1.404 1_455 S
C460 C463 1.386 . S
H461 C477 0.930 . S
H462 C478 0.931 . S
C463 H451 0.929 . S
C463 C457 1.404 1_455 S
C463 C460 1.386 . S
C464 C459 1.490 . S
C464 C466 1.395 . S
C464 C467 1.403 1_645 S
H465 C471 0.930 . S
C466 H452 0.930 . S
C466 C464 1.395 . S
C466 C469 1.403 . S
C467 C464 1.403 1_465 S
C467 C468 1.524 . S
C467 C471 1.400 . S
C468 H453 0.960 . S
C468 H454 0.960 . S
C468 H455 0.960 . S
C468 C467 1.524 . S
C469 C466 1.403 . S
C469 C470 1.392 . S
C469 C473 1.495 . S
C470 C469 1.392 . S
C470 C471 1.385 1_645 S
C470 C472 1.478 . S
C471 H465 0.930 . S
C471 C467 1.400 . S
C471 C470 1.385 1_465 S
C472 C470 1.478 . S
C472 C474 1.381 1_545 S
C472 C478 1.383 1_655 S
C473 C469 1.495 . S
C473 H479 0.959 . S
C473 H480 0.961 . S
C473 H481 0.960 . S
C474 C472 1.381 1_565 S
C474 C475 1.394 . S
C474 H482 0.930 . S
C475 C474 1.394 . S
C475 C476 1.383 1_565 S
C475 H483 0.929 . S
C476 C475 1.383 1_545 S
C476 C477 1.377 1_655 S
C477 H461 0.930 . S
C477 C476 1.377 1_455 S
C477 C478 1.379 . S
C478 H462 0.931 . S
C478 C472 1.383 1_455 S
C478 C477 1.379 . S
H479 C473 0.959 . S
H480 C473 0.961 . S
H481 C473 0.960 . S
H482 C474 0.930 . S
H483 C475 0.929 . S
H484 C492 0.929 . S
H485 C494 0.930 . S
H486 C496 0.925 1_545 S
H487 C499 0.929 1_545 S
H488 C502 0.930 . S
H489 C504 0.960 . S
H490 C504 0.960 . S
H491 C504 0.960 . S
C492 H484 0.929 . S
C492 C493 1.368 1_655 S
C492 C494 1.384 . S
C493 C492 1.368 1_455 S
C493 C499 1.400 . S
C494 H485 0.930 . S
C494 C492 1.384 . S
C494 C495 1.372 . S
C495 C494 1.372 . S
C495 C496 1.402 1_655 S
C495 C500 1.492 . S
C496 H486 0.925 1_565 S
C496 C495 1.402 1_455 S
C496 C499 1.386 . S
H497 C513 0.930 . S
H498 C514 0.931 . S
C499 H487 0.929 1_565 S
C499 C493 1.400 . S
C499 C496 1.386 . S
C500 C495 1.492 . S
C500 C502 1.379 1_565 S
C500 C503 1.417 1_655 S
H501 C507 0.930 . S
C502 H488 0.930 . S
C502 C500 1.379 1_545 S
C502 C505 1.403 . S
C503 C500 1.417 1_455 S
C503 C504 1.524 . S
C503 C507 1.400 . S
C504 H489 0.960 . S
C504 H490 0.960 . S
C504 H491 0.960 . S
C504 C503 1.524 . S
C505 C502 1.403 . S
C505 C506 1.392 . S
C505 C509 1.495 . S
C506 C505 1.392 . S
C506 C507 1.385 1_645 S
C506 C508 1.478 . S
C507 H501 0.930 . S
C507 C503 1.400 . S
C507 C506 1.385 1_465 S
C508 C506 1.478 . S
C508 C510 1.381 1_545 S
C508 C514 1.383 1_655 S
C509 C505 1.495 . S
C509 H515 0.959 . S
C509 H516 0.961 . S
C509 H517 0.960 . S
C510 C508 1.381 1_565 S
C510 C511 1.394 . S
C510 H518 0.930 . S
C511 C510 1.394 . S
C511 C512 1.405 1_565 S
C511 H519 0.929 . S
C512 C511 1.405 1_545 S
C512 C513 1.359 1_655 S
C513 H497 0.930 . S
C513 C512 1.359 1_455 S
C513 C514 1.379 . S
C514 H498 0.931 . S
C514 C508 1.383 1_455 S
C514 C513 1.379 . S
H515 C509 0.959 . S
H516 C509 0.961 . S
H517 C509 0.960 . S
H518 C510 0.930 . S
H519 C511 0.929 . S
H520 C528 0.929 . S
H521 C530 0.930 . S
H522 C532 0.930 . S
H523 C535 0.929 . S
H524 C538 0.930 . S
H525 C540 0.960 . S
H526 C540 0.960 . S
H527 C540 0.960 . S
C528 H520 0.929 . S
C528 C529 1.377 . S
C528 C530 1.384 . S
C529 C528 1.377 . S
C529 C535 1.390 . S
C530 H521 0.930 . S
C530 C528 1.384 . S
C530 C531 1.372 . S
C531 C530 1.372 . S
C531 C532 1.400 . S
C531 C536 1.490 . S
C532 H522 0.930 . S
C532 C531 1.400 . S
C532 C535 1.386 . S
H533 C549 0.930 . S
H534 C550 0.931 . S
C535 H523 0.929 . S
C535 C529 1.390 . S
C535 C532 1.386 . S
C536 C531 1.490 . S
C536 C538 1.395 . S
C536 C539 1.403 . S
H537 C543 0.930 . S
C538 H524 0.930 . S
C538 C536 1.395 . S
C538 C541 1.403 . S
C539 C536 1.403 . S
C539 C540 1.524 . S
C539 C543 1.400 . S
C540 H525 0.960 . S
C540 H526 0.960 . S
C540 H527 0.960 . S
C540 C539 1.524 . S
C541 C538 1.403 . S
C541 C542 1.392 . S
C541 C545 1.495 . S
C542 C541 1.392 . S
C542 C543 1.385 . S
C542 C544 1.478 . S
C543 H537 0.930 . S
C543 C539 1.400 . S
C543 C542 1.385 . S
C544 C542 1.478 . S
C544 C546 1.381 . S
C544 C550 1.383 . S
C545 C541 1.495 . S
C545 H551 0.959 . S
C545 H552 0.961 . S
C545 H553 0.960 . S
C546 C544 1.381 . S
C546 C547 1.394 . S
C546 H554 0.930 . S
C547 C546 1.394 . S
C547 C548 1.383 . S
C547 H555 0.929 . S
C548 C547 1.383 . S
C548 C549 1.377 . S
C549 H533 0.930 . S
C549 C548 1.377 . S
C549 C550 1.379 . S
C550 H534 0.931 . S
C550 C544 1.383 . S
C550 C549 1.379 . S
H551 C545 0.959 . S
H552 C545 0.961 . S
H553 C545 0.960 . S
H554 C546 0.930 . S
H555 C547 0.929 . S
H556 C564 0.929 . S
H557 C566 0.930 . S
H558 C568 0.930 . S
H559 C571 0.929 . S
H560 C574 0.930 . S
H561 C576 0.960 . S
H562 C576 0.960 . S
H563 C576 0.960 . S
C564 H556 0.929 . S
C564 C565 1.377 . S
C564 C566 1.384 . S
C565 C564 1.377 . S
C565 C571 1.390 . S
C566 H557 0.930 . S
C566 C564 1.384 . S
C566 C567 1.372 . S
C567 C566 1.372 . S
C567 C568 1.400 . S
C567 C572 1.490 . S
C568 H558 0.930 . S
C568 C567 1.400 . S
C568 C571 1.386 . S
H569 C585 0.930 . S
H570 C586 0.931 . S
C571 H559 0.929 . S
C571 C565 1.390 . S
C571 C568 1.386 . S
C572 C567 1.490 . S
C572 C574 1.395 . S
C572 C575 1.403 . S
H573 C579 0.930 . S
C574 H560 0.930 . S
C574 C572 1.395 . S
C574 C577 1.403 . S
C575 C572 1.403 . S
C575 C576 1.524 . S
C575 C579 1.400 . S
C576 H561 0.960 . S
C576 H562 0.960 . S
C576 H563 0.960 . S
C576 C575 1.524 . S
C577 C574 1.403 . S
C577 C578 1.392 . S
C577 C581 1.495 . S
C578 C577 1.392 . S
C578 C579 1.385 . S
C578 C580 1.478 . S
C579 H573 0.930 . S
C579 C575 1.400 . S
C579 C578 1.385 . S
C580 C578 1.478 . S
C580 C582 1.381 . S
C580 C586 1.383 . S
C581 C577 1.495 . S
C581 H587 0.959 . S
C581 H588 0.961 . S
C581 H589 0.960 . S
C582 C580 1.381 . S
C582 C583 1.394 . S
C582 H590 0.930 . S
C583 C582 1.394 . S
C583 C584 1.383 . S
C583 H591 0.929 . S
C584 C583 1.383 . S
C584 C585 1.377 . S
C585 H569 0.930 . S
C585 C584 1.377 . S
C585 C586 1.379 . S
C586 H570 0.931 . S
C586 C580 1.383 . S
C586 C585 1.379 . S
H587 C581 0.959 . S
H588 C581 0.961 . S
H589 C581 0.960 . S
H590 C582 0.930 . S
H591 C583 0.929 . S
C169 C82 3.509 1_554 S
C188 C11 3.512 1_556 S
C205 C91 3.505 1_556 S
C224 C2 3.503 . S
C241 C56 0.093 . S
C260 C127 0.078 . S
C277 C47 0.104 . S
C296 C136 0.171 . S
C313 C16 0.891 . S
C332 C7 0.871 . S
C349 C51 4.905 . S
C368 C42 4.898 . S
C385 C96 0.898 . S
C404 C87 0.944 . S
C421 C122 4.904 . S
C440 C131 4.896 . S
C457 C50 1.449 1_645 S
C476 C19 1.466 1_655 S
C493 C10 1.455 1_455 S
C512 C59 1.436 . S
C529 C130 1.464 . S
C548 C99 1.439 . S
C565 C139 1.463 . S
C584 C90 1.479 . S
