# Generated by pormake.
# Topology mok, (4)-cn, num edge types: 1
# Building blocks:
#     Node 0, Type 0, BuildingBlock: GALJAG_clean_sbu_0, # of connection points: 4
#     Node 1, Type 0, BuildingBlock: GALJAG_clean_sbu_0, # of connection points: 4
#     Node 2, Type 0, BuildingBlock: GALJAG_clean_sbu_0, # of connection points: 4
#     Node 3, Type 0, BuildingBlock: GALJAG_clean_sbu_0, # of connection points: 4
#     Node 4, Type 0, BuildingBlock: GALJAG_clean_sbu_0, # of connection points: 4
#     Node 5, Type 0, BuildingBlock: GALJAG_clean_sbu_0, # of connection points: 4
#     Node 6, Type 0, BuildingBlock: GALJAG_clean_sbu_0, # of connection points: 4
#     Node 7, Type 0, BuildingBlock: GALJAG_clean_sbu_0, # of connection points: 4
#     Edge 8, Type (0, 0), BuildingBlock: KIFKEQ_clean_linker_1, # of connection points: 2
#     Edge 9, Type (0, 0), BuildingBlock: KIFKEQ_clean_linker_1, # of connection points: 2
#     Edge 10, Type (0, 0), BuildingBlock: KIFKEQ_clean_linker_1, # of connection points: 2
#     Edge 11, Type (0, 0), BuildingBlock: KIFKEQ_clean_linker_1, # of connection points: 2
#     Edge 12, Type (0, 0), BuildingBlock: KIFKEQ_clean_linker_1, # of connection points: 2
#     Edge 13, Type (0, 0), BuildingBlock: KIFKEQ_clean_linker_1, # of connection points: 2
#     Edge 14, Type (0, 0), BuildingBlock: KIFKEQ_clean_linker_1, # of connection points: 2
#     Edge 15, Type (0, 0), BuildingBlock: KIFKEQ_clean_linker_1, # of connection points: 2
#     Edge 16, Type (0, 0), BuildingBlock: KIFKEQ_clean_linker_1, # of connection points: 2
#     Edge 17, Type (0, 0), BuildingBlock: KIFKEQ_clean_linker_1, # of connection points: 2
#     Edge 18, Type (0, 0), BuildingBlock: KIFKEQ_clean_linker_1, # of connection points: 2
#     Edge 19, Type (0, 0), BuildingBlock: KIFKEQ_clean_linker_1, # of connection points: 2
#     Edge 20, Type (0, 0), BuildingBlock: KIFKEQ_clean_linker_1, # of connection points: 2
#     Edge 21, Type (0, 0), BuildingBlock: KIFKEQ_clean_linker_1, # of connection points: 2
#     Edge 22, Type (0, 0), BuildingBlock: KIFKEQ_clean_linker_1, # of connection points: 2
#     Edge 23, Type (0, 0), BuildingBlock: KIFKEQ_clean_linker_1, # of connection points: 2
# Relax obj value: 0.070
# Max RMSD: 0.103
# Mean RMSD: 0.103
data_MOF--net-mok--node1-GALJAG_clean_sbu_0--edge1-KIFKEQ_clean_linker_1
_symmetry_space_group_name_H-M    P1
_symmetry_Int_Tables_number       1
_symmetry_cell_setting            triclinic
loop_
_symmetry_equiv_pos_as_xyz
'x, y, z'
_cell_length_a     55.887819
_cell_length_b     14.162211
_cell_length_c     28.977165
_cell_angle_alpha  89.992325
_cell_angle_beta   89.959612
_cell_angle_gamma 89.985634
loop_
_atom_site_label
_atom_site_type_symbol
_atom_site_fract_x
_atom_site_fract_y
_atom_site_fract_z
_atom_type_partial_charge
In0 In 0.60933 0.31169 0.00588 0.0
O1 O 0.59969 0.43097 0.95565 0.0
O2 O 0.60771 0.29456 0.92859 0.0
C3 C 0.60778 0.38206 0.09197 0.0
C4 C 0.57121 0.1969 0.01051 0.0
C5 C 0.65682 0.28433 0.00115 0.0
O6 O 0.60264 0.43222 0.05713 0.0
O7 O 0.6137 0.29809 0.08294 0.0
O8 O 0.64237 0.21677 0.0076 0.0
O9 O 0.64723 0.3646 0.99699 0.0
C10 C 0.60192 0.37898 0.92031 0.0
O11 O 0.59207 0.16554 0.00302 0.0
O12 O 0.56982 0.28519 0.01568 0.0
In13 In 0.38364 0.68407 0.00681 0.0
O14 O 0.4015 0.8287 0.0066 0.0
O15 O 0.42356 0.70568 0.01122 0.0
C16 C 0.33611 0.71478 0.00565 0.0
C17 C 0.39028 0.61318 0.92169 0.0
C18 C 0.38803 0.61689 0.09292 0.0
O19 O 0.35096 0.78183 0.00197 0.0
O20 O 0.34532 0.63401 0.00976 0.0
O21 O 0.38905 0.56321 0.058 0.0
O22 O 0.3848 0.70327 0.08412 0.0
C23 C 0.42243 0.79474 0.00964 0.0
O24 O 0.39006 0.56066 0.95704 0.0
O25 O 0.38711 0.69979 0.92959 0.0
In26 In 0.60969 0.68443 0.50731 0.0
O27 O 0.59973 0.5656 0.55757 0.0
O28 O 0.60893 0.7008 0.58468 0.0
C29 C 0.60762 0.61519 0.42105 0.0
C30 C 0.57164 0.79984 0.50415 0.0
C31 C 0.65726 0.71004 0.51111 0.0
O32 O 0.60298 0.56427 0.4559 0.0
O33 O 0.61326 0.69941 0.43014 0.0
O34 O 0.64292 0.77827 0.50536 0.0
O35 O 0.64752 0.63 0.51501 0.0
C36 C 0.60262 0.61695 0.59295 0.0
O37 O 0.59262 0.83099 0.51046 0.0
O38 O 0.57011 0.71149 0.49936 0.0
In39 In 0.38448 0.31584 0.50773 0.0
O40 O 0.40243 0.1716 0.51142 0.0
O41 O 0.42434 0.2936 0.50138 0.0
C42 C 0.33704 0.28268 0.51043 0.0
C43 C 0.39163 0.38495 0.59289 0.0
C44 C 0.38826 0.38733 0.42216 0.0
O45 O 0.35198 0.21702 0.50354 0.0
O46 O 0.34612 0.36328 0.51601 0.0
O47 O 0.38909 0.43965 0.45755 0.0
O48 O 0.38543 0.30056 0.43024 0.0
C49 C 0.42328 0.20496 0.50593 0.0
O50 O 0.39111 0.4381 0.55775 0.0
O51 O 0.38865 0.29826 0.58475 0.0
In52 In 0.10887 0.81223 0.00446 0.0
O53 O 0.09163 0.66587 0.00424 0.0
O54 O 0.06917 0.78716 0.01034 0.0
C55 C 0.15652 0.78903 0.00249 0.0
C56 C 0.10275 0.88009 0.91875 0.0
C57 C 0.10567 0.87887 0.09077 0.0
O58 O 0.14227 0.71956 0.00078 0.0
O59 O 0.14664 0.86904 0.00507 0.0
O60 O 0.10114 0.93037 0.05605 0.0
O61 O 0.11179 0.79514 0.08151 0.0
C62 C 0.07062 0.69834 0.00836 0.0
O63 O 0.09985 0.93173 0.95402 0.0
O64 O 0.10862 0.79586 0.92718 0.0
In65 In 0.88381 0.1812 0.008 0.0
O66 O 0.89333 0.06207 0.9577 0.0
O67 O 0.88532 0.19866 0.93077 0.0
C68 C 0.88556 0.11133 0.09409 0.0
C69 C 0.92207 0.29516 0.01211 0.0
C70 C 0.83631 0.20801 0.00323 0.0
O71 O 0.89064 0.06102 0.05925 0.0
O72 O 0.87957 0.19522 0.08505 0.0
O73 O 0.85072 0.27588 0.00933 0.0
O74 O 0.84596 0.12773 -0.00044 0.0
C75 C 0.89108 0.11423 0.92243 0.0
O76 O 0.90119 0.32709 0.00545 0.0
O77 O 0.9234 0.20675 0.01679 0.0
In78 In 0.10993 0.18074 0.50517 0.0
O79 O 0.10046 0.06259 0.55591 0.0
O80 O 0.11004 0.19799 0.58241 0.0
C81 C 0.10665 0.11155 0.41926 0.0
C82 C 0.07167 0.29496 0.50337 0.0
C83 C 0.15757 0.20488 0.50683 0.0
O84 O 0.10257 0.06055 0.45434 0.0
O85 O 0.11238 0.19586 0.42796 0.0
O86 O 0.14328 0.27372 0.50231 0.0
O87 O 0.14773 0.125 0.51056 0.0
C88 C 0.10372 0.1143 0.59104 0.0
O89 O 0.09267 0.32696 0.50841 0.0
O90 O 0.07026 0.20647 0.49916 0.0
In91 In 0.88439 0.81032 0.50938 0.0
O92 O 0.90202 0.66489 0.51254 0.0
O93 O 0.92408 0.78591 0.50184 0.0
C94 C 0.83686 0.78344 0.51276 0.0
C95 C 0.89102 0.87765 0.59503 0.0
C96 C 0.88652 0.87919 0.42314 0.0
O97 O 0.85133 0.7155 0.50723 0.0
O98 O 0.84647 0.86372 0.51667 0.0
O99 O 0.89086 0.93056 0.45796 0.0
O100 O 0.88113 0.7947 0.43226 0.0
C101 C 0.9229 0.69745 0.50649 0.0
O102 O 0.89388 0.9293 0.55972 0.0
O103 O 0.88494 0.79358 0.58667 0.0
H104 H 0.80315 0.07748 0.97786 0.0
H105 H 0.81036 0.36604 0.02392 0.0
H106 H 0.75987 0.09564 0.97522 0.0
H107 H 0.76693 0.3835 0.02306 0.0
H108 H 0.69014 0.41337 0.97459 0.0
H109 H 0.73344 0.39504 0.97305 0.0
H110 H 0.72604 0.10971 0.02426 0.0
H111 H 0.68261 0.12724 0.024 0.0
C112 C 0.79544 0.14474 0.98766 0.0
C113 C 0.81011 0.22039 0.00111 0.0
C114 C 0.7706 0.15498 0.98647 0.0
C115 C 0.75982 0.24088 -0.00087 0.0
C116 C 0.77459 0.31673 0.01242 0.0
C117 C 0.79948 0.3067 0.01318 0.0
C118 C 0.69779 0.34661 0.98534 0.0
C119 C 0.68303 0.27169 -0.00057 0.0
C120 C 0.72263 0.33629 0.98479 0.0
C121 C 0.73332 0.25107 -0.00125 0.0
C122 C 0.71846 0.17591 0.01263 0.0
C123 C 0.69357 0.18599 0.01273 0.0
H124 H 0.18975 0.92349 0.02191 0.0
H125 H 0.18254 0.63128 0.98179 0.0
H126 H 0.23308 0.90686 0.02278 0.0
H127 H 0.22599 0.61528 0.98056 0.0
H128 H 0.3023 0.58775 0.0312 0.0
H129 H 0.25911 0.60661 0.03033 0.0
H130 H 0.26742 0.88924 0.97604 0.0
H131 H 0.31088 0.8713 0.97901 0.0
C132 C 0.19748 0.85582 0.01284 0.0
C133 C 0.18279 0.7785 0.00197 0.0
C134 C 0.22236 0.84644 0.013 0.0
C135 C 0.23314 0.75973 0.00175 0.0
C136 C 0.21835 0.68269 0.99026 0.0
C137 C 0.19344 0.69183 0.99068 0.0
C138 C 0.29489 0.65402 0.01916 0.0
C139 C 0.30993 0.72814 0.00518 0.0
C140 C 0.27008 0.66461 0.01829 0.0
C141 C 0.25965 0.74921 0.0028 0.0
C142 C 0.27478 0.82352 0.98879 0.0
C143 C 0.29968 0.81326 0.99026 0.0
H144 H 0.80353 0.91367 0.53773 0.0
H145 H 0.81104 0.62612 0.49034 0.0
H146 H 0.76024 0.89594 0.53888 0.0
H147 H 0.76758 0.60914 0.48965 0.0
H148 H 0.69037 0.57923 0.53651 0.0
H149 H 0.73368 0.5966 0.53849 0.0
H150 H 0.72677 0.8835 0.48914 0.0
H151 H 0.68332 0.86689 0.489 0.0
C152 C 0.79588 0.84672 0.5273 0.0
C153 C 0.81064 0.77121 0.51396 0.0
C154 C 0.77103 0.83675 0.52762 0.0
C155 C 0.76033 0.75127 0.51414 0.0
C156 C 0.77518 0.67557 0.5009 0.0
C157 C 0.80008 0.68531 0.50105 0.0
C158 C 0.69813 0.64611 0.52622 0.0
C159 C 0.68349 0.72179 0.51264 0.0
C160 C 0.72298 0.65588 0.52703 0.0
C161 C 0.73381 0.74132 0.5138 0.0
C162 C 0.71908 0.81711 0.50024 0.0
C163 C 0.69418 0.80757 0.4999 0.0
H164 H 0.1836 0.36331 0.48755 0.0
H165 H 0.1908 0.07094 0.52755 0.0
H166 H 0.22704 0.37991 0.48765 0.0
H167 H 0.23413 0.0881 0.52941 0.0
H168 H 0.31188 0.12627 0.48343 0.0
H169 H 0.26843 0.1073 0.48153 0.0
H170 H 0.26001 0.38724 0.53887 0.0
H171 H 0.3032 0.40709 0.53901 0.0
C172 C 0.19449 0.30285 0.49671 0.0
C173 C 0.18384 0.21595 0.50756 0.0
C174 C 0.21938 0.31235 0.49704 0.0
C175 C 0.23416 0.23536 0.50867 0.0
C176 C 0.22339 0.14847 0.51959 0.0
C177 C 0.19852 0.13881 0.51885 0.0
C178 C 0.30068 0.18345 0.49568 0.0
C179 C 0.31089 0.26819 0.51119 0.0
C180 C 0.27579 0.17258 0.4948 0.0
C181 C 0.26065 0.24598 0.50984 0.0
C182 C 0.27103 0.33002 0.52609 0.0
C183 C 0.29582 0.34114 0.52652 0.0
H184 H 0.62065 0.28755 0.1697 0.0
H185 H 0.59286 0.55541 0.12268 0.0
H186 H 0.61967 0.34358 0.24898 0.0
H187 H 0.59128 0.61107 0.20251 0.0
H188 H 0.59404 0.44013 0.39043 0.0
H189 H 0.5926 0.38459 0.31058 0.0
H190 H 0.61807 0.65638 0.26378 0.0
H191 H 0.61891 0.71221 0.3431 0.0
C192 C 0.61418 0.35837 0.17636 0.0
C193 C 0.60689 0.41726 0.13995 0.0
C194 C 0.61344 0.39021 0.22191 0.0
C195 C 0.60532 0.48169 0.23221 0.0
C196 C 0.5979 0.54055 0.19573 0.0
C197 C 0.59871 0.50867 0.15003 0.0
C198 C 0.59926 0.48787 0.363 0.0
C199 C 0.60661 0.58037 0.37301 0.0
C200 C 0.59854 0.45606 0.31729 0.0
C201 C 0.60522 0.51608 0.28072 0.0
C202 C 0.61245 0.60874 0.29093 0.0
C203 C 0.6131 0.64051 0.3365 0.0
H204 H 0.40031 0.71799 0.16886 0.0
H205 H 0.38001 0.43834 0.12465 0.0
H206 H 0.4025 0.66365 0.24838 0.0
H207 H 0.38067 0.38455 0.2045 0.0
H208 H 0.4022 0.28993 0.34632 0.0
H209 H 0.40432 0.34553 0.26708 0.0
H210 H 0.37927 0.62034 0.31118 0.0
H211 H 0.3787 0.56542 0.39097 0.0
C212 C 0.39617 0.64484 0.17633 0.0
C213 C 0.39 0.58224 0.14072 0.0
C214 C 0.39721 0.61374 0.22201 0.0
C215 C 0.39162 0.51966 0.23328 0.0
C216 C 0.38555 0.45703 0.19732 0.0
C217 C 0.38501 0.4878 0.15148 0.0
C218 C 0.39732 0.36244 0.33898 0.0
C219 C 0.39025 0.42345 0.37463 0.0
C220 C 0.39833 0.39424 0.29345 0.0
C221 C 0.39174 0.48736 0.28228 0.0
C222 C 0.38487 0.54863 0.3183 0.0
C223 C 0.38438 0.51722 0.36407 0.0
H224 H 0.40477 0.7124 0.84671 0.0
H225 H 0.38276 0.43403 0.88991 0.0
H226 H 0.40809 0.65776 0.76743 0.0
H227 H 0.38465 0.3799 0.8101 0.0
H228 H 0.4062 0.286 0.66801 0.0
H229 H 0.40877 0.34044 0.74749 0.0
H230 H 0.38447 0.61701 0.70459 0.0
H231 H 0.38332 0.56326 0.62475 0.0
C232 C 0.40055 0.63939 0.83909 0.0
C233 C 0.39344 0.57739 0.87432 0.0
C234 C 0.40225 0.60815 0.79354 0.0
C235 C 0.39641 0.51452 0.78195 0.0
C236 C 0.38967 0.4521 0.81759 0.0
C237 C 0.38842 0.48305 0.86337 0.0
C238 C 0.40166 0.35872 0.67565 0.0
C239 C 0.39453 0.4205 0.64035 0.0
C240 C 0.40292 0.38981 0.7213 0.0
C241 C 0.39662 0.48303 0.73286 0.0
C242 C 0.38986 0.54519 0.69715 0.0
C243 C 0.38905 0.51444 0.65132 0.0
H244 H 0.58702 0.55386 0.89164 0.0
H245 H 0.61011 0.28183 0.84105 0.0
H246 H 0.58384 0.611 0.81226 0.0
H247 H 0.60779 0.33931 0.76224 0.0
H248 H 0.58578 0.44488 0.62172 0.0
H249 H 0.5822 0.38807 0.70111 0.0
H250 H 0.60997 0.65411 0.75092 0.0
H251 H 0.61269 0.71143 0.67212 0.0
C252 C 0.59139 0.50637 0.86357 0.0
C253 C 0.59891 0.41362 0.87255 0.0
C254 C 0.5897 0.5391 0.8181 0.0
C255 C 0.59566 0.4799 0.78073 0.0
C256 C 0.6027 0.38652 0.78995 0.0
C257 C 0.60423 0.35375 0.83526 0.0
C258 C 0.59093 0.4912 0.64975 0.0
C259 C 0.5996 0.58235 0.64071 0.0
C260 C 0.58899 0.45865 0.69522 0.0
C261 C 0.59585 0.51641 0.73253 0.0
C262 C 0.60413 0.60816 0.72326 0.0
C263 C 0.6059 0.64079 0.67796 0.0
H264 H 0.08988 0.05068 0.12156 0.0
H265 H 0.11811 0.78342 0.16847 0.0
H266 H 0.088 0.10586 0.2014 0.0
H267 H 0.1169 0.83912 0.2478 0.0
H268 H 0.09258 0.93649 0.3896 0.0
H269 H 0.09023 0.88042 0.30993 0.0
H270 H 0.11516 0.15197 0.26166 0.0
H271 H 0.11686 0.20834 0.34078 0.0
C272 C 0.09573 0.00392 0.14891 0.0
C273 C 0.1042 0.91295 0.13881 0.0
C274 C 0.09475 0.03554 0.1946 0.0
C275 C 0.10233 0.97689 0.23102 0.0
C276 C 0.11057 0.88557 0.22074 0.0
C277 C 0.11144 0.85393 0.17519 0.0
C278 C 0.09746 0.98407 0.36187 0.0
C279 C 0.10496 0.0766 0.37139 0.0
C280 C 0.09622 0.95197 0.31628 0.0
C281 C 0.10252 0.01175 0.27938 0.0
C282 C 0.10981 0.10453 0.2891 0.0
C283 C 0.11098 0.1366 0.33454 0.0
H284 H 0.87572 0.78129 0.34527 0.0
H285 H 0.89962 0.05475 0.39246 0.0
H286 H 0.87645 0.83698 0.26593 0.0
H287 H 0.90098 0.11018 0.31258 0.0
H288 H 0.87246 0.20538 0.1718 0.0
H289 H 0.87374 0.14961 0.25111 0.0
H290 H 0.90306 0.88366 0.20461 0.0
H291 H 0.90115 0.93898 0.12477 0.0
C292 C 0.8813 0.85326 0.33863 0.0
C293 C 0.88753 0.91386 0.3751 0.0
C294 C 0.8819 0.88495 0.29305 0.0
C295 C 0.88881 0.97797 0.2828 0.0
C296 C 0.89528 0.03841 0.31933 0.0
C297 C 0.89461 0.00668 0.36505 0.0
C298 C 0.87919 0.13496 0.17847 0.0
C299 C 0.88663 0.07635 0.14206 0.0
C300 C 0.88011 0.10329 0.22403 0.0
C301 C 0.88857 0.0123 0.23431 0.0
C302 C 0.89617 0.95377 0.19784 0.0
C303 C 0.89517 0.98545 0.15213 0.0
H304 H 0.90754 0.04997 0.62395 0.0
H305 H 0.88088 0.78266 0.67403 0.0
H306 H 0.91091 0.10651 0.7034 0.0
H307 H 0.88339 0.83972 0.75288 0.0
H308 H 0.90623 0.93982 0.89363 0.0
H309 H 0.9095 0.88308 0.81421 0.0
H310 H 0.88507 0.1543 0.76446 0.0
H311 H 0.88265 0.21142 0.84331 0.0
C312 C 0.90239 0.00344 0.65192 0.0
C313 C 0.89387 0.91214 0.6428 0.0
C314 C 0.90421 0.03582 0.69742 0.0
C315 C 0.89737 0.97774 0.73464 0.0
C316 C 0.88921 0.88588 0.72528 0.0
C317 C 0.88757 0.85341 0.67995 0.0
C318 C 0.90176 0.98729 0.86561 0.0
C319 C 0.89408 0.0798 0.87467 0.0
C320 C 0.90352 0.95479 0.82012 0.0
C321 C 0.89746 0.01401 0.78283 0.0
C322 C 0.89024 0.10713 0.79212 0.0
C323 C 0.88866 0.13968 0.83745 0.0
H324 H 0.08811 0.05493 0.88965 0.0
H325 H 0.1115 0.7826 0.83989 0.0
H326 H 0.08523 0.11141 0.8101 0.0
H327 H 0.10941 0.83939 0.76095 0.0
H328 H 0.08674 0.94314 0.62046 0.0
H329 H 0.08331 0.88747 0.70005 0.0
H330 H 0.11184 0.15313 0.74872 0.0
H331 H 0.11446 0.20936 0.66969 0.0
C332 C 0.09262 0.00727 0.86174 0.0
C333 C 0.10012 0.91461 0.87096 0.0
C334 C 0.09109 0.03959 0.8162 0.0
C335 C 0.09715 0.97998 0.77907 0.0
C336 C 0.10424 0.8868 0.78852 0.0
C337 C 0.10564 0.85446 0.83389 0.0
C338 C 0.09211 0.9896 0.64827 0.0
C339 C 0.10094 0.08033 0.63889 0.0
C340 C 0.09025 0.95772 0.69384 0.0
C341 C 0.09735 0.01578 0.73084 0.0
C342 C 0.10583 0.10708 0.72124 0.0
C343 C 0.10753 0.13904 0.67584 0.0
H344 H 0.42607 0.98379 0.99244 0.0
H345 H 0.46776 0.73872 0.02991 0.0
H346 H 0.4623 0.0798 0.99268 0.0
H347 H 0.5038 0.83495 0.03204 0.0
H348 H 0.56721 0.01263 0.98365 0.0
H349 H 0.53111 0.91564 0.98329 0.0
H350 H 0.49111 0.14713 0.04274 0.0
H351 H 0.52692 0.24468 0.04124 0.0
C352 C 0.44296 0.95074 0.00114 0.0
C353 C 0.44412 0.8539 0.01104 0.0
C354 C 0.46372 0.00575 0.00156 0.0
C355 C 0.48603 0.96518 0.0124 0.0
C356 C 0.48704 0.86828 0.02274 0.0
C357 C 0.46635 0.81321 0.02184 0.0
C358 C 0.55068 0.04242 0.99671 0.0
C359 C 0.54982 0.13614 0.0123 0.0
C360 C 0.53001 0.98684 0.99674 0.0
C361 C 0.50813 0.02362 0.01285 0.0
C362 C 0.50749 0.11703 0.0292 0.0
C363 C 0.52806 0.17278 0.02868 0.0
H364 H 0.56834 0.9861 0.52816 0.0
H365 H 0.52668 0.75081 0.47794 0.0
H366 H 0.53238 0.08405 0.5293 0.0
H367 H 0.491 0.84906 0.47733 0.0
H368 H 0.42711 0.01821 0.52816 0.0
H369 H 0.46325 0.92162 0.52826 0.0
H370 H 0.50432 0.16108 0.48029 0.0
H371 H 0.46837 0.25811 0.48195 0.0
C372 C 0.55154 0.95571 0.51694 0.0
C373 C 0.55027 0.86091 0.50311 0.0
C374 C 0.53094 0.01182 0.51736 0.0
C375 C 0.50873 0.97439 0.50354 0.0
C376 C 0.50766 0.87976 0.48908 0.0
C377 C 0.52816 0.82359 0.48909 0.0
C378 C 0.44388 0.04998 0.51766 0.0
C379 C 0.44495 0.14555 0.5051 0.0
C380 C 0.46458 0.99462 0.51745 0.0
C381 C 0.48674 0.03349 0.50422 0.0
C382 C 0.48768 0.12916 0.49142 0.0
C383 C 0.46704 0.18464 0.49205 0.0
H384 H 0.02563 0.75163 0.03231 0.0
H385 H 0.0671 0.50981 0.98924 0.0
H386 H 0.98978 0.6546 0.03517 0.0
H387 H 0.03097 0.41292 0.99023 0.0
H388 H 0.96675 0.24512 0.03978 0.0
H389 H 0.00266 0.34221 0.04062 0.0
H390 H 0.96205 0.57716 0.98625 0.0
H391 H 0.9259 0.48059 0.98724 0.0
C392 C 0.02703 0.67766 0.02317 0.0
C393 C 0.04913 0.63815 0.01051 0.0
C394 C 0.00643 0.62214 0.02449 0.0
C395 C 0.0074 0.52598 0.01268 0.0
C396 C 0.02961 0.48642 0.00017 0.0
C397 C 0.0503 0.5419 -0.00066 0.0
C398 C 0.9655 0.31768 0.0282 0.0
C399 C 0.94356 0.35545 0.01345 0.0
C400 C 0.98612 0.37316 0.02834 0.0
C401 C 0.98533 0.46745 0.01329 0.0
C402 C 0.96327 0.50525 -0.00128 0.0
C403 C 0.94257 0.44992 -0.00095 0.0
H404 H 0.06822 0.48175 0.52632 0.0
H405 H 0.02653 0.2435 0.47963 0.0
H406 H 0.03207 0.57858 0.52805 0.0
H407 H 0.99065 0.34058 0.47957 0.0
H408 H 0.92686 0.51127 0.53009 0.0
H409 H 0.96308 0.41493 0.53026 0.0
H410 H 0.00368 0.65275 0.47893 0.0
H411 H 0.96771 0.74947 0.48054 0.0
C412 C 0.05136 0.45046 0.51602 0.0
C413 C 0.05015 0.35522 0.50294 0.0
C414 C 0.03066 0.5059 0.51678 0.0
C415 C 0.0084 0.46736 0.50402 0.0
C416 C 0.00736 0.37218 0.49046 0.0
C417 C 0.02798 0.31668 0.49015 0.0
C418 C 0.94355 0.54267 0.51884 0.0
C419 C 0.9445 0.63772 0.50536 0.0
C420 C 0.96429 0.48749 0.5187 0.0
C421 C 0.98634 0.52607 0.50461 0.0
C422 C 0.98714 0.62113 0.49078 0.0
C423 C 0.96647 0.67641 0.49136 0.0
loop_
_geom_bond_atom_site_label_1
_geom_bond_atom_site_label_2
_geom_bond_distance
_geom_bond_site_symmetry_2
_ccdc_geom_bond_type
In0 O1 2.294 1_554 S
In0 O2 2.326 1_554 S
In0 O6 2.266 . S
In0 O7 2.326 . S
In0 O8 2.266 . S
In0 O9 2.326 . S
In0 O11 2.294 . S
In0 O12 2.326 . S
O1 In0 2.294 1_556 S
O1 C10 1.240 . S
O2 In0 2.326 1_556 S
O2 C10 1.252 . S
C3 O6 1.252 . S
C3 O7 1.260 . S
C4 O11 1.240 1_556 S
C4 O12 1.252 1_556 S
C5 O8 1.252 . S
C5 O9 1.260 . S
O6 In0 2.266 . S
O6 C3 1.252 . S
O7 In0 2.326 . S
O7 C3 1.260 . S
O8 In0 2.266 . S
O8 C5 1.252 . S
O9 In0 2.326 . S
O9 C5 1.260 . S
C10 O1 1.240 . S
C10 O2 1.252 . S
O11 In0 2.294 . S
O11 C4 1.240 1_554 S
O12 In0 2.326 . S
O12 C4 1.252 1_554 S
In13 O14 2.294 . S
In13 O15 2.326 . S
In13 O19 2.266 . S
In13 O20 2.326 . S
In13 O21 2.266 . S
In13 O22 2.326 . S
In13 O24 2.294 1_554 S
In13 O25 2.326 1_554 S
O14 In13 2.294 . S
O14 C23 1.240 1_554 S
O15 In13 2.326 . S
O15 C23 1.252 1_554 S
C16 O19 1.252 . S
C16 O20 1.260 . S
C17 O24 1.240 . S
C17 O25 1.252 . S
C18 O21 1.252 . S
C18 O22 1.260 . S
O19 In13 2.266 . S
O19 C16 1.252 . S
O20 In13 2.326 . S
O20 C16 1.260 . S
O21 In13 2.266 . S
O21 C18 1.252 . S
O22 In13 2.326 . S
O22 C18 1.260 . S
C23 O14 1.240 1_556 S
C23 O15 1.252 1_556 S
O24 In13 2.294 1_556 S
O24 C17 1.240 . S
O25 In13 2.326 1_556 S
O25 C17 1.252 . S
In26 O27 2.294 . S
In26 O28 2.326 . S
In26 O32 2.266 . S
In26 O33 2.326 . S
In26 O34 2.266 . S
In26 O35 2.326 . S
In26 O37 2.294 . S
In26 O38 2.326 . S
O27 In26 2.294 . S
O27 C36 1.240 . S
O28 In26 2.326 . S
O28 C36 1.252 . S
C29 O32 1.252 . S
C29 O33 1.260 . S
C30 O37 1.240 . S
C30 O38 1.252 . S
C31 O34 1.252 . S
C31 O35 1.260 . S
O32 In26 2.266 . S
O32 C29 1.252 . S
O33 In26 2.326 . S
O33 C29 1.260 . S
O34 In26 2.266 . S
O34 C31 1.252 . S
O35 In26 2.326 . S
O35 C31 1.260 . S
C36 O27 1.240 . S
C36 O28 1.252 . S
O37 In26 2.294 . S
O37 C30 1.240 . S
O38 In26 2.326 . S
O38 C30 1.252 . S
In39 O40 2.294 . S
In39 O41 2.326 . S
In39 O45 2.266 . S
In39 O46 2.326 . S
In39 O47 2.266 . S
In39 O48 2.326 . S
In39 O50 2.294 . S
In39 O51 2.326 . S
O40 In39 2.294 . S
O40 C49 1.240 . S
O41 In39 2.326 . S
O41 C49 1.252 . S
C42 O45 1.252 . S
C42 O46 1.260 . S
C43 O50 1.240 . S
C43 O51 1.252 . S
C44 O47 1.252 . S
C44 O48 1.260 . S
O45 In39 2.266 . S
O45 C42 1.252 . S
O46 In39 2.326 . S
O46 C42 1.260 . S
O47 In39 2.266 . S
O47 C44 1.252 . S
O48 In39 2.326 . S
O48 C44 1.260 . S
C49 O40 1.240 . S
C49 O41 1.252 . S
O50 In39 2.294 . S
O50 C43 1.240 . S
O51 In39 2.326 . S
O51 C43 1.252 . S
In52 O53 2.294 . S
In52 O54 2.326 . S
In52 O58 2.266 . S
In52 O59 2.326 . S
In52 O60 2.266 . S
In52 O61 2.326 . S
In52 O63 2.294 1_554 S
In52 O64 2.326 1_554 S
O53 In52 2.294 . S
O53 C62 1.240 1_554 S
O54 In52 2.326 . S
O54 C62 1.252 1_554 S
C55 O58 1.252 . S
C55 O59 1.260 . S
C56 O63 1.240 . S
C56 O64 1.252 . S
C57 O60 1.252 . S
C57 O61 1.260 . S
O58 In52 2.266 . S
O58 C55 1.252 . S
O59 In52 2.326 . S
O59 C55 1.260 . S
O60 In52 2.266 . S
O60 C57 1.252 . S
O61 In52 2.326 . S
O61 C57 1.260 . S
C62 O53 1.240 1_556 S
C62 O54 1.252 1_556 S
O63 In52 2.294 1_556 S
O63 C56 1.240 . S
O64 In52 2.326 1_556 S
O64 C56 1.252 . S
In65 O66 2.294 1_554 S
In65 O67 2.326 1_554 S
In65 O71 2.266 . S
In65 O72 2.326 . S
In65 O73 2.266 . S
In65 O74 2.326 . S
In65 O76 2.294 . S
In65 O77 2.326 . S
O66 In65 2.294 1_556 S
O66 C75 1.240 . S
O67 In65 2.326 1_556 S
O67 C75 1.252 . S
C68 O71 1.252 . S
C68 O72 1.260 . S
C69 O76 1.240 1_556 S
C69 O77 1.252 1_556 S
C70 O73 1.252 . S
C70 O74 1.260 . S
O71 In65 2.266 . S
O71 C68 1.252 . S
O72 In65 2.326 . S
O72 C68 1.260 . S
O73 In65 2.266 . S
O73 C70 1.252 . S
O74 In65 2.326 . S
O74 C70 1.260 . S
C75 O66 1.240 . S
C75 O67 1.252 . S
O76 In65 2.294 . S
O76 C69 1.240 1_554 S
O77 In65 2.326 . S
O77 C69 1.252 1_554 S
In78 O79 2.294 . S
In78 O80 2.326 . S
In78 O84 2.266 . S
In78 O85 2.326 . S
In78 O86 2.266 . S
In78 O87 2.326 . S
In78 O89 2.294 . S
In78 O90 2.326 . S
O79 In78 2.294 . S
O79 C88 1.240 . S
O80 In78 2.326 . S
O80 C88 1.252 . S
C81 O84 1.252 . S
C81 O85 1.260 . S
C82 O89 1.240 . S
C82 O90 1.252 . S
C83 O86 1.252 . S
C83 O87 1.260 . S
O84 In78 2.266 . S
O84 C81 1.252 . S
O85 In78 2.326 . S
O85 C81 1.260 . S
O86 In78 2.266 . S
O86 C83 1.252 . S
O87 In78 2.326 . S
O87 C83 1.260 . S
C88 O79 1.240 . S
C88 O80 1.252 . S
O89 In78 2.294 . S
O89 C82 1.240 . S
O90 In78 2.326 . S
O90 C82 1.252 . S
In91 O92 2.294 . S
In91 O93 2.326 . S
In91 O97 2.266 . S
In91 O98 2.326 . S
In91 O99 2.266 . S
In91 O100 2.326 . S
In91 O102 2.294 . S
In91 O103 2.326 . S
O92 In91 2.294 . S
O92 C101 1.240 . S
O93 In91 2.326 . S
O93 C101 1.252 . S
C94 O97 1.252 . S
C94 O98 1.260 . S
C95 O102 1.240 . S
C95 O103 1.252 . S
C96 O99 1.252 . S
C96 O100 1.260 . S
O97 In91 2.266 . S
O97 C94 1.252 . S
O98 In91 2.326 . S
O98 C94 1.260 . S
O99 In91 2.266 . S
O99 C96 1.252 . S
O100 In91 2.326 . S
O100 C96 1.260 . S
C101 O92 1.240 . S
C101 O93 1.252 . S
O102 In91 2.294 . S
O102 C95 1.240 . S
O103 In91 2.326 . S
O103 C95 1.252 . S
H104 C112 0.950 . S
H105 C117 0.950 . S
H106 C114 0.950 . S
H107 C116 0.950 . S
H108 C118 0.950 . S
H109 C120 0.950 . S
H110 C122 0.950 . S
H111 C123 0.950 . S
C112 H104 0.950 . S
C112 C113 1.386 . S
C112 C114 1.391 . S
C113 C112 1.386 . S
C113 C117 1.393 1_554 S
C114 H106 0.950 . S
C114 C112 1.391 . S
C114 C115 1.400 . S
C115 C114 1.400 . S
C115 C116 1.398 1_554 S
C115 C121 1.491 . S
C116 H107 0.950 . S
C116 C115 1.398 1_556 S
C116 C117 1.391 . S
C117 H105 0.950 . S
C117 C113 1.393 1_556 S
C117 C116 1.391 . S
C118 H108 0.950 . S
C118 C119 1.386 1_556 S
C118 C120 1.391 . S
C119 C118 1.386 1_554 S
C119 C123 1.393 . S
C120 H109 0.950 . S
C120 C118 1.391 . S
C120 C121 1.400 1_556 S
C121 C115 1.491 . S
C121 C120 1.400 1_554 S
C121 C122 1.398 . S
C122 H110 0.950 . S
C122 C121 1.398 . S
C122 C123 1.391 . S
C123 H111 0.950 . S
C123 C119 1.393 . S
C123 C122 1.391 . S
H124 C132 0.950 . S
H125 C137 0.950 . S
H126 C134 0.950 . S
H127 C136 0.950 . S
H128 C138 0.950 . S
H129 C140 0.950 . S
H130 C142 0.950 . S
H131 C143 0.950 . S
C132 H124 0.950 . S
C132 C133 1.386 1_556 S
C132 C134 1.391 . S
C133 C132 1.386 1_554 S
C133 C137 1.393 . S
C134 H126 0.950 . S
C134 C132 1.391 . S
C134 C135 1.400 1_556 S
C135 C134 1.400 1_554 S
C135 C136 1.398 . S
C135 C141 1.491 . S
C136 H127 0.950 . S
C136 C135 1.398 . S
C136 C137 1.391 . S
C137 H125 0.950 . S
C137 C133 1.393 . S
C137 C136 1.391 . S
C138 H128 0.950 . S
C138 C139 1.386 . S
C138 C140 1.391 . S
C139 C138 1.386 . S
C139 C143 1.393 1_554 S
C140 H129 0.950 . S
C140 C138 1.391 . S
C140 C141 1.400 . S
C141 C135 1.491 . S
C141 C140 1.400 . S
C141 C142 1.398 1_554 S
C142 H130 0.950 . S
C142 C141 1.398 1_556 S
C142 C143 1.391 . S
C143 H131 0.950 . S
C143 C139 1.393 1_556 S
C143 C142 1.391 . S
H144 C152 0.950 . S
H145 C157 0.950 . S
H146 C154 0.950 . S
H147 C156 0.950 . S
H148 C158 0.950 . S
H149 C160 0.950 . S
H150 C162 0.950 . S
H151 C163 0.950 . S
C152 H144 0.950 . S
C152 C153 1.386 . S
C152 C154 1.391 . S
C153 C152 1.386 . S
C153 C157 1.393 . S
C154 H146 0.950 . S
C154 C152 1.391 . S
C154 C155 1.400 . S
C155 C154 1.400 . S
C155 C156 1.398 . S
C155 C161 1.491 . S
C156 H147 0.950 . S
C156 C155 1.398 . S
C156 C157 1.391 . S
C157 H145 0.950 . S
C157 C153 1.393 . S
C157 C156 1.391 . S
C158 H148 0.950 . S
C158 C159 1.386 . S
C158 C160 1.391 . S
C159 C158 1.386 . S
C159 C163 1.393 . S
C160 H149 0.950 . S
C160 C158 1.391 . S
C160 C161 1.400 . S
C161 C155 1.491 . S
C161 C160 1.400 . S
C161 C162 1.398 . S
C162 H150 0.950 . S
C162 C161 1.398 . S
C162 C163 1.391 . S
C163 H151 0.950 . S
C163 C159 1.393 . S
C163 C162 1.391 . S
H164 C172 0.950 . S
H165 C177 0.950 . S
H166 C174 0.950 . S
H167 C176 0.950 . S
H168 C178 0.950 . S
H169 C180 0.950 . S
H170 C182 0.950 . S
H171 C183 0.950 . S
C172 H164 0.950 . S
C172 C173 1.386 . S
C172 C174 1.391 . S
C173 C172 1.386 . S
C173 C177 1.393 . S
C174 H166 0.950 . S
C174 C172 1.391 . S
C174 C175 1.400 . S
C175 C174 1.400 . S
C175 C176 1.398 . S
C175 C181 1.491 . S
C176 H167 0.950 . S
C176 C175 1.398 . S
C176 C177 1.391 . S
C177 H165 0.950 . S
C177 C173 1.393 . S
C177 C176 1.391 . S
C178 H168 0.950 . S
C178 C179 1.386 . S
C178 C180 1.391 . S
C179 C178 1.386 . S
C179 C183 1.393 . S
C180 H169 0.950 . S
C180 C178 1.391 . S
C180 C181 1.400 . S
C181 C175 1.491 . S
C181 C180 1.400 . S
C181 C182 1.398 . S
C182 H170 0.950 . S
C182 C181 1.398 . S
C182 C183 1.391 . S
C183 H171 0.950 . S
C183 C179 1.393 . S
C183 C182 1.391 . S
H184 C192 0.950 . S
H185 C197 0.950 . S
H186 C194 0.950 . S
H187 C196 0.950 . S
H188 C198 0.950 . S
H189 C200 0.950 . S
H190 C202 0.950 . S
H191 C203 0.950 . S
C192 H184 0.950 . S
C192 C193 1.386 . S
C192 C194 1.391 . S
C193 C192 1.386 . S
C193 C197 1.393 . S
C194 H186 0.950 . S
C194 C192 1.391 . S
C194 C195 1.400 . S
C195 C194 1.400 . S
C195 C196 1.398 . S
C195 C201 1.491 . S
C196 H187 0.950 . S
C196 C195 1.398 . S
C196 C197 1.391 . S
C197 H185 0.950 . S
C197 C193 1.393 . S
C197 C196 1.391 . S
C198 H188 0.950 . S
C198 C199 1.386 . S
C198 C200 1.391 . S
C199 C198 1.386 . S
C199 C203 1.393 . S
C200 H189 0.950 . S
C200 C198 1.391 . S
C200 C201 1.400 . S
C201 C195 1.491 . S
C201 C200 1.400 . S
C201 C202 1.398 . S
C202 H190 0.950 . S
C202 C201 1.398 . S
C202 C203 1.391 . S
C203 H191 0.950 . S
C203 C199 1.393 . S
C203 C202 1.391 . S
H204 C212 0.950 . S
H205 C217 0.950 . S
H206 C214 0.950 . S
H207 C216 0.950 . S
H208 C218 0.950 . S
H209 C220 0.950 . S
H210 C222 0.950 . S
H211 C223 0.950 . S
C212 H204 0.950 . S
C212 C213 1.386 . S
C212 C214 1.391 . S
C213 C212 1.386 . S
C213 C217 1.393 . S
C214 H206 0.950 . S
C214 C212 1.391 . S
C214 C215 1.400 . S
C215 C214 1.400 . S
C215 C216 1.398 . S
C215 C221 1.491 . S
C216 H207 0.950 . S
C216 C215 1.398 . S
C216 C217 1.391 . S
C217 H205 0.950 . S
C217 C213 1.393 . S
C217 C216 1.391 . S
C218 H208 0.950 . S
C218 C219 1.386 . S
C218 C220 1.391 . S
C219 C218 1.386 . S
C219 C223 1.393 . S
C220 H209 0.950 . S
C220 C218 1.391 . S
C220 C221 1.400 . S
C221 C215 1.491 . S
C221 C220 1.400 . S
C221 C222 1.398 . S
C222 H210 0.950 . S
C222 C221 1.398 . S
C222 C223 1.391 . S
C223 H211 0.950 . S
C223 C219 1.393 . S
C223 C222 1.391 . S
H224 C232 0.950 . S
H225 C237 0.950 . S
H226 C234 0.950 . S
H227 C236 0.950 . S
H228 C238 0.950 . S
H229 C240 0.950 . S
H230 C242 0.950 . S
H231 C243 0.950 . S
C232 H224 0.950 . S
C232 C233 1.386 . S
C232 C234 1.391 . S
C233 C232 1.386 . S
C233 C237 1.393 . S
C234 H226 0.950 . S
C234 C232 1.391 . S
C234 C235 1.400 . S
C235 C234 1.400 . S
C235 C236 1.398 . S
C235 C241 1.491 . S
C236 H227 0.950 . S
C236 C235 1.398 . S
C236 C237 1.391 . S
C237 H225 0.950 . S
C237 C233 1.393 . S
C237 C236 1.391 . S
C238 H228 0.950 . S
C238 C239 1.386 . S
C238 C240 1.391 . S
C239 C238 1.386 . S
C239 C243 1.393 . S
C240 H229 0.950 . S
C240 C238 1.391 . S
C240 C241 1.400 . S
C241 C235 1.491 . S
C241 C240 1.400 . S
C241 C242 1.398 . S
C242 H230 0.950 . S
C242 C241 1.398 . S
C242 C243 1.391 . S
C243 H231 0.950 . S
C243 C239 1.393 . S
C243 C242 1.391 . S
H244 C252 0.950 . S
H245 C257 0.950 . S
H246 C254 0.950 . S
H247 C256 0.950 . S
H248 C258 0.950 . S
H249 C260 0.950 . S
H250 C262 0.950 . S
H251 C263 0.950 . S
C252 H244 0.950 . S
C252 C253 1.386 . S
C252 C254 1.391 . S
C253 C252 1.386 . S
C253 C257 1.393 . S
C254 H246 0.950 . S
C254 C252 1.391 . S
C254 C255 1.400 . S
C255 C254 1.400 . S
C255 C256 1.398 . S
C255 C261 1.491 . S
C256 H247 0.950 . S
C256 C255 1.398 . S
C256 C257 1.391 . S
C257 H245 0.950 . S
C257 C253 1.393 . S
C257 C256 1.391 . S
C258 H248 0.950 . S
C258 C259 1.386 . S
C258 C260 1.391 . S
C259 C258 1.386 . S
C259 C263 1.393 . S
C260 H249 0.950 . S
C260 C258 1.391 . S
C260 C261 1.400 . S
C261 C255 1.491 . S
C261 C260 1.400 . S
C261 C262 1.398 . S
C262 H250 0.950 . S
C262 C261 1.398 . S
C262 C263 1.391 . S
C263 H251 0.950 . S
C263 C259 1.393 . S
C263 C262 1.391 . S
H264 C272 0.950 1_545 S
H265 C277 0.950 . S
H266 C274 0.950 . S
H267 C276 0.950 . S
H268 C278 0.950 1_565 S
H269 C280 0.950 . S
H270 C282 0.950 . S
H271 C283 0.950 . S
C272 H264 0.950 1_565 S
C272 C273 1.386 . S
C272 C274 1.391 1_565 S
C273 C272 1.386 . S
C273 C277 1.393 . S
C274 H266 0.950 . S
C274 C272 1.391 1_545 S
C274 C275 1.400 1_545 S
C275 C274 1.400 1_565 S
C275 C276 1.398 . S
C275 C281 1.491 1_565 S
C276 H267 0.950 . S
C276 C275 1.398 . S
C276 C277 1.391 . S
C277 H265 0.950 . S
C277 C273 1.393 . S
C277 C276 1.391 . S
C278 H268 0.950 1_545 S
C278 C279 1.386 . S
C278 C280 1.391 1_545 S
C279 C278 1.386 . S
C279 C283 1.393 . S
C280 H269 0.950 . S
C280 C278 1.391 1_565 S
C280 C281 1.400 1_565 S
C281 C275 1.491 1_545 S
C281 C280 1.400 1_545 S
C281 C282 1.398 . S
C282 H270 0.950 . S
C282 C281 1.398 . S
C282 C283 1.391 . S
C283 H271 0.950 . S
C283 C279 1.393 . S
C283 C282 1.391 . S
H284 C292 0.950 . S
H285 C297 0.950 1_545 S
H286 C294 0.950 . S
H287 C296 0.950 . S
H288 C298 0.950 . S
H289 C300 0.950 . S
H290 C302 0.950 . S
H291 C303 0.950 1_565 S
C292 H284 0.950 . S
C292 C293 1.386 . S
C292 C294 1.391 . S
C293 C292 1.386 . S
C293 C297 1.393 . S
C294 H286 0.950 . S
C294 C292 1.391 . S
C294 C295 1.400 . S
C295 C294 1.400 . S
C295 C296 1.398 1_565 S
C295 C301 1.491 1_565 S
C296 H287 0.950 . S
C296 C295 1.398 1_545 S
C296 C297 1.391 1_545 S
C297 H285 0.950 1_565 S
C297 C293 1.393 . S
C297 C296 1.391 1_565 S
C298 H288 0.950 . S
C298 C299 1.386 . S
C298 C300 1.391 . S
C299 C298 1.386 . S
C299 C303 1.392 . S
C300 H289 0.950 . S
C300 C298 1.391 . S
C300 C301 1.400 . S
C301 C295 1.491 1_545 S
C301 C300 1.400 . S
C301 C302 1.398 1_545 S
C302 H290 0.950 . S
C302 C301 1.398 1_565 S
C302 C303 1.391 1_565 S
C303 H291 0.950 1_545 S
C303 C299 1.392 . S
C303 C302 1.391 1_545 S
H304 C312 0.950 . S
H305 C317 0.950 . S
H306 C314 0.950 . S
H307 C316 0.950 . S
H308 C318 0.950 . S
H309 C320 0.950 . S
H310 C322 0.950 . S
H311 C323 0.950 . S
C312 H304 0.950 . S
C312 C313 1.386 1_545 S
C312 C314 1.391 . S
C313 C312 1.386 1_565 S
C313 C317 1.393 . S
C314 H306 0.950 . S
C314 C312 1.391 . S
C314 C315 1.400 1_545 S
C315 C314 1.400 1_565 S
C315 C316 1.398 . S
C315 C321 1.491 1_565 S
C316 H307 0.950 . S
C316 C315 1.398 . S
C316 C317 1.391 . S
C317 H305 0.950 . S
C317 C313 1.393 . S
C317 C316 1.391 . S
C318 H308 0.950 . S
C318 C319 1.386 1_565 S
C318 C320 1.391 . S
C319 C318 1.386 1_545 S
C319 C323 1.393 . S
C320 H309 0.950 . S
C320 C318 1.391 . S
C320 C321 1.400 1_565 S
C321 C315 1.491 1_545 S
C321 C320 1.400 1_545 S
C321 C322 1.398 . S
C322 H310 0.950 . S
C322 C321 1.398 . S
C322 C323 1.391 . S
C323 H311 0.950 . S
C323 C319 1.393 . S
C323 C322 1.391 . S
H324 C332 0.950 . S
H325 C337 0.950 . S
H326 C334 0.950 . S
H327 C336 0.950 . S
H328 C338 0.950 . S
H329 C340 0.950 . S
H330 C342 0.950 . S
H331 C343 0.950 . S
C332 H324 0.950 . S
C332 C333 1.386 1_545 S
C332 C334 1.391 . S
C333 C332 1.386 1_565 S
C333 C337 1.393 . S
C334 H326 0.950 . S
C334 C332 1.391 . S
C334 C335 1.400 1_545 S
C335 C334 1.400 1_565 S
C335 C336 1.398 . S
C335 C341 1.491 1_565 S
C336 H327 0.950 . S
C336 C335 1.398 . S
C336 C337 1.391 . S
C337 H325 0.950 . S
C337 C333 1.393 . S
C337 C336 1.391 . S
C338 H328 0.950 . S
C338 C339 1.386 1_565 S
C338 C340 1.391 . S
C339 C338 1.386 1_545 S
C339 C343 1.393 . S
C340 H329 0.950 . S
C340 C338 1.391 . S
C340 C341 1.400 1_565 S
C341 C335 1.491 1_545 S
C341 C340 1.400 1_545 S
C341 C342 1.398 . S
C342 H330 0.950 . S
C342 C341 1.398 . S
C342 C343 1.391 . S
C343 H331 0.950 . S
C343 C339 1.393 . S
C343 C342 1.391 . S
H344 C352 0.950 . S
H345 C357 0.950 . S
H346 C354 0.940 1_545 S
H347 C356 0.950 . S
H348 C358 0.950 . S
H349 C360 0.940 1_565 S
H350 C362 0.950 . S
H351 C363 0.950 . S
C352 H344 0.950 . S
C352 C353 1.387 . S
C352 C354 1.398 . S
C353 C352 1.387 . S
C353 C357 1.391 1_554 S
C354 H346 0.940 1_565 S
C354 C352 1.398 . S
C354 C355 1.401 1_554 S
C355 C354 1.401 1_556 S
C355 C356 1.401 . S
C355 C361 1.491 1_565 S
C356 H347 0.950 . S
C356 C355 1.401 . S
C356 C357 1.391 . S
C357 H345 0.950 . S
C357 C353 1.391 1_556 S
C357 C356 1.391 . S
C358 H348 0.950 . S
C358 C359 1.386 . S
C358 C360 1.398 . S
C359 C358 1.386 . S
C359 C363 1.393 1_556 S
C360 H349 0.940 1_545 S
C360 C358 1.398 . S
C360 C361 1.404 . S
C361 C355 1.491 1_545 S
C361 C360 1.404 . S
C361 C362 1.398 1_556 S
C362 H350 0.950 . S
C362 C361 1.398 1_554 S
C362 C363 1.391 . S
C363 H351 0.950 . S
C363 C359 1.393 1_554 S
C363 C362 1.391 . S
H364 C372 0.950 . S
H365 C377 0.950 . S
H366 C374 0.950 . S
H367 C376 0.950 . S
H368 C378 0.950 . S
H369 C380 0.950 . S
H370 C382 0.950 . S
H371 C383 0.950 . S
C372 H364 0.950 . S
C372 C373 1.386 . S
C372 C374 1.391 1_565 S
C373 C372 1.386 . S
C373 C377 1.393 . S
C374 H366 0.950 . S
C374 C372 1.391 1_545 S
C374 C375 1.400 1_545 S
C375 C374 1.400 1_565 S
C375 C376 1.398 . S
C375 C381 1.491 1_565 S
C376 H367 0.950 . S
C376 C375 1.398 . S
C376 C377 1.391 . S
C377 H365 0.950 . S
C377 C373 1.393 . S
C377 C376 1.391 . S
C378 H368 0.950 . S
C378 C379 1.386 . S
C378 C380 1.391 1_545 S
C379 C378 1.386 . S
C379 C383 1.393 . S
C380 H369 0.950 . S
C380 C378 1.391 1_565 S
C380 C381 1.400 1_565 S
C381 C375 1.491 1_545 S
C381 C380 1.400 1_545 S
C381 C382 1.398 . S
C382 H370 0.950 . S
C382 C381 1.398 . S
C382 C383 1.391 . S
C383 H371 0.950 . S
C383 C379 1.393 . S
C383 C382 1.391 . S
H384 C392 0.950 . S
H385 C397 0.950 . S
H386 C394 0.950 1_655 S
H387 C396 0.950 . S
H388 C398 0.950 . S
H389 C400 0.950 1_455 S
H390 C402 0.950 . S
H391 C403 0.950 . S
C392 H384 0.950 . S
C392 C393 1.386 . S
C392 C394 1.391 . S
C393 C392 1.386 . S
C393 C397 1.393 1_556 S
C394 H386 0.950 1_455 S
C394 C392 1.391 . S
C394 C395 1.400 . S
C395 C394 1.400 . S
C395 C396 1.398 1_556 S
C395 C401 1.491 1_455 S
C396 H387 0.950 . S
C396 C395 1.398 1_554 S
C396 C397 1.391 . S
C397 H385 0.950 . S
C397 C393 1.393 1_554 S
C397 C396 1.391 . S
C398 H388 0.950 . S
C398 C399 1.387 . S
C398 C400 1.391 . S
C399 C398 1.387 . S
C399 C403 1.391 1_554 S
C400 H389 0.950 1_655 S
C400 C398 1.391 . S
C400 C401 1.397 1_554 S
C401 C395 1.491 1_655 S
C401 C400 1.397 1_556 S
C401 C402 1.401 . S
C402 H390 0.950 . S
C402 C401 1.401 . S
C402 C403 1.391 . S
C403 H391 0.950 . S
C403 C399 1.391 1_556 S
C403 C402 1.391 . S
H404 C412 0.950 . S
H405 C417 0.950 . S
H406 C414 0.950 . S
H407 C416 0.950 1_655 S
H408 C418 0.950 . S
H409 C420 0.950 . S
H410 C422 0.950 1_455 S
H411 C423 0.950 . S
C412 H404 0.950 . S
C412 C413 1.386 . S
C412 C414 1.391 . S
C413 C412 1.386 . S
C413 C417 1.393 . S
C414 H406 0.950 . S
C414 C412 1.391 . S
C414 C415 1.400 . S
C415 C414 1.400 . S
C415 C416 1.398 . S
C415 C421 1.491 1_455 S
C416 H407 0.950 1_455 S
C416 C415 1.398 . S
C416 C417 1.391 . S
C417 H405 0.950 . S
C417 C413 1.393 . S
C417 C416 1.391 . S
C418 H408 0.950 . S
C418 C419 1.386 . S
C418 C420 1.391 . S
C419 C418 1.386 . S
C419 C423 1.393 . S
C420 H409 0.950 . S
C420 C418 1.391 . S
C420 C421 1.400 . S
C421 C415 1.491 1_655 S
C421 C420 1.400 . S
C421 C422 1.398 . S
C422 H410 0.950 1_655 S
C422 C421 1.398 . S
C422 C423 1.391 . S
C423 H411 0.950 . S
C423 C419 1.393 . S
C423 C422 1.391 . S
C113 C70 1.517 . S
C119 C5 1.515 . S
C133 C55 1.514 . S
C139 C16 1.512 . S
C153 C94 1.517 . S
C159 C31 1.513 . S
C173 C83 1.512 . S
C179 C42 1.514 . S
C193 C3 1.419 . S
C199 C29 1.419 . S
C213 C18 1.419 . S
C219 C44 1.419 . S
C233 C17 1.457 . S
C239 C43 1.453 . S
C253 C10 1.453 . S
C259 C36 1.459 . S
C273 C57 1.412 . S
C279 C81 1.411 . S
C293 C96 1.412 . S
C299 C68 1.413 . S
C313 C95 1.453 . S
C319 C75 1.459 . S
C333 C56 1.453 . S
C339 C88 1.458 . S
C353 C23 1.513 1_554 S
C359 C4 1.515 . S
C373 C30 1.513 . S
C379 C49 1.515 . S
C393 C62 1.514 . S
C399 C69 1.513 1_554 S
C413 C82 1.513 . S
C419 C101 1.515 . S
