# Generated by pormake.
# Topology uou, (4)-cn, num edge types: 1
# Building blocks:
#     Node 0, Type 0, BuildingBlock: QUQFOY_clean_sbu_3, # of connection points: 4
#     Node 1, Type 0, BuildingBlock: QUQFOY_clean_sbu_3, # of connection points: 4
#     Node 2, Type 0, BuildingBlock: QUQFOY_clean_sbu_3, # of connection points: 4
#     Node 3, Type 0, BuildingBlock: QUQFOY_clean_sbu_3, # of connection points: 4
#     Node 4, Type 0, BuildingBlock: QUQFOY_clean_sbu_3, # of connection points: 4
#     Node 5, Type 0, BuildingBlock: QUQFOY_clean_sbu_3, # of connection points: 4
#     Node 6, Type 0, BuildingBlock: QUQFOY_clean_sbu_3, # of connection points: 4
#     Node 7, Type 0, BuildingBlock: QUQFOY_clean_sbu_3, # of connection points: 4
#     Node 8, Type 0, BuildingBlock: QUQFOY_clean_sbu_3, # of connection points: 4
#     Node 9, Type 0, BuildingBlock: QUQFOY_clean_sbu_3, # of connection points: 4
#     Node 10, Type 0, BuildingBlock: QUQFOY_clean_sbu_3, # of connection points: 4
#     Node 11, Type 0, BuildingBlock: QUQFOY_clean_sbu_3, # of connection points: 4
#     Node 12, Type 0, BuildingBlock: QUQFOY_clean_sbu_3, # of connection points: 4
#     Node 13, Type 0, BuildingBlock: QUQFOY_clean_sbu_3, # of connection points: 4
#     Node 14, Type 0, BuildingBlock: QUQFOY_clean_sbu_3, # of connection points: 4
#     Node 15, Type 0, BuildingBlock: QUQFOY_clean_sbu_3, # of connection points: 4
#     Edge 16, Type (0, 0), BuildingBlock: EZIPEK_clean_linker_0, # of connection points: 2
#     Edge 17, Type (0, 0), BuildingBlock: EZIPEK_clean_linker_0, # of connection points: 2
#     Edge 18, Type (0, 0), BuildingBlock: EZIPEK_clean_linker_0, # of connection points: 2
#     Edge 19, Type (0, 0), BuildingBlock: EZIPEK_clean_linker_0, # of connection points: 2
#     Edge 20, Type (0, 0), BuildingBlock: EZIPEK_clean_linker_0, # of connection points: 2
#     Edge 21, Type (0, 0), BuildingBlock: EZIPEK_clean_linker_0, # of connection points: 2
#     Edge 22, Type (0, 0), BuildingBlock: EZIPEK_clean_linker_0, # of connection points: 2
#     Edge 23, Type (0, 0), BuildingBlock: EZIPEK_clean_linker_0, # of connection points: 2
#     Edge 24, Type (0, 0), BuildingBlock: EZIPEK_clean_linker_0, # of connection points: 2
#     Edge 25, Type (0, 0), BuildingBlock: EZIPEK_clean_linker_0, # of connection points: 2
#     Edge 26, Type (0, 0), BuildingBlock: EZIPEK_clean_linker_0, # of connection points: 2
#     Edge 27, Type (0, 0), BuildingBlock: EZIPEK_clean_linker_0, # of connection points: 2
#     Edge 28, Type (0, 0), BuildingBlock: EZIPEK_clean_linker_0, # of connection points: 2
#     Edge 29, Type (0, 0), BuildingBlock: EZIPEK_clean_linker_0, # of connection points: 2
#     Edge 30, Type (0, 0), BuildingBlock: EZIPEK_clean_linker_0, # of connection points: 2
#     Edge 31, Type (0, 0), BuildingBlock: EZIPEK_clean_linker_0, # of connection points: 2
#     Edge 32, Type (0, 0), BuildingBlock: EZIPEK_clean_linker_0, # of connection points: 2
#     Edge 33, Type (0, 0), BuildingBlock: EZIPEK_clean_linker_0, # of connection points: 2
#     Edge 34, Type (0, 0), BuildingBlock: EZIPEK_clean_linker_0, # of connection points: 2
#     Edge 35, Type (0, 0), BuildingBlock: EZIPEK_clean_linker_0, # of connection points: 2
#     Edge 36, Type (0, 0), BuildingBlock: EZIPEK_clean_linker_0, # of connection points: 2
#     Edge 37, Type (0, 0), BuildingBlock: EZIPEK_clean_linker_0, # of connection points: 2
#     Edge 38, Type (0, 0), BuildingBlock: EZIPEK_clean_linker_0, # of connection points: 2
#     Edge 39, Type (0, 0), BuildingBlock: EZIPEK_clean_linker_0, # of connection points: 2
#     Edge 40, Type (0, 0), BuildingBlock: EZIPEK_clean_linker_0, # of connection points: 2
#     Edge 41, Type (0, 0), BuildingBlock: EZIPEK_clean_linker_0, # of connection points: 2
#     Edge 42, Type (0, 0), BuildingBlock: EZIPEK_clean_linker_0, # of connection points: 2
#     Edge 43, Type (0, 0), BuildingBlock: EZIPEK_clean_linker_0, # of connection points: 2
#     Edge 44, Type (0, 0), BuildingBlock: EZIPEK_clean_linker_0, # of connection points: 2
#     Edge 45, Type (0, 0), BuildingBlock: EZIPEK_clean_linker_0, # of connection points: 2
#     Edge 46, Type (0, 0), BuildingBlock: EZIPEK_clean_linker_0, # of connection points: 2
#     Edge 47, Type (0, 0), BuildingBlock: EZIPEK_clean_linker_0, # of connection points: 2
# Relax obj value: 0.038
# Max RMSD: 0.066
# Mean RMSD: 0.066
data_MOF--net-uou--node1-QUQFOY_clean_sbu_3--edge1-EZIPEK_clean_linker_0
_symmetry_space_group_name_H-M    P1
_symmetry_Int_Tables_number       1
_symmetry_cell_setting            triclinic
loop_
_symmetry_equiv_pos_as_xyz
'x, y, z'
_cell_length_a     30.672979
_cell_length_b     30.394459
_cell_length_c     42.232233
_cell_angle_alpha  89.949189
_cell_angle_beta   90.072574
_cell_angle_gamma 89.850867
loop_
_atom_site_label
_atom_site_type_symbol
_atom_site_fract_x
_atom_site_fract_y
_atom_site_fract_z
_atom_type_partial_charge
C0 C 0.97494 0.02127 0.1449 0.0
O1 O 0.9419 0.01661 0.12711 0.0
Cd2 Cd 0.94383 0.03441 0.07183 0.0
O3 O 0.01202 0.03146 0.1336 0.0
Cd4 Cd 0.04725 0.04394 0.08176 0.0
C5 C -0.01122 0.13806 0.07883 0.0
O6 O 0.00361 -0.00338 0.04802 0.0
O7 O 0.04097 0.04735 0.02441 0.0
O8 O 0.10373 -0.00897 0.09636 0.0
C9 C 0.01667 0.01382 0.02238 0.0
O10 O 0.95628 0.11396 0.07179 0.0
C11 C 0.13544 0.01582 0.0892 0.0
O12 O 0.02599 0.12156 0.08541 0.0
O13 O 0.12647 0.05448 0.07962 0.0
C14 C 0.46664 0.94258 0.15135 0.0
O15 O 0.50167 0.94701 0.13569 0.0
Cd16 Cd 0.50607 0.93352 0.07971 0.0
O17 O 0.43076 0.93372 0.1376 0.0
Cd18 Cd 0.40069 0.92181 0.08417 0.0
C19 C 0.46248 0.8291 0.08155 0.0
O20 O 0.44732 0.97061 0.05386 0.0
O21 O 0.40995 0.92288 0.02716 0.0
O22 O 0.3427 0.973 0.09825 0.0
C23 C 0.43591 0.95524 0.02718 0.0
O24 O 0.49503 0.85418 0.07684 0.0
C25 C 0.31176 0.94809 0.08967 0.0
O26 O 0.42438 0.84451 0.08669 0.0
O27 O 0.32175 0.91018 0.07917 0.0
C28 C 0.47645 0.94109 0.28781 0.0
O29 O 0.44274 0.94528 0.30496 0.0
Cd30 Cd 0.44256 0.92857 0.36038 0.0
O31 O 0.51338 0.93147 0.29979 0.0
Cd32 Cd 0.54722 0.91941 0.35236 0.0
C33 C 0.48906 0.82503 0.35594 0.0
O34 O 0.50142 0.96762 0.38397 0.0
O35 O 0.53998 0.91971 0.40976 0.0
O36 O 0.60386 0.97154 0.33713 0.0
C37 C 0.51414 0.95229 0.41033 0.0
O38 O 0.45607 0.84919 0.36182 0.0
C39 C 0.63553 0.9473 0.34559 0.0
O40 O 0.52635 0.84149 0.34987 0.0
O41 O 0.62655 0.90928 0.35629 0.0
C42 C 0.96462 0.02547 0.28119 0.0
O43 O 0.00015 0.02279 0.2965 0.0
Cd44 Cd 0.0049 0.03815 0.35207 0.0
O45 O 0.92873 0.03365 0.29519 0.0
Cd46 Cd 0.89973 0.04488 0.34935 0.0
C47 C 0.95594 0.14084 0.35283 0.0
O48 O 0.94946 -0.00334 0.37811 0.0
O49 O 0.91137 0.04208 0.40629 0.0
O50 O 0.84264 -0.00787 0.33611 0.0
C51 C 0.9382 0.01038 0.40525 0.0
O52 O -0.00999 0.11711 0.35582 0.0
C53 C 0.81121 0.01621 0.34518 0.0
O54 O 0.91844 0.12362 0.34873 0.0
O55 O 0.82051 0.05428 0.35559 0.0
C56 C 0.97113 0.94014 0.7801 0.0
O57 O 0.00649 0.94275 0.79562 0.0
Cd58 Cd 0.01148 0.92897 0.8515 0.0
O59 O 0.93501 0.93267 0.79392 0.0
Cd60 Cd 0.90608 0.92156 0.84787 0.0
C61 C 0.96413 0.82636 0.85151 0.0
O62 O 0.95502 0.96957 0.87716 0.0
O63 O 0.91624 0.92408 0.90477 0.0
O64 O 0.84855 0.97396 0.83455 0.0
C65 C 0.94321 0.95555 0.90412 0.0
O66 O -0.00218 0.85011 0.85555 0.0
C67 C 0.81746 0.94979 0.84391 0.0
O68 O 0.92664 0.84328 0.84645 0.0
O69 O 0.82713 0.91171 0.85427 0.0
C70 C 0.48576 0.02315 0.78709 0.0
O71 O 0.45086 0.0187 0.80289 0.0
Cd72 Cd 0.44703 0.03246 0.85888 0.0
O73 O 0.52172 0.03213 0.80068 0.0
Cd74 Cd 0.55244 0.04421 0.85388 0.0
C75 C 0.49055 0.13692 0.85656 0.0
O76 O 0.5061 -0.00448 0.88446 0.0
O77 O 0.54388 0.04313 0.91097 0.0
O78 O 0.61004 -0.0071 0.83926 0.0
C79 C 0.51779 0.01087 0.91108 0.0
O80 O 0.45806 0.11183 0.86147 0.0
C81 C 0.64123 0.01769 0.84755 0.0
O82 O 0.52863 0.12151 0.85131 0.0
O83 O 0.63154 0.05562 0.85817 0.0
C84 C 0.47593 0.02393 0.65061 0.0
O85 O 0.5098 0.01971 0.63364 0.0
Cd86 Cd 0.51066 0.03617 0.57818 0.0
O87 O 0.43912 0.03353 0.63842 0.0
Cd88 Cd 0.40607 0.0454 0.58557 0.0
C89 C 0.46425 0.13975 0.58209 0.0
O90 O 0.45213 -0.00287 0.55417 0.0
O91 O 0.41417 0.04539 0.52825 0.0
O92 O 0.34911 -0.00689 0.5999 0.0
C93 C 0.43977 0.01262 0.52776 0.0
O94 O 0.49727 0.11555 0.57641 0.0
C95 C 0.31763 0.01757 0.5914 0.0
O96 O 0.4269 0.12334 0.58805 0.0
O97 O 0.32684 0.05575 0.58111 0.0
C98 C -0.01746 0.94324 0.6438 0.0
O99 O 0.94891 0.9481 0.6266 0.0
Cd100 Cd 0.94868 0.93169 0.57116 0.0
O101 O 0.01936 0.93334 0.63186 0.0
Cd102 Cd 0.05352 0.92176 0.57948 0.0
C103 C -0.00576 0.82783 0.5768 0.0
O104 O 0.00806 0.96966 0.5473 0.0
O105 O 0.04659 0.92136 0.52202 0.0
O106 O 0.11003 0.9741 0.59454 0.0
C107 C 0.02078 0.95396 0.52107 0.0
O108 O 0.96136 0.8522 0.5709 0.0
C109 C 0.14181 0.94928 0.58731 0.0
O110 O 0.03181 0.84413 0.58228 0.0
O111 O 0.13286 0.91091 0.57725 0.0
C112 C 0.48244 0.52441 0.15066 0.0
O113 O 0.44782 0.52049 0.13445 0.0
Cd114 Cd 0.44616 0.53797 0.07907 0.0
O115 O 0.51859 0.53412 0.13761 0.0
Cd116 Cd 0.55051 0.54587 0.08443 0.0
C117 C 0.49355 0.64126 0.08164 0.0
O118 O 0.50337 0.49787 0.05362 0.0
O119 O 0.54166 0.54509 0.02722 0.0
O120 O 0.60752 0.49326 0.0986 0.0
C121 C 0.51572 0.51274 0.02704 0.0
O122 O 0.45993 0.61734 0.07763 0.0
C123 C 0.63902 0.51786 0.09066 0.0
O124 O 0.53118 0.62422 0.08581 0.0
O125 O 0.62972 0.55614 0.0805 0.0
C126 C 0.97369 0.44074 0.15159 0.0
O127 O 0.00769 0.44384 0.13464 0.0
Cd128 Cd 0.00855 0.42812 0.07907 0.0
O129 O 0.93664 0.43233 0.1394 0.0
Cd130 Cd 0.9034 0.42125 0.08656 0.0
C131 C 0.96013 0.32573 0.08204 0.0
O132 O 0.95058 0.46882 0.05561 0.0
O133 O 0.91065 0.42309 0.02919 0.0
O134 O 0.84665 0.47369 0.10147 0.0
C135 C 0.93762 0.45458 0.02903 0.0
O136 O -0.00639 0.3492 0.07655 0.0
C137 C 0.81514 0.44956 0.09283 0.0
O138 O 0.92313 0.34292 0.08823 0.0
O139 O 0.82428 0.41154 0.08218 0.0
C140 C -0.01608 0.44245 0.28805 0.0
O141 O 0.94912 0.44758 0.30388 0.0
Cd142 Cd 0.94524 0.43373 0.35987 0.0
O143 O 0.01977 0.43279 0.30162 0.0
Cd144 Cd 0.05025 0.42002 0.35481 0.0
C145 C -0.01308 0.32845 0.35699 0.0
O146 O 0.00477 0.46953 0.38554 0.0
O147 O 0.04159 0.42073 0.41191 0.0
O148 O 0.10844 0.47073 0.34087 0.0
C149 C 0.01629 0.45377 0.41212 0.0
O150 O 0.9548 0.35407 0.36217 0.0
C151 C 0.1394 0.44513 0.34862 0.0
O152 O 0.0252 0.34323 0.35186 0.0
O153 O 0.12927 0.40696 0.35855 0.0
C154 C 0.47334 0.52184 0.287 0.0
O155 O 0.50747 0.51848 0.30385 0.0
Cd156 Cd 0.50833 0.53473 0.35936 0.0
O157 O 0.43646 0.53071 0.29928 0.0
Cd158 Cd 0.40337 0.54206 0.35205 0.0
C159 C 0.45994 0.63747 0.35547 0.0
O160 O 0.45052 0.49477 0.38347 0.0
O161 O 0.41151 0.54207 0.40933 0.0
O162 O 0.34732 0.48876 0.33773 0.0
C163 C 0.43781 0.50987 0.40988 0.0
O164 O 0.49341 0.61382 0.3611 0.0
C165 C 0.31544 0.51275 0.34606 0.0
O166 O 0.42284 0.62041 0.34956 0.0
O167 O 0.32401 0.55109 0.35629 0.0
C168 C 0.47041 0.44128 0.78623 0.0
O169 O 0.50522 0.44501 0.80225 0.0
Cd170 Cd 0.50746 0.4279 0.85767 0.0
O171 O 0.43432 0.4319 0.7995 0.0
Cd172 Cd 0.40314 0.4205 0.85299 0.0
C173 C 0.45964 0.32481 0.85577 0.0
O174 O 0.45083 0.46848 0.88342 0.0
O175 O 0.41286 0.4213 0.9101 0.0
O176 O 0.34618 0.47337 0.83912 0.0
C177 C 0.43876 0.45369 0.91009 0.0
O178 O 0.49339 0.34863 0.85953 0.0
C179 C 0.31472 0.44909 0.84759 0.0
O180 O 0.42205 0.34199 0.85169 0.0
O181 O 0.32392 0.4109 0.85794 0.0
C182 C -0.0197 0.52262 0.78892 0.0
O183 O 0.94637 0.51794 0.80574 0.0
Cd184 Cd 0.94514 0.53438 0.86113 0.0
O185 O 0.01687 0.53245 0.80127 0.0
Cd186 Cd 0.04953 0.54393 0.85418 0.0
C187 C -0.0095 0.6381 0.85629 0.0
O188 O 0.0039 0.49585 0.88583 0.0
O189 O 0.04062 0.54519 0.9114 0.0
O190 O 0.10693 0.49159 0.84062 0.0
C191 C 0.01576 0.51197 0.91213 0.0
O192 O 0.9575 0.61393 0.86182 0.0
C193 C 0.13825 0.51665 0.84826 0.0
O194 O 0.02809 0.62155 0.85111 0.0
O195 O 0.12865 0.55514 0.8578 0.0
C196 C 0.96929 0.52597 0.65257 0.0
O197 O 0.00426 0.52189 0.63678 0.0
Cd198 Cd 0.0082 0.536 0.5809 0.0
O199 O 0.93326 0.53496 0.63901 0.0
Cd200 Cd 0.90307 0.54725 0.58554 0.0
C201 C 0.96394 0.64034 0.58203 0.0
O202 O 0.94983 0.49812 0.55535 0.0
O203 O 0.91199 0.54553 0.52848 0.0
O204 O 0.84551 0.49587 0.59985 0.0
C205 C 0.93798 0.51306 0.52861 0.0
O206 O -0.00322 0.61538 0.57762 0.0
C207 C 0.81429 0.52061 0.59128 0.0
O208 O 0.92598 0.62481 0.58721 0.0
O209 O 0.82389 0.55854 0.58068 0.0
C210 C 0.48003 0.44333 0.64987 0.0
O211 O 0.44611 0.44677 0.6328 0.0
Cd212 Cd 0.44575 0.43013 0.57735 0.0
O213 O 0.51702 0.43425 0.63784 0.0
Cd214 Cd 0.55072 0.42246 0.58532 0.0
C215 C 0.49374 0.32725 0.58191 0.0
O216 O 0.50405 0.46959 0.55344 0.0
O217 O 0.54324 0.42204 0.52796 0.0
O218 O 0.6068 0.47582 0.59943 0.0
C219 C 0.51695 0.45425 0.52716 0.0
O220 O 0.46041 0.35098 0.57603 0.0
C221 C 0.63874 0.45151 0.59168 0.0
O222 O 0.53084 0.34421 0.58793 0.0
O223 O 0.63012 0.4129 0.58198 0.0
C224 C 0.24297 0.96763 0.11855 0.0
C225 C 0.26621 0.9642 0.08964 0.0
C226 C 0.20277 -0.00796 0.06042 0.0
C227 C 0.18075 -0.0011 0.08956 0.0
N228 N 0.18096 -0.00146 0.14661 0.0
N229 N 0.27146 0.97908 0.03367 0.0
C230 C 0.20109 -0.01199 0.11874 0.0
C231 C 0.24699 0.97801 0.06072 0.0
N232 N 0.26054 0.95038 0.14564 0.0
N233 N 0.18084 -0.00285 0.03241 0.0
H234 H 0.30378 0.96837 0.03274 0.0
H235 H 0.26095 -0.00626 0.0127 0.0
H236 H 0.14839 0.00732 0.03109 0.0
H237 H 0.19354 -0.01224 0.01058 0.0
H238 H 0.24354 0.94755 0.16685 0.0
H239 H 0.29132 0.93568 0.14632 0.0
H240 H 0.19584 -0.00423 0.16868 0.0
H241 H 0.15028 0.01339 0.14756 0.0
C242 C 0.70063 0.97664 0.37433 0.0
C243 C 0.68073 0.96426 0.34534 0.0
C244 C 0.74468 -0.00968 0.31598 0.0
C245 C 0.7659 -0.0006 0.34514 0.0
N246 N 0.76739 -0.00542 0.40217 0.0
N247 N 0.68493 0.95384 0.2889 0.0
C248 C 0.74475 -0.00914 0.37437 0.0
C249 C 0.70305 0.96963 0.31621 0.0
N250 N 0.67688 0.97627 0.40173 0.0
N251 N 0.7637 0.00286 0.28814 0.0
H252 H 0.65433 0.93894 0.28824 0.0
H253 H 0.70138 0.95238 0.26739 0.0
H254 H 0.79411 0.01809 0.28713 0.0
H255 H 0.74806 0.00147 0.26628 0.0
H256 H 0.68788 -0.01019 0.42291 0.0
H257 H 0.6446 0.96565 0.4028 0.0
H258 H 0.75539 -0.01607 0.42391 0.0
H259 H 0.79976 0.00491 0.40328 0.0
C260 C 0.75284 0.97714 0.8743 0.0
C261 C 0.77219 0.96675 0.84471 0.0
C262 C 0.70748 -0.0053 0.8169 0.0
C263 C 0.68683 0.00167 0.84653 0.0
N264 N 0.68662 -0.00667 0.90335 0.0
N265 N 0.76681 0.96018 0.788 0.0
C266 C 0.70865 -0.0087 0.87524 0.0
C267 C 0.74923 0.97413 0.816 0.0
N268 N 0.7772 0.97505 0.90142 0.0
N269 N 0.68768 0.00898 0.78973 0.0
H270 H 0.79738 0.9452 0.78651 0.0
H271 H 0.7499 0.96023 0.76662 0.0
H272 H 0.65707 0.02404 0.78957 0.0
H273 H 0.70283 0.00918 0.76769 0.0
H274 H 0.76654 -0.01293 0.92316 0.0
H275 H 0.80962 0.9646 0.90181 0.0
H276 H 0.69909 0.98124 0.92459 0.0
H277 H 0.65433 0.00389 0.90513 0.0
C278 C 0.21093 0.97141 0.56006 0.0
C279 C 0.18724 0.96569 0.58863 0.0
C280 C 0.24777 -0.00213 0.61884 0.0
C281 C 0.27253 0.00045 0.59057 0.0
N282 N 0.28108 -0.01671 0.53516 0.0
N283 N 0.18461 0.9675 0.64565 0.0
C284 C 0.25507 -0.01461 0.56142 0.0
C285 C 0.20604 0.9774 0.61818 0.0
N286 N 0.19064 0.96546 0.53152 0.0
N287 N 0.26379 0.01593 0.6461 0.0
H288 H 0.15413 0.95236 0.64603 0.0
H289 H 0.19835 0.97094 0.66806 0.0
H290 H 0.2945 0.0305 0.64743 0.0
H291 H 0.2456 0.01946 0.66673 0.0
H292 H 0.20461 0.97403 0.50993 0.0
H293 H 0.15826 0.95548 0.52939 0.0
H294 H 0.27185 0.96776 0.51424 0.0
H295 H 0.31339 -0.00604 0.53499 0.0
C296 C 0.75132 0.48049 0.06334 0.0
C297 C 0.76998 0.46673 0.09249 0.0
C298 C 0.70445 0.49097 0.12087 0.0
C299 C 0.68448 0.50136 0.09144 0.0
N300 N 0.68569 0.49931 0.03431 0.0
N301 N 0.7634 0.4536 0.14851 0.0
C302 C 0.70708 0.49444 0.06255 0.0
C303 C 0.7463 0.47055 0.12117 0.0
N304 N 0.77634 0.48154 0.03655 0.0
N305 N 0.68399 0.50202 0.1485 0.0
H306 H 0.7942 0.439 0.14957 0.0
H307 H 0.746 0.45097 0.16957 0.0
H308 H 0.65339 0.51707 0.14913 0.0
H309 H 0.6986 0.4996 0.1707 0.0
H310 H 0.7662 0.49609 0.01546 0.0
H311 H 0.80874 0.47104 0.03601 0.0
H312 H 0.69885 0.48984 0.01264 0.0
H313 H 0.65323 0.50936 0.03263 0.0
C314 C 0.25282 0.47976 0.37544 0.0
C315 C 0.27054 0.49511 0.34647 0.0
C316 C 0.20443 0.47208 0.3183 0.0
C317 C 0.18522 0.46043 0.34771 0.0
N318 N 0.18811 0.45956 0.40484 0.0
N319 N 0.26246 0.51072 0.29086 0.0
C320 C 0.20866 0.46578 0.37646 0.0
C321 C 0.24615 0.49256 0.31799 0.0
N322 N 0.27859 0.47747 0.40186 0.0
N323 N 0.18338 0.46217 0.29066 0.0
H324 H 0.2932 0.52527 0.28975 0.0
H325 H 0.24449 0.51432 0.2701 0.0
H326 H 0.15297 0.44691 0.29004 0.0
H327 H 0.19742 0.46563 0.26838 0.0
H328 H 0.26918 0.4618 0.42269 0.0
H329 H 0.3109 0.48814 0.40226 0.0
H330 H 0.20189 0.46791 0.42655 0.0
H331 H 0.15574 0.44949 0.40672 0.0
C332 C 0.20339 0.48785 0.81875 0.0
C333 C 0.18386 0.50044 0.84784 0.0
C334 C 0.25129 0.482 0.87626 0.0
C335 C 0.26948 0.46606 0.84761 0.0
N336 N 0.26196 0.4485 0.79229 0.0
N337 N 0.18604 0.50256 0.90497 0.0
C338 C 0.24527 0.46751 0.819 0.0
C339 C 0.20699 0.49581 0.87681 0.0
N340 N 0.18253 0.49682 0.79083 0.0
N341 N 0.27673 0.48503 0.9028 0.0
H342 H 0.15349 0.51234 0.90652 0.0
H343 H 0.19966 0.49483 0.92689 0.0
H344 H 0.3091 0.47444 0.90355 0.0
H345 H 0.26693 0.50117 0.92334 0.0
H346 H 0.19682 0.4927 0.76869 0.0
H347 H 0.15197 0.51191 0.78977 0.0
H348 H 0.24417 0.44411 0.77153 0.0
H349 H 0.29282 0.434 0.79159 0.0
C350 C 0.70582 0.47521 0.56256 0.0
C351 C 0.68385 0.46884 0.59178 0.0
C352 C 0.74564 0.50136 0.62035 0.0
C353 C 0.76889 0.50427 0.59142 0.0
N354 N 0.77439 0.4881 0.53567 0.0
N355 N 0.68418 0.47039 0.64883 0.0
C356 C 0.74988 0.4896 0.56269 0.0
C357 C 0.70407 0.48058 0.62082 0.0
N358 N 0.68398 0.46937 0.53462 0.0
N359 N 0.76294 0.51944 0.6472 0.0
H360 H 0.6538 0.45512 0.65002 0.0
H361 H 0.69907 0.4738 0.67085 0.0
H362 H 0.7935 0.53442 0.64769 0.0
H363 H 0.74584 0.52268 0.66835 0.0
H364 H 0.69661 0.47834 0.51268 0.0
H365 H 0.65162 0.45905 0.53341 0.0
H366 H 0.76409 0.47283 0.51491 0.0
H367 H 0.80654 0.49912 0.5346 0.0
C368 C 0.95298 0.06055 0.22828 0.0
C369 C 0.96548 0.02306 0.24621 0.0
C370 C -0.01505 -0.01601 0.19743 0.0
C371 C 0.96936 0.02032 0.17957 0.0
N372 N 0.9319 0.09028 0.17734 0.0
N373 N -0.01332 0.94668 0.24826 0.0
C374 C 0.95102 0.05756 0.19482 0.0
C375 C -0.0203 -0.01596 0.23091 0.0
N376 N 0.94566 0.09986 0.24311 0.0
N377 N 0.00519 0.94978 0.1824 0.0
H378 H -0.01725 0.94551 0.27278 0.0
H379 H -0.0072 0.91601 0.23823 0.0
H380 H 0.00775 0.94779 0.1578 0.0
H381 H 0.02174 0.92475 0.19426 0.0
H382 H 0.9413 0.1295 0.23111 0.0
H383 H 0.94827 0.10383 0.26752 0.0
H384 H 0.91362 0.11564 0.18729 0.0
H385 H 0.93132 0.09044 0.15266 0.0
C386 C 0.48296 0.98127 0.20257 0.0
C387 C 0.46818 0.94324 0.18634 0.0
C388 C 0.45338 0.90671 0.23692 0.0
C389 C 0.47204 0.943 0.25304 0.0
N390 N 0.50902 0.01286 0.25183 0.0
N391 N 0.44755 0.86653 0.18773 0.0
C392 C 0.48828 0.97971 0.23603 0.0
C393 C 0.45536 0.90512 0.2034 0.0
N394 N 0.49016 0.01935 0.18615 0.0
N395 N 0.43374 0.87365 0.2536 0.0
H396 H 0.44957 0.86337 0.16321 0.0
H397 H 0.4432 0.83648 0.19914 0.0
H398 H 0.43304 0.87244 0.27825 0.0
H399 H 0.41512 0.84909 0.24301 0.0
H400 H 0.49662 0.04942 0.19694 0.0
H401 H 0.48598 0.02184 0.1617 0.0
H402 H 0.52601 0.03796 0.24053 0.0
H403 H 0.51161 0.0138 0.27646 0.0
C404 C 0.95985 0.90645 0.69386 0.0
C405 C -0.0221 0.94375 0.67855 0.0
C406 C -0.01296 0.9807 0.72966 0.0
C407 C 0.97243 0.94198 0.74514 0.0
N408 N 0.95168 0.86542 0.74263 0.0
N409 N 0.01324 0.01435 0.68115 0.0
C410 C 0.96033 0.90422 0.72743 0.0
C411 C -0.00708 0.98031 0.69626 0.0
N412 N 0.94229 0.87304 0.67632 0.0
N413 N -0.00636 0.01826 0.74679 0.0
H414 H 0.01641 0.01597 0.65658 0.0
H415 H 0.02941 0.03956 0.69295 0.0
H416 H -0.01082 0.01981 0.77125 0.0
H417 H -5e-05 0.04878 0.73661 0.0
H418 H 0.92388 0.84767 0.68603 0.0
H419 H 0.94346 0.87201 0.65165 0.0
H420 H 0.948 0.83547 0.731 0.0
H421 H 0.95179 0.86209 0.76718 0.0
C422 C 0.49853 0.05879 0.70143 0.0
C423 C 0.48008 0.02232 0.6854 0.0
C424 C 0.46929 -0.01576 0.73597 0.0
C425 C 0.48398 0.02239 0.7521 0.0
N426 N 0.50429 0.09917 0.75054 0.0
N427 N 0.44334 0.95234 0.68677 0.0
C428 C 0.4966 0.0605 0.73495 0.0
C429 C 0.46396 -0.01436 0.7025 0.0
N430 N 0.51797 0.0919 0.68467 0.0
N431 N 0.46222 0.94621 0.75247 0.0
H432 H 0.44071 0.95131 0.66215 0.0
H433 H 0.42646 0.9272 0.69813 0.0
H434 H 0.46639 0.94385 0.77693 0.0
H435 H 0.45585 0.91607 0.74175 0.0
H436 H 0.53647 0.11659 0.69519 0.0
H437 H 0.51859 0.09304 0.66001 0.0
H438 H 0.50848 0.12921 0.73907 0.0
H439 H 0.50235 0.1024 0.77506 0.0
C440 C 0.46929 0.48308 0.20136 0.0
C441 C 0.47996 0.52284 0.18558 0.0
C442 C 0.4915 0.55958 0.23642 0.0
C443 C 0.47725 0.52106 0.25222 0.0
N444 N 0.4477 0.44772 0.25049 0.0
N445 N 0.49139 0.60127 0.18766 0.0
C446 C 0.46459 0.48322 0.2349 0.0
C447 C 0.48856 0.56174 0.20299 0.0
N448 N 0.46516 0.44502 0.18441 0.0
N449 N 0.508 0.59412 0.25333 0.0
H450 H 0.48736 0.6044 0.16325 0.0
H451 H 0.49306 0.63141 0.1993 0.0
H452 H 0.50967 0.59446 0.27799 0.0
H453 H 0.5233 0.62099 0.24286 0.0
H454 H 0.46187 0.41412 0.19476 0.0
H455 H 0.46834 0.44386 0.15983 0.0
H456 H 0.4334 0.42107 0.23906 0.0
H457 H 0.44549 0.44615 0.27512 0.0
C458 C 0.96802 0.48129 0.23673 0.0
C459 C -0.01796 0.44294 0.25306 0.0
C460 C -0.0045 0.40562 0.20259 0.0
C461 C -0.02219 0.44245 0.18637 0.0
N462 N 0.94262 0.51344 0.18739 0.0
N463 N 0.00093 0.36567 0.25196 0.0
C464 C 0.96256 0.47973 0.20328 0.0
C465 C -0.00619 0.40434 0.23612 0.0
N466 N 0.96171 0.51962 0.25304 0.0
N467 N 0.01397 0.37176 0.18597 0.0
H468 H -0.00071 0.36278 0.27652 0.0
H469 H 0.00441 0.33539 0.24071 0.0
H470 H 0.01422 0.37026 0.16132 0.0
H471 H 0.03201 0.34665 0.19655 0.0
H472 H 0.95588 0.54982 0.24217 0.0
H473 H 0.96596 0.52207 0.27748 0.0
H474 H 0.92631 0.53913 0.19861 0.0
H475 H 0.93994 0.51433 0.16276 0.0
C476 C 0.46048 0.40622 0.70044 0.0
C477 C 0.47573 0.44435 0.68463 0.0
C478 C 0.48418 0.48228 0.73547 0.0
C479 C 0.4726 0.4428 0.75129 0.0
N480 N 0.45936 0.36464 0.74924 0.0
N481 N 0.50684 0.51702 0.68638 0.0
C482 C 0.46316 0.40408 0.73389 0.0
C483 C 0.48909 0.48194 0.70195 0.0
N484 N 0.44336 0.372 0.68352 0.0
N485 N 0.48896 0.5203 0.75238 0.0
H486 H 0.5092 0.51852 0.66176 0.0
H487 H 0.52168 0.54336 0.69783 0.0
H488 H 0.48553 0.52163 0.77693 0.0
H489 H 0.49296 0.55109 0.74198 0.0
H490 H 0.42732 0.34555 0.69397 0.0
H491 H 0.44196 0.37154 0.65886 0.0
H492 H 0.4571 0.33453 0.73762 0.0
H493 H 0.46315 0.36145 0.77366 0.0
C494 C -0.00908 0.48555 0.73649 0.0
C495 C 0.9762 0.52233 0.75414 0.0
C496 C 0.95955 0.56225 0.70522 0.0
C497 C 0.97106 0.52422 0.68754 0.0
N498 N -0.00883 0.44751 0.68599 0.0
N499 N 0.94139 0.59363 0.75622 0.0
C500 C -0.01488 0.48524 0.70306 0.0
C501 C 0.95876 0.55997 0.73876 0.0
N502 N 0.01084 0.45119 0.75167 0.0
N503 N 0.95174 0.60129 0.69003 0.0
H504 H 0.94224 0.59454 0.78089 0.0
H505 H 0.9234 0.61934 0.74639 0.0
H506 H 0.95223 0.60471 0.66549 0.0
H507 H 0.94852 0.63128 0.70169 0.0
H508 H 0.02675 0.42571 0.73991 0.0
H509 H 0.014 0.44958 0.77625 0.0
H510 H -0.00297 0.4169 0.69624 0.0
H511 H -0.01331 0.44598 0.66153 0.0
C512 C -0.02232 0.2099 0.05104 0.0
C513 C -0.01754 0.18627 0.07982 0.0
C514 C 0.97218 0.25423 0.11025 0.0
C515 C 0.96505 0.27736 0.0815 0.0
N516 N 0.9547 0.27736 0.02497 0.0
N517 N -0.02078 0.18371 0.13683 0.0
C518 C 0.96601 0.2552 0.05198 0.0
C519 C -0.02157 0.20784 0.10948 0.0
N520 N -0.01425 0.18925 0.02286 0.0
N521 N 0.9741 0.27688 0.13819 0.0
H522 H -0.01485 0.14991 0.13724 0.0
H523 H 0.97134 0.19642 0.15898 0.0
H524 H 0.96768 0.31052 0.1398 0.0
H525 H -0.01559 0.26309 0.1595 0.0
H526 H -0.01266 0.2055 0.0012 0.0
H527 H -0.00568 0.15608 0.02133 0.0
H528 H 0.95032 0.26227 0.00309 0.0
H529 H 0.94621 0.31062 0.02485 0.0
C530 C 0.49342 0.76169 0.10736 0.0
C531 C 0.46994 0.78101 0.08188 0.0
C532 C 0.46859 0.71011 0.05432 0.0
C533 C 0.48817 0.68983 0.08114 0.0
N534 N 0.51474 0.6951 0.13488 0.0
N535 N 0.43116 0.77368 0.03248 0.0
C536 C 0.4997 0.71533 0.10806 0.0
C537 C 0.45613 0.75516 0.05583 0.0
N538 N 0.51004 0.78774 0.13085 0.0
N539 N 0.46405 0.68683 0.02681 0.0
H540 H 0.42322 0.80706 0.03189 0.0
H541 H 0.41577 0.75551 0.01484 0.0
H542 H 0.47446 0.65432 0.02441 0.0
H543 H 0.4541 0.70078 0.00546 0.0
H544 H 0.53203 0.77654 0.14785 0.0
H545 H 0.50413 0.82147 0.13227 0.0
H546 H 0.51818 0.71099 0.15656 0.0
H547 H 0.52102 0.6615 0.13624 0.0
C548 C 0.4685 0.70872 0.32624 0.0
C549 C 0.46506 0.68584 0.35545 0.0
C550 C 0.48197 0.75345 0.38465 0.0
C551 C 0.48312 0.77679 0.35558 0.0
N552 N 0.47346 0.7789 0.29896 0.0
N553 N 0.46232 0.68636 0.41244 0.0
C554 C 0.47535 0.75501 0.3264 0.0
C555 C 0.47014 0.70821 0.38469 0.0
N556 N 0.46654 0.68586 0.29839 0.0
N557 N 0.49329 0.77441 0.4121 0.0
H558 H 0.45354 0.65323 0.41325 0.0
H559 H 0.46108 0.70156 0.43448 0.0
H560 H 0.50171 0.80763 0.41291 0.0
H561 H 0.49758 0.75844 0.43369 0.0
H562 H 0.47406 0.69933 0.27641 0.0
H563 H 0.45961 0.65233 0.29734 0.0
H564 H 0.46279 0.76627 0.27742 0.0
H565 H 0.48039 0.81245 0.29801 0.0
C566 C 0.95517 0.26246 0.33005 0.0
C567 C -0.02126 0.28052 0.35591 0.0
C568 C -0.01994 0.2084 0.38188 0.0
C569 C 0.96072 0.18939 0.35455 0.0
N570 N 0.93447 0.19717 0.30092 0.0
N571 N 0.01733 0.2708 0.4052 0.0
C572 C 0.94916 0.21614 0.32824 0.0
C573 C -0.00754 0.25345 0.38141 0.0
N574 N 0.93824 0.2896 0.30726 0.0
N575 N -0.01545 0.18383 0.40884 0.0
H576 H 0.0252 0.30411 0.40654 0.0
H577 H 0.03265 0.25178 0.42246 0.0
H578 H 0.97418 0.15126 0.41044 0.0
H579 H -0.0056 0.19674 0.43052 0.0
H580 H 0.91632 0.27916 0.29001 0.0
H581 H 0.94367 0.32343 0.30675 0.0
H582 H 0.9309 0.21411 0.27963 0.0
H583 H 0.92875 0.16358 0.29873 0.0
C584 C -0.00863 0.70937 0.82628 0.0
C585 C -0.01565 0.68641 0.8551 0.0
C586 C 0.95869 0.75451 0.88024 0.0
C587 C 0.96938 0.77801 0.8523 0.0
N588 N 0.00155 0.77965 0.80021 0.0
N589 N 0.96804 0.68766 0.91095 0.0
C590 C -0.01252 0.75597 0.82576 0.0
C591 C 0.96962 0.70909 0.88248 0.0
N592 N -0.00024 0.6865 0.79906 0.0
N593 N 0.93805 0.77561 0.90459 0.0
H594 H -0.0233 0.65467 0.91365 0.0
H595 H 0.96196 0.70333 0.93241 0.0
H596 H 0.93108 0.80923 0.90428 0.0
H597 H 0.92502 0.75938 0.9241 0.0
H598 H 0.00019 0.70093 0.7767 0.0
H599 H 0.00259 0.65232 0.79834 0.0
H600 H 0.01958 0.76606 0.78175 0.0
H601 H -0.00202 0.81368 0.79847 0.0
C602 C 0.45303 0.25049 0.82976 0.0
C603 C 0.46486 0.27623 0.85649 0.0
C604 C 0.4971 0.21109 0.88194 0.0
C605 C 0.48302 0.18501 0.85608 0.0
N606 N 0.44236 0.17788 0.80739 0.0
N607 N 0.48947 0.27968 0.91069 0.0
C608 C 0.45927 0.20412 0.83065 0.0
C609 C 0.48467 0.25616 0.88331 0.0
N610 N 0.43776 0.27048 0.80292 0.0
N611 N 0.52228 0.19276 0.90525 0.0
H612 H 0.4791 0.31221 0.91299 0.0
H613 H 0.49962 0.26591 0.93205 0.0
H614 H 0.53021 0.15938 0.90595 0.0
H615 H 0.53785 0.21109 0.92272 0.0
H616 H 0.43409 0.25439 0.78134 0.0
H617 H 0.4315 0.30407 0.80143 0.0
H618 H 0.42019 0.18895 0.79046 0.0
H619 H 0.44819 0.14413 0.8061 0.0
C620 C 0.47226 0.211 0.55308 0.0
C621 C 0.4702 0.188 0.58227 0.0
C622 C 0.48403 0.2564 0.61142 0.0
C623 C 0.48843 0.27891 0.58214 0.0
N624 N 0.49286 0.27773 0.52521 0.0
N625 N 0.47816 0.18655 0.63904 0.0
C626 C 0.48419 0.25621 0.55296 0.0
C627 C 0.47711 0.21011 0.61143 0.0
N628 N 0.46167 0.18975 0.52559 0.0
N629 N 0.48517 0.27959 0.63915 0.0
H630 H 0.4712 0.15302 0.64008 0.0
H631 H 0.48819 0.19943 0.66067 0.0
H632 H 0.49213 0.31312 0.6401 0.0
H633 H 0.47694 0.2664 0.66108 0.0
H634 H 0.45807 0.20548 0.50384 0.0
H635 H 0.45314 0.15656 0.52485 0.0
H636 H 0.49474 0.26226 0.50329 0.0
H637 H 0.50167 0.31084 0.52433 0.0
C638 C -0.00594 0.75662 0.60697 0.0
C639 C -0.01216 0.77957 0.57802 0.0
C640 C 0.96097 0.71204 0.55293 0.0
C641 C 0.97065 0.68847 0.58106 0.0
N642 N 0.00269 0.68622 0.63325 0.0
N643 N 0.97263 0.77822 0.52199 0.0
C644 C -0.01084 0.71014 0.6076 0.0
C645 C 0.97311 0.75706 0.55058 0.0
N646 N 0.0026 0.77942 0.63419 0.0
N647 N 0.94009 0.6914 0.52849 0.0
H648 H -0.01763 0.81084 0.51924 0.0
H649 H 0.9665 0.76253 0.50055 0.0
H650 H 0.93219 0.65804 0.52889 0.0
H651 H 0.92776 0.70789 0.50879 0.0
H652 H 0.00246 0.76508 0.65659 0.0
H653 H 0.00615 0.81352 0.63484 0.0
H654 H 0.02087 0.69946 0.65175 0.0
H655 H -0.00136 0.65226 0.63494 0.0
C656 C 0.95364 0.01404 0.94493 0.0
C657 C 0.96391 0.97141 0.93348 0.0
C658 C 0.01226 0.95852 -0.02115 0.0
C659 C -0.001 -0.00048 -0.00839 0.0
N660 N 0.9532 0.06411 -0.01041 0.0
N661 N 0.00062 0.90154 0.93959 0.0
C662 C 0.96887 0.02691 -0.02469 0.0
C663 C -0.00749 0.94314 0.9505 0.0
N664 N 0.92927 0.04216 0.92676 0.0
N665 N 0.04498 0.93519 -0.00676 0.0
H666 H -0.01043 0.89016 0.91774 0.0
H667 H 0.01654 0.87741 0.95278 0.0
H668 H 0.06005 0.94544 0.01412 0.0
H669 H 0.0596 0.90745 -0.01658 0.0
H670 H 0.92494 0.07533 0.93203 0.0
H671 H 0.91562 0.03318 0.90509 0.0
H672 H 0.92763 0.08293 -0.0194 0.0
H673 H 0.96338 0.07453 0.01191 0.0
C674 C 0.50544 0.95381 0.95274 0.0
C675 C 0.4967 -0.00349 0.94071 0.0
C676 C 0.44845 0.01242 -0.01438 0.0
C677 C 0.45718 0.96971 -0.00236 0.0
N678 N 0.49825 0.90196 -0.00381 0.0
N679 N 0.45574 0.06434 0.94221 0.0
C680 C 0.48655 0.94078 -0.01799 0.0
C681 C 0.46737 0.02547 0.95636 0.0
N682 N 0.5314 0.92563 0.93588 0.0
N683 N 0.42243 0.04058 0.00246 0.0
H684 H 0.46846 0.07479 0.92062 0.0
H685 H 0.43131 0.08514 0.95044 0.0
H686 H 0.406 0.03133 0.02301 0.0
H687 H 0.41862 0.07381 -0.00274 0.0
H688 H 0.53518 0.89239 0.94109 0.0
H689 H 0.54781 0.93486 0.91532 0.0
H690 H 0.52272 0.88119 -0.01203 0.0
H691 H 0.48557 0.89153 0.0178 0.0
C692 C 0.44522 0.95631 0.48499 0.0
C693 C 0.45911 -0.00296 0.49785 0.0
C694 C 0.50879 0.00858 0.45313 0.0
C695 C 0.49496 0.96781 0.44031 0.0
N696 N 0.45326 0.90084 0.444 0.0
N697 N 0.50117 0.06379 0.49438 0.0
C698 C 0.46406 0.94105 0.45626 0.0
C699 C 0.49011 0.02375 0.48195 0.0
N700 N 0.41246 0.93346 0.49958 0.0
N701 N 0.5413 0.03159 0.43837 0.0
H702 H 0.49028 0.07474 0.51639 0.0
H703 H 0.51978 0.08726 0.4827 0.0
H704 H 0.55552 0.02148 0.41715 0.0
H705 H 0.55615 0.05948 0.4476 0.0
H706 H 0.39743 0.9058 0.49014 0.0
H707 H 0.39814 0.94358 0.52075 0.0
H708 H 0.43492 0.87732 0.45586 0.0
H709 H 0.46424 0.88975 0.42205 0.0
C710 C 0.01088 0.00978 0.47817 0.0
C711 C 0.00049 0.96797 0.491 0.0
C712 C 0.95085 0.95302 0.44669 0.0
C713 C 0.96062 -0.00486 0.43418 0.0
N714 N 0.00424 0.06095 0.43417 0.0
N715 N 0.95685 0.90208 0.49079 0.0
C716 C -0.00835 0.02299 0.44899 0.0
C717 C 0.96977 0.93994 0.47598 0.0
N718 N 0.03858 0.03703 0.49428 0.0
N719 N 0.9239 0.9254 0.43024 0.0
H720 H 0.96956 0.89172 0.51244 0.0
H721 H 0.93141 0.88224 0.48305 0.0
H722 H 0.90797 0.93463 0.40942 0.0
H723 H 0.91912 0.89247 0.43592 0.0
H724 H 0.04407 0.06977 0.48839 0.0
H725 H 0.05493 0.02755 0.51487 0.0
H726 H 0.02942 0.08112 0.44187 0.0
H727 H -0.00864 0.07113 0.41251 0.0
C728 C 0.50781 0.45582 -0.0152 0.0
C729 C 0.49578 0.49743 -0.00276 0.0
C730 C 0.44685 0.51075 0.95221 0.0
C731 C 0.45889 0.46914 0.93977 0.0
N732 N 0.50465 0.40457 0.94074 0.0
N733 N 0.45016 0.56211 -0.00379 0.0
C734 C 0.4902 0.44213 0.95525 0.0
C735 C 0.46453 0.52448 -0.01826 0.0
N736 N 0.53557 0.42925 0.00159 0.0
N737 N 0.41898 0.53725 0.93546 0.0
H738 H 0.46195 0.57279 0.01804 0.0
H739 H 0.42459 0.58151 -0.01203 0.0
H740 H 0.40389 0.52739 0.91449 0.0
H741 H 0.41225 0.56984 0.94115 0.0
H742 H 0.54219 0.39663 -0.0041 0.0
H743 H 0.55062 0.43906 0.02258 0.0
H744 H 0.53031 0.38526 0.94896 0.0
H745 H 0.49289 0.3939 0.91889 0.0
C746 C 0.94804 0.51183 -0.01271 0.0
C747 C 0.95807 0.46942 -0.00068 0.0
C748 C 0.00825 0.45614 0.95516 0.0
C749 C -0.00416 0.49724 0.94204 0.0
N750 N 0.94968 0.56158 0.9424 0.0
N751 N -0.00518 0.39941 -0.00565 0.0
C752 C 0.96472 0.52453 0.9573 0.0
C753 C -0.01277 0.44095 -0.01693 0.0
N754 N 0.9227 0.53999 0.00463 0.0
N755 N 0.04139 0.43257 0.9416 0.0
H756 H -0.01722 0.38816 0.01595 0.0
H757 H 0.01123 0.37516 -0.01832 0.0
H758 H 0.05725 0.44257 0.92098 0.0
H759 H 0.05546 0.40478 0.95181 0.0
H760 H 0.91842 0.57308 -0.00096 0.0
H761 H 0.90801 0.5311 0.02595 0.0
H762 H 0.92362 0.5804 0.95055 0.0
H763 H 0.96095 0.5718 0.92032 0.0
C764 C 0.94852 0.45505 0.4874 0.0
C765 C 0.95841 0.49765 0.49901 0.0
C766 C 0.00623 0.51161 0.45356 0.0
C767 C -0.00383 0.46907 0.44188 0.0
N768 N 0.95343 0.40265 0.44418 0.0
N769 N 0.00061 0.56439 0.49655 0.0
C770 C 0.96643 0.44119 0.458 0.0
C771 C -0.01193 0.5256 0.48286 0.0
N772 N 0.92237 0.42775 0.50478 0.0
N773 N 0.03279 0.5387 0.43633 0.0
H774 H -0.01156 0.57546 0.51817 0.0
H775 H 0.02515 0.5846 0.48789 0.0
H776 H 0.04867 0.52867 0.41574 0.0
H777 H 0.03773 0.57181 0.44131 0.0
H778 H 0.9178 0.39457 0.49985 0.0
H779 H 0.9067 0.43762 0.5255 0.0
H780 H 0.92858 0.38277 0.4528 0.0
H781 H 0.96534 0.39164 0.42247 0.0
C782 C 0.4675 0.43977 0.48126 0.0
C783 C 0.49677 0.46846 0.49711 0.0
C784 C 0.4876 0.52414 0.4556 0.0
C785 C 0.45826 0.49549 0.43978 0.0
N786 N 0.42315 0.42501 0.43476 0.0
N787 N 0.53186 0.53896 0.50212 0.0
C788 C 0.44908 0.45293 0.45181 0.0
C789 C 0.50598 0.511 0.48506 0.0
N790 N 0.45544 0.4011 0.49538 0.0
N791 N 0.49971 0.56276 0.44145 0.0
H792 H 0.54787 0.52963 0.52288 0.0
H793 H 0.53597 0.57212 0.49686 0.0
H794 H 0.48741 0.5732 0.41968 0.0
H795 H 0.52415 0.58333 0.44986 0.0
H796 H 0.43107 0.38049 0.48694 0.0
H797 H 0.46777 0.39064 0.51713 0.0
H798 H 0.41899 0.39185 0.44001 0.0
H799 H 0.40714 0.43436 0.414 0.0
loop_
_geom_bond_atom_site_label_1
_geom_bond_atom_site_label_2
_geom_bond_distance
_geom_bond_site_symmetry_2
_ccdc_geom_bond_type
C0 O1 1.306 1_455 S
C0 O3 1.160 . S
O1 C0 1.306 1_655 S
O1 Cd2 2.228 . S
Cd2 O1 2.228 . S
Cd2 O6 2.273 1_655 S
Cd2 O10 2.285 . S
O3 C0 1.160 . S
O3 Cd4 2.203 . S
Cd4 O3 2.203 . S
Cd4 O6 2.411 . S
Cd4 O7 2.333 . S
Cd4 O8 2.352 . S
Cd4 O12 2.277 . S
Cd4 O13 2.356 . S
C5 O10 1.199 1_455 S
C5 O12 1.226 . S
O6 Cd2 2.273 1_455 S
O6 Cd4 2.411 . S
O6 C9 1.320 . S
O7 Cd4 2.333 . S
O7 C9 1.214 . S
O8 Cd4 2.352 . S
O8 C11 1.258 . S
C9 O6 1.320 . S
C9 O7 1.214 . S
O10 Cd2 2.285 . S
O10 C5 1.199 1_655 S
C11 O8 1.258 . S
C11 O13 1.282 . S
O12 Cd4 2.277 . S
O12 C5 1.226 . S
O13 Cd4 2.356 . S
O13 C11 1.282 . S
C14 O15 1.306 . S
C14 O17 1.160 . S
O15 C14 1.306 . S
O15 Cd16 2.228 . S
Cd16 O15 2.228 . S
Cd16 O20 2.273 . S
Cd16 O24 2.277 . S
O17 C14 1.160 . S
O17 Cd18 2.203 . S
Cd18 O17 2.203 . S
Cd18 O20 2.411 . S
Cd18 O21 2.333 . S
Cd18 O22 2.352 . S
Cd18 O26 2.277 . S
Cd18 O27 2.356 . S
C19 O24 1.209 . S
C19 O26 1.226 . S
O20 Cd16 2.273 . S
O20 Cd18 2.411 . S
O20 C23 1.320 . S
O21 Cd18 2.333 . S
O21 C23 1.214 . S
O22 Cd18 2.352 . S
O22 C25 1.258 . S
C23 O20 1.320 . S
C23 O21 1.214 . S
O24 Cd16 2.277 . S
O24 C19 1.209 . S
C25 O22 1.258 . S
C25 O27 1.282 . S
O26 Cd18 2.277 . S
O26 C19 1.226 . S
O27 Cd18 2.356 . S
O27 C25 1.282 . S
C28 O29 1.306 . S
C28 O31 1.160 . S
O29 C28 1.306 . S
O29 Cd30 2.228 . S
Cd30 O29 2.228 . S
Cd30 O34 2.273 . S
Cd30 O38 2.277 . S
O31 C28 1.160 . S
O31 Cd32 2.203 . S
Cd32 O31 2.203 . S
Cd32 O34 2.411 . S
Cd32 O35 2.333 . S
Cd32 O36 2.352 . S
Cd32 O40 2.277 . S
Cd32 O41 2.356 . S
C33 O38 1.209 . S
C33 O40 1.226 . S
O34 Cd30 2.273 . S
O34 Cd32 2.411 . S
O34 C37 1.320 . S
O35 Cd32 2.333 . S
O35 C37 1.214 . S
O36 Cd32 2.352 . S
O36 C39 1.258 . S
C37 O34 1.320 . S
C37 O35 1.214 . S
O38 Cd30 2.277 . S
O38 C33 1.209 . S
C39 O36 1.258 . S
C39 O41 1.282 . S
O40 Cd32 2.277 . S
O40 C33 1.226 . S
O41 Cd32 2.356 . S
O41 C39 1.282 . S
C42 O43 1.306 1_655 S
C42 O45 1.160 . S
O43 C42 1.306 1_455 S
O43 Cd44 2.228 . S
Cd44 O43 2.228 . S
Cd44 O48 2.273 1_455 S
Cd44 O52 2.285 . S
O45 C42 1.160 . S
O45 Cd46 2.203 . S
Cd46 O45 2.203 . S
Cd46 O48 2.411 . S
Cd46 O49 2.333 . S
Cd46 O50 2.352 . S
Cd46 O54 2.277 . S
Cd46 O55 2.356 . S
C47 O52 1.199 1_655 S
C47 O54 1.226 . S
O48 Cd44 2.273 1_655 S
O48 Cd46 2.411 . S
O48 C51 1.320 . S
O49 Cd46 2.333 . S
O49 C51 1.214 . S
O50 Cd46 2.352 . S
O50 C53 1.258 . S
C51 O48 1.320 . S
C51 O49 1.214 . S
O52 Cd44 2.285 . S
O52 C47 1.199 1_455 S
C53 O50 1.258 . S
C53 O55 1.282 . S
O54 Cd46 2.277 . S
O54 C47 1.226 . S
O55 Cd46 2.356 . S
O55 C53 1.282 . S
C56 O57 1.306 1_655 S
C56 O59 1.160 . S
O57 C56 1.306 1_455 S
O57 Cd58 2.228 . S
Cd58 O57 2.228 . S
Cd58 O62 2.273 1_455 S
Cd58 O66 2.285 . S
O59 C56 1.160 . S
O59 Cd60 2.203 . S
Cd60 O59 2.203 . S
Cd60 O62 2.411 . S
Cd60 O63 2.333 . S
Cd60 O64 2.352 . S
Cd60 O68 2.277 . S
Cd60 O69 2.356 . S
C61 O66 1.199 1_655 S
C61 O68 1.226 . S
O62 Cd58 2.273 1_655 S
O62 Cd60 2.411 . S
O62 C65 1.320 . S
O63 Cd60 2.333 . S
O63 C65 1.214 . S
O64 Cd60 2.352 . S
O64 C67 1.258 . S
C65 O62 1.320 . S
C65 O63 1.214 . S
O66 Cd58 2.285 . S
O66 C61 1.199 1_455 S
C67 O64 1.258 . S
C67 O69 1.282 . S
O68 Cd60 2.277 . S
O68 C61 1.226 . S
O69 Cd60 2.356 . S
O69 C67 1.282 . S
C70 O71 1.306 . S
C70 O73 1.160 . S
O71 C70 1.306 . S
O71 Cd72 2.228 . S
Cd72 O71 2.228 . S
Cd72 O76 2.273 . S
Cd72 O80 2.277 . S
O73 C70 1.160 . S
O73 Cd74 2.203 . S
Cd74 O73 2.203 . S
Cd74 O76 2.411 . S
Cd74 O77 2.333 . S
Cd74 O78 2.352 . S
Cd74 O82 2.277 . S
Cd74 O83 2.356 . S
C75 O80 1.209 . S
C75 O82 1.226 . S
O76 Cd72 2.273 . S
O76 Cd74 2.411 . S
O76 C79 1.320 . S
O77 Cd74 2.333 . S
O77 C79 1.214 . S
O78 Cd74 2.352 . S
O78 C81 1.258 . S
C79 O76 1.320 . S
C79 O77 1.214 . S
O80 Cd72 2.277 . S
O80 C75 1.209 . S
C81 O78 1.258 . S
C81 O83 1.282 . S
O82 Cd74 2.277 . S
O82 C75 1.226 . S
O83 Cd74 2.356 . S
O83 C81 1.282 . S
C84 O85 1.306 . S
C84 O87 1.160 . S
O85 C84 1.306 . S
O85 Cd86 2.228 . S
Cd86 O85 2.228 . S
Cd86 O90 2.273 . S
Cd86 O94 2.277 . S
O87 C84 1.160 . S
O87 Cd88 2.203 . S
Cd88 O87 2.203 . S
Cd88 O90 2.411 . S
Cd88 O91 2.333 . S
Cd88 O92 2.352 . S
Cd88 O96 2.277 . S
Cd88 O97 2.356 . S
C89 O94 1.209 . S
C89 O96 1.226 . S
O90 Cd86 2.273 . S
O90 Cd88 2.411 . S
O90 C93 1.320 . S
O91 Cd88 2.333 . S
O91 C93 1.214 . S
O92 Cd88 2.352 . S
O92 C95 1.258 . S
C93 O90 1.320 . S
C93 O91 1.214 . S
O94 Cd86 2.277 . S
O94 C89 1.209 . S
C95 O92 1.258 . S
C95 O97 1.282 . S
O96 Cd88 2.277 . S
O96 C89 1.226 . S
O97 Cd88 2.356 . S
O97 C95 1.282 . S
C98 O99 1.306 1_455 S
C98 O101 1.160 . S
O99 C98 1.306 1_655 S
O99 Cd100 2.228 . S
Cd100 O99 2.228 . S
Cd100 O104 2.273 1_655 S
Cd100 O108 2.285 . S
O101 C98 1.160 . S
O101 Cd102 2.203 . S
Cd102 O101 2.203 . S
Cd102 O104 2.411 . S
Cd102 O105 2.333 . S
Cd102 O106 2.352 . S
Cd102 O110 2.277 . S
Cd102 O111 2.356 . S
C103 O108 1.199 1_455 S
C103 O110 1.226 . S
O104 Cd100 2.273 1_455 S
O104 Cd102 2.411 . S
O104 C107 1.320 . S
O105 Cd102 2.333 . S
O105 C107 1.214 . S
O106 Cd102 2.352 . S
O106 C109 1.258 . S
C107 O104 1.320 . S
C107 O105 1.214 . S
O108 Cd100 2.285 . S
O108 C103 1.199 1_655 S
C109 O106 1.258 . S
C109 O111 1.282 . S
O110 Cd102 2.277 . S
O110 C103 1.226 . S
O111 Cd102 2.356 . S
O111 C109 1.282 . S
C112 O113 1.306 . S
C112 O115 1.160 . S
O113 C112 1.306 . S
O113 Cd114 2.228 . S
Cd114 O113 2.228 . S
Cd114 O118 2.273 . S
Cd114 O122 2.277 . S
O115 C112 1.160 . S
O115 Cd116 2.203 . S
Cd116 O115 2.203 . S
Cd116 O118 2.411 . S
Cd116 O119 2.333 . S
Cd116 O120 2.352 . S
Cd116 O124 2.277 . S
Cd116 O125 2.356 . S
C117 O122 1.209 . S
C117 O124 1.226 . S
O118 Cd114 2.273 . S
O118 Cd116 2.411 . S
O118 C121 1.320 . S
O119 Cd116 2.333 . S
O119 C121 1.214 . S
O120 Cd116 2.352 . S
O120 C123 1.258 . S
C121 O118 1.320 . S
C121 O119 1.214 . S
O122 Cd114 2.277 . S
O122 C117 1.209 . S
C123 O120 1.258 . S
C123 O125 1.282 . S
O124 Cd116 2.277 . S
O124 C117 1.226 . S
O125 Cd116 2.356 . S
O125 C123 1.282 . S
C126 O127 1.306 1_655 S
C126 O129 1.160 . S
O127 C126 1.306 1_455 S
O127 Cd128 2.228 . S
Cd128 O127 2.228 . S
Cd128 O132 2.273 1_455 S
Cd128 O136 2.285 . S
O129 C126 1.160 . S
O129 Cd130 2.203 . S
Cd130 O129 2.203 . S
Cd130 O132 2.411 . S
Cd130 O133 2.333 . S
Cd130 O134 2.352 . S
Cd130 O138 2.277 . S
Cd130 O139 2.356 . S
C131 O136 1.199 1_655 S
C131 O138 1.226 . S
O132 Cd128 2.273 1_655 S
O132 Cd130 2.411 . S
O132 C135 1.320 . S
O133 Cd130 2.333 . S
O133 C135 1.214 . S
O134 Cd130 2.352 . S
O134 C137 1.258 . S
C135 O132 1.320 . S
C135 O133 1.214 . S
O136 Cd128 2.285 . S
O136 C131 1.199 1_455 S
C137 O134 1.258 . S
C137 O139 1.282 . S
O138 Cd130 2.277 . S
O138 C131 1.226 . S
O139 Cd130 2.356 . S
O139 C137 1.282 . S
C140 O141 1.306 1_455 S
C140 O143 1.160 . S
O141 C140 1.306 1_655 S
O141 Cd142 2.228 . S
Cd142 O141 2.228 . S
Cd142 O146 2.273 1_655 S
Cd142 O150 2.285 . S
O143 C140 1.160 . S
O143 Cd144 2.203 . S
Cd144 O143 2.203 . S
Cd144 O146 2.411 . S
Cd144 O147 2.333 . S
Cd144 O148 2.352 . S
Cd144 O152 2.277 . S
Cd144 O153 2.356 . S
C145 O150 1.199 1_455 S
C145 O152 1.226 . S
O146 Cd142 2.273 1_455 S
O146 Cd144 2.411 . S
O146 C149 1.320 . S
O147 Cd144 2.333 . S
O147 C149 1.214 . S
O148 Cd144 2.352 . S
O148 C151 1.258 . S
C149 O146 1.320 . S
C149 O147 1.214 . S
O150 Cd142 2.285 . S
O150 C145 1.199 1_655 S
C151 O148 1.258 . S
C151 O153 1.282 . S
O152 Cd144 2.277 . S
O152 C145 1.226 . S
O153 Cd144 2.356 . S
O153 C151 1.282 . S
C154 O155 1.306 . S
C154 O157 1.160 . S
O155 C154 1.306 . S
O155 Cd156 2.228 . S
Cd156 O155 2.228 . S
Cd156 O160 2.273 . S
Cd156 O164 2.277 . S
O157 C154 1.160 . S
O157 Cd158 2.203 . S
Cd158 O157 2.203 . S
Cd158 O160 2.411 . S
Cd158 O161 2.333 . S
Cd158 O162 2.352 . S
Cd158 O166 2.277 . S
Cd158 O167 2.356 . S
C159 O164 1.209 . S
C159 O166 1.226 . S
O160 Cd156 2.273 . S
O160 Cd158 2.411 . S
O160 C163 1.320 . S
O161 Cd158 2.333 . S
O161 C163 1.214 . S
O162 Cd158 2.352 . S
O162 C165 1.258 . S
C163 O160 1.320 . S
C163 O161 1.214 . S
O164 Cd156 2.277 . S
O164 C159 1.209 . S
C165 O162 1.258 . S
C165 O167 1.282 . S
O166 Cd158 2.277 . S
O166 C159 1.226 . S
O167 Cd158 2.356 . S
O167 C165 1.282 . S
C168 O169 1.306 . S
C168 O171 1.160 . S
O169 C168 1.306 . S
O169 Cd170 2.228 . S
Cd170 O169 2.228 . S
Cd170 O174 2.273 . S
Cd170 O178 2.277 . S
O171 C168 1.160 . S
O171 Cd172 2.203 . S
Cd172 O171 2.203 . S
Cd172 O174 2.411 . S
Cd172 O175 2.333 . S
Cd172 O176 2.352 . S
Cd172 O180 2.277 . S
Cd172 O181 2.356 . S
C173 O178 1.209 . S
C173 O180 1.226 . S
O174 Cd170 2.273 . S
O174 Cd172 2.411 . S
O174 C177 1.320 . S
O175 Cd172 2.333 . S
O175 C177 1.214 . S
O176 Cd172 2.352 . S
O176 C179 1.258 . S
C177 O174 1.320 . S
C177 O175 1.214 . S
O178 Cd170 2.277 . S
O178 C173 1.209 . S
C179 O176 1.258 . S
C179 O181 1.282 . S
O180 Cd172 2.277 . S
O180 C173 1.226 . S
O181 Cd172 2.356 . S
O181 C179 1.282 . S
C182 O183 1.306 1_455 S
C182 O185 1.160 . S
O183 C182 1.306 1_655 S
O183 Cd184 2.228 . S
Cd184 O183 2.228 . S
Cd184 O188 2.273 1_655 S
Cd184 O192 2.285 . S
O185 C182 1.160 . S
O185 Cd186 2.203 . S
Cd186 O185 2.203 . S
Cd186 O188 2.411 . S
Cd186 O189 2.333 . S
Cd186 O190 2.352 . S
Cd186 O194 2.277 . S
Cd186 O195 2.356 . S
C187 O192 1.199 1_455 S
C187 O194 1.226 . S
O188 Cd184 2.273 1_455 S
O188 Cd186 2.411 . S
O188 C191 1.320 . S
O189 Cd186 2.333 . S
O189 C191 1.214 . S
O190 Cd186 2.352 . S
O190 C193 1.258 . S
C191 O188 1.320 . S
C191 O189 1.214 . S
O192 Cd184 2.285 . S
O192 C187 1.199 1_655 S
C193 O190 1.258 . S
C193 O195 1.282 . S
O194 Cd186 2.277 . S
O194 C187 1.226 . S
O195 Cd186 2.356 . S
O195 C193 1.282 . S
C196 O197 1.306 1_655 S
C196 O199 1.160 . S
O197 C196 1.306 1_455 S
O197 Cd198 2.228 . S
Cd198 O197 2.228 . S
Cd198 O202 2.273 1_455 S
Cd198 O206 2.285 . S
O199 C196 1.160 . S
O199 Cd200 2.203 . S
Cd200 O199 2.203 . S
Cd200 O202 2.411 . S
Cd200 O203 2.333 . S
Cd200 O204 2.352 . S
Cd200 O208 2.277 . S
Cd200 O209 2.356 . S
C201 O206 1.199 1_655 S
C201 O208 1.226 . S
O202 Cd198 2.273 1_655 S
O202 Cd200 2.411 . S
O202 C205 1.320 . S
O203 Cd200 2.333 . S
O203 C205 1.214 . S
O204 Cd200 2.352 . S
O204 C207 1.258 . S
C205 O202 1.320 . S
C205 O203 1.214 . S
O206 Cd198 2.285 . S
O206 C201 1.199 1_455 S
C207 O204 1.258 . S
C207 O209 1.282 . S
O208 Cd200 2.277 . S
O208 C201 1.226 . S
O209 Cd200 2.356 . S
O209 C207 1.282 . S
C210 O211 1.306 . S
C210 O213 1.160 . S
O211 C210 1.306 . S
O211 Cd212 2.228 . S
Cd212 O211 2.228 . S
Cd212 O216 2.273 . S
Cd212 O220 2.277 . S
O213 C210 1.160 . S
O213 Cd214 2.203 . S
Cd214 O213 2.203 . S
Cd214 O216 2.411 . S
Cd214 O217 2.333 . S
Cd214 O218 2.352 . S
Cd214 O222 2.277 . S
Cd214 O223 2.356 . S
C215 O220 1.209 . S
C215 O222 1.226 . S
O216 Cd212 2.273 . S
O216 Cd214 2.411 . S
O216 C219 1.320 . S
O217 Cd214 2.333 . S
O217 C219 1.214 . S
O218 Cd214 2.352 . S
O218 C221 1.258 . S
C219 O216 1.320 . S
C219 O217 1.214 . S
O220 Cd212 2.277 . S
O220 C215 1.209 . S
C221 O218 1.258 . S
C221 O223 1.282 . S
O222 Cd214 2.277 . S
O222 C215 1.226 . S
O223 Cd214 2.356 . S
O223 C221 1.282 . S
C224 C225 1.363 . S
C224 C230 1.379 . S
C224 N232 1.356 . S
C225 C224 1.363 . S
C225 C231 1.363 1_565 S
C226 C227 1.363 . S
C226 C231 1.379 . S
C226 N233 1.356 . S
C227 C226 1.363 . S
C227 C230 1.363 1_545 S
N228 C230 1.356 . S
N228 H240 0.984 . S
N228 H241 0.985 . S
N229 C231 1.356 . S
N229 H234 0.984 . S
N229 H235 0.985 . S
C230 C224 1.379 . S
C230 C227 1.363 1_565 S
C230 N228 1.356 . S
C231 C225 1.363 1_545 S
C231 C226 1.379 . S
C231 N229 1.356 . S
N232 C224 1.356 . S
N232 H238 0.984 . S
N232 H239 0.984 . S
N233 C226 1.356 . S
N233 H236 0.984 . S
N233 H237 0.985 . S
H234 N229 0.984 . S
H235 N229 0.985 . S
H236 N233 0.984 . S
H237 N233 0.985 . S
H238 N232 0.984 . S
H239 N232 0.984 . S
H240 N228 0.984 . S
H241 N228 0.985 . S
C242 C243 1.363 1_545 S
C242 C248 1.379 . S
C242 N250 1.356 . S
C243 C242 1.363 1_565 S
C243 C249 1.363 . S
C244 C245 1.363 1_565 S
C244 C249 1.379 . S
C244 N251 1.356 . S
C245 C244 1.363 1_545 S
C245 C248 1.363 . S
N246 C248 1.356 . S
N246 H258 0.984 . S
N246 H259 0.985 . S
N247 C249 1.356 . S
N247 H252 0.984 . S
N247 H253 0.985 . S
C248 C242 1.379 . S
C248 C245 1.363 . S
C248 N246 1.356 . S
C249 C243 1.363 . S
C249 C244 1.379 . S
C249 N247 1.356 . S
N250 C242 1.356 . S
N250 H256 0.984 . S
N250 H257 0.984 . S
N251 C244 1.356 . S
N251 H254 0.984 . S
N251 H255 0.985 . S
H252 N247 0.984 . S
H253 N247 0.985 . S
H254 N251 0.984 . S
H255 N251 0.985 . S
H256 N250 0.984 . S
H257 N250 0.984 . S
H258 N246 0.984 . S
H259 N246 0.985 . S
C260 C261 1.363 . S
C260 C266 1.379 . S
C260 N268 1.356 . S
C261 C260 1.363 . S
C261 C267 1.363 1_565 S
C262 C263 1.363 . S
C262 C267 1.379 . S
C262 N269 1.356 . S
C263 C262 1.363 . S
C263 C266 1.363 1_545 S
N264 C266 1.356 . S
N264 H276 0.984 . S
N264 H277 0.985 . S
N265 C267 1.356 . S
N265 H270 0.984 . S
N265 H271 0.985 . S
C266 C260 1.379 . S
C266 C263 1.363 1_565 S
C266 N264 1.356 . S
C267 C261 1.363 1_545 S
C267 C262 1.379 . S
C267 N265 1.356 . S
N268 C260 1.356 . S
N268 H274 0.984 . S
N268 H275 0.984 . S
N269 C262 1.356 . S
N269 H272 0.984 . S
N269 H273 0.985 . S
H270 N265 0.984 . S
H271 N265 0.985 . S
H272 N269 0.984 . S
H273 N269 0.985 . S
H274 N268 0.984 . S
H275 N268 0.984 . S
H276 N264 0.984 . S
H277 N264 0.985 . S
C278 C279 1.363 . S
C278 C284 1.379 . S
C278 N286 1.356 . S
C279 C278 1.363 . S
C279 C285 1.363 1_565 S
C280 C281 1.363 . S
C280 C285 1.379 . S
C280 N287 1.356 . S
C281 C280 1.363 . S
C281 C284 1.363 1_545 S
N282 C284 1.356 . S
N282 H294 0.984 . S
N282 H295 0.985 . S
N283 C285 1.356 . S
N283 H288 0.984 . S
N283 H289 0.985 . S
C284 C278 1.379 . S
C284 C281 1.363 1_565 S
C284 N282 1.356 . S
C285 C279 1.363 1_545 S
C285 C280 1.379 . S
C285 N283 1.356 . S
N286 C278 1.356 . S
N286 H292 0.984 . S
N286 H293 0.984 . S
N287 C280 1.356 . S
N287 H290 0.984 . S
N287 H291 0.985 . S
H288 N283 0.984 . S
H289 N283 0.985 . S
H290 N287 0.984 . S
H291 N287 0.985 . S
H292 N286 0.984 . S
H293 N286 0.984 . S
H294 N282 0.984 . S
H295 N282 0.985 . S
C296 C297 1.363 . S
C296 C302 1.379 . S
C296 N304 1.356 . S
C297 C296 1.363 . S
C297 C303 1.363 . S
C298 C299 1.363 . S
C298 C303 1.379 . S
C298 N305 1.356 . S
C299 C298 1.363 . S
C299 C302 1.363 . S
N300 C302 1.356 . S
N300 H312 0.984 . S
N300 H313 0.985 . S
N301 C303 1.356 . S
N301 H306 0.984 . S
N301 H307 0.985 . S
C302 C296 1.379 . S
C302 C299 1.363 . S
C302 N300 1.356 . S
C303 C297 1.363 . S
C303 C298 1.379 . S
C303 N301 1.356 . S
N304 C296 1.356 . S
N304 H310 0.984 . S
N304 H311 0.984 . S
N305 C298 1.356 . S
N305 H308 0.984 . S
N305 H309 0.985 . S
H306 N301 0.984 . S
H307 N301 0.985 . S
H308 N305 0.984 . S
H309 N305 0.985 . S
H310 N304 0.984 . S
H311 N304 0.984 . S
H312 N300 0.984 . S
H313 N300 0.985 . S
C314 C315 1.363 . S
C314 C320 1.379 . S
C314 N322 1.356 . S
C315 C314 1.363 . S
C315 C321 1.363 . S
C316 C317 1.363 . S
C316 C321 1.379 . S
C316 N323 1.356 . S
C317 C316 1.363 . S
C317 C320 1.363 . S
N318 C320 1.356 . S
N318 H330 0.984 . S
N318 H331 0.985 . S
N319 C321 1.356 . S
N319 H324 0.984 . S
N319 H325 0.985 . S
C320 C314 1.379 . S
C320 C317 1.363 . S
C320 N318 1.356 . S
C321 C315 1.363 . S
C321 C316 1.379 . S
C321 N319 1.356 . S
N322 C314 1.356 . S
N322 H328 0.984 . S
N322 H329 0.984 . S
N323 C316 1.356 . S
N323 H326 0.984 . S
N323 H327 0.985 . S
H324 N319 0.984 . S
H325 N319 0.985 . S
H326 N323 0.984 . S
H327 N323 0.985 . S
H328 N322 0.984 . S
H329 N322 0.984 . S
H330 N318 0.984 . S
H331 N318 0.985 . S
C332 C333 1.363 . S
C332 C338 1.379 . S
C332 N340 1.356 . S
C333 C332 1.363 . S
C333 C339 1.363 . S
C334 C335 1.363 . S
C334 C339 1.379 . S
C334 N341 1.356 . S
C335 C334 1.363 . S
C335 C338 1.363 . S
N336 C338 1.356 . S
N336 H348 0.984 . S
N336 H349 0.985 . S
N337 C339 1.356 . S
N337 H342 0.984 . S
N337 H343 0.985 . S
C338 C332 1.379 . S
C338 C335 1.363 . S
C338 N336 1.356 . S
C339 C333 1.363 . S
C339 C334 1.379 . S
C339 N337 1.356 . S
N340 C332 1.356 . S
N340 H346 0.984 . S
N340 H347 0.984 . S
N341 C334 1.356 . S
N341 H344 0.984 . S
N341 H345 0.985 . S
H342 N337 0.984 . S
H343 N337 0.985 . S
H344 N341 0.984 . S
H345 N341 0.985 . S
H346 N340 0.984 . S
H347 N340 0.984 . S
H348 N336 0.984 . S
H349 N336 0.985 . S
C350 C351 1.363 . S
C350 C356 1.379 . S
C350 N358 1.356 . S
C351 C350 1.363 . S
C351 C357 1.363 . S
C352 C353 1.363 . S
C352 C357 1.379 . S
C352 N359 1.356 . S
C353 C352 1.363 . S
C353 C356 1.363 . S
N354 C356 1.356 . S
N354 H366 0.984 . S
N354 H367 0.985 . S
N355 C357 1.356 . S
N355 H360 0.984 . S
N355 H361 0.985 . S
C356 C350 1.379 . S
C356 C353 1.363 . S
C356 N354 1.356 . S
C357 C351 1.363 . S
C357 C352 1.379 . S
C357 N355 1.356 . S
N358 C350 1.356 . S
N358 H364 0.984 . S
N358 H365 0.984 . S
N359 C352 1.356 . S
N359 H362 0.984 . S
N359 H363 0.985 . S
H360 N355 0.984 . S
H361 N355 0.985 . S
H362 N359 0.984 . S
H363 N359 0.985 . S
H364 N358 0.984 . S
H365 N358 0.984 . S
H366 N354 0.984 . S
H367 N354 0.985 . S
C368 C369 1.363 . S
C368 C374 1.379 . S
C368 N376 1.356 . S
C369 C368 1.363 . S
C369 C375 1.363 1_655 S
C370 C371 1.363 . S
C370 C375 1.379 . S
C370 N377 1.356 1_545 S
C371 C370 1.363 . S
C371 C374 1.363 1_455 S
N372 C374 1.356 . S
N372 H384 0.984 . S
N372 H385 0.985 . S
N373 C375 1.356 1_565 S
N373 H378 0.984 1_565 S
N373 H379 0.985 . S
C374 C368 1.379 . S
C374 C371 1.363 1_655 S
C374 N372 1.356 . S
C375 C369 1.363 1_455 S
C375 C370 1.379 . S
C375 N373 1.356 1_545 S
N376 C368 1.356 . S
N376 H382 0.984 . S
N376 H383 0.984 . S
N377 C370 1.356 1_565 S
N377 H380 0.984 1_565 S
N377 H381 0.985 . S
H378 N373 0.984 1_545 S
H379 N373 0.985 . S
H380 N377 0.984 1_545 S
H381 N377 0.985 . S
H382 N376 0.984 . S
H383 N376 0.984 . S
H384 N372 0.984 . S
H385 N372 0.985 . S
C386 C387 1.363 . S
C386 C392 1.379 . S
C386 N394 1.356 1_565 S
C387 C386 1.363 . S
C387 C393 1.363 . S
C388 C389 1.363 . S
C388 C393 1.379 . S
C388 N395 1.356 . S
C389 C388 1.363 . S
C389 C392 1.363 . S
N390 C392 1.356 1_545 S
N390 H402 0.984 . S
N390 H403 0.985 1_545 S
N391 C393 1.356 . S
N391 H396 0.984 . S
N391 H397 0.985 . S
C392 C386 1.379 . S
C392 C389 1.363 . S
C392 N390 1.356 1_565 S
C393 C387 1.363 . S
C393 C388 1.379 . S
C393 N391 1.356 . S
N394 C386 1.356 1_545 S
N394 H400 0.984 . S
N394 H401 0.984 1_545 S
N395 C388 1.356 . S
N395 H398 0.984 . S
N395 H399 0.985 . S
H396 N391 0.984 . S
H397 N391 0.985 . S
H398 N395 0.984 . S
H399 N395 0.985 . S
H400 N394 0.984 . S
H401 N394 0.984 1_565 S
H402 N390 0.984 . S
H403 N390 0.985 1_565 S
C404 C405 1.363 1_655 S
C404 C410 1.379 . S
C404 N412 1.356 . S
C405 C404 1.363 1_455 S
C405 C411 1.363 . S
C406 C407 1.363 1_455 S
C406 C411 1.379 . S
C406 N413 1.356 1_565 S
C407 C406 1.363 1_655 S
C407 C410 1.363 . S
N408 C410 1.356 . S
N408 H420 0.984 . S
N408 H421 0.985 . S
N409 C411 1.356 1_545 S
N409 H414 0.984 1_545 S
N409 H415 0.985 . S
C410 C404 1.379 . S
C410 C407 1.363 . S
C410 N408 1.356 . S
C411 C405 1.363 . S
C411 C406 1.379 . S
C411 N409 1.356 1_565 S
N412 C404 1.356 . S
N412 H418 0.984 . S
N412 H419 0.984 . S
N413 C406 1.356 1_545 S
N413 H416 0.984 1_545 S
N413 H417 0.985 . S
H414 N409 0.984 1_565 S
H415 N409 0.985 . S
H416 N413 0.984 1_565 S
H417 N413 0.985 . S
H418 N412 0.984 . S
H419 N412 0.984 . S
H420 N408 0.984 . S
H421 N408 0.985 . S
C422 C423 1.363 . S
C422 C428 1.379 . S
C422 N430 1.356 . S
C423 C422 1.363 . S
C423 C429 1.363 . S
C424 C425 1.363 . S
C424 C429 1.379 . S
C424 N431 1.356 1_545 S
C425 C424 1.363 . S
C425 C428 1.363 . S
N426 C428 1.356 . S
N426 H438 0.984 . S
N426 H439 0.985 . S
N427 C429 1.356 1_565 S
N427 H432 0.984 1_565 S
N427 H433 0.985 . S
C428 C422 1.379 . S
C428 C425 1.363 . S
C428 N426 1.356 . S
C429 C423 1.363 . S
C429 C424 1.379 . S
C429 N427 1.356 1_545 S
N430 C422 1.356 . S
N430 H436 0.984 . S
N430 H437 0.984 . S
N431 C424 1.356 1_565 S
N431 H434 0.984 1_565 S
N431 H435 0.985 . S
H432 N427 0.984 1_545 S
H433 N427 0.985 . S
H434 N431 0.984 1_545 S
H435 N431 0.985 . S
H436 N430 0.984 . S
H437 N430 0.984 . S
H438 N426 0.984 . S
H439 N426 0.985 . S
C440 C441 1.363 . S
C440 C446 1.379 . S
C440 N448 1.356 . S
C441 C440 1.363 . S
C441 C447 1.363 . S
C442 C443 1.363 . S
C442 C447 1.379 . S
C442 N449 1.356 . S
C443 C442 1.363 . S
C443 C446 1.363 . S
N444 C446 1.356 . S
N444 H456 0.984 . S
N444 H457 0.985 . S
N445 C447 1.356 . S
N445 H450 0.984 . S
N445 H451 0.985 . S
C446 C440 1.379 . S
C446 C443 1.363 . S
C446 N444 1.356 . S
C447 C441 1.363 . S
C447 C442 1.379 . S
C447 N445 1.356 . S
N448 C440 1.356 . S
N448 H454 0.984 . S
N448 H455 0.984 . S
N449 C442 1.356 . S
N449 H452 0.984 . S
N449 H453 0.985 . S
H450 N445 0.984 . S
H451 N445 0.985 . S
H452 N449 0.984 . S
H453 N449 0.985 . S
H454 N448 0.984 . S
H455 N448 0.984 . S
H456 N444 0.984 . S
H457 N444 0.985 . S
C458 C459 1.363 1_655 S
C458 C464 1.379 . S
C458 N466 1.356 . S
C459 C458 1.363 1_455 S
C459 C465 1.363 . S
C460 C461 1.363 1_455 S
C460 C465 1.379 . S
C460 N467 1.356 . S
C461 C460 1.363 1_655 S
C461 C464 1.363 . S
N462 C464 1.356 . S
N462 H474 0.984 . S
N462 H475 0.985 . S
N463 C465 1.356 . S
N463 H468 0.984 . S
N463 H469 0.985 . S
C464 C458 1.379 . S
C464 C461 1.363 . S
C464 N462 1.356 . S
C465 C459 1.363 . S
C465 C460 1.379 . S
C465 N463 1.356 . S
N466 C458 1.356 . S
N466 H472 0.984 . S
N466 H473 0.984 . S
N467 C460 1.356 . S
N467 H470 0.984 . S
N467 H471 0.985 . S
H468 N463 0.984 . S
H469 N463 0.985 . S
H470 N467 0.984 . S
H471 N467 0.985 . S
H472 N466 0.984 . S
H473 N466 0.984 . S
H474 N462 0.984 . S
H475 N462 0.985 . S
C476 C477 1.363 . S
C476 C482 1.379 . S
C476 N484 1.356 . S
C477 C476 1.363 . S
C477 C483 1.363 . S
C478 C479 1.363 . S
C478 C483 1.379 . S
C478 N485 1.356 . S
C479 C478 1.363 . S
C479 C482 1.363 . S
N480 C482 1.356 . S
N480 H492 0.984 . S
N480 H493 0.985 . S
N481 C483 1.356 . S
N481 H486 0.984 . S
N481 H487 0.985 . S
C482 C476 1.379 . S
C482 C479 1.363 . S
C482 N480 1.356 . S
C483 C477 1.363 . S
C483 C478 1.379 . S
C483 N481 1.356 . S
N484 C476 1.356 . S
N484 H490 0.984 . S
N484 H491 0.984 . S
N485 C478 1.356 . S
N485 H488 0.984 . S
N485 H489 0.985 . S
H486 N481 0.984 . S
H487 N481 0.985 . S
H488 N485 0.984 . S
H489 N485 0.985 . S
H490 N484 0.984 . S
H491 N484 0.984 . S
H492 N480 0.984 . S
H493 N480 0.985 . S
C494 C495 1.363 . S
C494 C500 1.379 . S
C494 N502 1.356 . S
C495 C494 1.363 . S
C495 C501 1.363 1_455 S
C496 C497 1.363 . S
C496 C501 1.379 . S
C496 N503 1.356 . S
C497 C496 1.363 . S
C497 C500 1.363 1_655 S
N498 C500 1.356 . S
N498 H510 0.984 . S
N498 H511 0.985 . S
N499 C501 1.356 . S
N499 H504 0.984 . S
N499 H505 0.985 . S
C500 C494 1.379 . S
C500 C497 1.363 1_455 S
C500 N498 1.356 . S
C501 C495 1.363 1_655 S
C501 C496 1.379 . S
C501 N499 1.356 . S
N502 C494 1.356 . S
N502 H508 0.984 . S
N502 H509 0.984 . S
N503 C496 1.356 . S
N503 H506 0.984 . S
N503 H507 0.985 . S
H504 N499 0.984 . S
H505 N499 0.985 . S
H506 N503 0.984 . S
H507 N503 0.985 . S
H508 N502 0.984 . S
H509 N502 0.984 . S
H510 N498 0.984 . S
H511 N498 0.985 . S
C512 C513 1.363 . S
C512 C518 1.379 . S
C512 N520 1.356 . S
C513 C512 1.363 . S
C513 C519 1.363 1_455 S
C514 C515 1.363 . S
C514 C519 1.379 . S
C514 N521 1.356 . S
C515 C514 1.363 . S
C515 C518 1.363 1_655 S
N516 C518 1.356 . S
N516 H528 0.984 . S
N516 H529 0.985 . S
N517 C519 1.356 . S
N517 H522 0.984 . S
N517 H523 0.985 . S
C518 C512 1.379 . S
C518 C515 1.363 1_455 S
C518 N516 1.356 . S
C519 C513 1.363 1_655 S
C519 C514 1.379 . S
C519 N517 1.356 . S
N520 C512 1.356 . S
N520 H526 0.984 . S
N520 H527 0.984 . S
N521 C514 1.356 . S
N521 H524 0.984 . S
N521 H525 0.985 . S
H522 N517 0.984 . S
H523 N517 0.985 . S
H524 N521 0.984 . S
H525 N521 0.985 . S
H526 N520 0.984 . S
H527 N520 0.984 . S
H528 N516 0.984 . S
H529 N516 0.985 . S
C530 C531 1.363 . S
C530 C536 1.379 . S
C530 N538 1.356 . S
C531 C530 1.363 . S
C531 C537 1.363 . S
C532 C533 1.363 . S
C532 C537 1.379 . S
C532 N539 1.356 . S
C533 C532 1.363 . S
C533 C536 1.363 . S
N534 C536 1.356 . S
N534 H546 0.984 . S
N534 H547 0.985 . S
N535 C537 1.356 . S
N535 H540 0.984 . S
N535 H541 0.985 . S
C536 C530 1.379 . S
C536 C533 1.363 . S
C536 N534 1.356 . S
C537 C531 1.363 . S
C537 C532 1.379 . S
C537 N535 1.356 . S
N538 C530 1.356 . S
N538 H544 0.984 . S
N538 H545 0.984 . S
N539 C532 1.356 . S
N539 H542 0.984 . S
N539 H543 0.985 . S
H540 N535 0.984 . S
H541 N535 0.985 . S
H542 N539 0.984 . S
H543 N539 0.985 . S
H544 N538 0.984 . S
H545 N538 0.984 . S
H546 N534 0.984 . S
H547 N534 0.985 . S
C548 C549 1.363 . S
C548 C554 1.379 . S
C548 N556 1.356 . S
C549 C548 1.363 . S
C549 C555 1.363 . S
C550 C551 1.363 . S
C550 C555 1.379 . S
C550 N557 1.356 . S
C551 C550 1.363 . S
C551 C554 1.363 . S
N552 C554 1.356 . S
N552 H564 0.984 . S
N552 H565 0.985 . S
N553 C555 1.356 . S
N553 H558 0.984 . S
N553 H559 0.985 . S
C554 C548 1.379 . S
C554 C551 1.363 . S
C554 N552 1.356 . S
C555 C549 1.363 . S
C555 C550 1.379 . S
C555 N553 1.356 . S
N556 C548 1.356 . S
N556 H562 0.984 . S
N556 H563 0.984 . S
N557 C550 1.356 . S
N557 H560 0.984 . S
N557 H561 0.985 . S
H558 N553 0.984 . S
H559 N553 0.985 . S
H560 N557 0.984 . S
H561 N557 0.985 . S
H562 N556 0.984 . S
H563 N556 0.984 . S
H564 N552 0.984 . S
H565 N552 0.985 . S
C566 C567 1.363 1_655 S
C566 C572 1.379 . S
C566 N574 1.356 . S
C567 C566 1.363 1_455 S
C567 C573 1.363 . S
C568 C569 1.363 1_455 S
C568 C573 1.379 . S
C568 N575 1.356 . S
C569 C568 1.363 1_655 S
C569 C572 1.363 . S
N570 C572 1.356 . S
N570 H582 0.984 . S
N570 H583 0.985 . S
N571 C573 1.356 . S
N571 H576 0.984 . S
N571 H577 0.985 . S
C572 C566 1.379 . S
C572 C569 1.363 . S
C572 N570 1.356 . S
C573 C567 1.363 . S
C573 C568 1.379 . S
C573 N571 1.356 . S
N574 C566 1.356 . S
N574 H580 0.984 . S
N574 H581 0.984 . S
N575 C568 1.356 . S
N575 H578 0.984 . S
N575 H579 0.985 . S
H576 N571 0.984 . S
H577 N571 0.985 . S
H578 N575 0.984 . S
H579 N575 0.985 . S
H580 N574 0.984 . S
H581 N574 0.984 . S
H582 N570 0.984 . S
H583 N570 0.985 . S
C584 C585 1.363 . S
C584 C590 1.379 . S
C584 N592 1.356 . S
C585 C584 1.363 . S
C585 C591 1.363 1_455 S
C586 C587 1.363 . S
C586 C591 1.379 . S
C586 N593 1.356 . S
C587 C586 1.363 . S
C587 C590 1.363 1_655 S
N588 C590 1.356 . S
N588 H600 0.984 . S
N588 H601 0.985 . S
N589 C591 1.356 . S
N589 H594 0.984 . S
N589 H595 0.985 . S
C590 C584 1.379 . S
C590 C587 1.363 1_455 S
C590 N588 1.356 . S
C591 C585 1.363 1_655 S
C591 C586 1.379 . S
C591 N589 1.356 . S
N592 C584 1.356 . S
N592 H598 0.984 . S
N592 H599 0.984 . S
N593 C586 1.356 . S
N593 H596 0.984 . S
N593 H597 0.985 . S
H594 N589 0.984 . S
H595 N589 0.985 . S
H596 N593 0.984 . S
H597 N593 0.985 . S
H598 N592 0.984 . S
H599 N592 0.984 . S
H600 N588 0.984 . S
H601 N588 0.985 . S
C602 C603 1.363 . S
C602 C608 1.379 . S
C602 N610 1.356 . S
C603 C602 1.363 . S
C603 C609 1.363 . S
C604 C605 1.363 . S
C604 C609 1.379 . S
C604 N611 1.356 . S
C605 C604 1.363 . S
C605 C608 1.363 . S
N606 C608 1.356 . S
N606 H618 0.984 . S
N606 H619 0.985 . S
N607 C609 1.356 . S
N607 H612 0.984 . S
N607 H613 0.985 . S
C608 C602 1.379 . S
C608 C605 1.363 . S
C608 N606 1.356 . S
C609 C603 1.363 . S
C609 C604 1.379 . S
C609 N607 1.356 . S
N610 C602 1.356 . S
N610 H616 0.984 . S
N610 H617 0.984 . S
N611 C604 1.356 . S
N611 H614 0.984 . S
N611 H615 0.985 . S
H612 N607 0.984 . S
H613 N607 0.985 . S
H614 N611 0.984 . S
H615 N611 0.985 . S
H616 N610 0.984 . S
H617 N610 0.984 . S
H618 N606 0.984 . S
H619 N606 0.985 . S
C620 C621 1.363 . S
C620 C626 1.379 . S
C620 N628 1.356 . S
C621 C620 1.363 . S
C621 C627 1.363 . S
C622 C623 1.363 . S
C622 C627 1.379 . S
C622 N629 1.356 . S
C623 C622 1.363 . S
C623 C626 1.363 . S
N624 C626 1.356 . S
N624 H636 0.984 . S
N624 H637 0.985 . S
N625 C627 1.356 . S
N625 H630 0.984 . S
N625 H631 0.985 . S
C626 C620 1.379 . S
C626 C623 1.363 . S
C626 N624 1.356 . S
C627 C621 1.363 . S
C627 C622 1.379 . S
C627 N625 1.356 . S
N628 C620 1.356 . S
N628 H634 0.984 . S
N628 H635 0.984 . S
N629 C622 1.356 . S
N629 H632 0.984 . S
N629 H633 0.985 . S
H630 N625 0.984 . S
H631 N625 0.985 . S
H632 N629 0.984 . S
H633 N629 0.985 . S
H634 N628 0.984 . S
H635 N628 0.984 . S
H636 N624 0.984 . S
H637 N624 0.985 . S
C638 C639 1.363 . S
C638 C644 1.379 . S
C638 N646 1.356 . S
C639 C638 1.363 . S
C639 C645 1.363 1_455 S
C640 C641 1.363 . S
C640 C645 1.379 . S
C640 N647 1.356 . S
C641 C640 1.363 . S
C641 C644 1.363 1_655 S
N642 C644 1.356 . S
N642 H654 0.984 . S
N642 H655 0.985 . S
N643 C645 1.356 . S
N643 H648 0.984 . S
N643 H649 0.985 . S
C644 C638 1.379 . S
C644 C641 1.363 1_455 S
C644 N642 1.356 . S
C645 C639 1.363 1_655 S
C645 C640 1.379 . S
C645 N643 1.356 . S
N646 C638 1.356 . S
N646 H652 0.984 . S
N646 H653 0.984 . S
N647 C640 1.356 . S
N647 H650 0.984 . S
N647 H651 0.985 . S
H648 N643 0.984 . S
H649 N643 0.985 . S
H650 N647 0.984 . S
H651 N647 0.985 . S
H652 N646 0.984 . S
H653 N646 0.984 . S
H654 N642 0.984 . S
H655 N642 0.985 . S
C656 C657 1.363 . S
C656 C662 1.379 1_556 S
C656 N664 1.356 . S
C657 C656 1.363 . S
C657 C663 1.363 1_665 S
C658 C659 1.363 . S
C658 C663 1.379 1_554 S
C658 N665 1.356 . S
C659 C658 1.363 . S
C659 C662 1.363 1_445 S
N660 C662 1.356 . S
N660 H672 0.984 . S
N660 H673 0.985 1_565 S
N661 C663 1.356 . S
N661 H666 0.984 1_545 S
N661 H667 0.985 . S
C662 C656 1.379 1_554 S
C662 C659 1.363 1_665 S
C662 N660 1.356 . S
C663 C657 1.363 1_445 S
C663 C658 1.379 1_556 S
C663 N661 1.356 . S
N664 C656 1.356 . S
N664 H670 0.984 . S
N664 H671 0.984 . S
N665 C658 1.356 . S
N665 H668 0.984 . S
N665 H669 0.985 . S
H666 N661 0.984 1_565 S
H667 N661 0.985 . S
H668 N665 0.984 . S
H669 N665 0.985 . S
H670 N664 0.984 . S
H671 N664 0.984 . S
H672 N660 0.984 . S
H673 N660 0.985 1_545 S
C674 C675 1.363 1_565 S
C674 C680 1.379 1_556 S
C674 N682 1.356 . S
C675 C674 1.363 1_545 S
C675 C681 1.363 . S
C676 C677 1.363 1_545 S
C676 C681 1.379 1_554 S
C676 N683 1.356 . S
C677 C676 1.363 1_565 S
C677 C680 1.363 . S
N678 C680 1.356 . S
N678 H690 0.984 . S
N678 H691 0.985 . S
N679 C681 1.356 . S
N679 H684 0.984 . S
N679 H685 0.985 . S
C680 C674 1.379 1_554 S
C680 C677 1.363 . S
C680 N678 1.356 . S
C681 C675 1.363 . S
C681 C676 1.379 1_556 S
C681 N679 1.356 . S
N682 C674 1.356 . S
N682 H688 0.984 . S
N682 H689 0.984 . S
N683 C676 1.356 . S
N683 H686 0.984 . S
N683 H687 0.985 . S
H684 N679 0.984 . S
H685 N679 0.985 . S
H686 N683 0.984 . S
H687 N683 0.985 . S
H688 N682 0.984 . S
H689 N682 0.984 . S
H690 N678 0.984 . S
H691 N678 0.985 . S
C692 C693 1.363 . S
C692 C698 1.379 . S
C692 N700 1.356 . S
C693 C692 1.363 . S
C693 C699 1.363 1_545 S
C694 C695 1.363 . S
C694 C699 1.379 . S
C694 N701 1.356 . S
C695 C694 1.363 . S
C695 C698 1.363 1_565 S
N696 C698 1.356 1_565 S
N696 H708 0.984 1_565 S
N696 H709 0.985 . S
N697 C699 1.356 1_545 S
N697 H702 0.984 . S
N697 H703 0.985 1_545 S
C698 C692 1.379 . S
C698 C695 1.363 1_545 S
C698 N696 1.356 1_545 S
C699 C693 1.363 1_565 S
C699 C694 1.379 . S
C699 N697 1.356 1_565 S
N700 C692 1.356 . S
N700 H706 0.984 . S
N700 H707 0.984 . S
N701 C694 1.356 . S
N701 H704 0.984 . S
N701 H705 0.985 . S
H702 N697 0.984 . S
H703 N697 0.985 1_565 S
H704 N701 0.984 . S
H705 N701 0.985 . S
H706 N700 0.984 . S
H707 N700 0.984 . S
H708 N696 0.984 1_545 S
H709 N696 0.985 . S
C710 C711 1.363 1_645 S
C710 C716 1.379 . S
C710 N718 1.356 . S
C711 C710 1.363 1_465 S
C711 C717 1.363 . S
C712 C713 1.363 1_465 S
C712 C717 1.379 . S
C712 N719 1.356 . S
C713 C712 1.363 1_645 S
C713 C716 1.363 . S
N714 C716 1.356 . S
N714 H726 0.984 . S
N714 H727 0.985 . S
N715 C717 1.356 . S
N715 H720 0.984 . S
N715 H721 0.985 . S
C716 C710 1.379 . S
C716 C713 1.363 . S
C716 N714 1.356 . S
C717 C711 1.363 . S
C717 C712 1.379 . S
C717 N715 1.356 . S
N718 C710 1.356 . S
N718 H724 0.984 . S
N718 H725 0.984 . S
N719 C712 1.356 . S
N719 H722 0.984 . S
N719 H723 0.985 . S
H720 N715 0.984 . S
H721 N715 0.985 . S
H722 N719 0.984 . S
H723 N719 0.985 . S
H724 N718 0.984 . S
H725 N718 0.984 . S
H726 N714 0.984 . S
H727 N714 0.985 . S
C728 C729 1.363 . S
C728 C734 1.379 1_554 S
C728 N736 1.356 . S
C729 C728 1.363 . S
C729 C735 1.363 . S
C730 C731 1.363 . S
C730 C735 1.379 1_556 S
C730 N737 1.356 . S
C731 C730 1.363 . S
C731 C734 1.363 . S
N732 C734 1.356 . S
N732 H744 0.984 . S
N732 H745 0.985 . S
N733 C735 1.356 . S
N733 H738 0.984 . S
N733 H739 0.985 . S
C734 C728 1.379 1_556 S
C734 C731 1.363 . S
C734 N732 1.356 . S
C735 C729 1.363 . S
C735 C730 1.379 1_554 S
C735 N733 1.356 . S
N736 C728 1.356 . S
N736 H742 0.984 . S
N736 H743 0.984 . S
N737 C730 1.356 . S
N737 H740 0.984 . S
N737 H741 0.985 . S
H738 N733 0.984 . S
H739 N733 0.985 . S
H740 N737 0.984 . S
H741 N737 0.985 . S
H742 N736 0.984 . S
H743 N736 0.984 . S
H744 N732 0.984 . S
H745 N732 0.985 . S
C746 C747 1.363 . S
C746 C752 1.379 1_554 S
C746 N754 1.356 . S
C747 C746 1.363 . S
C747 C753 1.363 1_655 S
C748 C749 1.363 . S
C748 C753 1.379 1_556 S
C748 N755 1.356 . S
C749 C748 1.363 . S
C749 C752 1.363 1_455 S
N750 C752 1.356 . S
N750 H762 0.984 . S
N750 H763 0.985 . S
N751 C753 1.356 . S
N751 H756 0.984 . S
N751 H757 0.985 . S
C752 C746 1.379 1_556 S
C752 C749 1.363 1_655 S
C752 N750 1.356 . S
C753 C747 1.363 1_455 S
C753 C748 1.379 1_554 S
C753 N751 1.356 . S
N754 C746 1.356 . S
N754 H760 0.984 . S
N754 H761 0.984 . S
N755 C748 1.356 . S
N755 H758 0.984 . S
N755 H759 0.985 . S
H756 N751 0.984 . S
H757 N751 0.985 . S
H758 N755 0.984 . S
H759 N755 0.985 . S
H760 N754 0.984 . S
H761 N754 0.984 . S
H762 N750 0.984 . S
H763 N750 0.985 . S
C764 C765 1.363 1_455 S
C764 C770 1.379 . S
C764 N772 1.356 . S
C765 C764 1.363 1_655 S
C765 C771 1.363 . S
C766 C767 1.363 1_655 S
C766 C771 1.379 . S
C766 N773 1.356 . S
C767 C766 1.363 1_455 S
C767 C770 1.363 . S
N768 C770 1.356 . S
N768 H780 0.984 . S
N768 H781 0.985 . S
N769 C771 1.356 . S
N769 H774 0.984 . S
N769 H775 0.985 . S
C770 C764 1.379 . S
C770 C767 1.363 . S
C770 N768 1.356 . S
C771 C765 1.363 . S
C771 C766 1.379 . S
C771 N769 1.356 . S
N772 C764 1.356 . S
N772 H778 0.984 . S
N772 H779 0.984 . S
N773 C766 1.356 . S
N773 H776 0.984 . S
N773 H777 0.985 . S
H774 N769 0.984 . S
H775 N769 0.985 . S
H776 N773 0.984 . S
H777 N773 0.985 . S
H778 N772 0.984 . S
H779 N772 0.984 . S
H780 N768 0.984 . S
H781 N768 0.985 . S
C782 C783 1.363 . S
C782 C788 1.379 . S
C782 N790 1.356 . S
C783 C782 1.363 . S
C783 C789 1.363 . S
C784 C785 1.363 . S
C784 C789 1.379 . S
C784 N791 1.356 . S
C785 C784 1.363 . S
C785 C788 1.363 . S
N786 C788 1.356 . S
N786 H798 0.984 . S
N786 H799 0.985 . S
N787 C789 1.356 . S
N787 H792 0.984 . S
N787 H793 0.985 . S
C788 C782 1.379 . S
C788 C785 1.363 . S
C788 N786 1.356 . S
C789 C783 1.363 . S
C789 C784 1.379 . S
C789 N787 1.356 . S
N790 C782 1.356 . S
N790 H796 0.984 . S
N790 H797 0.984 . S
N791 C784 1.356 . S
N791 H794 0.984 . S
N791 H795 0.985 . S
H792 N787 0.984 . S
H793 N787 0.985 . S
H794 N791 0.984 . S
H795 N791 0.985 . S
H796 N790 0.984 . S
H797 N790 0.984 . S
H798 N786 0.984 . S
H799 N786 0.985 . S
C225 C25 1.504 . S
C227 C11 1.504 . S
C243 C39 1.504 . S
C245 C53 1.504 . S
C261 C67 1.504 . S
C263 C81 1.504 . S
C279 C109 1.504 . S
C281 C95 1.504 . S
C297 C137 1.504 . S
C299 C123 1.504 . S
C315 C165 1.504 . S
C317 C151 1.504 . S
C333 C193 1.504 . S
C335 C179 1.504 . S
C351 C221 1.504 . S
C353 C207 1.504 . S
C369 C42 1.432 . S
C371 C0 1.432 . S
C387 C14 1.432 . S
C389 C28 1.432 . S
C405 C98 1.432 . S
C407 C56 1.432 . S
C423 C84 1.432 . S
C425 C70 1.432 . S
C441 C112 1.432 . S
C443 C154 1.432 . S
C459 C140 1.432 . S
C461 C126 1.432 . S
C477 C210 1.432 . S
C479 C168 1.432 . S
C495 C182 1.432 . S
C497 C196 1.432 . S
C513 C5 1.508 . S
C515 C131 1.508 . S
C531 C19 1.508 . S
C533 C117 1.508 . S
C549 C159 1.508 . S
C551 C33 1.508 . S
C567 C145 1.508 . S
C569 C47 1.508 . S
C585 C187 1.508 . S
C587 C61 1.508 . S
C603 C173 1.508 . S
C605 C75 1.508 . S
C621 C89 1.508 . S
C623 C215 1.508 . S
C639 C103 1.508 . S
C641 C201 1.508 . S
C657 C65 1.383 . S
C659 C9 1.383 . S
C675 C79 1.383 . S
C677 C23 1.383 . S
C693 C93 1.383 . S
C695 C37 1.383 . S
C711 C107 1.383 . S
C713 C51 1.383 . S
C729 C121 1.383 . S
C731 C177 1.383 . S
C747 C135 1.383 . S
C749 C191 1.383 . S
C765 C205 1.383 . S
C767 C149 1.383 . S
C783 C219 1.383 . S
C785 C163 1.383 . S
