# Generated by pormake.
# Topology umg, (4)-cn, num edge types: 1
# Building blocks:
#     Node 0, Type 0, BuildingBlock: MUDLON_clean_sbu_0, # of connection points: 4
#     Node 1, Type 0, BuildingBlock: MUDLON_clean_sbu_0, # of connection points: 4
#     Node 2, Type 0, BuildingBlock: MUDLON_clean_sbu_0, # of connection points: 4
#     Node 3, Type 0, BuildingBlock: MUDLON_clean_sbu_0, # of connection points: 4
#     Node 4, Type 0, BuildingBlock: MUDLON_clean_sbu_0, # of connection points: 4
#     Node 5, Type 0, BuildingBlock: MUDLON_clean_sbu_0, # of connection points: 4
#     Node 6, Type 0, BuildingBlock: MUDLON_clean_sbu_0, # of connection points: 4
#     Node 7, Type 0, BuildingBlock: MUDLON_clean_sbu_0, # of connection points: 4
#     Node 8, Type 0, BuildingBlock: MUDLON_clean_sbu_0, # of connection points: 4
#     Node 9, Type 0, BuildingBlock: MUDLON_clean_sbu_0, # of connection points: 4
#     Node 10, Type 0, BuildingBlock: MUDLON_clean_sbu_0, # of connection points: 4
#     Node 11, Type 0, BuildingBlock: MUDLON_clean_sbu_0, # of connection points: 4
#     Edge 12, Type (0, 0), BuildingBlock: XUDNAN_clean_linker_2, # of connection points: 2
#     Edge 13, Type (0, 0), BuildingBlock: XUDNAN_clean_linker_2, # of connection points: 2
#     Edge 14, Type (0, 0), BuildingBlock: XUDNAN_clean_linker_2, # of connection points: 2
#     Edge 15, Type (0, 0), BuildingBlock: XUDNAN_clean_linker_2, # of connection points: 2
#     Edge 16, Type (0, 0), BuildingBlock: XUDNAN_clean_linker_2, # of connection points: 2
#     Edge 17, Type (0, 0), BuildingBlock: XUDNAN_clean_linker_2, # of connection points: 2
#     Edge 18, Type (0, 0), BuildingBlock: XUDNAN_clean_linker_2, # of connection points: 2
#     Edge 19, Type (0, 0), BuildingBlock: XUDNAN_clean_linker_2, # of connection points: 2
#     Edge 20, Type (0, 0), BuildingBlock: XUDNAN_clean_linker_2, # of connection points: 2
#     Edge 21, Type (0, 0), BuildingBlock: XUDNAN_clean_linker_2, # of connection points: 2
#     Edge 22, Type (0, 0), BuildingBlock: XUDNAN_clean_linker_2, # of connection points: 2
#     Edge 23, Type (0, 0), BuildingBlock: XUDNAN_clean_linker_2, # of connection points: 2
#     Edge 24, Type (0, 0), BuildingBlock: XUDNAN_clean_linker_2, # of connection points: 2
#     Edge 25, Type (0, 0), BuildingBlock: XUDNAN_clean_linker_2, # of connection points: 2
#     Edge 26, Type (0, 0), BuildingBlock: XUDNAN_clean_linker_2, # of connection points: 2
#     Edge 27, Type (0, 0), BuildingBlock: XUDNAN_clean_linker_2, # of connection points: 2
#     Edge 28, Type (0, 0), BuildingBlock: XUDNAN_clean_linker_2, # of connection points: 2
#     Edge 29, Type (0, 0), BuildingBlock: XUDNAN_clean_linker_2, # of connection points: 2
#     Edge 30, Type (0, 0), BuildingBlock: XUDNAN_clean_linker_2, # of connection points: 2
#     Edge 31, Type (0, 0), BuildingBlock: XUDNAN_clean_linker_2, # of connection points: 2
#     Edge 32, Type (0, 0), BuildingBlock: XUDNAN_clean_linker_2, # of connection points: 2
#     Edge 33, Type (0, 0), BuildingBlock: XUDNAN_clean_linker_2, # of connection points: 2
#     Edge 34, Type (0, 0), BuildingBlock: XUDNAN_clean_linker_2, # of connection points: 2
#     Edge 35, Type (0, 0), BuildingBlock: XUDNAN_clean_linker_2, # of connection points: 2
# Relax obj value: 0.016
# Max RMSD: 0.186
# Mean RMSD: 0.186
data_MOF--net-umg--node1-MUDLON_clean_sbu_0--edge1-XUDNAN_clean_linker_2
_symmetry_space_group_name_H-M    P1
_symmetry_Int_Tables_number       1
_symmetry_cell_setting            triclinic
loop_
_symmetry_equiv_pos_as_xyz
'x, y, z'
_cell_length_a     29.823049
_cell_length_b     29.891325
_cell_length_c     90.299749
_cell_angle_alpha  89.977799
_cell_angle_beta   89.913411
_cell_angle_gamma 120.11173
loop_
_atom_site_label
_atom_site_type_symbol
_atom_site_fract_x
_atom_site_fract_y
_atom_site_fract_z
_atom_type_partial_charge
Mg0 Mg 0.29779 0.59891 0.09736 0.0
C1 C 0.30946 0.66536 0.06979 0.0
O2 O 0.27047 0.66822 0.07552 0.0
C3 C 0.36415 0.64085 0.12512 0.0
O4 O 0.38755 0.61787 0.11924 0.0
C5 C 0.36836 0.55751 0.09178 0.0
O6 O 0.39352 0.60413 0.08601 0.0
O7 O 0.32321 0.54166 0.09713 0.0
O8 O 0.32896 0.64269 0.07699 0.0
O9 O 0.21377 0.56915 0.09769 0.0
C10 C 0.20012 0.59927 0.10357 0.0
O11 O 0.23632 0.64346 0.10905 0.0
O12 O 0.32828 0.64231 0.1179 0.0
Mg13 Mg 0.73455 0.30939 0.43115 0.0
C14 C 0.74517 0.33766 0.40015 0.0
O15 O 0.78627 0.33437 0.40351 0.0
C16 C 0.69864 0.29493 0.46209 0.0
O17 O 0.70716 0.25634 0.46 0.0
C18 C 0.83038 0.40788 0.43433 0.0
O19 O 0.79268 0.41854 0.43485 0.0
O20 O 0.81845 0.36077 0.4329 0.0
O21 O 0.71242 0.32964 0.41032 0.0
O22 O 0.70441 0.22596 0.42989 0.0
C23 C 0.65517 0.19798 0.43052 0.0
O24 O 0.6276 0.22091 0.43196 0.0
O25 O 0.70463 0.32476 0.45129 0.0
Mg26 Mg 0.42408 0.71273 0.76993 0.0
C27 C 0.42043 0.71986 0.73819 0.0
O28 O 0.46824 0.75281 0.74222 0.0
C29 C 0.39746 0.69854 0.80104 0.0
O30 O 0.44814 0.7282 0.80053 0.0
C31 C 0.42536 0.80998 0.77253 0.0
O32 O 0.37638 0.77338 0.77246 0.0
O33 O 0.45975 0.79671 0.77167 0.0
O34 O 0.38761 0.69387 0.74823 0.0
O35 O 0.47366 0.67824 0.77169 0.0
C36 C 0.46442 0.64096 0.76301 0.0
O37 O 0.42915 0.62823 0.75267 0.0
O38 O 0.37272 0.68329 0.7889 0.0
Mg39 Mg 0.71126 0.4307 0.09829 0.0
C40 C 0.69004 0.35563 0.07117 0.0
O41 O 0.69214 0.32207 0.08012 0.0
C42 C 0.71981 0.37089 0.12432 0.0
O43 O 0.76775 0.39164 0.11953 0.0
C44 C 0.61314 0.42889 0.10186 0.0
O45 O 0.60202 0.38062 0.10323 0.0
O46 O 0.66031 0.46359 0.09977 0.0
O47 O 0.69609 0.39793 0.07627 0.0
O48 O 0.79515 0.48364 0.10014 0.0
C49 C 0.82473 0.46887 0.09443 0.0
O50 O 0.80352 0.42478 0.08722 0.0
O51 O 0.6873 0.37703 0.1168 0.0
Mg52 Mg 0.31867 0.72347 0.43188 0.0
C53 C 0.30668 0.70567 0.4004 0.0
O54 O 0.28104 0.72933 0.40391 0.0
C55 C 0.3702 0.71767 0.46013 0.0
O56 O 0.40465 0.76478 0.45602 0.0
C57 C 0.20787 0.64727 0.43233 0.0
O58 O 0.23103 0.61998 0.43076 0.0
O59 O 0.23584 0.69633 0.43317 0.0
O60 O 0.32916 0.69536 0.41069 0.0
O61 O 0.37192 0.80744 0.43163 0.0
C62 C 0.4171 0.82081 0.42677 0.0
O63 O 0.4264 0.78437 0.42233 0.0
O64 O 0.33251 0.69013 0.45156 0.0
Mg65 Mg 0.60375 0.29875 0.7694 0.0
C66 C 0.6056 0.285 0.73742 0.0
O67 O 0.55805 0.25125 0.74149 0.0
C68 C 0.67297 0.3562 0.79501 0.0
O69 O 0.66362 0.39202 0.79003 0.0
C70 C 0.57099 0.18764 0.7703 0.0
O71 O 0.62139 0.21032 0.76833 0.0
O72 O 0.55014 0.21574 0.77122 0.0
O73 O 0.63768 0.31312 0.74732 0.0
O74 O 0.56981 0.34803 0.773 0.0
C75 C 0.55945 0.36986 0.76251 0.0
O76 O 0.5645 0.35885 0.74875 0.0
O77 O 0.65698 0.31484 0.78759 0.0
Mg78 Mg 0.42834 0.72275 0.59834 0.0
C79 C 0.42114 0.72081 0.62962 0.0
O80 O 0.46937 0.75304 0.62572 0.0
C81 C 0.4172 0.71347 0.56701 0.0
O82 O 0.46585 0.74734 0.56995 0.0
C83 C 0.46156 0.64608 0.59865 0.0
O84 O 0.41065 0.61909 0.59881 0.0
O85 O 0.48357 0.69526 0.59848 0.0
O86 O 0.38806 0.69766 0.61942 0.0
O87 O 0.45886 0.80629 0.5976 0.0
C88 C 0.42318 0.81755 0.59615 0.0
O89 O 0.37504 0.77945 0.59507 0.0
O90 O 0.38602 0.69269 0.57782 0.0
Mg91 Mg 0.74288 0.42627 0.93342 0.0
C92 C 0.7111 0.4033 0.96412 0.0
O93 O 0.72845 0.45303 0.96251 0.0
C94 C 0.73271 0.41737 0.90135 0.0
O95 O 0.75206 0.46692 0.90399 0.0
C96 C 0.83788 0.42217 0.93473 0.0
O97 O 0.79996 0.37422 0.93315 0.0
O98 O 0.82643 0.45787 0.93529 0.0
O99 O 0.71035 0.37747 0.95285 0.0
O100 O 0.71299 0.47992 0.93328 0.0
C101 C 0.6637 0.45847 0.93325 0.0
O102 O 0.6361 0.4077 0.93327 0.0
O103 O 0.72224 0.3868 0.91227 0.0
Mg104 Mg 0.32832 0.72764 0.26098 0.0
C105 C 0.3132 0.70842 0.29233 0.0
O106 O 0.28664 0.73079 0.28849 0.0
C107 C 0.33508 0.71145 0.2296 0.0
O108 O 0.30709 0.73408 0.23052 0.0
C109 C 0.42767 0.82298 0.26223 0.0
O110 O 0.4381 0.78519 0.26283 0.0
O111 O 0.38038 0.81125 0.26135 0.0
O112 O 0.33783 0.69969 0.28231 0.0
O113 O 0.2452 0.69833 0.25875 0.0
C114 C 0.21738 0.64931 0.25984 0.0
O115 O 0.24059 0.62237 0.26207 0.0
O116 O 0.35087 0.70123 0.24151 0.0
Mg117 Mg 0.5898 0.30425 0.59796 0.0
C118 C 0.5983 0.29585 0.62935 0.0
O119 O 0.54871 0.26986 0.62607 0.0
C120 C 0.61764 0.29103 0.56727 0.0
O121 O 0.57493 0.24679 0.56954 0.0
C122 C 0.59463 0.40362 0.59817 0.0
O123 O 0.64287 0.4136 0.59817 0.0
O124 O 0.55852 0.35646 0.59811 0.0
O125 O 0.63067 0.31809 0.6189 0.0
O126 O 0.53548 0.22071 0.5977 0.0
C127 C 0.55668 0.19327 0.59973 0.0
O128 O 0.60697 0.21691 0.60197 0.0
O129 O 0.63603 0.32374 0.57777 0.0
Mg130 Mg 0.32377 0.59136 0.93505 0.0
C131 C 0.35851 0.63239 0.96536 0.0
O132 O 0.36659 0.59306 0.96492 0.0
C133 C 0.2929 0.60437 0.90437 0.0
O134 O 0.25026 0.56311 0.90879 0.0
C135 C 0.21394 0.55648 0.94059 0.0
O136 O 0.23731 0.60711 0.94159 0.0
O137 O 0.2415 0.53557 0.93823 0.0
O138 O 0.3428 0.64409 0.95368 0.0
O139 O 0.3781 0.56212 0.93512 0.0
C140 C 0.42541 0.59747 0.93385 0.0
O141 O 0.436 0.64564 0.93267 0.0
O142 O 0.33088 0.62646 0.91331 0.0
Mg143 Mg 0.74426 0.31 0.26183 0.0
C144 C 0.75174 0.33907 0.2927 0.0
O145 O 0.79444 0.3383 0.28965 0.0
C146 C 0.73528 0.31388 0.23021 0.0
O147 O 0.77329 0.30456 0.23261 0.0
C148 C 0.66747 0.19968 0.26252 0.0
O149 O 0.64008 0.22295 0.26173 0.0
O150 O 0.71672 0.22743 0.26289 0.0
O151 O 0.71922 0.32911 0.28234 0.0
O152 O 0.82803 0.36301 0.26012 0.0
C153 C 0.83983 0.40979 0.25796 0.0
O154 O 0.80204 0.42015 0.25678 0.0
O155 O 0.71229 0.31954 0.24132 0.0
H156 H 0.39684 0.61999 0.99147 0.0
H157 H 0.32114 0.69754 0.972 0.0
H158 H 0.31081 0.72546 0.99693 0.0
H159 H 0.31581 0.56835 0.02113 0.0
H160 H 0.36464 0.57593 0.03424 0.0
H161 H 0.37401 0.56994 1.01484 0.0
H162 H 0.46127 0.65655 0.01548 0.0
H163 H 0.45227 0.66269 0.03496 0.0
H164 H 0.46295 0.71396 0.02238 0.0
H165 H 0.29622 0.73241 0.02426 0.0
H166 H 0.28157 0.72036 0.05129 0.0
H167 H 0.36905 0.64023 0.0526 0.0
C168 C 0.37938 0.64409 0.99238 0.0
C169 C 0.35993 0.65671 0.97977 0.0
C170 C 0.33677 0.68778 0.98148 0.0
C171 C 0.33071 0.7038 0.99561 0.0
C172 C 0.34874 0.68909 1.00787 0.0
C173 C 0.37329 0.66051 1.00634 0.0
C174 C 0.3851 0.64569 0.02125 0.0
C175 C 0.35827 0.58649 0.02296 0.0
C176 C 0.4439 0.67127 0.02366 0.0
C177 C 0.36147 0.6685 0.03144 0.0
C178 C 0.34113 0.69387 0.02356 0.0
C179 C 0.31304 0.71367 0.03055 0.0
C180 C 0.3048 0.70655 0.04591 0.0
C181 C 0.32455 0.6798 0.05411 0.0
C182 C 0.3543 0.66178 0.04674 0.0
H183 H 0.81576 0.37082 0.37792 0.0
H184 H 0.65495 0.32264 0.38701 0.0
H185 H 0.64015 0.327 0.36014 0.0
H186 H 0.83462 0.45826 0.34661 0.0
H187 H 0.8754 0.4393 0.33696 0.0
H188 H 0.87403 0.43914 0.35691 0.0
H189 H 0.85013 0.34291 0.35703 0.0
H190 H 0.85116 0.34266 0.33714 0.0
H191 H 0.79388 0.29611 0.34695 0.0
H192 H 0.64179 0.32703 0.33163 0.0
H193 H 0.6598 0.32314 0.30495 0.0
H194 H 0.81956 0.37155 0.31559 0.0
C195 C 0.77758 0.36214 0.37434 0.0
C196 C 0.7365 0.34641 0.38454 0.0
C197 C 0.6871 0.33517 0.37937 0.0
C198 C 0.67838 0.33752 0.36414 0.0
C199 C 0.71964 0.3518 0.35431 0.0
C200 C 0.76839 0.3644 0.35931 0.0
C201 C 0.80553 0.37473 0.34666 0.0
C202 C 0.85001 0.43122 0.3468 0.0
C203 C 0.82635 0.33684 0.34697 0.0
C204 C 0.76984 0.3644 0.33369 0.0
C205 C 0.72056 0.35181 0.3382 0.0
C206 C 0.68048 0.33761 0.328 0.0
C207 C 0.69102 0.33553 0.31288 0.0
C208 C 0.74108 0.34708 0.30819 0.0
C209 C 0.78091 0.36266 0.31877 0.0
H210 H 0.4857 0.76748 0.71511 0.0
H211 H 0.32547 0.65506 0.72518 0.0
H212 H 0.30616 0.64275 0.69826 0.0
H213 H 0.46176 0.82613 0.68388 0.0
H214 H 0.51806 0.83477 0.67395 0.0
H215 H 0.51778 0.83465 0.69388 0.0
H216 H 0.53964 0.76087 0.69396 0.0
H217 H 0.53991 0.76071 0.67403 0.0
H218 H 0.49845 0.70191 0.68404 0.0
H219 H 0.30623 0.64298 0.66956 0.0
H220 H 0.32584 0.6556 0.64261 0.0
H221 H 0.4861 0.76739 0.65272 0.0
C222 C 0.44637 0.74036 0.71174 0.0
C223 C 0.40705 0.71232 0.72226 0.0
C224 C 0.35621 0.67706 0.7173 0.0
C225 C 0.34493 0.66984 0.70204 0.0
C226 C 0.38495 0.69813 0.69196 0.0
C227 C 0.43463 0.73266 0.6967 0.0
C228 C 0.47135 0.75797 0.68389 0.0
C229 C 0.49351 0.81686 0.6839 0.0
C230 C 0.51488 0.74454 0.68399 0.0
C231 C 0.43478 0.7325 0.6711 0.0
C232 C 0.38504 0.69807 0.67584 0.0
C233 C 0.34509 0.66995 0.66577 0.0
C234 C 0.35652 0.67733 0.6505 0.0
C235 C 0.40746 0.71248 0.64554 0.0
C236 C 0.4467 0.74023 0.65607 0.0
H237 H 0.68431 0.41887 0.05055 0.0
H238 H 0.68358 0.27393 0.05503 0.0
H239 H 0.68036 0.26513 0.02767 0.0
H240 H 0.59949 0.38407 0.01833 0.0
H241 H 0.63621 0.44807 1.01053 0.0
H242 H 0.63286 0.43936 0.03033 0.0
H243 H 0.73326 0.48791 0.03163 0.0
H244 H 0.73693 0.49674 1.01189 0.0
H245 H 0.76848 0.46557 0.02056 0.0
H246 H 0.68405 0.27688 0.99936 0.0
H247 H 0.69679 0.30903 0.97348 0.0
H248 H 0.69579 0.44618 0.98867 0.0
C249 C 0.68269 0.38473 0.04588 0.0
C250 C 0.68408 0.347 0.05496 0.0
C251 C 0.68232 0.30325 0.04829 0.0
C252 C 0.68041 0.29792 0.03277 0.0
C253 C 0.67999 0.33652 0.02415 0.0
C254 C 0.68095 0.37897 0.03055 0.0
C255 C 0.68383 0.41706 0.01907 0.0
C256 C 0.63519 0.42242 0.0196 0.0
C257 C 0.73358 0.46991 0.0209 0.0
C258 C 0.6854 0.3901 1.00513 0.0
C259 C 0.68259 0.34341 1.00816 0.0
C260 C 0.68576 0.31313 0.99689 0.0
C261 C 0.69288 0.3316 0.98223 0.0
C262 C 0.69728 0.38009 0.97907 0.0
C263 C 0.69249 0.40892 0.99069 0.0
H264 H 0.25713 0.71582 0.3149 0.0
H265 H 0.37521 0.67546 0.30556 0.0
H266 H 0.38248 0.66322 0.33246 0.0
H267 H 0.31518 0.78992 0.34624 0.0
H268 H 0.25513 0.76966 0.35595 0.0
H269 H 0.25618 0.76991 0.33605 0.0
H270 H 0.18519 0.67293 0.33577 0.0
H271 H 0.18381 0.67241 0.35571 0.0
H272 H 0.19546 0.62678 0.34585 0.0
H273 H 0.38056 0.66223 0.36102 0.0
H274 H 0.36995 0.67301 0.38783 0.0
H275 H 0.25329 0.71416 0.37732 0.0
C276 C 0.28414 0.70374 0.31842 0.0
C277 C 0.31562 0.69659 0.30813 0.0
C278 C 0.35053 0.68094 0.31327 0.0
C279 C 0.35488 0.6739 0.32852 0.0
C280 C 0.32375 0.68228 0.3384 0.0
C281 C 0.28886 0.69657 0.33347 0.0
C282 C 0.26164 0.70602 0.34615 0.0
C283 C 0.27273 0.7622 0.34609 0.0
C284 C 0.20305 0.66721 0.34585 0.0
C285 C 0.28736 0.69598 0.35909 0.0
C286 C 0.32276 0.68185 0.35451 0.0
C287 C 0.35254 0.67278 0.36469 0.0
C288 C 0.34627 0.67895 0.37988 0.0
C289 C 0.31082 0.69444 0.38466 0.0
C290 C 0.28069 0.70223 0.37406 0.0
H291 H 0.54314 0.23022 0.71452 0.0
H292 H 0.69823 0.35561 0.72421 0.0
H293 H 0.71683 0.36903 0.69727 0.0
H294 H 0.57596 0.17986 0.6821 0.0
H295 H 0.51681 0.16518 0.67272 0.0
H296 H 0.51828 0.16327 0.69264 0.0
H297 H 0.48481 0.22823 0.69407 0.0
H298 H 0.48333 0.23043 0.67418 0.0
H299 H 0.51987 0.28939 0.68456 0.0
H300 H 0.71542 0.37108 0.66871 0.0
H301 H 0.69334 0.36276 0.64195 0.0
H302 H 0.53893 0.23682 0.65216 0.0
C303 C 0.58136 0.26016 0.71106 0.0
C304 C 0.61929 0.29179 0.72148 0.0
C305 C 0.66862 0.33074 0.71641 0.0
C306 C 0.67951 0.33859 0.70114 0.0
C307 C 0.64072 0.30702 0.69115 0.0
C308 C 0.59269 0.2685 0.69599 0.0
C309 C 0.55638 0.24143 0.68324 0.0
C310 C 0.54098 0.18404 0.68264 0.0
C311 C 0.50829 0.24779 0.68407 0.0
C312 C 0.59097 0.27123 0.6704 0.0
C313 C 0.63971 0.3086 0.67505 0.0
C314 C 0.67745 0.34167 0.66497 0.0
C315 C 0.66465 0.33667 0.64982 0.0
C316 C 0.61441 0.29927 0.64499 0.0
C317 C 0.57766 0.26592 0.65547 0.0
H318 H 0.29536 0.71657 0.20287 0.0
H319 H 0.40586 0.68094 0.22303 0.0
H320 H 0.42998 0.66494 0.19815 0.0
H321 H 0.25114 0.61925 0.17505 0.0
H322 H 0.24359 0.65841 0.1612 0.0
H323 H 0.23703 0.6689 0.18051 0.0
H324 H 0.30793 0.76526 0.17764 0.0
H325 H 0.31505 0.75492 0.15833 0.0
H326 H 0.37065 0.78146 0.17038 0.0
H327 H 0.44095 0.65195 0.17101 0.0
H328 H 0.43348 0.63646 0.14406 0.0
H329 H 0.31473 0.6798 0.14193 0.0
C330 C 0.32483 0.70561 0.20209 0.0
C331 C 0.34893 0.7002 0.21489 0.0
C332 C 0.38688 0.68526 0.21337 0.0
C333 C 0.40099 0.67638 0.19929 0.0
C334 C 0.37667 0.68247 0.1869 0.0
C335 C 0.3391 0.69636 0.18819 0.0
C336 C 0.31721 0.69826 0.17324 0.0
C337 C 0.25879 0.65885 0.17246 0.0
C338 C 0.3284 0.75325 0.16969 0.0
C339 C 0.34803 0.68287 0.16329 0.0
C340 C 0.38248 0.67441 0.17135 0.0
C341 C 0.41422 0.6586 0.16459 0.0
C342 C 0.40975 0.65004 0.14925 0.0
C343 C 0.37354 0.65695 0.14085 0.0
C344 C 0.34306 0.67452 0.14799 0.0
H345 H 0.65081 0.22532 0.48423 0.0
H346 H 0.72287 0.38883 0.47404 0.0
H347 H 0.71363 0.40697 0.50033 0.0
H348 H 0.55651 0.2225 0.5103 0.0
H349 H 0.55954 0.17522 0.52201 0.0
H350 H 0.57169 0.17623 0.50244 0.0
H351 H 0.66061 0.18412 0.50808 0.0
H352 H 0.64912 0.18406 0.52767 0.0
H353 H 0.70671 0.23657 0.51949 0.0
H354 H 0.70127 0.40684 0.52834 0.0
H355 H 0.67533 0.38731 0.55472 0.0
H356 H 0.6079 0.22351 0.54569 0.0
C357 C 0.66423 0.26491 0.4875 0.0
C358 C 0.68766 0.30574 0.47718 0.0
C359 C 0.70445 0.357 0.48181 0.0
C360 C 0.69975 0.36766 0.49672 0.0
C361 C 0.6775 0.32649 0.50672 0.0
C362 C 0.65906 0.27604 0.5022 0.0
C363 C 0.63541 0.23844 0.51494 0.0
C364 C 0.57735 0.2009 0.51226 0.0
C365 C 0.66474 0.20909 0.5177 0.0
C366 C 0.64388 0.27555 0.5274 0.0
C367 C 0.66875 0.32625 0.52254 0.0
C368 C 0.68143 0.36724 0.53224 0.0
C369 C 0.66696 0.35586 0.5472 0.0
C370 C 0.63957 0.30394 0.55218 0.0
C371 C 0.62864 0.26357 0.54216 0.0
H372 H 0.44224 0.71905 0.82841 0.0
H373 H 0.29259 0.64332 0.8065 0.0
H374 H 0.24916 0.617 0.83092 0.0
H375 H 0.41078 0.62396 0.85594 0.0
H376 H 0.44815 0.66939 0.87027 0.0
H377 H 0.46685 0.68508 0.85118 0.0
H378 H 0.46288 0.76933 0.85396 0.0
H379 H 0.4439 0.75376 0.87307 0.0
H380 H 0.4041 0.76582 0.86055 0.0
H381 H 0.22266 0.59505 0.85761 0.0
H382 H 0.21475 0.57667 0.88442 0.0
H383 H 0.38207 0.66741 0.88881 0.0
C384 C 0.40028 0.69737 0.82871 0.0
C385 C 0.37074 0.68335 0.81554 0.0
C386 C 0.31597 0.65451 0.81645 0.0
C387 C 0.29101 0.63958 0.83026 0.0
C388 C 0.32141 0.65393 0.84302 0.0
C389 C 0.37485 0.68213 0.84236 0.0
C390 C 0.39876 0.69045 0.85762 0.0
C391 C 0.43314 0.66573 0.85881 0.0
C392 C 0.4292 0.74828 0.86153 0.0
C393 C 0.3504 0.66189 0.86701 0.0
C394 C 0.30618 0.6414 0.85839 0.0
C395 C 0.25698 0.61128 0.86448 0.0
C396 C 0.25292 0.60103 0.87972 0.0
C397 C 0.29779 0.6208 0.88872 0.0
C398 C 0.34704 0.65241 0.88227 0.0
H399 H 0.78012 0.35276 0.14338 0.0
H400 H 0.63096 0.34449 0.14 0.0
H401 H 0.6161 0.32463 0.16671 0.0
H402 H 0.74051 0.24903 0.17142 0.0
H403 H 0.80247 0.2827 0.18057 0.0
H404 H 0.79823 0.29043 0.16092 0.0
H405 H 0.8437 0.38978 0.16441 0.0
H406 H 0.84737 0.38237 0.18406 0.0
H407 H 0.81624 0.41638 0.17702 0.0
H408 H 0.62268 0.3163 0.19449 0.0
H409 H 0.64679 0.3119 0.2205 0.0
H410 H 0.79042 0.32389 0.20518 0.0
C411 C 0.74376 0.34556 0.14816 0.0
C412 C 0.70674 0.35018 0.13958 0.0
C413 C 0.65982 0.34088 0.14632 0.0
C414 C 0.65108 0.32974 0.1615 0.0
C415 C 0.68931 0.3274 0.16975 0.0
C416 C 0.73431 0.33417 0.16324 0.0
C417 C 0.77038 0.33202 0.1746 0.0
C418 C 0.77834 0.28578 0.1717 0.0
C419 C 0.82247 0.38318 0.17504 0.0
C420 C 0.73927 0.32429 0.18857 0.0
C421 C 0.69259 0.32168 0.1856 0.0
C422 C 0.65877 0.31747 0.19692 0.0
C423 C 0.67288 0.31533 0.21165 0.0
C424 C 0.72026 0.31721 0.21484 0.0
C425 C 0.75362 0.3217 0.2031 0.0
H426 H 0.47324 0.76336 0.54255 0.0
H427 H 0.32352 0.63636 0.55616 0.0
H428 H 0.29757 0.61767 0.52978 0.0
H429 H 0.42695 0.8085 0.51381 0.0
H430 H 0.48201 0.82658 0.50191 0.0
H431 H 0.48931 0.82655 0.52167 0.0
H432 H 0.52602 0.76459 0.51891 0.0
H433 H 0.51846 0.76412 0.49911 0.0
H434 H 0.48865 0.7041 0.50928 0.0
H435 H 0.28772 0.61565 0.50167 0.0
H436 H 0.2919 0.63461 0.47488 0.0
H437 H 0.44801 0.76411 0.48041 0.0
C438 C 0.43511 0.7312 0.54004 0.0
C439 C 0.40046 0.70109 0.55141 0.0
C440 C 0.3507 0.65987 0.54761 0.0
C441 C 0.33578 0.64884 0.53268 0.0
C442 C 0.37111 0.67945 0.52174 0.0
C443 C 0.41964 0.71997 0.52531 0.0
C444 C 0.44949 0.74925 0.51169 0.0
C445 C 0.46268 0.80606 0.51231 0.0
C446 C 0.49855 0.74525 0.50963 0.0
C447 C 0.40991 0.71953 0.49983 0.0
C448 C 0.3652 0.67891 0.50577 0.0
C449 C 0.32268 0.64716 0.49692 0.0
C450 C 0.32551 0.65812 0.4817 0.0
C451 C 0.37033 0.70086 0.47554 0.0
C452 C 0.41331 0.73105 0.48474 0.0
H453 H 0.7348 0.47007 0.87647 0.0
H454 H 0.71419 0.32276 0.89129 0.0
H455 H 0.70486 0.29375 0.86521 0.0
H456 H 0.64065 0.41905 0.84795 0.0
H457 H 0.67675 0.4728 0.83558 0.0
H458 H 0.68473 0.4823 0.85528 0.0
H459 H 0.78376 0.52003 0.85225 0.0
H460 H 0.77596 0.51006 0.83253 0.0
H461 H 0.80735 0.48231 0.84306 0.0
H462 H 0.69607 0.28068 0.83742 0.0
H463 H 0.68005 0.28112 0.81062 0.0
H464 H 0.70527 0.4369 0.81439 0.0
C465 C 0.72867 0.4318 0.87426 0.0
C466 C 0.72549 0.39873 0.8859 0.0
C467 C 0.71671 0.34869 0.88253 0.0
C468 C 0.71172 0.33205 0.86776 0.0
C469 C 0.71547 0.36589 0.85655 0.0
C470 C 0.72326 0.41453 0.85966 0.0
C471 C 0.72286 0.44247 0.84573 0.0
C472 C 0.67861 0.45485 0.84616 0.0
C473 C 0.77563 0.49162 0.84325 0.0
C474 C 0.71303 0.40174 0.83425 0.0
C475 C 0.70955 0.35809 0.84066 0.0
C476 C 0.69894 0.31474 0.83229 0.0
C477 C 0.6901 0.31546 0.81705 0.0
C478 C 0.69143 0.35908 0.81038 0.0
C479 C 0.7043 0.4031 0.8191 0.0
H480 H 0.89617 0.44262 0.08507 0.0
H481 H 0.88235 0.5602 0.10952 0.0
H482 H 0.97657 0.6057 0.11451 0.0
H483 H 0.98937 0.43781 0.10888 0.0
H484 H 1.02451 0.42863 0.09405 0.0
H485 H 0.95636 0.40604 0.09204 0.0
H486 H 0.97485 0.45975 0.06797 0.0
H487 H 0.04304 0.4823 0.06986 0.0
H488 H 1.02083 0.52817 0.06831 0.0
H489 H 0.07186 0.6375 0.11716 0.0
H490 H 0.1617 0.65479 0.11697 0.0
H491 H 0.11399 0.51608 0.09089 0.0
C492 C 0.91289 0.47814 0.0914 0.0
C493 C 0.8817 0.4979 0.09688 0.0
C494 C 0.90532 0.54435 0.10517 0.0
C495 C 0.95882 0.57041 0.10808 0.0
C496 C 0.98823 0.54955 0.10263 0.0
C497 C 0.96615 0.50455 0.09442 0.0
C498 C 1.00633 0.49003 0.08997 0.0
C499 C 0.99336 0.43751 0.09663 0.0
C500 C 1.01157 0.49008 0.07302 0.0
C501 C 0.05458 0.5339 0.09696 0.0
C502 C 0.04317 0.56776 0.1042 0.0
C503 C 0.0812 0.61128 0.1115 0.0
C504 C 0.13224 0.62072 0.11133 0.0
C505 C 0.14516 0.58683 0.10391 0.0
C506 C 0.1055 0.54267 0.09669 0.0
H507 H 0.55179 0.12876 0.43473 0.0
H508 H 0.69818 0.13742 0.4244 0.0
H509 H 0.65292 0.04206 0.42243 0.0
H510 H 0.49947 1.01286 0.45708 0.0
H511 H 0.43407 0.98795 0.45059 0.0
H512 H 0.47801 0.05673 0.45124 0.0
H513 H 0.46196 0.06381 0.42337 0.0
H514 H 0.41807 0.99504 0.42262 0.0
H515 H 0.47264 0.02492 0.41015 0.0
H516 H 0.59143 0.94623 0.42093 0.0
H517 H 0.51915 0.85635 0.42084 0.0
H518 H 0.41231 0.90931 0.43271 0.0
C519 C 0.57446 0.11069 0.43207 0.0
C520 C 0.62865 0.14069 0.42968 0.0
C521 C 0.65674 0.11535 0.42629 0.0
C522 C 0.63133 0.0612 0.42513 0.0
C523 C 0.57787 0.03291 0.42748 0.0
C524 C 0.54979 0.05674 0.43096 0.0
C525 C 0.49271 0.01738 0.43301 0.0
C526 C 0.47504 0.01882 0.44893 0.0
C527 C 0.45939 0.0258 0.42161 0.0
C528 C 0.49293 0.96757 0.43005 0.0
C529 C 0.54248 0.97754 0.42684 0.0
C530 C 0.55255 0.93799 0.42348 0.0
C531 C 0.51105 0.88696 0.42343 0.0
C532 C 0.45987 0.87554 0.42679 0.0
C533 C 0.4509 0.91663 0.43015 0.0
H534 H 0.51888 0.41218 0.74357 0.0
H535 H 0.57337 0.42204 0.78865 0.0
H536 H 0.55931 0.49555 0.7934 0.0
H537 H 0.57436 0.54808 0.73714 0.0
H538 H 0.51985 0.54128 0.72668 0.0
H539 H 0.53459 0.48976 0.72678 0.0
H540 H 0.44161 0.42543 0.73597 0.0
H541 H 0.42641 0.4766 0.73573 0.0
H542 H 0.41751 0.44021 0.75248 0.0
H543 H 0.54167 0.57043 0.79291 0.0
H544 H 0.51282 0.63364 0.78804 0.0
H545 H 0.46715 0.57216 0.74362 0.0
C546 C 0.52771 0.42965 0.75446 0.0
C547 C 0.54734 0.41137 0.76572 0.0
C548 C 0.55807 0.43517 0.77985 0.0
C549 C 0.55053 0.4772 0.78264 0.0
C550 C 0.53179 0.49472 0.77122 0.0
C551 C 0.51985 0.47119 0.75748 0.0
C552 C 0.49864 0.49627 0.74723 0.0
C553 C 0.53398 0.52027 0.73366 0.0
C554 C 0.44272 0.45731 0.74259 0.0
C555 C 0.50053 0.53761 0.75734 0.0
C556 C 0.52033 0.53658 0.77107 0.0
C557 C 0.52594 0.57143 0.7822 0.0
C558 C 0.50976 0.60742 0.77931 0.0
C559 C 0.48768 0.60784 0.76547 0.0
C560 C 0.48378 0.57281 0.75433 0.0
H561 H 0.59354 0.12608 0.60237 0.0
H562 H 0.45197 0.13063 0.59515 0.0
H563 H 0.40295 0.03518 0.59332 0.0
H564 H 0.56527 0.02278 0.57703 0.0
H565 H 0.59387 0.99433 0.58848 0.0
H566 H 0.61765 0.06282 0.5894 0.0
H567 H 0.60102 0.05574 0.6177 0.0
H568 H 0.57731 0.98725 0.61688 0.0
H569 H 0.5373 1.01071 0.62469 0.0
H570 H 0.36966 0.9395 0.59219 0.0
H571 H 0.35366 0.85033 0.59204 0.0
H572 H 0.51728 0.9078 0.59988 0.0
C573 C 0.55218 0.10712 0.60044 0.0
C574 C 0.52656 0.13596 0.59892 0.0
C575 C 0.47243 0.10946 0.59637 0.0
C576 C 0.4443 0.05525 0.5953 0.0
C577 C 0.47087 0.02813 0.59679 0.0
C578 C 0.52359 0.05315 0.59932 0.0
C579 C 0.54292 1.01499 0.60046 0.0
C580 C 0.58225 0.0243 0.5881 0.0
C581 C 0.56599 0.01732 0.61585 0.0
C582 C 0.49276 0.96443 0.59819 0.0
C583 C 0.45173 0.97297 0.59609 0.0
C584 C 0.4015 0.93239 0.59382 0.0
C585 C 0.39287 0.88177 0.59376 0.0
C586 C 0.4342 0.87186 0.59595 0.0
C587 C 0.48487 0.91398 0.59815 0.0
H588 H 0.41954 0.502 0.93473 0.0
H589 H 0.52911 0.66699 0.93279 0.0
H590 H 0.60157 0.6497 0.93254 0.0
H591 H 0.49586 0.46915 0.95864 0.0
H592 H 0.47767 0.40906 0.94936 0.0
H593 H 0.43401 0.43423 0.94948 0.0
H594 H 0.43065 0.431 0.9208 0.0
H595 H 0.47432 0.40585 0.9206 0.0
H596 H 0.49021 0.46376 0.91037 0.0
H597 H 0.66289 0.61487 0.93248 0.0
H598 H 0.7079 0.56431 0.93243 0.0
H599 H 0.55903 0.42222 0.93423 0.0
C600 C 0.45875 0.53447 0.93428 0.0
C601 C 0.46842 0.58588 0.93379 0.0
C602 C 0.52045 0.62723 0.93316 0.0
C603 C 0.56205 0.61786 0.93303 0.0
C604 C 0.55126 0.56687 0.9335 0.0
C605 C 0.50093 0.52581 0.9341 0.0
C606 C 0.50014 0.4747 0.93441 0.0
C607 C 0.47546 0.44505 0.94883 0.0
C608 C 0.47218 0.4419 0.92073 0.0
C609 C 0.55778 0.49351 0.93388 0.0
C610 C 0.58662 0.5468 0.93338 0.0
C611 C 0.64069 0.57306 0.93286 0.0
C612 C 0.66596 0.54403 0.93284 0.0
C613 C 0.63717 0.48931 0.93331 0.0
C614 C 0.58233 0.46399 0.93385 0.0
H615 H 0.14895 0.5455 0.26291 0.0
H616 H 0.15584 0.69176 0.25432 0.0
H617 H 0.06017 0.64594 0.25254 0.0
H618 H 0.04363 0.468 0.23812 0.0
H619 H 1.01496 0.41247 0.25021 0.0
H620 H 0.08384 0.45668 0.25069 0.0
H621 H 0.0785 0.47003 0.27885 0.0
H622 H 1.00962 0.42582 0.27846 0.0
H623 H 0.03457 0.49039 0.28554 0.0
H624 H 0.96391 0.58418 0.25185 0.0
H625 H 0.87397 0.51172 0.25256 0.0
H626 H 0.92955 0.40521 0.26169 0.0
C627 C 0.13047 0.56803 0.26062 0.0
C628 C 0.16002 0.62236 0.25873 0.0
C629 C 0.13412 0.65021 0.2558 0.0
C630 C 0.0798 0.62448 0.25476 0.0
C631 C 0.05195 0.57093 0.25668 0.0
C632 C 0.07639 0.54303 0.25957 0.0
C633 C 0.03748 0.48583 0.26134 0.0
C634 C 0.04547 0.45387 0.24937 0.0
C635 C 0.04021 0.46692 0.27698 0.0
C636 C 0.98717 0.48583 0.25901 0.0
C637 C 0.99647 0.53533 0.25632 0.0
C638 C 0.95622 0.54529 0.25393 0.0
C639 C 0.90516 0.50372 0.25436 0.0
C640 C 0.8945 0.45259 0.25718 0.0
C641 C 0.9363 0.44371 0.25947 0.0
H642 H 0.61476 0.51811 0.09271 0.0
H643 H 0.51429 0.36584 0.11144 0.0
H644 H 0.44072 0.38144 0.1107 0.0
H645 H 0.55671 0.58372 0.11188 0.0
H646 H 0.56319 0.62405 0.09624 0.0
H647 H 0.60858 0.60162 0.09874 0.0
H648 H 0.58737 0.56191 0.0724 0.0
H649 H 0.5416 0.58385 0.06988 0.0
H650 H 0.5211 0.51635 0.06761 0.0
H651 H 0.37719 0.41288 0.10771 0.0
H652 H 0.32921 0.45912 0.10295 0.0
H653 H 0.47005 0.58966 0.08559 0.0
C654 C 0.57742 0.48832 0.09679 0.0
C655 C 0.57044 0.44079 0.10216 0.0
C656 C 0.52072 0.40257 0.10725 0.0
C657 C 0.47856 0.41101 0.10688 0.0
C658 C 0.48647 0.45785 0.10133 0.0
C659 C 0.53463 0.49595 0.0964 0.0
C660 C 0.53226 0.54242 0.09071 0.0
C661 C 0.56726 0.59081 0.09995 0.0
C662 C 0.54641 0.55165 0.07417 0.0
C663 C 0.47536 0.52441 0.0932 0.0
C664 C 0.44962 0.47558 0.09938 0.0
C665 C 0.39692 0.45116 0.10285 0.0
C666 C 0.36993 0.47763 0.10008 0.0
C667 C 0.39564 0.52788 0.09383 0.0
C668 C 0.449 0.55114 0.09027 0.0
H669 H 0.92024 0.40285 0.43161 0.0
H670 H 0.86429 0.51039 0.4383 0.0
H671 H 0.95413 0.58298 0.43862 0.0
H672 H 0.03326 0.46904 0.45521 0.0
H673 H 0.0738 0.4558 0.44331 0.0
H674 H 1.00486 0.41184 0.44381 0.0
H675 H 1.00036 0.42093 0.41539 0.0
H676 H 0.06925 0.46501 0.41481 0.0
H677 H 0.02547 0.48433 0.40737 0.0
H678 H 0.05033 0.64475 0.43783 0.0
H679 H 0.14609 0.69044 0.43631 0.0
H680 H 0.13959 0.5432 0.43021 0.0
C681 C 0.92691 0.44162 0.43322 0.0
C682 C 0.88503 0.45074 0.43494 0.0
C683 C 0.89555 0.5022 0.43695 0.0
C684 C 0.94656 0.54386 0.43715 0.0
C685 C 0.9869 0.53366 0.43534 0.0
C686 C 0.97775 0.48384 0.43345 0.0
C687 C 0.02821 0.48369 0.43164 0.0
C688 C 0.03545 0.4533 0.44425 0.0
C689 C 0.03097 0.46223 0.41639 0.0
C690 C 0.06693 0.5411 0.43277 0.0
C691 C 0.04235 0.56929 0.43491 0.0
C692 C 0.07007 0.62307 0.43619 0.0
C693 C 0.12444 0.64872 0.4353 0.0
C694 C 0.15047 0.62054 0.43316 0.0
C695 C 0.12102 0.566 0.43188 0.0
H696 H 0.60548 0.11823 0.76841 0.0
H697 H 0.46592 0.12749 0.77459 0.0
H698 H 0.41438 0.03216 0.77632 0.0
H699 H 0.54824 1.00443 0.74578 0.0
H700 H 0.58571 0.97835 0.75374 0.0
H701 H 0.61174 0.04727 0.75324 0.0
H702 H 0.62551 0.05179 0.78164 0.0
H703 H 0.59946 0.98286 0.78224 0.0
H704 H 0.57144 1.01212 0.79361 0.0
H705 H 0.37808 0.9363 0.7771 0.0
H706 H 0.3586 0.84603 0.77664 0.0
H707 H 0.52187 0.89837 0.76997 0.0
C708 C 0.56408 0.10032 0.77016 0.0
C709 C 0.53973 0.13045 0.77138 0.0
C710 C 0.48545 0.10532 0.77363 0.0
C711 C 0.45587 0.05119 0.77464 0.0
C712 C 0.48114 0.02275 0.77339 0.0
C713 C 0.534 0.04639 0.77119 0.0
C714 C 0.55154 1.0068 0.77005 0.0
C715 C 0.57572 1.00938 0.75479 0.0
C716 C 0.58921 1.01382 0.78263 0.0
C717 C 0.50019 0.95708 0.77191 0.0
C718 C 0.46018 0.96731 0.77384 0.0
C719 C 0.40909 0.92785 0.77561 0.0
C720 C 0.39848 0.87659 0.77533 0.0
C721 C 0.43869 0.86492 0.77328 0.0
C722 C 0.49031 0.90593 0.77162 0.0
H723 H 0.42356 0.54149 0.59895 0.0
H724 H 0.56752 0.68879 0.59819 0.0
H725 H 0.61681 0.64244 0.59799 0.0
H726 H 0.46726 0.47515 0.62293 0.0
H727 H 0.4317 0.4143 0.61336 0.0
H728 H 0.40792 0.45905 0.61343 0.0
H729 H 0.40627 0.45822 0.58474 0.0
H730 H 0.43006 0.41348 0.58457 0.0
H731 H 0.46449 0.47378 0.57463 0.0
H732 H 0.65009 0.58003 0.59785 0.0
H733 H 0.66575 0.50667 0.59779 0.0
H734 H 0.49974 0.39945 0.59861 0.0
C735 C 0.46548 0.56416 0.59875 0.0
C736 C 0.49171 0.61891 0.59859 0.0
C737 C 0.54658 0.64691 0.59832 0.0
C738 C 0.57487 0.62089 0.59821 0.0
C739 C 0.5477 0.56692 0.59836 0.0
C740 C 0.49423 0.53887 0.59863 0.0
C741 C 0.47437 0.48114 0.59873 0.0
C742 C 0.4435 0.45594 0.61296 0.0
C743 C 0.44189 0.45514 0.58484 0.0
C744 C 0.52509 0.48099 0.59847 0.0
C745 C 0.56686 0.53091 0.59827 0.0
C746 C 0.61768 0.54082 0.59802 0.0
C747 C 0.6261 0.49873 0.59798 0.0
C748 C 0.58398 0.44711 0.5982 0.0
C749 C 0.53277 0.43833 0.59844 0.0
H750 H 0.14623 0.59277 0.94315 0.0
H751 H 0.15148 0.45113 0.93773 0.0
H752 H 0.05576 0.40156 0.9362 0.0
H753 H 0.02877 0.53816 0.96544 0.0
H754 H 1.00588 0.57734 0.95681 0.0
H755 H 0.07445 0.6011 0.95818 0.0
H756 H 0.08361 0.61531 0.92978 0.0
H757 H 1.01506 0.59134 0.9283 0.0
H758 H 0.04453 0.56193 0.91761 0.0
H759 H 0.96002 0.36811 0.93442 0.0
H760 H 0.87088 0.35227 0.93276 0.0
H761 H 0.92773 0.51614 0.93907 0.0
C762 C 0.12735 0.55123 0.94179 0.0
C763 C 0.15646 0.52578 0.94061 0.0
C764 C 0.13008 0.47144 0.93872 0.0
C765 C 0.07573 0.443 0.93783 0.0
C766 C 0.04836 0.46947 0.93885 0.0
C767 C 0.07326 0.52234 0.94083 0.0
C768 C 0.03493 0.54167 0.94121 0.0
C769 C 0.03608 0.566 0.95631 0.0
C770 C 0.04515 0.57981 0.92847 0.0
C771 C 0.98446 0.49139 0.939 0.0
C772 C 0.99316 0.45025 0.93772 0.0
C773 C 0.95277 0.4 0.93547 0.0
C774 C 0.90217 0.39147 0.93453 0.0
C775 C 0.8921 0.43295 0.93579 0.0
C776 C 0.93403 0.48361 0.93806 0.0
H777 H 0.42238 0.9128 0.26132 0.0
H778 H 0.53107 0.85651 0.26379 0.0
H779 H 0.60388 0.9461 0.26424 0.0
H780 H 0.50016 0.02147 0.23748 0.0
H781 H 0.48198 0.06378 0.24653 0.0
H782 H 0.43796 0.99498 0.24649 0.0
H783 H 0.43341 0.99525 0.27515 0.0
H784 H 0.47743 0.06405 0.27527 0.0
H785 H 0.4925 0.02191 0.28573 0.0
H786 H 0.66559 0.04208 0.26433 0.0
H787 H 0.71116 0.13772 0.26405 0.0
H788 H 0.56285 0.13177 0.26158 0.0
C789 C 0.46147 0.91933 0.26197 0.0
C790 C 0.47083 0.87744 0.26252 0.0
C791 C 0.52269 0.88779 0.26335 0.0
C792 C 0.56447 0.93864 0.26362 0.0
C793 C 0.55399 0.97901 0.26305 0.0
C794 C 0.50382 0.97003 0.26225 0.0
C795 C 0.5034 0.0205 0.26174 0.0
C796 C 0.47946 0.02546 0.24719 0.0
C797 C 0.47501 0.02572 0.27528 0.0
C798 C 0.56107 0.05906 0.26236 0.0
C799 C 0.58961 0.03436 0.26312 0.0
C800 C 0.64365 0.06191 0.26375 0.0
C801 C 0.66922 0.11621 0.26359 0.0
C802 C 0.64072 0.14236 0.26281 0.0
C803 C 0.5859 0.1131 0.2622 0.0
loop_
_geom_bond_atom_site_label_1
_geom_bond_atom_site_label_2
_geom_bond_distance
_geom_bond_site_symmetry_2
_ccdc_geom_bond_type
Mg0 O7 2.141 . S
Mg0 O8 2.048 . S
Mg0 O9 2.048 . S
Mg0 O12 2.141 . S
C1 O2 1.313 . S
C1 O8 1.195 . S
O2 C1 1.313 . S
C3 O4 1.245 . S
C3 O12 1.289 . S
O4 C3 1.245 . S
C5 O6 1.245 . S
C5 O7 1.289 . S
O6 C5 1.245 . S
O7 Mg0 2.141 . S
O7 C5 1.289 . S
O8 Mg0 2.048 . S
O8 C1 1.195 . S
O9 Mg0 2.048 . S
O9 C10 1.195 . S
C10 O9 1.195 . S
C10 O11 1.313 . S
O11 C10 1.313 . S
O12 Mg0 2.141 . S
O12 C3 1.289 . S
Mg13 O20 2.141 . S
Mg13 O21 2.048 . S
Mg13 O22 2.048 . S
Mg13 O25 2.141 . S
C14 O15 1.313 . S
C14 O21 1.195 . S
O15 C14 1.313 . S
C16 O17 1.245 . S
C16 O25 1.289 . S
O17 C16 1.245 . S
C18 O19 1.245 . S
C18 O20 1.289 . S
O19 C18 1.245 . S
O20 Mg13 2.141 . S
O20 C18 1.289 . S
O21 Mg13 2.048 . S
O21 C14 1.195 . S
O22 Mg13 2.048 . S
O22 C23 1.195 . S
C23 O22 1.195 . S
C23 O24 1.313 . S
O24 C23 1.313 . S
O25 Mg13 2.141 . S
O25 C16 1.289 . S
Mg26 O33 2.141 . S
Mg26 O34 2.048 . S
Mg26 O35 2.048 . S
Mg26 O38 2.141 . S
C27 O28 1.313 . S
C27 O34 1.195 . S
O28 C27 1.313 . S
C29 O30 1.245 . S
C29 O38 1.289 . S
O30 C29 1.245 . S
C31 O32 1.245 . S
C31 O33 1.289 . S
O32 C31 1.245 . S
O33 Mg26 2.141 . S
O33 C31 1.289 . S
O34 Mg26 2.048 . S
O34 C27 1.195 . S
O35 Mg26 2.048 . S
O35 C36 1.195 . S
C36 O35 1.195 . S
C36 O37 1.313 . S
O37 C36 1.313 . S
O38 Mg26 2.141 . S
O38 C29 1.289 . S
Mg39 O46 2.141 . S
Mg39 O47 2.048 . S
Mg39 O48 2.048 . S
Mg39 O51 2.141 . S
C40 O41 1.313 . S
C40 O47 1.195 . S
O41 C40 1.313 . S
C42 O43 1.245 . S
C42 O51 1.289 . S
O43 C42 1.245 . S
C44 O45 1.245 . S
C44 O46 1.289 . S
O45 C44 1.245 . S
O46 Mg39 2.141 . S
O46 C44 1.289 . S
O47 Mg39 2.048 . S
O47 C40 1.195 . S
O48 Mg39 2.048 . S
O48 C49 1.195 . S
C49 O48 1.195 . S
C49 O50 1.313 . S
O50 C49 1.313 . S
O51 Mg39 2.141 . S
O51 C42 1.289 . S
Mg52 O59 2.141 . S
Mg52 O60 2.048 . S
Mg52 O61 2.048 . S
Mg52 O64 2.141 . S
C53 O54 1.313 . S
C53 O60 1.195 . S
O54 C53 1.313 . S
C55 O56 1.245 . S
C55 O64 1.289 . S
O56 C55 1.245 . S
C57 O58 1.245 . S
C57 O59 1.289 . S
O58 C57 1.245 . S
O59 Mg52 2.141 . S
O59 C57 1.289 . S
O60 Mg52 2.048 . S
O60 C53 1.195 . S
O61 Mg52 2.048 . S
O61 C62 1.195 . S
C62 O61 1.195 . S
C62 O63 1.313 . S
O63 C62 1.313 . S
O64 Mg52 2.141 . S
O64 C55 1.289 . S
Mg65 O72 2.141 . S
Mg65 O73 2.048 . S
Mg65 O74 2.048 . S
Mg65 O77 2.141 . S
C66 O67 1.313 . S
C66 O73 1.195 . S
O67 C66 1.313 . S
C68 O69 1.245 . S
C68 O77 1.289 . S
O69 C68 1.245 . S
C70 O71 1.245 . S
C70 O72 1.289 . S
O71 C70 1.245 . S
O72 Mg65 2.141 . S
O72 C70 1.289 . S
O73 Mg65 2.048 . S
O73 C66 1.195 . S
O74 Mg65 2.048 . S
O74 C75 1.195 . S
C75 O74 1.195 . S
C75 O76 1.313 . S
O76 C75 1.313 . S
O77 Mg65 2.141 . S
O77 C68 1.289 . S
Mg78 O85 2.141 . S
Mg78 O86 2.048 . S
Mg78 O87 2.048 . S
Mg78 O90 2.141 . S
C79 O80 1.313 . S
C79 O86 1.195 . S
O80 C79 1.313 . S
C81 O82 1.245 . S
C81 O90 1.289 . S
O82 C81 1.245 . S
C83 O84 1.245 . S
C83 O85 1.289 . S
O84 C83 1.245 . S
O85 Mg78 2.141 . S
O85 C83 1.289 . S
O86 Mg78 2.048 . S
O86 C79 1.195 . S
O87 Mg78 2.048 . S
O87 C88 1.195 . S
C88 O87 1.195 . S
C88 O89 1.313 . S
O89 C88 1.313 . S
O90 Mg78 2.141 . S
O90 C81 1.289 . S
Mg91 O98 2.141 . S
Mg91 O99 2.048 . S
Mg91 O100 2.048 . S
Mg91 O103 2.141 . S
C92 O93 1.313 . S
C92 O99 1.195 . S
O93 C92 1.313 . S
C94 O95 1.245 . S
C94 O103 1.289 . S
O95 C94 1.245 . S
C96 O97 1.245 . S
C96 O98 1.289 . S
O97 C96 1.245 . S
O98 Mg91 2.141 . S
O98 C96 1.289 . S
O99 Mg91 2.048 . S
O99 C92 1.195 . S
O100 Mg91 2.048 . S
O100 C101 1.195 . S
C101 O100 1.195 . S
C101 O102 1.313 . S
O102 C101 1.313 . S
O103 Mg91 2.141 . S
O103 C94 1.289 . S
Mg104 O111 2.141 . S
Mg104 O112 2.048 . S
Mg104 O113 2.048 . S
Mg104 O116 2.141 . S
C105 O106 1.313 . S
C105 O112 1.195 . S
O106 C105 1.313 . S
C107 O108 1.245 . S
C107 O116 1.289 . S
O108 C107 1.245 . S
C109 O110 1.245 . S
C109 O111 1.289 . S
O110 C109 1.245 . S
O111 Mg104 2.141 . S
O111 C109 1.289 . S
O112 Mg104 2.048 . S
O112 C105 1.195 . S
O113 Mg104 2.048 . S
O113 C114 1.195 . S
C114 O113 1.195 . S
C114 O115 1.313 . S
O115 C114 1.313 . S
O116 Mg104 2.141 . S
O116 C107 1.289 . S
Mg117 O124 2.141 . S
Mg117 O125 2.048 . S
Mg117 O126 2.048 . S
Mg117 O129 2.141 . S
C118 O119 1.313 . S
C118 O125 1.195 . S
O119 C118 1.313 . S
C120 O121 1.245 . S
C120 O129 1.289 . S
O121 C120 1.245 . S
C122 O123 1.245 . S
C122 O124 1.289 . S
O123 C122 1.245 . S
O124 Mg117 2.141 . S
O124 C122 1.289 . S
O125 Mg117 2.048 . S
O125 C118 1.195 . S
O126 Mg117 2.048 . S
O126 C127 1.195 . S
C127 O126 1.195 . S
C127 O128 1.313 . S
O128 C127 1.313 . S
O129 Mg117 2.141 . S
O129 C120 1.289 . S
Mg130 O137 2.141 . S
Mg130 O138 2.048 . S
Mg130 O139 2.048 . S
Mg130 O142 2.141 . S
C131 O132 1.313 . S
C131 O138 1.195 . S
O132 C131 1.313 . S
C133 O134 1.245 . S
C133 O142 1.289 . S
O134 C133 1.245 . S
C135 O136 1.245 . S
C135 O137 1.289 . S
O136 C135 1.245 . S
O137 Mg130 2.141 . S
O137 C135 1.289 . S
O138 Mg130 2.048 . S
O138 C131 1.195 . S
O139 Mg130 2.048 . S
O139 C140 1.195 . S
C140 O139 1.195 . S
C140 O141 1.313 . S
O141 C140 1.313 . S
O142 Mg130 2.141 . S
O142 C133 1.289 . S
Mg143 O150 2.141 . S
Mg143 O151 2.048 . S
Mg143 O152 2.048 . S
Mg143 O155 2.141 . S
C144 O145 1.313 . S
C144 O151 1.195 . S
O145 C144 1.313 . S
C146 O147 1.245 . S
C146 O155 1.289 . S
O147 C146 1.245 . S
C148 O149 1.245 . S
C148 O150 1.289 . S
O149 C148 1.245 . S
O150 Mg143 2.141 . S
O150 C148 1.289 . S
O151 Mg143 2.048 . S
O151 C144 1.195 . S
O152 Mg143 2.048 . S
O152 C153 1.195 . S
C153 O152 1.195 . S
C153 O154 1.313 . S
O154 C153 1.313 . S
O155 Mg143 2.141 . S
O155 C146 1.289 . S
H156 C168 0.930 . S
H157 C170 0.930 . S
H158 C171 0.930 . S
H159 C175 0.961 . S
H160 C175 0.973 . S
H161 C175 0.945 1_556 S
H162 C176 0.966 1_556 S
H163 C176 0.955 . S
H164 C176 0.955 . S
H165 C179 0.929 . S
H166 C180 0.931 . S
H167 C182 0.930 . S
C168 H156 0.930 . S
C168 C169 1.399 . S
C168 C173 1.399 . S
C169 C168 1.399 . S
C169 C170 1.376 . S
C170 H157 0.930 . S
C170 C169 1.376 . S
C170 C171 1.388 . S
C171 H158 0.930 . S
C171 C170 1.388 . S
C171 C172 1.390 . S
C172 C171 1.390 . S
C172 C173 1.394 . S
C172 C178 1.465 1_556 S
C173 C168 1.399 . S
C173 C172 1.394 . S
C173 C174 1.522 1_556 S
C174 C173 1.522 1_554 S
C174 C175 1.502 . S
C174 C176 1.561 . S
C174 C177 1.520 . S
C175 H159 0.961 . S
C175 H160 0.973 . S
C175 H161 0.945 1_554 S
C175 C174 1.502 . S
C176 H162 0.966 1_554 S
C176 H163 0.955 . S
C176 H164 0.955 . S
C176 C174 1.561 . S
C177 C174 1.520 . S
C177 C178 1.396 . S
C177 C182 1.390 . S
C178 C172 1.465 1_554 S
C178 C177 1.396 . S
C178 C179 1.399 . S
C179 H165 0.929 . S
C179 C178 1.399 . S
C179 C180 1.385 . S
C180 H166 0.931 . S
C180 C179 1.385 . S
C180 C181 1.389 . S
C181 C180 1.389 . S
C181 C182 1.387 . S
C182 H167 0.930 . S
C182 C177 1.390 . S
C182 C181 1.387 . S
H183 C195 0.930 . S
H184 C197 0.930 . S
H185 C198 0.930 . S
H186 C202 0.959 . S
H187 C202 0.959 . S
H188 C202 0.961 . S
H189 C203 0.960 . S
H190 C203 0.961 . S
H191 C203 0.959 . S
H192 C206 0.929 . S
H193 C207 0.931 . S
H194 C209 0.930 . S
C195 H183 0.930 . S
C195 C196 1.399 . S
C195 C200 1.399 . S
C196 C195 1.399 . S
C196 C197 1.376 . S
C197 H184 0.930 . S
C197 C196 1.376 . S
C197 C198 1.388 . S
C198 H185 0.930 . S
C198 C197 1.388 . S
C198 C199 1.390 . S
C199 C198 1.390 . S
C199 C200 1.394 . S
C199 C205 1.465 . S
C200 C195 1.399 . S
C200 C199 1.394 . S
C200 C201 1.516 . S
C201 C200 1.516 . S
C201 C202 1.502 . S
C201 C203 1.561 . S
C201 C204 1.526 . S
C202 H186 0.959 . S
C202 H187 0.959 . S
C202 H188 0.961 . S
C202 C201 1.502 . S
C203 H189 0.960 . S
C203 H190 0.961 . S
C203 H191 0.959 . S
C203 C201 1.561 . S
C204 C201 1.526 . S
C204 C205 1.396 . S
C204 C209 1.390 . S
C205 C199 1.465 . S
C205 C204 1.396 . S
C205 C206 1.399 . S
C206 H192 0.929 . S
C206 C205 1.399 . S
C206 C207 1.385 . S
C207 H193 0.931 . S
C207 C206 1.385 . S
C207 C208 1.389 . S
C208 C207 1.389 . S
C208 C209 1.387 . S
C209 H194 0.930 . S
C209 C204 1.390 . S
C209 C208 1.387 . S
H210 C222 0.930 . S
H211 C224 0.930 . S
H212 C225 0.930 . S
H213 C229 0.959 . S
H214 C229 0.959 . S
H215 C229 0.961 . S
H216 C230 0.960 . S
H217 C230 0.961 . S
H218 C230 0.959 . S
H219 C233 0.929 . S
H220 C234 0.931 . S
H221 C236 0.930 . S
C222 H210 0.930 . S
C222 C223 1.399 . S
C222 C227 1.399 . S
C223 C222 1.399 . S
C223 C224 1.376 . S
C224 H211 0.930 . S
C224 C223 1.376 . S
C224 C225 1.388 . S
C225 H212 0.930 . S
C225 C224 1.388 . S
C225 C226 1.390 . S
C226 C225 1.390 . S
C226 C227 1.394 . S
C226 C232 1.465 . S
C227 C222 1.399 . S
C227 C226 1.394 . S
C227 C228 1.516 . S
C228 C227 1.516 . S
C228 C229 1.502 . S
C228 C230 1.561 . S
C228 C231 1.526 . S
C229 H213 0.959 . S
C229 H214 0.959 . S
C229 H215 0.961 . S
C229 C228 1.502 . S
C230 H216 0.960 . S
C230 H217 0.961 . S
C230 H218 0.959 . S
C230 C228 1.561 . S
C231 C228 1.526 . S
C231 C232 1.396 . S
C231 C236 1.390 . S
C232 C226 1.465 . S
C232 C231 1.396 . S
C232 C233 1.399 . S
C233 H219 0.929 . S
C233 C232 1.399 . S
C233 C234 1.385 . S
C234 H220 0.931 . S
C234 C233 1.385 . S
C234 C235 1.389 . S
C235 C234 1.389 . S
C235 C236 1.387 . S
C236 H221 0.930 . S
C236 C231 1.390 . S
C236 C235 1.387 . S
H237 C249 0.930 . S
H238 C251 0.930 . S
H239 C252 0.930 . S
H240 C256 0.962 . S
H241 C256 0.980 . S
H242 C256 0.938 1_554 S
H243 C257 0.961 1_554 S
H244 C257 0.960 . S
H245 C257 0.956 . S
H246 C260 0.929 . S
H247 C261 0.931 . S
H248 C263 0.930 . S
C249 H237 0.930 . S
C249 C250 1.399 . S
C249 C254 1.399 . S
C250 C249 1.399 . S
C250 C251 1.376 . S
C251 H238 0.930 . S
C251 C250 1.376 . S
C251 C252 1.388 . S
C252 H239 0.930 . S
C252 C251 1.388 . S
C252 C253 1.390 . S
C253 C252 1.390 . S
C253 C254 1.394 . S
C253 C259 1.465 1_554 S
C254 C249 1.399 . S
C254 C253 1.394 . S
C254 C255 1.518 1_554 S
C255 C254 1.518 1_556 S
C255 C256 1.501 . S
C255 C257 1.561 . S
C255 C258 1.524 . S
C256 H240 0.962 . S
C256 H241 0.980 . S
C256 H242 0.938 1_556 S
C256 C255 1.501 . S
C257 H243 0.961 1_556 S
C257 H244 0.960 . S
C257 H245 0.956 . S
C257 C255 1.561 . S
C258 C255 1.524 . S
C258 C259 1.396 . S
C258 C263 1.390 . S
C259 C253 1.465 1_556 S
C259 C258 1.396 . S
C259 C260 1.399 . S
C260 H246 0.929 . S
C260 C259 1.399 . S
C260 C261 1.385 . S
C261 H247 0.931 . S
C261 C260 1.385 . S
C261 C262 1.389 . S
C262 C261 1.389 . S
C262 C263 1.387 . S
C263 H248 0.930 . S
C263 C258 1.390 . S
C263 C262 1.387 . S
H264 C276 0.930 . S
H265 C278 0.930 . S
H266 C279 0.930 . S
H267 C283 0.959 . S
H268 C283 0.959 . S
H269 C283 0.961 . S
H270 C284 0.960 . S
H271 C284 0.961 . S
H272 C284 0.959 . S
H273 C287 0.929 . S
H274 C288 0.931 . S
H275 C290 0.930 . S
C276 H264 0.930 . S
C276 C277 1.399 . S
C276 C281 1.399 . S
C277 C276 1.399 . S
C277 C278 1.376 . S
C278 H265 0.930 . S
C278 C277 1.376 . S
C278 C279 1.388 . S
C279 H266 0.930 . S
C279 C278 1.388 . S
C279 C280 1.390 . S
C280 C279 1.390 . S
C280 C281 1.394 . S
C280 C286 1.465 . S
C281 C276 1.399 . S
C281 C280 1.394 . S
C281 C282 1.516 . S
C282 C281 1.516 . S
C282 C283 1.502 . S
C282 C284 1.561 . S
C282 C285 1.526 . S
C283 H267 0.959 . S
C283 H268 0.959 . S
C283 H269 0.961 . S
C283 C282 1.502 . S
C284 H270 0.960 . S
C284 H271 0.961 . S
C284 H272 0.959 . S
C284 C282 1.561 . S
C285 C282 1.526 . S
C285 C286 1.396 . S
C285 C290 1.390 . S
C286 C280 1.465 . S
C286 C285 1.396 . S
C286 C287 1.399 . S
C287 H273 0.929 . S
C287 C286 1.399 . S
C287 C288 1.385 . S
C288 H274 0.931 . S
C288 C287 1.385 . S
C288 C289 1.389 . S
C289 C288 1.389 . S
C289 C290 1.387 . S
C290 H275 0.930 . S
C290 C285 1.390 . S
C290 C289 1.387 . S
H291 C303 0.930 . S
H292 C305 0.930 . S
H293 C306 0.930 . S
H294 C310 0.959 . S
H295 C310 0.959 . S
H296 C310 0.961 . S
H297 C311 0.960 . S
H298 C311 0.961 . S
H299 C311 0.959 . S
H300 C314 0.929 . S
H301 C315 0.931 . S
H302 C317 0.930 . S
C303 H291 0.930 . S
C303 C304 1.399 . S
C303 C308 1.399 . S
C304 C303 1.399 . S
C304 C305 1.376 . S
C305 H292 0.930 . S
C305 C304 1.376 . S
C305 C306 1.388 . S
C306 H293 0.930 . S
C306 C305 1.388 . S
C306 C307 1.390 . S
C307 C306 1.390 . S
C307 C308 1.394 . S
C307 C313 1.465 . S
C308 C303 1.399 . S
C308 C307 1.394 . S
C308 C309 1.516 . S
C309 C308 1.516 . S
C309 C310 1.502 . S
C309 C311 1.561 . S
C309 C312 1.526 . S
C310 H294 0.959 . S
C310 H295 0.959 . S
C310 H296 0.961 . S
C310 C309 1.502 . S
C311 H297 0.960 . S
C311 H298 0.961 . S
C311 H299 0.959 . S
C311 C309 1.561 . S
C312 C309 1.526 . S
C312 C313 1.396 . S
C312 C317 1.390 . S
C313 C307 1.465 . S
C313 C312 1.396 . S
C313 C314 1.399 . S
C314 H300 0.929 . S
C314 C313 1.399 . S
C314 C315 1.385 . S
C315 H301 0.931 . S
C315 C314 1.385 . S
C315 C316 1.389 . S
C316 C315 1.389 . S
C316 C317 1.387 . S
C317 H302 0.930 . S
C317 C312 1.390 . S
C317 C316 1.387 . S
H318 C330 0.930 . S
H319 C332 0.930 . S
H320 C333 0.930 . S
H321 C337 0.959 . S
H322 C337 0.959 . S
H323 C337 0.961 . S
H324 C338 0.960 . S
H325 C338 0.961 . S
H326 C338 0.959 . S
H327 C341 0.929 . S
H328 C342 0.931 . S
H329 C344 0.930 . S
C330 H318 0.930 . S
C330 C331 1.399 . S
C330 C335 1.399 . S
C331 C330 1.399 . S
C331 C332 1.376 . S
C332 H319 0.930 . S
C332 C331 1.376 . S
C332 C333 1.388 . S
C333 H320 0.930 . S
C333 C332 1.388 . S
C333 C334 1.390 . S
C334 C333 1.390 . S
C334 C335 1.394 . S
C334 C340 1.465 . S
C335 C330 1.399 . S
C335 C334 1.394 . S
C335 C336 1.516 . S
C336 C335 1.516 . S
C336 C337 1.502 . S
C336 C338 1.561 . S
C336 C339 1.526 . S
C337 H321 0.959 . S
C337 H322 0.959 . S
C337 H323 0.961 . S
C337 C336 1.502 . S
C338 H324 0.960 . S
C338 H325 0.961 . S
C338 H326 0.959 . S
C338 C336 1.561 . S
C339 C336 1.526 . S
C339 C340 1.396 . S
C339 C344 1.390 . S
C340 C334 1.465 . S
C340 C339 1.396 . S
C340 C341 1.399 . S
C341 H327 0.929 . S
C341 C340 1.399 . S
C341 C342 1.385 . S
C342 H328 0.931 . S
C342 C341 1.385 . S
C342 C343 1.389 . S
C343 C342 1.389 . S
C343 C344 1.387 . S
C344 H329 0.930 . S
C344 C339 1.390 . S
C344 C343 1.387 . S
H345 C357 0.930 . S
H346 C359 0.930 . S
H347 C360 0.930 . S
H348 C364 0.959 . S
H349 C364 0.959 . S
H350 C364 0.961 . S
H351 C365 0.960 . S
H352 C365 0.961 . S
H353 C365 0.959 . S
H354 C368 0.929 . S
H355 C369 0.931 . S
H356 C371 0.930 . S
C357 H345 0.930 . S
C357 C358 1.399 . S
C357 C362 1.399 . S
C358 C357 1.399 . S
C358 C359 1.376 . S
C359 H346 0.930 . S
C359 C358 1.376 . S
C359 C360 1.388 . S
C360 H347 0.930 . S
C360 C359 1.388 . S
C360 C361 1.390 . S
C361 C360 1.390 . S
C361 C362 1.394 . S
C361 C367 1.465 . S
C362 C357 1.399 . S
C362 C361 1.394 . S
C362 C363 1.516 . S
C363 C362 1.516 . S
C363 C364 1.502 . S
C363 C365 1.561 . S
C363 C366 1.526 . S
C364 H348 0.959 . S
C364 H349 0.959 . S
C364 H350 0.961 . S
C364 C363 1.502 . S
C365 H351 0.960 . S
C365 H352 0.961 . S
C365 H353 0.959 . S
C365 C363 1.561 . S
C366 C363 1.526 . S
C366 C367 1.396 . S
C366 C371 1.390 . S
C367 C361 1.465 . S
C367 C366 1.396 . S
C367 C368 1.399 . S
C368 H354 0.929 . S
C368 C367 1.399 . S
C368 C369 1.385 . S
C369 H355 0.931 . S
C369 C368 1.385 . S
C369 C370 1.389 . S
C370 C369 1.389 . S
C370 C371 1.387 . S
C371 H356 0.930 . S
C371 C366 1.390 . S
C371 C370 1.387 . S
H372 C384 0.930 . S
H373 C386 0.930 . S
H374 C387 0.930 . S
H375 C391 0.959 . S
H376 C391 0.959 . S
H377 C391 0.961 . S
H378 C392 0.960 . S
H379 C392 0.961 . S
H380 C392 0.959 . S
H381 C395 0.929 . S
H382 C396 0.931 . S
H383 C398 0.930 . S
C384 H372 0.930 . S
C384 C385 1.399 . S
C384 C389 1.399 . S
C385 C384 1.399 . S
C385 C386 1.376 . S
C386 H373 0.930 . S
C386 C385 1.376 . S
C386 C387 1.388 . S
C387 H374 0.930 . S
C387 C386 1.388 . S
C387 C388 1.390 . S
C388 C387 1.390 . S
C388 C389 1.394 . S
C388 C394 1.465 . S
C389 C384 1.399 . S
C389 C388 1.394 . S
C389 C390 1.516 . S
C390 C389 1.516 . S
C390 C391 1.502 . S
C390 C392 1.561 . S
C390 C393 1.526 . S
C391 H375 0.959 . S
C391 H376 0.959 . S
C391 H377 0.961 . S
C391 C390 1.502 . S
C392 H378 0.960 . S
C392 H379 0.961 . S
C392 H380 0.959 . S
C392 C390 1.561 . S
C393 C390 1.526 . S
C393 C394 1.396 . S
C393 C398 1.390 . S
C394 C388 1.465 . S
C394 C393 1.396 . S
C394 C395 1.399 . S
C395 H381 0.929 . S
C395 C394 1.399 . S
C395 C396 1.385 . S
C396 H382 0.931 . S
C396 C395 1.385 . S
C396 C397 1.389 . S
C397 C396 1.389 . S
C397 C398 1.387 . S
C398 H383 0.930 . S
C398 C393 1.390 . S
C398 C397 1.387 . S
H399 C411 0.930 . S
H400 C413 0.930 . S
H401 C414 0.930 . S
H402 C418 0.959 . S
H403 C418 0.959 . S
H404 C418 0.961 . S
H405 C419 0.960 . S
H406 C419 0.961 . S
H407 C419 0.959 . S
H408 C422 0.929 . S
H409 C423 0.931 . S
H410 C425 0.930 . S
C411 H399 0.930 . S
C411 C412 1.399 . S
C411 C416 1.399 . S
C412 C411 1.399 . S
C412 C413 1.376 . S
C413 H400 0.930 . S
C413 C412 1.376 . S
C413 C414 1.388 . S
C414 H401 0.930 . S
C414 C413 1.388 . S
C414 C415 1.390 . S
C415 C414 1.390 . S
C415 C416 1.394 . S
C415 C421 1.465 . S
C416 C411 1.399 . S
C416 C415 1.394 . S
C416 C417 1.516 . S
C417 C416 1.516 . S
C417 C418 1.502 . S
C417 C419 1.561 . S
C417 C420 1.526 . S
C418 H402 0.959 . S
C418 H403 0.959 . S
C418 H404 0.961 . S
C418 C417 1.502 . S
C419 H405 0.960 . S
C419 H406 0.961 . S
C419 H407 0.959 . S
C419 C417 1.561 . S
C420 C417 1.526 . S
C420 C421 1.396 . S
C420 C425 1.390 . S
C421 C415 1.465 . S
C421 C420 1.396 . S
C421 C422 1.399 . S
C422 H408 0.929 . S
C422 C421 1.399 . S
C422 C423 1.385 . S
C423 H409 0.931 . S
C423 C422 1.385 . S
C423 C424 1.389 . S
C424 C423 1.389 . S
C424 C425 1.387 . S
C425 H410 0.930 . S
C425 C420 1.390 . S
C425 C424 1.387 . S
H426 C438 0.930 . S
H427 C440 0.930 . S
H428 C441 0.930 . S
H429 C445 0.959 . S
H430 C445 0.959 . S
H431 C445 0.961 . S
H432 C446 0.960 . S
H433 C446 0.961 . S
H434 C446 0.959 . S
H435 C449 0.929 . S
H436 C450 0.931 . S
H437 C452 0.930 . S
C438 H426 0.930 . S
C438 C439 1.399 . S
C438 C443 1.399 . S
C439 C438 1.399 . S
C439 C440 1.376 . S
C440 H427 0.930 . S
C440 C439 1.376 . S
C440 C441 1.388 . S
C441 H428 0.930 . S
C441 C440 1.388 . S
C441 C442 1.390 . S
C442 C441 1.390 . S
C442 C443 1.394 . S
C442 C448 1.465 . S
C443 C438 1.399 . S
C443 C442 1.394 . S
C443 C444 1.516 . S
C444 C443 1.516 . S
C444 C445 1.502 . S
C444 C446 1.561 . S
C444 C447 1.526 . S
C445 H429 0.959 . S
C445 H430 0.959 . S
C445 H431 0.961 . S
C445 C444 1.502 . S
C446 H432 0.960 . S
C446 H433 0.961 . S
C446 H434 0.959 . S
C446 C444 1.561 . S
C447 C444 1.526 . S
C447 C448 1.396 . S
C447 C452 1.390 . S
C448 C442 1.465 . S
C448 C447 1.396 . S
C448 C449 1.399 . S
C449 H435 0.929 . S
C449 C448 1.399 . S
C449 C450 1.385 . S
C450 H436 0.931 . S
C450 C449 1.385 . S
C450 C451 1.389 . S
C451 C450 1.389 . S
C451 C452 1.387 . S
C452 H437 0.930 . S
C452 C447 1.390 . S
C452 C451 1.387 . S
H453 C465 0.930 . S
H454 C467 0.930 . S
H455 C468 0.930 . S
H456 C472 0.959 . S
H457 C472 0.959 . S
H458 C472 0.961 . S
H459 C473 0.960 . S
H460 C473 0.961 . S
H461 C473 0.959 . S
H462 C476 0.929 . S
H463 C477 0.931 . S
H464 C479 0.930 . S
C465 H453 0.930 . S
C465 C466 1.399 . S
C465 C470 1.399 . S
C466 C465 1.399 . S
C466 C467 1.376 . S
C467 H454 0.930 . S
C467 C466 1.376 . S
C467 C468 1.388 . S
C468 H455 0.930 . S
C468 C467 1.388 . S
C468 C469 1.390 . S
C469 C468 1.390 . S
C469 C470 1.394 . S
C469 C475 1.465 . S
C470 C465 1.399 . S
C470 C469 1.394 . S
C470 C471 1.516 . S
C471 C470 1.516 . S
C471 C472 1.502 . S
C471 C473 1.561 . S
C471 C474 1.526 . S
C472 H456 0.959 . S
C472 H457 0.959 . S
C472 H458 0.961 . S
C472 C471 1.502 . S
C473 H459 0.960 . S
C473 H460 0.961 . S
C473 H461 0.959 . S
C473 C471 1.561 . S
C474 C471 1.526 . S
C474 C475 1.396 . S
C474 C479 1.390 . S
C475 C469 1.465 . S
C475 C474 1.396 . S
C475 C476 1.399 . S
C476 H462 0.929 . S
C476 C475 1.399 . S
C476 C477 1.385 . S
C477 H463 0.931 . S
C477 C476 1.385 . S
C477 C478 1.389 . S
C478 C477 1.389 . S
C478 C479 1.387 . S
C479 H464 0.930 . S
C479 C474 1.390 . S
C479 C478 1.387 . S
H480 C492 0.930 . S
H481 C494 0.930 . S
H482 C495 0.930 . S
H483 C499 0.959 . S
H484 C499 0.959 1_455 S
H485 C499 0.961 . S
H486 C500 0.960 1_655 S
H487 C500 0.961 . S
H488 C500 0.959 . S
H489 C503 0.929 . S
H490 C504 0.931 . S
H491 C506 0.930 . S
C492 H480 0.930 . S
C492 C493 1.399 . S
C492 C497 1.399 . S
C493 C492 1.399 . S
C493 C494 1.376 . S
C494 H481 0.930 . S
C494 C493 1.376 . S
C494 C495 1.388 . S
C495 H482 0.930 . S
C495 C494 1.388 . S
C495 C496 1.390 . S
C496 C495 1.390 . S
C496 C497 1.394 . S
C496 C502 1.465 1_655 S
C497 C492 1.399 . S
C497 C496 1.394 . S
C497 C498 1.516 . S
C498 C497 1.516 . S
C498 C499 1.502 . S
C498 C500 1.561 1_655 S
C498 C501 1.526 1_655 S
C499 H483 0.959 . S
C499 H484 0.959 1_655 S
C499 H485 0.961 . S
C499 C498 1.502 . S
C500 H486 0.960 1_455 S
C500 H487 0.961 . S
C500 H488 0.959 . S
C500 C498 1.561 1_455 S
C501 C498 1.526 1_455 S
C501 C502 1.396 . S
C501 C506 1.390 . S
C502 C496 1.465 1_455 S
C502 C501 1.396 . S
C502 C503 1.399 . S
C503 H489 0.929 . S
C503 C502 1.399 . S
C503 C504 1.385 . S
C504 H490 0.931 . S
C504 C503 1.385 . S
C504 C505 1.389 . S
C505 C504 1.389 . S
C505 C506 1.387 . S
C506 H491 0.930 . S
C506 C501 1.390 . S
C506 C505 1.387 . S
H507 C519 0.930 . S
H508 C521 0.930 . S
H509 C522 0.930 . S
H510 C526 0.959 . S
H511 C526 0.959 1_565 S
H512 C526 0.961 . S
H513 C527 0.960 1_545 S
H514 C527 0.961 . S
H515 C527 0.959 . S
H516 C530 0.929 . S
H517 C531 0.931 . S
H518 C533 0.930 . S
C519 H507 0.930 . S
C519 C520 1.399 . S
C519 C524 1.399 . S
C520 C519 1.399 . S
C520 C521 1.376 . S
C521 H508 0.930 . S
C521 C520 1.376 . S
C521 C522 1.388 . S
C522 H509 0.930 . S
C522 C521 1.388 . S
C522 C523 1.390 . S
C523 C522 1.390 . S
C523 C524 1.394 . S
C523 C529 1.465 1_545 S
C524 C519 1.399 . S
C524 C523 1.394 . S
C524 C525 1.516 . S
C525 C524 1.516 . S
C525 C526 1.502 . S
C525 C527 1.561 1_545 S
C525 C528 1.526 1_545 S
C526 H510 0.959 . S
C526 H511 0.959 1_545 S
C526 H512 0.961 . S
C526 C525 1.502 . S
C527 H513 0.960 1_565 S
C527 H514 0.961 . S
C527 H515 0.959 . S
C527 C525 1.561 1_565 S
C528 C525 1.526 1_565 S
C528 C529 1.396 . S
C528 C533 1.390 . S
C529 C523 1.465 1_565 S
C529 C528 1.396 . S
C529 C530 1.399 . S
C530 H516 0.929 . S
C530 C529 1.399 . S
C530 C531 1.385 . S
C531 H517 0.931 . S
C531 C530 1.385 . S
C531 C532 1.389 . S
C532 C531 1.389 . S
C532 C533 1.387 . S
C533 H518 0.930 . S
C533 C528 1.390 . S
C533 C532 1.387 . S
H534 C546 0.930 . S
H535 C548 0.930 . S
H536 C549 0.930 . S
H537 C553 0.959 . S
H538 C553 0.959 . S
H539 C553 0.961 . S
H540 C554 0.960 . S
H541 C554 0.961 . S
H542 C554 0.959 . S
H543 C557 0.929 . S
H544 C558 0.931 . S
H545 C560 0.930 . S
C546 H534 0.930 . S
C546 C547 1.399 . S
C546 C551 1.399 . S
C547 C546 1.399 . S
C547 C548 1.376 . S
C548 H535 0.930 . S
C548 C547 1.376 . S
C548 C549 1.388 . S
C549 H536 0.930 . S
C549 C548 1.388 . S
C549 C550 1.390 . S
C550 C549 1.390 . S
C550 C551 1.394 . S
C550 C556 1.465 . S
C551 C546 1.399 . S
C551 C550 1.394 . S
C551 C552 1.516 . S
C552 C551 1.516 . S
C552 C553 1.502 . S
C552 C554 1.561 . S
C552 C555 1.526 . S
C553 H537 0.959 . S
C553 H538 0.959 . S
C553 H539 0.961 . S
C553 C552 1.502 . S
C554 H540 0.960 . S
C554 H541 0.961 . S
C554 H542 0.959 . S
C554 C552 1.561 . S
C555 C552 1.526 . S
C555 C556 1.396 . S
C555 C560 1.390 . S
C556 C550 1.465 . S
C556 C555 1.396 . S
C556 C557 1.399 . S
C557 H543 0.929 . S
C557 C556 1.399 . S
C557 C558 1.385 . S
C558 H544 0.931 . S
C558 C557 1.385 . S
C558 C559 1.389 . S
C559 C558 1.389 . S
C559 C560 1.387 . S
C560 H545 0.930 . S
C560 C555 1.390 . S
C560 C559 1.387 . S
H561 C573 0.930 . S
H562 C575 0.930 . S
H563 C576 0.930 . S
H564 C580 0.959 . S
H565 C580 0.959 1_565 S
H566 C580 0.961 . S
H567 C581 0.960 1_545 S
H568 C581 0.961 . S
H569 C581 0.959 . S
H570 C584 0.929 . S
H571 C585 0.931 . S
H572 C587 0.930 . S
C573 H561 0.930 . S
C573 C574 1.399 . S
C573 C578 1.399 . S
C574 C573 1.399 . S
C574 C575 1.376 . S
C575 H562 0.930 . S
C575 C574 1.376 . S
C575 C576 1.388 . S
C576 H563 0.930 . S
C576 C575 1.388 . S
C576 C577 1.390 . S
C577 C576 1.390 . S
C577 C578 1.394 . S
C577 C583 1.465 1_545 S
C578 C573 1.399 . S
C578 C577 1.394 . S
C578 C579 1.537 . S
C579 C578 1.537 . S
C579 C580 1.491 . S
C579 C581 1.569 1_545 S
C579 C582 1.510 1_545 S
C580 H564 0.959 . S
C580 H565 0.959 1_545 S
C580 H566 0.961 . S
C580 C579 1.491 . S
C581 H567 0.960 1_565 S
C581 H568 0.961 . S
C581 H569 0.959 . S
C581 C579 1.569 1_565 S
C582 C579 1.510 1_565 S
C582 C583 1.396 . S
C582 C587 1.390 . S
C583 C577 1.465 1_565 S
C583 C582 1.396 . S
C583 C584 1.399 . S
C584 H570 0.929 . S
C584 C583 1.399 . S
C584 C585 1.385 . S
C585 H571 0.931 . S
C585 C584 1.385 . S
C585 C586 1.389 . S
C586 C585 1.389 . S
C586 C587 1.387 . S
C587 H572 0.930 . S
C587 C582 1.390 . S
C587 C586 1.387 . S
H588 C600 0.930 . S
H589 C602 0.930 . S
H590 C603 0.930 . S
H591 C607 0.959 . S
H592 C607 0.959 . S
H593 C607 0.961 . S
H594 C608 0.960 . S
H595 C608 0.961 . S
H596 C608 0.959 . S
H597 C611 0.929 . S
H598 C612 0.931 . S
H599 C614 0.930 . S
C600 H588 0.930 . S
C600 C601 1.399 . S
C600 C605 1.399 . S
C601 C600 1.399 . S
C601 C602 1.376 . S
C602 H589 0.930 . S
C602 C601 1.376 . S
C602 C603 1.388 . S
C603 H590 0.930 . S
C603 C602 1.388 . S
C603 C604 1.390 . S
C604 C603 1.390 . S
C604 C605 1.394 . S
C604 C610 1.465 . S
C605 C600 1.399 . S
C605 C604 1.394 . S
C605 C606 1.516 . S
C606 C605 1.516 . S
C606 C607 1.502 . S
C606 C608 1.561 . S
C606 C609 1.526 . S
C607 H591 0.959 . S
C607 H592 0.959 . S
C607 H593 0.961 . S
C607 C606 1.502 . S
C608 H594 0.960 . S
C608 H595 0.961 . S
C608 H596 0.959 . S
C608 C606 1.561 . S
C609 C606 1.526 . S
C609 C610 1.396 . S
C609 C614 1.390 . S
C610 C604 1.465 . S
C610 C609 1.396 . S
C610 C611 1.399 . S
C611 H597 0.929 . S
C611 C610 1.399 . S
C611 C612 1.385 . S
C612 H598 0.931 . S
C612 C611 1.385 . S
C612 C613 1.389 . S
C613 C612 1.389 . S
C613 C614 1.387 . S
C614 H599 0.930 . S
C614 C609 1.390 . S
C614 C613 1.387 . S
H615 C627 0.930 . S
H616 C629 0.930 . S
H617 C630 0.930 . S
H618 C634 0.959 . S
H619 C634 0.959 1_655 S
H620 C634 0.961 . S
H621 C635 0.960 1_455 S
H622 C635 0.961 . S
H623 C635 0.959 . S
H624 C638 0.929 . S
H625 C639 0.931 . S
H626 C641 0.930 . S
C627 H615 0.930 . S
C627 C628 1.399 . S
C627 C632 1.399 . S
C628 C627 1.399 . S
C628 C629 1.376 . S
C629 H616 0.930 . S
C629 C628 1.376 . S
C629 C630 1.388 . S
C630 H617 0.930 . S
C630 C629 1.388 . S
C630 C631 1.390 . S
C631 C630 1.390 . S
C631 C632 1.394 . S
C631 C637 1.465 1_455 S
C632 C627 1.399 . S
C632 C631 1.394 . S
C632 C633 1.516 . S
C633 C632 1.516 . S
C633 C634 1.502 . S
C633 C635 1.561 1_455 S
C633 C636 1.526 1_455 S
C634 H618 0.959 . S
C634 H619 0.959 1_455 S
C634 H620 0.961 . S
C634 C633 1.502 . S
C635 H621 0.960 1_655 S
C635 H622 0.961 . S
C635 H623 0.959 . S
C635 C633 1.561 1_655 S
C636 C633 1.526 1_655 S
C636 C637 1.396 . S
C636 C641 1.390 . S
C637 C631 1.465 1_655 S
C637 C636 1.396 . S
C637 C638 1.399 . S
C638 H624 0.929 . S
C638 C637 1.399 . S
C638 C639 1.385 . S
C639 H625 0.931 . S
C639 C638 1.385 . S
C639 C640 1.389 . S
C640 C639 1.389 . S
C640 C641 1.387 . S
C641 H626 0.930 . S
C641 C636 1.390 . S
C641 C640 1.387 . S
H642 C654 0.930 . S
H643 C656 0.930 . S
H644 C657 0.930 . S
H645 C661 0.959 . S
H646 C661 0.959 . S
H647 C661 0.961 . S
H648 C662 0.960 . S
H649 C662 0.961 . S
H650 C662 0.959 . S
H651 C665 0.929 . S
H652 C666 0.931 . S
H653 C668 0.930 . S
C654 H642 0.930 . S
C654 C655 1.399 . S
C654 C659 1.399 . S
C655 C654 1.399 . S
C655 C656 1.376 . S
C656 H643 0.930 . S
C656 C655 1.376 . S
C656 C657 1.388 . S
C657 H644 0.930 . S
C657 C656 1.388 . S
C657 C658 1.390 . S
C658 C657 1.390 . S
C658 C659 1.394 . S
C658 C664 1.465 . S
C659 C654 1.399 . S
C659 C658 1.394 . S
C659 C660 1.516 . S
C660 C659 1.516 . S
C660 C661 1.502 . S
C660 C662 1.561 . S
C660 C663 1.526 . S
C661 H645 0.959 . S
C661 H646 0.959 . S
C661 H647 0.961 . S
C661 C660 1.502 . S
C662 H648 0.960 . S
C662 H649 0.961 . S
C662 H650 0.959 . S
C662 C660 1.561 . S
C663 C660 1.526 . S
C663 C664 1.396 . S
C663 C668 1.390 . S
C664 C658 1.465 . S
C664 C663 1.396 . S
C664 C665 1.399 . S
C665 H651 0.929 . S
C665 C664 1.399 . S
C665 C666 1.385 . S
C666 H652 0.931 . S
C666 C665 1.385 . S
C666 C667 1.389 . S
C667 C666 1.389 . S
C667 C668 1.387 . S
C668 H653 0.930 . S
C668 C663 1.390 . S
C668 C667 1.387 . S
H669 C681 0.930 . S
H670 C683 0.930 . S
H671 C684 0.930 . S
H672 C688 0.959 . S
H673 C688 0.959 . S
H674 C688 0.961 1_655 S
H675 C689 0.975 . S
H676 C689 0.943 1_455 S
H677 C689 0.971 . S
H678 C692 0.929 . S
H679 C693 0.931 . S
H680 C695 0.930 . S
C681 H669 0.930 . S
C681 C682 1.399 . S
C681 C686 1.399 . S
C682 C681 1.399 . S
C682 C683 1.376 . S
C683 H670 0.930 . S
C683 C682 1.376 . S
C683 C684 1.388 . S
C684 H671 0.930 . S
C684 C683 1.388 . S
C684 C685 1.390 . S
C685 C684 1.390 . S
C685 C686 1.394 . S
C685 C691 1.465 1_655 S
C686 C681 1.399 . S
C686 C685 1.394 . S
C686 C687 1.516 1_655 S
C687 C686 1.516 1_455 S
C687 C688 1.502 . S
C687 C689 1.553 1_455 S
C687 C690 1.526 . S
C688 H672 0.959 . S
C688 H673 0.959 . S
C688 H674 0.961 1_455 S
C688 C687 1.502 . S
C689 H675 0.975 . S
C689 H676 0.943 1_655 S
C689 H677 0.971 . S
C689 C687 1.553 1_655 S
C690 C687 1.526 . S
C690 C691 1.396 . S
C690 C695 1.390 . S
C691 C685 1.465 1_455 S
C691 C690 1.396 . S
C691 C692 1.399 . S
C692 H678 0.929 . S
C692 C691 1.399 . S
C692 C693 1.385 . S
C693 H679 0.931 . S
C693 C692 1.385 . S
C693 C694 1.389 . S
C694 C693 1.389 . S
C694 C695 1.387 . S
C695 H680 0.930 . S
C695 C690 1.390 . S
C695 C694 1.387 . S
H696 C708 0.930 . S
H697 C710 0.930 . S
H698 C711 0.930 . S
H699 C715 0.959 . S
H700 C715 0.959 1_565 S
H701 C715 0.961 . S
H702 C716 0.960 1_545 S
H703 C716 0.961 . S
H704 C716 0.959 . S
H705 C719 0.929 . S
H706 C720 0.931 . S
H707 C722 0.930 . S
C708 H696 0.930 . S
C708 C709 1.399 . S
C708 C713 1.399 . S
C709 C708 1.399 . S
C709 C710 1.376 . S
C710 H697 0.930 . S
C710 C709 1.376 . S
C710 C711 1.388 . S
C711 H698 0.930 . S
C711 C710 1.388 . S
C711 C712 1.390 . S
C712 C711 1.390 . S
C712 C713 1.394 . S
C712 C718 1.465 1_545 S
C713 C708 1.399 . S
C713 C712 1.394 . S
C713 C714 1.522 . S
C714 C713 1.522 . S
C714 C715 1.499 . S
C714 C716 1.564 1_545 S
C714 C717 1.521 1_545 S
C715 H699 0.959 . S
C715 H700 0.959 1_545 S
C715 H701 0.961 . S
C715 C714 1.499 . S
C716 H702 0.960 1_565 S
C716 H703 0.961 . S
C716 H704 0.959 . S
C716 C714 1.564 1_565 S
C717 C714 1.521 1_565 S
C717 C718 1.396 . S
C717 C722 1.390 . S
C718 C712 1.465 1_565 S
C718 C717 1.396 . S
C718 C719 1.399 . S
C719 H705 0.929 . S
C719 C718 1.399 . S
C719 C720 1.385 . S
C720 H706 0.931 . S
C720 C719 1.385 . S
C720 C721 1.389 . S
C721 C720 1.389 . S
C721 C722 1.387 . S
C722 H707 0.930 . S
C722 C717 1.390 . S
C722 C721 1.387 . S
H723 C735 0.930 . S
H724 C737 0.930 . S
H725 C738 0.930 . S
H726 C742 0.959 . S
H727 C742 0.959 . S
H728 C742 0.961 . S
H729 C743 0.960 . S
H730 C743 0.961 . S
H731 C743 0.959 . S
H732 C746 0.929 . S
H733 C747 0.931 . S
H734 C749 0.930 . S
C735 H723 0.930 . S
C735 C736 1.399 . S
C735 C740 1.399 . S
C736 C735 1.399 . S
C736 C737 1.376 . S
C737 H724 0.930 . S
C737 C736 1.376 . S
C737 C738 1.388 . S
C738 H725 0.930 . S
C738 C737 1.388 . S
C738 C739 1.390 . S
C739 C738 1.390 . S
C739 C740 1.394 . S
C739 C745 1.465 . S
C740 C735 1.399 . S
C740 C739 1.394 . S
C740 C741 1.516 . S
C741 C740 1.516 . S
C741 C742 1.502 . S
C741 C743 1.561 . S
C741 C744 1.526 . S
C742 H726 0.959 . S
C742 H727 0.959 . S
C742 H728 0.961 . S
C742 C741 1.502 . S
C743 H729 0.960 . S
C743 H730 0.961 . S
C743 H731 0.959 . S
C743 C741 1.561 . S
C744 C741 1.526 . S
C744 C745 1.396 . S
C744 C749 1.390 . S
C745 C739 1.465 . S
C745 C744 1.396 . S
C745 C746 1.399 . S
C746 H732 0.929 . S
C746 C745 1.399 . S
C746 C747 1.385 . S
C747 H733 0.931 . S
C747 C746 1.385 . S
C747 C748 1.389 . S
C748 C747 1.389 . S
C748 C749 1.387 . S
C749 H734 0.930 . S
C749 C744 1.390 . S
C749 C748 1.387 . S
H750 C762 0.930 . S
H751 C764 0.930 . S
H752 C765 0.930 . S
H753 C769 0.966 1_655 S
H754 C769 0.959 1_655 S
H755 C769 0.961 . S
H756 C770 0.960 . S
H757 C770 0.961 1_655 S
H758 C770 0.959 . S
H759 C773 0.929 . S
H760 C774 0.931 . S
H761 C776 0.930 . S
C762 H750 0.930 . S
C762 C763 1.399 . S
C762 C767 1.399 . S
C763 C762 1.399 . S
C763 C764 1.376 . S
C764 H751 0.930 . S
C764 C763 1.376 . S
C764 C765 1.388 . S
C765 H752 0.930 . S
C765 C764 1.388 . S
C765 C766 1.390 . S
C766 C765 1.390 . S
C766 C767 1.394 . S
C766 C772 1.465 1_455 S
C767 C762 1.399 . S
C767 C766 1.394 . S
C767 C768 1.516 . S
C768 C767 1.516 . S
C768 C769 1.502 . S
C768 C770 1.561 . S
C768 C771 1.526 1_455 S
C769 H753 0.966 1_455 S
C769 H754 0.959 1_455 S
C769 H755 0.961 . S
C769 C768 1.502 . S
C770 H756 0.960 . S
C770 H757 0.961 1_455 S
C770 H758 0.959 . S
C770 C768 1.561 . S
C771 C768 1.526 1_655 S
C771 C772 1.396 . S
C771 C776 1.390 . S
C772 C766 1.465 1_655 S
C772 C771 1.396 . S
C772 C773 1.399 . S
C773 H759 0.929 . S
C773 C772 1.399 . S
C773 C774 1.385 . S
C774 H760 0.931 . S
C774 C773 1.385 . S
C774 C775 1.389 . S
C775 C774 1.389 . S
C775 C776 1.387 . S
C776 H761 0.930 . S
C776 C771 1.390 . S
C776 C775 1.387 . S
H777 C789 0.930 . S
H778 C791 0.930 . S
H779 C792 0.930 . S
H780 C796 0.959 . S
H781 C796 0.959 . S
H782 C796 0.961 1_565 S
H783 C797 0.963 . S
H784 C797 0.958 1_545 S
H785 C797 0.967 1_545 S
H786 C800 0.929 . S
H787 C801 0.931 . S
H788 C803 0.930 . S
C789 H777 0.930 . S
C789 C790 1.399 . S
C789 C794 1.399 . S
C790 C789 1.399 . S
C790 C791 1.376 . S
C791 H778 0.930 . S
C791 C790 1.376 . S
C791 C792 1.388 . S
C792 H779 0.930 . S
C792 C791 1.388 . S
C792 C793 1.390 . S
C793 C792 1.390 . S
C793 C794 1.394 . S
C793 C799 1.465 1_565 S
C794 C789 1.399 . S
C794 C793 1.394 . S
C794 C795 1.516 1_565 S
C795 C794 1.516 1_545 S
C795 C796 1.502 . S
C795 C797 1.560 1_545 S
C795 C798 1.526 . S
C796 H780 0.959 . S
C796 H781 0.959 . S
C796 H782 0.961 1_545 S
C796 C795 1.502 . S
C797 H783 0.963 . S
C797 H784 0.958 1_565 S
C797 H785 0.967 1_565 S
C797 C795 1.560 1_565 S
C798 C795 1.526 . S
C798 C799 1.396 . S
C798 C803 1.390 . S
C799 C793 1.465 1_545 S
C799 C798 1.396 . S
C799 C800 1.399 . S
C800 H786 0.929 . S
C800 C799 1.399 . S
C800 C801 1.385 . S
C801 H787 0.931 . S
C801 C800 1.385 . S
C801 C802 1.389 . S
C802 C801 1.389 . S
C802 C803 1.387 . S
C803 H788 0.930 . S
C803 C798 1.390 . S
C803 C802 1.387 . S
C169 C131 1.529 . S
C181 C1 1.524 . S
C196 C14 1.558 . S
C208 C144 1.562 . S
C223 C27 1.544 . S
C235 C79 1.536 . S
C250 C40 1.522 . S
C262 C92 1.528 . S
C277 C105 1.542 . S
C289 C53 1.534 . S
C304 C66 1.536 . S
C316 C118 1.545 . S
C331 C107 1.585 . S
C343 C3 1.525 . S
C358 C16 1.567 . S
C370 C120 1.535 . S
C385 C29 1.585 . S
C397 C133 1.524 . S
C412 C42 1.578 . S
C424 C146 1.541 . S
C439 C81 1.536 . S
C451 C55 1.581 . S
C466 C94 1.542 . S
C478 C68 1.559 . S
C493 C49 1.748 . S
C505 C10 1.771 . S
C520 C23 1.749 . S
C532 C62 1.772 . S
C547 C75 1.750 . S
C559 C36 1.770 . S
C574 C127 1.749 . S
C586 C88 1.771 . S
C601 C140 1.776 . S
C613 C101 1.743 . S
C628 C114 1.749 . S
C640 C153 1.772 . S
C655 C44 1.848 . S
C667 C5 1.834 . S
C682 C18 1.849 . S
C694 C57 1.833 . S
C709 C70 1.830 . S
C721 C31 1.844 . S
C736 C83 1.834 . S
C748 C122 1.848 . S
C763 C135 1.830 . S
C775 C96 1.850 . S
C790 C109 1.850 . S
C802 C148 1.832 . S
