# Generated by pormake.
# Topology rhr, (4)-cn, num edge types: 1
# Building blocks:
#     Node 0, Type 0, BuildingBlock: ESEHIV_clean_sbu_0, # of connection points: 4
#     Node 1, Type 0, BuildingBlock: ESEHIV_clean_sbu_0, # of connection points: 4
#     Node 2, Type 0, BuildingBlock: ESEHIV_clean_sbu_0, # of connection points: 4
#     Node 3, Type 0, BuildingBlock: ESEHIV_clean_sbu_0, # of connection points: 4
#     Node 4, Type 0, BuildingBlock: ESEHIV_clean_sbu_0, # of connection points: 4
#     Node 5, Type 0, BuildingBlock: ESEHIV_clean_sbu_0, # of connection points: 4
#     Node 6, Type 0, BuildingBlock: ESEHIV_clean_sbu_0, # of connection points: 4
#     Node 7, Type 0, BuildingBlock: ESEHIV_clean_sbu_0, # of connection points: 4
#     Node 8, Type 0, BuildingBlock: ESEHIV_clean_sbu_0, # of connection points: 4
#     Node 9, Type 0, BuildingBlock: ESEHIV_clean_sbu_0, # of connection points: 4
#     Node 10, Type 0, BuildingBlock: ESEHIV_clean_sbu_0, # of connection points: 4
#     Node 11, Type 0, BuildingBlock: ESEHIV_clean_sbu_0, # of connection points: 4
#     Node 12, Type 0, BuildingBlock: ESEHIV_clean_sbu_0, # of connection points: 4
#     Node 13, Type 0, BuildingBlock: ESEHIV_clean_sbu_0, # of connection points: 4
#     Node 14, Type 0, BuildingBlock: ESEHIV_clean_sbu_0, # of connection points: 4
#     Node 15, Type 0, BuildingBlock: ESEHIV_clean_sbu_0, # of connection points: 4
#     Node 16, Type 0, BuildingBlock: ESEHIV_clean_sbu_0, # of connection points: 4
#     Node 17, Type 0, BuildingBlock: ESEHIV_clean_sbu_0, # of connection points: 4
#     Node 18, Type 0, BuildingBlock: ESEHIV_clean_sbu_0, # of connection points: 4
#     Node 19, Type 0, BuildingBlock: ESEHIV_clean_sbu_0, # of connection points: 4
#     Node 20, Type 0, BuildingBlock: ESEHIV_clean_sbu_0, # of connection points: 4
#     Node 21, Type 0, BuildingBlock: ESEHIV_clean_sbu_0, # of connection points: 4
#     Node 22, Type 0, BuildingBlock: ESEHIV_clean_sbu_0, # of connection points: 4
#     Node 23, Type 0, BuildingBlock: ESEHIV_clean_sbu_0, # of connection points: 4
#     Edge 24, Type (0, 0), BuildingBlock: UVAHIK_clean_linker_0, # of connection points: 2
#     Edge 25, Type (0, 0), BuildingBlock: UVAHIK_clean_linker_0, # of connection points: 2
#     Edge 26, Type (0, 0), BuildingBlock: UVAHIK_clean_linker_0, # of connection points: 2
#     Edge 27, Type (0, 0), BuildingBlock: UVAHIK_clean_linker_0, # of connection points: 2
#     Edge 28, Type (0, 0), BuildingBlock: UVAHIK_clean_linker_0, # of connection points: 2
#     Edge 29, Type (0, 0), BuildingBlock: UVAHIK_clean_linker_0, # of connection points: 2
#     Edge 30, Type (0, 0), BuildingBlock: UVAHIK_clean_linker_0, # of connection points: 2
#     Edge 31, Type (0, 0), BuildingBlock: UVAHIK_clean_linker_0, # of connection points: 2
#     Edge 32, Type (0, 0), BuildingBlock: UVAHIK_clean_linker_0, # of connection points: 2
#     Edge 33, Type (0, 0), BuildingBlock: UVAHIK_clean_linker_0, # of connection points: 2
#     Edge 34, Type (0, 0), BuildingBlock: UVAHIK_clean_linker_0, # of connection points: 2
#     Edge 35, Type (0, 0), BuildingBlock: UVAHIK_clean_linker_0, # of connection points: 2
#     Edge 36, Type (0, 0), BuildingBlock: UVAHIK_clean_linker_0, # of connection points: 2
#     Edge 37, Type (0, 0), BuildingBlock: UVAHIK_clean_linker_0, # of connection points: 2
#     Edge 38, Type (0, 0), BuildingBlock: UVAHIK_clean_linker_0, # of connection points: 2
#     Edge 39, Type (0, 0), BuildingBlock: UVAHIK_clean_linker_0, # of connection points: 2
#     Edge 40, Type (0, 0), BuildingBlock: UVAHIK_clean_linker_0, # of connection points: 2
#     Edge 41, Type (0, 0), BuildingBlock: UVAHIK_clean_linker_0, # of connection points: 2
#     Edge 42, Type (0, 0), BuildingBlock: UVAHIK_clean_linker_0, # of connection points: 2
#     Edge 43, Type (0, 0), BuildingBlock: UVAHIK_clean_linker_0, # of connection points: 2
#     Edge 44, Type (0, 0), BuildingBlock: UVAHIK_clean_linker_0, # of connection points: 2
#     Edge 45, Type (0, 0), BuildingBlock: UVAHIK_clean_linker_0, # of connection points: 2
#     Edge 46, Type (0, 0), BuildingBlock: UVAHIK_clean_linker_0, # of connection points: 2
#     Edge 47, Type (0, 0), BuildingBlock: UVAHIK_clean_linker_0, # of connection points: 2
#     Edge 48, Type (0, 0), BuildingBlock: UVAHIK_clean_linker_0, # of connection points: 2
#     Edge 49, Type (0, 0), BuildingBlock: UVAHIK_clean_linker_0, # of connection points: 2
#     Edge 50, Type (0, 0), BuildingBlock: UVAHIK_clean_linker_0, # of connection points: 2
#     Edge 51, Type (0, 0), BuildingBlock: UVAHIK_clean_linker_0, # of connection points: 2
#     Edge 52, Type (0, 0), BuildingBlock: UVAHIK_clean_linker_0, # of connection points: 2
#     Edge 53, Type (0, 0), BuildingBlock: UVAHIK_clean_linker_0, # of connection points: 2
#     Edge 54, Type (0, 0), BuildingBlock: UVAHIK_clean_linker_0, # of connection points: 2
#     Edge 55, Type (0, 0), BuildingBlock: UVAHIK_clean_linker_0, # of connection points: 2
#     Edge 56, Type (0, 0), BuildingBlock: UVAHIK_clean_linker_0, # of connection points: 2
#     Edge 57, Type (0, 0), BuildingBlock: UVAHIK_clean_linker_0, # of connection points: 2
#     Edge 58, Type (0, 0), BuildingBlock: UVAHIK_clean_linker_0, # of connection points: 2
#     Edge 59, Type (0, 0), BuildingBlock: UVAHIK_clean_linker_0, # of connection points: 2
#     Edge 60, Type (0, 0), BuildingBlock: UVAHIK_clean_linker_0, # of connection points: 2
#     Edge 61, Type (0, 0), BuildingBlock: UVAHIK_clean_linker_0, # of connection points: 2
#     Edge 62, Type (0, 0), BuildingBlock: UVAHIK_clean_linker_0, # of connection points: 2
#     Edge 63, Type (0, 0), BuildingBlock: UVAHIK_clean_linker_0, # of connection points: 2
#     Edge 64, Type (0, 0), BuildingBlock: UVAHIK_clean_linker_0, # of connection points: 2
#     Edge 65, Type (0, 0), BuildingBlock: UVAHIK_clean_linker_0, # of connection points: 2
#     Edge 66, Type (0, 0), BuildingBlock: UVAHIK_clean_linker_0, # of connection points: 2
#     Edge 67, Type (0, 0), BuildingBlock: UVAHIK_clean_linker_0, # of connection points: 2
#     Edge 68, Type (0, 0), BuildingBlock: UVAHIK_clean_linker_0, # of connection points: 2
#     Edge 69, Type (0, 0), BuildingBlock: UVAHIK_clean_linker_0, # of connection points: 2
#     Edge 70, Type (0, 0), BuildingBlock: UVAHIK_clean_linker_0, # of connection points: 2
#     Edge 71, Type (0, 0), BuildingBlock: UVAHIK_clean_linker_0, # of connection points: 2
# Relax obj value: 0.006
# Max RMSD: 0.128
# Mean RMSD: 0.095
data_MOF--net-rhr--node1-ESEHIV_clean_sbu_0--edge1-UVAHIK_clean_linker_0
_symmetry_space_group_name_H-M    P1
_symmetry_Int_Tables_number       1
_symmetry_cell_setting            triclinic
loop_
_symmetry_equiv_pos_as_xyz
'x, y, z'
_cell_length_a     69.728942
_cell_length_b     69.899768
_cell_length_c     69.728102
_cell_angle_alpha  90.461673
_cell_angle_beta   92.360645
_cell_angle_gamma 92.148056
loop_
_atom_site_label
_atom_site_type_symbol
_atom_site_fract_x
_atom_site_fract_y
_atom_site_fract_z
_atom_type_partial_charge
Cu0 Cu 0.36697 0.04187 0.36341 0.0
N1 N 0.39022 0.02966 0.36529 0.0
N2 N 0.41562 1.01498 0.35464 0.0
C3 C 0.4001 0.02511 0.34989 0.0
C4 C 0.41552 1.01304 0.37388 0.0
C5 C 0.39981 0.02223 0.38046 0.0
O6 O 0.36938 0.06009 0.34243 0.0
C7 C 0.3443 1.01208 0.3756 0.0
O8 O 0.35616 1.01526 0.39049 0.0
H9 H 0.39542 0.02843 0.33534 0.0
H10 H 0.39543 0.02295 0.39513 0.0
N11 N 0.36187 0.05524 0.38575 0.0
N12 N 0.34356 0.06598 0.40873 0.0
C13 C 0.34394 0.05869 0.39081 0.0
C14 C 0.37341 0.06066 0.40091 0.0
C15 C 0.36211 0.06732 0.41517 0.0
C16 C 0.38265 0.073 0.34534 0.0
O17 O 0.39228 0.07331 0.36195 0.0
H18 H 0.33134 0.05471 0.38188 0.0
H19 H 0.3888 0.05916 0.40184 0.0
O20 O 0.34639 0.0221 0.36055 0.0
H21 H 0.42582 1.00528 0.38251 0.0
H22 H 0.36714 0.07233 0.42928 0.0
Cu23 Cu 0.048 0.34691 0.34656 0.0
N24 N 0.06468 0.32619 0.34768 0.0
N25 N 0.08519 0.30554 0.361 0.0
C26 C 0.07437 0.32091 0.36383 0.0
C27 C 0.08216 0.30101 0.3422 0.0
C28 C 0.06948 0.3137 0.33405 0.0
O29 O 0.0303 0.34187 0.36715 0.0
C30 C 0.0786 0.37076 0.33877 0.0
O31 O 0.08137 0.35599 0.32762 0.0
H32 H 0.07352 0.32839 0.37739 0.0
H33 H 0.06413 0.31378 0.31928 0.0
N34 N 0.03346 0.34922 0.32328 0.0
N35 N 1.01508 0.36286 0.3003 0.0
C36 C 0.02687 0.36577 0.31607 0.0
C37 C 0.02567 0.33537 0.31157 0.0
C38 C 1.01434 0.34371 0.29746 0.0
C39 C 0.0225 0.32504 0.36653 0.0
O40 O 0.02603 0.31379 0.35202 0.0
H41 H 0.03007 0.37963 0.32274 0.0
H42 H 0.02766 0.32022 0.31342 0.0
O43 O 0.06408 0.37035 0.34931 0.0
H44 H 0.08833 0.28915 0.33489 0.0
H45 H 1.0061 0.3362 0.28605 0.0
Cu46 Cu 0.67333 0.02193 0.37562 0.0
N47 N 0.65195 0.03687 0.37241 0.0
N48 N 0.6283 0.05207 0.35719 0.0
C49 C 0.64191 0.039 0.35574 0.0
C50 C 0.62988 0.05846 0.37554 0.0
C51 C 0.64452 0.04903 0.38492 0.0
O52 O 0.67339 1.00523 0.35303 0.0
C53 C 0.70072 0.0443 0.39697 0.0
O54 O 0.69072 0.03734 0.41103 0.0
H55 H 0.64517 0.03175 0.34256 0.0
H56 H 0.64976 0.05127 0.39961 0.0
N57 N 0.67101 1.00579 0.39668 0.0
N58 N 0.67699 0.98132 0.41614 0.0
C59 C 0.68236 0.99107 0.40049 0.0
C60 C 0.65789 1.00542 0.41029 0.0
C61 C 0.66156 0.99032 0.42237 0.0
C62 C 0.65978 0.9925 0.35227 0.0
O63 O 0.64756 0.99198 0.36612 0.0
H64 H 0.69402 0.98736 0.39157 0.0
H65 H 0.6464 1.0153 0.41128 0.0
O66 O 0.69597 0.03922 0.37975 0.0
H67 H 0.62131 0.06937 0.38167 0.0
H68 H 0.65355 0.9864 0.43479 0.0
Cu69 Cu 1.01148 0.69631 0.35492 0.0
N70 N 0.02787 0.67554 0.35217 0.0
N71 N 0.04761 0.65478 0.33892 0.0
C72 C 0.03715 0.67059 0.33627 0.0
C73 C 0.0448 0.64967 0.35727 0.0
C74 C 0.03266 0.6624 0.36534 0.0
O75 O 0.99058 0.69226 0.33566 0.0
C76 C 0.02199 0.73685 0.35614 0.0
O77 O 1.00354 0.74006 0.35501 0.0
H78 H 0.0365 0.67861 0.3231 0.0
H79 H 0.02761 0.66204 0.3798 0.0
N80 N 0.99906 0.69608 0.37859 0.0
N81 N 0.98113 0.70679 0.40229 0.0
C82 C 0.99479 0.71127 0.38964 0.0
C83 C 0.98791 0.68146 0.38479 0.0
C84 C 0.9769 0.68797 0.39932 0.0
C85 C 0.99145 0.69109 0.31749 0.0
O86 O 1.00739 0.6964 0.30931 0.0
H87 H 1.00044 0.72566 0.38759 0.0
H88 H 0.98678 0.66738 0.37819 0.0
O89 O 0.02753 0.7198 0.35417 0.0
H90 H 0.05079 0.63739 0.36434 0.0
H91 H 0.96592 0.67971 0.40648 0.0
Cu92 Cu 0.35437 0.02164 0.69811 0.0
N93 N 0.35412 0.03575 0.72114 0.0
N94 N 0.36535 0.05267 0.74699 0.0
C95 C 0.36928 0.03965 0.7334 0.0
C96 C 0.34687 0.057 0.7432 0.0
C97 C 0.34003 0.04662 0.72726 0.0
O98 O 0.37472 1.00316 0.70186 0.0
C99 C 0.35616 0.03834 0.65976 0.0
O100 O 0.35856 0.02109 0.6529 0.0
H101 H 0.38329 0.03395 0.73174 0.0
H102 H 0.32606 0.04762 0.72009 0.0
N103 N 0.33083 1.00791 0.6935 0.0
N104 N 0.30671 0.99125 0.67791 0.0
C105 C 0.32485 0.99871 0.67711 0.0
C106 C 0.31601 1.00602 0.7052 0.0
C107 C 0.30114 0.99583 0.69564 0.0
C108 C 0.39261 1.00743 0.70423 0.0
O109 O 0.39886 0.02488 0.70034 0.0
H110 H 0.33351 0.99778 0.66468 0.0
H111 H 0.31593 1.01176 0.71963 0.0
O112 O 0.35623 0.04096 0.67789 0.0
H113 H 0.33896 0.06735 0.75099 0.0
H114 H 0.28735 0.992 0.70139 0.0
Cu115 Cu 0.03551 0.34172 0.71541 0.0
N116 N 0.04705 0.31813 0.71524 0.0
N117 N 0.06113 0.29192 0.7052 0.0
C118 C 0.05181 0.30776 0.69993 0.0
C119 C 0.06219 0.29235 0.72457 0.0
C120 C 0.05349 0.30853 0.73071 0.0
O121 O 1.01617 0.34244 0.69465 0.0
C122 C 0.05271 0.37926 0.71219 0.0
O123 O 0.03528 0.38453 0.70739 0.0
H124 H 0.04917 0.31211 0.68523 0.0
H125 H 0.0523 0.31321 0.74542 0.0
N126 N 0.02301 0.34404 0.73831 0.0
N127 N 1.01162 0.3565 0.76492 0.0
C128 C 0.02205 0.35984 0.74932 0.0
C129 C 1.01285 0.33024 0.74717 0.0
C130 C 1.00583 0.33787 0.76363 0.0
C131 C 0.01943 0.3435 0.67688 0.0
O132 O 0.03722 0.34564 0.67152 0.0
H133 H 0.02894 0.37347 0.74601 0.0
H134 H 1.01059 0.3157 0.74191 0.0
O135 O 0.05561 0.36164 0.71498 0.0
H136 H 0.06896 0.28186 0.73366 0.0
H137 H 0.9968 0.33039 0.77361 0.0
Cu138 Cu 0.7202 0.03248 0.68872 0.0
N139 N 0.72102 1.01459 0.70853 0.0
N140 N 0.70933 0.99107 0.7268 0.0
C141 C 0.70552 1.00735 0.71731 0.0
C142 C 0.72798 0.98797 0.72393 0.0
C143 C 0.7351 1.00241 0.71257 0.0
O144 O 0.69808 0.04877 0.69361 0.0
C145 C 0.72824 0.01888 0.65002 0.0
O146 O 0.73317 0.03659 0.64582 0.0
H147 H 0.69129 1.01286 0.7152 0.0
H148 H 0.74902 1.00295 0.70627 0.0
N149 N 0.74277 0.04812 0.68885 0.0
N150 N 0.76508 0.06839 0.6772 0.0
C151 C 0.74637 0.0624 0.67647 0.0
C152 C 0.75962 0.0455 0.69838 0.0
C153 C 0.77337 0.05792 0.69124 0.0
C154 C 0.69851 0.05642 0.71042 0.0
O155 O 0.71344 0.05336 0.72196 0.0
H156 H 0.73556 0.06756 0.66642 0.0
H157 H 0.76208 0.03464 0.70903 0.0
O158 O 0.72016 1.01544 0.66583 0.0
H159 H 0.73559 0.97555 0.72871 0.0
H160 H 0.78853 0.0582 0.69525 0.0
Cu161 Cu 1.00588 0.6857 0.68334 0.0
N162 N 1.01837 0.70949 0.6796 0.0
N163 N 0.03843 0.73109 0.66663 0.0
C164 C 0.03143 0.7128 0.66618 0.0
C165 C 0.02935 0.73963 0.68096 0.0
C166 C 1.01704 0.72626 0.68897 0.0
O167 O 0.99215 0.67942 0.65926 0.0
C168 C 0.03503 0.67379 0.70627 0.0
O169 O 0.0311 0.69035 0.71395 0.0
H170 H 0.03554 0.70194 0.65616 0.0
H171 H 1.00797 0.72858 0.70091 0.0
N172 N 0.98821 0.68589 0.70289 0.0
N173 N 0.96929 0.67407 0.72549 0.0
C174 C 0.98373 0.67064 0.71376 0.0
C175 C 0.9762 0.69953 0.70792 0.0
C176 C 0.9646 0.69232 0.72198 0.0
C177 C 0.97665 0.66923 0.65802 0.0
O178 O 0.9714 0.65928 0.67295 0.0
H179 H 0.99067 0.6571 0.71272 0.0
H180 H 0.97544 0.71346 0.70136 0.0
O181 O 0.02534 0.66805 0.69131 0.0
H182 H 0.03167 0.75438 0.68558 0.0
H183 H 0.95308 0.69966 0.72849 0.0
Cu184 Cu 0.35282 0.36401 0.02789 0.0
N185 N 0.33368 0.36417 0.0464 0.0
N186 N 0.31237 0.37635 0.06622 0.0
C187 C 0.32448 0.37992 0.05184 0.0
C188 C 0.31405 0.35749 0.06986 0.0
C189 C 0.32715 0.35006 0.05769 0.0
O190 O 0.34542 0.3831 1.0094 0.0
C191 C 0.38119 0.3695 0.05811 0.0
O192 O 0.367 0.3739 0.06894 0.0
H193 H 0.32718 0.39388 0.04571 0.0
H194 H 0.33187 0.33551 0.05741 0.0
N195 N 0.35515 0.34081 1.01428 0.0
N196 N 0.36846 0.31973 0.99469 0.0
C197 C 0.36896 0.3379 1.00163 0.0
C198 C 0.34547 0.32387 1.0154 0.0
C199 C 0.35363 0.31087 1.00337 0.0
C200 C 0.32933 0.37876 1.00087 0.0
O201 O 0.32087 0.36217 1.00464 0.0
H202 H 0.37957 0.34886 0.99805 0.0
H203 H 0.33347 0.32107 0.02445 0.0
O204 O 0.37817 0.36825 0.04001 0.0
H205 H 0.30644 0.34952 0.0806 0.0
H206 H 0.34893 0.29606 1.00119 0.0
Cu207 Cu 0.70383 0.34546 0.03698 0.0
N208 N 0.72405 0.34308 0.02032 0.0
N209 N 0.74479 0.35206 0.99805 0.0
C210 C 0.73125 0.35768 1.01 0.0
C211 C 0.74615 0.33307 1.00109 0.0
C212 C 0.7333 0.32756 1.01476 0.0
O213 O 0.70844 0.37054 0.04973 0.0
C214 C 0.67717 0.32256 0.01684 0.0
O215 O 0.68951 0.31019 0.02335 0.0
H216 H 0.72648 0.37216 1.01127 0.0
H217 H 0.73057 0.31321 0.01992 0.0
N218 N 0.70361 0.32736 0.05673 0.0
N219 N 0.69176 0.30952 0.08035 0.0
C220 C 0.68849 0.32373 0.06775 0.0
C221 C 0.71703 0.3151 0.06258 0.0
C222 C 0.70975 0.30405 0.07713 0.0
C223 C 0.7248 0.37144 0.05875 0.0
O224 O 0.73532 0.35625 0.05837 0.0
H225 H 0.67512 0.33102 0.06606 0.0
H226 H 0.73103 0.31415 0.05661 0.0
O227 O 0.6802 0.3403 0.02108 0.0
H228 H 0.75535 0.32366 0.9936 0.0
H229 H 0.71716 0.29289 0.08472 0.0
Cu230 Cu 0.67913 0.68788 1.00042 0.0
N231 N 0.66164 0.68967 0.01988 0.0
N232 N 0.64218 0.70408 0.03957 0.0
C233 C 0.65485 0.7064 0.02566 0.0
C234 C 0.6411 0.68512 0.043 0.0
C235 C 0.65309 0.67621 0.03072 0.0
O236 O 0.67598 0.71133 0.98522 0.0
C237 C 0.70518 0.66578 0.01998 0.0
O238 O 0.68953 0.65474 0.01872 0.0
H239 H 0.65922 0.72011 0.01982 0.0
H240 H 0.65522 0.66101 0.0297 0.0
N241 N 0.67292 0.66717 0.98405 0.0
N242 N 0.67996 0.64284 0.9651 0.0
C243 C 0.68535 0.66045 0.97168 0.0
C244 C 0.65889 0.65347 0.98509 0.0
C245 C 0.66337 0.63827 0.97353 0.0
C246 C 0.65869 0.71311 0.97876 0.0
O247 O 0.64603 0.69917 0.98177 0.0
H248 H 0.69917 0.66741 0.96929 0.0
H249 H 0.64722 0.65377 0.9948 0.0
O250 O 0.70449 0.68253 1.01272 0.0
H251 H 0.63205 0.67822 0.05334 0.0
H252 H 0.65585 0.62444 0.97251 0.0
Cu253 Cu 0.37897 0.68018 0.02089 0.0
N254 N 0.3765 0.65674 1.00781 0.0
N255 N 0.36566 0.63529 0.98549 0.0
C256 C 0.36803 0.65405 0.99025 0.0
C257 C 0.37328 0.62588 1.0007 0.0
C258 C 0.3799 0.63914 1.01444 0.0
O259 O 0.35813 0.68136 0.03869 0.0
C260 C 0.38786 0.71641 1.00382 0.0
O261 O 0.39305 0.72209 0.02134 0.0
H262 H 0.36306 0.66574 0.98154 0.0
H263 H 0.38591 0.63615 0.0286 0.0
N264 N 0.40198 0.6821 0.03558 0.0
N265 N 0.42367 0.69336 0.05779 0.0
C266 C 0.40493 0.69226 0.05201 0.0
C267 C 0.41938 0.67638 0.03086 0.0
C268 C 0.43282 0.68334 0.04453 0.0
C269 C 0.34168 0.67317 0.03532 0.0
O270 O 0.33737 0.66622 0.01805 0.0
H271 H 0.39372 0.69976 0.05885 0.0
H272 H 0.4222 0.66847 0.01794 0.0
O273 O 0.37995 0.69982 1.0012 0.0
H274 H 0.37321 0.61049 1.0023 0.0
H275 H 0.44818 0.68162 0.0444 0.0
Cu276 Cu 0.87759 0.51421 0.88468 0.0
N277 N 0.90083 0.50377 0.89241 0.0
N278 N 0.92745 0.48738 0.88935 0.0
C279 C 0.91401 0.4979 0.88034 0.0
C280 C 0.92261 0.48686 0.9079 0.0
C281 C 0.90614 0.49692 0.90972 0.0
O282 O 0.88156 0.52874 0.86121 0.0
C283 C 0.86085 0.47606 0.88322 0.0
O284 O 0.87842 0.47058 0.88091 0.0
H285 H 0.91268 0.49978 0.86496 0.0
H286 H 0.89785 0.49788 0.92244 0.0
N287 N 0.86921 0.53091 0.90324 0.0
N288 N 0.84868 0.54912 0.91796 0.0
C289 C 0.8523 0.53948 0.9018 0.0
C290 C 0.87669 0.53543 0.92088 0.0
C291 C 0.86392 0.54661 0.93009 0.0
C292 C 0.8906 0.54488 0.86338 0.0
O293 O 0.89634 0.55046 0.88079 0.0
H294 H 0.84243 0.53791 0.88944 0.0
H295 H 0.89021 0.53064 0.92683 0.0
O296 O 0.85753 0.49387 0.88291 0.0
H297 H 0.92979 0.47889 0.91914 0.0
H298 H 0.86558 0.55225 0.94459 0.0
Cu299 Cu 0.52365 0.85357 0.83745 0.0
N300 N 0.50672 0.83222 0.83813 0.0
N301 N 0.48615 0.81122 0.85125 0.0
C302 C 0.5016 0.82327 0.85431 0.0
C303 C 0.48144 0.81259 0.83235 0.0
C304 C 0.4941 0.82558 0.82431 0.0
O305 O 0.54106 0.85149 0.86032 0.0
C306 C 0.51272 0.89234 0.82912 0.0
O307 O 0.53117 0.89685 0.82982 0.0
H308 H 0.50816 0.82668 0.86833 0.0
H309 H 0.49335 0.83076 0.80974 0.0
N310 N 0.53891 0.85376 0.81592 0.0
N311 N 0.56188 0.86422 0.79671 0.0
C312 C 0.55431 0.86569 0.8141 0.0
C313 C 0.53684 0.84404 0.79916 0.0
C314 C 0.55109 0.85046 0.78726 0.0
C315 C 0.55386 0.83896 0.85877 0.0
O316 O 0.55457 0.82944 0.84252 0.0
H317 H 0.55975 0.87548 0.82531 0.0
H318 H 0.52553 0.83345 0.79562 0.0
O319 O 0.50708 0.87569 0.8344 0.0
H320 H 0.46924 0.80531 0.825 0.0
H321 H 0.55285 0.84596 0.77257 0.0
Cu322 Cu 0.19697 0.53184 0.84727 0.0
N323 N 0.17945 0.55124 0.84598 0.0
N324 N 0.15782 0.57066 0.83328 0.0
C325 C 0.16962 0.55628 0.82996 0.0
C326 C 0.16038 0.57488 0.85217 0.0
C327 C 0.1737 0.56275 0.86002 0.0
O328 O 0.189 0.51321 0.82721 0.0
C329 C 0.22771 0.55989 0.84701 0.0
O330 O 0.21412 0.5722 0.84422 0.0
H331 H 0.17133 0.54967 0.81607 0.0
H332 H 0.17887 0.56236 0.87484 0.0
N333 N 0.19631 0.52001 0.87102 0.0
N334 N 0.2074 0.5044 0.89663 0.0
C335 C 0.21167 0.5123 0.87972 0.0
C336 C 0.18177 0.51711 0.88292 0.0
C337 C 0.18856 0.50724 0.89872 0.0
C338 C 0.172 0.50612 0.82857 0.0
O339 O 0.16207 0.51137 0.84319 0.0
H340 H 0.22563 0.51205 0.8735 0.0
H341 H 0.16728 0.52172 0.88027 0.0
O342 O 0.22334 0.54203 0.84621 0.0
H343 H 0.15302 0.58579 0.85978 0.0
H344 H 0.18036 0.50253 0.91078 0.0
Cu345 Cu 0.53735 0.19877 0.84849 0.0
N346 N 0.52007 0.21906 0.84925 0.0
N347 N 0.49846 0.23815 0.86198 0.0
C348 C 0.50968 0.22292 0.86469 0.0
C349 C 0.50196 0.24409 0.84401 0.0
C350 C 0.51519 0.23231 0.8362 0.0
O351 O 0.55527 0.20475 0.8703 0.0
C352 C 0.50751 0.1748 0.83705 0.0
O353 O 0.50637 0.18894 0.82482 0.0
H354 H 0.51058 0.21477 0.8778 0.0
H355 H 0.52061 0.23329 0.82195 0.0
N356 N 0.55145 0.1962 0.82586 0.0
N357 N 0.56934 0.18266 0.8035 0.0
C358 C 0.5605 0.18032 0.82037 0.0
C359 C 0.55483 0.20905 0.81201 0.0
C360 C 0.56571 0.20078 0.79828 0.0
C361 C 0.56422 0.22093 0.86877 0.0
O362 O 0.56187 0.23028 0.85262 0.0
H363 H 0.56043 0.16723 0.82855 0.0
H364 H 0.55002 0.22355 0.81196 0.0
O365 O 0.52112 0.1754 0.84989 0.0
H366 H 0.49521 0.2559 0.83683 0.0
H367 H 0.5709 0.20779 0.78561 0.0
Cu368 Cu 0.86987 0.53575 0.17007 0.0
N369 N 0.86912 0.55119 0.14791 0.0
N370 N 0.85657 0.57085 0.1256 0.0
C371 C 0.85323 0.55587 0.13741 0.0
C372 C 0.8754 0.5756 0.1287 0.0
C373 C 0.88298 0.56368 0.14249 0.0
O374 O 0.84849 0.51685 0.16742 0.0
C375 C 0.87518 0.55162 0.20854 0.0
O376 O 0.87763 0.5341 0.21456 0.0
H377 H 0.83918 0.54938 0.13942 0.0
H378 H 0.89723 0.5651 0.14915 0.0
N379 N 0.89277 0.52205 0.17309 0.0
N380 N 0.9148 0.50246 0.18571 0.0
C381 C 0.89627 0.50769 0.18558 0.0
C382 C 0.90962 0.52569 0.16484 0.0
C383 C 0.92316 0.51375 0.17259 0.0
C384 C 0.83057 0.51992 0.16664 0.0
O385 O 0.82476 0.53711 0.17062 0.0
H386 H 0.88562 0.50173 0.19494 0.0
H387 H 0.91211 0.5365 0.15419 0.0
O388 O 0.86984 0.55435 0.19112 0.0
H389 H 0.88307 0.58743 0.12216 0.0
H390 H 0.93808 0.51352 0.16892 0.0
Cu391 Cu 0.53137 0.87347 0.18207 0.0
N392 N 0.54224 0.87298 0.15821 0.0
N393 N 0.55801 0.85972 0.13463 0.0
C394 C 0.55077 0.85734 0.15208 0.0
C395 C 0.55369 0.87768 0.12942 0.0
C396 C 0.54396 0.8859 0.14411 0.0
O397 O 0.51648 0.84934 0.18301 0.0
C398 C 0.56416 0.89034 0.19882 0.0
O399 O 0.56212 0.90051 0.18316 0.0
H400 H 0.55135 0.84431 0.16033 0.0
H401 H 0.53877 0.90027 0.14454 0.0
N402 N 0.51556 0.894 0.18546 0.0
N403 N 0.49968 0.91557 0.20172 0.0
C404 C 0.51126 0.90056 0.20285 0.0
C405 C 0.50646 0.90524 0.17273 0.0
C406 C 0.49664 0.91862 0.18275 0.0
C407 C 0.50198 0.84794 0.17126 0.0
O408 O 0.49729 0.8631 0.16137 0.0
H409 H 0.51685 0.89452 0.21609 0.0
H410 H 0.50678 0.90374 0.1573 0.0
O411 O 0.55211 0.87656 0.20156 0.0
H412 H 0.55753 0.88448 0.11616 0.0
H413 H 0.48773 0.92951 0.17654 0.0
Cu414 Cu 0.20422 0.53871 0.20426 0.0
N415 N 0.20857 0.52569 0.22737 0.0
N416 N 0.20214 0.50784 0.2531 0.0
C417 C 0.19519 0.52 0.23976 0.0
C418 C 0.22076 0.506 0.24898 0.0
C419 C 0.22459 0.51683 0.23307 0.0
O420 O 0.18146 0.55414 0.20802 0.0
C421 C 0.20917 0.52014 0.16703 0.0
O422 O 0.21076 0.5374 0.15988 0.0
H423 H 0.18031 0.5236 0.23822 0.0
H424 H 0.23782 0.51724 0.22549 0.0
N425 N 0.22489 0.55617 0.20017 0.0
N426 N 0.24378 0.57818 0.18609 0.0
C427 C 0.22655 0.56856 0.18551 0.0
C428 C 0.24145 0.55848 0.21069 0.0
C429 C 0.2531 0.57193 0.20205 0.0
C430 C 0.1643 0.54827 0.21106 0.0
O431 O 0.15943 0.53011 0.2081 0.0
H432 H 0.21534 0.57047 0.17459 0.0
H433 H 0.24501 0.55078 0.22364 0.0
O434 O 0.20421 0.5182 0.18438 0.0
H435 H 0.23075 0.49682 0.25634 0.0
H436 H 0.2676 0.57623 0.20684 0.0
Cu437 Cu 0.51026 0.18988 0.18202 0.0
N438 N 0.49738 0.19619 0.15911 0.0
N439 N 0.48275 0.21562 0.13835 0.0
C440 C 0.49125 0.21392 0.15593 0.0
C441 C 0.48362 0.19817 0.13003 0.0
C442 C 0.49264 0.18616 0.14293 0.0
O443 O 0.53215 0.2082 0.18456 0.0
C444 C 0.47704 0.17929 0.19932 0.0
O445 O 0.47438 0.17133 0.18223 0.0
H446 H 0.49337 0.22546 0.16633 0.0
H447 H 0.49542 0.17124 0.14064 0.0
N448 N 0.51982 0.16531 0.18308 0.0
N449 N 0.5338 0.14097 0.19799 0.0
C450 C 0.5265 0.15843 0.19986 0.0
C451 C 0.52276 0.15165 0.16991 0.0
C452 C 0.53138 0.13652 0.17913 0.0
C453 C 0.54585 0.20479 0.17359 0.0
O454 O 0.54442 0.18944 0.16257 0.0
H455 H 0.52597 0.1663 0.21324 0.0
H456 H 0.51946 0.15274 0.1547 0.0
O457 O 0.49212 0.18992 0.20264 0.0
H458 H 0.47794 0.19429 0.1158 0.0
H459 H 0.53599 0.12358 0.17238 0.0
Cu460 Cu 0.83446 0.83527 0.53665 0.0
N461 N 0.83754 0.81582 0.55451 0.0
N462 N 0.84733 0.7893 0.56895 0.0
C463 C 0.84879 0.80063 0.55345 0.0
C464 C 0.83458 0.79762 0.5801 0.0
C465 C 0.82858 0.81399 0.57116 0.0
O466 O 0.85424 0.83259 0.51751 0.0
C467 C 0.82838 0.8757 0.54409 0.0
O468 O 0.82959 0.87817 0.52553 0.0
H469 H 0.85772 0.79784 0.54151 0.0
H470 H 0.81846 0.82393 0.57641 0.0
N471 N 0.81074 0.83067 0.52384 0.0
N472 N 0.78447 0.83615 0.5056 0.0
C473 C 0.80286 0.84168 0.51015 0.0
C474 C 0.797 0.81748 0.52793 0.0
C475 C 0.78073 0.82085 0.51672 0.0
C476 C 0.87208 0.83028 0.52127 0.0
O477 O 0.879 0.8333 0.53889 0.0
H478 H 0.81013 0.85415 0.5044 0.0
H479 H 0.79843 0.80668 0.53887 0.0
O480 O 0.83215 0.85941 0.55119 0.0
H481 H 0.83025 0.79249 0.59394 0.0
H482 H 0.76708 0.81301 0.51717 0.0
Cu483 Cu 0.1882 0.85656 0.5017 0.0
N484 N 0.20883 0.85731 0.4851 0.0
N485 N 0.22938 0.86999 0.46436 0.0
C486 C 0.21477 0.87324 0.47597 0.0
C487 C 0.23274 0.85118 0.46627 0.0
C488 C 0.22007 0.84341 0.47909 0.0
O489 O 0.19264 0.87873 0.51905 0.0
C490 C 0.16445 0.83952 0.47447 0.0
O491 O 0.17886 0.82802 0.47646 0.0
H492 H 0.20817 0.88689 0.47757 0.0
H493 H 0.219 0.82862 0.48344 0.0
N494 N 0.18713 0.83513 0.51766 0.0
N495 N 0.1747 0.81501 0.53913 0.0
C496 C 0.17181 0.83048 0.52805 0.0
C497 C 0.2003 0.82218 0.52231 0.0
C498 C 0.19263 0.80967 0.53549 0.0
C499 C 0.20945 0.87893 0.52714 0.0
O500 O 0.22074 0.86493 0.52316 0.0
H501 H 0.15876 0.8384 0.52744 0.0
H502 H 0.2146 0.82207 0.51691 0.0
O503 O 0.16472 0.85455 0.48507 0.0
H504 H 0.24363 0.84357 0.45904 0.0
H505 H 0.19991 0.79793 0.54225 0.0
Cu506 Cu 0.21025 0.18284 0.5349 0.0
N507 N 0.20154 0.19457 0.55692 0.0
N508 N 0.18425 0.2033 0.5815 0.0
C509 C 0.1847 0.19221 0.56559 0.0
C510 C 0.20141 0.21288 0.5829 0.0
C511 C 0.21199 0.20751 0.5677 0.0
O512 O 0.2053 0.19965 0.51263 0.0
C513 C 0.23971 0.16792 0.55731 0.0
O514 O 0.22505 0.16547 0.56838 0.0
H515 H 0.17303 0.18266 0.56033 0.0
H516 H 0.22635 0.21267 0.56464 0.0
N517 N 0.19735 0.15946 0.52952 0.0
N518 N 0.19588 0.12984 0.51713 0.0
C519 C 0.20689 0.14347 0.52644 0.0
C520 C 0.17942 0.1558 0.52219 0.0
C521 C 0.1785 0.13749 0.51442 0.0
C522 C 0.18903 0.20756 0.5118 0.0
O523 O 0.1773 0.20445 0.52577 0.0
H524 H 0.22229 0.14277 0.52863 0.0
H525 H 0.16843 0.16627 0.52078 0.0
O526 O 0.23705 0.17604 0.54106 0.0
H527 H 0.20577 0.2234 0.59386 0.0
H528 H 0.16656 0.13103 0.50596 0.0
Cu529 Cu 0.86165 0.21832 0.51348 0.0
N530 N 0.84124 0.21531 0.4952 0.0
N531 N 0.81978 0.19994 0.47524 0.0
C532 C 0.83423 0.19821 0.48852 0.0
C533 C 0.81772 0.21898 0.47334 0.0
C534 C 0.83098 0.22843 0.48571 0.0
O535 O 0.86102 0.19557 0.52962 0.0
C536 C 0.88629 0.24081 0.49312 0.0
O537 O 0.87174 0.25195 0.49517 0.0
H538 H 0.8398 0.18472 0.49326 0.0
H539 H 0.83295 0.24375 0.48763 0.0
N540 N 0.8596 0.23896 0.53035 0.0
N541 N 0.87057 0.26083 0.55209 0.0
C542 C 0.87421 0.24464 0.54248 0.0
C543 C 0.84601 0.25193 0.53233 0.0
C544 C 0.85281 0.26554 0.54575 0.0
C545 C 0.8447 0.19225 0.53681 0.0
O546 O 0.83077 0.2039 0.53279 0.0
H547 H 0.88768 0.23743 0.54348 0.0
H548 H 0.83244 0.25183 0.52425 0.0
O549 O 0.88519 0.22386 0.49982 0.0
H550 H 0.80718 0.22559 0.46398 0.0
H551 H 0.84537 0.27801 0.55027 0.0
C552 C 0.19865 0.11112 0.48731 0.0
C553 C 0.2037 0.11422 0.50682 0.0
C554 C 0.21042 0.10057 0.47576 0.0
C555 C 0.25411 0.0711 0.47606 0.0
H556 H 0.2663 0.102 0.43194 0.0
C557 C 0.32674 0.06831 0.43925 0.0
C558 C 0.32657 0.06954 0.41913 0.0
C559 C 0.30995 0.07087 0.44913 0.0
C560 C 0.26291 0.09297 0.44398 0.0
H561 H 0.22351 0.10684 0.53004 0.0
H562 H 0.24413 0.08858 0.51 0.0
H563 H 0.23862 0.10924 0.45028 0.0
H564 H 0.30862 0.07478 0.39369 0.0
H565 H 0.27939 0.07891 0.41082 0.0
H566 H 0.2789 0.05523 0.46999 0.0
C567 C 0.23119 0.09424 0.50349 0.0
C568 C 0.24694 0.09707 0.45448 0.0
C569 C 0.21942 0.10475 0.51499 0.0
C570 C 0.30925 0.07352 0.40916 0.0
C571 C 0.2925 0.07606 0.419 0.0
C572 C 0.27014 0.06699 0.46553 0.0
C573 C 0.22741 0.09294 0.48355 0.0
C574 C 0.24253 0.08642 0.47085 0.0
C575 C 0.29263 0.07476 0.4391 0.0
C576 C 0.2749 0.07812 0.44957 0.0
H577 H 0.18665 0.11826 0.4806 0.0
H578 H 0.20691 0.09946 0.46051 0.0
H579 H 0.25101 0.06253 0.4885 0.0
H580 H 0.33976 0.06506 0.44736 0.0
H581 H 0.3106 0.07005 0.46464 0.0
C582 C 1.00625 0.2975 0.3826 0.0
C583 C 1.0105 0.31733 0.38202 0.0
C584 C 0.99476 0.28969 0.39669 0.0
C585 C 0.95653 0.30152 0.4285 0.0
H586 H 0.9687 0.25351 0.45289 0.0
C587 C 0.90717 0.26862 0.48423 0.0
C588 C 0.90344 0.24873 0.48365 0.0
C589 C 0.92186 0.277 0.4738 0.0
C590 C 0.96497 0.26681 0.44608 0.0
H591 H 1.00611 0.34449 0.39603 0.0
H592 H 0.98562 0.33078 0.4207 0.0
H593 H 0.99137 0.26866 0.43138 0.0
H594 H 0.91266 0.22188 0.47221 0.0
H595 H 0.93818 0.23657 0.45337 0.0
H596 H 0.92992 0.29948 0.44257 0.0
C597 C 0.99131 0.32134 0.41013 0.0
C598 C 0.97802 0.27555 0.43381 0.0
C599 C 1.00308 0.32918 0.39607 0.0
C600 C 0.91526 0.23724 0.47295 0.0
C601 C 0.92989 0.24571 0.4622 0.0
C602 C 0.94343 0.29273 0.44062 0.0
C603 C 0.98702 0.30147 0.41055 0.0
C604 C 0.97389 0.29295 0.42478 0.0
C605 C 0.93309 0.26578 0.46218 0.0
C606 C 0.94741 0.2752 0.44955 0.0
H607 H 1.01178 0.28788 0.37209 0.0
H608 H 0.99155 0.27441 0.39641 0.0
H609 H 0.95275 0.31473 0.42152 0.0
H610 H 0.89852 0.27785 0.49262 0.0
H611 H 0.92422 0.29239 0.47469 0.0
C612 C 0.7515 0.84639 0.49769 0.0
C613 C 0.7711 0.84645 0.49366 0.0
C614 C 0.73904 0.85831 0.48762 0.0
C615 C 0.7347 0.88901 0.44446 0.0
H616 H 0.7016 0.91838 0.47591 0.0
C617 C 0.70498 0.96086 0.42045 0.0
C618 C 0.6858 0.96465 0.42415 0.0
C619 C 0.7135 0.94461 0.42787 0.0
C620 C 0.71052 0.91009 0.46687 0.0
H621 H 0.79268 0.85815 0.47508 0.0
H622 H 0.77113 0.87917 0.45782 0.0
H623 H 0.71963 0.89252 0.49025 0.0
H624 H 0.66058 0.95413 0.43859 0.0
H625 H 0.67563 0.92586 0.45181 0.0
H626 H 0.72602 0.90702 0.42124 0.0
C627 C 0.7653 0.86988 0.46867 0.0
C628 C 0.72083 0.89524 0.47507 0.0
C629 C 0.77774 0.85798 0.47872 0.0
C630 C 0.67542 0.95181 0.43562 0.0
C631 C 0.68401 0.93557 0.44315 0.0
C632 C 0.72445 0.9039 0.4363 0.0
C633 C 0.7459 0.87049 0.47328 0.0
C634 C 0.73332 0.88476 0.46404 0.0
C635 C 0.70313 0.93178 0.43928 0.0
C636 C 0.71254 0.91484 0.4475 0.0
H637 H 0.74593 0.83777 0.50916 0.0
H638 H 0.72411 0.85826 0.49134 0.0
H639 H 0.74392 0.881 0.43549 0.0
H640 H 0.71357 0.97057 0.41203 0.0
H641 H 0.72839 0.9423 0.42497 0.0
C642 C 0.1528 0.82143 0.44525 0.0
C643 C 0.14876 0.83417 0.46013 0.0
C644 C 0.13821 0.81368 0.43299 0.0
C645 C 0.08849 0.81735 0.41404 0.0
H646 H 0.09227 0.76248 0.40743 0.0
C647 C 0.02963 0.76772 0.37427 0.0
C648 C 0.03595 0.75176 0.36417 0.0
C649 C 0.04275 0.77977 0.38492 0.0
C650 C 0.09108 0.77783 0.4088 0.0
H651 H 0.12618 0.84962 0.47307 0.0
H652 H 0.10028 0.83587 0.45137 0.0
H653 H 0.11563 0.78004 0.42817 0.0
H654 H 0.06118 0.73684 0.35626 0.0
H655 H 0.08398 0.75805 0.37421 0.0
H656 H 0.06386 0.815 0.39445 0.0
C657 C 0.11495 0.83196 0.44934 0.0
C658 C 0.10447 0.78791 0.42083 0.0
C659 C 0.12974 0.83984 0.46175 0.0
C660 C 0.05577 0.74888 0.364 0.0
C661 C 0.06885 0.76097 0.37448 0.0
C662 C 0.07502 0.8072 0.40185 0.0
C663 C 0.11901 0.81831 0.4352 0.0
C664 C 0.10358 0.80783 0.42339 0.0
C665 C 0.0625 0.77619 0.38564 0.0
C666 C 0.07634 0.78732 0.39884 0.0
H667 H 0.16732 0.81698 0.44332 0.0
H668 H 0.14194 0.80363 0.42196 0.0
H669 H 0.08742 0.83268 0.4157 0.0
H670 H 1.01445 0.77033 0.37483 0.0
H671 H 0.03728 0.79129 0.39333 0.0
C672 C 0.23694 0.89732 0.54292 0.0
C673 C 0.21695 0.89401 0.5409 0.0
C674 C 0.24505 0.90905 0.55757 0.0
C675 C 0.23606 0.94602 0.59405 0.0
H676 H 0.28136 0.92521 0.619 0.0
C677 C 0.27534 0.98046 0.66235 0.0
C678 C 0.29558 0.98091 0.66288 0.0
C679 C 0.26463 0.97043 0.64776 0.0
C680 C 0.26887 0.93137 0.61211 0.0
H681 H 0.18967 0.90131 0.5522 0.0
H682 H 0.20399 0.92199 0.57822 0.0
H683 H 0.26441 0.90738 0.59308 0.0
H684 H 0.32027 0.97096 0.6483 0.0
H685 H 0.30172 0.9538 0.6229 0.0
H686 H 0.24069 0.97011 0.61324 0.0
C687 C 0.21334 0.91542 0.56827 0.0
C688 C 0.2591 0.92112 0.5972 0.0
C689 C 0.20512 0.90363 0.55336 0.0
C690 C 0.30477 0.97111 0.64836 0.0
C691 C 0.29408 0.96106 0.63386 0.0
C692 C 0.24589 0.95634 0.60907 0.0
C693 C 0.23347 0.91778 0.57087 0.0
C694 C 0.24278 0.92842 0.58769 0.0
C695 C 0.27386 0.96049 0.63338 0.0
C696 C 0.26262 0.94927 0.61808 0.0
H697 H 0.24647 0.89038 0.53338 0.0
H698 H 0.26055 0.91098 0.55871 0.0
H699 H 0.22358 0.95209 0.58703 0.0
H700 H 0.26773 0.98799 0.67312 0.0
H701 H 0.2491 0.97023 0.64794 0.0
C702 C 0.0619 0.2747 0.67413 0.0
C703 C 0.06971 0.27841 0.69275 0.0
C704 C 0.07093 0.26245 0.66168 0.0
C705 C 0.10887 0.22621 0.6602 0.0
H706 H 0.11385 0.24394 0.60803 0.0
C707 C 0.17199 0.20937 0.61346 0.0
C708 C 0.16847 0.20583 0.59376 0.0
C709 C 0.15705 0.21411 0.6251 0.0
C710 C 0.11229 0.23857 0.62243 0.0
H711 H 0.09303 0.27206 0.71293 0.0
H712 H 0.10893 0.25107 0.69124 0.0
H713 H 0.09288 0.2603 0.62931 0.0
H714 H 0.14654 0.20381 0.57086 0.0
H715 H 0.12028 0.21242 0.59126 0.0
H716 H 0.12915 0.20511 0.6535 0.0
C717 C 0.09558 0.25717 0.68633 0.0
C718 C 0.10024 0.24793 0.63466 0.0
C719 C 0.08649 0.26929 0.69879 0.0
C720 C 0.14957 0.20637 0.58604 0.0
C721 C 0.13462 0.2114 0.59766 0.0
C722 C 0.12105 0.21697 0.64802 0.0
C723 C 0.08804 0.25375 0.66754 0.0
C724 C 0.09877 0.24218 0.65385 0.0
C725 C 0.13831 0.21564 0.61724 0.0
C726 C 0.12323 0.22335 0.62917 0.0
H727 H 0.04883 0.2813 0.66917 0.0
H728 H 0.06456 0.25991 0.64742 0.0
H729 H 0.10774 0.22112 0.67475 0.0
H730 H 0.18642 0.20888 0.61975 0.0
H731 H 0.16036 0.21747 0.6401 0.0
C732 C 0.82221 0.16708 0.54857 0.0
C733 C 0.8407 0.17581 0.54945 0.0
C734 C 0.81689 0.15342 0.56201 0.0
C735 C 0.82611 0.14024 0.61173 0.0
H736 H 0.79473 0.09506 0.59725 0.0
C737 C 0.79342 0.08845 0.66796 0.0
C738 C 0.77478 0.08067 0.66369 0.0
C739 C 0.80336 0.09908 0.65429 0.0
C740 C 0.8033 0.10771 0.60159 0.0
H741 H 0.86832 0.17683 0.56484 0.0
H742 H 0.85885 0.15296 0.58884 0.0
H743 H 0.80947 0.11434 0.5725 0.0
H744 H 0.75204 0.07848 0.64142 0.0
H745 H 0.76892 0.09741 0.61813 0.0
H746 H 0.81935 0.13404 0.6408 0.0
C747 C 0.84856 0.15666 0.57754 0.0
C748 C 0.81188 0.11868 0.58738 0.0
C749 C 0.85404 0.17016 0.56375 0.0
C750 C 0.76623 0.08427 0.64549 0.0
C751 C 0.77611 0.09493 0.6319 0.0
C752 C 0.81739 0.12933 0.62599 0.0
C753 C 0.82982 0.14834 0.57692 0.0
C754 C 0.82306 0.13529 0.59223 0.0
C755 C 0.79491 0.10227 0.63598 0.0
C756 C 0.80551 0.11313 0.62107 0.0
H757 H 0.81164 0.17118 0.53769 0.0
H758 H 0.80232 0.14744 0.56122 0.0
H759 H 0.83449 0.15307 0.61591 0.0
H760 H 0.80046 0.08623 0.68184 0.0
H761 H 0.81782 0.10443 0.65797 0.0
C762 C 0.94314 0.66675 0.64363 0.0
C763 C 0.96244 0.67296 0.64223 0.0
C764 C 0.92884 0.67432 0.63161 0.0
C765 C 0.91953 0.70492 0.58899 0.0
H766 H 0.88036 0.7255 0.6203 0.0
C767 C 0.87683 0.77097 0.56716 0.0
C768 C 0.85801 0.77252 0.57331 0.0
C769 C 0.88777 0.75545 0.57272 0.0
C770 C 0.89085 0.71956 0.61115 0.0
H771 H 0.98207 0.69039 0.62572 0.0
H772 H 0.95717 0.70357 0.60484 0.0
H773 H 0.90256 0.70305 0.63414 0.0
H774 H 0.8355 0.75847 0.58911 0.0
H775 H 0.85438 0.73115 0.59851 0.0
H776 H 0.90803 0.72185 0.5661 0.0
C777 C 0.95303 0.69293 0.61525 0.0
C778 C 0.90363 0.70663 0.61912 0.0
C779 C 0.96732 0.68541 0.6273 0.0
C780 C 0.85009 0.75783 0.58446 0.0
C781 C 0.86094 0.74219 0.58985 0.0
C782 C 0.90662 0.71778 0.58094 0.0
C783 C 0.93356 0.68816 0.61788 0.0
C784 C 0.91837 0.69948 0.60829 0.0
C785 C 0.88007 0.741 0.58441 0.0
C786 C 0.89239 0.72561 0.59207 0.0
H787 H 0.93887 0.65704 0.65484 0.0
H788 H 0.91398 0.6701 0.63372 0.0
H789 H 0.93064 0.69951 0.58024 0.0
H790 H 0.8834 0.78217 0.55871 0.0
H791 H 0.90253 0.75521 0.56848 0.0
C792 C 0.40961 0.34888 0.05552 0.0
C793 C 0.39801 0.36 0.06692 0.0
C794 C 0.42201 0.33582 0.06398 0.0
C795 C 0.42492 0.307 0.10776 0.0
H796 H 0.47215 0.2899 0.08698 0.0
C797 C 0.46741 0.24655 0.14271 0.0
C798 C 0.47452 0.23264 0.13047 0.0
C799 C 0.45977 0.26325 0.13531 0.0
C800 C 0.4589 0.29445 0.09284 0.0
H801 H 0.39197 0.36765 0.0962 0.0
H802 H 0.41402 0.3453 0.11096 0.0
H803 H 0.45739 0.31854 0.07407 0.0
H804 H 0.47925 0.22549 0.10078 0.0
H805 H 0.46559 0.25466 0.08775 0.0
H806 H 0.42624 0.28287 0.12634 0.0
C807 C 0.41302 0.34617 0.09545 0.0
C808 C 0.45047 0.31088 0.08549 0.0
C809 C 0.40051 0.35913 0.08699 0.0
C810 C 0.47375 0.23584 0.11058 0.0
C811 C 0.46615 0.25265 0.10314 0.0
C812 C 0.43335 0.29067 0.11512 0.0
C813 C 0.42321 0.3337 0.08403 0.0
C814 C 0.43329 0.31729 0.09279 0.0
C815 C 0.45902 0.26651 0.11545 0.0
C816 C 0.45037 0.28412 0.10769 0.0
H817 H 0.40812 0.34919 0.04001 0.0
H818 H 0.4296 0.32647 0.05471 0.0
H819 H 0.41144 0.31117 0.11342 0.0
H820 H 0.46755 0.24447 0.15808 0.0
H821 H 0.45455 0.27369 0.1452 0.0
C822 C 0.79757 0.50908 0.1535 0.0
C823 C 0.81689 0.50505 0.15795 0.0
C824 C 0.78551 0.49592 0.14293 0.0
C825 C 0.78892 0.45667 0.10772 0.0
H826 H 0.7363 0.4426 0.11914 0.0
C827 C 0.75209 0.38891 0.07615 0.0
C828 C 0.73285 0.38884 0.06919 0.0
C829 C 0.76043 0.40461 0.08618 0.0
C830 C 0.75087 0.44664 0.11558 0.0
H831 H 0.83828 0.4835 0.15554 0.0
H832 H 0.81738 0.46071 0.13733 0.0
H833 H 0.75446 0.46672 0.13914 0.0
H834 H 0.70723 0.40545 0.0676 0.0
H835 H 0.72201 0.43328 0.08544 0.0
H836 H 0.78559 0.43666 0.08439 0.0
C837 C 0.81159 0.47416 0.1417 0.0
C838 C 0.76129 0.46039 0.12707 0.0
C839 C 0.82356 0.48721 0.1523 0.0
C840 C 0.72209 0.40506 0.07269 0.0
C841 C 0.73052 0.42093 0.08297 0.0
C842 C 0.77855 0.44309 0.09627 0.0
C843 C 0.79256 0.47851 0.13646 0.0
C844 C 0.78064 0.46517 0.12357 0.0
C845 C 0.74989 0.4209 0.08968 0.0
C846 C 0.75958 0.43746 0.10034 0.0
H847 H 0.79192 0.52267 0.15759 0.0
H848 H 0.77093 0.49972 0.13915 0.0
H849 H 0.80358 0.46039 0.10424 0.0
H850 H 0.76092 0.37675 0.07387 0.0
H851 H 0.77522 0.40385 0.09142 0.0
C852 C 0.62627 0.73486 0.03769 0.0
C853 C 0.63203 0.71903 0.04849 0.0
C854 C 0.61771 0.75016 0.04647 0.0
C855 C 0.61696 0.77496 0.09217 0.0
H856 H 0.57067 0.79756 0.07139 0.0
C857 C 0.57751 0.83107 0.13409 0.0
C858 C 0.56804 0.84563 0.12415 0.0
C859 C 0.58583 0.81637 0.1242 0.0
C860 C 0.5838 0.79165 0.07718 0.0
H861 H 0.63305 0.70654 0.07679 0.0
H862 H 0.61823 0.73358 0.09235 0.0
H863 H 0.58318 0.7696 0.05558 0.0
H864 H 0.56059 0.85654 0.09593 0.0
H865 H 0.57579 0.83107 0.07849 0.0
H866 H 0.61799 0.79713 0.11347 0.0
C867 C 0.62033 0.73403 0.07705 0.0
C868 C 0.59084 0.77556 0.06821 0.0
C869 C 0.62865 0.71855 0.06818 0.0
C870 C 0.56779 0.84556 0.104 0.0
C871 C 0.5763 0.83084 0.09403 0.0
C872 C 0.61008 0.79117 0.10098 0.0
C873 C 0.61499 0.75004 0.06628 0.0
C874 C 0.60737 0.76697 0.07577 0.0
C875 C 0.5852 0.81593 0.10405 0.0
C876 C 0.59328 0.79958 0.09375 0.0
H877 H 0.62856 0.73546 0.02246 0.0
H878 H 0.61379 0.76236 0.03787 0.0
H879 H 0.62996 0.76883 0.09803 0.0
H880 H 0.57835 0.83087 0.14961 0.0
H881 H 0.59233 0.80507 0.13244 0.0
C882 C 0.24467 0.58977 0.15255 0.0
C883 C 0.25143 0.59099 0.17184 0.0
C884 C 0.25309 0.6012 0.13852 0.0
C885 C 0.29843 0.62798 0.12891 0.0
H886 H 0.26858 0.64862 0.0863 0.0
C887 C 0.33484 0.67292 0.0705 0.0
C888 C 0.329 0.6684 0.05139 0.0
C889 C 0.32423 0.66594 0.08577 0.0
C890 C 0.27716 0.64286 0.09804 0.0
H891 H 0.27186 0.60592 0.1915 0.0
H892 H 0.28646 0.62582 0.16711 0.0
H893 H 0.25225 0.63169 0.11181 0.0
H894 H 0.30686 0.65371 0.03343 0.0
H895 H 0.28853 0.6415 0.05995 0.0
H896 H 0.32335 0.6388 0.11504 0.0
C897 C 0.27489 0.61575 0.16275 0.0
C898 C 0.26778 0.63313 0.11267 0.0
C899 C 0.26648 0.60433 0.17677 0.0
C900 C 0.31181 0.6575 0.04794 0.0
C901 C 0.30122 0.65054 0.0632 0.0
C902 C 0.3078 0.63768 0.11429 0.0
C903 C 0.26848 0.61416 0.14338 0.0
C904 C 0.2783 0.6254 0.12823 0.0
C905 C 0.30751 0.65429 0.08234 0.0
C906 C 0.29732 0.64512 0.09855 0.0
H907 H 0.23331 0.57952 0.14813 0.0
H908 H 0.24792 0.59938 0.12373 0.0
H909 H 0.30706 0.62196 0.14047 0.0
H910 H 0.34796 0.68131 0.07372 0.0
H911 H 0.32934 0.66942 0.10031 0.0
C912 C 0.39454 0.71921 0.96879 0.0
C913 C 0.39428 0.72772 0.98713 0.0
C914 C 0.40313 0.72886 0.95365 0.0
C915 C 0.41601 0.75445 0.92122 0.0
H916 H 0.46156 0.78618 0.93407 0.0
C917 C 0.45539 0.79868 0.8637 0.0
C918 C 0.47547 0.80125 0.8657 0.0
C919 C 0.44494 0.78997 0.8782 0.0
C920 C 0.44901 0.7772 0.93013 0.0
H921 H 0.40196 0.75351 1.00359 0.0
H922 H 0.41623 0.77062 0.97707 0.0
H923 H 0.44411 0.7708 0.95948 0.0
H924 H 0.50035 0.79613 0.88427 0.0
H925 H 0.48231 0.78039 0.9093 0.0
H926 H 0.42146 0.76013 0.89179 0.0
C927 C 0.4104 0.75622 0.97449 0.0
C928 C 0.43873 0.76862 0.94481 0.0
C929 C 0.40201 0.74647 0.98969 0.0
C930 C 0.48488 0.79456 0.8824 0.0
C931 C 0.47447 0.78563 0.89681 0.0
C932 C 0.42641 0.76288 0.90651 0.0
C933 C 0.41152 0.74739 0.95635 0.0
C934 C 0.42208 0.75708 0.94061 0.0
C935 C 0.4543 0.78336 0.89504 0.0
C936 C 0.44311 0.77437 0.91073 0.0
H937 H 0.38885 0.70473 0.9663 0.0
H938 H 0.40384 0.72142 0.94004 0.0
H939 H 0.40316 0.74589 0.91733 0.0
H940 H 0.44766 0.80394 0.85117 0.0
H941 H 0.42945 0.78884 0.87637 0.0
C942 C 0.30043 0.38753 0.98135 0.0
C943 C 0.31908 0.39248 0.98856 0.0
C944 C 0.28981 0.40058 0.97084 0.0
C945 C 0.28602 0.45225 0.96181 0.0
H946 H 0.25033 0.43352 0.92116 0.0
C947 C 0.23972 0.49962 0.91096 0.0
C948 C 0.2202 0.49389 0.90887 0.0
C949 C 0.25264 0.48838 0.92122 0.0
C950 C 0.26017 0.4389 0.93255 0.0
H951 H 0.34141 0.41492 0.99001 0.0
H952 H 0.32292 0.43776 0.97105 0.0
H953 H 0.27254 0.41168 0.93636 0.0
H954 H 0.19875 0.47229 0.91619 0.0
H955 H 0.22143 0.45238 0.93393 0.0
H956 H 0.27371 0.47967 0.95749 0.0
C957 C 0.31642 0.42381 0.97391 0.0
C958 C 0.27288 0.42642 0.9413 0.0
C959 C 0.32707 0.41071 0.98464 0.0
C960 C 0.2137 0.47704 0.91771 0.0
C961 C 0.22667 0.46563 0.92769 0.0
C962 C 0.27345 0.46484 0.9528 0.0
C963 C 0.2976 0.4189 0.967 0.0
C964 C 0.28567 0.43281 0.95634 0.0
C965 C 0.24628 0.47106 0.92927 0.0
C966 C 0.26017 0.45814 0.93838 0.0
H967 H 0.29374 0.37366 0.98418 0.0
H968 H 0.27524 0.3964 0.96616 0.0
H969 H 0.29554 0.45762 0.97345 0.0
H970 H 0.24501 0.51266 0.90438 0.0
H971 H 0.2677 0.49283 0.92224 0.0
C972 C 0.58415 0.2487 0.88231 0.0
C973 C 0.57541 0.23049 0.88506 0.0
C974 C 0.59347 0.25885 0.89754 0.0
C975 C 0.61682 0.25356 0.94542 0.0
H976 H 0.60931 0.30814 0.94968 0.0
C977 C 0.65254 0.29706 1.00827 0.0
C978 C 0.66084 0.31515 1.00431 0.0
C979 C 0.64005 0.28756 0.99488 0.0
C980 C 0.61174 0.29297 0.94863 0.0
H981 H 0.57005 0.20856 0.90616 0.0
H982 H 0.58666 0.22629 0.93292 0.0
H983 H 0.59206 0.28941 0.92432 0.0
H984 H 0.66198 0.33785 0.98346 0.0
H985 H 0.64034 0.32112 0.95969 0.0
H986 H 0.63685 0.25708 0.96932 0.0
C987 C 0.58618 0.23267 0.91882 0.0
C988 C 0.6018 0.28219 0.93409 0.0
C989 C 0.57667 0.22249 0.9035 0.0
C990 C 0.65558 0.32403 0.987 0.0
C991 C 0.64321 0.31436 0.97337 0.0
C992 C 0.62685 0.26435 0.95987 0.0
C993 C 0.59448 0.25112 0.91605 0.0
C994 C 0.6043 0.26236 0.9322 0.0
C995 C 0.63576 0.2957 0.9769 0.0
C996 C 0.62452 0.28424 0.96169 0.0
H997 H 0.58361 0.25537 0.86834 0.0
H998 H 0.60001 0.2728 0.89475 0.0
H999 H 0.61932 0.23841 0.94425 0.0
H1000 H 0.65626 0.2899 0.02157 0.0
H1001 H 0.63418 0.27355 0.99847 0.0
C1002 C 0.70225 0.63599 0.93988 0.0
C1003 C 0.69262 0.63011 0.95617 0.0
C1004 C 0.71748 0.62563 0.93339 0.0
C1005 C 0.74421 0.58056 0.94117 0.0
H1006 H 0.78676 0.61225 0.92367 0.0
C1007 C 0.82284 0.55658 0.93961 0.0
C1008 C 0.83128 0.55856 0.92177 0.0
C1009 C 0.80518 0.56463 0.94276 0.0
C1010 C 0.77493 0.60324 0.92842 0.0
H1011 H 0.69079 0.60871 0.97827 0.0
H1012 H 0.71782 0.5909 0.96754 0.0
H1013 H 0.75656 0.62682 0.93026 0.0
H1014 H 0.82835 0.57085 0.89346 0.0
H1015 H 0.79768 0.58552 0.89918 0.0
H1016 H 0.76323 0.55718 0.94018 0.0
C1017 C 0.71335 0.60308 0.95923 0.0
C1018 C 0.75752 0.61151 0.93204 0.0
C1019 C 0.69783 0.61324 0.96543 0.0
C1020 C 0.82203 0.5691 0.9073 0.0
C1021 C 0.80459 0.57749 0.91057 0.0
C1022 C 0.76178 0.57238 0.9379 0.0
C1023 C 0.72375 0.60947 0.94344 0.0
C1024 C 0.74189 0.6003 0.9385 0.0
C1025 C 0.79592 0.57512 0.92825 0.0
C1026 C 0.77727 0.58367 0.93154 0.0
H1027 H 0.6984 0.64903 0.93263 0.0
H1028 H 0.72473 0.6307 0.92086 0.0
H1029 H 0.73247 0.57138 0.94581 0.0
H1030 H 0.82964 0.54835 0.9509 0.0
H1031 H 0.79878 0.56275 0.95655 0.0
C1032 C 0.11157 0.38429 0.33562 0.0
C1033 C 0.09204 0.3875 0.33779 0.0
C1034 C 0.1241 0.39911 0.33026 0.0
C1035 C 0.13031 0.45148 0.32239 0.0
H1036 H 0.16276 0.43427 0.28231 0.0
C1037 C 0.17295 0.50242 0.27196 0.0
C1038 C 0.1911 0.49665 0.26647 0.0
C1039 C 0.16135 0.49051 0.28313 0.0
C1040 C 0.15405 0.43933 0.29368 0.0
H1041 H 0.0704 0.4089 0.33716 0.0
H1042 H 0.09237 0.43502 0.32732 0.0
H1043 H 0.14175 0.41137 0.29783 0.0
H1044 H 0.21149 0.47401 0.26946 0.0
H1045 H 0.19162 0.45368 0.28915 0.0
H1046 H 0.14259 0.47965 0.3178 0.0
C1047 C 0.09804 0.42105 0.33007 0.0
C1048 C 0.14197 0.42616 0.30263 0.0
C1049 C 0.08547 0.40615 0.33575 0.0
C1050 C 0.1977 0.47909 0.2733 0.0
C1051 C 0.18615 0.46725 0.28447 0.0
C1052 C 0.14248 0.46476 0.31335 0.0
C1053 C 0.11735 0.41746 0.32652 0.0
C1054 C 0.13006 0.43196 0.31722 0.0
C1055 C 0.16764 0.47256 0.2891 0.0
C1056 C 0.15462 0.45878 0.29898 0.0
H1057 H 0.11701 0.37005 0.33726 0.0
H1058 H 0.13898 0.39595 0.32823 0.0
H1059 H 0.12133 0.45642 0.33357 0.0
H1060 H 0.16748 0.51598 0.26732 0.0
H1061 H 0.14717 0.49506 0.28643 0.0
C1062 C 0.14181 0.5993 0.82109 0.0
C1063 C 0.14555 0.57978 0.81931 0.0
C1064 C 0.13075 0.60836 0.80696 0.0
C1065 C 0.09419 0.59968 0.76827 0.0
H1066 H 0.11221 0.64948 0.75085 0.0
C1067 C 0.05168 0.6427 0.71091 0.0
C1068 C 0.0497 0.66204 0.71583 0.0
C1069 C 0.0647 0.63156 0.72133 0.0
C1070 C 0.10694 0.63561 0.7556 0.0
H1071 H 0.14005 0.55429 0.80173 0.0
H1072 H 0.12067 0.57013 0.77703 0.0
H1073 H 0.13176 0.63216 0.77414 0.0
H1074 H 0.06022 0.68499 0.73511 0.0
H1075 H 0.08254 0.66572 0.75319 0.0
H1076 H 0.06908 0.60341 0.75014 0.0
C1077 C 0.1264 0.57842 0.7893 0.0
C1078 C 0.11812 0.62572 0.76896 0.0
C1079 C 0.13761 0.5694 0.80335 0.0
C1080 C 0.06133 0.67013 0.73094 0.0
C1081 C 0.07429 0.6591 0.74124 0.0
C1082 C 0.08291 0.60965 0.75496 0.0
C1083 C 0.12306 0.59804 0.79086 0.0
C1084 C 0.1117 0.60784 0.77571 0.0
C1085 C 0.07603 0.63965 0.73672 0.0
C1086 C 0.08899 0.62791 0.7488 0.0
H1087 H 0.14783 0.60766 0.83317 0.0
H1088 H 0.12819 0.62345 0.80865 0.0
H1089 H 0.08887 0.58593 0.77328 0.0
H1090 H 0.04288 0.63608 0.69934 0.0
H1091 H 0.06582 0.61663 0.71743 0.0
C1092 C 0.37607 0.08045 0.76763 0.0
C1093 C 0.37889 0.06181 0.76081 0.0
C1094 C 0.38983 0.08984 0.77989 0.0
C1095 C 0.44158 0.09001 0.79406 0.0
H1096 H 0.4265 0.12616 0.83259 0.0
C1097 C 0.49732 0.13978 0.83668 0.0
C1098 C 0.49268 0.15912 0.83545 0.0
C1099 C 0.48348 0.12531 0.83143 0.0
C1100 C 0.43096 0.11606 0.82194 0.0
H1101 H 0.39821 0.03821 0.76234 0.0
H1102 H 0.42218 0.05458 0.78375 0.0
H1103 H 0.40209 0.10561 0.81585 0.0
H1104 H 0.46985 0.17851 0.8289 0.0
H1105 H 0.4458 0.15353 0.82029 0.0
H1106 H 0.47044 0.10086 0.79991 0.0
C1107 C 0.40944 0.06206 0.77932 0.0
C1108 C 0.41696 0.10434 0.81226 0.0
C1109 C 0.39566 0.05265 0.76703 0.0
C1110 C 0.4738 0.1637 0.83001 0.0
C1111 C 0.45998 0.14935 0.82515 0.0
C1112 C 0.45563 0.1017 0.80384 0.0
C1113 C 0.40681 0.08088 0.78576 0.0
C1114 C 0.42199 0.09155 0.79778 0.0
C1115 C 0.46472 0.13 0.8253 0.0
C1116 C 0.45041 0.11526 0.81749 0.0
H1117 H 0.36354 0.08811 0.76299 0.0
H1118 H 0.38741 0.10444 0.78422 0.0
H1119 H 0.44603 0.08046 0.78292 0.0
H1120 H 0.51184 0.1359 0.84063 0.0
H1121 H 0.48753 0.11051 0.83175 0.0
C1122 C 0.94604 0.458 0.88772 0.0
C1123 C 0.94113 0.47582 0.88011 0.0
C1124 C 0.95706 0.44559 0.87735 0.0
C1125 C 0.98838 0.44213 0.83582 0.0
H1126 H 0.96684 0.39021 0.83211 0.0
C1127 C 1.00572 0.38965 0.77512 0.0
C1128 C 1.00692 0.37012 0.77946 0.0
C1129 C 1.00019 0.4027 0.78894 0.0
C1130 C 0.9733 0.40454 0.83322 0.0
H1131 H 0.94508 0.49509 0.85629 0.0
H1132 H 0.96409 0.47332 0.83806 0.0
H1133 H 0.9534 0.41293 0.85392 0.0
H1134 H 1.00409 0.34914 0.80198 0.0
H1135 H 0.99456 0.3719 0.82615 0.0
H1136 H 1.00809 0.43376 0.81482 0.0
C1137 C 0.95946 0.46896 0.85205 0.0
C1138 C 0.96558 0.41758 0.84575 0.0
C1139 C 0.94841 0.48136 0.86241 0.0
C1140 C 1.00295 0.36402 0.79808 0.0
C1141 C 0.9975 0.37707 0.81193 0.0
C1142 C 0.99616 0.42905 0.8233 0.0
C1143 C 0.96345 0.45072 0.85917 0.0
C1144 C 0.97287 0.43658 0.84704 0.0
C1145 C 0.9958 0.39653 0.80745 0.0
C1146 C 0.98854 0.41015 0.82168 0.0
H1147 H 0.94062 0.4532 0.90124 0.0
H1148 H 0.96014 0.43173 0.88334 0.0
H1149 H 0.99445 0.45663 0.83664 0.0
H1150 H 1.00845 0.39479 0.76085 0.0
H1151 H 0.99875 0.41752 0.7849 0.0
C1152 C 0.69701 0.95814 0.73296 0.0
C1153 C 0.69544 0.97803 0.73496 0.0
C1154 C 0.68281 0.94551 0.73966 0.0
C1155 C 0.63192 0.94415 0.75434 0.0
H1156 H 0.6448 0.89445 0.77441 0.0
C1157 C 0.57862 0.89583 0.79485 0.0
C1158 C 0.57691 0.87643 0.78932 0.0
C1159 C 0.59308 0.90784 0.78778 0.0
C1160 C 0.641 0.90822 0.76868 0.0
H1161 H 0.67811 1.00027 0.74608 0.0
H1162 H 0.65363 0.97832 0.75844 0.0
H1163 H 0.67028 0.91636 0.76393 0.0
H1164 H 0.58906 0.85439 0.77211 0.0
H1165 H 0.61476 0.87542 0.75991 0.0
H1166 H 0.60268 0.93612 0.75969 0.0
C1167 C 0.66549 0.97239 0.75115 0.0
C1168 C 0.65558 0.9208 0.7626 0.0
C1169 C 0.67957 0.98501 0.7442 0.0
C1170 C 0.59003 0.86929 0.77655 0.0
C1171 C 0.60476 0.88127 0.76969 0.0
C1172 C 0.61741 0.93168 0.76066 0.0
C1173 C 0.66676 0.95244 0.74875 0.0
C1174 C 0.65126 0.93898 0.75536 0.0
C1175 C 0.60636 0.9007 0.77519 0.0
C1176 C 0.62178 0.91361 0.76792 0.0
H1177 H 0.7089 0.95232 0.72562 0.0
H1178 H 0.6842 0.93032 0.73721 0.0
H1179 H 0.62789 0.95777 0.74844 0.0
H1180 H 0.56857 0.9018 0.80447 0.0
H1181 H 0.59403 0.9227 0.79235 0.0
C1182 C 0.97543 0.6797 0.2861 0.0
C1183 C 0.97585 0.68031 0.3063 0.0
C1184 C 0.96212 0.66757 0.27581 0.0
C1185 C 0.9364 0.62181 0.2803 0.0
H1186 H 0.90371 0.63735 0.23739 0.0
C1187 C 0.88537 0.56632 0.24059 0.0
C1188 C 0.88238 0.56818 0.22066 0.0
C1189 C 0.89453 0.58114 0.2516 0.0
C1190 C 0.91292 0.63261 0.24914 0.0
H1191 H 0.96215 0.66892 0.33142 0.0
H1192 H 0.93936 0.64757 0.31348 0.0
H1193 H 0.92435 0.6612 0.25477 0.0
H1194 H 0.88641 0.58734 0.19673 0.0
H1195 H 0.903 0.61266 0.21556 0.0
H1196 H 0.92601 0.5932 0.27433 0.0
C1197 C 0.94924 0.65657 0.30564 0.0
C1198 C 0.92467 0.64638 0.25916 0.0
C1199 C 0.96226 0.66892 0.31589 0.0
C1200 C 0.88827 0.58546 0.21209 0.0
C1201 C 0.89779 0.6001 0.223 0.0
C1202 C 0.925 0.60799 0.27007 0.0
C1203 C 0.94921 0.65553 0.28552 0.0
C1204 C 0.93651 0.64112 0.27487 0.0
C1205 C 0.90139 0.59809 0.24291 0.0
C1206 C 0.91302 0.61312 0.25429 0.0
H1207 H 0.9857 0.68824 0.27826 0.0
H1208 H 0.96245 0.66701 0.2603 0.0
H1209 H 0.94557 0.6173 0.29222 0.0
H1210 H 0.88092 0.55324 0.24766 0.0
H1211 H 0.89644 0.57912 0.26692 0.0
C1212 C 0.43145 1.01518 0.32369 0.0
C1213 C 0.42807 1.00637 0.34134 0.0
C1214 C 0.44145 1.00585 0.30967 0.0
C1215 C 0.45146 0.95739 0.29378 0.0
H1216 H 0.48679 0.98342 0.26027 0.0
C1217 C 0.49046 0.91706 0.23553 0.0
C1218 C 0.49225 0.92591 0.21761 0.0
C1219 C 0.48373 0.92709 0.2511 0.0
C1220 C 0.4768 0.976 0.26939 0.0
H1221 H 0.43326 0.98124 0.35848 0.0
H1222 H 0.45094 0.96492 0.33401 0.0
H1223 H 0.47427 1.00073 0.28734 0.0
H1224 H 0.48826 0.95231 0.20208 0.0
H1225 H 0.47604 0.96972 0.22922 0.0
H1226 H 0.45366 0.93279 0.27572 0.0
C1227 C 0.44564 0.97899 0.33096 0.0
C1228 C 0.4697 0.98589 0.28493 0.0
C1229 C 0.43571 0.9884 0.34505 0.0
C1230 C 0.48694 0.94502 0.21562 0.0
C1231 C 0.48017 0.95507 0.23124 0.0
C1232 C 0.45851 0.94753 0.27823 0.0
C1233 C 0.44825 0.98745 0.31297 0.0
C1234 C 0.45687 0.97671 0.29724 0.0
C1235 C 0.4785 0.94621 0.24917 0.0
C1236 C 0.47119 0.95673 0.2658 0.0
H1237 H 0.42596 0.02914 0.32054 0.0
H1238 H 0.44312 1.01272 0.29594 0.0
H1239 H 0.44131 0.95001 0.30276 0.0
H1240 H 0.49413 0.9023 0.23756 0.0
H1241 H 0.48281 0.91987 0.26474 0.0
C1242 C 0.61056 0.04695 0.32604 0.0
C1243 C 0.61612 0.05895 0.34174 0.0
C1244 C 0.59986 0.05395 0.3104 0.0
C1245 C 0.56988 0.09448 0.29531 0.0
H1246 H 0.58444 0.08056 0.24408 0.0
C1247 C 0.55053 0.13946 0.22981 0.0
C1248 C 0.54278 0.13008 0.21316 0.0
C1249 C 0.55822 0.12911 0.24507 0.0
C1250 C 0.58005 0.08435 0.25829 0.0
H1251 H 0.61467 0.08766 0.35336 0.0
H1252 H 0.59623 0.09997 0.32608 0.0
H1253 H 0.59986 0.06561 0.27196 0.0
H1254 H 0.53773 0.10234 0.19934 0.0
H1255 H 0.55166 0.08416 0.22609 0.0
H1256 H 0.55055 0.11368 0.28164 0.0
C1257 C 0.59979 0.08503 0.32596 0.0
C1258 C 0.58884 0.07579 0.27428 0.0
C1259 C 0.61039 0.07799 0.34164 0.0
C1260 C 0.54359 0.11002 0.21191 0.0
C1261 C 0.55151 0.09961 0.22723 0.0
C1262 C 0.56123 0.10312 0.27937 0.0
C1263 C 0.59453 0.07315 0.31006 0.0
C1264 C 0.58409 0.08101 0.29301 0.0
C1265 C 0.5586 0.10909 0.24407 0.0
C1266 C 0.56647 0.09841 0.26072 0.0
H1267 H 0.61451 0.03213 0.32583 0.0
H1268 H 0.59578 0.04432 0.29856 0.0
H1269 H 0.56555 0.09852 0.30948 0.0
H1270 H 0.55076 0.15489 0.23112 0.0
H1271 H 0.56404 0.13684 0.25767 0.0
C1272 C 0.73668 0.98424 0.64543 0.0
C1273 C 0.73542 1.00291 0.63814 0.0
C1274 C 0.74608 0.97004 0.63538 0.0
C1275 C 0.76386 0.95742 0.58721 0.0
H1276 H 0.79869 0.92546 0.61609 0.0
C1277 C 0.816 0.90888 0.54838 0.0
C1278 C 0.81976 0.89078 0.55608 0.0
C1279 C 0.80598 0.92236 0.55868 0.0
C1280 C 0.78886 0.93404 0.60774 0.0
H1281 H 0.74263 0.0209 0.6141 0.0
H1282 H 0.75866 0.99623 0.59658 0.0
H1283 H 0.77976 0.94841 0.63293 0.0
H1284 H 0.81603 0.87296 0.58105 0.0
H1285 H 0.79838 0.89624 0.59888 0.0
H1286 H 0.77272 0.94301 0.56205 0.0
C1287 C 0.7524 0.99249 0.61006 0.0
C1288 C 0.77795 0.94727 0.61746 0.0
C1289 C 0.74319 1.00671 0.62017 0.0
C1290 C 0.81359 0.88677 0.57466 0.0
C1291 C 0.80344 0.90022 0.58494 0.0
C1292 C 0.77466 0.94412 0.5775 0.0
C1293 C 0.75432 0.97402 0.61765 0.0
C1294 C 0.76536 0.95927 0.60735 0.0
C1295 C 0.7992 0.91817 0.57702 0.0
C1296 C 0.78748 0.93227 0.58756 0.0
H1297 H 0.73102 0.98076 0.65927 0.0
H1298 H 0.74702 0.95594 0.64161 0.0
H1299 H 0.75414 0.96615 0.57889 0.0
H1300 H 0.82054 0.91258 0.53416 0.0
H1301 H 0.8035 0.9361 0.55217 0.0
C1302 C 0.14762 0.81756 0.56082 0.0
C1303 C 0.16156 0.8065 0.55244 0.0
C1304 C 0.13467 0.80936 0.57347 0.0
C1305 C 0.12668 0.76721 0.60477 0.0
H1306 H 0.07392 0.78299 0.60206 0.0
C1307 C 0.06619 0.72825 0.64578 0.0
C1308 C 0.05261 0.7396 0.65439 0.0
C1309 C 0.07974 0.7364 0.6337 0.0
C1310 C 0.08865 0.77857 0.60317 0.0
H1311 H 0.17272 0.77804 0.55091 0.0
H1312 H 0.15003 0.76364 0.57285 0.0
H1313 H 0.09693 0.79694 0.58031 0.0
H1314 H 0.04275 0.76852 0.65692 0.0
H1315 H 0.06648 0.78277 0.63601 0.0
H1316 H 0.11828 0.7487 0.62756 0.0
C1317 C 0.14929 0.77878 0.56985 0.0
C1318 C 0.10188 0.78659 0.59069 0.0
C1319 C 0.16231 0.78702 0.55722 0.0
C1320 C 0.05304 0.75936 0.65067 0.0
C1321 C 0.06654 0.7675 0.63851 0.0
C1322 C 0.11342 0.75914 0.61722 0.0
C1323 C 0.13523 0.78982 0.57808 0.0
C1324 C 0.12111 0.78107 0.59133 0.0
C1325 C 0.08004 0.75612 0.62982 0.0
C1326 C 0.09423 0.76474 0.61661 0.0
H1327 H 0.14684 0.83267 0.55781 0.0
H1328 H 0.12435 0.81844 0.57982 0.0
H1329 H 0.14141 0.7628 0.60591 0.0
H1330 H 0.06646 0.71304 0.64848 0.0
H1331 H 0.0898 0.72717 0.62715 0.0
C1332 C 0.26402 0.16121 0.58315 0.0
C1333 C 0.25809 0.15952 0.5637 0.0
C1334 C 0.27862 0.15006 0.59089 0.0
C1335 C 0.29945 0.10323 0.58432 0.0
H1336 H 0.3357 0.12156 0.62459 0.0
C1337 C 0.34791 0.05092 0.62669 0.0
C1338 C 0.35007 0.05401 0.64665 0.0
C1339 C 0.3398 0.06477 0.61468 0.0
C1340 C 0.32558 0.11611 0.61349 0.0
H1341 H 0.26308 0.14503 0.53693 0.0
H1342 H 0.28872 0.12529 0.55049 0.0
H1343 H 0.31644 0.14429 0.60667 0.0
H1344 H 0.34586 0.07455 0.66944 0.0
H1345 H 0.33161 0.09842 0.64871 0.0
H1346 H 0.30798 0.07498 0.5916 0.0
C1347 C 0.28212 0.13544 0.55973 0.0
C1348 C 0.31458 0.12921 0.60312 0.0
C1349 C 0.26764 0.14692 0.55189 0.0
C1350 C 0.34454 0.07163 0.65415 0.0
C1351 C 0.3364 0.08543 0.64217 0.0
C1352 C 0.31037 0.09009 0.59479 0.0
C1353 C 0.2875 0.1366 0.57946 0.0
C1354 C 0.30108 0.12293 0.58864 0.0
C1355 C 0.33358 0.08212 0.62227 0.0
C1356 C 0.32334 0.09628 0.60981 0.0
H1357 H 0.25672 0.17061 0.59265 0.0
H1358 H 0.28215 0.15123 0.60614 0.0
H1359 H 0.28904 0.09782 0.57346 0.0
H1360 H 0.352 0.03756 0.62035 0.0
H1361 H 0.33822 0.06176 0.59943 0.0
C1362 C 0.88348 0.29132 0.56696 0.0
C1363 C 0.88384 0.27128 0.56513 0.0
C1364 C 0.89758 0.30144 0.57832 0.0
C1365 C 0.92407 0.31751 0.61162 0.0
H1366 H 0.97618 0.30039 0.60893 0.0
C1367 C 0.98442 0.33746 0.6684 0.0
C1368 C 1.00339 0.33993 0.66248 0.0
C1369 C 0.96953 0.33187 0.65527 0.0
C1370 C 0.96178 0.30556 0.60968 0.0
H1371 H 0.89862 0.24613 0.57475 0.0
H1372 H 0.92304 0.26365 0.59442 0.0
H1373 H 0.95067 0.2851 0.58872 0.0
H1374 H 0.02138 0.33936 0.63785 0.0
H1375 H 0.99534 0.32974 0.61489 0.0
H1376 H 0.93526 0.33797 0.63268 0.0
C1377 C 0.91221 0.27164 0.58672 0.0
C1378 C 0.94709 0.29661 0.59827 0.0
C1379 C 0.89817 0.26158 0.57545 0.0
C1380 C 1.00697 0.33751 0.64293 0.0
C1381 C 0.99205 0.33187 0.62979 0.0
C1382 C 0.93879 0.32645 0.62312 0.0
C1383 C 0.91231 0.29171 0.58804 0.0
C1384 C 0.928 0.30225 0.59931 0.0
C1385 C 0.97322 0.32858 0.63588 0.0
C1386 C 0.95779 0.32041 0.62247 0.0
H1387 H 0.87272 0.29924 0.5591 0.0
H1388 H 0.89728 0.31691 0.579 0.0
H1389 H 0.90952 0.32217 0.61279 0.0
H1390 H 0.98112 0.33925 0.68334 0.0
H1391 H 0.95526 0.32932 0.66052 0.0
C1392 C 0.72045 0.07403 0.38926 0.0
C1393 C 0.71622 0.05884 0.40166 0.0
C1394 C 0.73276 0.08941 0.39557 0.0
C1395 C 0.75022 0.11264 0.44138 0.0
H1396 H 0.78628 0.14068 0.41026 0.0
C1397 C 0.8059 0.16687 0.4749 0.0
C1398 C 0.80859 0.18455 0.46573 0.0
C1399 C 0.79498 0.15195 0.46592 0.0
C1400 C 0.77613 0.13307 0.41906 0.0
H1401 H 0.72269 0.04703 0.42973 0.0
H1402 H 0.74451 0.07321 0.4404 0.0
H1403 H 0.76731 0.11337 0.39629 0.0
H1404 H 0.80213 0.20025 0.43973 0.0
H1405 H 0.78291 0.17407 0.42398 0.0
H1406 H 0.75905 0.13207 0.46416 0.0
C1407 C 0.73785 0.0738 0.42612 0.0
C1408 C 0.76526 0.11744 0.41105 0.0
C1409 C 0.72546 0.05868 0.41993 0.0
C1410 C 0.80019 0.18687 0.44724 0.0
C1411 C 0.78935 0.17182 0.43815 0.0
C1412 C 0.7611 0.1281 0.44936 0.0
C1413 C 0.74113 0.08973 0.41434 0.0
C1414 C 0.75235 0.10685 0.42223 0.0
C1415 C 0.78649 0.15424 0.44748 0.0
C1416 C 0.77436 0.13838 0.4384 0.0
H1417 H 0.71345 0.07455 0.37512 0.0
H1418 H 0.73497 0.10142 0.3861 0.0
H1419 H 0.74002 0.10525 0.4503 0.0
H1420 H 0.81197 0.16463 0.4892 0.0
H1421 H 0.79323 0.13853 0.47343 0.0
C1422 C 0.9803 0.7358 0.42317 0.0
C1423 C 0.97085 0.7199 0.41401 0.0
C1424 C 0.97019 0.74843 0.43451 0.0
C1425 C 0.92253 0.75273 0.45806 0.0
H1426 H 0.93919 0.80607 0.46374 0.0
C1427 C 0.87518 0.80955 0.49186 0.0
C1428 C 0.88398 0.82054 0.50703 0.0
C1429 C 0.88612 0.79819 0.48009 0.0
C1430 C 0.9344 0.79119 0.46233 0.0
H1431 H 0.94314 0.70535 0.40897 0.0
H1432 H 0.92544 0.72751 0.42777 0.0
H1433 H 0.95732 0.7846 0.44415 0.0
H1434 H 0.9114 0.82866 0.52112 0.0
H1435 H 0.93053 0.80935 0.5001 0.0
H1436 H 0.89921 0.75963 0.47572 0.0
C1437 C 0.94081 0.72997 0.42713 0.0
C1438 C 0.94489 0.77874 0.45117 0.0
C1439 C 0.95098 0.71718 0.41617 0.0
C1440 C 0.90413 0.82046 0.50956 0.0
C1441 C 0.91511 0.80939 0.49751 0.0
C1442 C 0.91186 0.76524 0.46885 0.0
C1443 C 0.95021 0.74577 0.4367 0.0
C1444 C 0.93915 0.75924 0.4488 0.0
C1445 C 0.9062 0.79778 0.48289 0.0
C1446 C 0.91763 0.78463 0.47115 0.0
H1447 H 0.99561 0.73827 0.42184 0.0
H1448 H 0.9782 0.76012 0.44175 0.0
H1449 H 0.91774 0.73783 0.45725 0.0
H1450 H 0.85972 0.8091 0.48954 0.0
H1451 H 0.87881 0.78953 0.46888 0.0
C1452 C 0.32492 0.98198 0.3672 0.0
C1453 C 0.32759 0.99893 0.37805 0.0
C1454 C 0.3117 0.96762 0.37279 0.0
C1455 C 0.27064 0.958 0.40431 0.0
H1456 H 0.29165 0.90774 0.41041 0.0
C1457 C 0.23976 0.90336 0.45723 0.0
C1458 C 0.23911 0.88377 0.45241 0.0
C1459 C 0.24897 0.91679 0.44565 0.0
C1460 C 0.28537 0.92156 0.40852 0.0
H1461 H 0.31818 1.01468 0.40256 0.0
H1462 H 0.29487 0.99007 0.412 0.0
H1463 H 0.30948 0.93251 0.39332 0.0
H1464 H 0.2476 0.86304 0.43139 0.0
H1465 H 0.26364 0.88648 0.41112 0.0
H1466 H 0.24671 0.94726 0.41976 0.0
C1467 C 0.30282 0.98768 0.39923 0.0
C1468 C 0.2956 0.93577 0.39867 0.0
C1469 C 0.31617 1.00179 0.39384 0.0
C1470 C 0.24801 0.87797 0.43568 0.0
C1471 C 0.2572 0.89144 0.42403 0.0
C1472 C 0.26038 0.9438 0.41407 0.0
C1473 C 0.30079 0.97018 0.38914 0.0
C1474 C 0.28858 0.9543 0.39686 0.0
C1475 C 0.25777 0.91105 0.42884 0.0
C1476 C 0.26782 0.92552 0.41675 0.0
H1477 H 0.33383 0.97936 0.35515 0.0
H1478 H 0.31039 0.95433 0.36467 0.0
H1479 H 0.2647 0.97204 0.40293 0.0
H1480 H 0.23341 0.90835 0.47017 0.0
H1481 H 0.24949 0.93168 0.45011 0.0
C1482 C 0.18873 0.21719 0.47666 0.0
C1483 C 0.18223 0.21941 0.49536 0.0
C1484 C 0.17974 0.22663 0.46109 0.0
C1485 C 0.13286 0.24794 0.44801 0.0
H1486 H 0.15904 0.27122 0.40565 0.0
C1487 C 0.09335 0.29713 0.39486 0.0
C1488 C 0.09703 0.2958 0.37521 0.0
C1489 C 0.10455 0.28759 0.40862 0.0
C1490 C 0.15147 0.2646 0.41727 0.0
H1491 H 0.16208 0.2343 0.51246 0.0
H1492 H 0.14693 0.2508 0.4858 0.0
H1493 H 0.17762 0.25522 0.43104 0.0
H1494 H 0.11586 0.28346 0.35484 0.0
H1495 H 0.13526 0.26662 0.37884 0.0
H1496 H 0.10679 0.25722 0.43447 0.0
C1497 C 0.15847 0.24139 0.48286 0.0
C1498 C 0.16215 0.25542 0.43184 0.0
C1499 C 0.16731 0.23199 0.49823 0.0
C1500 C 0.11242 0.28471 0.36978 0.0
C1501 C 0.12371 0.27519 0.38359 0.0
C1502 C 0.12225 0.25708 0.43354 0.0
C1503 C 0.1641 0.23846 0.46397 0.0
C1504 C 0.153 0.24723 0.44761 0.0
C1505 C 0.11985 0.27638 0.40322 0.0
C1506 C 0.13137 0.26582 0.41809 0.0
H1507 H 0.20013 0.20755 0.47394 0.0
H1508 H 0.1845 0.22405 0.44675 0.0
H1509 H 0.12518 0.24136 0.45959 0.0
H1510 H 0.08158 0.30533 0.39969 0.0
H1511 H 0.10126 0.28912 0.42358 0.0
C1512 C 0.66081 0.74078 0.95557 0.0
C1513 C 0.65154 0.73108 0.97034 0.0
C1514 C 0.65171 0.75574 0.94574 0.0
C1515 C 0.60219 0.774 0.9367 0.0
H1516 H 0.62912 0.81581 0.91189 0.0
C1517 C 0.56065 0.83081 0.89353 0.0
C1518 C 0.56707 0.83347 0.87488 0.0
C1519 C 0.57204 0.82135 0.90734 0.0
C1520 C 0.62138 0.80423 0.91878 0.0
H1521 H 0.62618 0.73022 0.98724 0.0
H1522 H 0.61104 0.7567 0.97124 0.0
H1523 H 0.64722 0.79351 0.93178 0.0
H1524 H 0.59086 0.82941 0.85643 0.0
H1525 H 0.61081 0.81351 0.88047 0.0
H1526 H 0.57641 0.78468 0.9237 0.0
C1527 C 0.62481 0.75243 0.9664 0.0
C1528 C 0.63179 0.79132 0.93011 0.0
C1529 C 0.63365 0.73734 0.97582 0.0
C1530 C 0.58556 0.82765 0.87073 0.0
C1531 C 0.59703 0.81854 0.88454 0.0
C1532 C 0.59182 0.787 0.92561 0.0
C1533 C 0.6333 0.76145 0.95072 0.0
C1534 C 0.62237 0.77587 0.93915 0.0
C1535 C 0.5902 0.81467 0.90284 0.0
C1536 C 0.60125 0.80218 0.91631 0.0
H1537 H 0.67454 0.73614 0.95092 0.0
H1538 H 0.65877 0.76219 0.93372 0.0
H1539 H 0.59429 0.7621 0.94288 0.0
H1540 H 0.54638 0.8349 0.89706 0.0
H1541 H 0.5664 0.81873 0.92135 0.0
C1542 C 0.35709 0.60771 0.96361 0.0
C1543 C 0.35526 0.62707 0.96878 0.0
C1544 C 0.34624 0.59955 0.94806 0.0
C1545 C 0.31779 0.61168 0.90401 0.0
H1546 H 0.29076 0.56315 0.91215 0.0
C1547 C 0.25067 0.58639 0.85841 0.0
C1548 C 0.24665 0.56669 0.85553 0.0
C1549 C 0.26669 0.59287 0.86968 0.0
C1550 C 0.29848 0.57651 0.90941 0.0
H1551 H 0.34039 0.6529 0.96116 0.0
H1552 H 0.32188 0.63879 0.93414 0.0
H1553 H 0.31353 0.57604 0.9368 0.0
H1554 H 0.25714 0.53838 0.86128 0.0
H1555 H 0.28534 0.54971 0.88058 0.0
H1556 H 0.30258 0.61231 0.87673 0.0
C1557 C 0.33186 0.62996 0.94203 0.0
C1558 C 0.31153 0.58393 0.92361 0.0
C1559 C 0.34257 0.63808 0.95763 0.0
C1560 C 0.25975 0.55366 0.86321 0.0
C1561 C 0.27583 0.56015 0.87447 0.0
C1562 C 0.30483 0.60422 0.88975 0.0
C1563 C 0.33342 0.61056 0.93715 0.0
C1564 C 0.32104 0.60179 0.92125 0.0
C1565 C 0.2792 0.57983 0.87832 0.0
C1566 C 0.29469 0.58671 0.89242 0.0
H1567 H 0.36688 0.59879 0.97157 0.0
H1568 H 0.34793 0.5846 0.94454 0.0
H1569 H 0.32513 0.62533 0.90161 0.0
H1570 H 0.24092 0.59685 0.85274 0.0
H1571 H 0.26865 0.6081 0.87242 0.0
C1572 C 0.38464 0.29171 0.98123 0.0
C1573 C 0.38137 0.31147 0.98129 0.0
C1574 C 0.3973 0.28377 0.96844 0.0
C1575 C 0.43723 0.29714 0.93594 0.0
H1576 H 0.42644 0.24614 0.91504 0.0
C1577 C 0.48068 0.26567 0.87426 0.0
C1578 C 0.48547 0.24629 0.87536 0.0
C1579 C 0.46814 0.27355 0.88719 0.0
C1580 C 0.42982 0.26033 0.92087 0.0
H1581 H 0.38877 0.33822 0.96743 0.0
H1582 H 0.41047 0.32447 0.94503 0.0
H1583 H 0.40439 0.25988 0.93713 0.0
H1584 H 0.48042 0.22006 0.89105 0.0
H1585 H 0.45869 0.23377 0.91358 0.0
H1586 H 0.46254 0.29762 0.91944 0.0
C1587 C 0.40364 0.31507 0.95519 0.0
C1588 C 0.41713 0.26825 0.93364 0.0
C1589 C 0.39109 0.32302 0.96807 0.0
C1590 C 0.47726 0.23505 0.8898 0.0
C1591 C 0.4646 0.24289 0.90264 0.0
C1592 C 0.44984 0.28925 0.92307 0.0
C1593 C 0.40703 0.29531 0.95516 0.0
C1594 C 0.42061 0.2868 0.94143 0.0
C1595 C 0.45986 0.26229 0.90157 0.0
C1596 C 0.44635 0.27071 0.91534 0.0
H1597 H 0.3777 0.28236 0.99134 0.0
H1598 H 0.39968 0.26858 0.96923 0.0
H1599 H 0.44074 0.31128 0.94181 0.0
H1600 H 0.48678 0.27486 0.8635 0.0
H1601 H 0.46475 0.28847 0.88575 0.0
C1602 C 0.74785 0.38137 0.97831 0.0
C1603 C 0.7551 0.36383 0.98456 0.0
C1604 C 0.75794 0.39295 0.96558 0.0
C1605 C 0.79579 0.39236 0.9298 0.0
H1606 H 0.80004 0.44694 0.94022 0.0
C1607 C 0.85081 0.44298 0.89354 0.0
C1608 C 0.84611 0.46209 0.89013 0.0
C1609 C 0.83825 0.43053 0.903 0.0
C1610 C 0.79874 0.43179 0.93683 0.0
H1611 H 0.77881 0.34486 0.98203 0.0
H1612 H 0.79631 0.36502 0.95977 0.0
H1613 H 0.78132 0.42626 0.9609 0.0
H1614 H 0.82391 0.4827 0.89305 0.0
H1615 H 0.80182 0.46088 0.90913 0.0
H1616 H 0.81329 0.39789 0.90577 0.0
C1617 C 0.78269 0.36969 0.96464 0.0
C1618 C 0.78802 0.4199 0.94877 0.0
C1619 C 0.77262 0.35812 0.97745 0.0
C1620 C 0.82806 0.46812 0.89549 0.0
C1621 C 0.81545 0.45563 0.90491 0.0
C1622 C 0.80645 0.40428 0.91779 0.0
C1623 C 0.77553 0.38733 0.95864 0.0
C1624 C 0.78652 0.4 0.94552 0.0
C1625 C 0.82059 0.43681 0.90925 0.0
C1626 C 0.80821 0.42416 0.92123 0.0
H1627 H 0.73425 0.38615 0.98306 0.0
H1628 H 0.75183 0.40627 0.96103 0.0
H1629 H 0.7947 0.37714 0.92669 0.0
H1630 H 0.86459 0.4378 0.88966 0.0
H1631 H 0.84283 0.41623 0.90619 0.0
C1632 C 0.66343 0.31214 0.10049 0.0
C1633 C 0.67841 0.30135 0.09366 0.0
C1634 C 0.65002 0.30399 0.11274 0.0
C1635 C 0.6415 0.2623 0.14476 0.0
H1636 H 0.58775 0.27249 0.13471 0.0
C1637 C 0.57991 0.21096 0.16568 0.0
C1638 C 0.56252 0.21822 0.17144 0.0
C1639 C 0.59487 0.22323 0.16013 0.0
C1640 C 0.60271 0.26977 0.13799 0.0
H1641 H 0.69094 0.27344 0.09452 0.0
H1642 H 0.66758 0.2592 0.11567 0.0
H1643 H 0.61224 0.2897 0.11692 0.0
H1644 H 0.54739 0.24413 0.17663 0.0
H1645 H 0.57368 0.26581 0.1667 0.0
H1646 H 0.63187 0.24187 0.16533 0.0
C1647 C 0.66637 0.27411 0.11186 0.0
C1648 C 0.6168 0.27963 0.12775 0.0
C1649 C 0.6798 0.28228 0.09967 0.0
C1650 C 0.56071 0.23815 0.17241 0.0
C1651 C 0.57567 0.25052 0.16655 0.0
C1652 C 0.62742 0.25242 0.15493 0.0
C1653 C 0.65121 0.28481 0.11847 0.0
C1654 C 0.63636 0.27571 0.13069 0.0
C1655 C 0.59278 0.24314 0.15996 0.0
C1656 C 0.60782 0.25571 0.15137 0.0
H1657 H 0.66209 0.32696 0.09645 0.0
H1658 H 0.63875 0.31277 0.11776 0.0
H1659 H 0.65642 0.25922 0.14775 0.0
H1660 H 0.5817 0.19565 0.16477 0.0
H1661 H 0.60771 0.21701 0.15497 0.0
C1662 C 0.82469 0.57243 0.10835 0.0
C1663 C 0.84251 0.58119 0.11419 0.0
C1664 C 0.8108 0.58267 0.09804 0.0
C1665 C 0.80372 0.62649 0.06853 0.0
H1666 H 0.75049 0.61732 0.08075 0.0
C1667 C 0.7393 0.66925 0.0348 0.0
C1668 C 0.72266 0.65799 0.02977 0.0
C1669 C 0.75487 0.66121 0.04508 0.0
C1670 C 0.76526 0.62 0.07701 0.0
H1671 H 0.85941 0.6079 0.1135 0.0
H1672 H 0.83533 0.62558 0.09559 0.0
H1673 H 0.77545 0.6005 0.09827 0.0
H1674 H 0.70991 0.62918 0.03097 0.0
H1675 H 0.73657 0.6155 0.04841 0.0
H1676 H 0.79331 0.64602 0.04716 0.0
C1677 C 0.83217 0.61068 0.09878 0.0
C1678 C 0.77963 0.61026 0.08706 0.0
C1679 C 0.84607 0.60046 0.10911 0.0
C1680 C 0.72226 0.6385 0.03478 0.0
C1681 C 0.73761 0.63058 0.04495 0.0
C1682 C 0.78927 0.63629 0.05843 0.0
C1683 C 0.81425 0.60201 0.09323 0.0
C1684 C 0.79907 0.61309 0.08281 0.0
C1685 C 0.75402 0.64179 0.05058 0.0
C1686 C 0.7698 0.63291 0.06232 0.0
H1687 H 0.82144 0.5576 0.11165 0.0
H1688 H 0.79734 0.57533 0.09372 0.0
H1689 H 0.8185 0.62902 0.06476 0.0
H1690 H 0.74013 0.68428 0.03115 0.0
H1691 H 0.76732 0.67028 0.04915 0.0
C1692 C 0.45043 0.714 0.07169 0.0
C1693 C 0.4322 0.70504 0.0733 0.0
C1694 C 0.45796 0.72668 0.08595 0.0
C1695 C 0.44206 0.75787 0.12509 0.0
H1696 H 0.49688 0.76574 0.1352 0.0
C1697 C 0.47518 0.82888 0.15473 0.0
C1698 C 0.49224 0.82924 0.1662 0.0
C1699 C 0.46728 0.81169 0.1471 0.0
C1700 C 0.48151 0.76356 0.13286 0.0
H1701 H 0.40802 0.7016 0.09162 0.0
H1702 H 0.42128 0.72334 0.11676 0.0
H1703 H 0.48488 0.73883 0.11517 0.0
H1704 H 0.5139 0.81161 0.17943 0.0
H1705 H 0.49988 0.78134 0.1663 0.0
H1706 H 0.43866 0.78245 0.1429 0.0
C1707 C 0.42958 0.72103 0.10422 0.0
C1708 C 0.47462 0.74826 0.12109 0.0
C1709 C 0.42198 0.70851 0.08985 0.0
C1710 C 0.50072 0.81181 0.17068 0.0
C1711 C 0.49278 0.7945 0.16299 0.0
C1712 C 0.44894 0.77305 0.13696 0.0
C1713 C 0.44753 0.73061 0.10232 0.0
C1714 C 0.45482 0.74549 0.11663 0.0
C1715 C 0.47617 0.79429 0.15074 0.0
C1716 C 0.46878 0.77644 0.14057 0.0
H1717 H 0.45857 0.71184 0.05902 0.0
H1718 H 0.47165 0.73397 0.08373 0.0
H1719 H 0.42674 0.75638 0.12195 0.0
H1720 H 0.46824 0.84203 0.15099 0.0
H1721 H 0.45466 0.81223 0.13756 0.0
C1722 C 0.2941 0.3861 0.09454 0.0
C1723 C 0.30074 0.38993 0.07608 0.0
C1724 C 0.28308 0.39929 0.10416 0.0
C1725 C 0.25299 0.44204 0.0961 0.0
H1726 H 0.26125 0.44946 0.151 0.0
C1727 C 0.22194 0.50603 0.13692 0.0
C1728 C 0.21621 0.50354 0.15591 0.0
C1729 C 0.23082 0.4914 0.12709 0.0
C1730 C 0.25849 0.44742 0.13572 0.0
H1731 H 0.30046 0.41092 0.05334 0.0
H1732 H 0.28166 0.43393 0.07014 0.0
H1733 H 0.27959 0.42598 0.13429 0.0
H1734 H 0.21502 0.4832 0.17916 0.0
H1735 H 0.23024 0.45758 0.16195 0.0
H1736 H 0.23199 0.46359 0.0975 0.0
C1737 C 0.28482 0.42059 0.07716 0.0
C1738 C 0.26909 0.43389 0.12607 0.0
C1739 C 0.29587 0.4074 0.06755 0.0
C1740 C 0.21914 0.48569 0.16456 0.0
C1741 C 0.2281 0.47103 0.15472 0.0
C1742 C 0.2424 0.45557 0.10574 0.0
C1743 C 0.27826 0.41679 0.09566 0.0
C1744 C 0.26661 0.43102 0.10606 0.0
C1745 C 0.23434 0.47374 0.1359 0.0
C1746 C 0.24504 0.45859 0.12571 0.0
H1747 H 0.29759 0.37297 0.10177 0.0
H1748 H 0.27818 0.39563 0.11824 0.0
H1749 H 0.25032 0.44009 0.08079 0.0
H1750 H 0.22005 0.51956 0.12974 0.0
H1751 H 0.23554 0.49425 0.11276 0.0
C1752 C 0.89711 0.54992 0.82838 0.0
C1753 C 0.89519 0.55737 0.84696 0.0
C1754 C 0.90334 0.56187 0.81357 0.0
C1755 C 0.90774 0.61258 0.79906 0.0
H1756 H 0.95128 0.59709 0.77066 0.0
C1757 C 0.95181 0.66688 0.75496 0.0
C1758 C 0.95993 0.66061 0.73802 0.0
C1759 C 0.94281 0.6538 0.76712 0.0
C1760 C 0.9389 0.60158 0.77816 0.0
H1761 H 0.89756 0.58326 0.86438 0.0
H1762 H 0.90796 0.604 0.83864 0.0
H1763 H 0.93654 0.57488 0.79304 0.0
H1764 H 0.96445 0.63569 0.72032 0.0
H1765 H 0.94843 0.61296 0.7412 0.0
H1766 H 0.90988 0.63918 0.78422 0.0
C1767 C 0.90481 0.58899 0.83546 0.0
C1768 C 0.93046 0.5888 0.79103 0.0
C1769 C 0.89895 0.57705 0.85024 0.0
C1770 C 0.95865 0.64096 0.73344 0.0
C1771 C 0.94946 0.6279 0.74547 0.0
C1772 C 0.916 0.62527 0.78605 0.0
C1773 C 0.90736 0.58153 0.81702 0.0
C1774 C 0.915 0.59427 0.80186 0.0
C1775 C 0.94145 0.6341 0.76255 0.0
C1776 C 0.93193 0.62011 0.77564 0.0
H1777 H 0.89441 0.5348 0.82545 0.0
H1778 H 0.90511 0.55575 0.79947 0.0
H1779 H 0.89568 0.61714 0.80704 0.0
H1780 H 0.95274 0.68188 0.75899 0.0
H1781 H 0.9372 0.65916 0.7803 0.0
C1782 C 0.91443 0.47196 0.20398 0.0
C1783 C 0.92423 0.48867 0.19799 0.0
C1784 C 0.92394 0.45835 0.21529 0.0
C1785 C 0.97374 0.444 0.23123 0.0
H1786 H 0.94621 0.41301 0.26768 0.0
C1787 C 1.01247 0.39577 0.28732 0.0
C1788 C 1.00473 0.37704 0.28934 0.0
C1789 C 1.00255 0.40936 0.2764 0.0
C1790 C 0.9541 0.42147 0.25748 0.0
H1791 H 0.95154 0.50449 0.19999 0.0
H1792 H 0.96784 0.4814 0.22007 0.0
H1793 H 0.92916 0.43666 0.24869 0.0
H1794 H 0.98016 0.35819 0.28176 0.0
H1795 H 0.9628 0.3819 0.26299 0.0
H1796 H 0.99877 0.42906 0.24047 0.0
C1797 C 0.95304 0.47822 0.2155 0.0
C1798 C 0.94428 0.43504 0.24645 0.0
C1799 C 0.94363 0.49162 0.20399 0.0
C1800 C 0.98666 0.37238 0.28037 0.0
C1801 C 0.97661 0.38605 0.26974 0.0
C1802 C 0.98359 0.43064 0.24245 0.0
C1803 C 0.94347 0.46119 0.2212 0.0
C1804 C 0.95391 0.44657 0.23308 0.0
C1805 C 0.98446 0.40471 0.26748 0.0
C1806 C 0.97392 0.41915 0.25571 0.0
H1807 H 0.89953 0.46917 0.19951 0.0
H1808 H 0.916 0.44541 0.21904 0.0
H1809 H 0.98174 0.45211 0.22086 0.0
H1810 H 0.02636 0.39983 0.29392 0.0
H1811 H 1.00899 0.42361 0.2751 0.0
C1812 C 0.64463 0.96256 0.33816 0.0
C1813 C 0.65648 0.97902 0.33588 0.0
C1814 C 0.63916 0.95077 0.32251 0.0
C1815 C 0.63077 0.95324 0.27058 0.0
H1816 H 0.62184 0.89835 0.2749 0.0
C1817 C 0.59391 0.90947 0.20858 0.0
C1818 C 0.57911 0.89645 0.21354 0.0
C1819 C 0.6067 0.91747 0.22261 0.0
C1820 C 0.62417 0.91367 0.27349 0.0
H1821 H 0.67265 0.99559 0.3155 0.0
H1822 H 0.66303 0.97486 0.28789 0.0
H1823 H 0.63921 0.91618 0.30086 0.0
H1824 H 0.56669 0.88091 0.23705 0.0
H1825 H 0.58891 0.89511 0.26174 0.0
H1826 H 0.61528 0.95091 0.24353 0.0
C1827 C 0.65788 0.9712 0.30188 0.0
C1828 C 0.63418 0.92389 0.28834 0.0
C1829 C 0.66351 0.98299 0.31768 0.0
C1830 C 0.57797 0.89087 0.23278 0.0
C1831 C 0.59075 0.89898 0.2469 0.0
C1832 C 0.62078 0.94304 0.25575 0.0
C1833 C 0.64534 0.95515 0.30409 0.0
C1834 C 0.63725 0.94386 0.28723 0.0
C1835 C 0.60497 0.91276 0.24203 0.0
C1836 C 0.61705 0.92317 0.25716 0.0
H1837 H 0.63906 0.95902 0.35202 0.0
H1838 H 0.62933 0.93871 0.32475 0.0
H1839 H 0.63259 0.96863 0.26937 0.0
H1840 H 0.59535 0.9139 0.19384 0.0
H1841 H 0.61772 0.92768 0.21828 0.0
C1842 C 0.15751 0.57927 0.22806 0.0
C1843 C 0.15108 0.56102 0.22122 0.0
C1844 C 0.14599 0.59027 0.23963 0.0
C1845 C 0.09571 0.59561 0.25511 0.0
H1846 H 0.12074 0.6216 0.2992 0.0
C1847 C 0.05513 0.64644 0.30523 0.0
C1848 C 0.05919 0.64518 0.32514 0.0
C1849 C 0.06609 0.63675 0.29199 0.0
C1850 C 0.11345 0.61438 0.28702 0.0
H1851 H 0.12701 0.54045 0.22088 0.0
H1852 H 0.10693 0.55963 0.24084 0.0
H1853 H 0.13981 0.60386 0.27707 0.0
H1854 H 0.07842 0.63286 0.34649 0.0
H1855 H 0.09737 0.61604 0.32358 0.0
H1856 H 0.0693 0.60594 0.26526 0.0
C1857 C 0.12091 0.56549 0.23723 0.0
C1858 C 0.12446 0.60434 0.27415 0.0
C1859 C 0.13248 0.55443 0.22576 0.0
C1860 C 0.07468 0.63409 0.33135 0.0
C1861 C 0.08572 0.62455 0.31813 0.0
C1862 C 0.0847 0.60579 0.26792 0.0
C1863 C 0.1276 0.58345 0.24464 0.0
C1864 C 0.11578 0.59469 0.25803 0.0
C1865 C 0.08159 0.62566 0.29823 0.0
C1866 C 0.09338 0.61524 0.28417 0.0
H1867 H 0.17171 0.58489 0.22495 0.0
H1868 H 0.15158 0.60412 0.24476 0.0
H1869 H 0.08847 0.58853 0.24283 0.0
H1870 H 0.04326 0.65467 0.29984 0.0
H1871 H 0.06252 0.63812 0.27682 0.0
C1872 C 0.44677 0.16309 0.20976 0.0
C1873 C 0.46409 0.17324 0.21473 0.0
C1874 C 0.43574 0.1545 0.22382 0.0
C1875 C 0.42766 0.15278 0.27598 0.0
H1876 H 0.41043 0.10037 0.26445 0.0
C1877 C 0.40314 0.10064 0.33457 0.0
C1878 C 0.38862 0.08657 0.33019 0.0
C1879 C 0.41023 0.11261 0.32037 0.0
C1880 C 0.41478 0.11509 0.26782 0.0
H1881 H 0.4829 0.18311 0.23857 0.0
H1882 H 0.46353 0.16807 0.26328 0.0
H1883 H 0.42678 0.11908 0.24033 0.0
H1884 H 0.36978 0.07449 0.30739 0.0
H1885 H 0.38199 0.09568 0.28246 0.0
H1886 H 0.41574 0.14874 0.30353 0.0
C1887 C 0.45849 0.16683 0.24841 0.0
C1888 C 0.42424 0.12584 0.25398 0.0
C1889 C 0.46959 0.17547 0.23426 0.0
C1890 C 0.38097 0.08515 0.31125 0.0
C1891 C 0.38809 0.09721 0.29695 0.0
C1892 C 0.4181 0.14205 0.28981 0.0
C1893 C 0.4417 0.1558 0.24328 0.0
C1894 C 0.43096 0.14477 0.25792 0.0
C1895 C 0.40299 0.11097 0.30129 0.0
C1896 C 0.41172 0.12296 0.28602 0.0
H1897 H 0.44196 0.16123 0.19486 0.0
H1898 H 0.42269 0.1465 0.21937 0.0
H1899 H 0.43241 0.16738 0.2794 0.0
H1900 H 0.40942 0.1022 0.34899 0.0
H1901 H 0.42188 0.12275 0.32428 0.0
C1902 C 0.08556 0.38817 0.72625 0.0
C1903 C 0.0681 0.3938 0.71761 0.0
C1904 C 0.09888 0.40179 0.73415 0.0
C1905 C 0.09965 0.45032 0.75504 0.0
H1906 H 0.15454 0.44331 0.76031 0.0
C1907 C 0.14449 0.48474 0.81706 0.0
C1908 C 0.16262 0.49323 0.81368 0.0
C1909 C 0.13451 0.47373 0.80292 0.0
C1910 C 0.13928 0.44562 0.75877 0.0
H1911 H 0.05164 0.41831 0.70922 0.0
H1912 H 0.07506 0.4421 0.72261 0.0
H1913 H 0.13469 0.42266 0.73832 0.0
H1914 H 0.18474 0.49631 0.79286 0.0
H1915 H 0.16712 0.47685 0.7679 0.0
H1916 H 0.10414 0.47316 0.77547 0.0
C1917 C 0.07824 0.42709 0.72375 0.0
C1918 C 0.12786 0.43367 0.74632 0.0
C1919 C 0.06484 0.41345 0.71595 0.0
C1920 C 0.1708 0.48995 0.7959 0.0
C1921 C 0.16073 0.47882 0.78163 0.0
C1922 C 0.11102 0.46223 0.76741 0.0
C1923 C 0.09514 0.42142 0.73351 0.0
C1924 C 0.10781 0.43559 0.74463 0.0
C1925 C 0.1423 0.47088 0.78491 0.0
C1926 C 0.13088 0.4597 0.76986 0.0
H1927 H 0.08859 0.37316 0.72776 0.0
H1928 H 0.11161 0.39681 0.74167 0.0
H1929 H 0.08429 0.45218 0.75434 0.0
H1930 H 0.1378 0.48674 0.83064 0.0
H1931 H 0.1206 0.46742 0.80614 0.0
C1932 C 0.58222 0.17016 0.7732 0.0
C1933 C 0.58056 0.16902 0.79324 0.0
C1934 C 0.59343 0.15736 0.76326 0.0
C1935 C 0.61834 0.11057 0.76862 0.0
H1936 H 0.64543 0.12822 0.72423 0.0
C1937 C 0.68096 0.0695 0.73797 0.0
C1938 C 0.68263 0.06787 0.71795 0.0
C1939 C 0.66718 0.08094 0.74588 0.0
C1940 C 0.63778 0.12294 0.73644 0.0
H1941 H 0.58974 0.15333 0.81842 0.0
H1942 H 0.60954 0.13137 0.80133 0.0
H1943 H 0.62474 0.14985 0.74071 0.0
H1944 H 0.67073 0.07712 0.69056 0.0
H1945 H 0.64663 0.09753 0.70446 0.0
H1946 H 0.63189 0.08385 0.76464 0.0
C1947 C 0.6018 0.14186 0.79308 0.0
C1948 C 0.62581 0.1354 0.74596 0.0
C1949 C 0.59042 0.15456 0.803 0.0
C1950 C 0.66983 0.07795 0.70601 0.0
C1951 C 0.65611 0.08976 0.71401 0.0
C1952 C 0.63043 0.09822 0.75922 0.0
C1953 C 0.60356 0.14302 0.773 0.0
C1954 C 0.61597 0.12951 0.76236 0.0
C1955 C 0.65462 0.09142 0.73411 0.0
C1956 C 0.6405 0.10424 0.74309 0.0
H1957 H 0.57464 0.18085 0.76507 0.0
H1958 H 0.59393 0.15864 0.74783 0.0
H1959 H 0.61077 0.10513 0.7808 0.0
H1960 H 0.69047 0.06196 0.7477 0.0
H1961 H 0.66672 0.08194 0.76136 0.0
C1962 C 0.50573 0.92295 0.81181 0.0
C1963 C 0.49913 0.90514 0.81878 0.0
C1964 C 0.49393 0.93388 0.79977 0.0
C1965 C 0.44315 0.93983 0.7822 0.0
H1966 H 0.46727 0.96485 0.73949 0.0
C1967 C 0.39826 0.97651 0.72177 0.0
C1968 C 0.40544 0.99418 0.71497 0.0
C1969 C 0.40962 0.9652 0.73392 0.0
C1970 C 0.46028 0.95815 0.75143 0.0
H1971 H 0.47448 0.88528 0.81888 0.0
H1972 H 0.45393 0.90432 0.7979 0.0
H1973 H 0.48662 0.94676 0.76228 0.0
H1974 H 0.43057 1.01345 0.71542 0.0
H1975 H 0.45027 0.99385 0.73651 0.0
H1976 H 0.41679 0.95127 0.77132 0.0
C1977 C 0.46825 0.90992 0.80185 0.0
C1978 C 0.47143 0.94775 0.76458 0.0
C1979 C 0.48007 0.89895 0.81393 0.0
C1980 C 0.42453 0.9999 0.72021 0.0
C1981 C 0.43589 0.98859 0.73234 0.0
C1982 C 0.43198 0.95025 0.76903 0.0
C1983 C 0.47513 0.92738 0.79426 0.0
C1984 C 0.46308 0.93848 0.78024 0.0
C1985 C 0.42853 0.97119 0.73963 0.0
C1986 C 0.44038 0.95963 0.75345 0.0
H1987 H 0.52027 0.92826 0.81523 0.0
H1988 H 0.49967 0.94741 0.79461 0.0
H1989 H 0.43618 0.93312 0.79414 0.0
H1990 H 0.38364 0.97159 0.7181 0.0
H1991 H 0.40351 0.95176 0.73892 0.0
loop_
_geom_bond_atom_site_label_1
_geom_bond_atom_site_label_2
_geom_bond_distance
_geom_bond_site_symmetry_2
_ccdc_geom_bond_type
Cu0 N1 1.999 1_545 S
Cu0 O6 1.974 . S
Cu0 N11 1.985 . S
Cu0 O20 1.949 1_545 S
N1 Cu0 1.999 1_565 S
N1 C3 1.263 . S
N1 C5 1.389 . S
N2 C3 1.358 . S
N2 C4 1.400 . S
C3 N1 1.263 . S
C3 N2 1.358 . S
C3 H9 0.930 1_565 S
C4 N2 1.400 . S
C4 C5 1.351 . S
C4 H21 0.930 . S
C5 N1 1.389 . S
C5 C4 1.351 . S
C5 H10 0.930 . S
O6 Cu0 1.974 . S
O6 C16 1.282 . S
C7 O8 1.261 . S
C7 O20 1.257 . S
O8 C7 1.261 . S
H9 C3 0.930 1_545 S
H10 C5 0.930 . S
N11 Cu0 1.985 . S
N11 C13 1.335 . S
N11 C14 1.390 . S
N12 C13 1.345 . S
N12 C15 1.336 . S
C13 N11 1.335 . S
C13 N12 1.345 . S
C13 H18 0.930 . S
C14 N11 1.390 . S
C14 C15 1.346 . S
C14 H19 0.930 . S
C15 N12 1.336 . S
C15 C14 1.346 . S
C15 H22 0.929 . S
C16 O6 1.282 . S
C16 O17 1.216 . S
O17 C16 1.216 . S
H18 C13 0.930 . S
H19 C14 0.930 . S
O20 Cu0 1.949 1_565 S
O20 C7 1.257 . S
H21 C4 0.930 . S
H22 C15 0.929 . S
Cu23 N24 1.999 . S
Cu23 O29 1.974 1_455 S
Cu23 N34 1.985 1_455 S
Cu23 O43 1.959 . S
N24 Cu23 1.999 . S
N24 C26 1.263 . S
N24 C28 1.389 . S
N25 C26 1.358 . S
N25 C27 1.400 . S
C26 N24 1.263 . S
C26 N25 1.358 . S
C26 H32 0.930 . S
C27 N25 1.400 . S
C27 C28 1.351 . S
C27 H44 0.930 . S
C28 N24 1.389 . S
C28 C27 1.351 . S
C28 H33 0.930 . S
O29 Cu23 1.974 1_655 S
O29 C39 1.282 . S
C30 O31 1.261 . S
C30 O43 1.251 . S
O31 C30 1.261 . S
H32 C26 0.930 . S
H33 C28 0.930 . S
N34 Cu23 1.985 1_655 S
N34 C36 1.335 . S
N34 C37 1.390 . S
N35 C36 1.345 . S
N35 C38 1.336 . S
C36 N34 1.335 . S
C36 N35 1.345 . S
C36 H41 0.930 1_655 S
C37 N34 1.390 . S
C37 C38 1.346 . S
C37 H42 0.930 . S
C38 N35 1.336 . S
C38 C37 1.346 . S
C38 H45 0.929 . S
C39 O29 1.282 . S
C39 O40 1.216 . S
O40 C39 1.216 . S
H41 C36 0.930 1_455 S
H42 C37 0.930 . S
O43 Cu23 1.959 . S
O43 C30 1.251 . S
H44 C27 0.930 . S
H45 C38 0.929 . S
Cu46 N47 1.999 . S
Cu46 O52 1.974 1_545 S
Cu46 N57 1.985 1_545 S
Cu46 O66 1.959 . S
N47 Cu46 1.999 . S
N47 C49 1.263 . S
N47 C51 1.389 . S
N48 C49 1.358 . S
N48 C50 1.400 . S
C49 N47 1.263 . S
C49 N48 1.358 . S
C49 H55 0.930 . S
C50 N48 1.400 . S
C50 C51 1.351 . S
C50 H67 0.930 . S
C51 N47 1.389 . S
C51 C50 1.351 . S
C51 H56 0.930 . S
O52 Cu46 1.974 1_565 S
O52 C62 1.282 . S
C53 O54 1.261 . S
C53 O66 1.251 . S
O54 C53 1.261 . S
H55 C49 0.930 . S
H56 C51 0.930 . S
N57 Cu46 1.985 1_565 S
N57 C59 1.335 . S
N57 C60 1.390 . S
N58 C59 1.345 . S
N58 C61 1.336 . S
C59 N57 1.335 . S
C59 N58 1.345 . S
C59 H64 0.930 . S
C60 N57 1.390 . S
C60 C61 1.346 . S
C60 H65 0.930 . S
C61 N58 1.336 . S
C61 C60 1.346 . S
C61 H68 0.929 . S
C62 O52 1.282 . S
C62 O63 1.216 . S
O63 C62 1.216 . S
H64 C59 0.930 . S
H65 C60 0.930 . S
O66 Cu46 1.959 . S
O66 C53 1.251 . S
H67 C50 0.930 . S
H68 C61 0.929 . S
Cu69 N70 1.999 . S
Cu69 O75 1.974 1_455 S
Cu69 N80 1.985 1_455 S
Cu69 O89 1.959 . S
N70 Cu69 1.999 . S
N70 C72 1.263 . S
N70 C74 1.389 . S
N71 C72 1.358 . S
N71 C73 1.400 . S
C72 N70 1.263 . S
C72 N71 1.358 . S
C72 H78 0.930 . S
C73 N71 1.400 . S
C73 C74 1.351 . S
C73 H90 0.930 . S
C74 N70 1.389 . S
C74 C73 1.351 . S
C74 H79 0.930 . S
O75 Cu69 1.974 1_655 S
O75 C85 1.282 . S
C76 O77 1.261 . S
C76 O89 1.251 . S
O77 C76 1.261 . S
H78 C72 0.930 . S
H79 C74 0.930 . S
N80 Cu69 1.985 1_655 S
N80 C82 1.335 . S
N80 C83 1.390 . S
N81 C82 1.345 . S
N81 C84 1.336 . S
C82 N80 1.335 . S
C82 N81 1.345 . S
C82 H87 0.930 . S
C83 N80 1.390 . S
C83 C84 1.346 . S
C83 H88 0.930 . S
C84 N81 1.336 . S
C84 C83 1.346 . S
C84 H91 0.929 . S
C85 O75 1.282 . S
C85 O86 1.216 . S
O86 C85 1.216 . S
H87 C82 0.930 . S
H88 C83 0.930 . S
O89 Cu69 1.959 . S
O89 C76 1.251 . S
H90 C73 0.930 . S
H91 C84 0.929 . S
Cu92 N93 1.999 . S
Cu92 O98 1.974 1_545 S
Cu92 N103 1.985 1_545 S
Cu92 O112 1.959 . S
N93 Cu92 1.999 . S
N93 C95 1.263 . S
N93 C97 1.389 . S
N94 C95 1.358 . S
N94 C96 1.400 . S
C95 N93 1.263 . S
C95 N94 1.358 . S
C95 H101 0.930 . S
C96 N94 1.400 . S
C96 C97 1.351 . S
C96 H113 0.930 . S
C97 N93 1.389 . S
C97 C96 1.351 . S
C97 H102 0.930 . S
O98 Cu92 1.974 1_565 S
O98 C108 1.282 . S
C99 O100 1.261 . S
C99 O112 1.251 . S
O100 C99 1.261 . S
H101 C95 0.930 . S
H102 C97 0.930 . S
N103 Cu92 1.985 1_565 S
N103 C105 1.335 . S
N103 C106 1.390 . S
N104 C105 1.345 . S
N104 C107 1.336 . S
C105 N103 1.335 . S
C105 N104 1.345 . S
C105 H110 0.930 . S
C106 N103 1.390 . S
C106 C107 1.346 . S
C106 H111 0.930 . S
C107 N104 1.336 . S
C107 C106 1.346 . S
C107 H114 0.929 . S
C108 O98 1.282 . S
C108 O109 1.216 . S
O109 C108 1.216 . S
H110 C105 0.930 . S
H111 C106 0.930 . S
O112 Cu92 1.959 . S
O112 C99 1.251 . S
H113 C96 0.930 . S
H114 C107 0.929 . S
Cu115 N116 1.999 . S
Cu115 O121 1.974 1_455 S
Cu115 N126 1.985 1_455 S
Cu115 O135 1.959 . S
N116 Cu115 1.999 . S
N116 C118 1.263 . S
N116 C120 1.389 . S
N117 C118 1.358 . S
N117 C119 1.400 . S
C118 N116 1.263 . S
C118 N117 1.358 . S
C118 H124 0.930 . S
C119 N117 1.400 . S
C119 C120 1.351 . S
C119 H136 0.930 . S
C120 N116 1.389 . S
C120 C119 1.351 . S
C120 H125 0.930 . S
O121 Cu115 1.974 1_655 S
O121 C131 1.282 . S
C122 O123 1.261 . S
C122 O135 1.251 . S
O123 C122 1.261 . S
H124 C118 0.930 . S
H125 C120 0.930 . S
N126 Cu115 1.985 1_655 S
N126 C128 1.335 . S
N126 C129 1.390 . S
N127 C128 1.345 . S
N127 C130 1.336 . S
C128 N126 1.335 . S
C128 N127 1.345 . S
C128 H133 0.930 1_655 S
C129 N126 1.390 . S
C129 C130 1.346 . S
C129 H134 0.930 . S
C130 N127 1.336 . S
C130 C129 1.346 . S
C130 H137 0.929 . S
C131 O121 1.282 . S
C131 O132 1.216 . S
O132 C131 1.216 . S
H133 C128 0.930 1_455 S
H134 C129 0.930 . S
O135 Cu115 1.959 . S
O135 C122 1.251 . S
H136 C119 0.930 . S
H137 C130 0.929 . S
Cu138 N139 1.999 1_545 S
Cu138 O144 1.974 . S
Cu138 N149 1.985 . S
Cu138 O158 1.959 1_545 S
N139 Cu138 1.999 1_565 S
N139 C141 1.263 . S
N139 C143 1.389 . S
N140 C141 1.358 . S
N140 C142 1.400 . S
C141 N139 1.263 . S
C141 N140 1.358 . S
C141 H147 0.930 . S
C142 N140 1.400 . S
C142 C143 1.351 . S
C142 H159 0.930 . S
C143 N139 1.389 . S
C143 C142 1.351 . S
C143 H148 0.930 . S
O144 Cu138 1.974 . S
O144 C154 1.282 . S
C145 O146 1.261 . S
C145 O158 1.251 . S
O146 C145 1.261 . S
H147 C141 0.930 . S
H148 C143 0.930 . S
N149 Cu138 1.985 . S
N149 C151 1.335 . S
N149 C152 1.390 . S
N150 C151 1.345 . S
N150 C153 1.336 . S
C151 N149 1.335 . S
C151 N150 1.345 . S
C151 H156 0.930 . S
C152 N149 1.390 . S
C152 C153 1.346 . S
C152 H157 0.930 . S
C153 N150 1.336 . S
C153 C152 1.346 . S
C153 H160 0.929 . S
C154 O144 1.282 . S
C154 O155 1.216 . S
O155 C154 1.216 . S
H156 C151 0.930 . S
H157 C152 0.930 . S
O158 Cu138 1.959 1_565 S
O158 C145 1.251 . S
H159 C142 0.930 . S
H160 C153 0.929 . S
Cu161 N162 1.999 . S
Cu161 O167 1.974 1_455 S
Cu161 N172 1.985 1_455 S
Cu161 O181 1.959 . S
N162 Cu161 1.999 . S
N162 C164 1.263 . S
N162 C166 1.389 . S
N163 C164 1.358 . S
N163 C165 1.400 . S
C164 N162 1.263 . S
C164 N163 1.358 . S
C164 H170 0.930 . S
C165 N163 1.400 . S
C165 C166 1.351 . S
C165 H182 0.930 . S
C166 N162 1.389 . S
C166 C165 1.351 . S
C166 H171 0.930 . S
O167 Cu161 1.974 1_655 S
O167 C177 1.282 . S
C168 O169 1.261 . S
C168 O181 1.251 . S
O169 C168 1.261 . S
H170 C164 0.930 . S
H171 C166 0.930 . S
N172 Cu161 1.985 1_655 S
N172 C174 1.335 . S
N172 C175 1.390 . S
N173 C174 1.345 . S
N173 C176 1.336 . S
C174 N172 1.335 . S
C174 N173 1.345 . S
C174 H179 0.930 . S
C175 N172 1.390 . S
C175 C176 1.346 . S
C175 H180 0.930 . S
C176 N173 1.336 . S
C176 C175 1.346 . S
C176 H183 0.929 . S
C177 O167 1.282 . S
C177 O178 1.216 . S
O178 C177 1.216 . S
H179 C174 0.930 . S
H180 C175 0.930 . S
O181 Cu161 1.959 . S
O181 C168 1.251 . S
H182 C165 0.930 . S
H183 C176 0.929 . S
Cu184 N185 1.999 . S
Cu184 O190 1.974 1_554 S
Cu184 N195 1.985 1_554 S
Cu184 O204 1.959 . S
N185 Cu184 1.999 . S
N185 C187 1.263 . S
N185 C189 1.389 . S
N186 C187 1.358 . S
N186 C188 1.400 . S
C187 N185 1.263 . S
C187 N186 1.358 . S
C187 H193 0.930 . S
C188 N186 1.400 . S
C188 C189 1.351 . S
C188 H205 0.930 . S
C189 N185 1.389 . S
C189 C188 1.351 . S
C189 H194 0.930 . S
O190 Cu184 1.974 1_556 S
O190 C200 1.282 . S
C191 O192 1.261 . S
C191 O204 1.251 . S
O192 C191 1.261 . S
H193 C187 0.930 . S
H194 C189 0.930 . S
N195 Cu184 1.985 1_556 S
N195 C197 1.335 . S
N195 C198 1.390 . S
N196 C197 1.345 . S
N196 C199 1.336 . S
C197 N195 1.335 . S
C197 N196 1.345 . S
C197 H202 0.947 . S
C198 N195 1.390 . S
C198 C199 1.346 . S
C198 H203 0.930 . S
C199 N196 1.336 . S
C199 C198 1.346 . S
C199 H206 0.929 . S
C200 O190 1.282 . S
C200 O201 1.216 . S
O201 C200 1.216 . S
H202 C197 0.947 . S
H203 C198 0.930 . S
O204 Cu184 1.959 . S
O204 C191 1.251 . S
H205 C188 0.930 . S
H206 C199 0.929 . S
Cu207 N208 1.999 1_554 S
Cu207 O213 1.974 . S
Cu207 N218 1.985 . S
Cu207 O227 1.959 1_554 S
N208 Cu207 1.999 1_556 S
N208 C210 1.263 . S
N208 C212 1.389 . S
N209 C210 1.358 . S
N209 C211 1.400 . S
C210 N208 1.263 . S
C210 N209 1.358 . S
C210 H216 0.930 . S
C211 N209 1.400 . S
C211 C212 1.351 . S
C211 H228 0.930 . S
C212 N208 1.389 . S
C212 C211 1.351 . S
C212 H217 0.930 . S
O213 Cu207 1.974 . S
O213 C223 1.282 . S
C214 O215 1.261 . S
C214 O227 1.251 . S
O215 C214 1.261 . S
H216 C210 0.930 . S
H217 C212 0.930 . S
N218 Cu207 1.985 . S
N218 C220 1.335 . S
N218 C221 1.390 . S
N219 C220 1.345 . S
N219 C222 1.336 . S
C220 N218 1.335 . S
C220 N219 1.345 . S
C220 H225 0.930 . S
C221 N218 1.390 . S
C221 C222 1.346 . S
C221 H226 0.930 . S
C222 N219 1.336 . S
C222 C221 1.346 . S
C222 H229 0.929 . S
C223 O213 1.282 . S
C223 O224 1.216 . S
O224 C223 1.216 . S
H225 C220 0.930 . S
H226 C221 0.930 . S
O227 Cu207 1.959 1_556 S
O227 C214 1.251 . S
H228 C211 0.930 . S
H229 C222 0.929 . S
Cu230 N231 1.988 1_556 S
Cu230 O236 1.983 . S
Cu230 N241 1.996 . S
Cu230 O250 1.949 1_556 S
N231 Cu230 1.988 1_554 S
N231 C233 1.263 . S
N231 C235 1.389 . S
N232 C233 1.358 . S
N232 C234 1.400 . S
C233 N231 1.263 . S
C233 N232 1.358 . S
C233 H239 0.930 . S
C234 N232 1.400 . S
C234 C235 1.351 . S
C234 H251 0.930 . S
C235 N231 1.389 . S
C235 C234 1.351 . S
C235 H240 0.930 . S
O236 Cu230 1.983 . S
O236 C246 1.282 . S
C237 O238 1.261 . S
C237 O250 1.251 . S
O238 C237 1.261 . S
H239 C233 0.930 . S
H240 C235 0.930 . S
N241 Cu230 1.996 . S
N241 C243 1.335 . S
N241 C244 1.390 . S
N242 C243 1.345 . S
N242 C245 1.336 . S
C243 N241 1.335 . S
C243 N242 1.345 . S
C243 H248 0.930 . S
C244 N241 1.390 . S
C244 C245 1.346 . S
C244 H249 0.930 . S
C245 N242 1.336 . S
C245 C244 1.346 . S
C245 H252 0.929 . S
C246 O236 1.282 . S
C246 O247 1.216 . S
O247 C246 1.216 . S
H248 C243 0.930 . S
H249 C244 0.930 . S
O250 Cu230 1.949 1_554 S
O250 C237 1.251 . S
H251 C234 0.930 . S
H252 C245 0.929 . S
Cu253 N254 1.999 1_554 S
Cu253 O259 1.974 . S
Cu253 N264 1.985 . S
Cu253 O273 1.959 1_554 S
N254 Cu253 1.999 1_556 S
N254 C256 1.263 . S
N254 C258 1.389 . S
N255 C256 1.358 . S
N255 C257 1.400 . S
C256 N254 1.263 . S
C256 N255 1.358 . S
C256 H262 0.930 . S
C257 N255 1.400 . S
C257 C258 1.351 . S
C257 H274 0.930 . S
C258 N254 1.389 . S
C258 C257 1.351 . S
C258 H263 0.930 . S
O259 Cu253 1.974 . S
O259 C269 1.282 . S
C260 O261 1.261 . S
C260 O273 1.251 . S
O261 C260 1.261 . S
H262 C256 0.930 . S
H263 C258 0.930 . S
N264 Cu253 1.985 . S
N264 C266 1.335 . S
N264 C267 1.390 . S
N265 C266 1.345 . S
N265 C268 1.336 . S
C266 N264 1.335 . S
C266 N265 1.345 . S
C266 H271 0.930 . S
C267 N264 1.390 . S
C267 C268 1.346 . S
C267 H272 0.930 . S
C268 N265 1.336 . S
C268 C267 1.346 . S
C268 H275 0.929 . S
C269 O259 1.282 . S
C269 O270 1.216 . S
O270 C269 1.216 . S
H271 C266 0.930 . S
H272 C267 0.930 . S
O273 Cu253 1.959 1_556 S
O273 C260 1.251 . S
H274 C257 0.930 . S
H275 C268 0.929 . S
Cu276 N277 1.999 . S
Cu276 O282 1.974 . S
Cu276 N287 1.985 . S
Cu276 O296 1.959 . S
N277 Cu276 1.999 . S
N277 C279 1.263 . S
N277 C281 1.389 . S
N278 C279 1.358 . S
N278 C280 1.400 . S
C279 N277 1.263 . S
C279 N278 1.358 . S
C279 H285 0.930 . S
C280 N278 1.400 . S
C280 C281 1.351 . S
C280 H297 0.930 . S
C281 N277 1.389 . S
C281 C280 1.351 . S
C281 H286 0.930 . S
O282 Cu276 1.974 . S
O282 C292 1.282 . S
C283 O284 1.261 . S
C283 O296 1.251 . S
O284 C283 1.261 . S
H285 C279 0.930 . S
H286 C281 0.930 . S
N287 Cu276 1.985 . S
N287 C289 1.335 . S
N287 C290 1.390 . S
N288 C289 1.345 . S
N288 C291 1.336 . S
C289 N287 1.335 . S
C289 N288 1.345 . S
C289 H294 0.930 . S
C290 N287 1.390 . S
C290 C291 1.346 . S
C290 H295 0.930 . S
C291 N288 1.336 . S
C291 C290 1.346 . S
C291 H298 0.929 . S
C292 O282 1.282 . S
C292 O293 1.216 . S
O293 C292 1.216 . S
H294 C289 0.930 . S
H295 C290 0.930 . S
O296 Cu276 1.959 . S
O296 C283 1.251 . S
H297 C280 0.930 . S
H298 C291 0.929 . S
Cu299 N300 1.999 . S
Cu299 O305 1.974 . S
Cu299 N310 1.985 . S
Cu299 O319 1.959 . S
N300 Cu299 1.999 . S
N300 C302 1.263 . S
N300 C304 1.389 . S
N301 C302 1.358 . S
N301 C303 1.400 . S
C302 N300 1.263 . S
C302 N301 1.358 . S
C302 H308 0.930 . S
C303 N301 1.400 . S
C303 C304 1.351 . S
C303 H320 0.930 . S
C304 N300 1.389 . S
C304 C303 1.351 . S
C304 H309 0.930 . S
O305 Cu299 1.974 . S
O305 C315 1.282 . S
C306 O307 1.261 . S
C306 O319 1.251 . S
O307 C306 1.261 . S
H308 C302 0.930 . S
H309 C304 0.930 . S
N310 Cu299 1.985 . S
N310 C312 1.335 . S
N310 C313 1.390 . S
N311 C312 1.345 . S
N311 C314 1.336 . S
C312 N310 1.335 . S
C312 N311 1.345 . S
C312 H317 0.930 . S
C313 N310 1.390 . S
C313 C314 1.346 . S
C313 H318 0.930 . S
C314 N311 1.336 . S
C314 C313 1.346 . S
C314 H321 0.929 . S
C315 O305 1.282 . S
C315 O316 1.216 . S
O316 C315 1.216 . S
H317 C312 0.930 . S
H318 C313 0.930 . S
O319 Cu299 1.959 . S
O319 C306 1.251 . S
H320 C303 0.930 . S
H321 C314 0.929 . S
Cu322 N323 1.999 . S
Cu322 O328 1.974 . S
Cu322 N333 1.985 . S
Cu322 O342 1.959 . S
N323 Cu322 1.999 . S
N323 C325 1.263 . S
N323 C327 1.389 . S
N324 C325 1.358 . S
N324 C326 1.400 . S
C325 N323 1.263 . S
C325 N324 1.358 . S
C325 H331 0.930 . S
C326 N324 1.400 . S
C326 C327 1.351 . S
C326 H343 0.930 . S
C327 N323 1.389 . S
C327 C326 1.351 . S
C327 H332 0.930 . S
O328 Cu322 1.974 . S
O328 C338 1.282 . S
C329 O330 1.261 . S
C329 O342 1.251 . S
O330 C329 1.261 . S
H331 C325 0.930 . S
H332 C327 0.930 . S
N333 Cu322 1.985 . S
N333 C335 1.335 . S
N333 C336 1.390 . S
N334 C335 1.345 . S
N334 C337 1.336 . S
C335 N333 1.335 . S
C335 N334 1.345 . S
C335 H340 0.930 . S
C336 N333 1.390 . S
C336 C337 1.346 . S
C336 H341 0.930 . S
C337 N334 1.336 . S
C337 C336 1.346 . S
C337 H344 0.929 . S
C338 O328 1.282 . S
C338 O339 1.216 . S
O339 C338 1.216 . S
H340 C335 0.930 . S
H341 C336 0.930 . S
O342 Cu322 1.959 . S
O342 C329 1.251 . S
H343 C326 0.930 . S
H344 C337 0.929 . S
Cu345 N346 1.999 . S
Cu345 O351 1.974 . S
Cu345 N356 1.985 . S
Cu345 O365 1.959 . S
N346 Cu345 1.999 . S
N346 C348 1.263 . S
N346 C350 1.389 . S
N347 C348 1.358 . S
N347 C349 1.400 . S
C348 N346 1.263 . S
C348 N347 1.358 . S
C348 H354 0.930 . S
C349 N347 1.400 . S
C349 C350 1.351 . S
C349 H366 0.930 . S
C350 N346 1.389 . S
C350 C349 1.351 . S
C350 H355 0.930 . S
O351 Cu345 1.974 . S
O351 C361 1.282 . S
C352 O353 1.261 . S
C352 O365 1.251 . S
O353 C352 1.261 . S
H354 C348 0.930 . S
H355 C350 0.930 . S
N356 Cu345 1.985 . S
N356 C358 1.335 . S
N356 C359 1.390 . S
N357 C358 1.345 . S
N357 C360 1.336 . S
C358 N356 1.335 . S
C358 N357 1.345 . S
C358 H363 0.930 . S
C359 N356 1.390 . S
C359 C360 1.346 . S
C359 H364 0.930 . S
C360 N357 1.336 . S
C360 C359 1.346 . S
C360 H367 0.929 . S
C361 O351 1.282 . S
C361 O362 1.216 . S
O362 C361 1.216 . S
H363 C358 0.930 . S
H364 C359 0.930 . S
O365 Cu345 1.959 . S
O365 C352 1.251 . S
H366 C349 0.930 . S
H367 C360 0.929 . S
Cu368 N369 1.999 . S
Cu368 O374 1.974 . S
Cu368 N379 1.985 . S
Cu368 O388 1.959 . S
N369 Cu368 1.999 . S
N369 C371 1.263 . S
N369 C373 1.389 . S
N370 C371 1.358 . S
N370 C372 1.400 . S
C371 N369 1.263 . S
C371 N370 1.358 . S
C371 H377 0.930 . S
C372 N370 1.400 . S
C372 C373 1.351 . S
C372 H389 0.930 . S
C373 N369 1.389 . S
C373 C372 1.351 . S
C373 H378 0.930 . S
O374 Cu368 1.974 . S
O374 C384 1.282 . S
C375 O376 1.261 . S
C375 O388 1.251 . S
O376 C375 1.261 . S
H377 C371 0.930 . S
H378 C373 0.930 . S
N379 Cu368 1.985 . S
N379 C381 1.335 . S
N379 C382 1.390 . S
N380 C381 1.345 . S
N380 C383 1.336 . S
C381 N379 1.335 . S
C381 N380 1.345 . S
C381 H386 0.930 . S
C382 N379 1.390 . S
C382 C383 1.346 . S
C382 H387 0.930 . S
C383 N380 1.336 . S
C383 C382 1.346 . S
C383 H390 0.929 . S
C384 O374 1.282 . S
C384 O385 1.216 . S
O385 C384 1.216 . S
H386 C381 0.930 . S
H387 C382 0.930 . S
O388 Cu368 1.959 . S
O388 C375 1.251 . S
H389 C372 0.930 . S
H390 C383 0.929 . S
Cu391 N392 1.999 . S
Cu391 O397 1.974 . S
Cu391 N402 1.985 . S
Cu391 O411 1.959 . S
N392 Cu391 1.999 . S
N392 C394 1.263 . S
N392 C396 1.389 . S
N393 C394 1.358 . S
N393 C395 1.400 . S
C394 N392 1.263 . S
C394 N393 1.358 . S
C394 H400 0.930 . S
C395 N393 1.400 . S
C395 C396 1.351 . S
C395 H412 0.930 . S
C396 N392 1.389 . S
C396 C395 1.351 . S
C396 H401 0.930 . S
O397 Cu391 1.974 . S
O397 C407 1.282 . S
C398 O399 1.261 . S
C398 O411 1.251 . S
O399 C398 1.261 . S
H400 C394 0.930 . S
H401 C396 0.930 . S
N402 Cu391 1.985 . S
N402 C404 1.335 . S
N402 C405 1.390 . S
N403 C404 1.345 . S
N403 C406 1.336 . S
C404 N402 1.335 . S
C404 N403 1.345 . S
C404 H409 0.930 . S
C405 N402 1.390 . S
C405 C406 1.346 . S
C405 H410 0.930 . S
C406 N403 1.336 . S
C406 C405 1.346 . S
C406 H413 0.929 . S
C407 O397 1.282 . S
C407 O408 1.216 . S
O408 C407 1.216 . S
H409 C404 0.930 . S
H410 C405 0.930 . S
O411 Cu391 1.959 . S
O411 C398 1.251 . S
H412 C395 0.930 . S
H413 C406 0.929 . S
Cu414 N415 1.999 . S
Cu414 O420 1.974 . S
Cu414 N425 1.985 . S
Cu414 O434 1.959 . S
N415 Cu414 1.999 . S
N415 C417 1.263 . S
N415 C419 1.389 . S
N416 C417 1.358 . S
N416 C418 1.400 . S
C417 N415 1.263 . S
C417 N416 1.358 . S
C417 H423 0.930 . S
C418 N416 1.400 . S
C418 C419 1.351 . S
C418 H435 0.930 . S
C419 N415 1.389 . S
C419 C418 1.351 . S
C419 H424 0.930 . S
O420 Cu414 1.974 . S
O420 C430 1.282 . S
C421 O422 1.261 . S
C421 O434 1.251 . S
O422 C421 1.261 . S
H423 C417 0.930 . S
H424 C419 0.930 . S
N425 Cu414 1.985 . S
N425 C427 1.335 . S
N425 C428 1.390 . S
N426 C427 1.345 . S
N426 C429 1.336 . S
C427 N425 1.335 . S
C427 N426 1.345 . S
C427 H432 0.930 . S
C428 N425 1.390 . S
C428 C429 1.346 . S
C428 H433 0.930 . S
C429 N426 1.336 . S
C429 C428 1.346 . S
C429 H436 0.929 . S
C430 O420 1.282 . S
C430 O431 1.216 . S
O431 C430 1.216 . S
H432 C427 0.930 . S
H433 C428 0.930 . S
O434 Cu414 1.959 . S
O434 C421 1.251 . S
H435 C418 0.930 . S
H436 C429 0.929 . S
Cu437 N438 1.999 . S
Cu437 O443 1.974 . S
Cu437 N448 1.985 . S
Cu437 O457 1.959 . S
N438 Cu437 1.999 . S
N438 C440 1.263 . S
N438 C442 1.389 . S
N439 C440 1.358 . S
N439 C441 1.400 . S
C440 N438 1.263 . S
C440 N439 1.358 . S
C440 H446 0.930 . S
C441 N439 1.400 . S
C441 C442 1.351 . S
C441 H458 0.930 . S
C442 N438 1.389 . S
C442 C441 1.351 . S
C442 H447 0.930 . S
O443 Cu437 1.974 . S
O443 C453 1.282 . S
C444 O445 1.261 . S
C444 O457 1.251 . S
O445 C444 1.261 . S
H446 C440 0.930 . S
H447 C442 0.930 . S
N448 Cu437 1.985 . S
N448 C450 1.335 . S
N448 C451 1.390 . S
N449 C450 1.345 . S
N449 C452 1.336 . S
C450 N448 1.335 . S
C450 N449 1.345 . S
C450 H455 0.930 . S
C451 N448 1.390 . S
C451 C452 1.346 . S
C451 H456 0.930 . S
C452 N449 1.336 . S
C452 C451 1.346 . S
C452 H459 0.929 . S
C453 O443 1.282 . S
C453 O454 1.216 . S
O454 C453 1.216 . S
H455 C450 0.930 . S
H456 C451 0.930 . S
O457 Cu437 1.959 . S
O457 C444 1.251 . S
H458 C441 0.930 . S
H459 C452 0.929 . S
Cu460 N461 1.999 . S
Cu460 O466 1.974 . S
Cu460 N471 1.985 . S
Cu460 O480 1.959 . S
N461 Cu460 1.999 . S
N461 C463 1.263 . S
N461 C465 1.389 . S
N462 C463 1.358 . S
N462 C464 1.400 . S
C463 N461 1.263 . S
C463 N462 1.358 . S
C463 H469 0.930 . S
C464 N462 1.400 . S
C464 C465 1.351 . S
C464 H481 0.930 . S
C465 N461 1.389 . S
C465 C464 1.351 . S
C465 H470 0.930 . S
O466 Cu460 1.974 . S
O466 C476 1.282 . S
C467 O468 1.261 . S
C467 O480 1.251 . S
O468 C467 1.261 . S
H469 C463 0.930 . S
H470 C465 0.930 . S
N471 Cu460 1.985 . S
N471 C473 1.335 . S
N471 C474 1.390 . S
N472 C473 1.345 . S
N472 C475 1.336 . S
C473 N471 1.335 . S
C473 N472 1.345 . S
C473 H478 0.930 . S
C474 N471 1.390 . S
C474 C475 1.346 . S
C474 H479 0.930 . S
C475 N472 1.336 . S
C475 C474 1.346 . S
C475 H482 0.929 . S
C476 O466 1.282 . S
C476 O477 1.216 . S
O477 C476 1.216 . S
H478 C473 0.930 . S
H479 C474 0.930 . S
O480 Cu460 1.959 . S
O480 C467 1.251 . S
H481 C464 0.930 . S
H482 C475 0.929 . S
Cu483 N484 1.999 . S
Cu483 O489 1.974 . S
Cu483 N494 1.985 . S
Cu483 O503 1.959 . S
N484 Cu483 1.999 . S
N484 C486 1.263 . S
N484 C488 1.389 . S
N485 C486 1.358 . S
N485 C487 1.400 . S
C486 N484 1.263 . S
C486 N485 1.358 . S
C486 H492 0.930 . S
C487 N485 1.400 . S
C487 C488 1.351 . S
C487 H504 0.930 . S
C488 N484 1.389 . S
C488 C487 1.351 . S
C488 H493 0.930 . S
O489 Cu483 1.974 . S
O489 C499 1.282 . S
C490 O491 1.261 . S
C490 O503 1.251 . S
O491 C490 1.261 . S
H492 C486 0.930 . S
H493 C488 0.930 . S
N494 Cu483 1.985 . S
N494 C496 1.335 . S
N494 C497 1.390 . S
N495 C496 1.345 . S
N495 C498 1.336 . S
C496 N494 1.335 . S
C496 N495 1.345 . S
C496 H501 0.930 . S
C497 N494 1.390 . S
C497 C498 1.346 . S
C497 H502 0.930 . S
C498 N495 1.336 . S
C498 C497 1.346 . S
C498 H505 0.929 . S
C499 O489 1.282 . S
C499 O500 1.216 . S
O500 C499 1.216 . S
H501 C496 0.930 . S
H502 C497 0.930 . S
O503 Cu483 1.959 . S
O503 C490 1.251 . S
H504 C487 0.930 . S
H505 C498 0.929 . S
Cu506 N507 1.999 . S
Cu506 O512 1.974 . S
Cu506 N517 1.985 . S
Cu506 O526 1.959 . S
N507 Cu506 1.999 . S
N507 C509 1.263 . S
N507 C511 1.389 . S
N508 C509 1.358 . S
N508 C510 1.400 . S
C509 N507 1.263 . S
C509 N508 1.358 . S
C509 H515 0.930 . S
C510 N508 1.400 . S
C510 C511 1.351 . S
C510 H527 0.930 . S
C511 N507 1.389 . S
C511 C510 1.351 . S
C511 H516 0.930 . S
O512 Cu506 1.974 . S
O512 C522 1.282 . S
C513 O514 1.261 . S
C513 O526 1.251 . S
O514 C513 1.261 . S
H515 C509 0.930 . S
H516 C511 0.930 . S
N517 Cu506 1.985 . S
N517 C519 1.335 . S
N517 C520 1.390 . S
N518 C519 1.345 . S
N518 C521 1.336 . S
C519 N517 1.335 . S
C519 N518 1.345 . S
C519 H524 0.930 . S
C520 N517 1.390 . S
C520 C521 1.346 . S
C520 H525 0.930 . S
C521 N518 1.336 . S
C521 C520 1.346 . S
C521 H528 0.929 . S
C522 O512 1.282 . S
C522 O523 1.216 . S
O523 C522 1.216 . S
H524 C519 0.930 . S
H525 C520 0.930 . S
O526 Cu506 1.959 . S
O526 C513 1.251 . S
H527 C510 0.930 . S
H528 C521 0.929 . S
Cu529 N530 1.999 . S
Cu529 O535 1.974 . S
Cu529 N540 1.985 . S
Cu529 O549 1.959 . S
N530 Cu529 1.999 . S
N530 C532 1.263 . S
N530 C534 1.389 . S
N531 C532 1.358 . S
N531 C533 1.400 . S
C532 N530 1.263 . S
C532 N531 1.358 . S
C532 H538 0.930 . S
C533 N531 1.400 . S
C533 C534 1.351 . S
C533 H550 0.930 . S
C534 N530 1.389 . S
C534 C533 1.351 . S
C534 H539 0.930 . S
O535 Cu529 1.974 . S
O535 C545 1.282 . S
C536 O537 1.261 . S
C536 O549 1.251 . S
O537 C536 1.261 . S
H538 C532 0.930 . S
H539 C534 0.930 . S
N540 Cu529 1.985 . S
N540 C542 1.335 . S
N540 C543 1.390 . S
N541 C542 1.345 . S
N541 C544 1.336 . S
C542 N540 1.335 . S
C542 N541 1.345 . S
C542 H547 0.930 . S
C543 N540 1.390 . S
C543 C544 1.346 . S
C543 H548 0.930 . S
C544 N541 1.336 . S
C544 C543 1.346 . S
C544 H551 0.929 . S
C545 O535 1.282 . S
C545 O546 1.216 . S
O546 C545 1.216 . S
H547 C542 0.930 . S
H548 C543 0.930 . S
O549 Cu529 1.959 . S
O549 C536 1.251 . S
H550 C533 0.930 . S
H551 C544 0.929 . S
C552 C553 1.349 . S
C552 C554 1.327 . S
C552 H577 0.950 . S
C553 C552 1.349 . S
C553 C569 1.349 . S
C554 C552 1.327 . S
C554 C573 1.429 . S
C554 H578 0.950 . S
C555 C572 1.574 . S
C555 C574 1.368 . S
C555 H579 0.949 . S
H556 C560 0.949 . S
C557 C558 1.349 . S
C557 C559 1.327 . S
C557 H580 0.950 . S
C558 C557 1.349 . S
C558 C570 1.349 . S
C559 C557 1.327 . S
C559 C575 1.429 . S
C559 H581 0.950 . S
C560 H556 0.949 . S
C560 C568 1.574 . S
C560 C576 1.368 . S
H561 C569 0.950 . S
H562 C567 0.950 . S
H563 C568 0.949 . S
H564 C570 0.950 . S
H565 C571 0.950 . S
H566 C572 0.949 . S
C567 H562 0.950 . S
C567 C569 1.327 . S
C567 C573 1.429 . S
C568 C560 1.574 . S
C568 H563 0.949 . S
C568 C574 1.368 . S
C569 C553 1.349 . S
C569 H561 0.950 . S
C569 C567 1.327 . S
C570 C558 1.349 . S
C570 H564 0.950 . S
C570 C571 1.327 . S
C571 H565 0.950 . S
C571 C570 1.327 . S
C571 C575 1.429 . S
C572 C555 1.574 . S
C572 H566 0.949 . S
C572 C576 1.368 . S
C573 C554 1.429 . S
C573 C567 1.429 . S
C573 C574 1.523 . S
C574 C555 1.368 . S
C574 C568 1.368 . S
C574 C573 1.523 . S
C575 C559 1.429 . S
C575 C571 1.429 . S
C575 C576 1.523 . S
C576 C560 1.368 . S
C576 C572 1.368 . S
C576 C575 1.523 . S
H577 C552 0.950 . S
H578 C554 0.950 . S
H579 C555 0.949 . S
H580 C557 0.950 . S
H581 C559 0.950 . S
C582 C583 1.349 . S
C582 C584 1.327 . S
C582 H607 0.950 . S
C583 C582 1.349 . S
C583 C599 1.349 . S
C584 C582 1.327 . S
C584 C603 1.429 . S
C584 H608 0.950 . S
C585 C602 1.574 . S
C585 C604 1.368 . S
C585 H609 0.949 . S
H586 C590 0.949 . S
C587 C588 1.349 . S
C587 C589 1.327 . S
C587 H610 0.950 . S
C588 C587 1.349 . S
C588 C600 1.349 . S
C589 C587 1.327 . S
C589 C605 1.429 . S
C589 H611 0.950 . S
C590 H586 0.949 . S
C590 C598 1.574 . S
C590 C606 1.368 . S
H591 C599 0.950 . S
H592 C597 0.950 . S
H593 C598 0.949 . S
H594 C600 0.950 . S
H595 C601 0.950 . S
H596 C602 0.949 . S
C597 H592 0.950 . S
C597 C599 1.327 . S
C597 C603 1.429 . S
C598 C590 1.574 . S
C598 H593 0.949 . S
C598 C604 1.368 . S
C599 C583 1.349 . S
C599 H591 0.950 . S
C599 C597 1.327 . S
C600 C588 1.349 . S
C600 H594 0.950 . S
C600 C601 1.327 . S
C601 H595 0.950 . S
C601 C600 1.327 . S
C601 C605 1.429 . S
C602 C585 1.574 . S
C602 H596 0.949 . S
C602 C606 1.368 . S
C603 C584 1.429 . S
C603 C597 1.429 . S
C603 C604 1.523 . S
C604 C585 1.368 . S
C604 C598 1.368 . S
C604 C603 1.523 . S
C605 C589 1.429 . S
C605 C601 1.429 . S
C605 C606 1.523 . S
C606 C590 1.368 . S
C606 C602 1.368 . S
C606 C605 1.523 . S
H607 C582 0.950 . S
H608 C584 0.950 . S
H609 C585 0.949 . S
H610 C587 0.950 . S
H611 C589 0.950 . S
C612 C613 1.349 . S
C612 C614 1.327 . S
C612 H637 0.950 . S
C613 C612 1.349 . S
C613 C629 1.349 . S
C614 C612 1.327 . S
C614 C633 1.429 . S
C614 H638 0.950 . S
C615 C632 1.574 . S
C615 C634 1.368 . S
C615 H639 0.949 . S
H616 C620 0.949 . S
C617 C618 1.349 . S
C617 C619 1.327 . S
C617 H640 0.950 . S
C618 C617 1.349 . S
C618 C630 1.349 . S
C619 C617 1.327 . S
C619 C635 1.429 . S
C619 H641 0.950 . S
C620 H616 0.949 . S
C620 C628 1.574 . S
C620 C636 1.368 . S
H621 C629 0.950 . S
H622 C627 0.950 . S
H623 C628 0.949 . S
H624 C630 0.950 . S
H625 C631 0.950 . S
H626 C632 0.949 . S
C627 H622 0.950 . S
C627 C629 1.327 . S
C627 C633 1.429 . S
C628 C620 1.574 . S
C628 H623 0.949 . S
C628 C634 1.368 . S
C629 C613 1.349 . S
C629 H621 0.950 . S
C629 C627 1.327 . S
C630 C618 1.349 . S
C630 H624 0.950 . S
C630 C631 1.327 . S
C631 H625 0.950 . S
C631 C630 1.327 . S
C631 C635 1.429 . S
C632 C615 1.574 . S
C632 H626 0.949 . S
C632 C636 1.368 . S
C633 C614 1.429 . S
C633 C627 1.429 . S
C633 C634 1.523 . S
C634 C615 1.368 . S
C634 C628 1.368 . S
C634 C633 1.523 . S
C635 C619 1.429 . S
C635 C631 1.429 . S
C635 C636 1.523 . S
C636 C620 1.368 . S
C636 C632 1.368 . S
C636 C635 1.523 . S
H637 C612 0.950 . S
H638 C614 0.950 . S
H639 C615 0.949 . S
H640 C617 0.950 . S
H641 C619 0.950 . S
C642 C643 1.349 . S
C642 C644 1.327 . S
C642 H667 0.950 . S
C643 C642 1.349 . S
C643 C659 1.349 . S
C644 C642 1.327 . S
C644 C663 1.429 . S
C644 H668 0.950 . S
C645 C662 1.574 . S
C645 C664 1.368 . S
C645 H669 0.949 . S
H646 C650 0.949 . S
C647 C648 1.349 . S
C647 C649 1.327 . S
C647 H670 0.950 . S
C648 C647 1.349 . S
C648 C660 1.349 . S
C649 C647 1.327 . S
C649 C665 1.429 . S
C649 H671 0.950 . S
C650 H646 0.949 . S
C650 C658 1.574 . S
C650 C666 1.368 . S
H651 C659 0.950 . S
H652 C657 0.950 . S
H653 C658 0.949 . S
H654 C660 0.950 . S
H655 C661 0.950 . S
H656 C662 0.949 . S
C657 H652 0.950 . S
C657 C659 1.327 . S
C657 C663 1.429 . S
C658 C650 1.574 . S
C658 H653 0.949 . S
C658 C664 1.368 . S
C659 C643 1.349 . S
C659 H651 0.950 . S
C659 C657 1.327 . S
C660 C648 1.349 . S
C660 H654 0.950 . S
C660 C661 1.327 . S
C661 H655 0.950 . S
C661 C660 1.327 . S
C661 C665 1.429 . S
C662 C645 1.574 . S
C662 H656 0.949 . S
C662 C666 1.368 . S
C663 C644 1.429 . S
C663 C657 1.429 . S
C663 C664 1.523 . S
C664 C645 1.368 . S
C664 C658 1.368 . S
C664 C663 1.523 . S
C665 C649 1.429 . S
C665 C661 1.429 . S
C665 C666 1.523 . S
C666 C650 1.368 . S
C666 C662 1.368 . S
C666 C665 1.523 . S
H667 C642 0.950 . S
H668 C644 0.950 . S
H669 C645 0.949 . S
H670 C647 0.950 . S
H671 C649 0.950 . S
C672 C673 1.349 . S
C672 C674 1.327 . S
C672 H697 0.950 . S
C673 C672 1.349 . S
C673 C689 1.349 . S
C674 C672 1.327 . S
C674 C693 1.429 . S
C674 H698 0.950 . S
C675 C692 1.574 . S
C675 C694 1.368 . S
C675 H699 0.949 . S
H676 C680 0.949 . S
C677 C678 1.349 . S
C677 C679 1.327 . S
C677 H700 0.950 . S
C678 C677 1.349 . S
C678 C690 1.349 . S
C679 C677 1.327 . S
C679 C695 1.429 . S
C679 H701 0.950 . S
C680 H676 0.949 . S
C680 C688 1.574 . S
C680 C696 1.368 . S
H681 C689 0.950 . S
H682 C687 0.950 . S
H683 C688 0.949 . S
H684 C690 0.950 . S
H685 C691 0.950 . S
H686 C692 0.949 . S
C687 H682 0.950 . S
C687 C689 1.327 . S
C687 C693 1.429 . S
C688 C680 1.574 . S
C688 H683 0.949 . S
C688 C694 1.368 . S
C689 C673 1.349 . S
C689 H681 0.950 . S
C689 C687 1.327 . S
C690 C678 1.349 . S
C690 H684 0.950 . S
C690 C691 1.327 . S
C691 H685 0.950 . S
C691 C690 1.327 . S
C691 C695 1.429 . S
C692 C675 1.574 . S
C692 H686 0.949 . S
C692 C696 1.368 . S
C693 C674 1.429 . S
C693 C687 1.429 . S
C693 C694 1.523 . S
C694 C675 1.368 . S
C694 C688 1.368 . S
C694 C693 1.523 . S
C695 C679 1.429 . S
C695 C691 1.429 . S
C695 C696 1.523 . S
C696 C680 1.368 . S
C696 C692 1.368 . S
C696 C695 1.523 . S
H697 C672 0.950 . S
H698 C674 0.950 . S
H699 C675 0.949 . S
H700 C677 0.950 . S
H701 C679 0.950 . S
C702 C703 1.349 . S
C702 C704 1.327 . S
C702 H727 0.950 . S
C703 C702 1.349 . S
C703 C719 1.349 . S
C704 C702 1.327 . S
C704 C723 1.429 . S
C704 H728 0.950 . S
C705 C722 1.574 . S
C705 C724 1.368 . S
C705 H729 0.949 . S
H706 C710 0.949 . S
C707 C708 1.349 . S
C707 C709 1.327 . S
C707 H730 0.950 . S
C708 C707 1.349 . S
C708 C720 1.349 . S
C709 C707 1.327 . S
C709 C725 1.429 . S
C709 H731 0.950 . S
C710 H706 0.949 . S
C710 C718 1.574 . S
C710 C726 1.368 . S
H711 C719 0.950 . S
H712 C717 0.950 . S
H713 C718 0.949 . S
H714 C720 0.950 . S
H715 C721 0.950 . S
H716 C722 0.949 . S
C717 H712 0.950 . S
C717 C719 1.327 . S
C717 C723 1.429 . S
C718 C710 1.574 . S
C718 H713 0.949 . S
C718 C724 1.368 . S
C719 C703 1.349 . S
C719 H711 0.950 . S
C719 C717 1.327 . S
C720 C708 1.349 . S
C720 H714 0.950 . S
C720 C721 1.327 . S
C721 H715 0.950 . S
C721 C720 1.327 . S
C721 C725 1.429 . S
C722 C705 1.574 . S
C722 H716 0.949 . S
C722 C726 1.368 . S
C723 C704 1.429 . S
C723 C717 1.429 . S
C723 C724 1.523 . S
C724 C705 1.368 . S
C724 C718 1.368 . S
C724 C723 1.523 . S
C725 C709 1.429 . S
C725 C721 1.429 . S
C725 C726 1.523 . S
C726 C710 1.368 . S
C726 C722 1.368 . S
C726 C725 1.523 . S
H727 C702 0.950 . S
H728 C704 0.950 . S
H729 C705 0.949 . S
H730 C707 0.950 . S
H731 C709 0.950 . S
C732 C733 1.349 . S
C732 C734 1.327 . S
C732 H757 0.950 . S
C733 C732 1.349 . S
C733 C749 1.349 . S
C734 C732 1.327 . S
C734 C753 1.429 . S
C734 H758 0.950 . S
C735 C752 1.574 . S
C735 C754 1.368 . S
C735 H759 0.949 . S
H736 C740 0.949 . S
C737 C738 1.349 . S
C737 C739 1.327 . S
C737 H760 0.950 . S
C738 C737 1.349 . S
C738 C750 1.349 . S
C739 C737 1.327 . S
C739 C755 1.429 . S
C739 H761 0.950 . S
C740 H736 0.949 . S
C740 C748 1.574 . S
C740 C756 1.368 . S
H741 C749 0.950 . S
H742 C747 0.950 . S
H743 C748 0.949 . S
H744 C750 0.950 . S
H745 C751 0.950 . S
H746 C752 0.949 . S
C747 H742 0.950 . S
C747 C749 1.327 . S
C747 C753 1.429 . S
C748 C740 1.574 . S
C748 H743 0.949 . S
C748 C754 1.368 . S
C749 C733 1.349 . S
C749 H741 0.950 . S
C749 C747 1.327 . S
C750 C738 1.349 . S
C750 H744 0.950 . S
C750 C751 1.327 . S
C751 H745 0.950 . S
C751 C750 1.327 . S
C751 C755 1.429 . S
C752 C735 1.574 . S
C752 H746 0.949 . S
C752 C756 1.368 . S
C753 C734 1.429 . S
C753 C747 1.429 . S
C753 C754 1.523 . S
C754 C735 1.368 . S
C754 C748 1.368 . S
C754 C753 1.523 . S
C755 C739 1.429 . S
C755 C751 1.429 . S
C755 C756 1.523 . S
C756 C740 1.368 . S
C756 C752 1.368 . S
C756 C755 1.523 . S
H757 C732 0.950 . S
H758 C734 0.950 . S
H759 C735 0.949 . S
H760 C737 0.950 . S
H761 C739 0.950 . S
C762 C763 1.349 . S
C762 C764 1.327 . S
C762 H787 0.950 . S
C763 C762 1.349 . S
C763 C779 1.349 . S
C764 C762 1.327 . S
C764 C783 1.429 . S
C764 H788 0.950 . S
C765 C782 1.574 . S
C765 C784 1.368 . S
C765 H789 0.949 . S
H766 C770 0.949 . S
C767 C768 1.349 . S
C767 C769 1.327 . S
C767 H790 0.950 . S
C768 C767 1.349 . S
C768 C780 1.349 . S
C769 C767 1.327 . S
C769 C785 1.429 . S
C769 H791 0.950 . S
C770 H766 0.949 . S
C770 C778 1.574 . S
C770 C786 1.368 . S
H771 C779 0.950 . S
H772 C777 0.950 . S
H773 C778 0.949 . S
H774 C780 0.950 . S
H775 C781 0.950 . S
H776 C782 0.949 . S
C777 H772 0.950 . S
C777 C779 1.327 . S
C777 C783 1.429 . S
C778 C770 1.574 . S
C778 H773 0.949 . S
C778 C784 1.368 . S
C779 C763 1.349 . S
C779 H771 0.950 . S
C779 C777 1.327 . S
C780 C768 1.349 . S
C780 H774 0.950 . S
C780 C781 1.327 . S
C781 H775 0.950 . S
C781 C780 1.327 . S
C781 C785 1.429 . S
C782 C765 1.574 . S
C782 H776 0.949 . S
C782 C786 1.368 . S
C783 C764 1.429 . S
C783 C777 1.429 . S
C783 C784 1.523 . S
C784 C765 1.368 . S
C784 C778 1.368 . S
C784 C783 1.523 . S
C785 C769 1.429 . S
C785 C781 1.429 . S
C785 C786 1.523 . S
C786 C770 1.368 . S
C786 C782 1.368 . S
C786 C785 1.523 . S
H787 C762 0.950 . S
H788 C764 0.950 . S
H789 C765 0.949 . S
H790 C767 0.950 . S
H791 C769 0.950 . S
C792 C793 1.349 . S
C792 C794 1.327 . S
C792 H817 0.950 . S
C793 C792 1.349 . S
C793 C809 1.349 . S
C794 C792 1.327 . S
C794 C813 1.429 . S
C794 H818 0.950 . S
C795 C812 1.574 . S
C795 C814 1.368 . S
C795 H819 0.949 . S
H796 C800 0.949 . S
C797 C798 1.349 . S
C797 C799 1.327 . S
C797 H820 0.950 . S
C798 C797 1.349 . S
C798 C810 1.349 . S
C799 C797 1.327 . S
C799 C815 1.429 . S
C799 H821 0.950 . S
C800 H796 0.949 . S
C800 C808 1.574 . S
C800 C816 1.368 . S
H801 C809 0.950 . S
H802 C807 0.950 . S
H803 C808 0.949 . S
H804 C810 0.950 . S
H805 C811 0.950 . S
H806 C812 0.949 . S
C807 H802 0.950 . S
C807 C809 1.327 . S
C807 C813 1.429 . S
C808 C800 1.574 . S
C808 H803 0.949 . S
C808 C814 1.368 . S
C809 C793 1.349 . S
C809 H801 0.950 . S
C809 C807 1.327 . S
C810 C798 1.349 . S
C810 H804 0.950 . S
C810 C811 1.327 . S
C811 H805 0.950 . S
C811 C810 1.327 . S
C811 C815 1.429 . S
C812 C795 1.574 . S
C812 H806 0.949 . S
C812 C816 1.368 . S
C813 C794 1.429 . S
C813 C807 1.429 . S
C813 C814 1.523 . S
C814 C795 1.368 . S
C814 C808 1.368 . S
C814 C813 1.523 . S
C815 C799 1.429 . S
C815 C811 1.429 . S
C815 C816 1.523 . S
C816 C800 1.368 . S
C816 C812 1.368 . S
C816 C815 1.523 . S
H817 C792 0.950 . S
H818 C794 0.950 . S
H819 C795 0.949 . S
H820 C797 0.950 . S
H821 C799 0.950 . S
C822 C823 1.349 . S
C822 C824 1.327 . S
C822 H847 0.950 . S
C823 C822 1.349 . S
C823 C839 1.349 . S
C824 C822 1.327 . S
C824 C843 1.429 . S
C824 H848 0.950 . S
C825 C842 1.574 . S
C825 C844 1.368 . S
C825 H849 0.949 . S
H826 C830 0.949 . S
C827 C828 1.349 . S
C827 C829 1.327 . S
C827 H850 0.950 . S
C828 C827 1.349 . S
C828 C840 1.349 . S
C829 C827 1.327 . S
C829 C845 1.429 . S
C829 H851 0.950 . S
C830 H826 0.949 . S
C830 C838 1.574 . S
C830 C846 1.368 . S
H831 C839 0.950 . S
H832 C837 0.950 . S
H833 C838 0.949 . S
H834 C840 0.950 . S
H835 C841 0.950 . S
H836 C842 0.949 . S
C837 H832 0.950 . S
C837 C839 1.327 . S
C837 C843 1.429 . S
C838 C830 1.574 . S
C838 H833 0.949 . S
C838 C844 1.368 . S
C839 C823 1.349 . S
C839 H831 0.950 . S
C839 C837 1.327 . S
C840 C828 1.349 . S
C840 H834 0.950 . S
C840 C841 1.327 . S
C841 H835 0.950 . S
C841 C840 1.327 . S
C841 C845 1.429 . S
C842 C825 1.574 . S
C842 H836 0.949 . S
C842 C846 1.368 . S
C843 C824 1.429 . S
C843 C837 1.429 . S
C843 C844 1.523 . S
C844 C825 1.368 . S
C844 C838 1.368 . S
C844 C843 1.523 . S
C845 C829 1.429 . S
C845 C841 1.429 . S
C845 C846 1.523 . S
C846 C830 1.368 . S
C846 C842 1.368 . S
C846 C845 1.523 . S
H847 C822 0.950 . S
H848 C824 0.950 . S
H849 C825 0.949 . S
H850 C827 0.950 . S
H851 C829 0.950 . S
C852 C853 1.349 . S
C852 C854 1.327 . S
C852 H877 0.950 . S
C853 C852 1.349 . S
C853 C869 1.349 . S
C854 C852 1.327 . S
C854 C873 1.429 . S
C854 H878 0.950 . S
C855 C872 1.574 . S
C855 C874 1.368 . S
C855 H879 0.949 . S
H856 C860 0.949 . S
C857 C858 1.349 . S
C857 C859 1.327 . S
C857 H880 0.950 . S
C858 C857 1.349 . S
C858 C870 1.349 . S
C859 C857 1.327 . S
C859 C875 1.429 . S
C859 H881 0.950 . S
C860 H856 0.949 . S
C860 C868 1.574 . S
C860 C876 1.368 . S
H861 C869 0.950 . S
H862 C867 0.950 . S
H863 C868 0.949 . S
H864 C870 0.950 . S
H865 C871 0.950 . S
H866 C872 0.949 . S
C867 H862 0.950 . S
C867 C869 1.327 . S
C867 C873 1.429 . S
C868 C860 1.574 . S
C868 H863 0.949 . S
C868 C874 1.368 . S
C869 C853 1.349 . S
C869 H861 0.950 . S
C869 C867 1.327 . S
C870 C858 1.349 . S
C870 H864 0.950 . S
C870 C871 1.327 . S
C871 H865 0.950 . S
C871 C870 1.327 . S
C871 C875 1.429 . S
C872 C855 1.574 . S
C872 H866 0.949 . S
C872 C876 1.368 . S
C873 C854 1.429 . S
C873 C867 1.429 . S
C873 C874 1.523 . S
C874 C855 1.368 . S
C874 C868 1.368 . S
C874 C873 1.523 . S
C875 C859 1.429 . S
C875 C871 1.429 . S
C875 C876 1.523 . S
C876 C860 1.368 . S
C876 C872 1.368 . S
C876 C875 1.523 . S
H877 C852 0.950 . S
H878 C854 0.950 . S
H879 C855 0.949 . S
H880 C857 0.950 . S
H881 C859 0.950 . S
C882 C883 1.349 . S
C882 C884 1.327 . S
C882 H907 0.950 . S
C883 C882 1.349 . S
C883 C899 1.349 . S
C884 C882 1.327 . S
C884 C903 1.429 . S
C884 H908 0.950 . S
C885 C902 1.574 . S
C885 C904 1.368 . S
C885 H909 0.949 . S
H886 C890 0.949 . S
C887 C888 1.349 . S
C887 C889 1.327 . S
C887 H910 0.950 . S
C888 C887 1.349 . S
C888 C900 1.349 . S
C889 C887 1.327 . S
C889 C905 1.429 . S
C889 H911 0.950 . S
C890 H886 0.949 . S
C890 C898 1.574 . S
C890 C906 1.368 . S
H891 C899 0.950 . S
H892 C897 0.950 . S
H893 C898 0.949 . S
H894 C900 0.950 . S
H895 C901 0.950 . S
H896 C902 0.949 . S
C897 H892 0.950 . S
C897 C899 1.327 . S
C897 C903 1.429 . S
C898 C890 1.574 . S
C898 H893 0.949 . S
C898 C904 1.368 . S
C899 C883 1.349 . S
C899 H891 0.950 . S
C899 C897 1.327 . S
C900 C888 1.349 . S
C900 H894 0.950 . S
C900 C901 1.327 . S
C901 H895 0.950 . S
C901 C900 1.327 . S
C901 C905 1.429 . S
C902 C885 1.574 . S
C902 H896 0.949 . S
C902 C906 1.368 . S
C903 C884 1.429 . S
C903 C897 1.429 . S
C903 C904 1.523 . S
C904 C885 1.368 . S
C904 C898 1.368 . S
C904 C903 1.523 . S
C905 C889 1.429 . S
C905 C901 1.429 . S
C905 C906 1.523 . S
C906 C890 1.368 . S
C906 C902 1.368 . S
C906 C905 1.523 . S
H907 C882 0.950 . S
H908 C884 0.950 . S
H909 C885 0.949 . S
H910 C887 0.950 . S
H911 C889 0.950 . S
C912 C913 1.349 . S
C912 C914 1.327 . S
C912 H937 0.950 . S
C913 C912 1.349 . S
C913 C929 1.349 . S
C914 C912 1.327 . S
C914 C933 1.429 . S
C914 H938 0.950 . S
C915 C932 1.574 . S
C915 C934 1.368 . S
C915 H939 0.949 . S
H916 C920 0.949 . S
C917 C918 1.349 . S
C917 C919 1.327 . S
C917 H940 0.950 . S
C918 C917 1.349 . S
C918 C930 1.349 . S
C919 C917 1.327 . S
C919 C935 1.429 . S
C919 H941 0.950 . S
C920 H916 0.949 . S
C920 C928 1.574 . S
C920 C936 1.368 . S
H921 C929 0.950 . S
H922 C927 0.950 . S
H923 C928 0.949 . S
H924 C930 0.950 . S
H925 C931 0.950 . S
H926 C932 0.949 . S
C927 H922 0.950 . S
C927 C929 1.327 . S
C927 C933 1.429 . S
C928 C920 1.574 . S
C928 H923 0.949 . S
C928 C934 1.368 . S
C929 C913 1.349 . S
C929 H921 0.950 . S
C929 C927 1.327 . S
C930 C918 1.349 . S
C930 H924 0.950 . S
C930 C931 1.327 . S
C931 H925 0.950 . S
C931 C930 1.327 . S
C931 C935 1.429 . S
C932 C915 1.574 . S
C932 H926 0.949 . S
C932 C936 1.368 . S
C933 C914 1.429 . S
C933 C927 1.429 . S
C933 C934 1.523 . S
C934 C915 1.368 . S
C934 C928 1.368 . S
C934 C933 1.523 . S
C935 C919 1.429 . S
C935 C931 1.429 . S
C935 C936 1.523 . S
C936 C920 1.368 . S
C936 C932 1.368 . S
C936 C935 1.523 . S
H937 C912 0.950 . S
H938 C914 0.950 . S
H939 C915 0.949 . S
H940 C917 0.950 . S
H941 C919 0.950 . S
C942 C943 1.349 . S
C942 C944 1.327 . S
C942 H967 0.950 . S
C943 C942 1.349 . S
C943 C959 1.349 . S
C944 C942 1.327 . S
C944 C963 1.429 . S
C944 H968 0.950 . S
C945 C962 1.574 . S
C945 C964 1.368 . S
C945 H969 0.949 . S
H946 C950 0.949 . S
C947 C948 1.349 . S
C947 C949 1.327 . S
C947 H970 0.950 . S
C948 C947 1.349 . S
C948 C960 1.349 . S
C949 C947 1.327 . S
C949 C965 1.429 . S
C949 H971 0.950 . S
C950 H946 0.949 . S
C950 C958 1.574 . S
C950 C966 1.368 . S
H951 C959 0.950 . S
H952 C957 0.950 . S
H953 C958 0.949 . S
H954 C960 0.950 . S
H955 C961 0.950 . S
H956 C962 0.949 . S
C957 H952 0.950 . S
C957 C959 1.327 . S
C957 C963 1.429 . S
C958 C950 1.574 . S
C958 H953 0.949 . S
C958 C964 1.368 . S
C959 C943 1.349 . S
C959 H951 0.950 . S
C959 C957 1.327 . S
C960 C948 1.349 . S
C960 H954 0.950 . S
C960 C961 1.327 . S
C961 H955 0.950 . S
C961 C960 1.327 . S
C961 C965 1.429 . S
C962 C945 1.574 . S
C962 H956 0.949 . S
C962 C966 1.368 . S
C963 C944 1.429 . S
C963 C957 1.429 . S
C963 C964 1.523 . S
C964 C945 1.368 . S
C964 C958 1.368 . S
C964 C963 1.523 . S
C965 C949 1.429 . S
C965 C961 1.429 . S
C965 C966 1.523 . S
C966 C950 1.368 . S
C966 C962 1.368 . S
C966 C965 1.523 . S
H967 C942 0.950 . S
H968 C944 0.950 . S
H969 C945 0.949 . S
H970 C947 0.950 . S
H971 C949 0.950 . S
C972 C973 1.349 . S
C972 C974 1.327 . S
C972 H997 0.950 . S
C973 C972 1.349 . S
C973 C989 1.349 . S
C974 C972 1.327 . S
C974 C993 1.429 . S
C974 H998 0.950 . S
C975 C992 1.574 . S
C975 C994 1.368 . S
C975 H999 0.949 . S
H976 C980 0.949 . S
C977 C978 1.349 . S
C977 C979 1.327 . S
C977 H1000 0.950 . S
C978 C977 1.349 . S
C978 C990 1.349 . S
C979 C977 1.327 . S
C979 C995 1.429 . S
C979 H1001 0.950 . S
C980 H976 0.949 . S
C980 C988 1.574 . S
C980 C996 1.368 . S
H981 C989 0.950 . S
H982 C987 0.950 . S
H983 C988 0.949 . S
H984 C990 0.950 . S
H985 C991 0.950 . S
H986 C992 0.949 . S
C987 H982 0.950 . S
C987 C989 1.327 . S
C987 C993 1.429 . S
C988 C980 1.574 . S
C988 H983 0.949 . S
C988 C994 1.368 . S
C989 C973 1.349 . S
C989 H981 0.950 . S
C989 C987 1.327 . S
C990 C978 1.349 . S
C990 H984 0.950 . S
C990 C991 1.327 . S
C991 H985 0.950 . S
C991 C990 1.327 . S
C991 C995 1.429 . S
C992 C975 1.574 . S
C992 H986 0.949 . S
C992 C996 1.368 . S
C993 C974 1.429 . S
C993 C987 1.429 . S
C993 C994 1.523 . S
C994 C975 1.368 . S
C994 C988 1.368 . S
C994 C993 1.523 . S
C995 C979 1.429 . S
C995 C991 1.429 . S
C995 C996 1.523 . S
C996 C980 1.368 . S
C996 C992 1.368 . S
C996 C995 1.523 . S
H997 C972 0.950 . S
H998 C974 0.950 . S
H999 C975 0.949 . S
H1000 C977 0.950 . S
H1001 C979 0.950 . S
C1002 C1003 1.349 . S
C1002 C1004 1.327 . S
C1002 H1027 0.950 . S
C1003 C1002 1.349 . S
C1003 C1019 1.349 . S
C1004 C1002 1.327 . S
C1004 C1023 1.429 . S
C1004 H1028 0.950 . S
C1005 C1022 1.574 . S
C1005 C1024 1.368 . S
C1005 H1029 0.949 . S
H1006 C1010 0.949 . S
C1007 C1008 1.349 . S
C1007 C1009 1.327 . S
C1007 H1030 0.950 . S
C1008 C1007 1.349 . S
C1008 C1020 1.349 . S
C1009 C1007 1.327 . S
C1009 C1025 1.429 . S
C1009 H1031 0.950 . S
C1010 H1006 0.949 . S
C1010 C1018 1.574 . S
C1010 C1026 1.368 . S
H1011 C1019 0.950 . S
H1012 C1017 0.950 . S
H1013 C1018 0.949 . S
H1014 C1020 0.950 . S
H1015 C1021 0.950 . S
H1016 C1022 0.949 . S
C1017 H1012 0.950 . S
C1017 C1019 1.327 . S
C1017 C1023 1.429 . S
C1018 C1010 1.574 . S
C1018 H1013 0.949 . S
C1018 C1024 1.368 . S
C1019 C1003 1.349 . S
C1019 H1011 0.950 . S
C1019 C1017 1.327 . S
C1020 C1008 1.349 . S
C1020 H1014 0.950 . S
C1020 C1021 1.327 . S
C1021 H1015 0.950 . S
C1021 C1020 1.327 . S
C1021 C1025 1.429 . S
C1022 C1005 1.574 . S
C1022 H1016 0.949 . S
C1022 C1026 1.368 . S
C1023 C1004 1.429 . S
C1023 C1017 1.429 . S
C1023 C1024 1.523 . S
C1024 C1005 1.368 . S
C1024 C1018 1.368 . S
C1024 C1023 1.523 . S
C1025 C1009 1.429 . S
C1025 C1021 1.429 . S
C1025 C1026 1.523 . S
C1026 C1010 1.368 . S
C1026 C1022 1.368 . S
C1026 C1025 1.523 . S
H1027 C1002 0.950 . S
H1028 C1004 0.950 . S
H1029 C1005 0.949 . S
H1030 C1007 0.950 . S
H1031 C1009 0.950 . S
C1032 C1033 1.349 . S
C1032 C1034 1.327 . S
C1032 H1057 0.950 . S
C1033 C1032 1.349 . S
C1033 C1049 1.349 . S
C1034 C1032 1.327 . S
C1034 C1053 1.429 . S
C1034 H1058 0.950 . S
C1035 C1052 1.574 . S
C1035 C1054 1.368 . S
C1035 H1059 0.949 . S
H1036 C1040 0.949 . S
C1037 C1038 1.349 . S
C1037 C1039 1.327 . S
C1037 H1060 0.950 . S
C1038 C1037 1.349 . S
C1038 C1050 1.349 . S
C1039 C1037 1.327 . S
C1039 C1055 1.429 . S
C1039 H1061 0.950 . S
C1040 H1036 0.949 . S
C1040 C1048 1.574 . S
C1040 C1056 1.368 . S
H1041 C1049 0.950 . S
H1042 C1047 0.950 . S
H1043 C1048 0.949 . S
H1044 C1050 0.950 . S
H1045 C1051 0.950 . S
H1046 C1052 0.949 . S
C1047 H1042 0.950 . S
C1047 C1049 1.327 . S
C1047 C1053 1.429 . S
C1048 C1040 1.574 . S
C1048 H1043 0.949 . S
C1048 C1054 1.368 . S
C1049 C1033 1.349 . S
C1049 H1041 0.950 . S
C1049 C1047 1.327 . S
C1050 C1038 1.349 . S
C1050 H1044 0.950 . S
C1050 C1051 1.327 . S
C1051 H1045 0.950 . S
C1051 C1050 1.327 . S
C1051 C1055 1.429 . S
C1052 C1035 1.574 . S
C1052 H1046 0.949 . S
C1052 C1056 1.368 . S
C1053 C1034 1.429 . S
C1053 C1047 1.429 . S
C1053 C1054 1.523 . S
C1054 C1035 1.368 . S
C1054 C1048 1.368 . S
C1054 C1053 1.523 . S
C1055 C1039 1.429 . S
C1055 C1051 1.429 . S
C1055 C1056 1.523 . S
C1056 C1040 1.368 . S
C1056 C1052 1.368 . S
C1056 C1055 1.523 . S
H1057 C1032 0.950 . S
H1058 C1034 0.950 . S
H1059 C1035 0.949 . S
H1060 C1037 0.950 . S
H1061 C1039 0.950 . S
C1062 C1063 1.349 . S
C1062 C1064 1.327 . S
C1062 H1087 0.950 . S
C1063 C1062 1.349 . S
C1063 C1079 1.349 . S
C1064 C1062 1.327 . S
C1064 C1083 1.429 . S
C1064 H1088 0.950 . S
C1065 C1082 1.574 . S
C1065 C1084 1.368 . S
C1065 H1089 0.949 . S
H1066 C1070 0.949 . S
C1067 C1068 1.349 . S
C1067 C1069 1.327 . S
C1067 H1090 0.950 . S
C1068 C1067 1.349 . S
C1068 C1080 1.349 . S
C1069 C1067 1.327 . S
C1069 C1085 1.429 . S
C1069 H1091 0.950 . S
C1070 H1066 0.949 . S
C1070 C1078 1.574 . S
C1070 C1086 1.368 . S
H1071 C1079 0.950 . S
H1072 C1077 0.950 . S
H1073 C1078 0.949 . S
H1074 C1080 0.950 . S
H1075 C1081 0.950 . S
H1076 C1082 0.949 . S
C1077 H1072 0.950 . S
C1077 C1079 1.327 . S
C1077 C1083 1.429 . S
C1078 C1070 1.574 . S
C1078 H1073 0.949 . S
C1078 C1084 1.368 . S
C1079 C1063 1.349 . S
C1079 H1071 0.950 . S
C1079 C1077 1.327 . S
C1080 C1068 1.349 . S
C1080 H1074 0.950 . S
C1080 C1081 1.327 . S
C1081 H1075 0.950 . S
C1081 C1080 1.327 . S
C1081 C1085 1.429 . S
C1082 C1065 1.574 . S
C1082 H1076 0.949 . S
C1082 C1086 1.368 . S
C1083 C1064 1.429 . S
C1083 C1077 1.429 . S
C1083 C1084 1.523 . S
C1084 C1065 1.368 . S
C1084 C1078 1.368 . S
C1084 C1083 1.523 . S
C1085 C1069 1.429 . S
C1085 C1081 1.429 . S
C1085 C1086 1.523 . S
C1086 C1070 1.368 . S
C1086 C1082 1.368 . S
C1086 C1085 1.523 . S
H1087 C1062 0.950 . S
H1088 C1064 0.950 . S
H1089 C1065 0.949 . S
H1090 C1067 0.950 . S
H1091 C1069 0.950 . S
C1092 C1093 1.349 . S
C1092 C1094 1.327 . S
C1092 H1117 0.950 . S
C1093 C1092 1.349 . S
C1093 C1109 1.349 . S
C1094 C1092 1.327 . S
C1094 C1113 1.429 . S
C1094 H1118 0.950 . S
C1095 C1112 1.574 . S
C1095 C1114 1.368 . S
C1095 H1119 0.949 . S
H1096 C1100 0.949 . S
C1097 C1098 1.349 . S
C1097 C1099 1.327 . S
C1097 H1120 0.950 . S
C1098 C1097 1.349 . S
C1098 C1110 1.349 . S
C1099 C1097 1.327 . S
C1099 C1115 1.429 . S
C1099 H1121 0.950 . S
C1100 H1096 0.949 . S
C1100 C1108 1.574 . S
C1100 C1116 1.368 . S
H1101 C1109 0.950 . S
H1102 C1107 0.950 . S
H1103 C1108 0.949 . S
H1104 C1110 0.950 . S
H1105 C1111 0.950 . S
H1106 C1112 0.949 . S
C1107 H1102 0.950 . S
C1107 C1109 1.327 . S
C1107 C1113 1.429 . S
C1108 C1100 1.574 . S
C1108 H1103 0.949 . S
C1108 C1114 1.368 . S
C1109 C1093 1.349 . S
C1109 H1101 0.950 . S
C1109 C1107 1.327 . S
C1110 C1098 1.349 . S
C1110 H1104 0.950 . S
C1110 C1111 1.327 . S
C1111 H1105 0.950 . S
C1111 C1110 1.327 . S
C1111 C1115 1.429 . S
C1112 C1095 1.574 . S
C1112 H1106 0.949 . S
C1112 C1116 1.368 . S
C1113 C1094 1.429 . S
C1113 C1107 1.429 . S
C1113 C1114 1.523 . S
C1114 C1095 1.368 . S
C1114 C1108 1.368 . S
C1114 C1113 1.523 . S
C1115 C1099 1.429 . S
C1115 C1111 1.429 . S
C1115 C1116 1.523 . S
C1116 C1100 1.368 . S
C1116 C1112 1.368 . S
C1116 C1115 1.523 . S
H1117 C1092 0.950 . S
H1118 C1094 0.950 . S
H1119 C1095 0.949 . S
H1120 C1097 0.950 . S
H1121 C1099 0.950 . S
C1122 C1123 1.349 . S
C1122 C1124 1.327 . S
C1122 H1147 0.950 . S
C1123 C1122 1.349 . S
C1123 C1139 1.349 . S
C1124 C1122 1.327 . S
C1124 C1143 1.429 . S
C1124 H1148 0.950 . S
C1125 C1142 1.574 . S
C1125 C1144 1.368 . S
C1125 H1149 0.949 . S
H1126 C1130 0.949 . S
C1127 C1128 1.349 . S
C1127 C1129 1.327 . S
C1127 H1150 0.950 . S
C1128 C1127 1.349 . S
C1128 C1140 1.349 . S
C1129 C1127 1.327 . S
C1129 C1145 1.429 . S
C1129 H1151 0.950 . S
C1130 H1126 0.949 . S
C1130 C1138 1.574 . S
C1130 C1146 1.368 . S
H1131 C1139 0.950 . S
H1132 C1137 0.950 . S
H1133 C1138 0.949 . S
H1134 C1140 0.950 . S
H1135 C1141 0.950 . S
H1136 C1142 0.949 . S
C1137 H1132 0.950 . S
C1137 C1139 1.327 . S
C1137 C1143 1.429 . S
C1138 C1130 1.574 . S
C1138 H1133 0.949 . S
C1138 C1144 1.368 . S
C1139 C1123 1.349 . S
C1139 H1131 0.950 . S
C1139 C1137 1.327 . S
C1140 C1128 1.349 . S
C1140 H1134 0.950 . S
C1140 C1141 1.327 . S
C1141 H1135 0.950 . S
C1141 C1140 1.327 . S
C1141 C1145 1.429 . S
C1142 C1125 1.574 . S
C1142 H1136 0.949 . S
C1142 C1146 1.368 . S
C1143 C1124 1.429 . S
C1143 C1137 1.429 . S
C1143 C1144 1.523 . S
C1144 C1125 1.368 . S
C1144 C1138 1.368 . S
C1144 C1143 1.523 . S
C1145 C1129 1.429 . S
C1145 C1141 1.429 . S
C1145 C1146 1.523 . S
C1146 C1130 1.368 . S
C1146 C1142 1.368 . S
C1146 C1145 1.523 . S
H1147 C1122 0.950 . S
H1148 C1124 0.950 . S
H1149 C1125 0.949 . S
H1150 C1127 0.950 . S
H1151 C1129 0.950 . S
C1152 C1153 1.349 . S
C1152 C1154 1.327 . S
C1152 H1177 0.950 . S
C1153 C1152 1.349 . S
C1153 C1169 1.349 . S
C1154 C1152 1.327 . S
C1154 C1173 1.429 . S
C1154 H1178 0.950 . S
C1155 C1172 1.574 . S
C1155 C1174 1.368 . S
C1155 H1179 0.949 . S
H1156 C1160 0.949 . S
C1157 C1158 1.349 . S
C1157 C1159 1.327 . S
C1157 H1180 0.950 . S
C1158 C1157 1.349 . S
C1158 C1170 1.349 . S
C1159 C1157 1.327 . S
C1159 C1175 1.429 . S
C1159 H1181 0.950 . S
C1160 H1156 0.949 . S
C1160 C1168 1.574 . S
C1160 C1176 1.368 . S
H1161 C1169 0.950 . S
H1162 C1167 0.950 . S
H1163 C1168 0.949 . S
H1164 C1170 0.950 . S
H1165 C1171 0.950 . S
H1166 C1172 0.949 . S
C1167 H1162 0.950 . S
C1167 C1169 1.327 . S
C1167 C1173 1.429 . S
C1168 C1160 1.574 . S
C1168 H1163 0.949 . S
C1168 C1174 1.368 . S
C1169 C1153 1.349 . S
C1169 H1161 0.950 . S
C1169 C1167 1.327 . S
C1170 C1158 1.349 . S
C1170 H1164 0.950 . S
C1170 C1171 1.327 . S
C1171 H1165 0.950 . S
C1171 C1170 1.327 . S
C1171 C1175 1.429 . S
C1172 C1155 1.574 . S
C1172 H1166 0.949 . S
C1172 C1176 1.368 . S
C1173 C1154 1.429 . S
C1173 C1167 1.429 . S
C1173 C1174 1.523 . S
C1174 C1155 1.368 . S
C1174 C1168 1.368 . S
C1174 C1173 1.523 . S
C1175 C1159 1.429 . S
C1175 C1171 1.429 . S
C1175 C1176 1.523 . S
C1176 C1160 1.368 . S
C1176 C1172 1.368 . S
C1176 C1175 1.523 . S
H1177 C1152 0.950 . S
H1178 C1154 0.950 . S
H1179 C1155 0.949 . S
H1180 C1157 0.950 . S
H1181 C1159 0.950 . S
C1182 C1183 1.349 . S
C1182 C1184 1.327 . S
C1182 H1207 0.950 . S
C1183 C1182 1.349 . S
C1183 C1199 1.349 . S
C1184 C1182 1.327 . S
C1184 C1203 1.429 . S
C1184 H1208 0.950 . S
C1185 C1202 1.574 . S
C1185 C1204 1.368 . S
C1185 H1209 0.949 . S
H1186 C1190 0.949 . S
C1187 C1188 1.349 . S
C1187 C1189 1.327 . S
C1187 H1210 0.950 . S
C1188 C1187 1.349 . S
C1188 C1200 1.349 . S
C1189 C1187 1.327 . S
C1189 C1205 1.429 . S
C1189 H1211 0.950 . S
C1190 H1186 0.949 . S
C1190 C1198 1.574 . S
C1190 C1206 1.368 . S
H1191 C1199 0.950 . S
H1192 C1197 0.950 . S
H1193 C1198 0.949 . S
H1194 C1200 0.950 . S
H1195 C1201 0.950 . S
H1196 C1202 0.949 . S
C1197 H1192 0.950 . S
C1197 C1199 1.327 . S
C1197 C1203 1.429 . S
C1198 C1190 1.574 . S
C1198 H1193 0.949 . S
C1198 C1204 1.368 . S
C1199 C1183 1.349 . S
C1199 H1191 0.950 . S
C1199 C1197 1.327 . S
C1200 C1188 1.349 . S
C1200 H1194 0.950 . S
C1200 C1201 1.327 . S
C1201 H1195 0.950 . S
C1201 C1200 1.327 . S
C1201 C1205 1.429 . S
C1202 C1185 1.574 . S
C1202 H1196 0.949 . S
C1202 C1206 1.368 . S
C1203 C1184 1.429 . S
C1203 C1197 1.429 . S
C1203 C1204 1.523 . S
C1204 C1185 1.368 . S
C1204 C1198 1.368 . S
C1204 C1203 1.523 . S
C1205 C1189 1.429 . S
C1205 C1201 1.429 . S
C1205 C1206 1.523 . S
C1206 C1190 1.368 . S
C1206 C1202 1.368 . S
C1206 C1205 1.523 . S
H1207 C1182 0.950 . S
H1208 C1184 0.950 . S
H1209 C1185 0.949 . S
H1210 C1187 0.950 . S
H1211 C1189 0.950 . S
C1212 C1213 1.349 . S
C1212 C1214 1.327 . S
C1212 H1237 0.950 . S
C1213 C1212 1.349 . S
C1213 C1229 1.349 . S
C1214 C1212 1.327 . S
C1214 C1233 1.429 . S
C1214 H1238 0.950 . S
C1215 C1232 1.574 . S
C1215 C1234 1.368 . S
C1215 H1239 0.949 . S
H1216 C1220 0.949 . S
C1217 C1218 1.349 . S
C1217 C1219 1.327 . S
C1217 H1240 0.950 . S
C1218 C1217 1.349 . S
C1218 C1230 1.349 . S
C1219 C1217 1.327 . S
C1219 C1235 1.429 . S
C1219 H1241 0.950 . S
C1220 H1216 0.949 . S
C1220 C1228 1.574 . S
C1220 C1236 1.368 . S
H1221 C1229 0.950 . S
H1222 C1227 0.950 . S
H1223 C1228 0.949 . S
H1224 C1230 0.950 . S
H1225 C1231 0.950 . S
H1226 C1232 0.949 . S
C1227 H1222 0.950 . S
C1227 C1229 1.327 . S
C1227 C1233 1.429 . S
C1228 C1220 1.574 . S
C1228 H1223 0.949 . S
C1228 C1234 1.368 . S
C1229 C1213 1.349 . S
C1229 H1221 0.950 . S
C1229 C1227 1.327 . S
C1230 C1218 1.349 . S
C1230 H1224 0.950 . S
C1230 C1231 1.327 . S
C1231 H1225 0.950 . S
C1231 C1230 1.327 . S
C1231 C1235 1.429 . S
C1232 C1215 1.574 . S
C1232 H1226 0.949 . S
C1232 C1236 1.368 . S
C1233 C1214 1.429 . S
C1233 C1227 1.429 . S
C1233 C1234 1.523 . S
C1234 C1215 1.368 . S
C1234 C1228 1.368 . S
C1234 C1233 1.523 . S
C1235 C1219 1.429 . S
C1235 C1231 1.429 . S
C1235 C1236 1.523 . S
C1236 C1220 1.368 . S
C1236 C1232 1.368 . S
C1236 C1235 1.523 . S
H1237 C1212 0.950 . S
H1238 C1214 0.950 . S
H1239 C1215 0.949 . S
H1240 C1217 0.950 . S
H1241 C1219 0.950 . S
C1242 C1243 1.349 . S
C1242 C1244 1.327 . S
C1242 H1267 0.950 . S
C1243 C1242 1.349 . S
C1243 C1259 1.349 . S
C1244 C1242 1.327 . S
C1244 C1263 1.429 . S
C1244 H1268 0.950 . S
C1245 C1262 1.574 . S
C1245 C1264 1.368 . S
C1245 H1269 0.949 . S
H1246 C1250 0.949 . S
C1247 C1248 1.349 . S
C1247 C1249 1.327 . S
C1247 H1270 0.950 . S
C1248 C1247 1.349 . S
C1248 C1260 1.349 . S
C1249 C1247 1.327 . S
C1249 C1265 1.429 . S
C1249 H1271 0.950 . S
C1250 H1246 0.949 . S
C1250 C1258 1.574 . S
C1250 C1266 1.368 . S
H1251 C1259 0.950 . S
H1252 C1257 0.950 . S
H1253 C1258 0.949 . S
H1254 C1260 0.950 . S
H1255 C1261 0.950 . S
H1256 C1262 0.949 . S
C1257 H1252 0.950 . S
C1257 C1259 1.327 . S
C1257 C1263 1.429 . S
C1258 C1250 1.574 . S
C1258 H1253 0.949 . S
C1258 C1264 1.368 . S
C1259 C1243 1.349 . S
C1259 H1251 0.950 . S
C1259 C1257 1.327 . S
C1260 C1248 1.349 . S
C1260 H1254 0.950 . S
C1260 C1261 1.327 . S
C1261 H1255 0.950 . S
C1261 C1260 1.327 . S
C1261 C1265 1.429 . S
C1262 C1245 1.574 . S
C1262 H1256 0.949 . S
C1262 C1266 1.368 . S
C1263 C1244 1.429 . S
C1263 C1257 1.429 . S
C1263 C1264 1.523 . S
C1264 C1245 1.368 . S
C1264 C1258 1.368 . S
C1264 C1263 1.523 . S
C1265 C1249 1.429 . S
C1265 C1261 1.429 . S
C1265 C1266 1.523 . S
C1266 C1250 1.368 . S
C1266 C1262 1.368 . S
C1266 C1265 1.523 . S
H1267 C1242 0.950 . S
H1268 C1244 0.950 . S
H1269 C1245 0.949 . S
H1270 C1247 0.950 . S
H1271 C1249 0.950 . S
C1272 C1273 1.349 . S
C1272 C1274 1.327 . S
C1272 H1297 0.950 . S
C1273 C1272 1.349 . S
C1273 C1289 1.349 . S
C1274 C1272 1.327 . S
C1274 C1293 1.429 . S
C1274 H1298 0.950 . S
C1275 C1292 1.574 . S
C1275 C1294 1.368 . S
C1275 H1299 0.949 . S
H1276 C1280 0.949 . S
C1277 C1278 1.349 . S
C1277 C1279 1.327 . S
C1277 H1300 0.950 . S
C1278 C1277 1.349 . S
C1278 C1290 1.349 . S
C1279 C1277 1.327 . S
C1279 C1295 1.429 . S
C1279 H1301 0.950 . S
C1280 H1276 0.949 . S
C1280 C1288 1.574 . S
C1280 C1296 1.368 . S
H1281 C1289 0.950 . S
H1282 C1287 0.950 . S
H1283 C1288 0.949 . S
H1284 C1290 0.950 . S
H1285 C1291 0.950 . S
H1286 C1292 0.949 . S
C1287 H1282 0.950 . S
C1287 C1289 1.327 . S
C1287 C1293 1.429 . S
C1288 C1280 1.574 . S
C1288 H1283 0.949 . S
C1288 C1294 1.368 . S
C1289 C1273 1.349 . S
C1289 H1281 0.950 . S
C1289 C1287 1.327 . S
C1290 C1278 1.349 . S
C1290 H1284 0.950 . S
C1290 C1291 1.327 . S
C1291 H1285 0.950 . S
C1291 C1290 1.327 . S
C1291 C1295 1.429 . S
C1292 C1275 1.574 . S
C1292 H1286 0.949 . S
C1292 C1296 1.368 . S
C1293 C1274 1.429 . S
C1293 C1287 1.429 . S
C1293 C1294 1.523 . S
C1294 C1275 1.368 . S
C1294 C1288 1.368 . S
C1294 C1293 1.523 . S
C1295 C1279 1.429 . S
C1295 C1291 1.429 . S
C1295 C1296 1.523 . S
C1296 C1280 1.368 . S
C1296 C1292 1.368 . S
C1296 C1295 1.523 . S
H1297 C1272 0.950 . S
H1298 C1274 0.950 . S
H1299 C1275 0.949 . S
H1300 C1277 0.950 . S
H1301 C1279 0.950 . S
C1302 C1303 1.349 . S
C1302 C1304 1.327 . S
C1302 H1327 0.950 . S
C1303 C1302 1.349 . S
C1303 C1319 1.349 . S
C1304 C1302 1.327 . S
C1304 C1323 1.429 . S
C1304 H1328 0.950 . S
C1305 C1322 1.574 . S
C1305 C1324 1.368 . S
C1305 H1329 0.949 . S
H1306 C1310 0.949 . S
C1307 C1308 1.349 . S
C1307 C1309 1.327 . S
C1307 H1330 0.950 . S
C1308 C1307 1.349 . S
C1308 C1320 1.349 . S
C1309 C1307 1.327 . S
C1309 C1325 1.429 . S
C1309 H1331 0.950 . S
C1310 H1306 0.949 . S
C1310 C1318 1.574 . S
C1310 C1326 1.368 . S
H1311 C1319 0.950 . S
H1312 C1317 0.950 . S
H1313 C1318 0.949 . S
H1314 C1320 0.950 . S
H1315 C1321 0.950 . S
H1316 C1322 0.949 . S
C1317 H1312 0.950 . S
C1317 C1319 1.327 . S
C1317 C1323 1.429 . S
C1318 C1310 1.574 . S
C1318 H1313 0.949 . S
C1318 C1324 1.368 . S
C1319 C1303 1.349 . S
C1319 H1311 0.950 . S
C1319 C1317 1.327 . S
C1320 C1308 1.349 . S
C1320 H1314 0.950 . S
C1320 C1321 1.327 . S
C1321 H1315 0.950 . S
C1321 C1320 1.327 . S
C1321 C1325 1.429 . S
C1322 C1305 1.574 . S
C1322 H1316 0.949 . S
C1322 C1326 1.368 . S
C1323 C1304 1.429 . S
C1323 C1317 1.429 . S
C1323 C1324 1.523 . S
C1324 C1305 1.368 . S
C1324 C1318 1.368 . S
C1324 C1323 1.523 . S
C1325 C1309 1.429 . S
C1325 C1321 1.429 . S
C1325 C1326 1.523 . S
C1326 C1310 1.368 . S
C1326 C1322 1.368 . S
C1326 C1325 1.523 . S
H1327 C1302 0.950 . S
H1328 C1304 0.950 . S
H1329 C1305 0.949 . S
H1330 C1307 0.950 . S
H1331 C1309 0.950 . S
C1332 C1333 1.349 . S
C1332 C1334 1.327 . S
C1332 H1357 0.950 . S
C1333 C1332 1.349 . S
C1333 C1349 1.349 . S
C1334 C1332 1.327 . S
C1334 C1353 1.429 . S
C1334 H1358 0.950 . S
C1335 C1352 1.574 . S
C1335 C1354 1.368 . S
C1335 H1359 0.949 . S
H1336 C1340 0.949 . S
C1337 C1338 1.349 . S
C1337 C1339 1.327 . S
C1337 H1360 0.950 . S
C1338 C1337 1.349 . S
C1338 C1350 1.349 . S
C1339 C1337 1.327 . S
C1339 C1355 1.429 . S
C1339 H1361 0.950 . S
C1340 H1336 0.949 . S
C1340 C1348 1.574 . S
C1340 C1356 1.368 . S
H1341 C1349 0.950 . S
H1342 C1347 0.950 . S
H1343 C1348 0.949 . S
H1344 C1350 0.950 . S
H1345 C1351 0.950 . S
H1346 C1352 0.949 . S
C1347 H1342 0.950 . S
C1347 C1349 1.327 . S
C1347 C1353 1.429 . S
C1348 C1340 1.574 . S
C1348 H1343 0.949 . S
C1348 C1354 1.368 . S
C1349 C1333 1.349 . S
C1349 H1341 0.950 . S
C1349 C1347 1.327 . S
C1350 C1338 1.349 . S
C1350 H1344 0.950 . S
C1350 C1351 1.327 . S
C1351 H1345 0.950 . S
C1351 C1350 1.327 . S
C1351 C1355 1.429 . S
C1352 C1335 1.574 . S
C1352 H1346 0.949 . S
C1352 C1356 1.368 . S
C1353 C1334 1.429 . S
C1353 C1347 1.429 . S
C1353 C1354 1.523 . S
C1354 C1335 1.368 . S
C1354 C1348 1.368 . S
C1354 C1353 1.523 . S
C1355 C1339 1.429 . S
C1355 C1351 1.429 . S
C1355 C1356 1.523 . S
C1356 C1340 1.368 . S
C1356 C1352 1.368 . S
C1356 C1355 1.523 . S
H1357 C1332 0.950 . S
H1358 C1334 0.950 . S
H1359 C1335 0.949 . S
H1360 C1337 0.950 . S
H1361 C1339 0.950 . S
C1362 C1363 1.349 . S
C1362 C1364 1.327 . S
C1362 H1387 0.950 . S
C1363 C1362 1.349 . S
C1363 C1379 1.349 . S
C1364 C1362 1.327 . S
C1364 C1383 1.429 . S
C1364 H1388 0.950 . S
C1365 C1382 1.574 . S
C1365 C1384 1.368 . S
C1365 H1389 0.949 . S
H1366 C1370 0.949 . S
C1367 C1368 1.349 . S
C1367 C1369 1.327 . S
C1367 H1390 0.950 . S
C1368 C1367 1.349 . S
C1368 C1380 1.349 . S
C1369 C1367 1.327 . S
C1369 C1385 1.429 . S
C1369 H1391 0.950 . S
C1370 H1366 0.949 . S
C1370 C1378 1.574 . S
C1370 C1386 1.368 . S
H1371 C1379 0.950 . S
H1372 C1377 0.950 . S
H1373 C1378 0.949 . S
H1374 C1380 0.950 . S
H1375 C1381 0.950 . S
H1376 C1382 0.949 . S
C1377 H1372 0.950 . S
C1377 C1379 1.327 . S
C1377 C1383 1.429 . S
C1378 C1370 1.574 . S
C1378 H1373 0.949 . S
C1378 C1384 1.368 . S
C1379 C1363 1.349 . S
C1379 H1371 0.950 . S
C1379 C1377 1.327 . S
C1380 C1368 1.349 . S
C1380 H1374 0.950 . S
C1380 C1381 1.327 . S
C1381 H1375 0.950 . S
C1381 C1380 1.327 . S
C1381 C1385 1.429 . S
C1382 C1365 1.574 . S
C1382 H1376 0.949 . S
C1382 C1386 1.368 . S
C1383 C1364 1.429 . S
C1383 C1377 1.429 . S
C1383 C1384 1.523 . S
C1384 C1365 1.368 . S
C1384 C1378 1.368 . S
C1384 C1383 1.523 . S
C1385 C1369 1.429 . S
C1385 C1381 1.429 . S
C1385 C1386 1.523 . S
C1386 C1370 1.368 . S
C1386 C1382 1.368 . S
C1386 C1385 1.523 . S
H1387 C1362 0.950 . S
H1388 C1364 0.950 . S
H1389 C1365 0.949 . S
H1390 C1367 0.950 . S
H1391 C1369 0.950 . S
C1392 C1393 1.349 . S
C1392 C1394 1.327 . S
C1392 H1417 0.950 . S
C1393 C1392 1.349 . S
C1393 C1409 1.349 . S
C1394 C1392 1.327 . S
C1394 C1413 1.429 . S
C1394 H1418 0.950 . S
C1395 C1412 1.574 . S
C1395 C1414 1.368 . S
C1395 H1419 0.949 . S
H1396 C1400 0.949 . S
C1397 C1398 1.349 . S
C1397 C1399 1.327 . S
C1397 H1420 0.950 . S
C1398 C1397 1.349 . S
C1398 C1410 1.349 . S
C1399 C1397 1.327 . S
C1399 C1415 1.429 . S
C1399 H1421 0.950 . S
C1400 H1396 0.949 . S
C1400 C1408 1.574 . S
C1400 C1416 1.368 . S
H1401 C1409 0.950 . S
H1402 C1407 0.950 . S
H1403 C1408 0.949 . S
H1404 C1410 0.950 . S
H1405 C1411 0.950 . S
H1406 C1412 0.949 . S
C1407 H1402 0.950 . S
C1407 C1409 1.327 . S
C1407 C1413 1.429 . S
C1408 C1400 1.574 . S
C1408 H1403 0.949 . S
C1408 C1414 1.368 . S
C1409 C1393 1.349 . S
C1409 H1401 0.950 . S
C1409 C1407 1.327 . S
C1410 C1398 1.349 . S
C1410 H1404 0.950 . S
C1410 C1411 1.327 . S
C1411 H1405 0.950 . S
C1411 C1410 1.327 . S
C1411 C1415 1.429 . S
C1412 C1395 1.574 . S
C1412 H1406 0.949 . S
C1412 C1416 1.368 . S
C1413 C1394 1.429 . S
C1413 C1407 1.429 . S
C1413 C1414 1.523 . S
C1414 C1395 1.368 . S
C1414 C1408 1.368 . S
C1414 C1413 1.523 . S
C1415 C1399 1.429 . S
C1415 C1411 1.429 . S
C1415 C1416 1.523 . S
C1416 C1400 1.368 . S
C1416 C1412 1.368 . S
C1416 C1415 1.523 . S
H1417 C1392 0.950 . S
H1418 C1394 0.950 . S
H1419 C1395 0.949 . S
H1420 C1397 0.950 . S
H1421 C1399 0.950 . S
C1422 C1423 1.349 . S
C1422 C1424 1.327 . S
C1422 H1447 0.950 . S
C1423 C1422 1.349 . S
C1423 C1439 1.349 . S
C1424 C1422 1.327 . S
C1424 C1443 1.429 . S
C1424 H1448 0.950 . S
C1425 C1442 1.574 . S
C1425 C1444 1.368 . S
C1425 H1449 0.949 . S
H1426 C1430 0.949 . S
C1427 C1428 1.349 . S
C1427 C1429 1.327 . S
C1427 H1450 0.950 . S
C1428 C1427 1.349 . S
C1428 C1440 1.349 . S
C1429 C1427 1.327 . S
C1429 C1445 1.429 . S
C1429 H1451 0.950 . S
C1430 H1426 0.949 . S
C1430 C1438 1.574 . S
C1430 C1446 1.368 . S
H1431 C1439 0.950 . S
H1432 C1437 0.950 . S
H1433 C1438 0.949 . S
H1434 C1440 0.950 . S
H1435 C1441 0.950 . S
H1436 C1442 0.949 . S
C1437 H1432 0.950 . S
C1437 C1439 1.327 . S
C1437 C1443 1.429 . S
C1438 C1430 1.574 . S
C1438 H1433 0.949 . S
C1438 C1444 1.368 . S
C1439 C1423 1.349 . S
C1439 H1431 0.950 . S
C1439 C1437 1.327 . S
C1440 C1428 1.349 . S
C1440 H1434 0.950 . S
C1440 C1441 1.327 . S
C1441 H1435 0.950 . S
C1441 C1440 1.327 . S
C1441 C1445 1.429 . S
C1442 C1425 1.574 . S
C1442 H1436 0.949 . S
C1442 C1446 1.368 . S
C1443 C1424 1.429 . S
C1443 C1437 1.429 . S
C1443 C1444 1.523 . S
C1444 C1425 1.368 . S
C1444 C1438 1.368 . S
C1444 C1443 1.523 . S
C1445 C1429 1.429 . S
C1445 C1441 1.429 . S
C1445 C1446 1.523 . S
C1446 C1430 1.368 . S
C1446 C1442 1.368 . S
C1446 C1445 1.523 . S
H1447 C1422 0.950 . S
H1448 C1424 0.950 . S
H1449 C1425 0.949 . S
H1450 C1427 0.950 . S
H1451 C1429 0.950 . S
C1452 C1453 1.349 . S
C1452 C1454 1.327 . S
C1452 H1477 0.950 . S
C1453 C1452 1.349 . S
C1453 C1469 1.349 . S
C1454 C1452 1.327 . S
C1454 C1473 1.429 . S
C1454 H1478 0.950 . S
C1455 C1472 1.574 . S
C1455 C1474 1.368 . S
C1455 H1479 0.949 . S
H1456 C1460 0.949 . S
C1457 C1458 1.349 . S
C1457 C1459 1.327 . S
C1457 H1480 0.950 . S
C1458 C1457 1.349 . S
C1458 C1470 1.349 . S
C1459 C1457 1.327 . S
C1459 C1475 1.429 . S
C1459 H1481 0.950 . S
C1460 H1456 0.949 . S
C1460 C1468 1.574 . S
C1460 C1476 1.368 . S
H1461 C1469 0.950 . S
H1462 C1467 0.950 . S
H1463 C1468 0.949 . S
H1464 C1470 0.950 . S
H1465 C1471 0.950 . S
H1466 C1472 0.949 . S
C1467 H1462 0.950 . S
C1467 C1469 1.327 . S
C1467 C1473 1.429 . S
C1468 C1460 1.574 . S
C1468 H1463 0.949 . S
C1468 C1474 1.368 . S
C1469 C1453 1.349 . S
C1469 H1461 0.950 . S
C1469 C1467 1.327 . S
C1470 C1458 1.349 . S
C1470 H1464 0.950 . S
C1470 C1471 1.327 . S
C1471 H1465 0.950 . S
C1471 C1470 1.327 . S
C1471 C1475 1.429 . S
C1472 C1455 1.574 . S
C1472 H1466 0.949 . S
C1472 C1476 1.368 . S
C1473 C1454 1.429 . S
C1473 C1467 1.429 . S
C1473 C1474 1.523 . S
C1474 C1455 1.368 . S
C1474 C1468 1.368 . S
C1474 C1473 1.523 . S
C1475 C1459 1.429 . S
C1475 C1471 1.429 . S
C1475 C1476 1.523 . S
C1476 C1460 1.368 . S
C1476 C1472 1.368 . S
C1476 C1475 1.523 . S
H1477 C1452 0.950 . S
H1478 C1454 0.950 . S
H1479 C1455 0.949 . S
H1480 C1457 0.950 . S
H1481 C1459 0.950 . S
C1482 C1483 1.349 . S
C1482 C1484 1.327 . S
C1482 H1507 0.950 . S
C1483 C1482 1.349 . S
C1483 C1499 1.349 . S
C1484 C1482 1.327 . S
C1484 C1503 1.429 . S
C1484 H1508 0.950 . S
C1485 C1502 1.574 . S
C1485 C1504 1.368 . S
C1485 H1509 0.949 . S
H1486 C1490 0.949 . S
C1487 C1488 1.349 . S
C1487 C1489 1.327 . S
C1487 H1510 0.950 . S
C1488 C1487 1.349 . S
C1488 C1500 1.349 . S
C1489 C1487 1.327 . S
C1489 C1505 1.429 . S
C1489 H1511 0.950 . S
C1490 H1486 0.949 . S
C1490 C1498 1.574 . S
C1490 C1506 1.368 . S
H1491 C1499 0.950 . S
H1492 C1497 0.950 . S
H1493 C1498 0.949 . S
H1494 C1500 0.950 . S
H1495 C1501 0.950 . S
H1496 C1502 0.949 . S
C1497 H1492 0.950 . S
C1497 C1499 1.327 . S
C1497 C1503 1.429 . S
C1498 C1490 1.574 . S
C1498 H1493 0.949 . S
C1498 C1504 1.368 . S
C1499 C1483 1.349 . S
C1499 H1491 0.950 . S
C1499 C1497 1.327 . S
C1500 C1488 1.349 . S
C1500 H1494 0.950 . S
C1500 C1501 1.327 . S
C1501 H1495 0.950 . S
C1501 C1500 1.327 . S
C1501 C1505 1.429 . S
C1502 C1485 1.574 . S
C1502 H1496 0.949 . S
C1502 C1506 1.368 . S
C1503 C1484 1.429 . S
C1503 C1497 1.429 . S
C1503 C1504 1.523 . S
C1504 C1485 1.368 . S
C1504 C1498 1.368 . S
C1504 C1503 1.523 . S
C1505 C1489 1.429 . S
C1505 C1501 1.429 . S
C1505 C1506 1.523 . S
C1506 C1490 1.368 . S
C1506 C1502 1.368 . S
C1506 C1505 1.523 . S
H1507 C1482 0.950 . S
H1508 C1484 0.950 . S
H1509 C1485 0.949 . S
H1510 C1487 0.950 . S
H1511 C1489 0.950 . S
C1512 C1513 1.349 . S
C1512 C1514 1.327 . S
C1512 H1537 0.950 . S
C1513 C1512 1.349 . S
C1513 C1529 1.349 . S
C1514 C1512 1.327 . S
C1514 C1533 1.429 . S
C1514 H1538 0.950 . S
C1515 C1532 1.574 . S
C1515 C1534 1.368 . S
C1515 H1539 0.949 . S
H1516 C1520 0.949 . S
C1517 C1518 1.349 . S
C1517 C1519 1.327 . S
C1517 H1540 0.950 . S
C1518 C1517 1.349 . S
C1518 C1530 1.349 . S
C1519 C1517 1.327 . S
C1519 C1535 1.429 . S
C1519 H1541 0.950 . S
C1520 H1516 0.949 . S
C1520 C1528 1.574 . S
C1520 C1536 1.368 . S
H1521 C1529 0.950 . S
H1522 C1527 0.950 . S
H1523 C1528 0.949 . S
H1524 C1530 0.950 . S
H1525 C1531 0.950 . S
H1526 C1532 0.949 . S
C1527 H1522 0.950 . S
C1527 C1529 1.327 . S
C1527 C1533 1.429 . S
C1528 C1520 1.574 . S
C1528 H1523 0.949 . S
C1528 C1534 1.368 . S
C1529 C1513 1.349 . S
C1529 H1521 0.950 . S
C1529 C1527 1.327 . S
C1530 C1518 1.349 . S
C1530 H1524 0.950 . S
C1530 C1531 1.327 . S
C1531 H1525 0.950 . S
C1531 C1530 1.327 . S
C1531 C1535 1.429 . S
C1532 C1515 1.574 . S
C1532 H1526 0.949 . S
C1532 C1536 1.368 . S
C1533 C1514 1.429 . S
C1533 C1527 1.429 . S
C1533 C1534 1.523 . S
C1534 C1515 1.368 . S
C1534 C1528 1.368 . S
C1534 C1533 1.523 . S
C1535 C1519 1.429 . S
C1535 C1531 1.429 . S
C1535 C1536 1.523 . S
C1536 C1520 1.368 . S
C1536 C1532 1.368 . S
C1536 C1535 1.523 . S
H1537 C1512 0.950 . S
H1538 C1514 0.950 . S
H1539 C1515 0.949 . S
H1540 C1517 0.950 . S
H1541 C1519 0.950 . S
C1542 C1543 1.349 . S
C1542 C1544 1.327 . S
C1542 H1567 0.950 . S
C1543 C1542 1.349 . S
C1543 C1559 1.349 . S
C1544 C1542 1.327 . S
C1544 C1563 1.429 . S
C1544 H1568 0.950 . S
C1545 C1562 1.574 . S
C1545 C1564 1.368 . S
C1545 H1569 0.949 . S
H1546 C1550 0.949 . S
C1547 C1548 1.349 . S
C1547 C1549 1.327 . S
C1547 H1570 0.950 . S
C1548 C1547 1.349 . S
C1548 C1560 1.349 . S
C1549 C1547 1.327 . S
C1549 C1565 1.429 . S
C1549 H1571 0.950 . S
C1550 H1546 0.949 . S
C1550 C1558 1.574 . S
C1550 C1566 1.368 . S
H1551 C1559 0.950 . S
H1552 C1557 0.950 . S
H1553 C1558 0.949 . S
H1554 C1560 0.950 . S
H1555 C1561 0.950 . S
H1556 C1562 0.949 . S
C1557 H1552 0.950 . S
C1557 C1559 1.327 . S
C1557 C1563 1.429 . S
C1558 C1550 1.574 . S
C1558 H1553 0.949 . S
C1558 C1564 1.368 . S
C1559 C1543 1.349 . S
C1559 H1551 0.950 . S
C1559 C1557 1.327 . S
C1560 C1548 1.349 . S
C1560 H1554 0.950 . S
C1560 C1561 1.327 . S
C1561 H1555 0.950 . S
C1561 C1560 1.327 . S
C1561 C1565 1.429 . S
C1562 C1545 1.574 . S
C1562 H1556 0.949 . S
C1562 C1566 1.368 . S
C1563 C1544 1.429 . S
C1563 C1557 1.429 . S
C1563 C1564 1.523 . S
C1564 C1545 1.368 . S
C1564 C1558 1.368 . S
C1564 C1563 1.523 . S
C1565 C1549 1.429 . S
C1565 C1561 1.429 . S
C1565 C1566 1.523 . S
C1566 C1550 1.368 . S
C1566 C1562 1.368 . S
C1566 C1565 1.523 . S
H1567 C1542 0.950 . S
H1568 C1544 0.950 . S
H1569 C1545 0.949 . S
H1570 C1547 0.950 . S
H1571 C1549 0.950 . S
C1572 C1573 1.349 . S
C1572 C1574 1.327 . S
C1572 H1597 0.950 . S
C1573 C1572 1.349 . S
C1573 C1589 1.349 . S
C1574 C1572 1.327 . S
C1574 C1593 1.429 . S
C1574 H1598 0.950 . S
C1575 C1592 1.574 . S
C1575 C1594 1.368 . S
C1575 H1599 0.949 . S
H1576 C1580 0.949 . S
C1577 C1578 1.349 . S
C1577 C1579 1.327 . S
C1577 H1600 0.950 . S
C1578 C1577 1.349 . S
C1578 C1590 1.349 . S
C1579 C1577 1.327 . S
C1579 C1595 1.429 . S
C1579 H1601 0.950 . S
C1580 H1576 0.949 . S
C1580 C1588 1.574 . S
C1580 C1596 1.368 . S
H1581 C1589 0.950 . S
H1582 C1587 0.950 . S
H1583 C1588 0.949 . S
H1584 C1590 0.950 . S
H1585 C1591 0.950 . S
H1586 C1592 0.949 . S
C1587 H1582 0.950 . S
C1587 C1589 1.327 . S
C1587 C1593 1.429 . S
C1588 C1580 1.574 . S
C1588 H1583 0.949 . S
C1588 C1594 1.368 . S
C1589 C1573 1.349 . S
C1589 H1581 0.950 . S
C1589 C1587 1.327 . S
C1590 C1578 1.349 . S
C1590 H1584 0.950 . S
C1590 C1591 1.327 . S
C1591 H1585 0.950 . S
C1591 C1590 1.327 . S
C1591 C1595 1.429 . S
C1592 C1575 1.574 . S
C1592 H1586 0.949 . S
C1592 C1596 1.368 . S
C1593 C1574 1.429 . S
C1593 C1587 1.429 . S
C1593 C1594 1.523 . S
C1594 C1575 1.368 . S
C1594 C1588 1.368 . S
C1594 C1593 1.523 . S
C1595 C1579 1.429 . S
C1595 C1591 1.429 . S
C1595 C1596 1.523 . S
C1596 C1580 1.368 . S
C1596 C1592 1.368 . S
C1596 C1595 1.523 . S
H1597 C1572 0.950 . S
H1598 C1574 0.950 . S
H1599 C1575 0.949 . S
H1600 C1577 0.950 . S
H1601 C1579 0.950 . S
C1602 C1603 1.349 . S
C1602 C1604 1.327 . S
C1602 H1627 0.950 . S
C1603 C1602 1.349 . S
C1603 C1619 1.349 . S
C1604 C1602 1.327 . S
C1604 C1623 1.429 . S
C1604 H1628 0.950 . S
C1605 C1622 1.574 . S
C1605 C1624 1.368 . S
C1605 H1629 0.949 . S
H1606 C1610 0.949 . S
C1607 C1608 1.349 . S
C1607 C1609 1.327 . S
C1607 H1630 0.950 . S
C1608 C1607 1.349 . S
C1608 C1620 1.349 . S
C1609 C1607 1.327 . S
C1609 C1625 1.429 . S
C1609 H1631 0.950 . S
C1610 H1606 0.949 . S
C1610 C1618 1.574 . S
C1610 C1626 1.368 . S
H1611 C1619 0.950 . S
H1612 C1617 0.950 . S
H1613 C1618 0.949 . S
H1614 C1620 0.950 . S
H1615 C1621 0.950 . S
H1616 C1622 0.949 . S
C1617 H1612 0.950 . S
C1617 C1619 1.327 . S
C1617 C1623 1.429 . S
C1618 C1610 1.574 . S
C1618 H1613 0.949 . S
C1618 C1624 1.368 . S
C1619 C1603 1.349 . S
C1619 H1611 0.950 . S
C1619 C1617 1.327 . S
C1620 C1608 1.349 . S
C1620 H1614 0.950 . S
C1620 C1621 1.327 . S
C1621 H1615 0.950 . S
C1621 C1620 1.327 . S
C1621 C1625 1.429 . S
C1622 C1605 1.574 . S
C1622 H1616 0.949 . S
C1622 C1626 1.368 . S
C1623 C1604 1.429 . S
C1623 C1617 1.429 . S
C1623 C1624 1.523 . S
C1624 C1605 1.368 . S
C1624 C1618 1.368 . S
C1624 C1623 1.523 . S
C1625 C1609 1.429 . S
C1625 C1621 1.429 . S
C1625 C1626 1.523 . S
C1626 C1610 1.368 . S
C1626 C1622 1.368 . S
C1626 C1625 1.523 . S
H1627 C1602 0.950 . S
H1628 C1604 0.950 . S
H1629 C1605 0.949 . S
H1630 C1607 0.950 . S
H1631 C1609 0.950 . S
C1632 C1633 1.349 . S
C1632 C1634 1.327 . S
C1632 H1657 0.950 . S
C1633 C1632 1.349 . S
C1633 C1649 1.349 . S
C1634 C1632 1.327 . S
C1634 C1653 1.429 . S
C1634 H1658 0.950 . S
C1635 C1652 1.574 . S
C1635 C1654 1.368 . S
C1635 H1659 0.949 . S
H1636 C1640 0.949 . S
C1637 C1638 1.349 . S
C1637 C1639 1.327 . S
C1637 H1660 0.950 . S
C1638 C1637 1.349 . S
C1638 C1650 1.349 . S
C1639 C1637 1.327 . S
C1639 C1655 1.429 . S
C1639 H1661 0.950 . S
C1640 H1636 0.949 . S
C1640 C1648 1.574 . S
C1640 C1656 1.368 . S
H1641 C1649 0.950 . S
H1642 C1647 0.950 . S
H1643 C1648 0.949 . S
H1644 C1650 0.950 . S
H1645 C1651 0.950 . S
H1646 C1652 0.949 . S
C1647 H1642 0.950 . S
C1647 C1649 1.327 . S
C1647 C1653 1.429 . S
C1648 C1640 1.574 . S
C1648 H1643 0.949 . S
C1648 C1654 1.368 . S
C1649 C1633 1.349 . S
C1649 H1641 0.950 . S
C1649 C1647 1.327 . S
C1650 C1638 1.349 . S
C1650 H1644 0.950 . S
C1650 C1651 1.327 . S
C1651 H1645 0.950 . S
C1651 C1650 1.327 . S
C1651 C1655 1.429 . S
C1652 C1635 1.574 . S
C1652 H1646 0.949 . S
C1652 C1656 1.368 . S
C1653 C1634 1.429 . S
C1653 C1647 1.429 . S
C1653 C1654 1.523 . S
C1654 C1635 1.368 . S
C1654 C1648 1.368 . S
C1654 C1653 1.523 . S
C1655 C1639 1.429 . S
C1655 C1651 1.429 . S
C1655 C1656 1.523 . S
C1656 C1640 1.368 . S
C1656 C1652 1.368 . S
C1656 C1655 1.523 . S
H1657 C1632 0.950 . S
H1658 C1634 0.950 . S
H1659 C1635 0.949 . S
H1660 C1637 0.950 . S
H1661 C1639 0.950 . S
C1662 C1663 1.349 . S
C1662 C1664 1.327 . S
C1662 H1687 0.950 . S
C1663 C1662 1.349 . S
C1663 C1679 1.349 . S
C1664 C1662 1.327 . S
C1664 C1683 1.429 . S
C1664 H1688 0.950 . S
C1665 C1682 1.574 . S
C1665 C1684 1.368 . S
C1665 H1689 0.949 . S
H1666 C1670 0.949 . S
C1667 C1668 1.349 . S
C1667 C1669 1.327 . S
C1667 H1690 0.950 . S
C1668 C1667 1.349 . S
C1668 C1680 1.349 . S
C1669 C1667 1.327 . S
C1669 C1685 1.429 . S
C1669 H1691 0.950 . S
C1670 H1666 0.949 . S
C1670 C1678 1.574 . S
C1670 C1686 1.368 . S
H1671 C1679 0.950 . S
H1672 C1677 0.950 . S
H1673 C1678 0.949 . S
H1674 C1680 0.950 . S
H1675 C1681 0.950 . S
H1676 C1682 0.949 . S
C1677 H1672 0.950 . S
C1677 C1679 1.327 . S
C1677 C1683 1.429 . S
C1678 C1670 1.574 . S
C1678 H1673 0.949 . S
C1678 C1684 1.368 . S
C1679 C1663 1.349 . S
C1679 H1671 0.950 . S
C1679 C1677 1.327 . S
C1680 C1668 1.349 . S
C1680 H1674 0.950 . S
C1680 C1681 1.327 . S
C1681 H1675 0.950 . S
C1681 C1680 1.327 . S
C1681 C1685 1.429 . S
C1682 C1665 1.574 . S
C1682 H1676 0.949 . S
C1682 C1686 1.368 . S
C1683 C1664 1.429 . S
C1683 C1677 1.429 . S
C1683 C1684 1.523 . S
C1684 C1665 1.368 . S
C1684 C1678 1.368 . S
C1684 C1683 1.523 . S
C1685 C1669 1.429 . S
C1685 C1681 1.429 . S
C1685 C1686 1.523 . S
C1686 C1670 1.368 . S
C1686 C1682 1.368 . S
C1686 C1685 1.523 . S
H1687 C1662 0.950 . S
H1688 C1664 0.950 . S
H1689 C1665 0.949 . S
H1690 C1667 0.950 . S
H1691 C1669 0.950 . S
C1692 C1693 1.349 . S
C1692 C1694 1.327 . S
C1692 H1717 0.950 . S
C1693 C1692 1.349 . S
C1693 C1709 1.349 . S
C1694 C1692 1.327 . S
C1694 C1713 1.429 . S
C1694 H1718 0.950 . S
C1695 C1712 1.574 . S
C1695 C1714 1.368 . S
C1695 H1719 0.949 . S
H1696 C1700 0.949 . S
C1697 C1698 1.349 . S
C1697 C1699 1.327 . S
C1697 H1720 0.950 . S
C1698 C1697 1.349 . S
C1698 C1710 1.349 . S
C1699 C1697 1.327 . S
C1699 C1715 1.429 . S
C1699 H1721 0.950 . S
C1700 H1696 0.949 . S
C1700 C1708 1.574 . S
C1700 C1716 1.368 . S
H1701 C1709 0.950 . S
H1702 C1707 0.950 . S
H1703 C1708 0.949 . S
H1704 C1710 0.950 . S
H1705 C1711 0.950 . S
H1706 C1712 0.949 . S
C1707 H1702 0.950 . S
C1707 C1709 1.327 . S
C1707 C1713 1.429 . S
C1708 C1700 1.574 . S
C1708 H1703 0.949 . S
C1708 C1714 1.368 . S
C1709 C1693 1.349 . S
C1709 H1701 0.950 . S
C1709 C1707 1.327 . S
C1710 C1698 1.349 . S
C1710 H1704 0.950 . S
C1710 C1711 1.327 . S
C1711 H1705 0.950 . S
C1711 C1710 1.327 . S
C1711 C1715 1.429 . S
C1712 C1695 1.574 . S
C1712 H1706 0.949 . S
C1712 C1716 1.368 . S
C1713 C1694 1.429 . S
C1713 C1707 1.429 . S
C1713 C1714 1.523 . S
C1714 C1695 1.368 . S
C1714 C1708 1.368 . S
C1714 C1713 1.523 . S
C1715 C1699 1.429 . S
C1715 C1711 1.429 . S
C1715 C1716 1.523 . S
C1716 C1700 1.368 . S
C1716 C1712 1.368 . S
C1716 C1715 1.523 . S
H1717 C1692 0.950 . S
H1718 C1694 0.950 . S
H1719 C1695 0.949 . S
H1720 C1697 0.950 . S
H1721 C1699 0.950 . S
C1722 C1723 1.349 . S
C1722 C1724 1.327 . S
C1722 H1747 0.950 . S
C1723 C1722 1.349 . S
C1723 C1739 1.349 . S
C1724 C1722 1.327 . S
C1724 C1743 1.429 . S
C1724 H1748 0.950 . S
C1725 C1742 1.574 . S
C1725 C1744 1.368 . S
C1725 H1749 0.949 . S
H1726 C1730 0.949 . S
C1727 C1728 1.349 . S
C1727 C1729 1.327 . S
C1727 H1750 0.950 . S
C1728 C1727 1.349 . S
C1728 C1740 1.349 . S
C1729 C1727 1.327 . S
C1729 C1745 1.429 . S
C1729 H1751 0.950 . S
C1730 H1726 0.949 . S
C1730 C1738 1.574 . S
C1730 C1746 1.368 . S
H1731 C1739 0.950 . S
H1732 C1737 0.950 . S
H1733 C1738 0.949 . S
H1734 C1740 0.950 . S
H1735 C1741 0.950 . S
H1736 C1742 0.949 . S
C1737 H1732 0.950 . S
C1737 C1739 1.327 . S
C1737 C1743 1.429 . S
C1738 C1730 1.574 . S
C1738 H1733 0.949 . S
C1738 C1744 1.368 . S
C1739 C1723 1.349 . S
C1739 H1731 0.950 . S
C1739 C1737 1.327 . S
C1740 C1728 1.349 . S
C1740 H1734 0.950 . S
C1740 C1741 1.327 . S
C1741 H1735 0.950 . S
C1741 C1740 1.327 . S
C1741 C1745 1.429 . S
C1742 C1725 1.574 . S
C1742 H1736 0.949 . S
C1742 C1746 1.368 . S
C1743 C1724 1.429 . S
C1743 C1737 1.429 . S
C1743 C1744 1.523 . S
C1744 C1725 1.368 . S
C1744 C1738 1.368 . S
C1744 C1743 1.523 . S
C1745 C1729 1.429 . S
C1745 C1741 1.429 . S
C1745 C1746 1.523 . S
C1746 C1730 1.368 . S
C1746 C1742 1.368 . S
C1746 C1745 1.523 . S
H1747 C1722 0.950 . S
H1748 C1724 0.950 . S
H1749 C1725 0.949 . S
H1750 C1727 0.950 . S
H1751 C1729 0.950 . S
C1752 C1753 1.349 . S
C1752 C1754 1.327 . S
C1752 H1777 0.950 . S
C1753 C1752 1.349 . S
C1753 C1769 1.349 . S
C1754 C1752 1.327 . S
C1754 C1773 1.429 . S
C1754 H1778 0.950 . S
C1755 C1772 1.574 . S
C1755 C1774 1.368 . S
C1755 H1779 0.949 . S
H1756 C1760 0.949 . S
C1757 C1758 1.349 . S
C1757 C1759 1.327 . S
C1757 H1780 0.950 . S
C1758 C1757 1.349 . S
C1758 C1770 1.349 . S
C1759 C1757 1.327 . S
C1759 C1775 1.429 . S
C1759 H1781 0.950 . S
C1760 H1756 0.949 . S
C1760 C1768 1.574 . S
C1760 C1776 1.368 . S
H1761 C1769 0.950 . S
H1762 C1767 0.950 . S
H1763 C1768 0.949 . S
H1764 C1770 0.950 . S
H1765 C1771 0.950 . S
H1766 C1772 0.949 . S
C1767 H1762 0.950 . S
C1767 C1769 1.327 . S
C1767 C1773 1.429 . S
C1768 C1760 1.574 . S
C1768 H1763 0.949 . S
C1768 C1774 1.368 . S
C1769 C1753 1.349 . S
C1769 H1761 0.950 . S
C1769 C1767 1.327 . S
C1770 C1758 1.349 . S
C1770 H1764 0.950 . S
C1770 C1771 1.327 . S
C1771 H1765 0.950 . S
C1771 C1770 1.327 . S
C1771 C1775 1.429 . S
C1772 C1755 1.574 . S
C1772 H1766 0.949 . S
C1772 C1776 1.368 . S
C1773 C1754 1.429 . S
C1773 C1767 1.429 . S
C1773 C1774 1.523 . S
C1774 C1755 1.368 . S
C1774 C1768 1.368 . S
C1774 C1773 1.523 . S
C1775 C1759 1.429 . S
C1775 C1771 1.429 . S
C1775 C1776 1.523 . S
C1776 C1760 1.368 . S
C1776 C1772 1.368 . S
C1776 C1775 1.523 . S
H1777 C1752 0.950 . S
H1778 C1754 0.950 . S
H1779 C1755 0.949 . S
H1780 C1757 0.950 . S
H1781 C1759 0.950 . S
C1782 C1783 1.349 . S
C1782 C1784 1.327 . S
C1782 H1807 0.950 . S
C1783 C1782 1.349 . S
C1783 C1799 1.349 . S
C1784 C1782 1.327 . S
C1784 C1803 1.429 . S
C1784 H1808 0.950 . S
C1785 C1802 1.574 . S
C1785 C1804 1.368 . S
C1785 H1809 0.949 . S
H1786 C1790 0.949 . S
C1787 C1788 1.349 . S
C1787 C1789 1.327 . S
C1787 H1810 0.950 . S
C1788 C1787 1.349 . S
C1788 C1800 1.349 . S
C1789 C1787 1.327 . S
C1789 C1805 1.429 . S
C1789 H1811 0.950 . S
C1790 H1786 0.949 . S
C1790 C1798 1.574 . S
C1790 C1806 1.368 . S
H1791 C1799 0.950 . S
H1792 C1797 0.950 . S
H1793 C1798 0.949 . S
H1794 C1800 0.950 . S
H1795 C1801 0.950 . S
H1796 C1802 0.949 . S
C1797 H1792 0.950 . S
C1797 C1799 1.327 . S
C1797 C1803 1.429 . S
C1798 C1790 1.574 . S
C1798 H1793 0.949 . S
C1798 C1804 1.368 . S
C1799 C1783 1.349 . S
C1799 H1791 0.950 . S
C1799 C1797 1.327 . S
C1800 C1788 1.349 . S
C1800 H1794 0.950 . S
C1800 C1801 1.327 . S
C1801 H1795 0.950 . S
C1801 C1800 1.327 . S
C1801 C1805 1.429 . S
C1802 C1785 1.574 . S
C1802 H1796 0.949 . S
C1802 C1806 1.368 . S
C1803 C1784 1.429 . S
C1803 C1797 1.429 . S
C1803 C1804 1.523 . S
C1804 C1785 1.368 . S
C1804 C1798 1.368 . S
C1804 C1803 1.523 . S
C1805 C1789 1.429 . S
C1805 C1801 1.429 . S
C1805 C1806 1.523 . S
C1806 C1790 1.368 . S
C1806 C1802 1.368 . S
C1806 C1805 1.523 . S
H1807 C1782 0.950 . S
H1808 C1784 0.950 . S
H1809 C1785 0.949 . S
H1810 C1787 0.950 . S
H1811 C1789 0.950 . S
C1812 C1813 1.349 . S
C1812 C1814 1.327 . S
C1812 H1837 0.950 . S
C1813 C1812 1.349 . S
C1813 C1829 1.349 . S
C1814 C1812 1.327 . S
C1814 C1833 1.429 . S
C1814 H1838 0.950 . S
C1815 C1832 1.574 . S
C1815 C1834 1.368 . S
C1815 H1839 0.949 . S
H1816 C1820 0.949 . S
C1817 C1818 1.349 . S
C1817 C1819 1.327 . S
C1817 H1840 0.950 . S
C1818 C1817 1.349 . S
C1818 C1830 1.349 . S
C1819 C1817 1.327 . S
C1819 C1835 1.429 . S
C1819 H1841 0.950 . S
C1820 H1816 0.949 . S
C1820 C1828 1.574 . S
C1820 C1836 1.368 . S
H1821 C1829 0.950 . S
H1822 C1827 0.950 . S
H1823 C1828 0.949 . S
H1824 C1830 0.950 . S
H1825 C1831 0.950 . S
H1826 C1832 0.949 . S
C1827 H1822 0.950 . S
C1827 C1829 1.327 . S
C1827 C1833 1.429 . S
C1828 C1820 1.574 . S
C1828 H1823 0.949 . S
C1828 C1834 1.368 . S
C1829 C1813 1.349 . S
C1829 H1821 0.950 . S
C1829 C1827 1.327 . S
C1830 C1818 1.349 . S
C1830 H1824 0.950 . S
C1830 C1831 1.327 . S
C1831 H1825 0.950 . S
C1831 C1830 1.327 . S
C1831 C1835 1.429 . S
C1832 C1815 1.574 . S
C1832 H1826 0.949 . S
C1832 C1836 1.368 . S
C1833 C1814 1.429 . S
C1833 C1827 1.429 . S
C1833 C1834 1.523 . S
C1834 C1815 1.368 . S
C1834 C1828 1.368 . S
C1834 C1833 1.523 . S
C1835 C1819 1.429 . S
C1835 C1831 1.429 . S
C1835 C1836 1.523 . S
C1836 C1820 1.368 . S
C1836 C1832 1.368 . S
C1836 C1835 1.523 . S
H1837 C1812 0.950 . S
H1838 C1814 0.950 . S
H1839 C1815 0.949 . S
H1840 C1817 0.950 . S
H1841 C1819 0.950 . S
C1842 C1843 1.349 . S
C1842 C1844 1.327 . S
C1842 H1867 0.950 . S
C1843 C1842 1.349 . S
C1843 C1859 1.349 . S
C1844 C1842 1.327 . S
C1844 C1863 1.429 . S
C1844 H1868 0.950 . S
C1845 C1862 1.574 . S
C1845 C1864 1.368 . S
C1845 H1869 0.949 . S
H1846 C1850 0.949 . S
C1847 C1848 1.349 . S
C1847 C1849 1.327 . S
C1847 H1870 0.950 . S
C1848 C1847 1.349 . S
C1848 C1860 1.349 . S
C1849 C1847 1.327 . S
C1849 C1865 1.429 . S
C1849 H1871 0.950 . S
C1850 H1846 0.949 . S
C1850 C1858 1.574 . S
C1850 C1866 1.368 . S
H1851 C1859 0.950 . S
H1852 C1857 0.950 . S
H1853 C1858 0.949 . S
H1854 C1860 0.950 . S
H1855 C1861 0.950 . S
H1856 C1862 0.949 . S
C1857 H1852 0.950 . S
C1857 C1859 1.327 . S
C1857 C1863 1.429 . S
C1858 C1850 1.574 . S
C1858 H1853 0.949 . S
C1858 C1864 1.368 . S
C1859 C1843 1.349 . S
C1859 H1851 0.950 . S
C1859 C1857 1.327 . S
C1860 C1848 1.349 . S
C1860 H1854 0.950 . S
C1860 C1861 1.327 . S
C1861 H1855 0.950 . S
C1861 C1860 1.327 . S
C1861 C1865 1.429 . S
C1862 C1845 1.574 . S
C1862 H1856 0.949 . S
C1862 C1866 1.368 . S
C1863 C1844 1.429 . S
C1863 C1857 1.429 . S
C1863 C1864 1.523 . S
C1864 C1845 1.368 . S
C1864 C1858 1.368 . S
C1864 C1863 1.523 . S
C1865 C1849 1.429 . S
C1865 C1861 1.429 . S
C1865 C1866 1.523 . S
C1866 C1850 1.368 . S
C1866 C1862 1.368 . S
C1866 C1865 1.523 . S
H1867 C1842 0.950 . S
H1868 C1844 0.950 . S
H1869 C1845 0.949 . S
H1870 C1847 0.950 . S
H1871 C1849 0.950 . S
C1872 C1873 1.349 . S
C1872 C1874 1.327 . S
C1872 H1897 0.950 . S
C1873 C1872 1.349 . S
C1873 C1889 1.349 . S
C1874 C1872 1.327 . S
C1874 C1893 1.429 . S
C1874 H1898 0.950 . S
C1875 C1892 1.574 . S
C1875 C1894 1.368 . S
C1875 H1899 0.949 . S
H1876 C1880 0.949 . S
C1877 C1878 1.349 . S
C1877 C1879 1.327 . S
C1877 H1900 0.950 . S
C1878 C1877 1.349 . S
C1878 C1890 1.349 . S
C1879 C1877 1.327 . S
C1879 C1895 1.429 . S
C1879 H1901 0.950 . S
C1880 H1876 0.949 . S
C1880 C1888 1.574 . S
C1880 C1896 1.368 . S
H1881 C1889 0.950 . S
H1882 C1887 0.950 . S
H1883 C1888 0.949 . S
H1884 C1890 0.950 . S
H1885 C1891 0.950 . S
H1886 C1892 0.949 . S
C1887 H1882 0.950 . S
C1887 C1889 1.327 . S
C1887 C1893 1.429 . S
C1888 C1880 1.574 . S
C1888 H1883 0.949 . S
C1888 C1894 1.368 . S
C1889 C1873 1.349 . S
C1889 H1881 0.950 . S
C1889 C1887 1.327 . S
C1890 C1878 1.349 . S
C1890 H1884 0.950 . S
C1890 C1891 1.327 . S
C1891 H1885 0.950 . S
C1891 C1890 1.327 . S
C1891 C1895 1.429 . S
C1892 C1875 1.574 . S
C1892 H1886 0.949 . S
C1892 C1896 1.368 . S
C1893 C1874 1.429 . S
C1893 C1887 1.429 . S
C1893 C1894 1.523 . S
C1894 C1875 1.368 . S
C1894 C1888 1.368 . S
C1894 C1893 1.523 . S
C1895 C1879 1.429 . S
C1895 C1891 1.429 . S
C1895 C1896 1.523 . S
C1896 C1880 1.368 . S
C1896 C1892 1.368 . S
C1896 C1895 1.523 . S
H1897 C1872 0.950 . S
H1898 C1874 0.950 . S
H1899 C1875 0.949 . S
H1900 C1877 0.950 . S
H1901 C1879 0.950 . S
C1902 C1903 1.349 . S
C1902 C1904 1.327 . S
C1902 H1927 0.950 . S
C1903 C1902 1.349 . S
C1903 C1919 1.349 . S
C1904 C1902 1.327 . S
C1904 C1923 1.429 . S
C1904 H1928 0.950 . S
C1905 C1922 1.574 . S
C1905 C1924 1.368 . S
C1905 H1929 0.949 . S
H1906 C1910 0.949 . S
C1907 C1908 1.349 . S
C1907 C1909 1.327 . S
C1907 H1930 0.950 . S
C1908 C1907 1.349 . S
C1908 C1920 1.349 . S
C1909 C1907 1.327 . S
C1909 C1925 1.429 . S
C1909 H1931 0.950 . S
C1910 H1906 0.949 . S
C1910 C1918 1.574 . S
C1910 C1926 1.368 . S
H1911 C1919 0.950 . S
H1912 C1917 0.950 . S
H1913 C1918 0.949 . S
H1914 C1920 0.950 . S
H1915 C1921 0.950 . S
H1916 C1922 0.949 . S
C1917 H1912 0.950 . S
C1917 C1919 1.327 . S
C1917 C1923 1.429 . S
C1918 C1910 1.574 . S
C1918 H1913 0.949 . S
C1918 C1924 1.368 . S
C1919 C1903 1.349 . S
C1919 H1911 0.950 . S
C1919 C1917 1.327 . S
C1920 C1908 1.349 . S
C1920 H1914 0.950 . S
C1920 C1921 1.327 . S
C1921 H1915 0.950 . S
C1921 C1920 1.327 . S
C1921 C1925 1.429 . S
C1922 C1905 1.574 . S
C1922 H1916 0.949 . S
C1922 C1926 1.368 . S
C1923 C1904 1.429 . S
C1923 C1917 1.429 . S
C1923 C1924 1.523 . S
C1924 C1905 1.368 . S
C1924 C1918 1.368 . S
C1924 C1923 1.523 . S
C1925 C1909 1.429 . S
C1925 C1921 1.429 . S
C1925 C1926 1.523 . S
C1926 C1910 1.368 . S
C1926 C1922 1.368 . S
C1926 C1925 1.523 . S
H1927 C1902 0.950 . S
H1928 C1904 0.950 . S
H1929 C1905 0.949 . S
H1930 C1907 0.950 . S
H1931 C1909 0.950 . S
C1932 C1933 1.349 . S
C1932 C1934 1.327 . S
C1932 H1957 0.950 . S
C1933 C1932 1.349 . S
C1933 C1949 1.349 . S
C1934 C1932 1.327 . S
C1934 C1953 1.429 . S
C1934 H1958 0.950 . S
C1935 C1952 1.574 . S
C1935 C1954 1.368 . S
C1935 H1959 0.949 . S
H1936 C1940 0.949 . S
C1937 C1938 1.349 . S
C1937 C1939 1.327 . S
C1937 H1960 0.950 . S
C1938 C1937 1.349 . S
C1938 C1950 1.349 . S
C1939 C1937 1.327 . S
C1939 C1955 1.429 . S
C1939 H1961 0.950 . S
C1940 H1936 0.949 . S
C1940 C1948 1.574 . S
C1940 C1956 1.368 . S
H1941 C1949 0.950 . S
H1942 C1947 0.950 . S
H1943 C1948 0.949 . S
H1944 C1950 0.950 . S
H1945 C1951 0.950 . S
H1946 C1952 0.949 . S
C1947 H1942 0.950 . S
C1947 C1949 1.327 . S
C1947 C1953 1.429 . S
C1948 C1940 1.574 . S
C1948 H1943 0.949 . S
C1948 C1954 1.368 . S
C1949 C1933 1.349 . S
C1949 H1941 0.950 . S
C1949 C1947 1.327 . S
C1950 C1938 1.349 . S
C1950 H1944 0.950 . S
C1950 C1951 1.327 . S
C1951 H1945 0.950 . S
C1951 C1950 1.327 . S
C1951 C1955 1.429 . S
C1952 C1935 1.574 . S
C1952 H1946 0.949 . S
C1952 C1956 1.368 . S
C1953 C1934 1.429 . S
C1953 C1947 1.429 . S
C1953 C1954 1.523 . S
C1954 C1935 1.368 . S
C1954 C1948 1.368 . S
C1954 C1953 1.523 . S
C1955 C1939 1.429 . S
C1955 C1951 1.429 . S
C1955 C1956 1.523 . S
C1956 C1940 1.368 . S
C1956 C1952 1.368 . S
C1956 C1955 1.523 . S
H1957 C1932 0.950 . S
H1958 C1934 0.950 . S
H1959 C1935 0.949 . S
H1960 C1937 0.950 . S
H1961 C1939 0.950 . S
C1962 C1963 1.349 . S
C1962 C1964 1.327 . S
C1962 H1987 0.950 . S
C1963 C1962 1.349 . S
C1963 C1979 1.349 . S
C1964 C1962 1.327 . S
C1964 C1983 1.429 . S
C1964 H1988 0.950 . S
C1965 C1982 1.574 . S
C1965 C1984 1.368 . S
C1965 H1989 0.949 . S
H1966 C1970 0.949 . S
C1967 C1968 1.349 . S
C1967 C1969 1.327 . S
C1967 H1990 0.950 . S
C1968 C1967 1.349 . S
C1968 C1980 1.349 . S
C1969 C1967 1.327 . S
C1969 C1985 1.429 . S
C1969 H1991 0.950 . S
C1970 H1966 0.949 . S
C1970 C1978 1.574 . S
C1970 C1986 1.368 . S
H1971 C1979 0.950 . S
H1972 C1977 0.950 . S
H1973 C1978 0.949 . S
H1974 C1980 0.950 . S
H1975 C1981 0.950 . S
H1976 C1982 0.949 . S
C1977 H1972 0.950 . S
C1977 C1979 1.327 . S
C1977 C1983 1.429 . S
C1978 C1970 1.574 . S
C1978 H1973 0.949 . S
C1978 C1984 1.368 . S
C1979 C1963 1.349 . S
C1979 H1971 0.950 . S
C1979 C1977 1.327 . S
C1980 C1968 1.349 . S
C1980 H1974 0.950 . S
C1980 C1981 1.327 . S
C1981 H1975 0.950 . S
C1981 C1980 1.327 . S
C1981 C1985 1.429 . S
C1982 C1965 1.574 . S
C1982 H1976 0.949 . S
C1982 C1986 1.368 . S
C1983 C1964 1.429 . S
C1983 C1977 1.429 . S
C1983 C1984 1.523 . S
C1984 C1965 1.368 . S
C1984 C1978 1.368 . S
C1984 C1983 1.523 . S
C1985 C1969 1.429 . S
C1985 C1981 1.429 . S
C1985 C1986 1.523 . S
C1986 C1970 1.368 . S
C1986 C1982 1.368 . S
C1986 C1985 1.523 . S
H1987 C1962 0.950 . S
H1988 C1964 0.950 . S
H1989 C1965 0.949 . S
H1990 C1967 0.950 . S
H1991 C1969 0.950 . S
C553 N518 1.140 . S
C558 N12 1.149 . S
C583 C39 1.652 . S
C588 C536 1.654 . S
C613 N472 1.169 . S
C618 N58 1.174 . S
C643 C490 1.753 . S
C648 C76 1.751 . S
C673 C499 1.594 . S
C678 N104 1.544 . S
C703 N117 1.263 . S
C708 N508 1.270 . S
C733 C545 1.483 . S
C738 N150 1.435 . S
C763 C177 1.298 . S
C768 N462 1.282 . S
C793 C191 1.294 . S
C798 N439 1.280 . S
C823 C384 1.804 . S
C828 C223 1.804 . S
C853 N232 1.131 . S
C858 N393 1.138 . S
C883 N426 1.564 . S
C888 C269 1.615 . S
C913 C260 1.615 . S
C918 N301 1.598 . S
C943 C200 1.422 . S
C948 N334 1.372 . S
C973 C361 1.648 . S
C978 C214 1.642 . S
C1003 N242 1.169 . S
C1008 N288 1.162 . S
C1033 C30 1.606 . S
C1038 N416 1.579 . S
C1063 N324 1.479 . S
C1068 C168 1.506 . S
C1093 N94 1.533 . S
C1098 C352 1.557 . S
C1123 N278 1.309 . S
C1128 N127 1.277 . S
C1153 N140 1.392 . S
C1158 N311 1.354 . S
C1183 C85 1.836 . S
C1188 C375 1.835 . S
C1213 N2 1.148 . S
C1218 N403 1.121 . S
C1243 N48 1.262 . S
C1248 N449 1.230 . S
C1273 C145 1.988 . S
C1278 C467 1.989 . S
C1303 N495 1.390 . S
C1308 N163 1.387 . S
C1333 C513 1.894 . S
C1338 C99 1.894 . S
C1363 N541 1.309 . S
C1368 C131 1.335 . S
C1393 C53 1.482 . S
C1398 N531 1.452 . S
C1423 N81 1.780 . S
C1428 C476 1.793 . S
C1453 C7 1.603 . S
C1458 N485 1.561 . S
C1483 C522 1.611 . S
C1488 N25 1.578 . S
C1513 C246 1.735 . S
C1518 C315 1.732 . S
C1543 N255 1.344 . S
C1548 C329 1.387 . S
C1573 N196 1.720 . S
C1578 N347 1.695 . S
C1603 N209 1.366 . S
C1608 C283 1.410 . S
C1633 N219 1.559 . S
C1638 C453 1.576 . S
C1663 N370 1.585 . S
C1668 C237 1.633 . S
C1693 N265 1.350 . S
C1698 C407 1.367 . S
C1723 N186 1.678 . S
C1728 C421 1.734 . S
C1753 C292 1.265 . S
C1758 N173 1.247 . S
C1783 N380 1.508 . S
C1788 N35 1.514 . S
C1813 C62 1.480 . S
C1818 C398 1.487 . S
C1843 C430 1.756 . S
C1848 N71 1.710 . S
C1873 C444 1.636 . S
C1878 C16 1.627 . S
C1903 C122 1.343 . S
C1908 C338 1.332 . S
C1933 N357 1.875 . S
C1938 C154 1.894 . S
C1963 C306 1.961 . S
C1968 C108 1.951 . S
