# Generated by pormake.
# Topology mer, (4)-cn, num edge types: 1
# Building blocks:
#     Node 0, Type 0, BuildingBlock: ICAMEG_clean_sbu_1, # of connection points: 4
#     Node 1, Type 0, BuildingBlock: ICAMEG_clean_sbu_1, # of connection points: 4
#     Node 2, Type 0, BuildingBlock: ICAMEG_clean_sbu_1, # of connection points: 4
#     Node 3, Type 0, BuildingBlock: ICAMEG_clean_sbu_1, # of connection points: 4
#     Node 4, Type 0, BuildingBlock: ICAMEG_clean_sbu_1, # of connection points: 4
#     Node 5, Type 0, BuildingBlock: ICAMEG_clean_sbu_1, # of connection points: 4
#     Node 6, Type 0, BuildingBlock: ICAMEG_clean_sbu_1, # of connection points: 4
#     Node 7, Type 0, BuildingBlock: ICAMEG_clean_sbu_1, # of connection points: 4
#     Node 8, Type 0, BuildingBlock: ICAMEG_clean_sbu_1, # of connection points: 4
#     Node 9, Type 0, BuildingBlock: ICAMEG_clean_sbu_1, # of connection points: 4
#     Node 10, Type 0, BuildingBlock: ICAMEG_clean_sbu_1, # of connection points: 4
#     Node 11, Type 0, BuildingBlock: ICAMEG_clean_sbu_1, # of connection points: 4
#     Node 12, Type 0, BuildingBlock: ICAMEG_clean_sbu_1, # of connection points: 4
#     Node 13, Type 0, BuildingBlock: ICAMEG_clean_sbu_1, # of connection points: 4
#     Node 14, Type 0, BuildingBlock: ICAMEG_clean_sbu_1, # of connection points: 4
#     Node 15, Type 0, BuildingBlock: ICAMEG_clean_sbu_1, # of connection points: 4
#     Node 16, Type 0, BuildingBlock: ICAMEG_clean_sbu_1, # of connection points: 4
#     Node 17, Type 0, BuildingBlock: ICAMEG_clean_sbu_1, # of connection points: 4
#     Node 18, Type 0, BuildingBlock: ICAMEG_clean_sbu_1, # of connection points: 4
#     Node 19, Type 0, BuildingBlock: ICAMEG_clean_sbu_1, # of connection points: 4
#     Node 20, Type 0, BuildingBlock: ICAMEG_clean_sbu_1, # of connection points: 4
#     Node 21, Type 0, BuildingBlock: ICAMEG_clean_sbu_1, # of connection points: 4
#     Node 22, Type 0, BuildingBlock: ICAMEG_clean_sbu_1, # of connection points: 4
#     Node 23, Type 0, BuildingBlock: ICAMEG_clean_sbu_1, # of connection points: 4
#     Node 24, Type 0, BuildingBlock: ICAMEG_clean_sbu_1, # of connection points: 4
#     Node 25, Type 0, BuildingBlock: ICAMEG_clean_sbu_1, # of connection points: 4
#     Node 26, Type 0, BuildingBlock: ICAMEG_clean_sbu_1, # of connection points: 4
#     Node 27, Type 0, BuildingBlock: ICAMEG_clean_sbu_1, # of connection points: 4
#     Node 28, Type 0, BuildingBlock: ICAMEG_clean_sbu_1, # of connection points: 4
#     Node 29, Type 0, BuildingBlock: ICAMEG_clean_sbu_1, # of connection points: 4
#     Node 30, Type 0, BuildingBlock: ICAMEG_clean_sbu_1, # of connection points: 4
#     Node 31, Type 0, BuildingBlock: ICAMEG_clean_sbu_1, # of connection points: 4
#     Edge 32, Type (0, 0), BuildingBlock: UVAHIK_clean_linker_0, # of connection points: 2
#     Edge 33, Type (0, 0), BuildingBlock: UVAHIK_clean_linker_0, # of connection points: 2
#     Edge 34, Type (0, 0), BuildingBlock: UVAHIK_clean_linker_0, # of connection points: 2
#     Edge 35, Type (0, 0), BuildingBlock: UVAHIK_clean_linker_0, # of connection points: 2
#     Edge 36, Type (0, 0), BuildingBlock: UVAHIK_clean_linker_0, # of connection points: 2
#     Edge 37, Type (0, 0), BuildingBlock: UVAHIK_clean_linker_0, # of connection points: 2
#     Edge 38, Type (0, 0), BuildingBlock: UVAHIK_clean_linker_0, # of connection points: 2
#     Edge 39, Type (0, 0), BuildingBlock: UVAHIK_clean_linker_0, # of connection points: 2
#     Edge 40, Type (0, 0), BuildingBlock: UVAHIK_clean_linker_0, # of connection points: 2
#     Edge 41, Type (0, 0), BuildingBlock: UVAHIK_clean_linker_0, # of connection points: 2
#     Edge 42, Type (0, 0), BuildingBlock: UVAHIK_clean_linker_0, # of connection points: 2
#     Edge 43, Type (0, 0), BuildingBlock: UVAHIK_clean_linker_0, # of connection points: 2
#     Edge 44, Type (0, 0), BuildingBlock: UVAHIK_clean_linker_0, # of connection points: 2
#     Edge 45, Type (0, 0), BuildingBlock: UVAHIK_clean_linker_0, # of connection points: 2
#     Edge 46, Type (0, 0), BuildingBlock: UVAHIK_clean_linker_0, # of connection points: 2
#     Edge 47, Type (0, 0), BuildingBlock: UVAHIK_clean_linker_0, # of connection points: 2
#     Edge 48, Type (0, 0), BuildingBlock: UVAHIK_clean_linker_0, # of connection points: 2
#     Edge 49, Type (0, 0), BuildingBlock: UVAHIK_clean_linker_0, # of connection points: 2
#     Edge 50, Type (0, 0), BuildingBlock: UVAHIK_clean_linker_0, # of connection points: 2
#     Edge 51, Type (0, 0), BuildingBlock: UVAHIK_clean_linker_0, # of connection points: 2
#     Edge 52, Type (0, 0), BuildingBlock: UVAHIK_clean_linker_0, # of connection points: 2
#     Edge 53, Type (0, 0), BuildingBlock: UVAHIK_clean_linker_0, # of connection points: 2
#     Edge 54, Type (0, 0), BuildingBlock: UVAHIK_clean_linker_0, # of connection points: 2
#     Edge 55, Type (0, 0), BuildingBlock: UVAHIK_clean_linker_0, # of connection points: 2
#     Edge 56, Type (0, 0), BuildingBlock: UVAHIK_clean_linker_0, # of connection points: 2
#     Edge 57, Type (0, 0), BuildingBlock: UVAHIK_clean_linker_0, # of connection points: 2
#     Edge 58, Type (0, 0), BuildingBlock: UVAHIK_clean_linker_0, # of connection points: 2
#     Edge 59, Type (0, 0), BuildingBlock: UVAHIK_clean_linker_0, # of connection points: 2
#     Edge 60, Type (0, 0), BuildingBlock: UVAHIK_clean_linker_0, # of connection points: 2
#     Edge 61, Type (0, 0), BuildingBlock: UVAHIK_clean_linker_0, # of connection points: 2
#     Edge 62, Type (0, 0), BuildingBlock: UVAHIK_clean_linker_0, # of connection points: 2
#     Edge 63, Type (0, 0), BuildingBlock: UVAHIK_clean_linker_0, # of connection points: 2
#     Edge 64, Type (0, 0), BuildingBlock: UVAHIK_clean_linker_0, # of connection points: 2
#     Edge 65, Type (0, 0), BuildingBlock: UVAHIK_clean_linker_0, # of connection points: 2
#     Edge 66, Type (0, 0), BuildingBlock: UVAHIK_clean_linker_0, # of connection points: 2
#     Edge 67, Type (0, 0), BuildingBlock: UVAHIK_clean_linker_0, # of connection points: 2
#     Edge 68, Type (0, 0), BuildingBlock: UVAHIK_clean_linker_0, # of connection points: 2
#     Edge 69, Type (0, 0), BuildingBlock: UVAHIK_clean_linker_0, # of connection points: 2
#     Edge 70, Type (0, 0), BuildingBlock: UVAHIK_clean_linker_0, # of connection points: 2
#     Edge 71, Type (0, 0), BuildingBlock: UVAHIK_clean_linker_0, # of connection points: 2
#     Edge 72, Type (0, 0), BuildingBlock: UVAHIK_clean_linker_0, # of connection points: 2
#     Edge 73, Type (0, 0), BuildingBlock: UVAHIK_clean_linker_0, # of connection points: 2
#     Edge 74, Type (0, 0), BuildingBlock: UVAHIK_clean_linker_0, # of connection points: 2
#     Edge 75, Type (0, 0), BuildingBlock: UVAHIK_clean_linker_0, # of connection points: 2
#     Edge 76, Type (0, 0), BuildingBlock: UVAHIK_clean_linker_0, # of connection points: 2
#     Edge 77, Type (0, 0), BuildingBlock: UVAHIK_clean_linker_0, # of connection points: 2
#     Edge 78, Type (0, 0), BuildingBlock: UVAHIK_clean_linker_0, # of connection points: 2
#     Edge 79, Type (0, 0), BuildingBlock: UVAHIK_clean_linker_0, # of connection points: 2
#     Edge 80, Type (0, 0), BuildingBlock: UVAHIK_clean_linker_0, # of connection points: 2
#     Edge 81, Type (0, 0), BuildingBlock: UVAHIK_clean_linker_0, # of connection points: 2
#     Edge 82, Type (0, 0), BuildingBlock: UVAHIK_clean_linker_0, # of connection points: 2
#     Edge 83, Type (0, 0), BuildingBlock: UVAHIK_clean_linker_0, # of connection points: 2
#     Edge 84, Type (0, 0), BuildingBlock: UVAHIK_clean_linker_0, # of connection points: 2
#     Edge 85, Type (0, 0), BuildingBlock: UVAHIK_clean_linker_0, # of connection points: 2
#     Edge 86, Type (0, 0), BuildingBlock: UVAHIK_clean_linker_0, # of connection points: 2
#     Edge 87, Type (0, 0), BuildingBlock: UVAHIK_clean_linker_0, # of connection points: 2
#     Edge 88, Type (0, 0), BuildingBlock: UVAHIK_clean_linker_0, # of connection points: 2
#     Edge 89, Type (0, 0), BuildingBlock: UVAHIK_clean_linker_0, # of connection points: 2
#     Edge 90, Type (0, 0), BuildingBlock: UVAHIK_clean_linker_0, # of connection points: 2
#     Edge 91, Type (0, 0), BuildingBlock: UVAHIK_clean_linker_0, # of connection points: 2
#     Edge 92, Type (0, 0), BuildingBlock: UVAHIK_clean_linker_0, # of connection points: 2
#     Edge 93, Type (0, 0), BuildingBlock: UVAHIK_clean_linker_0, # of connection points: 2
#     Edge 94, Type (0, 0), BuildingBlock: UVAHIK_clean_linker_0, # of connection points: 2
#     Edge 95, Type (0, 0), BuildingBlock: UVAHIK_clean_linker_0, # of connection points: 2
# Relax obj value: 0.032
# Max RMSD: 0.079
# Mean RMSD: 0.079
data_MOF--net-mer--node1-ICAMEG_clean_sbu_1--edge1-UVAHIK_clean_linker_0
_symmetry_space_group_name_H-M    P1
_symmetry_Int_Tables_number       1
_symmetry_cell_setting            triclinic
loop_
_symmetry_equiv_pos_as_xyz
'x, y, z'
_cell_length_a     82.8087
_cell_length_b     82.783869
_cell_length_c     76.206773
_cell_angle_alpha  89.996917
_cell_angle_beta   90.004086
_cell_angle_gamma 90.0013
loop_
_atom_site_label
_atom_site_type_symbol
_atom_site_fract_x
_atom_site_fract_y
_atom_site_fract_z
_atom_type_partial_charge
Co0 Co 0.13963 0.30662 0.37046 0.0
Co1 Co 0.11215 0.27519 0.3705 0.0
O2 O 0.1205 0.29559 0.36149 0.0
C3 C 0.14625 0.30088 0.33318 0.0
O4 O 0.14081 0.28619 0.33577 0.0
C5 C 0.08471 0.29772 0.37402 0.0
O6 O 0.09472 0.30796 0.38143 0.0
O7 O 0.11371 0.28303 0.39512 0.0
O8 O 0.13283 0.30234 0.39512 0.0
H9 H 0.11101 0.22694 0.41048 0.0
H10 H 0.11837 0.32305 0.34473 0.0
O11 O 0.14678 0.31094 0.34582 0.0
H12 H 0.11791 0.35776 0.39732 0.0
H13 H 0.1813 0.35088 0.37085 0.0
H14 H 0.16317 0.30038 0.39898 0.0
H15 H 0.13419 0.33281 0.39667 0.0
H16 H 0.157 0.33669 0.36019 0.0
O17 O 0.08971 0.28396 0.36889 0.0
H18 H 0.12176 0.25257 0.39881 0.0
H19 H 0.08381 0.25464 0.36139 0.0
H20 H 0.18746 0.31423 0.41017 0.0
H21 H 0.10201 0.34796 0.34476 0.0
H22 H 0.19667 0.33968 0.39607 0.0
H23 H 0.10168 0.36548 0.37122 0.0
O24 O 0.15241 0.28626 0.37039 0.0
H25 H 0.09751 0.27953 0.30668 0.0
H26 H 0.12244 0.24511 0.35203 0.0
H27 H 0.12139 0.23554 0.32141 0.0
H28 H 0.10885 0.2528 0.29849 0.0
H29 H 0.09893 0.28869 0.33744 0.0
H30 H 0.07257 0.22909 0.37274 0.0
H31 H 0.08623 0.21503 0.39742 0.0
O32 O 0.13438 0.26606 0.37225 0.0
C33 C 0.12265 0.29329 0.40297 0.0
C34 C 0.10497 0.23292 0.39969 0.0
C35 C 0.08339 0.23414 0.37852 0.0
N36 N 0.1035 0.25501 0.37935 0.0
C37 C 0.11103 0.24741 0.39299 0.0
C38 C 0.08979 0.24861 0.37217 0.0
C39 C 0.09107 0.22626 0.39236 0.0
C40 C 0.1184 0.33069 0.35623 0.0
N41 N 0.12729 0.32653 0.37064 0.0
C42 C 0.10907 0.34475 0.35619 0.0
C43 C 0.10887 0.35456 0.37105 0.0
C44 C 0.11797 0.35023 0.38571 0.0
C45 C 0.12714 0.33608 0.38528 0.0
C46 C 0.17739 0.33982 0.37713 0.0
C47 C 0.16705 0.3115 0.39286 0.0
C48 C 0.16366 0.33172 0.37112 0.0
N49 N 0.15862 0.3178 0.37905 0.0
C50 C 0.18084 0.31926 0.39921 0.0
C51 C 0.186 0.33353 0.39128 0.0
C52 C 0.14885 0.27133 0.37172 0.0
C53 C 0.10296 0.27188 0.31656 0.0
C54 C 0.11698 0.25271 0.34213 0.0
C55 C 0.1164 0.24721 0.32482 0.0
C56 C 0.10935 0.25689 0.31197 0.0
N57 N 0.11069 0.26742 0.34653 0.0
C58 C 0.10373 0.27697 0.33401 0.0
Co59 Co 0.6917 0.13922 0.37108 0.0
Co60 Co 0.72305 0.11166 0.37032 0.0
O61 O 0.70246 0.12004 0.36187 0.0
C62 C 0.69665 0.14575 0.33367 0.0
O63 O 0.71136 0.14027 0.33596 0.0
C64 C 0.70055 0.08426 0.37447 0.0
O65 O 0.69049 0.09429 0.38214 0.0
O66 O 0.71581 0.11328 0.39516 0.0
O67 O 0.69654 0.13244 0.39564 0.0
H68 H 0.77224 0.11048 0.4089 0.0
H69 H 0.67462 0.11796 0.34585 0.0
O70 O 0.68684 0.14635 0.34653 0.0
H71 H 0.64119 0.11764 0.39939 0.0
H72 H 0.64758 0.18101 0.3726 0.0
H73 H 0.69865 0.1628 0.39938 0.0
H74 H 0.66613 0.13388 0.39801 0.0
H75 H 0.66146 0.15666 0.36159 0.0
O76 O 0.7142 0.08923 0.36899 0.0
H77 H 0.74635 0.12126 0.39797 0.0
H78 H 0.74331 0.08326 0.36068 0.0
H79 H 0.68511 0.18713 0.4109 0.0
H80 H 0.6497 0.10165 0.34661 0.0
H81 H 0.65938 0.19638 0.39748 0.0
H82 H 0.63282 0.10139 0.37355 0.0
O83 O 0.71207 0.15196 0.37044 0.0
H84 H 0.71714 0.09693 0.30668 0.0
H85 H 0.75268 0.12186 0.35098 0.0
H86 H 0.7615 0.12076 0.32009 0.0
H87 H 0.74367 0.10822 0.2977 0.0
H88 H 0.70873 0.09841 0.33769 0.0
H89 H 0.7691 0.07199 0.3713 0.0
H90 H 0.78378 0.08567 0.39554 0.0
O91 O 0.73226 0.13388 0.37178 0.0
C92 C 0.70576 0.12227 0.40327 0.0
C93 C 0.76599 0.10444 0.3983 0.0
C94 C 0.76422 0.08282 0.37721 0.0
N95 N 0.74341 0.10298 0.37861 0.0
C96 C 0.75135 0.11052 0.39202 0.0
C97 C 0.7496 0.08924 0.37127 0.0
C98 C 0.77245 0.09051 0.3908 0.0
C99 C 0.66726 0.11803 0.35756 0.0
N100 N 0.67177 0.12693 0.37183 0.0
C101 C 0.65319 0.10872 0.35793 0.0
C102 C 0.64374 0.10856 0.37306 0.0
C103 C 0.64843 0.11767 0.38757 0.0
C104 C 0.66258 0.12682 0.38673 0.0
C105 C 0.65876 0.17708 0.37858 0.0
C106 C 0.6874 0.16669 0.39355 0.0
C107 C 0.66669 0.16333 0.37238 0.0
N108 N 0.68077 0.15826 0.37993 0.0
C109 C 0.67982 0.18051 0.40009 0.0
C110 C 0.66539 0.1857 0.39254 0.0
C111 C 0.72702 0.14836 0.37138 0.0
C112 C 0.72503 0.10238 0.31632 0.0
C113 C 0.74484 0.11641 0.34131 0.0
C114 C 0.74992 0.11579 0.32385 0.0
C115 C 0.73991 0.10874 0.31129 0.0
N116 N 0.73023 0.11014 0.34615 0.0
C117 C 0.72037 0.10318 0.33391 0.0
Co118 Co 0.85839 0.69159 0.37045 0.0
Co119 Co 0.88508 0.7237 0.37116 0.0
O120 O 0.87743 0.70311 0.3619 0.0
C121 C 0.8522 0.69748 0.33311 0.0
O122 O 0.85734 0.71225 0.33593 0.0
C123 C 0.91332 0.70211 0.3752 0.0
O124 O 0.90362 0.69122 0.38197 0.0
O125 O 0.88334 0.71567 0.39568 0.0
O126 O 0.86477 0.69584 0.39527 0.0
H127 H 0.88422 0.77169 0.41151 0.0
H128 H 0.88035 0.67583 0.34492 0.0
O129 O 0.85168 0.68731 0.34564 0.0
H130 H 0.88089 0.64075 0.39723 0.0
H131 H 0.81775 0.64639 0.36972 0.0
H132 H 0.83433 0.69704 0.39864 0.0
H133 H 0.86409 0.66535 0.39653 0.0
H134 H 0.84186 0.66122 0.3596 0.0
O135 O 0.90778 0.71566 0.37005 0.0
H136 H 0.8744 0.74583 0.39946 0.0
H137 H 0.91293 0.74516 0.36268 0.0
H138 H 0.81021 0.68254 0.40929 0.0
H139 H 0.89723 0.65127 0.34499 0.0
H140 H 0.80179 0.65702 0.39479 0.0
H141 H 0.8976 0.63357 0.37131 0.0
O142 O 0.84508 0.71164 0.37034 0.0
H143 H 0.901 0.72001 0.30767 0.0
H144 H 0.87431 0.75356 0.35258 0.0
H145 H 0.87566 0.76328 0.32202 0.0
H146 H 0.88909 0.74645 0.29932 0.0
H147 H 0.89927 0.7107 0.33836 0.0
H148 H 0.92325 0.77094 0.37442 0.0
H149 H 0.90882 0.78441 0.39897 0.0
O150 O 0.86263 0.73221 0.37249 0.0
C151 C 0.8746 0.70511 0.40333 0.0
C152 C 0.89058 0.76597 0.40077 0.0
C153 C 0.9125 0.76554 0.37997 0.0
N154 N 0.893 0.74408 0.38029 0.0
C155 C 0.88505 0.75135 0.39386 0.0
C156 C 0.90662 0.75093 0.3734 0.0
C157 C 0.90439 0.77309 0.39374 0.0
C158 C 0.88034 0.6681 0.35636 0.0
N159 N 0.87119 0.67197 0.37067 0.0
C160 C 0.88997 0.65425 0.35635 0.0
C161 C 0.89018 0.64433 0.37113 0.0
C162 C 0.88082 0.64836 0.38568 0.0
C163 C 0.87136 0.66232 0.38522 0.0
C164 C 0.82132 0.65748 0.37617 0.0
C165 C 0.83079 0.68589 0.39235 0.0
C166 C 0.83494 0.66594 0.37048 0.0
N167 N 0.83955 0.67991 0.37862 0.0
C168 C 0.8171 0.67776 0.3984 0.0
C169 C 0.81237 0.66345 0.39024 0.0
C170 C 0.8483 0.72665 0.37176 0.0
C171 C 0.89516 0.72747 0.31745 0.0
C172 C 0.88015 0.74616 0.34278 0.0
C173 C 0.8809 0.75174 0.3255 0.0
C174 C 0.88845 0.74229 0.31277 0.0
N175 N 0.88676 0.7316 0.34726 0.0
C176 C 0.89421 0.72229 0.33487 0.0
Co177 Co 0.30898 0.8592 0.3707 0.0
Co178 Co 0.27735 0.88643 0.37058 0.0
O179 O 0.29787 0.87829 0.36173 0.0
C180 C 0.30332 0.85266 0.33341 0.0
O181 O 0.28862 0.85803 0.33607 0.0
C182 C 0.29967 0.91402 0.37449 0.0
O183 O 0.30992 0.90403 0.38191 0.0
O184 O 0.28498 0.88478 0.39527 0.0
O185 O 0.30455 0.86592 0.39537 0.0
H186 H 0.22875 0.88701 0.41005 0.0
H187 H 0.32539 0.88061 0.34509 0.0
O188 O 0.31341 0.85213 0.34603 0.0
H189 H 0.35983 0.88121 0.39787 0.0
H190 H 0.35348 0.81779 0.37114 0.0
H191 H 0.30281 0.83554 0.39914 0.0
H192 H 0.33501 0.86476 0.39706 0.0
H193 H 0.33918 0.84203 0.36049 0.0
O194 O 0.28598 0.90895 0.36922 0.0
H195 H 0.25456 0.8765 0.39859 0.0
H196 H 0.25669 0.9147 0.36145 0.0
H197 H 0.31678 0.81131 0.41031 0.0
H198 H 0.35018 0.89713 0.34529 0.0
H199 H 0.3423 0.80229 0.39628 0.0
H200 H 0.36757 0.89753 0.37185 0.0
O201 O 0.28873 0.84626 0.37051 0.0
H202 H 0.28215 0.9015 0.30692 0.0
H203 H 0.24752 0.87605 0.35172 0.0
H204 H 0.23821 0.87721 0.32101 0.0
H205 H 0.25558 0.89002 0.29836 0.0
H206 H 0.29104 0.89996 0.33776 0.0
H207 H 0.23097 0.92569 0.3726 0.0
H208 H 0.21679 0.91178 0.39702 0.0
O209 O 0.26836 0.86413 0.37209 0.0
C210 C 0.2953 0.87594 0.40318 0.0
C211 C 0.23478 0.89315 0.39936 0.0
C212 C 0.23604 0.91487 0.37836 0.0
N213 N 0.25704 0.8949 0.37927 0.0
C214 C 0.24937 0.88723 0.39279 0.0
C215 C 0.25061 0.90861 0.37212 0.0
C216 C 0.22809 0.90706 0.39206 0.0
C217 C 0.33297 0.88061 0.35663 0.0
N218 N 0.32881 0.87167 0.37101 0.0
C219 C 0.34696 0.89003 0.3567 0.0
C220 C 0.3567 0.89027 0.37161 0.0
C221 C 0.35236 0.88112 0.38622 0.0
C222 C 0.33828 0.87186 0.38569 0.0
C223 C 0.34238 0.82162 0.37739 0.0
C224 C 0.31397 0.83175 0.39305 0.0
C225 C 0.33422 0.83531 0.37139 0.0
N226 N 0.32025 0.84025 0.37929 0.0
C227 C 0.32179 0.81799 0.39939 0.0
C228 C 0.33611 0.81293 0.3915 0.0
C229 C 0.27375 0.8497 0.37164 0.0
C230 C 0.27445 0.89594 0.31668 0.0
C231 C 0.25516 0.88162 0.34194 0.0
C232 C 0.24981 0.88227 0.32458 0.0
C233 C 0.25955 0.88947 0.31188 0.0
N234 N 0.26978 0.88799 0.34655 0.0
C235 C 0.27939 0.89509 0.33418 0.0
Co236 Co 0.14001 0.69022 0.62394 0.0
Co237 Co 0.11374 0.72267 0.62422 0.0
O238 O 0.12119 0.70182 0.63291 0.0
C239 C 0.14651 0.69567 0.66124 0.0
O240 O 0.14161 0.71052 0.65849 0.0
C241 C 0.0853 0.70143 0.61994 0.0
O242 O 0.09492 0.69056 0.613 0.0
O243 O 0.11524 0.71511 0.59954 0.0
O244 O 0.13344 0.69491 0.59924 0.0
H245 H 0.11487 0.77142 0.58497 0.0
H246 H 0.11814 0.67431 0.64948 0.0
O247 O 0.14688 0.68555 0.64865 0.0
H248 H 0.11664 0.64007 0.59655 0.0
H249 H 0.18013 0.64456 0.62352 0.0
H250 H 0.16385 0.69575 0.59553 0.0
H251 H 0.13372 0.66446 0.59747 0.0
H252 H 0.1563 0.65954 0.63415 0.0
O253 O 0.09095 0.71486 0.6253 0.0
H254 H 0.12447 0.74523 0.59634 0.0
H255 H 0.0862 0.74428 0.63343 0.0
H256 H 0.18768 0.68111 0.58438 0.0
H257 H 0.10099 0.64995 0.64918 0.0
H258 H 0.19596 0.65532 0.59841 0.0
H259 H 0.10013 0.63266 0.62255 0.0
O260 O 0.15356 0.7101 0.6242 0.0
H261 H 0.09815 0.71792 0.68773 0.0
H262 H 0.125 0.75202 0.6434 0.0
H263 H 0.12395 0.76115 0.67419 0.0
H264 H 0.11045 0.74404 0.69659 0.0
H265 H 0.09959 0.7092 0.65682 0.0
H266 H 0.0761 0.7704 0.62237 0.0
H267 H 0.09051 0.78418 0.59801 0.0
O268 O 0.13627 0.73094 0.62289 0.0
C269 C 0.12369 0.70454 0.59153 0.0
C270 C 0.10852 0.76557 0.59563 0.0
C271 C 0.08675 0.76498 0.6166 0.0
N272 N 0.10599 0.74331 0.61563 0.0
C273 C 0.11393 0.75076 0.60216 0.0
C274 C 0.0925 0.75018 0.62279 0.0
C275 C 0.09484 0.77271 0.60294 0.0
C276 C 0.11795 0.66677 0.6379 0.0
N277 N 0.12699 0.67075 0.62355 0.0
C278 C 0.10816 0.65302 0.63778 0.0
C279 C 0.10767 0.64334 0.62283 0.0
C280 C 0.11692 0.64749 0.60824 0.0
C281 C 0.12655 0.66134 0.60882 0.0
C282 C 0.17663 0.65577 0.61727 0.0
C283 C 0.16732 0.68448 0.60162 0.0
C284 C 0.16317 0.66432 0.62326 0.0
N285 N 0.15863 0.67843 0.61537 0.0
C286 C 0.18085 0.67627 0.59529 0.0
C287 C 0.1855 0.66181 0.60318 0.0
C288 C 0.15053 0.72517 0.62322 0.0
C289 C 0.10402 0.72551 0.67808 0.0
C290 C 0.11912 0.7445 0.65308 0.0
C291 C 0.11854 0.74975 0.67049 0.0
C292 C 0.11095 0.74015 0.68305 0.0
N293 N 0.1123 0.73012 0.64831 0.0
C294 C 0.10481 0.72066 0.66054 0.0
Co295 Co 0.30821 0.14069 0.62485 0.0
Co296 Co 0.27577 0.11441 0.62459 0.0
O297 O 0.29649 0.12187 0.63364 0.0
C298 C 0.30243 0.14721 0.66211 0.0
O299 O 0.2876 0.14229 0.65926 0.0
C300 C 0.29703 0.08595 0.62067 0.0
O301 O 0.30797 0.09553 0.6138 0.0
O302 O 0.28367 0.11588 0.60002 0.0
O303 O 0.3038 0.13415 0.60009 0.0
H304 H 0.22757 0.11555 0.58457 0.0
H305 H 0.3238 0.11877 0.65056 0.0
O306 O 0.31263 0.14755 0.64959 0.0
H307 H 0.35865 0.11731 0.59811 0.0
H308 H 0.35389 0.18079 0.62503 0.0
H309 H 0.303 0.16457 0.5964 0.0
H310 H 0.33427 0.13442 0.59872 0.0
H311 H 0.33879 0.15695 0.63545 0.0
O312 O 0.28356 0.09162 0.62584 0.0
H313 H 0.25361 0.12515 0.59634 0.0
H314 H 0.25404 0.08688 0.63347 0.0
H315 H 0.31777 0.18842 0.58546 0.0
H316 H 0.34814 0.10159 0.65057 0.0
H317 H 0.34342 0.19666 0.59982 0.0
H318 H 0.36573 0.10075 0.62419 0.0
O319 O 0.28835 0.15426 0.62487 0.0
H320 H 0.27962 0.0989 0.6882 0.0
H321 H 0.24617 0.12571 0.64327 0.0
H322 H 0.23662 0.12471 0.6739 0.0
H323 H 0.2534 0.11123 0.69661 0.0
H324 H 0.28877 0.10029 0.65743 0.0
H325 H 0.22807 0.07679 0.622 0.0
H326 H 0.21463 0.0912 0.59742 0.0
O327 O 0.26754 0.13696 0.62311 0.0
C328 C 0.29433 0.12438 0.5922 0.0
C329 C 0.23328 0.1092 0.59532 0.0
C330 C 0.23357 0.08743 0.61632 0.0
N331 N 0.25525 0.10667 0.61567 0.0
C332 C 0.24799 0.1146 0.60208 0.0
C333 C 0.24828 0.09318 0.62273 0.0
C334 C 0.22603 0.09553 0.60253 0.0
C335 C 0.33147 0.11858 0.63909 0.0
N336 N 0.32767 0.12765 0.6247 0.0
C337 C 0.3452 0.10878 0.63915 0.0
C338 C 0.35506 0.1083 0.62433 0.0
C339 C 0.35109 0.11758 0.60969 0.0
C340 C 0.33725 0.12722 0.6101 0.0
C341 C 0.34275 0.1773 0.61865 0.0
C342 C 0.31421 0.16803 0.60264 0.0
C343 C 0.33414 0.16384 0.62451 0.0
N344 N 0.3201 0.15932 0.61644 0.0
C345 C 0.32249 0.18157 0.59642 0.0
C346 C 0.33687 0.1862 0.60449 0.0
C347 C 0.2733 0.15123 0.6236 0.0
C348 C 0.27218 0.10477 0.67841 0.0
C349 C 0.25355 0.11985 0.65307 0.0
C350 C 0.24806 0.11929 0.67039 0.0
C351 C 0.25748 0.11171 0.68313 0.0
N352 N 0.26799 0.11301 0.64855 0.0
C353 C 0.27727 0.10553 0.66096 0.0
Co354 Co 0.85768 0.30895 0.6235 0.0
Co355 Co 0.88411 0.27667 0.62531 0.0
O356 O 0.87643 0.29771 0.63316 0.0
C357 C 0.85065 0.30453 0.66085 0.0
O358 O 0.85565 0.28963 0.65867 0.0
C359 C 0.91251 0.2979 0.62068 0.0
O360 O 0.90293 0.30853 0.61325 0.0
O361 O 0.8829 0.28349 0.60034 0.0
O362 O 0.86464 0.3036 0.59909 0.0
H363 H 0.8837 0.22676 0.58779 0.0
H364 H 0.8791 0.3257 0.64885 0.0
O365 O 0.85043 0.31429 0.64792 0.0
H366 H 0.88116 0.35844 0.59483 0.0
H367 H 0.81732 0.35434 0.62084 0.0
H368 H 0.83429 0.30247 0.59489 0.0
H369 H 0.86419 0.33399 0.59629 0.0
H370 H 0.84107 0.33981 0.63239 0.0
O371 O 0.90684 0.28462 0.62645 0.0
H372 H 0.87384 0.25323 0.59807 0.0
H373 H 0.91162 0.25548 0.63569 0.0
H374 H 0.81054 0.31665 0.58284 0.0
H375 H 0.89613 0.35014 0.64801 0.0
H376 H 0.80192 0.34278 0.59584 0.0
H377 H 0.89727 0.36666 0.62084 0.0
O378 O 0.84422 0.28901 0.6242 0.0
H379 H 0.89881 0.2834 0.68885 0.0
H380 H 0.87274 0.24783 0.64534 0.0
H381 H 0.87342 0.23965 0.67645 0.0
H382 H 0.88653 0.25749 0.69844 0.0
H383 H 0.89775 0.29118 0.65762 0.0
H384 H 0.92198 0.22909 0.62572 0.0
H385 H 0.90794 0.21452 0.60165 0.0
O386 O 0.86164 0.26824 0.62393 0.0
C387 C 0.87453 0.29381 0.59185 0.0
C388 C 0.88989 0.23296 0.59833 0.0
C389 C 0.91138 0.23428 0.6196 0.0
N390 N 0.89206 0.25582 0.61756 0.0
C391 C 0.88433 0.24793 0.60424 0.0
C392 C 0.90548 0.24923 0.62517 0.0
C393 C 0.9035 0.22611 0.6061 0.0
C394 C 0.87942 0.33291 0.63703 0.0
N395 N 0.8706 0.32847 0.62267 0.0
C396 C 0.88913 0.3467 0.63661 0.0
C397 C 0.88978 0.35596 0.62135 0.0
C398 C 0.88076 0.35134 0.60675 0.0
C399 C 0.87119 0.33747 0.60764 0.0
C400 C 0.82097 0.34298 0.61504 0.0
C401 C 0.83066 0.31389 0.60053 0.0
C402 C 0.83439 0.33469 0.62154 0.0
N403 N 0.83912 0.32038 0.61422 0.0
C404 C 0.81718 0.32184 0.59369 0.0
C405 C 0.81234 0.33649 0.60101 0.0
C406 C 0.84734 0.27394 0.62381 0.0
C407 C 0.89311 0.27549 0.67938 0.0
C408 C 0.87845 0.25567 0.65483 0.0
C409 C 0.87883 0.25096 0.67242 0.0
C410 C 0.8862 0.26097 0.68476 0.0
N411 N 0.88527 0.26994 0.64966 0.0
C412 C 0.89254 0.2798 0.66167 0.0
Co413 Co 0.68953 0.85789 0.62377 0.0
Co414 Co 0.72196 0.88419 0.62456 0.0
O415 O 0.70109 0.87661 0.63307 0.0
C416 C 0.69488 0.8509 0.66099 0.0
O417 O 0.70973 0.85585 0.65836 0.0
C418 C 0.70075 0.91269 0.62056 0.0
O419 O 0.68995 0.90318 0.61333 0.0
O420 O 0.71447 0.88301 0.59982 0.0
O421 O 0.69429 0.8648 0.59919 0.0
H422 H 0.77083 0.88359 0.58549 0.0
H423 H 0.67354 0.87943 0.64958 0.0
O424 O 0.6848 0.85069 0.64835 0.0
H425 H 0.63945 0.88158 0.59657 0.0
H426 H 0.64392 0.81773 0.62256 0.0
H427 H 0.69517 0.83443 0.59502 0.0
H428 H 0.66385 0.8645 0.59731 0.0
H429 H 0.65885 0.84144 0.63362 0.0
O430 O 0.71413 0.90696 0.62597 0.0
H431 H 0.7446 0.87382 0.59661 0.0
H432 H 0.74351 0.91163 0.63426 0.0
H433 H 0.68058 0.81073 0.58344 0.0
H434 H 0.64918 0.89657 0.64946 0.0
H435 H 0.65476 0.80224 0.59724 0.0
H436 H 0.63197 0.89775 0.62279 0.0
O437 O 0.70941 0.84435 0.6239 0.0
H438 H 0.71701 0.89894 0.68828 0.0
H439 H 0.75125 0.87269 0.64367 0.0
H440 H 0.76027 0.87333 0.67451 0.0
H441 H 0.7431 0.88653 0.69706 0.0
H442 H 0.70839 0.89791 0.65732 0.0
H443 H 0.76966 0.92188 0.62346 0.0
H444 H 0.78352 0.90779 0.59895 0.0
O445 O 0.73025 0.86167 0.62292 0.0
C446 C 0.70392 0.87466 0.59166 0.0
C447 C 0.76493 0.8898 0.59622 0.0
C448 C 0.76426 0.91131 0.61752 0.0
N449 N 0.74261 0.89206 0.61617 0.0
C450 C 0.75011 0.8843 0.6026 0.0
C451 C 0.74945 0.90546 0.62355 0.0
C452 C 0.77204 0.90339 0.60377 0.0
C453 C 0.66603 0.87977 0.63799 0.0
N454 N 0.67006 0.87091 0.62351 0.0
C455 C 0.65229 0.88955 0.63797 0.0
C456 C 0.64265 0.89022 0.62299 0.0
C457 C 0.64685 0.88116 0.60827 0.0
C458 C 0.66069 0.87153 0.60876 0.0
C459 C 0.65514 0.82133 0.61641 0.0
C460 C 0.68389 0.83087 0.60101 0.0
C461 C 0.66366 0.83472 0.62264 0.0
N462 N 0.67779 0.83937 0.61487 0.0
C463 C 0.67571 0.81741 0.59444 0.0
C464 C 0.66123 0.81265 0.6022 0.0
C465 C 0.72448 0.8474 0.62302 0.0
C466 C 0.72462 0.8932 0.67857 0.0
C467 C 0.7437 0.87844 0.65341 0.0
C468 C 0.74889 0.87879 0.67084 0.0
C469 C 0.73925 0.88621 0.68349 0.0
N470 N 0.72933 0.88532 0.64869 0.0
C471 C 0.71984 0.89264 0.66101 0.0
Co472 Co 0.85789 0.69003 0.62465 0.0
Co473 Co 0.8841 0.72253 0.62423 0.0
O474 O 0.87674 0.70179 0.63331 0.0
C475 C 0.85159 0.69584 0.66195 0.0
O476 O 0.85645 0.71068 0.65904 0.0
C477 C 0.91256 0.70129 0.62008 0.0
O478 O 0.90293 0.69033 0.61333 0.0
O479 O 0.88248 0.71464 0.59967 0.0
O480 O 0.86429 0.69443 0.59985 0.0
H481 H 0.88263 0.77076 0.58424 0.0
H482 H 0.87998 0.67449 0.65023 0.0
O483 O 0.85119 0.68562 0.64945 0.0
H484 H 0.88119 0.63959 0.59781 0.0
H485 H 0.81787 0.64428 0.62515 0.0
H486 H 0.83385 0.69518 0.59635 0.0
H487 H 0.86405 0.66395 0.59851 0.0
H488 H 0.84174 0.65943 0.6354 0.0
O489 O 0.90691 0.71477 0.62528 0.0
H490 H 0.87314 0.7447 0.59609 0.0
H491 H 0.91165 0.7443 0.6329 0.0
H492 H 0.80998 0.68035 0.58559 0.0
H493 H 0.89719 0.65017 0.65015 0.0
H494 H 0.80185 0.65471 0.60003 0.0
H495 H 0.8979 0.63255 0.62378 0.0
O496 O 0.8443 0.70988 0.62474 0.0
H497 H 0.90005 0.71865 0.6877 0.0
H498 H 0.8729 0.75211 0.64302 0.0
H499 H 0.8741 0.76165 0.67366 0.0
H500 H 0.88776 0.74486 0.69624 0.0
H501 H 0.89846 0.70951 0.65694 0.0
H502 H 0.92163 0.7703 0.62136 0.0
H503 H 0.90704 0.78373 0.5969 0.0
O504 O 0.86154 0.73073 0.62293 0.0
C505 C 0.87397 0.70395 0.5919 0.0
C506 C 0.88906 0.76506 0.59494 0.0
C507 C 0.91096 0.76478 0.61576 0.0
N508 N 0.89175 0.74307 0.61526 0.0
C509 C 0.88372 0.75032 0.60174 0.0
C510 C 0.90527 0.75005 0.62222 0.0
C511 C 0.90277 0.77232 0.60204 0.0
C512 C 0.88011 0.6668 0.63877 0.0
N513 N 0.87096 0.67059 0.62443 0.0
C514 C 0.88993 0.65308 0.63877 0.0
C515 C 0.89034 0.64322 0.62396 0.0
C516 C 0.88097 0.64716 0.60938 0.0
C517 C 0.87132 0.66099 0.60984 0.0
C518 C 0.82131 0.65542 0.61873 0.0
C519 C 0.83045 0.68397 0.60262 0.0
C520 C 0.83479 0.66406 0.62449 0.0
N521 N 0.83924 0.6781 0.61638 0.0
C522 C 0.81689 0.67566 0.59651 0.0
C523 C 0.81233 0.66128 0.60463 0.0
C524 C 0.84729 0.72494 0.62348 0.0
C525 C 0.89411 0.72609 0.67797 0.0
C526 C 0.87884 0.74473 0.65277 0.0
C527 C 0.87951 0.75021 0.67009 0.0
C528 C 0.88719 0.74079 0.68276 0.0
N529 N 0.88566 0.7303 0.64819 0.0
C530 C 0.89324 0.72102 0.66052 0.0
Co531 Co 0.30808 0.85838 0.62449 0.0
Co532 Co 0.27562 0.88465 0.62424 0.0
O533 O 0.29636 0.87721 0.63327 0.0
C534 C 0.30234 0.8519 0.66176 0.0
O535 O 0.28752 0.85684 0.65894 0.0
C536 C 0.29687 0.91312 0.62028 0.0
O537 O 0.30781 0.90354 0.6134 0.0
O538 O 0.28349 0.88316 0.59965 0.0
O539 O 0.30363 0.8649 0.59973 0.0
H540 H 0.22736 0.88344 0.5843 0.0
H541 H 0.32368 0.88034 0.65015 0.0
O542 O 0.31252 0.85154 0.64923 0.0
H543 H 0.35847 0.88176 0.59765 0.0
H544 H 0.35377 0.8183 0.62464 0.0
H545 H 0.30283 0.83448 0.59608 0.0
H546 H 0.3341 0.86463 0.59832 0.0
H547 H 0.33867 0.84214 0.63506 0.0
O548 O 0.2834 0.90744 0.62545 0.0
H549 H 0.25342 0.87387 0.59605 0.0
H550 H 0.25389 0.91217 0.63311 0.0
H551 H 0.3176 0.81063 0.58514 0.0
H552 H 0.34801 0.89753 0.6501 0.0
H553 H 0.34326 0.8024 0.59946 0.0
H554 H 0.36557 0.89835 0.6237 0.0
O555 O 0.28821 0.84481 0.62456 0.0
H556 H 0.27955 0.90022 0.68782 0.0
H557 H 0.24605 0.87335 0.64298 0.0
H558 H 0.23654 0.87438 0.67363 0.0
H559 H 0.25334 0.88789 0.69629 0.0
H560 H 0.28866 0.89881 0.65704 0.0
H561 H 0.2279 0.92224 0.62168 0.0
H562 H 0.21443 0.9078 0.59714 0.0
O563 O 0.26739 0.86209 0.6228 0.0
C564 C 0.29414 0.87465 0.59184 0.0
C565 C 0.23308 0.88981 0.59504 0.0
C566 C 0.23339 0.9116 0.616 0.0
N567 N 0.25509 0.89237 0.61534 0.0
C568 C 0.24781 0.88442 0.60177 0.0
C569 C 0.24812 0.90586 0.6224 0.0
C570 C 0.22584 0.90348 0.60224 0.0
C571 C 0.33134 0.88052 0.63867 0.0
N572 N 0.32753 0.87143 0.62429 0.0
C573 C 0.34507 0.89032 0.6387 0.0
C574 C 0.3549 0.89079 0.62386 0.0
C575 C 0.35092 0.88149 0.60925 0.0
C576 C 0.33709 0.87184 0.60968 0.0
C577 C 0.34262 0.82178 0.61827 0.0
C578 C 0.31405 0.83103 0.6023 0.0
C579 C 0.33401 0.83524 0.62414 0.0
N580 N 0.31996 0.83975 0.61609 0.0
C581 C 0.32233 0.81749 0.59608 0.0
C582 C 0.33672 0.81287 0.60414 0.0
C583 C 0.27316 0.84783 0.62331 0.0
C584 C 0.27209 0.89435 0.67805 0.0
C585 C 0.25344 0.87923 0.65277 0.0
C586 C 0.24797 0.8798 0.67009 0.0
C587 C 0.2574 0.8874 0.6828 0.0
N588 N 0.26787 0.88607 0.64821 0.0
C589 C 0.27716 0.89357 0.66059 0.0
Co590 Co 0.1399 0.30862 0.62409 0.0
Co591 Co 0.11369 0.27612 0.62414 0.0
O592 O 0.12111 0.29693 0.63298 0.0
C593 C 0.14645 0.30309 0.66138 0.0
O594 O 0.1415 0.28825 0.65865 0.0
C595 C 0.08525 0.29735 0.6199 0.0
O596 O 0.09486 0.30822 0.61296 0.0
O597 O 0.11521 0.28379 0.59949 0.0
O598 O 0.13335 0.30403 0.59938 0.0
H599 H 0.11496 0.22754 0.58464 0.0
H600 H 0.11798 0.32436 0.64968 0.0
O601 O 0.14678 0.31321 0.64879 0.0
H602 H 0.11644 0.35885 0.59695 0.0
H603 H 0.17994 0.35437 0.62388 0.0
H604 H 0.16377 0.30324 0.59568 0.0
H605 H 0.13359 0.3345 0.59775 0.0
H606 H 0.15612 0.3393 0.63443 0.0
O607 O 0.0909 0.2839 0.62524 0.0
H608 H 0.12451 0.2537 0.59617 0.0
H609 H 0.08616 0.25444 0.63316 0.0
H610 H 0.18758 0.31797 0.58461 0.0
H611 H 0.10076 0.34867 0.6495 0.0
H612 H 0.1958 0.34373 0.59875 0.0
H613 H 0.09989 0.36608 0.62297 0.0
O614 O 0.15349 0.28877 0.62427 0.0
H615 H 0.09801 0.28052 0.68765 0.0
H616 H 0.12497 0.24669 0.64317 0.0
H617 H 0.1239 0.23741 0.6739 0.0
H618 H 0.11034 0.25437 0.69638 0.0
H619 H 0.09948 0.28941 0.65679 0.0
H620 H 0.07611 0.22836 0.62194 0.0
H621 H 0.09059 0.2147 0.59755 0.0
O622 O 0.13625 0.26789 0.62281 0.0
C623 C 0.12365 0.29443 0.59157 0.0
C624 C 0.10858 0.23334 0.59531 0.0
C625 C 0.08676 0.23381 0.61623 0.0
N626 N 0.10599 0.25551 0.61542 0.0
C627 C 0.11396 0.24813 0.60193 0.0
C628 C 0.09249 0.24859 0.62251 0.0
C629 C 0.0949 0.22615 0.60255 0.0
C630 C 0.11777 0.33196 0.63815 0.0
N631 N 0.12684 0.32806 0.62378 0.0
C632 C 0.10795 0.34567 0.6381 0.0
C633 C 0.10745 0.35542 0.6232 0.0
C634 C 0.11673 0.35137 0.60859 0.0
C635 C 0.12639 0.33755 0.60911 0.0
C636 C 0.17646 0.34317 0.61759 0.0
C637 C 0.16722 0.3145 0.60182 0.0
C638 C 0.16301 0.33458 0.62353 0.0
N639 N 0.1585 0.32048 0.61558 0.0
C640 C 0.18074 0.32276 0.59553 0.0
C641 C 0.18535 0.3372 0.60348 0.0
C642 C 0.15049 0.2737 0.6232 0.0
C643 C 0.10391 0.273 0.67796 0.0
C644 C 0.11907 0.25415 0.65288 0.0
C645 C 0.11847 0.24882 0.67025 0.0
C646 C 0.11085 0.25834 0.68286 0.0
N647 N 0.11223 0.26855 0.64818 0.0
C648 C 0.10472 0.27793 0.66046 0.0
Co649 Co 0.69012 0.14029 0.62407 0.0
Co650 Co 0.72253 0.11399 0.62521 0.0
O651 O 0.70152 0.12149 0.63338 0.0
C652 C 0.69465 0.14695 0.66149 0.0
O653 O 0.70955 0.14199 0.65924 0.0
C654 C 0.70139 0.08554 0.62048 0.0
O655 O 0.69071 0.09512 0.61315 0.0
O656 O 0.71551 0.11543 0.60031 0.0
O657 O 0.69538 0.13367 0.59954 0.0
H658 H 0.77215 0.11504 0.58729 0.0
H659 H 0.67365 0.11846 0.64921 0.0
O660 O 0.68487 0.14724 0.64859 0.0
H661 H 0.64063 0.11685 0.59538 0.0
H662 H 0.6445 0.18043 0.62223 0.0
H663 H 0.69633 0.16408 0.59577 0.0
H664 H 0.66497 0.13396 0.59692 0.0
H665 H 0.65921 0.15661 0.63335 0.0
O666 O 0.71469 0.09121 0.62619 0.0
H667 H 0.74571 0.12467 0.59791 0.0
H668 H 0.74391 0.08646 0.63505 0.0
H669 H 0.68197 0.1879 0.58414 0.0
H670 H 0.64932 0.10128 0.64829 0.0
H671 H 0.65586 0.19621 0.5974 0.0
H672 H 0.63265 0.10037 0.6212 0.0
O673 O 0.70998 0.15384 0.62484 0.0
H674 H 0.7164 0.09861 0.68864 0.0
H675 H 0.75146 0.1253 0.6451 0.0
H676 H 0.7599 0.12435 0.67612 0.0
H677 H 0.74231 0.11093 0.69813 0.0
H678 H 0.70836 0.09995 0.65751 0.0
H679 H 0.77027 0.07634 0.62474 0.0
H680 H 0.7846 0.09071 0.60073 0.0
O681 O 0.73083 0.13653 0.62402 0.0
C682 C 0.70513 0.12391 0.59205 0.0
C683 C 0.76605 0.10871 0.59779 0.0
C684 C 0.76498 0.08697 0.6188 0.0
N685 N 0.74335 0.10622 0.61718 0.0
C686 C 0.7511 0.11413 0.6039 0.0
C687 C 0.75005 0.09274 0.62456 0.0
C688 C 0.77302 0.09504 0.60533 0.0
C689 C 0.66637 0.11824 0.63744 0.0
N690 N 0.67067 0.12727 0.62318 0.0
C691 C 0.65264 0.10844 0.63697 0.0
C692 C 0.64331 0.10792 0.62176 0.0
C693 C 0.64778 0.11716 0.60726 0.0
C694 C 0.6616 0.1268 0.6082 0.0
C695 C 0.65585 0.17691 0.61632 0.0
C696 C 0.68492 0.16757 0.60153 0.0
C697 C 0.66425 0.16346 0.62258 0.0
N698 N 0.67854 0.1589 0.61512 0.0
C699 C 0.67687 0.18109 0.59492 0.0
C700 C 0.66223 0.18575 0.60239 0.0
C701 C 0.72506 0.1508 0.62421 0.0
C702 C 0.72419 0.10445 0.67916 0.0
C703 C 0.74373 0.11946 0.6546 0.0
C704 C 0.74859 0.11893 0.67215 0.0
C705 C 0.73872 0.11139 0.68449 0.0
N706 N 0.72946 0.11262 0.64949 0.0
C707 C 0.71973 0.10518 0.66151 0.0
Co708 Co 0.859 0.30676 0.37141 0.0
Co709 Co 0.88653 0.2754 0.37014 0.0
O710 O 0.87807 0.29602 0.36189 0.0
C711 C 0.85208 0.30193 0.33407 0.0
O712 O 0.85748 0.28717 0.33629 0.0
C713 C 0.91401 0.29785 0.374 0.0
O714 O 0.90408 0.30792 0.38179 0.0
O715 O 0.88523 0.28258 0.395 0.0
O716 O 0.86605 0.30183 0.39588 0.0
H717 H 0.88815 0.2261 0.40855 0.0
H718 H 0.87997 0.32394 0.34598 0.0
O719 O 0.85163 0.31171 0.34697 0.0
H720 H 0.88088 0.35718 0.39967 0.0
H721 H 0.81725 0.3509 0.37365 0.0
H722 H 0.83575 0.29972 0.4 0.0
H723 H 0.86464 0.33223 0.3984 0.0
H724 H 0.84147 0.33704 0.36227 0.0
O725 O 0.90894 0.28422 0.36852 0.0
H726 H 0.87726 0.25203 0.39785 0.0
H727 H 0.91477 0.25512 0.36 0.0
H728 H 0.81155 0.31323 0.41189 0.0
H729 H 0.89628 0.34887 0.34664 0.0
H730 H 0.80216 0.33901 0.39869 0.0
H731 H 0.89684 0.36565 0.37365 0.0
O732 O 0.84624 0.28639 0.37085 0.0
H733 H 0.90046 0.2815 0.3063 0.0
H734 H 0.87607 0.24582 0.35084 0.0
H735 H 0.87677 0.2371 0.3199 0.0
H736 H 0.88904 0.255 0.29739 0.0
H737 H 0.89938 0.28981 0.33736 0.0
H738 H 0.92615 0.22928 0.37037 0.0
H739 H 0.91277 0.21456 0.39477 0.0
O740 O 0.86433 0.26619 0.37188 0.0
C741 C 0.87635 0.2926 0.4033 0.0
C742 C 0.89405 0.23237 0.39787 0.0
C743 C 0.91539 0.23417 0.37646 0.0
N744 N 0.89529 0.255 0.37822 0.0
C745 C 0.88792 0.24703 0.39173 0.0
C746 C 0.90892 0.24881 0.37066 0.0
C747 C 0.90788 0.22591 0.39014 0.0
C748 C 0.88004 0.33126 0.35773 0.0
N749 N 0.8713 0.32668 0.3721 0.0
C750 C 0.88935 0.34533 0.35805 0.0
C751 C 0.88967 0.35473 0.37321 0.0
C752 C 0.88073 0.34998 0.38782 0.0
C753 C 0.87158 0.33582 0.38703 0.0
C754 C 0.82124 0.33969 0.37954 0.0
C755 C 0.83179 0.31099 0.39426 0.0
C756 C 0.83492 0.33177 0.37312 0.0
N757 N 0.84007 0.31766 0.38056 0.0
C758 C 0.81805 0.31856 0.40102 0.0
C759 C 0.81278 0.33301 0.39359 0.0
C760 C 0.84985 0.27143 0.37168 0.0
C761 C 0.89513 0.27358 0.316 0.0
C762 C 0.88141 0.25369 0.34112 0.0
C763 C 0.8818 0.24867 0.32363 0.0
C764 C 0.88869 0.25872 0.311 0.0
N765 N 0.88774 0.26829 0.34591 0.0
C766 C 0.89455 0.27818 0.33362 0.0
Co767 Co 0.68993 0.85862 0.37101 0.0
Co768 Co 0.72154 0.88587 0.3702 0.0
O769 O 0.70096 0.87759 0.36165 0.0
C770 C 0.69542 0.85161 0.33381 0.0
O771 O 0.71015 0.85693 0.33638 0.0
C772 C 0.69924 0.91348 0.37385 0.0
O773 O 0.68903 0.90357 0.38145 0.0
O774 O 0.71406 0.88456 0.39494 0.0
O775 O 0.6945 0.8657 0.39556 0.0
H776 H 0.77037 0.88705 0.40931 0.0
H777 H 0.67334 0.87964 0.34516 0.0
O778 O 0.68537 0.85122 0.34647 0.0
H779 H 0.63922 0.88097 0.39818 0.0
H780 H 0.64547 0.81718 0.37242 0.0
H781 H 0.69627 0.83537 0.39981 0.0
H782 H 0.66406 0.86454 0.39746 0.0
H783 H 0.6597 0.84128 0.36127 0.0
O784 O 0.71289 0.90836 0.36853 0.0
H785 H 0.7445 0.87636 0.39822 0.0
H786 H 0.74213 0.914 0.36043 0.0
H787 H 0.68238 0.81129 0.41147 0.0
H788 H 0.64853 0.89614 0.34526 0.0
H789 H 0.65679 0.80206 0.39774 0.0
H790 H 0.63131 0.8969 0.37193 0.0
O791 O 0.71019 0.84569 0.37091 0.0
H792 H 0.71632 0.90002 0.30632 0.0
H793 H 0.75125 0.87522 0.35129 0.0
H794 H 0.76036 0.87594 0.32049 0.0
H795 H 0.74283 0.88842 0.29776 0.0
H796 H 0.70763 0.89892 0.33726 0.0
H797 H 0.76791 0.92517 0.3712 0.0
H798 H 0.78224 0.91163 0.39577 0.0
O799 O 0.73055 0.86359 0.37202 0.0
C800 C 0.7038 0.87585 0.40311 0.0
C801 C 0.76427 0.89303 0.39856 0.0
C802 C 0.76288 0.91444 0.37718 0.0
N803 N 0.7419 0.89447 0.37859 0.0
C804 C 0.74965 0.88701 0.39219 0.0
C805 C 0.74828 0.90808 0.37116 0.0
C806 C 0.77092 0.90683 0.39097 0.0
C807 C 0.66583 0.8798 0.35676 0.0
N808 N 0.6701 0.87107 0.37125 0.0
C809 C 0.65183 0.88921 0.35676 0.0
C810 C 0.64218 0.88965 0.37174 0.0
C811 C 0.64662 0.88072 0.38647 0.0
C812 C 0.66071 0.87146 0.386 0.0
C813 C 0.6566 0.82111 0.37853 0.0
C814 C 0.68509 0.83148 0.39385 0.0
C815 C 0.66472 0.83472 0.37226 0.0
N816 N 0.67872 0.83979 0.37998 0.0
C817 C 0.6773 0.81782 0.40047 0.0
C818 C 0.66295 0.81263 0.39275 0.0
C819 C 0.72517 0.84916 0.37187 0.0
C820 C 0.72409 0.8946 0.31612 0.0
C821 C 0.74355 0.88065 0.34148 0.0
C822 C 0.74878 0.88105 0.32406 0.0
C823 C 0.73895 0.88806 0.31132 0.0
N824 N 0.72895 0.88709 0.34608 0.0
C825 C 0.71926 0.89401 0.33366 0.0
Co826 Co 0.141 0.69171 0.37056 0.0
Co827 Co 0.11417 0.7237 0.37017 0.0
O828 O 0.12201 0.70298 0.3615 0.0
C829 C 0.14759 0.69711 0.33324 0.0
O830 O 0.1424 0.71189 0.33583 0.0
C831 C 0.086 0.70206 0.37439 0.0
O832 O 0.09572 0.69132 0.38141 0.0
O833 O 0.11571 0.71617 0.39487 0.0
O834 O 0.13429 0.69633 0.39521 0.0
H835 H 0.11437 0.77247 0.40941 0.0
H836 H 0.11947 0.67539 0.345 0.0
O837 O 0.14803 0.68708 0.34591 0.0
H838 H 0.11843 0.64121 0.39799 0.0
H839 H 0.18189 0.64673 0.37127 0.0
H840 H 0.16467 0.69773 0.39902 0.0
H841 H 0.1351 0.66589 0.39707 0.0
H842 H 0.15783 0.66128 0.36051 0.0
O843 O 0.09152 0.71553 0.36899 0.0
H844 H 0.12444 0.74643 0.39809 0.0
H845 H 0.08633 0.74487 0.36083 0.0
H846 H 0.18872 0.68352 0.4103 0.0
H847 H 0.10273 0.65074 0.3453 0.0
H848 H 0.19747 0.65783 0.39639 0.0
H849 H 0.10211 0.63349 0.37195 0.0
O850 O 0.15422 0.71182 0.37028 0.0
H851 H 0.09893 0.71867 0.30659 0.0
H852 H 0.12501 0.75324 0.35102 0.0
H853 H 0.12393 0.76233 0.32022 0.0
H854 H 0.11082 0.74499 0.29777 0.0
H855 H 0.10038 0.70999 0.33752 0.0
H856 H 0.07577 0.77082 0.37185 0.0
H857 H 0.08986 0.78483 0.39626 0.0
O858 O 0.13656 0.73236 0.37158 0.0
C859 C 0.12434 0.70575 0.4029 0.0
C860 C 0.10816 0.76651 0.39873 0.0
C861 C 0.08648 0.76557 0.37766 0.0
N862 N 0.10606 0.74422 0.37872 0.0
C863 C 0.11383 0.75179 0.39223 0.0
C864 C 0.09249 0.75087 0.3715 0.0
C865 C 0.09439 0.77343 0.39136 0.0
C866 C 0.11937 0.66787 0.35659 0.0
N867 N 0.12831 0.67202 0.37096 0.0
C868 C 0.10982 0.65396 0.35671 0.0
C869 C 0.10946 0.64429 0.37167 0.0
C870 C 0.11861 0.64862 0.38629 0.0
C871 C 0.128 0.66263 0.38571 0.0
C872 C 0.17818 0.6579 0.37747 0.0
C873 C 0.16835 0.6865 0.39298 0.0
C874 C 0.16459 0.6662 0.37141 0.0
N875 N 0.1598 0.68026 0.37923 0.0
C876 C 0.182 0.67853 0.39938 0.0
C877 C 0.18691 0.66413 0.39156 0.0
C878 C 0.15092 0.72684 0.37126 0.0
C879 C 0.10463 0.72635 0.31627 0.0
C880 C 0.1193 0.74562 0.34133 0.0
C881 C 0.1187 0.75084 0.32391 0.0
C882 C 0.11133 0.74111 0.31132 0.0
N883 N 0.1127 0.73113 0.34607 0.0
C884 C 0.10543 0.72153 0.33381 0.0
Co885 Co 0.30748 0.13974 0.37092 0.0
Co886 Co 0.27622 0.11207 0.37121 0.0
O887 O 0.29655 0.12049 0.3621 0.0
C888 C 0.30148 0.14614 0.33365 0.0
O889 O 0.28686 0.14058 0.33641 0.0
C890 C 0.29892 0.08476 0.37485 0.0
O891 O 0.30912 0.09484 0.38219 0.0
O892 O 0.2841 0.11382 0.39579 0.0
O893 O 0.30334 0.13301 0.39565 0.0
H894 H 0.22808 0.11084 0.41131 0.0
H895 H 0.32395 0.11849 0.34521 0.0
O896 O 0.31162 0.14682 0.34619 0.0
H897 H 0.35885 0.11848 0.39765 0.0
H898 H 0.35143 0.18173 0.37086 0.0
H899 H 0.30121 0.16337 0.39936 0.0
H900 H 0.3338 0.13459 0.39704 0.0
H901 H 0.33736 0.15729 0.36039 0.0
O902 O 0.28512 0.08967 0.36972 0.0
H903 H 0.25361 0.1217 0.39951 0.0
H904 H 0.25583 0.08354 0.36233 0.0
H905 H 0.31495 0.18781 0.41035 0.0
H906 H 0.34896 0.1023 0.34521 0.0
H907 H 0.34025 0.19713 0.39606 0.0
H908 H 0.36658 0.1022 0.3716 0.0
O909 O 0.28704 0.1524 0.37088 0.0
H910 H 0.28054 0.09708 0.30748 0.0
H911 H 0.24606 0.12206 0.35273 0.0
H912 H 0.23644 0.12078 0.32213 0.0
H913 H 0.25373 0.10821 0.29927 0.0
H914 H 0.28975 0.09874 0.33821 0.0
H915 H 0.23039 0.0722 0.37381 0.0
H916 H 0.2163 0.08592 0.39843 0.0
O917 O 0.26696 0.13426 0.37283 0.0
C918 C 0.29434 0.12284 0.40358 0.0
C919 C 0.23407 0.10479 0.40053 0.0
C920 C 0.23538 0.08309 0.37951 0.0
N921 N 0.25612 0.10334 0.38015 0.0
C922 C 0.2485 0.1109 0.39377 0.0
C923 C 0.2498 0.08955 0.37308 0.0
C924 C 0.22748 0.09079 0.39332 0.0
C925 C 0.33163 0.11862 0.35668 0.0
N926 N 0.32747 0.12754 0.37107 0.0
C927 C 0.34574 0.10938 0.35663 0.0
C928 C 0.35561 0.10931 0.37145 0.0
C929 C 0.35128 0.11844 0.38607 0.0
C930 C 0.33706 0.12751 0.38566 0.0
C931 C 0.34044 0.17777 0.37721 0.0
C932 C 0.31227 0.1673 0.39315 0.0
C933 C 0.3324 0.16396 0.37132 0.0
N934 N 0.31856 0.15885 0.37935 0.0
C935 C 0.31997 0.18117 0.39939 0.0
C936 C 0.33416 0.1864 0.39136 0.0
C937 C 0.27213 0.14875 0.37224 0.0
C938 C 0.27287 0.10254 0.31734 0.0
C939 C 0.25366 0.1166 0.34285 0.0
C940 C 0.24814 0.11588 0.32555 0.0
C941 C 0.25784 0.10881 0.31273 0.0
N942 N 0.26842 0.11042 0.34727 0.0
C943 C 0.27799 0.10345 0.33478 0.0
Co944 Co 0.64086 0.80665 0.87153 0.0
Co945 Co 0.61406 0.77466 0.8706 0.0
O946 O 0.62207 0.79535 0.86206 0.0
C947 C 0.64808 0.80117 0.83439 0.0
O948 O 0.64306 0.78634 0.83702 0.0
C949 C 0.58581 0.7963 0.87391 0.0
O950 O 0.5953 0.80694 0.88146 0.0
O951 O 0.61498 0.78232 0.89529 0.0
O952 O 0.63368 0.80203 0.89605 0.0
H953 H 0.6133 0.72606 0.91009 0.0
H954 H 0.61975 0.82291 0.8455 0.0
O955 O 0.6483 0.81126 0.84701 0.0
H956 H 0.61774 0.85715 0.89842 0.0
H957 H 0.68167 0.85167 0.87306 0.0
H958 H 0.664 0.80071 0.90052 0.0
H959 H 0.63445 0.83249 0.89788 0.0
H960 H 0.65784 0.83708 0.8618 0.0
O961 O 0.59145 0.78283 0.86866 0.0
H962 H 0.62364 0.75205 0.89893 0.0
H963 H 0.58643 0.75347 0.8606 0.0
H964 H 0.68781 0.81497 0.91231 0.0
H965 H 0.60299 0.84755 0.84542 0.0
H966 H 0.69679 0.84064 0.89854 0.0
H967 H 0.60189 0.86483 0.87203 0.0
O968 O 0.65409 0.78656 0.87158 0.0
H969 H 0.60041 0.77936 0.80656 0.0
H970 H 0.62537 0.74503 0.85197 0.0
H971 H 0.62508 0.73578 0.82121 0.0
H972 H 0.61252 0.753 0.79826 0.0
H973 H 0.60109 0.78821 0.83746 0.0
H974 H 0.57561 0.72756 0.87144 0.0
H975 H 0.58911 0.71365 0.89632 0.0
O976 O 0.63641 0.76603 0.87273 0.0
C977 C 0.6235 0.7927 0.90351 0.0
C978 C 0.60734 0.73198 0.8992 0.0
C979 C 0.58618 0.73283 0.87752 0.0
N980 N 0.60574 0.75418 0.87903 0.0
C981 C 0.61317 0.74667 0.89279 0.0
C982 C 0.59234 0.74751 0.87146 0.0
C983 C 0.59376 0.72503 0.89148 0.0
C984 C 0.61945 0.83045 0.85708 0.0
N985 N 0.62814 0.82632 0.87164 0.0
C986 C 0.60989 0.84435 0.85698 0.0
C987 C 0.60925 0.85403 0.87192 0.0
C988 C 0.61814 0.84972 0.88673 0.0
C989 C 0.62755 0.83573 0.88637 0.0
C990 C 0.67786 0.84051 0.87919 0.0
C991 C 0.66778 0.81193 0.89454 0.0
C992 C 0.6644 0.83219 0.87285 0.0
N993 N 0.65948 0.81813 0.88059 0.0
C994 C 0.68129 0.81992 0.90124 0.0
C995 C 0.68633 0.83432 0.89349 0.0
C996 C 0.65078 0.77155 0.87265 0.0
C997 C 0.60587 0.77173 0.81645 0.0
C998 C 0.61991 0.7526 0.84206 0.0
C999 C 0.61975 0.74728 0.82467 0.0
C1000 C 0.61269 0.75695 0.8118 0.0
N1001 N 0.6132 0.76712 0.84652 0.0
C1002 C 0.60623 0.77664 0.83398 0.0
Co1003 Co 0.19005 0.6405 0.87181 0.0
Co1004 Co 0.22236 0.61412 0.87031 0.0
O1005 O 0.20151 0.62193 0.86206 0.0
C1006 C 0.19518 0.64808 0.8347 0.0
O1007 O 0.21008 0.64321 0.83718 0.0
C1008 C 0.20108 0.58562 0.87368 0.0
O1009 O 0.19042 0.59498 0.88138 0.0
O1010 O 0.21495 0.61479 0.89509 0.0
O1011 O 0.19496 0.63319 0.89621 0.0
H1012 H 0.27136 0.61371 0.9092 0.0
H1013 H 0.17385 0.61941 0.84573 0.0
O1014 O 0.18516 0.64808 0.8474 0.0
H1015 H 0.14009 0.6165 0.89894 0.0
H1016 H 0.14454 0.68074 0.87414 0.0
H1017 H 0.19593 0.66348 0.90097 0.0
H1018 H 0.16452 0.63354 0.89834 0.0
H1019 H 0.15934 0.65718 0.86251 0.0
O1020 O 0.21444 0.59141 0.86831 0.0
H1021 H 0.24514 0.62381 0.89843 0.0
H1022 H 0.24378 0.58681 0.85985 0.0
H1023 H 0.18146 0.68702 0.91311 0.0
H1024 H 0.14944 0.60232 0.84571 0.0
H1025 H 0.15558 0.69578 0.89967 0.0
H1026 H 0.1324 0.60076 0.87248 0.0
O1027 O 0.20997 0.65399 0.8718 0.0
H1028 H 0.21721 0.60079 0.80623 0.0
H1029 H 0.25165 0.62594 0.85141 0.0
H1030 H 0.26059 0.62594 0.82055 0.0
H1031 H 0.24332 0.6133 0.79771 0.0
H1032 H 0.20866 0.60117 0.83723 0.0
H1033 H 0.26992 0.57623 0.87029 0.0
H1034 H 0.28392 0.58976 0.8951 0.0
O1035 O 0.23073 0.63658 0.87251 0.0
C1036 C 0.20452 0.62311 0.90349 0.0
C1037 C 0.2654 0.60775 0.89835 0.0
C1038 C 0.26459 0.5867 0.87652 0.0
N1039 N 0.24302 0.60599 0.87843 0.0
C1040 C 0.25058 0.61344 0.89216 0.0
C1041 C 0.24977 0.59273 0.87069 0.0
C1042 C 0.27244 0.5943 0.89044 0.0
C1043 C 0.16641 0.6189 0.85737 0.0
N1044 N 0.17055 0.62753 0.87198 0.0
C1045 C 0.15264 0.60916 0.85731 0.0
C1046 C 0.1431 0.60827 0.87234 0.0
C1047 C 0.14741 0.6171 0.88719 0.0
C1048 C 0.16127 0.62669 0.88678 0.0
C1049 C 0.15579 0.67701 0.88013 0.0
C1050 C 0.18461 0.66717 0.89513 0.0
C1051 C 0.16424 0.66371 0.87358 0.0
N1052 N 0.17841 0.6589 0.88115 0.0
C1053 C 0.17651 0.68053 0.90202 0.0
C1054 C 0.16199 0.68545 0.89446 0.0
C1055 C 0.22502 0.65087 0.87266 0.0
C1056 C 0.22487 0.60629 0.81607 0.0
C1057 C 0.24405 0.62043 0.84155 0.0
C1058 C 0.2492 0.62044 0.8241 0.0
C1059 C 0.23951 0.61333 0.81129 0.0
N1060 N 0.22968 0.6135 0.84613 0.0
C1061 C 0.22012 0.60648 0.83365 0.0
Co1062 Co 0.35908 0.18982 0.87235 0.0
Co1063 Co 0.38631 0.22144 0.87087 0.0
O1064 O 0.37792 0.20081 0.86261 0.0
C1065 C 0.3516 0.19523 0.83527 0.0
O1066 O 0.35694 0.20997 0.83776 0.0
C1067 C 0.41388 0.19908 0.87431 0.0
O1068 O 0.40401 0.18893 0.88206 0.0
O1069 O 0.38528 0.21414 0.89569 0.0
O1070 O 0.36652 0.19449 0.89675 0.0
H1071 H 0.38799 0.27057 0.90954 0.0
H1072 H 0.37971 0.17311 0.84621 0.0
O1073 O 0.35135 0.18519 0.84794 0.0
H1074 H 0.38179 0.13919 0.89937 0.0
H1075 H 0.31766 0.14539 0.87463 0.0
H1076 H 0.33628 0.19628 0.90151 0.0
H1077 H 0.36538 0.16405 0.89881 0.0
H1078 H 0.34159 0.15957 0.86302 0.0
O1079 O 0.40876 0.21274 0.86899 0.0
H1080 H 0.37715 0.24463 0.8988 0.0
H1081 H 0.41435 0.24193 0.86056 0.0
H1082 H 0.31237 0.18243 0.91364 0.0
H1083 H 0.39618 0.14828 0.84615 0.0
H1084 H 0.30292 0.1568 0.90017 0.0
H1085 H 0.39733 0.13116 0.87288 0.0
O1086 O 0.34618 0.2101 0.87238 0.0
H1087 H 0.39973 0.21575 0.80686 0.0
H1088 H 0.37549 0.25103 0.85185 0.0
H1089 H 0.37588 0.25992 0.82096 0.0
H1090 H 0.38807 0.24222 0.79822 0.0
H1091 H 0.39897 0.20727 0.83788 0.0
H1092 H 0.42568 0.26778 0.87096 0.0
H1093 H 0.41243 0.28231 0.89558 0.0
O1094 O 0.36407 0.23049 0.87291 0.0
C1095 C 0.37674 0.20389 0.90406 0.0
C1096 C 0.39384 0.26438 0.89876 0.0
C1097 C 0.415 0.2628 0.87712 0.0
N1098 N 0.39503 0.24186 0.87897 0.0
C1099 C 0.38773 0.24972 0.89259 0.0
C1100 C 0.40855 0.24816 0.87131 0.0
C1101 C 0.40756 0.27095 0.89093 0.0
C1102 C 0.38003 0.16564 0.85784 0.0
N1103 N 0.37153 0.16997 0.87246 0.0
C1104 C 0.38943 0.15163 0.85775 0.0
C1105 C 0.39008 0.14204 0.87276 0.0
C1106 C 0.38138 0.14655 0.88763 0.0
C1107 C 0.37213 0.16065 0.88725 0.0
C1108 C 0.32168 0.15653 0.88063 0.0
C1109 C 0.33229 0.18507 0.89566 0.0
C1110 C 0.3352 0.16463 0.8741 0.0
N1111 N 0.34039 0.17866 0.88168 0.0
C1112 C 0.31872 0.17731 0.90255 0.0
C1113 C 0.31342 0.16294 0.89497 0.0
C1114 C 0.34965 0.22509 0.87311 0.0
C1115 C 0.39444 0.22359 0.81666 0.0
C1116 C 0.3808 0.24326 0.84203 0.0
C1117 C 0.38101 0.24837 0.82456 0.0
C1118 C 0.38787 0.23843 0.81181 0.0
N1119 N 0.38726 0.22868 0.84667 0.0
C1120 C 0.39403 0.21889 0.83425 0.0
Co1121 Co 0.80672 0.35948 0.87103 0.0
Co1122 Co 0.77555 0.38723 0.87103 0.0
O1123 O 0.79592 0.37877 0.86213 0.0
C1124 C 0.80113 0.35329 0.83365 0.0
O1125 O 0.78644 0.3587 0.83632 0.0
C1126 C 0.79834 0.41442 0.87478 0.0
O1127 O 0.80841 0.40429 0.88225 0.0
O1128 O 0.78323 0.3855 0.89568 0.0
O1129 O 0.80231 0.36615 0.89575 0.0
H1130 H 0.72708 0.38863 0.91065 0.0
H1131 H 0.82352 0.38081 0.84565 0.0
O1132 O 0.81114 0.35252 0.84632 0.0
H1133 H 0.85781 0.38057 0.89856 0.0
H1134 H 0.85059 0.31741 0.87138 0.0
H1135 H 0.8001 0.33577 0.8993 0.0
H1136 H 0.83275 0.36449 0.89752 0.0
H1137 H 0.83668 0.34192 0.86082 0.0
O1138 O 0.78454 0.40959 0.86958 0.0
H1139 H 0.75268 0.3777 0.89912 0.0
H1140 H 0.75532 0.41582 0.86192 0.0
H1141 H 0.81367 0.31128 0.91037 0.0
H1142 H 0.84855 0.39696 0.84606 0.0
H1143 H 0.83911 0.30195 0.89637 0.0
H1144 H 0.86586 0.39694 0.87268 0.0
O1145 O 0.78626 0.34687 0.87068 0.0
H1146 H 0.78041 0.40214 0.80732 0.0
H1147 H 0.74551 0.3773 0.85228 0.0
H1148 H 0.73613 0.37857 0.82159 0.0
H1149 H 0.75364 0.39107 0.79887 0.0
H1150 H 0.78937 0.40049 0.83813 0.0
H1151 H 0.72981 0.42724 0.87314 0.0
H1152 H 0.71548 0.41358 0.89763 0.0
O1153 O 0.76622 0.36507 0.87259 0.0
C1154 C 0.79333 0.3764 0.90358 0.0
C1155 C 0.73318 0.39466 0.89993 0.0
C1156 C 0.73472 0.41634 0.87889 0.0
N1157 N 0.7554 0.39603 0.87977 0.0
C1158 C 0.74765 0.3885 0.89332 0.0
C1159 C 0.74918 0.40984 0.87262 0.0
C1160 C 0.72669 0.40867 0.89263 0.0
C1161 C 0.83107 0.38062 0.85721 0.0
N1162 N 0.82673 0.37165 0.8715 0.0
C1163 C 0.8452 0.38984 0.8574 0.0
C1164 C 0.85489 0.38984 0.87235 0.0
C1165 C 0.85038 0.38066 0.88688 0.0
C1166 C 0.83616 0.37161 0.88623 0.0
C1167 C 0.83953 0.32137 0.87761 0.0
C1168 C 0.81122 0.33184 0.89322 0.0
C1169 C 0.83159 0.33522 0.87167 0.0
N1170 N 0.81767 0.34033 0.87954 0.0
C1171 C 0.81882 0.31794 0.89951 0.0
C1172 C 0.83308 0.31271 0.89164 0.0
C1173 C 0.77136 0.35056 0.87197 0.0
C1174 C 0.77265 0.39671 0.81711 0.0
C1175 C 0.7532 0.38273 0.84247 0.0
C1176 C 0.74781 0.38345 0.82512 0.0
C1177 C 0.75764 0.39047 0.81238 0.0
N1178 N 0.76794 0.38888 0.84701 0.0
C1179 C 0.77763 0.39581 0.83459 0.0
Co1180 Co 0.64046 0.1926 0.12453 0.0
Co1181 Co 0.61368 0.22461 0.12505 0.0
O1182 O 0.62155 0.20389 0.1337 0.0
C1183 C 0.64718 0.19765 0.16189 0.0
O1184 O 0.64213 0.21251 0.15947 0.0
C1185 C 0.5854 0.20305 0.12132 0.0
O1186 O 0.59489 0.19245 0.11373 0.0
O1187 O 0.61488 0.21698 0.10034 0.0
O1188 O 0.63375 0.19742 0.09993 0.0
H1189 H 0.61354 0.27327 0.08564 0.0
H1190 H 0.61885 0.17621 0.14995 0.0
O1191 O 0.64749 0.18773 0.14911 0.0
H1192 H 0.61766 0.14238 0.0967 0.0
H1193 H 0.68115 0.14745 0.12334 0.0
H1194 H 0.66414 0.19874 0.09611 0.0
H1195 H 0.63445 0.16697 0.09781 0.0
H1196 H 0.65717 0.162 0.13426 0.0
O1197 O 0.59104 0.21648 0.12668 0.0
H1198 H 0.62368 0.24723 0.09691 0.0
H1199 H 0.58599 0.24585 0.13468 0.0
H1200 H 0.68811 0.18452 0.08467 0.0
H1201 H 0.60199 0.15164 0.14945 0.0
H1202 H 0.69676 0.15868 0.09832 0.0
H1203 H 0.6013 0.13457 0.12266 0.0
O1204 O 0.65374 0.21266 0.12497 0.0
H1205 H 0.59926 0.2199 0.18889 0.0
H1206 H 0.62486 0.25419 0.14387 0.0
H1207 H 0.62422 0.26342 0.17463 0.0
H1208 H 0.61135 0.24622 0.19739 0.0
H1209 H 0.60029 0.21107 0.158 0.0
H1210 H 0.57536 0.2718 0.12374 0.0
H1211 H 0.58921 0.28572 0.09909 0.0
O1212 O 0.63609 0.23318 0.12326 0.0
C1213 C 0.62365 0.2067 0.09228 0.0
C1214 C 0.60743 0.26735 0.09643 0.0
C1215 C 0.58599 0.26652 0.11779 0.0
N1216 N 0.60552 0.24511 0.11653 0.0
C1217 C 0.61314 0.25263 0.1029 0.0
C1218 C 0.59205 0.25181 0.12392 0.0
C1219 C 0.59377 0.27432 0.10397 0.0
C1220 C 0.61872 0.16876 0.1383 0.0
N1221 N 0.62768 0.17297 0.12396 0.0
C1222 C 0.6091 0.1549 0.13807 0.0
C1223 C 0.6087 0.14533 0.12303 0.0
C1224 C 0.61787 0.14972 0.10845 0.0
C1225 C 0.62733 0.16367 0.10915 0.0
C1226 C 0.67748 0.15868 0.11726 0.0
C1227 C 0.66777 0.18745 0.10204 0.0
C1228 C 0.66394 0.16699 0.12341 0.0
N1229 N 0.6592 0.18113 0.11573 0.0
C1230 C 0.68138 0.17948 0.09554 0.0
C1231 C 0.68623 0.16499 0.10322 0.0
C1232 C 0.65045 0.22766 0.12376 0.0
C1233 C 0.60486 0.22752 0.17909 0.0
C1234 C 0.61926 0.24662 0.1537 0.0
C1235 C 0.61891 0.25193 0.17109 0.0
C1236 C 0.61167 0.24228 0.18385 0.0
N1237 N 0.61256 0.23213 0.14913 0.0
C1238 C 0.60541 0.22262 0.16156 0.0
Co1239 Co 0.80709 0.64064 0.12364 0.0
Co1240 Co 0.77599 0.61284 0.1255 0.0
O1241 O 0.7965 0.62168 0.13361 0.0
C1242 C 0.80188 0.64835 0.16072 0.0
O1243 O 0.78719 0.64279 0.15848 0.0
C1244 C 0.79877 0.58557 0.12228 0.0
O1245 O 0.80876 0.59553 0.11441 0.0
O1246 O 0.78323 0.61374 0.10064 0.0
O1247 O 0.80243 0.63294 0.09935 0.0
H1248 H 0.72683 0.60993 0.08699 0.0
H1249 H 0.82431 0.62047 0.14981 0.0
O1250 O 0.81177 0.64863 0.14792 0.0
H1251 H 0.85795 0.61866 0.09645 0.0
H1252 H 0.85076 0.68283 0.12062 0.0
H1253 H 0.80003 0.66312 0.09434 0.0
H1254 H 0.83282 0.63464 0.09705 0.0
H1255 H 0.83709 0.65873 0.13257 0.0
O1256 O 0.78507 0.59055 0.12761 0.0
H1257 H 0.7526 0.62132 0.09752 0.0
H1258 H 0.75602 0.58455 0.13621 0.0
H1259 H 0.81336 0.68718 0.08188 0.0
H1260 H 0.84942 0.60444 0.14983 0.0
H1261 H 0.83892 0.69718 0.09505 0.0
H1262 H 0.86641 0.60343 0.12299 0.0
O1263 O 0.78659 0.65319 0.12366 0.0
H1264 H 0.78211 0.6002 0.18965 0.0
H1265 H 0.74627 0.62333 0.14448 0.0
H1266 H 0.73748 0.62311 0.1754 0.0
H1267 H 0.75546 0.61149 0.19823 0.0
H1268 H 0.79047 0.60077 0.15859 0.0
H1269 H 0.73035 0.57268 0.12601 0.0
H1270 H 0.71554 0.58544 0.10127 0.0
O1271 O 0.76655 0.6349 0.12323 0.0
C1272 C 0.79327 0.62244 0.09216 0.0
C1273 C 0.73314 0.6043 0.09782 0.0
C1274 C 0.73512 0.58338 0.11971 0.0
N1275 N 0.75572 0.60369 0.11755 0.0
C1276 C 0.74771 0.61072 0.10387 0.0
C1277 C 0.74966 0.59013 0.1254 0.0
C1278 C 0.72682 0.59054 0.10583 0.0
C1279 C 0.83171 0.62021 0.13813 0.0
N1280 N 0.82715 0.62855 0.12348 0.0
C1281 C 0.84589 0.61106 0.1382 0.0
C1282 C 0.8554 0.61048 0.12313 0.0
C1283 C 0.85066 0.61902 0.10823 0.0
C1284 C 0.8364 0.62802 0.10864 0.0
C1285 C 0.83965 0.67857 0.11475 0.0
C1286 C 0.8112 0.66735 0.10006 0.0
C1287 C 0.83184 0.66496 0.12148 0.0
N1288 N 0.81785 0.65947 0.11406 0.0
C1289 C 0.81867 0.681 0.09299 0.0
C1290 C 0.833 0.68662 0.1004 0.0
C1291 C 0.77167 0.64943 0.12296 0.0
C1292 C 0.77414 0.60525 0.17981 0.0
C1293 C 0.75417 0.61826 0.15434 0.0
C1294 C 0.74911 0.61815 0.17182 0.0
C1295 C 0.7592 0.61161 0.18462 0.0
N1296 N 0.76884 0.612 0.14973 0.0
C1297 C 0.77878 0.60554 0.1622 0.0
Co1298 Co 0.35912 0.8071 0.12387 0.0
Co1299 Co 0.38689 0.77595 0.12518 0.0
O1300 O 0.37816 0.79642 0.13354 0.0
C1301 C 0.3518 0.80169 0.16102 0.0
O1302 O 0.35734 0.78701 0.15863 0.0
C1303 C 0.41411 0.79876 0.12184 0.0
O1304 O 0.4041 0.80877 0.11407 0.0
O1305 O 0.38574 0.78333 0.10038 0.0
O1306 O 0.36655 0.80256 0.09945 0.0
H1307 H 0.38936 0.727 0.0863 0.0
H1308 H 0.3796 0.82414 0.14989 0.0
O1309 O 0.3514 0.81166 0.14828 0.0
H1310 H 0.3809 0.85809 0.09674 0.0
H1311 H 0.31699 0.85087 0.12168 0.0
H1312 H 0.33632 0.80024 0.09481 0.0
H1313 H 0.36489 0.83298 0.09737 0.0
H1314 H 0.34119 0.83709 0.13322 0.0
O1315 O 0.40919 0.78501 0.12711 0.0
H1316 H 0.3781 0.75272 0.09715 0.0
H1317 H 0.41526 0.7559 0.13541 0.0
H1318 H 0.31215 0.81368 0.08276 0.0
H1319 H 0.39567 0.84923 0.14988 0.0
H1320 H 0.30234 0.83919 0.09623 0.0
H1321 H 0.39642 0.86637 0.12314 0.0
O1322 O 0.34655 0.78661 0.12391 0.0
H1323 H 0.40019 0.78165 0.18922 0.0
H1324 H 0.37657 0.74611 0.14407 0.0
H1325 H 0.3771 0.73712 0.17492 0.0
H1326 H 0.38898 0.75495 0.19774 0.0
H1327 H 0.3993 0.79022 0.15824 0.0
H1328 H 0.42701 0.73027 0.12489 0.0
H1329 H 0.41399 0.71562 0.1002 0.0
O1330 O 0.36479 0.76654 0.12311 0.0
C1331 C 0.37695 0.79342 0.09207 0.0
C1332 C 0.39511 0.73325 0.0971 0.0
C1333 C 0.41625 0.73509 0.11875 0.0
N1334 N 0.39593 0.75571 0.11699 0.0
C1335 C 0.38876 0.74779 0.10334 0.0
C1336 C 0.40957 0.74961 0.12462 0.0
C1337 C 0.40894 0.72688 0.1049 0.0
C1338 C 0.37975 0.83162 0.13827 0.0
N1339 N 0.37125 0.82715 0.12369 0.0
C1340 C 0.38892 0.84578 0.13831 0.0
C1341 C 0.38935 0.85538 0.1233 0.0
C1342 C 0.38065 0.85073 0.10847 0.0
C1343 C 0.37163 0.83648 0.1089 0.0
C1344 C 0.32116 0.83978 0.11568 0.0
C1345 C 0.33218 0.81139 0.10066 0.0
C1346 C 0.33483 0.83191 0.12218 0.0
N1347 N 0.34022 0.81795 0.1146 0.0
C1348 C 0.31846 0.81892 0.09382 0.0
C1349 C 0.31295 0.83322 0.10139 0.0
C1350 C 0.35028 0.77169 0.12305 0.0
C1351 C 0.39503 0.77375 0.17939 0.0
C1352 C 0.38174 0.75394 0.15393 0.0
C1353 C 0.38203 0.74878 0.17137 0.0
C1354 C 0.38871 0.75878 0.18416 0.0
N1355 N 0.38796 0.76865 0.14935 0.0
C1356 C 0.39455 0.77851 0.16181 0.0
Co1357 Co 0.19007 0.35963 0.1241 0.0
Co1358 Co 0.2217 0.38686 0.12505 0.0
O1359 O 0.20112 0.37854 0.13357 0.0
C1360 C 0.1955 0.35235 0.16124 0.0
O1361 O 0.21023 0.35774 0.1588 0.0
C1362 C 0.19935 0.41444 0.12157 0.0
O1363 O 0.18916 0.40453 0.11392 0.0
O1364 O 0.21426 0.38565 0.10027 0.0
O1365 O 0.19465 0.36683 0.09962 0.0
H1366 H 0.27059 0.3882 0.08603 0.0
H1367 H 0.17351 0.38053 0.15007 0.0
O1368 O 0.18549 0.35209 0.14856 0.0
H1369 H 0.13938 0.38219 0.09707 0.0
H1370 H 0.14556 0.31826 0.12236 0.0
H1371 H 0.19642 0.33654 0.09516 0.0
H1372 H 0.1642 0.36572 0.09768 0.0
H1373 H 0.15981 0.34228 0.13368 0.0
O1374 O 0.21303 0.40934 0.12681 0.0
H1375 H 0.24471 0.37746 0.09704 0.0
H1376 H 0.24226 0.41498 0.13495 0.0
H1377 H 0.18251 0.31255 0.08332 0.0
H1378 H 0.14872 0.39706 0.15008 0.0
H1379 H 0.15689 0.30326 0.09695 0.0
H1380 H 0.13149 0.39799 0.12341 0.0
O1381 O 0.21032 0.3467 0.12412 0.0
H1382 H 0.21643 0.40075 0.18899 0.0
H1383 H 0.2514 0.37615 0.14394 0.0
H1384 H 0.26048 0.37676 0.17475 0.0
H1385 H 0.24294 0.38913 0.19752 0.0
H1386 H 0.20776 0.39978 0.15804 0.0
H1387 H 0.26805 0.4262 0.12427 0.0
H1388 H 0.28242 0.41274 0.09968 0.0
O1389 O 0.23071 0.36459 0.12314 0.0
C1390 C 0.20398 0.37697 0.09209 0.0
C1391 C 0.26447 0.39414 0.09679 0.0
C1392 C 0.26303 0.41548 0.11824 0.0
N1393 N 0.24207 0.3955 0.11672 0.0
C1394 C 0.24984 0.38808 0.10311 0.0
C1395 C 0.24842 0.40909 0.12421 0.0
C1396 C 0.27109 0.40792 0.10444 0.0
C1397 C 0.16599 0.38076 0.13848 0.0
N1398 N 0.17024 0.37211 0.12393 0.0
C1399 C 0.152 0.39019 0.13854 0.0
C1400 C 0.14235 0.39073 0.12356 0.0
C1401 C 0.14678 0.38187 0.10877 0.0
C1402 C 0.16086 0.37259 0.10918 0.0
C1403 C 0.1567 0.3222 0.11629 0.0
C1404 C 0.18522 0.33263 0.10108 0.0
C1405 C 0.16483 0.33577 0.12266 0.0
N1406 N 0.17885 0.34087 0.11499 0.0
C1407 C 0.17743 0.31901 0.09436 0.0
C1408 C 0.16306 0.3138 0.10203 0.0
C1409 C 0.22531 0.35016 0.1232 0.0
C1410 C 0.2242 0.39538 0.17918 0.0
C1411 C 0.24369 0.38154 0.15377 0.0
C1412 C 0.24891 0.38188 0.17119 0.0
C1413 C 0.23907 0.38883 0.18396 0.0
N1414 N 0.22909 0.38799 0.14918 0.0
C1415 C 0.21939 0.39485 0.16162 0.0
Co1416 Co 0.35751 0.19181 0.1241 0.0
Co1417 Co 0.38443 0.22369 0.12552 0.0
O1418 O 0.37626 0.20299 0.13386 0.0
C1419 C 0.34985 0.19708 0.16119 0.0
O1420 O 0.35503 0.21189 0.15879 0.0
C1421 C 0.41268 0.20201 0.12231 0.0
O1422 O 0.40326 0.19145 0.11455 0.0
O1423 O 0.38372 0.21617 0.10076 0.0
O1424 O 0.36495 0.19653 0.09972 0.0
H1425 H 0.38574 0.27251 0.08637 0.0
H1426 H 0.37829 0.17532 0.15027 0.0
O1427 O 0.34978 0.18708 0.14848 0.0
H1428 H 0.3807 0.14136 0.09717 0.0
H1429 H 0.31654 0.14696 0.12174 0.0
H1430 H 0.3347 0.19803 0.09488 0.0
H1431 H 0.36408 0.16609 0.09766 0.0
H1432 H 0.34031 0.16138 0.1334 0.0
O1433 O 0.407 0.21543 0.12766 0.0
H1434 H 0.3752 0.24649 0.09724 0.0
H1435 H 0.41204 0.24473 0.13597 0.0
H1436 H 0.31095 0.18394 0.0827 0.0
H1437 H 0.39495 0.15062 0.15039 0.0
H1438 H 0.30173 0.15822 0.09616 0.0
H1439 H 0.39626 0.13348 0.12369 0.0
O1440 O 0.34436 0.21196 0.12405 0.0
H1441 H 0.39743 0.21858 0.18968 0.0
H1442 H 0.37305 0.25326 0.14422 0.0
H1443 H 0.37307 0.26234 0.17505 0.0
H1444 H 0.38533 0.24494 0.19802 0.0
H1445 H 0.39703 0.20992 0.15872 0.0
H1446 H 0.42306 0.27066 0.12543 0.0
H1447 H 0.40984 0.28476 0.1005 0.0
O1448 O 0.36213 0.23242 0.12321 0.0
C1449 C 0.37522 0.20586 0.09241 0.0
C1450 C 0.39157 0.26651 0.09728 0.0
C1451 C 0.41253 0.26546 0.11919 0.0
N1452 N 0.39291 0.24418 0.11732 0.0
C1453 C 0.38563 0.2518 0.10353 0.0
C1454 C 0.40625 0.25077 0.12508 0.0
C1455 C 0.4051 0.27337 0.1052 0.0
C1456 C 0.37869 0.16785 0.13865 0.0
N1457 N 0.37016 0.17209 0.12401 0.0
C1458 C 0.38819 0.15391 0.13878 0.0
C1459 C 0.38894 0.14431 0.12378 0.0
C1460 C 0.38021 0.14873 0.10889 0.0
C1461 C 0.37085 0.16276 0.10924 0.0
C1462 C 0.32046 0.15814 0.11574 0.0
C1463 C 0.33081 0.18679 0.10073 0.0
C1464 C 0.33388 0.16638 0.12231 0.0
N1465 N 0.33894 0.18046 0.11473 0.0
C1466 C 0.31733 0.17889 0.09382 0.0
C1467 C 0.31216 0.16446 0.10138 0.0
C1468 C 0.34774 0.22696 0.12312 0.0
C1469 C 0.3921 0.22629 0.17978 0.0
C1470 C 0.37839 0.24561 0.15415 0.0
C1471 C 0.37839 0.25083 0.17157 0.0
C1472 C 0.38529 0.24107 0.18446 0.0
N1473 N 0.3851 0.2311 0.14967 0.0
C1474 C 0.3919 0.22148 0.16222 0.0
Co1475 Co 0.80843 0.36011 0.12472 0.0
Co1476 Co 0.77676 0.3873 0.12498 0.0
O1477 O 0.7973 0.37915 0.13378 0.0
C1478 C 0.80299 0.35351 0.16204 0.0
O1479 O 0.78824 0.35879 0.15948 0.0
C1480 C 0.79903 0.41492 0.12128 0.0
O1481 O 0.80928 0.40499 0.11376 0.0
O1482 O 0.78439 0.38581 0.10029 0.0
O1483 O 0.80386 0.36685 0.10006 0.0
H1484 H 0.72816 0.38799 0.08551 0.0
H1485 H 0.82489 0.38154 0.15026 0.0
O1486 O 0.813 0.35303 0.14936 0.0
H1487 H 0.85908 0.38233 0.09728 0.0
H1488 H 0.85305 0.31885 0.12397 0.0
H1489 H 0.80218 0.33647 0.09629 0.0
H1490 H 0.83431 0.36579 0.09822 0.0
H1491 H 0.83873 0.34303 0.13473 0.0
O1492 O 0.78534 0.40982 0.12651 0.0
H1493 H 0.75399 0.37747 0.09691 0.0
H1494 H 0.75603 0.41546 0.1343 0.0
H1495 H 0.81617 0.31229 0.08501 0.0
H1496 H 0.84963 0.39815 0.14994 0.0
H1497 H 0.8418 0.30334 0.09889 0.0
H1498 H 0.86688 0.39864 0.12329 0.0
O1499 O 0.78821 0.34713 0.125 0.0
H1500 H 0.7815 0.40203 0.18875 0.0
H1501 H 0.74696 0.37672 0.14377 0.0
H1502 H 0.73763 0.3777 0.17448 0.0
H1503 H 0.75496 0.39043 0.19722 0.0
H1504 H 0.79042 0.40067 0.1579 0.0
H1505 H 0.73029 0.42647 0.12322 0.0
H1506 H 0.71614 0.41266 0.0987 0.0
O1507 O 0.76783 0.36497 0.12332 0.0
C1508 C 0.79464 0.37694 0.09231 0.0
C1509 C 0.73418 0.39408 0.09624 0.0
C1510 C 0.73538 0.41569 0.11739 0.0
N1511 N 0.75642 0.39577 0.11635 0.0
C1512 C 0.74878 0.38816 0.10278 0.0
C1513 C 0.74997 0.40942 0.12359 0.0
C1514 C 0.72745 0.40793 0.10363 0.0
C1515 C 0.83242 0.38158 0.13868 0.0
N1516 N 0.82821 0.37264 0.12432 0.0
C1517 C 0.84638 0.39105 0.13855 0.0
C1518 C 0.85604 0.39134 0.12358 0.0
C1519 C 0.85166 0.3822 0.10898 0.0
C1520 C 0.83761 0.37288 0.10958 0.0
C1521 C 0.84191 0.32264 0.1178 0.0
C1522 C 0.81338 0.3327 0.10232 0.0
C1523 C 0.83374 0.33631 0.12385 0.0
N1524 N 0.81971 0.34121 0.11605 0.0
C1525 C 0.82122 0.31898 0.09591 0.0
C1526 C 0.83559 0.31395 0.10372 0.0
C1527 C 0.77323 0.35055 0.12381 0.0
C1528 C 0.77382 0.3965 0.17895 0.0
C1529 C 0.75458 0.38226 0.15358 0.0
C1530 C 0.74922 0.38281 0.17095 0.0
C1531 C 0.75894 0.38996 0.1837 0.0
N1532 N 0.76919 0.38869 0.14903 0.0
C1533 C 0.77877 0.39576 0.16145 0.0
Co1534 Co 0.63945 0.80741 0.12392 0.0
Co1535 Co 0.61176 0.77619 0.12497 0.0
O1536 O 0.6204 0.79665 0.13344 0.0
C1537 C 0.6466 0.80186 0.16108 0.0
O1538 O 0.64111 0.78718 0.15857 0.0
C1539 C 0.58448 0.79893 0.1216 0.0
O1540 O 0.59447 0.80899 0.11388 0.0
O1541 O 0.61299 0.78366 0.10021 0.0
O1542 O 0.63216 0.80292 0.09943 0.0
H1543 H 0.60954 0.72738 0.08587 0.0
H1544 H 0.61883 0.82432 0.14989 0.0
O1545 O 0.64705 0.81188 0.1484 0.0
H1546 H 0.61769 0.85843 0.09685 0.0
H1547 H 0.6815 0.85127 0.12217 0.0
H1548 H 0.66242 0.8007 0.09496 0.0
H1549 H 0.63375 0.83334 0.09748 0.0
H1550 H 0.65728 0.8374 0.1335 0.0
O1551 O 0.58942 0.78518 0.12684 0.0
H1552 H 0.62071 0.75308 0.09688 0.0
H1553 H 0.58339 0.75603 0.13497 0.0
H1554 H 0.68662 0.81424 0.08312 0.0
H1555 H 0.60271 0.84938 0.14989 0.0
H1556 H 0.69631 0.83972 0.09675 0.0
H1557 H 0.60204 0.8666 0.12321 0.0
O1558 O 0.65207 0.78695 0.12395 0.0
H1559 H 0.59818 0.78164 0.18896 0.0
H1560 H 0.62206 0.74631 0.14379 0.0
H1561 H 0.62143 0.73721 0.1746 0.0
H1562 H 0.60941 0.75493 0.19743 0.0
H1563 H 0.59918 0.79032 0.15802 0.0
H1564 H 0.57174 0.73042 0.12429 0.0
H1565 H 0.58488 0.71589 0.0996 0.0
O1566 O 0.63388 0.76684 0.12297 0.0
C1567 C 0.6218 0.79378 0.09197 0.0
C1568 C 0.60374 0.73357 0.09667 0.0
C1569 C 0.58251 0.73529 0.11822 0.0
N1570 N 0.60279 0.75596 0.11665 0.0
C1571 C 0.61003 0.7481 0.103 0.0
C1572 C 0.58914 0.74979 0.12419 0.0
C1573 C 0.5899 0.72713 0.10437 0.0
C1574 C 0.61872 0.83183 0.13829 0.0
N1575 N 0.62729 0.82742 0.12374 0.0
C1576 C 0.60952 0.84597 0.13834 0.0
C1577 C 0.60913 0.85562 0.12336 0.0
C1578 C 0.6179 0.85104 0.10856 0.0
C1579 C 0.62694 0.8368 0.10899 0.0
C1580 C 0.67738 0.8402 0.11609 0.0
C1581 C 0.66651 0.81184 0.10089 0.0
C1582 C 0.6637 0.83227 0.12247 0.0
N1583 N 0.65838 0.81833 0.1148 0.0
C1584 C 0.68024 0.81942 0.09416 0.0
C1585 C 0.68568 0.83371 0.10183 0.0
C1586 C 0.64838 0.77202 0.123 0.0
C1587 C 0.60339 0.77378 0.17913 0.0
C1588 C 0.61684 0.7541 0.15365 0.0
C1589 C 0.61648 0.74887 0.17107 0.0
C1590 C 0.60973 0.75881 0.18387 0.0
N1591 N 0.6106 0.7688 0.1491 0.0
C1592 C 0.60393 0.7786 0.16157 0.0
Co1593 Co 0.19178 0.64007 0.12363 0.0
Co1594 Co 0.22289 0.61226 0.12498 0.0
O1595 O 0.20244 0.62102 0.13332 0.0
C1596 C 0.19721 0.64743 0.16076 0.0
O1597 O 0.21188 0.64188 0.15837 0.0
C1598 C 0.20008 0.58502 0.12172 0.0
O1599 O 0.19006 0.59501 0.11395 0.0
O1600 O 0.2155 0.61336 0.10018 0.0
O1601 O 0.19632 0.6326 0.09922 0.0
H1602 H 0.2718 0.60965 0.08607 0.0
H1603 H 0.17472 0.61965 0.14968 0.0
O1604 O 0.18724 0.64784 0.14803 0.0
H1605 H 0.14078 0.61832 0.09653 0.0
H1606 H 0.14808 0.68227 0.12136 0.0
H1607 H 0.19867 0.66282 0.09452 0.0
H1608 H 0.16591 0.6343 0.09713 0.0
H1609 H 0.16183 0.65806 0.13294 0.0
O1610 O 0.21383 0.58995 0.12697 0.0
H1611 H 0.2461 0.62096 0.09691 0.0
H1612 H 0.24293 0.58388 0.13527 0.0
H1613 H 0.18526 0.687 0.08242 0.0
H1614 H 0.14961 0.60361 0.1497 0.0
H1615 H 0.15978 0.69686 0.09587 0.0
H1616 H 0.13248 0.60285 0.12296 0.0
O1617 O 0.21228 0.65262 0.12365 0.0
H1618 H 0.2172 0.5991 0.18906 0.0
H1619 H 0.25274 0.62259 0.14384 0.0
H1620 H 0.26173 0.62213 0.17469 0.0
H1621 H 0.2439 0.61032 0.19754 0.0
H1622 H 0.20863 0.59993 0.15807 0.0
H1623 H 0.26853 0.57209 0.12477 0.0
H1624 H 0.28317 0.58504 0.10004 0.0
O1625 O 0.23232 0.63434 0.12285 0.0
C1626 C 0.20543 0.62216 0.09186 0.0
C1627 C 0.26556 0.60394 0.0969 0.0
C1628 C 0.26372 0.58284 0.1186 0.0
N1629 N 0.24311 0.60317 0.1168 0.0
C1630 C 0.25104 0.61031 0.10312 0.0
C1631 C 0.24921 0.58955 0.12447 0.0
C1632 C 0.27193 0.59012 0.10473 0.0
C1633 C 0.16725 0.61949 0.13806 0.0
N1634 N 0.17173 0.62797 0.12346 0.0
C1635 C 0.15308 0.61034 0.13812 0.0
C1636 C 0.14348 0.6099 0.1231 0.0
C1637 C 0.14814 0.61857 0.10826 0.0
C1638 C 0.1624 0.62757 0.10867 0.0
C1639 C 0.15916 0.67807 0.11536 0.0
C1640 C 0.18753 0.66699 0.10037 0.0
C1641 C 0.16702 0.66439 0.12189 0.0
N1642 N 0.18096 0.65898 0.11432 0.0
C1643 C 0.18002 0.68071 0.09349 0.0
C1644 C 0.16573 0.68625 0.10106 0.0
C1645 C 0.2272 0.64887 0.12279 0.0
C1646 C 0.2251 0.60423 0.17921 0.0
C1647 C 0.24491 0.61745 0.15371 0.0
C1648 C 0.25008 0.61719 0.17115 0.0
C1649 C 0.24007 0.61055 0.18396 0.0
N1650 N 0.2302 0.61123 0.14915 0.0
C1651 C 0.22034 0.60467 0.16163 0.0
Co1652 Co 0.35824 0.80834 0.872 0.0
Co1653 Co 0.38455 0.77595 0.8706 0.0
O1654 O 0.37677 0.7968 0.86227 0.0
C1655 C 0.35054 0.80302 0.83496 0.0
O1656 O 0.35545 0.78814 0.8375 0.0
C1657 C 0.41308 0.7972 0.87386 0.0
O1658 O 0.40373 0.80793 0.88147 0.0
O1659 O 0.38389 0.78345 0.89535 0.0
O1660 O 0.36561 0.80355 0.89641 0.0
H1661 H 0.38486 0.72708 0.9097 0.0
H1662 H 0.37928 0.82438 0.84575 0.0
O1663 O 0.35059 0.81311 0.84759 0.0
H1664 H 0.3824 0.85841 0.89875 0.0
H1665 H 0.3181 0.85394 0.87418 0.0
H1666 H 0.33533 0.80265 0.90126 0.0
H1667 H 0.36532 0.834 0.89835 0.0
H1668 H 0.3416 0.83904 0.86257 0.0
O1669 O 0.40726 0.78382 0.86857 0.0
H1670 H 0.37482 0.75328 0.89881 0.0
H1671 H 0.41181 0.75444 0.86023 0.0
H1672 H 0.31186 0.81722 0.91339 0.0
H1673 H 0.3964 0.84876 0.84553 0.0
H1674 H 0.30311 0.84306 0.89981 0.0
H1675 H 0.39807 0.86594 0.87219 0.0
O1676 O 0.34472 0.78844 0.87215 0.0
H1677 H 0.39788 0.78086 0.8065 0.0
H1678 H 0.37268 0.74661 0.85182 0.0
H1679 H 0.37266 0.73755 0.82099 0.0
H1680 H 0.38533 0.75473 0.79809 0.0
H1681 H 0.39751 0.78952 0.83747 0.0
H1682 H 0.42233 0.72831 0.87078 0.0
H1683 H 0.40879 0.71442 0.89565 0.0
O1684 O 0.36208 0.76762 0.87283 0.0
C1685 C 0.37565 0.79396 0.90371 0.0
C1686 C 0.39083 0.73298 0.89882 0.0
C1687 C 0.41188 0.73368 0.87699 0.0
N1688 N 0.39263 0.7553 0.87881 0.0
C1689 C 0.38517 0.74779 0.89256 0.0
C1690 C 0.40588 0.74849 0.87109 0.0
C1691 C 0.40427 0.7259 0.89094 0.0
C1692 C 0.37983 0.83187 0.85735 0.0
N1693 N 0.37125 0.82782 0.87201 0.0
C1694 C 0.3896 0.84563 0.85717 0.0
C1695 C 0.39054 0.85525 0.87214 0.0
C1696 C 0.38176 0.85103 0.88705 0.0
C1697 C 0.37214 0.83718 0.88676 0.0
C1698 C 0.32182 0.84271 0.88023 0.0
C1699 C 0.33165 0.81394 0.89536 0.0
C1700 C 0.33509 0.83421 0.87369 0.0
N1701 N 0.33989 0.82006 0.88133 0.0
C1702 C 0.31833 0.82211 0.90225 0.0
C1703 C 0.31341 0.8366 0.89462 0.0
C1704 C 0.3478 0.77337 0.87301 0.0
C1705 C 0.39237 0.77324 0.81637 0.0
C1706 C 0.3782 0.75416 0.84193 0.0
C1707 C 0.37818 0.74896 0.8245 0.0
C1708 C 0.3853 0.75859 0.81166 0.0
N1709 N 0.38515 0.76855 0.84645 0.0
C1710 C 0.39219 0.77805 0.83394 0.0
Co1711 Co 0.19172 0.35778 0.87145 0.0
Co1712 Co 0.22369 0.38461 0.87059 0.0
O1713 O 0.20298 0.37662 0.86206 0.0
C1714 C 0.19691 0.35071 0.83422 0.0
O1715 O 0.21174 0.35578 0.83667 0.0
C1716 C 0.20206 0.41285 0.87411 0.0
O1717 O 0.19147 0.40336 0.88172 0.0
O1718 O 0.21612 0.38358 0.89533 0.0
O1719 O 0.19648 0.3648 0.89596 0.0
H1720 H 0.27243 0.38518 0.90985 0.0
H1721 H 0.17534 0.37907 0.8457 0.0
O1722 O 0.18694 0.35046 0.84695 0.0
H1723 H 0.14139 0.38075 0.89884 0.0
H1724 H 0.1467 0.31697 0.87308 0.0
H1725 H 0.19785 0.33446 0.90023 0.0
H1726 H 0.16602 0.36402 0.89801 0.0
H1727 H 0.16122 0.34086 0.86185 0.0
O1728 O 0.21551 0.40722 0.86878 0.0
H1729 H 0.2464 0.37489 0.89876 0.0
H1730 H 0.24483 0.41229 0.86064 0.0
H1731 H 0.18367 0.31058 0.91198 0.0
H1732 H 0.15073 0.39586 0.84591 0.0
H1733 H 0.1579 0.3017 0.89837 0.0
H1734 H 0.13359 0.39681 0.87264 0.0
O1735 O 0.21181 0.34454 0.87126 0.0
H1736 H 0.21877 0.39851 0.80663 0.0
H1737 H 0.25324 0.37336 0.85178 0.0
H1738 H 0.26238 0.37377 0.82099 0.0
H1739 H 0.24509 0.38641 0.79816 0.0
H1740 H 0.21004 0.39772 0.83756 0.0
H1741 H 0.27078 0.42306 0.8714 0.0
H1742 H 0.28479 0.40944 0.89614 0.0
O1743 O 0.23232 0.36224 0.87257 0.0
C1744 C 0.2058 0.37494 0.90349 0.0
C1745 C 0.26647 0.39119 0.89902 0.0
C1746 C 0.26553 0.41246 0.87746 0.0
N1747 N 0.24418 0.3929 0.87897 0.0
C1748 C 0.25176 0.38539 0.89266 0.0
C1749 C 0.25083 0.40633 0.87144 0.0
C1750 C 0.27339 0.40481 0.89134 0.0
C1751 C 0.16786 0.37931 0.85732 0.0
N1752 N 0.17207 0.37051 0.87179 0.0
C1753 C 0.15398 0.38889 0.85739 0.0
C1754 C 0.14438 0.38943 0.8724 0.0
C1755 C 0.14875 0.38043 0.88711 0.0
C1756 C 0.16273 0.371 0.88657 0.0
C1757 C 0.1579 0.32074 0.87914 0.0
C1758 C 0.18659 0.33072 0.89432 0.0
C1759 C 0.16619 0.33423 0.87282 0.0
N1760 N 0.18029 0.3391 0.88048 0.0
C1761 C 0.17864 0.31717 0.90099 0.0
C1762 C 0.16419 0.31218 0.89334 0.0
C1763 C 0.22681 0.34786 0.87235 0.0
C1764 C 0.22644 0.39301 0.81646 0.0
C1765 C 0.24564 0.37886 0.84193 0.0
C1766 C 0.25089 0.37909 0.82451 0.0
C1767 C 0.24119 0.3862 0.81172 0.0
N1768 N 0.23115 0.38557 0.84648 0.0
C1769 C 0.22159 0.39259 0.83401 0.0
Co1770 Co 0.63923 0.19242 0.87116 0.0
Co1771 Co 0.61157 0.22367 0.87082 0.0
O1772 O 0.61999 0.20319 0.86213 0.0
C1773 C 0.64552 0.19768 0.83375 0.0
O1774 O 0.64011 0.2124 0.83624 0.0
C1775 C 0.58434 0.20096 0.87478 0.0
O1776 O 0.59445 0.19093 0.88233 0.0
O1777 O 0.61327 0.2162 0.89555 0.0
O1778 O 0.63255 0.19705 0.89582 0.0
H1779 H 0.61025 0.27249 0.90995 0.0
H1780 H 0.61792 0.17545 0.8459 0.0
O1781 O 0.64623 0.18777 0.84652 0.0
H1782 H 0.61798 0.14159 0.89914 0.0
H1783 H 0.68118 0.14843 0.87202 0.0
H1784 H 0.66291 0.19922 0.89941 0.0
H1785 H 0.63411 0.16661 0.8979 0.0
H1786 H 0.65673 0.16232 0.86129 0.0
O1787 O 0.58919 0.21472 0.86944 0.0
H1788 H 0.62113 0.24676 0.89869 0.0
H1789 H 0.58305 0.24389 0.86148 0.0
H1790 H 0.68735 0.18568 0.91065 0.0
H1791 H 0.60171 0.15046 0.84652 0.0
H1792 H 0.69663 0.16009 0.89693 0.0
H1793 H 0.60164 0.13336 0.8733 0.0
O1794 O 0.65189 0.21285 0.87064 0.0
H1795 H 0.5967 0.21831 0.80715 0.0
H1796 H 0.62159 0.25353 0.85178 0.0
H1797 H 0.62036 0.26266 0.821 0.0
H1798 H 0.60784 0.24498 0.79844 0.0
H1799 H 0.5983 0.2096 0.83805 0.0
H1800 H 0.57168 0.26953 0.87243 0.0
H1801 H 0.58535 0.28404 0.8968 0.0
O1802 O 0.63374 0.23296 0.87231 0.0
C1803 C 0.62233 0.20614 0.90355 0.0
C1804 C 0.60422 0.26631 0.89929 0.0
C1805 C 0.58256 0.26464 0.87825 0.0
N1806 N 0.60281 0.24392 0.87935 0.0
C1807 C 0.61035 0.25177 0.89282 0.0
C1808 C 0.58903 0.25011 0.87213 0.0
C1809 C 0.59024 0.27277 0.89192 0.0
C1810 C 0.61806 0.168 0.85754 0.0
N1811 N 0.62701 0.17244 0.8718 0.0
C1812 C 0.60881 0.15389 0.85784 0.0
C1813 C 0.60877 0.14432 0.87288 0.0
C1814 C 0.61792 0.14893 0.88738 0.0
C1815 C 0.62701 0.16313 0.88662 0.0
C1816 C 0.67724 0.15956 0.87813 0.0
C1817 C 0.66682 0.18804 0.89345 0.0
C1818 C 0.66343 0.16748 0.87209 0.0
N1819 N 0.65834 0.18149 0.87981 0.0
C1820 C 0.68069 0.18045 0.89983 0.0
C1821 C 0.6859 0.1661 0.89211 0.0
C1822 C 0.64824 0.22778 0.87177 0.0
C1823 C 0.60214 0.22614 0.81687 0.0
C1824 C 0.61614 0.24576 0.84204 0.0
C1825 C 0.61546 0.25101 0.82463 0.0
C1826 C 0.60842 0.24109 0.81199 0.0
N1827 N 0.60996 0.23107 0.84672 0.0
C1828 C 0.60301 0.2213 0.8344 0.0
Co1829 Co 0.80908 0.63964 0.87242 0.0
Co1830 Co 0.77757 0.61232 0.87054 0.0
O1831 O 0.79821 0.62083 0.86248 0.0
C1832 C 0.80385 0.64733 0.83536 0.0
O1833 O 0.78909 0.64199 0.83775 0.0
C1834 C 0.80002 0.58482 0.87391 0.0
O1835 O 0.81008 0.59471 0.88176 0.0
O1836 O 0.78475 0.6132 0.89541 0.0
O1837 O 0.80431 0.63203 0.89674 0.0
H1838 H 0.72827 0.61021 0.9089 0.0
H1839 H 0.82599 0.61921 0.84625 0.0
O1840 O 0.81382 0.64753 0.8481 0.0
H1841 H 0.85962 0.61692 0.89959 0.0
H1842 H 0.85337 0.6812 0.87528 0.0
H1843 H 0.80241 0.66225 0.90172 0.0
H1844 H 0.83473 0.63327 0.899 0.0
H1845 H 0.83932 0.65729 0.8634 0.0
O1846 O 0.78636 0.5899 0.86855 0.0
H1847 H 0.75422 0.62122 0.89841 0.0
H1848 H 0.75724 0.58427 0.85989 0.0
H1849 H 0.81612 0.68613 0.91411 0.0
H1850 H 0.85086 0.60282 0.84622 0.0
H1851 H 0.84179 0.69574 0.90087 0.0
H1852 H 0.86784 0.60156 0.87305 0.0
O1853 O 0.78877 0.65249 0.87243 0.0
H1854 H 0.78364 0.59935 0.80647 0.0
H1855 H 0.74805 0.62318 0.85143 0.0
H1856 H 0.73932 0.62297 0.82049 0.0
H1857 H 0.75718 0.61099 0.79776 0.0
H1858 H 0.79195 0.59993 0.83754 0.0
H1859 H 0.73138 0.57279 0.87004 0.0
H1860 H 0.71669 0.58583 0.89468 0.0
O1861 O 0.76844 0.63452 0.87271 0.0
C1862 C 0.79493 0.62173 0.90391 0.0
C1863 C 0.73453 0.60446 0.89812 0.0
C1864 C 0.73629 0.58344 0.87632 0.0
N1865 N 0.75715 0.60348 0.87846 0.0
C1866 C 0.7492 0.61066 0.89209 0.0
C1867 C 0.75094 0.58998 0.87065 0.0
C1868 C 0.72805 0.59076 0.89014 0.0
C1869 C 0.8334 0.61885 0.85792 0.0
N1870 N 0.82896 0.62726 0.87257 0.0
C1871 C 0.84743 0.60949 0.85785 0.0
C1872 C 0.85694 0.60878 0.87292 0.0
C1873 C 0.85233 0.61738 0.88781 0.0
C1874 C 0.83821 0.62659 0.88741 0.0
C1875 C 0.84221 0.6771 0.88119 0.0
C1876 C 0.81363 0.66631 0.89596 0.0
C1877 C 0.83418 0.6636 0.8745 0.0
N1878 N 0.82014 0.65832 0.88196 0.0
C1879 C 0.82131 0.67986 0.903 0.0
C1880 C 0.8357 0.68526 0.89555 0.0
C1881 C 0.77379 0.64897 0.87305 0.0
C1882 C 0.77573 0.60455 0.81626 0.0
C1883 C 0.75589 0.61796 0.84162 0.0
C1884 C 0.75088 0.61785 0.82412 0.0
C1885 C 0.76089 0.61111 0.81138 0.0
N1886 N 0.77046 0.6115 0.8463 0.0
C1887 C 0.78034 0.60485 0.83389 0.0
C1888 C 0.26497 0.17826 0.37207 0.0
C1889 C 0.26011 0.16199 0.37297 0.0
C1890 C 0.25353 0.19068 0.37268 0.0
C1891 C 0.21159 0.19925 0.38637 0.0
H1892 H 0.21488 0.2353 0.35407 0.0
C1893 C 0.15872 0.2428 0.37413 0.0
C1894 C 0.16215 0.25937 0.37252 0.0
C1895 C 0.17118 0.23148 0.37486 0.0
C1896 C 0.21391 0.22542 0.36333 0.0
H1897 H 0.23933 0.1461 0.37526 0.0
H1898 H 0.2195 0.1677 0.37615 0.0
H1899 H 0.23579 0.21451 0.35417 0.0
H1900 H 0.18149 0.277 0.3705 0.0
H1901 H 0.20325 0.25717 0.37188 0.0
H1902 H 0.18966 0.21005 0.39543 0.0
C1903 C 0.23216 0.17086 0.37519 0.0
C1904 C 0.22589 0.21352 0.3634 0.0
C1905 C 0.24355 0.15846 0.37455 0.0
C1906 C 0.17839 0.26433 0.37168 0.0
C1907 C 0.19087 0.25297 0.3724 0.0
C1908 C 0.19964 0.21113 0.38631 0.0
C1909 C 0.237 0.18711 0.37426 0.0
C1910 C 0.22476 0.20021 0.37478 0.0
C1911 C 0.18739 0.23642 0.37401 0.0
C1912 C 0.20056 0.22426 0.37466 0.0
H1913 H 0.27761 0.18144 0.37091 0.0
H1914 H 0.25765 0.20308 0.37212 0.0
H1915 H 0.21054 0.1893 0.39554 0.0
H1916 H 0.14638 0.2385 0.37478 0.0
H1917 H 0.16809 0.21879 0.37585 0.0
C1918 C 0.75561 0.15815 0.37299 0.0
C1919 C 0.73902 0.16164 0.37192 0.0
C1920 C 0.76697 0.17058 0.3736 0.0
C1921 C 0.77289 0.21353 0.36282 0.0
H1922 H 0.8096 0.20947 0.39412 0.0
C1923 C 0.82033 0.26434 0.37183 0.0
C1924 C 0.83659 0.25942 0.37227 0.0
C1925 C 0.8079 0.25292 0.37236 0.0
C1926 C 0.79949 0.21072 0.38521 0.0
H1927 H 0.7214 0.18104 0.37069 0.0
H1928 H 0.7413 0.20275 0.37186 0.0
H1929 H 0.78883 0.18864 0.39401 0.0
H1930 H 0.85246 0.23855 0.37364 0.0
H1931 H 0.83084 0.21875 0.3744 0.0
H1932 H 0.78367 0.23558 0.35392 0.0
C1933 C 0.74548 0.19035 0.37205 0.0
C1934 C 0.78759 0.19879 0.38514 0.0
C1935 C 0.73408 0.1779 0.37146 0.0
C1936 C 0.8401 0.24282 0.3733 0.0
C1937 C 0.82769 0.23144 0.37386 0.0
C1938 C 0.78482 0.22549 0.36289 0.0
C1939 C 0.76205 0.18682 0.37317 0.0
C1940 C 0.77425 0.19995 0.37381 0.0
C1941 C 0.81145 0.23634 0.37342 0.0
C1942 C 0.79834 0.22412 0.37394 0.0
H1943 H 0.7599 0.14579 0.37334 0.0
H1944 H 0.77966 0.16745 0.37419 0.0
H1945 H 0.76284 0.21469 0.35381 0.0
H1946 H 0.81717 0.27702 0.37109 0.0
H1947 H 0.7955 0.25707 0.37217 0.0
C1948 C 0.81863 0.73317 0.37158 0.0
C1949 C 0.83479 0.73836 0.37249 0.0
C1950 C 0.80598 0.74437 0.37233 0.0
C1951 C 0.79683 0.78606 0.38657 0.0
H1952 H 0.76083 0.78285 0.35421 0.0
C1953 C 0.75362 0.83908 0.37417 0.0
C1954 C 0.73702 0.83576 0.37266 0.0
C1955 C 0.76484 0.82653 0.37492 0.0
C1956 C 0.77069 0.78379 0.36349 0.0
H1957 H 0.85025 0.75946 0.37488 0.0
H1958 H 0.82831 0.77883 0.37599 0.0
H1959 H 0.78169 0.76199 0.35418 0.0
H1960 H 0.71924 0.81654 0.37079 0.0
H1961 H 0.73892 0.79463 0.37216 0.0
H1962 H 0.78598 0.80793 0.39574 0.0
C1963 C 0.82538 0.76612 0.37495 0.0
C1964 C 0.78263 0.77184 0.36348 0.0
C1965 C 0.83798 0.75498 0.37417 0.0
C1966 C 0.73193 0.81955 0.37191 0.0
C1967 C 0.7432 0.80699 0.37262 0.0
C1968 C 0.78492 0.79798 0.38657 0.0
C1969 C 0.80924 0.76096 0.37408 0.0
C1970 C 0.79595 0.77298 0.37485 0.0
C1971 C 0.75977 0.81035 0.37417 0.0
C1972 C 0.77184 0.79711 0.37487 0.0
H1973 H 0.81571 0.72047 0.37033 0.0
H1974 H 0.79366 0.74002 0.37177 0.0
H1975 H 0.80677 0.78711 0.39574 0.0
H1976 H 0.75801 0.85139 0.37475 0.0
H1977 H 0.77754 0.82953 0.37585 0.0
C1978 C 0.18057 0.73348 0.37127 0.0
C1979 C 0.16439 0.73862 0.37194 0.0
C1980 C 0.19317 0.74474 0.37199 0.0
C1981 C 0.20207 0.78655 0.38587 0.0
H1982 H 0.2383 0.78326 0.35383 0.0
C1983 C 0.2453 0.83959 0.37374 0.0
C1984 C 0.26191 0.83629 0.37231 0.0
C1985 C 0.23409 0.82703 0.3744 0.0
C1986 C 0.22837 0.78422 0.36302 0.0
H1987 H 0.14882 0.75969 0.37386 0.0
H1988 H 0.17068 0.77915 0.37495 0.0
H1989 H 0.21749 0.76234 0.35377 0.0
H1990 H 0.27971 0.81709 0.37049 0.0
H1991 H 0.26006 0.79516 0.37174 0.0
H1992 H 0.21281 0.80848 0.39501 0.0
C1993 C 0.17367 0.76644 0.3741 0.0
C1994 C 0.21646 0.77224 0.36299 0.0
C1995 C 0.16111 0.75524 0.37334 0.0
C1996 C 0.26702 0.82009 0.37155 0.0
C1997 C 0.25576 0.80751 0.37218 0.0
C1998 C 0.21396 0.7985 0.3859 0.0
C1999 C 0.18983 0.76133 0.37347 0.0
C2000 C 0.20306 0.77341 0.37425 0.0
C2001 C 0.23918 0.81085 0.37366 0.0
C2002 C 0.22712 0.79759 0.37431 0.0
H2003 H 0.18355 0.72078 0.37023 0.0
H2004 H 0.20551 0.74043 0.37161 0.0
H2005 H 0.19207 0.78762 0.39495 0.0
H2006 H 0.24089 0.8519 0.37432 0.0
H2007 H 0.22138 0.83002 0.37527 0.0
C2008 C 0.1803 0.73129 0.62337 0.0
C2009 C 0.1642 0.73669 0.62249 0.0
C2010 C 0.19309 0.74231 0.62256 0.0
C2011 C 0.20276 0.78367 0.6079 0.0
H2012 H 0.23838 0.78084 0.6408 0.0
C2013 C 0.24501 0.83713 0.62071 0.0
C2014 C 0.26165 0.83415 0.62251 0.0
C2015 C 0.23405 0.82437 0.61984 0.0
C2016 C 0.22864 0.78165 0.63135 0.0
H2017 H 0.14902 0.758 0.62013 0.0
H2018 H 0.17123 0.77706 0.61886 0.0
H2019 H 0.2175 0.75996 0.6408 0.0
H2020 H 0.27978 0.81532 0.62482 0.0
H2021 H 0.26053 0.79299 0.62324 0.0
H2022 H 0.2137 0.80543 0.5986 0.0
C2023 C 0.17398 0.76431 0.61995 0.0
C2024 C 0.21669 0.7697 0.63136 0.0
C2025 C 0.16123 0.75335 0.62081 0.0
C2026 C 0.26705 0.81806 0.62346 0.0
C2027 C 0.25603 0.80526 0.62263 0.0
C2028 C 0.21467 0.79558 0.60789 0.0
C2029 C 0.19005 0.75893 0.62076 0.0
C2030 C 0.20347 0.77077 0.61985 0.0
C2031 C 0.23942 0.8083 0.62073 0.0
C2032 C 0.22758 0.79487 0.61983 0.0
H2033 H 0.18304 0.71854 0.62464 0.0
H2034 H 0.20536 0.7378 0.62311 0.0
H2035 H 0.1929 0.78464 0.59862 0.0
H2036 H 0.24036 0.84934 0.61997 0.0
H2037 H 0.22131 0.82713 0.61867 0.0
C2038 C 0.24515 0.16191 0.62088 0.0
C2039 C 0.26178 0.1649 0.62277 0.0
C2040 C 0.23418 0.17465 0.61996 0.0
C2041 C 0.22867 0.21734 0.63153 0.0
H2042 H 0.19309 0.21437 0.59858 0.0
C2043 C 0.18027 0.26764 0.62346 0.0
C2044 C 0.16419 0.2622 0.62247 0.0
C2045 C 0.19309 0.25664 0.62267 0.0
C2046 C 0.20291 0.21534 0.60792 0.0
H2047 H 0.27988 0.18374 0.62519 0.0
H2048 H 0.26062 0.20606 0.62355 0.0
H2049 H 0.21393 0.19361 0.59862 0.0
H2050 H 0.14906 0.24087 0.61993 0.0
H2051 H 0.17131 0.22186 0.61869 0.0
H2052 H 0.21745 0.23899 0.64097 0.0
C2053 C 0.25613 0.19378 0.62289 0.0
C2054 C 0.21484 0.20345 0.60795 0.0
C2055 C 0.26716 0.181 0.62377 0.0
C2056 C 0.16125 0.24555 0.62069 0.0
C2057 C 0.17403 0.23462 0.61985 0.0
C2058 C 0.2167 0.22927 0.6315 0.0
C2059 C 0.23954 0.19073 0.6209 0.0
C2060 C 0.22768 0.20414 0.61997 0.0
C2061 C 0.19009 0.24003 0.62078 0.0
C2062 C 0.20354 0.22821 0.61991 0.0
H2063 H 0.24051 0.14969 0.6201 0.0
H2064 H 0.22145 0.17189 0.61873 0.0
H2065 H 0.23836 0.21814 0.64103 0.0
H2066 H 0.18298 0.28038 0.62481 0.0
H2067 H 0.20535 0.26117 0.62331 0.0
C2068 C 0.7533 0.16146 0.62273 0.0
C2069 C 0.73661 0.16447 0.62371 0.0
C2070 C 0.76428 0.1742 0.62197 0.0
C2071 C 0.76933 0.21727 0.63219 0.0
H2072 H 0.80593 0.2134 0.60071 0.0
C2073 C 0.81761 0.26764 0.62356 0.0
C2074 C 0.83375 0.26231 0.62329 0.0
C2075 C 0.8049 0.25651 0.62291 0.0
C2076 C 0.79583 0.21462 0.60965 0.0
H2077 H 0.71842 0.18334 0.62474 0.0
H2078 H 0.73771 0.20564 0.62335 0.0
H2079 H 0.78522 0.19253 0.60083 0.0
H2080 H 0.8491 0.24103 0.62222 0.0
H2081 H 0.82704 0.22179 0.62123 0.0
H2082 H 0.78013 0.23931 0.64114 0.0
C2083 C 0.74222 0.19336 0.6233 0.0
C2084 C 0.78397 0.20267 0.60972 0.0
C2085 C 0.73118 0.18058 0.62402 0.0
C2086 C 0.83686 0.24562 0.6224 0.0
C2087 C 0.82419 0.23456 0.62171 0.0
C2088 C 0.78123 0.22927 0.63212 0.0
C2089 C 0.75888 0.19029 0.62216 0.0
C2090 C 0.77074 0.2037 0.6212 0.0
C2091 C 0.80808 0.23986 0.62188 0.0
C2092 C 0.79475 0.2279 0.62106 0.0
H2093 H 0.75797 0.14924 0.62252 0.0
H2094 H 0.77706 0.17144 0.62142 0.0
H2095 H 0.75932 0.21834 0.64127 0.0
H2096 H 0.81478 0.28039 0.62421 0.0
H2097 H 0.7926 0.26094 0.62296 0.0
C2098 C 0.81752 0.731 0.62357 0.0
C2099 C 0.8336 0.73644 0.62268 0.0
C2100 C 0.8047 0.742 0.62268 0.0
C2101 C 0.79502 0.78334 0.60785 0.0
H2102 H 0.75925 0.78046 0.64055 0.0
C2103 C 0.75266 0.83674 0.62058 0.0
C2104 C 0.73601 0.83374 0.62221 0.0
C2105 C 0.76364 0.824 0.61973 0.0
C2106 C 0.76904 0.78128 0.63116 0.0
H2107 H 0.84875 0.75776 0.62022 0.0
H2108 H 0.82652 0.77677 0.61883 0.0
H2109 H 0.78017 0.75961 0.64068 0.0
H2110 H 0.71789 0.81487 0.62425 0.0
H2111 H 0.73717 0.79257 0.62272 0.0
H2112 H 0.78409 0.8051 0.5985 0.0
C2113 C 0.82378 0.76402 0.61998 0.0
C2114 C 0.78101 0.76936 0.63124 0.0
C2115 C 0.83655 0.75309 0.62091 0.0
C2116 C 0.73062 0.81763 0.62302 0.0
C2117 C 0.74166 0.80485 0.62221 0.0
C2118 C 0.78309 0.79524 0.60778 0.0
C2119 C 0.80772 0.75862 0.62079 0.0
C2120 C 0.79428 0.77044 0.6198 0.0
C2121 C 0.75827 0.80792 0.62049 0.0
C2122 C 0.77013 0.79451 0.61965 0.0
H2123 H 0.8148 0.71827 0.62491 0.0
H2124 H 0.79244 0.73748 0.62323 0.0
H2125 H 0.80492 0.78433 0.59861 0.0
H2126 H 0.7573 0.84896 0.61996 0.0
H2127 H 0.77639 0.82677 0.61869 0.0
C2128 C 0.68042 0.76494 0.87335 0.0
C2129 C 0.66423 0.75978 0.87366 0.0
C2130 C 0.69301 0.7537 0.87426 0.0
C2131 C 0.70179 0.71171 0.88775 0.0
H2132 H 0.73845 0.71555 0.85637 0.0
C2133 C 0.74529 0.65895 0.87508 0.0
C2134 C 0.76191 0.66232 0.87399 0.0
C2135 C 0.73404 0.67147 0.87592 0.0
C2136 C 0.7284 0.71443 0.86538 0.0
H2137 H 0.64866 0.73869 0.87521 0.0
H2138 H 0.67053 0.71924 0.87659 0.0
H2139 H 0.71761 0.73642 0.85633 0.0
H2140 H 0.77969 0.6816 0.87301 0.0
H2141 H 0.75996 0.70345 0.87455 0.0
H2142 H 0.71243 0.68965 0.89665 0.0
C2143 C 0.67351 0.73197 0.87588 0.0
C2144 C 0.71647 0.72639 0.86536 0.0
C2145 C 0.66095 0.74315 0.87495 0.0
C2146 C 0.76699 0.67854 0.87379 0.0
C2147 C 0.75569 0.69108 0.87459 0.0
C2148 C 0.71369 0.69978 0.88775 0.0
C2149 C 0.68968 0.73709 0.87556 0.0
C2150 C 0.70292 0.72503 0.87637 0.0
C2151 C 0.7391 0.68767 0.87569 0.0
C2152 C 0.72701 0.70088 0.87641 0.0
H2153 H 0.6834 0.77765 0.87241 0.0
H2154 H 0.70535 0.75803 0.87413 0.0
H2155 H 0.69166 0.71048 0.89663 0.0
H2156 H 0.74091 0.64662 0.87524 0.0
H2157 H 0.72133 0.66844 0.8765 0.0
C2158 C 0.23125 0.68061 0.87335 0.0
C2159 C 0.2366 0.66448 0.87373 0.0
C2160 C 0.24232 0.69334 0.87437 0.0
C2161 C 0.28395 0.70261 0.88854 0.0
H2162 H 0.28061 0.73891 0.85658 0.0
C2163 C 0.3372 0.74516 0.87554 0.0
C2164 C 0.33417 0.76182 0.87409 0.0
C2165 C 0.32447 0.73417 0.87654 0.0
C2166 C 0.28157 0.72897 0.86577 0.0
H2167 H 0.25786 0.64916 0.87548 0.0
H2168 H 0.27702 0.67128 0.87712 0.0
H2169 H 0.25972 0.71806 0.85649 0.0
H2170 H 0.31528 0.77997 0.87259 0.0
H2171 H 0.29301 0.76067 0.87439 0.0
H2172 H 0.30589 0.71333 0.89766 0.0
C2173 C 0.26427 0.6741 0.87625 0.0
C2174 C 0.26961 0.71704 0.86572 0.0
C2175 C 0.25326 0.6614 0.87518 0.0
C2176 C 0.31806 0.76722 0.87367 0.0
C2177 C 0.3053 0.75618 0.87463 0.0
C2178 C 0.29588 0.71451 0.8886 0.0
C2179 C 0.25895 0.69021 0.87589 0.0
C2180 C 0.27084 0.70358 0.87689 0.0
C2181 C 0.30838 0.73954 0.87612 0.0
C2182 C 0.29498 0.72767 0.877 0.0
H2183 H 0.21852 0.68342 0.87228 0.0
H2184 H 0.23786 0.70564 0.87418 0.0
H2185 H 0.28506 0.69255 0.89756 0.0
H2186 H 0.34942 0.74052 0.87587 0.0
H2187 H 0.32726 0.72141 0.87739 0.0
C2188 C 0.32005 0.23181 0.87364 0.0
C2189 C 0.33625 0.23693 0.87398 0.0
C2190 C 0.30748 0.24306 0.87437 0.0
C2191 C 0.29859 0.28504 0.88756 0.0
H2192 H 0.26215 0.28107 0.85587 0.0
C2193 C 0.25521 0.33771 0.8746 0.0
C2194 C 0.23859 0.33441 0.87327 0.0
C2195 C 0.26641 0.32517 0.87552 0.0
C2196 C 0.27213 0.28222 0.86498 0.0
H2197 H 0.35187 0.25799 0.8754 0.0
H2198 H 0.33 0.2775 0.87653 0.0
H2199 H 0.28306 0.26027 0.85602 0.0
H2200 H 0.22076 0.31522 0.87191 0.0
H2201 H 0.24041 0.29328 0.8736 0.0
H2202 H 0.28779 0.30704 0.8964 0.0
C2203 C 0.32701 0.26478 0.8759 0.0
C2204 C 0.2841 0.27031 0.86506 0.0
C2205 C 0.33956 0.25356 0.87513 0.0
C2206 C 0.23346 0.31821 0.87288 0.0
C2207 C 0.24472 0.30563 0.87377 0.0
C2208 C 0.28663 0.29691 0.88749 0.0
C2209 C 0.31083 0.25967 0.87553 0.0
C2210 C 0.29758 0.27172 0.87618 0.0
C2211 C 0.26131 0.30899 0.87515 0.0
C2212 C 0.27339 0.29577 0.87602 0.0
H2213 H 0.31704 0.21909 0.8728 0.0
H2214 H 0.29513 0.23875 0.87422 0.0
H2215 H 0.30866 0.2863 0.89652 0.0
H2216 H 0.25965 0.35002 0.87491 0.0
H2217 H 0.27912 0.32817 0.87627 0.0
C2218 C 0.67774 0.23493 0.8716 0.0
C2219 C 0.66147 0.23981 0.87235 0.0
C2220 C 0.69015 0.24636 0.87217 0.0
C2221 C 0.69869 0.28834 0.88566 0.0
H2222 H 0.73502 0.28479 0.85378 0.0
C2223 C 0.74273 0.34092 0.87398 0.0
C2224 C 0.75929 0.33735 0.87258 0.0
C2225 C 0.73131 0.32855 0.87454 0.0
C2226 C 0.72506 0.28584 0.86293 0.0
H2227 H 0.64559 0.26063 0.87429 0.0
H2228 H 0.6672 0.28046 0.87511 0.0
H2229 H 0.71414 0.26397 0.85372 0.0
H2230 H 0.77677 0.31787 0.87074 0.0
H2231 H 0.75676 0.29627 0.87183 0.0
H2232 H 0.70951 0.31024 0.89479 0.0
C2233 C 0.67035 0.26778 0.8743 0.0
C2234 C 0.7131 0.27391 0.86289 0.0
C2235 C 0.65795 0.25639 0.87371 0.0
C2236 C 0.76413 0.32107 0.87177 0.0
C2237 C 0.75266 0.30868 0.87231 0.0
C2238 C 0.71063 0.30024 0.8857 0.0
C2239 C 0.68659 0.26291 0.87356 0.0
C2240 C 0.6997 0.27513 0.87413 0.0
C2241 C 0.73612 0.31229 0.87372 0.0
C2242 C 0.72386 0.29922 0.87421 0.0
H2243 H 0.68091 0.22226 0.87061 0.0
H2244 H 0.70256 0.24222 0.87175 0.0
H2245 H 0.68867 0.28947 0.89471 0.0
H2246 H 0.73853 0.3533 0.87461 0.0
H2247 H 0.71864 0.33174 0.87537 0.0
C2248 C 0.6801 0.2343 0.12389 0.0
C2249 C 0.66392 0.23943 0.12302 0.0
C2250 C 0.69271 0.24554 0.12318 0.0
C2251 C 0.70175 0.28728 0.10908 0.0
H2252 H 0.73767 0.28416 0.14155 0.0
C2253 C 0.74481 0.3404 0.12148 0.0
C2254 C 0.76141 0.33713 0.12309 0.0
C2255 C 0.73362 0.32783 0.12075 0.0
C2256 C 0.72784 0.28507 0.13224 0.0
H2257 H 0.64838 0.26049 0.12073 0.0
H2258 H 0.67026 0.27994 0.11965 0.0
H2259 H 0.71687 0.26323 0.14149 0.0
H2260 H 0.77922 0.31795 0.12514 0.0
H2261 H 0.75959 0.29599 0.12377 0.0
H2262 H 0.71256 0.30917 0.09995 0.0
C2263 C 0.67323 0.26723 0.12066 0.0
C2264 C 0.71593 0.27308 0.1322 0.0
C2265 C 0.66067 0.25604 0.1214 0.0
C2266 C 0.76653 0.32093 0.12395 0.0
C2267 C 0.75529 0.30834 0.12324 0.0
C2268 C 0.71363 0.29923 0.10912 0.0
C2269 C 0.68939 0.26213 0.1215 0.0
C2270 C 0.70263 0.27419 0.12079 0.0
C2271 C 0.73871 0.31166 0.12159 0.0
C2272 C 0.72668 0.29839 0.12086 0.0
H2273 H 0.68306 0.2216 0.1251 0.0
H2274 H 0.70505 0.24124 0.12372 0.0
H2275 H 0.69183 0.2883 0.09988 0.0
H2276 H 0.74039 0.3527 0.12082 0.0
H2277 H 0.72091 0.3308 0.11974 0.0
C2278 C 0.74299 0.65894 0.12116 0.0
C2279 C 0.75956 0.66258 0.12206 0.0
C2280 C 0.73152 0.67128 0.12042 0.0
C2281 C 0.72545 0.71425 0.13087 0.0
H2282 H 0.68834 0.70979 0.1002 0.0
C2283 C 0.67787 0.76488 0.12231 0.0
C2284 C 0.6616 0.75997 0.12215 0.0
C2285 C 0.69028 0.75344 0.12159 0.0
C2286 C 0.69856 0.71115 0.10894 0.0
H2287 H 0.77703 0.68215 0.12276 0.0
H2288 H 0.75695 0.70366 0.12137 0.0
H2289 H 0.70921 0.68905 0.10016 0.0
H2290 H 0.64569 0.73912 0.12103 0.0
H2291 H 0.66729 0.71929 0.11997 0.0
H2292 H 0.7147 0.7363 0.13975 0.0
C2293 C 0.75287 0.69123 0.12143 0.0
C2294 C 0.71052 0.69927 0.10892 0.0
C2295 C 0.76437 0.67888 0.12214 0.0
C2296 C 0.65806 0.74338 0.12117 0.0
C2297 C 0.67045 0.73198 0.12044 0.0
C2298 C 0.71347 0.72615 0.13089 0.0
C2299 C 0.73632 0.68756 0.12056 0.0
C2300 C 0.72402 0.7006 0.12 0.0
C2301 C 0.6867 0.73687 0.12065 0.0
C2302 C 0.69981 0.72465 0.12005 0.0
H2303 H 0.7388 0.64655 0.12109 0.0
H2304 H 0.71885 0.66804 0.12002 0.0
H2305 H 0.73561 0.71553 0.13971 0.0
H2306 H 0.68106 0.77755 0.12299 0.0
H2307 H 0.70268 0.7576 0.12159 0.0
C2308 C 0.25587 0.65841 0.12096 0.0
C2309 C 0.2393 0.66204 0.12192 0.0
C2310 C 0.26733 0.67076 0.12026 0.0
C2311 C 0.27336 0.71372 0.13087 0.0
H2312 H 0.31046 0.70939 0.10017 0.0
C2313 C 0.32081 0.76447 0.12234 0.0
C2314 C 0.33709 0.75961 0.12218 0.0
C2315 C 0.30843 0.75301 0.12161 0.0
C2316 C 0.30024 0.71072 0.10892 0.0
H2317 H 0.22182 0.68158 0.12277 0.0
H2318 H 0.24187 0.70312 0.12144 0.0
H2319 H 0.28962 0.68861 0.1001 0.0
H2320 H 0.35305 0.7388 0.12108 0.0
H2321 H 0.3315 0.71891 0.12 0.0
H2322 H 0.28407 0.73578 0.1398 0.0
C2323 C 0.24597 0.69069 0.12142 0.0
C2324 C 0.2883 0.69881 0.10888 0.0
C2325 C 0.23447 0.67833 0.1221 0.0
C2326 C 0.34067 0.74302 0.12121 0.0
C2327 C 0.32831 0.73159 0.12047 0.0
C2328 C 0.28532 0.72564 0.13092 0.0
C2329 C 0.26252 0.68703 0.1205 0.0
C2330 C 0.2748 0.70009 0.11998 0.0
C2331 C 0.31205 0.73644 0.12067 0.0
C2332 C 0.29897 0.72419 0.12006 0.0
H2333 H 0.26007 0.64602 0.12081 0.0
H2334 H 0.28 0.66753 0.11981 0.0
H2335 H 0.26321 0.71496 0.13973 0.0
H2336 H 0.31759 0.77714 0.12301 0.0
H2337 H 0.29601 0.75713 0.1216 0.0
C2338 C 0.25376 0.34004 0.12105 0.0
C2339 C 0.23713 0.33675 0.12231 0.0
C2340 C 0.26495 0.32748 0.12019 0.0
C2341 C 0.27048 0.28449 0.13083 0.0
H2342 H 0.30704 0.28824 0.09929 0.0
C2343 C 0.31813 0.23372 0.12248 0.0
C2344 C 0.33435 0.23879 0.12211 0.0
C2345 C 0.3056 0.24503 0.12164 0.0
C2346 C 0.29695 0.28706 0.10825 0.0
H2347 H 0.21929 0.31755 0.12359 0.0
H2348 H 0.23891 0.29562 0.12201 0.0
H2349 H 0.28636 0.30917 0.09941 0.0
H2350 H 0.35002 0.25981 0.12051 0.0
H2351 H 0.32825 0.27937 0.11923 0.0
H2352 H 0.28122 0.26245 0.1398 0.0
C2353 C 0.24323 0.30796 0.12185 0.0
C2354 C 0.28511 0.29906 0.10833 0.0
C2355 C 0.232 0.32055 0.12268 0.0
C2356 C 0.33771 0.25541 0.12081 0.0
C2357 C 0.3252 0.26666 0.11995 0.0
C2358 C 0.28234 0.27247 0.13076 0.0
C2359 C 0.25983 0.3113 0.12057 0.0
C2360 C 0.27186 0.29803 0.11978 0.0
C2361 C 0.30901 0.26162 0.12035 0.0
C2362 C 0.29583 0.27375 0.11964 0.0
H2363 H 0.25819 0.35235 0.12076 0.0
H2364 H 0.27767 0.33045 0.11948 0.0
H2365 H 0.26048 0.28343 0.13993 0.0
H2366 H 0.31509 0.22102 0.12342 0.0
H2367 H 0.29323 0.24077 0.12183 0.0
C2368 C 0.94139 0.29186 0.36197 0.0
C2369 C 0.93126 0.30199 0.37187 0.0
C2370 C 0.95784 0.29515 0.36055 0.0
C2371 C 0.99093 0.31476 0.38389 0.0
H2372 H 0.0141 0.30601 0.34069 0.0
C2373 C 0.06085 0.31565 0.37991 0.0
C2374 C 0.06745 0.30185 0.3719 0.0
C2375 C 0.0443 0.31891 0.37857 0.0
C2376 C 0.0078 0.30852 0.35285 0.0
H2377 H 0.93041 0.32376 0.38768 0.0
H2378 H 0.95934 0.32947 0.38523 0.0
H2379 H 0.98465 0.30607 0.34068 0.0
H2380 H 0.06199 0.28094 0.35575 0.0
H2381 H 0.0333 0.28659 0.35348 0.0
H2382 H 0.01412 0.31667 0.39617 0.0
C2383 C 0.95446 0.31894 0.37866 0.0
C2384 C 0.99095 0.30855 0.35284 0.0
C2385 C 0.93791 0.3157 0.38001 0.0
C2386 C 0.0573 0.29165 0.36214 0.0
C2387 C 0.04085 0.29496 0.3607 0.0
C2388 C 0.00782 0.31474 0.3839 0.0
C2389 C 0.9646 0.30862 0.36901 0.0
C2390 C 0.98233 0.31117 0.36847 0.0
C2391 C 0.03413 0.30853 0.36903 0.0
C2392 C 0.01641 0.31112 0.36848 0.0
H2393 H 0.93666 0.28122 0.35549 0.0
H2394 H 0.96535 0.28681 0.35324 0.0
H2395 H 0.98464 0.3167 0.39617 0.0
H2396 H 0.06838 0.32377 0.38748 0.0
H2397 H 0.03945 0.3295 0.38504 0.0
C2398 C 0.68257 0.06046 0.38056 0.0
C2399 C 0.69632 0.06702 0.3724 0.0
C2400 C 0.6792 0.04393 0.37919 0.0
C2401 C 0.68915 0.00746 0.35317 0.0
H2402 H 0.68106 0.98415 0.39643 0.0
C2403 C 0.70543 0.94087 0.36195 0.0
C2404 C 0.69523 0.93078 0.37179 0.0
C2405 C 0.70226 0.95736 0.36061 0.0
C2406 C 0.68298 0.99049 0.38417 0.0
H2407 H 0.71702 0.06148 0.35597 0.0
H2408 H 0.71119 0.03283 0.35368 0.0
H2409 H 0.6813 0.01364 0.39659 0.0
H2410 H 0.67345 0.93001 0.3876 0.0
H2411 H 0.66797 0.959 0.38532 0.0
H2412 H 0.69139 0.98433 0.34087 0.0
C2413 C 0.70294 0.0404 0.36102 0.0
C2414 C 0.68312 0.00738 0.38426 0.0
C2415 C 0.70636 0.05683 0.36248 0.0
C2416 C 0.68157 0.93749 0.37996 0.0
C2417 C 0.67845 0.95407 0.37871 0.0
C2418 C 0.68901 0.9906 0.35308 0.0
C2419 C 0.68942 0.03372 0.36948 0.0
C2420 C 0.68671 0.01602 0.36887 0.0
C2421 C 0.68884 0.96419 0.36911 0.0
C2422 C 0.68642 0.98194 0.36868 0.0
H2423 H 0.67458 0.06801 0.38825 0.0
H2424 H 0.66865 0.03912 0.38577 0.0
H2425 H 0.69163 0.0138 0.34103 0.0
H2426 H 0.71603 0.9361 0.35544 0.0
H2427 H 0.71064 0.96486 0.35334 0.0
C2428 C 0.05829 0.71089 0.36603 0.0
C2429 C 0.06838 0.69922 0.37372 0.0
C2430 C 0.04158 0.70918 0.3666 0.0
C2431 C 0.00811 0.68081 0.37245 0.0
H2432 H 0.98509 0.71982 0.38546 0.0
C2433 C 0.93801 0.68547 0.38191 0.0
C2434 C 0.93095 0.69932 0.37445 0.0
C2435 C 0.95485 0.68374 0.38229 0.0
C2436 C 0.99133 0.70885 0.38172 0.0
H2437 H 0.06884 0.67621 0.38733 0.0
H2438 H 0.03937 0.67324 0.38831 0.0
H2439 H 0.01444 0.71979 0.38526 0.0
H2440 H 0.93598 0.72177 0.36074 0.0
H2441 H 0.96508 0.7187 0.36136 0.0
H2442 H 0.98477 0.66999 0.3687 0.0
C2443 C 0.04454 0.68371 0.38189 0.0
C2444 C 0.00813 0.70883 0.3816 0.0
C2445 C 0.06137 0.68544 0.38137 0.0
C2446 C 0.94099 0.71105 0.36681 0.0
C2447 C 0.9577 0.70934 0.36722 0.0
C2448 C 0.99118 0.68083 0.37255 0.0
C2449 C 0.03451 0.69577 0.37485 0.0
C2450 C 0.0167 0.69496 0.37655 0.0
C2451 C 0.96483 0.69586 0.37528 0.0
C2452 C 0.98266 0.695 0.37676 0.0
H2453 H 0.06326 0.72156 0.35983 0.0
H2454 H 0.03415 0.7185 0.36072 0.0
H2455 H 0.01444 0.66995 0.36852 0.0
H2456 H 0.93058 0.67619 0.38784 0.0
H2457 H 0.96005 0.67322 0.38857 0.0
C2458 C 0.29347 0.94146 0.36276 0.0
C2459 C 0.3037 0.93131 0.37249 0.0
C2460 C 0.29671 0.95793 0.3614 0.0
C2461 C 0.31637 0.991 0.38466 0.0
H2462 H 0.30749 0.01421 0.34151 0.0
C2463 C 0.31696 0.06097 0.38075 0.0
C2464 C 0.30313 0.06751 0.37275 0.0
C2465 C 0.32029 0.04443 0.37941 0.0
C2466 C 0.31004 0.0079 0.35365 0.0
H2467 H 0.3256 0.93043 0.38809 0.0
H2468 H 0.33121 0.9594 0.38577 0.0
H2469 H 0.30761 0.98475 0.34146 0.0
H2470 H 0.28224 0.06195 0.35662 0.0
H2471 H 0.28802 0.03328 0.35435 0.0
H2472 H 0.31824 0.01419 0.39698 0.0
C2473 C 0.32065 0.95452 0.37927 0.0
C2474 C 0.31011 0.99105 0.35362 0.0
C2475 C 0.31746 0.93796 0.38054 0.0
C2476 C 0.29297 0.0573 0.363 0.0
C2477 C 0.29636 0.04087 0.36156 0.0
C2478 C 0.31631 0.0079 0.38469 0.0
C2479 C 0.31023 0.96469 0.36976 0.0
C2480 C 0.31276 0.98242 0.36924 0.0
C2481 C 0.30996 0.03421 0.36988 0.0
C2482 C 0.31264 0.0165 0.3693 0.0
H2483 H 0.28279 0.93674 0.35635 0.0
H2484 H 0.28831 0.96547 0.3542 0.0
H2485 H 0.31835 0.98469 0.39693 0.0
H2486 H 0.32504 0.06855 0.38832 0.0
H2487 H 0.33091 0.03963 0.38588 0.0
C2488 C 0.06056 0.6849 0.61322 0.0
C2489 C 0.06767 0.69874 0.62064 0.0
C2490 C 0.04372 0.68323 0.61281 0.0
C2491 C 0.00732 0.70842 0.61315 0.0
H2492 H 0.98413 0.66961 0.6265 0.0
C2493 C 0.9402 0.71049 0.62823 0.0
C2494 C 0.9302 0.69864 0.62076 0.0
C2495 C 0.95692 0.70887 0.62776 0.0
C2496 C 0.99048 0.68044 0.62252 0.0
H2497 H 0.0627 0.72128 0.63421 0.0
H2498 H 0.03358 0.71832 0.63354 0.0
H2499 H 0.01379 0.66963 0.62647 0.0
H2500 H 0.92992 0.67541 0.60757 0.0
H2501 H 0.95939 0.6726 0.60673 0.0
H2502 H 0.98424 0.71935 0.60938 0.0
C2503 C 0.04094 0.7089 0.62774 0.0
C2504 C 0.00741 0.68045 0.62251 0.0
C2505 C 0.05766 0.71055 0.62819 0.0
C2506 C 0.93731 0.68478 0.61337 0.0
C2507 C 0.95415 0.68314 0.61293 0.0
C2508 C 0.99052 0.70841 0.61317 0.0
C2509 C 0.03377 0.69541 0.61974 0.0
C2510 C 0.01596 0.69459 0.61823 0.0
C2511 C 0.9641 0.69537 0.6198 0.0
C2512 C 0.98191 0.69457 0.61826 0.0
H2513 H 0.06796 0.67556 0.60736 0.0
H2514 H 0.03849 0.6727 0.60657 0.0
H2515 H 0.01359 0.71937 0.60936 0.0
H2516 H 0.93515 0.72123 0.63422 0.0
H2517 H 0.96427 0.71832 0.6335 0.0
C2518 C 0.31332 0.93794 0.61366 0.0
C2519 C 0.29956 0.93075 0.62115 0.0
C2520 C 0.31497 0.95478 0.6134 0.0
C2521 C 0.28972 0.99116 0.61444 0.0
H2522 H 0.32875 0.01431 0.62706 0.0
C2523 C 0.28796 0.05837 0.62928 0.0
C2524 C 0.29971 0.06831 0.62151 0.0
C2525 C 0.28956 0.04164 0.62892 0.0
C2526 C 0.31785 0.00797 0.6233 0.0
H2527 H 0.27716 0.93557 0.63504 0.0
H2528 H 0.2801 0.96471 0.63465 0.0
H2529 H 0.32872 0.98465 0.62697 0.0
H2530 H 0.32274 0.06848 0.60794 0.0
H2531 H 0.32551 0.03899 0.6073 0.0
H2532 H 0.27875 0.01426 0.61092 0.0
C2533 C 0.28945 0.95741 0.62867 0.0
C2534 C 0.31783 0.99104 0.62325 0.0
C2535 C 0.28782 0.94068 0.62895 0.0
C2536 C 0.31345 0.06113 0.61397 0.0
C2537 C 0.31507 0.04428 0.61364 0.0
C2538 C 0.28974 0.00796 0.61449 0.0
C2539 C 0.30285 0.96467 0.62058 0.0
C2540 C 0.30363 0.9825 0.61921 0.0
C2541 C 0.30294 0.03439 0.62079 0.0
C2542 C 0.30367 0.01656 0.61931 0.0
H2543 H 0.32261 0.93059 0.60761 0.0
H2544 H 0.32543 0.96008 0.60709 0.0
H2545 H 0.27872 0.98491 0.61083 0.0
H2546 H 0.27731 0.06347 0.6354 0.0
H2547 H 0.2802 0.03433 0.63489 0.0
C2548 C 0.06049 0.31378 0.61302 0.0
C2549 C 0.06762 0.30006 0.62068 0.0
C2550 C 0.04366 0.31547 0.61269 0.0
C2551 C 0.00718 0.29033 0.61403 0.0
H2552 H 0.98421 0.32963 0.62612 0.0
C2553 C 0.9401 0.28904 0.62945 0.0
C2554 C 0.93014 0.3006 0.62139 0.0
C2555 C 0.95683 0.29061 0.62894 0.0
C2556 C 0.9905 0.31865 0.62251 0.0
H2557 H 0.06271 0.27778 0.63475 0.0
H2558 H 0.0336 0.28078 0.63425 0.0
H2559 H 0.01386 0.32947 0.62595 0.0
H2560 H 0.92993 0.32331 0.60717 0.0
H2561 H 0.95941 0.32604 0.6063 0.0
H2562 H 0.98402 0.2794 0.61078 0.0
C2563 C 0.04093 0.29007 0.62819 0.0
C2564 C 0.00743 0.31856 0.62241 0.0
C2565 C 0.05765 0.2884 0.62854 0.0
C2566 C 0.93729 0.31416 0.61342 0.0
C2567 C 0.95414 0.31575 0.61296 0.0
C2568 C 0.99038 0.29042 0.61414 0.0
C2569 C 0.03373 0.30343 0.61996 0.0
C2570 C 0.0159 0.30427 0.61857 0.0
C2571 C 0.96404 0.30378 0.62039 0.0
C2572 C 0.98185 0.30444 0.61878 0.0
H2573 H 0.06787 0.32301 0.60691 0.0
H2574 H 0.03841 0.32589 0.60626 0.0
H2575 H 0.01337 0.27926 0.61057 0.0
H2576 H 0.93502 0.27854 0.63589 0.0
H2577 H 0.96416 0.28137 0.63511 0.0
C2578 C 0.68513 0.06074 0.61329 0.0
C2579 C 0.69865 0.06791 0.6213 0.0
C2580 C 0.68346 0.04389 0.61301 0.0
C2581 C 0.70857 0.00746 0.61513 0.0
H2582 H 0.66906 0.98443 0.62615 0.0
C2583 C 0.70962 0.94018 0.62974 0.0
C2584 C 0.69808 0.93033 0.62148 0.0
C2585 C 0.70808 0.95692 0.62944 0.0
C2586 C 0.68011 0.99074 0.62284 0.0
H2587 H 0.72057 0.06307 0.63606 0.0
H2588 H 0.71759 0.03394 0.63563 0.0
H2589 H 0.6692 0.01409 0.62606 0.0
H2590 H 0.67548 0.93032 0.60709 0.0
H2591 H 0.67284 0.95981 0.60652 0.0
H2592 H 0.71958 0.98432 0.61204 0.0
C2593 C 0.70845 0.04125 0.62926 0.0
C2594 C 0.68018 0.00767 0.62279 0.0
C2595 C 0.71011 0.05797 0.62957 0.0
C2596 C 0.6846 0.9376 0.6135 0.0
C2597 C 0.68305 0.95445 0.61322 0.0
C2598 C 0.7085 0.99065 0.61518 0.0
C2599 C 0.69531 0.034 0.62068 0.0
C2600 C 0.69454 0.01616 0.61932 0.0
C2601 C 0.695 0.96426 0.62086 0.0
C2602 C 0.69439 0.9821 0.61943 0.0
H2603 H 0.67606 0.06808 0.60687 0.0
H2604 H 0.6732 0.0386 0.60631 0.0
H2605 H 0.71971 0.01368 0.61196 0.0
H2606 H 0.72005 0.935 0.63621 0.0
H2607 H 0.71729 0.96416 0.63578 0.0
C2608 C 0.56089 0.81248 0.88078 0.0
C2609 C 0.56827 0.79927 0.87238 0.0
C2610 C 0.54406 0.81419 0.88055 0.0
C2611 C 0.50781 0.78908 0.87613 0.0
H2612 H 0.48478 0.82918 0.86795 0.0
C2613 C 0.44023 0.78883 0.86311 0.0
C2614 C 0.43065 0.79997 0.87234 0.0
C2615 C 0.45696 0.79037 0.86288 0.0
C2616 C 0.49109 0.81795 0.87043 0.0
H2617 H 0.56386 0.77807 0.85629 0.0
H2618 H 0.53474 0.78114 0.85579 0.0
H2619 H 0.51443 0.82904 0.86797 0.0
H2620 H 0.4311 0.82192 0.88788 0.0
H2621 H 0.46058 0.82453 0.88757 0.0
H2622 H 0.48469 0.77792 0.87856 0.0
C2623 C 0.54186 0.78997 0.86289 0.0
C2624 C 0.50802 0.81787 0.87044 0.0
C2625 C 0.55858 0.78826 0.86312 0.0
C2626 C 0.43817 0.81311 0.88072 0.0
C2627 C 0.45502 0.81464 0.88049 0.0
C2628 C 0.49101 0.78916 0.87611 0.0
C2629 C 0.53438 0.80271 0.87194 0.0
C2630 C 0.51651 0.80334 0.87296 0.0
C2631 C 0.46458 0.80305 0.87191 0.0
C2632 C 0.48245 0.80351 0.87294 0.0
H2633 H 0.56805 0.8212 0.88797 0.0
H2634 H 0.5386 0.82412 0.88764 0.0
H2635 H 0.51402 0.77778 0.87858 0.0
H2636 H 0.43483 0.77869 0.8563 0.0
H2637 H 0.46399 0.78145 0.85581 0.0
C2638 C 0.20993 0.44005 0.86304 0.0
C2639 C 0.19906 0.43039 0.87255 0.0
C2640 C 0.20819 0.45677 0.86273 0.0
C2641 C 0.18039 0.49064 0.87063 0.0
H2642 H 0.22043 0.51402 0.8779 0.0
C2643 C 0.18526 0.56052 0.88074 0.0
C2644 C 0.19827 0.56805 0.87215 0.0
C2645 C 0.18372 0.54367 0.88052 0.0
C2646 C 0.20916 0.50769 0.87569 0.0
H2647 H 0.17736 0.43066 0.8885 0.0
H2648 H 0.17441 0.46012 0.88806 0.0
H2649 H 0.22059 0.4847 0.87801 0.0
H2650 H 0.21929 0.56389 0.85571 0.0
H2651 H 0.21651 0.53472 0.85522 0.0
H2652 H 0.16902 0.51387 0.86829 0.0
C2653 C 0.18424 0.45463 0.88083 0.0
C2654 C 0.20926 0.49089 0.87575 0.0
C2655 C 0.18597 0.4378 0.88112 0.0
C2656 C 0.20926 0.55848 0.8627 0.0
C2657 C 0.20771 0.54174 0.86246 0.0
C2658 C 0.18029 0.50757 0.87057 0.0
C2659 C 0.19558 0.46429 0.87196 0.0
C2660 C 0.19495 0.48216 0.8729 0.0
C2661 C 0.19518 0.53411 0.87172 0.0
C2662 C 0.19476 0.51624 0.87277 0.0
H2663 H 0.22001 0.43474 0.85606 0.0
H2664 H 0.2169 0.46386 0.85545 0.0
H2665 H 0.16919 0.48421 0.8684 0.0
H2666 H 0.17657 0.56758 0.88808 0.0
H2667 H 0.17395 0.5381 0.88777 0.0
C2668 C 0.43784 0.1813 0.88021 0.0
C2669 C 0.43113 0.19501 0.8721 0.0
C2670 C 0.4544 0.17813 0.87885 0.0
C2671 C 0.49087 0.18872 0.85314 0.0
H2672 H 0.51395 0.18104 0.89662 0.0
C2673 C 0.55689 0.20658 0.86274 0.0
C2674 C 0.56715 0.19658 0.87262 0.0
C2675 C 0.54051 0.203 0.8612 0.0
C2676 C 0.50768 0.18284 0.88431 0.0
H2677 H 0.43642 0.21581 0.85572 0.0
H2678 H 0.46514 0.21032 0.85344 0.0
H2679 H 0.48448 0.18068 0.89648 0.0
H2680 H 0.56833 0.17475 0.88832 0.0
H2681 H 0.53952 0.16855 0.88572 0.0
H2682 H 0.51404 0.19147 0.84109 0.0
C2683 C 0.45766 0.20196 0.86075 0.0
C2684 C 0.4908 0.18264 0.88422 0.0
C2685 C 0.4412 0.20518 0.86219 0.0
C2686 C 0.56072 0.18272 0.88066 0.0
C2687 C 0.54424 0.17919 0.87922 0.0
C2688 C 0.50772 0.18893 0.85322 0.0
C2689 C 0.46449 0.18851 0.86921 0.0
C2690 C 0.48223 0.18609 0.86874 0.0
C2691 C 0.53396 0.18937 0.86956 0.0
C2692 C 0.51629 0.18651 0.86892 0.0
H2693 H 0.43038 0.17321 0.88789 0.0
H2694 H 0.45932 0.16763 0.88543 0.0
H2695 H 0.48459 0.1911 0.84094 0.0
H2696 H 0.56146 0.21733 0.85632 0.0
H2697 H 0.53287 0.21122 0.85389 0.0
C2698 C 0.81664 0.43803 0.88051 0.0
C2699 C 0.80275 0.43159 0.87254 0.0
C2700 C 0.82019 0.45451 0.879 0.0
C2701 C 0.81045 0.49097 0.8529 0.0
H2702 H 0.81866 0.51433 0.89609 0.0
C2703 C 0.79405 0.55748 0.86174 0.0
C2704 C 0.80417 0.56759 0.87167 0.0
C2705 C 0.79734 0.54103 0.8603 0.0
C2706 C 0.81672 0.50797 0.88385 0.0
H2707 H 0.78198 0.43727 0.85626 0.0
H2708 H 0.78813 0.46584 0.8537 0.0
H2709 H 0.81835 0.48485 0.89632 0.0
H2710 H 0.82594 0.56842 0.88748 0.0
H2711 H 0.83163 0.53949 0.88502 0.0
H2712 H 0.80824 0.51407 0.84055 0.0
C2713 C 0.79635 0.45821 0.86102 0.0
C2714 C 0.81654 0.49109 0.88398 0.0
C2715 C 0.79275 0.44184 0.86263 0.0
C2716 C 0.81789 0.56093 0.87979 0.0
C2717 C 0.82112 0.54438 0.87843 0.0
C2718 C 0.81064 0.50782 0.85277 0.0
C2719 C 0.81001 0.46477 0.86932 0.0
C2720 C 0.81288 0.48244 0.86862 0.0
C2721 C 0.81079 0.53425 0.86878 0.0
C2722 C 0.81326 0.51651 0.86835 0.0
H2723 H 0.82461 0.43042 0.88818 0.0
H2724 H 0.83084 0.45923 0.88546 0.0
H2725 H 0.80791 0.48461 0.84079 0.0
H2726 H 0.78342 0.56223 0.85526 0.0
H2727 H 0.789 0.53352 0.85298 0.0
C2728 C 0.43982 0.20992 0.13349 0.0
C2729 C 0.43023 0.19909 0.12386 0.0
C2730 C 0.45656 0.20836 0.13366 0.0
C2731 C 0.49073 0.18111 0.12502 0.0
H2732 H 0.51345 0.22155 0.11786 0.0
C2733 C 0.56044 0.18699 0.11425 0.0
C2734 C 0.56786 0.20006 0.12286 0.0
C2735 C 0.54361 0.18524 0.11459 0.0
C2736 C 0.50731 0.21017 0.12004 0.0
H2737 H 0.43064 0.17758 0.1076 0.0
H2738 H 0.46012 0.17492 0.10783 0.0
H2739 H 0.48414 0.2213 0.11816 0.0
H2740 H 0.56353 0.22096 0.13943 0.0
H2741 H 0.53442 0.21781 0.14014 0.0
H2742 H 0.51413 0.17005 0.12694 0.0
C2743 C 0.45457 0.1846 0.11524 0.0
C2744 C 0.49051 0.21003 0.12021 0.0
C2745 C 0.43772 0.18616 0.11508 0.0
C2746 C 0.55821 0.21089 0.13243 0.0
C2747 C 0.5415 0.20913 0.13279 0.0
C2748 C 0.50766 0.18125 0.12486 0.0
C2749 C 0.46415 0.19595 0.12419 0.0
C2750 C 0.48202 0.19558 0.12303 0.0
C2751 C 0.53397 0.19654 0.12354 0.0
C2752 C 0.51609 0.19586 0.12269 0.0
H2753 H 0.43445 0.21988 0.14062 0.0
H2754 H 0.4636 0.21707 0.14101 0.0
H2755 H 0.48448 0.1698 0.12721 0.0
H2756 H 0.56757 0.17841 0.10683 0.0
H2757 H 0.53812 0.17542 0.10734 0.0
C2758 C 0.79297 0.55818 0.1344 0.0
C2759 C 0.80304 0.56836 0.12451 0.0
C2760 C 0.79632 0.54173 0.13579 0.0
C2761 C 0.81598 0.50882 0.1122 0.0
H2762 H 0.8072 0.48531 0.15518 0.0
C2763 C 0.81689 0.43887 0.11554 0.0
C2764 C 0.8031 0.43219 0.12349 0.0
C2765 C 0.82014 0.45541 0.11703 0.0
C2766 C 0.80972 0.49171 0.14309 0.0
H2767 H 0.82482 0.56933 0.10872 0.0
H2768 H 0.83065 0.54043 0.11111 0.0
H2769 H 0.80725 0.51477 0.15547 0.0
H2770 H 0.78219 0.43751 0.13967 0.0
H2771 H 0.78781 0.4662 0.14219 0.0
H2772 H 0.8179 0.48573 0.09971 0.0
C2773 C 0.82011 0.54525 0.1177 0.0
C2774 C 0.80975 0.50856 0.14325 0.0
C2775 C 0.81679 0.56179 0.11638 0.0
C2776 C 0.79289 0.44227 0.13333 0.0
C2777 C 0.79619 0.45871 0.13491 0.0
C2778 C 0.81596 0.49193 0.11204 0.0
C2779 C 0.80981 0.53503 0.1273 0.0
C2780 C 0.81238 0.5173 0.1277 0.0
C2781 C 0.80975 0.4655 0.12665 0.0
C2782 C 0.81233 0.48322 0.12738 0.0
H2783 H 0.7823 0.56285 0.14088 0.0
H2784 H 0.78802 0.53417 0.14307 0.0
H2785 H 0.81793 0.51521 0.09998 0.0
H2786 H 0.82502 0.4314 0.10792 0.0
H2787 H 0.83073 0.46032 0.11061 0.0
C2788 C 0.44148 0.7931 0.13409 0.0
C2789 C 0.4313 0.8031 0.12411 0.0
C2790 C 0.45788 0.79656 0.1356 0.0
C2791 C 0.49082 0.81629 0.1122 0.0
H2792 H 0.51406 0.80787 0.15543 0.0
C2793 C 0.5607 0.81701 0.11581 0.0
C2794 C 0.56728 0.80323 0.1239 0.0
C2795 C 0.54419 0.82039 0.11728 0.0
C2796 C 0.50774 0.8103 0.14327 0.0
H2797 H 0.43028 0.82485 0.10827 0.0
H2798 H 0.45913 0.83086 0.11084 0.0
H2799 H 0.4846 0.80784 0.15548 0.0
H2800 H 0.56183 0.78252 0.14034 0.0
H2801 H 0.53319 0.78837 0.14281 0.0
H2802 H 0.51398 0.81816 0.09986 0.0
C2803 C 0.45434 0.8203 0.11742 0.0
C2804 C 0.49089 0.81028 0.1433 0.0
C2805 C 0.43783 0.81688 0.116 0.0
C2806 C 0.55715 0.7932 0.13389 0.0
C2807 C 0.54073 0.79663 0.13544 0.0
C2808 C 0.5077 0.81631 0.11217 0.0
C2809 C 0.46455 0.81008 0.12713 0.0
C2810 C 0.48225 0.81276 0.12766 0.0
C2811 C 0.53403 0.81015 0.12701 0.0
C2812 C 0.51632 0.8128 0.1276 0.0
H2813 H 0.43683 0.78241 0.14056 0.0
H2814 H 0.46546 0.78832 0.14295 0.0
H2815 H 0.4845 0.81813 0.09992 0.0
H2816 H 0.56822 0.825 0.10807 0.0
H2817 H 0.53936 0.83094 0.11072 0.0
C2818 C 0.20544 0.44178 0.13366 0.0
C2819 C 0.19524 0.43169 0.12381 0.0
C2820 C 0.20215 0.45823 0.1352 0.0
C2821 C 0.18247 0.49139 0.1121 0.0
H2822 H 0.19132 0.51445 0.15535 0.0
C2823 C 0.18195 0.56127 0.11598 0.0
C2824 C 0.19577 0.56782 0.12401 0.0
C2825 C 0.17857 0.54476 0.1174 0.0
C2826 C 0.18878 0.50818 0.14318 0.0
H2827 H 0.17335 0.43089 0.1082 0.0
H2828 H 0.16766 0.45981 0.11082 0.0
H2829 H 0.19124 0.48499 0.15528 0.0
H2830 H 0.21654 0.56229 0.14033 0.0
H2831 H 0.21069 0.53365 0.14272 0.0
H2832 H 0.18059 0.5146 0.09987 0.0
C2833 C 0.17823 0.45491 0.11728 0.0
C2834 C 0.18874 0.49133 0.14314 0.0
C2835 C 0.18147 0.43837 0.11583 0.0
C2836 C 0.20583 0.55764 0.13391 0.0
C2837 C 0.20239 0.54122 0.13543 0.0
C2838 C 0.18252 0.50828 0.11214 0.0
C2839 C 0.18862 0.46502 0.12688 0.0
C2840 C 0.18608 0.48275 0.12749 0.0
C2841 C 0.18884 0.53455 0.12703 0.0
C2842 C 0.18618 0.51683 0.12757 0.0
H2843 H 0.21613 0.43703 0.14003 0.0
H2844 H 0.21053 0.46572 0.14247 0.0
H2845 H 0.1805 0.48512 0.09981 0.0
H2846 H 0.17394 0.56882 0.1083 0.0
H2847 H 0.16798 0.53995 0.11089 0.0
C2848 C 0.11122 0.28428 0.43187 0.0
C2849 C 0.12139 0.29466 0.4223 0.0
C2850 C 0.11063 0.28515 0.45017 0.0
C2851 C 0.13474 0.29862 0.488 0.0
H2852 H 0.09446 0.29423 0.51352 0.0
C2853 C 0.13141 0.307 0.56285 0.0
C2854 C 0.12228 0.29557 0.57224 0.0
C2855 C 0.13061 0.30765 0.54457 0.0
C2856 C 0.10581 0.29534 0.50657 0.0
H2857 H 0.13862 0.31435 0.42453 0.0
H2858 H 0.1374 0.31594 0.45634 0.0
H2859 H 0.09424 0.294 0.48147 0.0
H2860 H 0.10496 0.276 0.56969 0.0
H2861 H 0.1037 0.27708 0.5378 0.0
H2862 H 0.14633 0.29985 0.51303 0.0
C2863 C 0.13009 0.30697 0.44971 0.0
C2864 C 0.10569 0.29521 0.48823 0.0
C2865 C 0.1307 0.30611 0.43144 0.0
C2866 C 0.11214 0.28498 0.56291 0.0
C2867 C 0.11134 0.28565 0.54462 0.0
C2868 C 0.13486 0.29877 0.5063 0.0
C2869 C 0.12017 0.2964 0.45929 0.0
C2870 C 0.12016 0.29682 0.47875 0.0
C2871 C 0.12067 0.29689 0.53525 0.0
C2872 C 0.12041 0.2971 0.51579 0.0
H2873 H 0.10391 0.27529 0.42528 0.0
H2874 H 0.10299 0.27672 0.45719 0.0
H2875 H 0.14612 0.2996 0.48109 0.0
H2876 H 0.13931 0.31539 0.56958 0.0
H2877 H 0.13777 0.3166 0.53773 0.0
C2878 C 0.71524 0.1124 0.56363 0.0
C2879 C 0.70446 0.12255 0.57269 0.0
C2880 C 0.71497 0.1116 0.54532 0.0
C2881 C 0.70243 0.13505 0.50665 0.0
H2882 H 0.70694 0.09432 0.48199 0.0
C2883 C 0.6937 0.13051 0.43206 0.0
C2884 C 0.70489 0.12111 0.42264 0.0
C2885 C 0.69332 0.13001 0.45035 0.0
C2886 C 0.70583 0.1058 0.4887 0.0
H2887 H 0.68473 0.1396 0.56951 0.0
H2888 H 0.6842 0.13806 0.53766 0.0
H2889 H 0.70687 0.09466 0.51405 0.0
H2890 H 0.7243 0.10362 0.42517 0.0
H2891 H 0.72369 0.1029 0.45713 0.0
H2892 H 0.70147 0.14622 0.48139 0.0
C2893 C 0.693 0.13089 0.54472 0.0
C2894 C 0.70578 0.10599 0.50704 0.0
C2895 C 0.69326 0.13169 0.56301 0.0
C2896 C 0.7155 0.11099 0.43197 0.0
C2897 C 0.71511 0.11051 0.4503 0.0
C2898 C 0.70248 0.13486 0.48835 0.0
C2899 C 0.70393 0.12094 0.53567 0.0
C2900 C 0.70403 0.12063 0.5162 0.0
C2901 C 0.70412 0.12014 0.45969 0.0
C2902 C 0.70413 0.12023 0.47916 0.0
H2903 H 0.72406 0.1052 0.57064 0.0
H2904 H 0.72365 0.10394 0.5387 0.0
H2905 H 0.70137 0.14656 0.51332 0.0
H2906 H 0.68529 0.13839 0.42534 0.0
H2907 H 0.68453 0.13737 0.45719 0.0
C2908 C 0.88581 0.71402 0.43234 0.0
C2909 C 0.87575 0.70364 0.42265 0.0
C2910 C 0.8864 0.713 0.45063 0.0
C2911 C 0.86247 0.6991 0.48838 0.0
H2912 H 0.90281 0.70367 0.51375 0.0
C2913 C 0.86607 0.69116 0.56334 0.0
C2914 C 0.87523 0.70267 0.57257 0.0
C2915 C 0.86679 0.69037 0.54505 0.0
C2916 C 0.89144 0.7025 0.50684 0.0
H2917 H 0.85863 0.68382 0.42466 0.0
H2918 H 0.85982 0.682 0.45648 0.0
H2919 H 0.90292 0.70391 0.48172 0.0
H2920 H 0.89253 0.72224 0.56975 0.0
H2921 H 0.89363 0.72092 0.53787 0.0
H2922 H 0.85096 0.69783 0.51345 0.0
C2923 C 0.86708 0.69106 0.44994 0.0
C2924 C 0.8915 0.70264 0.48851 0.0
C2925 C 0.86648 0.69206 0.43167 0.0
C2926 C 0.88532 0.7132 0.56309 0.0
C2927 C 0.88604 0.71239 0.54481 0.0
C2928 C 0.86241 0.69895 0.50669 0.0
C2929 C 0.87694 0.7016 0.45963 0.0
C2930 C 0.877 0.70101 0.47908 0.0
C2931 C 0.87668 0.70106 0.53558 0.0
C2932 C 0.87688 0.70072 0.51613 0.0
H2933 H 0.89309 0.7231 0.42586 0.0
H2934 H 0.89397 0.72142 0.45774 0.0
H2935 H 0.85107 0.69808 0.4815 0.0
H2936 H 0.85821 0.68281 0.57019 0.0
H2937 H 0.8596 0.68137 0.53833 0.0
C2938 C 0.28494 0.88612 0.56305 0.0
C2939 C 0.29544 0.87599 0.57251 0.0
C2940 C 0.28579 0.88692 0.54476 0.0
C2941 C 0.29946 0.86347 0.50657 0.0
H2942 H 0.29489 0.90412 0.48177 0.0
C2943 C 0.30781 0.86785 0.43181 0.0
C2944 C 0.29644 0.87715 0.42253 0.0
C2945 C 0.30843 0.86841 0.4501 0.0
C2946 C 0.29605 0.89266 0.48851 0.0
H2947 H 0.3153 0.85898 0.57009 0.0
H2948 H 0.31684 0.86051 0.53826 0.0
H2949 H 0.29466 0.90384 0.51381 0.0
H2950 H 0.27696 0.89454 0.42529 0.0
H2951 H 0.27797 0.89535 0.45722 0.0
H2952 H 0.3007 0.85225 0.48135 0.0
C2953 C 0.30781 0.86767 0.54499 0.0
C2954 C 0.29592 0.8925 0.50685 0.0
C2955 C 0.30697 0.86687 0.56326 0.0
C2956 C 0.2859 0.88723 0.43199 0.0
C2957 C 0.28652 0.88777 0.4503 0.0
C2958 C 0.29958 0.86362 0.48827 0.0
C2959 C 0.29715 0.8776 0.53553 0.0
C2960 C 0.29759 0.87789 0.51607 0.0
C2961 C 0.29769 0.87825 0.45956 0.0
C2962 C 0.29785 0.87821 0.47903 0.0
H2963 H 0.27589 0.8933 0.56972 0.0
H2964 H 0.2773 0.89455 0.53783 0.0
H2965 H 0.30049 0.85198 0.51329 0.0
H2966 H 0.31617 0.85999 0.42499 0.0
H2967 H 0.31733 0.86111 0.45684 0.0
C2968 C 0.13222 0.6935 0.43177 0.0
C2969 C 0.12286 0.70464 0.42223 0.0
C2970 C 0.13123 0.69284 0.45004 0.0
C2971 C 0.11998 0.71762 0.48816 0.0
H2972 H 0.12041 0.67671 0.51296 0.0
C2973 C 0.11184 0.71402 0.56307 0.0
C2974 C 0.12228 0.70358 0.57218 0.0
C2975 C 0.11099 0.71359 0.54478 0.0
C2976 C 0.12042 0.68823 0.50622 0.0
H2977 H 0.10489 0.72365 0.42451 0.0
H2978 H 0.1031 0.72237 0.45636 0.0
H2979 H 0.12054 0.67696 0.48093 0.0
H2980 H 0.13985 0.68429 0.56914 0.0
H2981 H 0.13845 0.68368 0.53724 0.0
H2982 H 0.12001 0.7289 0.5134 0.0
C2983 C 0.11135 0.71429 0.44968 0.0
C2984 C 0.12049 0.68837 0.48788 0.0
C2985 C 0.11232 0.71495 0.43141 0.0
C2986 C 0.13165 0.6925 0.56258 0.0
C2987 C 0.13079 0.69208 0.54428 0.0
C2988 C 0.11991 0.71748 0.50647 0.0
C2989 C 0.12087 0.70331 0.45921 0.0
C2990 C 0.12033 0.70308 0.47866 0.0
C2991 C 0.12055 0.70271 0.53517 0.0
C2992 C 0.12019 0.70278 0.51571 0.0
H2993 H 0.14049 0.68539 0.42516 0.0
H2994 H 0.13886 0.68438 0.45702 0.0
H2995 H 0.12013 0.72915 0.48145 0.0
H2996 H 0.10438 0.72267 0.57001 0.0
H2997 H 0.10281 0.72178 0.53815 0.0
C2998 C 0.2854 0.11146 0.43251 0.0
C2999 C 0.29571 0.12166 0.42291 0.0
C3000 C 0.28623 0.11093 0.45082 0.0
C3001 C 0.29943 0.13526 0.4886 0.0
H3002 H 0.29505 0.09503 0.51424 0.0
C3003 C 0.3071 0.13219 0.5636 0.0
C3004 C 0.29564 0.123 0.57288 0.0
C3005 C 0.30793 0.13136 0.54532 0.0
C3006 C 0.29616 0.10637 0.50725 0.0
H3007 H 0.31526 0.13906 0.4251 0.0
H3008 H 0.3168 0.13797 0.45694 0.0
H3009 H 0.29507 0.09472 0.4822 0.0
H3010 H 0.27622 0.10554 0.57014 0.0
H3011 H 0.27762 0.10423 0.53826 0.0
H3012 H 0.30039 0.14695 0.5136 0.0
C3013 C 0.3079 0.13056 0.45032 0.0
C3014 C 0.29617 0.10619 0.48892 0.0
C3015 C 0.30707 0.1311 0.43204 0.0
C3016 C 0.28521 0.11277 0.56345 0.0
C3017 C 0.28606 0.11194 0.54517 0.0
C3018 C 0.29943 0.13544 0.50691 0.0
C3019 C 0.29739 0.1206 0.45992 0.0
C3020 C 0.29776 0.12065 0.47939 0.0
C3021 C 0.29734 0.12133 0.5359 0.0
C3022 C 0.29775 0.12101 0.51644 0.0
H3023 H 0.27647 0.10405 0.42594 0.0
H3024 H 0.27784 0.10326 0.45785 0.0
H3025 H 0.30039 0.14664 0.48166 0.0
H3026 H 0.31537 0.14016 0.5704 0.0
H3027 H 0.31689 0.13858 0.53857 0.0
C3028 C 0.86857 0.30454 0.43232 0.0
C3029 C 0.87791 0.2935 0.42264 0.0
C3030 C 0.86962 0.30505 0.45059 0.0
C3031 C 0.88077 0.28008 0.48854 0.0
H3032 H 0.88006 0.32094 0.51344 0.0
C3033 C 0.8869 0.28378 0.56385 0.0
C3034 C 0.87631 0.2944 0.57252 0.0
C3035 C 0.88825 0.28404 0.54559 0.0
C3036 C 0.88014 0.30943 0.50667 0.0
H3037 H 0.89587 0.27445 0.42466 0.0
H3038 H 0.89773 0.27545 0.45656 0.0
H3039 H 0.88048 0.32076 0.48143 0.0
H3040 H 0.85893 0.31374 0.5687 0.0
H3041 H 0.8612 0.31406 0.53688 0.0
H3042 H 0.88023 0.26875 0.51376 0.0
C3043 C 0.88948 0.2836 0.44997 0.0
C3044 C 0.88039 0.30933 0.48835 0.0
C3045 C 0.88847 0.2831 0.43168 0.0
C3046 C 0.86724 0.30541 0.56249 0.0
C3047 C 0.86861 0.30567 0.54424 0.0
C3048 C 0.88051 0.28018 0.50686 0.0
C3049 C 0.88 0.29452 0.45963 0.0
C3050 C 0.88057 0.29465 0.47908 0.0
C3051 C 0.87906 0.29493 0.53557 0.0
C3052 C 0.88006 0.29486 0.51613 0.0
H3053 H 0.86027 0.31271 0.42584 0.0
H3054 H 0.862 0.31345 0.45767 0.0
H3055 H 0.88067 0.26857 0.48178 0.0
H3056 H 0.89411 0.27516 0.57113 0.0
H3057 H 0.89656 0.27575 0.53931 0.0
C3058 C 0.69179 0.86719 0.5626 0.0
C3059 C 0.70292 0.87637 0.57234 0.0
C3060 C 0.69125 0.86842 0.54433 0.0
C3061 C 0.71632 0.88005 0.50654 0.0
H3062 H 0.67558 0.8797 0.48143 0.0
C3063 C 0.71311 0.88803 0.4315 0.0
C3064 C 0.70276 0.87744 0.42243 0.0
C3065 C 0.71258 0.88902 0.44979 0.0
C3066 C 0.68705 0.87969 0.48826 0.0
H3067 H 0.72202 0.89429 0.57045 0.0
H3068 H 0.72094 0.89649 0.53863 0.0
H3069 H 0.67563 0.87942 0.51346 0.0
H3070 H 0.68357 0.85978 0.42556 0.0
H3071 H 0.68279 0.86144 0.45741 0.0
H3072 H 0.72776 0.88015 0.48138 0.0
C3073 C 0.71278 0.88819 0.54513 0.0
C3074 C 0.68708 0.87953 0.50659 0.0
C3075 C 0.71333 0.88698 0.56339 0.0
C3076 C 0.6917 0.86809 0.43207 0.0
C3077 C 0.69118 0.8691 0.45035 0.0
C3078 C 0.71629 0.88022 0.48822 0.0
C3079 C 0.70182 0.87883 0.53538 0.0
C3080 C 0.70172 0.8796 0.51593 0.0
C3081 C 0.70171 0.87947 0.45942 0.0
C3082 C 0.70166 0.87994 0.47888 0.0
H3083 H 0.6836 0.85888 0.56903 0.0
H3084 H 0.6828 0.8609 0.53718 0.0
H3085 H 0.72781 0.87985 0.51333 0.0
H3086 H 0.72175 0.89546 0.42452 0.0
H3087 H 0.72071 0.89728 0.45639 0.0
C3088 C 0.60931 0.78464 0.06367 0.0
C3089 C 0.62012 0.79481 0.07265 0.0
C3090 C 0.60826 0.78512 0.04539 0.0
C3091 C 0.61803 0.81029 0.00673 0.0
H3092 H 0.61714 0.7694 0.98193 0.0
C3093 C 0.63092 0.80486 0.93256 0.0
C3094 C 0.62161 0.79385 0.9228 0.0
C3095 C 0.62954 0.80554 0.95081 0.0
C3096 C 0.61714 0.78093 0.98865 0.0
H3097 H 0.63812 0.81367 0.06938 0.0
H3098 H 0.63635 0.81438 0.03753 0.0
H3099 H 0.61675 0.76963 0.01388 0.0
H3100 H 0.6033 0.77513 0.92463 0.0
H3101 H 0.60083 0.77646 0.95642 0.0
H3102 H 0.61861 0.82157 0.98146 0.0
C3103 C 0.62857 0.80616 0.04465 0.0
C3104 C 0.61692 0.78106 0.00696 0.0
C3105 C 0.62964 0.80568 0.06293 0.0
C3106 C 0.61071 0.78372 0.93171 0.0
C3107 C 0.60935 0.78441 0.94995 0.0
C3108 C 0.61825 0.81016 0.9884 0.0
C3109 C 0.61798 0.79579 0.03567 0.0
C3110 C 0.61748 0.79574 0.01621 0.0
C3111 C 0.61883 0.79524 0.95972 0.0
C3112 C 0.61792 0.79547 0.97916 0.0
H3113 H 0.60175 0.77616 0.07072 0.0
H3114 H 0.59983 0.77713 0.03885 0.0
H3115 H 0.61823 0.8218 0.01349 0.0
H3116 H 0.63947 0.81283 0.92617 0.0
H3117 H 0.63716 0.81388 0.95797 0.0
C3118 C 0.214 0.61031 0.93149 0.0
C3119 C 0.2036 0.62109 0.92277 0.0
C3120 C 0.21354 0.60887 0.94974 0.0
C3121 C 0.18815 0.61735 0.98858 0.0
H3122 H 0.22898 0.61658 0.01349 0.0
C3123 C 0.19332 0.62962 0.06281 0.0
C3124 C 0.20434 0.62031 0.07257 0.0
C3125 C 0.19269 0.62833 0.04457 0.0
C3126 C 0.21748 0.61654 0.00673 0.0
H3127 H 0.18439 0.63864 0.92648 0.0
H3128 H 0.18376 0.63622 0.95828 0.0
H3129 H 0.22882 0.6168 0.98153 0.0
H3130 H 0.22316 0.6021 0.0707 0.0
H3131 H 0.22195 0.59982 0.03886 0.0
H3132 H 0.17681 0.61733 0.01383 0.0
C3133 C 0.19212 0.62874 0.95097 0.0
C3134 C 0.21738 0.61667 0.98841 0.0
C3135 C 0.19256 0.63019 0.93273 0.0
C3136 C 0.21455 0.6095 0.06363 0.0
C3137 C 0.21393 0.60824 0.04536 0.0
C3138 C 0.18824 0.61724 0.00691 0.0
C3139 C 0.20269 0.61816 0.95969 0.0
C3140 C 0.20272 0.61722 0.97914 0.0
C3141 C 0.20307 0.61772 0.03563 0.0
C3142 C 0.20291 0.61698 0.01618 0.0
H3143 H 0.22261 0.60306 0.92426 0.0
H3144 H 0.2217 0.60046 0.95607 0.0
H3145 H 0.17665 0.61752 0.98181 0.0
H3146 H 0.18529 0.63809 0.06922 0.0
H3147 H 0.18434 0.63595 0.03742 0.0
C3148 C 0.38811 0.21497 0.0643 0.0
C3149 C 0.37727 0.20472 0.07314 0.0
C3150 C 0.38962 0.21425 0.04606 0.0
C3151 C 0.38131 0.1882 0.00768 0.0
H3152 H 0.38207 0.2286 0.98194 0.0
C3153 C 0.36935 0.19204 0.93327 0.0
C3154 C 0.37859 0.203 0.92337 0.0
C3155 C 0.37059 0.19169 0.95153 0.0
C3156 C 0.38212 0.21721 0.98893 0.0
H3157 H 0.35967 0.18552 0.06967 0.0
H3158 H 0.36223 0.1844 0.03791 0.0
H3159 H 0.38177 0.22901 0.0139 0.0
H3160 H 0.39666 0.22198 0.92498 0.0
H3161 H 0.39887 0.22125 0.95683 0.0
H3162 H 0.38145 0.17642 0.98268 0.0
C3163 C 0.3697 0.19286 0.04511 0.0
C3164 C 0.38194 0.21744 0.00725 0.0
C3165 C 0.36817 0.19358 0.06333 0.0
C3166 C 0.38931 0.21341 0.93217 0.0
C3167 C 0.39052 0.21307 0.95044 0.0
C3168 C 0.38149 0.18797 0.98936 0.0
C3169 C 0.38035 0.20325 0.03626 0.0
C3170 C 0.38139 0.20295 0.01683 0.0
C3171 C 0.38108 0.2023 0.96033 0.0
C3172 C 0.38174 0.20248 0.97978 0.0
H3173 H 0.39536 0.22367 0.07142 0.0
H3174 H 0.39807 0.22229 0.03963 0.0
H3175 H 0.38114 0.17682 0.0147 0.0
H3176 H 0.36096 0.18386 0.92696 0.0
H3177 H 0.36301 0.18339 0.9588 0.0
C3178 C 0.78536 0.38854 0.06359 0.0
C3179 C 0.79573 0.3782 0.07296 0.0
C3180 C 0.78592 0.38914 0.04528 0.0
C3181 C 0.79823 0.36484 0.00715 0.0
H3182 H 0.79436 0.40527 0.98178 0.0
C3183 C 0.80574 0.36808 0.93219 0.0
C3184 C 0.79458 0.37764 0.92292 0.0
C3185 C 0.80654 0.36879 0.95047 0.0
C3186 C 0.79531 0.39387 0.98869 0.0
H3187 H 0.81509 0.36064 0.07033 0.0
H3188 H 0.81612 0.36184 0.03847 0.0
H3189 H 0.79463 0.40542 0.01383 0.0
H3190 H 0.77562 0.3956 0.92569 0.0
H3191 H 0.77694 0.39668 0.9576 0.0
H3192 H 0.79878 0.35326 0.98209 0.0
C3193 C 0.8074 0.3693 0.04529 0.0
C3194 C 0.79547 0.39396 0.00703 0.0
C3195 C 0.80686 0.3687 0.06358 0.0
C3196 C 0.7844 0.38809 0.93238 0.0
C3197 C 0.7852 0.38879 0.95068 0.0
C3198 C 0.79807 0.36475 0.98884 0.0
C3199 C 0.79684 0.37941 0.03593 0.0
C3200 C 0.79692 0.37944 0.01646 0.0
C3201 C 0.79619 0.37905 0.95993 0.0
C3202 C 0.79659 0.37926 0.9794 0.0
H3203 H 0.77661 0.396 0.07036 0.0
H3204 H 0.7775 0.39692 0.03843 0.0
H3205 H 0.79907 0.35342 0.01403 0.0
H3206 H 0.81382 0.35993 0.92537 0.0
H3207 H 0.8153 0.36131 0.9572 0.0
C3208 C 0.61187 0.216 0.06365 0.0
C3209 C 0.62224 0.20561 0.07294 0.0
C3210 C 0.61107 0.21536 0.04535 0.0
C3211 C 0.63483 0.20264 0.00698 0.0
H3212 H 0.59412 0.20636 0.98214 0.0
C3213 C 0.63069 0.194 0.93228 0.0
C3214 C 0.62116 0.20511 0.92291 0.0
C3215 C 0.63013 0.19347 0.95057 0.0
C3216 C 0.60559 0.20545 0.9889 0.0
H3217 H 0.63967 0.18615 0.07019 0.0
H3218 H 0.63812 0.18497 0.03836 0.0
H3219 H 0.59436 0.2065 0.01419 0.0
H3220 H 0.60336 0.22423 0.92553 0.0
H3221 H 0.60254 0.22338 0.95747 0.0
H3222 H 0.64609 0.2017 0.98176 0.0
C3223 C 0.63078 0.19376 0.04523 0.0
C3224 C 0.60573 0.20553 0.00724 0.0
C3225 C 0.63159 0.19439 0.0635 0.0
C3226 C 0.61085 0.21549 0.93229 0.0
C3227 C 0.6103 0.21496 0.95061 0.0
C3228 C 0.63469 0.20256 0.98867 0.0
C3229 C 0.62063 0.20433 0.03593 0.0
C3230 C 0.62036 0.20411 0.01647 0.0
C3231 C 0.62006 0.20404 0.95995 0.0
C3232 C 0.62008 0.20396 0.97942 0.0
H3233 H 0.60451 0.22482 0.07047 0.0
H3234 H 0.60324 0.22378 0.03855 0.0
H3235 H 0.64632 0.20182 0.0137 0.0
H3236 H 0.63873 0.18576 0.92552 0.0
H3237 H 0.63761 0.18475 0.95737 0.0
C3238 C 0.78414 0.60941 0.06413 0.0
C3239 C 0.79433 0.62036 0.0729 0.0
C3240 C 0.78481 0.60787 0.04589 0.0
C3241 C 0.81067 0.61629 0.00742 0.0
H3242 H 0.77023 0.6155 0.98178 0.0
C3243 C 0.80669 0.6289 0.93321 0.0
C3244 C 0.79577 0.61971 0.9232 0.0
C3245 C 0.80704 0.62748 0.95146 0.0
C3246 C 0.78163 0.61546 0.98874 0.0
H3247 H 0.81335 0.63813 0.06928 0.0
H3248 H 0.81438 0.6355 0.03754 0.0
H3249 H 0.76989 0.61564 0.01374 0.0
H3250 H 0.77686 0.60156 0.92459 0.0
H3251 H 0.77761 0.59902 0.95641 0.0
H3252 H 0.8224 0.61634 0.9824 0.0
C3253 C 0.80602 0.62798 0.04479 0.0
C3254 C 0.78144 0.61554 0.00706 0.0
C3255 C 0.80534 0.62955 0.06301 0.0
C3256 C 0.7854 0.60887 0.93186 0.0
C3257 C 0.78575 0.60746 0.95012 0.0
C3258 C 0.81087 0.61621 0.9891 0.0
C3259 C 0.79569 0.6172 0.03602 0.0
C3260 C 0.79595 0.61613 0.0166 0.0
C3261 C 0.79649 0.61684 0.96012 0.0
C3262 C 0.79634 0.61597 0.97956 0.0
H3263 H 0.77553 0.60211 0.07131 0.0
H3264 H 0.77682 0.59933 0.03951 0.0
H3265 H 0.82206 0.61649 0.01442 0.0
H3266 H 0.81484 0.6374 0.92701 0.0
H3267 H 0.81531 0.63502 0.95881 0.0
C3268 C 0.36863 0.80603 0.93292 0.0
C3269 C 0.3777 0.79494 0.92299 0.0
C3270 C 0.37011 0.80652 0.95116 0.0
C3271 C 0.38217 0.7813 0.98865 0.0
H3272 H 0.38163 0.82193 0.01398 0.0
C3273 C 0.38953 0.78425 0.06382 0.0
C3274 C 0.37876 0.79449 0.07277 0.0
C3275 C 0.39074 0.78485 0.04555 0.0
C3276 C 0.38169 0.81049 0.00708 0.0
H3277 H 0.39569 0.77589 0.92452 0.0
H3278 H 0.39833 0.77689 0.95631 0.0
H3279 H 0.38138 0.82204 0.98195 0.0
H3280 H 0.361 0.81357 0.06946 0.0
H3281 H 0.36306 0.81448 0.03765 0.0
H3282 H 0.38228 0.76975 0.01375 0.0
C3283 C 0.38993 0.78505 0.94997 0.0
C3284 C 0.38154 0.81055 0.98875 0.0
C3285 C 0.38846 0.78455 0.93173 0.0
C3286 C 0.36944 0.80552 0.06304 0.0
C3287 C 0.37069 0.80612 0.04478 0.0
C3288 C 0.38233 0.78125 0.00697 0.0
C3289 C 0.38067 0.79594 0.9599 0.0
C3290 C 0.38163 0.79595 0.97934 0.0
C3291 C 0.38125 0.79571 0.03583 0.0
C3292 C 0.38194 0.79583 0.01638 0.0
H3293 H 0.3602 0.8142 0.92666 0.0
H3294 H 0.36266 0.81492 0.95845 0.0
H3295 H 0.382 0.76985 0.98179 0.0
H3296 H 0.39693 0.77564 0.07088 0.0
H3297 H 0.39913 0.7768 0.03903 0.0
C3298 C 0.19325 0.36752 0.93229 0.0
C3299 C 0.20468 0.37656 0.9228 0.0
C3300 C 0.19257 0.36852 0.95055 0.0
C3301 C 0.2047 0.39363 0.98836 0.0
H3302 H 0.19976 0.35352 0.0141 0.0
C3303 C 0.21376 0.38848 0.06352 0.0
C3304 C 0.20303 0.37841 0.07275 0.0
C3305 C 0.21341 0.38908 0.0452 0.0
C3306 C 0.20094 0.36485 0.00711 0.0
H3307 H 0.2242 0.39395 0.92515 0.0
H3308 H 0.22308 0.39554 0.95706 0.0
H3309 H 0.20019 0.35306 0.98219 0.0
H3310 H 0.18319 0.36142 0.06988 0.0
H3311 H 0.18251 0.36265 0.03804 0.0
H3312 H 0.20556 0.40539 0.01339 0.0
C3313 C 0.21454 0.38782 0.95031 0.0
C3314 C 0.20118 0.36459 0.98882 0.0
C3315 C 0.21523 0.38684 0.93202 0.0
C3316 C 0.19171 0.36925 0.06325 0.0
C3317 C 0.19137 0.36987 0.04496 0.0
C3318 C 0.20446 0.39389 0.0067 0.0
C3319 C 0.20331 0.37855 0.95977 0.0
C3320 C 0.20303 0.37897 0.97923 0.0
C3321 C 0.20234 0.37963 0.03572 0.0
C3322 C 0.20253 0.3795 0.01626 0.0
H3323 H 0.18487 0.35954 0.92567 0.0
H3324 H 0.18361 0.36143 0.95745 0.0
H3325 H 0.20597 0.40493 0.98133 0.0
H3326 H 0.22266 0.39568 0.07041 0.0
H3327 H 0.22212 0.39661 0.03845 0.0
C3328 C 0.19903 0.35185 0.19376 0.0
C3329 C 0.19047 0.34686 0.1788 0.0
C3330 C 0.19414 0.34685 0.21043 0.0
C3331 C 0.17346 0.31478 0.23363 0.0
H3332 H 0.16586 0.34677 0.26986 0.0
C3333 C 0.14614 0.29745 0.30063 0.0
C3334 C 0.15146 0.3059 0.31552 0.0
C3335 C 0.1508 0.30242 0.28387 0.0
C3336 C 0.16818 0.33763 0.26002 0.0
H3337 H 0.17023 0.33261 0.16945 0.0
H3338 H 0.16193 0.32356 0.19867 0.0
H3339 H 0.17455 0.35541 0.24078 0.0
H3340 H 0.16607 0.32593 0.32465 0.0
H3341 H 0.17478 0.33421 0.29552 0.0
H3342 H 0.16767 0.29692 0.25286 0.0
C3343 C 0.17232 0.33143 0.19744 0.0
C3344 C 0.17306 0.34262 0.24335 0.0
C3345 C 0.17702 0.33666 0.18078 0.0
C3346 C 0.16168 0.31928 0.31338 0.0
C3347 C 0.16657 0.32408 0.29665 0.0
C3348 C 0.16884 0.30975 0.25039 0.0
C3349 C 0.1808 0.33656 0.21239 0.0
C3350 C 0.17569 0.33124 0.23002 0.0
C3351 C 0.16111 0.31579 0.28165 0.0
C3352 C 0.1661 0.32111 0.2638 0.0
H3353 H 0.20939 0.35977 0.19261 0.0
H3354 H 0.20089 0.35089 0.22179 0.0
H3355 H 0.17557 0.30578 0.22356 0.0
H3356 H 0.13813 0.28717 0.3019 0.0
H3357 H 0.1461 0.29592 0.27266 0.0
C3358 C 0.66204 0.17867 0.18159 0.0
C3359 C 0.65218 0.19233 0.17952 0.0
C3360 C 0.66682 0.17368 0.1983 0.0
C3361 C 0.66964 0.188 0.24454 0.0
H3362 H 0.67463 0.14227 0.25422 0.0
C3363 C 0.67805 0.16136 0.31419 0.0
C3364 C 0.6914 0.15103 0.3161 0.0
C3365 C 0.6732 0.16648 0.29754 0.0
C3366 C 0.67334 0.15508 0.25163 0.0
H3367 H 0.6393 0.2113 0.19325 0.0
H3368 H 0.64706 0.20224 0.22243 0.0
H3369 H 0.66589 0.151 0.22517 0.0
H3370 H 0.70996 0.13771 0.30217 0.0
H3371 H 0.70119 0.14639 0.273 0.0
H3372 H 0.67662 0.19191 0.2713 0.0
C3373 C 0.6516 0.19566 0.21119 0.0
C3374 C 0.66843 0.16012 0.23498 0.0
C3375 C 0.64705 0.20082 0.19446 0.0
C3376 C 0.69968 0.14575 0.30107 0.0
C3377 C 0.69464 0.15062 0.28441 0.0
C3378 C 0.67427 0.18292 0.26127 0.0
C3379 C 0.66161 0.18206 0.21334 0.0
C3380 C 0.6666 0.17666 0.23117 0.0
C3381 C 0.68142 0.16109 0.28253 0.0
C3382 C 0.67625 0.16643 0.26491 0.0
H3383 H 0.66626 0.17197 0.17028 0.0
H3384 H 0.67479 0.16335 0.19938 0.0
H3385 H 0.66869 0.20084 0.24206 0.0
H3386 H 0.67147 0.16564 0.32556 0.0
H3387 H 0.66292 0.17449 0.29636 0.0
C3388 C 0.82056 0.66394 0.18014 0.0
C3389 C 0.8071 0.65376 0.17825 0.0
C3390 C 0.82552 0.66894 0.1968 0.0
C3391 C 0.82553 0.65697 0.24249 0.0
H3392 H 0.83091 0.7025 0.25293 0.0
C3393 C 0.83714 0.67912 0.31294 0.0
C3394 C 0.84719 0.69259 0.31534 0.0
C3395 C 0.83231 0.67453 0.29611 0.0
C3396 C 0.82975 0.68972 0.25019 0.0
H3397 H 0.78838 0.64067 0.1922 0.0
H3398 H 0.79733 0.64915 0.22135 0.0
H3399 H 0.82271 0.69416 0.22355 0.0
H3400 H 0.86036 0.71165 0.30209 0.0
H3401 H 0.85252 0.70327 0.27267 0.0
H3402 H 0.83303 0.65235 0.26882 0.0
C3403 C 0.8039 0.65335 0.20993 0.0
C3404 C 0.82497 0.68499 0.23338 0.0
C3405 C 0.79875 0.64859 0.19328 0.0
C3406 C 0.85246 0.7013 0.30061 0.0
C3407 C 0.84788 0.69654 0.28375 0.0
C3408 C 0.83059 0.66166 0.2592 0.0
C3409 C 0.8173 0.66359 0.21182 0.0
C3410 C 0.82271 0.66859 0.22946 0.0
C3411 C 0.83768 0.68312 0.28127 0.0
C3412 C 0.83265 0.67811 0.26333 0.0
H3413 H 0.82719 0.66812 0.16876 0.0
H3414 H 0.83594 0.67679 0.19798 0.0
H3415 H 0.82404 0.64423 0.23967 0.0
H3416 H 0.83279 0.67226 0.32408 0.0
H3417 H 0.8242 0.66435 0.29479 0.0
C3418 C 0.35175 0.79839 0.19355 0.0
C3419 C 0.34651 0.80681 0.17862 0.0
C3420 C 0.34704 0.8034 0.21027 0.0
C3421 C 0.32968 0.83862 0.23409 0.0
H3422 H 0.32238 0.8067 0.2705 0.0
C3423 C 0.29956 0.85265 0.30091 0.0
C3424 C 0.30822 0.84743 0.31572 0.0
C3425 C 0.30427 0.84781 0.28412 0.0
C3426 C 0.32447 0.81572 0.26045 0.0
H3427 H 0.33204 0.82689 0.16936 0.0
H3428 H 0.32324 0.83526 0.19846 0.0
H3429 H 0.33005 0.79789 0.24114 0.0
H3430 H 0.32848 0.83298 0.32465 0.0
H3431 H 0.33644 0.82421 0.29523 0.0
H3432 H 0.32353 0.85637 0.25345 0.0
C3433 C 0.3314 0.8251 0.19739 0.0
C3434 C 0.32895 0.81072 0.24365 0.0
C3435 C 0.33635 0.82024 0.18068 0.0
C3436 C 0.3216 0.8372 0.31345 0.0
C3437 C 0.32612 0.83213 0.29668 0.0
C3438 C 0.32493 0.84359 0.25082 0.0
C3439 C 0.33675 0.81679 0.21242 0.0
C3440 C 0.33171 0.82211 0.23026 0.0
C3441 C 0.31752 0.83745 0.28189 0.0
C3442 C 0.32237 0.83218 0.26415 0.0
H3443 H 0.35974 0.78808 0.19236 0.0
H3444 H 0.35169 0.7969 0.22152 0.0
H3445 H 0.332 0.84777 0.22426 0.0
H3446 H 0.28924 0.8606 0.30228 0.0
H3447 H 0.29742 0.852 0.27289 0.0
C3448 C 0.19856 0.64789 0.80219 0.0
C3449 C 0.18992 0.65303 0.81704 0.0
C3450 C 0.19348 0.65231 0.7854 0.0
C3451 C 0.17236 0.68336 0.76134 0.0
H3452 H 0.16508 0.65047 0.72599 0.0
C3453 C 0.14578 0.69934 0.69371 0.0
C3454 C 0.15124 0.69064 0.67906 0.0
C3455 C 0.15014 0.69457 0.71063 0.0
C3456 C 0.16731 0.65985 0.73558 0.0
H3457 H 0.16932 0.66692 0.82605 0.0
H3458 H 0.16071 0.67504 0.79658 0.0
H3459 H 0.17371 0.64259 0.75536 0.0
H3460 H 0.16566 0.67027 0.67051 0.0
H3461 H 0.1739 0.66234 0.69995 0.0
H3462 H 0.16664 0.70072 0.74157 0.0
C3463 C 0.1713 0.66746 0.79802 0.0
C3464 C 0.17215 0.65529 0.75242 0.0
C3465 C 0.17619 0.66278 0.81481 0.0
C3466 C 0.1612 0.67713 0.6816 0.0
C3467 C 0.16581 0.67253 0.69851 0.0
C3468 C 0.16782 0.68796 0.74441 0.0
C3469 C 0.17986 0.66219 0.78319 0.0
C3470 C 0.17466 0.66701 0.76542 0.0
C3471 C 0.16031 0.68116 0.71326 0.0
C3472 C 0.16519 0.67626 0.7313 0.0
H3473 H 0.20915 0.64029 0.80351 0.0
H3474 H 0.20031 0.64818 0.77413 0.0
H3475 H 0.17441 0.69261 0.77115 0.0
H3476 H 0.13793 0.70971 0.69213 0.0
H3477 H 0.14535 0.70131 0.72163 0.0
C3478 C 0.32092 0.16201 0.68242 0.0
C3479 C 0.30735 0.15209 0.67991 0.0
C3480 C 0.32546 0.16673 0.69931 0.0
C3481 C 0.32407 0.15462 0.7449 0.0
H3482 H 0.32958 0.2001 0.75546 0.0
C3483 C 0.33613 0.17681 0.81544 0.0
C3484 C 0.34631 0.19021 0.81763 0.0
C3485 C 0.33108 0.17218 0.79869 0.0
C3486 C 0.32838 0.18733 0.7527 0.0
H3487 H 0.28806 0.13909 0.69302 0.0
H3488 H 0.2963 0.14706 0.72261 0.0
H3489 H 0.32177 0.19184 0.72595 0.0
H3490 H 0.35951 0.20907 0.80408 0.0
H3491 H 0.35131 0.20063 0.77486 0.0
H3492 H 0.3312 0.14993 0.77134 0.0
C3493 C 0.30326 0.15129 0.71148 0.0
C3494 C 0.32381 0.18264 0.73582 0.0
C3495 C 0.29852 0.14682 0.69458 0.0
C3496 C 0.3515 0.19879 0.80278 0.0
C3497 C 0.3467 0.194 0.78603 0.0
C3498 C 0.32892 0.15926 0.76171 0.0
C3499 C 0.31671 0.16135 0.71396 0.0
C3500 C 0.32158 0.16627 0.73181 0.0
C3501 C 0.33634 0.18068 0.78374 0.0
C3502 C 0.33112 0.17569 0.76585 0.0
H3503 H 0.32792 0.16626 0.67134 0.0
H3504 H 0.33593 0.17443 0.70095 0.0
H3505 H 0.32255 0.14189 0.74202 0.0
H3506 H 0.33187 0.17004 0.8267 0.0
H3507 H 0.32288 0.16205 0.79752 0.0
C3508 C 0.83576 0.32371 0.68037 0.0
C3509 C 0.84564 0.31003 0.67841 0.0
C3510 C 0.83089 0.32873 0.69705 0.0
C3511 C 0.84249 0.3281 0.74295 0.0
H3512 H 0.79692 0.33365 0.75294 0.0
C3513 C 0.81961 0.33843 0.8134 0.0
C3514 C 0.80619 0.34852 0.81585 0.0
C3515 C 0.82439 0.33393 0.79652 0.0
C3516 C 0.80971 0.33245 0.75034 0.0
H3517 H 0.85843 0.29107 0.69231 0.0
H3518 H 0.8502 0.30012 0.72149 0.0
H3519 H 0.80549 0.32596 0.72349 0.0
H3520 H 0.7874 0.36211 0.80263 0.0
H3521 H 0.79609 0.35483 0.77317 0.0
H3522 H 0.84689 0.33502 0.76951 0.0
C3523 C 0.84612 0.30681 0.7101 0.0
C3524 C 0.81458 0.32797 0.73348 0.0
C3525 C 0.85074 0.3016 0.69343 0.0
C3526 C 0.79771 0.35417 0.80113 0.0
C3527 C 0.80265 0.3499 0.78423 0.0
C3528 C 0.83766 0.33286 0.75972 0.0
C3529 C 0.83609 0.32036 0.71204 0.0
C3530 C 0.83099 0.32563 0.7297 0.0
C3531 C 0.81602 0.33967 0.7817 0.0
C3532 C 0.82119 0.33497 0.7637 0.0
H3533 H 0.83163 0.33041 0.669 0.0
H3534 H 0.8232 0.33927 0.69827 0.0
H3535 H 0.85524 0.32652 0.74025 0.0
H3536 H 0.82631 0.33382 0.82454 0.0
H3537 H 0.83453 0.32578 0.79515 0.0
C3538 C 0.67627 0.83589 0.68104 0.0
C3539 C 0.68981 0.84589 0.67871 0.0
C3540 C 0.67167 0.83101 0.69786 0.0
C3541 C 0.67295 0.8427 0.74362 0.0
H3542 H 0.6683 0.79706 0.75387 0.0
C3543 C 0.66277 0.8199 0.81423 0.0
C3544 C 0.65293 0.80628 0.81663 0.0
C3545 C 0.66732 0.8247 0.79736 0.0
C3546 C 0.66925 0.80987 0.75121 0.0
H3547 H 0.70896 0.85888 0.69207 0.0
H3548 H 0.70062 0.85064 0.72151 0.0
H3549 H 0.67559 0.80566 0.72431 0.0
H3550 H 0.63983 0.78718 0.80336 0.0
H3551 H 0.64716 0.7959 0.77396 0.0
H3552 H 0.66612 0.84708 0.77022 0.0
C3553 C 0.69373 0.84647 0.71031 0.0
C3554 C 0.67351 0.81475 0.73429 0.0
C3555 C 0.69853 0.8511 0.69348 0.0
C3556 C 0.64759 0.79763 0.80189 0.0
C3557 C 0.65189 0.8026 0.78503 0.0
C3558 C 0.66839 0.83785 0.76046 0.0
C3559 C 0.68033 0.83631 0.71262 0.0
C3560 C 0.67548 0.83119 0.7304 0.0
C3561 C 0.66188 0.81616 0.78252 0.0
C3562 C 0.66657 0.82136 0.76452 0.0
H3563 H 0.66937 0.83169 0.66987 0.0
H3564 H 0.66125 0.82322 0.69937 0.0
H3565 H 0.67426 0.85547 0.74085 0.0
H3566 H 0.66714 0.82673 0.82539 0.0
H3567 H 0.67527 0.83501 0.79602 0.0
C3568 C 0.8371 0.67731 0.68245 0.0
C3569 C 0.84692 0.6909 0.67981 0.0
C3570 C 0.83261 0.6727 0.69938 0.0
C3571 C 0.83158 0.66 0.73641 0.0
H3572 H 0.82399 0.6926 0.77203 0.0
C3573 C 0.80051 0.64728 0.80285 0.0
C3574 C 0.80901 0.65252 0.81775 0.0
C3575 C 0.80553 0.65189 0.7861 0.0
C3576 C 0.82618 0.6834 0.7622 0.0
H3577 H 0.86006 0.71016 0.69274 0.0
H3578 H 0.85283 0.70178 0.72232 0.0
H3579 H 0.83161 0.70086 0.74245 0.0
H3580 H 0.82928 0.66682 0.82691 0.0
H3581 H 0.83779 0.67526 0.79752 0.0
H3582 H 0.82548 0.64261 0.75617 0.0
C3583 C 0.84809 0.69495 0.71136 0.0
C3584 C 0.83063 0.68809 0.74528 0.0
C3585 C 0.85233 0.69972 0.6944 0.0
C3586 C 0.82253 0.66259 0.81563 0.0
C3587 C 0.82736 0.66746 0.79888 0.0
C3588 C 0.82684 0.65535 0.75324 0.0
C3589 C 0.83811 0.68142 0.71408 0.0
C3590 C 0.83341 0.67644 0.73215 0.0
C3591 C 0.81895 0.66206 0.78399 0.0
C3592 C 0.82413 0.66701 0.76626 0.0
H3593 H 0.83267 0.67036 0.6714 0.0
H3594 H 0.82465 0.66242 0.70089 0.0
H3595 H 0.83394 0.65066 0.7268 0.0
H3596 H 0.7901 0.63944 0.80409 0.0
H3597 H 0.79882 0.64767 0.77479 0.0
C3598 C 0.33557 0.82178 0.81507 0.0
C3599 C 0.34542 0.80815 0.8173 0.0
C3600 C 0.33067 0.82652 0.7983 0.0
C3601 C 0.32779 0.81142 0.7523 0.0
H3602 H 0.32282 0.85696 0.74163 0.0
C3603 C 0.32075 0.83695 0.68204 0.0
C3604 C 0.30726 0.84699 0.67956 0.0
C3605 C 0.32527 0.83217 0.69891 0.0
C3606 C 0.32411 0.84421 0.7445 0.0
H3607 H 0.35823 0.78898 0.80381 0.0
H3608 H 0.35033 0.7976 0.77456 0.0
H3609 H 0.3313 0.84875 0.77096 0.0
H3610 H 0.28812 0.86017 0.69271 0.0
H3611 H 0.29634 0.8521 0.72228 0.0
H3612 H 0.32113 0.80704 0.72554 0.0
C3613 C 0.34583 0.80435 0.7857 0.0
C3614 C 0.32886 0.83947 0.76132 0.0
C3615 C 0.35046 0.79945 0.80248 0.0
C3616 C 0.29852 0.85235 0.69424 0.0
C3617 C 0.30324 0.84782 0.71113 0.0
C3618 C 0.32333 0.8162 0.73542 0.0
C3619 C 0.33579 0.8179 0.78337 0.0
C3620 C 0.33073 0.823 0.76546 0.0
C3621 C 0.31659 0.83762 0.71358 0.0
C3622 C 0.32141 0.83261 0.73141 0.0
H3623 H 0.33143 0.82865 0.82631 0.0
H3624 H 0.32271 0.83683 0.79709 0.0
H3625 H 0.32874 0.79863 0.75505 0.0
H3626 H 0.32768 0.83263 0.67093 0.0
H3627 H 0.33566 0.82436 0.70053 0.0
C3628 C 0.14617 0.29937 0.69386 0.0
C3629 C 0.15142 0.30809 0.67913 0.0
C3630 C 0.15079 0.30412 0.71071 0.0
C3631 C 0.16831 0.33882 0.73537 0.0
H3632 H 0.17603 0.30604 0.77077 0.0
C3633 C 0.20012 0.35097 0.80166 0.0
C3634 C 0.19164 0.34571 0.81657 0.0
C3635 C 0.19497 0.34651 0.7849 0.0
C3636 C 0.17382 0.3153 0.76101 0.0
H3637 H 0.16574 0.32846 0.67035 0.0
H3638 H 0.1744 0.33635 0.69965 0.0
H3639 H 0.16784 0.29795 0.74133 0.0
H3640 H 0.17128 0.33154 0.82572 0.0
H3641 H 0.16255 0.32338 0.79634 0.0
H3642 H 0.17493 0.35609 0.75507 0.0
C3643 C 0.16629 0.32617 0.69834 0.0
C3644 C 0.16903 0.3107 0.74416 0.0
C3645 C 0.16143 0.32159 0.68152 0.0
C3646 C 0.17802 0.33578 0.81444 0.0
C3647 C 0.17306 0.33107 0.79769 0.0
C3648 C 0.17338 0.34337 0.75213 0.0
C3649 C 0.161 0.31752 0.71318 0.0
C3650 C 0.16616 0.32241 0.73112 0.0
C3651 C 0.18145 0.33648 0.7828 0.0
C3652 C 0.17612 0.33165 0.76508 0.0
H3653 H 0.13829 0.28901 0.69241 0.0
H3654 H 0.14617 0.29736 0.72179 0.0
H3655 H 0.1659 0.34821 0.72584 0.0
H3656 H 0.21061 0.35871 0.80292 0.0
H3657 H 0.20166 0.35075 0.77358 0.0
C3658 C 0.67557 0.16194 0.681 0.0
C3659 C 0.68921 0.15201 0.67906 0.0
C3660 C 0.6706 0.1669 0.69767 0.0
C3661 C 0.67129 0.1556 0.74363 0.0
H3662 H 0.66572 0.20126 0.75319 0.0
C3663 C 0.66053 0.17904 0.8138 0.0
C3664 C 0.65041 0.19248 0.81604 0.0
C3665 C 0.66516 0.17413 0.79701 0.0
C3666 C 0.66693 0.18844 0.75071 0.0
H3667 H 0.70817 0.13922 0.69296 0.0
H3668 H 0.69922 0.14763 0.72213 0.0
H3669 H 0.67351 0.19246 0.72386 0.0
H3670 H 0.63688 0.21114 0.80253 0.0
H3671 H 0.64439 0.20222 0.77322 0.0
H3672 H 0.66428 0.1514 0.7702 0.0
C3673 C 0.69251 0.15167 0.71074 0.0
C3674 C 0.67147 0.18344 0.73392 0.0
C3675 C 0.69766 0.14695 0.69407 0.0
C3676 C 0.64486 0.20083 0.80119 0.0
C3677 C 0.64925 0.19575 0.78438 0.0
C3678 C 0.66648 0.16055 0.76034 0.0
C3679 C 0.67901 0.16176 0.71266 0.0
C3680 C 0.67379 0.167 0.73029 0.0
C3681 C 0.65951 0.18237 0.78206 0.0
C3682 C 0.66434 0.17706 0.76415 0.0
H3683 H 0.66885 0.16603 0.66964 0.0
H3684 H 0.6601 0.17463 0.69888 0.0
H3685 H 0.67286 0.14282 0.74105 0.0
H3686 H 0.66508 0.17245 0.82505 0.0
H3687 H 0.67333 0.16399 0.79581 0.0
C3688 C 0.79948 0.35355 0.19457 0.0
C3689 C 0.80804 0.34835 0.17972 0.0
C3690 C 0.80433 0.3488 0.21134 0.0
C3691 C 0.83919 0.33107 0.23552 0.0
H3692 H 0.80677 0.32321 0.27126 0.0
C3693 C 0.85218 0.29902 0.30147 0.0
C3694 C 0.84692 0.30731 0.31651 0.0
C3695 C 0.84754 0.30426 0.2848 0.0
C3696 C 0.81593 0.32546 0.2614 0.0
H3697 H 0.82824 0.33394 0.17066 0.0
H3698 H 0.83632 0.32506 0.19981 0.0
H3699 H 0.79839 0.33158 0.24196 0.0
H3700 H 0.83257 0.32741 0.32598 0.0
H3701 H 0.82411 0.33631 0.29676 0.0
H3702 H 0.85664 0.32434 0.25497 0.0
C3703 C 0.82617 0.33323 0.19865 0.0
C3704 C 0.81117 0.33034 0.24464 0.0
C3705 C 0.82148 0.33822 0.18191 0.0
C3706 C 0.83682 0.32083 0.3146 0.0
C3707 C 0.83193 0.32587 0.29793 0.0
C3708 C 0.84391 0.32591 0.2522 0.0
C3709 C 0.81769 0.3385 0.21361 0.0
C3710 C 0.82275 0.33326 0.23147 0.0
C3711 C 0.83732 0.31768 0.28291 0.0
C3712 C 0.83232 0.32312 0.26527 0.0
H3713 H 0.78916 0.36151 0.19327 0.0
H3714 H 0.79769 0.35338 0.22252 0.0
H3715 H 0.84848 0.3335 0.22589 0.0
H3716 H 0.86005 0.28861 0.30255 0.0
H3717 H 0.85177 0.29772 0.27338 0.0
C3718 C 0.66197 0.82028 0.18097 0.0
C3719 C 0.6518 0.80688 0.17875 0.0
C3720 C 0.66686 0.82501 0.19774 0.0
C3721 C 0.66915 0.81026 0.24389 0.0
H3722 H 0.67486 0.85581 0.25407 0.0
C3723 C 0.67694 0.8363 0.3139 0.0
C3724 C 0.69042 0.84641 0.31614 0.0
C3725 C 0.67231 0.83133 0.29712 0.0
C3726 C 0.67337 0.84305 0.25134 0.0
H3727 H 0.63848 0.78808 0.19228 0.0
H3728 H 0.64643 0.79668 0.22154 0.0
H3729 H 0.66631 0.84748 0.22482 0.0
H3730 H 0.70944 0.85947 0.30265 0.0
H3731 H 0.70106 0.85106 0.27327 0.0
H3732 H 0.67573 0.80602 0.2707 0.0
C3733 C 0.65113 0.80326 0.21038 0.0
C3734 C 0.66857 0.83824 0.23457 0.0
C3735 C 0.64648 0.79837 0.1936 0.0
C3736 C 0.69906 0.85161 0.30131 0.0
C3737 C 0.69423 0.84688 0.28452 0.0
C3738 C 0.67368 0.81512 0.26073 0.0
C3739 C 0.66144 0.81661 0.21269 0.0
C3740 C 0.66647 0.82176 0.23059 0.0
C3741 C 0.68087 0.83665 0.28231 0.0
C3742 C 0.67589 0.83154 0.26456 0.0
H3743 H 0.66633 0.827 0.16972 0.0
H3744 H 0.67505 0.83515 0.19893 0.0
H3745 H 0.66798 0.79746 0.24126 0.0
H3746 H 0.67009 0.83211 0.32512 0.0
H3747 H 0.66191 0.82351 0.29569 0.0
C3748 C 0.16268 0.67854 0.31327 0.0
C3749 C 0.15263 0.69204 0.31553 0.0
C3750 C 0.16753 0.67383 0.29649 0.0
C3751 C 0.17015 0.68879 0.25046 0.0
H3752 H 0.17576 0.64327 0.2401 0.0
C3753 C 0.17869 0.66295 0.18043 0.0
C3754 C 0.19211 0.65275 0.17836 0.0
C3755 C 0.17388 0.66793 0.19714 0.0
C3756 C 0.1743 0.65602 0.24288 0.0
H3757 H 0.13948 0.71099 0.30208 0.0
H3758 H 0.14737 0.70241 0.27277 0.0
H3759 H 0.16694 0.6515 0.26928 0.0
H3760 H 0.21091 0.63957 0.1921 0.0
H3761 H 0.20223 0.648 0.22136 0.0
H3762 H 0.17703 0.69314 0.22376 0.0
C3763 C 0.152 0.69575 0.28392 0.0
C3764 C 0.16934 0.66077 0.25961 0.0
C3765 C 0.14738 0.70063 0.30072 0.0
C3766 C 0.20056 0.6475 0.1933 0.0
C3767 C 0.19557 0.65224 0.21002 0.0
C3768 C 0.17483 0.684 0.23365 0.0
C3769 C 0.16221 0.68233 0.28157 0.0
C3770 C 0.16728 0.67724 0.26367 0.0
C3771 C 0.18223 0.66253 0.21207 0.0
C3772 C 0.17703 0.66759 0.22976 0.0
H3773 H 0.16699 0.67176 0.32449 0.0
H3774 H 0.17564 0.66364 0.29527 0.0
H3775 H 0.16901 0.70158 0.25315 0.0
H3776 H 0.17197 0.66718 0.16912 0.0
H3777 H 0.16351 0.6758 0.19844 0.0
C3778 C 0.31945 0.1618 0.31355 0.0
C3779 C 0.30624 0.15138 0.31591 0.0
C3780 C 0.32386 0.16686 0.29674 0.0
C3781 C 0.32292 0.15514 0.251 0.0
H3782 H 0.32735 0.20085 0.24102 0.0
C3783 C 0.33461 0.17828 0.18078 0.0
C3784 C 0.34453 0.1919 0.17876 0.0
C3785 C 0.3296 0.17342 0.19747 0.0
C3786 C 0.32644 0.18803 0.24361 0.0
H3787 H 0.28744 0.13786 0.30258 0.0
H3788 H 0.29545 0.14644 0.27312 0.0
H3789 H 0.31965 0.19209 0.27039 0.0
H3790 H 0.35728 0.21094 0.19254 0.0
H3791 H 0.34912 0.20211 0.22165 0.0
H3792 H 0.33024 0.15091 0.22452 0.0
C3793 C 0.30224 0.15079 0.28432 0.0
C3794 C 0.32194 0.18305 0.26042 0.0
C3795 C 0.29762 0.14597 0.30115 0.0
C3796 C 0.34947 0.20049 0.1937 0.0
C3797 C 0.3447 0.19547 0.2104 0.0
C3798 C 0.3277 0.16008 0.23426 0.0
C3799 C 0.31533 0.16134 0.282 0.0
C3800 C 0.32011 0.16658 0.26422 0.0
C3801 C 0.33463 0.1819 0.21251 0.0
C3802 C 0.3295 0.1766 0.23033 0.0
H3803 H 0.32628 0.16618 0.32471 0.0
H3804 H 0.33407 0.17493 0.29523 0.0
H3805 H 0.32172 0.14234 0.25371 0.0
H3806 H 0.33054 0.1715 0.16945 0.0
H3807 H 0.32161 0.16311 0.19851 0.0
loop_
_geom_bond_atom_site_label_1
_geom_bond_atom_site_label_2
_geom_bond_distance
_geom_bond_site_symmetry_2
_ccdc_geom_bond_type
Co0 O2 2.143 . S
Co0 O8 2.074 . S
Co0 O11 2.093 . S
Co0 O24 2.097 . S
Co0 N41 2.151 . S
Co0 N49 2.214 . S
Co1 O2 2.160 . S
Co1 O7 2.058 . S
Co1 O17 2.057 . S
Co1 O32 2.037 . S
Co1 N36 2.145 . S
Co1 N57 2.257 . S
O2 Co0 2.143 . S
O2 Co1 2.160 . S
C3 O4 1.278 . S
C3 O11 1.224 . S
O4 C3 1.278 . S
C5 O6 1.245 . S
C5 O17 1.232 . S
O6 C5 1.245 . S
O7 Co1 2.058 . S
O7 C33 1.269 . S
O8 Co0 2.074 . S
O8 C33 1.257 . S
H9 C34 0.930 . S
H10 C40 0.930 . S
O11 Co0 2.093 . S
O11 C3 1.224 . S
H12 C44 0.929 . S
H13 C46 0.930 . S
H14 C47 0.930 . S
H15 C45 0.929 . S
H16 C48 0.928 . S
O17 Co1 2.057 . S
O17 C5 1.232 . S
H18 C37 0.929 . S
H19 C38 0.929 . S
H20 C50 0.931 . S
H21 C42 0.929 . S
H22 C51 0.930 . S
H23 C43 0.931 . S
O24 Co0 2.097 . S
O24 C52 1.214 . S
H25 C53 0.929 . S
H26 C54 0.929 . S
H27 C55 0.930 . S
H28 C56 0.929 . S
H29 C58 0.930 . S
H30 C35 0.930 . S
H31 C39 0.930 . S
O32 Co1 2.037 . S
O32 C52 1.234 . S
C33 O7 1.269 . S
C33 O8 1.257 . S
C34 H9 0.930 . S
C34 C37 1.388 . S
C34 C39 1.418 . S
C35 H30 0.930 . S
C35 C38 1.404 . S
C35 C39 1.353 . S
N36 Co1 2.145 . S
N36 C37 1.397 . S
N36 C38 1.334 . S
C37 H18 0.929 . S
C37 C34 1.388 . S
C37 N36 1.397 . S
C38 H19 0.929 . S
C38 C35 1.404 . S
C38 N36 1.334 . S
C39 H31 0.930 . S
C39 C34 1.418 . S
C39 C35 1.353 . S
C40 H10 0.930 . S
C40 N41 1.330 . S
C40 C42 1.446 . S
N41 Co0 2.151 . S
N41 C40 1.330 . S
N41 C45 1.418 . S
C42 H21 0.929 . S
C42 C40 1.446 . S
C42 C43 1.332 . S
C43 H23 0.931 . S
C43 C42 1.332 . S
C43 C44 1.267 . S
C44 H12 0.929 . S
C44 C43 1.267 . S
C44 C45 1.251 . S
C45 H15 0.929 . S
C45 N41 1.418 . S
C45 C44 1.251 . S
C46 H13 0.930 . S
C46 C48 1.406 . S
C46 C51 1.261 . S
C47 H14 0.930 . S
C47 N49 1.325 . S
C47 C50 1.357 . S
C48 H16 0.928 . S
C48 C46 1.406 . S
C48 N49 1.261 . S
N49 Co0 2.214 . S
N49 C47 1.325 . S
N49 C48 1.261 . S
C50 H20 0.931 . S
C50 C47 1.357 . S
C50 C51 1.312 . S
C51 H22 0.930 . S
C51 C46 1.261 . S
C51 C50 1.312 . S
C52 O24 1.214 . S
C52 O32 1.234 . S
C53 H25 0.929 . S
C53 C56 1.391 . S
C53 C58 1.391 . S
C54 H26 0.929 . S
C54 C55 1.390 . S
C54 N57 1.391 . S
C55 H27 0.930 . S
C55 C54 1.390 . S
C55 C56 1.392 . S
C56 H28 0.929 . S
C56 C53 1.391 . S
C56 C55 1.392 . S
N57 Co1 2.257 . S
N57 C54 1.391 . S
N57 C58 1.388 . S
C58 H29 0.930 . S
C58 C53 1.391 . S
C58 N57 1.388 . S
Co59 O61 2.143 . S
Co59 O67 2.074 . S
Co59 O70 2.093 . S
Co59 O83 2.097 . S
Co59 N100 2.151 . S
Co59 N108 2.214 . S
Co60 O61 2.160 . S
Co60 O66 2.058 . S
Co60 O76 2.057 . S
Co60 O91 2.037 . S
Co60 N95 2.145 . S
Co60 N116 2.257 . S
O61 Co59 2.143 . S
O61 Co60 2.160 . S
C62 O63 1.278 . S
C62 O70 1.224 . S
O63 C62 1.278 . S
C64 O65 1.245 . S
C64 O76 1.232 . S
O65 C64 1.245 . S
O66 Co60 2.058 . S
O66 C92 1.269 . S
O67 Co59 2.074 . S
O67 C92 1.257 . S
H68 C93 0.930 . S
H69 C99 0.930 . S
O70 Co59 2.093 . S
O70 C62 1.224 . S
H71 C103 0.929 . S
H72 C105 0.930 . S
H73 C106 0.930 . S
H74 C104 0.929 . S
H75 C107 0.928 . S
O76 Co60 2.057 . S
O76 C64 1.232 . S
H77 C96 0.929 . S
H78 C97 0.929 . S
H79 C109 0.931 . S
H80 C101 0.929 . S
H81 C110 0.930 . S
H82 C102 0.931 . S
O83 Co59 2.097 . S
O83 C111 1.214 . S
H84 C112 0.929 . S
H85 C113 0.929 . S
H86 C114 0.930 . S
H87 C115 0.929 . S
H88 C117 0.930 . S
H89 C94 0.930 . S
H90 C98 0.930 . S
O91 Co60 2.037 . S
O91 C111 1.234 . S
C92 O66 1.269 . S
C92 O67 1.257 . S
C93 H68 0.930 . S
C93 C96 1.388 . S
C93 C98 1.418 . S
C94 H89 0.930 . S
C94 C97 1.404 . S
C94 C98 1.353 . S
N95 Co60 2.145 . S
N95 C96 1.397 . S
N95 C97 1.334 . S
C96 H77 0.929 . S
C96 C93 1.388 . S
C96 N95 1.397 . S
C97 H78 0.929 . S
C97 C94 1.404 . S
C97 N95 1.334 . S
C98 H90 0.930 . S
C98 C93 1.418 . S
C98 C94 1.353 . S
C99 H69 0.930 . S
C99 N100 1.330 . S
C99 C101 1.446 . S
N100 Co59 2.151 . S
N100 C99 1.330 . S
N100 C104 1.418 . S
C101 H80 0.929 . S
C101 C99 1.446 . S
C101 C102 1.332 . S
C102 H82 0.931 . S
C102 C101 1.332 . S
C102 C103 1.267 . S
C103 H71 0.929 . S
C103 C102 1.267 . S
C103 C104 1.251 . S
C104 H74 0.929 . S
C104 N100 1.418 . S
C104 C103 1.251 . S
C105 H72 0.930 . S
C105 C107 1.406 . S
C105 C110 1.261 . S
C106 H73 0.930 . S
C106 N108 1.325 . S
C106 C109 1.357 . S
C107 H75 0.928 . S
C107 C105 1.406 . S
C107 N108 1.261 . S
N108 Co59 2.214 . S
N108 C106 1.325 . S
N108 C107 1.261 . S
C109 H79 0.931 . S
C109 C106 1.357 . S
C109 C110 1.312 . S
C110 H81 0.930 . S
C110 C105 1.261 . S
C110 C109 1.312 . S
C111 O83 1.214 . S
C111 O91 1.234 . S
C112 H84 0.929 . S
C112 C115 1.391 . S
C112 C117 1.391 . S
C113 H85 0.929 . S
C113 C114 1.390 . S
C113 N116 1.391 . S
C114 H86 0.930 . S
C114 C113 1.390 . S
C114 C115 1.392 . S
C115 H87 0.929 . S
C115 C112 1.391 . S
C115 C114 1.392 . S
N116 Co60 2.257 . S
N116 C113 1.391 . S
N116 C117 1.388 . S
C117 H88 0.930 . S
C117 C112 1.391 . S
C117 N116 1.388 . S
Co118 O120 2.143 . S
Co118 O126 2.074 . S
Co118 O129 2.093 . S
Co118 O142 2.097 . S
Co118 N159 2.151 . S
Co118 N167 2.214 . S
Co119 O120 2.160 . S
Co119 O125 2.058 . S
Co119 O135 2.057 . S
Co119 O150 2.037 . S
Co119 N154 2.145 . S
Co119 N175 2.257 . S
O120 Co118 2.143 . S
O120 Co119 2.160 . S
C121 O122 1.278 . S
C121 O129 1.224 . S
O122 C121 1.278 . S
C123 O124 1.245 . S
C123 O135 1.232 . S
O124 C123 1.245 . S
O125 Co119 2.058 . S
O125 C151 1.269 . S
O126 Co118 2.074 . S
O126 C151 1.257 . S
H127 C152 0.930 . S
H128 C158 0.930 . S
O129 Co118 2.093 . S
O129 C121 1.224 . S
H130 C162 0.929 . S
H131 C164 0.930 . S
H132 C165 0.930 . S
H133 C163 0.929 . S
H134 C166 0.928 . S
O135 Co119 2.057 . S
O135 C123 1.232 . S
H136 C155 0.929 . S
H137 C156 0.929 . S
H138 C168 0.931 . S
H139 C160 0.929 . S
H140 C169 0.930 . S
H141 C161 0.931 . S
O142 Co118 2.097 . S
O142 C170 1.214 . S
H143 C171 0.929 . S
H144 C172 0.929 . S
H145 C173 0.930 . S
H146 C174 0.929 . S
H147 C176 0.930 . S
H148 C153 0.930 . S
H149 C157 0.930 . S
O150 Co119 2.037 . S
O150 C170 1.234 . S
C151 O125 1.269 . S
C151 O126 1.257 . S
C152 H127 0.930 . S
C152 C155 1.388 . S
C152 C157 1.418 . S
C153 H148 0.930 . S
C153 C156 1.404 . S
C153 C157 1.353 . S
N154 Co119 2.145 . S
N154 C155 1.397 . S
N154 C156 1.334 . S
C155 H136 0.929 . S
C155 C152 1.388 . S
C155 N154 1.397 . S
C156 H137 0.929 . S
C156 C153 1.404 . S
C156 N154 1.334 . S
C157 H149 0.930 . S
C157 C152 1.418 . S
C157 C153 1.353 . S
C158 H128 0.930 . S
C158 N159 1.330 . S
C158 C160 1.446 . S
N159 Co118 2.151 . S
N159 C158 1.330 . S
N159 C163 1.418 . S
C160 H139 0.929 . S
C160 C158 1.446 . S
C160 C161 1.332 . S
C161 H141 0.931 . S
C161 C160 1.332 . S
C161 C162 1.267 . S
C162 H130 0.929 . S
C162 C161 1.267 . S
C162 C163 1.251 . S
C163 H133 0.929 . S
C163 N159 1.418 . S
C163 C162 1.251 . S
C164 H131 0.930 . S
C164 C166 1.406 . S
C164 C169 1.261 . S
C165 H132 0.930 . S
C165 N167 1.325 . S
C165 C168 1.357 . S
C166 H134 0.928 . S
C166 C164 1.406 . S
C166 N167 1.261 . S
N167 Co118 2.214 . S
N167 C165 1.325 . S
N167 C166 1.261 . S
C168 H138 0.931 . S
C168 C165 1.357 . S
C168 C169 1.312 . S
C169 H140 0.930 . S
C169 C164 1.261 . S
C169 C168 1.312 . S
C170 O142 1.214 . S
C170 O150 1.234 . S
C171 H143 0.929 . S
C171 C174 1.391 . S
C171 C176 1.391 . S
C172 H144 0.929 . S
C172 C173 1.390 . S
C172 N175 1.391 . S
C173 H145 0.930 . S
C173 C172 1.390 . S
C173 C174 1.392 . S
C174 H146 0.929 . S
C174 C171 1.391 . S
C174 C173 1.392 . S
N175 Co119 2.257 . S
N175 C172 1.391 . S
N175 C176 1.388 . S
C176 H147 0.930 . S
C176 C171 1.391 . S
C176 N175 1.388 . S
Co177 O179 2.143 . S
Co177 O185 2.074 . S
Co177 O188 2.093 . S
Co177 O201 2.097 . S
Co177 N218 2.151 . S
Co177 N226 2.214 . S
Co178 O179 2.160 . S
Co178 O184 2.058 . S
Co178 O194 2.057 . S
Co178 O209 2.037 . S
Co178 N213 2.145 . S
Co178 N234 2.257 . S
O179 Co177 2.143 . S
O179 Co178 2.160 . S
C180 O181 1.278 . S
C180 O188 1.224 . S
O181 C180 1.278 . S
C182 O183 1.245 . S
C182 O194 1.232 . S
O183 C182 1.245 . S
O184 Co178 2.058 . S
O184 C210 1.269 . S
O185 Co177 2.074 . S
O185 C210 1.257 . S
H186 C211 0.930 . S
H187 C217 0.930 . S
O188 Co177 2.093 . S
O188 C180 1.224 . S
H189 C221 0.929 . S
H190 C223 0.930 . S
H191 C224 0.930 . S
H192 C222 0.929 . S
H193 C225 0.928 . S
O194 Co178 2.057 . S
O194 C182 1.232 . S
H195 C214 0.929 . S
H196 C215 0.929 . S
H197 C227 0.931 . S
H198 C219 0.929 . S
H199 C228 0.930 . S
H200 C220 0.931 . S
O201 Co177 2.097 . S
O201 C229 1.214 . S
H202 C230 0.929 . S
H203 C231 0.929 . S
H204 C232 0.930 . S
H205 C233 0.929 . S
H206 C235 0.930 . S
H207 C212 0.930 . S
H208 C216 0.930 . S
O209 Co178 2.037 . S
O209 C229 1.234 . S
C210 O184 1.269 . S
C210 O185 1.257 . S
C211 H186 0.930 . S
C211 C214 1.388 . S
C211 C216 1.418 . S
C212 H207 0.930 . S
C212 C215 1.404 . S
C212 C216 1.353 . S
N213 Co178 2.145 . S
N213 C214 1.397 . S
N213 C215 1.334 . S
C214 H195 0.929 . S
C214 C211 1.388 . S
C214 N213 1.397 . S
C215 H196 0.929 . S
C215 C212 1.404 . S
C215 N213 1.334 . S
C216 H208 0.930 . S
C216 C211 1.418 . S
C216 C212 1.353 . S
C217 H187 0.930 . S
C217 N218 1.330 . S
C217 C219 1.446 . S
N218 Co177 2.151 . S
N218 C217 1.330 . S
N218 C222 1.418 . S
C219 H198 0.929 . S
C219 C217 1.446 . S
C219 C220 1.332 . S
C220 H200 0.931 . S
C220 C219 1.332 . S
C220 C221 1.267 . S
C221 H189 0.929 . S
C221 C220 1.267 . S
C221 C222 1.251 . S
C222 H192 0.929 . S
C222 N218 1.418 . S
C222 C221 1.251 . S
C223 H190 0.930 . S
C223 C225 1.406 . S
C223 C228 1.261 . S
C224 H191 0.930 . S
C224 N226 1.325 . S
C224 C227 1.357 . S
C225 H193 0.928 . S
C225 C223 1.406 . S
C225 N226 1.261 . S
N226 Co177 2.214 . S
N226 C224 1.325 . S
N226 C225 1.261 . S
C227 H197 0.931 . S
C227 C224 1.357 . S
C227 C228 1.312 . S
C228 H199 0.930 . S
C228 C223 1.261 . S
C228 C227 1.312 . S
C229 O201 1.214 . S
C229 O209 1.234 . S
C230 H202 0.929 . S
C230 C233 1.391 . S
C230 C235 1.391 . S
C231 H203 0.929 . S
C231 C232 1.390 . S
C231 N234 1.391 . S
C232 H204 0.930 . S
C232 C231 1.390 . S
C232 C233 1.392 . S
C233 H205 0.929 . S
C233 C230 1.391 . S
C233 C232 1.392 . S
N234 Co178 2.257 . S
N234 C231 1.391 . S
N234 C235 1.388 . S
C235 H206 0.930 . S
C235 C230 1.391 . S
C235 N234 1.388 . S
Co236 O238 2.143 . S
Co236 O244 2.074 . S
Co236 O247 2.093 . S
Co236 O260 2.097 . S
Co236 N277 2.151 . S
Co236 N285 2.214 . S
Co237 O238 2.160 . S
Co237 O243 2.058 . S
Co237 O253 2.057 . S
Co237 O268 2.037 . S
Co237 N272 2.145 . S
Co237 N293 2.257 . S
O238 Co236 2.143 . S
O238 Co237 2.160 . S
C239 O240 1.278 . S
C239 O247 1.224 . S
O240 C239 1.278 . S
C241 O242 1.245 . S
C241 O253 1.232 . S
O242 C241 1.245 . S
O243 Co237 2.058 . S
O243 C269 1.269 . S
O244 Co236 2.074 . S
O244 C269 1.257 . S
H245 C270 0.930 . S
H246 C276 0.930 . S
O247 Co236 2.093 . S
O247 C239 1.224 . S
H248 C280 0.929 . S
H249 C282 0.930 . S
H250 C283 0.930 . S
H251 C281 0.929 . S
H252 C284 0.928 . S
O253 Co237 2.057 . S
O253 C241 1.232 . S
H254 C273 0.929 . S
H255 C274 0.929 . S
H256 C286 0.931 . S
H257 C278 0.929 . S
H258 C287 0.930 . S
H259 C279 0.931 . S
O260 Co236 2.097 . S
O260 C288 1.214 . S
H261 C289 0.929 . S
H262 C290 0.929 . S
H263 C291 0.930 . S
H264 C292 0.929 . S
H265 C294 0.930 . S
H266 C271 0.930 . S
H267 C275 0.930 . S
O268 Co237 2.037 . S
O268 C288 1.234 . S
C269 O243 1.269 . S
C269 O244 1.257 . S
C270 H245 0.930 . S
C270 C273 1.388 . S
C270 C275 1.418 . S
C271 H266 0.930 . S
C271 C274 1.404 . S
C271 C275 1.353 . S
N272 Co237 2.145 . S
N272 C273 1.397 . S
N272 C274 1.334 . S
C273 H254 0.929 . S
C273 C270 1.388 . S
C273 N272 1.397 . S
C274 H255 0.929 . S
C274 C271 1.404 . S
C274 N272 1.334 . S
C275 H267 0.930 . S
C275 C270 1.418 . S
C275 C271 1.353 . S
C276 H246 0.930 . S
C276 N277 1.330 . S
C276 C278 1.446 . S
N277 Co236 2.151 . S
N277 C276 1.330 . S
N277 C281 1.418 . S
C278 H257 0.929 . S
C278 C276 1.446 . S
C278 C279 1.332 . S
C279 H259 0.931 . S
C279 C278 1.332 . S
C279 C280 1.267 . S
C280 H248 0.929 . S
C280 C279 1.267 . S
C280 C281 1.251 . S
C281 H251 0.929 . S
C281 N277 1.418 . S
C281 C280 1.251 . S
C282 H249 0.930 . S
C282 C284 1.406 . S
C282 C287 1.261 . S
C283 H250 0.930 . S
C283 N285 1.325 . S
C283 C286 1.357 . S
C284 H252 0.928 . S
C284 C282 1.406 . S
C284 N285 1.261 . S
N285 Co236 2.214 . S
N285 C283 1.325 . S
N285 C284 1.261 . S
C286 H256 0.931 . S
C286 C283 1.357 . S
C286 C287 1.312 . S
C287 H258 0.930 . S
C287 C282 1.261 . S
C287 C286 1.312 . S
C288 O260 1.214 . S
C288 O268 1.234 . S
C289 H261 0.929 . S
C289 C292 1.391 . S
C289 C294 1.391 . S
C290 H262 0.929 . S
C290 C291 1.390 . S
C290 N293 1.391 . S
C291 H263 0.930 . S
C291 C290 1.390 . S
C291 C292 1.392 . S
C292 H264 0.929 . S
C292 C289 1.391 . S
C292 C291 1.392 . S
N293 Co237 2.257 . S
N293 C290 1.391 . S
N293 C294 1.388 . S
C294 H265 0.930 . S
C294 C289 1.391 . S
C294 N293 1.388 . S
Co295 O297 2.143 . S
Co295 O303 2.074 . S
Co295 O306 2.093 . S
Co295 O319 2.097 . S
Co295 N336 2.151 . S
Co295 N344 2.214 . S
Co296 O297 2.160 . S
Co296 O302 2.058 . S
Co296 O312 2.057 . S
Co296 O327 2.037 . S
Co296 N331 2.145 . S
Co296 N352 2.257 . S
O297 Co295 2.143 . S
O297 Co296 2.160 . S
C298 O299 1.278 . S
C298 O306 1.224 . S
O299 C298 1.278 . S
C300 O301 1.245 . S
C300 O312 1.232 . S
O301 C300 1.245 . S
O302 Co296 2.058 . S
O302 C328 1.269 . S
O303 Co295 2.074 . S
O303 C328 1.257 . S
H304 C329 0.930 . S
H305 C335 0.930 . S
O306 Co295 2.093 . S
O306 C298 1.224 . S
H307 C339 0.929 . S
H308 C341 0.930 . S
H309 C342 0.930 . S
H310 C340 0.929 . S
H311 C343 0.928 . S
O312 Co296 2.057 . S
O312 C300 1.232 . S
H313 C332 0.929 . S
H314 C333 0.929 . S
H315 C345 0.931 . S
H316 C337 0.929 . S
H317 C346 0.930 . S
H318 C338 0.931 . S
O319 Co295 2.097 . S
O319 C347 1.214 . S
H320 C348 0.929 . S
H321 C349 0.929 . S
H322 C350 0.930 . S
H323 C351 0.929 . S
H324 C353 0.930 . S
H325 C330 0.930 . S
H326 C334 0.930 . S
O327 Co296 2.037 . S
O327 C347 1.234 . S
C328 O302 1.269 . S
C328 O303 1.257 . S
C329 H304 0.930 . S
C329 C332 1.388 . S
C329 C334 1.418 . S
C330 H325 0.930 . S
C330 C333 1.404 . S
C330 C334 1.353 . S
N331 Co296 2.145 . S
N331 C332 1.397 . S
N331 C333 1.334 . S
C332 H313 0.929 . S
C332 C329 1.388 . S
C332 N331 1.397 . S
C333 H314 0.929 . S
C333 C330 1.404 . S
C333 N331 1.334 . S
C334 H326 0.930 . S
C334 C329 1.418 . S
C334 C330 1.353 . S
C335 H305 0.930 . S
C335 N336 1.330 . S
C335 C337 1.446 . S
N336 Co295 2.151 . S
N336 C335 1.330 . S
N336 C340 1.418 . S
C337 H316 0.929 . S
C337 C335 1.446 . S
C337 C338 1.332 . S
C338 H318 0.931 . S
C338 C337 1.332 . S
C338 C339 1.267 . S
C339 H307 0.929 . S
C339 C338 1.267 . S
C339 C340 1.251 . S
C340 H310 0.929 . S
C340 N336 1.418 . S
C340 C339 1.251 . S
C341 H308 0.930 . S
C341 C343 1.406 . S
C341 C346 1.261 . S
C342 H309 0.930 . S
C342 N344 1.325 . S
C342 C345 1.357 . S
C343 H311 0.928 . S
C343 C341 1.406 . S
C343 N344 1.261 . S
N344 Co295 2.214 . S
N344 C342 1.325 . S
N344 C343 1.261 . S
C345 H315 0.931 . S
C345 C342 1.357 . S
C345 C346 1.312 . S
C346 H317 0.930 . S
C346 C341 1.261 . S
C346 C345 1.312 . S
C347 O319 1.214 . S
C347 O327 1.234 . S
C348 H320 0.929 . S
C348 C351 1.391 . S
C348 C353 1.391 . S
C349 H321 0.929 . S
C349 C350 1.390 . S
C349 N352 1.391 . S
C350 H322 0.930 . S
C350 C349 1.390 . S
C350 C351 1.392 . S
C351 H323 0.929 . S
C351 C348 1.391 . S
C351 C350 1.392 . S
N352 Co296 2.257 . S
N352 C349 1.391 . S
N352 C353 1.388 . S
C353 H324 0.930 . S
C353 C348 1.391 . S
C353 N352 1.388 . S
Co354 O356 2.143 . S
Co354 O362 2.074 . S
Co354 O365 2.093 . S
Co354 O378 2.097 . S
Co354 N395 2.151 . S
Co354 N403 2.214 . S
Co355 O356 2.160 . S
Co355 O361 2.058 . S
Co355 O371 2.057 . S
Co355 O386 2.037 . S
Co355 N390 2.145 . S
Co355 N411 2.257 . S
O356 Co354 2.143 . S
O356 Co355 2.160 . S
C357 O358 1.278 . S
C357 O365 1.224 . S
O358 C357 1.278 . S
C359 O360 1.245 . S
C359 O371 1.232 . S
O360 C359 1.245 . S
O361 Co355 2.058 . S
O361 C387 1.269 . S
O362 Co354 2.074 . S
O362 C387 1.257 . S
H363 C388 0.930 . S
H364 C394 0.930 . S
O365 Co354 2.093 . S
O365 C357 1.224 . S
H366 C398 0.929 . S
H367 C400 0.930 . S
H368 C401 0.930 . S
H369 C399 0.929 . S
H370 C402 0.928 . S
O371 Co355 2.057 . S
O371 C359 1.232 . S
H372 C391 0.929 . S
H373 C392 0.929 . S
H374 C404 0.931 . S
H375 C396 0.929 . S
H376 C405 0.930 . S
H377 C397 0.931 . S
O378 Co354 2.097 . S
O378 C406 1.214 . S
H379 C407 0.929 . S
H380 C408 0.929 . S
H381 C409 0.930 . S
H382 C410 0.929 . S
H383 C412 0.930 . S
H384 C389 0.930 . S
H385 C393 0.930 . S
O386 Co355 2.037 . S
O386 C406 1.234 . S
C387 O361 1.269 . S
C387 O362 1.257 . S
C388 H363 0.930 . S
C388 C391 1.388 . S
C388 C393 1.418 . S
C389 H384 0.930 . S
C389 C392 1.404 . S
C389 C393 1.353 . S
N390 Co355 2.145 . S
N390 C391 1.397 . S
N390 C392 1.334 . S
C391 H372 0.929 . S
C391 C388 1.388 . S
C391 N390 1.397 . S
C392 H373 0.929 . S
C392 C389 1.404 . S
C392 N390 1.334 . S
C393 H385 0.930 . S
C393 C388 1.418 . S
C393 C389 1.353 . S
C394 H364 0.930 . S
C394 N395 1.330 . S
C394 C396 1.446 . S
N395 Co354 2.151 . S
N395 C394 1.330 . S
N395 C399 1.418 . S
C396 H375 0.929 . S
C396 C394 1.446 . S
C396 C397 1.332 . S
C397 H377 0.931 . S
C397 C396 1.332 . S
C397 C398 1.267 . S
C398 H366 0.929 . S
C398 C397 1.267 . S
C398 C399 1.251 . S
C399 H369 0.929 . S
C399 N395 1.418 . S
C399 C398 1.251 . S
C400 H367 0.930 . S
C400 C402 1.406 . S
C400 C405 1.261 . S
C401 H368 0.930 . S
C401 N403 1.325 . S
C401 C404 1.357 . S
C402 H370 0.928 . S
C402 C400 1.406 . S
C402 N403 1.261 . S
N403 Co354 2.214 . S
N403 C401 1.325 . S
N403 C402 1.261 . S
C404 H374 0.931 . S
C404 C401 1.357 . S
C404 C405 1.312 . S
C405 H376 0.930 . S
C405 C400 1.261 . S
C405 C404 1.312 . S
C406 O378 1.214 . S
C406 O386 1.234 . S
C407 H379 0.929 . S
C407 C410 1.391 . S
C407 C412 1.391 . S
C408 H380 0.929 . S
C408 C409 1.390 . S
C408 N411 1.391 . S
C409 H381 0.930 . S
C409 C408 1.390 . S
C409 C410 1.392 . S
C410 H382 0.929 . S
C410 C407 1.391 . S
C410 C409 1.392 . S
N411 Co355 2.257 . S
N411 C408 1.391 . S
N411 C412 1.388 . S
C412 H383 0.930 . S
C412 C407 1.391 . S
C412 N411 1.388 . S
Co413 O415 2.143 . S
Co413 O421 2.074 . S
Co413 O424 2.093 . S
Co413 O437 2.097 . S
Co413 N454 2.151 . S
Co413 N462 2.214 . S
Co414 O415 2.160 . S
Co414 O420 2.058 . S
Co414 O430 2.057 . S
Co414 O445 2.037 . S
Co414 N449 2.145 . S
Co414 N470 2.257 . S
O415 Co413 2.143 . S
O415 Co414 2.160 . S
C416 O417 1.278 . S
C416 O424 1.224 . S
O417 C416 1.278 . S
C418 O419 1.245 . S
C418 O430 1.232 . S
O419 C418 1.245 . S
O420 Co414 2.058 . S
O420 C446 1.269 . S
O421 Co413 2.074 . S
O421 C446 1.257 . S
H422 C447 0.930 . S
H423 C453 0.930 . S
O424 Co413 2.093 . S
O424 C416 1.224 . S
H425 C457 0.929 . S
H426 C459 0.930 . S
H427 C460 0.930 . S
H428 C458 0.929 . S
H429 C461 0.928 . S
O430 Co414 2.057 . S
O430 C418 1.232 . S
H431 C450 0.929 . S
H432 C451 0.929 . S
H433 C463 0.931 . S
H434 C455 0.929 . S
H435 C464 0.930 . S
H436 C456 0.931 . S
O437 Co413 2.097 . S
O437 C465 1.214 . S
H438 C466 0.929 . S
H439 C467 0.929 . S
H440 C468 0.930 . S
H441 C469 0.929 . S
H442 C471 0.930 . S
H443 C448 0.930 . S
H444 C452 0.930 . S
O445 Co414 2.037 . S
O445 C465 1.234 . S
C446 O420 1.269 . S
C446 O421 1.257 . S
C447 H422 0.930 . S
C447 C450 1.388 . S
C447 C452 1.418 . S
C448 H443 0.930 . S
C448 C451 1.404 . S
C448 C452 1.353 . S
N449 Co414 2.145 . S
N449 C450 1.397 . S
N449 C451 1.334 . S
C450 H431 0.929 . S
C450 C447 1.388 . S
C450 N449 1.397 . S
C451 H432 0.929 . S
C451 C448 1.404 . S
C451 N449 1.334 . S
C452 H444 0.930 . S
C452 C447 1.418 . S
C452 C448 1.353 . S
C453 H423 0.930 . S
C453 N454 1.330 . S
C453 C455 1.446 . S
N454 Co413 2.151 . S
N454 C453 1.330 . S
N454 C458 1.418 . S
C455 H434 0.929 . S
C455 C453 1.446 . S
C455 C456 1.332 . S
C456 H436 0.931 . S
C456 C455 1.332 . S
C456 C457 1.267 . S
C457 H425 0.929 . S
C457 C456 1.267 . S
C457 C458 1.251 . S
C458 H428 0.929 . S
C458 N454 1.418 . S
C458 C457 1.251 . S
C459 H426 0.930 . S
C459 C461 1.406 . S
C459 C464 1.261 . S
C460 H427 0.930 . S
C460 N462 1.325 . S
C460 C463 1.357 . S
C461 H429 0.928 . S
C461 C459 1.406 . S
C461 N462 1.261 . S
N462 Co413 2.214 . S
N462 C460 1.325 . S
N462 C461 1.261 . S
C463 H433 0.931 . S
C463 C460 1.357 . S
C463 C464 1.312 . S
C464 H435 0.930 . S
C464 C459 1.261 . S
C464 C463 1.312 . S
C465 O437 1.214 . S
C465 O445 1.234 . S
C466 H438 0.929 . S
C466 C469 1.391 . S
C466 C471 1.391 . S
C467 H439 0.929 . S
C467 C468 1.390 . S
C467 N470 1.391 . S
C468 H440 0.930 . S
C468 C467 1.390 . S
C468 C469 1.392 . S
C469 H441 0.929 . S
C469 C466 1.391 . S
C469 C468 1.392 . S
N470 Co414 2.257 . S
N470 C467 1.391 . S
N470 C471 1.388 . S
C471 H442 0.930 . S
C471 C466 1.391 . S
C471 N470 1.388 . S
Co472 O474 2.143 . S
Co472 O480 2.074 . S
Co472 O483 2.093 . S
Co472 O496 2.097 . S
Co472 N513 2.151 . S
Co472 N521 2.214 . S
Co473 O474 2.160 . S
Co473 O479 2.058 . S
Co473 O489 2.057 . S
Co473 O504 2.037 . S
Co473 N508 2.145 . S
Co473 N529 2.257 . S
O474 Co472 2.143 . S
O474 Co473 2.160 . S
C475 O476 1.278 . S
C475 O483 1.224 . S
O476 C475 1.278 . S
C477 O478 1.245 . S
C477 O489 1.232 . S
O478 C477 1.245 . S
O479 Co473 2.058 . S
O479 C505 1.269 . S
O480 Co472 2.074 . S
O480 C505 1.257 . S
H481 C506 0.930 . S
H482 C512 0.930 . S
O483 Co472 2.093 . S
O483 C475 1.224 . S
H484 C516 0.929 . S
H485 C518 0.930 . S
H486 C519 0.930 . S
H487 C517 0.929 . S
H488 C520 0.928 . S
O489 Co473 2.057 . S
O489 C477 1.232 . S
H490 C509 0.929 . S
H491 C510 0.929 . S
H492 C522 0.931 . S
H493 C514 0.929 . S
H494 C523 0.930 . S
H495 C515 0.931 . S
O496 Co472 2.097 . S
O496 C524 1.214 . S
H497 C525 0.929 . S
H498 C526 0.929 . S
H499 C527 0.930 . S
H500 C528 0.929 . S
H501 C530 0.930 . S
H502 C507 0.930 . S
H503 C511 0.930 . S
O504 Co473 2.037 . S
O504 C524 1.234 . S
C505 O479 1.269 . S
C505 O480 1.257 . S
C506 H481 0.930 . S
C506 C509 1.388 . S
C506 C511 1.418 . S
C507 H502 0.930 . S
C507 C510 1.404 . S
C507 C511 1.353 . S
N508 Co473 2.145 . S
N508 C509 1.397 . S
N508 C510 1.334 . S
C509 H490 0.929 . S
C509 C506 1.388 . S
C509 N508 1.397 . S
C510 H491 0.929 . S
C510 C507 1.404 . S
C510 N508 1.334 . S
C511 H503 0.930 . S
C511 C506 1.418 . S
C511 C507 1.353 . S
C512 H482 0.930 . S
C512 N513 1.330 . S
C512 C514 1.446 . S
N513 Co472 2.151 . S
N513 C512 1.330 . S
N513 C517 1.418 . S
C514 H493 0.929 . S
C514 C512 1.446 . S
C514 C515 1.332 . S
C515 H495 0.931 . S
C515 C514 1.332 . S
C515 C516 1.267 . S
C516 H484 0.929 . S
C516 C515 1.267 . S
C516 C517 1.251 . S
C517 H487 0.929 . S
C517 N513 1.418 . S
C517 C516 1.251 . S
C518 H485 0.930 . S
C518 C520 1.406 . S
C518 C523 1.261 . S
C519 H486 0.930 . S
C519 N521 1.325 . S
C519 C522 1.357 . S
C520 H488 0.928 . S
C520 C518 1.406 . S
C520 N521 1.261 . S
N521 Co472 2.214 . S
N521 C519 1.325 . S
N521 C520 1.261 . S
C522 H492 0.931 . S
C522 C519 1.357 . S
C522 C523 1.312 . S
C523 H494 0.930 . S
C523 C518 1.261 . S
C523 C522 1.312 . S
C524 O496 1.214 . S
C524 O504 1.234 . S
C525 H497 0.929 . S
C525 C528 1.391 . S
C525 C530 1.391 . S
C526 H498 0.929 . S
C526 C527 1.390 . S
C526 N529 1.391 . S
C527 H499 0.930 . S
C527 C526 1.390 . S
C527 C528 1.392 . S
C528 H500 0.929 . S
C528 C525 1.391 . S
C528 C527 1.392 . S
N529 Co473 2.257 . S
N529 C526 1.391 . S
N529 C530 1.388 . S
C530 H501 0.930 . S
C530 C525 1.391 . S
C530 N529 1.388 . S
Co531 O533 2.143 . S
Co531 O539 2.074 . S
Co531 O542 2.093 . S
Co531 O555 2.097 . S
Co531 N572 2.151 . S
Co531 N580 2.214 . S
Co532 O533 2.160 . S
Co532 O538 2.058 . S
Co532 O548 2.057 . S
Co532 O563 2.037 . S
Co532 N567 2.145 . S
Co532 N588 2.257 . S
O533 Co531 2.143 . S
O533 Co532 2.160 . S
C534 O535 1.278 . S
C534 O542 1.224 . S
O535 C534 1.278 . S
C536 O537 1.245 . S
C536 O548 1.232 . S
O537 C536 1.245 . S
O538 Co532 2.058 . S
O538 C564 1.269 . S
O539 Co531 2.074 . S
O539 C564 1.257 . S
H540 C565 0.930 . S
H541 C571 0.930 . S
O542 Co531 2.093 . S
O542 C534 1.224 . S
H543 C575 0.929 . S
H544 C577 0.930 . S
H545 C578 0.930 . S
H546 C576 0.929 . S
H547 C579 0.928 . S
O548 Co532 2.057 . S
O548 C536 1.232 . S
H549 C568 0.929 . S
H550 C569 0.929 . S
H551 C581 0.931 . S
H552 C573 0.929 . S
H553 C582 0.930 . S
H554 C574 0.931 . S
O555 Co531 2.097 . S
O555 C583 1.214 . S
H556 C584 0.929 . S
H557 C585 0.929 . S
H558 C586 0.930 . S
H559 C587 0.929 . S
H560 C589 0.930 . S
H561 C566 0.930 . S
H562 C570 0.930 . S
O563 Co532 2.037 . S
O563 C583 1.234 . S
C564 O538 1.269 . S
C564 O539 1.257 . S
C565 H540 0.930 . S
C565 C568 1.388 . S
C565 C570 1.418 . S
C566 H561 0.930 . S
C566 C569 1.404 . S
C566 C570 1.353 . S
N567 Co532 2.145 . S
N567 C568 1.397 . S
N567 C569 1.334 . S
C568 H549 0.929 . S
C568 C565 1.388 . S
C568 N567 1.397 . S
C569 H550 0.929 . S
C569 C566 1.404 . S
C569 N567 1.334 . S
C570 H562 0.930 . S
C570 C565 1.418 . S
C570 C566 1.353 . S
C571 H541 0.930 . S
C571 N572 1.330 . S
C571 C573 1.446 . S
N572 Co531 2.151 . S
N572 C571 1.330 . S
N572 C576 1.418 . S
C573 H552 0.929 . S
C573 C571 1.446 . S
C573 C574 1.332 . S
C574 H554 0.931 . S
C574 C573 1.332 . S
C574 C575 1.267 . S
C575 H543 0.929 . S
C575 C574 1.267 . S
C575 C576 1.251 . S
C576 H546 0.929 . S
C576 N572 1.418 . S
C576 C575 1.251 . S
C577 H544 0.930 . S
C577 C579 1.406 . S
C577 C582 1.261 . S
C578 H545 0.930 . S
C578 N580 1.325 . S
C578 C581 1.357 . S
C579 H547 0.928 . S
C579 C577 1.406 . S
C579 N580 1.261 . S
N580 Co531 2.214 . S
N580 C578 1.325 . S
N580 C579 1.261 . S
C581 H551 0.931 . S
C581 C578 1.357 . S
C581 C582 1.312 . S
C582 H553 0.930 . S
C582 C577 1.261 . S
C582 C581 1.312 . S
C583 O555 1.214 . S
C583 O563 1.234 . S
C584 H556 0.929 . S
C584 C587 1.391 . S
C584 C589 1.391 . S
C585 H557 0.929 . S
C585 C586 1.390 . S
C585 N588 1.391 . S
C586 H558 0.930 . S
C586 C585 1.390 . S
C586 C587 1.392 . S
C587 H559 0.929 . S
C587 C584 1.391 . S
C587 C586 1.392 . S
N588 Co532 2.257 . S
N588 C585 1.391 . S
N588 C589 1.388 . S
C589 H560 0.930 . S
C589 C584 1.391 . S
C589 N588 1.388 . S
Co590 O592 2.143 . S
Co590 O598 2.074 . S
Co590 O601 2.093 . S
Co590 O614 2.097 . S
Co590 N631 2.151 . S
Co590 N639 2.214 . S
Co591 O592 2.160 . S
Co591 O597 2.058 . S
Co591 O607 2.057 . S
Co591 O622 2.037 . S
Co591 N626 2.145 . S
Co591 N647 2.257 . S
O592 Co590 2.143 . S
O592 Co591 2.160 . S
C593 O594 1.278 . S
C593 O601 1.224 . S
O594 C593 1.278 . S
C595 O596 1.245 . S
C595 O607 1.232 . S
O596 C595 1.245 . S
O597 Co591 2.058 . S
O597 C623 1.269 . S
O598 Co590 2.074 . S
O598 C623 1.257 . S
H599 C624 0.930 . S
H600 C630 0.930 . S
O601 Co590 2.093 . S
O601 C593 1.224 . S
H602 C634 0.929 . S
H603 C636 0.930 . S
H604 C637 0.930 . S
H605 C635 0.929 . S
H606 C638 0.928 . S
O607 Co591 2.057 . S
O607 C595 1.232 . S
H608 C627 0.929 . S
H609 C628 0.929 . S
H610 C640 0.931 . S
H611 C632 0.929 . S
H612 C641 0.930 . S
H613 C633 0.931 . S
O614 Co590 2.097 . S
O614 C642 1.214 . S
H615 C643 0.929 . S
H616 C644 0.929 . S
H617 C645 0.930 . S
H618 C646 0.929 . S
H619 C648 0.930 . S
H620 C625 0.930 . S
H621 C629 0.930 . S
O622 Co591 2.037 . S
O622 C642 1.234 . S
C623 O597 1.269 . S
C623 O598 1.257 . S
C624 H599 0.930 . S
C624 C627 1.388 . S
C624 C629 1.418 . S
C625 H620 0.930 . S
C625 C628 1.404 . S
C625 C629 1.353 . S
N626 Co591 2.145 . S
N626 C627 1.397 . S
N626 C628 1.334 . S
C627 H608 0.929 . S
C627 C624 1.388 . S
C627 N626 1.397 . S
C628 H609 0.929 . S
C628 C625 1.404 . S
C628 N626 1.334 . S
C629 H621 0.930 . S
C629 C624 1.418 . S
C629 C625 1.353 . S
C630 H600 0.930 . S
C630 N631 1.330 . S
C630 C632 1.446 . S
N631 Co590 2.151 . S
N631 C630 1.330 . S
N631 C635 1.418 . S
C632 H611 0.929 . S
C632 C630 1.446 . S
C632 C633 1.332 . S
C633 H613 0.931 . S
C633 C632 1.332 . S
C633 C634 1.267 . S
C634 H602 0.929 . S
C634 C633 1.267 . S
C634 C635 1.251 . S
C635 H605 0.929 . S
C635 N631 1.418 . S
C635 C634 1.251 . S
C636 H603 0.930 . S
C636 C638 1.406 . S
C636 C641 1.261 . S
C637 H604 0.930 . S
C637 N639 1.325 . S
C637 C640 1.357 . S
C638 H606 0.928 . S
C638 C636 1.406 . S
C638 N639 1.261 . S
N639 Co590 2.214 . S
N639 C637 1.325 . S
N639 C638 1.261 . S
C640 H610 0.931 . S
C640 C637 1.357 . S
C640 C641 1.312 . S
C641 H612 0.930 . S
C641 C636 1.261 . S
C641 C640 1.312 . S
C642 O614 1.214 . S
C642 O622 1.234 . S
C643 H615 0.929 . S
C643 C646 1.391 . S
C643 C648 1.391 . S
C644 H616 0.929 . S
C644 C645 1.390 . S
C644 N647 1.391 . S
C645 H617 0.930 . S
C645 C644 1.390 . S
C645 C646 1.392 . S
C646 H618 0.929 . S
C646 C643 1.391 . S
C646 C645 1.392 . S
N647 Co591 2.257 . S
N647 C644 1.391 . S
N647 C648 1.388 . S
C648 H619 0.930 . S
C648 C643 1.391 . S
C648 N647 1.388 . S
Co649 O651 2.143 . S
Co649 O657 2.074 . S
Co649 O660 2.093 . S
Co649 O673 2.097 . S
Co649 N690 2.151 . S
Co649 N698 2.214 . S
Co650 O651 2.160 . S
Co650 O656 2.058 . S
Co650 O666 2.057 . S
Co650 O681 2.037 . S
Co650 N685 2.145 . S
Co650 N706 2.257 . S
O651 Co649 2.143 . S
O651 Co650 2.160 . S
C652 O653 1.278 . S
C652 O660 1.224 . S
O653 C652 1.278 . S
C654 O655 1.245 . S
C654 O666 1.232 . S
O655 C654 1.245 . S
O656 Co650 2.058 . S
O656 C682 1.269 . S
O657 Co649 2.074 . S
O657 C682 1.257 . S
H658 C683 0.930 . S
H659 C689 0.930 . S
O660 Co649 2.093 . S
O660 C652 1.224 . S
H661 C693 0.929 . S
H662 C695 0.930 . S
H663 C696 0.930 . S
H664 C694 0.929 . S
H665 C697 0.928 . S
O666 Co650 2.057 . S
O666 C654 1.232 . S
H667 C686 0.929 . S
H668 C687 0.929 . S
H669 C699 0.931 . S
H670 C691 0.929 . S
H671 C700 0.930 . S
H672 C692 0.931 . S
O673 Co649 2.097 . S
O673 C701 1.214 . S
H674 C702 0.929 . S
H675 C703 0.929 . S
H676 C704 0.930 . S
H677 C705 0.929 . S
H678 C707 0.930 . S
H679 C684 0.930 . S
H680 C688 0.930 . S
O681 Co650 2.037 . S
O681 C701 1.234 . S
C682 O656 1.269 . S
C682 O657 1.257 . S
C683 H658 0.930 . S
C683 C686 1.388 . S
C683 C688 1.418 . S
C684 H679 0.930 . S
C684 C687 1.404 . S
C684 C688 1.353 . S
N685 Co650 2.145 . S
N685 C686 1.397 . S
N685 C687 1.334 . S
C686 H667 0.929 . S
C686 C683 1.388 . S
C686 N685 1.397 . S
C687 H668 0.929 . S
C687 C684 1.404 . S
C687 N685 1.334 . S
C688 H680 0.930 . S
C688 C683 1.418 . S
C688 C684 1.353 . S
C689 H659 0.930 . S
C689 N690 1.330 . S
C689 C691 1.446 . S
N690 Co649 2.151 . S
N690 C689 1.330 . S
N690 C694 1.418 . S
C691 H670 0.929 . S
C691 C689 1.446 . S
C691 C692 1.332 . S
C692 H672 0.931 . S
C692 C691 1.332 . S
C692 C693 1.267 . S
C693 H661 0.929 . S
C693 C692 1.267 . S
C693 C694 1.251 . S
C694 H664 0.929 . S
C694 N690 1.418 . S
C694 C693 1.251 . S
C695 H662 0.930 . S
C695 C697 1.406 . S
C695 C700 1.261 . S
C696 H663 0.930 . S
C696 N698 1.325 . S
C696 C699 1.357 . S
C697 H665 0.928 . S
C697 C695 1.406 . S
C697 N698 1.261 . S
N698 Co649 2.214 . S
N698 C696 1.325 . S
N698 C697 1.261 . S
C699 H669 0.931 . S
C699 C696 1.357 . S
C699 C700 1.312 . S
C700 H671 0.930 . S
C700 C695 1.261 . S
C700 C699 1.312 . S
C701 O673 1.214 . S
C701 O681 1.234 . S
C702 H674 0.929 . S
C702 C705 1.391 . S
C702 C707 1.391 . S
C703 H675 0.929 . S
C703 C704 1.390 . S
C703 N706 1.391 . S
C704 H676 0.930 . S
C704 C703 1.390 . S
C704 C705 1.392 . S
C705 H677 0.929 . S
C705 C702 1.391 . S
C705 C704 1.392 . S
N706 Co650 2.257 . S
N706 C703 1.391 . S
N706 C707 1.388 . S
C707 H678 0.930 . S
C707 C702 1.391 . S
C707 N706 1.388 . S
Co708 O710 2.143 . S
Co708 O716 2.074 . S
Co708 O719 2.093 . S
Co708 O732 2.097 . S
Co708 N749 2.151 . S
Co708 N757 2.214 . S
Co709 O710 2.160 . S
Co709 O715 2.058 . S
Co709 O725 2.057 . S
Co709 O740 2.037 . S
Co709 N744 2.145 . S
Co709 N765 2.257 . S
O710 Co708 2.143 . S
O710 Co709 2.160 . S
C711 O712 1.278 . S
C711 O719 1.224 . S
O712 C711 1.278 . S
C713 O714 1.245 . S
C713 O725 1.232 . S
O714 C713 1.245 . S
O715 Co709 2.058 . S
O715 C741 1.269 . S
O716 Co708 2.074 . S
O716 C741 1.257 . S
H717 C742 0.930 . S
H718 C748 0.930 . S
O719 Co708 2.093 . S
O719 C711 1.224 . S
H720 C752 0.929 . S
H721 C754 0.930 . S
H722 C755 0.930 . S
H723 C753 0.929 . S
H724 C756 0.928 . S
O725 Co709 2.057 . S
O725 C713 1.232 . S
H726 C745 0.929 . S
H727 C746 0.929 . S
H728 C758 0.931 . S
H729 C750 0.929 . S
H730 C759 0.930 . S
H731 C751 0.931 . S
O732 Co708 2.097 . S
O732 C760 1.214 . S
H733 C761 0.929 . S
H734 C762 0.929 . S
H735 C763 0.930 . S
H736 C764 0.929 . S
H737 C766 0.930 . S
H738 C743 0.930 . S
H739 C747 0.930 . S
O740 Co709 2.037 . S
O740 C760 1.234 . S
C741 O715 1.269 . S
C741 O716 1.257 . S
C742 H717 0.930 . S
C742 C745 1.388 . S
C742 C747 1.418 . S
C743 H738 0.930 . S
C743 C746 1.404 . S
C743 C747 1.353 . S
N744 Co709 2.145 . S
N744 C745 1.397 . S
N744 C746 1.334 . S
C745 H726 0.929 . S
C745 C742 1.388 . S
C745 N744 1.397 . S
C746 H727 0.929 . S
C746 C743 1.404 . S
C746 N744 1.334 . S
C747 H739 0.930 . S
C747 C742 1.418 . S
C747 C743 1.353 . S
C748 H718 0.930 . S
C748 N749 1.330 . S
C748 C750 1.446 . S
N749 Co708 2.151 . S
N749 C748 1.330 . S
N749 C753 1.418 . S
C750 H729 0.929 . S
C750 C748 1.446 . S
C750 C751 1.332 . S
C751 H731 0.931 . S
C751 C750 1.332 . S
C751 C752 1.267 . S
C752 H720 0.929 . S
C752 C751 1.267 . S
C752 C753 1.251 . S
C753 H723 0.929 . S
C753 N749 1.418 . S
C753 C752 1.251 . S
C754 H721 0.930 . S
C754 C756 1.406 . S
C754 C759 1.261 . S
C755 H722 0.930 . S
C755 N757 1.325 . S
C755 C758 1.357 . S
C756 H724 0.928 . S
C756 C754 1.406 . S
C756 N757 1.261 . S
N757 Co708 2.214 . S
N757 C755 1.325 . S
N757 C756 1.261 . S
C758 H728 0.931 . S
C758 C755 1.357 . S
C758 C759 1.312 . S
C759 H730 0.930 . S
C759 C754 1.261 . S
C759 C758 1.312 . S
C760 O732 1.214 . S
C760 O740 1.234 . S
C761 H733 0.929 . S
C761 C764 1.391 . S
C761 C766 1.391 . S
C762 H734 0.929 . S
C762 C763 1.390 . S
C762 N765 1.391 . S
C763 H735 0.930 . S
C763 C762 1.390 . S
C763 C764 1.392 . S
C764 H736 0.929 . S
C764 C761 1.391 . S
C764 C763 1.392 . S
N765 Co709 2.257 . S
N765 C762 1.391 . S
N765 C766 1.388 . S
C766 H737 0.930 . S
C766 C761 1.391 . S
C766 N765 1.388 . S
Co767 O769 2.143 . S
Co767 O775 2.074 . S
Co767 O778 2.093 . S
Co767 O791 2.097 . S
Co767 N808 2.151 . S
Co767 N816 2.214 . S
Co768 O769 2.160 . S
Co768 O774 2.058 . S
Co768 O784 2.057 . S
Co768 O799 2.037 . S
Co768 N803 2.145 . S
Co768 N824 2.257 . S
O769 Co767 2.143 . S
O769 Co768 2.160 . S
C770 O771 1.278 . S
C770 O778 1.224 . S
O771 C770 1.278 . S
C772 O773 1.245 . S
C772 O784 1.232 . S
O773 C772 1.245 . S
O774 Co768 2.058 . S
O774 C800 1.269 . S
O775 Co767 2.074 . S
O775 C800 1.257 . S
H776 C801 0.930 . S
H777 C807 0.930 . S
O778 Co767 2.093 . S
O778 C770 1.224 . S
H779 C811 0.929 . S
H780 C813 0.930 . S
H781 C814 0.930 . S
H782 C812 0.929 . S
H783 C815 0.928 . S
O784 Co768 2.057 . S
O784 C772 1.232 . S
H785 C804 0.929 . S
H786 C805 0.929 . S
H787 C817 0.931 . S
H788 C809 0.929 . S
H789 C818 0.930 . S
H790 C810 0.931 . S
O791 Co767 2.097 . S
O791 C819 1.214 . S
H792 C820 0.929 . S
H793 C821 0.929 . S
H794 C822 0.930 . S
H795 C823 0.929 . S
H796 C825 0.930 . S
H797 C802 0.930 . S
H798 C806 0.930 . S
O799 Co768 2.037 . S
O799 C819 1.234 . S
C800 O774 1.269 . S
C800 O775 1.257 . S
C801 H776 0.930 . S
C801 C804 1.388 . S
C801 C806 1.418 . S
C802 H797 0.930 . S
C802 C805 1.404 . S
C802 C806 1.353 . S
N803 Co768 2.145 . S
N803 C804 1.397 . S
N803 C805 1.334 . S
C804 H785 0.929 . S
C804 C801 1.388 . S
C804 N803 1.397 . S
C805 H786 0.929 . S
C805 C802 1.404 . S
C805 N803 1.334 . S
C806 H798 0.930 . S
C806 C801 1.418 . S
C806 C802 1.353 . S
C807 H777 0.930 . S
C807 N808 1.330 . S
C807 C809 1.446 . S
N808 Co767 2.151 . S
N808 C807 1.330 . S
N808 C812 1.418 . S
C809 H788 0.929 . S
C809 C807 1.446 . S
C809 C810 1.332 . S
C810 H790 0.931 . S
C810 C809 1.332 . S
C810 C811 1.267 . S
C811 H779 0.929 . S
C811 C810 1.267 . S
C811 C812 1.251 . S
C812 H782 0.929 . S
C812 N808 1.418 . S
C812 C811 1.251 . S
C813 H780 0.930 . S
C813 C815 1.406 . S
C813 C818 1.261 . S
C814 H781 0.930 . S
C814 N816 1.325 . S
C814 C817 1.357 . S
C815 H783 0.928 . S
C815 C813 1.406 . S
C815 N816 1.261 . S
N816 Co767 2.214 . S
N816 C814 1.325 . S
N816 C815 1.261 . S
C817 H787 0.931 . S
C817 C814 1.357 . S
C817 C818 1.312 . S
C818 H789 0.930 . S
C818 C813 1.261 . S
C818 C817 1.312 . S
C819 O791 1.214 . S
C819 O799 1.234 . S
C820 H792 0.929 . S
C820 C823 1.391 . S
C820 C825 1.391 . S
C821 H793 0.929 . S
C821 C822 1.390 . S
C821 N824 1.391 . S
C822 H794 0.930 . S
C822 C821 1.390 . S
C822 C823 1.392 . S
C823 H795 0.929 . S
C823 C820 1.391 . S
C823 C822 1.392 . S
N824 Co768 2.257 . S
N824 C821 1.391 . S
N824 C825 1.388 . S
C825 H796 0.930 . S
C825 C820 1.391 . S
C825 N824 1.388 . S
Co826 O828 2.143 . S
Co826 O834 2.074 . S
Co826 O837 2.093 . S
Co826 O850 2.097 . S
Co826 N867 2.151 . S
Co826 N875 2.214 . S
Co827 O828 2.160 . S
Co827 O833 2.058 . S
Co827 O843 2.057 . S
Co827 O858 2.037 . S
Co827 N862 2.145 . S
Co827 N883 2.257 . S
O828 Co826 2.143 . S
O828 Co827 2.160 . S
C829 O830 1.278 . S
C829 O837 1.224 . S
O830 C829 1.278 . S
C831 O832 1.245 . S
C831 O843 1.232 . S
O832 C831 1.245 . S
O833 Co827 2.058 . S
O833 C859 1.269 . S
O834 Co826 2.074 . S
O834 C859 1.257 . S
H835 C860 0.930 . S
H836 C866 0.930 . S
O837 Co826 2.093 . S
O837 C829 1.224 . S
H838 C870 0.929 . S
H839 C872 0.930 . S
H840 C873 0.930 . S
H841 C871 0.929 . S
H842 C874 0.928 . S
O843 Co827 2.057 . S
O843 C831 1.232 . S
H844 C863 0.929 . S
H845 C864 0.929 . S
H846 C876 0.931 . S
H847 C868 0.929 . S
H848 C877 0.930 . S
H849 C869 0.931 . S
O850 Co826 2.097 . S
O850 C878 1.214 . S
H851 C879 0.929 . S
H852 C880 0.929 . S
H853 C881 0.930 . S
H854 C882 0.929 . S
H855 C884 0.930 . S
H856 C861 0.930 . S
H857 C865 0.930 . S
O858 Co827 2.037 . S
O858 C878 1.234 . S
C859 O833 1.269 . S
C859 O834 1.257 . S
C860 H835 0.930 . S
C860 C863 1.388 . S
C860 C865 1.418 . S
C861 H856 0.930 . S
C861 C864 1.404 . S
C861 C865 1.353 . S
N862 Co827 2.145 . S
N862 C863 1.397 . S
N862 C864 1.334 . S
C863 H844 0.929 . S
C863 C860 1.388 . S
C863 N862 1.397 . S
C864 H845 0.929 . S
C864 C861 1.404 . S
C864 N862 1.334 . S
C865 H857 0.930 . S
C865 C860 1.418 . S
C865 C861 1.353 . S
C866 H836 0.930 . S
C866 N867 1.330 . S
C866 C868 1.446 . S
N867 Co826 2.151 . S
N867 C866 1.330 . S
N867 C871 1.418 . S
C868 H847 0.929 . S
C868 C866 1.446 . S
C868 C869 1.332 . S
C869 H849 0.931 . S
C869 C868 1.332 . S
C869 C870 1.267 . S
C870 H838 0.929 . S
C870 C869 1.267 . S
C870 C871 1.251 . S
C871 H841 0.929 . S
C871 N867 1.418 . S
C871 C870 1.251 . S
C872 H839 0.930 . S
C872 C874 1.406 . S
C872 C877 1.261 . S
C873 H840 0.930 . S
C873 N875 1.325 . S
C873 C876 1.357 . S
C874 H842 0.928 . S
C874 C872 1.406 . S
C874 N875 1.261 . S
N875 Co826 2.214 . S
N875 C873 1.325 . S
N875 C874 1.261 . S
C876 H846 0.931 . S
C876 C873 1.357 . S
C876 C877 1.312 . S
C877 H848 0.930 . S
C877 C872 1.261 . S
C877 C876 1.312 . S
C878 O850 1.214 . S
C878 O858 1.234 . S
C879 H851 0.929 . S
C879 C882 1.391 . S
C879 C884 1.391 . S
C880 H852 0.929 . S
C880 C881 1.390 . S
C880 N883 1.391 . S
C881 H853 0.930 . S
C881 C880 1.390 . S
C881 C882 1.392 . S
C882 H854 0.929 . S
C882 C879 1.391 . S
C882 C881 1.392 . S
N883 Co827 2.257 . S
N883 C880 1.391 . S
N883 C884 1.388 . S
C884 H855 0.930 . S
C884 C879 1.391 . S
C884 N883 1.388 . S
Co885 O887 2.143 . S
Co885 O893 2.074 . S
Co885 O896 2.093 . S
Co885 O909 2.097 . S
Co885 N926 2.151 . S
Co885 N934 2.214 . S
Co886 O887 2.160 . S
Co886 O892 2.058 . S
Co886 O902 2.057 . S
Co886 O917 2.037 . S
Co886 N921 2.145 . S
Co886 N942 2.257 . S
O887 Co885 2.143 . S
O887 Co886 2.160 . S
C888 O889 1.278 . S
C888 O896 1.224 . S
O889 C888 1.278 . S
C890 O891 1.245 . S
C890 O902 1.232 . S
O891 C890 1.245 . S
O892 Co886 2.058 . S
O892 C918 1.269 . S
O893 Co885 2.074 . S
O893 C918 1.257 . S
H894 C919 0.930 . S
H895 C925 0.930 . S
O896 Co885 2.093 . S
O896 C888 1.224 . S
H897 C929 0.929 . S
H898 C931 0.930 . S
H899 C932 0.930 . S
H900 C930 0.929 . S
H901 C933 0.928 . S
O902 Co886 2.057 . S
O902 C890 1.232 . S
H903 C922 0.929 . S
H904 C923 0.929 . S
H905 C935 0.931 . S
H906 C927 0.929 . S
H907 C936 0.930 . S
H908 C928 0.931 . S
O909 Co885 2.097 . S
O909 C937 1.214 . S
H910 C938 0.929 . S
H911 C939 0.929 . S
H912 C940 0.930 . S
H913 C941 0.929 . S
H914 C943 0.930 . S
H915 C920 0.930 . S
H916 C924 0.930 . S
O917 Co886 2.037 . S
O917 C937 1.234 . S
C918 O892 1.269 . S
C918 O893 1.257 . S
C919 H894 0.930 . S
C919 C922 1.388 . S
C919 C924 1.418 . S
C920 H915 0.930 . S
C920 C923 1.404 . S
C920 C924 1.353 . S
N921 Co886 2.145 . S
N921 C922 1.397 . S
N921 C923 1.334 . S
C922 H903 0.929 . S
C922 C919 1.388 . S
C922 N921 1.397 . S
C923 H904 0.929 . S
C923 C920 1.404 . S
C923 N921 1.334 . S
C924 H916 0.930 . S
C924 C919 1.418 . S
C924 C920 1.353 . S
C925 H895 0.930 . S
C925 N926 1.330 . S
C925 C927 1.446 . S
N926 Co885 2.151 . S
N926 C925 1.330 . S
N926 C930 1.418 . S
C927 H906 0.929 . S
C927 C925 1.446 . S
C927 C928 1.332 . S
C928 H908 0.931 . S
C928 C927 1.332 . S
C928 C929 1.267 . S
C929 H897 0.929 . S
C929 C928 1.267 . S
C929 C930 1.251 . S
C930 H900 0.929 . S
C930 N926 1.418 . S
C930 C929 1.251 . S
C931 H898 0.930 . S
C931 C933 1.406 . S
C931 C936 1.261 . S
C932 H899 0.930 . S
C932 N934 1.325 . S
C932 C935 1.357 . S
C933 H901 0.928 . S
C933 C931 1.406 . S
C933 N934 1.261 . S
N934 Co885 2.214 . S
N934 C932 1.325 . S
N934 C933 1.261 . S
C935 H905 0.931 . S
C935 C932 1.357 . S
C935 C936 1.312 . S
C936 H907 0.930 . S
C936 C931 1.261 . S
C936 C935 1.312 . S
C937 O909 1.214 . S
C937 O917 1.234 . S
C938 H910 0.929 . S
C938 C941 1.391 . S
C938 C943 1.391 . S
C939 H911 0.929 . S
C939 C940 1.390 . S
C939 N942 1.391 . S
C940 H912 0.930 . S
C940 C939 1.390 . S
C940 C941 1.392 . S
C941 H913 0.929 . S
C941 C938 1.391 . S
C941 C940 1.392 . S
N942 Co886 2.257 . S
N942 C939 1.391 . S
N942 C943 1.388 . S
C943 H914 0.930 . S
C943 C938 1.391 . S
C943 N942 1.388 . S
Co944 O946 2.143 . S
Co944 O952 2.074 . S
Co944 O955 2.093 . S
Co944 O968 2.097 . S
Co944 N985 2.151 . S
Co944 N993 2.214 . S
Co945 O946 2.160 . S
Co945 O951 2.058 . S
Co945 O961 2.057 . S
Co945 O976 2.037 . S
Co945 N980 2.145 . S
Co945 N1001 2.257 . S
O946 Co944 2.143 . S
O946 Co945 2.160 . S
C947 O948 1.278 . S
C947 O955 1.224 . S
O948 C947 1.278 . S
C949 O950 1.245 . S
C949 O961 1.232 . S
O950 C949 1.245 . S
O951 Co945 2.058 . S
O951 C977 1.269 . S
O952 Co944 2.074 . S
O952 C977 1.257 . S
H953 C978 0.930 . S
H954 C984 0.930 . S
O955 Co944 2.093 . S
O955 C947 1.224 . S
H956 C988 0.929 . S
H957 C990 0.930 . S
H958 C991 0.930 . S
H959 C989 0.929 . S
H960 C992 0.928 . S
O961 Co945 2.057 . S
O961 C949 1.232 . S
H962 C981 0.929 . S
H963 C982 0.929 . S
H964 C994 0.931 . S
H965 C986 0.929 . S
H966 C995 0.930 . S
H967 C987 0.931 . S
O968 Co944 2.097 . S
O968 C996 1.214 . S
H969 C997 0.929 . S
H970 C998 0.929 . S
H971 C999 0.930 . S
H972 C1000 0.929 . S
H973 C1002 0.930 . S
H974 C979 0.930 . S
H975 C983 0.930 . S
O976 Co945 2.037 . S
O976 C996 1.234 . S
C977 O951 1.269 . S
C977 O952 1.257 . S
C978 H953 0.930 . S
C978 C981 1.388 . S
C978 C983 1.418 . S
C979 H974 0.930 . S
C979 C982 1.404 . S
C979 C983 1.353 . S
N980 Co945 2.145 . S
N980 C981 1.397 . S
N980 C982 1.334 . S
C981 H962 0.929 . S
C981 C978 1.388 . S
C981 N980 1.397 . S
C982 H963 0.929 . S
C982 C979 1.404 . S
C982 N980 1.334 . S
C983 H975 0.930 . S
C983 C978 1.418 . S
C983 C979 1.353 . S
C984 H954 0.930 . S
C984 N985 1.330 . S
C984 C986 1.446 . S
N985 Co944 2.151 . S
N985 C984 1.330 . S
N985 C989 1.418 . S
C986 H965 0.929 . S
C986 C984 1.446 . S
C986 C987 1.332 . S
C987 H967 0.931 . S
C987 C986 1.332 . S
C987 C988 1.267 . S
C988 H956 0.929 . S
C988 C987 1.267 . S
C988 C989 1.251 . S
C989 H959 0.929 . S
C989 N985 1.418 . S
C989 C988 1.251 . S
C990 H957 0.930 . S
C990 C992 1.406 . S
C990 C995 1.261 . S
C991 H958 0.930 . S
C991 N993 1.325 . S
C991 C994 1.357 . S
C992 H960 0.928 . S
C992 C990 1.406 . S
C992 N993 1.261 . S
N993 Co944 2.214 . S
N993 C991 1.325 . S
N993 C992 1.261 . S
C994 H964 0.931 . S
C994 C991 1.357 . S
C994 C995 1.312 . S
C995 H966 0.930 . S
C995 C990 1.261 . S
C995 C994 1.312 . S
C996 O968 1.214 . S
C996 O976 1.234 . S
C997 H969 0.929 . S
C997 C1000 1.391 . S
C997 C1002 1.391 . S
C998 H970 0.929 . S
C998 C999 1.390 . S
C998 N1001 1.391 . S
C999 H971 0.930 . S
C999 C998 1.390 . S
C999 C1000 1.392 . S
C1000 H972 0.929 . S
C1000 C997 1.391 . S
C1000 C999 1.392 . S
N1001 Co945 2.257 . S
N1001 C998 1.391 . S
N1001 C1002 1.388 . S
C1002 H973 0.930 . S
C1002 C997 1.391 . S
C1002 N1001 1.388 . S
Co1003 O1005 2.143 . S
Co1003 O1011 2.074 . S
Co1003 O1014 2.093 . S
Co1003 O1027 2.097 . S
Co1003 N1044 2.151 . S
Co1003 N1052 2.214 . S
Co1004 O1005 2.160 . S
Co1004 O1010 2.058 . S
Co1004 O1020 2.057 . S
Co1004 O1035 2.037 . S
Co1004 N1039 2.145 . S
Co1004 N1060 2.257 . S
O1005 Co1003 2.143 . S
O1005 Co1004 2.160 . S
C1006 O1007 1.278 . S
C1006 O1014 1.224 . S
O1007 C1006 1.278 . S
C1008 O1009 1.245 . S
C1008 O1020 1.232 . S
O1009 C1008 1.245 . S
O1010 Co1004 2.058 . S
O1010 C1036 1.269 . S
O1011 Co1003 2.074 . S
O1011 C1036 1.257 . S
H1012 C1037 0.930 . S
H1013 C1043 0.930 . S
O1014 Co1003 2.093 . S
O1014 C1006 1.224 . S
H1015 C1047 0.929 . S
H1016 C1049 0.930 . S
H1017 C1050 0.930 . S
H1018 C1048 0.929 . S
H1019 C1051 0.928 . S
O1020 Co1004 2.057 . S
O1020 C1008 1.232 . S
H1021 C1040 0.929 . S
H1022 C1041 0.929 . S
H1023 C1053 0.931 . S
H1024 C1045 0.929 . S
H1025 C1054 0.930 . S
H1026 C1046 0.931 . S
O1027 Co1003 2.097 . S
O1027 C1055 1.214 . S
H1028 C1056 0.929 . S
H1029 C1057 0.929 . S
H1030 C1058 0.930 . S
H1031 C1059 0.929 . S
H1032 C1061 0.930 . S
H1033 C1038 0.930 . S
H1034 C1042 0.930 . S
O1035 Co1004 2.037 . S
O1035 C1055 1.234 . S
C1036 O1010 1.269 . S
C1036 O1011 1.257 . S
C1037 H1012 0.930 . S
C1037 C1040 1.388 . S
C1037 C1042 1.418 . S
C1038 H1033 0.930 . S
C1038 C1041 1.404 . S
C1038 C1042 1.353 . S
N1039 Co1004 2.145 . S
N1039 C1040 1.397 . S
N1039 C1041 1.334 . S
C1040 H1021 0.929 . S
C1040 C1037 1.388 . S
C1040 N1039 1.397 . S
C1041 H1022 0.929 . S
C1041 C1038 1.404 . S
C1041 N1039 1.334 . S
C1042 H1034 0.930 . S
C1042 C1037 1.418 . S
C1042 C1038 1.353 . S
C1043 H1013 0.930 . S
C1043 N1044 1.330 . S
C1043 C1045 1.446 . S
N1044 Co1003 2.151 . S
N1044 C1043 1.330 . S
N1044 C1048 1.418 . S
C1045 H1024 0.929 . S
C1045 C1043 1.446 . S
C1045 C1046 1.332 . S
C1046 H1026 0.931 . S
C1046 C1045 1.332 . S
C1046 C1047 1.267 . S
C1047 H1015 0.929 . S
C1047 C1046 1.267 . S
C1047 C1048 1.251 . S
C1048 H1018 0.929 . S
C1048 N1044 1.418 . S
C1048 C1047 1.251 . S
C1049 H1016 0.930 . S
C1049 C1051 1.406 . S
C1049 C1054 1.261 . S
C1050 H1017 0.930 . S
C1050 N1052 1.325 . S
C1050 C1053 1.357 . S
C1051 H1019 0.928 . S
C1051 C1049 1.406 . S
C1051 N1052 1.261 . S
N1052 Co1003 2.214 . S
N1052 C1050 1.325 . S
N1052 C1051 1.261 . S
C1053 H1023 0.931 . S
C1053 C1050 1.357 . S
C1053 C1054 1.312 . S
C1054 H1025 0.930 . S
C1054 C1049 1.261 . S
C1054 C1053 1.312 . S
C1055 O1027 1.214 . S
C1055 O1035 1.234 . S
C1056 H1028 0.929 . S
C1056 C1059 1.391 . S
C1056 C1061 1.391 . S
C1057 H1029 0.929 . S
C1057 C1058 1.390 . S
C1057 N1060 1.391 . S
C1058 H1030 0.930 . S
C1058 C1057 1.390 . S
C1058 C1059 1.392 . S
C1059 H1031 0.929 . S
C1059 C1056 1.391 . S
C1059 C1058 1.392 . S
N1060 Co1004 2.257 . S
N1060 C1057 1.391 . S
N1060 C1061 1.388 . S
C1061 H1032 0.930 . S
C1061 C1056 1.391 . S
C1061 N1060 1.388 . S
Co1062 O1064 2.143 . S
Co1062 O1070 2.074 . S
Co1062 O1073 2.093 . S
Co1062 O1086 2.097 . S
Co1062 N1103 2.151 . S
Co1062 N1111 2.214 . S
Co1063 O1064 2.160 . S
Co1063 O1069 2.058 . S
Co1063 O1079 2.057 . S
Co1063 O1094 2.037 . S
Co1063 N1098 2.145 . S
Co1063 N1119 2.257 . S
O1064 Co1062 2.143 . S
O1064 Co1063 2.160 . S
C1065 O1066 1.278 . S
C1065 O1073 1.224 . S
O1066 C1065 1.278 . S
C1067 O1068 1.245 . S
C1067 O1079 1.232 . S
O1068 C1067 1.245 . S
O1069 Co1063 2.058 . S
O1069 C1095 1.269 . S
O1070 Co1062 2.074 . S
O1070 C1095 1.257 . S
H1071 C1096 0.930 . S
H1072 C1102 0.930 . S
O1073 Co1062 2.093 . S
O1073 C1065 1.224 . S
H1074 C1106 0.929 . S
H1075 C1108 0.930 . S
H1076 C1109 0.930 . S
H1077 C1107 0.929 . S
H1078 C1110 0.928 . S
O1079 Co1063 2.057 . S
O1079 C1067 1.232 . S
H1080 C1099 0.929 . S
H1081 C1100 0.929 . S
H1082 C1112 0.931 . S
H1083 C1104 0.929 . S
H1084 C1113 0.930 . S
H1085 C1105 0.931 . S
O1086 Co1062 2.097 . S
O1086 C1114 1.214 . S
H1087 C1115 0.929 . S
H1088 C1116 0.929 . S
H1089 C1117 0.930 . S
H1090 C1118 0.929 . S
H1091 C1120 0.930 . S
H1092 C1097 0.930 . S
H1093 C1101 0.930 . S
O1094 Co1063 2.037 . S
O1094 C1114 1.234 . S
C1095 O1069 1.269 . S
C1095 O1070 1.257 . S
C1096 H1071 0.930 . S
C1096 C1099 1.388 . S
C1096 C1101 1.418 . S
C1097 H1092 0.930 . S
C1097 C1100 1.404 . S
C1097 C1101 1.353 . S
N1098 Co1063 2.145 . S
N1098 C1099 1.397 . S
N1098 C1100 1.334 . S
C1099 H1080 0.929 . S
C1099 C1096 1.388 . S
C1099 N1098 1.397 . S
C1100 H1081 0.929 . S
C1100 C1097 1.404 . S
C1100 N1098 1.334 . S
C1101 H1093 0.930 . S
C1101 C1096 1.418 . S
C1101 C1097 1.353 . S
C1102 H1072 0.930 . S
C1102 N1103 1.330 . S
C1102 C1104 1.446 . S
N1103 Co1062 2.151 . S
N1103 C1102 1.330 . S
N1103 C1107 1.418 . S
C1104 H1083 0.929 . S
C1104 C1102 1.446 . S
C1104 C1105 1.332 . S
C1105 H1085 0.931 . S
C1105 C1104 1.332 . S
C1105 C1106 1.267 . S
C1106 H1074 0.929 . S
C1106 C1105 1.267 . S
C1106 C1107 1.251 . S
C1107 H1077 0.929 . S
C1107 N1103 1.418 . S
C1107 C1106 1.251 . S
C1108 H1075 0.930 . S
C1108 C1110 1.406 . S
C1108 C1113 1.261 . S
C1109 H1076 0.930 . S
C1109 N1111 1.325 . S
C1109 C1112 1.357 . S
C1110 H1078 0.928 . S
C1110 C1108 1.406 . S
C1110 N1111 1.261 . S
N1111 Co1062 2.214 . S
N1111 C1109 1.325 . S
N1111 C1110 1.261 . S
C1112 H1082 0.931 . S
C1112 C1109 1.357 . S
C1112 C1113 1.312 . S
C1113 H1084 0.930 . S
C1113 C1108 1.261 . S
C1113 C1112 1.312 . S
C1114 O1086 1.214 . S
C1114 O1094 1.234 . S
C1115 H1087 0.929 . S
C1115 C1118 1.391 . S
C1115 C1120 1.391 . S
C1116 H1088 0.929 . S
C1116 C1117 1.390 . S
C1116 N1119 1.391 . S
C1117 H1089 0.930 . S
C1117 C1116 1.390 . S
C1117 C1118 1.392 . S
C1118 H1090 0.929 . S
C1118 C1115 1.391 . S
C1118 C1117 1.392 . S
N1119 Co1063 2.257 . S
N1119 C1116 1.391 . S
N1119 C1120 1.388 . S
C1120 H1091 0.930 . S
C1120 C1115 1.391 . S
C1120 N1119 1.388 . S
Co1121 O1123 2.143 . S
Co1121 O1129 2.074 . S
Co1121 O1132 2.093 . S
Co1121 O1145 2.097 . S
Co1121 N1162 2.151 . S
Co1121 N1170 2.214 . S
Co1122 O1123 2.160 . S
Co1122 O1128 2.058 . S
Co1122 O1138 2.057 . S
Co1122 O1153 2.037 . S
Co1122 N1157 2.145 . S
Co1122 N1178 2.257 . S
O1123 Co1121 2.143 . S
O1123 Co1122 2.160 . S
C1124 O1125 1.278 . S
C1124 O1132 1.224 . S
O1125 C1124 1.278 . S
C1126 O1127 1.245 . S
C1126 O1138 1.232 . S
O1127 C1126 1.245 . S
O1128 Co1122 2.058 . S
O1128 C1154 1.269 . S
O1129 Co1121 2.074 . S
O1129 C1154 1.257 . S
H1130 C1155 0.930 . S
H1131 C1161 0.930 . S
O1132 Co1121 2.093 . S
O1132 C1124 1.224 . S
H1133 C1165 0.929 . S
H1134 C1167 0.930 . S
H1135 C1168 0.930 . S
H1136 C1166 0.929 . S
H1137 C1169 0.928 . S
O1138 Co1122 2.057 . S
O1138 C1126 1.232 . S
H1139 C1158 0.929 . S
H1140 C1159 0.929 . S
H1141 C1171 0.931 . S
H1142 C1163 0.929 . S
H1143 C1172 0.930 . S
H1144 C1164 0.931 . S
O1145 Co1121 2.097 . S
O1145 C1173 1.214 . S
H1146 C1174 0.929 . S
H1147 C1175 0.929 . S
H1148 C1176 0.930 . S
H1149 C1177 0.929 . S
H1150 C1179 0.930 . S
H1151 C1156 0.930 . S
H1152 C1160 0.930 . S
O1153 Co1122 2.037 . S
O1153 C1173 1.234 . S
C1154 O1128 1.269 . S
C1154 O1129 1.257 . S
C1155 H1130 0.930 . S
C1155 C1158 1.388 . S
C1155 C1160 1.418 . S
C1156 H1151 0.930 . S
C1156 C1159 1.404 . S
C1156 C1160 1.353 . S
N1157 Co1122 2.145 . S
N1157 C1158 1.397 . S
N1157 C1159 1.334 . S
C1158 H1139 0.929 . S
C1158 C1155 1.388 . S
C1158 N1157 1.397 . S
C1159 H1140 0.929 . S
C1159 C1156 1.404 . S
C1159 N1157 1.334 . S
C1160 H1152 0.930 . S
C1160 C1155 1.418 . S
C1160 C1156 1.353 . S
C1161 H1131 0.930 . S
C1161 N1162 1.330 . S
C1161 C1163 1.446 . S
N1162 Co1121 2.151 . S
N1162 C1161 1.330 . S
N1162 C1166 1.418 . S
C1163 H1142 0.929 . S
C1163 C1161 1.446 . S
C1163 C1164 1.332 . S
C1164 H1144 0.931 . S
C1164 C1163 1.332 . S
C1164 C1165 1.267 . S
C1165 H1133 0.929 . S
C1165 C1164 1.267 . S
C1165 C1166 1.251 . S
C1166 H1136 0.929 . S
C1166 N1162 1.418 . S
C1166 C1165 1.251 . S
C1167 H1134 0.930 . S
C1167 C1169 1.406 . S
C1167 C1172 1.261 . S
C1168 H1135 0.930 . S
C1168 N1170 1.325 . S
C1168 C1171 1.357 . S
C1169 H1137 0.928 . S
C1169 C1167 1.406 . S
C1169 N1170 1.261 . S
N1170 Co1121 2.214 . S
N1170 C1168 1.325 . S
N1170 C1169 1.261 . S
C1171 H1141 0.931 . S
C1171 C1168 1.357 . S
C1171 C1172 1.312 . S
C1172 H1143 0.930 . S
C1172 C1167 1.261 . S
C1172 C1171 1.312 . S
C1173 O1145 1.214 . S
C1173 O1153 1.234 . S
C1174 H1146 0.929 . S
C1174 C1177 1.391 . S
C1174 C1179 1.391 . S
C1175 H1147 0.929 . S
C1175 C1176 1.390 . S
C1175 N1178 1.391 . S
C1176 H1148 0.930 . S
C1176 C1175 1.390 . S
C1176 C1177 1.392 . S
C1177 H1149 0.929 . S
C1177 C1174 1.391 . S
C1177 C1176 1.392 . S
N1178 Co1122 2.257 . S
N1178 C1175 1.391 . S
N1178 C1179 1.388 . S
C1179 H1150 0.930 . S
C1179 C1174 1.391 . S
C1179 N1178 1.388 . S
Co1180 O1182 2.143 . S
Co1180 O1188 2.074 . S
Co1180 O1191 2.093 . S
Co1180 O1204 2.097 . S
Co1180 N1221 2.151 . S
Co1180 N1229 2.214 . S
Co1181 O1182 2.160 . S
Co1181 O1187 2.058 . S
Co1181 O1197 2.057 . S
Co1181 O1212 2.037 . S
Co1181 N1216 2.145 . S
Co1181 N1237 2.257 . S
O1182 Co1180 2.143 . S
O1182 Co1181 2.160 . S
C1183 O1184 1.278 . S
C1183 O1191 1.224 . S
O1184 C1183 1.278 . S
C1185 O1186 1.245 . S
C1185 O1197 1.232 . S
O1186 C1185 1.245 . S
O1187 Co1181 2.058 . S
O1187 C1213 1.269 . S
O1188 Co1180 2.074 . S
O1188 C1213 1.257 . S
H1189 C1214 0.930 . S
H1190 C1220 0.930 . S
O1191 Co1180 2.093 . S
O1191 C1183 1.224 . S
H1192 C1224 0.929 . S
H1193 C1226 0.930 . S
H1194 C1227 0.930 . S
H1195 C1225 0.929 . S
H1196 C1228 0.928 . S
O1197 Co1181 2.057 . S
O1197 C1185 1.232 . S
H1198 C1217 0.929 . S
H1199 C1218 0.929 . S
H1200 C1230 0.931 . S
H1201 C1222 0.929 . S
H1202 C1231 0.930 . S
H1203 C1223 0.931 . S
O1204 Co1180 2.097 . S
O1204 C1232 1.214 . S
H1205 C1233 0.929 . S
H1206 C1234 0.929 . S
H1207 C1235 0.930 . S
H1208 C1236 0.929 . S
H1209 C1238 0.930 . S
H1210 C1215 0.930 . S
H1211 C1219 0.930 . S
O1212 Co1181 2.037 . S
O1212 C1232 1.234 . S
C1213 O1187 1.269 . S
C1213 O1188 1.257 . S
C1214 H1189 0.930 . S
C1214 C1217 1.388 . S
C1214 C1219 1.418 . S
C1215 H1210 0.930 . S
C1215 C1218 1.404 . S
C1215 C1219 1.353 . S
N1216 Co1181 2.145 . S
N1216 C1217 1.397 . S
N1216 C1218 1.334 . S
C1217 H1198 0.929 . S
C1217 C1214 1.388 . S
C1217 N1216 1.397 . S
C1218 H1199 0.929 . S
C1218 C1215 1.404 . S
C1218 N1216 1.334 . S
C1219 H1211 0.930 . S
C1219 C1214 1.418 . S
C1219 C1215 1.353 . S
C1220 H1190 0.930 . S
C1220 N1221 1.330 . S
C1220 C1222 1.446 . S
N1221 Co1180 2.151 . S
N1221 C1220 1.330 . S
N1221 C1225 1.418 . S
C1222 H1201 0.929 . S
C1222 C1220 1.446 . S
C1222 C1223 1.332 . S
C1223 H1203 0.931 . S
C1223 C1222 1.332 . S
C1223 C1224 1.267 . S
C1224 H1192 0.929 . S
C1224 C1223 1.267 . S
C1224 C1225 1.251 . S
C1225 H1195 0.929 . S
C1225 N1221 1.418 . S
C1225 C1224 1.251 . S
C1226 H1193 0.930 . S
C1226 C1228 1.406 . S
C1226 C1231 1.261 . S
C1227 H1194 0.930 . S
C1227 N1229 1.325 . S
C1227 C1230 1.357 . S
C1228 H1196 0.928 . S
C1228 C1226 1.406 . S
C1228 N1229 1.261 . S
N1229 Co1180 2.214 . S
N1229 C1227 1.325 . S
N1229 C1228 1.261 . S
C1230 H1200 0.931 . S
C1230 C1227 1.357 . S
C1230 C1231 1.312 . S
C1231 H1202 0.930 . S
C1231 C1226 1.261 . S
C1231 C1230 1.312 . S
C1232 O1204 1.214 . S
C1232 O1212 1.234 . S
C1233 H1205 0.929 . S
C1233 C1236 1.391 . S
C1233 C1238 1.391 . S
C1234 H1206 0.929 . S
C1234 C1235 1.390 . S
C1234 N1237 1.391 . S
C1235 H1207 0.930 . S
C1235 C1234 1.390 . S
C1235 C1236 1.392 . S
C1236 H1208 0.929 . S
C1236 C1233 1.391 . S
C1236 C1235 1.392 . S
N1237 Co1181 2.257 . S
N1237 C1234 1.391 . S
N1237 C1238 1.388 . S
C1238 H1209 0.930 . S
C1238 C1233 1.391 . S
C1238 N1237 1.388 . S
Co1239 O1241 2.143 . S
Co1239 O1247 2.074 . S
Co1239 O1250 2.093 . S
Co1239 O1263 2.097 . S
Co1239 N1280 2.151 . S
Co1239 N1288 2.214 . S
Co1240 O1241 2.160 . S
Co1240 O1246 2.058 . S
Co1240 O1256 2.057 . S
Co1240 O1271 2.037 . S
Co1240 N1275 2.145 . S
Co1240 N1296 2.257 . S
O1241 Co1239 2.143 . S
O1241 Co1240 2.160 . S
C1242 O1243 1.278 . S
C1242 O1250 1.224 . S
O1243 C1242 1.278 . S
C1244 O1245 1.245 . S
C1244 O1256 1.232 . S
O1245 C1244 1.245 . S
O1246 Co1240 2.058 . S
O1246 C1272 1.269 . S
O1247 Co1239 2.074 . S
O1247 C1272 1.257 . S
H1248 C1273 0.930 . S
H1249 C1279 0.930 . S
O1250 Co1239 2.093 . S
O1250 C1242 1.224 . S
H1251 C1283 0.929 . S
H1252 C1285 0.930 . S
H1253 C1286 0.930 . S
H1254 C1284 0.929 . S
H1255 C1287 0.928 . S
O1256 Co1240 2.057 . S
O1256 C1244 1.232 . S
H1257 C1276 0.929 . S
H1258 C1277 0.929 . S
H1259 C1289 0.931 . S
H1260 C1281 0.929 . S
H1261 C1290 0.930 . S
H1262 C1282 0.931 . S
O1263 Co1239 2.097 . S
O1263 C1291 1.214 . S
H1264 C1292 0.929 . S
H1265 C1293 0.929 . S
H1266 C1294 0.930 . S
H1267 C1295 0.929 . S
H1268 C1297 0.930 . S
H1269 C1274 0.930 . S
H1270 C1278 0.930 . S
O1271 Co1240 2.037 . S
O1271 C1291 1.234 . S
C1272 O1246 1.269 . S
C1272 O1247 1.257 . S
C1273 H1248 0.930 . S
C1273 C1276 1.388 . S
C1273 C1278 1.418 . S
C1274 H1269 0.930 . S
C1274 C1277 1.404 . S
C1274 C1278 1.353 . S
N1275 Co1240 2.145 . S
N1275 C1276 1.397 . S
N1275 C1277 1.334 . S
C1276 H1257 0.929 . S
C1276 C1273 1.388 . S
C1276 N1275 1.397 . S
C1277 H1258 0.929 . S
C1277 C1274 1.404 . S
C1277 N1275 1.334 . S
C1278 H1270 0.930 . S
C1278 C1273 1.418 . S
C1278 C1274 1.353 . S
C1279 H1249 0.930 . S
C1279 N1280 1.330 . S
C1279 C1281 1.446 . S
N1280 Co1239 2.151 . S
N1280 C1279 1.330 . S
N1280 C1284 1.418 . S
C1281 H1260 0.929 . S
C1281 C1279 1.446 . S
C1281 C1282 1.332 . S
C1282 H1262 0.931 . S
C1282 C1281 1.332 . S
C1282 C1283 1.267 . S
C1283 H1251 0.929 . S
C1283 C1282 1.267 . S
C1283 C1284 1.251 . S
C1284 H1254 0.929 . S
C1284 N1280 1.418 . S
C1284 C1283 1.251 . S
C1285 H1252 0.930 . S
C1285 C1287 1.406 . S
C1285 C1290 1.261 . S
C1286 H1253 0.930 . S
C1286 N1288 1.325 . S
C1286 C1289 1.357 . S
C1287 H1255 0.928 . S
C1287 C1285 1.406 . S
C1287 N1288 1.261 . S
N1288 Co1239 2.214 . S
N1288 C1286 1.325 . S
N1288 C1287 1.261 . S
C1289 H1259 0.931 . S
C1289 C1286 1.357 . S
C1289 C1290 1.312 . S
C1290 H1261 0.930 . S
C1290 C1285 1.261 . S
C1290 C1289 1.312 . S
C1291 O1263 1.214 . S
C1291 O1271 1.234 . S
C1292 H1264 0.929 . S
C1292 C1295 1.391 . S
C1292 C1297 1.391 . S
C1293 H1265 0.929 . S
C1293 C1294 1.390 . S
C1293 N1296 1.391 . S
C1294 H1266 0.930 . S
C1294 C1293 1.390 . S
C1294 C1295 1.392 . S
C1295 H1267 0.929 . S
C1295 C1292 1.391 . S
C1295 C1294 1.392 . S
N1296 Co1240 2.257 . S
N1296 C1293 1.391 . S
N1296 C1297 1.388 . S
C1297 H1268 0.930 . S
C1297 C1292 1.391 . S
C1297 N1296 1.388 . S
Co1298 O1300 2.143 . S
Co1298 O1306 2.074 . S
Co1298 O1309 2.093 . S
Co1298 O1322 2.097 . S
Co1298 N1339 2.151 . S
Co1298 N1347 2.214 . S
Co1299 O1300 2.160 . S
Co1299 O1305 2.058 . S
Co1299 O1315 2.057 . S
Co1299 O1330 2.037 . S
Co1299 N1334 2.145 . S
Co1299 N1355 2.257 . S
O1300 Co1298 2.143 . S
O1300 Co1299 2.160 . S
C1301 O1302 1.278 . S
C1301 O1309 1.224 . S
O1302 C1301 1.278 . S
C1303 O1304 1.245 . S
C1303 O1315 1.232 . S
O1304 C1303 1.245 . S
O1305 Co1299 2.058 . S
O1305 C1331 1.269 . S
O1306 Co1298 2.074 . S
O1306 C1331 1.257 . S
H1307 C1332 0.930 . S
H1308 C1338 0.930 . S
O1309 Co1298 2.093 . S
O1309 C1301 1.224 . S
H1310 C1342 0.929 . S
H1311 C1344 0.930 . S
H1312 C1345 0.930 . S
H1313 C1343 0.929 . S
H1314 C1346 0.928 . S
O1315 Co1299 2.057 . S
O1315 C1303 1.232 . S
H1316 C1335 0.929 . S
H1317 C1336 0.929 . S
H1318 C1348 0.931 . S
H1319 C1340 0.929 . S
H1320 C1349 0.930 . S
H1321 C1341 0.931 . S
O1322 Co1298 2.097 . S
O1322 C1350 1.214 . S
H1323 C1351 0.929 . S
H1324 C1352 0.929 . S
H1325 C1353 0.930 . S
H1326 C1354 0.929 . S
H1327 C1356 0.930 . S
H1328 C1333 0.930 . S
H1329 C1337 0.930 . S
O1330 Co1299 2.037 . S
O1330 C1350 1.234 . S
C1331 O1305 1.269 . S
C1331 O1306 1.257 . S
C1332 H1307 0.930 . S
C1332 C1335 1.388 . S
C1332 C1337 1.418 . S
C1333 H1328 0.930 . S
C1333 C1336 1.404 . S
C1333 C1337 1.353 . S
N1334 Co1299 2.145 . S
N1334 C1335 1.397 . S
N1334 C1336 1.334 . S
C1335 H1316 0.929 . S
C1335 C1332 1.388 . S
C1335 N1334 1.397 . S
C1336 H1317 0.929 . S
C1336 C1333 1.404 . S
C1336 N1334 1.334 . S
C1337 H1329 0.930 . S
C1337 C1332 1.418 . S
C1337 C1333 1.353 . S
C1338 H1308 0.930 . S
C1338 N1339 1.330 . S
C1338 C1340 1.446 . S
N1339 Co1298 2.151 . S
N1339 C1338 1.330 . S
N1339 C1343 1.418 . S
C1340 H1319 0.929 . S
C1340 C1338 1.446 . S
C1340 C1341 1.332 . S
C1341 H1321 0.931 . S
C1341 C1340 1.332 . S
C1341 C1342 1.267 . S
C1342 H1310 0.929 . S
C1342 C1341 1.267 . S
C1342 C1343 1.251 . S
C1343 H1313 0.929 . S
C1343 N1339 1.418 . S
C1343 C1342 1.251 . S
C1344 H1311 0.930 . S
C1344 C1346 1.406 . S
C1344 C1349 1.261 . S
C1345 H1312 0.930 . S
C1345 N1347 1.325 . S
C1345 C1348 1.357 . S
C1346 H1314 0.928 . S
C1346 C1344 1.406 . S
C1346 N1347 1.261 . S
N1347 Co1298 2.214 . S
N1347 C1345 1.325 . S
N1347 C1346 1.261 . S
C1348 H1318 0.931 . S
C1348 C1345 1.357 . S
C1348 C1349 1.312 . S
C1349 H1320 0.930 . S
C1349 C1344 1.261 . S
C1349 C1348 1.312 . S
C1350 O1322 1.214 . S
C1350 O1330 1.234 . S
C1351 H1323 0.929 . S
C1351 C1354 1.391 . S
C1351 C1356 1.391 . S
C1352 H1324 0.929 . S
C1352 C1353 1.390 . S
C1352 N1355 1.391 . S
C1353 H1325 0.930 . S
C1353 C1352 1.390 . S
C1353 C1354 1.392 . S
C1354 H1326 0.929 . S
C1354 C1351 1.391 . S
C1354 C1353 1.392 . S
N1355 Co1299 2.257 . S
N1355 C1352 1.391 . S
N1355 C1356 1.388 . S
C1356 H1327 0.930 . S
C1356 C1351 1.391 . S
C1356 N1355 1.388 . S
Co1357 O1359 2.143 . S
Co1357 O1365 2.074 . S
Co1357 O1368 2.093 . S
Co1357 O1381 2.097 . S
Co1357 N1398 2.151 . S
Co1357 N1406 2.214 . S
Co1358 O1359 2.160 . S
Co1358 O1364 2.058 . S
Co1358 O1374 2.057 . S
Co1358 O1389 2.037 . S
Co1358 N1393 2.145 . S
Co1358 N1414 2.257 . S
O1359 Co1357 2.143 . S
O1359 Co1358 2.160 . S
C1360 O1361 1.278 . S
C1360 O1368 1.224 . S
O1361 C1360 1.278 . S
C1362 O1363 1.245 . S
C1362 O1374 1.232 . S
O1363 C1362 1.245 . S
O1364 Co1358 2.058 . S
O1364 C1390 1.269 . S
O1365 Co1357 2.074 . S
O1365 C1390 1.257 . S
H1366 C1391 0.930 . S
H1367 C1397 0.930 . S
O1368 Co1357 2.093 . S
O1368 C1360 1.224 . S
H1369 C1401 0.929 . S
H1370 C1403 0.930 . S
H1371 C1404 0.930 . S
H1372 C1402 0.929 . S
H1373 C1405 0.928 . S
O1374 Co1358 2.057 . S
O1374 C1362 1.232 . S
H1375 C1394 0.929 . S
H1376 C1395 0.929 . S
H1377 C1407 0.931 . S
H1378 C1399 0.929 . S
H1379 C1408 0.930 . S
H1380 C1400 0.931 . S
O1381 Co1357 2.097 . S
O1381 C1409 1.214 . S
H1382 C1410 0.929 . S
H1383 C1411 0.929 . S
H1384 C1412 0.930 . S
H1385 C1413 0.929 . S
H1386 C1415 0.930 . S
H1387 C1392 0.930 . S
H1388 C1396 0.930 . S
O1389 Co1358 2.037 . S
O1389 C1409 1.234 . S
C1390 O1364 1.269 . S
C1390 O1365 1.257 . S
C1391 H1366 0.930 . S
C1391 C1394 1.388 . S
C1391 C1396 1.418 . S
C1392 H1387 0.930 . S
C1392 C1395 1.404 . S
C1392 C1396 1.353 . S
N1393 Co1358 2.145 . S
N1393 C1394 1.397 . S
N1393 C1395 1.334 . S
C1394 H1375 0.929 . S
C1394 C1391 1.388 . S
C1394 N1393 1.397 . S
C1395 H1376 0.929 . S
C1395 C1392 1.404 . S
C1395 N1393 1.334 . S
C1396 H1388 0.930 . S
C1396 C1391 1.418 . S
C1396 C1392 1.353 . S
C1397 H1367 0.930 . S
C1397 N1398 1.330 . S
C1397 C1399 1.446 . S
N1398 Co1357 2.151 . S
N1398 C1397 1.330 . S
N1398 C1402 1.418 . S
C1399 H1378 0.929 . S
C1399 C1397 1.446 . S
C1399 C1400 1.332 . S
C1400 H1380 0.931 . S
C1400 C1399 1.332 . S
C1400 C1401 1.267 . S
C1401 H1369 0.929 . S
C1401 C1400 1.267 . S
C1401 C1402 1.251 . S
C1402 H1372 0.929 . S
C1402 N1398 1.418 . S
C1402 C1401 1.251 . S
C1403 H1370 0.930 . S
C1403 C1405 1.406 . S
C1403 C1408 1.261 . S
C1404 H1371 0.930 . S
C1404 N1406 1.325 . S
C1404 C1407 1.357 . S
C1405 H1373 0.928 . S
C1405 C1403 1.406 . S
C1405 N1406 1.261 . S
N1406 Co1357 2.214 . S
N1406 C1404 1.325 . S
N1406 C1405 1.261 . S
C1407 H1377 0.931 . S
C1407 C1404 1.357 . S
C1407 C1408 1.312 . S
C1408 H1379 0.930 . S
C1408 C1403 1.261 . S
C1408 C1407 1.312 . S
C1409 O1381 1.214 . S
C1409 O1389 1.234 . S
C1410 H1382 0.929 . S
C1410 C1413 1.391 . S
C1410 C1415 1.391 . S
C1411 H1383 0.929 . S
C1411 C1412 1.390 . S
C1411 N1414 1.391 . S
C1412 H1384 0.930 . S
C1412 C1411 1.390 . S
C1412 C1413 1.392 . S
C1413 H1385 0.929 . S
C1413 C1410 1.391 . S
C1413 C1412 1.392 . S
N1414 Co1358 2.257 . S
N1414 C1411 1.391 . S
N1414 C1415 1.388 . S
C1415 H1386 0.930 . S
C1415 C1410 1.391 . S
C1415 N1414 1.388 . S
Co1416 O1418 2.143 . S
Co1416 O1424 2.074 . S
Co1416 O1427 2.093 . S
Co1416 O1440 2.097 . S
Co1416 N1457 2.151 . S
Co1416 N1465 2.214 . S
Co1417 O1418 2.160 . S
Co1417 O1423 2.058 . S
Co1417 O1433 2.057 . S
Co1417 O1448 2.037 . S
Co1417 N1452 2.145 . S
Co1417 N1473 2.257 . S
O1418 Co1416 2.143 . S
O1418 Co1417 2.160 . S
C1419 O1420 1.278 . S
C1419 O1427 1.224 . S
O1420 C1419 1.278 . S
C1421 O1422 1.245 . S
C1421 O1433 1.232 . S
O1422 C1421 1.245 . S
O1423 Co1417 2.058 . S
O1423 C1449 1.269 . S
O1424 Co1416 2.074 . S
O1424 C1449 1.257 . S
H1425 C1450 0.930 . S
H1426 C1456 0.930 . S
O1427 Co1416 2.093 . S
O1427 C1419 1.224 . S
H1428 C1460 0.929 . S
H1429 C1462 0.930 . S
H1430 C1463 0.930 . S
H1431 C1461 0.929 . S
H1432 C1464 0.928 . S
O1433 Co1417 2.057 . S
O1433 C1421 1.232 . S
H1434 C1453 0.929 . S
H1435 C1454 0.929 . S
H1436 C1466 0.931 . S
H1437 C1458 0.929 . S
H1438 C1467 0.930 . S
H1439 C1459 0.931 . S
O1440 Co1416 2.097 . S
O1440 C1468 1.214 . S
H1441 C1469 0.929 . S
H1442 C1470 0.929 . S
H1443 C1471 0.930 . S
H1444 C1472 0.929 . S
H1445 C1474 0.930 . S
H1446 C1451 0.930 . S
H1447 C1455 0.930 . S
O1448 Co1417 2.037 . S
O1448 C1468 1.234 . S
C1449 O1423 1.269 . S
C1449 O1424 1.257 . S
C1450 H1425 0.930 . S
C1450 C1453 1.388 . S
C1450 C1455 1.418 . S
C1451 H1446 0.930 . S
C1451 C1454 1.404 . S
C1451 C1455 1.353 . S
N1452 Co1417 2.145 . S
N1452 C1453 1.397 . S
N1452 C1454 1.334 . S
C1453 H1434 0.929 . S
C1453 C1450 1.388 . S
C1453 N1452 1.397 . S
C1454 H1435 0.929 . S
C1454 C1451 1.404 . S
C1454 N1452 1.334 . S
C1455 H1447 0.930 . S
C1455 C1450 1.418 . S
C1455 C1451 1.353 . S
C1456 H1426 0.930 . S
C1456 N1457 1.330 . S
C1456 C1458 1.446 . S
N1457 Co1416 2.151 . S
N1457 C1456 1.330 . S
N1457 C1461 1.418 . S
C1458 H1437 0.929 . S
C1458 C1456 1.446 . S
C1458 C1459 1.332 . S
C1459 H1439 0.931 . S
C1459 C1458 1.332 . S
C1459 C1460 1.267 . S
C1460 H1428 0.929 . S
C1460 C1459 1.267 . S
C1460 C1461 1.251 . S
C1461 H1431 0.929 . S
C1461 N1457 1.418 . S
C1461 C1460 1.251 . S
C1462 H1429 0.930 . S
C1462 C1464 1.406 . S
C1462 C1467 1.261 . S
C1463 H1430 0.930 . S
C1463 N1465 1.325 . S
C1463 C1466 1.357 . S
C1464 H1432 0.928 . S
C1464 C1462 1.406 . S
C1464 N1465 1.261 . S
N1465 Co1416 2.214 . S
N1465 C1463 1.325 . S
N1465 C1464 1.261 . S
C1466 H1436 0.931 . S
C1466 C1463 1.357 . S
C1466 C1467 1.312 . S
C1467 H1438 0.930 . S
C1467 C1462 1.261 . S
C1467 C1466 1.312 . S
C1468 O1440 1.214 . S
C1468 O1448 1.234 . S
C1469 H1441 0.929 . S
C1469 C1472 1.391 . S
C1469 C1474 1.391 . S
C1470 H1442 0.929 . S
C1470 C1471 1.390 . S
C1470 N1473 1.391 . S
C1471 H1443 0.930 . S
C1471 C1470 1.390 . S
C1471 C1472 1.392 . S
C1472 H1444 0.929 . S
C1472 C1469 1.391 . S
C1472 C1471 1.392 . S
N1473 Co1417 2.257 . S
N1473 C1470 1.391 . S
N1473 C1474 1.388 . S
C1474 H1445 0.930 . S
C1474 C1469 1.391 . S
C1474 N1473 1.388 . S
Co1475 O1477 2.143 . S
Co1475 O1483 2.074 . S
Co1475 O1486 2.093 . S
Co1475 O1499 2.097 . S
Co1475 N1516 2.151 . S
Co1475 N1524 2.214 . S
Co1476 O1477 2.160 . S
Co1476 O1482 2.058 . S
Co1476 O1492 2.057 . S
Co1476 O1507 2.037 . S
Co1476 N1511 2.145 . S
Co1476 N1532 2.257 . S
O1477 Co1475 2.143 . S
O1477 Co1476 2.160 . S
C1478 O1479 1.278 . S
C1478 O1486 1.224 . S
O1479 C1478 1.278 . S
C1480 O1481 1.245 . S
C1480 O1492 1.232 . S
O1481 C1480 1.245 . S
O1482 Co1476 2.058 . S
O1482 C1508 1.269 . S
O1483 Co1475 2.074 . S
O1483 C1508 1.257 . S
H1484 C1509 0.930 . S
H1485 C1515 0.930 . S
O1486 Co1475 2.093 . S
O1486 C1478 1.224 . S
H1487 C1519 0.929 . S
H1488 C1521 0.930 . S
H1489 C1522 0.930 . S
H1490 C1520 0.929 . S
H1491 C1523 0.928 . S
O1492 Co1476 2.057 . S
O1492 C1480 1.232 . S
H1493 C1512 0.929 . S
H1494 C1513 0.929 . S
H1495 C1525 0.931 . S
H1496 C1517 0.929 . S
H1497 C1526 0.930 . S
H1498 C1518 0.931 . S
O1499 Co1475 2.097 . S
O1499 C1527 1.214 . S
H1500 C1528 0.929 . S
H1501 C1529 0.929 . S
H1502 C1530 0.930 . S
H1503 C1531 0.929 . S
H1504 C1533 0.930 . S
H1505 C1510 0.930 . S
H1506 C1514 0.930 . S
O1507 Co1476 2.037 . S
O1507 C1527 1.234 . S
C1508 O1482 1.269 . S
C1508 O1483 1.257 . S
C1509 H1484 0.930 . S
C1509 C1512 1.388 . S
C1509 C1514 1.418 . S
C1510 H1505 0.930 . S
C1510 C1513 1.404 . S
C1510 C1514 1.353 . S
N1511 Co1476 2.145 . S
N1511 C1512 1.397 . S
N1511 C1513 1.334 . S
C1512 H1493 0.929 . S
C1512 C1509 1.388 . S
C1512 N1511 1.397 . S
C1513 H1494 0.929 . S
C1513 C1510 1.404 . S
C1513 N1511 1.334 . S
C1514 H1506 0.930 . S
C1514 C1509 1.418 . S
C1514 C1510 1.353 . S
C1515 H1485 0.930 . S
C1515 N1516 1.330 . S
C1515 C1517 1.446 . S
N1516 Co1475 2.151 . S
N1516 C1515 1.330 . S
N1516 C1520 1.418 . S
C1517 H1496 0.929 . S
C1517 C1515 1.446 . S
C1517 C1518 1.332 . S
C1518 H1498 0.931 . S
C1518 C1517 1.332 . S
C1518 C1519 1.267 . S
C1519 H1487 0.929 . S
C1519 C1518 1.267 . S
C1519 C1520 1.251 . S
C1520 H1490 0.929 . S
C1520 N1516 1.418 . S
C1520 C1519 1.251 . S
C1521 H1488 0.930 . S
C1521 C1523 1.406 . S
C1521 C1526 1.261 . S
C1522 H1489 0.930 . S
C1522 N1524 1.325 . S
C1522 C1525 1.357 . S
C1523 H1491 0.928 . S
C1523 C1521 1.406 . S
C1523 N1524 1.261 . S
N1524 Co1475 2.214 . S
N1524 C1522 1.325 . S
N1524 C1523 1.261 . S
C1525 H1495 0.931 . S
C1525 C1522 1.357 . S
C1525 C1526 1.312 . S
C1526 H1497 0.930 . S
C1526 C1521 1.261 . S
C1526 C1525 1.312 . S
C1527 O1499 1.214 . S
C1527 O1507 1.234 . S
C1528 H1500 0.929 . S
C1528 C1531 1.391 . S
C1528 C1533 1.391 . S
C1529 H1501 0.929 . S
C1529 C1530 1.390 . S
C1529 N1532 1.391 . S
C1530 H1502 0.930 . S
C1530 C1529 1.390 . S
C1530 C1531 1.392 . S
C1531 H1503 0.929 . S
C1531 C1528 1.391 . S
C1531 C1530 1.392 . S
N1532 Co1476 2.257 . S
N1532 C1529 1.391 . S
N1532 C1533 1.388 . S
C1533 H1504 0.930 . S
C1533 C1528 1.391 . S
C1533 N1532 1.388 . S
Co1534 O1536 2.143 . S
Co1534 O1542 2.074 . S
Co1534 O1545 2.093 . S
Co1534 O1558 2.097 . S
Co1534 N1575 2.151 . S
Co1534 N1583 2.214 . S
Co1535 O1536 2.160 . S
Co1535 O1541 2.058 . S
Co1535 O1551 2.057 . S
Co1535 O1566 2.037 . S
Co1535 N1570 2.145 . S
Co1535 N1591 2.257 . S
O1536 Co1534 2.143 . S
O1536 Co1535 2.160 . S
C1537 O1538 1.278 . S
C1537 O1545 1.224 . S
O1538 C1537 1.278 . S
C1539 O1540 1.245 . S
C1539 O1551 1.232 . S
O1540 C1539 1.245 . S
O1541 Co1535 2.058 . S
O1541 C1567 1.269 . S
O1542 Co1534 2.074 . S
O1542 C1567 1.257 . S
H1543 C1568 0.930 . S
H1544 C1574 0.930 . S
O1545 Co1534 2.093 . S
O1545 C1537 1.224 . S
H1546 C1578 0.929 . S
H1547 C1580 0.930 . S
H1548 C1581 0.930 . S
H1549 C1579 0.929 . S
H1550 C1582 0.928 . S
O1551 Co1535 2.057 . S
O1551 C1539 1.232 . S
H1552 C1571 0.929 . S
H1553 C1572 0.929 . S
H1554 C1584 0.931 . S
H1555 C1576 0.929 . S
H1556 C1585 0.930 . S
H1557 C1577 0.931 . S
O1558 Co1534 2.097 . S
O1558 C1586 1.214 . S
H1559 C1587 0.929 . S
H1560 C1588 0.929 . S
H1561 C1589 0.930 . S
H1562 C1590 0.929 . S
H1563 C1592 0.930 . S
H1564 C1569 0.930 . S
H1565 C1573 0.930 . S
O1566 Co1535 2.037 . S
O1566 C1586 1.234 . S
C1567 O1541 1.269 . S
C1567 O1542 1.257 . S
C1568 H1543 0.930 . S
C1568 C1571 1.388 . S
C1568 C1573 1.418 . S
C1569 H1564 0.930 . S
C1569 C1572 1.404 . S
C1569 C1573 1.353 . S
N1570 Co1535 2.145 . S
N1570 C1571 1.397 . S
N1570 C1572 1.334 . S
C1571 H1552 0.929 . S
C1571 C1568 1.388 . S
C1571 N1570 1.397 . S
C1572 H1553 0.929 . S
C1572 C1569 1.404 . S
C1572 N1570 1.334 . S
C1573 H1565 0.930 . S
C1573 C1568 1.418 . S
C1573 C1569 1.353 . S
C1574 H1544 0.930 . S
C1574 N1575 1.330 . S
C1574 C1576 1.446 . S
N1575 Co1534 2.151 . S
N1575 C1574 1.330 . S
N1575 C1579 1.418 . S
C1576 H1555 0.929 . S
C1576 C1574 1.446 . S
C1576 C1577 1.332 . S
C1577 H1557 0.931 . S
C1577 C1576 1.332 . S
C1577 C1578 1.267 . S
C1578 H1546 0.929 . S
C1578 C1577 1.267 . S
C1578 C1579 1.251 . S
C1579 H1549 0.929 . S
C1579 N1575 1.418 . S
C1579 C1578 1.251 . S
C1580 H1547 0.930 . S
C1580 C1582 1.406 . S
C1580 C1585 1.261 . S
C1581 H1548 0.930 . S
C1581 N1583 1.325 . S
C1581 C1584 1.357 . S
C1582 H1550 0.928 . S
C1582 C1580 1.406 . S
C1582 N1583 1.261 . S
N1583 Co1534 2.214 . S
N1583 C1581 1.325 . S
N1583 C1582 1.261 . S
C1584 H1554 0.931 . S
C1584 C1581 1.357 . S
C1584 C1585 1.312 . S
C1585 H1556 0.930 . S
C1585 C1580 1.261 . S
C1585 C1584 1.312 . S
C1586 O1558 1.214 . S
C1586 O1566 1.234 . S
C1587 H1559 0.929 . S
C1587 C1590 1.391 . S
C1587 C1592 1.391 . S
C1588 H1560 0.929 . S
C1588 C1589 1.390 . S
C1588 N1591 1.391 . S
C1589 H1561 0.930 . S
C1589 C1588 1.390 . S
C1589 C1590 1.392 . S
C1590 H1562 0.929 . S
C1590 C1587 1.391 . S
C1590 C1589 1.392 . S
N1591 Co1535 2.257 . S
N1591 C1588 1.391 . S
N1591 C1592 1.388 . S
C1592 H1563 0.930 . S
C1592 C1587 1.391 . S
C1592 N1591 1.388 . S
Co1593 O1595 2.143 . S
Co1593 O1601 2.074 . S
Co1593 O1604 2.093 . S
Co1593 O1617 2.097 . S
Co1593 N1634 2.151 . S
Co1593 N1642 2.214 . S
Co1594 O1595 2.160 . S
Co1594 O1600 2.058 . S
Co1594 O1610 2.057 . S
Co1594 O1625 2.037 . S
Co1594 N1629 2.145 . S
Co1594 N1650 2.257 . S
O1595 Co1593 2.143 . S
O1595 Co1594 2.160 . S
C1596 O1597 1.278 . S
C1596 O1604 1.224 . S
O1597 C1596 1.278 . S
C1598 O1599 1.245 . S
C1598 O1610 1.232 . S
O1599 C1598 1.245 . S
O1600 Co1594 2.058 . S
O1600 C1626 1.269 . S
O1601 Co1593 2.074 . S
O1601 C1626 1.257 . S
H1602 C1627 0.930 . S
H1603 C1633 0.930 . S
O1604 Co1593 2.093 . S
O1604 C1596 1.224 . S
H1605 C1637 0.929 . S
H1606 C1639 0.930 . S
H1607 C1640 0.930 . S
H1608 C1638 0.929 . S
H1609 C1641 0.928 . S
O1610 Co1594 2.057 . S
O1610 C1598 1.232 . S
H1611 C1630 0.929 . S
H1612 C1631 0.929 . S
H1613 C1643 0.931 . S
H1614 C1635 0.929 . S
H1615 C1644 0.930 . S
H1616 C1636 0.931 . S
O1617 Co1593 2.097 . S
O1617 C1645 1.214 . S
H1618 C1646 0.929 . S
H1619 C1647 0.929 . S
H1620 C1648 0.930 . S
H1621 C1649 0.929 . S
H1622 C1651 0.930 . S
H1623 C1628 0.930 . S
H1624 C1632 0.930 . S
O1625 Co1594 2.037 . S
O1625 C1645 1.234 . S
C1626 O1600 1.269 . S
C1626 O1601 1.257 . S
C1627 H1602 0.930 . S
C1627 C1630 1.388 . S
C1627 C1632 1.418 . S
C1628 H1623 0.930 . S
C1628 C1631 1.404 . S
C1628 C1632 1.353 . S
N1629 Co1594 2.145 . S
N1629 C1630 1.397 . S
N1629 C1631 1.334 . S
C1630 H1611 0.929 . S
C1630 C1627 1.388 . S
C1630 N1629 1.397 . S
C1631 H1612 0.929 . S
C1631 C1628 1.404 . S
C1631 N1629 1.334 . S
C1632 H1624 0.930 . S
C1632 C1627 1.418 . S
C1632 C1628 1.353 . S
C1633 H1603 0.930 . S
C1633 N1634 1.330 . S
C1633 C1635 1.446 . S
N1634 Co1593 2.151 . S
N1634 C1633 1.330 . S
N1634 C1638 1.418 . S
C1635 H1614 0.929 . S
C1635 C1633 1.446 . S
C1635 C1636 1.332 . S
C1636 H1616 0.931 . S
C1636 C1635 1.332 . S
C1636 C1637 1.267 . S
C1637 H1605 0.929 . S
C1637 C1636 1.267 . S
C1637 C1638 1.251 . S
C1638 H1608 0.929 . S
C1638 N1634 1.418 . S
C1638 C1637 1.251 . S
C1639 H1606 0.930 . S
C1639 C1641 1.406 . S
C1639 C1644 1.261 . S
C1640 H1607 0.930 . S
C1640 N1642 1.325 . S
C1640 C1643 1.357 . S
C1641 H1609 0.928 . S
C1641 C1639 1.406 . S
C1641 N1642 1.261 . S
N1642 Co1593 2.214 . S
N1642 C1640 1.325 . S
N1642 C1641 1.261 . S
C1643 H1613 0.931 . S
C1643 C1640 1.357 . S
C1643 C1644 1.312 . S
C1644 H1615 0.930 . S
C1644 C1639 1.261 . S
C1644 C1643 1.312 . S
C1645 O1617 1.214 . S
C1645 O1625 1.234 . S
C1646 H1618 0.929 . S
C1646 C1649 1.391 . S
C1646 C1651 1.391 . S
C1647 H1619 0.929 . S
C1647 C1648 1.390 . S
C1647 N1650 1.391 . S
C1648 H1620 0.930 . S
C1648 C1647 1.390 . S
C1648 C1649 1.392 . S
C1649 H1621 0.929 . S
C1649 C1646 1.391 . S
C1649 C1648 1.392 . S
N1650 Co1594 2.257 . S
N1650 C1647 1.391 . S
N1650 C1651 1.388 . S
C1651 H1622 0.930 . S
C1651 C1646 1.391 . S
C1651 N1650 1.388 . S
Co1652 O1654 2.143 . S
Co1652 O1660 2.074 . S
Co1652 O1663 2.093 . S
Co1652 O1676 2.097 . S
Co1652 N1693 2.151 . S
Co1652 N1701 2.214 . S
Co1653 O1654 2.160 . S
Co1653 O1659 2.058 . S
Co1653 O1669 2.057 . S
Co1653 O1684 2.037 . S
Co1653 N1688 2.145 . S
Co1653 N1709 2.257 . S
O1654 Co1652 2.143 . S
O1654 Co1653 2.160 . S
C1655 O1656 1.278 . S
C1655 O1663 1.224 . S
O1656 C1655 1.278 . S
C1657 O1658 1.245 . S
C1657 O1669 1.232 . S
O1658 C1657 1.245 . S
O1659 Co1653 2.058 . S
O1659 C1685 1.269 . S
O1660 Co1652 2.074 . S
O1660 C1685 1.257 . S
H1661 C1686 0.930 . S
H1662 C1692 0.930 . S
O1663 Co1652 2.093 . S
O1663 C1655 1.224 . S
H1664 C1696 0.929 . S
H1665 C1698 0.930 . S
H1666 C1699 0.930 . S
H1667 C1697 0.929 . S
H1668 C1700 0.928 . S
O1669 Co1653 2.057 . S
O1669 C1657 1.232 . S
H1670 C1689 0.929 . S
H1671 C1690 0.929 . S
H1672 C1702 0.931 . S
H1673 C1694 0.929 . S
H1674 C1703 0.930 . S
H1675 C1695 0.931 . S
O1676 Co1652 2.097 . S
O1676 C1704 1.214 . S
H1677 C1705 0.929 . S
H1678 C1706 0.929 . S
H1679 C1707 0.930 . S
H1680 C1708 0.929 . S
H1681 C1710 0.930 . S
H1682 C1687 0.930 . S
H1683 C1691 0.930 . S
O1684 Co1653 2.037 . S
O1684 C1704 1.234 . S
C1685 O1659 1.269 . S
C1685 O1660 1.257 . S
C1686 H1661 0.930 . S
C1686 C1689 1.388 . S
C1686 C1691 1.418 . S
C1687 H1682 0.930 . S
C1687 C1690 1.404 . S
C1687 C1691 1.353 . S
N1688 Co1653 2.145 . S
N1688 C1689 1.397 . S
N1688 C1690 1.334 . S
C1689 H1670 0.929 . S
C1689 C1686 1.388 . S
C1689 N1688 1.397 . S
C1690 H1671 0.929 . S
C1690 C1687 1.404 . S
C1690 N1688 1.334 . S
C1691 H1683 0.930 . S
C1691 C1686 1.418 . S
C1691 C1687 1.353 . S
C1692 H1662 0.930 . S
C1692 N1693 1.330 . S
C1692 C1694 1.446 . S
N1693 Co1652 2.151 . S
N1693 C1692 1.330 . S
N1693 C1697 1.418 . S
C1694 H1673 0.929 . S
C1694 C1692 1.446 . S
C1694 C1695 1.332 . S
C1695 H1675 0.931 . S
C1695 C1694 1.332 . S
C1695 C1696 1.267 . S
C1696 H1664 0.929 . S
C1696 C1695 1.267 . S
C1696 C1697 1.251 . S
C1697 H1667 0.929 . S
C1697 N1693 1.418 . S
C1697 C1696 1.251 . S
C1698 H1665 0.930 . S
C1698 C1700 1.406 . S
C1698 C1703 1.261 . S
C1699 H1666 0.930 . S
C1699 N1701 1.325 . S
C1699 C1702 1.357 . S
C1700 H1668 0.928 . S
C1700 C1698 1.406 . S
C1700 N1701 1.261 . S
N1701 Co1652 2.214 . S
N1701 C1699 1.325 . S
N1701 C1700 1.261 . S
C1702 H1672 0.931 . S
C1702 C1699 1.357 . S
C1702 C1703 1.312 . S
C1703 H1674 0.930 . S
C1703 C1698 1.261 . S
C1703 C1702 1.312 . S
C1704 O1676 1.214 . S
C1704 O1684 1.234 . S
C1705 H1677 0.929 . S
C1705 C1708 1.391 . S
C1705 C1710 1.391 . S
C1706 H1678 0.929 . S
C1706 C1707 1.390 . S
C1706 N1709 1.391 . S
C1707 H1679 0.930 . S
C1707 C1706 1.390 . S
C1707 C1708 1.392 . S
C1708 H1680 0.929 . S
C1708 C1705 1.391 . S
C1708 C1707 1.392 . S
N1709 Co1653 2.257 . S
N1709 C1706 1.391 . S
N1709 C1710 1.388 . S
C1710 H1681 0.930 . S
C1710 C1705 1.391 . S
C1710 N1709 1.388 . S
Co1711 O1713 2.143 . S
Co1711 O1719 2.074 . S
Co1711 O1722 2.093 . S
Co1711 O1735 2.097 . S
Co1711 N1752 2.151 . S
Co1711 N1760 2.214 . S
Co1712 O1713 2.160 . S
Co1712 O1718 2.058 . S
Co1712 O1728 2.057 . S
Co1712 O1743 2.037 . S
Co1712 N1747 2.145 . S
Co1712 N1768 2.257 . S
O1713 Co1711 2.143 . S
O1713 Co1712 2.160 . S
C1714 O1715 1.278 . S
C1714 O1722 1.224 . S
O1715 C1714 1.278 . S
C1716 O1717 1.245 . S
C1716 O1728 1.232 . S
O1717 C1716 1.245 . S
O1718 Co1712 2.058 . S
O1718 C1744 1.269 . S
O1719 Co1711 2.074 . S
O1719 C1744 1.257 . S
H1720 C1745 0.930 . S
H1721 C1751 0.930 . S
O1722 Co1711 2.093 . S
O1722 C1714 1.224 . S
H1723 C1755 0.929 . S
H1724 C1757 0.930 . S
H1725 C1758 0.930 . S
H1726 C1756 0.929 . S
H1727 C1759 0.928 . S
O1728 Co1712 2.057 . S
O1728 C1716 1.232 . S
H1729 C1748 0.929 . S
H1730 C1749 0.929 . S
H1731 C1761 0.931 . S
H1732 C1753 0.929 . S
H1733 C1762 0.930 . S
H1734 C1754 0.931 . S
O1735 Co1711 2.097 . S
O1735 C1763 1.214 . S
H1736 C1764 0.929 . S
H1737 C1765 0.929 . S
H1738 C1766 0.930 . S
H1739 C1767 0.929 . S
H1740 C1769 0.930 . S
H1741 C1746 0.930 . S
H1742 C1750 0.930 . S
O1743 Co1712 2.037 . S
O1743 C1763 1.234 . S
C1744 O1718 1.269 . S
C1744 O1719 1.257 . S
C1745 H1720 0.930 . S
C1745 C1748 1.388 . S
C1745 C1750 1.418 . S
C1746 H1741 0.930 . S
C1746 C1749 1.404 . S
C1746 C1750 1.353 . S
N1747 Co1712 2.145 . S
N1747 C1748 1.397 . S
N1747 C1749 1.334 . S
C1748 H1729 0.929 . S
C1748 C1745 1.388 . S
C1748 N1747 1.397 . S
C1749 H1730 0.929 . S
C1749 C1746 1.404 . S
C1749 N1747 1.334 . S
C1750 H1742 0.930 . S
C1750 C1745 1.418 . S
C1750 C1746 1.353 . S
C1751 H1721 0.930 . S
C1751 N1752 1.330 . S
C1751 C1753 1.446 . S
N1752 Co1711 2.151 . S
N1752 C1751 1.330 . S
N1752 C1756 1.418 . S
C1753 H1732 0.929 . S
C1753 C1751 1.446 . S
C1753 C1754 1.332 . S
C1754 H1734 0.931 . S
C1754 C1753 1.332 . S
C1754 C1755 1.267 . S
C1755 H1723 0.929 . S
C1755 C1754 1.267 . S
C1755 C1756 1.251 . S
C1756 H1726 0.929 . S
C1756 N1752 1.418 . S
C1756 C1755 1.251 . S
C1757 H1724 0.930 . S
C1757 C1759 1.406 . S
C1757 C1762 1.261 . S
C1758 H1725 0.930 . S
C1758 N1760 1.325 . S
C1758 C1761 1.357 . S
C1759 H1727 0.928 . S
C1759 C1757 1.406 . S
C1759 N1760 1.261 . S
N1760 Co1711 2.214 . S
N1760 C1758 1.325 . S
N1760 C1759 1.261 . S
C1761 H1731 0.931 . S
C1761 C1758 1.357 . S
C1761 C1762 1.312 . S
C1762 H1733 0.930 . S
C1762 C1757 1.261 . S
C1762 C1761 1.312 . S
C1763 O1735 1.214 . S
C1763 O1743 1.234 . S
C1764 H1736 0.929 . S
C1764 C1767 1.391 . S
C1764 C1769 1.391 . S
C1765 H1737 0.929 . S
C1765 C1766 1.390 . S
C1765 N1768 1.391 . S
C1766 H1738 0.930 . S
C1766 C1765 1.390 . S
C1766 C1767 1.392 . S
C1767 H1739 0.929 . S
C1767 C1764 1.391 . S
C1767 C1766 1.392 . S
N1768 Co1712 2.257 . S
N1768 C1765 1.391 . S
N1768 C1769 1.388 . S
C1769 H1740 0.930 . S
C1769 C1764 1.391 . S
C1769 N1768 1.388 . S
Co1770 O1772 2.143 . S
Co1770 O1778 2.074 . S
Co1770 O1781 2.093 . S
Co1770 O1794 2.097 . S
Co1770 N1811 2.151 . S
Co1770 N1819 2.214 . S
Co1771 O1772 2.160 . S
Co1771 O1777 2.058 . S
Co1771 O1787 2.057 . S
Co1771 O1802 2.037 . S
Co1771 N1806 2.145 . S
Co1771 N1827 2.257 . S
O1772 Co1770 2.143 . S
O1772 Co1771 2.160 . S
C1773 O1774 1.278 . S
C1773 O1781 1.224 . S
O1774 C1773 1.278 . S
C1775 O1776 1.245 . S
C1775 O1787 1.232 . S
O1776 C1775 1.245 . S
O1777 Co1771 2.058 . S
O1777 C1803 1.269 . S
O1778 Co1770 2.074 . S
O1778 C1803 1.257 . S
H1779 C1804 0.930 . S
H1780 C1810 0.930 . S
O1781 Co1770 2.093 . S
O1781 C1773 1.224 . S
H1782 C1814 0.929 . S
H1783 C1816 0.930 . S
H1784 C1817 0.930 . S
H1785 C1815 0.929 . S
H1786 C1818 0.928 . S
O1787 Co1771 2.057 . S
O1787 C1775 1.232 . S
H1788 C1807 0.929 . S
H1789 C1808 0.929 . S
H1790 C1820 0.931 . S
H1791 C1812 0.929 . S
H1792 C1821 0.930 . S
H1793 C1813 0.931 . S
O1794 Co1770 2.097 . S
O1794 C1822 1.214 . S
H1795 C1823 0.929 . S
H1796 C1824 0.929 . S
H1797 C1825 0.930 . S
H1798 C1826 0.929 . S
H1799 C1828 0.930 . S
H1800 C1805 0.930 . S
H1801 C1809 0.930 . S
O1802 Co1771 2.037 . S
O1802 C1822 1.234 . S
C1803 O1777 1.269 . S
C1803 O1778 1.257 . S
C1804 H1779 0.930 . S
C1804 C1807 1.388 . S
C1804 C1809 1.418 . S
C1805 H1800 0.930 . S
C1805 C1808 1.404 . S
C1805 C1809 1.353 . S
N1806 Co1771 2.145 . S
N1806 C1807 1.397 . S
N1806 C1808 1.334 . S
C1807 H1788 0.929 . S
C1807 C1804 1.388 . S
C1807 N1806 1.397 . S
C1808 H1789 0.929 . S
C1808 C1805 1.404 . S
C1808 N1806 1.334 . S
C1809 H1801 0.930 . S
C1809 C1804 1.418 . S
C1809 C1805 1.353 . S
C1810 H1780 0.930 . S
C1810 N1811 1.330 . S
C1810 C1812 1.446 . S
N1811 Co1770 2.151 . S
N1811 C1810 1.330 . S
N1811 C1815 1.418 . S
C1812 H1791 0.929 . S
C1812 C1810 1.446 . S
C1812 C1813 1.332 . S
C1813 H1793 0.931 . S
C1813 C1812 1.332 . S
C1813 C1814 1.267 . S
C1814 H1782 0.929 . S
C1814 C1813 1.267 . S
C1814 C1815 1.251 . S
C1815 H1785 0.929 . S
C1815 N1811 1.418 . S
C1815 C1814 1.251 . S
C1816 H1783 0.930 . S
C1816 C1818 1.406 . S
C1816 C1821 1.261 . S
C1817 H1784 0.930 . S
C1817 N1819 1.325 . S
C1817 C1820 1.357 . S
C1818 H1786 0.928 . S
C1818 C1816 1.406 . S
C1818 N1819 1.261 . S
N1819 Co1770 2.214 . S
N1819 C1817 1.325 . S
N1819 C1818 1.261 . S
C1820 H1790 0.931 . S
C1820 C1817 1.357 . S
C1820 C1821 1.312 . S
C1821 H1792 0.930 . S
C1821 C1816 1.261 . S
C1821 C1820 1.312 . S
C1822 O1794 1.214 . S
C1822 O1802 1.234 . S
C1823 H1795 0.929 . S
C1823 C1826 1.391 . S
C1823 C1828 1.391 . S
C1824 H1796 0.929 . S
C1824 C1825 1.390 . S
C1824 N1827 1.391 . S
C1825 H1797 0.930 . S
C1825 C1824 1.390 . S
C1825 C1826 1.392 . S
C1826 H1798 0.929 . S
C1826 C1823 1.391 . S
C1826 C1825 1.392 . S
N1827 Co1771 2.257 . S
N1827 C1824 1.391 . S
N1827 C1828 1.388 . S
C1828 H1799 0.930 . S
C1828 C1823 1.391 . S
C1828 N1827 1.388 . S
Co1829 O1831 2.143 . S
Co1829 O1837 2.074 . S
Co1829 O1840 2.093 . S
Co1829 O1853 2.097 . S
Co1829 N1870 2.151 . S
Co1829 N1878 2.214 . S
Co1830 O1831 2.160 . S
Co1830 O1836 2.058 . S
Co1830 O1846 2.057 . S
Co1830 O1861 2.037 . S
Co1830 N1865 2.145 . S
Co1830 N1886 2.257 . S
O1831 Co1829 2.143 . S
O1831 Co1830 2.160 . S
C1832 O1833 1.278 . S
C1832 O1840 1.224 . S
O1833 C1832 1.278 . S
C1834 O1835 1.245 . S
C1834 O1846 1.232 . S
O1835 C1834 1.245 . S
O1836 Co1830 2.058 . S
O1836 C1862 1.269 . S
O1837 Co1829 2.074 . S
O1837 C1862 1.257 . S
H1838 C1863 0.930 . S
H1839 C1869 0.930 . S
O1840 Co1829 2.093 . S
O1840 C1832 1.224 . S
H1841 C1873 0.929 . S
H1842 C1875 0.930 . S
H1843 C1876 0.930 . S
H1844 C1874 0.929 . S
H1845 C1877 0.928 . S
O1846 Co1830 2.057 . S
O1846 C1834 1.232 . S
H1847 C1866 0.929 . S
H1848 C1867 0.929 . S
H1849 C1879 0.931 . S
H1850 C1871 0.929 . S
H1851 C1880 0.930 . S
H1852 C1872 0.931 . S
O1853 Co1829 2.097 . S
O1853 C1881 1.214 . S
H1854 C1882 0.929 . S
H1855 C1883 0.929 . S
H1856 C1884 0.930 . S
H1857 C1885 0.929 . S
H1858 C1887 0.930 . S
H1859 C1864 0.930 . S
H1860 C1868 0.930 . S
O1861 Co1830 2.037 . S
O1861 C1881 1.234 . S
C1862 O1836 1.269 . S
C1862 O1837 1.257 . S
C1863 H1838 0.930 . S
C1863 C1866 1.388 . S
C1863 C1868 1.418 . S
C1864 H1859 0.930 . S
C1864 C1867 1.404 . S
C1864 C1868 1.353 . S
N1865 Co1830 2.145 . S
N1865 C1866 1.397 . S
N1865 C1867 1.334 . S
C1866 H1847 0.929 . S
C1866 C1863 1.388 . S
C1866 N1865 1.397 . S
C1867 H1848 0.929 . S
C1867 C1864 1.404 . S
C1867 N1865 1.334 . S
C1868 H1860 0.930 . S
C1868 C1863 1.418 . S
C1868 C1864 1.353 . S
C1869 H1839 0.930 . S
C1869 N1870 1.330 . S
C1869 C1871 1.446 . S
N1870 Co1829 2.151 . S
N1870 C1869 1.330 . S
N1870 C1874 1.418 . S
C1871 H1850 0.929 . S
C1871 C1869 1.446 . S
C1871 C1872 1.332 . S
C1872 H1852 0.931 . S
C1872 C1871 1.332 . S
C1872 C1873 1.267 . S
C1873 H1841 0.929 . S
C1873 C1872 1.267 . S
C1873 C1874 1.251 . S
C1874 H1844 0.929 . S
C1874 N1870 1.418 . S
C1874 C1873 1.251 . S
C1875 H1842 0.930 . S
C1875 C1877 1.406 . S
C1875 C1880 1.261 . S
C1876 H1843 0.930 . S
C1876 N1878 1.325 . S
C1876 C1879 1.357 . S
C1877 H1845 0.928 . S
C1877 C1875 1.406 . S
C1877 N1878 1.261 . S
N1878 Co1829 2.214 . S
N1878 C1876 1.325 . S
N1878 C1877 1.261 . S
C1879 H1849 0.931 . S
C1879 C1876 1.357 . S
C1879 C1880 1.312 . S
C1880 H1851 0.930 . S
C1880 C1875 1.261 . S
C1880 C1879 1.312 . S
C1881 O1853 1.214 . S
C1881 O1861 1.234 . S
C1882 H1854 0.929 . S
C1882 C1885 1.391 . S
C1882 C1887 1.391 . S
C1883 H1855 0.929 . S
C1883 C1884 1.390 . S
C1883 N1886 1.391 . S
C1884 H1856 0.930 . S
C1884 C1883 1.390 . S
C1884 C1885 1.392 . S
C1885 H1857 0.929 . S
C1885 C1882 1.391 . S
C1885 C1884 1.392 . S
N1886 Co1830 2.257 . S
N1886 C1883 1.391 . S
N1886 C1887 1.388 . S
C1887 H1858 0.930 . S
C1887 C1882 1.391 . S
C1887 N1886 1.388 . S
C1888 C1889 1.349 . S
C1888 C1890 1.327 . S
C1888 H1913 0.950 . S
C1889 C1888 1.349 . S
C1889 C1905 1.349 . S
C1890 C1888 1.327 . S
C1890 C1909 1.429 . S
C1890 H1914 0.950 . S
C1891 C1908 1.574 . S
C1891 C1910 1.368 . S
C1891 H1915 0.949 . S
H1892 C1896 0.949 . S
C1893 C1894 1.349 . S
C1893 C1895 1.327 . S
C1893 H1916 0.950 . S
C1894 C1893 1.349 . S
C1894 C1906 1.349 . S
C1895 C1893 1.327 . S
C1895 C1911 1.429 . S
C1895 H1917 0.950 . S
C1896 H1892 0.949 . S
C1896 C1904 1.574 . S
C1896 C1912 1.368 . S
H1897 C1905 0.950 . S
H1898 C1903 0.950 . S
H1899 C1904 0.949 . S
H1900 C1906 0.950 . S
H1901 C1907 0.950 . S
H1902 C1908 0.949 . S
C1903 H1898 0.950 . S
C1903 C1905 1.327 . S
C1903 C1909 1.429 . S
C1904 C1896 1.574 . S
C1904 H1899 0.949 . S
C1904 C1910 1.368 . S
C1905 C1889 1.349 . S
C1905 H1897 0.950 . S
C1905 C1903 1.327 . S
C1906 C1894 1.349 . S
C1906 H1900 0.950 . S
C1906 C1907 1.327 . S
C1907 H1901 0.950 . S
C1907 C1906 1.327 . S
C1907 C1911 1.429 . S
C1908 C1891 1.574 . S
C1908 H1902 0.949 . S
C1908 C1912 1.368 . S
C1909 C1890 1.429 . S
C1909 C1903 1.429 . S
C1909 C1910 1.523 . S
C1910 C1891 1.368 . S
C1910 C1904 1.368 . S
C1910 C1909 1.523 . S
C1911 C1895 1.429 . S
C1911 C1907 1.429 . S
C1911 C1912 1.523 . S
C1912 C1896 1.368 . S
C1912 C1908 1.368 . S
C1912 C1911 1.523 . S
H1913 C1888 0.950 . S
H1914 C1890 0.950 . S
H1915 C1891 0.949 . S
H1916 C1893 0.950 . S
H1917 C1895 0.950 . S
C1918 C1919 1.349 . S
C1918 C1920 1.327 . S
C1918 H1943 0.950 . S
C1919 C1918 1.349 . S
C1919 C1935 1.349 . S
C1920 C1918 1.327 . S
C1920 C1939 1.429 . S
C1920 H1944 0.950 . S
C1921 C1938 1.574 . S
C1921 C1940 1.368 . S
C1921 H1945 0.949 . S
H1922 C1926 0.949 . S
C1923 C1924 1.349 . S
C1923 C1925 1.327 . S
C1923 H1946 0.950 . S
C1924 C1923 1.349 . S
C1924 C1936 1.349 . S
C1925 C1923 1.327 . S
C1925 C1941 1.429 . S
C1925 H1947 0.950 . S
C1926 H1922 0.949 . S
C1926 C1934 1.574 . S
C1926 C1942 1.368 . S
H1927 C1935 0.950 . S
H1928 C1933 0.950 . S
H1929 C1934 0.949 . S
H1930 C1936 0.950 . S
H1931 C1937 0.950 . S
H1932 C1938 0.949 . S
C1933 H1928 0.950 . S
C1933 C1935 1.327 . S
C1933 C1939 1.429 . S
C1934 C1926 1.574 . S
C1934 H1929 0.949 . S
C1934 C1940 1.368 . S
C1935 C1919 1.349 . S
C1935 H1927 0.950 . S
C1935 C1933 1.327 . S
C1936 C1924 1.349 . S
C1936 H1930 0.950 . S
C1936 C1937 1.327 . S
C1937 H1931 0.950 . S
C1937 C1936 1.327 . S
C1937 C1941 1.429 . S
C1938 C1921 1.574 . S
C1938 H1932 0.949 . S
C1938 C1942 1.368 . S
C1939 C1920 1.429 . S
C1939 C1933 1.429 . S
C1939 C1940 1.523 . S
C1940 C1921 1.368 . S
C1940 C1934 1.368 . S
C1940 C1939 1.523 . S
C1941 C1925 1.429 . S
C1941 C1937 1.429 . S
C1941 C1942 1.523 . S
C1942 C1926 1.368 . S
C1942 C1938 1.368 . S
C1942 C1941 1.523 . S
H1943 C1918 0.950 . S
H1944 C1920 0.950 . S
H1945 C1921 0.949 . S
H1946 C1923 0.950 . S
H1947 C1925 0.950 . S
C1948 C1949 1.349 . S
C1948 C1950 1.327 . S
C1948 H1973 0.950 . S
C1949 C1948 1.349 . S
C1949 C1965 1.349 . S
C1950 C1948 1.327 . S
C1950 C1969 1.429 . S
C1950 H1974 0.950 . S
C1951 C1968 1.574 . S
C1951 C1970 1.368 . S
C1951 H1975 0.949 . S
H1952 C1956 0.949 . S
C1953 C1954 1.349 . S
C1953 C1955 1.327 . S
C1953 H1976 0.950 . S
C1954 C1953 1.349 . S
C1954 C1966 1.349 . S
C1955 C1953 1.327 . S
C1955 C1971 1.429 . S
C1955 H1977 0.950 . S
C1956 H1952 0.949 . S
C1956 C1964 1.574 . S
C1956 C1972 1.368 . S
H1957 C1965 0.950 . S
H1958 C1963 0.950 . S
H1959 C1964 0.949 . S
H1960 C1966 0.950 . S
H1961 C1967 0.950 . S
H1962 C1968 0.949 . S
C1963 H1958 0.950 . S
C1963 C1965 1.327 . S
C1963 C1969 1.429 . S
C1964 C1956 1.574 . S
C1964 H1959 0.949 . S
C1964 C1970 1.368 . S
C1965 C1949 1.349 . S
C1965 H1957 0.950 . S
C1965 C1963 1.327 . S
C1966 C1954 1.349 . S
C1966 H1960 0.950 . S
C1966 C1967 1.327 . S
C1967 H1961 0.950 . S
C1967 C1966 1.327 . S
C1967 C1971 1.429 . S
C1968 C1951 1.574 . S
C1968 H1962 0.949 . S
C1968 C1972 1.368 . S
C1969 C1950 1.429 . S
C1969 C1963 1.429 . S
C1969 C1970 1.523 . S
C1970 C1951 1.368 . S
C1970 C1964 1.368 . S
C1970 C1969 1.523 . S
C1971 C1955 1.429 . S
C1971 C1967 1.429 . S
C1971 C1972 1.523 . S
C1972 C1956 1.368 . S
C1972 C1968 1.368 . S
C1972 C1971 1.523 . S
H1973 C1948 0.950 . S
H1974 C1950 0.950 . S
H1975 C1951 0.949 . S
H1976 C1953 0.950 . S
H1977 C1955 0.950 . S
C1978 C1979 1.349 . S
C1978 C1980 1.327 . S
C1978 H2003 0.950 . S
C1979 C1978 1.349 . S
C1979 C1995 1.349 . S
C1980 C1978 1.327 . S
C1980 C1999 1.429 . S
C1980 H2004 0.950 . S
C1981 C1998 1.574 . S
C1981 C2000 1.368 . S
C1981 H2005 0.949 . S
H1982 C1986 0.949 . S
C1983 C1984 1.349 . S
C1983 C1985 1.327 . S
C1983 H2006 0.950 . S
C1984 C1983 1.349 . S
C1984 C1996 1.349 . S
C1985 C1983 1.327 . S
C1985 C2001 1.429 . S
C1985 H2007 0.950 . S
C1986 H1982 0.949 . S
C1986 C1994 1.574 . S
C1986 C2002 1.368 . S
H1987 C1995 0.950 . S
H1988 C1993 0.950 . S
H1989 C1994 0.949 . S
H1990 C1996 0.950 . S
H1991 C1997 0.950 . S
H1992 C1998 0.949 . S
C1993 H1988 0.950 . S
C1993 C1995 1.327 . S
C1993 C1999 1.429 . S
C1994 C1986 1.574 . S
C1994 H1989 0.949 . S
C1994 C2000 1.368 . S
C1995 C1979 1.349 . S
C1995 H1987 0.950 . S
C1995 C1993 1.327 . S
C1996 C1984 1.349 . S
C1996 H1990 0.950 . S
C1996 C1997 1.327 . S
C1997 H1991 0.950 . S
C1997 C1996 1.327 . S
C1997 C2001 1.429 . S
C1998 C1981 1.574 . S
C1998 H1992 0.949 . S
C1998 C2002 1.368 . S
C1999 C1980 1.429 . S
C1999 C1993 1.429 . S
C1999 C2000 1.523 . S
C2000 C1981 1.368 . S
C2000 C1994 1.368 . S
C2000 C1999 1.523 . S
C2001 C1985 1.429 . S
C2001 C1997 1.429 . S
C2001 C2002 1.523 . S
C2002 C1986 1.368 . S
C2002 C1998 1.368 . S
C2002 C2001 1.523 . S
H2003 C1978 0.950 . S
H2004 C1980 0.950 . S
H2005 C1981 0.949 . S
H2006 C1983 0.950 . S
H2007 C1985 0.950 . S
C2008 C2009 1.349 . S
C2008 C2010 1.327 . S
C2008 H2033 0.950 . S
C2009 C2008 1.349 . S
C2009 C2025 1.349 . S
C2010 C2008 1.327 . S
C2010 C2029 1.429 . S
C2010 H2034 0.950 . S
C2011 C2028 1.574 . S
C2011 C2030 1.368 . S
C2011 H2035 0.949 . S
H2012 C2016 0.949 . S
C2013 C2014 1.349 . S
C2013 C2015 1.327 . S
C2013 H2036 0.950 . S
C2014 C2013 1.349 . S
C2014 C2026 1.349 . S
C2015 C2013 1.327 . S
C2015 C2031 1.429 . S
C2015 H2037 0.950 . S
C2016 H2012 0.949 . S
C2016 C2024 1.574 . S
C2016 C2032 1.368 . S
H2017 C2025 0.950 . S
H2018 C2023 0.950 . S
H2019 C2024 0.949 . S
H2020 C2026 0.950 . S
H2021 C2027 0.950 . S
H2022 C2028 0.949 . S
C2023 H2018 0.950 . S
C2023 C2025 1.327 . S
C2023 C2029 1.429 . S
C2024 C2016 1.574 . S
C2024 H2019 0.949 . S
C2024 C2030 1.368 . S
C2025 C2009 1.349 . S
C2025 H2017 0.950 . S
C2025 C2023 1.327 . S
C2026 C2014 1.349 . S
C2026 H2020 0.950 . S
C2026 C2027 1.327 . S
C2027 H2021 0.950 . S
C2027 C2026 1.327 . S
C2027 C2031 1.429 . S
C2028 C2011 1.574 . S
C2028 H2022 0.949 . S
C2028 C2032 1.368 . S
C2029 C2010 1.429 . S
C2029 C2023 1.429 . S
C2029 C2030 1.523 . S
C2030 C2011 1.368 . S
C2030 C2024 1.368 . S
C2030 C2029 1.523 . S
C2031 C2015 1.429 . S
C2031 C2027 1.429 . S
C2031 C2032 1.523 . S
C2032 C2016 1.368 . S
C2032 C2028 1.368 . S
C2032 C2031 1.523 . S
H2033 C2008 0.950 . S
H2034 C2010 0.950 . S
H2035 C2011 0.949 . S
H2036 C2013 0.950 . S
H2037 C2015 0.950 . S
C2038 C2039 1.349 . S
C2038 C2040 1.327 . S
C2038 H2063 0.950 . S
C2039 C2038 1.349 . S
C2039 C2055 1.349 . S
C2040 C2038 1.327 . S
C2040 C2059 1.429 . S
C2040 H2064 0.950 . S
C2041 C2058 1.574 . S
C2041 C2060 1.368 . S
C2041 H2065 0.949 . S
H2042 C2046 0.949 . S
C2043 C2044 1.349 . S
C2043 C2045 1.327 . S
C2043 H2066 0.950 . S
C2044 C2043 1.349 . S
C2044 C2056 1.349 . S
C2045 C2043 1.327 . S
C2045 C2061 1.429 . S
C2045 H2067 0.950 . S
C2046 H2042 0.949 . S
C2046 C2054 1.574 . S
C2046 C2062 1.368 . S
H2047 C2055 0.950 . S
H2048 C2053 0.950 . S
H2049 C2054 0.949 . S
H2050 C2056 0.950 . S
H2051 C2057 0.950 . S
H2052 C2058 0.949 . S
C2053 H2048 0.950 . S
C2053 C2055 1.327 . S
C2053 C2059 1.429 . S
C2054 C2046 1.574 . S
C2054 H2049 0.949 . S
C2054 C2060 1.368 . S
C2055 C2039 1.349 . S
C2055 H2047 0.950 . S
C2055 C2053 1.327 . S
C2056 C2044 1.349 . S
C2056 H2050 0.950 . S
C2056 C2057 1.327 . S
C2057 H2051 0.950 . S
C2057 C2056 1.327 . S
C2057 C2061 1.429 . S
C2058 C2041 1.574 . S
C2058 H2052 0.949 . S
C2058 C2062 1.368 . S
C2059 C2040 1.429 . S
C2059 C2053 1.429 . S
C2059 C2060 1.523 . S
C2060 C2041 1.368 . S
C2060 C2054 1.368 . S
C2060 C2059 1.523 . S
C2061 C2045 1.429 . S
C2061 C2057 1.429 . S
C2061 C2062 1.523 . S
C2062 C2046 1.368 . S
C2062 C2058 1.368 . S
C2062 C2061 1.523 . S
H2063 C2038 0.950 . S
H2064 C2040 0.950 . S
H2065 C2041 0.949 . S
H2066 C2043 0.950 . S
H2067 C2045 0.950 . S
C2068 C2069 1.349 . S
C2068 C2070 1.327 . S
C2068 H2093 0.950 . S
C2069 C2068 1.349 . S
C2069 C2085 1.349 . S
C2070 C2068 1.327 . S
C2070 C2089 1.429 . S
C2070 H2094 0.950 . S
C2071 C2088 1.574 . S
C2071 C2090 1.368 . S
C2071 H2095 0.949 . S
H2072 C2076 0.949 . S
C2073 C2074 1.349 . S
C2073 C2075 1.327 . S
C2073 H2096 0.950 . S
C2074 C2073 1.349 . S
C2074 C2086 1.349 . S
C2075 C2073 1.327 . S
C2075 C2091 1.429 . S
C2075 H2097 0.950 . S
C2076 H2072 0.949 . S
C2076 C2084 1.574 . S
C2076 C2092 1.368 . S
H2077 C2085 0.950 . S
H2078 C2083 0.950 . S
H2079 C2084 0.949 . S
H2080 C2086 0.950 . S
H2081 C2087 0.950 . S
H2082 C2088 0.949 . S
C2083 H2078 0.950 . S
C2083 C2085 1.327 . S
C2083 C2089 1.429 . S
C2084 C2076 1.574 . S
C2084 H2079 0.949 . S
C2084 C2090 1.368 . S
C2085 C2069 1.349 . S
C2085 H2077 0.950 . S
C2085 C2083 1.327 . S
C2086 C2074 1.349 . S
C2086 H2080 0.950 . S
C2086 C2087 1.327 . S
C2087 H2081 0.950 . S
C2087 C2086 1.327 . S
C2087 C2091 1.429 . S
C2088 C2071 1.574 . S
C2088 H2082 0.949 . S
C2088 C2092 1.368 . S
C2089 C2070 1.429 . S
C2089 C2083 1.429 . S
C2089 C2090 1.523 . S
C2090 C2071 1.368 . S
C2090 C2084 1.368 . S
C2090 C2089 1.523 . S
C2091 C2075 1.429 . S
C2091 C2087 1.429 . S
C2091 C2092 1.523 . S
C2092 C2076 1.368 . S
C2092 C2088 1.368 . S
C2092 C2091 1.523 . S
H2093 C2068 0.950 . S
H2094 C2070 0.950 . S
H2095 C2071 0.949 . S
H2096 C2073 0.950 . S
H2097 C2075 0.950 . S
C2098 C2099 1.349 . S
C2098 C2100 1.327 . S
C2098 H2123 0.950 . S
C2099 C2098 1.349 . S
C2099 C2115 1.349 . S
C2100 C2098 1.327 . S
C2100 C2119 1.429 . S
C2100 H2124 0.950 . S
C2101 C2118 1.574 . S
C2101 C2120 1.368 . S
C2101 H2125 0.949 . S
H2102 C2106 0.949 . S
C2103 C2104 1.349 . S
C2103 C2105 1.327 . S
C2103 H2126 0.950 . S
C2104 C2103 1.349 . S
C2104 C2116 1.349 . S
C2105 C2103 1.327 . S
C2105 C2121 1.429 . S
C2105 H2127 0.950 . S
C2106 H2102 0.949 . S
C2106 C2114 1.574 . S
C2106 C2122 1.368 . S
H2107 C2115 0.950 . S
H2108 C2113 0.950 . S
H2109 C2114 0.949 . S
H2110 C2116 0.950 . S
H2111 C2117 0.950 . S
H2112 C2118 0.949 . S
C2113 H2108 0.950 . S
C2113 C2115 1.327 . S
C2113 C2119 1.429 . S
C2114 C2106 1.574 . S
C2114 H2109 0.949 . S
C2114 C2120 1.368 . S
C2115 C2099 1.349 . S
C2115 H2107 0.950 . S
C2115 C2113 1.327 . S
C2116 C2104 1.349 . S
C2116 H2110 0.950 . S
C2116 C2117 1.327 . S
C2117 H2111 0.950 . S
C2117 C2116 1.327 . S
C2117 C2121 1.429 . S
C2118 C2101 1.574 . S
C2118 H2112 0.949 . S
C2118 C2122 1.368 . S
C2119 C2100 1.429 . S
C2119 C2113 1.429 . S
C2119 C2120 1.523 . S
C2120 C2101 1.368 . S
C2120 C2114 1.368 . S
C2120 C2119 1.523 . S
C2121 C2105 1.429 . S
C2121 C2117 1.429 . S
C2121 C2122 1.523 . S
C2122 C2106 1.368 . S
C2122 C2118 1.368 . S
C2122 C2121 1.523 . S
H2123 C2098 0.950 . S
H2124 C2100 0.950 . S
H2125 C2101 0.949 . S
H2126 C2103 0.950 . S
H2127 C2105 0.950 . S
C2128 C2129 1.349 . S
C2128 C2130 1.327 . S
C2128 H2153 0.950 . S
C2129 C2128 1.349 . S
C2129 C2145 1.349 . S
C2130 C2128 1.327 . S
C2130 C2149 1.429 . S
C2130 H2154 0.950 . S
C2131 C2148 1.574 . S
C2131 C2150 1.368 . S
C2131 H2155 0.949 . S
H2132 C2136 0.949 . S
C2133 C2134 1.349 . S
C2133 C2135 1.327 . S
C2133 H2156 0.950 . S
C2134 C2133 1.349 . S
C2134 C2146 1.349 . S
C2135 C2133 1.327 . S
C2135 C2151 1.429 . S
C2135 H2157 0.950 . S
C2136 H2132 0.949 . S
C2136 C2144 1.574 . S
C2136 C2152 1.368 . S
H2137 C2145 0.950 . S
H2138 C2143 0.950 . S
H2139 C2144 0.949 . S
H2140 C2146 0.950 . S
H2141 C2147 0.950 . S
H2142 C2148 0.949 . S
C2143 H2138 0.950 . S
C2143 C2145 1.327 . S
C2143 C2149 1.429 . S
C2144 C2136 1.574 . S
C2144 H2139 0.949 . S
C2144 C2150 1.368 . S
C2145 C2129 1.349 . S
C2145 H2137 0.950 . S
C2145 C2143 1.327 . S
C2146 C2134 1.349 . S
C2146 H2140 0.950 . S
C2146 C2147 1.327 . S
C2147 H2141 0.950 . S
C2147 C2146 1.327 . S
C2147 C2151 1.429 . S
C2148 C2131 1.574 . S
C2148 H2142 0.949 . S
C2148 C2152 1.368 . S
C2149 C2130 1.429 . S
C2149 C2143 1.429 . S
C2149 C2150 1.523 . S
C2150 C2131 1.368 . S
C2150 C2144 1.368 . S
C2150 C2149 1.523 . S
C2151 C2135 1.429 . S
C2151 C2147 1.429 . S
C2151 C2152 1.523 . S
C2152 C2136 1.368 . S
C2152 C2148 1.368 . S
C2152 C2151 1.523 . S
H2153 C2128 0.950 . S
H2154 C2130 0.950 . S
H2155 C2131 0.949 . S
H2156 C2133 0.950 . S
H2157 C2135 0.950 . S
C2158 C2159 1.349 . S
C2158 C2160 1.327 . S
C2158 H2183 0.950 . S
C2159 C2158 1.349 . S
C2159 C2175 1.349 . S
C2160 C2158 1.327 . S
C2160 C2179 1.429 . S
C2160 H2184 0.950 . S
C2161 C2178 1.574 . S
C2161 C2180 1.368 . S
C2161 H2185 0.949 . S
H2162 C2166 0.949 . S
C2163 C2164 1.349 . S
C2163 C2165 1.327 . S
C2163 H2186 0.950 . S
C2164 C2163 1.349 . S
C2164 C2176 1.349 . S
C2165 C2163 1.327 . S
C2165 C2181 1.429 . S
C2165 H2187 0.950 . S
C2166 H2162 0.949 . S
C2166 C2174 1.574 . S
C2166 C2182 1.368 . S
H2167 C2175 0.950 . S
H2168 C2173 0.950 . S
H2169 C2174 0.949 . S
H2170 C2176 0.950 . S
H2171 C2177 0.950 . S
H2172 C2178 0.949 . S
C2173 H2168 0.950 . S
C2173 C2175 1.327 . S
C2173 C2179 1.429 . S
C2174 C2166 1.574 . S
C2174 H2169 0.949 . S
C2174 C2180 1.368 . S
C2175 C2159 1.349 . S
C2175 H2167 0.950 . S
C2175 C2173 1.327 . S
C2176 C2164 1.349 . S
C2176 H2170 0.950 . S
C2176 C2177 1.327 . S
C2177 H2171 0.950 . S
C2177 C2176 1.327 . S
C2177 C2181 1.429 . S
C2178 C2161 1.574 . S
C2178 H2172 0.949 . S
C2178 C2182 1.368 . S
C2179 C2160 1.429 . S
C2179 C2173 1.429 . S
C2179 C2180 1.523 . S
C2180 C2161 1.368 . S
C2180 C2174 1.368 . S
C2180 C2179 1.523 . S
C2181 C2165 1.429 . S
C2181 C2177 1.429 . S
C2181 C2182 1.523 . S
C2182 C2166 1.368 . S
C2182 C2178 1.368 . S
C2182 C2181 1.523 . S
H2183 C2158 0.950 . S
H2184 C2160 0.950 . S
H2185 C2161 0.949 . S
H2186 C2163 0.950 . S
H2187 C2165 0.950 . S
C2188 C2189 1.349 . S
C2188 C2190 1.327 . S
C2188 H2213 0.950 . S
C2189 C2188 1.349 . S
C2189 C2205 1.349 . S
C2190 C2188 1.327 . S
C2190 C2209 1.429 . S
C2190 H2214 0.950 . S
C2191 C2208 1.574 . S
C2191 C2210 1.368 . S
C2191 H2215 0.949 . S
H2192 C2196 0.949 . S
C2193 C2194 1.349 . S
C2193 C2195 1.327 . S
C2193 H2216 0.950 . S
C2194 C2193 1.349 . S
C2194 C2206 1.349 . S
C2195 C2193 1.327 . S
C2195 C2211 1.429 . S
C2195 H2217 0.950 . S
C2196 H2192 0.949 . S
C2196 C2204 1.574 . S
C2196 C2212 1.368 . S
H2197 C2205 0.950 . S
H2198 C2203 0.950 . S
H2199 C2204 0.949 . S
H2200 C2206 0.950 . S
H2201 C2207 0.950 . S
H2202 C2208 0.949 . S
C2203 H2198 0.950 . S
C2203 C2205 1.327 . S
C2203 C2209 1.429 . S
C2204 C2196 1.574 . S
C2204 H2199 0.949 . S
C2204 C2210 1.368 . S
C2205 C2189 1.349 . S
C2205 H2197 0.950 . S
C2205 C2203 1.327 . S
C2206 C2194 1.349 . S
C2206 H2200 0.950 . S
C2206 C2207 1.327 . S
C2207 H2201 0.950 . S
C2207 C2206 1.327 . S
C2207 C2211 1.429 . S
C2208 C2191 1.574 . S
C2208 H2202 0.949 . S
C2208 C2212 1.368 . S
C2209 C2190 1.429 . S
C2209 C2203 1.429 . S
C2209 C2210 1.523 . S
C2210 C2191 1.368 . S
C2210 C2204 1.368 . S
C2210 C2209 1.523 . S
C2211 C2195 1.429 . S
C2211 C2207 1.429 . S
C2211 C2212 1.523 . S
C2212 C2196 1.368 . S
C2212 C2208 1.368 . S
C2212 C2211 1.523 . S
H2213 C2188 0.950 . S
H2214 C2190 0.950 . S
H2215 C2191 0.949 . S
H2216 C2193 0.950 . S
H2217 C2195 0.950 . S
C2218 C2219 1.349 . S
C2218 C2220 1.327 . S
C2218 H2243 0.950 . S
C2219 C2218 1.349 . S
C2219 C2235 1.349 . S
C2220 C2218 1.327 . S
C2220 C2239 1.429 . S
C2220 H2244 0.950 . S
C2221 C2238 1.574 . S
C2221 C2240 1.368 . S
C2221 H2245 0.949 . S
H2222 C2226 0.949 . S
C2223 C2224 1.349 . S
C2223 C2225 1.327 . S
C2223 H2246 0.950 . S
C2224 C2223 1.349 . S
C2224 C2236 1.349 . S
C2225 C2223 1.327 . S
C2225 C2241 1.429 . S
C2225 H2247 0.950 . S
C2226 H2222 0.949 . S
C2226 C2234 1.574 . S
C2226 C2242 1.368 . S
H2227 C2235 0.950 . S
H2228 C2233 0.950 . S
H2229 C2234 0.949 . S
H2230 C2236 0.950 . S
H2231 C2237 0.950 . S
H2232 C2238 0.949 . S
C2233 H2228 0.950 . S
C2233 C2235 1.327 . S
C2233 C2239 1.429 . S
C2234 C2226 1.574 . S
C2234 H2229 0.949 . S
C2234 C2240 1.368 . S
C2235 C2219 1.349 . S
C2235 H2227 0.950 . S
C2235 C2233 1.327 . S
C2236 C2224 1.349 . S
C2236 H2230 0.950 . S
C2236 C2237 1.327 . S
C2237 H2231 0.950 . S
C2237 C2236 1.327 . S
C2237 C2241 1.429 . S
C2238 C2221 1.574 . S
C2238 H2232 0.949 . S
C2238 C2242 1.368 . S
C2239 C2220 1.429 . S
C2239 C2233 1.429 . S
C2239 C2240 1.523 . S
C2240 C2221 1.368 . S
C2240 C2234 1.368 . S
C2240 C2239 1.523 . S
C2241 C2225 1.429 . S
C2241 C2237 1.429 . S
C2241 C2242 1.523 . S
C2242 C2226 1.368 . S
C2242 C2238 1.368 . S
C2242 C2241 1.523 . S
H2243 C2218 0.950 . S
H2244 C2220 0.950 . S
H2245 C2221 0.949 . S
H2246 C2223 0.950 . S
H2247 C2225 0.950 . S
C2248 C2249 1.349 . S
C2248 C2250 1.327 . S
C2248 H2273 0.950 . S
C2249 C2248 1.349 . S
C2249 C2265 1.349 . S
C2250 C2248 1.327 . S
C2250 C2269 1.429 . S
C2250 H2274 0.950 . S
C2251 C2268 1.574 . S
C2251 C2270 1.368 . S
C2251 H2275 0.949 . S
H2252 C2256 0.949 . S
C2253 C2254 1.349 . S
C2253 C2255 1.327 . S
C2253 H2276 0.950 . S
C2254 C2253 1.349 . S
C2254 C2266 1.349 . S
C2255 C2253 1.327 . S
C2255 C2271 1.429 . S
C2255 H2277 0.950 . S
C2256 H2252 0.949 . S
C2256 C2264 1.574 . S
C2256 C2272 1.368 . S
H2257 C2265 0.950 . S
H2258 C2263 0.950 . S
H2259 C2264 0.949 . S
H2260 C2266 0.950 . S
H2261 C2267 0.950 . S
H2262 C2268 0.949 . S
C2263 H2258 0.950 . S
C2263 C2265 1.327 . S
C2263 C2269 1.429 . S
C2264 C2256 1.574 . S
C2264 H2259 0.949 . S
C2264 C2270 1.368 . S
C2265 C2249 1.349 . S
C2265 H2257 0.950 . S
C2265 C2263 1.327 . S
C2266 C2254 1.349 . S
C2266 H2260 0.950 . S
C2266 C2267 1.327 . S
C2267 H2261 0.950 . S
C2267 C2266 1.327 . S
C2267 C2271 1.429 . S
C2268 C2251 1.574 . S
C2268 H2262 0.949 . S
C2268 C2272 1.368 . S
C2269 C2250 1.429 . S
C2269 C2263 1.429 . S
C2269 C2270 1.523 . S
C2270 C2251 1.368 . S
C2270 C2264 1.368 . S
C2270 C2269 1.523 . S
C2271 C2255 1.429 . S
C2271 C2267 1.429 . S
C2271 C2272 1.523 . S
C2272 C2256 1.368 . S
C2272 C2268 1.368 . S
C2272 C2271 1.523 . S
H2273 C2248 0.950 . S
H2274 C2250 0.950 . S
H2275 C2251 0.949 . S
H2276 C2253 0.950 . S
H2277 C2255 0.950 . S
C2278 C2279 1.349 . S
C2278 C2280 1.327 . S
C2278 H2303 0.950 . S
C2279 C2278 1.349 . S
C2279 C2295 1.349 . S
C2280 C2278 1.327 . S
C2280 C2299 1.429 . S
C2280 H2304 0.950 . S
C2281 C2298 1.574 . S
C2281 C2300 1.368 . S
C2281 H2305 0.949 . S
H2282 C2286 0.949 . S
C2283 C2284 1.349 . S
C2283 C2285 1.327 . S
C2283 H2306 0.950 . S
C2284 C2283 1.349 . S
C2284 C2296 1.349 . S
C2285 C2283 1.327 . S
C2285 C2301 1.429 . S
C2285 H2307 0.950 . S
C2286 H2282 0.949 . S
C2286 C2294 1.574 . S
C2286 C2302 1.368 . S
H2287 C2295 0.950 . S
H2288 C2293 0.950 . S
H2289 C2294 0.949 . S
H2290 C2296 0.950 . S
H2291 C2297 0.950 . S
H2292 C2298 0.949 . S
C2293 H2288 0.950 . S
C2293 C2295 1.327 . S
C2293 C2299 1.429 . S
C2294 C2286 1.574 . S
C2294 H2289 0.949 . S
C2294 C2300 1.368 . S
C2295 C2279 1.349 . S
C2295 H2287 0.950 . S
C2295 C2293 1.327 . S
C2296 C2284 1.349 . S
C2296 H2290 0.950 . S
C2296 C2297 1.327 . S
C2297 H2291 0.950 . S
C2297 C2296 1.327 . S
C2297 C2301 1.429 . S
C2298 C2281 1.574 . S
C2298 H2292 0.949 . S
C2298 C2302 1.368 . S
C2299 C2280 1.429 . S
C2299 C2293 1.429 . S
C2299 C2300 1.523 . S
C2300 C2281 1.368 . S
C2300 C2294 1.368 . S
C2300 C2299 1.523 . S
C2301 C2285 1.429 . S
C2301 C2297 1.429 . S
C2301 C2302 1.523 . S
C2302 C2286 1.368 . S
C2302 C2298 1.368 . S
C2302 C2301 1.523 . S
H2303 C2278 0.950 . S
H2304 C2280 0.950 . S
H2305 C2281 0.949 . S
H2306 C2283 0.950 . S
H2307 C2285 0.950 . S
C2308 C2309 1.349 . S
C2308 C2310 1.327 . S
C2308 H2333 0.950 . S
C2309 C2308 1.349 . S
C2309 C2325 1.349 . S
C2310 C2308 1.327 . S
C2310 C2329 1.429 . S
C2310 H2334 0.950 . S
C2311 C2328 1.574 . S
C2311 C2330 1.368 . S
C2311 H2335 0.949 . S
H2312 C2316 0.949 . S
C2313 C2314 1.349 . S
C2313 C2315 1.327 . S
C2313 H2336 0.950 . S
C2314 C2313 1.349 . S
C2314 C2326 1.349 . S
C2315 C2313 1.327 . S
C2315 C2331 1.429 . S
C2315 H2337 0.950 . S
C2316 H2312 0.949 . S
C2316 C2324 1.574 . S
C2316 C2332 1.368 . S
H2317 C2325 0.950 . S
H2318 C2323 0.950 . S
H2319 C2324 0.949 . S
H2320 C2326 0.950 . S
H2321 C2327 0.950 . S
H2322 C2328 0.949 . S
C2323 H2318 0.950 . S
C2323 C2325 1.327 . S
C2323 C2329 1.429 . S
C2324 C2316 1.574 . S
C2324 H2319 0.949 . S
C2324 C2330 1.368 . S
C2325 C2309 1.349 . S
C2325 H2317 0.950 . S
C2325 C2323 1.327 . S
C2326 C2314 1.349 . S
C2326 H2320 0.950 . S
C2326 C2327 1.327 . S
C2327 H2321 0.950 . S
C2327 C2326 1.327 . S
C2327 C2331 1.429 . S
C2328 C2311 1.574 . S
C2328 H2322 0.949 . S
C2328 C2332 1.368 . S
C2329 C2310 1.429 . S
C2329 C2323 1.429 . S
C2329 C2330 1.523 . S
C2330 C2311 1.368 . S
C2330 C2324 1.368 . S
C2330 C2329 1.523 . S
C2331 C2315 1.429 . S
C2331 C2327 1.429 . S
C2331 C2332 1.523 . S
C2332 C2316 1.368 . S
C2332 C2328 1.368 . S
C2332 C2331 1.523 . S
H2333 C2308 0.950 . S
H2334 C2310 0.950 . S
H2335 C2311 0.949 . S
H2336 C2313 0.950 . S
H2337 C2315 0.950 . S
C2338 C2339 1.349 . S
C2338 C2340 1.327 . S
C2338 H2363 0.950 . S
C2339 C2338 1.349 . S
C2339 C2355 1.349 . S
C2340 C2338 1.327 . S
C2340 C2359 1.429 . S
C2340 H2364 0.950 . S
C2341 C2358 1.574 . S
C2341 C2360 1.368 . S
C2341 H2365 0.949 . S
H2342 C2346 0.949 . S
C2343 C2344 1.349 . S
C2343 C2345 1.327 . S
C2343 H2366 0.950 . S
C2344 C2343 1.349 . S
C2344 C2356 1.349 . S
C2345 C2343 1.327 . S
C2345 C2361 1.429 . S
C2345 H2367 0.950 . S
C2346 H2342 0.949 . S
C2346 C2354 1.574 . S
C2346 C2362 1.368 . S
H2347 C2355 0.950 . S
H2348 C2353 0.950 . S
H2349 C2354 0.949 . S
H2350 C2356 0.950 . S
H2351 C2357 0.950 . S
H2352 C2358 0.949 . S
C2353 H2348 0.950 . S
C2353 C2355 1.327 . S
C2353 C2359 1.429 . S
C2354 C2346 1.574 . S
C2354 H2349 0.949 . S
C2354 C2360 1.368 . S
C2355 C2339 1.349 . S
C2355 H2347 0.950 . S
C2355 C2353 1.327 . S
C2356 C2344 1.349 . S
C2356 H2350 0.950 . S
C2356 C2357 1.327 . S
C2357 H2351 0.950 . S
C2357 C2356 1.327 . S
C2357 C2361 1.429 . S
C2358 C2341 1.574 . S
C2358 H2352 0.949 . S
C2358 C2362 1.368 . S
C2359 C2340 1.429 . S
C2359 C2353 1.429 . S
C2359 C2360 1.523 . S
C2360 C2341 1.368 . S
C2360 C2354 1.368 . S
C2360 C2359 1.523 . S
C2361 C2345 1.429 . S
C2361 C2357 1.429 . S
C2361 C2362 1.523 . S
C2362 C2346 1.368 . S
C2362 C2358 1.368 . S
C2362 C2361 1.523 . S
H2363 C2338 0.950 . S
H2364 C2340 0.950 . S
H2365 C2341 0.949 . S
H2366 C2343 0.950 . S
H2367 C2345 0.950 . S
C2368 C2369 1.349 . S
C2368 C2370 1.327 . S
C2368 H2393 0.950 . S
C2369 C2368 1.349 . S
C2369 C2385 1.349 . S
C2370 C2368 1.327 . S
C2370 C2389 1.429 . S
C2370 H2394 0.950 . S
C2371 C2388 1.574 1_655 S
C2371 C2390 1.368 . S
C2371 H2395 0.949 . S
H2372 C2376 0.949 . S
C2373 C2374 1.349 . S
C2373 C2375 1.327 . S
C2373 H2396 0.950 . S
C2374 C2373 1.349 . S
C2374 C2386 1.349 . S
C2375 C2373 1.327 . S
C2375 C2391 1.429 . S
C2375 H2397 0.950 . S
C2376 H2372 0.949 . S
C2376 C2384 1.574 1_455 S
C2376 C2392 1.368 . S
H2377 C2385 0.950 . S
H2378 C2383 0.950 . S
H2379 C2384 0.949 . S
H2380 C2386 0.950 . S
H2381 C2387 0.950 . S
H2382 C2388 0.949 . S
C2383 H2378 0.950 . S
C2383 C2385 1.327 . S
C2383 C2389 1.429 . S
C2384 C2376 1.574 1_655 S
C2384 H2379 0.949 . S
C2384 C2390 1.368 . S
C2385 C2369 1.349 . S
C2385 H2377 0.950 . S
C2385 C2383 1.327 . S
C2386 C2374 1.349 . S
C2386 H2380 0.950 . S
C2386 C2387 1.327 . S
C2387 H2381 0.950 . S
C2387 C2386 1.327 . S
C2387 C2391 1.429 . S
C2388 C2371 1.574 1_455 S
C2388 H2382 0.949 . S
C2388 C2392 1.368 . S
C2389 C2370 1.429 . S
C2389 C2383 1.429 . S
C2389 C2390 1.523 . S
C2390 C2371 1.368 . S
C2390 C2384 1.368 . S
C2390 C2389 1.523 . S
C2391 C2375 1.429 . S
C2391 C2387 1.429 . S
C2391 C2392 1.523 . S
C2392 C2376 1.368 . S
C2392 C2388 1.368 . S
C2392 C2391 1.523 . S
H2393 C2368 0.950 . S
H2394 C2370 0.950 . S
H2395 C2371 0.949 . S
H2396 C2373 0.950 . S
H2397 C2375 0.950 . S
C2398 C2399 1.349 . S
C2398 C2400 1.327 . S
C2398 H2423 0.950 . S
C2399 C2398 1.349 . S
C2399 C2415 1.349 . S
C2400 C2398 1.327 . S
C2400 C2419 1.429 . S
C2400 H2424 0.950 . S
C2401 C2418 1.574 1_545 S
C2401 C2420 1.368 . S
C2401 H2425 0.949 . S
H2402 C2406 0.949 . S
C2403 C2404 1.349 . S
C2403 C2405 1.327 . S
C2403 H2426 0.950 . S
C2404 C2403 1.349 . S
C2404 C2416 1.349 . S
C2405 C2403 1.327 . S
C2405 C2421 1.429 . S
C2405 H2427 0.950 . S
C2406 H2402 0.949 . S
C2406 C2414 1.574 1_565 S
C2406 C2422 1.368 . S
H2407 C2415 0.950 . S
H2408 C2413 0.950 . S
H2409 C2414 0.949 . S
H2410 C2416 0.950 . S
H2411 C2417 0.950 . S
H2412 C2418 0.949 . S
C2413 H2408 0.950 . S
C2413 C2415 1.327 . S
C2413 C2419 1.429 . S
C2414 C2406 1.574 1_545 S
C2414 H2409 0.949 . S
C2414 C2420 1.368 . S
C2415 C2399 1.349 . S
C2415 H2407 0.950 . S
C2415 C2413 1.327 . S
C2416 C2404 1.349 . S
C2416 H2410 0.950 . S
C2416 C2417 1.327 . S
C2417 H2411 0.950 . S
C2417 C2416 1.327 . S
C2417 C2421 1.429 . S
C2418 C2401 1.574 1_565 S
C2418 H2412 0.949 . S
C2418 C2422 1.368 . S
C2419 C2400 1.429 . S
C2419 C2413 1.429 . S
C2419 C2420 1.523 . S
C2420 C2401 1.368 . S
C2420 C2414 1.368 . S
C2420 C2419 1.523 . S
C2421 C2405 1.429 . S
C2421 C2417 1.429 . S
C2421 C2422 1.523 . S
C2422 C2406 1.368 . S
C2422 C2418 1.368 . S
C2422 C2421 1.523 . S
H2423 C2398 0.950 . S
H2424 C2400 0.950 . S
H2425 C2401 0.949 . S
H2426 C2403 0.950 . S
H2427 C2405 0.950 . S
C2428 C2429 1.349 . S
C2428 C2430 1.327 . S
C2428 H2453 0.950 . S
C2429 C2428 1.349 . S
C2429 C2445 1.349 . S
C2430 C2428 1.327 . S
C2430 C2449 1.429 . S
C2430 H2454 0.950 . S
C2431 C2448 1.574 1_455 S
C2431 C2450 1.368 . S
C2431 H2455 0.949 . S
H2432 C2436 0.949 . S
C2433 C2434 1.349 . S
C2433 C2435 1.327 . S
C2433 H2456 0.950 . S
C2434 C2433 1.349 . S
C2434 C2446 1.349 . S
C2435 C2433 1.327 . S
C2435 C2451 1.429 . S
C2435 H2457 0.950 . S
C2436 H2432 0.949 . S
C2436 C2444 1.574 1_655 S
C2436 C2452 1.368 . S
H2437 C2445 0.950 . S
H2438 C2443 0.950 . S
H2439 C2444 0.949 . S
H2440 C2446 0.950 . S
H2441 C2447 0.950 . S
H2442 C2448 0.949 . S
C2443 H2438 0.950 . S
C2443 C2445 1.327 . S
C2443 C2449 1.429 . S
C2444 C2436 1.574 1_455 S
C2444 H2439 0.949 . S
C2444 C2450 1.368 . S
C2445 C2429 1.349 . S
C2445 H2437 0.950 . S
C2445 C2443 1.327 . S
C2446 C2434 1.349 . S
C2446 H2440 0.950 . S
C2446 C2447 1.327 . S
C2447 H2441 0.950 . S
C2447 C2446 1.327 . S
C2447 C2451 1.429 . S
C2448 C2431 1.574 1_655 S
C2448 H2442 0.949 . S
C2448 C2452 1.368 . S
C2449 C2430 1.429 . S
C2449 C2443 1.429 . S
C2449 C2450 1.523 . S
C2450 C2431 1.368 . S
C2450 C2444 1.368 . S
C2450 C2449 1.523 . S
C2451 C2435 1.429 . S
C2451 C2447 1.429 . S
C2451 C2452 1.523 . S
C2452 C2436 1.368 . S
C2452 C2448 1.368 . S
C2452 C2451 1.523 . S
H2453 C2428 0.950 . S
H2454 C2430 0.950 . S
H2455 C2431 0.949 . S
H2456 C2433 0.950 . S
H2457 C2435 0.950 . S
C2458 C2459 1.349 . S
C2458 C2460 1.327 . S
C2458 H2483 0.950 . S
C2459 C2458 1.349 . S
C2459 C2475 1.349 . S
C2460 C2458 1.327 . S
C2460 C2479 1.429 . S
C2460 H2484 0.950 . S
C2461 C2478 1.574 1_565 S
C2461 C2480 1.368 . S
C2461 H2485 0.949 . S
H2462 C2466 0.949 . S
C2463 C2464 1.349 . S
C2463 C2465 1.327 . S
C2463 H2486 0.950 . S
C2464 C2463 1.349 . S
C2464 C2476 1.349 . S
C2465 C2463 1.327 . S
C2465 C2481 1.429 . S
C2465 H2487 0.950 . S
C2466 H2462 0.949 . S
C2466 C2474 1.574 1_545 S
C2466 C2482 1.368 . S
H2467 C2475 0.950 . S
H2468 C2473 0.950 . S
H2469 C2474 0.949 . S
H2470 C2476 0.950 . S
H2471 C2477 0.950 . S
H2472 C2478 0.949 . S
C2473 H2468 0.950 . S
C2473 C2475 1.327 . S
C2473 C2479 1.429 . S
C2474 C2466 1.574 1_565 S
C2474 H2469 0.949 . S
C2474 C2480 1.368 . S
C2475 C2459 1.349 . S
C2475 H2467 0.950 . S
C2475 C2473 1.327 . S
C2476 C2464 1.349 . S
C2476 H2470 0.950 . S
C2476 C2477 1.327 . S
C2477 H2471 0.950 . S
C2477 C2476 1.327 . S
C2477 C2481 1.429 . S
C2478 C2461 1.574 1_545 S
C2478 H2472 0.949 . S
C2478 C2482 1.368 . S
C2479 C2460 1.429 . S
C2479 C2473 1.429 . S
C2479 C2480 1.523 . S
C2480 C2461 1.368 . S
C2480 C2474 1.368 . S
C2480 C2479 1.523 . S
C2481 C2465 1.429 . S
C2481 C2477 1.429 . S
C2481 C2482 1.523 . S
C2482 C2466 1.368 . S
C2482 C2478 1.368 . S
C2482 C2481 1.523 . S
H2483 C2458 0.950 . S
H2484 C2460 0.950 . S
H2485 C2461 0.949 . S
H2486 C2463 0.950 . S
H2487 C2465 0.950 . S
C2488 C2489 1.349 . S
C2488 C2490 1.327 . S
C2488 H2513 0.950 . S
C2489 C2488 1.349 . S
C2489 C2505 1.349 . S
C2490 C2488 1.327 . S
C2490 C2509 1.429 . S
C2490 H2514 0.950 . S
C2491 C2508 1.574 1_455 S
C2491 C2510 1.368 . S
C2491 H2515 0.949 . S
H2492 C2496 0.949 . S
C2493 C2494 1.349 . S
C2493 C2495 1.327 . S
C2493 H2516 0.950 . S
C2494 C2493 1.349 . S
C2494 C2506 1.349 . S
C2495 C2493 1.327 . S
C2495 C2511 1.429 . S
C2495 H2517 0.950 . S
C2496 H2492 0.949 . S
C2496 C2504 1.574 1_655 S
C2496 C2512 1.368 . S
H2497 C2505 0.950 . S
H2498 C2503 0.950 . S
H2499 C2504 0.949 . S
H2500 C2506 0.950 . S
H2501 C2507 0.950 . S
H2502 C2508 0.949 . S
C2503 H2498 0.950 . S
C2503 C2505 1.327 . S
C2503 C2509 1.429 . S
C2504 C2496 1.574 1_455 S
C2504 H2499 0.949 . S
C2504 C2510 1.368 . S
C2505 C2489 1.349 . S
C2505 H2497 0.950 . S
C2505 C2503 1.327 . S
C2506 C2494 1.349 . S
C2506 H2500 0.950 . S
C2506 C2507 1.327 . S
C2507 H2501 0.950 . S
C2507 C2506 1.327 . S
C2507 C2511 1.429 . S
C2508 C2491 1.574 1_655 S
C2508 H2502 0.949 . S
C2508 C2512 1.368 . S
C2509 C2490 1.429 . S
C2509 C2503 1.429 . S
C2509 C2510 1.523 . S
C2510 C2491 1.368 . S
C2510 C2504 1.368 . S
C2510 C2509 1.523 . S
C2511 C2495 1.429 . S
C2511 C2507 1.429 . S
C2511 C2512 1.523 . S
C2512 C2496 1.368 . S
C2512 C2508 1.368 . S
C2512 C2511 1.523 . S
H2513 C2488 0.950 . S
H2514 C2490 0.950 . S
H2515 C2491 0.949 . S
H2516 C2493 0.950 . S
H2517 C2495 0.950 . S
C2518 C2519 1.349 . S
C2518 C2520 1.327 . S
C2518 H2543 0.950 . S
C2519 C2518 1.349 . S
C2519 C2535 1.349 . S
C2520 C2518 1.327 . S
C2520 C2539 1.429 . S
C2520 H2544 0.950 . S
C2521 C2538 1.574 1_565 S
C2521 C2540 1.368 . S
C2521 H2545 0.949 . S
H2522 C2526 0.949 . S
C2523 C2524 1.349 . S
C2523 C2525 1.327 . S
C2523 H2546 0.950 . S
C2524 C2523 1.349 . S
C2524 C2536 1.349 . S
C2525 C2523 1.327 . S
C2525 C2541 1.429 . S
C2525 H2547 0.950 . S
C2526 H2522 0.949 . S
C2526 C2534 1.574 1_545 S
C2526 C2542 1.368 . S
H2527 C2535 0.950 . S
H2528 C2533 0.950 . S
H2529 C2534 0.949 . S
H2530 C2536 0.950 . S
H2531 C2537 0.950 . S
H2532 C2538 0.949 . S
C2533 H2528 0.950 . S
C2533 C2535 1.327 . S
C2533 C2539 1.429 . S
C2534 C2526 1.574 1_565 S
C2534 H2529 0.949 . S
C2534 C2540 1.368 . S
C2535 C2519 1.349 . S
C2535 H2527 0.950 . S
C2535 C2533 1.327 . S
C2536 C2524 1.349 . S
C2536 H2530 0.950 . S
C2536 C2537 1.327 . S
C2537 H2531 0.950 . S
C2537 C2536 1.327 . S
C2537 C2541 1.429 . S
C2538 C2521 1.574 1_545 S
C2538 H2532 0.949 . S
C2538 C2542 1.368 . S
C2539 C2520 1.429 . S
C2539 C2533 1.429 . S
C2539 C2540 1.523 . S
C2540 C2521 1.368 . S
C2540 C2534 1.368 . S
C2540 C2539 1.523 . S
C2541 C2525 1.429 . S
C2541 C2537 1.429 . S
C2541 C2542 1.523 . S
C2542 C2526 1.368 . S
C2542 C2538 1.368 . S
C2542 C2541 1.523 . S
H2543 C2518 0.950 . S
H2544 C2520 0.950 . S
H2545 C2521 0.949 . S
H2546 C2523 0.950 . S
H2547 C2525 0.950 . S
C2548 C2549 1.349 . S
C2548 C2550 1.327 . S
C2548 H2573 0.950 . S
C2549 C2548 1.349 . S
C2549 C2565 1.349 . S
C2550 C2548 1.327 . S
C2550 C2569 1.429 . S
C2550 H2574 0.950 . S
C2551 C2568 1.574 1_455 S
C2551 C2570 1.368 . S
C2551 H2575 0.949 . S
H2552 C2556 0.949 . S
C2553 C2554 1.349 . S
C2553 C2555 1.327 . S
C2553 H2576 0.950 . S
C2554 C2553 1.349 . S
C2554 C2566 1.349 . S
C2555 C2553 1.327 . S
C2555 C2571 1.429 . S
C2555 H2577 0.950 . S
C2556 H2552 0.949 . S
C2556 C2564 1.574 1_655 S
C2556 C2572 1.368 . S
H2557 C2565 0.950 . S
H2558 C2563 0.950 . S
H2559 C2564 0.949 . S
H2560 C2566 0.950 . S
H2561 C2567 0.950 . S
H2562 C2568 0.949 . S
C2563 H2558 0.950 . S
C2563 C2565 1.327 . S
C2563 C2569 1.429 . S
C2564 C2556 1.574 1_455 S
C2564 H2559 0.949 . S
C2564 C2570 1.368 . S
C2565 C2549 1.349 . S
C2565 H2557 0.950 . S
C2565 C2563 1.327 . S
C2566 C2554 1.349 . S
C2566 H2560 0.950 . S
C2566 C2567 1.327 . S
C2567 H2561 0.950 . S
C2567 C2566 1.327 . S
C2567 C2571 1.429 . S
C2568 C2551 1.574 1_655 S
C2568 H2562 0.949 . S
C2568 C2572 1.368 . S
C2569 C2550 1.429 . S
C2569 C2563 1.429 . S
C2569 C2570 1.523 . S
C2570 C2551 1.368 . S
C2570 C2564 1.368 . S
C2570 C2569 1.523 . S
C2571 C2555 1.429 . S
C2571 C2567 1.429 . S
C2571 C2572 1.523 . S
C2572 C2556 1.368 . S
C2572 C2568 1.368 . S
C2572 C2571 1.523 . S
H2573 C2548 0.950 . S
H2574 C2550 0.950 . S
H2575 C2551 0.949 . S
H2576 C2553 0.950 . S
H2577 C2555 0.950 . S
C2578 C2579 1.349 . S
C2578 C2580 1.327 . S
C2578 H2603 0.950 . S
C2579 C2578 1.349 . S
C2579 C2595 1.349 . S
C2580 C2578 1.327 . S
C2580 C2599 1.429 . S
C2580 H2604 0.950 . S
C2581 C2598 1.574 1_545 S
C2581 C2600 1.368 . S
C2581 H2605 0.949 . S
H2582 C2586 0.949 . S
C2583 C2584 1.349 . S
C2583 C2585 1.327 . S
C2583 H2606 0.950 . S
C2584 C2583 1.349 . S
C2584 C2596 1.349 . S
C2585 C2583 1.327 . S
C2585 C2601 1.429 . S
C2585 H2607 0.950 . S
C2586 H2582 0.949 . S
C2586 C2594 1.574 1_565 S
C2586 C2602 1.368 . S
H2587 C2595 0.950 . S
H2588 C2593 0.950 . S
H2589 C2594 0.949 . S
H2590 C2596 0.950 . S
H2591 C2597 0.950 . S
H2592 C2598 0.949 . S
C2593 H2588 0.950 . S
C2593 C2595 1.327 . S
C2593 C2599 1.429 . S
C2594 C2586 1.574 1_545 S
C2594 H2589 0.949 . S
C2594 C2600 1.368 . S
C2595 C2579 1.349 . S
C2595 H2587 0.950 . S
C2595 C2593 1.327 . S
C2596 C2584 1.349 . S
C2596 H2590 0.950 . S
C2596 C2597 1.327 . S
C2597 H2591 0.950 . S
C2597 C2596 1.327 . S
C2597 C2601 1.429 . S
C2598 C2581 1.574 1_565 S
C2598 H2592 0.949 . S
C2598 C2602 1.368 . S
C2599 C2580 1.429 . S
C2599 C2593 1.429 . S
C2599 C2600 1.523 . S
C2600 C2581 1.368 . S
C2600 C2594 1.368 . S
C2600 C2599 1.523 . S
C2601 C2585 1.429 . S
C2601 C2597 1.429 . S
C2601 C2602 1.523 . S
C2602 C2586 1.368 . S
C2602 C2598 1.368 . S
C2602 C2601 1.523 . S
H2603 C2578 0.950 . S
H2604 C2580 0.950 . S
H2605 C2581 0.949 . S
H2606 C2583 0.950 . S
H2607 C2585 0.950 . S
C2608 C2609 1.349 . S
C2608 C2610 1.327 . S
C2608 H2633 0.950 . S
C2609 C2608 1.349 . S
C2609 C2625 1.349 . S
C2610 C2608 1.327 . S
C2610 C2629 1.429 . S
C2610 H2634 0.950 . S
C2611 C2628 1.574 . S
C2611 C2630 1.368 . S
C2611 H2635 0.949 . S
H2612 C2616 0.949 . S
C2613 C2614 1.349 . S
C2613 C2615 1.327 . S
C2613 H2636 0.950 . S
C2614 C2613 1.349 . S
C2614 C2626 1.349 . S
C2615 C2613 1.327 . S
C2615 C2631 1.429 . S
C2615 H2637 0.950 . S
C2616 H2612 0.949 . S
C2616 C2624 1.574 . S
C2616 C2632 1.368 . S
H2617 C2625 0.950 . S
H2618 C2623 0.950 . S
H2619 C2624 0.949 . S
H2620 C2626 0.950 . S
H2621 C2627 0.950 . S
H2622 C2628 0.949 . S
C2623 H2618 0.950 . S
C2623 C2625 1.327 . S
C2623 C2629 1.429 . S
C2624 C2616 1.574 . S
C2624 H2619 0.949 . S
C2624 C2630 1.368 . S
C2625 C2609 1.349 . S
C2625 H2617 0.950 . S
C2625 C2623 1.327 . S
C2626 C2614 1.349 . S
C2626 H2620 0.950 . S
C2626 C2627 1.327 . S
C2627 H2621 0.950 . S
C2627 C2626 1.327 . S
C2627 C2631 1.429 . S
C2628 C2611 1.574 . S
C2628 H2622 0.949 . S
C2628 C2632 1.368 . S
C2629 C2610 1.429 . S
C2629 C2623 1.429 . S
C2629 C2630 1.523 . S
C2630 C2611 1.368 . S
C2630 C2624 1.368 . S
C2630 C2629 1.523 . S
C2631 C2615 1.429 . S
C2631 C2627 1.429 . S
C2631 C2632 1.523 . S
C2632 C2616 1.368 . S
C2632 C2628 1.368 . S
C2632 C2631 1.523 . S
H2633 C2608 0.950 . S
H2634 C2610 0.950 . S
H2635 C2611 0.949 . S
H2636 C2613 0.950 . S
H2637 C2615 0.950 . S
C2638 C2639 1.349 . S
C2638 C2640 1.327 . S
C2638 H2663 0.950 . S
C2639 C2638 1.349 . S
C2639 C2655 1.349 . S
C2640 C2638 1.327 . S
C2640 C2659 1.429 . S
C2640 H2664 0.950 . S
C2641 C2658 1.574 . S
C2641 C2660 1.368 . S
C2641 H2665 0.949 . S
H2642 C2646 0.949 . S
C2643 C2644 1.349 . S
C2643 C2645 1.327 . S
C2643 H2666 0.950 . S
C2644 C2643 1.349 . S
C2644 C2656 1.349 . S
C2645 C2643 1.327 . S
C2645 C2661 1.429 . S
C2645 H2667 0.950 . S
C2646 H2642 0.949 . S
C2646 C2654 1.574 . S
C2646 C2662 1.368 . S
H2647 C2655 0.950 . S
H2648 C2653 0.950 . S
H2649 C2654 0.949 . S
H2650 C2656 0.950 . S
H2651 C2657 0.950 . S
H2652 C2658 0.949 . S
C2653 H2648 0.950 . S
C2653 C2655 1.327 . S
C2653 C2659 1.429 . S
C2654 C2646 1.574 . S
C2654 H2649 0.949 . S
C2654 C2660 1.368 . S
C2655 C2639 1.349 . S
C2655 H2647 0.950 . S
C2655 C2653 1.327 . S
C2656 C2644 1.349 . S
C2656 H2650 0.950 . S
C2656 C2657 1.327 . S
C2657 H2651 0.950 . S
C2657 C2656 1.327 . S
C2657 C2661 1.429 . S
C2658 C2641 1.574 . S
C2658 H2652 0.949 . S
C2658 C2662 1.368 . S
C2659 C2640 1.429 . S
C2659 C2653 1.429 . S
C2659 C2660 1.523 . S
C2660 C2641 1.368 . S
C2660 C2654 1.368 . S
C2660 C2659 1.523 . S
C2661 C2645 1.429 . S
C2661 C2657 1.429 . S
C2661 C2662 1.523 . S
C2662 C2646 1.368 . S
C2662 C2658 1.368 . S
C2662 C2661 1.523 . S
H2663 C2638 0.950 . S
H2664 C2640 0.950 . S
H2665 C2641 0.949 . S
H2666 C2643 0.950 . S
H2667 C2645 0.950 . S
C2668 C2669 1.349 . S
C2668 C2670 1.327 . S
C2668 H2693 0.950 . S
C2669 C2668 1.349 . S
C2669 C2685 1.349 . S
C2670 C2668 1.327 . S
C2670 C2689 1.429 . S
C2670 H2694 0.950 . S
C2671 C2688 1.574 . S
C2671 C2690 1.368 . S
C2671 H2695 0.949 . S
H2672 C2676 0.949 . S
C2673 C2674 1.349 . S
C2673 C2675 1.327 . S
C2673 H2696 0.950 . S
C2674 C2673 1.349 . S
C2674 C2686 1.349 . S
C2675 C2673 1.327 . S
C2675 C2691 1.429 . S
C2675 H2697 0.950 . S
C2676 H2672 0.949 . S
C2676 C2684 1.574 . S
C2676 C2692 1.368 . S
H2677 C2685 0.950 . S
H2678 C2683 0.950 . S
H2679 C2684 0.949 . S
H2680 C2686 0.950 . S
H2681 C2687 0.950 . S
H2682 C2688 0.949 . S
C2683 H2678 0.950 . S
C2683 C2685 1.327 . S
C2683 C2689 1.429 . S
C2684 C2676 1.574 . S
C2684 H2679 0.949 . S
C2684 C2690 1.368 . S
C2685 C2669 1.349 . S
C2685 H2677 0.950 . S
C2685 C2683 1.327 . S
C2686 C2674 1.349 . S
C2686 H2680 0.950 . S
C2686 C2687 1.327 . S
C2687 H2681 0.950 . S
C2687 C2686 1.327 . S
C2687 C2691 1.429 . S
C2688 C2671 1.574 . S
C2688 H2682 0.949 . S
C2688 C2692 1.368 . S
C2689 C2670 1.429 . S
C2689 C2683 1.429 . S
C2689 C2690 1.523 . S
C2690 C2671 1.368 . S
C2690 C2684 1.368 . S
C2690 C2689 1.523 . S
C2691 C2675 1.429 . S
C2691 C2687 1.429 . S
C2691 C2692 1.523 . S
C2692 C2676 1.368 . S
C2692 C2688 1.368 . S
C2692 C2691 1.523 . S
H2693 C2668 0.950 . S
H2694 C2670 0.950 . S
H2695 C2671 0.949 . S
H2696 C2673 0.950 . S
H2697 C2675 0.950 . S
C2698 C2699 1.349 . S
C2698 C2700 1.327 . S
C2698 H2723 0.950 . S
C2699 C2698 1.349 . S
C2699 C2715 1.349 . S
C2700 C2698 1.327 . S
C2700 C2719 1.429 . S
C2700 H2724 0.950 . S
C2701 C2718 1.574 . S
C2701 C2720 1.368 . S
C2701 H2725 0.949 . S
H2702 C2706 0.949 . S
C2703 C2704 1.349 . S
C2703 C2705 1.327 . S
C2703 H2726 0.950 . S
C2704 C2703 1.349 . S
C2704 C2716 1.349 . S
C2705 C2703 1.327 . S
C2705 C2721 1.429 . S
C2705 H2727 0.950 . S
C2706 H2702 0.949 . S
C2706 C2714 1.574 . S
C2706 C2722 1.368 . S
H2707 C2715 0.950 . S
H2708 C2713 0.950 . S
H2709 C2714 0.949 . S
H2710 C2716 0.950 . S
H2711 C2717 0.950 . S
H2712 C2718 0.949 . S
C2713 H2708 0.950 . S
C2713 C2715 1.327 . S
C2713 C2719 1.429 . S
C2714 C2706 1.574 . S
C2714 H2709 0.949 . S
C2714 C2720 1.368 . S
C2715 C2699 1.349 . S
C2715 H2707 0.950 . S
C2715 C2713 1.327 . S
C2716 C2704 1.349 . S
C2716 H2710 0.950 . S
C2716 C2717 1.327 . S
C2717 H2711 0.950 . S
C2717 C2716 1.327 . S
C2717 C2721 1.429 . S
C2718 C2701 1.574 . S
C2718 H2712 0.949 . S
C2718 C2722 1.368 . S
C2719 C2700 1.429 . S
C2719 C2713 1.429 . S
C2719 C2720 1.523 . S
C2720 C2701 1.368 . S
C2720 C2714 1.368 . S
C2720 C2719 1.523 . S
C2721 C2705 1.429 . S
C2721 C2717 1.429 . S
C2721 C2722 1.523 . S
C2722 C2706 1.368 . S
C2722 C2718 1.368 . S
C2722 C2721 1.523 . S
H2723 C2698 0.950 . S
H2724 C2700 0.950 . S
H2725 C2701 0.949 . S
H2726 C2703 0.950 . S
H2727 C2705 0.950 . S
C2728 C2729 1.349 . S
C2728 C2730 1.327 . S
C2728 H2753 0.950 . S
C2729 C2728 1.349 . S
C2729 C2745 1.349 . S
C2730 C2728 1.327 . S
C2730 C2749 1.429 . S
C2730 H2754 0.950 . S
C2731 C2748 1.574 . S
C2731 C2750 1.368 . S
C2731 H2755 0.949 . S
H2732 C2736 0.949 . S
C2733 C2734 1.349 . S
C2733 C2735 1.327 . S
C2733 H2756 0.950 . S
C2734 C2733 1.349 . S
C2734 C2746 1.349 . S
C2735 C2733 1.327 . S
C2735 C2751 1.429 . S
C2735 H2757 0.950 . S
C2736 H2732 0.949 . S
C2736 C2744 1.574 . S
C2736 C2752 1.368 . S
H2737 C2745 0.950 . S
H2738 C2743 0.950 . S
H2739 C2744 0.949 . S
H2740 C2746 0.950 . S
H2741 C2747 0.950 . S
H2742 C2748 0.949 . S
C2743 H2738 0.950 . S
C2743 C2745 1.327 . S
C2743 C2749 1.429 . S
C2744 C2736 1.574 . S
C2744 H2739 0.949 . S
C2744 C2750 1.368 . S
C2745 C2729 1.349 . S
C2745 H2737 0.950 . S
C2745 C2743 1.327 . S
C2746 C2734 1.349 . S
C2746 H2740 0.950 . S
C2746 C2747 1.327 . S
C2747 H2741 0.950 . S
C2747 C2746 1.327 . S
C2747 C2751 1.429 . S
C2748 C2731 1.574 . S
C2748 H2742 0.949 . S
C2748 C2752 1.368 . S
C2749 C2730 1.429 . S
C2749 C2743 1.429 . S
C2749 C2750 1.523 . S
C2750 C2731 1.368 . S
C2750 C2744 1.368 . S
C2750 C2749 1.523 . S
C2751 C2735 1.429 . S
C2751 C2747 1.429 . S
C2751 C2752 1.523 . S
C2752 C2736 1.368 . S
C2752 C2748 1.368 . S
C2752 C2751 1.523 . S
H2753 C2728 0.950 . S
H2754 C2730 0.950 . S
H2755 C2731 0.949 . S
H2756 C2733 0.950 . S
H2757 C2735 0.950 . S
C2758 C2759 1.349 . S
C2758 C2760 1.327 . S
C2758 H2783 0.950 . S
C2759 C2758 1.349 . S
C2759 C2775 1.349 . S
C2760 C2758 1.327 . S
C2760 C2779 1.429 . S
C2760 H2784 0.950 . S
C2761 C2778 1.574 . S
C2761 C2780 1.368 . S
C2761 H2785 0.949 . S
H2762 C2766 0.949 . S
C2763 C2764 1.349 . S
C2763 C2765 1.327 . S
C2763 H2786 0.950 . S
C2764 C2763 1.349 . S
C2764 C2776 1.349 . S
C2765 C2763 1.327 . S
C2765 C2781 1.429 . S
C2765 H2787 0.950 . S
C2766 H2762 0.949 . S
C2766 C2774 1.574 . S
C2766 C2782 1.368 . S
H2767 C2775 0.950 . S
H2768 C2773 0.950 . S
H2769 C2774 0.949 . S
H2770 C2776 0.950 . S
H2771 C2777 0.950 . S
H2772 C2778 0.949 . S
C2773 H2768 0.950 . S
C2773 C2775 1.327 . S
C2773 C2779 1.429 . S
C2774 C2766 1.574 . S
C2774 H2769 0.949 . S
C2774 C2780 1.368 . S
C2775 C2759 1.349 . S
C2775 H2767 0.950 . S
C2775 C2773 1.327 . S
C2776 C2764 1.349 . S
C2776 H2770 0.950 . S
C2776 C2777 1.327 . S
C2777 H2771 0.950 . S
C2777 C2776 1.327 . S
C2777 C2781 1.429 . S
C2778 C2761 1.574 . S
C2778 H2772 0.949 . S
C2778 C2782 1.368 . S
C2779 C2760 1.429 . S
C2779 C2773 1.429 . S
C2779 C2780 1.523 . S
C2780 C2761 1.368 . S
C2780 C2774 1.368 . S
C2780 C2779 1.523 . S
C2781 C2765 1.429 . S
C2781 C2777 1.429 . S
C2781 C2782 1.523 . S
C2782 C2766 1.368 . S
C2782 C2778 1.368 . S
C2782 C2781 1.523 . S
H2783 C2758 0.950 . S
H2784 C2760 0.950 . S
H2785 C2761 0.949 . S
H2786 C2763 0.950 . S
H2787 C2765 0.950 . S
C2788 C2789 1.349 . S
C2788 C2790 1.327 . S
C2788 H2813 0.950 . S
C2789 C2788 1.349 . S
C2789 C2805 1.349 . S
C2790 C2788 1.327 . S
C2790 C2809 1.429 . S
C2790 H2814 0.950 . S
C2791 C2808 1.574 . S
C2791 C2810 1.368 . S
C2791 H2815 0.949 . S
H2792 C2796 0.949 . S
C2793 C2794 1.349 . S
C2793 C2795 1.327 . S
C2793 H2816 0.950 . S
C2794 C2793 1.349 . S
C2794 C2806 1.349 . S
C2795 C2793 1.327 . S
C2795 C2811 1.429 . S
C2795 H2817 0.950 . S
C2796 H2792 0.949 . S
C2796 C2804 1.574 . S
C2796 C2812 1.368 . S
H2797 C2805 0.950 . S
H2798 C2803 0.950 . S
H2799 C2804 0.949 . S
H2800 C2806 0.950 . S
H2801 C2807 0.950 . S
H2802 C2808 0.949 . S
C2803 H2798 0.950 . S
C2803 C2805 1.327 . S
C2803 C2809 1.429 . S
C2804 C2796 1.574 . S
C2804 H2799 0.949 . S
C2804 C2810 1.368 . S
C2805 C2789 1.349 . S
C2805 H2797 0.950 . S
C2805 C2803 1.327 . S
C2806 C2794 1.349 . S
C2806 H2800 0.950 . S
C2806 C2807 1.327 . S
C2807 H2801 0.950 . S
C2807 C2806 1.327 . S
C2807 C2811 1.429 . S
C2808 C2791 1.574 . S
C2808 H2802 0.949 . S
C2808 C2812 1.368 . S
C2809 C2790 1.429 . S
C2809 C2803 1.429 . S
C2809 C2810 1.523 . S
C2810 C2791 1.368 . S
C2810 C2804 1.368 . S
C2810 C2809 1.523 . S
C2811 C2795 1.429 . S
C2811 C2807 1.429 . S
C2811 C2812 1.523 . S
C2812 C2796 1.368 . S
C2812 C2808 1.368 . S
C2812 C2811 1.523 . S
H2813 C2788 0.950 . S
H2814 C2790 0.950 . S
H2815 C2791 0.949 . S
H2816 C2793 0.950 . S
H2817 C2795 0.950 . S
C2818 C2819 1.349 . S
C2818 C2820 1.327 . S
C2818 H2843 0.950 . S
C2819 C2818 1.349 . S
C2819 C2835 1.349 . S
C2820 C2818 1.327 . S
C2820 C2839 1.429 . S
C2820 H2844 0.950 . S
C2821 C2838 1.574 . S
C2821 C2840 1.368 . S
C2821 H2845 0.949 . S
H2822 C2826 0.949 . S
C2823 C2824 1.349 . S
C2823 C2825 1.327 . S
C2823 H2846 0.950 . S
C2824 C2823 1.349 . S
C2824 C2836 1.349 . S
C2825 C2823 1.327 . S
C2825 C2841 1.429 . S
C2825 H2847 0.950 . S
C2826 H2822 0.949 . S
C2826 C2834 1.574 . S
C2826 C2842 1.368 . S
H2827 C2835 0.950 . S
H2828 C2833 0.950 . S
H2829 C2834 0.949 . S
H2830 C2836 0.950 . S
H2831 C2837 0.950 . S
H2832 C2838 0.949 . S
C2833 H2828 0.950 . S
C2833 C2835 1.327 . S
C2833 C2839 1.429 . S
C2834 C2826 1.574 . S
C2834 H2829 0.949 . S
C2834 C2840 1.368 . S
C2835 C2819 1.349 . S
C2835 H2827 0.950 . S
C2835 C2833 1.327 . S
C2836 C2824 1.349 . S
C2836 H2830 0.950 . S
C2836 C2837 1.327 . S
C2837 H2831 0.950 . S
C2837 C2836 1.327 . S
C2837 C2841 1.429 . S
C2838 C2821 1.574 . S
C2838 H2832 0.949 . S
C2838 C2842 1.368 . S
C2839 C2820 1.429 . S
C2839 C2833 1.429 . S
C2839 C2840 1.523 . S
C2840 C2821 1.368 . S
C2840 C2834 1.368 . S
C2840 C2839 1.523 . S
C2841 C2825 1.429 . S
C2841 C2837 1.429 . S
C2841 C2842 1.523 . S
C2842 C2826 1.368 . S
C2842 C2838 1.368 . S
C2842 C2841 1.523 . S
H2843 C2818 0.950 . S
H2844 C2820 0.950 . S
H2845 C2821 0.949 . S
H2846 C2823 0.950 . S
H2847 C2825 0.950 . S
C2848 C2849 1.349 . S
C2848 C2850 1.327 . S
C2848 H2873 0.950 . S
C2849 C2848 1.349 . S
C2849 C2865 1.349 . S
C2850 C2848 1.327 . S
C2850 C2869 1.429 . S
C2850 H2874 0.950 . S
C2851 C2868 1.574 . S
C2851 C2870 1.368 . S
C2851 H2875 0.949 . S
H2852 C2856 0.949 . S
C2853 C2854 1.349 . S
C2853 C2855 1.327 . S
C2853 H2876 0.950 . S
C2854 C2853 1.349 . S
C2854 C2866 1.349 . S
C2855 C2853 1.327 . S
C2855 C2871 1.429 . S
C2855 H2877 0.950 . S
C2856 H2852 0.949 . S
C2856 C2864 1.574 . S
C2856 C2872 1.368 . S
H2857 C2865 0.950 . S
H2858 C2863 0.950 . S
H2859 C2864 0.949 . S
H2860 C2866 0.950 . S
H2861 C2867 0.950 . S
H2862 C2868 0.949 . S
C2863 H2858 0.950 . S
C2863 C2865 1.327 . S
C2863 C2869 1.429 . S
C2864 C2856 1.574 . S
C2864 H2859 0.949 . S
C2864 C2870 1.368 . S
C2865 C2849 1.349 . S
C2865 H2857 0.950 . S
C2865 C2863 1.327 . S
C2866 C2854 1.349 . S
C2866 H2860 0.950 . S
C2866 C2867 1.327 . S
C2867 H2861 0.950 . S
C2867 C2866 1.327 . S
C2867 C2871 1.429 . S
C2868 C2851 1.574 . S
C2868 H2862 0.949 . S
C2868 C2872 1.368 . S
C2869 C2850 1.429 . S
C2869 C2863 1.429 . S
C2869 C2870 1.523 . S
C2870 C2851 1.368 . S
C2870 C2864 1.368 . S
C2870 C2869 1.523 . S
C2871 C2855 1.429 . S
C2871 C2867 1.429 . S
C2871 C2872 1.523 . S
C2872 C2856 1.368 . S
C2872 C2868 1.368 . S
C2872 C2871 1.523 . S
H2873 C2848 0.950 . S
H2874 C2850 0.950 . S
H2875 C2851 0.949 . S
H2876 C2853 0.950 . S
H2877 C2855 0.950 . S
C2878 C2879 1.349 . S
C2878 C2880 1.327 . S
C2878 H2903 0.950 . S
C2879 C2878 1.349 . S
C2879 C2895 1.349 . S
C2880 C2878 1.327 . S
C2880 C2899 1.429 . S
C2880 H2904 0.950 . S
C2881 C2898 1.574 . S
C2881 C2900 1.368 . S
C2881 H2905 0.949 . S
H2882 C2886 0.949 . S
C2883 C2884 1.349 . S
C2883 C2885 1.327 . S
C2883 H2906 0.950 . S
C2884 C2883 1.349 . S
C2884 C2896 1.349 . S
C2885 C2883 1.327 . S
C2885 C2901 1.429 . S
C2885 H2907 0.950 . S
C2886 H2882 0.949 . S
C2886 C2894 1.574 . S
C2886 C2902 1.368 . S
H2887 C2895 0.950 . S
H2888 C2893 0.950 . S
H2889 C2894 0.949 . S
H2890 C2896 0.950 . S
H2891 C2897 0.950 . S
H2892 C2898 0.949 . S
C2893 H2888 0.950 . S
C2893 C2895 1.327 . S
C2893 C2899 1.429 . S
C2894 C2886 1.574 . S
C2894 H2889 0.949 . S
C2894 C2900 1.368 . S
C2895 C2879 1.349 . S
C2895 H2887 0.950 . S
C2895 C2893 1.327 . S
C2896 C2884 1.349 . S
C2896 H2890 0.950 . S
C2896 C2897 1.327 . S
C2897 H2891 0.950 . S
C2897 C2896 1.327 . S
C2897 C2901 1.429 . S
C2898 C2881 1.574 . S
C2898 H2892 0.949 . S
C2898 C2902 1.368 . S
C2899 C2880 1.429 . S
C2899 C2893 1.429 . S
C2899 C2900 1.523 . S
C2900 C2881 1.368 . S
C2900 C2894 1.368 . S
C2900 C2899 1.523 . S
C2901 C2885 1.429 . S
C2901 C2897 1.429 . S
C2901 C2902 1.523 . S
C2902 C2886 1.368 . S
C2902 C2898 1.368 . S
C2902 C2901 1.523 . S
H2903 C2878 0.950 . S
H2904 C2880 0.950 . S
H2905 C2881 0.949 . S
H2906 C2883 0.950 . S
H2907 C2885 0.950 . S
C2908 C2909 1.349 . S
C2908 C2910 1.327 . S
C2908 H2933 0.950 . S
C2909 C2908 1.349 . S
C2909 C2925 1.349 . S
C2910 C2908 1.327 . S
C2910 C2929 1.429 . S
C2910 H2934 0.950 . S
C2911 C2928 1.574 . S
C2911 C2930 1.368 . S
C2911 H2935 0.949 . S
H2912 C2916 0.949 . S
C2913 C2914 1.349 . S
C2913 C2915 1.327 . S
C2913 H2936 0.950 . S
C2914 C2913 1.349 . S
C2914 C2926 1.349 . S
C2915 C2913 1.327 . S
C2915 C2931 1.429 . S
C2915 H2937 0.950 . S
C2916 H2912 0.949 . S
C2916 C2924 1.574 . S
C2916 C2932 1.368 . S
H2917 C2925 0.950 . S
H2918 C2923 0.950 . S
H2919 C2924 0.949 . S
H2920 C2926 0.950 . S
H2921 C2927 0.950 . S
H2922 C2928 0.949 . S
C2923 H2918 0.950 . S
C2923 C2925 1.327 . S
C2923 C2929 1.429 . S
C2924 C2916 1.574 . S
C2924 H2919 0.949 . S
C2924 C2930 1.368 . S
C2925 C2909 1.349 . S
C2925 H2917 0.950 . S
C2925 C2923 1.327 . S
C2926 C2914 1.349 . S
C2926 H2920 0.950 . S
C2926 C2927 1.327 . S
C2927 H2921 0.950 . S
C2927 C2926 1.327 . S
C2927 C2931 1.429 . S
C2928 C2911 1.574 . S
C2928 H2922 0.949 . S
C2928 C2932 1.368 . S
C2929 C2910 1.429 . S
C2929 C2923 1.429 . S
C2929 C2930 1.523 . S
C2930 C2911 1.368 . S
C2930 C2924 1.368 . S
C2930 C2929 1.523 . S
C2931 C2915 1.429 . S
C2931 C2927 1.429 . S
C2931 C2932 1.523 . S
C2932 C2916 1.368 . S
C2932 C2928 1.368 . S
C2932 C2931 1.523 . S
H2933 C2908 0.950 . S
H2934 C2910 0.950 . S
H2935 C2911 0.949 . S
H2936 C2913 0.950 . S
H2937 C2915 0.950 . S
C2938 C2939 1.349 . S
C2938 C2940 1.327 . S
C2938 H2963 0.950 . S
C2939 C2938 1.349 . S
C2939 C2955 1.349 . S
C2940 C2938 1.327 . S
C2940 C2959 1.429 . S
C2940 H2964 0.950 . S
C2941 C2958 1.574 . S
C2941 C2960 1.368 . S
C2941 H2965 0.949 . S
H2942 C2946 0.949 . S
C2943 C2944 1.349 . S
C2943 C2945 1.327 . S
C2943 H2966 0.950 . S
C2944 C2943 1.349 . S
C2944 C2956 1.349 . S
C2945 C2943 1.327 . S
C2945 C2961 1.429 . S
C2945 H2967 0.950 . S
C2946 H2942 0.949 . S
C2946 C2954 1.574 . S
C2946 C2962 1.368 . S
H2947 C2955 0.950 . S
H2948 C2953 0.950 . S
H2949 C2954 0.949 . S
H2950 C2956 0.950 . S
H2951 C2957 0.950 . S
H2952 C2958 0.949 . S
C2953 H2948 0.950 . S
C2953 C2955 1.327 . S
C2953 C2959 1.429 . S
C2954 C2946 1.574 . S
C2954 H2949 0.949 . S
C2954 C2960 1.368 . S
C2955 C2939 1.349 . S
C2955 H2947 0.950 . S
C2955 C2953 1.327 . S
C2956 C2944 1.349 . S
C2956 H2950 0.950 . S
C2956 C2957 1.327 . S
C2957 H2951 0.950 . S
C2957 C2956 1.327 . S
C2957 C2961 1.429 . S
C2958 C2941 1.574 . S
C2958 H2952 0.949 . S
C2958 C2962 1.368 . S
C2959 C2940 1.429 . S
C2959 C2953 1.429 . S
C2959 C2960 1.523 . S
C2960 C2941 1.368 . S
C2960 C2954 1.368 . S
C2960 C2959 1.523 . S
C2961 C2945 1.429 . S
C2961 C2957 1.429 . S
C2961 C2962 1.523 . S
C2962 C2946 1.368 . S
C2962 C2958 1.368 . S
C2962 C2961 1.523 . S
H2963 C2938 0.950 . S
H2964 C2940 0.950 . S
H2965 C2941 0.949 . S
H2966 C2943 0.950 . S
H2967 C2945 0.950 . S
C2968 C2969 1.349 . S
C2968 C2970 1.327 . S
C2968 H2993 0.950 . S
C2969 C2968 1.349 . S
C2969 C2985 1.349 . S
C2970 C2968 1.327 . S
C2970 C2989 1.429 . S
C2970 H2994 0.950 . S
C2971 C2988 1.574 . S
C2971 C2990 1.368 . S
C2971 H2995 0.949 . S
H2972 C2976 0.949 . S
C2973 C2974 1.349 . S
C2973 C2975 1.327 . S
C2973 H2996 0.950 . S
C2974 C2973 1.349 . S
C2974 C2986 1.349 . S
C2975 C2973 1.327 . S
C2975 C2991 1.429 . S
C2975 H2997 0.950 . S
C2976 H2972 0.949 . S
C2976 C2984 1.574 . S
C2976 C2992 1.368 . S
H2977 C2985 0.950 . S
H2978 C2983 0.950 . S
H2979 C2984 0.949 . S
H2980 C2986 0.950 . S
H2981 C2987 0.950 . S
H2982 C2988 0.949 . S
C2983 H2978 0.950 . S
C2983 C2985 1.327 . S
C2983 C2989 1.429 . S
C2984 C2976 1.574 . S
C2984 H2979 0.949 . S
C2984 C2990 1.368 . S
C2985 C2969 1.349 . S
C2985 H2977 0.950 . S
C2985 C2983 1.327 . S
C2986 C2974 1.349 . S
C2986 H2980 0.950 . S
C2986 C2987 1.327 . S
C2987 H2981 0.950 . S
C2987 C2986 1.327 . S
C2987 C2991 1.429 . S
C2988 C2971 1.574 . S
C2988 H2982 0.949 . S
C2988 C2992 1.368 . S
C2989 C2970 1.429 . S
C2989 C2983 1.429 . S
C2989 C2990 1.523 . S
C2990 C2971 1.368 . S
C2990 C2984 1.368 . S
C2990 C2989 1.523 . S
C2991 C2975 1.429 . S
C2991 C2987 1.429 . S
C2991 C2992 1.523 . S
C2992 C2976 1.368 . S
C2992 C2988 1.368 . S
C2992 C2991 1.523 . S
H2993 C2968 0.950 . S
H2994 C2970 0.950 . S
H2995 C2971 0.949 . S
H2996 C2973 0.950 . S
H2997 C2975 0.950 . S
C2998 C2999 1.349 . S
C2998 C3000 1.327 . S
C2998 H3023 0.950 . S
C2999 C2998 1.349 . S
C2999 C3015 1.349 . S
C3000 C2998 1.327 . S
C3000 C3019 1.429 . S
C3000 H3024 0.950 . S
C3001 C3018 1.574 . S
C3001 C3020 1.368 . S
C3001 H3025 0.949 . S
H3002 C3006 0.949 . S
C3003 C3004 1.349 . S
C3003 C3005 1.327 . S
C3003 H3026 0.950 . S
C3004 C3003 1.349 . S
C3004 C3016 1.349 . S
C3005 C3003 1.327 . S
C3005 C3021 1.429 . S
C3005 H3027 0.950 . S
C3006 H3002 0.949 . S
C3006 C3014 1.574 . S
C3006 C3022 1.368 . S
H3007 C3015 0.950 . S
H3008 C3013 0.950 . S
H3009 C3014 0.949 . S
H3010 C3016 0.950 . S
H3011 C3017 0.950 . S
H3012 C3018 0.949 . S
C3013 H3008 0.950 . S
C3013 C3015 1.327 . S
C3013 C3019 1.429 . S
C3014 C3006 1.574 . S
C3014 H3009 0.949 . S
C3014 C3020 1.368 . S
C3015 C2999 1.349 . S
C3015 H3007 0.950 . S
C3015 C3013 1.327 . S
C3016 C3004 1.349 . S
C3016 H3010 0.950 . S
C3016 C3017 1.327 . S
C3017 H3011 0.950 . S
C3017 C3016 1.327 . S
C3017 C3021 1.429 . S
C3018 C3001 1.574 . S
C3018 H3012 0.949 . S
C3018 C3022 1.368 . S
C3019 C3000 1.429 . S
C3019 C3013 1.429 . S
C3019 C3020 1.523 . S
C3020 C3001 1.368 . S
C3020 C3014 1.368 . S
C3020 C3019 1.523 . S
C3021 C3005 1.429 . S
C3021 C3017 1.429 . S
C3021 C3022 1.523 . S
C3022 C3006 1.368 . S
C3022 C3018 1.368 . S
C3022 C3021 1.523 . S
H3023 C2998 0.950 . S
H3024 C3000 0.950 . S
H3025 C3001 0.949 . S
H3026 C3003 0.950 . S
H3027 C3005 0.950 . S
C3028 C3029 1.349 . S
C3028 C3030 1.327 . S
C3028 H3053 0.950 . S
C3029 C3028 1.349 . S
C3029 C3045 1.349 . S
C3030 C3028 1.327 . S
C3030 C3049 1.429 . S
C3030 H3054 0.950 . S
C3031 C3048 1.574 . S
C3031 C3050 1.368 . S
C3031 H3055 0.949 . S
H3032 C3036 0.949 . S
C3033 C3034 1.349 . S
C3033 C3035 1.327 . S
C3033 H3056 0.950 . S
C3034 C3033 1.349 . S
C3034 C3046 1.349 . S
C3035 C3033 1.327 . S
C3035 C3051 1.429 . S
C3035 H3057 0.950 . S
C3036 H3032 0.949 . S
C3036 C3044 1.574 . S
C3036 C3052 1.368 . S
H3037 C3045 0.950 . S
H3038 C3043 0.950 . S
H3039 C3044 0.949 . S
H3040 C3046 0.950 . S
H3041 C3047 0.950 . S
H3042 C3048 0.949 . S
C3043 H3038 0.950 . S
C3043 C3045 1.327 . S
C3043 C3049 1.429 . S
C3044 C3036 1.574 . S
C3044 H3039 0.949 . S
C3044 C3050 1.368 . S
C3045 C3029 1.349 . S
C3045 H3037 0.950 . S
C3045 C3043 1.327 . S
C3046 C3034 1.349 . S
C3046 H3040 0.950 . S
C3046 C3047 1.327 . S
C3047 H3041 0.950 . S
C3047 C3046 1.327 . S
C3047 C3051 1.429 . S
C3048 C3031 1.574 . S
C3048 H3042 0.949 . S
C3048 C3052 1.368 . S
C3049 C3030 1.429 . S
C3049 C3043 1.429 . S
C3049 C3050 1.523 . S
C3050 C3031 1.368 . S
C3050 C3044 1.368 . S
C3050 C3049 1.523 . S
C3051 C3035 1.429 . S
C3051 C3047 1.429 . S
C3051 C3052 1.523 . S
C3052 C3036 1.368 . S
C3052 C3048 1.368 . S
C3052 C3051 1.523 . S
H3053 C3028 0.950 . S
H3054 C3030 0.950 . S
H3055 C3031 0.949 . S
H3056 C3033 0.950 . S
H3057 C3035 0.950 . S
C3058 C3059 1.349 . S
C3058 C3060 1.327 . S
C3058 H3083 0.950 . S
C3059 C3058 1.349 . S
C3059 C3075 1.349 . S
C3060 C3058 1.327 . S
C3060 C3079 1.429 . S
C3060 H3084 0.950 . S
C3061 C3078 1.574 . S
C3061 C3080 1.368 . S
C3061 H3085 0.949 . S
H3062 C3066 0.949 . S
C3063 C3064 1.349 . S
C3063 C3065 1.327 . S
C3063 H3086 0.950 . S
C3064 C3063 1.349 . S
C3064 C3076 1.349 . S
C3065 C3063 1.327 . S
C3065 C3081 1.429 . S
C3065 H3087 0.950 . S
C3066 H3062 0.949 . S
C3066 C3074 1.574 . S
C3066 C3082 1.368 . S
H3067 C3075 0.950 . S
H3068 C3073 0.950 . S
H3069 C3074 0.949 . S
H3070 C3076 0.950 . S
H3071 C3077 0.950 . S
H3072 C3078 0.949 . S
C3073 H3068 0.950 . S
C3073 C3075 1.327 . S
C3073 C3079 1.429 . S
C3074 C3066 1.574 . S
C3074 H3069 0.949 . S
C3074 C3080 1.368 . S
C3075 C3059 1.349 . S
C3075 H3067 0.950 . S
C3075 C3073 1.327 . S
C3076 C3064 1.349 . S
C3076 H3070 0.950 . S
C3076 C3077 1.327 . S
C3077 H3071 0.950 . S
C3077 C3076 1.327 . S
C3077 C3081 1.429 . S
C3078 C3061 1.574 . S
C3078 H3072 0.949 . S
C3078 C3082 1.368 . S
C3079 C3060 1.429 . S
C3079 C3073 1.429 . S
C3079 C3080 1.523 . S
C3080 C3061 1.368 . S
C3080 C3074 1.368 . S
C3080 C3079 1.523 . S
C3081 C3065 1.429 . S
C3081 C3077 1.429 . S
C3081 C3082 1.523 . S
C3082 C3066 1.368 . S
C3082 C3078 1.368 . S
C3082 C3081 1.523 . S
H3083 C3058 0.950 . S
H3084 C3060 0.950 . S
H3085 C3061 0.949 . S
H3086 C3063 0.950 . S
H3087 C3065 0.950 . S
C3088 C3089 1.349 . S
C3088 C3090 1.327 . S
C3088 H3113 0.950 . S
C3089 C3088 1.349 . S
C3089 C3105 1.349 . S
C3090 C3088 1.327 . S
C3090 C3109 1.429 . S
C3090 H3114 0.950 . S
C3091 C3108 1.574 1_554 S
C3091 C3110 1.368 . S
C3091 H3115 0.949 . S
H3092 C3096 0.949 . S
C3093 C3094 1.349 . S
C3093 C3095 1.327 . S
C3093 H3116 0.950 . S
C3094 C3093 1.349 . S
C3094 C3106 1.349 . S
C3095 C3093 1.327 . S
C3095 C3111 1.429 . S
C3095 H3117 0.950 . S
C3096 H3092 0.949 . S
C3096 C3104 1.574 1_556 S
C3096 C3112 1.368 . S
H3097 C3105 0.950 . S
H3098 C3103 0.950 . S
H3099 C3104 0.949 . S
H3100 C3106 0.950 . S
H3101 C3107 0.950 . S
H3102 C3108 0.949 . S
C3103 H3098 0.950 . S
C3103 C3105 1.327 . S
C3103 C3109 1.429 . S
C3104 C3096 1.574 1_554 S
C3104 H3099 0.949 . S
C3104 C3110 1.368 . S
C3105 C3089 1.349 . S
C3105 H3097 0.950 . S
C3105 C3103 1.327 . S
C3106 C3094 1.349 . S
C3106 H3100 0.950 . S
C3106 C3107 1.327 . S
C3107 H3101 0.950 . S
C3107 C3106 1.327 . S
C3107 C3111 1.429 . S
C3108 C3091 1.574 1_556 S
C3108 H3102 0.949 . S
C3108 C3112 1.368 . S
C3109 C3090 1.429 . S
C3109 C3103 1.429 . S
C3109 C3110 1.523 . S
C3110 C3091 1.368 . S
C3110 C3104 1.368 . S
C3110 C3109 1.523 . S
C3111 C3095 1.429 . S
C3111 C3107 1.429 . S
C3111 C3112 1.523 . S
C3112 C3096 1.368 . S
C3112 C3108 1.368 . S
C3112 C3111 1.523 . S
H3113 C3088 0.950 . S
H3114 C3090 0.950 . S
H3115 C3091 0.949 . S
H3116 C3093 0.950 . S
H3117 C3095 0.950 . S
C3118 C3119 1.349 . S
C3118 C3120 1.327 . S
C3118 H3143 0.950 . S
C3119 C3118 1.349 . S
C3119 C3135 1.349 . S
C3120 C3118 1.327 . S
C3120 C3139 1.429 . S
C3120 H3144 0.950 . S
C3121 C3138 1.574 1_556 S
C3121 C3140 1.368 . S
C3121 H3145 0.949 . S
H3122 C3126 0.949 . S
C3123 C3124 1.349 . S
C3123 C3125 1.327 . S
C3123 H3146 0.950 . S
C3124 C3123 1.349 . S
C3124 C3136 1.349 . S
C3125 C3123 1.327 . S
C3125 C3141 1.429 . S
C3125 H3147 0.950 . S
C3126 H3122 0.949 . S
C3126 C3134 1.574 1_554 S
C3126 C3142 1.368 . S
H3127 C3135 0.950 . S
H3128 C3133 0.950 . S
H3129 C3134 0.949 . S
H3130 C3136 0.950 . S
H3131 C3137 0.950 . S
H3132 C3138 0.949 . S
C3133 H3128 0.950 . S
C3133 C3135 1.327 . S
C3133 C3139 1.429 . S
C3134 C3126 1.574 1_556 S
C3134 H3129 0.949 . S
C3134 C3140 1.368 . S
C3135 C3119 1.349 . S
C3135 H3127 0.950 . S
C3135 C3133 1.327 . S
C3136 C3124 1.349 . S
C3136 H3130 0.950 . S
C3136 C3137 1.327 . S
C3137 H3131 0.950 . S
C3137 C3136 1.327 . S
C3137 C3141 1.429 . S
C3138 C3121 1.574 1_554 S
C3138 H3132 0.949 . S
C3138 C3142 1.368 . S
C3139 C3120 1.429 . S
C3139 C3133 1.429 . S
C3139 C3140 1.523 . S
C3140 C3121 1.368 . S
C3140 C3134 1.368 . S
C3140 C3139 1.523 . S
C3141 C3125 1.429 . S
C3141 C3137 1.429 . S
C3141 C3142 1.523 . S
C3142 C3126 1.368 . S
C3142 C3138 1.368 . S
C3142 C3141 1.523 . S
H3143 C3118 0.950 . S
H3144 C3120 0.950 . S
H3145 C3121 0.949 . S
H3146 C3123 0.950 . S
H3147 C3125 0.950 . S
C3148 C3149 1.349 . S
C3148 C3150 1.327 . S
C3148 H3173 0.950 . S
C3149 C3148 1.349 . S
C3149 C3165 1.349 . S
C3150 C3148 1.327 . S
C3150 C3169 1.429 . S
C3150 H3174 0.950 . S
C3151 C3168 1.574 1_554 S
C3151 C3170 1.368 . S
C3151 H3175 0.949 . S
H3152 C3156 0.949 . S
C3153 C3154 1.349 . S
C3153 C3155 1.327 . S
C3153 H3176 0.950 . S
C3154 C3153 1.349 . S
C3154 C3166 1.349 . S
C3155 C3153 1.327 . S
C3155 C3171 1.429 . S
C3155 H3177 0.950 . S
C3156 H3152 0.949 . S
C3156 C3164 1.574 1_556 S
C3156 C3172 1.368 . S
H3157 C3165 0.950 . S
H3158 C3163 0.950 . S
H3159 C3164 0.949 . S
H3160 C3166 0.950 . S
H3161 C3167 0.950 . S
H3162 C3168 0.949 . S
C3163 H3158 0.950 . S
C3163 C3165 1.327 . S
C3163 C3169 1.429 . S
C3164 C3156 1.574 1_554 S
C3164 H3159 0.949 . S
C3164 C3170 1.368 . S
C3165 C3149 1.349 . S
C3165 H3157 0.950 . S
C3165 C3163 1.327 . S
C3166 C3154 1.349 . S
C3166 H3160 0.950 . S
C3166 C3167 1.327 . S
C3167 H3161 0.950 . S
C3167 C3166 1.327 . S
C3167 C3171 1.429 . S
C3168 C3151 1.574 1_556 S
C3168 H3162 0.949 . S
C3168 C3172 1.368 . S
C3169 C3150 1.429 . S
C3169 C3163 1.429 . S
C3169 C3170 1.523 . S
C3170 C3151 1.368 . S
C3170 C3164 1.368 . S
C3170 C3169 1.523 . S
C3171 C3155 1.429 . S
C3171 C3167 1.429 . S
C3171 C3172 1.523 . S
C3172 C3156 1.368 . S
C3172 C3168 1.368 . S
C3172 C3171 1.523 . S
H3173 C3148 0.950 . S
H3174 C3150 0.950 . S
H3175 C3151 0.949 . S
H3176 C3153 0.950 . S
H3177 C3155 0.950 . S
C3178 C3179 1.349 . S
C3178 C3180 1.327 . S
C3178 H3203 0.950 . S
C3179 C3178 1.349 . S
C3179 C3195 1.349 . S
C3180 C3178 1.327 . S
C3180 C3199 1.429 . S
C3180 H3204 0.950 . S
C3181 C3198 1.574 1_554 S
C3181 C3200 1.368 . S
C3181 H3205 0.949 . S
H3182 C3186 0.949 . S
C3183 C3184 1.349 . S
C3183 C3185 1.327 . S
C3183 H3206 0.950 . S
C3184 C3183 1.349 . S
C3184 C3196 1.349 . S
C3185 C3183 1.327 . S
C3185 C3201 1.429 . S
C3185 H3207 0.950 . S
C3186 H3182 0.949 . S
C3186 C3194 1.574 1_556 S
C3186 C3202 1.368 . S
H3187 C3195 0.950 . S
H3188 C3193 0.950 . S
H3189 C3194 0.949 . S
H3190 C3196 0.950 . S
H3191 C3197 0.950 . S
H3192 C3198 0.949 . S
C3193 H3188 0.950 . S
C3193 C3195 1.327 . S
C3193 C3199 1.429 . S
C3194 C3186 1.574 1_554 S
C3194 H3189 0.949 . S
C3194 C3200 1.368 . S
C3195 C3179 1.349 . S
C3195 H3187 0.950 . S
C3195 C3193 1.327 . S
C3196 C3184 1.349 . S
C3196 H3190 0.950 . S
C3196 C3197 1.327 . S
C3197 H3191 0.950 . S
C3197 C3196 1.327 . S
C3197 C3201 1.429 . S
C3198 C3181 1.574 1_556 S
C3198 H3192 0.949 . S
C3198 C3202 1.368 . S
C3199 C3180 1.429 . S
C3199 C3193 1.429 . S
C3199 C3200 1.523 . S
C3200 C3181 1.368 . S
C3200 C3194 1.368 . S
C3200 C3199 1.523 . S
C3201 C3185 1.429 . S
C3201 C3197 1.429 . S
C3201 C3202 1.523 . S
C3202 C3186 1.368 . S
C3202 C3198 1.368 . S
C3202 C3201 1.523 . S
H3203 C3178 0.950 . S
H3204 C3180 0.950 . S
H3205 C3181 0.949 . S
H3206 C3183 0.950 . S
H3207 C3185 0.950 . S
C3208 C3209 1.349 . S
C3208 C3210 1.327 . S
C3208 H3233 0.950 . S
C3209 C3208 1.349 . S
C3209 C3225 1.349 . S
C3210 C3208 1.327 . S
C3210 C3229 1.429 . S
C3210 H3234 0.950 . S
C3211 C3228 1.574 1_554 S
C3211 C3230 1.368 . S
C3211 H3235 0.949 . S
H3212 C3216 0.949 . S
C3213 C3214 1.349 . S
C3213 C3215 1.327 . S
C3213 H3236 0.950 . S
C3214 C3213 1.349 . S
C3214 C3226 1.349 . S
C3215 C3213 1.327 . S
C3215 C3231 1.429 . S
C3215 H3237 0.950 . S
C3216 H3212 0.949 . S
C3216 C3224 1.574 1_556 S
C3216 C3232 1.368 . S
H3217 C3225 0.950 . S
H3218 C3223 0.950 . S
H3219 C3224 0.949 . S
H3220 C3226 0.950 . S
H3221 C3227 0.950 . S
H3222 C3228 0.949 . S
C3223 H3218 0.950 . S
C3223 C3225 1.327 . S
C3223 C3229 1.429 . S
C3224 C3216 1.574 1_554 S
C3224 H3219 0.949 . S
C3224 C3230 1.368 . S
C3225 C3209 1.349 . S
C3225 H3217 0.950 . S
C3225 C3223 1.327 . S
C3226 C3214 1.349 . S
C3226 H3220 0.950 . S
C3226 C3227 1.327 . S
C3227 H3221 0.950 . S
C3227 C3226 1.327 . S
C3227 C3231 1.429 . S
C3228 C3211 1.574 1_556 S
C3228 H3222 0.949 . S
C3228 C3232 1.368 . S
C3229 C3210 1.429 . S
C3229 C3223 1.429 . S
C3229 C3230 1.523 . S
C3230 C3211 1.368 . S
C3230 C3224 1.368 . S
C3230 C3229 1.523 . S
C3231 C3215 1.429 . S
C3231 C3227 1.429 . S
C3231 C3232 1.523 . S
C3232 C3216 1.368 . S
C3232 C3228 1.368 . S
C3232 C3231 1.523 . S
H3233 C3208 0.950 . S
H3234 C3210 0.950 . S
H3235 C3211 0.949 . S
H3236 C3213 0.950 . S
H3237 C3215 0.950 . S
C3238 C3239 1.349 . S
C3238 C3240 1.327 . S
C3238 H3263 0.950 . S
C3239 C3238 1.349 . S
C3239 C3255 1.349 . S
C3240 C3238 1.327 . S
C3240 C3259 1.429 . S
C3240 H3264 0.950 . S
C3241 C3258 1.574 1_554 S
C3241 C3260 1.368 . S
C3241 H3265 0.949 . S
H3242 C3246 0.949 . S
C3243 C3244 1.349 . S
C3243 C3245 1.327 . S
C3243 H3266 0.950 . S
C3244 C3243 1.349 . S
C3244 C3256 1.349 . S
C3245 C3243 1.327 . S
C3245 C3261 1.429 . S
C3245 H3267 0.950 . S
C3246 H3242 0.949 . S
C3246 C3254 1.574 1_556 S
C3246 C3262 1.368 . S
H3247 C3255 0.950 . S
H3248 C3253 0.950 . S
H3249 C3254 0.949 . S
H3250 C3256 0.950 . S
H3251 C3257 0.950 . S
H3252 C3258 0.949 . S
C3253 H3248 0.950 . S
C3253 C3255 1.327 . S
C3253 C3259 1.429 . S
C3254 C3246 1.574 1_554 S
C3254 H3249 0.949 . S
C3254 C3260 1.368 . S
C3255 C3239 1.349 . S
C3255 H3247 0.950 . S
C3255 C3253 1.327 . S
C3256 C3244 1.349 . S
C3256 H3250 0.950 . S
C3256 C3257 1.327 . S
C3257 H3251 0.950 . S
C3257 C3256 1.327 . S
C3257 C3261 1.429 . S
C3258 C3241 1.574 1_556 S
C3258 H3252 0.949 . S
C3258 C3262 1.368 . S
C3259 C3240 1.429 . S
C3259 C3253 1.429 . S
C3259 C3260 1.523 . S
C3260 C3241 1.368 . S
C3260 C3254 1.368 . S
C3260 C3259 1.523 . S
C3261 C3245 1.429 . S
C3261 C3257 1.429 . S
C3261 C3262 1.523 . S
C3262 C3246 1.368 . S
C3262 C3258 1.368 . S
C3262 C3261 1.523 . S
H3263 C3238 0.950 . S
H3264 C3240 0.950 . S
H3265 C3241 0.949 . S
H3266 C3243 0.950 . S
H3267 C3245 0.950 . S
C3268 C3269 1.349 . S
C3268 C3270 1.327 . S
C3268 H3293 0.950 . S
C3269 C3268 1.349 . S
C3269 C3285 1.349 . S
C3270 C3268 1.327 . S
C3270 C3289 1.429 . S
C3270 H3294 0.950 . S
C3271 C3288 1.574 1_556 S
C3271 C3290 1.368 . S
C3271 H3295 0.949 . S
H3272 C3276 0.949 . S
C3273 C3274 1.349 . S
C3273 C3275 1.327 . S
C3273 H3296 0.950 . S
C3274 C3273 1.349 . S
C3274 C3286 1.349 . S
C3275 C3273 1.327 . S
C3275 C3291 1.429 . S
C3275 H3297 0.950 . S
C3276 H3272 0.949 . S
C3276 C3284 1.574 1_554 S
C3276 C3292 1.368 . S
H3277 C3285 0.950 . S
H3278 C3283 0.950 . S
H3279 C3284 0.949 . S
H3280 C3286 0.950 . S
H3281 C3287 0.950 . S
H3282 C3288 0.949 . S
C3283 H3278 0.950 . S
C3283 C3285 1.327 . S
C3283 C3289 1.429 . S
C3284 C3276 1.574 1_556 S
C3284 H3279 0.949 . S
C3284 C3290 1.368 . S
C3285 C3269 1.349 . S
C3285 H3277 0.950 . S
C3285 C3283 1.327 . S
C3286 C3274 1.349 . S
C3286 H3280 0.950 . S
C3286 C3287 1.327 . S
C3287 H3281 0.950 . S
C3287 C3286 1.327 . S
C3287 C3291 1.429 . S
C3288 C3271 1.574 1_554 S
C3288 H3282 0.949 . S
C3288 C3292 1.368 . S
C3289 C3270 1.429 . S
C3289 C3283 1.429 . S
C3289 C3290 1.523 . S
C3290 C3271 1.368 . S
C3290 C3284 1.368 . S
C3290 C3289 1.523 . S
C3291 C3275 1.429 . S
C3291 C3287 1.429 . S
C3291 C3292 1.523 . S
C3292 C3276 1.368 . S
C3292 C3288 1.368 . S
C3292 C3291 1.523 . S
H3293 C3268 0.950 . S
H3294 C3270 0.950 . S
H3295 C3271 0.949 . S
H3296 C3273 0.950 . S
H3297 C3275 0.950 . S
C3298 C3299 1.349 . S
C3298 C3300 1.327 . S
C3298 H3323 0.950 . S
C3299 C3298 1.349 . S
C3299 C3315 1.349 . S
C3300 C3298 1.327 . S
C3300 C3319 1.429 . S
C3300 H3324 0.950 . S
C3301 C3318 1.574 1_556 S
C3301 C3320 1.368 . S
C3301 H3325 0.949 . S
H3302 C3306 0.949 . S
C3303 C3304 1.349 . S
C3303 C3305 1.327 . S
C3303 H3326 0.950 . S
C3304 C3303 1.349 . S
C3304 C3316 1.349 . S
C3305 C3303 1.327 . S
C3305 C3321 1.429 . S
C3305 H3327 0.950 . S
C3306 H3302 0.949 . S
C3306 C3314 1.574 1_554 S
C3306 C3322 1.368 . S
H3307 C3315 0.950 . S
H3308 C3313 0.950 . S
H3309 C3314 0.949 . S
H3310 C3316 0.950 . S
H3311 C3317 0.950 . S
H3312 C3318 0.949 . S
C3313 H3308 0.950 . S
C3313 C3315 1.327 . S
C3313 C3319 1.429 . S
C3314 C3306 1.574 1_556 S
C3314 H3309 0.949 . S
C3314 C3320 1.368 . S
C3315 C3299 1.349 . S
C3315 H3307 0.950 . S
C3315 C3313 1.327 . S
C3316 C3304 1.349 . S
C3316 H3310 0.950 . S
C3316 C3317 1.327 . S
C3317 H3311 0.950 . S
C3317 C3316 1.327 . S
C3317 C3321 1.429 . S
C3318 C3301 1.574 1_554 S
C3318 H3312 0.949 . S
C3318 C3322 1.368 . S
C3319 C3300 1.429 . S
C3319 C3313 1.429 . S
C3319 C3320 1.523 . S
C3320 C3301 1.368 . S
C3320 C3314 1.368 . S
C3320 C3319 1.523 . S
C3321 C3305 1.429 . S
C3321 C3317 1.429 . S
C3321 C3322 1.523 . S
C3322 C3306 1.368 . S
C3322 C3318 1.368 . S
C3322 C3321 1.523 . S
H3323 C3298 0.950 . S
H3324 C3300 0.950 . S
H3325 C3301 0.949 . S
H3326 C3303 0.950 . S
H3327 C3305 0.950 . S
C3328 C3329 1.349 . S
C3328 C3330 1.327 . S
C3328 H3353 0.950 . S
C3329 C3328 1.349 . S
C3329 C3345 1.349 . S
C3330 C3328 1.327 . S
C3330 C3349 1.429 . S
C3330 H3354 0.950 . S
C3331 C3348 1.574 . S
C3331 C3350 1.368 . S
C3331 H3355 0.949 . S
H3332 C3336 0.949 . S
C3333 C3334 1.349 . S
C3333 C3335 1.327 . S
C3333 H3356 0.950 . S
C3334 C3333 1.349 . S
C3334 C3346 1.349 . S
C3335 C3333 1.327 . S
C3335 C3351 1.429 . S
C3335 H3357 0.950 . S
C3336 H3332 0.949 . S
C3336 C3344 1.574 . S
C3336 C3352 1.368 . S
H3337 C3345 0.950 . S
H3338 C3343 0.950 . S
H3339 C3344 0.949 . S
H3340 C3346 0.950 . S
H3341 C3347 0.950 . S
H3342 C3348 0.949 . S
C3343 H3338 0.950 . S
C3343 C3345 1.327 . S
C3343 C3349 1.429 . S
C3344 C3336 1.574 . S
C3344 H3339 0.949 . S
C3344 C3350 1.368 . S
C3345 C3329 1.349 . S
C3345 H3337 0.950 . S
C3345 C3343 1.327 . S
C3346 C3334 1.349 . S
C3346 H3340 0.950 . S
C3346 C3347 1.327 . S
C3347 H3341 0.950 . S
C3347 C3346 1.327 . S
C3347 C3351 1.429 . S
C3348 C3331 1.574 . S
C3348 H3342 0.949 . S
C3348 C3352 1.368 . S
C3349 C3330 1.429 . S
C3349 C3343 1.429 . S
C3349 C3350 1.523 . S
C3350 C3331 1.368 . S
C3350 C3344 1.368 . S
C3350 C3349 1.523 . S
C3351 C3335 1.429 . S
C3351 C3347 1.429 . S
C3351 C3352 1.523 . S
C3352 C3336 1.368 . S
C3352 C3348 1.368 . S
C3352 C3351 1.523 . S
H3353 C3328 0.950 . S
H3354 C3330 0.950 . S
H3355 C3331 0.949 . S
H3356 C3333 0.950 . S
H3357 C3335 0.950 . S
C3358 C3359 1.349 . S
C3358 C3360 1.327 . S
C3358 H3383 0.950 . S
C3359 C3358 1.349 . S
C3359 C3375 1.349 . S
C3360 C3358 1.327 . S
C3360 C3379 1.429 . S
C3360 H3384 0.950 . S
C3361 C3378 1.574 . S
C3361 C3380 1.368 . S
C3361 H3385 0.949 . S
H3362 C3366 0.949 . S
C3363 C3364 1.349 . S
C3363 C3365 1.327 . S
C3363 H3386 0.950 . S
C3364 C3363 1.349 . S
C3364 C3376 1.349 . S
C3365 C3363 1.327 . S
C3365 C3381 1.429 . S
C3365 H3387 0.950 . S
C3366 H3362 0.949 . S
C3366 C3374 1.574 . S
C3366 C3382 1.368 . S
H3367 C3375 0.950 . S
H3368 C3373 0.950 . S
H3369 C3374 0.949 . S
H3370 C3376 0.950 . S
H3371 C3377 0.950 . S
H3372 C3378 0.949 . S
C3373 H3368 0.950 . S
C3373 C3375 1.327 . S
C3373 C3379 1.429 . S
C3374 C3366 1.574 . S
C3374 H3369 0.949 . S
C3374 C3380 1.368 . S
C3375 C3359 1.349 . S
C3375 H3367 0.950 . S
C3375 C3373 1.327 . S
C3376 C3364 1.349 . S
C3376 H3370 0.950 . S
C3376 C3377 1.327 . S
C3377 H3371 0.950 . S
C3377 C3376 1.327 . S
C3377 C3381 1.429 . S
C3378 C3361 1.574 . S
C3378 H3372 0.949 . S
C3378 C3382 1.368 . S
C3379 C3360 1.429 . S
C3379 C3373 1.429 . S
C3379 C3380 1.523 . S
C3380 C3361 1.368 . S
C3380 C3374 1.368 . S
C3380 C3379 1.523 . S
C3381 C3365 1.429 . S
C3381 C3377 1.429 . S
C3381 C3382 1.523 . S
C3382 C3366 1.368 . S
C3382 C3378 1.368 . S
C3382 C3381 1.523 . S
H3383 C3358 0.950 . S
H3384 C3360 0.950 . S
H3385 C3361 0.949 . S
H3386 C3363 0.950 . S
H3387 C3365 0.950 . S
C3388 C3389 1.349 . S
C3388 C3390 1.327 . S
C3388 H3413 0.950 . S
C3389 C3388 1.349 . S
C3389 C3405 1.349 . S
C3390 C3388 1.327 . S
C3390 C3409 1.429 . S
C3390 H3414 0.950 . S
C3391 C3408 1.574 . S
C3391 C3410 1.368 . S
C3391 H3415 0.949 . S
H3392 C3396 0.949 . S
C3393 C3394 1.349 . S
C3393 C3395 1.327 . S
C3393 H3416 0.950 . S
C3394 C3393 1.349 . S
C3394 C3406 1.349 . S
C3395 C3393 1.327 . S
C3395 C3411 1.429 . S
C3395 H3417 0.950 . S
C3396 H3392 0.949 . S
C3396 C3404 1.574 . S
C3396 C3412 1.368 . S
H3397 C3405 0.950 . S
H3398 C3403 0.950 . S
H3399 C3404 0.949 . S
H3400 C3406 0.950 . S
H3401 C3407 0.950 . S
H3402 C3408 0.949 . S
C3403 H3398 0.950 . S
C3403 C3405 1.327 . S
C3403 C3409 1.429 . S
C3404 C3396 1.574 . S
C3404 H3399 0.949 . S
C3404 C3410 1.368 . S
C3405 C3389 1.349 . S
C3405 H3397 0.950 . S
C3405 C3403 1.327 . S
C3406 C3394 1.349 . S
C3406 H3400 0.950 . S
C3406 C3407 1.327 . S
C3407 H3401 0.950 . S
C3407 C3406 1.327 . S
C3407 C3411 1.429 . S
C3408 C3391 1.574 . S
C3408 H3402 0.949 . S
C3408 C3412 1.368 . S
C3409 C3390 1.429 . S
C3409 C3403 1.429 . S
C3409 C3410 1.523 . S
C3410 C3391 1.368 . S
C3410 C3404 1.368 . S
C3410 C3409 1.523 . S
C3411 C3395 1.429 . S
C3411 C3407 1.429 . S
C3411 C3412 1.523 . S
C3412 C3396 1.368 . S
C3412 C3408 1.368 . S
C3412 C3411 1.523 . S
H3413 C3388 0.950 . S
H3414 C3390 0.950 . S
H3415 C3391 0.949 . S
H3416 C3393 0.950 . S
H3417 C3395 0.950 . S
C3418 C3419 1.349 . S
C3418 C3420 1.327 . S
C3418 H3443 0.950 . S
C3419 C3418 1.349 . S
C3419 C3435 1.349 . S
C3420 C3418 1.327 . S
C3420 C3439 1.429 . S
C3420 H3444 0.950 . S
C3421 C3438 1.574 . S
C3421 C3440 1.368 . S
C3421 H3445 0.949 . S
H3422 C3426 0.949 . S
C3423 C3424 1.349 . S
C3423 C3425 1.327 . S
C3423 H3446 0.950 . S
C3424 C3423 1.349 . S
C3424 C3436 1.349 . S
C3425 C3423 1.327 . S
C3425 C3441 1.429 . S
C3425 H3447 0.950 . S
C3426 H3422 0.949 . S
C3426 C3434 1.574 . S
C3426 C3442 1.368 . S
H3427 C3435 0.950 . S
H3428 C3433 0.950 . S
H3429 C3434 0.949 . S
H3430 C3436 0.950 . S
H3431 C3437 0.950 . S
H3432 C3438 0.949 . S
C3433 H3428 0.950 . S
C3433 C3435 1.327 . S
C3433 C3439 1.429 . S
C3434 C3426 1.574 . S
C3434 H3429 0.949 . S
C3434 C3440 1.368 . S
C3435 C3419 1.349 . S
C3435 H3427 0.950 . S
C3435 C3433 1.327 . S
C3436 C3424 1.349 . S
C3436 H3430 0.950 . S
C3436 C3437 1.327 . S
C3437 H3431 0.950 . S
C3437 C3436 1.327 . S
C3437 C3441 1.429 . S
C3438 C3421 1.574 . S
C3438 H3432 0.949 . S
C3438 C3442 1.368 . S
C3439 C3420 1.429 . S
C3439 C3433 1.429 . S
C3439 C3440 1.523 . S
C3440 C3421 1.368 . S
C3440 C3434 1.368 . S
C3440 C3439 1.523 . S
C3441 C3425 1.429 . S
C3441 C3437 1.429 . S
C3441 C3442 1.523 . S
C3442 C3426 1.368 . S
C3442 C3438 1.368 . S
C3442 C3441 1.523 . S
H3443 C3418 0.950 . S
H3444 C3420 0.950 . S
H3445 C3421 0.949 . S
H3446 C3423 0.950 . S
H3447 C3425 0.950 . S
C3448 C3449 1.349 . S
C3448 C3450 1.327 . S
C3448 H3473 0.950 . S
C3449 C3448 1.349 . S
C3449 C3465 1.349 . S
C3450 C3448 1.327 . S
C3450 C3469 1.429 . S
C3450 H3474 0.950 . S
C3451 C3468 1.574 . S
C3451 C3470 1.368 . S
C3451 H3475 0.949 . S
H3452 C3456 0.949 . S
C3453 C3454 1.349 . S
C3453 C3455 1.327 . S
C3453 H3476 0.950 . S
C3454 C3453 1.349 . S
C3454 C3466 1.349 . S
C3455 C3453 1.327 . S
C3455 C3471 1.429 . S
C3455 H3477 0.950 . S
C3456 H3452 0.949 . S
C3456 C3464 1.574 . S
C3456 C3472 1.368 . S
H3457 C3465 0.950 . S
H3458 C3463 0.950 . S
H3459 C3464 0.949 . S
H3460 C3466 0.950 . S
H3461 C3467 0.950 . S
H3462 C3468 0.949 . S
C3463 H3458 0.950 . S
C3463 C3465 1.327 . S
C3463 C3469 1.429 . S
C3464 C3456 1.574 . S
C3464 H3459 0.949 . S
C3464 C3470 1.368 . S
C3465 C3449 1.349 . S
C3465 H3457 0.950 . S
C3465 C3463 1.327 . S
C3466 C3454 1.349 . S
C3466 H3460 0.950 . S
C3466 C3467 1.327 . S
C3467 H3461 0.950 . S
C3467 C3466 1.327 . S
C3467 C3471 1.429 . S
C3468 C3451 1.574 . S
C3468 H3462 0.949 . S
C3468 C3472 1.368 . S
C3469 C3450 1.429 . S
C3469 C3463 1.429 . S
C3469 C3470 1.523 . S
C3470 C3451 1.368 . S
C3470 C3464 1.368 . S
C3470 C3469 1.523 . S
C3471 C3455 1.429 . S
C3471 C3467 1.429 . S
C3471 C3472 1.523 . S
C3472 C3456 1.368 . S
C3472 C3468 1.368 . S
C3472 C3471 1.523 . S
H3473 C3448 0.950 . S
H3474 C3450 0.950 . S
H3475 C3451 0.949 . S
H3476 C3453 0.950 . S
H3477 C3455 0.950 . S
C3478 C3479 1.349 . S
C3478 C3480 1.327 . S
C3478 H3503 0.950 . S
C3479 C3478 1.349 . S
C3479 C3495 1.349 . S
C3480 C3478 1.327 . S
C3480 C3499 1.429 . S
C3480 H3504 0.950 . S
C3481 C3498 1.574 . S
C3481 C3500 1.368 . S
C3481 H3505 0.949 . S
H3482 C3486 0.949 . S
C3483 C3484 1.349 . S
C3483 C3485 1.327 . S
C3483 H3506 0.950 . S
C3484 C3483 1.349 . S
C3484 C3496 1.349 . S
C3485 C3483 1.327 . S
C3485 C3501 1.429 . S
C3485 H3507 0.950 . S
C3486 H3482 0.949 . S
C3486 C3494 1.574 . S
C3486 C3502 1.368 . S
H3487 C3495 0.950 . S
H3488 C3493 0.950 . S
H3489 C3494 0.949 . S
H3490 C3496 0.950 . S
H3491 C3497 0.950 . S
H3492 C3498 0.949 . S
C3493 H3488 0.950 . S
C3493 C3495 1.327 . S
C3493 C3499 1.429 . S
C3494 C3486 1.574 . S
C3494 H3489 0.949 . S
C3494 C3500 1.368 . S
C3495 C3479 1.349 . S
C3495 H3487 0.950 . S
C3495 C3493 1.327 . S
C3496 C3484 1.349 . S
C3496 H3490 0.950 . S
C3496 C3497 1.327 . S
C3497 H3491 0.950 . S
C3497 C3496 1.327 . S
C3497 C3501 1.429 . S
C3498 C3481 1.574 . S
C3498 H3492 0.949 . S
C3498 C3502 1.368 . S
C3499 C3480 1.429 . S
C3499 C3493 1.429 . S
C3499 C3500 1.523 . S
C3500 C3481 1.368 . S
C3500 C3494 1.368 . S
C3500 C3499 1.523 . S
C3501 C3485 1.429 . S
C3501 C3497 1.429 . S
C3501 C3502 1.523 . S
C3502 C3486 1.368 . S
C3502 C3498 1.368 . S
C3502 C3501 1.523 . S
H3503 C3478 0.950 . S
H3504 C3480 0.950 . S
H3505 C3481 0.949 . S
H3506 C3483 0.950 . S
H3507 C3485 0.950 . S
C3508 C3509 1.349 . S
C3508 C3510 1.327 . S
C3508 H3533 0.950 . S
C3509 C3508 1.349 . S
C3509 C3525 1.349 . S
C3510 C3508 1.327 . S
C3510 C3529 1.429 . S
C3510 H3534 0.950 . S
C3511 C3528 1.574 . S
C3511 C3530 1.368 . S
C3511 H3535 0.949 . S
H3512 C3516 0.949 . S
C3513 C3514 1.349 . S
C3513 C3515 1.327 . S
C3513 H3536 0.950 . S
C3514 C3513 1.349 . S
C3514 C3526 1.349 . S
C3515 C3513 1.327 . S
C3515 C3531 1.429 . S
C3515 H3537 0.950 . S
C3516 H3512 0.949 . S
C3516 C3524 1.574 . S
C3516 C3532 1.368 . S
H3517 C3525 0.950 . S
H3518 C3523 0.950 . S
H3519 C3524 0.949 . S
H3520 C3526 0.950 . S
H3521 C3527 0.950 . S
H3522 C3528 0.949 . S
C3523 H3518 0.950 . S
C3523 C3525 1.327 . S
C3523 C3529 1.429 . S
C3524 C3516 1.574 . S
C3524 H3519 0.949 . S
C3524 C3530 1.368 . S
C3525 C3509 1.349 . S
C3525 H3517 0.950 . S
C3525 C3523 1.327 . S
C3526 C3514 1.349 . S
C3526 H3520 0.950 . S
C3526 C3527 1.327 . S
C3527 H3521 0.950 . S
C3527 C3526 1.327 . S
C3527 C3531 1.429 . S
C3528 C3511 1.574 . S
C3528 H3522 0.949 . S
C3528 C3532 1.368 . S
C3529 C3510 1.429 . S
C3529 C3523 1.429 . S
C3529 C3530 1.523 . S
C3530 C3511 1.368 . S
C3530 C3524 1.368 . S
C3530 C3529 1.523 . S
C3531 C3515 1.429 . S
C3531 C3527 1.429 . S
C3531 C3532 1.523 . S
C3532 C3516 1.368 . S
C3532 C3528 1.368 . S
C3532 C3531 1.523 . S
H3533 C3508 0.950 . S
H3534 C3510 0.950 . S
H3535 C3511 0.949 . S
H3536 C3513 0.950 . S
H3537 C3515 0.950 . S
C3538 C3539 1.349 . S
C3538 C3540 1.327 . S
C3538 H3563 0.950 . S
C3539 C3538 1.349 . S
C3539 C3555 1.349 . S
C3540 C3538 1.327 . S
C3540 C3559 1.429 . S
C3540 H3564 0.950 . S
C3541 C3558 1.574 . S
C3541 C3560 1.368 . S
C3541 H3565 0.949 . S
H3542 C3546 0.949 . S
C3543 C3544 1.349 . S
C3543 C3545 1.327 . S
C3543 H3566 0.950 . S
C3544 C3543 1.349 . S
C3544 C3556 1.349 . S
C3545 C3543 1.327 . S
C3545 C3561 1.429 . S
C3545 H3567 0.950 . S
C3546 H3542 0.949 . S
C3546 C3554 1.574 . S
C3546 C3562 1.368 . S
H3547 C3555 0.950 . S
H3548 C3553 0.950 . S
H3549 C3554 0.949 . S
H3550 C3556 0.950 . S
H3551 C3557 0.950 . S
H3552 C3558 0.949 . S
C3553 H3548 0.950 . S
C3553 C3555 1.327 . S
C3553 C3559 1.429 . S
C3554 C3546 1.574 . S
C3554 H3549 0.949 . S
C3554 C3560 1.368 . S
C3555 C3539 1.349 . S
C3555 H3547 0.950 . S
C3555 C3553 1.327 . S
C3556 C3544 1.349 . S
C3556 H3550 0.950 . S
C3556 C3557 1.327 . S
C3557 H3551 0.950 . S
C3557 C3556 1.327 . S
C3557 C3561 1.429 . S
C3558 C3541 1.574 . S
C3558 H3552 0.949 . S
C3558 C3562 1.368 . S
C3559 C3540 1.429 . S
C3559 C3553 1.429 . S
C3559 C3560 1.523 . S
C3560 C3541 1.368 . S
C3560 C3554 1.368 . S
C3560 C3559 1.523 . S
C3561 C3545 1.429 . S
C3561 C3557 1.429 . S
C3561 C3562 1.523 . S
C3562 C3546 1.368 . S
C3562 C3558 1.368 . S
C3562 C3561 1.523 . S
H3563 C3538 0.950 . S
H3564 C3540 0.950 . S
H3565 C3541 0.949 . S
H3566 C3543 0.950 . S
H3567 C3545 0.950 . S
C3568 C3569 1.349 . S
C3568 C3570 1.327 . S
C3568 H3593 0.950 . S
C3569 C3568 1.349 . S
C3569 C3585 1.349 . S
C3570 C3568 1.327 . S
C3570 C3589 1.429 . S
C3570 H3594 0.950 . S
C3571 C3588 1.574 . S
C3571 C3590 1.368 . S
C3571 H3595 0.949 . S
H3572 C3576 0.949 . S
C3573 C3574 1.349 . S
C3573 C3575 1.327 . S
C3573 H3596 0.950 . S
C3574 C3573 1.349 . S
C3574 C3586 1.349 . S
C3575 C3573 1.327 . S
C3575 C3591 1.429 . S
C3575 H3597 0.950 . S
C3576 H3572 0.949 . S
C3576 C3584 1.574 . S
C3576 C3592 1.368 . S
H3577 C3585 0.950 . S
H3578 C3583 0.950 . S
H3579 C3584 0.949 . S
H3580 C3586 0.950 . S
H3581 C3587 0.950 . S
H3582 C3588 0.949 . S
C3583 H3578 0.950 . S
C3583 C3585 1.327 . S
C3583 C3589 1.429 . S
C3584 C3576 1.574 . S
C3584 H3579 0.949 . S
C3584 C3590 1.368 . S
C3585 C3569 1.349 . S
C3585 H3577 0.950 . S
C3585 C3583 1.327 . S
C3586 C3574 1.349 . S
C3586 H3580 0.950 . S
C3586 C3587 1.327 . S
C3587 H3581 0.950 . S
C3587 C3586 1.327 . S
C3587 C3591 1.429 . S
C3588 C3571 1.574 . S
C3588 H3582 0.949 . S
C3588 C3592 1.368 . S
C3589 C3570 1.429 . S
C3589 C3583 1.429 . S
C3589 C3590 1.523 . S
C3590 C3571 1.368 . S
C3590 C3584 1.368 . S
C3590 C3589 1.523 . S
C3591 C3575 1.429 . S
C3591 C3587 1.429 . S
C3591 C3592 1.523 . S
C3592 C3576 1.368 . S
C3592 C3588 1.368 . S
C3592 C3591 1.523 . S
H3593 C3568 0.950 . S
H3594 C3570 0.950 . S
H3595 C3571 0.949 . S
H3596 C3573 0.950 . S
H3597 C3575 0.950 . S
C3598 C3599 1.349 . S
C3598 C3600 1.327 . S
C3598 H3623 0.950 . S
C3599 C3598 1.349 . S
C3599 C3615 1.349 . S
C3600 C3598 1.327 . S
C3600 C3619 1.429 . S
C3600 H3624 0.950 . S
C3601 C3618 1.574 . S
C3601 C3620 1.368 . S
C3601 H3625 0.949 . S
H3602 C3606 0.949 . S
C3603 C3604 1.349 . S
C3603 C3605 1.327 . S
C3603 H3626 0.950 . S
C3604 C3603 1.349 . S
C3604 C3616 1.349 . S
C3605 C3603 1.327 . S
C3605 C3621 1.429 . S
C3605 H3627 0.950 . S
C3606 H3602 0.949 . S
C3606 C3614 1.574 . S
C3606 C3622 1.368 . S
H3607 C3615 0.950 . S
H3608 C3613 0.950 . S
H3609 C3614 0.949 . S
H3610 C3616 0.950 . S
H3611 C3617 0.950 . S
H3612 C3618 0.949 . S
C3613 H3608 0.950 . S
C3613 C3615 1.327 . S
C3613 C3619 1.429 . S
C3614 C3606 1.574 . S
C3614 H3609 0.949 . S
C3614 C3620 1.368 . S
C3615 C3599 1.349 . S
C3615 H3607 0.950 . S
C3615 C3613 1.327 . S
C3616 C3604 1.349 . S
C3616 H3610 0.950 . S
C3616 C3617 1.327 . S
C3617 H3611 0.950 . S
C3617 C3616 1.327 . S
C3617 C3621 1.429 . S
C3618 C3601 1.574 . S
C3618 H3612 0.949 . S
C3618 C3622 1.368 . S
C3619 C3600 1.429 . S
C3619 C3613 1.429 . S
C3619 C3620 1.523 . S
C3620 C3601 1.368 . S
C3620 C3614 1.368 . S
C3620 C3619 1.523 . S
C3621 C3605 1.429 . S
C3621 C3617 1.429 . S
C3621 C3622 1.523 . S
C3622 C3606 1.368 . S
C3622 C3618 1.368 . S
C3622 C3621 1.523 . S
H3623 C3598 0.950 . S
H3624 C3600 0.950 . S
H3625 C3601 0.949 . S
H3626 C3603 0.950 . S
H3627 C3605 0.950 . S
C3628 C3629 1.349 . S
C3628 C3630 1.327 . S
C3628 H3653 0.950 . S
C3629 C3628 1.349 . S
C3629 C3645 1.349 . S
C3630 C3628 1.327 . S
C3630 C3649 1.429 . S
C3630 H3654 0.950 . S
C3631 C3648 1.574 . S
C3631 C3650 1.368 . S
C3631 H3655 0.949 . S
H3632 C3636 0.949 . S
C3633 C3634 1.349 . S
C3633 C3635 1.327 . S
C3633 H3656 0.950 . S
C3634 C3633 1.349 . S
C3634 C3646 1.349 . S
C3635 C3633 1.327 . S
C3635 C3651 1.429 . S
C3635 H3657 0.950 . S
C3636 H3632 0.949 . S
C3636 C3644 1.574 . S
C3636 C3652 1.368 . S
H3637 C3645 0.950 . S
H3638 C3643 0.950 . S
H3639 C3644 0.949 . S
H3640 C3646 0.950 . S
H3641 C3647 0.950 . S
H3642 C3648 0.949 . S
C3643 H3638 0.950 . S
C3643 C3645 1.327 . S
C3643 C3649 1.429 . S
C3644 C3636 1.574 . S
C3644 H3639 0.949 . S
C3644 C3650 1.368 . S
C3645 C3629 1.349 . S
C3645 H3637 0.950 . S
C3645 C3643 1.327 . S
C3646 C3634 1.349 . S
C3646 H3640 0.950 . S
C3646 C3647 1.327 . S
C3647 H3641 0.950 . S
C3647 C3646 1.327 . S
C3647 C3651 1.429 . S
C3648 C3631 1.574 . S
C3648 H3642 0.949 . S
C3648 C3652 1.368 . S
C3649 C3630 1.429 . S
C3649 C3643 1.429 . S
C3649 C3650 1.523 . S
C3650 C3631 1.368 . S
C3650 C3644 1.368 . S
C3650 C3649 1.523 . S
C3651 C3635 1.429 . S
C3651 C3647 1.429 . S
C3651 C3652 1.523 . S
C3652 C3636 1.368 . S
C3652 C3648 1.368 . S
C3652 C3651 1.523 . S
H3653 C3628 0.950 . S
H3654 C3630 0.950 . S
H3655 C3631 0.949 . S
H3656 C3633 0.950 . S
H3657 C3635 0.950 . S
C3658 C3659 1.349 . S
C3658 C3660 1.327 . S
C3658 H3683 0.950 . S
C3659 C3658 1.349 . S
C3659 C3675 1.349 . S
C3660 C3658 1.327 . S
C3660 C3679 1.429 . S
C3660 H3684 0.950 . S
C3661 C3678 1.574 . S
C3661 C3680 1.368 . S
C3661 H3685 0.949 . S
H3662 C3666 0.949 . S
C3663 C3664 1.349 . S
C3663 C3665 1.327 . S
C3663 H3686 0.950 . S
C3664 C3663 1.349 . S
C3664 C3676 1.349 . S
C3665 C3663 1.327 . S
C3665 C3681 1.429 . S
C3665 H3687 0.950 . S
C3666 H3662 0.949 . S
C3666 C3674 1.574 . S
C3666 C3682 1.368 . S
H3667 C3675 0.950 . S
H3668 C3673 0.950 . S
H3669 C3674 0.949 . S
H3670 C3676 0.950 . S
H3671 C3677 0.950 . S
H3672 C3678 0.949 . S
C3673 H3668 0.950 . S
C3673 C3675 1.327 . S
C3673 C3679 1.429 . S
C3674 C3666 1.574 . S
C3674 H3669 0.949 . S
C3674 C3680 1.368 . S
C3675 C3659 1.349 . S
C3675 H3667 0.950 . S
C3675 C3673 1.327 . S
C3676 C3664 1.349 . S
C3676 H3670 0.950 . S
C3676 C3677 1.327 . S
C3677 H3671 0.950 . S
C3677 C3676 1.327 . S
C3677 C3681 1.429 . S
C3678 C3661 1.574 . S
C3678 H3672 0.949 . S
C3678 C3682 1.368 . S
C3679 C3660 1.429 . S
C3679 C3673 1.429 . S
C3679 C3680 1.523 . S
C3680 C3661 1.368 . S
C3680 C3674 1.368 . S
C3680 C3679 1.523 . S
C3681 C3665 1.429 . S
C3681 C3677 1.429 . S
C3681 C3682 1.523 . S
C3682 C3666 1.368 . S
C3682 C3678 1.368 . S
C3682 C3681 1.523 . S
H3683 C3658 0.950 . S
H3684 C3660 0.950 . S
H3685 C3661 0.949 . S
H3686 C3663 0.950 . S
H3687 C3665 0.950 . S
C3688 C3689 1.349 . S
C3688 C3690 1.327 . S
C3688 H3713 0.950 . S
C3689 C3688 1.349 . S
C3689 C3705 1.349 . S
C3690 C3688 1.327 . S
C3690 C3709 1.429 . S
C3690 H3714 0.950 . S
C3691 C3708 1.574 . S
C3691 C3710 1.368 . S
C3691 H3715 0.949 . S
H3692 C3696 0.949 . S
C3693 C3694 1.349 . S
C3693 C3695 1.327 . S
C3693 H3716 0.950 . S
C3694 C3693 1.349 . S
C3694 C3706 1.349 . S
C3695 C3693 1.327 . S
C3695 C3711 1.429 . S
C3695 H3717 0.950 . S
C3696 H3692 0.949 . S
C3696 C3704 1.574 . S
C3696 C3712 1.368 . S
H3697 C3705 0.950 . S
H3698 C3703 0.950 . S
H3699 C3704 0.949 . S
H3700 C3706 0.950 . S
H3701 C3707 0.950 . S
H3702 C3708 0.949 . S
C3703 H3698 0.950 . S
C3703 C3705 1.327 . S
C3703 C3709 1.429 . S
C3704 C3696 1.574 . S
C3704 H3699 0.949 . S
C3704 C3710 1.368 . S
C3705 C3689 1.349 . S
C3705 H3697 0.950 . S
C3705 C3703 1.327 . S
C3706 C3694 1.349 . S
C3706 H3700 0.950 . S
C3706 C3707 1.327 . S
C3707 H3701 0.950 . S
C3707 C3706 1.327 . S
C3707 C3711 1.429 . S
C3708 C3691 1.574 . S
C3708 H3702 0.949 . S
C3708 C3712 1.368 . S
C3709 C3690 1.429 . S
C3709 C3703 1.429 . S
C3709 C3710 1.523 . S
C3710 C3691 1.368 . S
C3710 C3704 1.368 . S
C3710 C3709 1.523 . S
C3711 C3695 1.429 . S
C3711 C3707 1.429 . S
C3711 C3712 1.523 . S
C3712 C3696 1.368 . S
C3712 C3708 1.368 . S
C3712 C3711 1.523 . S
H3713 C3688 0.950 . S
H3714 C3690 0.950 . S
H3715 C3691 0.949 . S
H3716 C3693 0.950 . S
H3717 C3695 0.950 . S
C3718 C3719 1.349 . S
C3718 C3720 1.327 . S
C3718 H3743 0.950 . S
C3719 C3718 1.349 . S
C3719 C3735 1.349 . S
C3720 C3718 1.327 . S
C3720 C3739 1.429 . S
C3720 H3744 0.950 . S
C3721 C3738 1.574 . S
C3721 C3740 1.368 . S
C3721 H3745 0.949 . S
H3722 C3726 0.949 . S
C3723 C3724 1.349 . S
C3723 C3725 1.327 . S
C3723 H3746 0.950 . S
C3724 C3723 1.349 . S
C3724 C3736 1.349 . S
C3725 C3723 1.327 . S
C3725 C3741 1.429 . S
C3725 H3747 0.950 . S
C3726 H3722 0.949 . S
C3726 C3734 1.574 . S
C3726 C3742 1.368 . S
H3727 C3735 0.950 . S
H3728 C3733 0.950 . S
H3729 C3734 0.949 . S
H3730 C3736 0.950 . S
H3731 C3737 0.950 . S
H3732 C3738 0.949 . S
C3733 H3728 0.950 . S
C3733 C3735 1.327 . S
C3733 C3739 1.429 . S
C3734 C3726 1.574 . S
C3734 H3729 0.949 . S
C3734 C3740 1.368 . S
C3735 C3719 1.349 . S
C3735 H3727 0.950 . S
C3735 C3733 1.327 . S
C3736 C3724 1.349 . S
C3736 H3730 0.950 . S
C3736 C3737 1.327 . S
C3737 H3731 0.950 . S
C3737 C3736 1.327 . S
C3737 C3741 1.429 . S
C3738 C3721 1.574 . S
C3738 H3732 0.949 . S
C3738 C3742 1.368 . S
C3739 C3720 1.429 . S
C3739 C3733 1.429 . S
C3739 C3740 1.523 . S
C3740 C3721 1.368 . S
C3740 C3734 1.368 . S
C3740 C3739 1.523 . S
C3741 C3725 1.429 . S
C3741 C3737 1.429 . S
C3741 C3742 1.523 . S
C3742 C3726 1.368 . S
C3742 C3738 1.368 . S
C3742 C3741 1.523 . S
H3743 C3718 0.950 . S
H3744 C3720 0.950 . S
H3745 C3721 0.949 . S
H3746 C3723 0.950 . S
H3747 C3725 0.950 . S
C3748 C3749 1.349 . S
C3748 C3750 1.327 . S
C3748 H3773 0.950 . S
C3749 C3748 1.349 . S
C3749 C3765 1.349 . S
C3750 C3748 1.327 . S
C3750 C3769 1.429 . S
C3750 H3774 0.950 . S
C3751 C3768 1.574 . S
C3751 C3770 1.368 . S
C3751 H3775 0.949 . S
H3752 C3756 0.949 . S
C3753 C3754 1.349 . S
C3753 C3755 1.327 . S
C3753 H3776 0.950 . S
C3754 C3753 1.349 . S
C3754 C3766 1.349 . S
C3755 C3753 1.327 . S
C3755 C3771 1.429 . S
C3755 H3777 0.950 . S
C3756 H3752 0.949 . S
C3756 C3764 1.574 . S
C3756 C3772 1.368 . S
H3757 C3765 0.950 . S
H3758 C3763 0.950 . S
H3759 C3764 0.949 . S
H3760 C3766 0.950 . S
H3761 C3767 0.950 . S
H3762 C3768 0.949 . S
C3763 H3758 0.950 . S
C3763 C3765 1.327 . S
C3763 C3769 1.429 . S
C3764 C3756 1.574 . S
C3764 H3759 0.949 . S
C3764 C3770 1.368 . S
C3765 C3749 1.349 . S
C3765 H3757 0.950 . S
C3765 C3763 1.327 . S
C3766 C3754 1.349 . S
C3766 H3760 0.950 . S
C3766 C3767 1.327 . S
C3767 H3761 0.950 . S
C3767 C3766 1.327 . S
C3767 C3771 1.429 . S
C3768 C3751 1.574 . S
C3768 H3762 0.949 . S
C3768 C3772 1.368 . S
C3769 C3750 1.429 . S
C3769 C3763 1.429 . S
C3769 C3770 1.523 . S
C3770 C3751 1.368 . S
C3770 C3764 1.368 . S
C3770 C3769 1.523 . S
C3771 C3755 1.429 . S
C3771 C3767 1.429 . S
C3771 C3772 1.523 . S
C3772 C3756 1.368 . S
C3772 C3768 1.368 . S
C3772 C3771 1.523 . S
H3773 C3748 0.950 . S
H3774 C3750 0.950 . S
H3775 C3751 0.949 . S
H3776 C3753 0.950 . S
H3777 C3755 0.950 . S
C3778 C3779 1.349 . S
C3778 C3780 1.327 . S
C3778 H3803 0.950 . S
C3779 C3778 1.349 . S
C3779 C3795 1.349 . S
C3780 C3778 1.327 . S
C3780 C3799 1.429 . S
C3780 H3804 0.950 . S
C3781 C3798 1.574 . S
C3781 C3800 1.368 . S
C3781 H3805 0.949 . S
H3782 C3786 0.949 . S
C3783 C3784 1.349 . S
C3783 C3785 1.327 . S
C3783 H3806 0.950 . S
C3784 C3783 1.349 . S
C3784 C3796 1.349 . S
C3785 C3783 1.327 . S
C3785 C3801 1.429 . S
C3785 H3807 0.950 . S
C3786 H3782 0.949 . S
C3786 C3794 1.574 . S
C3786 C3802 1.368 . S
H3787 C3795 0.950 . S
H3788 C3793 0.950 . S
H3789 C3794 0.949 . S
H3790 C3796 0.950 . S
H3791 C3797 0.950 . S
H3792 C3798 0.949 . S
C3793 H3788 0.950 . S
C3793 C3795 1.327 . S
C3793 C3799 1.429 . S
C3794 C3786 1.574 . S
C3794 H3789 0.949 . S
C3794 C3800 1.368 . S
C3795 C3779 1.349 . S
C3795 H3787 0.950 . S
C3795 C3793 1.327 . S
C3796 C3784 1.349 . S
C3796 H3790 0.950 . S
C3796 C3797 1.327 . S
C3797 H3791 0.950 . S
C3797 C3796 1.327 . S
C3797 C3801 1.429 . S
C3798 C3781 1.574 . S
C3798 H3792 0.949 . S
C3798 C3802 1.368 . S
C3799 C3780 1.429 . S
C3799 C3793 1.429 . S
C3799 C3800 1.523 . S
C3800 C3781 1.368 . S
C3800 C3794 1.368 . S
C3800 C3799 1.523 . S
C3801 C3785 1.429 . S
C3801 C3797 1.429 . S
C3801 C3802 1.523 . S
C3802 C3786 1.368 . S
C3802 C3798 1.368 . S
C3802 C3801 1.523 . S
H3803 C3778 0.950 . S
H3804 C3780 0.950 . S
H3805 C3781 0.949 . S
H3806 C3783 0.950 . S
H3807 C3785 0.950 . S
C1889 C937 1.612 . S
C1894 C52 1.612 . S
C1919 C111 1.612 . S
C1924 C760 1.612 . S
C1949 C170 1.612 . S
C1954 C819 1.612 . S
C1979 C878 1.612 . S
C1984 C229 1.612 . S
C2009 C288 1.612 . S
C2014 C583 1.612 . S
C2039 C347 1.612 . S
C2044 C642 1.612 . S
C2069 C701 1.612 . S
C2074 C406 1.612 . S
C2099 C524 1.612 . S
C2104 C465 1.612 . S
C2129 C996 1.612 . S
C2134 C1881 1.612 . S
C2159 C1055 1.612 . S
C2164 C1704 1.612 . S
C2189 C1114 1.612 . S
C2194 C1763 1.612 . S
C2219 C1822 1.612 . S
C2224 C1173 1.612 . S
C2249 C1232 1.612 . S
C2254 C1527 1.612 . S
C2279 C1291 1.612 . S
C2284 C1586 1.612 . S
C2309 C1645 1.612 . S
C2314 C1350 1.612 . S
C2339 C1409 1.612 . S
C2344 C1468 1.612 . S
C2369 C713 1.551 . S
C2374 C5 1.551 . S
C2399 C64 1.551 . S
C2404 C772 1.551 . S
C2429 C831 1.551 . S
C2434 C123 1.551 . S
C2459 C182 1.551 . S
C2464 C890 1.551 . S
C2489 C241 1.551 . S
C2494 C477 1.551 . S
C2519 C536 1.551 . S
C2524 C300 1.551 . S
C2549 C595 1.551 . S
C2554 C359 1.551 . S
C2579 C654 1.551 . S
C2584 C418 1.551 . S
C2609 C949 1.551 . S
C2614 C1657 1.551 . S
C2639 C1716 1.551 . S
C2644 C1008 1.551 . S
C2669 C1067 1.551 . S
C2674 C1775 1.551 . S
C2699 C1126 1.551 . S
C2704 C1834 1.551 . S
C2729 C1421 1.551 . S
C2734 C1185 1.551 . S
C2759 C1244 1.551 . S
C2764 C1480 1.551 . S
C2789 C1303 1.551 . S
C2794 C1539 1.551 . S
C2819 C1362 1.551 . S
C2824 C1598 1.551 . S
C2849 C33 1.282 . S
C2854 C623 1.282 . S
C2879 C682 1.282 . S
C2884 C92 1.282 . S
C2909 C151 1.282 . S
C2914 C505 1.282 . S
C2939 C564 1.282 . S
C2944 C210 1.282 . S
C2969 C859 1.282 . S
C2974 C269 1.282 . S
C2999 C918 1.282 . S
C3004 C328 1.282 . S
C3029 C741 1.282 . S
C3034 C387 1.282 . S
C3059 C446 1.282 . S
C3064 C800 1.282 . S
C3089 C1567 1.282 . S
C3094 C977 1.282 . S
C3119 C1036 1.282 . S
C3124 C1626 1.282 . S
C3149 C1449 1.282 . S
C3154 C1095 1.282 . S
C3179 C1508 1.282 . S
C3184 C1154 1.282 . S
C3209 C1213 1.282 . S
C3214 C1803 1.282 . S
C3239 C1272 1.282 . S
C3244 C1862 1.282 . S
C3269 C1685 1.282 . S
C3274 C1331 1.282 . S
C3299 C1744 1.282 . S
C3304 C1390 1.282 . S
C3329 C1360 1.291 . S
C3334 C3 1.291 . S
C3359 C1183 1.291 . S
C3364 C62 1.291 . S
C3389 C1242 1.291 . S
C3394 C121 1.291 . S
C3419 C1301 1.291 . S
C3424 C180 1.291 . S
C3449 C1006 1.291 . S
C3454 C239 1.291 . S
C3479 C298 1.291 . S
C3484 C1065 1.291 . S
C3509 C357 1.291 . S
C3514 C1124 1.291 . S
C3539 C416 1.291 . S
C3544 C947 1.291 . S
C3569 C475 1.291 . S
C3574 C1832 1.291 . S
C3599 C1655 1.291 . S
C3604 C534 1.291 . S
C3629 C593 1.291 . S
C3634 C1714 1.291 . S
C3659 C652 1.291 . S
C3664 C1773 1.291 . S
C3689 C1478 1.291 . S
C3694 C711 1.291 . S
C3719 C1537 1.291 . S
C3724 C770 1.291 . S
C3749 C829 1.291 . S
C3754 C1596 1.291 . S
C3779 C888 1.291 . S
C3784 C1419 1.291 . S
