# Generated by pormake.
# Topology wns, (7)-cn, num edge types: 1
# Building blocks:
#     Node 0, Type 0, BuildingBlock: NUHQUE_clean_sbu_2, # of connection points: 7
#     Node 1, Type 0, BuildingBlock: NUHQUE_clean_sbu_2, # of connection points: 7
#     Node 2, Type 0, BuildingBlock: NUHQUE_clean_sbu_2, # of connection points: 7
#     Node 3, Type 0, BuildingBlock: NUHQUE_clean_sbu_2, # of connection points: 7
#     Node 4, Type 0, BuildingBlock: NUHQUE_clean_sbu_2, # of connection points: 7
#     Node 5, Type 0, BuildingBlock: NUHQUE_clean_sbu_2, # of connection points: 7
#     Node 6, Type 0, BuildingBlock: NUHQUE_clean_sbu_2, # of connection points: 7
#     Node 7, Type 0, BuildingBlock: NUHQUE_clean_sbu_2, # of connection points: 7
#     Node 8, Type 0, BuildingBlock: NUHQUE_clean_sbu_2, # of connection points: 7
#     Node 9, Type 0, BuildingBlock: NUHQUE_clean_sbu_2, # of connection points: 7
#     Node 10, Type 0, BuildingBlock: NUHQUE_clean_sbu_2, # of connection points: 7
#     Node 11, Type 0, BuildingBlock: NUHQUE_clean_sbu_2, # of connection points: 7
#     Edge 12, Type (0, 0), BuildingBlock: XUDNAN_clean_linker_2, # of connection points: 2
#     Edge 13, Type (0, 0), BuildingBlock: XUDNAN_clean_linker_2, # of connection points: 2
#     Edge 14, Type (0, 0), BuildingBlock: XUDNAN_clean_linker_2, # of connection points: 2
#     Edge 15, Type (0, 0), BuildingBlock: XUDNAN_clean_linker_2, # of connection points: 2
#     Edge 16, Type (0, 0), BuildingBlock: XUDNAN_clean_linker_2, # of connection points: 2
#     Edge 17, Type (0, 0), BuildingBlock: XUDNAN_clean_linker_2, # of connection points: 2
#     Edge 18, Type (0, 0), BuildingBlock: XUDNAN_clean_linker_2, # of connection points: 2
#     Edge 19, Type (0, 0), BuildingBlock: XUDNAN_clean_linker_2, # of connection points: 2
#     Edge 20, Type (0, 0), BuildingBlock: XUDNAN_clean_linker_2, # of connection points: 2
#     Edge 21, Type (0, 0), BuildingBlock: XUDNAN_clean_linker_2, # of connection points: 2
#     Edge 22, Type (0, 0), BuildingBlock: XUDNAN_clean_linker_2, # of connection points: 2
#     Edge 23, Type (0, 0), BuildingBlock: XUDNAN_clean_linker_2, # of connection points: 2
#     Edge 24, Type (0, 0), BuildingBlock: XUDNAN_clean_linker_2, # of connection points: 2
#     Edge 25, Type (0, 0), BuildingBlock: XUDNAN_clean_linker_2, # of connection points: 2
#     Edge 26, Type (0, 0), BuildingBlock: XUDNAN_clean_linker_2, # of connection points: 2
#     Edge 27, Type (0, 0), BuildingBlock: XUDNAN_clean_linker_2, # of connection points: 2
#     Edge 28, Type (0, 0), BuildingBlock: XUDNAN_clean_linker_2, # of connection points: 2
#     Edge 29, Type (0, 0), BuildingBlock: XUDNAN_clean_linker_2, # of connection points: 2
#     Edge 30, Type (0, 0), BuildingBlock: XUDNAN_clean_linker_2, # of connection points: 2
#     Edge 31, Type (0, 0), BuildingBlock: XUDNAN_clean_linker_2, # of connection points: 2
#     Edge 32, Type (0, 0), BuildingBlock: XUDNAN_clean_linker_2, # of connection points: 2
#     Edge 33, Type (0, 0), BuildingBlock: XUDNAN_clean_linker_2, # of connection points: 2
#     Edge 34, Type (0, 0), BuildingBlock: XUDNAN_clean_linker_2, # of connection points: 2
#     Edge 35, Type (0, 0), BuildingBlock: XUDNAN_clean_linker_2, # of connection points: 2
#     Edge 36, Type (0, 0), BuildingBlock: XUDNAN_clean_linker_2, # of connection points: 2
#     Edge 37, Type (0, 0), BuildingBlock: XUDNAN_clean_linker_2, # of connection points: 2
#     Edge 38, Type (0, 0), BuildingBlock: XUDNAN_clean_linker_2, # of connection points: 2
#     Edge 39, Type (0, 0), BuildingBlock: XUDNAN_clean_linker_2, # of connection points: 2
#     Edge 40, Type (0, 0), BuildingBlock: XUDNAN_clean_linker_2, # of connection points: 2
#     Edge 41, Type (0, 0), BuildingBlock: XUDNAN_clean_linker_2, # of connection points: 2
#     Edge 42, Type (0, 0), BuildingBlock: XUDNAN_clean_linker_2, # of connection points: 2
#     Edge 43, Type (0, 0), BuildingBlock: XUDNAN_clean_linker_2, # of connection points: 2
#     Edge 44, Type (0, 0), BuildingBlock: XUDNAN_clean_linker_2, # of connection points: 2
#     Edge 45, Type (0, 0), BuildingBlock: XUDNAN_clean_linker_2, # of connection points: 2
#     Edge 46, Type (0, 0), BuildingBlock: XUDNAN_clean_linker_2, # of connection points: 2
#     Edge 47, Type (0, 0), BuildingBlock: XUDNAN_clean_linker_2, # of connection points: 2
#     Edge 48, Type (0, 0), BuildingBlock: XUDNAN_clean_linker_2, # of connection points: 2
#     Edge 49, Type (0, 0), BuildingBlock: XUDNAN_clean_linker_2, # of connection points: 2
#     Edge 50, Type (0, 0), BuildingBlock: XUDNAN_clean_linker_2, # of connection points: 2
#     Edge 51, Type (0, 0), BuildingBlock: XUDNAN_clean_linker_2, # of connection points: 2
#     Edge 52, Type (0, 0), BuildingBlock: XUDNAN_clean_linker_2, # of connection points: 2
#     Edge 53, Type (0, 0), BuildingBlock: XUDNAN_clean_linker_2, # of connection points: 2
# Relax obj value: 0.185
# Max RMSD: 0.260
# Mean RMSD: 0.260
data_MOF--net-wns--node1-NUHQUE_clean_sbu_2--edge1-XUDNAN_clean_linker_2
_symmetry_space_group_name_H-M    P1
_symmetry_Int_Tables_number       1
_symmetry_cell_setting            triclinic
loop_
_symmetry_equiv_pos_as_xyz
'x, y, z'
_cell_length_a     48.425852
_cell_length_b     48.379187
_cell_length_c     35.991993
_cell_angle_alpha  90.039646
_cell_angle_beta   89.885274
_cell_angle_gamma 120.12663
loop_
_atom_site_label
_atom_site_type_symbol
_atom_site_fract_x
_atom_site_fract_y
_atom_site_fract_z
_atom_type_partial_charge
O0 O 0.47734 0.23092 0.96217 0.0
Tb1 Tb 0.49328 0.24892 0.01806 0.0
Eu2 Eu 0.44244 0.26734 0.08375 0.0
C3 C 0.4529 0.23205 0.94812 0.0
O4 O 0.43824 0.24311 0.96887 0.0
C5 C 0.42776 0.20017 0.04805 0.0
O6 O 0.44812 0.24662 0.13737 0.0
C7 C 0.40035 0.28549 0.09034 0.0
C8 C 0.46023 0.26478 0.16693 0.0
O9 O 0.47028 0.29549 0.1643 0.0
C10 C 0.50563 0.31504 0.03905 0.0
C11 C 0.38884 0.30864 0.09433 0.0
C12 C 0.37944 0.3188 0.06238 0.0
C13 C 0.36287 0.33555 0.06584 0.0
C14 C 0.35692 0.34335 0.10119 0.0
C15 C 0.36474 0.33256 0.13335 0.0
C16 C 0.38126 0.31563 0.12988 0.0
O17 O 0.45817 0.20979 0.05103 0.0
O18 O 0.41711 0.22021 0.05238 0.0
O19 O 0.53511 0.24538 1.00295 0.0
O20 O 0.53345 0.26385 0.05605 0.0
C21 C 0.55018 0.25638 0.0342 0.0
O22 O 0.49251 0.30899 0.07232 0.0
O23 O 0.4931 0.29343 0.01284 0.0
O24 O 0.41282 0.27888 0.119 0.0
O25 O 0.41159 0.28262 0.05813 0.0
H26 H 0.38321 0.31205 0.03493 0.0
H27 H 0.34476 0.35696 0.10363 0.0
H28 H 0.38643 0.30629 0.15462 0.0
O29 O 0.77475 0.22757 0.95716 0.0
Tb30 Tb 0.77938 0.23293 0.01795 0.0
Eu31 Eu 0.77454 0.19497 0.11027 0.0
C32 C 0.79862 0.23103 0.93594 0.0
O33 O 0.82519 0.23629 0.95183 0.0
C34 C 0.83504 0.23095 0.05656 0.0
O35 O 0.77301 0.19625 0.17361 0.0
C36 C 0.75409 0.13668 0.08737 0.0
C37 C 0.78768 0.22397 0.19101 0.0
O38 O 0.80255 0.25006 0.17082 0.0
C39 C 0.72301 0.20925 0.07164 0.0
C40 C 0.72765 0.10352 0.09318 0.0
C41 C 0.72011 0.08058 0.06494 0.0
C42 C 0.69619 0.04854 0.07058 0.0
C43 C 0.68014 0.03973 0.10474 0.0
C44 C 0.68771 0.06194 0.13348 0.0
C45 C 0.71145 0.09397 0.12751 0.0
O46 O 0.81528 0.21943 0.02823 0.0
O47 O 0.82452 0.23026 0.09056 0.0
O48 O 0.79045 0.28129 1.0029 0.0
O49 O 0.79583 0.27167 0.059 0.0
C50 C 0.79811 0.29349 0.03602 0.0
O51 O 0.73944 0.2122 0.10208 0.0
O52 O 0.73132 0.20287 0.03925 0.0
O53 O 0.77399 0.14996 0.11521 0.0
O54 O 0.74741 0.1566 0.07026 0.0
H55 H 0.7331 0.08755 0.03886 0.0
H56 H 0.66292 0.01476 0.10981 0.0
H57 H 0.71774 0.11126 0.14972 0.0
O58 O 0.80162 0.54093 0.94445 0.0
Tb59 Tb 0.78788 0.53565 1.00265 0.0
Eu60 Eu 0.82641 0.57108 0.08905 0.0
C61 C 0.79122 0.5548 0.92141 0.0
O62 O 0.77362 0.56624 0.93454 0.0
C63 C 0.78499 0.59073 0.03959 0.0
O64 O 0.82905 0.57402 0.15163 0.0
C65 C 0.883 0.61115 0.06242 0.0
C66 C 0.81785 0.59039 0.16874 0.0
O67 O 0.80648 0.60506 0.14861 0.0
C68 C 0.81533 0.50445 0.05569 0.0
C69 C 0.91683 0.6256 0.07446 0.0
C70 C 0.94178 0.63708 0.04801 0.0
C71 C 0.97395 0.65382 0.05959 0.0
C72 C 0.9809 0.6584 0.09761 0.0
C73 C 0.95655 0.64662 0.12435 0.0
C74 C 0.92451 0.63017 0.11256 0.0
O75 O 0.79759 0.58418 0.0111 0.0
O76 O 0.7864 0.58007 0.07264 0.0
O77 O 0.74209 0.50367 0.97663 0.0
O78 O 0.74397 0.50643 0.03546 0.0
C79 C 0.72537 0.49304 0.0069 0.0
O80 O 0.81244 0.51891 0.08532 0.0
O81 O 0.81674 0.51561 0.02192 0.0
O82 O 0.86542 0.61974 0.08153 0.0
O83 O 0.86755 0.58058 0.05412 0.0
H84 H 0.93622 0.63388 0.01861 0.0
H85 H 1.00565 0.67171 0.10635 0.0
H86 H 0.90548 0.62125 0.13301 0.0
O87 O 0.26237 0.49735 0.55983 0.0
Tb88 Tb 0.26304 0.49669 0.49956 0.0
Eu89 Eu 0.27064 0.4595 0.41847 0.0
C90 C 0.25739 0.47252 0.57985 0.0
O91 O 0.25352 0.44668 0.56312 0.0
C92 C 0.20654 0.4385 0.46381 0.0
O93 O 0.27368 0.45273 0.35696 0.0
C94 C 0.28513 0.41929 0.44884 0.0
C95 C 0.28011 0.47517 0.33227 0.0
O96 O 0.28506 0.50317 0.34338 0.0
C97 C 0.32536 0.52186 0.4568 0.0
C98 C 0.30214 0.40288 0.43536 0.0
C99 C 0.31363 0.38861 0.46052 0.0
C100 C 0.32839 0.37163 0.44733 0.0
C101 C 0.33091 0.36889 0.40875 0.0
C102 C 0.32025 0.38339 0.3834 0.0
C103 C 0.30588 0.40043 0.3969 0.0
O104 O 0.22366 0.44826 0.49421 0.0
O105 O 0.22014 0.44898 0.43112 0.0
O106 O 0.2576 0.53836 0.50901 0.0
O107 O 0.25013 0.51902 0.45462 0.0
C108 C 0.2503 0.54137 0.4751 0.0
O109 O 0.30968 0.51158 0.42523 0.0
O110 O 0.31157 0.50847 0.48837 0.0
O111 O 0.25781 0.41073 0.43262 0.0
O112 O 0.30229 0.45029 0.45335 0.0
H113 H 0.31097 0.39069 0.49012 0.0
H114 H 0.34013 0.35414 0.3981 0.0
H115 H 0.29726 0.4115 0.3775 0.0
O116 O 0.56431 0.80286 0.55606 0.0
Tb117 Tb 0.56167 0.79172 0.49732 0.0
Eu118 Eu 0.584 0.82123 0.40825 0.0
C119 C 0.5791 0.79374 0.57935 0.0
O120 O 0.59292 0.77823 0.56655 0.0
C121 C 0.61151 0.78457 0.4546 0.0
O122 O 0.57789 0.80936 0.34739 0.0
C123 C 0.62994 0.87993 0.4181 0.0
C124 C 0.57178 0.82506 0.32201 0.0
O125 O 0.5661 0.84787 0.33195 0.0
C126 C 0.52928 0.82246 0.45446 0.0
C127 C 0.63815 0.91383 0.41445 0.0
C128 C 0.6546 0.93556 0.44348 0.0
C129 C 0.66662 0.96855 0.43854 0.0
C130 C 0.66134 0.97946 0.40473 0.0
C131 C 0.64556 0.95848 0.37534 0.0
C132 C 0.6335 0.92557 0.3805 0.0
O133 O 0.60821 0.79867 0.48394 0.0
O134 O 0.59761 0.78429 0.42327 0.0
O135 O 0.53269 0.74277 0.51701 0.0
O136 O 0.52555 0.75359 0.46187 0.0
C137 C 0.51652 0.731 0.48663 0.0
O138 O 0.53516 0.81416 0.42181 0.0
O139 O 0.54791 0.82661 0.48292 0.0
O140 O 0.62521 0.86386 0.3871 0.0
O141 O 0.61073 0.86253 0.44515 0.0
H142 H 0.6592 0.92698 0.46923 0.0
H143 H 0.66987 1.00474 0.40113 0.0
H144 H 0.62187 0.90937 0.35751 0.0
O145 O 0.24317 0.79374 0.54032 0.0
Tb146 Tb 0.2567 0.78631 0.48487 0.0
Eu147 Eu 0.1874 0.76987 0.41894 0.0
C148 C 0.25673 0.82256 0.55497 0.0
O149 O 0.277 0.847 0.5348 0.0
C150 C 0.24324 0.83668 0.45071 0.0
O151 O 0.20029 0.78431 0.3589 0.0
C152 C 0.12594 0.74403 0.42795 0.0
C153 C 0.18743 0.76362 0.33152 0.0
O154 O 0.1671 0.73355 0.33933 0.0
C155 C 0.2125 0.72246 0.44579 0.0
C156 C 0.09291 0.71819 0.41945 0.0
C157 C 0.07129 0.7034 0.44914 0.0
C158 C 0.03864 0.68248 0.44226 0.0
C159 C 0.02779 0.67658 0.40555 0.0
C160 C 0.04839 0.69223 0.37577 0.0
C161 C 0.08117 0.71233 0.3826 0.0
O162 O 0.26243 0.82496 0.4491 0.0
O163 O 0.2121 0.81768 0.44891 0.0
O164 O 0.30173 0.80123 0.5133 0.0
O165 O 0.29377 0.77789 0.46124 0.0
C166 C 0.31412 0.7914 0.48819 0.0
O167 O 0.20388 0.73328 0.41699 0.0
O168 O 0.21871 0.73714 0.47801 0.0
O169 O 0.14218 0.76428 0.40128 0.0
O170 O 0.14387 0.73842 0.45068 0.0
H171 H 0.07959 0.70922 0.47757 0.0
H172 H 1.00243 0.66155 0.40019 0.0
H173 H 0.09694 0.72502 0.35957 0.0
O174 O 0.54258 0.79777 0.03647 0.0
Tb175 Tb 0.53022 0.78492 0.97866 0.0
Eu176 Eu 0.59804 0.77168 0.92538 0.0
C177 C 0.56435 0.79284 0.05171 0.0
O178 O 0.57863 0.78132 0.03104 0.0
C179 C 0.59989 0.83623 0.95921 0.0
O180 O 0.60124 0.78444 0.86484 0.0
C181 C 0.63493 0.74798 0.93947 0.0
C182 C 0.58382 0.79619 0.85213 0.0
O183 O 0.56598 0.80126 0.87552 0.0
C184 C 0.52546 0.72704 0.94254 0.0
C185 C 0.64354 0.72428 0.92574 0.0
C186 C 0.6563 0.71092 0.95052 0.0
C187 C 0.66796 0.69116 0.93731 0.0
C188 C 0.66561 0.68424 0.89913 0.0
C189 C 0.65417 0.69817 0.87392 0.0
C190 C 0.64272 0.71785 0.88747 0.0
O191 O 0.56957 0.82643 0.95251 0.0
O192 O 0.61169 0.81667 0.9598 0.0
O193 O 0.48407 0.7799 0.99412 0.0
O194 O 0.49432 0.77833 0.9371 0.0
C195 C 0.47313 0.77702 0.96049 0.0
O196 O 0.54663 0.73314 0.91645 0.0
O197 O 0.53527 0.74351 0.9732 0.0
O198 O 0.64314 0.77297 0.91809 0.0
O199 O 0.60683 0.73729 0.95532 0.0
H200 H 0.65843 0.71712 0.97973 0.0
H201 H 0.67427 0.66901 0.88855 0.0
H202 H 0.63409 0.72896 0.86812 0.0
O203 O 0.2167 0.76549 0.04516 0.0
Tb204 Tb 0.23489 0.762 0.99102 0.0
Eu205 Eu 0.24478 0.83792 0.91327 0.0
C206 C 0.23009 0.79308 0.06266 0.0
O207 O 0.25233 0.81849 0.04541 0.0
C208 C 0.18791 0.77417 0.94879 0.0
O209 O 0.24288 0.84325 0.85104 0.0
C210 C 0.26959 0.89539 0.94071 0.0
C211 C 0.23766 0.82026 0.82753 0.0
O212 O 0.23212 0.79255 0.84049 0.0
C213 C 0.28845 0.80857 0.94103 0.0
C214 C 0.2911 0.92821 0.9271 0.0
C215 C 0.30267 0.95423 0.95174 0.0
C216 C 0.32066 0.98574 0.93834 0.0
C217 C 0.32639 0.99092 0.90003 0.0
C218 C 0.31461 0.9653 0.87489 0.0
C219 C 0.29748 0.93388 0.88886 0.0
O220 O 0.20834 0.76429 0.94409 0.0
O221 O 0.19615 0.80338 0.93841 0.0
O222 O 0.26289 0.7387 1.0011 0.0
O223 O 0.21767 0.71271 0.97428 0.0
C224 C 0.2423 0.71141 0.98637 0.0
O225 O 0.27933 0.81884 0.9121 0.0
O226 O 0.27577 0.80686 0.97384 0.0
O227 O 0.24165 0.88034 0.92436 0.0
O228 O 0.28204 0.87702 0.946 0.0
H229 H 0.29732 0.94998 0.98115 0.0
H230 H 0.33851 0.01523 0.88963 0.0
H231 H 0.28816 0.91375 0.86995 0.0
O232 O 0.27949 0.49097 0.04569 0.0
Tb233 Tb 0.26948 0.4972 0.98843 0.0
Eu234 Eu 0.19211 0.43363 0.92983 0.0
C235 C 0.27102 0.46275 0.05982 0.0
O236 O 0.25741 0.4374 0.03838 0.0
C237 C 0.25775 0.43358 0.95183 0.0
O238 O 0.21013 0.45124 0.87203 0.0
C239 C 0.1339 0.38572 0.93037 0.0
C240 C 0.21492 0.43395 0.84746 0.0
O241 O 0.20955 0.4054 0.85676 0.0
C242 C 0.2071 0.49394 0.97334 0.0
C243 C 0.1005 0.37602 0.92065 0.0
C244 C 0.07639 0.35996 0.94748 0.0
C245 C 0.04407 0.34773 0.93842 0.0
C246 C 0.03618 0.35213 0.90229 0.0
C247 C 0.05968 0.36762 0.87504 0.0
C248 C 0.09196 0.37999 0.88441 0.0
O249 O 0.27794 0.4644 0.95616 0.0
O250 O 0.22657 0.42047 0.95762 0.0
O251 O 0.28703 0.53395 0.94495 0.0
O252 O 0.307 0.5464 0.99894 0.0
C253 C 0.30823 0.55699 0.96546 0.0
O254 O 0.19159 0.47893 0.94348 0.0
O255 O 0.21938 0.48 0.99259 0.0
O256 O 0.15408 0.39146 0.90296 0.0
O257 O 0.14675 0.40511 0.95884 0.0
H258 H 0.08275 0.3561 0.97508 0.0
H259 H 1.01142 0.34351 0.89517 0.0
H260 H 0.11016 0.39165 0.86324 0.0
O261 O 0.77989 0.54359 0.45862 0.0
Tb262 Tb 0.77118 0.51825 0.51124 0.0
Eu263 Eu 0.76034 0.5744 0.57686 0.0
C264 C 0.80429 0.54957 0.43703 0.0
O265 O 0.82512 0.54152 0.4481 0.0
C266 C 0.82508 0.58052 0.54445 0.0
O267 O 0.77167 0.57394 0.63744 0.0
C268 C 0.73808 0.61292 0.56744 0.0
C269 C 0.78576 0.55828 0.64877 0.0
O270 O 0.79336 0.54311 0.62421 0.0
C271 C 0.7092 0.50199 0.55279 0.0
C272 C 0.71486 0.62315 0.57782 0.0
C273 C 0.70011 0.63111 0.54927 0.0
C274 C 0.6828 0.64666 0.55747 0.0
C275 C 0.68043 0.65396 0.59462 0.0
C276 C 0.69516 0.64672 0.6233 0.0
C277 C 0.71185 0.63068 0.61506 0.0
O278 O 0.81179 0.54935 0.54547 0.0
O279 O 0.80776 0.59443 0.54673 0.0
O280 O 0.78029 0.48482 0.48009 0.0
O281 O 0.76198 0.47264 0.53493 0.0
C282 C 0.77165 0.46348 0.50617 0.0
O283 O 0.72167 0.52212 0.58077 0.0
O284 O 0.7229 0.5089 0.51996 0.0
O285 O 0.75991 0.61736 0.59208 0.0
O286 O 0.7289 0.58729 0.54673 0.0
H287 H 0.7033 0.62646 0.52058 0.0
H288 H 0.66869 0.6674 0.60139 0.0
H289 H 0.72417 0.6261 0.63719 0.0
O290 O 0.47067 0.23412 0.44983 0.0
Tb291 Tb 0.47015 0.23247 0.51017 0.0
Eu292 Eu 0.43006 0.19414 0.59238 0.0
C293 C 0.45972 0.20817 0.42943 0.0
O294 O 0.44857 0.18032 0.44585 0.0
C295 C 0.41426 0.23965 0.541 0.0
O296 O 0.43128 0.20384 0.65382 0.0
C297 C 0.38414 0.13609 0.57856 0.0
C298 C 0.43854 0.18933 0.67967 0.0
O299 O 0.44752 0.1688 0.67011 0.0
C300 C 0.48703 0.19016 0.55588 0.0
C301 C 0.37479 0.10176 0.58222 0.0
C302 C 0.36584 0.08203 0.55031 0.0
C303 C 0.35416 0.04896 0.55375 0.0
C304 C 0.35105 0.03576 0.58911 0.0
C305 C 0.35743 0.05428 0.62124 0.0
C306 C 0.37034 0.08747 0.61772 0.0
O307 O 0.42536 0.23228 0.5116 0.0
O308 O 0.41873 0.23242 0.5749 0.0
O309 O 0.5171 0.2746 0.50168 0.0
O310 O 0.49377 0.26898 0.55354 0.0
C311 C 0.51934 0.28739 0.53413 0.0
O312 O 0.47868 0.19842 0.58693 0.0
O313 O 0.47411 0.19101 0.52419 0.0
O314 O 0.38659 0.15165 0.60942 0.0
O315 O 0.40569 0.15384 0.55354 0.0
H316 H 0.36714 0.09216 0.52308 0.0
H317 H 0.34119 0.01015 0.59175 0.0
H318 H 0.37498 0.10171 0.64264 0.0
O319 O 0.77354 0.22724 0.49129 0.0
Tb320 Tb 0.75521 0.21615 0.54845 0.0
Eu321 Eu 0.84017 0.24333 0.57659 0.0
C322 C 0.7643 0.20496 0.46532 0.0
O323 O 0.74537 0.17493 0.47464 0.0
C324 C 0.782 0.17245 0.56452 0.0
O325 O 0.82464 0.24579 0.63606 0.0
C326 C 0.90136 0.26372 0.57146 0.0
C327 C 0.82979 0.23118 0.66401 0.0
O328 O 0.84365 0.21432 0.65723 0.0
C329 C 0.80758 0.285 0.55851 0.0
C330 C 0.93344 0.29127 0.58017 0.0
C331 C 0.9581 0.30179 0.55337 0.0
C332 C 0.98943 0.32594 0.56207 0.0
C333 C 0.99542 0.34028 0.59722 0.0
C334 C 0.97155 0.32997 0.6244 0.0
C335 C 0.94051 0.30535 0.61581 0.0
O336 O 0.76361 0.18242 0.57882 0.0
O337 O 0.81116 0.19304 0.55319 0.0
O338 O 0.70589 0.18541 0.52971 0.0
O339 O 0.71563 0.22167 0.56915 0.0
C340 C 0.69334 0.1987 0.54972 0.0
O341 O 0.83151 0.28065 0.5497 0.0
O342 O 0.78224 0.26229 0.57506 0.0
O343 O 0.88342 0.24674 0.59939 0.0
O344 O 0.88491 0.26742 0.54497 0.0
H345 H 0.95319 0.29029 0.52641 0.0
H346 H 0.01946 0.35892 0.60408 0.0
H347 H 0.9221 0.29693 0.63699 0.0
H348 H 0.38018 0.03852 0.9409 0.0
H349 H 0.28607 0.99693 0.99063 0.0
H350 H 0.30302 0.04726 0.02528 0.0
H351 H 0.42511 0.08395 0.02201 0.0
H352 H 0.45376 0.11712 0.99439 0.0
H353 H 0.43436 0.07728 0.97548 0.0
H354 H 0.41504 0.09669 0.91934 0.0
H355 H 0.43404 0.13647 0.93832 0.0
H356 H 0.39206 0.11606 0.92755 0.0
H357 H 0.32935 0.10467 0.04959 0.0
H358 H 0.36468 0.16152 0.06719 0.0
H359 H 0.44165 0.16363 1.0032 0.0
C360 C 0.36329 0.03987 0.95952 0.0
C361 C 0.33185 0.01386 0.96323 0.0
C362 C 0.31039 0.01647 0.9878 0.0
C363 C 0.31974 0.04503 0.0073 0.0
C364 C 0.3507 0.07057 1.00216 0.0
C365 C 0.37228 0.068 0.97928 0.0
C366 C 0.40401 0.09887 0.97807 0.0
C367 C 0.43089 0.094 0.99342 0.0
C368 C 0.41172 0.11283 0.93848 0.0
C369 C 0.39698 0.11932 0.00377 0.0
C370 C 0.36602 0.10283 0.01709 0.0
C371 C 0.35377 0.11761 0.03977 0.0
C372 C 0.37388 0.14988 0.04947 0.0
C373 C 0.40593 0.16669 0.037 0.0
C374 C 0.41742 0.15113 0.01377 0.0
H375 H 0.86473 0.22622 0.99422 0.0
H376 H 0.88395 0.27258 0.10189 0.0
H377 H 0.94138 0.30403 0.08607 0.0
H378 H 0.93958 0.22391 0.98648 0.0
H379 H 0.94266 0.23186 0.93727 0.0
H380 H 0.90396 0.21045 0.95907 0.0
H381 H 0.88998 0.25174 0.93299 0.0
H382 H 0.92862 0.27357 0.91148 0.0
H383 H 0.91562 0.29356 0.94329 0.0
H384 H 0.99594 0.33489 0.05516 0.0
H385 H 0.04216 0.36155 0.01236 0.0
H386 H 0.98667 0.29355 0.92611 0.0
C387 C 0.88101 0.24271 0.01469 0.0
C388 C 0.86981 0.24706 0.04921 0.0
C389 C 0.892 0.26871 0.07532 0.0
C390 C 0.92467 0.28671 0.06657 0.0
C391 C 0.93477 0.28247 0.03179 0.0
C392 C 0.91355 0.26073 0.00643 0.0
C393 C 0.92989 0.26191 0.97014 0.0
C394 C 0.92897 0.23014 0.96283 0.0
C395 C 0.91516 0.27073 0.93759 0.0
C396 C 0.96344 0.28845 0.97853 0.0
C397 C 0.96599 0.29987 0.0143 0.0
C398 C 0.99434 0.32578 0.0273 0.0
C399 C 0.02052 0.3407 1.00287 0.0
C400 C 0.01804 0.32976 0.96584 0.0
C401 C 0.98929 0.30275 0.95411 0.0
H402 H 0.78545 0.62406 0.97777 0.0
H403 H 0.74307 0.59537 0.08738 0.0
H404 H 0.71015 0.62034 0.07515 0.0
H405 H 0.78858 0.70104 0.97627 0.0
H406 H 0.77952 0.69824 0.92739 0.0
H407 H 0.80042 0.67923 0.94575 0.0
H408 H 0.75729 0.62509 0.91824 0.0
H409 H 0.73619 0.64387 0.89994 0.0
H410 H 0.71595 0.60974 0.93021 0.0
H411 H 0.67862 0.64553 0.04814 0.0
H412 H 0.65348 0.66958 0.01006 0.0
H413 H 0.72008 0.68485 0.92072 0.0
C414 C 0.76946 0.62322 0.99939 0.0
C415 C 0.76684 0.60765 0.03354 0.0
C416 C 0.74563 0.60724 0.06104 0.0
C417 C 0.72676 0.62133 0.05431 0.0
C418 C 0.72966 0.63615 0.02011 0.0
C419 C 0.7508 0.63745 0.99331 0.0
C420 C 0.74929 0.65435 0.95866 0.0
C421 C 0.78136 0.68504 0.95162 0.0
C422 C 0.73907 0.63192 0.92478 0.0
C423 C 0.7236 0.66189 0.9698 0.0
C424 C 0.71243 0.65122 0.00525 0.0
C425 C 0.68752 0.65429 0.02049 0.0
C426 C 0.67346 0.66817 0.99872 0.0
C427 C 0.68436 0.67891 0.96207 0.0
C428 C 0.71039 0.67631 0.94817 0.0
H429 H 0.17414 0.40242 0.52381 0.0
H430 H 0.15945 0.42714 0.41271 0.0
H431 H 0.10081 0.39572 0.42261 0.0
H432 H 0.10478 0.32076 0.52503 0.0
H433 H 0.09706 0.32359 0.57349 0.0
H434 H 0.1373 0.34541 0.55582 0.0
H435 H 0.14294 0.39814 0.58123 0.0
H436 H 0.10281 0.37656 0.59892 0.0
H437 H 0.1143 0.40964 0.56759 0.0
H438 H 0.04308 0.3658 0.44857 0.0
H439 H 0.99383 0.34093 0.48725 0.0
H440 H 0.04788 0.33425 0.57915 0.0
C441 C 0.15866 0.40091 0.50126 0.0
C442 C 0.17142 0.41731 0.46748 0.0
C443 C 0.15023 0.41464 0.43876 0.0
C444 C 0.11689 0.39684 0.44418 0.0
C445 C 0.10513 0.38144 0.47823 0.0
C446 C 0.12556 0.38308 0.50605 0.0
C447 C 0.10749 0.36588 0.54076 0.0
C448 C 0.11192 0.3372 0.54926 0.0
C449 C 0.11748 0.38893 0.57406 0.0
C450 C 0.07368 0.35506 0.52873 0.0
C451 C 0.07251 0.36396 0.49255 0.0
C452 C 0.04376 0.35832 0.47672 0.0
C453 C 0.01585 0.34404 0.49878 0.0
C454 C 0.01699 0.33577 0.53626 0.0
C455 C 0.04619 0.34047 0.55068 0.0
H456 H 0.6278 0.64967 0.55873 0.0
H457 H 0.71139 0.67507 0.49093 0.0
H458 H 0.69808 0.7085 0.45143 0.0
H459 H 0.57567 0.6555 0.4864 0.0
H460 H 0.56138 0.67385 0.51888 0.0
H461 H 0.57239 0.64547 0.53507 0.0
H462 H 0.61148 0.68743 0.5821 0.0
H463 H 0.60102 0.71606 0.56568 0.0
H464 H 0.64218 0.72585 0.56539 0.0
H465 H 0.67932 0.74515 0.42437 0.0
H466 H 0.65794 0.78174 0.41401 0.0
H467 H 0.59217 0.7375 0.50573 0.0
C468 C 0.64296 0.66161 0.53503 0.0
C469 C 0.6707 0.65965 0.52807 0.0
C470 C 0.6897 0.6756 0.49659 0.0
C471 C 0.68245 0.69492 0.47413 0.0
C472 C 0.65622 0.69814 0.4836 0.0
C473 C 0.63671 0.68174 0.51332 0.0
C474 C 0.61292 0.69257 0.52139 0.0
C475 C 0.57855 0.66521 0.51504 0.0
C476 C 0.61718 0.70629 0.56097 0.0
C477 C 0.62268 0.71839 0.49237 0.0
C478 C 0.64707 0.72073 0.47007 0.0
C479 C 0.66016 0.74337 0.44161 0.0
C480 C 0.64804 0.76409 0.43599 0.0
C481 C 0.62393 0.7626 0.45952 0.0
C482 C 0.61102 0.73936 0.48779 0.0
H483 H 0.30438 0.88027 0.47135 0.0
H484 H 0.21378 0.87248 0.44264 0.0
H485 H 0.23685 0.93032 0.45489 0.0
H486 H 0.31748 0.9289 0.54839 0.0
H487 H 0.36026 0.95154 0.54301 0.0
H488 H 0.33823 0.9113 0.5258 0.0
H489 H 0.36255 0.93124 0.46034 0.0
H490 H 0.38444 0.97173 0.47729 0.0
H491 H 0.35815 0.96214 0.43799 0.0
H492 H 0.26876 0.98832 0.47579 0.0
H493 H 0.30309 0.03782 0.51125 0.0
H494 H 0.37135 1.00637 0.52941 0.0
C495 C 0.28945 0.89074 0.46696 0.0
C496 C 0.25724 0.87175 0.45579 0.0
C497 C 0.23852 0.88648 0.45106 0.0
C498 C 0.25152 0.91939 0.45773 0.0
C499 C 0.28324 0.93729 0.46936 0.0
C500 C 0.30179 0.92328 0.47434 0.0
C501 C 0.33367 0.94642 0.49171 0.0
C502 C 0.33762 0.93379 0.52945 0.0
C503 C 0.36134 0.95329 0.46524 0.0
C504 C 0.33008 0.97559 0.49635 0.0
C505 C 0.30115 0.97018 0.48252 0.0
C506 C 0.29166 0.99295 0.48616 0.0
C507 C 0.31147 0.02121 0.50595 0.0
C508 C 0.34017 0.0262 0.5223 0.0
C509 C 0.35001 1.00356 0.5162 0.0
H510 H 0.58158 0.87802 0.98439 0.0
H511 H 0.66561 0.87153 0.95808 0.0
H512 H 0.7 0.92817 0.97651 0.0
H513 H 0.61193 0.96052 0.95507 0.0
H514 H 0.59304 0.9689 0.99319 0.0
H515 H 0.5753 0.92898 0.97464 0.0
H516 H 0.57586 0.90698 0.04015 0.0
H517 H 0.59329 0.94671 0.05891 0.0
H518 H 0.61289 0.92376 0.06549 0.0
H519 H 0.7252 0.9854 1.00119 0.0
H520 H 0.73841 0.03506 0.03537 0.0
H521 H 0.63758 1.00289 0.0458 0.0
C522 C 0.6072 0.88857 0.98184 0.0
C523 C 0.62087 0.87037 0.96935 0.0
C524 C 0.65457 0.885 0.96743 0.0
C525 C 0.67428 0.91722 0.97764 0.0
C526 C 0.65996 0.93447 0.98987 0.0
C527 C 0.62714 0.92046 0.99227 0.0
C528 C 0.61751 0.94305 0.00916 0.0
C529 C 0.59831 0.95082 0.98135 0.0
C530 C 0.5988 0.92931 0.04558 0.0
C531 C 0.65001 0.97194 0.01632 0.0
C532 C 0.67428 0.96682 0.00459 0.0
C533 C 0.70634 0.98973 0.01012 0.0
C534 C 0.71368 0.018 0.02925 0.0
C535 C 0.68904 0.02292 0.04295 0.0
C536 C 0.65691 0.9999 0.03532 0.0
H537 H 0.14649 0.78677 0.98804 0.0
H538 H 0.15451 0.70986 0.93705 0.0
H539 H 0.09859 0.67158 0.95428 0.0
H540 H 0.10073 0.73984 0.06654 0.0
H541 H 0.07709 0.759 0.06991 0.0
H542 H 0.11692 0.78054 0.05114 0.0
H543 H 0.09476 0.79203 0.99123 0.0
H544 H 0.05478 0.77012 0.00966 0.0
H545 H 0.06386 0.75917 0.96534 0.0
H546 H 0.0411 0.64148 0.97657 0.0
H547 H 0.98988 0.62082 0.01069 0.0
H548 H 0.02048 0.71628 0.05098 0.0
C549 C 0.13635 0.7619 0.98034 0.0
C550 C 0.15473 0.75134 0.96084 0.0
C551 C 0.14087 0.71849 0.95195 0.0
C552 C 0.10902 0.69659 0.96138 0.0
C553 C 0.0914 0.70774 0.98032 0.0
C554 C 0.10478 0.73951 0.9904 0.0
C555 C 0.08152 0.74479 0.01337 0.0
C556 C 0.09486 0.75674 0.05256 0.0
C557 C 0.07325 0.7679 0.99371 0.0
C558 C 0.05298 0.71113 0.01445 0.0
C559 C 0.05893 0.69017 0.99467 0.0
C560 C 0.03619 0.6577 0.99209 0.0
C561 C 1.00706 0.64619 0.01122 0.0
C562 C 1.00115 0.667 0.03302 0.0
C563 C 0.02426 0.69995 0.03405 0.0
H564 H 0.30118 0.31988 0.05768 0.0
H565 H 0.39324 0.36957 1.00296 0.0
H566 H 0.37142 0.39219 0.95756 0.0
H567 H 0.24927 0.30677 0.97278 0.0
H568 H 0.22244 0.31437 0.99991 0.0
H569 H 0.24272 0.29577 0.0212 0.0
H570 H 0.2653 0.33994 0.07164 0.0
H571 H 0.24553 0.35886 0.05046 0.0
H572 H 0.2881 0.38124 0.05764 0.0
H573 H 0.34354 0.41843 0.92828 0.0
H574 H 0.31222 0.44506 0.91669 0.0
H575 H 0.23795 0.37807 0.99047 0.0
C576 C 0.31635 0.33454 0.03518 0.0
C577 C 0.3488 0.34296 0.03352 0.0
C578 C 0.36821 0.36255 0.00425 0.0
C579 C 0.35597 0.37548 0.97847 0.0
C580 C 0.32423 0.36812 0.98217 0.0
C581 C 0.30455 0.34766 0.00955 0.0
C582 C 0.27302 0.34711 0.01137 0.0
C583 C 0.24522 0.31403 1.00066 0.0
C584 C 0.26771 0.35742 0.05004 0.0
C585 C 0.27854 0.37175 0.98205 0.0
C586 C 0.30798 0.38318 0.96503 0.0
C587 C 0.3201 0.409 0.94058 0.0
C588 C 0.30219 0.42402 0.93424 0.0
C589 C 0.27248 0.41325 0.95225 0.0
C590 C 0.26007 0.3861 0.9754 0.0
H591 H 0.86407 0.56232 0.51097 0.0
H592 H 0.86495 0.64298 0.56474 0.0
H593 H 0.92319 0.67575 0.55348 0.0
H594 H 0.94364 0.57834 0.53944 0.0
H595 H 0.95171 0.56688 0.49485 0.0
H596 H 0.91128 0.54862 0.51186 0.0
H597 H 0.89418 0.56573 0.452 0.0
H598 H 0.93437 0.58381 0.43465 0.0
H599 H 0.91498 0.60721 0.43849 0.0
H600 H 0.98074 0.7007 0.5322 0.0
H601 H 0.02999 0.71759 0.49559 0.0
H602 H 0.99059 0.62115 0.45361 0.0
C603 C 0.87661 0.5867 0.52102 0.0
C604 C 0.86009 0.60003 0.53913 0.0
C605 C 0.8772 0.63227 0.55096 0.0
C606 C 0.91031 0.65096 0.54493 0.0
C607 C 0.92587 0.63712 0.52672 0.0
C608 C 0.90942 0.6058 0.51453 0.0
C609 C 0.93068 0.59764 0.49173 0.0
C610 C 0.93455 0.57131 0.51062 0.0
C611 C 0.91779 0.58806 0.45187 0.0
C612 C 0.9616 0.62939 0.49247 0.0
C613 C 0.95861 0.65171 0.51344 0.0
C614 C 0.98347 0.6833 0.51614 0.0
C615 C 1.01152 0.69264 0.49558 0.0
C616 C 0.01424 0.67056 0.47224 0.0
C617 C 0.98936 0.63833 0.47183 0.0
H618 H 0.42626 0.28357 0.48679 0.0
H619 H 0.36682 0.23927 0.58357 0.0
H620 H 0.34028 0.27122 0.57359 0.0
H621 H 0.43743 0.36281 0.50357 0.0
H622 H 0.43731 0.37108 0.45477 0.0
H623 H 0.45139 0.34488 0.47005 0.0
H624 H 0.41073 0.30025 0.42663 0.0
H625 H 0.39664 0.32633 0.41111 0.0
H626 H 0.36894 0.28777 0.4304 0.0
H627 H 0.31736 0.30562 0.54884 0.0
H628 H 0.30186 0.33957 0.51334 0.0
H629 H 0.38129 0.36539 0.43802 0.0
C630 C 0.4076 0.28051 0.50587 0.0
C631 C 0.39826 0.25866 0.53568 0.0
C632 C 0.37421 0.25582 0.56045 0.0
C633 C 0.35906 0.27389 0.55501 0.0
C634 C 0.36884 0.29526 0.52521 0.0
C635 C 0.39289 0.29888 0.5014 0.0
C636 C 0.39939 0.32351 0.4717 0.0
C637 C 0.4334 0.35227 0.47525 0.0
C638 C 0.39356 0.30856 0.43267 0.0
C639 C 0.3746 0.33257 0.48171 0.0
C640 C 0.35708 0.31608 0.51255 0.0
C641 C 0.33132 0.31903 0.52502 0.0
C642 C 0.32281 0.33862 0.50483 0.0
C643 C 0.34013 0.35516 0.47262 0.0
C644 C 0.36708 0.3528 0.46208 0.0
H645 H 0.72274 0.02461 0.42912 0.0
H646 H 0.65262 0.96737 0.51277 0.0
H647 H 0.67944 0.01201 0.55764 0.0
H648 H 0.79214 0.06865 0.49256 0.0
H649 H 0.80687 0.10512 0.46632 0.0
H650 H 0.7853 0.06702 0.44318 0.0
H651 H 0.74539 0.08302 0.41711 0.0
H652 H 0.76669 0.12099 0.44025 0.0
H653 H 0.72464 0.09521 0.44882 0.0
H654 H 0.70825 0.06573 0.58926 0.0
H655 H 0.73857 0.12289 0.60657 0.0
H656 H 0.79081 0.14476 0.5027 0.0
C657 C 0.71345 0.02119 0.45717 0.0
C658 C 0.68558 0.99253 0.46755 0.0
C659 C 0.67412 0.98896 0.50443 0.0
C660 C 0.68915 0.01425 0.52998 0.0
C661 C 0.71581 0.0427 0.51829 0.0
C662 C 0.72811 0.04611 0.48285 0.0
C663 C 0.75528 0.07985 0.47601 0.0
C664 C 0.78677 0.08016 0.46912 0.0
C665 C 0.74752 0.09568 0.44365 0.0
C666 C 0.75584 0.09528 0.51281 0.0
C667 C 0.73297 0.07343 0.53689 0.0
C668 C 0.72675 0.08281 0.57104 0.0
C669 C 0.74402 0.1153 0.5806 0.0
C670 C 0.76745 0.13801 0.5563 0.0
C671 C 0.77381 0.12772 0.52232 0.0
H672 H 0.3962 0.35274 0.20092 0.0
H673 H 0.3049 0.32168 0.1476 0.0
H674 H 0.28513 0.3347 0.20409 0.0
H675 H 0.36251 0.3208 0.2926 0.0
H676 H 0.39475 0.35348 0.31723 0.0
H677 H 0.40191 0.3417 0.27239 0.0
H678 H 0.42436 0.39966 0.24861 0.0
H679 H 0.41681 0.41149 0.29322 0.0
H680 H 0.40005 0.41812 0.25182 0.0
H681 H 0.27552 0.35292 0.26505 0.0
H682 H 0.27435 0.36827 0.33026 0.0
H683 H 0.37104 0.38657 0.34533 0.0
C684 C 0.37195 0.3483 0.2014 0.0
C685 C 0.35235 0.33678 0.16955 0.0
C686 C 0.32066 0.33122 0.17133 0.0
C687 C 0.30913 0.33849 0.20332 0.0
C688 C 0.32935 0.3509 0.23371 0.0
C689 C 0.35985 0.35523 0.23342 0.0
C690 C 0.37621 0.36822 0.27043 0.0
C691 C 0.38431 0.34464 0.28927 0.0
C692 C 0.40613 0.40134 0.26572 0.0
C693 C 0.35012 0.37044 0.29131 0.0
C694 C 0.32343 0.36066 0.26945 0.0
C695 C 0.29623 0.36052 0.28257 0.0
C696 C 0.29589 0.36959 0.31953 0.0
C697 C 0.32252 0.37853 0.34294 0.0
C698 C 0.35019 0.37958 0.32821 0.0
H699 H 0.71776 0.07411 0.20085 0.0
H700 H 0.62462 0.02109 0.14915 0.0
H701 H 0.60235 0.99076 0.20726 0.0
H702 H 0.71593 0.01193 0.24662 0.0
H703 H 0.73538 0.03302 0.2886 0.0
H704 H 0.74303 0.05451 0.24556 0.0
H705 H 0.7254 0.09234 0.27456 0.0
H706 H 0.71895 0.07166 0.31818 0.0
H707 H 0.68724 0.07561 0.2975 0.0
H708 H 0.59243 0.96033 0.26733 0.0
H709 H 0.59433 0.93673 0.32774 0.0
H710 H 0.69371 0.0102 0.33993 0.0
C711 C 0.6924 0.05712 0.20229 0.0
C712 C 0.67291 0.04998 0.17054 0.0
C713 C 0.63998 0.02687 0.17319 0.0
C714 C 0.62712 0.00953 0.20606 0.0
C715 C 0.64737 0.01591 0.23627 0.0
C716 C 0.67915 0.03967 0.23498 0.0
C717 C 0.69632 0.04029 0.27035 0.0
C718 C 0.7243 0.03459 0.26227 0.0
C719 C 0.70763 0.07184 0.29142 0.0
C720 C 0.66962 0.01236 0.29096 0.0
C721 C 0.64148 0.99869 0.27105 0.0
C722 C 0.61416 0.97125 0.28355 0.0
C723 C 0.61551 0.9578 0.31764 0.0
C724 C 0.64399 0.97184 0.33874 0.0
C725 C 0.67133 0.99936 0.3249 0.0
H726 H 1.00428 0.64349 0.16231 0.0
H727 H 0.92859 0.66592 0.17665 0.0
H728 H 0.94567 0.68194 0.24147 0.0
H729 H 0.99956 0.61187 0.25457 0.0
H730 H 0.0421 0.62846 0.25862 0.0
H731 H 0.02346 0.61811 0.21358 0.0
H732 H 0.06192 0.6758 0.19089 0.0
H733 H 0.08024 0.68658 0.23611 0.0
H734 H 0.06365 0.70904 0.21566 0.0
H735 H 0.97186 0.69744 0.30328 0.0
H736 H 1.00215 0.70638 0.36128 0.0
H737 H 0.06138 0.67416 0.30786 0.0
C738 C 0.9913 0.65179 0.17908 0.0
C739 C 0.96506 0.65348 0.16433 0.0
C740 C 0.94845 0.66403 0.18739 0.0
C741 C 0.9582 0.6735 0.22413 0.0
C742 C 0.98458 0.67226 0.23741 0.0
C743 C 1.00072 0.66137 0.21581 0.0
C744 C 0.02804 0.66198 0.2372 0.0
C745 C 0.02297 0.62809 0.24124 0.0
C746 C 0.06036 0.6847 0.21885 0.0
C747 C 0.02473 0.67496 0.27427 0.0
C748 C 0.99961 0.68092 0.27352 0.0
C749 C 0.99146 0.69273 0.30427 0.0
C750 C 1.00882 0.69775 0.33702 0.0
C751 C 0.03393 0.69077 0.33901 0.0
C752 C 0.04245 0.67987 0.30696 0.0
H753 H 0.67176 0.61468 0.68979 0.0
H754 H 0.71886 0.70902 0.63991 0.0
H755 H 0.71123 0.73182 0.69767 0.0
H756 H 0.61275 0.62213 0.7388 0.0
H757 H 0.61339 0.60132 0.78003 0.0
H758 H 0.62433 0.59211 0.73581 0.0
H759 H 0.67903 0.60425 0.76231 0.0
H760 H 0.66796 0.61279 0.80685 0.0
H761 H 0.70434 0.64213 0.78457 0.0
H762 H 0.69487 0.74391 0.75824 0.0
H763 H 0.67825 0.74614 0.82246 0.0
H764 H 0.64181 0.64427 0.83431 0.0
C765 C 0.68119 0.64021 0.69156 0.0
C766 C 0.6959 0.66016 0.66054 0.0
C767 C 0.70753 0.69342 0.6635 0.0
C768 C 0.70315 0.70655 0.69606 0.0
C769 C 0.68735 0.68616 0.72564 0.0
C770 C 0.67714 0.65385 0.72415 0.0
C771 C 0.66071 0.63745 0.76012 0.0
C772 C 0.62572 0.61173 0.75326 0.0
C773 C 0.67911 0.62333 0.77961 0.0
C774 C 0.663 0.66552 0.78165 0.0
C775 C 0.67825 0.69331 0.76108 0.0
C776 C 0.68305 0.72235 0.77479 0.0
C777 C 0.67313 0.7233 0.81115 0.0
C778 C 0.65866 0.69541 0.83345 0.0
C779 C 0.65292 0.66603 0.81802 0.0
H780 H 0.38924 0.06859 0.68899 0.0
H781 H 0.29965 1.00229 0.63561 0.0
H782 H 0.28083 0.97102 0.69322 0.0
H783 H 0.39617 0.01011 0.74421 0.0
H784 H 0.41175 0.03525 0.78466 0.0
H785 H 0.41894 0.05295 0.73907 0.0
H786 H 0.39407 0.08709 0.75945 0.0
H787 H 0.38709 0.06973 0.80517 0.0
H788 H 0.35441 0.06762 0.77898 0.0
H789 H 0.27118 0.94655 0.75551 0.0
H790 H 0.26952 0.93265 0.82146 0.0
H791 H 0.36534 0.01358 0.83598 0.0
C792 C 0.36563 0.04763 0.68963 0.0
C793 C 0.34618 0.03755 0.65754 0.0
C794 C 0.31531 0.01004 0.65953 0.0
C795 C 0.3043 0.99213 0.69217 0.0
C796 C 0.32426 1.0021 0.72294 0.0
C797 C 0.35411 0.02933 0.72229 0.0
C798 C 0.37028 0.03476 0.75984 0.0
C799 C 0.40111 0.03317 0.75674 0.0
C800 C 0.37683 0.06669 0.77686 0.0
C801 C 0.34471 1.00643 0.78145 0.0
C802 C 0.31851 0.98786 0.75945 0.0
C803 C 0.29161 0.96078 0.77309 0.0
C804 C 0.29106 0.95285 0.81059 0.0
C805 C 0.31732 0.9718 0.83414 0.0
C806 C 0.34472 0.99865 0.81894 0.0
H807 H 0.95903 0.29652 0.6895 0.0
H808 H 1.0072 0.39274 0.64482 0.0
H809 H 0.03411 0.41355 0.70506 0.0
H810 H 0.9492 0.31926 0.78646 0.0
H811 H 0.9557 0.28871 0.80605 0.0
H812 H 0.93748 0.28299 0.76093 0.0
H813 H 0.98091 0.27236 0.73384 0.0
H814 H 0.99998 0.27943 0.77844 0.0
H815 H 0.0224 0.30246 0.73869 0.0
H816 H 0.06165 0.42269 0.76718 0.0
H817 H 0.08183 0.42022 0.82972 0.0
H818 H 0.01461 0.31837 0.83391 0.0
C819 C 0.97422 0.32209 0.69289 0.0
C820 C 0.98098 0.34303 0.66257 0.0
C821 C 1.00173 0.3763 0.66777 0.0
C822 C 0.01718 0.38832 0.70182 0.0
C823 C 1.01131 0.36683 0.7306 0.0
C824 C 0.98977 0.3345 0.72677 0.0
C825 C 0.98894 0.31628 0.76132 0.0
C826 C 0.95587 0.30092 0.77983 0.0
C827 C 0.99864 0.29116 0.75252 0.0
C828 C 0.01396 0.34322 0.7847 0.0
C829 C 0.02667 0.37222 0.76655 0.0
C830 C 0.05146 0.4002 0.78195 0.0
C831 C 0.06301 0.39857 0.81722 0.0
C832 C 0.04959 0.36921 0.83662 0.0
C833 C 0.02497 0.34124 0.81987 0.0
H834 H 0.58461 0.237 0.99243 0.0
H835 H 0.57982 0.27255 0.10154 0.0
H836 H 0.62381 0.26453 0.12291 0.0
H837 H 0.5985 0.17589 0.02247 0.0
H838 H 0.62605 0.18096 0.98578 0.0
H839 H 0.59582 0.19159 0.97805 0.0
H840 H 0.63921 0.24895 0.95923 0.0
H841 H 0.66955 0.23835 0.96638 0.0
H842 H 0.67193 0.27218 0.9904 0.0
H843 H 0.6653 0.2489 0.1336 0.0
H844 H 0.70494 0.23123 0.1317 0.0
H845 H 0.68337 0.20649 0.01513 0.0
C846 C 0.59323 0.24362 0.02062 0.0
C847 C 0.57895 0.25543 0.04539 0.0
C848 C 0.5906 0.26358 0.08213 0.0
C849 C 0.61546 0.25901 0.09453 0.0
C850 C 0.62849 0.2465 0.06971 0.0
C851 C 0.61812 0.23933 0.03337 0.0
C852 C 0.63578 0.22563 0.01257 0.0
C853 C 0.61265 0.19149 0.99893 0.0
C854 C 0.65528 0.2476 0.98024 0.0
C855 C 0.65732 0.22569 0.04306 0.0
C856 C 0.6527 0.2378 0.07578 0.0
C857 C 0.66933 0.23963 0.10805 0.0
C858 C 0.6917 0.22934 0.1067 0.0
C859 C 0.69736 0.21744 0.07325 0.0
C860 C 0.67967 0.21545 0.04114 0.0
H861 H 0.79995 0.33935 0.99002 0.0
H862 H 0.81099 0.3206 0.10521 0.0
H863 H 0.81884 0.3736 0.1228 0.0
H864 H 0.85862 0.42462 0.99063 0.0
H865 H 0.83525 0.43458 0.96042 0.0
H866 H 0.8322 0.39599 0.95694 0.0
H867 H 0.771 0.36847 0.96673 0.0
H868 H 0.77387 0.40694 0.97034 0.0
H869 H 0.75558 0.37815 0.00725 0.0
H870 H 0.82248 0.42771 0.128 0.0
H871 H 0.82277 0.47863 0.12033 0.0
H872 H 0.80992 0.46197 1.00144 0.0
C873 C 0.80443 0.34659 0.01888 0.0
C874 C 0.80505 0.326 0.04628 0.0
C875 C 0.81063 0.33613 0.08379 0.0
C876 C 0.81507 0.36616 0.09401 0.0
C877 C 0.81396 0.38579 0.06636 0.0
C878 C 0.80893 0.37645 0.02952 0.0
C879 C 0.80784 0.40151 0.0053 0.0
C880 C 0.83511 0.41497 0.97663 0.0
C881 C 0.77513 0.38795 0.9863 0.0
C882 C 0.8128 0.42634 0.03425 0.0
C883 C 0.81629 0.41687 0.06931 0.0
C884 C 0.82004 0.43545 0.10061 0.0
C885 C 0.82012 0.46435 0.09598 0.0
C886 C 0.81658 0.47453 0.06027 0.0
C887 C 0.81307 0.45519 0.02909 0.0
H888 H 0.68704 0.45688 0.06595 0.0
H889 H 0.68537 0.47598 0.94842 0.0
H890 H 0.62817 0.43588 0.94594 0.0
H891 H 0.63523 0.37238 0.05915 0.0
H892 H 0.61492 0.3682 0.10259 0.0
H893 H 0.65536 0.40029 0.09638 0.0
H894 H 0.63801 0.44135 0.11365 0.0
H895 H 0.59746 0.40934 0.11979 0.0
H896 H 0.60611 0.4416 0.08818 0.0
H897 H 0.57285 0.39193 0.95414 0.0
H898 H 0.52173 0.34515 0.97257 0.0
H899 H 0.55676 0.35286 0.08515 0.0
C900 C 0.67441 0.45286 0.03991 0.0
C901 C 0.69062 0.46971 0.00737 0.0
C902 C 0.67348 0.46343 0.97367 0.0
C903 C 0.64091 0.44074 0.97198 0.0
C904 C 0.62563 0.42431 0.00425 0.0
C905 C 0.64165 0.42989 0.03764 0.0
C906 C 0.61952 0.4073 0.06751 0.0
C907 C 0.63201 0.38577 0.08227 0.0
C908 C 0.61501 0.42602 0.09916 0.0
C909 C 0.58882 0.3881 0.0455 0.0
C910 C 0.59306 0.39857 0.00911 0.0
C911 C 0.56907 0.38373 0.98265 0.0
C912 C 0.54011 0.35714 0.99339 0.0
C913 C 0.53509 0.3456 0.03035 0.0
C914 C 0.55965 0.36164 0.05693 0.0
H915 H 0.2322 0.69551 0.49899 0.0
H916 H 0.19942 0.68321 0.3848 0.0
H917 H 0.20574 0.63565 0.37925 0.0
H918 H 0.29171 0.6733 0.48443 0.0
H919 H 0.28471 0.6532 0.52853 0.0
H920 H 0.27722 0.68589 0.52335 0.0
H921 H 0.21904 0.64969 0.54613 0.0
H922 H 0.22635 0.61691 0.5515 0.0
H923 H 0.19379 0.61228 0.52289 0.0
H924 H 0.21655 0.58913 0.38649 0.0
H925 H 0.22956 0.54786 0.40636 0.0
H926 H 0.2547 0.59113 0.51567 0.0
C927 C 0.22613 0.68279 0.4728 0.0
C928 C 0.21514 0.69315 0.44236 0.0
C929 C 0.20777 0.67578 0.40858 0.0
C930 C 0.21134 0.64873 0.40515 0.0
C931 C 0.22236 0.6393 0.43572 0.0
C932 C 0.22958 0.65586 0.4689 0.0
C933 C 0.24114 0.6411 0.49763 0.0
C934 C 0.27575 0.66478 0.50915 0.0
C935 C 0.21874 0.62929 0.53153 0.0
C936 C 0.23911 0.61345 0.47562 0.0
C937 C 0.22839 0.61281 0.43988 0.0
C938 C 0.22488 0.58944 0.41444 0.0
C939 C 0.23235 0.56611 0.42592 0.0
C940 C 0.24305 0.56625 0.46254 0.0
C941 C 0.24648 0.59033 0.48752 0.0
H942 H 0.46592 0.7035 0.43732 0.0
H943 H 0.5129 0.68173 0.52558 0.0
H944 H 0.47234 0.62466 0.52109 0.0
H945 H 0.3876 0.65062 0.46873 0.0
H946 H 0.37001 0.63852 0.42328 0.0
H947 H 0.40494 0.6772 0.42965 0.0
H948 H 0.43457 0.66398 0.37894 0.0
H949 H 0.3997 0.62515 0.3725 0.0
H950 H 0.43757 0.62846 0.38332 0.0
H951 H 0.42522 0.57161 0.51187 0.0
H952 H 0.37202 0.52501 0.50035 0.0
H953 H 0.35323 0.57907 0.41826 0.0
C954 C 0.46789 0.6865 0.45507 0.0
C955 C 0.4927 0.69685 0.48155 0.0
C956 C 0.49416 0.67421 0.50503 0.0
C957 C 0.47132 0.64172 0.50256 0.0
C958 C 0.44691 0.6322 0.47662 0.0
C959 C 0.4448 0.6538 0.45336 0.0
C960 C 0.41432 0.6373 0.43048 0.0
C961 C 0.39296 0.65177 0.43853 0.0
C962 C 0.42201 0.63882 0.38883 0.0
C963 C 0.39945 0.60329 0.44513 0.0
C964 C 0.41901 0.60101 0.47141 0.0
C965 C 0.40987 0.57291 0.49097 0.0
C966 C 0.37962 0.54657 0.48425 0.0
C967 C 0.3588 0.54833 0.45808 0.0
C968 C 0.36909 0.57686 0.43765 0.0
H969 H 0.47225 0.79355 0.41582 0.0
H970 H 0.52078 0.8559 0.50934 0.0
H971 H 0.47107 0.85449 0.52729 0.0
H972 H 0.41987 0.82648 0.39421 0.0
H973 H 0.38626 0.78793 0.38284 0.0
H974 H 0.42632 0.7956 0.37547 0.0
H975 H 0.41376 0.74643 0.41606 0.0
H976 H 0.37382 0.73888 0.42401 0.0
H977 H 0.39941 0.74404 0.46286 0.0
H978 H 0.41622 0.84358 0.53834 0.0
H979 H 0.3592 0.82734 0.53886 0.0
H980 H 0.34467 0.77231 0.43812 0.0
C981 C 0.47253 0.80751 0.43949 0.0
C982 C 0.50046 0.82498 0.46109 0.0
C983 C 0.49971 0.84236 0.49239 0.0
C984 C 0.47157 0.84169 0.50287 0.0
C985 C 0.44424 0.8235 0.48181 0.0
C986 C 0.44441 0.80697 0.45055 0.0
C987 C 0.41121 0.78848 0.43374 0.0
C988 C 0.41091 0.80034 0.39422 0.0
C989 C 0.39883 0.75232 0.43421 0.0
C990 C 0.39251 0.7972 0.46057 0.0
C991 C 0.41216 0.8173 0.48813 0.0
C992 C 0.4006 0.82809 0.51674 0.0
C993 C 0.36814 0.81859 0.51689 0.0
C994 C 0.34759 0.79866 0.48852 0.0
C995 C 0.3599 0.78763 0.46011 0.0
H996 H 0.32136 0.79726 0.99567 0.0
H997 H 0.31226 0.79935 0.87592 0.0
H998 H 0.35557 0.78695 0.86803 0.0
H999 H 0.4047 0.83529 0.99845 0.0
H1000 H 0.40664 0.81155 0.03584 0.0
H1001 H 0.3729 0.81745 0.03219 0.0
H1002 H 0.33463 0.75613 0.03159 0.0
H1003 H 0.36831 0.75002 0.03534 0.0
H1004 H 0.34041 0.73204 0.99767 0.0
H1005 H 0.40238 0.77781 0.87306 0.0
H1006 H 0.44982 0.7742 0.89074 0.0
H1007 H 0.42872 0.77813 0.00711 0.0
C1008 C 0.32802 0.7945 0.96777 0.0
C1009 C 0.31313 0.79906 0.9364 0.0
C1010 C 0.32313 0.79589 0.9004 0.0
C1011 C 0.34768 0.78872 0.89563 0.0
C1012 C 0.36203 0.78466 0.92711 0.0
C1013 C 0.3525 0.78734 0.9625 0.0
C1014 C 0.37301 0.78362 0.99168 0.0
C1015 C 0.39034 0.81378 0.01595 0.0
C1016 C 0.35288 0.75367 0.01548 0.0
C1017 C 0.39623 0.77951 0.96718 0.0
C1018 C 0.38918 0.77969 0.93001 0.0
C1019 C 0.40794 0.77738 0.90209 0.0
C1020 C 0.43485 0.77535 0.91237 0.0
C1021 C 0.44294 0.77589 0.95024 0.0
C1022 C 0.42302 0.77749 0.97793 0.0
H1023 H 0.2084 0.65807 0.94406 0.0
H1024 H 0.28157 0.69932 0.0289 0.0
H1025 H 0.28202 0.64848 0.03317 0.0
H1026 H 0.16437 0.58131 0.98168 0.0
H1027 H 0.15552 0.56042 0.93794 0.0
H1028 H 0.16249 0.60061 0.93969 0.0
H1029 H 0.2075 0.61848 0.89058 0.0
H1030 H 0.20045 0.57822 0.88837 0.0
H1031 H 0.23984 0.61089 0.89867 0.0
H1032 H 0.26925 0.59136 0.03373 0.0
H1033 H 0.24954 0.5339 0.02504 0.0
H1034 H 0.18802 0.53098 0.93578 0.0
C1035 C 0.22481 0.65647 0.96314 0.0
C1036 C 0.24493 0.68242 0.98624 0.0
C1037 C 0.26614 0.67966 0.01085 0.0
C1038 C 0.26645 0.65089 0.01354 0.0
C1039 C 0.24579 0.62545 0.99092 0.0
C1040 C 0.22582 0.62815 0.96566 0.0
C1041 C 0.20577 0.59715 0.94481 0.0
C1042 C 0.16992 0.58411 0.95145 0.0
C1043 C 0.21389 0.60145 0.90314 0.0
C1044 C 0.21686 0.57625 0.9631 0.0
C1045 C 0.23983 0.59301 0.98974 0.0
C1046 C 0.25192 0.57821 0.01228 0.0
C1047 C 0.24058 0.54555 0.00708 0.0
C1048 C 0.21801 0.52819 0.97894 0.0
C1049 C 0.20589 0.54379 0.95687 0.0
H1050 H 0.34837 0.60921 0.00627 0.0
H1051 H 0.32846 0.5726 0.89374 0.0
H1052 H 0.3802 0.61784 0.87303 0.0
H1053 H 0.39552 0.69815 0.97792 0.0
H1054 H 0.42212 0.70706 0.01672 0.0
H1055 H 0.38079 0.67622 0.02075 0.0
H1056 H 0.39851 0.63588 0.04035 0.0
H1057 H 0.4397 0.66627 0.03585 0.0
H1058 H 0.42456 0.62947 0.01018 0.0
H1059 H 0.43829 0.65962 0.8678 0.0
H1060 H 0.4958 0.69769 0.87725 0.0
H1061 H 0.47703 0.70835 0.99273 0.0
C1062 C 0.3544 0.61153 0.97701 0.0
C1063 C 0.33457 0.58759 0.95154 0.0
C1064 C 0.34325 0.59094 0.91357 0.0
C1065 C 0.37262 0.61654 0.90159 0.0
C1066 C 0.39252 0.63896 0.92779 0.0
C1067 C 0.38336 0.63723 0.96457 0.0
C1068 C 0.41016 0.66256 0.98784 0.0
C1069 C 0.40163 0.68747 1.00162 0.0
C1070 C 0.41873 0.64763 0.02044 0.0
C1071 C 0.43661 0.67694 0.95919 0.0
C1072 C 0.42587 0.66355 0.92453 0.0
C1073 C 0.44677 0.67089 0.89458 0.0
C1074 C 0.47944 0.69235 0.90026 0.0
C1075 C 0.49087 0.70607 0.93568 0.0
C1076 C 0.46898 0.69857 0.96521 0.0
H1077 H 0.75096 0.41429 0.55628 0.0
H1078 H 0.80604 0.45198 0.455 0.0
H1079 H 0.82146 0.41047 0.45739 0.0
H1080 H 0.80366 0.39535 0.6021 0.0
H1081 H 0.77297 0.35864 0.62248 0.0
H1082 H 0.76487 0.39028 0.61206 0.0
H1083 H 0.71642 0.35159 0.57171 0.0
H1084 H 0.7241 0.31969 0.58244 0.0
H1085 H 0.72195 0.32968 0.53471 0.0
H1086 H 0.83477 0.36796 0.47389 0.0
H1087 H 0.8395 0.32294 0.49902 0.0
H1088 H 0.77342 0.31096 0.58756 0.0
C1089 C 0.76587 0.41344 0.53435 0.0
C1090 C 0.77738 0.43628 0.50547 0.0
C1091 C 0.79688 0.43457 0.47727 0.0
C1092 C 0.80588 0.41119 0.47849 0.0
C1093 C 0.79478 0.38944 0.5078 0.0
C1094 C 0.7747 0.38993 0.53484 0.0
C1095 C 0.7661 0.36375 0.56328 0.0
C1096 C 0.77759 0.37786 0.60228 0.0
C1097 C 0.73 0.33975 0.563 0.0
C1098 C 0.78492 0.34885 0.54835 0.0
C1099 C 0.80153 0.36419 0.51652 0.0
C1100 C 0.82161 0.35552 0.49857 0.0
C1101 C 0.82435 0.33012 0.5132 0.0
C1102 C 0.8068 0.31348 0.54515 0.0
C1103 C 0.78696 0.32313 0.56293 0.0
H1104 H 0.57275 0.32678 0.49418 0.0
H1105 H 0.52607 0.3194 0.59961 0.0
H1106 H 0.56987 0.37348 0.6168 0.0
H1107 H 0.65427 0.36961 0.52882 0.0
H1108 H 0.66954 0.3937 0.48752 0.0
H1109 H 0.6352 0.35414 0.48465 0.0
H1110 H 0.60284 0.37742 0.454 0.0
H1111 H 0.637 0.41705 0.45694 0.0
H1112 H 0.59955 0.40861 0.47739 0.0
H1113 H 0.61897 0.42955 0.62135 0.0
H1114 H 0.6685 0.48174 0.61312 0.0
H1115 H 0.68185 0.45167 0.50416 0.0
C1116 C 0.57185 0.33643 0.52103 0.0
C1117 C 0.54607 0.31893 0.54565 0.0
C1118 C 0.54568 0.33241 0.58042 0.0
C1119 C 0.57043 0.3631 0.59036 0.0
C1120 C 0.5954 0.3799 0.56522 0.0
C1121 C 0.59628 0.3669 0.53132 0.0
C1122 C 0.62536 0.38988 0.50891 0.0
C1123 C 0.64739 0.376 0.50209 0.0
C1124 C 0.61559 0.39876 0.47214 0.0
C1125 C 0.64055 0.41809 0.53519 0.0
C1126 C 0.62312 0.41191 0.56765 0.0
C1127 C 0.63276 0.43457 0.59601 0.0
C1128 C 0.66092 0.46419 0.59107 0.0
C1129 C 0.67904 0.47102 0.55789 0.0
C1130 C 0.6685 0.44748 0.52973 0.0
H1131 H 0.66488 0.22622 0.5892 0.0
H1132 H 0.64555 0.15222 0.50824 0.0
H1133 H 0.58933 0.13931 0.5046 0.0
H1134 H 0.58787 0.18417 0.63733 0.0
H1135 H 0.58568 0.21994 0.64413 0.0
H1136 H 0.62399 0.2223 0.64187 0.0
H1137 H 0.64121 0.26363 0.58844 0.0
H1138 H 0.60303 0.26148 0.59064 0.0
H1139 H 0.61677 0.25376 0.5474 0.0
H1140 H 0.53676 0.13754 0.50575 0.0
H1141 H 0.49074 0.146 0.51292 0.0
H1142 H 0.54293 0.21926 0.59542 0.0
C1143 C 0.64867 0.20704 0.57107 0.0
C1144 C 0.65944 0.19009 0.54907 0.0
C1145 C 0.6377 0.16539 0.52539 0.0
C1146 C 0.60575 0.15789 0.52319 0.0
C1147 C 0.59588 0.17517 0.54503 0.0
C1148 C 0.61663 0.19914 0.56867 0.0
C1149 C 0.60018 0.21484 0.58809 0.0
C1150 C 0.59938 0.21001 0.63037 0.0
C1151 C 0.61625 0.25053 0.57803 0.0
C1152 C 0.56702 0.19612 0.57146 0.0
C1153 C 0.56514 0.17343 0.54657 0.0
C1154 C 0.53776 0.15482 0.52563 0.0
C1155 C 0.51177 0.15977 0.52986 0.0
C1156 C 0.51314 0.18278 0.55522 0.0
C1157 C 0.54096 0.20084 0.57666 0.0
H1158 H 0.4623 0.17452 0.74175 0.0
H1159 H 0.40722 0.21842 0.70729 0.0
H1160 H 0.40169 0.23 0.77254 0.0
H1161 H 0.41852 0.13979 0.82924 0.0
H1162 H 0.45396 0.14805 0.85447 0.0
H1163 H 0.45152 0.14046 0.80519 0.0
H1164 H 0.50367 0.19452 0.79491 0.0
H1165 H 0.50631 0.20222 0.84408 0.0
H1166 H 0.50627 0.2308 0.81199 0.0
H1167 H 0.40308 0.23842 0.84052 0.0
H1168 H 0.41479 0.24689 0.9074 0.0
H1169 H 0.471 0.19991 0.89921 0.0
C1170 C 0.44882 0.18627 0.74802 0.0
C1171 C 0.43515 0.19551 0.71932 0.0
C1172 C 0.418 0.21117 0.72867 0.0
C1173 C 0.41453 0.2177 0.76573 0.0
C1174 C 0.42842 0.20854 0.79329 0.0
C1175 C 0.44536 0.19331 0.78505 0.0
C1176 C 0.45947 0.18784 0.82006 0.0
C1177 C 0.44501 0.1519 0.82768 0.0
C1178 C 0.4961 0.20487 0.8176 0.0
C1179 C 0.44858 0.20327 0.84893 0.0
C1180 C 0.43012 0.21439 0.83286 0.0
C1181 C 0.41745 0.22977 0.8535 0.0
C1182 C 0.42423 0.23443 0.89153 0.0
C1183 C 0.44394 0.22422 0.90856 0.0
C1184 C 0.45595 0.20809 0.88696 0.0
H1185 H 0.85277 0.22007 0.72853 0.0
H1186 H 0.78563 0.24744 0.68794 0.0
H1187 H 0.7689 0.2489 0.75278 0.0
H1188 H 0.80484 0.16979 0.80365 0.0
H1189 H 0.83821 0.18235 0.8347 0.0
H1190 H 0.84415 0.18285 0.78523 0.0
H1191 H 0.88721 0.24229 0.78891 0.0
H1192 H 0.88143 0.24273 0.83826 0.0
H1193 H 0.87768 0.27075 0.80873 0.0
H1194 H 0.75809 0.24502 0.82336 0.0
H1195 H 0.75828 0.24171 0.89212 0.0
H1196 H 0.83493 0.22014 0.88585 0.0
C1197 C 0.83448 0.22633 0.73318 0.0
C1198 C 0.82033 0.23342 0.70296 0.0
C1199 C 0.79682 0.24192 0.71051 0.0
C1200 C 0.78708 0.24267 0.7473 0.0
C1201 C 0.80136 0.23527 0.77642 0.0
C1202 C 0.82488 0.22767 0.76968 0.0
C1203 C 0.83727 0.22166 0.80571 0.0
C1204 C 0.83072 0.18711 0.80741 0.0
C1205 C 0.87302 0.24583 0.81071 0.0
C1206 C 0.81715 0.22708 0.83389 0.0
C1207 C 0.79621 0.23445 0.81655 0.0
C1208 C 0.7746 0.23949 0.8371 0.0
C1209 C 0.77475 0.2374 0.87619 0.0
C1210 C 0.79668 0.2308 0.89453 0.0
C1211 C 0.81799 0.22546 0.87281 0.0
H1212 H 0.77022 0.57903 0.86649 0.0
H1213 H 0.8245 0.53105 0.88462 0.0
H1214 H 0.8309 0.52873 0.81677 0.0
H1215 H 0.72752 0.53416 0.78794 0.0
H1216 H 0.72836 0.56733 0.76412 0.0
H1217 H 0.72978 0.56704 0.81407 0.0
H1218 H 0.78219 0.62177 0.81329 0.0
H1219 H 0.78088 0.62228 0.76328 0.0
H1220 H 0.81574 0.62644 0.78643 0.0
H1221 H 0.82877 0.52893 0.74694 0.0
H1222 H 0.81925 0.53258 0.68024 0.0
H1223 H 0.76661 0.58073 0.70778 0.0
C1224 C 0.78378 0.56834 0.85627 0.0
C1225 C 0.79692 0.55525 0.88092 0.0
C1226 C 0.81429 0.54131 0.86632 0.0
C1227 C 0.81805 0.53987 0.82781 0.0
C1228 C 0.80441 0.55261 0.8043 0.0
C1229 C 0.78775 0.56672 0.81797 0.0
C1230 C 0.77458 0.57772 0.78675 0.0
C1231 C 0.73789 0.56052 0.78833 0.0
C1232 C 0.78924 0.61422 0.78749 0.0
C1233 C 0.78607 0.5672 0.75336 0.0
C1234 C 0.80331 0.55285 0.76408 0.0
C1235 C 0.81552 0.54033 0.73821 0.0
C1236 C 0.80992 0.54246 0.70037 0.0
C1237 C 0.79227 0.55701 0.68874 0.0
C1238 C 0.7804 0.56967 0.71572 0.0
H1239 H 0.24149 0.42366 0.62973 0.0
H1240 H 0.26725 0.52341 0.62259 0.0
H1241 H 0.26113 0.52475 0.69047 0.0
H1242 H 0.18151 0.40154 0.69907 0.0
H1243 H 0.1908 0.37442 0.7228 0.0
H1244 H 0.19867 0.38158 0.6738 0.0
H1245 H 0.25791 0.3983 0.68477 0.0
H1246 H 0.25023 0.39115 0.73384 0.0
H1247 H 0.28123 0.42959 0.71761 0.0
H1248 H 0.25016 0.51489 0.7585 0.0
H1249 H 0.23531 0.4945 0.82249 0.0
H1250 H 0.21697 0.40122 0.78591 0.0
C1251 C 0.24614 0.44588 0.64246 0.0
C1252 C 0.25494 0.47347 0.62079 0.0
C1253 C 0.26052 0.50197 0.63855 0.0
C1254 C 0.25715 0.503 0.67713 0.0
C1255 C 0.24822 0.47536 0.69761 0.0
C1256 C 0.24285 0.44734 0.68098 0.0
C1257 C 0.23259 0.42077 0.70933 0.0
C1258 C 0.19889 0.39294 0.70073 0.0
C1259 C 0.25695 0.40929 0.71151 0.0
C1260 C 0.23284 0.43821 0.74443 0.0
C1261 C 0.24198 0.46968 0.73701 0.0
C1262 C 0.24315 0.49034 0.76472 0.0
C1263 C 0.23462 0.4785 0.80098 0.0
C1264 C 0.22507 0.44629 0.80928 0.0
C1265 C 0.22443 0.42602 0.78055 0.0
H1266 H 0.60514 0.77575 0.63559 0.0
H1267 H 0.5523 0.82481 0.61447 0.0
H1268 H 0.55001 0.83287 0.68184 0.0
H1269 H 0.5623 0.7343 0.71645 0.0
H1270 H 0.59668 0.73801 0.74037 0.0
H1271 H 0.59561 0.73748 0.69038 0.0
H1272 H 0.64876 0.79157 0.68861 0.0
H1273 H 0.64994 0.79221 0.73865 0.0
H1274 H 0.65183 0.82534 0.71353 0.0
H1275 H 0.55107 0.83334 0.75138 0.0
H1276 H 0.55581 0.82655 0.81857 0.0
H1277 H 0.60853 0.77778 0.79468 0.0
C1278 C 0.59334 0.78845 0.64508 0.0
C1279 C 0.57895 0.7997 0.61969 0.0
C1280 C 0.56355 0.81601 0.63332 0.0
C1281 C 0.56215 0.82075 0.67156 0.0
C1282 C 0.57635 0.80915 0.69581 0.0
C1283 C 0.59174 0.79343 0.68316 0.0
C1284 C 0.60425 0.78253 0.71521 0.0
C1285 C 0.58877 0.74591 0.71561 0.0
C1286 C 0.64087 0.7989 0.71391 0.0
C1287 C 0.59314 0.79428 0.74785 0.0
C1288 C 0.57717 0.80964 0.73602 0.0
C1289 C 0.56374 0.82159 0.761 0.0
C1290 C 0.56653 0.81757 0.79911 0.0
C1291 C 0.58266 0.80178 0.8119 0.0
C1292 C 0.59635 0.79026 0.78581 0.0
H1293 H 0.22489 0.77728 0.77066 0.0
H1294 H 0.25501 0.8768 0.79209 0.0
H1295 H 0.26038 0.88747 0.72466 0.0
H1296 H 0.27781 0.79105 0.69532 0.0
H1297 H 0.24973 0.75659 0.66907 0.0
H1298 H 0.24687 0.75644 0.71895 0.0
H1299 H 0.18818 0.74343 0.71392 0.0
H1300 H 0.19088 0.74358 0.66397 0.0
H1301 H 0.17897 0.76911 0.68687 0.0
H1302 H 0.26561 0.88809 0.65501 0.0
H1303 H 0.26934 0.87839 0.5883 0.0
H1304 H 0.23421 0.77815 0.61154 0.0
C1305 C 0.23235 0.80127 0.7612 0.0
C1306 C 0.23946 0.82618 0.78681 0.0
C1307 C 0.24928 0.85726 0.77314 0.0
C1308 C 0.25241 0.86357 0.73482 0.0
C1309 C 0.24539 0.83853 0.71037 0.0
C1310 C 0.23541 0.80795 0.72298 0.0
C1311 C 0.2301 0.78548 0.69085 0.0
C1312 C 0.25246 0.77158 0.69373 0.0
C1313 C 0.19494 0.75882 0.68879 0.0
C1314 C 0.23903 0.80826 0.65823 0.0
C1315 C 0.24779 0.83876 0.67014 0.0
C1316 C 0.25847 0.86424 0.64535 0.0
C1317 C 0.26053 0.85849 0.60749 0.0
C1318 C 0.25178 0.82747 0.59461 0.0
C1319 C 0.24053 0.802 0.6204 0.0
H1320 H 0.54514 0.82303 0.10188 0.0
H1321 H 0.59806 0.77267 0.09276 0.0
H1322 H 0.60624 0.77663 0.16043 0.0
H1323 H 0.59499 0.87783 0.17571 0.0
H1324 H 0.5617 0.87738 0.19878 0.0
H1325 H 0.56081 0.8717 0.14921 0.0
H1326 H 0.50737 0.81829 0.15573 0.0
H1327 H 0.5082 0.82369 0.20531 0.0
H1328 H 0.50512 0.78775 0.18637 0.0
H1329 H 0.60555 0.78223 0.22854 0.0
H1330 H 0.59986 0.79302 0.29397 0.0
H1331 H 0.54948 0.8421 0.26044 0.0
C1332 C 0.55866 0.81308 0.11413 0.0
C1333 C 0.57087 0.79742 0.09202 0.0
C1334 C 0.58852 0.78481 0.10905 0.0
C1335 C 0.59326 0.78688 0.14751 0.0
C1336 C 0.58055 0.80199 0.16855 0.0
C1337 C 0.56398 0.81528 0.15258 0.0
C1338 C 0.55284 0.83012 0.1819 0.0
C1339 C 0.56852 0.86641 0.17605 0.0
C1340 C 0.51621 0.81399 0.18234 0.0
C1341 C 0.56518 0.82244 0.21683 0.0
C1342 C 0.581 0.80613 0.2083 0.0
C1343 C 0.5935 0.79527 0.23562 0.0
C1344 C 0.58997 0.80139 0.27276 0.0
C1345 C 0.57425 0.81845 0.28238 0.0
C1346 C 0.56179 0.8292 0.25394 0.0
H1347 H 0.19267 0.74379 0.11085 0.0
H1348 H 0.25288 0.84698 0.10508 0.0
H1349 H 0.24664 0.85062 0.17255 0.0
H1350 H 0.13798 0.74249 0.18384 0.0
H1351 H 0.13474 0.70739 0.2055 0.0
H1352 H 0.14169 0.71341 0.15621 0.0
H1353 H 0.19191 0.70771 0.16367 0.0
H1354 H 0.18523 0.70239 0.21302 0.0
H1355 H 0.22293 0.73369 0.19542 0.0
H1356 H 0.23745 0.84306 0.24114 0.0
H1357 H 0.22388 0.82489 0.30607 0.0
H1358 H 0.16915 0.7266 0.26809 0.0
C1359 C 0.20406 0.7672 0.12365 0.0
C1360 C 0.22324 0.79512 0.10252 0.0
C1361 C 0.23804 0.82524 0.12053 0.0
C1362 C 0.23464 0.82758 0.15892 0.0
C1363 C 0.21621 0.7996 0.17905 0.0
C1364 C 0.2009 0.76999 0.16207 0.0
C1365 C 0.18355 0.74358 0.1905 0.0
C1366 C 0.14734 0.72568 0.18359 0.0
C1367 C 0.1967 0.72049 0.19065 0.0
C1368 C 0.19198 0.76297 0.22609 0.0
C1369 C 0.21077 0.79524 0.21879 0.0
C1370 C 0.22249 0.81787 0.24719 0.0
C1371 C 0.21473 0.80728 0.28404 0.0
C1372 C 0.19539 0.77433 0.29231 0.0
C1373 C 0.18384 0.75197 0.26277 0.0
H1374 H 0.28525 0.50759 0.11422 0.0
H1375 H 0.26432 0.41017 0.09676 0.0
H1376 H 0.26755 0.40379 0.16448 0.0
H1377 H 0.34039 0.52667 0.192 0.0
H1378 H 0.32583 0.54964 0.21582 0.0
H1379 H 0.32448 0.54728 0.16583 0.0
H1380 H 0.26367 0.52652 0.16755 0.0
H1381 H 0.2648 0.52871 0.21749 0.0
H1382 H 0.23796 0.49156 0.19472 0.0
H1383 H 0.27068 0.40735 0.23442 0.0
H1384 H 0.27199 0.41993 0.30104 0.0
H1385 H 0.28951 0.51467 0.27278 0.0
C1386 C 0.28182 0.48505 0.12453 0.0
C1387 C 0.27477 0.45943 0.10014 0.0
C1388 C 0.26989 0.43016 0.11489 0.0
C1389 C 0.27172 0.42634 0.15331 0.0
C1390 C 0.27831 0.45196 0.17662 0.0
C1391 C 0.28326 0.48074 0.16278 0.0
C1392 C 0.28819 0.50394 0.19384 0.0
C1393 C 0.32172 0.53364 0.19174 0.0
C1394 C 0.26209 0.51321 0.19336 0.0
C1395 C 0.28487 0.4836 0.22738 0.0
C1396 C 0.27947 0.4538 0.21685 0.0
C1397 C 0.27497 0.43064 0.24295 0.0
C1398 C 0.27571 0.43803 0.28078 0.0
C1399 C 0.28076 0.46829 0.29222 0.0
C1400 C 0.28566 0.49137 0.26501 0.0
H1401 H 0.83806 0.54638 0.37738 0.0
H1402 H 0.77462 0.581 0.41083 0.0
H1403 H 0.77475 0.59886 0.34654 0.0
H1404 H 0.88421 0.60886 0.30748 0.0
H1405 H 0.88665 0.58109 0.27616 0.0
H1406 H 0.88457 0.57431 0.32559 0.0
H1407 H 0.83507 0.51805 0.31625 0.0
H1408 H 0.83692 0.52471 0.2669 0.0
H1409 H 0.80074 0.5142 0.29208 0.0
H1410 H 0.77934 0.61034 0.27844 0.0
H1411 H 0.78602 0.61263 0.21045 0.0
H1412 H 0.84463 0.5684 0.22006 0.0
C1413 C 0.82472 0.55831 0.37133 0.0
C1414 C 0.80651 0.56255 0.3992 0.0
C1415 C 0.7888 0.5776 0.38998 0.0
C1416 C 0.78882 0.58792 0.35356 0.0
C1417 C 0.80655 0.58288 0.32662 0.0
C1418 C 0.82415 0.5684 0.33498 0.0
C1419 C 0.83918 0.5637 0.30026 0.0
C1420 C 0.87583 0.58315 0.30252 0.0
C1421 C 0.82725 0.52805 0.29348 0.0
C1422 C 0.8267 0.57718 0.27099 0.0
C1423 C 0.80837 0.58858 0.28694 0.0
C1424 C 0.79377 0.60164 0.26565 0.0
C1425 C 0.79773 0.60282 0.22699 0.0
C1426 C 0.8158 0.59065 0.20984 0.0
C1427 C 0.83067 0.57789 0.2323 0.0
H1428 H 0.47596 0.26149 0.38736 0.0
H1429 H 0.44227 0.15995 0.37853 0.0
H1430 H 0.44054 0.16367 0.31018 0.0
H1431 H 0.42721 0.26454 0.31522 0.0
H1432 H 0.45718 0.30335 0.29867 0.0
H1433 H 0.45686 0.29282 0.3467 0.0
H1434 H 0.5155 0.30568 0.34075 0.0
H1435 H 0.51598 0.31621 0.29266 0.0
H1436 H 0.52591 0.28619 0.30523 0.0
H1437 H 0.44114 0.17834 0.24265 0.0
H1438 H 0.44347 0.20263 0.1815 0.0
H1439 H 0.47681 0.29452 0.23485 0.0
C1440 C 0.46841 0.24004 0.37111 0.0
C1441 C 0.45933 0.21042 0.38836 0.0
C1442 C 0.44937 0.18291 0.36599 0.0
C1443 C 0.44835 0.18479 0.32712 0.0
C1444 C 0.45735 0.21435 0.31104 0.0
C1445 C 0.46717 0.24147 0.33235 0.0
C1446 C 0.47481 0.27017 0.30835 0.0
C1447 C 0.45269 0.28349 0.3178 0.0
C1448 C 0.51015 0.29608 0.31197 0.0
C1449 C 0.46765 0.25495 0.27019 0.0
C1450 C 0.45767 0.22276 0.27229 0.0
C1451 C 0.44906 0.20356 0.24067 0.0
C1452 C 0.45046 0.21758 0.20605 0.0
C1453 C 0.46041 0.2505 0.2033 0.0
C1454 C 0.46931 0.26935 0.2359 0.0
H1455 H 0.74832 0.16478 0.40435 0.0
H1456 H 0.79975 0.26501 0.43559 0.0
H1457 H 0.81168 0.28001 0.36952 0.0
H1458 H 0.8017 0.17184 0.3288 0.0
H1459 H 0.77042 0.14357 0.29898 0.0
H1460 H 0.76574 0.13956 0.34873 0.0
H1461 H 0.71322 0.14065 0.3451 0.0
H1462 H 0.71684 0.14408 0.29529 0.0
H1463 H 0.71255 0.17331 0.32185 0.0
H1464 H 0.81654 0.28453 0.30017 0.0
H1465 H 0.81527 0.27861 0.23226 0.0
H1466 H 0.76082 0.17535 0.24419 0.0
C1467 C 0.7623 0.1899 0.39737 0.0
C1468 C 0.77309 0.21374 0.42547 0.0
C1469 C 0.79125 0.24628 0.41486 0.0
C1470 C 0.79812 0.25505 0.37729 0.0
C1471 C 0.78682 0.23106 0.35037 0.0
C1472 C 0.76944 0.19912 0.35986 0.0
C1473 C 0.75999 0.17816 0.32525 0.0
C1474 C 0.77537 0.15703 0.32547 0.0
C1475 C 0.72348 0.15786 0.32168 0.0
C1476 C 0.77424 0.20336 0.2948 0.0
C1477 C 0.78974 0.23367 0.3101 0.0
C1478 C 0.80457 0.26091 0.28793 0.0
C1479 C 0.80366 0.25723 0.24919 0.0
C1480 C 0.78795 0.22651 0.2325 0.0
C1481 C 0.77305 0.19919 0.25587 0.0
loop_
_geom_bond_atom_site_label_1
_geom_bond_atom_site_label_2
_geom_bond_distance
_geom_bond_site_symmetry_2
_ccdc_geom_bond_type
O0 Tb1 2.292 1_556 S
O0 C3 1.255 . S
Tb1 O0 2.292 1_554 S
Tb1 O17 2.326 . S
Tb1 O19 2.500 . S
Tb1 O20 2.473 . S
Tb1 O23 2.324 . S
Eu2 O6 2.292 . S
Eu2 C7 2.852 . S
Eu2 O18 2.324 . S
Eu2 O22 2.326 . S
Eu2 O24 2.500 . S
Eu2 O25 2.473 . S
C3 O0 1.255 . S
C3 O4 1.247 . S
O4 C3 1.247 . S
C5 O17 1.242 . S
C5 O18 1.258 . S
O6 Eu2 2.292 . S
O6 C8 1.255 . S
C7 Eu2 2.852 . S
C7 C11 1.503 . S
C7 O24 1.273 . S
C7 O25 1.257 . S
C8 O6 1.255 . S
C8 O9 1.247 . S
O9 C8 1.247 . S
C10 O22 1.242 . S
C10 O23 1.258 . S
C11 C7 1.503 . S
C11 C12 1.379 . S
C11 C16 1.392 . S
C12 C11 1.379 . S
C12 C13 1.404 . S
C12 H26 0.929 . S
C13 C12 1.404 . S
C13 C14 1.389 . S
C14 C13 1.389 . S
C14 C15 1.399 . S
C14 H27 0.931 . S
C15 C14 1.399 . S
C15 C16 1.390 . S
C16 C11 1.392 . S
C16 C15 1.390 . S
C16 H28 0.929 . S
O17 Tb1 2.326 . S
O17 C5 1.242 . S
O18 Eu2 2.324 . S
O18 C5 1.258 . S
O19 Tb1 2.500 . S
O19 C21 1.273 . S
O20 Tb1 2.473 . S
O20 C21 1.257 . S
C21 O19 1.273 . S
C21 O20 1.257 . S
O22 Eu2 2.326 . S
O22 C10 1.242 . S
O23 Tb1 2.324 . S
O23 C10 1.258 . S
O24 Eu2 2.500 . S
O24 C7 1.273 . S
O25 Eu2 2.473 . S
O25 C7 1.257 . S
H26 C12 0.929 . S
H27 C14 0.931 . S
H28 C16 0.929 . S
O29 Tb30 2.292 1_556 S
O29 C32 1.255 . S
Tb30 O29 2.292 1_554 S
Tb30 O46 2.326 . S
Tb30 O48 2.500 . S
Tb30 O49 2.473 . S
Tb30 O52 2.324 . S
Eu31 O35 2.292 . S
Eu31 C36 2.852 . S
Eu31 O47 2.324 . S
Eu31 O51 2.326 . S
Eu31 O53 2.500 . S
Eu31 O54 2.473 . S
C32 O29 1.255 . S
C32 O33 1.247 . S
O33 C32 1.247 . S
C34 O46 1.242 . S
C34 O47 1.258 . S
O35 Eu31 2.292 . S
O35 C37 1.255 . S
C36 Eu31 2.852 . S
C36 C40 1.503 . S
C36 O53 1.273 . S
C36 O54 1.257 . S
C37 O35 1.255 . S
C37 O38 1.247 . S
O38 C37 1.247 . S
C39 O51 1.242 . S
C39 O52 1.258 . S
C40 C36 1.503 . S
C40 C41 1.379 . S
C40 C45 1.392 . S
C41 C40 1.379 . S
C41 C42 1.404 . S
C41 H55 0.929 . S
C42 C41 1.404 . S
C42 C43 1.389 . S
C43 C42 1.389 . S
C43 C44 1.399 . S
C43 H56 0.931 . S
C44 C43 1.399 . S
C44 C45 1.390 . S
C45 C40 1.392 . S
C45 C44 1.390 . S
C45 H57 0.929 . S
O46 Tb30 2.326 . S
O46 C34 1.242 . S
O47 Eu31 2.324 . S
O47 C34 1.258 . S
O48 Tb30 2.500 . S
O48 C50 1.273 . S
O49 Tb30 2.473 . S
O49 C50 1.257 . S
C50 O48 1.273 . S
C50 O49 1.257 . S
O51 Eu31 2.326 . S
O51 C39 1.242 . S
O52 Tb30 2.324 . S
O52 C39 1.258 . S
O53 Eu31 2.500 . S
O53 C36 1.273 . S
O54 Eu31 2.473 . S
O54 C36 1.257 . S
H55 C41 0.929 . S
H56 C43 0.931 . S
H57 C45 0.929 . S
O58 Tb59 2.292 1_556 S
O58 C61 1.255 . S
Tb59 O58 2.292 1_554 S
Tb59 O75 2.326 . S
Tb59 O77 2.500 . S
Tb59 O78 2.473 . S
Tb59 O81 2.324 . S
Eu60 O64 2.292 . S
Eu60 C65 2.852 . S
Eu60 O76 2.324 . S
Eu60 O80 2.326 . S
Eu60 O82 2.500 . S
Eu60 O83 2.473 . S
C61 O58 1.255 . S
C61 O62 1.247 . S
O62 C61 1.247 . S
C63 O75 1.242 . S
C63 O76 1.258 . S
O64 Eu60 2.292 . S
O64 C66 1.255 . S
C65 Eu60 2.852 . S
C65 C69 1.503 . S
C65 O82 1.273 . S
C65 O83 1.257 . S
C66 O64 1.255 . S
C66 O67 1.247 . S
O67 C66 1.247 . S
C68 O80 1.242 . S
C68 O81 1.258 . S
C69 C65 1.503 . S
C69 C70 1.379 . S
C69 C74 1.392 . S
C70 C69 1.379 . S
C70 C71 1.404 . S
C70 H84 0.929 . S
C71 C70 1.404 . S
C71 C72 1.389 . S
C72 C71 1.389 . S
C72 C73 1.399 . S
C72 H85 0.931 . S
C73 C72 1.399 . S
C73 C74 1.390 . S
C74 C69 1.392 . S
C74 C73 1.390 . S
C74 H86 0.929 . S
O75 Tb59 2.326 . S
O75 C63 1.242 . S
O76 Eu60 2.324 . S
O76 C63 1.258 . S
O77 Tb59 2.500 . S
O77 C79 1.273 . S
O78 Tb59 2.473 . S
O78 C79 1.257 . S
C79 O77 1.273 . S
C79 O78 1.257 . S
O80 Eu60 2.326 . S
O80 C68 1.242 . S
O81 Tb59 2.324 . S
O81 C68 1.258 . S
O82 Eu60 2.500 . S
O82 C65 1.273 . S
O83 Eu60 2.473 . S
O83 C65 1.257 . S
H84 C70 0.929 . S
H85 C72 0.931 . S
H86 C74 0.929 . S
O87 Tb88 2.292 . S
O87 C90 1.255 . S
Tb88 O87 2.292 . S
Tb88 O104 2.326 . S
Tb88 O106 2.500 . S
Tb88 O107 2.473 . S
Tb88 O110 2.324 . S
Eu89 O93 2.292 . S
Eu89 C94 2.852 . S
Eu89 O105 2.324 . S
Eu89 O109 2.326 . S
Eu89 O111 2.500 . S
Eu89 O112 2.473 . S
C90 O87 1.255 . S
C90 O91 1.247 . S
O91 C90 1.247 . S
C92 O104 1.242 . S
C92 O105 1.258 . S
O93 Eu89 2.292 . S
O93 C95 1.255 . S
C94 Eu89 2.852 . S
C94 C98 1.503 . S
C94 O111 1.273 . S
C94 O112 1.257 . S
C95 O93 1.255 . S
C95 O96 1.247 . S
O96 C95 1.247 . S
C97 O109 1.242 . S
C97 O110 1.258 . S
C98 C94 1.503 . S
C98 C99 1.379 . S
C98 C103 1.392 . S
C99 C98 1.379 . S
C99 C100 1.404 . S
C99 H113 0.929 . S
C100 C99 1.404 . S
C100 C101 1.389 . S
C101 C100 1.389 . S
C101 C102 1.399 . S
C101 H114 0.931 . S
C102 C101 1.399 . S
C102 C103 1.390 . S
C103 C98 1.392 . S
C103 C102 1.390 . S
C103 H115 0.929 . S
O104 Tb88 2.326 . S
O104 C92 1.242 . S
O105 Eu89 2.324 . S
O105 C92 1.258 . S
O106 Tb88 2.500 . S
O106 C108 1.273 . S
O107 Tb88 2.473 . S
O107 C108 1.257 . S
C108 O106 1.273 . S
C108 O107 1.257 . S
O109 Eu89 2.326 . S
O109 C97 1.242 . S
O110 Tb88 2.324 . S
O110 C97 1.258 . S
O111 Eu89 2.500 . S
O111 C94 1.273 . S
O112 Eu89 2.473 . S
O112 C94 1.257 . S
H113 C99 0.929 . S
H114 C101 0.931 . S
H115 C103 0.929 . S
O116 Tb117 2.292 . S
O116 C119 1.255 . S
Tb117 O116 2.292 . S
Tb117 O133 2.326 . S
Tb117 O135 2.500 . S
Tb117 O136 2.473 . S
Tb117 O139 2.324 . S
Eu118 O122 2.292 . S
Eu118 C123 2.852 . S
Eu118 O134 2.324 . S
Eu118 O138 2.326 . S
Eu118 O140 2.500 . S
Eu118 O141 2.473 . S
C119 O116 1.255 . S
C119 O120 1.247 . S
O120 C119 1.247 . S
C121 O133 1.242 . S
C121 O134 1.258 . S
O122 Eu118 2.292 . S
O122 C124 1.255 . S
C123 Eu118 2.852 . S
C123 C127 1.503 . S
C123 O140 1.273 . S
C123 O141 1.257 . S
C124 O122 1.255 . S
C124 O125 1.247 . S
O125 C124 1.247 . S
C126 O138 1.242 . S
C126 O139 1.258 . S
C127 C123 1.503 . S
C127 C128 1.379 . S
C127 C132 1.392 . S
C128 C127 1.379 . S
C128 C129 1.404 . S
C128 H142 0.929 . S
C129 C128 1.404 . S
C129 C130 1.389 . S
C130 C129 1.389 . S
C130 C131 1.399 . S
C130 H143 0.931 . S
C131 C130 1.399 . S
C131 C132 1.390 . S
C132 C127 1.392 . S
C132 C131 1.390 . S
C132 H144 0.929 . S
O133 Tb117 2.326 . S
O133 C121 1.242 . S
O134 Eu118 2.324 . S
O134 C121 1.258 . S
O135 Tb117 2.500 . S
O135 C137 1.273 . S
O136 Tb117 2.473 . S
O136 C137 1.257 . S
C137 O135 1.273 . S
C137 O136 1.257 . S
O138 Eu118 2.326 . S
O138 C126 1.242 . S
O139 Tb117 2.324 . S
O139 C126 1.258 . S
O140 Eu118 2.500 . S
O140 C123 1.273 . S
O141 Eu118 2.473 . S
O141 C123 1.257 . S
H142 C128 0.929 . S
H143 C130 0.931 . S
H144 C132 0.929 . S
O145 Tb146 2.292 . S
O145 C148 1.255 . S
Tb146 O145 2.292 . S
Tb146 O162 2.326 . S
Tb146 O164 2.500 . S
Tb146 O165 2.473 . S
Tb146 O168 2.324 . S
Eu147 O151 2.292 . S
Eu147 C152 2.852 . S
Eu147 O163 2.324 . S
Eu147 O167 2.326 . S
Eu147 O169 2.500 . S
Eu147 O170 2.473 . S
C148 O145 1.255 . S
C148 O149 1.247 . S
O149 C148 1.247 . S
C150 O162 1.242 . S
C150 O163 1.258 . S
O151 Eu147 2.292 . S
O151 C153 1.255 . S
C152 Eu147 2.852 . S
C152 C156 1.503 . S
C152 O169 1.273 . S
C152 O170 1.257 . S
C153 O151 1.255 . S
C153 O154 1.247 . S
O154 C153 1.247 . S
C155 O167 1.242 . S
C155 O168 1.258 . S
C156 C152 1.503 . S
C156 C157 1.379 . S
C156 C161 1.392 . S
C157 C156 1.379 . S
C157 C158 1.404 . S
C157 H171 0.929 . S
C158 C157 1.404 . S
C158 C159 1.389 . S
C159 C158 1.389 . S
C159 C160 1.399 . S
C159 H172 0.931 . S
C160 C159 1.399 . S
C160 C161 1.390 . S
C161 C156 1.392 . S
C161 C160 1.390 . S
C161 H173 0.929 . S
O162 Tb146 2.326 . S
O162 C150 1.242 . S
O163 Eu147 2.324 . S
O163 C150 1.258 . S
O164 Tb146 2.500 . S
O164 C166 1.273 . S
O165 Tb146 2.473 . S
O165 C166 1.257 . S
C166 O164 1.273 . S
C166 O165 1.257 . S
O167 Eu147 2.326 . S
O167 C155 1.242 . S
O168 Tb146 2.324 . S
O168 C155 1.258 . S
O169 Eu147 2.500 . S
O169 C152 1.273 . S
O170 Eu147 2.473 . S
O170 C152 1.257 . S
H171 C157 0.929 . S
H172 C159 0.931 . S
H173 C161 0.929 . S
O174 Tb175 2.292 1_554 S
O174 C177 1.255 . S
Tb175 O174 2.292 1_556 S
Tb175 O191 2.326 . S
Tb175 O193 2.500 . S
Tb175 O194 2.473 . S
Tb175 O197 2.324 . S
Eu176 O180 2.292 . S
Eu176 C181 2.852 . S
Eu176 O192 2.324 . S
Eu176 O196 2.326 . S
Eu176 O198 2.500 . S
Eu176 O199 2.473 . S
C177 O174 1.255 . S
C177 O178 1.247 . S
O178 C177 1.247 . S
C179 O191 1.242 . S
C179 O192 1.258 . S
O180 Eu176 2.292 . S
O180 C182 1.255 . S
C181 Eu176 2.852 . S
C181 C185 1.503 . S
C181 O198 1.273 . S
C181 O199 1.257 . S
C182 O180 1.255 . S
C182 O183 1.247 . S
O183 C182 1.247 . S
C184 O196 1.242 . S
C184 O197 1.258 . S
C185 C181 1.503 . S
C185 C186 1.379 . S
C185 C190 1.392 . S
C186 C185 1.379 . S
C186 C187 1.404 . S
C186 H200 0.929 . S
C187 C186 1.404 . S
C187 C188 1.389 . S
C188 C187 1.389 . S
C188 C189 1.399 . S
C188 H201 0.931 . S
C189 C188 1.399 . S
C189 C190 1.390 . S
C190 C185 1.392 . S
C190 C189 1.390 . S
C190 H202 0.929 . S
O191 Tb175 2.326 . S
O191 C179 1.242 . S
O192 Eu176 2.324 . S
O192 C179 1.258 . S
O193 Tb175 2.500 . S
O193 C195 1.273 . S
O194 Tb175 2.473 . S
O194 C195 1.257 . S
C195 O193 1.273 . S
C195 O194 1.257 . S
O196 Eu176 2.326 . S
O196 C184 1.242 . S
O197 Tb175 2.324 . S
O197 C184 1.258 . S
O198 Eu176 2.500 . S
O198 C181 1.273 . S
O199 Eu176 2.473 . S
O199 C181 1.257 . S
H200 C186 0.929 . S
H201 C188 0.931 . S
H202 C190 0.929 . S
O203 Tb204 2.292 1_554 S
O203 C206 1.255 . S
Tb204 O203 2.292 1_556 S
Tb204 O220 2.326 . S
Tb204 O222 2.500 . S
Tb204 O223 2.473 . S
Tb204 O226 2.324 . S
Eu205 O209 2.292 . S
Eu205 C210 2.852 . S
Eu205 O221 2.324 . S
Eu205 O225 2.326 . S
Eu205 O227 2.500 . S
Eu205 O228 2.473 . S
C206 O203 1.255 . S
C206 O207 1.247 . S
O207 C206 1.247 . S
C208 O220 1.242 . S
C208 O221 1.258 . S
O209 Eu205 2.292 . S
O209 C211 1.255 . S
C210 Eu205 2.852 . S
C210 C214 1.503 . S
C210 O227 1.273 . S
C210 O228 1.257 . S
C211 O209 1.255 . S
C211 O212 1.247 . S
O212 C211 1.247 . S
C213 O225 1.242 . S
C213 O226 1.258 . S
C214 C210 1.503 . S
C214 C215 1.379 . S
C214 C219 1.392 . S
C215 C214 1.379 . S
C215 C216 1.404 . S
C215 H229 0.929 . S
C216 C215 1.404 . S
C216 C217 1.389 . S
C217 C216 1.389 . S
C217 C218 1.399 . S
C217 H230 0.931 . S
C218 C217 1.399 . S
C218 C219 1.390 . S
C219 C214 1.392 . S
C219 C218 1.390 . S
C219 H231 0.929 . S
O220 Tb204 2.326 . S
O220 C208 1.242 . S
O221 Eu205 2.324 . S
O221 C208 1.258 . S
O222 Tb204 2.500 . S
O222 C224 1.273 . S
O223 Tb204 2.473 . S
O223 C224 1.257 . S
C224 O222 1.273 . S
C224 O223 1.257 . S
O225 Eu205 2.326 . S
O225 C213 1.242 . S
O226 Tb204 2.324 . S
O226 C213 1.258 . S
O227 Eu205 2.500 . S
O227 C210 1.273 . S
O228 Eu205 2.473 . S
O228 C210 1.257 . S
H229 C215 0.929 . S
H230 C217 0.931 . S
H231 C219 0.929 . S
O232 Tb233 2.292 1_554 S
O232 C235 1.255 . S
Tb233 O232 2.292 1_556 S
Tb233 O249 2.326 . S
Tb233 O251 2.500 . S
Tb233 O252 2.473 . S
Tb233 O255 2.324 . S
Eu234 O238 2.292 . S
Eu234 C239 2.852 . S
Eu234 O250 2.324 . S
Eu234 O254 2.326 . S
Eu234 O256 2.500 . S
Eu234 O257 2.473 . S
C235 O232 1.255 . S
C235 O236 1.247 . S
O236 C235 1.247 . S
C237 O249 1.242 . S
C237 O250 1.258 . S
O238 Eu234 2.292 . S
O238 C240 1.255 . S
C239 Eu234 2.852 . S
C239 C243 1.503 . S
C239 O256 1.273 . S
C239 O257 1.257 . S
C240 O238 1.255 . S
C240 O241 1.247 . S
O241 C240 1.247 . S
C242 O254 1.242 . S
C242 O255 1.258 . S
C243 C239 1.503 . S
C243 C244 1.379 . S
C243 C248 1.392 . S
C244 C243 1.379 . S
C244 C245 1.404 . S
C244 H258 0.929 . S
C245 C244 1.404 . S
C245 C246 1.389 . S
C246 C245 1.389 . S
C246 C247 1.399 . S
C246 H259 0.931 . S
C247 C246 1.399 . S
C247 C248 1.390 . S
C248 C243 1.392 . S
C248 C247 1.390 . S
C248 H260 0.929 . S
O249 Tb233 2.326 . S
O249 C237 1.242 . S
O250 Eu234 2.324 . S
O250 C237 1.258 . S
O251 Tb233 2.500 . S
O251 C253 1.273 . S
O252 Tb233 2.473 . S
O252 C253 1.257 . S
C253 O251 1.273 . S
C253 O252 1.257 . S
O254 Eu234 2.326 . S
O254 C242 1.242 . S
O255 Tb233 2.324 . S
O255 C242 1.258 . S
O256 Eu234 2.500 . S
O256 C239 1.273 . S
O257 Eu234 2.473 . S
O257 C239 1.257 . S
H258 C244 0.929 . S
H259 C246 0.931 . S
H260 C248 0.929 . S
O261 Tb262 2.292 . S
O261 C264 1.255 . S
Tb262 O261 2.292 . S
Tb262 O278 2.326 . S
Tb262 O280 2.500 . S
Tb262 O281 2.473 . S
Tb262 O284 2.324 . S
Eu263 O267 2.292 . S
Eu263 C268 2.852 . S
Eu263 O279 2.324 . S
Eu263 O283 2.326 . S
Eu263 O285 2.500 . S
Eu263 O286 2.473 . S
C264 O261 1.255 . S
C264 O265 1.247 . S
O265 C264 1.247 . S
C266 O278 1.242 . S
C266 O279 1.258 . S
O267 Eu263 2.292 . S
O267 C269 1.255 . S
C268 Eu263 2.852 . S
C268 C272 1.503 . S
C268 O285 1.273 . S
C268 O286 1.257 . S
C269 O267 1.255 . S
C269 O270 1.247 . S
O270 C269 1.247 . S
C271 O283 1.242 . S
C271 O284 1.258 . S
C272 C268 1.503 . S
C272 C273 1.379 . S
C272 C277 1.392 . S
C273 C272 1.379 . S
C273 C274 1.404 . S
C273 H287 0.929 . S
C274 C273 1.404 . S
C274 C275 1.389 . S
C275 C274 1.389 . S
C275 C276 1.399 . S
C275 H288 0.931 . S
C276 C275 1.399 . S
C276 C277 1.390 . S
C277 C272 1.392 . S
C277 C276 1.390 . S
C277 H289 0.929 . S
O278 Tb262 2.326 . S
O278 C266 1.242 . S
O279 Eu263 2.324 . S
O279 C266 1.258 . S
O280 Tb262 2.500 . S
O280 C282 1.273 . S
O281 Tb262 2.473 . S
O281 C282 1.257 . S
C282 O280 1.273 . S
C282 O281 1.257 . S
O283 Eu263 2.326 . S
O283 C271 1.242 . S
O284 Tb262 2.324 . S
O284 C271 1.258 . S
O285 Eu263 2.500 . S
O285 C268 1.273 . S
O286 Eu263 2.473 . S
O286 C268 1.257 . S
H287 C273 0.929 . S
H288 C275 0.931 . S
H289 C277 0.929 . S
O290 Tb291 2.292 . S
O290 C293 1.255 . S
Tb291 O290 2.292 . S
Tb291 O307 2.326 . S
Tb291 O309 2.500 . S
Tb291 O310 2.473 . S
Tb291 O313 2.324 . S
Eu292 O296 2.292 . S
Eu292 C297 2.852 . S
Eu292 O308 2.324 . S
Eu292 O312 2.326 . S
Eu292 O314 2.500 . S
Eu292 O315 2.473 . S
C293 O290 1.255 . S
C293 O294 1.247 . S
O294 C293 1.247 . S
C295 O307 1.242 . S
C295 O308 1.258 . S
O296 Eu292 2.292 . S
O296 C298 1.255 . S
C297 Eu292 2.852 . S
C297 C301 1.503 . S
C297 O314 1.273 . S
C297 O315 1.257 . S
C298 O296 1.255 . S
C298 O299 1.247 . S
O299 C298 1.247 . S
C300 O312 1.242 . S
C300 O313 1.258 . S
C301 C297 1.503 . S
C301 C302 1.379 . S
C301 C306 1.392 . S
C302 C301 1.379 . S
C302 C303 1.404 . S
C302 H316 0.929 . S
C303 C302 1.404 . S
C303 C304 1.389 . S
C304 C303 1.389 . S
C304 C305 1.399 . S
C304 H317 0.931 . S
C305 C304 1.399 . S
C305 C306 1.390 . S
C306 C301 1.392 . S
C306 C305 1.390 . S
C306 H318 0.929 . S
O307 Tb291 2.326 . S
O307 C295 1.242 . S
O308 Eu292 2.324 . S
O308 C295 1.258 . S
O309 Tb291 2.500 . S
O309 C311 1.273 . S
O310 Tb291 2.473 . S
O310 C311 1.257 . S
C311 O309 1.273 . S
C311 O310 1.257 . S
O312 Eu292 2.326 . S
O312 C300 1.242 . S
O313 Tb291 2.324 . S
O313 C300 1.258 . S
O314 Eu292 2.500 . S
O314 C297 1.273 . S
O315 Eu292 2.473 . S
O315 C297 1.257 . S
H316 C302 0.929 . S
H317 C304 0.931 . S
H318 C306 0.929 . S
O319 Tb320 2.292 . S
O319 C322 1.255 . S
Tb320 O319 2.292 . S
Tb320 O336 2.326 . S
Tb320 O338 2.500 . S
Tb320 O339 2.473 . S
Tb320 O342 2.324 . S
Eu321 O325 2.292 . S
Eu321 C326 2.852 . S
Eu321 O337 2.324 . S
Eu321 O341 2.326 . S
Eu321 O343 2.500 . S
Eu321 O344 2.473 . S
C322 O319 1.255 . S
C322 O323 1.247 . S
O323 C322 1.247 . S
C324 O336 1.242 . S
C324 O337 1.258 . S
O325 Eu321 2.292 . S
O325 C327 1.255 . S
C326 Eu321 2.852 . S
C326 C330 1.503 . S
C326 O343 1.273 . S
C326 O344 1.257 . S
C327 O325 1.255 . S
C327 O328 1.247 . S
O328 C327 1.247 . S
C329 O341 1.242 . S
C329 O342 1.258 . S
C330 C326 1.503 . S
C330 C331 1.379 . S
C330 C335 1.392 . S
C331 C330 1.379 . S
C331 C332 1.404 . S
C331 H345 0.929 . S
C332 C331 1.404 . S
C332 C333 1.389 . S
C333 C332 1.389 . S
C333 C334 1.399 . S
C333 H346 0.931 . S
C334 C333 1.399 . S
C334 C335 1.390 . S
C335 C330 1.392 . S
C335 C334 1.390 . S
C335 H347 0.929 . S
O336 Tb320 2.326 . S
O336 C324 1.242 . S
O337 Eu321 2.324 . S
O337 C324 1.258 . S
O338 Tb320 2.500 . S
O338 C340 1.273 . S
O339 Tb320 2.473 . S
O339 C340 1.257 . S
C340 O338 1.273 . S
C340 O339 1.257 . S
O341 Eu321 2.326 . S
O341 C329 1.242 . S
O342 Tb320 2.324 . S
O342 C329 1.258 . S
O343 Eu321 2.500 . S
O343 C326 1.273 . S
O344 Eu321 2.473 . S
O344 C326 1.257 . S
H345 C331 0.929 . S
H346 C333 0.931 . S
H347 C335 0.929 . S
H348 C360 0.930 . S
H349 C362 0.930 . S
H350 C363 0.930 . S
H351 C367 0.959 . S
H352 C367 0.959 . S
H353 C367 0.961 . S
H354 C368 0.960 . S
H355 C368 0.961 . S
H356 C368 0.959 . S
H357 C371 0.929 . S
H358 C372 0.931 . S
H359 C374 0.930 1_556 S
C360 H348 0.930 . S
C360 C361 1.399 1_545 S
C360 C365 1.399 . S
C361 C360 1.399 1_565 S
C361 C362 1.376 1_556 S
C362 H349 0.930 . S
C362 C361 1.376 1_554 S
C362 C363 1.388 1_565 S
C363 H350 0.930 . S
C363 C362 1.388 1_545 S
C363 C364 1.390 . S
C364 C363 1.390 . S
C364 C365 1.394 1_554 S
C364 C370 1.465 . S
C365 C360 1.399 . S
C365 C364 1.394 1_556 S
C365 C366 1.516 . S
C366 C365 1.516 . S
C366 C367 1.502 . S
C366 C368 1.561 . S
C366 C369 1.526 . S
C367 H351 0.959 . S
C367 H352 0.959 . S
C367 H353 0.961 . S
C367 C366 1.502 . S
C368 H354 0.960 . S
C368 H355 0.961 . S
C368 H356 0.959 . S
C368 C366 1.561 . S
C369 C366 1.526 . S
C369 C370 1.396 1_556 S
C369 C374 1.390 1_556 S
C370 C364 1.465 . S
C370 C369 1.396 1_554 S
C370 C371 1.399 . S
C371 H357 0.929 . S
C371 C370 1.399 . S
C371 C372 1.385 . S
C372 H358 0.931 . S
C372 C371 1.385 . S
C372 C373 1.389 . S
C373 C372 1.389 . S
C373 C374 1.387 . S
C374 H359 0.930 1_554 S
C374 C369 1.390 1_554 S
C374 C373 1.387 . S
H375 C387 0.930 1_556 S
H376 C389 0.930 . S
H377 C390 0.930 . S
H378 C394 0.959 . S
H379 C394 0.959 . S
H380 C394 0.961 . S
H381 C395 0.960 . S
H382 C395 0.961 . S
H383 C395 0.959 . S
H384 C398 0.929 . S
H385 C399 0.931 1_554 S
H386 C401 0.930 . S
C387 H375 0.930 1_554 S
C387 C388 1.399 . S
C387 C392 1.399 1_554 S
C388 C387 1.399 . S
C388 C389 1.376 . S
C389 H376 0.930 . S
C389 C388 1.376 . S
C389 C390 1.388 . S
C390 H377 0.930 . S
C390 C389 1.388 . S
C390 C391 1.390 . S
C391 C390 1.390 . S
C391 C392 1.394 1_554 S
C391 C397 1.465 . S
C392 C387 1.399 1_556 S
C392 C391 1.394 1_556 S
C392 C393 1.516 . S
C393 C392 1.516 . S
C393 C394 1.502 . S
C393 C395 1.561 . S
C393 C396 1.526 . S
C394 H378 0.959 . S
C394 H379 0.959 . S
C394 H380 0.961 . S
C394 C393 1.502 . S
C395 H381 0.960 . S
C395 H382 0.961 . S
C395 H383 0.959 . S
C395 C393 1.561 . S
C396 C393 1.526 . S
C396 C397 1.396 1_556 S
C396 C401 1.390 . S
C397 C391 1.465 . S
C397 C396 1.396 1_554 S
C397 C398 1.399 . S
C398 H384 0.929 . S
C398 C397 1.399 . S
C398 C399 1.385 1_654 S
C399 H385 0.931 1_556 S
C399 C398 1.385 1_456 S
C399 C400 1.389 . S
C400 C399 1.389 . S
C400 C401 1.387 1_455 S
C401 H386 0.930 . S
C401 C396 1.390 . S
C401 C400 1.387 1_655 S
H402 C414 0.921 1_556 S
H403 C416 0.930 . S
H404 C417 0.930 . S
H405 C421 0.959 . S
H406 C421 0.959 . S
H407 C421 0.961 . S
H408 C422 0.960 . S
H409 C422 0.961 . S
H410 C422 0.959 . S
H411 C425 0.929 . S
H412 C426 0.931 . S
H413 C428 0.930 . S
C414 H402 0.921 1_554 S
C414 C415 1.410 . S
C414 C419 1.397 1_554 S
C415 C414 1.410 . S
C415 C416 1.376 . S
C416 H403 0.930 . S
C416 C415 1.376 . S
C416 C417 1.388 . S
C417 H404 0.930 . S
C417 C416 1.388 . S
C417 C418 1.390 . S
C418 C417 1.390 . S
C418 C419 1.394 1_554 S
C418 C424 1.465 . S
C419 C414 1.397 1_556 S
C419 C418 1.394 1_556 S
C419 C420 1.516 . S
C420 C419 1.516 . S
C420 C421 1.502 . S
C420 C422 1.561 . S
C420 C423 1.526 . S
C421 H405 0.959 . S
C421 H406 0.959 . S
C421 H407 0.961 . S
C421 C420 1.502 . S
C422 H408 0.960 . S
C422 H409 0.961 . S
C422 H410 0.959 . S
C422 C420 1.561 . S
C423 C420 1.526 . S
C423 C424 1.396 1_556 S
C423 C428 1.390 . S
C424 C418 1.465 . S
C424 C423 1.396 1_554 S
C424 C425 1.399 . S
C425 H411 0.929 . S
C425 C424 1.399 . S
C425 C426 1.385 . S
C426 H412 0.931 . S
C426 C425 1.385 . S
C426 C427 1.389 1_554 S
C427 C426 1.389 1_556 S
C427 C428 1.387 . S
C428 H413 0.930 . S
C428 C423 1.390 . S
C428 C427 1.387 . S
H429 C441 0.930 . S
H430 C443 0.930 . S
H431 C444 0.930 . S
H432 C448 0.959 . S
H433 C448 0.959 . S
H434 C448 0.961 . S
H435 C449 0.960 . S
H436 C449 0.961 . S
H437 C449 0.959 . S
H438 C452 0.929 . S
H439 C453 0.931 . S
H440 C455 0.930 . S
C441 H429 0.930 . S
C441 C442 1.399 . S
C441 C446 1.399 . S
C442 C441 1.399 . S
C442 C443 1.376 . S
C443 H430 0.930 . S
C443 C442 1.376 . S
C443 C444 1.388 . S
C444 H431 0.930 . S
C444 C443 1.388 . S
C444 C445 1.390 . S
C445 C444 1.390 . S
C445 C446 1.394 . S
C445 C451 1.465 . S
C446 C441 1.399 . S
C446 C445 1.394 . S
C446 C447 1.516 . S
C447 C446 1.516 . S
C447 C448 1.502 . S
C447 C449 1.561 . S
C447 C450 1.526 . S
C448 H432 0.959 . S
C448 H433 0.959 . S
C448 H434 0.961 . S
C448 C447 1.502 . S
C449 H435 0.960 . S
C449 H436 0.961 . S
C449 H437 0.959 . S
C449 C447 1.561 . S
C450 C447 1.526 . S
C450 C451 1.396 . S
C450 C455 1.390 . S
C451 C445 1.465 . S
C451 C450 1.396 . S
C451 C452 1.399 . S
C452 H438 0.929 . S
C452 C451 1.399 . S
C452 C453 1.385 1_455 S
C453 H439 0.931 . S
C453 C452 1.385 1_655 S
C453 C454 1.389 . S
C454 C453 1.389 . S
C454 C455 1.387 1_655 S
C455 H440 0.930 . S
C455 C450 1.390 . S
C455 C454 1.387 1_455 S
H456 C468 0.930 . S
H457 C470 0.930 . S
H458 C471 0.930 . S
H459 C475 0.959 . S
H460 C475 0.959 . S
H461 C475 0.961 . S
H462 C476 0.960 . S
H463 C476 0.961 . S
H464 C476 0.959 . S
H465 C479 0.929 . S
H466 C480 0.931 . S
H467 C482 0.930 . S
C468 H456 0.930 . S
C468 C469 1.399 . S
C468 C473 1.399 . S
C469 C468 1.399 . S
C469 C470 1.376 . S
C470 H457 0.930 . S
C470 C469 1.376 . S
C470 C471 1.388 . S
C471 H458 0.930 . S
C471 C470 1.388 . S
C471 C472 1.390 . S
C472 C471 1.390 . S
C472 C473 1.394 . S
C472 C478 1.465 . S
C473 C468 1.399 . S
C473 C472 1.394 . S
C473 C474 1.516 . S
C474 C473 1.516 . S
C474 C475 1.502 . S
C474 C476 1.561 . S
C474 C477 1.526 . S
C475 H459 0.959 . S
C475 H460 0.959 . S
C475 H461 0.961 . S
C475 C474 1.502 . S
C476 H462 0.960 . S
C476 H463 0.961 . S
C476 H464 0.959 . S
C476 C474 1.561 . S
C477 C474 1.526 . S
C477 C478 1.396 . S
C477 C482 1.390 . S
C478 C472 1.465 . S
C478 C477 1.396 . S
C478 C479 1.399 . S
C479 H465 0.929 . S
C479 C478 1.399 . S
C479 C480 1.385 . S
C480 H466 0.931 . S
C480 C479 1.385 . S
C480 C481 1.389 . S
C481 C480 1.389 . S
C481 C482 1.387 . S
C482 H467 0.930 . S
C482 C477 1.390 . S
C482 C481 1.387 . S
H483 C495 0.930 . S
H484 C497 0.930 . S
H485 C498 0.930 . S
H486 C502 0.959 . S
H487 C502 0.959 . S
H488 C502 0.961 . S
H489 C503 0.960 . S
H490 C503 0.961 . S
H491 C503 0.959 . S
H492 C506 0.929 . S
H493 C507 0.931 . S
H494 C509 0.930 . S
C495 H483 0.930 . S
C495 C496 1.399 . S
C495 C500 1.399 . S
C496 C495 1.399 . S
C496 C497 1.376 . S
C497 H484 0.930 . S
C497 C496 1.376 . S
C497 C498 1.388 . S
C498 H485 0.930 . S
C498 C497 1.388 . S
C498 C499 1.390 . S
C499 C498 1.390 . S
C499 C500 1.394 . S
C499 C505 1.465 . S
C500 C495 1.399 . S
C500 C499 1.394 . S
C500 C501 1.516 . S
C501 C500 1.516 . S
C501 C502 1.502 . S
C501 C503 1.561 . S
C501 C504 1.526 . S
C502 H486 0.959 . S
C502 H487 0.959 . S
C502 H488 0.961 . S
C502 C501 1.502 . S
C503 H489 0.960 . S
C503 H490 0.961 . S
C503 H491 0.959 . S
C503 C501 1.561 . S
C504 C501 1.526 . S
C504 C505 1.396 . S
C504 C509 1.390 . S
C505 C499 1.465 . S
C505 C504 1.396 . S
C505 C506 1.399 . S
C506 H492 0.929 . S
C506 C505 1.399 . S
C506 C507 1.385 1_565 S
C507 H493 0.931 . S
C507 C506 1.385 1_545 S
C507 C508 1.389 . S
C508 C507 1.389 . S
C508 C509 1.387 1_545 S
C509 H494 0.930 . S
C509 C504 1.390 . S
C509 C508 1.387 1_565 S
H510 C522 0.930 . S
H511 C524 0.930 . S
H512 C525 0.930 . S
H513 C529 0.959 . S
H514 C529 0.959 . S
H515 C529 0.961 . S
H516 C530 0.960 . S
H517 C530 0.961 . S
H518 C530 0.959 . S
H519 C533 0.929 . S
H520 C534 0.931 1_545 S
H521 C536 0.926 1_556 S
C522 H510 0.930 . S
C522 C523 1.399 . S
C522 C527 1.399 . S
C523 C522 1.399 . S
C523 C524 1.376 1_556 S
C524 H511 0.930 . S
C524 C523 1.376 1_554 S
C524 C525 1.388 . S
C525 H512 0.930 . S
C525 C524 1.388 . S
C525 C526 1.390 . S
C526 C525 1.390 . S
C526 C527 1.394 1_554 S
C526 C532 1.465 . S
C527 C522 1.399 . S
C527 C526 1.394 1_556 S
C527 C528 1.516 . S
C528 C527 1.516 . S
C528 C529 1.502 . S
C528 C530 1.561 . S
C528 C531 1.526 . S
C529 H513 0.959 . S
C529 H514 0.959 . S
C529 H515 0.961 . S
C529 C528 1.502 . S
C530 H516 0.960 . S
C530 H517 0.961 . S
C530 H518 0.959 . S
C530 C528 1.561 . S
C531 C528 1.526 . S
C531 C532 1.396 1_556 S
C531 C536 1.389 1_566 S
C532 C526 1.465 . S
C532 C531 1.396 1_554 S
C532 C533 1.399 . S
C533 H519 0.929 . S
C533 C532 1.399 . S
C533 C534 1.385 . S
C534 H520 0.931 1_565 S
C534 C533 1.385 . S
C534 C535 1.389 1_565 S
C535 C534 1.389 1_545 S
C535 C536 1.391 . S
C536 H521 0.926 1_554 S
C536 C531 1.389 1_544 S
C536 C535 1.391 . S
H537 C549 0.930 . S
H538 C551 0.930 . S
H539 C552 0.930 . S
H540 C556 0.959 . S
H541 C556 0.959 . S
H542 C556 0.961 . S
H543 C557 0.960 . S
H544 C557 0.961 . S
H545 C557 0.959 . S
H546 C560 0.929 . S
H547 C561 0.931 1_655 S
H548 C563 0.930 1_556 S
C549 H537 0.930 . S
C549 C550 1.399 . S
C549 C554 1.399 . S
C550 C549 1.399 . S
C550 C551 1.376 1_556 S
C551 H538 0.930 . S
C551 C550 1.376 1_554 S
C551 C552 1.388 . S
C552 H539 0.930 . S
C552 C551 1.388 . S
C552 C553 1.390 . S
C553 C552 1.390 . S
C553 C554 1.394 1_554 S
C553 C559 1.465 . S
C554 C549 1.399 . S
C554 C553 1.394 1_556 S
C554 C555 1.516 . S
C555 C554 1.516 . S
C555 C556 1.502 . S
C555 C557 1.561 . S
C555 C558 1.526 . S
C556 H540 0.959 . S
C556 H541 0.959 . S
C556 H542 0.961 . S
C556 C555 1.502 . S
C557 H543 0.960 . S
C557 H544 0.961 . S
C557 H545 0.959 . S
C557 C555 1.561 . S
C558 C555 1.526 . S
C558 C559 1.396 1_556 S
C558 C563 1.390 1_456 S
C559 C553 1.465 . S
C559 C558 1.396 1_554 S
C559 C560 1.399 . S
C560 H546 0.929 . S
C560 C559 1.399 . S
C560 C561 1.385 . S
C561 H547 0.931 1_455 S
C561 C560 1.385 . S
C561 C562 1.389 1_455 S
C562 C561 1.389 1_655 S
C562 C563 1.387 . S
C563 H548 0.930 1_554 S
C563 C558 1.390 1_654 S
C563 C562 1.387 . S
H564 C576 0.930 . S
H565 C578 0.930 . S
H566 C579 0.930 . S
H567 C583 0.959 . S
H568 C583 0.959 . S
H569 C583 0.961 . S
H570 C584 0.960 . S
H571 C584 0.961 1_556 S
H572 C584 0.959 . S
H573 C587 0.929 . S
H574 C588 0.931 . S
H575 C590 0.930 . S
C576 H564 0.930 . S
C576 C577 1.399 . S
C576 C581 1.399 . S
C577 C576 1.399 . S
C577 C578 1.376 . S
C578 H565 0.930 . S
C578 C577 1.376 . S
C578 C579 1.388 . S
C579 H566 0.930 . S
C579 C578 1.388 . S
C579 C580 1.390 . S
C580 C579 1.390 . S
C580 C581 1.394 . S
C580 C586 1.465 . S
C581 C576 1.399 . S
C581 C580 1.394 . S
C581 C582 1.516 1_554 S
C582 C581 1.516 1_556 S
C582 C583 1.502 . S
C582 C584 1.561 1_556 S
C582 C585 1.526 . S
C583 H567 0.959 . S
C583 H568 0.959 . S
C583 H569 0.961 . S
C583 C582 1.502 . S
C584 H570 0.960 . S
C584 H571 0.961 1_554 S
C584 H572 0.959 . S
C584 C582 1.561 1_554 S
C585 C582 1.526 . S
C585 C586 1.396 1_556 S
C585 C590 1.390 . S
C586 C580 1.465 . S
C586 C585 1.396 1_554 S
C586 C587 1.399 . S
C587 H573 0.929 . S
C587 C586 1.399 . S
C587 C588 1.385 1_554 S
C588 H574 0.931 . S
C588 C587 1.385 1_556 S
C588 C589 1.389 . S
C589 C588 1.389 . S
C589 C590 1.387 . S
C590 H575 0.930 . S
C590 C585 1.390 . S
C590 C589 1.387 . S
H591 C603 0.930 . S
H592 C605 0.930 . S
H593 C606 0.930 . S
H594 C610 0.959 . S
H595 C610 0.959 . S
H596 C610 0.961 . S
H597 C611 0.960 . S
H598 C611 0.961 . S
H599 C611 0.959 . S
H600 C614 0.929 . S
H601 C615 0.931 . S
H602 C617 0.930 . S
C603 H591 0.930 . S
C603 C604 1.399 . S
C603 C608 1.399 . S
C604 C603 1.399 . S
C604 C605 1.376 . S
C605 H592 0.930 . S
C605 C604 1.376 . S
C605 C606 1.388 . S
C606 H593 0.930 . S
C606 C605 1.388 . S
C606 C607 1.390 . S
C607 C606 1.390 . S
C607 C608 1.394 . S
C607 C613 1.465 . S
C608 C603 1.399 . S
C608 C607 1.394 . S
C608 C609 1.516 . S
C609 C608 1.516 . S
C609 C610 1.502 . S
C609 C611 1.561 . S
C609 C612 1.526 . S
C610 H594 0.959 . S
C610 H595 0.959 . S
C610 H596 0.961 . S
C610 C609 1.502 . S
C611 H597 0.960 . S
C611 H598 0.961 . S
C611 H599 0.959 . S
C611 C609 1.561 . S
C612 C609 1.526 . S
C612 C613 1.396 . S
C612 C617 1.390 . S
C613 C607 1.465 . S
C613 C612 1.396 . S
C613 C614 1.399 . S
C614 H600 0.929 . S
C614 C613 1.399 . S
C614 C615 1.385 1_655 S
C615 H601 0.931 . S
C615 C614 1.385 1_455 S
C615 C616 1.389 . S
C616 C615 1.389 . S
C616 C617 1.387 1_455 S
C617 H602 0.930 . S
C617 C612 1.390 . S
C617 C616 1.387 1_655 S
H618 C630 0.930 . S
H619 C632 0.930 . S
H620 C633 0.930 . S
H621 C637 0.959 . S
H622 C637 0.959 . S
H623 C637 0.961 . S
H624 C638 0.960 . S
H625 C638 0.961 . S
H626 C638 0.959 . S
H627 C641 0.929 . S
H628 C642 0.931 . S
H629 C644 0.930 . S
C630 H618 0.930 . S
C630 C631 1.399 . S
C630 C635 1.399 . S
C631 C630 1.399 . S
C631 C632 1.376 . S
C632 H619 0.930 . S
C632 C631 1.376 . S
C632 C633 1.388 . S
C633 H620 0.930 . S
C633 C632 1.388 . S
C633 C634 1.390 . S
C634 C633 1.390 . S
C634 C635 1.394 . S
C634 C640 1.465 . S
C635 C630 1.399 . S
C635 C634 1.394 . S
C635 C636 1.516 . S
C636 C635 1.516 . S
C636 C637 1.502 . S
C636 C638 1.561 . S
C636 C639 1.526 . S
C637 H621 0.959 . S
C637 H622 0.959 . S
C637 H623 0.961 . S
C637 C636 1.502 . S
C638 H624 0.960 . S
C638 H625 0.961 . S
C638 H626 0.959 . S
C638 C636 1.561 . S
C639 C636 1.526 . S
C639 C640 1.396 . S
C639 C644 1.390 . S
C640 C634 1.465 . S
C640 C639 1.396 . S
C640 C641 1.399 . S
C641 H627 0.929 . S
C641 C640 1.399 . S
C641 C642 1.385 . S
C642 H628 0.931 . S
C642 C641 1.385 . S
C642 C643 1.389 . S
C643 C642 1.389 . S
C643 C644 1.387 . S
C644 H629 0.930 . S
C644 C639 1.390 . S
C644 C643 1.387 . S
H645 C657 0.930 . S
H646 C659 0.930 . S
H647 C660 0.930 . S
H648 C664 0.959 . S
H649 C664 0.959 . S
H650 C664 0.961 . S
H651 C665 0.960 . S
H652 C665 0.961 . S
H653 C665 0.959 . S
H654 C668 0.929 . S
H655 C669 0.931 . S
H656 C671 0.930 . S
C657 H645 0.930 . S
C657 C658 1.399 1_545 S
C657 C662 1.399 . S
C658 C657 1.399 1_565 S
C658 C659 1.376 . S
C659 H646 0.930 . S
C659 C658 1.376 . S
C659 C660 1.388 1_565 S
C660 H647 0.930 . S
C660 C659 1.388 1_545 S
C660 C661 1.390 . S
C661 C660 1.390 . S
C661 C662 1.394 . S
C661 C667 1.465 . S
C662 C657 1.399 . S
C662 C661 1.394 . S
C662 C663 1.516 . S
C663 C662 1.516 . S
C663 C664 1.502 . S
C663 C665 1.561 . S
C663 C666 1.526 . S
C664 H648 0.959 . S
C664 H649 0.959 . S
C664 H650 0.961 . S
C664 C663 1.502 . S
C665 H651 0.960 . S
C665 H652 0.961 . S
C665 H653 0.959 . S
C665 C663 1.561 . S
C666 C663 1.526 . S
C666 C667 1.396 . S
C666 C671 1.390 . S
C667 C661 1.465 . S
C667 C666 1.396 . S
C667 C668 1.399 . S
C668 H654 0.929 . S
C668 C667 1.399 . S
C668 C669 1.385 . S
C669 H655 0.931 . S
C669 C668 1.385 . S
C669 C670 1.389 . S
C670 C669 1.389 . S
C670 C671 1.387 . S
C671 H656 0.930 . S
C671 C666 1.390 . S
C671 C670 1.387 . S
H672 C684 0.930 . S
H673 C686 0.930 . S
H674 C687 0.930 . S
H675 C691 0.959 . S
H676 C691 0.959 . S
H677 C691 0.961 . S
H678 C692 0.960 . S
H679 C692 0.961 . S
H680 C692 0.959 . S
H681 C695 0.929 . S
H682 C696 0.931 . S
H683 C698 0.930 . S
C684 H672 0.930 . S
C684 C685 1.399 . S
C684 C689 1.399 . S
C685 C684 1.399 . S
C685 C686 1.376 . S
C686 H673 0.930 . S
C686 C685 1.376 . S
C686 C687 1.388 . S
C687 H674 0.930 . S
C687 C686 1.388 . S
C687 C688 1.390 . S
C688 C687 1.390 . S
C688 C689 1.394 . S
C688 C694 1.465 . S
C689 C684 1.399 . S
C689 C688 1.394 . S
C689 C690 1.516 . S
C690 C689 1.516 . S
C690 C691 1.502 . S
C690 C692 1.561 . S
C690 C693 1.526 . S
C691 H675 0.959 . S
C691 H676 0.959 . S
C691 H677 0.961 . S
C691 C690 1.502 . S
C692 H678 0.960 . S
C692 H679 0.961 . S
C692 H680 0.959 . S
C692 C690 1.561 . S
C693 C690 1.526 . S
C693 C694 1.396 . S
C693 C698 1.390 . S
C694 C688 1.465 . S
C694 C693 1.396 . S
C694 C695 1.399 . S
C695 H681 0.929 . S
C695 C694 1.399 . S
C695 C696 1.385 . S
C696 H682 0.931 . S
C696 C695 1.385 . S
C696 C697 1.389 . S
C697 C696 1.389 . S
C697 C698 1.387 . S
C698 H683 0.930 . S
C698 C693 1.390 . S
C698 C697 1.387 . S
H699 C711 0.930 . S
H700 C713 0.930 1_565 S
H701 C714 0.930 . S
H702 C718 0.959 . S
H703 C718 0.959 . S
H704 C718 0.961 . S
H705 C719 0.960 . S
H706 C719 0.961 . S
H707 C719 0.959 . S
H708 C722 0.929 . S
H709 C723 0.931 . S
H710 C725 0.930 1_545 S
C711 H699 0.930 . S
C711 C712 1.399 . S
C711 C716 1.399 . S
C712 C711 1.399 . S
C712 C713 1.376 . S
C713 H700 0.930 1_545 S
C713 C712 1.376 . S
C713 C714 1.388 1_545 S
C714 H701 0.930 . S
C714 C713 1.388 1_565 S
C714 C715 1.390 . S
C715 C714 1.390 . S
C715 C716 1.394 1_565 S
C715 C721 1.465 . S
C716 C711 1.399 . S
C716 C715 1.394 1_545 S
C716 C717 1.516 . S
C717 C716 1.516 . S
C717 C718 1.502 . S
C717 C719 1.561 . S
C717 C720 1.550 . S
C718 H702 0.959 . S
C718 H703 0.959 . S
C718 H704 0.961 . S
C718 C717 1.502 . S
C719 H705 0.960 . S
C719 H706 0.961 . S
C719 H707 0.959 . S
C719 C717 1.561 . S
C720 C717 1.550 . S
C720 C721 1.385 1_545 S
C720 C725 1.378 1_545 S
C721 C715 1.465 . S
C721 C720 1.385 1_565 S
C721 C722 1.399 . S
C722 H708 0.929 . S
C722 C721 1.399 . S
C722 C723 1.385 . S
C723 H709 0.931 . S
C723 C722 1.385 . S
C723 C724 1.389 . S
C724 C723 1.389 . S
C724 C725 1.387 . S
C725 H710 0.930 1_565 S
C725 C720 1.378 1_565 S
C725 C724 1.387 . S
H726 C738 0.930 1_455 S
H727 C740 0.930 . S
H728 C741 0.930 . S
H729 C745 0.959 . S
H730 C745 0.959 . S
H731 C745 0.961 . S
H732 C746 0.960 . S
H733 C746 0.961 . S
H734 C746 0.959 . S
H735 C749 0.929 . S
H736 C750 0.931 1_655 S
H737 C752 0.930 . S
C738 H726 0.930 1_655 S
C738 C739 1.399 . S
C738 C743 1.399 1_655 S
C739 C738 1.399 . S
C739 C740 1.376 . S
C740 H727 0.930 . S
C740 C739 1.376 . S
C740 C741 1.388 . S
C741 H728 0.930 . S
C741 C740 1.388 . S
C741 C742 1.390 . S
C742 C741 1.390 . S
C742 C743 1.394 1_655 S
C742 C748 1.465 . S
C743 C738 1.399 1_455 S
C743 C742 1.394 1_455 S
C743 C744 1.516 . S
C744 C743 1.516 . S
C744 C745 1.502 . S
C744 C746 1.561 . S
C744 C747 1.526 . S
C745 H729 0.959 . S
C745 H730 0.959 . S
C745 H731 0.961 . S
C745 C744 1.502 . S
C746 H732 0.960 . S
C746 H733 0.961 . S
C746 H734 0.959 . S
C746 C744 1.561 . S
C747 C744 1.526 . S
C747 C748 1.396 1_455 S
C747 C752 1.390 . S
C748 C742 1.465 . S
C748 C747 1.396 1_655 S
C748 C749 1.399 . S
C749 H735 0.929 . S
C749 C748 1.399 . S
C749 C750 1.385 1_655 S
C750 H736 0.931 1_455 S
C750 C749 1.385 1_455 S
C750 C751 1.389 . S
C751 C750 1.389 . S
C751 C752 1.387 . S
C752 H737 0.930 . S
C752 C747 1.390 . S
C752 C751 1.387 . S
H753 C765 0.930 . S
H754 C767 0.930 . S
H755 C768 0.930 . S
H756 C772 0.959 . S
H757 C772 0.959 . S
H758 C772 0.961 . S
H759 C773 0.960 . S
H760 C773 0.961 . S
H761 C773 0.959 . S
H762 C776 0.929 . S
H763 C777 0.931 . S
H764 C779 0.930 . S
C765 H753 0.930 . S
C765 C766 1.399 . S
C765 C770 1.399 . S
C766 C765 1.399 . S
C766 C767 1.376 . S
C767 H754 0.930 . S
C767 C766 1.376 . S
C767 C768 1.388 . S
C768 H755 0.930 . S
C768 C767 1.388 . S
C768 C769 1.390 . S
C769 C768 1.390 . S
C769 C770 1.394 . S
C769 C775 1.465 . S
C770 C765 1.399 . S
C770 C769 1.394 . S
C770 C771 1.516 . S
C771 C770 1.516 . S
C771 C772 1.502 . S
C771 C773 1.561 . S
C771 C774 1.526 . S
C772 H756 0.959 . S
C772 H757 0.959 . S
C772 H758 0.961 . S
C772 C771 1.502 . S
C773 H759 0.960 . S
C773 H760 0.961 . S
C773 H761 0.959 . S
C773 C771 1.561 . S
C774 C771 1.526 . S
C774 C775 1.396 . S
C774 C779 1.390 . S
C775 C769 1.465 . S
C775 C774 1.396 . S
C775 C776 1.399 . S
C776 H762 0.929 . S
C776 C775 1.399 . S
C776 C777 1.385 . S
C777 H763 0.931 . S
C777 C776 1.385 . S
C777 C778 1.389 . S
C778 C777 1.389 . S
C778 C779 1.387 . S
C779 H764 0.930 . S
C779 C774 1.390 . S
C779 C778 1.387 . S
H780 C792 0.930 . S
H781 C794 0.925 1_565 S
H782 C795 0.930 . S
H783 C799 0.959 . S
H784 C799 0.959 . S
H785 C799 0.961 . S
H786 C800 0.960 . S
H787 C800 0.961 . S
H788 C800 0.959 . S
H789 C803 0.929 . S
H790 C804 0.931 . S
H791 C806 0.930 1_545 S
C792 H780 0.930 . S
C792 C793 1.399 . S
C792 C797 1.399 . S
C793 C792 1.399 . S
C793 C794 1.390 . S
C794 H781 0.925 1_545 S
C794 C793 1.390 . S
C794 C795 1.380 1_545 S
C795 H782 0.930 . S
C795 C794 1.380 1_565 S
C795 C796 1.390 . S
C796 C795 1.390 . S
C796 C797 1.394 1_565 S
C796 C802 1.465 . S
C797 C792 1.399 . S
C797 C796 1.394 1_545 S
C797 C798 1.516 . S
C798 C797 1.516 . S
C798 C799 1.502 . S
C798 C800 1.561 . S
C798 C801 1.526 . S
C799 H783 0.959 . S
C799 H784 0.959 . S
C799 H785 0.961 . S
C799 C798 1.502 . S
C800 H786 0.960 . S
C800 H787 0.961 . S
C800 H788 0.959 . S
C800 C798 1.561 . S
C801 C798 1.526 . S
C801 C802 1.396 1_545 S
C801 C806 1.390 1_545 S
C802 C796 1.465 . S
C802 C801 1.396 1_565 S
C802 C803 1.399 . S
C803 H789 0.929 . S
C803 C802 1.399 . S
C803 C804 1.385 . S
C804 H790 0.931 . S
C804 C803 1.385 . S
C804 C805 1.389 . S
C805 C804 1.389 . S
C805 C806 1.387 . S
C806 H791 0.930 1_565 S
C806 C801 1.390 1_565 S
C806 C805 1.387 . S
H807 C819 0.930 . S
H808 C821 0.930 1_455 S
H809 C822 0.930 . S
H810 C826 0.959 . S
H811 C826 0.959 . S
H812 C826 0.961 . S
H813 C827 0.960 . S
H814 C827 0.961 . S
H815 C827 0.959 1_455 S
H816 C830 0.929 . S
H817 C831 0.931 . S
H818 C833 0.928 1_655 S
C819 H807 0.930 . S
C819 C820 1.399 . S
C819 C824 1.399 . S
C820 C819 1.399 . S
C820 C821 1.376 . S
C821 H808 0.930 1_655 S
C821 C820 1.376 . S
C821 C822 1.388 1_655 S
C822 H809 0.930 . S
C822 C821 1.388 1_455 S
C822 C823 1.390 . S
C823 C822 1.390 . S
C823 C824 1.394 1_455 S
C823 C829 1.465 . S
C824 C819 1.399 . S
C824 C823 1.394 1_655 S
C824 C825 1.516 . S
C825 C824 1.516 . S
C825 C826 1.502 . S
C825 C827 1.561 . S
C825 C828 1.526 1_655 S
C826 H810 0.959 . S
C826 H811 0.959 . S
C826 H812 0.961 . S
C826 C825 1.502 . S
C827 H813 0.960 . S
C827 H814 0.961 . S
C827 H815 0.959 1_655 S
C827 C825 1.561 . S
C828 C825 1.526 1_455 S
C828 C829 1.396 . S
C828 C833 1.390 . S
C829 C823 1.465 . S
C829 C828 1.396 . S
C829 C830 1.399 . S
C830 H816 0.929 . S
C830 C829 1.399 . S
C830 C831 1.385 . S
C831 H817 0.931 . S
C831 C830 1.385 . S
C831 C832 1.389 . S
C832 C831 1.389 . S
C832 C833 1.387 . S
C833 H818 0.928 1_455 S
C833 C828 1.390 . S
C833 C832 1.387 . S
H834 C846 0.930 . S
H835 C848 0.930 . S
H836 C849 0.930 . S
H837 C853 0.959 . S
H838 C853 0.959 . S
H839 C853 0.961 . S
H840 C854 0.960 . S
H841 C854 0.961 . S
H842 C854 0.959 . S
H843 C857 0.929 . S
H844 C858 0.931 . S
H845 C860 0.930 . S
C846 H834 0.930 . S
C846 C847 1.399 . S
C846 C851 1.399 . S
C847 C846 1.399 . S
C847 C848 1.376 . S
C848 H835 0.930 . S
C848 C847 1.376 . S
C848 C849 1.388 . S
C849 H836 0.930 . S
C849 C848 1.388 . S
C849 C850 1.390 . S
C850 C849 1.390 . S
C850 C851 1.394 . S
C850 C856 1.465 . S
C851 C846 1.399 . S
C851 C850 1.394 . S
C851 C852 1.516 . S
C852 C851 1.516 . S
C852 C853 1.502 . S
C852 C854 1.561 . S
C852 C855 1.526 . S
C853 H837 0.959 . S
C853 H838 0.959 . S
C853 H839 0.961 . S
C853 C852 1.502 . S
C854 H840 0.960 . S
C854 H841 0.961 . S
C854 H842 0.959 . S
C854 C852 1.561 . S
C855 C852 1.526 . S
C855 C856 1.396 . S
C855 C860 1.390 . S
C856 C850 1.465 . S
C856 C855 1.396 . S
C856 C857 1.399 . S
C857 H843 0.929 . S
C857 C856 1.399 . S
C857 C858 1.385 . S
C858 H844 0.931 . S
C858 C857 1.385 . S
C858 C859 1.389 . S
C859 C858 1.389 . S
C859 C860 1.387 . S
C860 H845 0.930 . S
C860 C855 1.390 . S
C860 C859 1.387 . S
H861 C873 0.930 . S
H862 C875 0.930 . S
H863 C876 0.930 . S
H864 C880 0.959 . S
H865 C880 0.959 . S
H866 C880 0.961 1_556 S
H867 C881 0.960 1_556 S
H868 C881 0.961 1_556 S
H869 C881 0.959 . S
H870 C884 0.929 . S
H871 C885 0.931 . S
H872 C887 0.930 . S
C873 H861 0.930 . S
C873 C874 1.399 . S
C873 C878 1.399 . S
C874 C873 1.399 . S
C874 C875 1.376 . S
C875 H862 0.930 . S
C875 C874 1.376 . S
C875 C876 1.388 . S
C876 H863 0.930 . S
C876 C875 1.388 . S
C876 C877 1.390 . S
C877 C876 1.390 . S
C877 C878 1.394 . S
C877 C883 1.465 . S
C878 C873 1.399 . S
C878 C877 1.394 . S
C878 C879 1.516 . S
C879 C878 1.516 . S
C879 C880 1.502 . S
C879 C881 1.561 . S
C879 C882 1.526 . S
C880 H864 0.959 . S
C880 H865 0.959 . S
C880 H866 0.961 1_554 S
C880 C879 1.502 . S
C881 H867 0.960 1_554 S
C881 H868 0.961 1_554 S
C881 H869 0.959 . S
C881 C879 1.561 . S
C882 C879 1.526 . S
C882 C883 1.396 . S
C882 C887 1.390 . S
C883 C877 1.465 . S
C883 C882 1.396 . S
C883 C884 1.399 . S
C884 H870 0.929 . S
C884 C883 1.399 . S
C884 C885 1.385 . S
C885 H871 0.931 . S
C885 C884 1.385 . S
C885 C886 1.389 . S
C886 C885 1.389 . S
C886 C887 1.387 . S
C887 H872 0.930 . S
C887 C882 1.390 . S
C887 C886 1.387 . S
H888 C900 0.930 . S
H889 C902 0.930 1_556 S
H890 C903 0.930 1_556 S
H891 C907 0.959 . S
H892 C907 0.959 . S
H893 C907 0.961 . S
H894 C908 0.960 . S
H895 C908 0.961 . S
H896 C908 0.959 . S
H897 C911 0.929 . S
H898 C912 0.931 . S
H899 C914 0.930 . S
C900 H888 0.930 . S
C900 C901 1.399 . S
C900 C905 1.399 . S
C901 C900 1.399 . S
C901 C902 1.376 . S
C902 H889 0.930 1_554 S
C902 C901 1.376 . S
C902 C903 1.388 . S
C903 H890 0.930 1_554 S
C903 C902 1.388 . S
C903 C904 1.390 . S
C904 C903 1.390 . S
C904 C905 1.394 . S
C904 C910 1.465 . S
C905 C900 1.399 . S
C905 C904 1.394 . S
C905 C906 1.516 . S
C906 C905 1.516 . S
C906 C907 1.502 . S
C906 C908 1.561 . S
C906 C909 1.526 . S
C907 H891 0.959 . S
C907 H892 0.959 . S
C907 H893 0.961 . S
C907 C906 1.502 . S
C908 H894 0.960 . S
C908 H895 0.961 . S
C908 H896 0.959 . S
C908 C906 1.561 . S
C909 C906 1.526 . S
C909 C910 1.396 . S
C909 C914 1.390 . S
C910 C904 1.465 . S
C910 C909 1.396 . S
C910 C911 1.399 . S
C911 H897 0.929 . S
C911 C910 1.399 . S
C911 C912 1.385 . S
C912 H898 0.931 . S
C912 C911 1.385 . S
C912 C913 1.389 . S
C913 C912 1.389 . S
C913 C914 1.387 . S
C914 H899 0.930 . S
C914 C909 1.390 . S
C914 C913 1.387 . S
H915 C927 0.930 . S
H916 C929 0.930 . S
H917 C930 0.930 . S
H918 C934 0.959 . S
H919 C934 0.959 . S
H920 C934 0.961 . S
H921 C935 0.960 . S
H922 C935 0.961 . S
H923 C935 0.959 . S
H924 C938 0.929 . S
H925 C939 0.931 . S
H926 C941 0.930 . S
C927 H915 0.930 . S
C927 C928 1.399 . S
C927 C932 1.399 . S
C928 C927 1.399 . S
C928 C929 1.376 . S
C929 H916 0.930 . S
C929 C928 1.376 . S
C929 C930 1.388 . S
C930 H917 0.930 . S
C930 C929 1.388 . S
C930 C931 1.390 . S
C931 C930 1.390 . S
C931 C932 1.394 . S
C931 C937 1.465 . S
C932 C927 1.399 . S
C932 C931 1.394 . S
C932 C933 1.516 . S
C933 C932 1.516 . S
C933 C934 1.502 . S
C933 C935 1.561 . S
C933 C936 1.526 . S
C934 H918 0.959 . S
C934 H919 0.959 . S
C934 H920 0.961 . S
C934 C933 1.502 . S
C935 H921 0.960 . S
C935 H922 0.961 . S
C935 H923 0.959 . S
C935 C933 1.561 . S
C936 C933 1.526 . S
C936 C937 1.396 . S
C936 C941 1.390 . S
C937 C931 1.465 . S
C937 C936 1.396 . S
C937 C938 1.399 . S
C938 H924 0.929 . S
C938 C937 1.399 . S
C938 C939 1.385 . S
C939 H925 0.931 . S
C939 C938 1.385 . S
C939 C940 1.389 . S
C940 C939 1.389 . S
C940 C941 1.387 . S
C941 H926 0.930 . S
C941 C936 1.390 . S
C941 C940 1.387 . S
H942 C954 0.930 . S
H943 C956 0.930 . S
H944 C957 0.930 . S
H945 C961 0.959 . S
H946 C961 0.959 . S
H947 C961 0.961 . S
H948 C962 0.960 . S
H949 C962 0.961 . S
H950 C962 0.959 . S
H951 C965 0.929 . S
H952 C966 0.931 . S
H953 C968 0.930 . S
C954 H942 0.930 . S
C954 C955 1.399 . S
C954 C959 1.399 . S
C955 C954 1.399 . S
C955 C956 1.376 . S
C956 H943 0.930 . S
C956 C955 1.376 . S
C956 C957 1.388 . S
C957 H944 0.930 . S
C957 C956 1.388 . S
C957 C958 1.390 . S
C958 C957 1.390 . S
C958 C959 1.394 . S
C958 C964 1.465 . S
C959 C954 1.399 . S
C959 C958 1.394 . S
C959 C960 1.516 . S
C960 C959 1.516 . S
C960 C961 1.502 . S
C960 C962 1.561 . S
C960 C963 1.526 . S
C961 H945 0.959 . S
C961 H946 0.959 . S
C961 H947 0.961 . S
C961 C960 1.502 . S
C962 H948 0.960 . S
C962 H949 0.961 . S
C962 H950 0.959 . S
C962 C960 1.561 . S
C963 C960 1.526 . S
C963 C964 1.396 . S
C963 C968 1.390 . S
C964 C958 1.465 . S
C964 C963 1.396 . S
C964 C965 1.399 . S
C965 H951 0.929 . S
C965 C964 1.399 . S
C965 C966 1.385 . S
C966 H952 0.931 . S
C966 C965 1.385 . S
C966 C967 1.389 . S
C967 C966 1.389 . S
C967 C968 1.387 . S
C968 H953 0.930 . S
C968 C963 1.390 . S
C968 C967 1.387 . S
H969 C981 0.930 . S
H970 C983 0.930 . S
H971 C984 0.930 . S
H972 C988 0.959 . S
H973 C988 0.959 . S
H974 C988 0.961 . S
H975 C989 0.960 . S
H976 C989 0.961 . S
H977 C989 0.959 . S
H978 C992 0.929 . S
H979 C993 0.931 . S
H980 C995 0.930 . S
C981 H969 0.930 . S
C981 C982 1.399 . S
C981 C986 1.399 . S
C982 C981 1.399 . S
C982 C983 1.376 . S
C983 H970 0.930 . S
C983 C982 1.376 . S
C983 C984 1.388 . S
C984 H971 0.930 . S
C984 C983 1.388 . S
C984 C985 1.390 . S
C985 C984 1.390 . S
C985 C986 1.394 . S
C985 C991 1.465 . S
C986 C981 1.399 . S
C986 C985 1.394 . S
C986 C987 1.516 . S
C987 C986 1.516 . S
C987 C988 1.502 . S
C987 C989 1.561 . S
C987 C990 1.526 . S
C988 H972 0.959 . S
C988 H973 0.959 . S
C988 H974 0.961 . S
C988 C987 1.502 . S
C989 H975 0.960 . S
C989 H976 0.961 . S
C989 H977 0.959 . S
C989 C987 1.561 . S
C990 C987 1.526 . S
C990 C991 1.396 . S
C990 C995 1.390 . S
C991 C985 1.465 . S
C991 C990 1.396 . S
C991 C992 1.399 . S
C992 H978 0.929 . S
C992 C991 1.399 . S
C992 C993 1.385 . S
C993 H979 0.931 . S
C993 C992 1.385 . S
C993 C994 1.389 . S
C994 C993 1.389 . S
C994 C995 1.387 . S
C995 H980 0.930 . S
C995 C990 1.390 . S
C995 C994 1.387 . S
H996 C1008 0.930 . S
H997 C1010 0.930 . S
H998 C1011 0.930 . S
H999 C1015 0.959 . S
H1000 C1015 0.959 . S
H1001 C1015 0.961 . S
H1002 C1016 0.960 . S
H1003 C1016 0.961 . S
H1004 C1016 0.959 . S
H1005 C1019 0.929 . S
H1006 C1020 0.931 . S
H1007 C1022 0.930 . S
C1008 H996 0.930 . S
C1008 C1009 1.399 . S
C1008 C1013 1.399 . S
C1009 C1008 1.399 . S
C1009 C1010 1.376 . S
C1010 H997 0.930 . S
C1010 C1009 1.376 . S
C1010 C1011 1.388 . S
C1011 H998 0.930 . S
C1011 C1010 1.388 . S
C1011 C1012 1.390 . S
C1012 C1011 1.390 . S
C1012 C1013 1.394 . S
C1012 C1018 1.465 . S
C1013 C1008 1.399 . S
C1013 C1012 1.394 . S
C1013 C1014 1.516 . S
C1014 C1013 1.516 . S
C1014 C1015 1.502 . S
C1014 C1016 1.561 . S
C1014 C1017 1.526 . S
C1015 H999 0.959 . S
C1015 H1000 0.959 . S
C1015 H1001 0.961 . S
C1015 C1014 1.502 . S
C1016 H1002 0.960 . S
C1016 H1003 0.961 . S
C1016 H1004 0.959 . S
C1016 C1014 1.561 . S
C1017 C1014 1.526 . S
C1017 C1018 1.396 . S
C1017 C1022 1.390 . S
C1018 C1012 1.465 . S
C1018 C1017 1.396 . S
C1018 C1019 1.399 . S
C1019 H1005 0.929 . S
C1019 C1018 1.399 . S
C1019 C1020 1.385 . S
C1020 H1006 0.931 . S
C1020 C1019 1.385 . S
C1020 C1021 1.389 . S
C1021 C1020 1.389 . S
C1021 C1022 1.387 . S
C1022 H1007 0.930 . S
C1022 C1017 1.390 . S
C1022 C1021 1.387 . S
H1023 C1035 0.930 . S
H1024 C1037 0.930 1_554 S
H1025 C1038 0.930 . S
H1026 C1042 0.959 . S
H1027 C1042 0.959 . S
H1028 C1042 0.961 . S
H1029 C1043 0.960 . S
H1030 C1043 0.961 . S
H1031 C1043 0.959 . S
H1032 C1046 0.929 . S
H1033 C1047 0.931 . S
H1034 C1049 0.930 . S
C1035 H1023 0.930 . S
C1035 C1036 1.399 . S
C1035 C1040 1.399 . S
C1036 C1035 1.399 . S
C1036 C1037 1.376 . S
C1037 H1024 0.930 1_556 S
C1037 C1036 1.376 . S
C1037 C1038 1.388 . S
C1038 H1025 0.930 . S
C1038 C1037 1.388 . S
C1038 C1039 1.390 . S
C1039 C1038 1.390 . S
C1039 C1040 1.394 . S
C1039 C1045 1.465 . S
C1040 C1035 1.399 . S
C1040 C1039 1.394 . S
C1040 C1041 1.516 . S
C1041 C1040 1.516 . S
C1041 C1042 1.502 . S
C1041 C1043 1.561 . S
C1041 C1044 1.526 . S
C1042 H1026 0.959 . S
C1042 H1027 0.959 . S
C1042 H1028 0.961 . S
C1042 C1041 1.502 . S
C1043 H1029 0.960 . S
C1043 H1030 0.961 . S
C1043 H1031 0.959 . S
C1043 C1041 1.561 . S
C1044 C1041 1.526 . S
C1044 C1045 1.396 . S
C1044 C1049 1.390 . S
C1045 C1039 1.465 . S
C1045 C1044 1.396 . S
C1045 C1046 1.399 . S
C1046 H1032 0.929 . S
C1046 C1045 1.399 . S
C1046 C1047 1.385 . S
C1047 H1033 0.931 . S
C1047 C1046 1.385 . S
C1047 C1048 1.389 . S
C1048 C1047 1.389 . S
C1048 C1049 1.387 . S
C1049 H1034 0.930 . S
C1049 C1044 1.390 . S
C1049 C1048 1.387 . S
H1050 C1062 0.930 . S
H1051 C1064 0.930 . S
H1052 C1065 0.930 . S
H1053 C1069 0.959 . S
H1054 C1069 0.959 . S
H1055 C1069 0.961 . S
H1056 C1070 0.960 . S
H1057 C1070 0.961 . S
H1058 C1070 0.959 . S
H1059 C1073 0.929 . S
H1060 C1074 0.931 . S
H1061 C1076 0.930 . S
C1062 H1050 0.930 . S
C1062 C1063 1.399 . S
C1062 C1067 1.399 . S
C1063 C1062 1.399 . S
C1063 C1064 1.376 . S
C1064 H1051 0.930 . S
C1064 C1063 1.376 . S
C1064 C1065 1.388 . S
C1065 H1052 0.930 . S
C1065 C1064 1.388 . S
C1065 C1066 1.390 . S
C1066 C1065 1.390 . S
C1066 C1067 1.394 . S
C1066 C1072 1.465 . S
C1067 C1062 1.399 . S
C1067 C1066 1.394 . S
C1067 C1068 1.516 . S
C1068 C1067 1.516 . S
C1068 C1069 1.502 . S
C1068 C1070 1.561 . S
C1068 C1071 1.526 . S
C1069 H1053 0.959 . S
C1069 H1054 0.959 . S
C1069 H1055 0.961 . S
C1069 C1068 1.502 . S
C1070 H1056 0.960 . S
C1070 H1057 0.961 . S
C1070 H1058 0.959 . S
C1070 C1068 1.561 . S
C1071 C1068 1.526 . S
C1071 C1072 1.396 . S
C1071 C1076 1.390 . S
C1072 C1066 1.465 . S
C1072 C1071 1.396 . S
C1072 C1073 1.399 . S
C1073 H1059 0.929 . S
C1073 C1072 1.399 . S
C1073 C1074 1.385 . S
C1074 H1060 0.931 . S
C1074 C1073 1.385 . S
C1074 C1075 1.389 . S
C1075 C1074 1.389 . S
C1075 C1076 1.387 . S
C1076 H1061 0.930 . S
C1076 C1071 1.390 . S
C1076 C1075 1.387 . S
H1077 C1089 0.930 . S
H1078 C1091 0.930 . S
H1079 C1092 0.930 . S
H1080 C1096 0.959 . S
H1081 C1096 0.959 . S
H1082 C1096 0.961 . S
H1083 C1097 0.960 . S
H1084 C1097 0.961 . S
H1085 C1097 0.959 . S
H1086 C1100 0.929 . S
H1087 C1101 0.931 . S
H1088 C1103 0.930 . S
C1089 H1077 0.930 . S
C1089 C1090 1.399 . S
C1089 C1094 1.399 . S
C1090 C1089 1.399 . S
C1090 C1091 1.376 . S
C1091 H1078 0.930 . S
C1091 C1090 1.376 . S
C1091 C1092 1.388 . S
C1092 H1079 0.930 . S
C1092 C1091 1.388 . S
C1092 C1093 1.390 . S
C1093 C1092 1.390 . S
C1093 C1094 1.394 . S
C1093 C1099 1.465 . S
C1094 C1089 1.399 . S
C1094 C1093 1.394 . S
C1094 C1095 1.516 . S
C1095 C1094 1.516 . S
C1095 C1096 1.502 . S
C1095 C1097 1.561 . S
C1095 C1098 1.526 . S
C1096 H1080 0.959 . S
C1096 H1081 0.959 . S
C1096 H1082 0.961 . S
C1096 C1095 1.502 . S
C1097 H1083 0.960 . S
C1097 H1084 0.961 . S
C1097 H1085 0.959 . S
C1097 C1095 1.561 . S
C1098 C1095 1.526 . S
C1098 C1099 1.396 . S
C1098 C1103 1.390 . S
C1099 C1093 1.465 . S
C1099 C1098 1.396 . S
C1099 C1100 1.399 . S
C1100 H1086 0.929 . S
C1100 C1099 1.399 . S
C1100 C1101 1.385 . S
C1101 H1087 0.931 . S
C1101 C1100 1.385 . S
C1101 C1102 1.389 . S
C1102 C1101 1.389 . S
C1102 C1103 1.387 . S
C1103 H1088 0.930 . S
C1103 C1098 1.390 . S
C1103 C1102 1.387 . S
H1104 C1116 0.930 . S
H1105 C1118 0.930 . S
H1106 C1119 0.930 . S
H1107 C1123 0.959 . S
H1108 C1123 0.959 . S
H1109 C1123 0.961 . S
H1110 C1124 0.960 . S
H1111 C1124 0.961 . S
H1112 C1124 0.959 . S
H1113 C1127 0.929 . S
H1114 C1128 0.931 . S
H1115 C1130 0.930 . S
C1116 H1104 0.930 . S
C1116 C1117 1.399 . S
C1116 C1121 1.399 . S
C1117 C1116 1.399 . S
C1117 C1118 1.376 . S
C1118 H1105 0.930 . S
C1118 C1117 1.376 . S
C1118 C1119 1.388 . S
C1119 H1106 0.930 . S
C1119 C1118 1.388 . S
C1119 C1120 1.390 . S
C1120 C1119 1.390 . S
C1120 C1121 1.394 . S
C1120 C1126 1.465 . S
C1121 C1116 1.399 . S
C1121 C1120 1.394 . S
C1121 C1122 1.516 . S
C1122 C1121 1.516 . S
C1122 C1123 1.502 . S
C1122 C1124 1.561 . S
C1122 C1125 1.526 . S
C1123 H1107 0.959 . S
C1123 H1108 0.959 . S
C1123 H1109 0.961 . S
C1123 C1122 1.502 . S
C1124 H1110 0.960 . S
C1124 H1111 0.961 . S
C1124 H1112 0.959 . S
C1124 C1122 1.561 . S
C1125 C1122 1.526 . S
C1125 C1126 1.396 . S
C1125 C1130 1.390 . S
C1126 C1120 1.465 . S
C1126 C1125 1.396 . S
C1126 C1127 1.399 . S
C1127 H1113 0.929 . S
C1127 C1126 1.399 . S
C1127 C1128 1.385 . S
C1128 H1114 0.931 . S
C1128 C1127 1.385 . S
C1128 C1129 1.389 . S
C1129 C1128 1.389 . S
C1129 C1130 1.387 . S
C1130 H1115 0.930 . S
C1130 C1125 1.390 . S
C1130 C1129 1.387 . S
H1131 C1143 0.930 . S
H1132 C1145 0.930 . S
H1133 C1146 0.930 . S
H1134 C1150 0.959 . S
H1135 C1150 0.959 . S
H1136 C1150 0.961 . S
H1137 C1151 0.960 . S
H1138 C1151 0.961 . S
H1139 C1151 0.959 . S
H1140 C1154 0.929 . S
H1141 C1155 0.931 . S
H1142 C1157 0.930 . S
C1143 H1131 0.930 . S
C1143 C1144 1.399 . S
C1143 C1148 1.399 . S
C1144 C1143 1.399 . S
C1144 C1145 1.376 . S
C1145 H1132 0.930 . S
C1145 C1144 1.376 . S
C1145 C1146 1.388 . S
C1146 H1133 0.930 . S
C1146 C1145 1.388 . S
C1146 C1147 1.390 . S
C1147 C1146 1.390 . S
C1147 C1148 1.394 . S
C1147 C1153 1.465 . S
C1148 C1143 1.399 . S
C1148 C1147 1.394 . S
C1148 C1149 1.516 . S
C1149 C1148 1.516 . S
C1149 C1150 1.502 . S
C1149 C1151 1.561 . S
C1149 C1152 1.526 . S
C1150 H1134 0.959 . S
C1150 H1135 0.959 . S
C1150 H1136 0.961 . S
C1150 C1149 1.502 . S
C1151 H1137 0.960 . S
C1151 H1138 0.961 . S
C1151 H1139 0.959 . S
C1151 C1149 1.561 . S
C1152 C1149 1.526 . S
C1152 C1153 1.396 . S
C1152 C1157 1.390 . S
C1153 C1147 1.465 . S
C1153 C1152 1.396 . S
C1153 C1154 1.399 . S
C1154 H1140 0.929 . S
C1154 C1153 1.399 . S
C1154 C1155 1.385 . S
C1155 H1141 0.931 . S
C1155 C1154 1.385 . S
C1155 C1156 1.389 . S
C1156 C1155 1.389 . S
C1156 C1157 1.387 . S
C1157 H1142 0.930 . S
C1157 C1152 1.390 . S
C1157 C1156 1.387 . S
H1158 C1170 0.930 . S
H1159 C1172 0.930 . S
H1160 C1173 0.930 . S
H1161 C1177 0.959 . S
H1162 C1177 0.959 . S
H1163 C1177 0.961 . S
H1164 C1178 0.960 . S
H1165 C1178 0.961 . S
H1166 C1178 0.959 . S
H1167 C1181 0.929 . S
H1168 C1182 0.931 . S
H1169 C1184 0.930 . S
C1170 H1158 0.930 . S
C1170 C1171 1.399 . S
C1170 C1175 1.399 . S
C1171 C1170 1.399 . S
C1171 C1172 1.376 . S
C1172 H1159 0.930 . S
C1172 C1171 1.376 . S
C1172 C1173 1.388 . S
C1173 H1160 0.930 . S
C1173 C1172 1.388 . S
C1173 C1174 1.390 . S
C1174 C1173 1.390 . S
C1174 C1175 1.394 . S
C1174 C1180 1.465 . S
C1175 C1170 1.399 . S
C1175 C1174 1.394 . S
C1175 C1176 1.516 . S
C1176 C1175 1.516 . S
C1176 C1177 1.502 . S
C1176 C1178 1.561 . S
C1176 C1179 1.526 . S
C1177 H1161 0.959 . S
C1177 H1162 0.959 . S
C1177 H1163 0.961 . S
C1177 C1176 1.502 . S
C1178 H1164 0.960 . S
C1178 H1165 0.961 . S
C1178 H1166 0.959 . S
C1178 C1176 1.561 . S
C1179 C1176 1.526 . S
C1179 C1180 1.396 . S
C1179 C1184 1.390 . S
C1180 C1174 1.465 . S
C1180 C1179 1.396 . S
C1180 C1181 1.399 . S
C1181 H1167 0.929 . S
C1181 C1180 1.399 . S
C1181 C1182 1.385 . S
C1182 H1168 0.931 . S
C1182 C1181 1.385 . S
C1182 C1183 1.389 . S
C1183 C1182 1.389 . S
C1183 C1184 1.387 . S
C1184 H1169 0.930 . S
C1184 C1179 1.390 . S
C1184 C1183 1.387 . S
H1185 C1197 0.930 . S
H1186 C1199 0.930 . S
H1187 C1200 0.930 . S
H1188 C1204 0.959 . S
H1189 C1204 0.959 . S
H1190 C1204 0.961 . S
H1191 C1205 0.960 . S
H1192 C1205 0.961 . S
H1193 C1205 0.959 . S
H1194 C1208 0.929 . S
H1195 C1209 0.931 . S
H1196 C1211 0.930 . S
C1197 H1185 0.930 . S
C1197 C1198 1.399 . S
C1197 C1202 1.399 . S
C1198 C1197 1.399 . S
C1198 C1199 1.376 . S
C1199 H1186 0.930 . S
C1199 C1198 1.376 . S
C1199 C1200 1.388 . S
C1200 H1187 0.930 . S
C1200 C1199 1.388 . S
C1200 C1201 1.390 . S
C1201 C1200 1.390 . S
C1201 C1202 1.394 . S
C1201 C1207 1.465 . S
C1202 C1197 1.399 . S
C1202 C1201 1.394 . S
C1202 C1203 1.516 . S
C1203 C1202 1.516 . S
C1203 C1204 1.502 . S
C1203 C1205 1.561 . S
C1203 C1206 1.526 . S
C1204 H1188 0.959 . S
C1204 H1189 0.959 . S
C1204 H1190 0.961 . S
C1204 C1203 1.502 . S
C1205 H1191 0.960 . S
C1205 H1192 0.961 . S
C1205 H1193 0.959 . S
C1205 C1203 1.561 . S
C1206 C1203 1.526 . S
C1206 C1207 1.396 . S
C1206 C1211 1.390 . S
C1207 C1201 1.465 . S
C1207 C1206 1.396 . S
C1207 C1208 1.399 . S
C1208 H1194 0.929 . S
C1208 C1207 1.399 . S
C1208 C1209 1.385 . S
C1209 H1195 0.931 . S
C1209 C1208 1.385 . S
C1209 C1210 1.389 . S
C1210 C1209 1.389 . S
C1210 C1211 1.387 . S
C1211 H1196 0.930 . S
C1211 C1206 1.390 . S
C1211 C1210 1.387 . S
H1212 C1224 0.930 . S
H1213 C1226 0.930 . S
H1214 C1227 0.930 . S
H1215 C1231 0.959 . S
H1216 C1231 0.959 . S
H1217 C1231 0.961 . S
H1218 C1232 0.960 . S
H1219 C1232 0.961 . S
H1220 C1232 0.959 . S
H1221 C1235 0.929 . S
H1222 C1236 0.931 . S
H1223 C1238 0.930 . S
C1224 H1212 0.930 . S
C1224 C1225 1.399 . S
C1224 C1229 1.399 . S
C1225 C1224 1.399 . S
C1225 C1226 1.376 . S
C1226 H1213 0.930 . S
C1226 C1225 1.376 . S
C1226 C1227 1.388 . S
C1227 H1214 0.930 . S
C1227 C1226 1.388 . S
C1227 C1228 1.390 . S
C1228 C1227 1.390 . S
C1228 C1229 1.394 . S
C1228 C1234 1.465 . S
C1229 C1224 1.399 . S
C1229 C1228 1.394 . S
C1229 C1230 1.516 . S
C1230 C1229 1.516 . S
C1230 C1231 1.502 . S
C1230 C1232 1.561 . S
C1230 C1233 1.526 . S
C1231 H1215 0.959 . S
C1231 H1216 0.959 . S
C1231 H1217 0.961 . S
C1231 C1230 1.502 . S
C1232 H1218 0.960 . S
C1232 H1219 0.961 . S
C1232 H1220 0.959 . S
C1232 C1230 1.561 . S
C1233 C1230 1.526 . S
C1233 C1234 1.396 . S
C1233 C1238 1.390 . S
C1234 C1228 1.465 . S
C1234 C1233 1.396 . S
C1234 C1235 1.399 . S
C1235 H1221 0.929 . S
C1235 C1234 1.399 . S
C1235 C1236 1.385 . S
C1236 H1222 0.931 . S
C1236 C1235 1.385 . S
C1236 C1237 1.389 . S
C1237 C1236 1.389 . S
C1237 C1238 1.387 . S
C1238 H1223 0.930 . S
C1238 C1233 1.390 . S
C1238 C1237 1.387 . S
H1239 C1251 0.930 . S
H1240 C1253 0.930 . S
H1241 C1254 0.930 . S
H1242 C1258 0.959 . S
H1243 C1258 0.959 . S
H1244 C1258 0.961 . S
H1245 C1259 0.960 . S
H1246 C1259 0.961 . S
H1247 C1259 0.959 . S
H1248 C1262 0.929 . S
H1249 C1263 0.931 . S
H1250 C1265 0.930 . S
C1251 H1239 0.930 . S
C1251 C1252 1.399 . S
C1251 C1256 1.399 . S
C1252 C1251 1.399 . S
C1252 C1253 1.376 . S
C1253 H1240 0.930 . S
C1253 C1252 1.376 . S
C1253 C1254 1.388 . S
C1254 H1241 0.930 . S
C1254 C1253 1.388 . S
C1254 C1255 1.390 . S
C1255 C1254 1.390 . S
C1255 C1256 1.394 . S
C1255 C1261 1.465 . S
C1256 C1251 1.399 . S
C1256 C1255 1.394 . S
C1256 C1257 1.516 . S
C1257 C1256 1.516 . S
C1257 C1258 1.502 . S
C1257 C1259 1.561 . S
C1257 C1260 1.526 . S
C1258 H1242 0.959 . S
C1258 H1243 0.959 . S
C1258 H1244 0.961 . S
C1258 C1257 1.502 . S
C1259 H1245 0.960 . S
C1259 H1246 0.961 . S
C1259 H1247 0.959 . S
C1259 C1257 1.561 . S
C1260 C1257 1.526 . S
C1260 C1261 1.396 . S
C1260 C1265 1.390 . S
C1261 C1255 1.465 . S
C1261 C1260 1.396 . S
C1261 C1262 1.399 . S
C1262 H1248 0.929 . S
C1262 C1261 1.399 . S
C1262 C1263 1.385 . S
C1263 H1249 0.931 . S
C1263 C1262 1.385 . S
C1263 C1264 1.389 . S
C1264 C1263 1.389 . S
C1264 C1265 1.387 . S
C1265 H1250 0.930 . S
C1265 C1260 1.390 . S
C1265 C1264 1.387 . S
H1266 C1278 0.930 . S
H1267 C1280 0.930 . S
H1268 C1281 0.930 . S
H1269 C1285 0.959 . S
H1270 C1285 0.959 . S
H1271 C1285 0.961 . S
H1272 C1286 0.960 . S
H1273 C1286 0.961 . S
H1274 C1286 0.959 . S
H1275 C1289 0.929 . S
H1276 C1290 0.931 . S
H1277 C1292 0.930 . S
C1278 H1266 0.930 . S
C1278 C1279 1.399 . S
C1278 C1283 1.399 . S
C1279 C1278 1.399 . S
C1279 C1280 1.376 . S
C1280 H1267 0.930 . S
C1280 C1279 1.376 . S
C1280 C1281 1.388 . S
C1281 H1268 0.930 . S
C1281 C1280 1.388 . S
C1281 C1282 1.390 . S
C1282 C1281 1.390 . S
C1282 C1283 1.394 . S
C1282 C1288 1.465 . S
C1283 C1278 1.399 . S
C1283 C1282 1.394 . S
C1283 C1284 1.516 . S
C1284 C1283 1.516 . S
C1284 C1285 1.502 . S
C1284 C1286 1.561 . S
C1284 C1287 1.526 . S
C1285 H1269 0.959 . S
C1285 H1270 0.959 . S
C1285 H1271 0.961 . S
C1285 C1284 1.502 . S
C1286 H1272 0.960 . S
C1286 H1273 0.961 . S
C1286 H1274 0.959 . S
C1286 C1284 1.561 . S
C1287 C1284 1.526 . S
C1287 C1288 1.396 . S
C1287 C1292 1.390 . S
C1288 C1282 1.465 . S
C1288 C1287 1.396 . S
C1288 C1289 1.399 . S
C1289 H1275 0.929 . S
C1289 C1288 1.399 . S
C1289 C1290 1.385 . S
C1290 H1276 0.931 . S
C1290 C1289 1.385 . S
C1290 C1291 1.389 . S
C1291 C1290 1.389 . S
C1291 C1292 1.387 . S
C1292 H1277 0.930 . S
C1292 C1287 1.390 . S
C1292 C1291 1.387 . S
H1293 C1305 0.930 . S
H1294 C1307 0.930 . S
H1295 C1308 0.930 . S
H1296 C1312 0.959 . S
H1297 C1312 0.959 . S
H1298 C1312 0.961 . S
H1299 C1313 0.960 . S
H1300 C1313 0.961 . S
H1301 C1313 0.959 . S
H1302 C1316 0.929 . S
H1303 C1317 0.931 . S
H1304 C1319 0.930 . S
C1305 H1293 0.930 . S
C1305 C1306 1.399 . S
C1305 C1310 1.399 . S
C1306 C1305 1.399 . S
C1306 C1307 1.376 . S
C1307 H1294 0.930 . S
C1307 C1306 1.376 . S
C1307 C1308 1.388 . S
C1308 H1295 0.930 . S
C1308 C1307 1.388 . S
C1308 C1309 1.390 . S
C1309 C1308 1.390 . S
C1309 C1310 1.394 . S
C1309 C1315 1.465 . S
C1310 C1305 1.399 . S
C1310 C1309 1.394 . S
C1310 C1311 1.516 . S
C1311 C1310 1.516 . S
C1311 C1312 1.502 . S
C1311 C1313 1.561 . S
C1311 C1314 1.526 . S
C1312 H1296 0.959 . S
C1312 H1297 0.959 . S
C1312 H1298 0.961 . S
C1312 C1311 1.502 . S
C1313 H1299 0.960 . S
C1313 H1300 0.961 . S
C1313 H1301 0.959 . S
C1313 C1311 1.561 . S
C1314 C1311 1.526 . S
C1314 C1315 1.396 . S
C1314 C1319 1.390 . S
C1315 C1309 1.465 . S
C1315 C1314 1.396 . S
C1315 C1316 1.399 . S
C1316 H1302 0.929 . S
C1316 C1315 1.399 . S
C1316 C1317 1.385 . S
C1317 H1303 0.931 . S
C1317 C1316 1.385 . S
C1317 C1318 1.389 . S
C1318 C1317 1.389 . S
C1318 C1319 1.387 . S
C1319 H1304 0.930 . S
C1319 C1314 1.390 . S
C1319 C1318 1.387 . S
H1320 C1332 0.930 . S
H1321 C1334 0.930 . S
H1322 C1335 0.930 . S
H1323 C1339 0.959 . S
H1324 C1339 0.959 . S
H1325 C1339 0.961 . S
H1326 C1340 0.960 . S
H1327 C1340 0.961 . S
H1328 C1340 0.959 . S
H1329 C1343 0.929 . S
H1330 C1344 0.931 . S
H1331 C1346 0.930 . S
C1332 H1320 0.930 . S
C1332 C1333 1.399 . S
C1332 C1337 1.399 . S
C1333 C1332 1.399 . S
C1333 C1334 1.376 . S
C1334 H1321 0.930 . S
C1334 C1333 1.376 . S
C1334 C1335 1.388 . S
C1335 H1322 0.930 . S
C1335 C1334 1.388 . S
C1335 C1336 1.390 . S
C1336 C1335 1.390 . S
C1336 C1337 1.394 . S
C1336 C1342 1.465 . S
C1337 C1332 1.399 . S
C1337 C1336 1.394 . S
C1337 C1338 1.516 . S
C1338 C1337 1.516 . S
C1338 C1339 1.502 . S
C1338 C1340 1.561 . S
C1338 C1341 1.526 . S
C1339 H1323 0.959 . S
C1339 H1324 0.959 . S
C1339 H1325 0.961 . S
C1339 C1338 1.502 . S
C1340 H1326 0.960 . S
C1340 H1327 0.961 . S
C1340 H1328 0.959 . S
C1340 C1338 1.561 . S
C1341 C1338 1.526 . S
C1341 C1342 1.396 . S
C1341 C1346 1.390 . S
C1342 C1336 1.465 . S
C1342 C1341 1.396 . S
C1342 C1343 1.399 . S
C1343 H1329 0.929 . S
C1343 C1342 1.399 . S
C1343 C1344 1.385 . S
C1344 H1330 0.931 . S
C1344 C1343 1.385 . S
C1344 C1345 1.389 . S
C1345 C1344 1.389 . S
C1345 C1346 1.387 . S
C1346 H1331 0.930 . S
C1346 C1341 1.390 . S
C1346 C1345 1.387 . S
H1347 C1359 0.930 . S
H1348 C1361 0.930 . S
H1349 C1362 0.930 . S
H1350 C1366 0.959 . S
H1351 C1366 0.959 . S
H1352 C1366 0.961 . S
H1353 C1367 0.960 . S
H1354 C1367 0.961 . S
H1355 C1367 0.959 . S
H1356 C1370 0.929 . S
H1357 C1371 0.931 . S
H1358 C1373 0.930 . S
C1359 H1347 0.930 . S
C1359 C1360 1.399 . S
C1359 C1364 1.399 . S
C1360 C1359 1.399 . S
C1360 C1361 1.376 . S
C1361 H1348 0.930 . S
C1361 C1360 1.376 . S
C1361 C1362 1.388 . S
C1362 H1349 0.930 . S
C1362 C1361 1.388 . S
C1362 C1363 1.390 . S
C1363 C1362 1.390 . S
C1363 C1364 1.394 . S
C1363 C1369 1.465 . S
C1364 C1359 1.399 . S
C1364 C1363 1.394 . S
C1364 C1365 1.516 . S
C1365 C1364 1.516 . S
C1365 C1366 1.502 . S
C1365 C1367 1.561 . S
C1365 C1368 1.526 . S
C1366 H1350 0.959 . S
C1366 H1351 0.959 . S
C1366 H1352 0.961 . S
C1366 C1365 1.502 . S
C1367 H1353 0.960 . S
C1367 H1354 0.961 . S
C1367 H1355 0.959 . S
C1367 C1365 1.561 . S
C1368 C1365 1.526 . S
C1368 C1369 1.396 . S
C1368 C1373 1.390 . S
C1369 C1363 1.465 . S
C1369 C1368 1.396 . S
C1369 C1370 1.399 . S
C1370 H1356 0.929 . S
C1370 C1369 1.399 . S
C1370 C1371 1.385 . S
C1371 H1357 0.931 . S
C1371 C1370 1.385 . S
C1371 C1372 1.389 . S
C1372 C1371 1.389 . S
C1372 C1373 1.387 . S
C1373 H1358 0.930 . S
C1373 C1368 1.390 . S
C1373 C1372 1.387 . S
H1374 C1386 0.930 . S
H1375 C1388 0.930 . S
H1376 C1389 0.930 . S
H1377 C1393 0.959 . S
H1378 C1393 0.959 . S
H1379 C1393 0.961 . S
H1380 C1394 0.960 . S
H1381 C1394 0.961 . S
H1382 C1394 0.959 . S
H1383 C1397 0.929 . S
H1384 C1398 0.931 . S
H1385 C1400 0.930 . S
C1386 H1374 0.930 . S
C1386 C1387 1.399 . S
C1386 C1391 1.399 . S
C1387 C1386 1.399 . S
C1387 C1388 1.376 . S
C1388 H1375 0.930 . S
C1388 C1387 1.376 . S
C1388 C1389 1.388 . S
C1389 H1376 0.930 . S
C1389 C1388 1.388 . S
C1389 C1390 1.390 . S
C1390 C1389 1.390 . S
C1390 C1391 1.394 . S
C1390 C1396 1.465 . S
C1391 C1386 1.399 . S
C1391 C1390 1.394 . S
C1391 C1392 1.516 . S
C1392 C1391 1.516 . S
C1392 C1393 1.502 . S
C1392 C1394 1.561 . S
C1392 C1395 1.526 . S
C1393 H1377 0.959 . S
C1393 H1378 0.959 . S
C1393 H1379 0.961 . S
C1393 C1392 1.502 . S
C1394 H1380 0.960 . S
C1394 H1381 0.961 . S
C1394 H1382 0.959 . S
C1394 C1392 1.561 . S
C1395 C1392 1.526 . S
C1395 C1396 1.396 . S
C1395 C1400 1.390 . S
C1396 C1390 1.465 . S
C1396 C1395 1.396 . S
C1396 C1397 1.399 . S
C1397 H1383 0.929 . S
C1397 C1396 1.399 . S
C1397 C1398 1.385 . S
C1398 H1384 0.931 . S
C1398 C1397 1.385 . S
C1398 C1399 1.389 . S
C1399 C1398 1.389 . S
C1399 C1400 1.387 . S
C1400 H1385 0.930 . S
C1400 C1395 1.390 . S
C1400 C1399 1.387 . S
H1401 C1413 0.930 . S
H1402 C1415 0.930 . S
H1403 C1416 0.930 . S
H1404 C1420 0.959 . S
H1405 C1420 0.959 . S
H1406 C1420 0.961 . S
H1407 C1421 0.960 . S
H1408 C1421 0.961 . S
H1409 C1421 0.959 . S
H1410 C1424 0.929 . S
H1411 C1425 0.931 . S
H1412 C1427 0.930 . S
C1413 H1401 0.930 . S
C1413 C1414 1.399 . S
C1413 C1418 1.399 . S
C1414 C1413 1.399 . S
C1414 C1415 1.376 . S
C1415 H1402 0.930 . S
C1415 C1414 1.376 . S
C1415 C1416 1.388 . S
C1416 H1403 0.930 . S
C1416 C1415 1.388 . S
C1416 C1417 1.390 . S
C1417 C1416 1.390 . S
C1417 C1418 1.394 . S
C1417 C1423 1.465 . S
C1418 C1413 1.399 . S
C1418 C1417 1.394 . S
C1418 C1419 1.516 . S
C1419 C1418 1.516 . S
C1419 C1420 1.502 . S
C1419 C1421 1.561 . S
C1419 C1422 1.526 . S
C1420 H1404 0.959 . S
C1420 H1405 0.959 . S
C1420 H1406 0.961 . S
C1420 C1419 1.502 . S
C1421 H1407 0.960 . S
C1421 H1408 0.961 . S
C1421 H1409 0.959 . S
C1421 C1419 1.561 . S
C1422 C1419 1.526 . S
C1422 C1423 1.396 . S
C1422 C1427 1.390 . S
C1423 C1417 1.465 . S
C1423 C1422 1.396 . S
C1423 C1424 1.399 . S
C1424 H1410 0.929 . S
C1424 C1423 1.399 . S
C1424 C1425 1.385 . S
C1425 H1411 0.931 . S
C1425 C1424 1.385 . S
C1425 C1426 1.389 . S
C1426 C1425 1.389 . S
C1426 C1427 1.387 . S
C1427 H1412 0.930 . S
C1427 C1422 1.390 . S
C1427 C1426 1.387 . S
H1428 C1440 0.930 . S
H1429 C1442 0.930 . S
H1430 C1443 0.930 . S
H1431 C1447 0.959 . S
H1432 C1447 0.959 . S
H1433 C1447 0.961 . S
H1434 C1448 0.960 . S
H1435 C1448 0.961 . S
H1436 C1448 0.959 . S
H1437 C1451 0.929 . S
H1438 C1452 0.931 . S
H1439 C1454 0.930 . S
C1440 H1428 0.930 . S
C1440 C1441 1.399 . S
C1440 C1445 1.399 . S
C1441 C1440 1.399 . S
C1441 C1442 1.376 . S
C1442 H1429 0.930 . S
C1442 C1441 1.376 . S
C1442 C1443 1.388 . S
C1443 H1430 0.930 . S
C1443 C1442 1.388 . S
C1443 C1444 1.390 . S
C1444 C1443 1.390 . S
C1444 C1445 1.394 . S
C1444 C1450 1.465 . S
C1445 C1440 1.399 . S
C1445 C1444 1.394 . S
C1445 C1446 1.516 . S
C1446 C1445 1.516 . S
C1446 C1447 1.502 . S
C1446 C1448 1.561 . S
C1446 C1449 1.526 . S
C1447 H1431 0.959 . S
C1447 H1432 0.959 . S
C1447 H1433 0.961 . S
C1447 C1446 1.502 . S
C1448 H1434 0.960 . S
C1448 H1435 0.961 . S
C1448 H1436 0.959 . S
C1448 C1446 1.561 . S
C1449 C1446 1.526 . S
C1449 C1450 1.396 . S
C1449 C1454 1.390 . S
C1450 C1444 1.465 . S
C1450 C1449 1.396 . S
C1450 C1451 1.399 . S
C1451 H1437 0.929 . S
C1451 C1450 1.399 . S
C1451 C1452 1.385 . S
C1452 H1438 0.931 . S
C1452 C1451 1.385 . S
C1452 C1453 1.389 . S
C1453 C1452 1.389 . S
C1453 C1454 1.387 . S
C1454 H1439 0.930 . S
C1454 C1449 1.390 . S
C1454 C1453 1.387 . S
H1455 C1467 0.930 . S
H1456 C1469 0.930 . S
H1457 C1470 0.930 . S
H1458 C1474 0.959 . S
H1459 C1474 0.959 . S
H1460 C1474 0.961 . S
H1461 C1475 0.960 . S
H1462 C1475 0.961 . S
H1463 C1475 0.959 . S
H1464 C1478 0.929 . S
H1465 C1479 0.931 . S
H1466 C1481 0.930 . S
C1467 H1455 0.930 . S
C1467 C1468 1.399 . S
C1467 C1472 1.399 . S
C1468 C1467 1.399 . S
C1468 C1469 1.376 . S
C1469 H1456 0.930 . S
C1469 C1468 1.376 . S
C1469 C1470 1.388 . S
C1470 H1457 0.930 . S
C1470 C1469 1.388 . S
C1470 C1471 1.390 . S
C1471 C1470 1.390 . S
C1471 C1472 1.394 . S
C1471 C1477 1.465 . S
C1472 C1467 1.399 . S
C1472 C1471 1.394 . S
C1472 C1473 1.516 . S
C1473 C1472 1.516 . S
C1473 C1474 1.502 . S
C1473 C1475 1.561 . S
C1473 C1476 1.526 . S
C1474 H1458 0.959 . S
C1474 H1459 0.959 . S
C1474 H1460 0.961 . S
C1474 C1473 1.502 . S
C1475 H1461 0.960 . S
C1475 H1462 0.961 . S
C1475 H1463 0.959 . S
C1475 C1473 1.561 . S
C1476 C1473 1.526 . S
C1476 C1477 1.396 . S
C1476 C1481 1.390 . S
C1477 C1471 1.465 . S
C1477 C1476 1.396 . S
C1477 C1478 1.399 . S
C1478 H1464 0.929 . S
C1478 C1477 1.399 . S
C1478 C1479 1.385 . S
C1479 H1465 0.931 . S
C1479 C1478 1.385 . S
C1479 C1480 1.389 . S
C1480 C1479 1.389 . S
C1480 C1481 1.387 . S
C1481 H1466 0.930 . S
C1481 C1476 1.390 . S
C1481 C1480 1.387 . S
C361 C216 2.449 . S
C373 C5 2.620 . S
C388 C34 2.617 . S
C400 C245 2.449 . S
C415 C63 2.613 . S
C427 C187 2.458 . S
C442 C92 2.611 . S
C454 C332 2.466 . S
C469 C274 2.454 . S
C481 C121 2.618 . S
C496 C150 2.617 . S
C508 C303 2.454 . S
C523 C179 2.630 . S
C535 C42 2.399 . S
C550 C208 2.629 . S
C562 C71 2.401 . S
C577 C13 2.400 . S
C589 C237 2.629 . S
C604 C266 2.630 . S
C616 C158 2.444 . S
C631 C295 2.623 . S
C643 C100 2.459 . S
C658 C129 2.452 . S
C670 C324 2.612 . S
C685 C15 1.427 . S
C697 C102 1.408 . S
C712 C44 1.471 . S
C724 C131 1.437 . S
C739 C73 1.404 . S
C751 C160 1.438 . S
C766 C276 1.406 . S
C778 C189 1.412 . S
C793 C305 1.445 . S
C805 C218 1.415 . S
C820 C334 1.463 . S
C832 C247 1.434 . S
C847 C21 1.684 . S
C859 C39 1.534 . S
C874 C50 1.696 . S
C886 C68 1.599 . S
C901 C79 1.735 . S
C913 C10 1.513 . S
C928 C155 1.586 . S
C940 C108 1.751 . S
C955 C137 1.744 . S
C967 C97 1.528 . S
C982 C126 1.516 . S
C994 C166 1.738 . S
C1009 C213 1.617 . S
C1021 C195 1.749 . S
C1036 C224 1.695 . S
C1048 C242 1.500 . S
C1063 C253 1.734 . S
C1075 C184 1.542 . S
C1090 C282 1.685 . S
C1102 C329 1.505 . S
C1117 C311 1.744 . S
C1129 C271 1.619 . S
C1144 C340 1.687 . S
C1156 C300 1.502 . S
C1171 C298 1.062 . S
C1183 C3 1.166 . S
C1198 C327 1.172 . S
C1210 C32 1.177 . S
C1225 C61 1.123 . S
C1237 C269 1.133 . S
C1252 C90 1.154 . S
C1264 C240 1.183 . S
C1279 C119 1.138 . S
C1291 C182 1.177 . S
C1306 C211 1.118 . S
C1318 C148 1.199 . S
C1333 C177 1.150 . S
C1345 C124 1.063 . S
C1360 C206 1.145 . S
C1372 C153 1.063 . S
C1387 C235 1.171 . S
C1399 C95 1.074 . S
C1414 C264 1.147 . S
C1426 C66 1.166 . S
C1441 C293 1.129 . S
C1453 C8 1.075 . S
C1468 C322 1.124 . S
C1480 C37 1.112 . S
