# Generated by pormake.
# Topology svx, (7)-cn, num edge types: 1
# Building blocks:
#     Node 0, Type 0, BuildingBlock: HICVOG_clean_sbu_0, # of connection points: 7
#     Node 1, Type 0, BuildingBlock: HICVOG_clean_sbu_0, # of connection points: 7
#     Node 2, Type 0, BuildingBlock: HICVOG_clean_sbu_0, # of connection points: 7
#     Node 3, Type 0, BuildingBlock: HICVOG_clean_sbu_0, # of connection points: 7
#     Node 4, Type 0, BuildingBlock: HICVOG_clean_sbu_0, # of connection points: 7
#     Node 5, Type 0, BuildingBlock: HICVOG_clean_sbu_0, # of connection points: 7
#     Node 6, Type 0, BuildingBlock: HICVOG_clean_sbu_0, # of connection points: 7
#     Node 7, Type 0, BuildingBlock: HICVOG_clean_sbu_0, # of connection points: 7
#     Node 8, Type 0, BuildingBlock: HICVOG_clean_sbu_0, # of connection points: 7
#     Node 9, Type 0, BuildingBlock: HICVOG_clean_sbu_0, # of connection points: 7
#     Node 10, Type 0, BuildingBlock: HICVOG_clean_sbu_0, # of connection points: 7
#     Node 11, Type 0, BuildingBlock: HICVOG_clean_sbu_0, # of connection points: 7
#     Node 12, Type 0, BuildingBlock: HICVOG_clean_sbu_0, # of connection points: 7
#     Node 13, Type 0, BuildingBlock: HICVOG_clean_sbu_0, # of connection points: 7
#     Node 14, Type 0, BuildingBlock: HICVOG_clean_sbu_0, # of connection points: 7
#     Node 15, Type 0, BuildingBlock: HICVOG_clean_sbu_0, # of connection points: 7
#     Node 16, Type 0, BuildingBlock: HICVOG_clean_sbu_0, # of connection points: 7
#     Node 17, Type 0, BuildingBlock: HICVOG_clean_sbu_0, # of connection points: 7
#     Node 18, Type 0, BuildingBlock: HICVOG_clean_sbu_0, # of connection points: 7
#     Node 19, Type 0, BuildingBlock: HICVOG_clean_sbu_0, # of connection points: 7
#     Node 20, Type 0, BuildingBlock: HICVOG_clean_sbu_0, # of connection points: 7
#     Node 21, Type 0, BuildingBlock: HICVOG_clean_sbu_0, # of connection points: 7
#     Node 22, Type 0, BuildingBlock: HICVOG_clean_sbu_0, # of connection points: 7
#     Node 23, Type 0, BuildingBlock: HICVOG_clean_sbu_0, # of connection points: 7
#     Node 24, Type 0, BuildingBlock: HICVOG_clean_sbu_0, # of connection points: 7
#     Node 25, Type 0, BuildingBlock: HICVOG_clean_sbu_0, # of connection points: 7
#     Node 26, Type 0, BuildingBlock: HICVOG_clean_sbu_0, # of connection points: 7
#     Node 27, Type 0, BuildingBlock: HICVOG_clean_sbu_0, # of connection points: 7
#     Node 28, Type 0, BuildingBlock: HICVOG_clean_sbu_0, # of connection points: 7
#     Node 29, Type 0, BuildingBlock: HICVOG_clean_sbu_0, # of connection points: 7
#     Node 30, Type 0, BuildingBlock: HICVOG_clean_sbu_0, # of connection points: 7
#     Node 31, Type 0, BuildingBlock: HICVOG_clean_sbu_0, # of connection points: 7
#     Node 32, Type 0, BuildingBlock: HICVOG_clean_sbu_0, # of connection points: 7
#     Node 33, Type 0, BuildingBlock: HICVOG_clean_sbu_0, # of connection points: 7
#     Node 34, Type 0, BuildingBlock: HICVOG_clean_sbu_0, # of connection points: 7
#     Node 35, Type 0, BuildingBlock: HICVOG_clean_sbu_0, # of connection points: 7
#     Node 36, Type 0, BuildingBlock: HICVOG_clean_sbu_0, # of connection points: 7
#     Node 37, Type 0, BuildingBlock: HICVOG_clean_sbu_0, # of connection points: 7
#     Node 38, Type 0, BuildingBlock: HICVOG_clean_sbu_0, # of connection points: 7
#     Node 39, Type 0, BuildingBlock: HICVOG_clean_sbu_0, # of connection points: 7
#     Node 40, Type 0, BuildingBlock: HICVOG_clean_sbu_0, # of connection points: 7
#     Node 41, Type 0, BuildingBlock: HICVOG_clean_sbu_0, # of connection points: 7
#     Node 42, Type 0, BuildingBlock: HICVOG_clean_sbu_0, # of connection points: 7
#     Node 43, Type 0, BuildingBlock: HICVOG_clean_sbu_0, # of connection points: 7
#     Node 44, Type 0, BuildingBlock: HICVOG_clean_sbu_0, # of connection points: 7
#     Node 45, Type 0, BuildingBlock: HICVOG_clean_sbu_0, # of connection points: 7
#     Node 46, Type 0, BuildingBlock: HICVOG_clean_sbu_0, # of connection points: 7
#     Node 47, Type 0, BuildingBlock: HICVOG_clean_sbu_0, # of connection points: 7
#     Edge 48, Type (0, 0), BuildingBlock: AJUNOK_clean_linker_0, # of connection points: 2
#     Edge 49, Type (0, 0), BuildingBlock: AJUNOK_clean_linker_0, # of connection points: 2
#     Edge 50, Type (0, 0), BuildingBlock: AJUNOK_clean_linker_0, # of connection points: 2
#     Edge 51, Type (0, 0), BuildingBlock: AJUNOK_clean_linker_0, # of connection points: 2
#     Edge 52, Type (0, 0), BuildingBlock: AJUNOK_clean_linker_0, # of connection points: 2
#     Edge 53, Type (0, 0), BuildingBlock: AJUNOK_clean_linker_0, # of connection points: 2
#     Edge 54, Type (0, 0), BuildingBlock: AJUNOK_clean_linker_0, # of connection points: 2
#     Edge 55, Type (0, 0), BuildingBlock: AJUNOK_clean_linker_0, # of connection points: 2
#     Edge 56, Type (0, 0), BuildingBlock: AJUNOK_clean_linker_0, # of connection points: 2
#     Edge 57, Type (0, 0), BuildingBlock: AJUNOK_clean_linker_0, # of connection points: 2
#     Edge 58, Type (0, 0), BuildingBlock: AJUNOK_clean_linker_0, # of connection points: 2
#     Edge 59, Type (0, 0), BuildingBlock: AJUNOK_clean_linker_0, # of connection points: 2
#     Edge 60, Type (0, 0), BuildingBlock: AJUNOK_clean_linker_0, # of connection points: 2
#     Edge 61, Type (0, 0), BuildingBlock: AJUNOK_clean_linker_0, # of connection points: 2
#     Edge 62, Type (0, 0), BuildingBlock: AJUNOK_clean_linker_0, # of connection points: 2
#     Edge 63, Type (0, 0), BuildingBlock: AJUNOK_clean_linker_0, # of connection points: 2
#     Edge 64, Type (0, 0), BuildingBlock: AJUNOK_clean_linker_0, # of connection points: 2
#     Edge 65, Type (0, 0), BuildingBlock: AJUNOK_clean_linker_0, # of connection points: 2
#     Edge 66, Type (0, 0), BuildingBlock: AJUNOK_clean_linker_0, # of connection points: 2
#     Edge 67, Type (0, 0), BuildingBlock: AJUNOK_clean_linker_0, # of connection points: 2
#     Edge 68, Type (0, 0), BuildingBlock: AJUNOK_clean_linker_0, # of connection points: 2
#     Edge 69, Type (0, 0), BuildingBlock: AJUNOK_clean_linker_0, # of connection points: 2
#     Edge 70, Type (0, 0), BuildingBlock: AJUNOK_clean_linker_0, # of connection points: 2
#     Edge 71, Type (0, 0), BuildingBlock: AJUNOK_clean_linker_0, # of connection points: 2
#     Edge 72, Type (0, 0), BuildingBlock: AJUNOK_clean_linker_0, # of connection points: 2
#     Edge 73, Type (0, 0), BuildingBlock: AJUNOK_clean_linker_0, # of connection points: 2
#     Edge 74, Type (0, 0), BuildingBlock: AJUNOK_clean_linker_0, # of connection points: 2
#     Edge 75, Type (0, 0), BuildingBlock: AJUNOK_clean_linker_0, # of connection points: 2
#     Edge 76, Type (0, 0), BuildingBlock: AJUNOK_clean_linker_0, # of connection points: 2
#     Edge 77, Type (0, 0), BuildingBlock: AJUNOK_clean_linker_0, # of connection points: 2
#     Edge 78, Type (0, 0), BuildingBlock: AJUNOK_clean_linker_0, # of connection points: 2
#     Edge 79, Type (0, 0), BuildingBlock: AJUNOK_clean_linker_0, # of connection points: 2
#     Edge 80, Type (0, 0), BuildingBlock: AJUNOK_clean_linker_0, # of connection points: 2
#     Edge 81, Type (0, 0), BuildingBlock: AJUNOK_clean_linker_0, # of connection points: 2
#     Edge 82, Type (0, 0), BuildingBlock: AJUNOK_clean_linker_0, # of connection points: 2
#     Edge 83, Type (0, 0), BuildingBlock: AJUNOK_clean_linker_0, # of connection points: 2
#     Edge 84, Type (0, 0), BuildingBlock: AJUNOK_clean_linker_0, # of connection points: 2
#     Edge 85, Type (0, 0), BuildingBlock: AJUNOK_clean_linker_0, # of connection points: 2
#     Edge 86, Type (0, 0), BuildingBlock: AJUNOK_clean_linker_0, # of connection points: 2
#     Edge 87, Type (0, 0), BuildingBlock: AJUNOK_clean_linker_0, # of connection points: 2
#     Edge 88, Type (0, 0), BuildingBlock: AJUNOK_clean_linker_0, # of connection points: 2
#     Edge 89, Type (0, 0), BuildingBlock: AJUNOK_clean_linker_0, # of connection points: 2
#     Edge 90, Type (0, 0), BuildingBlock: AJUNOK_clean_linker_0, # of connection points: 2
#     Edge 91, Type (0, 0), BuildingBlock: AJUNOK_clean_linker_0, # of connection points: 2
#     Edge 92, Type (0, 0), BuildingBlock: AJUNOK_clean_linker_0, # of connection points: 2
#     Edge 93, Type (0, 0), BuildingBlock: AJUNOK_clean_linker_0, # of connection points: 2
#     Edge 94, Type (0, 0), BuildingBlock: AJUNOK_clean_linker_0, # of connection points: 2
#     Edge 95, Type (0, 0), BuildingBlock: AJUNOK_clean_linker_0, # of connection points: 2
#     Edge 96, Type (0, 0), BuildingBlock: AJUNOK_clean_linker_0, # of connection points: 2
#     Edge 97, Type (0, 0), BuildingBlock: AJUNOK_clean_linker_0, # of connection points: 2
#     Edge 98, Type (0, 0), BuildingBlock: AJUNOK_clean_linker_0, # of connection points: 2
#     Edge 99, Type (0, 0), BuildingBlock: AJUNOK_clean_linker_0, # of connection points: 2
#     Edge 100, Type (0, 0), BuildingBlock: AJUNOK_clean_linker_0, # of connection points: 2
#     Edge 101, Type (0, 0), BuildingBlock: AJUNOK_clean_linker_0, # of connection points: 2
#     Edge 102, Type (0, 0), BuildingBlock: AJUNOK_clean_linker_0, # of connection points: 2
#     Edge 103, Type (0, 0), BuildingBlock: AJUNOK_clean_linker_0, # of connection points: 2
#     Edge 104, Type (0, 0), BuildingBlock: AJUNOK_clean_linker_0, # of connection points: 2
#     Edge 105, Type (0, 0), BuildingBlock: AJUNOK_clean_linker_0, # of connection points: 2
#     Edge 106, Type (0, 0), BuildingBlock: AJUNOK_clean_linker_0, # of connection points: 2
#     Edge 107, Type (0, 0), BuildingBlock: AJUNOK_clean_linker_0, # of connection points: 2
#     Edge 108, Type (0, 0), BuildingBlock: AJUNOK_clean_linker_0, # of connection points: 2
#     Edge 109, Type (0, 0), BuildingBlock: AJUNOK_clean_linker_0, # of connection points: 2
#     Edge 110, Type (0, 0), BuildingBlock: AJUNOK_clean_linker_0, # of connection points: 2
#     Edge 111, Type (0, 0), BuildingBlock: AJUNOK_clean_linker_0, # of connection points: 2
#     Edge 112, Type (0, 0), BuildingBlock: AJUNOK_clean_linker_0, # of connection points: 2
#     Edge 113, Type (0, 0), BuildingBlock: AJUNOK_clean_linker_0, # of connection points: 2
#     Edge 114, Type (0, 0), BuildingBlock: AJUNOK_clean_linker_0, # of connection points: 2
#     Edge 115, Type (0, 0), BuildingBlock: AJUNOK_clean_linker_0, # of connection points: 2
#     Edge 116, Type (0, 0), BuildingBlock: AJUNOK_clean_linker_0, # of connection points: 2
#     Edge 117, Type (0, 0), BuildingBlock: AJUNOK_clean_linker_0, # of connection points: 2
#     Edge 118, Type (0, 0), BuildingBlock: AJUNOK_clean_linker_0, # of connection points: 2
#     Edge 119, Type (0, 0), BuildingBlock: AJUNOK_clean_linker_0, # of connection points: 2
#     Edge 120, Type (0, 0), BuildingBlock: AJUNOK_clean_linker_0, # of connection points: 2
#     Edge 121, Type (0, 0), BuildingBlock: AJUNOK_clean_linker_0, # of connection points: 2
#     Edge 122, Type (0, 0), BuildingBlock: AJUNOK_clean_linker_0, # of connection points: 2
#     Edge 123, Type (0, 0), BuildingBlock: AJUNOK_clean_linker_0, # of connection points: 2
#     Edge 124, Type (0, 0), BuildingBlock: AJUNOK_clean_linker_0, # of connection points: 2
#     Edge 125, Type (0, 0), BuildingBlock: AJUNOK_clean_linker_0, # of connection points: 2
#     Edge 126, Type (0, 0), BuildingBlock: AJUNOK_clean_linker_0, # of connection points: 2
#     Edge 127, Type (0, 0), BuildingBlock: AJUNOK_clean_linker_0, # of connection points: 2
#     Edge 128, Type (0, 0), BuildingBlock: AJUNOK_clean_linker_0, # of connection points: 2
#     Edge 129, Type (0, 0), BuildingBlock: AJUNOK_clean_linker_0, # of connection points: 2
#     Edge 130, Type (0, 0), BuildingBlock: AJUNOK_clean_linker_0, # of connection points: 2
#     Edge 131, Type (0, 0), BuildingBlock: AJUNOK_clean_linker_0, # of connection points: 2
#     Edge 132, Type (0, 0), BuildingBlock: AJUNOK_clean_linker_0, # of connection points: 2
#     Edge 133, Type (0, 0), BuildingBlock: AJUNOK_clean_linker_0, # of connection points: 2
#     Edge 134, Type (0, 0), BuildingBlock: AJUNOK_clean_linker_0, # of connection points: 2
#     Edge 135, Type (0, 0), BuildingBlock: AJUNOK_clean_linker_0, # of connection points: 2
#     Edge 136, Type (0, 0), BuildingBlock: AJUNOK_clean_linker_0, # of connection points: 2
#     Edge 137, Type (0, 0), BuildingBlock: AJUNOK_clean_linker_0, # of connection points: 2
#     Edge 138, Type (0, 0), BuildingBlock: AJUNOK_clean_linker_0, # of connection points: 2
#     Edge 139, Type (0, 0), BuildingBlock: AJUNOK_clean_linker_0, # of connection points: 2
#     Edge 140, Type (0, 0), BuildingBlock: AJUNOK_clean_linker_0, # of connection points: 2
#     Edge 141, Type (0, 0), BuildingBlock: AJUNOK_clean_linker_0, # of connection points: 2
#     Edge 142, Type (0, 0), BuildingBlock: AJUNOK_clean_linker_0, # of connection points: 2
#     Edge 143, Type (0, 0), BuildingBlock: AJUNOK_clean_linker_0, # of connection points: 2
#     Edge 144, Type (0, 0), BuildingBlock: AJUNOK_clean_linker_0, # of connection points: 2
#     Edge 145, Type (0, 0), BuildingBlock: AJUNOK_clean_linker_0, # of connection points: 2
#     Edge 146, Type (0, 0), BuildingBlock: AJUNOK_clean_linker_0, # of connection points: 2
#     Edge 147, Type (0, 0), BuildingBlock: AJUNOK_clean_linker_0, # of connection points: 2
#     Edge 148, Type (0, 0), BuildingBlock: AJUNOK_clean_linker_0, # of connection points: 2
#     Edge 149, Type (0, 0), BuildingBlock: AJUNOK_clean_linker_0, # of connection points: 2
#     Edge 150, Type (0, 0), BuildingBlock: AJUNOK_clean_linker_0, # of connection points: 2
#     Edge 151, Type (0, 0), BuildingBlock: AJUNOK_clean_linker_0, # of connection points: 2
#     Edge 152, Type (0, 0), BuildingBlock: AJUNOK_clean_linker_0, # of connection points: 2
#     Edge 153, Type (0, 0), BuildingBlock: AJUNOK_clean_linker_0, # of connection points: 2
#     Edge 154, Type (0, 0), BuildingBlock: AJUNOK_clean_linker_0, # of connection points: 2
#     Edge 155, Type (0, 0), BuildingBlock: AJUNOK_clean_linker_0, # of connection points: 2
#     Edge 156, Type (0, 0), BuildingBlock: AJUNOK_clean_linker_0, # of connection points: 2
#     Edge 157, Type (0, 0), BuildingBlock: AJUNOK_clean_linker_0, # of connection points: 2
#     Edge 158, Type (0, 0), BuildingBlock: AJUNOK_clean_linker_0, # of connection points: 2
#     Edge 159, Type (0, 0), BuildingBlock: AJUNOK_clean_linker_0, # of connection points: 2
#     Edge 160, Type (0, 0), BuildingBlock: AJUNOK_clean_linker_0, # of connection points: 2
#     Edge 161, Type (0, 0), BuildingBlock: AJUNOK_clean_linker_0, # of connection points: 2
#     Edge 162, Type (0, 0), BuildingBlock: AJUNOK_clean_linker_0, # of connection points: 2
#     Edge 163, Type (0, 0), BuildingBlock: AJUNOK_clean_linker_0, # of connection points: 2
#     Edge 164, Type (0, 0), BuildingBlock: AJUNOK_clean_linker_0, # of connection points: 2
#     Edge 165, Type (0, 0), BuildingBlock: AJUNOK_clean_linker_0, # of connection points: 2
#     Edge 166, Type (0, 0), BuildingBlock: AJUNOK_clean_linker_0, # of connection points: 2
#     Edge 167, Type (0, 0), BuildingBlock: AJUNOK_clean_linker_0, # of connection points: 2
#     Edge 168, Type (0, 0), BuildingBlock: AJUNOK_clean_linker_0, # of connection points: 2
#     Edge 169, Type (0, 0), BuildingBlock: AJUNOK_clean_linker_0, # of connection points: 2
#     Edge 170, Type (0, 0), BuildingBlock: AJUNOK_clean_linker_0, # of connection points: 2
#     Edge 171, Type (0, 0), BuildingBlock: AJUNOK_clean_linker_0, # of connection points: 2
#     Edge 172, Type (0, 0), BuildingBlock: AJUNOK_clean_linker_0, # of connection points: 2
#     Edge 173, Type (0, 0), BuildingBlock: AJUNOK_clean_linker_0, # of connection points: 2
#     Edge 174, Type (0, 0), BuildingBlock: AJUNOK_clean_linker_0, # of connection points: 2
#     Edge 175, Type (0, 0), BuildingBlock: AJUNOK_clean_linker_0, # of connection points: 2
#     Edge 176, Type (0, 0), BuildingBlock: AJUNOK_clean_linker_0, # of connection points: 2
#     Edge 177, Type (0, 0), BuildingBlock: AJUNOK_clean_linker_0, # of connection points: 2
#     Edge 178, Type (0, 0), BuildingBlock: AJUNOK_clean_linker_0, # of connection points: 2
#     Edge 179, Type (0, 0), BuildingBlock: AJUNOK_clean_linker_0, # of connection points: 2
#     Edge 180, Type (0, 0), BuildingBlock: AJUNOK_clean_linker_0, # of connection points: 2
#     Edge 181, Type (0, 0), BuildingBlock: AJUNOK_clean_linker_0, # of connection points: 2
#     Edge 182, Type (0, 0), BuildingBlock: AJUNOK_clean_linker_0, # of connection points: 2
#     Edge 183, Type (0, 0), BuildingBlock: AJUNOK_clean_linker_0, # of connection points: 2
#     Edge 184, Type (0, 0), BuildingBlock: AJUNOK_clean_linker_0, # of connection points: 2
#     Edge 185, Type (0, 0), BuildingBlock: AJUNOK_clean_linker_0, # of connection points: 2
#     Edge 186, Type (0, 0), BuildingBlock: AJUNOK_clean_linker_0, # of connection points: 2
#     Edge 187, Type (0, 0), BuildingBlock: AJUNOK_clean_linker_0, # of connection points: 2
#     Edge 188, Type (0, 0), BuildingBlock: AJUNOK_clean_linker_0, # of connection points: 2
#     Edge 189, Type (0, 0), BuildingBlock: AJUNOK_clean_linker_0, # of connection points: 2
#     Edge 190, Type (0, 0), BuildingBlock: AJUNOK_clean_linker_0, # of connection points: 2
#     Edge 191, Type (0, 0), BuildingBlock: AJUNOK_clean_linker_0, # of connection points: 2
#     Edge 192, Type (0, 0), BuildingBlock: AJUNOK_clean_linker_0, # of connection points: 2
#     Edge 193, Type (0, 0), BuildingBlock: AJUNOK_clean_linker_0, # of connection points: 2
#     Edge 194, Type (0, 0), BuildingBlock: AJUNOK_clean_linker_0, # of connection points: 2
#     Edge 195, Type (0, 0), BuildingBlock: AJUNOK_clean_linker_0, # of connection points: 2
#     Edge 196, Type (0, 0), BuildingBlock: AJUNOK_clean_linker_0, # of connection points: 2
#     Edge 197, Type (0, 0), BuildingBlock: AJUNOK_clean_linker_0, # of connection points: 2
#     Edge 198, Type (0, 0), BuildingBlock: AJUNOK_clean_linker_0, # of connection points: 2
#     Edge 199, Type (0, 0), BuildingBlock: AJUNOK_clean_linker_0, # of connection points: 2
#     Edge 200, Type (0, 0), BuildingBlock: AJUNOK_clean_linker_0, # of connection points: 2
#     Edge 201, Type (0, 0), BuildingBlock: AJUNOK_clean_linker_0, # of connection points: 2
#     Edge 202, Type (0, 0), BuildingBlock: AJUNOK_clean_linker_0, # of connection points: 2
#     Edge 203, Type (0, 0), BuildingBlock: AJUNOK_clean_linker_0, # of connection points: 2
#     Edge 204, Type (0, 0), BuildingBlock: AJUNOK_clean_linker_0, # of connection points: 2
#     Edge 205, Type (0, 0), BuildingBlock: AJUNOK_clean_linker_0, # of connection points: 2
#     Edge 206, Type (0, 0), BuildingBlock: AJUNOK_clean_linker_0, # of connection points: 2
#     Edge 207, Type (0, 0), BuildingBlock: AJUNOK_clean_linker_0, # of connection points: 2
#     Edge 208, Type (0, 0), BuildingBlock: AJUNOK_clean_linker_0, # of connection points: 2
#     Edge 209, Type (0, 0), BuildingBlock: AJUNOK_clean_linker_0, # of connection points: 2
#     Edge 210, Type (0, 0), BuildingBlock: AJUNOK_clean_linker_0, # of connection points: 2
#     Edge 211, Type (0, 0), BuildingBlock: AJUNOK_clean_linker_0, # of connection points: 2
#     Edge 212, Type (0, 0), BuildingBlock: AJUNOK_clean_linker_0, # of connection points: 2
#     Edge 213, Type (0, 0), BuildingBlock: AJUNOK_clean_linker_0, # of connection points: 2
#     Edge 214, Type (0, 0), BuildingBlock: AJUNOK_clean_linker_0, # of connection points: 2
#     Edge 215, Type (0, 0), BuildingBlock: AJUNOK_clean_linker_0, # of connection points: 2
# Relax obj value: 0.463
# Max RMSD: 0.308
# Mean RMSD: 0.308
data_MOF--net-svx--node1-HICVOG_clean_sbu_0--edge1-AJUNOK_clean_linker_0
_symmetry_space_group_name_H-M    P1
_symmetry_Int_Tables_number       1
_symmetry_cell_setting            triclinic
loop_
_symmetry_equiv_pos_as_xyz
'x, y, z'
_cell_length_a     48.792378
_cell_length_b     48.759893
_cell_length_c     48.78145
_cell_angle_alpha  90.031342
_cell_angle_beta   90.036513
_cell_angle_gamma 90.00598
loop_
_atom_site_label
_atom_site_type_symbol
_atom_site_fract_x
_atom_site_fract_y
_atom_site_fract_z
_atom_type_partial_charge
Zn0 Zn 0.15919 0.34506 0.29731 0.0
C1 C 0.19812 0.27214 0.30367 0.0
N2 N 0.21464 0.28256 0.28429 0.0
C3 C 0.2023 0.3062 0.27752 0.0
N4 N 0.17926 0.31038 0.29246 0.0
N5 N 0.17617 0.28844 0.30831 0.0
C6 C 0.13678 0.24401 0.37101 0.0
O7 O 0.14315 0.26668 0.3841 0.0
O8 O 0.14933 0.36288 0.26073 0.0
Zn9 Zn 0.14073 0.27955 0.3238 0.0
N10 N 0.18266 0.36943 0.31859 0.0
C11 C 0.2249 0.3786 0.34124 0.0
C12 C 0.20934 0.36285 0.32321 0.0
C13 C 0.17072 0.39076 0.33207 0.0
N14 N 0.2128 0.39942 0.35513 0.0
C15 C 0.18587 0.40584 0.35148 0.0
O16 O 0.12581 0.30862 0.34843 0.0
C17 C 0.11602 0.33188 0.34205 0.0
O18 O 0.12431 0.34474 0.32091 0.0
H19 H 0.2182 0.34494 0.31397 0.0
H20 H 0.14924 0.39486 0.32875 0.0
C21 C 0.08748 0.27661 0.29882 0.0
C22 C 0.06901 0.27596 0.27672 0.0
C23 C 0.10652 0.27454 0.24576 0.0
C24 C 0.12476 0.27514 0.26771 0.0
N25 N 0.11495 0.27658 0.29375 0.0
N26 N 0.07918 0.27508 0.25075 0.0
H27 H 0.08019 0.27775 0.31975 0.0
C28 C 0.12442 0.36149 0.25302 0.0
O29 O 0.10717 0.34677 0.26752 0.0
O30 O 0.13784 0.24378 0.34493 0.0
H31 H 0.14655 0.2746 0.26395 0.0
H32 H 0.2462 0.37365 0.34498 0.0
H33 H 0.11401 0.2737 0.22491 0.0
Zn34 Zn 0.58654 0.61926 0.97961 0.0
C35 C 0.5165 0.57698 0.97078 0.0
N36 N 0.52472 0.56369 0.99346 0.0
C37 C 0.5475 0.57722 1.00079 0.0
N38 N 0.55342 0.59761 0.98303 0.0
N39 N 0.53367 0.59778 0.96432 0.0
C40 C 0.49537 0.6374 0.8944 0.0
O41 O 0.52015 0.63939 0.88411 0.0
O42 O 0.6063 0.62405 0.01586 0.0
Zn43 Zn 0.52546 0.63191 0.94549 0.0
N44 N 0.61054 0.60058 0.95431 0.0
C45 C 0.62056 0.56383 0.92385 0.0
C46 C 0.60405 0.57548 0.94406 0.0
C47 C 0.63273 0.61463 0.94502 0.0
N48 N 0.64269 0.5779 0.9145 0.0
C49 C 0.64941 0.60305 0.92462 0.0
O50 O 0.55828 0.64792 0.9255 0.0
C51 C 0.5775 0.66109 0.93721 0.0
O52 O 0.5825 0.65727 0.96253 0.0
H53 H 0.5859 0.56487 0.95104 0.0
H54 H 0.63661 0.63506 0.95278 0.0
C55 C 0.51142 0.68501 0.96844 0.0
C56 C 0.50212 0.70275 0.98929 0.0
C57 C 0.50058 0.66507 0.02011 0.0
C58 C 0.50922 0.64759 0.99936 0.0
N59 N 0.51474 0.65779 0.97399 0.0
N60 N 0.49722 0.69207 0.0146 0.0
H61 H 0.51532 0.69248 0.94793 0.0
C62 C 0.60239 0.64686 0.02784 0.0
O63 O 0.58387 0.66373 0.01799 0.0
O64 O 0.49273 0.63105 0.91958 0.0
H65 H 0.51106 0.62598 1.00355 0.0
H66 H 0.61562 0.54393 0.91537 0.0
H67 H 0.49626 0.65723 0.04039 0.0
Zn68 Zn 0.86708 0.18174 0.29372 0.0
C69 C 0.82352 0.25057 0.30327 0.0
N70 N 0.80822 0.24046 0.28269 0.0
C71 C 0.82244 0.21836 0.27458 0.0
N72 N 0.8454 0.21491 0.28974 0.0
N73 N 0.84645 0.23558 0.30743 0.0
C74 C 0.88479 0.27678 0.37524 0.0
O75 O 0.88569 0.25228 0.38639 0.0
O76 O 0.87278 0.16263 0.257 0.0
Zn77 Zn 0.88097 0.24505 0.32493 0.0
N78 N 0.8471 0.1579 0.31889 0.0
C79 C 0.80667 0.14908 0.3448 0.0
C80 C 0.8215 0.16556 0.32685 0.0
C81 C 0.85892 0.13481 0.32929 0.0
N82 N 0.81819 0.12574 0.35456 0.0
C83 C 0.8441 0.11819 0.34756 0.0
O84 O 0.89769 0.21344 0.34622 0.0
C85 C 0.91023 0.19336 0.33528 0.0
O86 O 0.90502 0.18632 0.31072 0.0
H87 H 0.81255 0.18438 0.31947 0.0
H88 H 0.87946 0.12926 0.32326 0.0
C89 C 0.9335 0.2584 0.29998 0.0
C90 C 0.95051 0.26684 0.27817 0.0
C91 C 0.91182 0.26686 0.24855 0.0
C92 C 0.89508 0.25906 0.2702 0.0
N93 N 0.90613 0.25475 0.29545 0.0
N94 N 0.93896 0.27058 0.25303 0.0
H95 H 0.94167 0.25544 0.32039 0.0
C96 C 0.89175 0.14471 0.25688 0.0
O97 O 0.90435 0.13928 0.27999 0.0
O98 O 0.87998 0.27869 0.34965 0.0
H99 H 0.87335 0.25686 0.26682 0.0
H100 H 0.78616 0.15479 0.35098 0.0
H101 H 0.9033 0.27024 0.22836 0.0
Zn102 Zn 0.48886 0.89324 0.94255 0.0
C103 C 0.46472 0.95319 0.99214 0.0
N104 N 0.48772 0.96623 0.98454 0.0
C105 C 0.49751 0.95024 0.96433 0.0
N106 N 0.48155 0.92803 0.96006 0.0
N107 N 0.46059 0.93027 0.97718 0.0
C108 C 0.38834 0.88712 1.00912 0.0
O109 O 0.38295 0.87374 0.98639 0.0
O110 O 0.52389 0.89159 0.92015 0.0
Zn111 Zn 0.42674 0.91004 0.97262 0.0
N112 N 0.49443 0.86703 0.97186 0.0
C113 C 0.50156 0.85821 0.01931 0.0
C114 C 0.49884 0.87663 0.99768 0.0
C115 C 0.49354 0.83959 0.96663 0.0
N116 N 0.50002 0.83091 0.01423 0.0
C117 C 0.49623 0.82101 0.98842 0.0
O118 O 0.431 0.87182 0.95681 0.0
C119 C 0.43722 0.86643 0.93209 0.0
O120 O 0.45666 0.87919 0.92027 0.0
H121 H 0.50013 0.89839 1.00158 0.0
H122 H 0.49013 0.83241 0.9459 0.0
C123 C 0.38183 0.91876 0.93432 0.0
C124 C 0.36715 0.93355 0.91425 0.0
C125 C 0.39859 0.97048 0.91932 0.0
C126 C 0.41291 0.9558 0.93908 0.0
N127 N 0.40429 0.93031 0.94639 0.0
N128 N 0.37624 0.95906 0.90742 0.0
H129 H 0.37558 0.8984 0.94031 0.0
C130 C 0.52356 0.88497 0.89492 0.0
O131 O 0.49991 0.88352 0.88214 0.0
O132 O 0.40676 0.90559 1.00871 0.0
H133 H 0.43102 0.96464 0.94816 0.0
H134 H 0.50478 0.86554 0.04 0.0
H135 H 0.40528 0.99075 0.9133 0.0
Zn136 Zn 0.15822 0.67878 0.22394 0.0
C137 C 0.19729 0.75074 0.21703 0.0
N138 N 0.21161 0.74217 0.23896 0.0
C139 C 0.19908 0.71862 0.24573 0.0
N140 N 0.1783 0.71275 0.22845 0.0
N141 N 0.17678 0.73323 0.21065 0.0
C142 C 0.13255 0.77192 0.14306 0.0
O143 O 0.12901 0.74772 0.1318 0.0
O144 O 0.15436 0.65849 0.25983 0.0
Zn145 Zn 0.14232 0.73993 0.19213 0.0
N146 N 0.17794 0.65661 0.197 0.0
C147 C 0.21759 0.65186 0.16903 0.0
C148 C 0.20293 0.66595 0.18898 0.0
C149 C 0.16684 0.63361 0.18545 0.0
N150 N 0.20671 0.62891 0.15778 0.0
C151 C 0.18171 0.61908 0.16535 0.0
O152 O 0.12816 0.70663 0.17152 0.0
C153 C 0.11544 0.68769 0.18413 0.0
O154 O 0.1197 0.68366 0.20947 0.0
H155 H 0.21143 0.6844 0.19779 0.0
H156 H 0.14685 0.6267 0.19196 0.0
C157 C 0.08889 0.75185 0.21467 0.0
C158 C 0.07036 0.75889 0.23568 0.0
C159 C 0.10715 0.7588 0.26763 0.0
C160 C 0.12533 0.75199 0.24683 0.0
N161 N 0.11594 0.74835 0.22081 0.0
N162 N 0.08027 0.76212 0.26159 0.0
H163 H 0.08225 0.7499 0.1936 0.0
C164 C 0.13574 0.64023 0.26045 0.0
O165 O 0.12203 0.63497 0.23788 0.0
O166 O 0.14128 0.77341 0.16761 0.0
H167 H 0.14683 0.75009 0.25152 0.0
H168 H 0.23748 0.65912 0.16247 0.0
H169 H 0.11435 0.76171 0.28841 0.0
Zn170 Zn 0.99307 0.62694 0.07983 0.0
C171 C 0.96263 0.56788 0.03297 0.0
N172 N 0.98252 0.55168 0.04296 0.0
C173 C 0.9944 0.56749 0.06223 0.0
N174 N 0.98267 0.59257 0.06352 0.0
N175 N 0.96235 0.59247 0.04553 0.0
C176 C 0.89743 0.61192 0.99715 0.0
O177 O 0.88581 0.59255 0.01179 0.0
O178 O 0.02607 0.62533 0.10463 0.0
Zn179 Zn 0.9326 0.61872 0.04502 0.0
N180 N 1.00413 0.65102 0.05026 0.0
C181 C 0.01766 0.65669 1.0038 0.0
C182 C 1.00874 0.63998 0.02509 0.0
C183 C 1.00838 0.67822 0.05512 0.0
N184 N 0.02184 0.68376 1.00858 0.0
C185 C 0.01761 0.69521 0.0337 0.0
O186 O 0.94061 0.65639 0.06094 0.0
C187 C 0.94359 0.65922 0.08669 0.0
O188 O 0.96115 0.6448 0.09946 0.0
H189 H 1.00586 0.61831 0.02156 0.0
H190 H 1.00507 0.68625 0.07553 0.0
C191 C 0.88374 0.62146 0.07727 0.0
C192 C 0.86402 0.6117 0.09584 0.0
C193 C 0.88536 0.56795 0.09504 0.0
C194 C 0.90495 0.57776 0.0768 0.0
N195 N 0.90378 0.60427 0.06822 0.0
N196 N 0.86552 0.58512 0.10423 0.0
H197 H 0.88381 0.64265 0.07074 0.0
C198 C 0.02469 0.63407 0.12914 0.0
O199 O 1.0005 0.6391 0.1398 0.0
O200 O 0.91813 0.62447 1.00685 0.0
H201 H 0.92119 0.56442 0.07002 0.0
H202 H 0.02138 0.64822 0.98364 0.0
H203 H 0.88608 0.54695 0.10213 0.0
Zn204 Zn 0.87879 0.77884 0.19385 0.0
C205 C 0.8208 0.80377 0.24551 0.0
N206 N 0.80667 0.78147 0.23775 0.0
C207 C 0.82208 0.77114 0.21736 0.0
N208 N 0.84486 0.78626 0.21296 0.0
N209 N 0.84378 0.80701 0.23051 0.0
C210 C 0.89184 0.87504 0.26558 0.0
O211 O 0.90619 0.88 0.24337 0.0
O212 O 0.87943 0.74479 0.1698 0.0
Zn213 Zn 0.86578 0.83982 0.22714 0.0
N214 N 0.90594 0.77189 0.222 0.0
C215 C 0.91651 0.76422 0.269 0.0
C216 C 0.89731 0.76769 0.24818 0.0
C217 C 0.93312 0.77184 0.21562 0.0
N218 N 0.94358 0.76477 0.26278 0.0
C219 C 0.95251 0.76826 0.23659 0.0
O220 O 0.90318 0.83487 0.20956 0.0
C221 C 0.90714 0.82954 0.18435 0.0
O222 O 0.89265 0.81155 0.17226 0.0
H223 H 0.87573 0.76717 0.25299 0.0
H224 H 0.9395 0.7752 0.19464 0.0
C225 C 0.85801 0.8875 0.19322 0.0
C226 C 0.84369 0.90445 0.17487 0.0
C227 C 0.8059 0.8739 0.17651 0.0
C228 C 0.82031 0.85697 0.1944 0.0
N229 N 0.84587 0.86428 0.20284 0.0
N230 N 0.81783 0.89723 0.16728 0.0
H231 H 0.87845 0.89276 0.19993 0.0
C232 C 0.88646 0.74654 0.14472 0.0
O233 O 0.88819 0.77093 0.13346 0.0
O234 O 0.87201 0.85811 0.2641 0.0
H235 H 0.81112 0.83808 0.20123 0.0
H236 H 0.90997 0.7612 0.28996 0.0
H237 H 0.78545 0.86846 0.16988 0.0
Zn238 Zn 0.02902 0.88796 0.075 0.0
C239 C 0.04593 0.94185 0.01801 0.0
N240 N 0.02123 0.95253 0.0238 0.0
C241 C 0.01414 0.93988 0.04721 0.0
N242 N 0.03385 0.92224 0.05554 0.0
N243 N 0.0541 0.92391 0.03749 0.0
C244 C 0.10481 0.87835 0.99483 0.0
O245 O 0.08553 0.8622 1.0044 0.0
O246 O 0.9953 0.88564 0.09936 0.0
Zn247 Zn 0.08917 0.90556 0.04285 0.0
N248 N 0.0236 0.86006 0.04696 0.0
C249 C 0.01543 0.84911 1.00007 0.0
C250 C 0.01789 0.8684 0.02095 0.0
C251 C 0.02587 0.83288 0.05311 0.0
N252 N 0.0183 0.82213 1.00606 0.0
C253 C 0.02328 0.81337 0.03205 0.0
O254 O 0.08787 0.86764 0.06037 0.0
C255 C 0.08193 0.86336 0.08538 0.0
O256 O 0.06253 0.87657 0.09669 0.0
H257 H 0.01535 0.88984 0.01625 0.0
H258 H 0.03016 0.82661 0.07396 0.0
C259 C 0.13457 0.91586 0.07867 0.0
C260 C 0.14959 0.93033 0.09862 0.0
C261 C 0.11651 0.96603 0.09702 0.0
C262 C 0.10143 0.95135 0.0777 0.0
N263 N 0.11096 0.92682 0.0685 0.0
N264 N 0.14018 0.95527 0.10694 0.0
H265 H 0.14153 0.89615 0.07119 0.0
C266 C 0.99792 0.87891 0.12445 0.0
O267 O 0.02262 0.87747 0.13502 0.0
O268 O 0.10964 0.90087 1.00705 0.0
H269 H 0.0822 0.95941 0.07021 0.0
H270 H 0.01125 0.85551 0.97926 0.0
H271 H 0.10935 0.98573 0.10428 0.0
Zn272 Zn 0.29464 0.15628 0.34054 0.0
C273 C 0.29785 0.19134 0.26601 0.0
N274 N 0.2749 0.20451 0.27359 0.0
C275 C 0.26916 0.19354 0.29818 0.0
N276 N 0.28826 0.17487 0.30576 0.0
N277 N 0.30604 0.17322 0.28525 0.0
C278 C 0.37415 0.13343 0.24524 0.0
O279 O 0.38609 0.1316 0.26931 0.0
O280 O 0.25939 0.15312 0.36232 0.0
Zn281 Zn 0.32442 0.1389 0.27799 0.0
N282 N 0.32216 0.1773 0.36062 0.0
C283 C 0.35068 0.21686 0.3625 0.0
C284 C 0.3302 0.20167 0.34973 0.0
C285 C 0.33439 0.16719 0.38369 0.0
N286 N 0.36254 0.207 0.38562 0.0
C287 C 0.35509 0.18253 0.3968 0.0
O288 O 0.34583 0.12411 0.31051 0.0
C289 C 0.33491 0.11244 0.3311 0.0
O290 O 0.31021 0.11756 0.33768 0.0
H291 H 0.32096 0.20926 0.3311 0.0
H292 H 0.328 0.14758 0.39174 0.0
C293 C 0.30131 0.0858 0.26489 0.0
C294 C 0.28029 0.06789 0.2564 0.0
C295 C 0.24879 0.10496 0.25715 0.0
C296 C 0.26966 0.12264 0.26503 0.0
N297 N 0.2955 0.11284 0.26897 0.0
N298 N 0.25457 0.07814 0.253 0.0
H299 H 0.32213 0.07861 0.26752 0.0
C300 C 0.25902 0.13553 0.38158 0.0
O301 O 0.28158 0.1219 0.38703 0.0
O302 O 0.34872 0.13916 0.24418 0.0
H303 H 0.26511 0.14408 0.26745 0.0
H304 H 0.35719 0.2363 0.35407 0.0
H305 H 0.22818 0.11252 0.25403 0.0
Zn306 Zn 0.39157 0.44433 0.99023 0.0
C307 C 0.45449 0.4896 0.96416 0.0
N308 N 0.46823 0.48008 0.98599 0.0
C309 C 0.45102 0.46133 0.99661 0.0
N310 N 0.42733 0.4598 0.98223 0.0
N311 N 0.42999 0.47702 0.96137 0.0
C312 C 0.40233 0.52344 0.89149 0.0
O313 O 0.41034 0.50513 0.87345 0.0
O314 O 0.38967 0.42069 0.02435 0.0
Zn315 Zn 0.4067 0.47754 0.92909 0.0
N316 N 0.36658 0.47455 0.99725 0.0
C317 C 0.35993 0.52219 1.00522 0.0
C318 C 0.37726 0.50011 1.00023 0.0
C319 C 0.3391 0.47001 0.99977 0.0
N320 N 0.33261 0.51775 1.0076 0.0
C321 C 0.32143 0.49226 1.00508 0.0
O322 O 0.36891 0.46025 0.93259 0.0
C323 C 0.36328 0.43552 0.93874 0.0
O324 O 0.37594 0.4234 0.95806 0.0
H325 H 0.39909 0.50331 0.99911 0.0
H326 H 0.33144 0.44925 0.99838 0.0
C327 C 0.41124 0.43876 0.88426 0.0
C328 C 0.42526 0.42364 0.86408 0.0
C329 C 0.4669 0.44473 0.8779 0.0
C330 C 0.45284 0.45985 0.89757 0.0
N331 N 0.42538 0.45656 0.90057 0.0
N332 N 0.45285 0.42703 0.86171 0.0
H333 H 0.38948 0.43623 0.88726 0.0
C334 C 0.38343 0.39537 0.02336 0.0
O335 O 0.38252 0.38299 0.99946 0.0
O336 O 0.40038 0.51649 0.91652 0.0
H337 H 0.46376 0.47407 0.91034 0.0
H338 H 0.36814 0.54267 1.0075 0.0
H339 H 0.4888 0.44707 0.87544 0.0
Zn340 Zn 0.72706 0.36481 0.33884 0.0
C341 C 0.71863 0.32525 0.26717 0.0
N342 N 0.73977 0.31014 0.27638 0.0
C343 C 0.74638 0.32261 0.3 0.0
N344 N 0.72976 0.34405 0.30526 0.0
N345 N 0.71254 0.34609 0.28437 0.0
C346 C 0.64534 0.38643 0.24572 0.0
O347 O 0.6339 0.3848 0.27002 0.0
O348 O 0.76469 0.37104 0.35416 0.0
Zn349 Zn 0.69494 0.38078 0.2776 0.0
N350 N 0.70447 0.34408 0.36409 0.0
C351 C 0.68112 0.3027 0.3751 0.0
C352 C 0.69779 0.3178 0.35758 0.0
C353 C 0.69446 0.3562 0.3872 0.0
N354 N 0.67161 0.31454 0.39838 0.0
C355 C 0.67769 0.34098 0.40499 0.0
O356 O 0.67335 0.39452 0.31027 0.0
C357 C 0.68426 0.40667 0.33061 0.0
O358 O 0.70921 0.4023 0.33679 0.0
H359 H 0.70513 0.30863 0.33884 0.0
H360 H 0.6999 0.37722 0.39184 0.0
C361 C 0.71892 0.4342 0.27098 0.0
C362 C 0.74059 0.45276 0.26721 0.0
C363 C 0.7717 0.41553 0.26393 0.0
C364 C 0.75015 0.39716 0.26735 0.0
N365 N 0.72427 0.40679 0.27128 0.0
N366 N 0.76646 0.44282 0.26406 0.0
H367 H 0.69816 0.44137 0.27414 0.0
C368 C 0.7748 0.35986 0.3754 0.0
O369 O 0.76037 0.34153 0.38884 0.0
O370 O 0.67106 0.38265 0.24365 0.0
H371 H 0.75419 0.37542 0.26689 0.0
H372 H 0.67575 0.28172 0.37026 0.0
H373 H 0.79243 0.40817 0.26115 0.0
Zn374 Zn 0.63029 0.07725 0.98858 0.0
C375 C 0.57456 0.02208 0.96998 0.0
N376 N 0.56391 0.02764 0.99473 0.0
C377 C 0.57764 0.05022 1.00253 0.0
N378 N 0.59591 0.05825 0.98334 0.0
N379 N 0.59358 0.04079 0.96263 0.0
C380 C 0.63518 0.99667 0.91349 0.0
O381 O 0.64989 1.00498 0.93447 0.0
O382 O 0.63251 0.10142 0.02252 0.0
Zn383 Zn 0.6111 0.04643 0.92748 0.0
N384 N 0.65726 0.04861 0.99458 0.0
C385 C 0.66735 1.00144 1.0022 0.0
C386 C 0.64841 0.02253 0.99914 0.0
C387 C 0.68452 0.05461 0.99404 0.0
N388 N 0.69446 1.00731 1.00121 0.0
C389 C 0.70365 0.03338 0.99749 0.0
O390 O 0.64961 0.06228 0.92882 0.0
C391 C 0.65565 0.08671 0.93568 0.0
O392 O 0.64297 0.09864 0.95509 0.0
H393 H 0.62685 0.01791 1.0003 0.0
H394 H 0.69114 0.07551 0.9906 0.0
C395 C 0.60001 0.08549 0.88442 0.0
C396 C 0.58558 0.10726 0.87197 0.0
C397 C 0.55151 0.10377 0.90665 0.0
C398 C 0.56605 0.0826 0.91901 0.0
N399 N 0.58982 0.07362 0.90759 0.0
N400 N 0.56163 0.1156 0.88364 0.0
H401 H 0.61918 0.07814 0.87609 0.0
C402 C 0.63956 0.12648 0.02037 0.0
O403 O 0.64161 0.1373 0.99582 0.0
O404 O 0.61444 0.01075 0.90634 0.0
H405 H 0.55857 0.07373 0.93787 0.0
H406 H 0.66058 0.98057 1.00543 0.0
H407 H 0.53254 0.11106 0.91548 0.0
Zn408 Zn 0.29312 0.86626 0.17858 0.0
C409 C 0.30622 0.82135 0.2464 0.0
N410 N 0.28567 0.80584 0.23653 0.0
C411 C 0.27708 0.82012 0.21464 0.0
N412 N 0.29182 0.84327 0.21111 0.0
N413 N 0.30987 0.84438 0.23143 0.0
C414 C 0.37631 0.887 0.27311 0.0
O415 O 0.38808 0.88964 0.24905 0.0
O416 O 0.25512 0.87382 0.16299 0.0
Zn417 Zn 0.32775 0.87873 0.23971 0.0
N418 N 0.31446 0.84647 0.15141 0.0
C419 C 0.3357 0.80509 0.13662 0.0
C420 C 0.32014 0.8195 0.15568 0.0
C421 C 0.32441 0.85984 0.129 0.0
N422 N 0.34528 0.81828 0.11413 0.0
C423 C 0.34032 0.8454 0.10979 0.0
O424 O 0.3491 0.89425 0.20752 0.0
C425 C 0.33708 0.90806 0.18893 0.0
O426 O 0.31224 0.90314 0.18269 0.0
H427 H 0.31287 0.80917 0.17377 0.0
H428 H 0.31966 0.88129 0.12606 0.0
C429 C 0.3034 0.93175 0.24612 0.0
C430 C 0.28158 0.95006 0.24972 0.0
C431 C 0.25126 0.91261 0.25605 0.0
C432 C 0.27294 0.89442 0.2524 0.0
N433 N 0.29846 0.9043 0.24702 0.0
N434 N 0.25602 0.93996 0.25443 0.0
H435 H 0.3239 0.93914 0.24195 0.0
C436 C 0.25283 0.89426 0.14688 0.0
O437 O 0.27472 0.90886 0.14128 0.0
O438 O 0.35132 0.87951 0.27414 0.0
H439 H 0.26933 0.87262 0.2537 0.0
H440 H 0.3402 0.78358 0.13967 0.0
H441 H 0.23079 0.90506 0.26001 0.0
Zn442 Zn 0.11254 0.47332 0.09513 0.0
C443 C 0.07614 0.47065 0.02055 0.0
N444 N 0.06095 0.49117 0.03083 0.0
C445 C 0.07276 0.49611 0.05517 0.0
N446 N 0.09388 0.47886 0.06007 0.0
N447 N 0.09649 0.46324 0.0379 0.0
C448 C 0.13651 0.39842 0.99485 0.0
O449 O 0.13424 0.38616 0.01871 0.0
O450 O 0.11982 0.50995 0.11372 0.0
Zn451 Zn 0.13155 0.44717 0.02846 0.0
N452 N 0.08934 0.45051 0.11822 0.0
C453 C 0.04816 0.42514 0.12451 0.0
C454 C 0.06407 0.44313 0.10909 0.0
C455 C 0.09977 0.43974 0.14183 0.0
N456 N 0.05853 0.41443 0.14799 0.0
C457 C 0.08407 0.42096 0.15718 0.0
O458 O 0.14819 0.42464 0.05841 0.0
C459 C 0.15756 0.43127 0.08181 0.0
O460 O 0.14847 0.45199 0.09483 0.0
H461 H 0.05653 0.45061 0.08968 0.0
H462 H 0.12015 0.44555 0.14833 0.0
C463 C 0.18442 0.47182 0.02034 0.0
C464 C 0.20284 0.49374 0.01689 0.0
C465 C 0.1654 0.52486 0.01728 0.0
C466 C 0.14723 0.50311 0.02051 0.0
N467 N 0.15704 0.47707 0.02232 0.0
N468 N 0.19268 0.51972 0.01571 0.0
H469 H 0.19172 0.45093 0.02205 0.0
C470 C 0.14286 0.52097 0.1085 0.0
O471 O 0.15904 0.50915 0.09052 0.0
O472 O 0.13274 0.42424 0.9936 0.0
H473 H 0.1255 0.50705 0.02174 0.0
H474 H 0.02794 0.41925 0.11757 0.0
H475 H 0.15792 0.54572 0.01613 0.0
Zn476 Zn 0.72309 0.65983 0.18105 0.0
C477 C 0.71646 0.69749 0.25378 0.0
N478 N 0.73741 0.71275 0.24442 0.0
C479 C 0.74351 0.70076 0.22044 0.0
N480 N 0.72692 0.67925 0.21526 0.0
N481 N 0.71014 0.67678 0.23646 0.0
C482 C 0.64391 0.63377 0.27559 0.0
O483 O 0.63255 0.63315 0.25118 0.0
O484 O 0.7602 0.6558 0.16352 0.0
Zn485 Zn 0.69316 0.64169 0.24345 0.0
N486 N 0.69774 0.68076 0.15852 0.0
C487 C 0.67024 0.72074 0.15356 0.0
C488 C 0.6895 0.70562 0.1681 0.0
C489 C 0.68668 0.66995 0.13521 0.0
N490 N 0.65937 0.71011 0.13033 0.0
C491 C 0.66686 0.68504 0.12057 0.0
O492 O 0.67202 0.62632 0.21087 0.0
C493 C 0.68334 0.61457 0.1905 0.0
O494 O 0.70728 0.62141 0.18277 0.0
H495 H 0.69747 0.71362 0.18712 0.0
H496 H 0.69321 0.64988 0.12834 0.0
C497 C 0.718 0.58915 0.2532 0.0
C498 C 0.7399 0.57109 0.25849 0.0
C499 C 0.77058 0.60894 0.25854 0.0
C500 C 0.74889 0.62667 0.25339 0.0
N501 N 0.72307 0.61649 0.25055 0.0
N502 N 0.76559 0.58173 0.261 0.0
H503 H 0.6971 0.5819 0.25188 0.0
C504 C 0.76883 0.66624 0.14127 0.0
O505 O 0.7529 0.68302 0.1275 0.0
O506 O 0.6692 0.63992 0.27747 0.0
H507 H 0.75275 0.64839 0.252 0.0
H508 H 0.66364 0.74062 0.16088 0.0
H509 H 0.79121 0.61674 0.26078 0.0
Zn510 Zn 0.90635 0.04414 0.09097 0.0
C511 C 0.9485 0.05393 0.0217 0.0
N512 N 0.96365 0.03285 0.03098 0.0
C513 C 0.94992 0.02476 0.05339 0.0
N514 N 0.92745 0.04036 0.0577 0.0
N515 N 0.92629 0.05848 0.0375 0.0
C516 C 0.88734 0.12682 0.99797 0.0
O517 O 0.88762 0.13802 0.02245 0.0
O518 O 0.90132 1.00762 0.10981 0.0
Zn519 Zn 0.89199 0.07655 0.0293 0.0
N520 N 0.92678 0.06882 0.1147 0.0
C521 C 0.96799 0.09331 0.12393 0.0
C522 C 0.95276 0.07577 0.10735 0.0
C523 C 0.91514 0.07943 0.13777 0.0
N524 N 0.95667 0.10326 0.14726 0.0
C525 C 0.93057 0.09688 0.15472 0.0
O526 O 0.87595 0.09744 0.06155 0.0
C527 C 0.86282 0.08543 0.08059 0.0
O528 O 0.86832 0.06073 0.08688 0.0
H529 H 0.96171 0.06789 0.08875 0.0
H530 H 0.89434 0.07398 0.14313 0.0
C531 C 0.83949 0.05363 0.01625 0.0
C532 C 0.82115 0.0326 1.0089 0.0
C533 C 0.85796 1.00072 1.00949 0.0
C534 C 0.876 0.02158 0.01669 0.0
N535 N 0.86644 0.04756 0.02019 0.0
N536 N 0.83111 1.0067 1.00574 0.0
H537 H 0.83281 0.07469 0.01812 0.0
C538 C 0.88239 1.00663 0.1277 0.0
O539 O 0.86848 0.02901 0.13316 0.0
O540 O 0.8918 0.10119 0.99577 0.0
H541 H 0.8975 0.017 0.01901 0.0
H542 H 0.98873 0.09887 0.11838 0.0
H543 H 0.86525 0.97996 1.00666 0.0
Zn544 Zn 0.28331 0.32678 0.14274 0.0
C545 C 0.30638 0.27527 0.20125 0.0
N546 N 0.28486 0.2844 0.21573 0.0
C547 C 0.27528 0.30517 0.20036 0.0
N548 N 0.29009 0.30839 0.17712 0.0
N549 N 0.30998 0.28989 0.17804 0.0
C550 C 0.35291 0.24253 0.12564 0.0
O551 O 0.33488 0.25456 0.10966 0.0
O552 O 0.25084 0.35293 0.14245 0.0
Zn553 Zn 0.34294 0.2914 0.15547 0.0
N554 N 0.27517 0.29805 0.11586 0.0
C555 C 0.26307 0.25138 0.1078 0.0
C556 C 0.26832 0.2729 0.12583 0.0
C557 C 0.27622 0.30261 0.08826 0.0
N558 N 0.26423 0.25591 0.08041 0.0
C559 C 0.27036 0.28105 0.07002 0.0
O560 O 0.34036 0.31082 0.11844 0.0
C561 C 0.335 0.33616 0.11523 0.0
O562 O 0.31664 0.34761 0.12971 0.0
H563 H 0.267 0.26944 0.14765 0.0
H564 H 0.28197 0.32252 0.08048 0.0
C565 C 0.39257 0.32228 0.16207 0.0
C566 C 0.41142 0.33895 0.17616 0.0
C567 C 0.3836 0.33634 0.21595 0.0
C568 C 0.36474 0.32027 0.20178 0.0
N569 N 0.36977 0.31309 0.17533 0.0
N570 N 0.40647 0.34521 0.20289 0.0
H571 H 0.39597 0.31654 0.14091 0.0
C572 C 0.25051 0.36795 0.12108 0.0
O573 O 0.27118 0.3667 0.10395 0.0
O574 O 0.3588 0.25363 0.14848 0.0
H575 H 0.34613 0.31388 0.21181 0.0
H576 H 0.25794 0.23122 0.11553 0.0
H577 H 0.38 0.34194 0.2371 0.0
Zn578 Zn 0.34122 0.72677 0.36336 0.0
C579 C 0.26912 0.71933 0.32431 0.0
N580 N 0.27796 0.74085 0.30957 0.0
C581 C 0.30155 0.74761 0.32203 0.0
N582 N 0.30718 0.73069 0.34318 0.0
N583 N 0.28652 0.71311 0.34494 0.0
C584 C 0.24583 0.64659 0.38669 0.0
O585 O 0.26948 0.63379 0.38564 0.0
O586 O 0.35946 0.76382 0.37013 0.0
Zn587 Zn 0.27964 0.69496 0.37937 0.0
N588 N 0.3647 0.70324 0.34145 0.0
C589 C 0.37311 0.67951 0.29963 0.0
C590 C 0.35711 0.69719 0.31531 0.0
C591 C 0.38728 0.69144 0.35288 0.0
N592 N 0.3958 0.66808 0.31089 0.0
C593 C 0.40328 0.67327 0.33728 0.0
O594 O 0.31167 0.67234 0.393 0.0
C595 C 0.33162 0.68325 0.40577 0.0
O596 O 0.33881 0.7078 0.4006 0.0
H597 H 0.3386 0.70566 0.30671 0.0
H598 H 0.39272 0.69626 0.37379 0.0
C599 C 0.2738 0.71854 0.43301 0.0
C600 C 0.27016 0.74006 0.45178 0.0
C601 C 0.26677 0.77155 0.41491 0.0
C602 C 0.27001 0.75016 0.39633 0.0
N603 N 0.27398 0.72416 0.40568 0.0
N604 N 0.26702 0.76605 0.44213 0.0
H605 H 0.2768 0.69767 0.43996 0.0
C606 C 0.37789 0.76393 0.38863 0.0
O607 O 0.38475 0.74057 0.40006 0.0
O608 O 0.24497 0.67216 0.3815 0.0
H609 H 0.26928 0.75441 0.37466 0.0
H610 H 0.36743 0.67472 0.27873 0.0
H611 H 0.26394 0.79237 0.40777 0.0
Zn612 Zn 0.97683 0.43352 0.90749 0.0
C613 C 0.96787 0.5045 0.9487 0.0
N614 N 0.98952 0.4956 0.96325 0.0
C615 C 0.99627 0.47212 0.95059 0.0
N616 N 0.97913 0.46656 0.92955 0.0
N617 N 0.96154 0.48721 0.928 0.0
C618 C 0.89508 0.52836 0.88802 0.0
O619 O 0.88227 0.50496 0.8917 0.0
O620 O 0.01482 0.42027 0.89893 0.0
Zn621 Zn 0.94379 0.49449 0.89341 0.0
N622 N 0.95684 0.40593 0.92802 0.0
C623 C 0.93786 0.3901 0.97004 0.0
C624 C 0.95229 0.40978 0.95523 0.0
C625 C 0.94657 0.38356 0.91472 0.0
N626 N 0.92803 0.3676 0.95693 0.0
C627 C 0.93167 0.36385 0.92952 0.0
O628 O 0.92112 0.46254 0.88031 0.0
C629 C 0.93137 0.44222 0.86759 0.0
O630 O 0.95639 0.43566 0.87113 0.0
H631 H 0.95961 0.42805 0.96532 0.0
H632 H 0.95024 0.38107 0.89298 0.0
C633 C 0.96767 0.49905 0.83947 0.0
C634 C 0.98945 0.50163 0.82084 0.0
C635 C 0.02052 0.50617 0.85799 0.0
C636 C 0.9989 0.50374 0.8764 0.0
N637 N 0.97299 0.49967 0.8669 0.0
N638 N 0.01533 0.50494 0.83072 0.0
H639 H 0.94687 0.49602 0.83233 0.0
C640 C 0.02729 0.40132 0.91172 0.0
O641 O 0.01528 0.38938 0.93265 0.0
O642 O 0.92096 0.52918 0.89113 0.0
H643 H 1.00289 0.50508 0.89811 0.0
H644 H 0.93435 0.39274 0.99178 0.0
H645 H 0.04127 0.50903 0.86528 0.0
Zn646 Zn 0.73952 0.83303 0.37824 0.0
C647 C 0.72259 0.77267 0.32709 0.0
N648 N 0.74624 0.77926 0.31469 0.0
C649 C 0.75325 0.80301 0.32681 0.0
N650 N 0.73464 0.81074 0.34583 0.0
N651 N 0.71514 0.79181 0.34565 0.0
C652 C 0.64105 0.74906 0.36078 0.0
O653 O 0.62535 0.76496 0.34576 0.0
O654 O 0.76928 0.86238 0.37726 0.0
Zn655 Zn 0.68055 0.79561 0.36472 0.0
N656 N 0.75378 0.80786 0.40559 0.0
C657 C 0.78605 0.77242 0.41499 0.0
C658 C 0.77212 0.78896 0.3964 0.0
C659 C 0.74863 0.8107 0.43287 0.0
N660 N 0.78141 0.77567 0.44217 0.0
C661 C 0.76302 0.79434 0.45168 0.0
O662 O 0.68242 0.81218 0.40275 0.0
C663 C 0.68601 0.83781 0.40591 0.0
O664 O 0.70409 0.85036 0.39197 0.0
H665 H 0.77656 0.78723 0.37484 0.0
H666 H 0.73445 0.82622 0.43991 0.0
C667 C 0.63444 0.83187 0.35463 0.0
C668 C 0.61992 0.85197 0.33974 0.0
C669 C 0.65285 0.84857 0.30399 0.0
C670 C 0.66723 0.82901 0.31889 0.0
N671 N 0.65764 0.82068 0.34369 0.0
N672 N 0.62974 0.85958 0.31475 0.0
H673 H 0.6276 0.82528 0.37466 0.0
C674 C 0.76898 0.87598 0.39961 0.0
O675 O 0.74813 0.87295 0.4163 0.0
O676 O 0.66383 0.75817 0.36952 0.0
H677 H 0.68616 0.82088 0.31083 0.0
H678 H 0.80084 0.75749 0.40792 0.0
H679 H 0.66019 0.85528 0.28418 0.0
Zn680 Zn 0.54214 0.58713 0.40156 0.0
C681 C 0.5547 0.5216 0.44953 0.0
N682 N 0.5339 0.5317 0.4645 0.0
C683 C 0.52519 0.55306 0.44946 0.0
N684 N 0.54011 0.55599 0.42635 0.0
N685 N 0.5584 0.5359 0.42615 0.0
C686 C 0.62539 0.49415 0.38644 0.0
O687 O 0.63753 0.51817 0.38558 0.0
O688 O 0.50524 0.60488 0.39499 0.0
Zn689 Zn 0.57638 0.52685 0.39225 0.0
N690 N 0.5667 0.61369 0.41809 0.0
C691 C 0.59496 0.62764 0.45536 0.0
C692 C 0.57528 0.61007 0.44437 0.0
C693 C 0.57706 0.63426 0.40234 0.0
N694 N 0.60545 0.648 0.43956 0.0
C695 C 0.59705 0.65186 0.41323 0.0
O696 O 0.5975 0.55907 0.37672 0.0
C697 C 0.58497 0.57677 0.36227 0.0
O698 O 0.55911 0.57919 0.3643 0.0
H699 H 0.5674 0.59337 0.45655 0.0
H700 H 0.57058 0.63629 0.38126 0.0
C701 C 0.55222 0.51761 0.33927 0.0
C702 C 0.53055 0.51214 0.32118 0.0
C703 C 0.50046 0.50689 0.35897 0.0
C704 C 0.52199 0.51227 0.3769 0.0
N705 N 0.54731 0.51803 0.36674 0.0
N706 N 0.50516 0.50716 0.33158 0.0
H707 H 0.57257 0.52214 0.33168 0.0
C708 C 0.50356 0.62 0.3738 0.0
O709 O 0.52527 0.62285 0.35818 0.0
O710 O 0.60008 0.49294 0.3925 0.0
H711 H 0.51842 0.51191 0.39874 0.0
H712 H 0.60208 0.62494 0.47618 0.0
H713 H 0.48014 0.50261 0.36672 0.0
Zn714 Zn 0.17978 0.72416 0.65755 0.0
C715 C 0.25212 0.71611 0.69591 0.0
N716 N 0.24269 0.73672 0.71163 0.0
C717 C 0.21893 0.74331 0.69946 0.0
N718 N 0.21386 0.72727 0.6775 0.0
N719 N 0.23503 0.71047 0.67486 0.0
C720 C 0.27496 0.64481 0.63219 0.0
O721 O 0.25108 0.63245 0.63347 0.0
O722 O 0.16352 0.76155 0.65137 0.0
Zn723 Zn 0.24217 0.69374 0.63986 0.0
N724 N 0.15582 0.70086 0.67917 0.0
C725 C 0.14844 0.67576 0.72028 0.0
C726 C 0.1638 0.69425 0.70504 0.0
C727 C 0.13315 0.68921 0.66767 0.0
N728 N 0.12602 0.66406 0.70883 0.0
C729 C 0.11771 0.67007 0.68286 0.0
O730 O 0.21013 0.67189 0.6252 0.0
C731 C 0.18892 0.68209 0.61398 0.0
O732 O 0.1809 0.70619 0.61995 0.0
H733 H 0.1823 0.70268 0.71365 0.0
H734 H 0.12755 0.69468 0.64693 0.0
C735 C 0.25262 0.71821 0.58757 0.0
C736 C 0.25825 0.73992 0.56945 0.0
C737 C 0.25618 0.7712 0.60673 0.0
C738 C 0.25074 0.74967 0.62456 0.0
N739 N 0.24878 0.72365 0.61466 0.0
N740 N 0.25986 0.76584 0.57973 0.0
H741 H 0.25205 0.69716 0.58058 0.0
C742 C 0.14339 0.77223 0.664 0.0
O743 O 0.13216 0.75884 0.68446 0.0
O744 O 0.27636 0.67033 0.63748 0.0
H745 H 0.24858 0.75379 0.64615 0.0
H746 H 0.15456 0.67032 0.74089 0.0
H747 H 0.25777 0.792 0.6143 0.0
Zn748 Zn 0.97724 0.59272 0.61407 0.0
C749 C 0.97054 0.51869 0.57801 0.0
N750 N 0.99275 0.52657 0.56379 0.0
C751 C 0.99891 0.55102 0.57483 0.0
N752 N 0.98088 0.55818 0.59458 0.0
N753 N 0.96325 0.5376 0.59692 0.0
C754 C 0.90296 0.49954 0.65361 0.0
O755 O 0.90229 0.5217 0.66886 0.0
O756 O 0.01375 0.61188 0.61857 0.0
Zn757 Zn 0.94509 0.53161 0.63164 0.0
N758 N 0.9522 0.61588 0.59376 0.0
C759 C 0.92387 0.62391 0.55486 0.0
C760 C 0.9423 0.60739 0.56912 0.0
C761 C 0.94332 0.63967 0.6054 0.0
N762 N 0.91536 0.64785 0.56623 0.0
C763 C 0.92426 0.65607 0.59137 0.0
O764 O 0.9244 0.56522 0.64463 0.0
C765 C 0.93582 0.58487 0.65738 0.0
O766 O 0.96053 0.59123 0.65223 0.0
H767 H 0.94858 0.58792 0.5606 0.0
H768 H 0.95105 0.64568 0.62533 0.0
C769 C 0.96902 0.51956 0.68528 0.0
C770 C 0.99039 0.51146 0.70295 0.0
C771 C 0.02133 0.51252 0.66544 0.0
C772 C 1.00003 0.51967 0.64795 0.0
N773 N 0.97426 0.52327 0.65804 0.0
N774 N 0.01601 0.50848 0.69236 0.0
H775 H 0.94843 0.5221 0.69294 0.0
C776 C 0.02638 0.60574 0.64052 0.0
O777 O 0.01673 0.58591 0.65595 0.0
O778 O 0.91905 0.49882 0.63304 0.0
H779 H 1.00423 0.52186 0.62642 0.0
H780 H 0.91617 0.61764 0.53503 0.0
H781 H 0.04189 0.50976 0.65763 0.0
Zn782 Zn 0.04175 0.93297 0.61989 0.0
C783 C 0.05824 0.99782 0.57122 0.0
N784 N 0.03908 0.98657 0.55491 0.0
C785 C 0.02947 0.96564 0.56993 0.0
N786 N 0.04233 0.96393 0.59439 0.0
N787 N 0.06002 0.98458 0.59556 0.0
C788 C 0.12519 0.02583 0.63823 0.0
O789 O 0.13722 1.00175 0.63753 0.0
O790 O 1.0033 0.91878 0.62701 0.0
Zn791 Zn 0.07606 0.99355 0.63073 0.0
N792 N 0.06267 0.90341 0.60329 0.0
C793 C 0.08129 0.88119 0.56406 0.0
C794 C 0.06555 0.90202 0.57562 0.0
C795 C 0.07512 0.88477 0.61991 0.0
N796 N 0.09351 0.8625 0.58065 0.0
C797 C 0.09077 0.86352 0.60841 0.0
O798 O 0.09739 0.96165 0.64642 0.0
C799 C 0.08563 0.94285 0.66008 0.0
O800 O 0.06003 0.9388 0.65716 0.0
H801 H 0.05606 0.9171 0.56261 0.0
H802 H 0.07334 0.8869 0.64186 0.0
C803 C 0.04925 1.00056 0.68301 0.0
C804 C 0.02651 1.00471 0.70016 0.0
C805 C 0.99825 1.01055 0.66099 0.0
C806 C 0.0208 1.00637 0.64404 0.0
N807 N 0.04573 1.00097 0.65529 0.0
N808 N 1.00158 1.00946 0.68857 0.0
H809 H 0.06932 0.99641 0.6915 0.0
C810 C 1.00132 0.9017 0.64665 0.0
O811 O 0.02353 0.89526 0.66042 0.0
O812 O 0.09981 0.02751 0.63246 0.0
H813 H 0.01835 1.00735 0.62206 0.0
H814 H 0.08387 0.8799 0.54208 0.0
H815 H 0.97824 0.01456 0.65233 0.0
Zn816 Zn 0.64341 0.78103 0.82957 0.0
C817 C 0.70106 0.80487 0.77768 0.0
N818 N 0.71534 0.78292 0.78604 0.0
C819 C 0.70043 0.77349 0.80718 0.0
N820 N 0.67776 0.78887 0.81147 0.0
N821 N 0.67851 0.80895 0.79313 0.0
C822 C 0.63107 0.87742 0.75728 0.0
O823 O 0.61993 0.88466 0.78067 0.0
O824 O 0.64188 0.74695 0.85365 0.0
Zn825 Zn 0.65669 0.84233 0.79525 0.0
N826 N 0.61796 0.77316 0.8002 0.0
C827 C 0.61031 0.76216 0.75327 0.0
C828 C 0.62817 0.76692 0.775 0.0
C829 C 0.59046 0.77371 0.80482 0.0
N830 N 0.58291 0.76328 0.75771 0.0
C831 C 0.57244 0.76865 0.78299 0.0
O832 O 0.6194 0.83848 0.81356 0.0
C833 C 0.61529 0.83309 0.83873 0.0
O834 O 0.62832 0.81376 0.85045 0.0
H835 H 0.64999 0.76564 0.77168 0.0
H836 H 0.58281 0.77846 0.8251 0.0
C837 C 0.66455 0.88934 0.8312 0.0
C838 C 0.6798 0.90633 0.849 0.0
C839 C 0.71935 0.87933 0.83982 0.0
C840 C 0.70423 0.86283 0.82222 0.0
N841 N 0.67717 0.86803 0.81814 0.0
N842 N 0.70684 0.90048 0.85273 0.0
H843 H 0.64298 0.89287 0.82772 0.0
C844 C 0.63458 0.74841 0.87867 0.0
O845 O 0.63321 0.77259 0.89047 0.0
O846 O 0.64962 0.85904 0.75754 0.0
H847 H 0.71404 0.84572 0.81233 0.0
H848 H 0.61813 0.75755 0.73304 0.0
H849 H 0.74087 0.87531 0.84336 0.0
Zn850 Zn 0.02689 0.13443 0.44919 0.0
C851 C 0.05314 0.07389 0.4969 0.0
N852 N 0.03001 0.06086 0.48968 0.0
C853 C 0.01967 0.07697 0.46987 0.0
N854 N 0.03564 0.09916 0.46524 0.0
N855 N 0.05712 0.09684 0.48182 0.0
C856 C 0.12304 0.14606 0.52004 0.0
O857 O 0.12914 0.16076 0.49835 0.0
O858 O 0.99268 0.13623 0.42541 0.0
Zn859 Zn 0.09043 0.1191 0.47952 0.0
N860 N 0.02005 0.15928 0.47963 0.0
C861 C 0.01407 0.16578 0.52759 0.0
C862 C 0.01922 0.14867 0.50541 0.0
C863 C 0.01521 0.18644 0.47511 0.0
N864 N 1.00942 0.19278 0.52314 0.0
C865 C 1.00953 0.20385 0.49751 0.0
O866 O 0.088 0.15609 0.45998 0.0
C867 C 0.07975 0.16092 0.43571 0.0
O868 O 0.05807 0.1497 0.42663 0.0
H869 H 0.02219 0.12707 0.50888 0.0
H870 H 0.01525 0.19406 0.45429 0.0
C871 C 0.13966 0.11148 0.44799 0.0
C872 C 0.15834 0.09672 0.4318 0.0
C873 C 0.1301 0.05732 0.43543 0.0
C874 C 0.11142 0.07212 0.45114 0.0
N875 N 0.1168 0.09869 0.45771 0.0
N876 N 0.15314 0.06987 0.42626 0.0
H877 H 0.14329 0.1328 0.45292 0.0
C878 C 0.99492 0.13803 0.39946 0.0
O879 O 0.01897 0.13364 0.38825 0.0
O880 O 0.10643 0.12608 0.5174 0.0
H881 H 0.09267 0.06251 0.45772 0.0
H882 H 0.01355 0.15763 0.54822 0.0
H883 H 0.12622 0.03607 0.43035 0.0
Zn884 Zn 0.36968 0.68383 0.79054 0.0
C885 C 0.32752 0.75408 0.79753 0.0
N886 N 0.3138 0.74522 0.77532 0.0
C887 C 0.32703 0.72199 0.7687 0.0
N888 N 0.34758 0.71653 0.78637 0.0
N889 N 0.34814 0.73692 0.80431 0.0
C890 C 0.38667 0.77572 0.87332 0.0
O891 O 0.38811 0.75114 0.8842 0.0
O892 O 0.37412 0.6634 0.75453 0.0
Zn893 Zn 0.38189 0.74455 0.82326 0.0
N894 N 0.35153 0.66093 0.81737 0.0
C895 C 0.31528 0.65319 0.84905 0.0
C896 C 0.32673 0.66833 0.82769 0.0
C897 C 0.36547 0.63917 0.82778 0.0
N898 N 0.32923 0.63145 0.85943 0.0
C899 C 0.35416 0.62396 0.8494 0.0
O900 O 0.39626 0.71165 0.84427 0.0
C901 C 0.41023 0.69325 0.83222 0.0
O902 O 0.40784 0.68991 0.80647 0.0
H903 H 0.31616 0.68615 0.81987 0.0
H904 H 0.38562 0.6344 0.81996 0.0
C905 C 0.43544 0.7557 0.80107 0.0
C906 C 0.45427 0.76194 0.78011 0.0
C907 C 0.41759 0.76338 0.74808 0.0
C908 C 0.39911 0.75726 0.76883 0.0
N909 N 0.40834 0.75319 0.79484 0.0
N910 N 0.44457 0.76557 0.75418 0.0
H911 H 0.44186 0.75349 0.82216 0.0
C912 C 0.3943 0.64694 0.75284 0.0
O913 O 0.41023 0.64382 0.77431 0.0
O914 O 0.38136 0.77793 0.84788 0.0
H915 H 0.37757 0.75611 0.76409 0.0
H916 H 0.29559 0.65885 0.85752 0.0
H917 H 0.41055 0.76657 0.72729 0.0
Zn918 Zn 0.92977 0.40352 0.48135 0.0
C919 C 0.99565 0.4505 0.46674 0.0
N920 N 0.98596 0.46588 0.48747 0.0
C921 C 0.96477 0.45103 0.49684 0.0
N922 N 0.96158 0.42759 0.48246 0.0
N923 N 0.98123 0.42703 0.46372 0.0
C924 C 0.0231 0.36979 0.40662 0.0
O925 O 1.00327 0.35183 0.40938 0.0
O926 O 0.91288 0.39671 0.51879 0.0
Zn927 Zn 0.98883 0.3927 0.44566 0.0
N928 N 0.90327 0.42114 0.45776 0.0
C929 C 0.89014 0.45833 0.42908 0.0
C930 C 0.90717 0.44738 0.44921 0.0
C931 C 0.88308 0.4053 0.44683 0.0
N932 N 0.8704 0.44233 0.41773 0.0
C933 C 0.86644 0.41593 0.42591 0.0
O934 O 0.9556 0.37872 0.42495 0.0
C935 C 0.93764 0.36426 0.43704 0.0
O936 O 0.93462 0.36621 0.46286 0.0
H937 H 0.92391 0.45943 0.45716 0.0
H938 H 0.88105 0.3842 0.45337 0.0
C939 C 0.99479 0.33946 0.47248 0.0
C940 C 1.00099 0.32238 0.49478 0.0
C941 C 0.01204 0.36148 0.52148 0.0
C942 C 1.00634 0.37835 0.49919 0.0
N943 N 0.99748 0.36717 0.47521 0.0
N944 N 1.00926 0.33395 0.51878 0.0
H945 H 0.98748 0.33078 0.45346 0.0
C946 C 0.91763 0.37345 0.52962 0.0
O947 O 0.93542 0.35701 0.51789 0.0
O948 O 0.02159 0.39234 0.41978 0.0
H949 H 1.00895 0.40027 0.50113 0.0
H950 H 0.89303 0.47915 0.42199 0.0
H951 H 0.01881 0.37016 0.54074 0.0
Zn952 Zn 0.65647 0.17964 0.72895 0.0
C953 C 0.69783 0.25027 0.71824 0.0
N954 N 0.71402 0.24028 0.73819 0.0
C955 C 0.70082 0.21748 0.74608 0.0
N956 N 0.67768 0.21343 0.73141 0.0
N957 N 0.67537 0.23445 0.7143 0.0
C958 C 0.63656 0.2752 0.649 0.0
O959 O 0.64088 0.25135 0.63724 0.0
O960 O 0.64861 0.16333 0.76643 0.0
Zn961 Zn 0.64009 0.24217 0.69796 0.0
N962 N 0.67818 0.15385 0.70794 0.0
C963 C 0.72003 0.14092 0.68647 0.0
C964 C 0.70497 0.15919 0.70241 0.0
C965 C 0.66553 0.1314 0.69719 0.0
N966 N 0.70752 0.11838 0.67603 0.0
C967 C 0.6805 0.11324 0.68062 0.0
O968 O 0.6256 0.21091 0.67492 0.0
C969 C 0.61438 0.18925 0.68409 0.0
O970 O 0.6202 0.18022 0.70788 0.0
H971 H 0.71454 0.17764 0.70987 0.0
H972 H 0.64409 0.12776 0.70157 0.0
C973 C 0.58702 0.24688 0.72364 0.0
C974 C 0.56906 0.24988 0.74598 0.0
C975 C 0.60724 0.25355 0.77591 0.0
C976 C 0.62496 0.25104 0.7537 0.0
N977 N 0.6146 0.24728 0.72808 0.0
N978 N 0.5798 0.25283 0.77156 0.0
H979 H 0.57927 0.24391 0.70305 0.0
C980 C 0.62497 0.16794 0.7764 0.0
O981 O 0.60863 0.18496 0.76344 0.0
O982 O 0.63794 0.2768 0.67501 0.0
H983 H 0.64681 0.25201 0.75699 0.0
H984 H 0.74143 0.14478 0.68215 0.0
H985 H 0.61521 0.25614 0.79644 0.0
Zn986 Zn 0.49168 0.13152 0.57395 0.0
C987 C 0.46558 0.07112 0.52584 0.0
N988 N 0.48745 0.05694 0.53464 0.0
C989 C 0.49792 0.07315 0.55433 0.0
N990 N 0.48345 0.09662 0.5571 0.0
N991 N 0.46264 0.09495 0.53966 0.0
C992 C 0.41499 0.14761 0.49452 0.0
O993 O 0.43121 0.16522 0.50685 0.0
O994 O 0.5267 0.13364 0.59638 0.0
Zn995 Zn 0.42945 0.11713 0.5424 0.0
N996 N 0.49675 0.15763 0.54439 0.0
C997 C 0.50247 0.16623 0.49672 0.0
C998 C 0.49989 0.14792 0.51844 0.0
C999 C 0.49707 0.18509 0.54964 0.0
N1000 N 0.50219 0.19356 0.50184 0.0
C1001 C 0.49973 0.20361 0.52775 0.0
O1002 O 0.4325 0.15395 0.56217 0.0
C1003 C 0.4397 0.15776 0.58697 0.0
O1004 O 0.46029 0.14524 0.59691 0.0
H1005 H 0.50034 0.12613 0.51451 0.0
H1006 H 0.49472 0.19235 0.57048 0.0
C1007 C 0.38068 0.10941 0.57465 0.0
C1008 C 0.36298 0.09508 0.59231 0.0
C1009 C 0.39276 0.05669 0.59067 0.0
C1010 C 0.41052 0.07113 0.57367 0.0
N1011 N 0.4039 0.09693 0.56539 0.0
N1012 N 0.36943 0.06891 0.59951 0.0
H1013 H 0.3761 0.13018 0.5683 0.0
C1014 C 0.52627 0.13683 0.62228 0.0
O1015 O 0.50299 0.13378 0.63543 0.0
O1016 O 0.4119 0.12393 0.50503 0.0
H1017 H 0.42956 0.06183 0.56746 0.0
H1018 H 0.50466 0.1588 0.47594 0.0
H1019 H 0.39762 0.03601 0.59707 0.0
Zn1020 Zn 0.38141 0.27588 0.69982 0.0
C1021 C 0.32019 0.30387 0.74498 0.0
N1022 N 0.30791 0.28002 0.73882 0.0
C1023 C 0.32443 0.2694 0.71952 0.0
N1024 N 0.34617 0.28575 0.71441 0.0
N1025 N 0.34303 0.30787 0.7299 0.0
C1026 C 0.3827 0.3523 0.77886 0.0
O1027 O 0.39544 0.32918 0.77347 0.0
O1028 O 0.38221 0.242 0.67608 0.0
Zn1029 Zn 0.36158 0.34275 0.72484 0.0
N1030 N 0.40524 0.26772 0.73033 0.0
C1031 C 0.41232 0.25965 0.77783 0.0
C1032 C 0.3948 0.26526 0.75602 0.0
C1033 C 0.43249 0.26433 0.72541 0.0
N1034 N 0.43955 0.25665 0.77303 0.0
C1035 C 0.45039 0.25893 0.74739 0.0
O1036 O 0.39828 0.34326 0.70474 0.0
C1037 C 0.4085 0.3297 0.6849 0.0
O1038 O 0.40012 0.30574 0.67896 0.0
H1039 H 0.37308 0.26759 0.75957 0.0
H1040 H 0.43978 0.26537 0.70452 0.0
C1041 C 0.34942 0.3887 0.69132 0.0
C1042 C 0.33389 0.40489 0.67333 0.0
C1043 C 0.29717 0.37322 0.67701 0.0
C1044 C 0.31285 0.35697 0.69453 0.0
N1045 N 0.3385 0.36522 0.70168 0.0
N1046 N 0.308 0.39676 0.66685 0.0
H1047 H 0.36995 0.39469 0.69717 0.0
C1048 C 0.38644 0.24381 0.65042 0.0
O1049 O 0.3847 0.26791 0.63853 0.0
O1050 O 0.36633 0.36198 0.76109 0.0
H1051 H 0.30469 0.33783 0.70201 0.0
H1052 H 0.40437 0.2577 0.79843 0.0
H1053 H 0.27665 0.36705 0.6713 0.0
Zn1054 Zn 0.53233 0.39123 0.57783 0.0
C1055 C 0.55768 0.45139 0.52897 0.0
N1056 N 0.53566 0.46541 0.53759 0.0
C1057 C 0.52541 0.44938 0.5575 0.0
N1058 N 0.54026 0.42614 0.56064 0.0
N1059 N 0.5609 0.42776 0.54298 0.0
C1060 C 0.62999 0.38094 0.50695 0.0
O1061 O 0.63577 0.36852 0.53004 0.0
O1062 O 0.50016 0.39077 0.60466 0.0
Zn1063 Zn 0.59409 0.40552 0.54491 0.0
N1064 N 0.52263 0.36609 0.54796 0.0
C1065 C 0.5101 0.3613 0.501 0.0
C1066 C 0.51804 0.37762 0.52296 0.0
C1067 C 0.51927 0.33854 0.55178 0.0
N1068 N 0.50645 0.33406 0.5049 0.0
C1069 C 0.51051 0.322 0.52973 0.0
O1070 O 0.58984 0.36734 0.56144 0.0
C1071 C 0.58419 0.36282 0.58645 0.0
O1072 O 0.56541 0.37645 0.59822 0.0
H1073 H 0.52011 0.39942 0.51997 0.0
H1074 H 0.52269 0.32974 0.57178 0.0
C1075 C 0.6422 0.41249 0.57922 0.0
C1076 C 0.65986 0.42698 0.59677 0.0
C1077 C 0.63007 0.46531 0.59475 0.0
C1078 C 0.61254 0.45081 0.57749 0.0
N1079 N 0.61918 0.42493 0.56942 0.0
N1080 N 0.65337 0.45319 0.6038 0.0
H1081 H 0.64689 0.3917 0.57331 0.0
C1082 C 0.50015 0.36932 0.61962 0.0
O1083 O 0.52085 0.35224 0.6179 0.0
O1084 O 0.61201 0.39991 0.5073 0.0
H1085 H 0.59373 0.46023 0.5708 0.0
H1086 H 0.50649 0.37026 0.48103 0.0
H1087 H 0.62517 0.48603 0.60096 0.0
Zn1088 Zn 0.79164 0.65305 0.83853 0.0
C1089 C 0.80603 0.6995 0.77203 0.0
N1090 N 0.78751 0.71639 0.78354 0.0
C1091 C 0.7786 0.702 0.80523 0.0
N1092 N 0.79119 0.67743 0.80703 0.0
N1093 N 0.80797 0.6755 0.78576 0.0
C1094 C 0.87337 0.63747 0.74465 0.0
O1095 O 0.88498 0.64063 0.76873 0.0
O1096 O 0.75355 0.64688 0.85384 0.0
Zn1097 Zn 0.82328 0.64027 0.77633 0.0
N1098 N 0.81514 0.66989 0.86587 0.0
C1099 C 0.83913 0.70853 0.88353 0.0
C1100 C 0.82115 0.69707 0.86455 0.0
C1101 C 0.82669 0.65357 0.88534 0.0
N1102 N 0.85058 0.69228 0.90298 0.0
C1103 C 0.84483 0.665 0.90458 0.0
O1104 O 0.84459 0.62399 0.80781 0.0
C1105 C 0.83357 0.61142 0.82777 0.0
O1106 O 0.8083 0.61508 0.83313 0.0
H1107 H 0.8125 0.70971 0.84866 0.0
H1108 H 0.82221 0.63187 0.88526 0.0
C1109 C 0.79723 0.58883 0.76383 0.0
C1110 C 0.77504 0.57181 0.75663 0.0
C1111 C 0.74538 0.61043 0.75863 0.0
C1112 C 0.76743 0.62719 0.76535 0.0
N1113 N 0.79287 0.61611 0.76803 0.0
N1114 N 0.74968 0.58329 0.75444 0.0
H1115 H 0.81782 0.58076 0.7655 0.0
C1116 C 0.74653 0.65426 0.87785 0.0
O1117 O 0.76366 0.66893 0.89255 0.0
O1118 O 0.84744 0.63939 0.74272 0.0
H1119 H 0.76426 0.64891 0.76804 0.0
H1120 H 0.84416 0.73011 0.88269 0.0
H1121 H 0.72501 0.61894 0.75653 0.0
Zn1122 Zn 0.89204 0.94689 0.49411 0.0
C1123 C 0.94839 0.99921 0.47012 0.0
N1124 N 0.96143 0.99251 0.49343 0.0
C1125 C 0.94732 0.97066 0.50246 0.0
N1126 N 0.92645 0.96422 0.48545 0.0
N1127 N 0.92746 0.9818 0.46473 0.0
C1128 C 0.88096 0.01514 0.3949 0.0
O1129 O 0.86657 0.99302 0.38953 0.0
O1130 O 0.89072 0.92385 0.52858 0.0
Zn1131 Zn 0.90639 0.97703 0.43098 0.0
N1132 N 0.86607 0.97614 0.50108 0.0
C1133 C 0.85694 0.02338 0.50901 0.0
C1134 C 0.87533 1.00234 0.5035 0.0
C1135 C 0.83905 0.97003 0.50458 0.0
N1136 N 0.83002 0.01736 0.51228 0.0
C1137 C 0.82032 0.99125 0.51024 0.0
O1138 O 0.86903 0.95824 0.43387 0.0
C1139 C 0.86319 0.93467 0.44341 0.0
O1140 O 0.87676 0.92454 0.46319 0.0
H1141 H 0.89685 1.00697 0.5016 0.0
H1142 H 0.83258 0.94884 0.50368 0.0
C1143 C 0.91524 0.94221 0.3842 0.0
C1144 C 0.93028 0.92443 0.36726 0.0
C1145 C 0.96841 0.92871 0.39714 0.0
C1146 C 0.95331 0.94605 0.41408 0.0
N1147 N 0.92727 0.95301 0.40701 0.0
N1148 N 0.95665 0.91846 0.3741 0.0
H1149 H 0.89434 0.94759 0.3792 0.0
C1150 C 0.88608 0.89819 0.52744 0.0
O1151 O 0.88843 0.88546 0.50382 0.0
O1152 O 0.90033 0.01362 0.41232 0.0
H1153 H 0.96232 0.95378 0.43277 0.0
H1154 H 0.86399 0.04433 0.51095 0.0
H1155 H 0.98929 0.92333 0.40232 0.0
Zn1156 Zn 0.19247 0.87649 0.78004 0.0
C1157 C 0.24335 0.81825 0.80464 0.0
N1158 N 0.23512 0.80407 0.78254 0.0
C1159 C 0.21419 0.81917 0.7729 0.0
N1160 N 0.21004 0.84196 0.78812 0.0
N1161 N 0.22805 0.84098 0.80846 0.0
C1162 C 0.27237 0.89127 0.85435 0.0
O1163 O 0.26093 0.9067 0.83547 0.0
O1164 O 0.16964 0.87826 0.74523 0.0
Zn1165 Zn 0.22433 0.86156 0.84234 0.0
N1166 N 0.22193 0.90228 0.77371 0.0
C1167 C 0.26923 0.91053 0.76513 0.0
C1168 C 0.24757 0.89238 0.76893 0.0
C1169 C 0.21689 0.92975 0.77376 0.0
N1170 N 0.26433 0.93789 0.76571 0.0
C1171 C 0.23867 0.94808 0.76963 0.0
O1172 O 0.20471 0.89839 0.84037 0.0
C1173 C 0.18029 0.90324 0.83258 0.0
O1174 O 0.17018 0.89108 0.81182 0.0
H1175 H 0.25129 0.87058 0.76808 0.0
H1176 H 0.19628 0.93714 0.77738 0.0
C1177 C 0.18932 0.85158 0.88884 0.0
C1178 C 0.1704 0.83641 0.90453 0.0
C1179 C 0.17621 0.79865 0.87426 0.0
C1180 C 0.19453 0.81386 0.85865 0.0
N1181 N 0.20105 0.83987 0.86632 0.0
N1182 N 0.16454 0.81027 0.89662 0.0
H1183 H 0.19455 0.87247 0.89418 0.0
C1184 C 0.14413 0.88365 0.74605 0.0
O1185 O 0.13138 0.88263 0.76973 0.0
O1186 O 0.26119 0.86851 0.86038 0.0
H1187 H 0.20293 0.80505 0.84024 0.0
H1188 H 0.28979 0.90297 0.7617 0.0
H1189 H 0.1709 0.77792 0.86841 0.0
Zn1190 Zn 0.12868 0.57486 0.49108 0.0
C1191 C 0.06771 0.52821 0.46435 0.0
N1192 N 0.05416 0.53647 0.48684 0.0
C1193 C 0.07075 0.55578 0.49738 0.0
N1194 N 0.09374 0.5589 0.48233 0.0
N1195 N 0.09156 0.54192 0.46122 0.0
C1196 C 0.14027 0.49405 0.41823 0.0
O1197 O 0.15461 0.50334 0.43905 0.0
O1198 O 0.13016 0.59741 0.52585 0.0
Zn1199 Zn 0.11389 0.5447 0.42832 0.0
N1200 N 0.15324 0.54454 0.49775 0.0
C1201 C 0.15996 0.49696 0.50626 0.0
C1202 C 0.14251 0.51913 0.50196 0.0
C1203 C 0.18078 0.54887 0.49862 0.0
N1204 N 0.18743 0.50117 0.50666 0.0
C1205 C 0.1984 0.52661 0.50325 0.0
O1206 O 0.15158 0.56249 0.43172 0.0
C1207 C 0.15667 0.58693 0.43938 0.0
O1208 O 0.14442 0.59721 0.45996 0.0
H1209 H 0.12061 0.51598 0.5019 0.0
H1210 H 0.18878 0.56932 0.49533 0.0
C1211 C 0.10745 0.57697 0.38002 0.0
C1212 C 0.09396 0.59499 0.3621 0.0
C1213 C 0.05545 0.59533 0.39172 0.0
C1214 C 0.06909 0.57784 0.4097 0.0
N1215 N 0.09455 0.56852 0.40325 0.0
N1216 N 0.06811 0.60339 0.36833 0.0
H1217 H 0.1279 0.5696 0.37555 0.0
C1218 C 0.13479 0.62307 0.5253 0.0
O1219 O 0.13351 0.63609 0.50177 0.0
O1220 O 0.1198 0.50795 0.41007 0.0
H1221 H 0.05944 0.57199 0.4287 0.0
H1222 H 0.15177 0.47657 0.50925 0.0
H1223 H 0.03504 0.60261 0.39641 0.0
Zn1224 Zn 0.79843 0.36294 0.68156 0.0
C1225 C 0.79875 0.32795 0.75634 0.0
N1226 N 0.77685 0.3139 0.74734 0.0
C1227 C 0.77211 0.32489 0.72253 0.0
N1228 N 0.79083 0.34443 0.71627 0.0
N1229 N 0.80716 0.34668 0.73787 0.0
C1230 C 0.86951 0.38576 0.78217 0.0
O1231 O 0.88313 0.3795 0.75981 0.0
O1232 O 0.76313 0.36875 0.66077 0.0
Zn1233 Zn 0.82311 0.38168 0.74592 0.0
N1234 N 0.82341 0.33993 0.66086 0.0
C1235 C 0.85061 0.29958 0.6578 0.0
C1236 C 0.831 0.31526 0.67134 0.0
C1237 C 0.83534 0.34999 0.63769 0.0
N1238 N 0.86246 0.30957 0.63472 0.0
C1239 C 0.85558 0.33449 0.62416 0.0
O1240 O 0.84839 0.3947 0.71663 0.0
C1241 C 0.84077 0.40659 0.6948 0.0
O1242 O 0.81845 0.39995 0.68298 0.0
H1243 H 0.82226 0.30793 0.69032 0.0
H1244 H 0.82929 0.36993 0.63018 0.0
C1245 C 0.79764 0.43518 0.74711 0.0
C1246 C 0.77529 0.45335 0.74808 0.0
C1247 C 0.74501 0.41552 0.75231 0.0
C1248 C 0.76717 0.3976 0.75147 0.0
N1249 N 0.793 0.40764 0.74839 0.0
N1250 N 0.74956 0.44287 0.75053 0.0
H1251 H 0.81838 0.44275 0.74498 0.0
C1252 C 0.76239 0.38752 0.64271 0.0
O1253 O 0.78485 0.40139 0.63745 0.0
O1254 O 0.84346 0.38464 0.78182 0.0
H1255 H 0.76364 0.37585 0.75331 0.0
H1256 H 0.85674 0.27983 0.66581 0.0
H1257 H 0.72435 0.40778 0.75447 0.0
Zn1258 Zn 0.61446 0.97752 0.59163 0.0
C1259 C 0.57485 0.97026 0.51986 0.0
N1260 N 0.56024 0.99191 0.52863 0.0
C1261 C 0.5727 0.99864 0.55224 0.0
N1262 N 0.59373 0.98158 0.55796 0.0
N1263 N 0.5954 0.96396 0.53732 0.0
C1264 C 0.6357 0.89596 0.49711 0.0
O1265 O 0.63774 0.88385 0.52107 0.0
O1266 O 0.62043 0.014 0.61061 0.0
Zn1267 Zn 0.62942 0.94499 0.53048 0.0
N1268 N 0.59394 0.95301 0.6155 0.0
C1269 C 0.5523 0.92946 0.62508 0.0
C1270 C 0.56764 0.94693 0.60854 0.0
C1271 C 0.60576 0.94168 0.63818 0.0
N1272 N 0.56382 0.91881 0.64803 0.0
C1273 C 0.59022 0.92437 0.65516 0.0
O1274 O 0.64288 0.92318 0.5633 0.0
C1275 C 0.65563 0.93501 0.58275 0.0
O1276 O 0.65209 0.96043 0.5872 0.0
H1277 H 0.5586 0.95547 0.59025 0.0
H1278 H 0.62679 0.94647 0.64322 0.0
C1279 C 0.68362 0.96806 0.52391 0.0
C1280 C 0.70236 0.98951 0.51964 0.0
C1281 C 0.6654 0.02063 0.51424 0.0
C1282 C 0.64687 0.99933 0.51823 0.0
N1283 N 0.65624 0.97357 0.52347 0.0
N1284 N 0.69263 0.01528 0.51517 0.0
H1285 H 0.69063 0.9474 0.52799 0.0
C1286 C 0.63928 0.01423 0.62866 0.0
O1287 O 0.65236 0.9913 0.63393 0.0
O1288 O 0.62965 0.92133 0.49629 0.0
H1289 H 0.62519 1.00349 0.51718 0.0
H1290 H 0.53133 0.92454 0.61983 0.0
H1291 H 0.65822 0.04126 0.5104 0.0
Zn1292 Zn 0.22695 0.15525 0.68419 0.0
C1293 C 0.22378 0.19149 0.75846 0.0
N1294 N 0.24707 0.20401 0.75078 0.0
C1295 C 0.2525 0.19279 0.72622 0.0
N1296 N 0.23294 0.17465 0.71868 0.0
N1297 N 0.21518 0.17347 0.73922 0.0
C1298 C 0.14745 0.13583 0.77763 0.0
O1299 O 0.13594 0.14009 0.75367 0.0
O1300 O 0.26235 0.15101 0.66277 0.0
Zn1301 Zn 0.1972 0.13889 0.74594 0.0
N1302 N 0.20043 0.17606 0.66277 0.0
C1303 C 0.17368 0.21646 0.65687 0.0
C1304 C 0.19259 0.20121 0.6719 0.0
C1305 C 0.18921 0.16508 0.63962 0.0
N1306 N 0.16307 0.20582 0.63344 0.0
C1307 C 0.17005 0.18034 0.62444 0.0
O1308 O 0.1749 0.12539 0.71379 0.0
C1309 C 0.18567 0.11268 0.69378 0.0
O1310 O 0.21059 0.11694 0.68749 0.0
H1311 H 0.20098 0.20947 0.69066 0.0
H1312 H 0.19542 0.1449 0.63288 0.0
C1313 C 0.2199 0.08507 0.75526 0.0
C1314 C 0.24099 0.06617 0.76092 0.0
C1315 C 0.27318 0.10271 0.76116 0.0
C1316 C 0.25228 0.12129 0.75582 0.0
N1317 N 0.22609 0.11221 0.75265 0.0
N1318 N 0.26707 0.07575 0.76365 0.0
H1319 H 0.19875 0.07863 0.75374 0.0
C1320 C 0.26269 0.13264 0.6442 0.0
O1321 O 0.24027 0.11848 0.63959 0.0
O1322 O 0.17338 0.13737 0.77968 0.0
H1323 H 0.25707 0.1428 0.75472 0.0
H1324 H 0.16754 0.23665 0.66372 0.0
H1325 H 0.29408 0.10967 0.76365 0.0
Zn1326 Zn 0.40383 0.54099 0.58831 0.0
C1327 C 0.4436 0.54718 0.51615 0.0
N1328 N 0.45863 0.52608 0.52555 0.0
C1329 C 0.44631 0.51972 0.54932 0.0
N1330 N 0.42495 0.53658 0.55462 0.0
N1331 N 0.423 0.55361 0.53348 0.0
C1332 C 0.38404 0.62031 0.49312 0.0
O1333 O 0.38748 0.63188 0.51719 0.0
O1334 O 0.39617 0.50443 0.60703 0.0
Zn1335 Zn 0.38834 0.57114 0.52572 0.0
N1336 N 0.42487 0.56512 0.61224 0.0
C1337 C 0.46647 0.5891 0.6211 0.0
C1338 C 0.45092 0.5716 0.60476 0.0
C1339 C 0.41333 0.5765 0.63502 0.0
N1340 N 0.4552 0.59989 0.6441 0.0
C1341 C 0.42888 0.59435 0.65148 0.0
O1342 O 0.37458 0.59428 0.55721 0.0
C1343 C 0.36217 0.58402 0.57764 0.0
O1344 O 0.36642 0.55924 0.58446 0.0
H1345 H 0.45959 0.5635 0.58611 0.0
H1346 H 0.39244 0.57157 0.64039 0.0
C1347 C 0.33504 0.54684 0.51757 0.0
C1348 C 0.31666 0.52499 0.51319 0.0
C1349 C 0.35405 0.4938 0.51383 0.0
C1350 C 0.37211 0.51543 0.51793 0.0
N1351 N 0.36234 0.54149 0.52007 0.0
N1352 N 0.3269 0.49907 0.5115 0.0
H1353 H 0.32809 0.56787 0.51824 0.0
C1354 C 0.37675 0.50502 0.62448 0.0
O1355 O 0.36532 0.52869 0.63019 0.0
O1356 O 0.38645 0.59438 0.49117 0.0
H1357 H 0.39377 0.5113 0.51899 0.0
H1358 H 0.48731 0.59417 0.61551 0.0
H1359 H 0.36154 0.47298 0.5122 0.0
Zn1360 Zn 0.77655 0.82837 0.64239 0.0
C1361 C 0.79835 0.77043 0.69414 0.0
N1362 N 0.77484 0.77661 0.70706 0.0
C1363 C 0.76664 0.79964 0.6944 0.0
N1364 N 0.78446 0.80738 0.67474 0.0
N1365 N 0.80469 0.78925 0.67482 0.0
C1366 C 0.87668 0.75832 0.63003 0.0
O1367 O 0.88223 0.78091 0.61648 0.0
O1368 O 0.74365 0.85339 0.64538 0.0
Zn1369 Zn 0.83871 0.79502 0.65497 0.0
N1370 N 0.76448 0.80197 0.61547 0.0
C1371 C 0.74027 0.76074 0.60555 0.0
C1372 C 0.752 0.77868 0.62441 0.0
C1373 C 0.76589 0.80796 0.58829 0.0
N1374 N 0.7414 0.76684 0.57846 0.0
C1375 C 0.75393 0.78999 0.56926 0.0
O1376 O 0.83514 0.81319 0.61764 0.0
C1377 C 0.82887 0.8382 0.6137 0.0
O1378 O 0.80913 0.84909 0.6268 0.0
H1379 H 0.75059 0.77427 0.64603 0.0
H1380 H 0.77547 0.82686 0.58169 0.0
C1381 C 0.88369 0.83209 0.66547 0.0
C1382 C 0.89953 0.85006 0.68154 0.0
C1383 C 0.86942 0.84263 0.71899 0.0
C1384 C 0.85372 0.82495 0.70298 0.0
N1385 N 0.86134 0.81963 0.6767 0.0
N1386 N 0.892 0.85457 0.70802 0.0
H1387 H 0.88927 0.82772 0.64447 0.0
C1388 C 0.74499 0.87811 0.63721 0.0
O1389 O 0.76916 0.88906 0.63275 0.0
O1390 O 0.85857 0.75906 0.6488 0.0
H1391 H 0.83554 0.81565 0.71147 0.0
H1392 H 0.73013 0.74224 0.61238 0.0
H1393 H 0.86374 0.84683 0.74001 0.0
Zn1394 Zn 0.84216 0.22705 0.86628 0.0
C1395 C 0.77164 0.21811 0.82526 0.0
N1396 N 0.78033 0.24011 0.81115 0.0
C1397 C 0.80284 0.24784 0.82494 0.0
N1398 N 0.80795 0.23117 0.84641 0.0
N1399 N 0.78802 0.21266 0.84697 0.0
C1400 C 0.74903 0.14436 0.88904 0.0
O1401 O 0.77358 0.13479 0.89452 0.0
O1402 O 0.86216 0.26344 0.87056 0.0
Zn1403 Zn 0.77949 0.1947 0.88129 0.0
N1404 N 0.86425 0.20095 0.84543 0.0
C1405 C 0.86924 0.17484 0.8045 0.0
C1406 C 0.85533 0.1944 0.81982 0.0
C1407 C 0.88659 0.18821 0.85649 0.0
N1408 N 0.8915 0.16236 0.8154 0.0
C1409 C 0.90087 0.16838 0.84101 0.0
O1410 O 0.81219 0.17521 0.89855 0.0
C1411 C 0.83216 0.1869 0.91063 0.0
O1412 O 0.83892 0.21132 0.90457 0.0
H1413 H 0.83731 0.20396 0.81134 0.0
H1414 H 0.89306 0.19349 0.877 0.0
C1415 C 0.7648 0.21906 0.93322 0.0
C1416 C 0.7555 0.24038 0.95036 0.0
C1417 C 0.75411 0.27021 0.91189 0.0
C1418 C 0.76285 0.249 0.89502 0.0
N1419 N 0.76833 0.22392 0.90595 0.0
N1420 N 0.75068 0.26543 0.939 0.0
H1421 H 0.76862 0.1987 0.94117 0.0
C1422 C 0.88171 0.26376 0.88789 0.0
O1423 O 0.88828 0.24076 0.90023 0.0
O1424 O 0.74673 0.16888 0.88036 0.0
H1425 H 0.76486 0.25262 0.87333 0.0
H1426 H 0.86231 0.16945 0.78412 0.0
H1427 H 0.74983 0.29029 0.90349 0.0
Zn1428 Zn 0.47713 0.92955 0.40629 0.0
C1429 C 0.4689 1.00126 0.44617 0.0
N1430 N 0.49058 0.99257 0.46075 0.0
C1431 C 0.49754 0.96911 0.44814 0.0
N1432 N 0.48063 0.96342 0.42698 0.0
N1433 N 0.46276 0.98387 0.42547 0.0
C1434 C 0.39488 0.02355 0.38372 0.0
O1435 O 0.3833 0.99929 0.38194 0.0
O1436 O 0.51379 0.91017 0.40121 0.0
Zn1437 Zn 0.44437 0.99102 0.39116 0.0
N1438 N 0.45239 0.9061 0.42665 0.0
C1439 C 0.42501 0.89817 0.46621 0.0
C1440 C 0.44348 0.91438 0.45173 0.0
C1441 C 0.4428 0.88258 0.415 0.0
N1442 N 0.41584 0.87448 0.45486 0.0
C1443 C 0.42408 0.8662 0.42951 0.0
O1444 O 0.42317 0.95823 0.37661 0.0
C1445 C 0.43451 0.93845 0.36392 0.0
O1446 O 0.45943 0.93228 0.36849 0.0
H1447 H 0.45045 0.93351 0.46043 0.0
H1448 H 0.44988 0.87664 0.39483 0.0
C1449 C 0.46717 1.00251 0.33808 0.0
C1450 C 0.48828 1.00888 0.3195 0.0
C1451 C 0.52041 1.00773 0.35607 0.0
C1452 C 0.49948 1.00167 0.37436 0.0
N1453 N 0.47332 0.99886 0.36507 0.0
N1454 N 0.51434 0.01125 0.32922 0.0
H1455 H 0.44602 1.00122 0.33154 0.0
C1456 C 0.52584 0.91471 0.37855 0.0
O1457 O 0.51566 0.93334 0.36199 0.0
O1458 O 0.42009 0.02501 0.39033 0.0
H1459 H 0.50422 0.99967 0.39583 0.0
H1460 H 0.41791 0.90439 0.48627 0.0
H1461 H 0.54131 1.00993 0.36316 0.0
Zn1462 Zn 0.24416 0.32603 0.88025 0.0
C1463 C 0.2147 0.27823 0.82092 0.0
N1464 N 0.23483 0.28817 0.80505 0.0
C1465 C 0.2463 0.30768 0.82082 0.0
N1466 N 0.23419 0.3092 0.84569 0.0
N1467 N 0.21383 0.2912 0.84538 0.0
C1468 C 0.14707 0.25583 0.89529 0.0
O1469 O 0.1428 0.27783 0.91022 0.0
O1470 O 0.27798 0.35001 0.87982 0.0
Zn1471 Zn 0.18246 0.2939 0.86985 0.0
N1472 N 0.25257 0.29663 0.90583 0.0
C1473 C 0.26194 0.24942 0.91358 0.0
C1474 C 0.25585 0.27083 0.89578 0.0
C1475 C 0.25571 0.302 0.9331 0.0
N1476 N 0.26474 0.25466 0.94073 0.0
C1477 C 0.26179 0.28036 0.9513 0.0
O1478 O 0.18955 0.31076 0.9076 0.0
C1479 C 0.19402 0.33634 0.91027 0.0
O1480 O 0.21275 0.34776 0.89625 0.0
H1481 H 0.25405 0.26687 0.87408 0.0
H1482 H 0.25407 0.32295 0.94016 0.0
C1483 C 0.13771 0.33171 0.8687 0.0
C1484 C 0.12027 0.35151 0.85719 0.0
C1485 C 0.14154 0.34452 0.81401 0.0
C1486 C 0.15888 0.32501 0.82559 0.0
N1487 N 0.15664 0.31891 0.8527 0.0
N1488 N 0.12273 0.35729 0.83 0.0
H1489 H 0.13679 0.32706 0.89034 0.0
C1490 C 0.27597 0.37578 0.88336 0.0
O1491 O 0.2516 0.38716 0.88234 0.0
O1492 O 0.16401 0.25719 0.87551 0.0
H1493 H 0.17425 0.31527 0.81312 0.0
H1494 H 0.26456 0.22877 0.90589 0.0
H1495 H 0.14314 0.34963 0.79248 0.0
Zn1496 Zn 0.04339 0.091 0.90697 0.0
C1497 C 0.05219 0.01959 0.94641 0.0
N1498 N 0.03292 0.03007 0.96308 0.0
C1499 C 0.02571 0.05335 0.95034 0.0
N1500 N 0.03994 0.05703 0.92698 0.0
N1501 N 0.05623 0.03549 0.92406 0.0
C1502 C 0.1199 0.9928 0.88365 0.0
O1503 O 0.1331 0.01618 0.88586 0.0
O1504 O 1.00675 0.11012 0.90225 0.0
Zn1505 Zn 0.07173 0.02749 0.88855 0.0
N1506 N 0.06826 0.11414 0.92764 0.0
C1507 C 0.0963 0.12139 0.96694 0.0
C1508 C 0.07779 0.10532 0.95232 0.0
C1509 C 0.07755 0.13794 0.91638 0.0
N1510 N 0.10528 0.14527 0.95591 0.0
C1511 C 0.09674 0.15391 0.9308 0.0
O1512 O 0.09424 0.05878 0.87307 0.0
C1513 C 0.08421 0.08033 0.8623 0.0
O1514 O 0.06071 0.08912 0.86928 0.0
H1515 H 0.07133 0.08587 0.96061 0.0
H1516 H 0.07004 0.14428 0.89648 0.0
C1517 C 0.04582 0.01791 0.83636 0.0
C1518 C 0.02359 0.01237 0.81877 0.0
C1519 C 0.99342 0.01474 0.85693 0.0
C1520 C 0.0155 0.01969 0.87426 0.0
N1521 N 0.04123 0.02143 0.8637 0.0
N1522 N 0.99796 0.01117 0.82976 0.0
H1523 H 0.0666 0.01876 0.82867 0.0
C1524 C 0.99439 0.10475 0.87993 0.0
O1525 O 1.00446 0.0857 0.86378 0.0
O1526 O 0.09404 0.99257 0.88683 0.0
H1527 H 0.01203 0.02185 0.89599 0.0
H1528 H 0.10374 0.1148 0.98676 0.0
H1529 H 0.97282 0.01347 0.86502 0.0
Zn1530 Zn 0.68015 0.22746 0.15477 0.0
C1531 C 0.75051 0.21744 0.19662 0.0
N1532 N 0.74123 0.23879 0.21139 0.0
C1533 C 0.71832 0.24609 0.19802 0.0
N1534 N 0.71361 0.22985 0.17616 0.0
N1535 N 0.73409 0.212 0.1749 0.0
C1536 C 0.77295 0.14437 0.13294 0.0
O1537 O 0.74848 0.13319 0.1324 0.0
O1538 O 0.66248 0.26484 0.149 0.0
Zn1539 Zn 0.7411 0.19392 0.14028 0.0
N1540 N 0.65502 0.20404 0.17478 0.0
C1541 C 0.64481 0.17754 0.21443 0.0
C1542 C 0.66234 0.19486 0.20006 0.0
C1543 C 0.63117 0.19575 0.16281 0.0
N1544 N 0.62084 0.16966 0.20274 0.0
C1545 C 0.61348 0.17812 0.17719 0.0
O1546 O 0.70831 0.17271 0.12559 0.0
C1547 C 0.68941 0.18467 0.11215 0.0
O1548 O 0.68294 0.20937 0.1174 0.0
H1549 H 0.68171 0.20074 0.20901 0.0
H1550 H 0.62601 0.20296 0.14247 0.0
C1551 C 0.74646 0.21836 0.08695 0.0
C1552 C 0.74964 0.24027 0.06861 0.0
C1553 C 0.75635 0.27058 0.10603 0.0
C1554 C 0.75323 0.24883 0.12421 0.0
N1555 N 0.74785 0.22325 0.1144 0.0
N1556 N 0.75434 0.26585 0.07871 0.0
H1557 H 0.7423 0.19783 0.07959 0.0
C1558 C 0.66639 0.2761 0.12581 0.0
O1559 O 0.68356 0.26464 0.10854 0.0
O1560 O 0.77507 0.16979 0.13858 0.0
H1561 H 0.75494 0.25247 0.14597 0.0
H1562 H 0.65025 0.17028 0.23466 0.0
H1563 H 0.76028 0.29109 0.11354 0.0
Zn1564 Zn 0.44406 0.03131 0.12866 0.0
C1565 C 0.49946 0.05129 0.07344 0.0
N1566 N 0.49269 0.02765 0.06102 0.0
C1567 C 0.47019 0.01959 0.07471 0.0
N1568 N 0.46341 0.03757 0.09466 0.0
N1569 N 0.48161 0.05776 0.09359 0.0
C1570 C 0.51144 0.13224 0.13555 0.0
O1571 O 0.48795 0.13813 0.14725 0.0
O1572 O 0.41972 0.9974 0.13036 0.0
Zn1573 Zn 0.47612 0.09244 0.11257 0.0
N1574 N 0.4724 0.02442 0.15567 0.0
C1575 C 0.51922 0.01491 0.16563 0.0
C1576 C 0.49829 0.01911 0.14674 0.0
C1577 C 0.4664 0.02462 0.18294 0.0
N1578 N 0.51338 0.0156 0.19276 0.0
C1579 C 0.48746 0.02007 0.20201 0.0
O1580 O 0.45922 0.08957 0.1507 0.0
C1581 C 0.43402 0.08413 0.15451 0.0
O1582 O 0.42268 0.06462 0.14145 0.0
H1583 H 0.50283 0.01806 0.12514 0.0
H1584 H 0.44562 0.02862 0.18961 0.0
C1585 C 0.43631 0.13535 0.10152 0.0
C1586 C 0.4154 0.14819 0.08621 0.0
C1587 C 0.42222 0.11557 0.05062 0.0
C1588 C 0.44271 0.10298 0.06588 0.0
N1589 N 0.4496 0.11313 0.09092 0.0
N1590 N 0.40909 0.13769 0.06111 0.0
H1591 H 0.44188 0.14273 0.12163 0.0
C1592 C 0.39507 0.9997 0.13864 0.0
O1593 O 0.38463 0.02431 0.14178 0.0
O1594 O 0.51197 0.11337 0.1175 0.0
H1595 H 0.45263 0.08488 0.05791 0.0
H1596 H 0.53995 0.011 0.1588 0.0
H1597 H 0.41654 0.10766 0.03069 0.0
Zn1598 Zn 0.57491 0.4927 0.13095 0.0
C1599 C 0.52229 0.47007 0.07373 0.0
N1600 N 0.52772 0.49442 0.0621 0.0
C1601 C 0.54936 0.50355 0.07651 0.0
N1602 N 0.55686 0.48564 0.09627 0.0
N1603 N 0.54015 0.46427 0.0941 0.0
C1604 C 0.51125 0.38913 0.13505 0.0
O1605 O 0.53394 0.38453 0.14876 0.0
O1606 O 0.59869 0.52694 0.13269 0.0
Zn1607 Zn 0.54623 0.43009 0.11361 0.0
N1608 N 0.54554 0.49924 0.15696 0.0
C1609 C 0.49814 0.50679 0.16548 0.0
C1610 C 0.51955 0.50222 0.1473 0.0
C1611 C 0.55108 0.50125 0.18426 0.0
N1612 N 0.50358 0.50858 0.19264 0.0
C1613 C 0.52946 0.50597 0.20279 0.0
O1614 O 0.56046 0.43441 0.15242 0.0
C1615 C 0.58511 0.4407 0.15796 0.0
O1616 O 0.59679 0.46029 0.14535 0.0
H1617 H 0.51529 0.50138 0.12564 0.0
H1618 H 0.5721 0.49985 0.19112 0.0
C1619 C 0.58612 0.38667 0.10435 0.0
C1620 C 0.60676 0.37304 0.08946 0.0
C1621 C 0.60332 0.40686 0.0546 0.0
C1622 C 0.58287 0.42017 0.06934 0.0
N1623 N 0.57431 0.40971 0.09372 0.0
N1624 N 0.61467 0.38369 0.06492 0.0
H1625 H 0.57944 0.37896 0.12399 0.0
C1626 C 0.62427 0.52506 0.13753 0.0
O1627 O 0.6358 0.50073 0.13713 0.0
O1628 O 0.51119 0.40789 0.1169 0.0
H1629 H 0.57402 0.43881 0.06134 0.0
H1630 H 0.47737 0.50912 0.15809 0.0
H1631 H 0.61019 0.4149 0.03512 0.0
C1632 C 0.12794 0.2188 0.41487 0.0
C1633 C 0.12395 0.22098 0.38637 0.0
C1634 C 0.11397 0.19907 0.43048 0.0
C1635 C 0.095 0.18094 0.41837 0.0
H1636 H 0.14179 0.23267 0.42533 0.0
H1637 H 0.11767 0.1985 0.45237 0.0
S1638 S 0.07773 0.17747 0.34424 0.0
N1639 N 0.10022 0.20266 0.34648 0.0
N1640 N 0.07384 0.16582 0.37577 0.0
C1641 C 0.0912 0.18255 0.38977 0.0
C1642 C 0.10569 0.20245 0.3738 0.0
C1643 C 0.45472 0.66785 0.83528 0.0
C1644 C 0.43037 0.67668 0.84788 0.0
C1645 C 0.47502 0.65396 0.85021 0.0
C1646 C 0.47162 0.64787 0.87825 0.0
H1647 H 0.45864 0.67266 0.81395 0.0
H1648 H 0.4939 0.6487 0.83979 0.0
S1649 S 0.40946 0.6628 0.91964 0.0
N1650 N 0.4026 0.67589 0.88919 0.0
N1651 N 0.44042 0.64936 0.9172 0.0
C1652 C 0.4465 0.65502 0.89061 0.0
C1653 C 0.426 0.66957 0.87547 0.0
C1654 C 0.91406 0.31876 0.43412 0.0
C1655 C 0.92186 0.34343 0.42143 0.0
C1656 C 0.90089 0.29789 0.4193 0.0
C1657 C 0.89461 0.30095 0.39124 0.0
H1658 H 0.91908 0.31509 0.45545 0.0
H1659 H 0.89635 0.27888 0.42982 0.0
S1660 S 0.90708 0.36351 0.34959 0.0
N1661 N 0.91994 0.37099 0.38001 0.0
N1662 N 0.89482 0.33205 0.35217 0.0
C1663 C 0.9008 0.32629 0.37877 0.0
C1664 C 0.91456 0.34741 0.39382 0.0
C1665 C 0.54918 0.87198 0.85241 0.0
C1666 C 0.5487 0.87456 0.88115 0.0
C1667 C 0.57107 0.85914 0.8389 0.0
C1668 C 0.59319 0.84785 0.8536 0.0
H1669 H 0.53223 0.87951 0.84019 0.0
H1670 H 0.57019 0.85732 0.81678 0.0
S1671 S 0.60297 0.85067 0.92897 0.0
N1672 N 0.57327 0.86604 0.92377 0.0
N1673 N 0.61414 0.84154 0.89836 0.0
C1674 C 0.59343 0.85095 0.88226 0.0
C1675 C 0.57132 0.86443 0.89603 0.0
C1676 C 0.10852 0.81941 0.08625 0.0
C1677 C 0.09611 0.84115 0.10063 0.0
C1678 C 0.12087 0.79744 0.10014 0.0
C1679 C 0.12183 0.79662 0.12894 0.0
H1680 H 0.10808 0.81893 0.06404 0.0
H1681 H 0.12952 0.78082 0.08819 0.0
S1682 S 0.09353 0.84911 0.17628 0.0
N1683 N 0.08635 0.86089 0.14538 0.0
N1684 N 0.10977 0.81981 0.17144 0.0
C1685 C 0.11009 0.81855 0.1436 0.0
C1686 C 0.09718 0.84074 0.12946 0.0
C1687 C 0.04819 0.65106 0.17137 0.0
C1688 C 0.04965 0.64406 0.1434 0.0
C1689 C 0.06989 0.66453 0.18453 0.0
C1690 C 0.09367 0.672 0.17011 0.0
H1691 H 0.02982 0.64678 0.18307 0.0
H1692 H 0.06757 0.67003 0.20593 0.0
S1693 S 0.10931 0.65584 0.09755 0.0
N1694 N 0.07816 0.64353 0.10237 0.0
N1695 N 0.11863 0.66939 0.12715 0.0
C1696 C 0.09599 0.66418 0.14251 0.0
C1697 C 0.0741 0.65 0.12917 0.0
C1698 C 0.90418 0.72471 0.10175 0.0
C1699 C 0.89775 0.72238 0.12982 0.0
C1700 C 0.91847 0.70396 0.08787 0.0
C1701 C 0.9273 0.68018 0.10155 0.0
H1702 H 0.89874 0.74304 0.09047 0.0
H1703 H 0.92338 0.70701 0.06643 0.0
S1704 S 0.91331 0.66241 0.17414 0.0
N1705 N 0.89949 0.69306 0.1702 0.0
N1706 N 0.92662 0.65432 0.1441 0.0
C1707 C 0.92011 0.67699 0.12928 0.0
C1708 C 0.90522 0.69797 0.14339 0.0
C1709 C 0.9292 0.84592 0.14091 0.0
C1710 C 0.93006 0.84302 0.1696 0.0
C1711 C 0.95074 0.85851 0.12656 0.0
C1712 C 0.97413 0.86843 0.14031 0.0
H1713 H 0.91171 0.83846 0.12943 0.0
H1714 H 0.94927 0.8599 0.10445 0.0
S1715 S 0.98665 0.86542 0.21537 0.0
N1716 N 0.95636 0.85095 0.21124 0.0
N1717 N 0.99674 0.8745 0.18437 0.0
C1718 C 0.97516 0.86577 0.16903 0.0
C1719 C 0.95316 0.85314 0.18364 0.0
C1720 C 0.41783 0.12156 0.22094 0.0
C1721 C 0.38908 0.12412 0.22029 0.0
C1722 C 0.43228 0.10943 0.1992 0.0
C1723 C 0.41851 0.09887 0.17615 0.0
H1724 H 0.42931 0.12844 0.23868 0.0
H1725 H 0.45433 0.10743 0.20097 0.0
S1726 S 0.34368 0.10241 0.16305 0.0
N1727 N 0.34759 0.1167 0.1935 0.0
N1728 N 0.37474 0.09354 0.15298 0.0
C1729 C 0.38991 0.10216 0.17471 0.0
C1730 C 0.37521 0.11491 0.19665 0.0
C1731 C 0.36147 0.33785 0.07116 0.0
C1732 C 0.34866 0.35184 0.09293 0.0
C1733 C 0.37324 0.3521 0.04911 0.0
C1734 C 0.37313 0.38095 0.04813 0.0
H1735 H 0.36184 0.31564 0.07074 0.0
H1736 H 0.38227 0.34038 0.03255 0.0
S1737 S 0.34355 0.42745 0.10067 0.0
N1738 N 0.3375 0.39635 0.11255 0.0
N1739 N 0.35977 0.42307 0.07132 0.0
C1740 C 0.36105 0.39524 0.07012 0.0
C1741 C 0.34879 0.38073 0.09243 0.0
C1742 C 0.64327 0.41097 0.20059 0.0
C1743 C 0.62952 0.39766 0.22222 0.0
C1744 C 0.62878 0.42484 0.17996 0.0
C1745 C 0.59995 0.42562 0.17986 0.0
H1746 H 0.66546 0.41149 0.20003 0.0
H1747 H 0.6403 0.43508 0.16398 0.0
S1748 S 0.5541 0.39312 0.23119 0.0
N1749 N 0.58532 0.38553 0.24179 0.0
N1750 N 0.55814 0.41131 0.20296 0.0
C1751 C 0.58592 0.41177 0.20094 0.0
C1752 C 0.60068 0.39789 0.22211 0.0
C1753 C 0.65962 0.12772 0.06779 0.0
C1754 C 0.64986 0.14191 0.04458 0.0
C1755 C 0.6725 0.14163 0.0895 0.0
C1756 C 0.67568 0.17031 0.08909 0.0
H1757 H 0.65811 0.10558 0.06884 0.0
H1758 H 0.68001 0.12983 0.10675 0.0
S1759 S 0.65319 0.21719 0.03349 0.0
N1760 N 0.64396 0.18641 0.02283 0.0
N1761 N 0.66776 0.21248 0.06366 0.0
C1762 C 0.66547 0.18481 0.06632 0.0
C1763 C 0.65269 0.17064 0.04409 0.0
C1764 C 0.41943 0.9006 0.29747 0.0
C1765 C 0.39077 0.89718 0.298 0.0
C1766 C 0.43343 0.91333 0.31915 0.0
C1767 C 0.41929 0.92371 0.34204 0.0
H1768 H 0.43118 0.89384 0.27988 0.0
H1769 H 0.45543 0.91586 0.31752 0.0
S1770 S 0.34449 0.91853 0.35457 0.0
N1771 N 0.34893 0.90393 0.32434 0.0
N1772 N 0.37525 0.92833 0.36477 0.0
C1773 C 0.39076 0.91982 0.34327 0.0
C1774 C 0.37652 0.90639 0.32139 0.0
C1775 C 0.16499 0.33935 0.95259 0.0
C1776 C 0.17796 0.35258 0.9305 0.0
C1777 C 0.15069 0.35427 0.97261 0.0
C1778 C 0.14838 0.38306 0.97124 0.0
H1779 H 0.16653 0.31732 0.95492 0.0
H1780 H 0.14189 0.34312 0.98966 0.0
S1781 S 0.1764 0.42732 0.91597 0.0
N1782 N 0.18601 0.39602 0.90738 0.0
N1783 N 0.15897 0.42403 0.94477 0.0
C1784 C 0.16023 0.39644 0.94855 0.0
C1785 C 0.17509 0.38124 0.92831 0.0
C1786 C 0.58681 0.60089 0.31711 0.0
C1787 C 0.6 0.59308 0.34151 0.0
C1788 C 0.60089 0.61511 0.29648 0.0
C1789 C 0.62868 0.62246 0.29952 0.0
H1790 H 0.56565 0.59521 0.31349 0.0
H1791 H 0.59 0.61972 0.27769 0.0
S1792 S 0.67136 0.61014 0.36143 0.0
N1793 N 0.64155 0.59592 0.36881 0.0
N1794 N 0.66803 0.62299 0.33029 0.0
C1795 C 0.64165 0.61611 0.32457 0.0
C1796 C 0.62734 0.60128 0.34544 0.0
C1797 C 0.86223 0.12871 0.95313 0.0
C1798 C 0.87618 0.14251 0.97435 0.0
C1799 C 0.84805 0.1432 0.93267 0.0
C1800 C 0.84761 0.17206 0.93233 0.0
H1801 H 0.86136 0.10651 0.95284 0.0
H1802 H 0.83727 0.13164 0.91706 0.0
S1803 S 0.8823 0.21797 0.98228 0.0
N1804 N 0.88956 0.18672 0.9931 0.0
N1805 N 0.86331 0.21391 0.95456 0.0
C1806 C 0.86226 0.18611 0.9529 0.0
C1807 C 0.87641 0.17135 0.97391 0.0
C1808 C 0.21794 0.38256 0.08512 0.0
C1809 C 0.22592 0.38341 0.11276 0.0
C1810 C 0.1956 0.39772 0.07561 0.0
C1811 C 0.1806 0.41495 0.09325 0.0
H1812 H 0.2291 0.37001 0.0706 0.0
H1813 H 0.19045 0.39625 0.05405 0.0
S1814 S 0.19429 0.42534 0.16752 0.0
N1815 N 0.21758 0.40276 0.1578 0.0
N1816 N 0.17605 0.43246 0.13986 0.0
C1817 C 0.18859 0.41621 0.12105 0.0
C1818 C 0.21108 0.40009 0.13085 0.0
C1819 C 0.21974 0.60352 0.39659 0.0
C1820 C 0.2216 0.63226 0.39827 0.0
C1821 C 0.19842 0.58914 0.40948 0.0
C1822 C 0.17837 0.60287 0.42508 0.0
H1823 H 0.23503 0.59196 0.38538 0.0
H1824 H 0.19807 0.567 0.4077 0.0
S1825 S 0.17358 0.67818 0.43543 0.0
N1826 N 0.20112 0.67406 0.41623 0.0
N1827 N 0.16131 0.64708 0.4407 0.0
C1828 C 0.17978 0.63168 0.42664 0.0
C1829 C 0.20129 0.64635 0.41317 0.0
C1830 C 0.85138 0.55255 0.87595 0.0
C1831 C 0.88021 0.55174 0.87521 0.0
C1832 C 0.83654 0.57219 0.86102 0.0
C1833 C 0.84989 0.59161 0.84433 0.0
H1834 H 0.84007 0.53753 0.88776 0.0
H1835 H 0.81437 0.57165 0.86206 0.0
S1836 S 0.92522 0.59938 0.83642 0.0
N1837 N 0.92164 0.57308 0.85739 0.0
N1838 N 0.89382 0.60972 0.82922 0.0
C1839 C 0.87876 0.59157 0.84404 0.0
C1840 C 0.89389 0.57177 0.85952 0.0
C1841 C 0.83056 0.92363 0.40494 0.0
C1842 C 0.83953 0.9192 0.43208 0.0
C1843 C 0.80814 0.90909 0.39399 0.0
C1844 C 0.79369 0.89008 0.41004 0.0
H1845 H 0.84105 0.93827 0.39196 0.0
H1846 H 0.80176 0.91314 0.37311 0.0
S1847 S 0.80846 0.87115 0.48228 0.0
N1848 N 0.83187 0.89433 0.47463 0.0
N1849 N 0.78991 0.86735 0.45424 0.0
C1850 C 0.80244 0.88546 0.43713 0.0
C1851 C 0.82532 0.89992 0.44812 0.0
C1852 C 0.68252 0.4476 0.36164 0.0
C1853 C 0.66852 0.42759 0.34619 0.0
C1854 C 0.66834 0.46847 0.37545 0.0
C1855 C 0.63957 0.46985 0.37488 0.0
H1856 H 0.7047 0.44769 0.36246 0.0
H1857 H 0.68006 0.48393 0.38629 0.0
S1858 S 0.59303 0.42165 0.3386 0.0
N1859 N 0.62408 0.40996 0.33198 0.0
N1860 N 0.59744 0.4489 0.35821 0.0
C1861 C 0.62522 0.44942 0.36032 0.0
C1862 C 0.63969 0.42841 0.34589 0.0
C1863 C 0.32055 0.58665 0.60764 0.0
C1864 C 0.34098 0.6002 0.59239 0.0
C1865 C 0.29973 0.60129 0.62103 0.0
C1866 C 0.29874 0.63011 0.62017 0.0
H1867 H 0.3202 0.56446 0.60875 0.0
H1868 H 0.28411 0.58987 0.63191 0.0
S1869 S 0.34804 0.67556 0.58413 0.0
N1870 N 0.35935 0.64425 0.57796 0.0
N1871 N 0.32042 0.67175 0.60329 0.0
C1872 C 0.31942 0.64399 0.60557 0.0
C1873 C 0.34045 0.62905 0.59164 0.0
C1874 C 0.87278 0.45842 0.64574 0.0
C1875 C 0.88853 0.47481 0.66346 0.0
C1876 C 0.85718 0.43637 0.65596 0.0
C1877 C 0.85747 0.42964 0.68409 0.0
H1878 H 0.87187 0.46315 0.62406 0.0
H1879 H 0.84489 0.4245 0.64177 0.0
S1880 S 0.89697 0.46552 0.73852 0.0
N1881 N 0.9043 0.48238 0.71013 0.0
N1882 N 0.87573 0.44088 0.7292 0.0
C1883 C 0.87387 0.44552 0.70176 0.0
C1884 C 0.88921 0.46812 0.69147 0.0
C1885 C 0.18328 0.07113 0.66355 0.0
C1886 C 0.16964 0.0916 0.67867 0.0
C1887 C 0.16871 0.05036 0.64995 0.0
C1888 C 0.13989 0.04951 0.65046 0.0
H1889 H 0.20546 0.07069 0.66272 0.0
H1890 H 0.18016 0.03468 0.63917 0.0
S1891 S 0.09425 0.099 0.68603 0.0
N1892 N 0.12551 0.11018 0.69259 0.0
N1893 N 0.09817 0.07134 0.66691 0.0
C1894 C 0.12594 0.07022 0.66497 0.0
C1895 C 0.14079 0.09119 0.67909 0.0
C1896 C 0.62137 0.72387 0.9218 0.0
C1897 C 0.62278 0.72418 0.89298 0.0
C1898 C 0.60726 0.70309 0.93588 0.0
C1899 C 0.59343 0.68204 0.92172 0.0
H1900 H 0.63087 0.7401 0.93363 0.0
H1901 H 0.60655 0.70404 0.95806 0.0
S1902 S 0.59161 0.67281 0.84615 0.0
N1903 N 0.60991 0.70092 0.85075 0.0
N1904 N 0.58312 0.66218 0.87713 0.0
C1905 C 0.59519 0.68174 0.89289 0.0
C1906 C 0.60995 0.70268 0.87856 0.0
C1907 C 0.93137 0.17905 0.38001 0.0
C1908 C 0.93154 0.17831 0.35115 0.0
C1909 C 0.95125 0.16507 0.39548 0.0
C1910 C 0.97232 0.14997 0.38275 0.0
H1911 H 0.91573 0.19052 0.39081 0.0
H1912 H 0.95043 0.16672 0.41761 0.0
S1913 S 0.98194 0.14124 0.30774 0.0
N1914 N 0.95455 0.16091 0.31047 0.0
N1915 N 0.99176 0.13472 0.33946 0.0
C1916 C 0.97253 0.14877 0.35391 0.0
C1917 C 0.9522 0.16287 0.33816 0.0
C1918 C 0.42003 0.84436 0.88905 0.0
C1919 C 0.42292 0.8438 0.91772 0.0
C1920 C 0.40693 0.82293 0.87498 0.0
C1921 C 0.39664 0.79986 0.88901 0.0
H1922 H 0.42802 0.86146 0.87735 0.0
H1923 H 0.40578 0.82405 0.85284 0.0
S1924 S 0.39841 0.78884 0.9643 0.0
N1925 N 0.41373 0.81867 0.9598 0.0
N1926 N 0.38948 0.7783 0.93339 0.0
C1927 C 0.39892 0.79935 0.91777 0.0
C1928 C 0.41195 0.82132 0.93211 0.0
C1929 C 0.05557 0.33404 0.39078 0.0
C1930 C 0.04771 0.36178 0.39088 0.0
C1931 C 0.0779 0.32491 0.37536 0.0
C1932 C 0.09312 0.34302 0.35884 0.0
H1933 H 0.04436 0.31913 0.40284 0.0
H1934 H 0.08286 0.30326 0.37601 0.0
S1935 S 0.08064 0.41789 0.35176 0.0
N1936 N 0.05691 0.40751 0.37356 0.0
N1937 N 0.09845 0.39028 0.34353 0.0
C1938 C 0.08544 0.37093 0.35871 0.0
C1939 C 0.06292 0.38035 0.37504 0.0
C1940 C 0.61118 0.31985 0.64578 0.0
C1941 C 0.62552 0.29848 0.63266 0.0
C1942 C 0.59805 0.34054 0.63069 0.0
C1943 C 0.59886 0.34091 0.60183 0.0
H1944 H 0.60946 0.32029 0.66791 0.0
H1945 H 0.58708 0.35632 0.64181 0.0
S1946 S 0.63431 0.29011 0.55751 0.0
N1947 N 0.6403 0.2794 0.58903 0.0
N1948 N 0.61562 0.31814 0.56073 0.0
C1949 C 0.6136 0.31998 0.58845 0.0
C1950 C 0.62688 0.29883 0.60383 0.0
C1951 C 0.57387 0.15771 0.68043 0.0
C1952 C 0.59311 0.17493 0.66749 0.0
C1953 C 0.55281 0.14491 0.66553 0.0
C1954 C 0.55039 0.14831 0.63699 0.0
H1955 H 0.57461 0.1546 0.7024 0.0
H1956 H 0.53811 0.13245 0.67656 0.0
S1957 S 0.59633 0.19007 0.59295 0.0
N1958 N 0.60888 0.19388 0.62416 0.0
N1959 N 0.5696 0.16959 0.59618 0.0
C1960 C 0.56996 0.16481 0.62363 0.0
C1961 C 0.59119 0.17817 0.63886 0.0
C1962 C 0.40965 0.19927 0.5909 0.0
C1963 C 0.42511 0.17856 0.60377 0.0
C1964 C 0.39663 0.21987 0.60619 0.0
C1965 C 0.39809 0.22031 0.63499 0.0
H1966 H 0.4081 0.20003 0.56876 0.0
H1967 H 0.38553 0.23574 0.59531 0.0
S1968 S 0.43465 0.16986 0.67879 0.0
N1969 N 0.44021 0.15917 0.64717 0.0
N1970 N 0.4156 0.19767 0.67588 0.0
C1971 C 0.41283 0.19927 0.64819 0.0
C1972 C 0.42637 0.17848 0.6326 0.0
C1973 C 0.44748 0.32329 0.65254 0.0
C1974 C 0.43151 0.34123 0.66854 0.0
C1975 C 0.46933 0.33287 0.63677 0.0
C1976 C 0.47602 0.36089 0.63584 0.0
H1977 H 0.44338 0.30144 0.6524 0.0
H1978 H 0.48108 0.31808 0.62505 0.0
S1979 S 0.44139 0.41662 0.67404 0.0
N1980 N 0.4245 0.3886 0.68288 0.0
N1981 N 0.46534 0.40662 0.65229 0.0
C1982 C 0.46025 0.37925 0.65139 0.0
C1983 C 0.43814 0.36941 0.66803 0.0
C1984 C 0.87663 0.60951 0.70177 0.0
C1985 C 0.88949 0.62635 0.72139 0.0
C1986 C 0.89175 0.59641 0.68114 0.0
C1987 C 0.92034 0.59979 0.67904 0.0
H1988 H 0.85477 0.60577 0.70276 0.0
H1989 H 0.88087 0.58337 0.66681 0.0
S1990 S 0.96356 0.64318 0.72442 0.0
N1991 N 0.93228 0.64658 0.73686 0.0
N1992 N 0.96074 0.62233 0.6979 0.0
C1993 C 0.93335 0.61724 0.69809 0.0
C1994 C 0.91794 0.63035 0.71931 0.0
C1995 C 0.87469 0.85504 0.55277 0.0
C1996 C 0.87313 0.88377 0.55091 0.0
C1997 C 0.86063 0.84061 0.57329 0.0
C1998 C 0.84403 0.85426 0.59261 0.0
H1999 H 0.88672 0.84352 0.53808 0.0
H2000 H 0.86243 0.81847 0.57363 0.0
S2001 S 0.83321 0.92957 0.5968 0.0
N2002 N 0.8538 0.92549 0.57029 0.0
N2003 N 0.82745 0.89846 0.60882 0.0
C2004 C 0.84248 0.88308 0.59111 0.0
C2005 C 0.85698 0.89779 0.57031 0.0
C2006 C 0.08712 0.91129 0.70071 0.0
C2007 C 0.10126 0.92656 0.68069 0.0
C2008 C 0.10119 0.89656 0.72105 0.0
C2009 C 0.13001 0.89609 0.72203 0.0
H2010 H 0.06493 0.9112 0.70118 0.0
H2011 H 0.08931 0.88587 0.73646 0.0
S2012 S 0.1769 0.93118 0.6734 0.0
N2013 N 0.14591 0.9392 0.66245 0.0
N2014 N 0.17228 0.9114 0.70046 0.0
C2015 C 0.14446 0.91041 0.70154 0.0
C2016 C 0.13012 0.92569 0.68099 0.0
C2017 C 0.14526 0.66604 0.55137 0.0
C2018 C 0.14635 0.63725 0.54965 0.0
C2019 C 0.15858 0.68027 0.57254 0.0
C2020 C 0.17405 0.66634 0.59255 0.0
H2021 H 0.13431 0.67775 0.536 0.0
H2022 H 0.15735 0.70245 0.57275 0.0
S2023 S 0.18303 0.59091 0.5977 0.0
N2024 N 0.16364 0.59522 0.57029 0.0
N2025 N 0.18896 0.62199 0.60977 0.0
C2026 C 0.17499 0.63752 0.59133 0.0
C2027 C 0.16105 0.62298 0.57002 0.0
C2028 C 0.91269 0.39508 0.80823 0.0
C2029 C 0.88418 0.39851 0.80561 0.0
C2030 C 0.92759 0.40889 0.82858 0.0
C2031 C 0.9147 0.42705 0.84699 0.0
H2032 H 0.9237 0.38181 0.79424 0.0
H2033 H 0.94954 0.40565 0.82948 0.0
S2034 S 0.84022 0.44271 0.84936 0.0
N2035 N 0.84343 0.42095 0.82365 0.0
N2036 N 0.87141 0.44694 0.86178 0.0
C2037 C 0.88608 0.43031 0.84491 0.0
C2038 C 0.87085 0.41605 0.8243 0.0
C2039 C 0.66099 0.83863 0.45074 0.0
C2040 C 0.67072 0.85275 0.42757 0.0
C2041 C 0.64871 0.85266 0.47265 0.0
C2042 C 0.64508 0.88132 0.47203 0.0
H2043 H 0.66374 0.81667 0.45243 0.0
H2044 H 0.64258 0.84096 0.4905 0.0
S2045 S 0.66377 0.92735 0.41431 0.0
N2046 N 0.67378 0.89664 0.40419 0.0
N2047 N 0.65022 0.92298 0.445 0.0
C2048 C 0.65326 0.89546 0.44821 0.0
C2049 C 0.66621 0.8812 0.42611 0.0
C2050 C 0.12855 0.0923 0.8393 0.0
C2051 C 0.09994 0.09545 0.84107 0.0
C2052 C 0.14388 0.10635 0.81946 0.0
C2053 C 0.13116 0.12383 0.8003 0.0
H2054 H 0.13926 0.07887 0.85338 0.0
H2055 H 0.16578 0.10284 0.81866 0.0
S2056 S 0.05695 0.13991 0.79656 0.0
N2057 N 0.05959 0.11815 0.82233 0.0
N2058 N 0.0884 0.14414 0.78485 0.0
C2059 C 0.10265 0.12747 0.80204 0.0
C2060 C 0.08706 0.11344 0.82247 0.0
C2061 C 0.34505 0.63877 0.42801 0.0
C2062 C 0.34598 0.66763 0.4277 0.0
C2063 C 0.35827 0.62358 0.44862 0.0
C2064 C 0.37277 0.63664 0.46994 0.0
H2065 H 0.33402 0.62775 0.41218 0.0
H2066 H 0.35655 0.60144 0.44814 0.0
S2067 S 0.38127 0.7118 0.47878 0.0
N2068 N 0.36263 0.70867 0.45072 0.0
N2069 N 0.3874 0.68023 0.48928 0.0
C2070 C 0.37404 0.66549 0.46975 0.0
C2071 C 0.36071 0.68093 0.4487 0.0
C2072 C 0.69945 0.93456 0.60932 0.0
C2073 C 0.67697 0.92009 0.59844 0.0
C2074 C 0.72075 0.92092 0.62297 0.0
C2075 C 0.72017 0.89233 0.62682 0.0
H2076 H 0.70113 0.95653 0.60647 0.0
H2077 H 0.73813 0.93282 0.63 0.0
S2078 S 0.66456 0.84529 0.60443 0.0
N2079 N 0.65451 0.87585 0.59386 0.0
N2080 N 0.69425 0.85018 0.61994 0.0
C2081 C 0.69712 0.87777 0.61719 0.0
C2082 C 0.67564 0.89164 0.60284 0.0
C2083 C 0.69987 0.14256 0.90414 0.0
C2084 C 0.72444 0.12868 0.89793 0.0
C2085 C 0.67765 0.12886 0.91631 0.0
C2086 C 0.67894 0.10066 0.92216 0.0
H2087 H 0.6981 0.16441 0.90056 0.0
H2088 H 0.65936 0.14044 0.92125 0.0
S2089 S 0.73798 0.05457 0.90923 0.0
N2090 N 0.74831 0.08484 0.89815 0.0
N2091 N 0.7064 0.05915 0.92043 0.0
C2092 C 0.70296 0.08633 0.9153 0.0
C2093 C 0.72573 0.10032 0.90333 0.0
C2094 C 0.33673 0.06819 0.3571 0.0
C2095 C 0.35041 0.09119 0.34639 0.0
C2096 C 0.35119 0.04694 0.37009 0.0
C2097 C 0.37986 0.04809 0.37343 0.0
H2098 H 0.31476 0.0661 0.35459 0.0
H2099 H 0.3398 0.0292 0.37706 0.0
S2100 S 0.42487 0.10558 0.35171 0.0
N2101 N 0.39392 0.11492 0.3417 0.0
N2102 N 0.42109 0.07539 0.36656 0.0
C2103 C 0.3936 0.07172 0.36404 0.0
C2104 C 0.37889 0.09312 0.35037 0.0
C2105 C 0.34166 0.39202 0.92191 0.0
C2106 C 0.34156 0.42085 0.92324 0.0
C2107 C 0.3212 0.37766 0.90764 0.0
C2108 C 0.29955 0.39153 0.89448 0.0
H2109 H 0.35763 0.3804 0.93206 0.0
H2110 H 0.32187 0.35546 0.90784 0.0
S2111 S 0.2904 0.46702 0.89086 0.0
N2112 N 0.31852 0.46282 0.9092 0.0
N2113 N 0.27993 0.43584 0.88278 0.0
C2114 C 0.29958 0.42038 0.89509 0.0
C2115 C 0.32058 0.43502 0.90934 0.0
C2116 C 0.17779 0.94558 0.8616 0.0
C2117 C 0.16418 0.92475 0.84693 0.0
C2118 C 0.16324 0.96697 0.87418 0.0
C2119 C 0.13444 0.96817 0.87306 0.0
H2120 H 0.19997 0.94587 0.86272 0.0
H2121 H 0.17474 0.98294 0.88449 0.0
S2122 S 0.08887 0.91745 0.83899 0.0
N2123 N 0.12013 0.90587 0.83323 0.0
N2124 N 0.09274 0.94578 0.85713 0.0
C2125 C 0.12049 0.94685 0.85938 0.0
C2126 C 0.13536 0.92527 0.84622 0.0
C2127 C 0.84034 0.12875 0.09694 0.0
C2128 C 0.8403 0.09994 0.09508 0.0
C2129 C 0.81918 0.1429 0.11041 0.0
C2130 C 0.79687 0.12883 0.12217 0.0
H2131 H 0.85686 0.14051 0.0879 0.0
H2132 H 0.8199 0.1651 0.11078 0.0
S2133 S 0.78722 0.0533 0.12339 0.0
N2134 N 0.81628 0.0578 0.10671 0.0
N2135 N 0.77648 0.08432 0.13166 0.0
C2136 C 0.7968 0.09999 0.12081 0.0
C2137 C 0.8185 0.08558 0.10739 0.0
C2138 C 0.38023 0.93117 0.17292 0.0
C2139 C 0.35148 0.93122 0.17537 0.0
C2140 C 0.39414 0.95284 0.15997 0.0
C2141 C 0.37985 0.97555 0.14925 0.0
H2142 H 0.3921 0.91422 0.18099 0.0
H2143 H 0.41631 0.9521 0.15899 0.0
S2144 S 0.3045 0.9859 0.15082 0.0
N2145 N 0.30926 0.95613 0.16616 0.0
N2146 N 0.33532 0.99668 0.14197 0.0
C2147 C 0.35112 0.97578 0.1515 0.0
C2148 C 0.33696 0.95368 0.16448 0.0
C2149 C 0.62572 0.5708 0.16114 0.0
C2150 C 0.63977 0.54896 0.14847 0.0
C2151 C 0.63993 0.59186 0.17476 0.0
C2152 C 0.66875 0.59221 0.17582 0.0
H2153 H 0.60353 0.57121 0.16138 0.0
H2154 H 0.62822 0.60801 0.18454 0.0
S2155 S 0.71531 0.54042 0.14511 0.0
N2156 N 0.68425 0.52939 0.1374 0.0
N2157 N 0.71087 0.56911 0.16251 0.0
C2158 C 0.68306 0.57091 0.1626 0.0
C2159 C 0.66861 0.54928 0.14908 0.0
C2160 C 0.99696 0.25509 0.2981 0.0
C2161 C 0.98047 0.27191 0.28132 0.0
C2162 C 0.02574 0.25743 0.29782 0.0
C2163 C 0.03892 0.2765 0.28063 0.0
H2164 H 0.98776 0.23911 0.31046 0.0
H2165 H 0.03776 0.24328 0.31002 0.0
S2166 S 1.00523 0.32789 0.23601 0.0
N2167 N 0.97965 0.3104 0.24956 0.0
N2168 N 0.03344 0.31423 0.24873 0.0
C2169 C 0.02267 0.29434 0.26501 0.0
C2170 C 0.99355 0.29218 0.26544 0.0
C2171 C 0.51399 0.77714 0.96834 0.0
C2172 C 0.49456 0.79107 0.98444 0.0
C2173 C 0.51558 0.74832 0.96867 0.0
C2174 C 0.49763 0.73262 0.98501 0.0
H2175 H 0.52902 0.78861 0.95668 0.0
H2176 H 0.53191 0.73848 0.9573 0.0
S2177 S 0.44037 0.75972 0.02725 0.0
N2178 N 0.45539 0.78733 0.01472 0.0
N2179 N 0.45768 0.73338 0.01491 0.0
C2180 C 0.47693 0.74649 0.99961 0.0
C2181 C 0.47557 0.77566 0.99945 0.0
C2182 C 0.9988 0.78591 0.2475 0.0
C2183 C 0.98231 0.76867 0.23145 0.0
C2184 C 0.02734 0.78356 0.24718 0.0
C2185 C 0.04061 0.76361 0.23106 0.0
H2186 H 0.98947 0.80074 0.26118 0.0
H2187 H 0.03907 0.79688 0.26056 0.0
S2188 S 1.00633 0.71402 0.18443 0.0
N2189 N 0.98092 0.73189 0.19789 0.0
N2190 N 0.03475 0.72681 0.19772 0.0
C2191 C 0.02435 0.747 0.21385 0.0
C2192 C 0.99512 0.74968 0.21398 0.0
C2193 C 1.00506 0.74119 0.05403 0.0
C2194 C 0.02235 0.72516 0.03726 0.0
C2195 C 1.00675 0.76999 0.05394 0.0
C2196 C 0.02563 0.78362 0.03698 0.0
H2197 H 0.98907 0.73163 0.06609 0.0
H2198 H 0.9921 0.78166 0.06586 0.0
S2199 S 0.07805 0.75145 0.99256 0.0
N2200 N 0.06113 0.72534 1.00588 0.0
N2201 N 0.06366 0.7793 1.00534 0.0
C2202 C 0.04404 0.76792 0.02151 0.0
C2203 C 0.04255 0.73874 0.02175 0.0
C2204 C 0.30196 0.99378 0.26715 0.0
C2205 C 0.28537 0.97995 0.24806 0.0
C2206 C 0.30164 0.02255 0.26886 0.0
C2207 C 0.28481 0.03824 0.25137 0.0
H2208 H 0.314 0.98226 0.28185 0.0
H2209 H 0.31335 0.03236 0.28498 0.0
S2210 S 0.24132 0.01137 0.1949 0.0
N2211 N 0.25423 0.98372 0.20952 0.0
N2212 N 0.254 0.03767 0.21207 0.0
C2213 C 0.26976 0.02448 0.23091 0.0
C2214 C 0.26993 0.99534 0.22942 0.0
C2215 C 0.24982 0.50703 0.03122 0.0
C2216 C 0.23294 0.48983 0.01548 0.0
C2217 C 0.27834 0.50664 0.02829 0.0
C2218 C 0.29132 0.48921 1.00929 0.0
H2219 H 0.24085 0.52135 0.04566 0.0
H2220 H 0.29031 0.52061 0.04076 0.0
S2221 S 0.25608 0.44043 0.96245 0.0
N2222 N 0.23099 0.45469 0.98017 0.0
N2223 N 0.28471 0.4543 0.97411 0.0
C2224 C 0.27468 0.47138 0.99369 0.0
C2225 C 0.24547 0.47163 0.99692 0.0
C2226 C 0.75378 0.49904 0.28334 0.0
C2227 C 0.7365 0.48275 0.26713 0.0
C2228 C 0.75356 0.5276 0.28114 0.0
C2229 C 0.73628 0.5411 0.26237 0.0
H2230 H 0.76812 0.48956 0.29744 0.0
H2231 H 0.76765 0.53918 0.29384 0.0
S2232 S 0.68712 0.50739 0.21486 0.0
N2233 N 0.70123 0.48178 0.23196 0.0
N2234 N 0.70125 0.53565 0.22712 0.0
C2235 C 0.71826 0.52502 0.24645 0.0
C2236 C 0.71829 0.49578 0.24899 0.0
C2237 C 0.74996 0.022 0.98039 0.0
C2238 C 0.73345 0.0382 0.99745 0.0
C2239 C 0.77844 0.02173 0.98339 0.0
C2240 C 0.79154 0.03738 1.00382 0.0
H2241 H 0.74067 1.00864 0.96523 0.0
H2242 H 0.79023 1.00832 0.97017 0.0
S2243 S 0.75711 0.08373 0.05352 0.0
N2244 N 0.73186 0.0711 0.0348 0.0
N2245 N 0.78553 0.07014 0.04111 0.0
C2246 C 0.77527 0.05461 0.02037 0.0
C2247 C 0.74615 0.0551 0.01703 0.0
C2248 C 0.28645 0.2669 0.02384 0.0
C2249 C 0.27057 0.28468 0.03992 0.0
C2250 C 0.28423 0.2668 0.99522 0.0
C2251 C 0.26571 0.28419 0.98141 0.0
H2252 H 0.30028 0.25246 0.03354 0.0
H2253 H 0.29671 0.25237 0.98384 0.0
S2254 S 0.21875 0.3342 0.01465 0.0
N2255 N 0.2358 0.32027 0.04039 0.0
N2256 N 0.23081 0.31961 0.98657 0.0
C2257 C 0.25002 0.30256 0.99734 0.0
C2258 C 0.25263 0.30287 0.0266 0.0
C2259 C 0.28278 0.75272 0.52678 0.0
C2260 C 0.26333 0.73582 0.53976 0.0
C2261 C 0.28581 0.75273 0.49832 0.0
C2262 C 0.26974 0.73565 0.48167 0.0
H2263 H 0.29525 0.76675 0.53869 0.0
H2264 H 0.3003 0.76687 0.48917 0.0
S2265 S 0.21623 0.68701 0.50504 0.0
N2266 N 0.2279 0.70112 0.53355 0.0
N2267 N 0.23419 0.70079 0.47986 0.0
C2268 C 0.25106 0.71768 0.49424 0.0
C2269 C 0.24772 0.71783 0.52337 0.0
C2270 C 0.96879 0.52228 0.74877 0.0
C2271 C 0.9862 0.50581 0.7326 0.0
C2272 C 0.96838 0.51968 0.7775 0.0
C2273 C 0.98544 0.50063 0.79086 0.0
H2274 H 0.95659 0.5383 0.7394 0.0
H2275 H 0.95591 0.5337 0.78939 0.0
S2276 S 0.03115 0.44978 0.75791 0.0
N2277 N 0.01811 0.46743 0.73214 0.0
N2278 N 0.01767 0.46313 0.78592 0.0
C2279 C 1.00148 0.48296 0.77489 0.0
C2280 C 1.00177 0.4854 0.74582 0.0
C2281 C 0.78057 0.79984 0.52684 0.0
C2282 C 0.75517 0.7952 0.53955 0.0
C2283 C 0.78272 0.8005 0.49822 0.0
C2284 C 0.75946 0.79727 0.4815 0.0
H2285 H 0.79908 0.80156 0.53902 0.0
H2286 H 0.80281 0.80292 0.48908 0.0
S2287 S 0.68804 0.7868 0.50496 0.0
N2288 N 0.70616 0.78872 0.53351 0.0
N2289 N 0.71015 0.79068 0.47961 0.0
C2290 C 0.73378 0.79404 0.49398 0.0
C2291 C 0.73166 0.7928 0.52309 0.0
C2292 C 0.51626 0.52893 0.27556 0.0
C2293 C 0.53405 0.51266 0.29118 0.0
C2294 C 0.51612 0.52739 0.24698 0.0
C2295 C 0.53351 0.50921 0.2328 0.0
H2296 H 0.50185 0.54255 0.28558 0.0
H2297 H 0.50167 0.54012 0.23591 0.0
S2298 S 0.58403 0.46193 0.26472 0.0
N2299 N 0.56999 0.4782 0.29089 0.0
N2300 N 0.56925 0.47449 0.23695 0.0
C2301 C 0.55203 0.49325 0.24824 0.0
C2302 C 0.55239 0.49515 0.27751 0.0
C2303 C 0.04718 0.02059 0.7446 0.0
C2304 C 0.02861 1.00369 0.73038 0.0
C2305 C 0.04632 0.02265 0.77336 0.0
C2306 C 0.02697 1.0077 0.78881 0.0
H2307 H 0.06153 0.03328 0.73337 0.0
H2308 H 0.06003 0.03699 0.78335 0.0
S2309 S 0.97672 0.95758 0.76109 0.0
N2310 N 0.99227 0.96995 0.73372 0.0
N2311 N 0.99091 0.97321 0.78757 0.0
C2312 C 1.00942 0.9896 0.77471 0.0
C2313 C 1.01017 0.98774 0.74557 0.0
C2314 C 0.52699 0.78607 0.76888 0.0
C2315 C 0.54246 0.76934 0.78636 0.0
C2316 C 0.49842 0.78435 0.76831 0.0
C2317 C 0.48415 0.76549 0.78488 0.0
H2318 H 0.53713 0.80012 0.75498 0.0
H2319 H 0.48747 0.79742 0.75408 0.0
S2320 S 0.5158 0.71692 0.83438 0.0
N2321 N 0.542 0.73384 0.82121 0.0
N2322 N 0.48813 0.72972 0.81961 0.0
C2323 C 0.49947 0.7491 0.80316 0.0
C2324 C 0.5287 0.75123 0.80398 0.0
C2325 C 0.01641 0.24924 0.47331 0.0
C2326 C 1.00402 0.23377 0.49439 0.0
C2327 C 0.01399 0.27795 0.4725 0.0
C2328 C 0.99942 0.29219 0.49288 0.0
H2329 H 0.02918 0.23939 0.45808 0.0
H2330 H 0.02483 0.28917 0.45669 0.0
S2331 S 0.96038 0.26167 0.55031 0.0
N2332 N 0.97413 0.23515 0.5344 0.0
N2333 N 0.97054 0.28899 0.53314 0.0
C2334 C 0.98593 0.27707 0.5132 0.0
C2335 C 0.988 0.24792 0.51388 0.0
C2336 C 0.52289 0.23438 0.76083 0.0
C2337 C 0.53889 0.25007 0.74278 0.0
C2338 C 0.49431 0.23676 0.76122 0.0
C2339 C 0.48047 0.25514 0.74377 0.0
H2340 H 0.53263 0.22052 0.77521 0.0
H2341 H 0.48298 0.22442 0.7758 0.0
S2342 S 0.51335 0.30169 0.69316 0.0
N2343 N 0.53915 0.28466 0.70697 0.0
N2344 N 0.48541 0.28982 0.7081 0.0
C2345 C 0.49628 0.27069 0.72519 0.0
C2346 C 0.52549 0.26798 0.7246 0.0
C2347 C 0.5217 0.27523 0.54932 0.0
C2348 C 0.50523 0.29202 0.53246 0.0
C2349 C 0.51885 0.24649 0.54903 0.0
C2350 C 0.49961 0.23367 0.53177 0.0
H2351 H 0.53777 0.28413 0.56179 0.0
H2352 H 0.53271 0.2342 0.56129 0.0
S2353 S 0.44915 0.26814 0.48675 0.0
N2354 N 0.46696 0.29347 0.50044 0.0
N2355 N 0.46226 0.2397 0.49955 0.0
C2356 C 0.48219 0.25018 0.51599 0.0
C2357 C 0.48484 0.27928 0.51644 0.0
C2358 C 0.79682 0.49708 0.76473 0.0
C2359 C 0.77866 0.48347 0.74692 0.0
C2360 C 0.79654 0.52583 0.76706 0.0
C2361 C 0.77819 0.54189 0.7515 0.0
H2362 H 0.81025 0.4854 0.77802 0.0
H2363 H 0.80979 0.53532 0.78215 0.0
S2364 S 0.72963 0.51595 0.69884 0.0
N2365 N 0.744 0.48807 0.71154 0.0
N2366 N 0.74372 0.54191 0.71539 0.0
C2367 C 0.76121 0.52842 0.73241 0.0
C2368 C 0.76138 0.49929 0.73024 0.0
C2369 C 0.74836 1.00291 0.53632 0.0
C2370 C 0.73232 0.98538 0.52012 0.0
C2371 C 0.77689 1.00335 0.53387 0.0
C2372 C 0.79059 0.98651 0.51485 0.0
H2373 H 0.73867 0.0171 0.55041 0.0
H2374 H 0.78826 0.01774 0.54642 0.0
S2375 S 0.75757 0.93661 0.46761 0.0
N2376 N 0.73182 0.95011 0.48497 0.0
N2377 N 0.78561 0.95131 0.47967 0.0
C2378 C 0.77479 0.96804 0.49913 0.0
C2379 C 0.74559 0.96742 0.50192 0.0
C2380 C 0.252 0.99397 0.78664 0.0
C2381 C 0.23491 0.97809 0.76984 0.0
C2382 C 0.2525 0.02252 0.78443 0.0
C2383 C 0.23618 0.03639 0.76507 0.0
H2384 H 0.26572 0.98414 0.80111 0.0
H2385 H 0.2665 0.03379 0.7975 0.0
S2386 S 0.18765 1.00383 0.71617 0.0
N2387 N 0.20066 0.9779 0.73367 0.0
N2388 N 0.20203 0.03177 0.72886 0.0
C2389 C 0.21821 0.02075 0.74867 0.0
C2390 C 0.21751 0.99152 0.7512 0.0
C2391 C 0.24449 0.51149 0.48847 0.0
C2392 C 0.22848 0.52968 0.50392 0.0
C2393 C 0.27301 0.51121 0.49091 0.0
C2394 C 0.28674 0.52888 0.50917 0.0
H2395 H 0.23482 0.49694 0.4747 0.0
H2396 H 0.28438 0.4965 0.47874 0.0
S2397 S 0.25379 0.58013 0.55492 0.0
N2398 N 0.22802 0.56603 0.53803 0.0
N2399 N 0.28181 0.56506 0.54332 0.0
C2400 C 0.27095 0.54767 0.52444 0.0
C2401 C 0.24175 0.54815 0.52166 0.0
C2402 C 0.76808 0.21959 0.9961 0.0
C2403 C 0.75103 0.23681 0.98031 0.0
C2404 C 0.76641 0.21938 0.02486 0.0
C2405 C 0.74786 0.23655 0.03869 0.0
H2406 H 0.78381 0.2073 0.9864 0.0
H2407 H 0.78074 0.2069 0.03637 0.0
S2408 S 0.69633 0.28245 1.00722 0.0
N2409 N 0.71286 0.269 0.98095 0.0
N2410 N 0.71055 0.2691 0.03487 0.0
C2411 C 0.72981 0.25264 0.02326 0.0
C2412 C 0.73119 0.25265 0.99411 0.0
C2413 C 0.49969 0.0339 0.27675 0.0
C2414 C 0.48347 0.014 0.28992 0.0
C2415 C 0.49946 0.0368 0.24828 0.0
C2416 C 0.48275 0.02018 0.23182 0.0
H2417 H 0.5135 0.04676 0.28849 0.0
H2418 H 0.51324 0.05152 0.23895 0.0
S2419 S 0.43562 0.96559 0.25568 0.0
N2420 N 0.44961 0.9777 0.28407 0.0
N2421 N 0.44875 0.98382 0.23034 0.0
C2422 C 0.4653 1.00115 0.24457 0.0
C2423 C 0.46573 0.99791 0.27372 0.0
C2424 C 0.19986 0.22193 0.3008 0.0
C2425 C 0.20483 0.24557 0.3165 0.0
C2426 C 0.21943 0.2008 0.29935 0.0
C2427 C 0.2446 0.20273 0.31343 0.0
H2428 H 0.18303 0.22173 0.28628 0.0
H2429 H 0.21671 0.1851 0.28383 0.0
S2430 S 0.26323 0.25627 0.36381 0.0
N2431 N 0.23331 0.26635 0.35154 0.0
N2432 N 0.27006 0.22676 0.34864 0.0
C2433 C 0.24727 0.22362 0.333 0.0
C2434 C 0.22728 0.24507 0.33459 0.0
C2435 C 0.48953 0.5162 0.93894 0.0
C2436 C 0.46327 0.51543 0.9508 0.0
C2437 C 0.50527 0.5403 0.93913 0.0
C2438 C 0.496 0.56393 0.95284 0.0
H2439 H 0.49944 0.49732 0.93269 0.0
H2440 H 0.52659 0.5388 0.93305 0.0
S2441 S 0.42662 0.57445 0.98144 0.0
N2442 N 0.42656 0.5422 0.97101 0.0
N2443 N 0.4571 0.58683 0.9734 0.0
C2444 C 0.46844 0.56464 0.96097 0.0
C2445 C 0.45193 0.54039 0.95974 0.0
C2446 C 0.78968 0.27104 0.3336 0.0
C2447 C 0.81399 0.27485 0.31852 0.0
C2448 C 0.7681 0.29005 0.33196 0.0
C2449 C 0.77058 0.3138 0.31589 0.0
H2450 H 0.78542 0.2512 0.34268 0.0
H2451 H 0.74828 0.28409 0.33995 0.0
S2452 S 0.83344 0.33762 0.28077 0.0
N2453 N 0.84176 0.30716 0.29308 0.0
N2454 N 0.80159 0.34339 0.29075 0.0
C2455 C 0.79663 0.32029 0.30549 0.0
C2456 C 0.81842 0.30071 0.30679 0.0
C2457 C 0.54754 0.95226 0.9658 0.0
C2458 C 0.5235 0.95731 0.95079 0.0
C2459 C 0.56819 0.97228 0.96761 0.0
C2460 C 0.56535 0.9978 0.9544 0.0
H2461 H 0.54838 0.93497 0.97973 0.0
H2462 H 0.58424 0.96944 0.98272 0.0
S2463 S 0.51054 0.01684 0.90562 0.0
N2464 N 0.5014 0.98629 0.91705 0.0
N2465 N 0.54015 0.02387 0.92048 0.0
C2466 C 0.5441 1.00065 0.93528 0.0
C2467 C 0.52315 0.98024 0.93338 0.0
C2468 C 0.23043 0.7693 0.18466 0.0
C2469 C 0.20716 0.77433 0.20094 0.0
C2470 C 0.25264 0.78767 0.18458 0.0
C2471 C 0.25184 0.812 0.20003 0.0
H2472 H 0.23354 0.7491 0.17592 0.0
H2473 H 0.2718 0.78082 0.17572 0.0
S2474 S 0.19203 0.83854 0.23835 0.0
N2475 N 0.18207 0.80807 0.22734 0.0
N2476 N 0.22329 0.84315 0.22618 0.0
C2477 C 0.22664 0.81958 0.21171 0.0
C2478 C 0.20429 0.80059 0.21231 0.0
C2479 C 0.03851 0.513 0.088 0.0
C2480 C 0.06238 0.51839 0.07284 0.0
C2481 C 0.01743 0.53251 0.08975 0.0
C2482 C 0.01946 0.5579 0.0762 0.0
H2483 H 0.03409 0.49239 0.09483 0.0
H2484 H 0.99785 0.52599 0.09798 0.0
S2485 S 0.08111 0.58489 0.0414 0.0
N2486 N 0.08957 0.55326 0.05015 0.0
N2487 N 0.04971 0.58977 0.05307 0.0
C2488 C 0.04508 0.5653 0.06551 0.0
C2489 C 0.06666 0.54548 0.06391 0.0
C2490 C 0.81567 0.72144 0.2169 0.0
C2491 C 0.81296 0.74637 0.20272 0.0
C2492 C 0.79371 0.7028 0.2182 0.0
C2493 C 0.76854 0.7086 0.20532 0.0
H2494 H 0.83283 0.71846 0.23069 0.0
H2495 H 0.79505 0.68602 0.23271 0.0
S2496 S 0.75478 0.76667 0.15854 0.0
N2497 N 0.78622 0.77224 0.16985 0.0
N2498 N 0.74484 0.73755 0.17266 0.0
C2499 C 0.76765 0.73076 0.18706 0.0
C2500 C 0.79012 0.74951 0.18548 0.0
C2501 C 0.9482 0.97448 0.05455 0.0
C2502 C 0.95728 0.99879 0.06719 0.0
C2503 C 0.96538 0.95134 0.05282 0.0
C2504 C 0.99193 0.95169 0.06407 0.0
H2505 H 0.92971 0.97474 0.04222 0.0
H2506 H 0.95947 0.93486 0.03912 0.0
S2507 S 0.02187 1.00737 0.10606 0.0
N2508 N 0.99193 0.01962 0.09605 0.0
N2509 N 0.02365 0.97587 0.09371 0.0
C2510 C 0.99888 0.97386 0.08112 0.0
C2511 C 0.9817 0.99762 0.08236 0.0
C2512 C 0.30545 0.22511 0.19962 0.0
C2513 C 0.31932 0.24886 0.20836 0.0
C2514 C 0.3028 0.2023 0.21706 0.0
C2515 C 0.31454 0.20237 0.24339 0.0
H2516 H 0.29286 0.22583 0.18131 0.0
H2517 H 0.28823 0.18645 0.21155 0.0
S2518 S 0.35971 0.25602 0.27224 0.0
N2519 N 0.34974 0.26854 0.2424 0.0
N2520 N 0.34591 0.22517 0.27443 0.0
C2521 C 0.33279 0.22365 0.24989 0.0
C2522 C 0.33485 0.24717 0.23254 0.0
C2523 C 0.45246 0.46386 0.04665 0.0
C2524 C 0.45782 0.44829 0.02301 0.0
C2525 C 0.47248 0.46673 0.06722 0.0
C2526 C 0.49824 0.45387 0.06485 0.0
H2527 H 0.43495 0.47753 0.04705 0.0
H2528 H 0.46937 0.4823 0.08278 0.0
S2529 S 0.51808 0.40362 0.01168 0.0
N2530 N 0.48738 0.41426 1.00214 0.0
N2531 N 0.52487 0.41959 0.04077 0.0
C2532 C 0.50142 0.43416 0.0442 0.0
C2533 C 0.48104 0.43123 0.02331 0.0
C2534 C 0.71755 0.29629 0.19902 0.0
C2535 C 0.70387 0.27166 0.20523 0.0
C2536 C 0.7174 0.31839 0.21754 0.0
C2537 C 0.70342 0.31644 0.24265 0.0
H2538 H 0.7319 0.29691 0.18207 0.0
H2539 H 0.73183 0.33497 0.21427 0.0
S2540 S 0.65753 0.26004 0.26407 0.0
N2541 N 0.67086 0.24935 0.23484 0.0
N2542 N 0.66995 0.29115 0.26917 0.0
C2543 C 0.68535 0.29432 0.24618 0.0
C2544 C 0.68588 0.27164 0.22762 0.0
C2545 C 0.57111 0.05218 0.05229 0.0
C2546 C 0.56856 0.0656 0.02692 0.0
C2547 C 0.54954 0.05248 0.07138 0.0
C2548 C 0.52472 0.06598 0.06554 0.0
H2549 H 0.58783 0.03791 0.05553 0.0
H2550 H 0.55067 0.03851 0.08863 0.0
S2551 S 0.5114 0.11071 1.00576 0.0
N2552 N 0.54234 0.09817 1.00012 0.0
N2553 N 0.50161 0.09823 0.03566 0.0
C2554 C 0.52409 0.08341 0.04267 0.0
C2555 C 0.54623 0.08343 0.02343 0.0
C2556 C 0.33619 0.78882 0.26961 0.0
C2557 C 0.32055 0.81299 0.27163 0.0
C2558 C 0.33446 0.7683 0.28975 0.0
C2559 C 0.31748 0.77162 0.31276 0.0
H2560 H 0.34604 0.78372 0.25035 0.0
H2561 H 0.34314 0.74842 0.28511 0.0
S2562 S 0.27971 0.83469 0.33164 0.0
N2563 N 0.29313 0.84175 0.30137 0.0
N2564 N 0.29031 0.80348 0.33953 0.0
C2565 C 0.30619 0.79773 0.31739 0.0
C2566 C 0.30774 0.81849 0.29675 0.0
C2567 C 0.02063 0.44054 0.98189 0.0
C2568 C 0.02151 0.45723 0.95842 0.0
C2569 C 0.04293 0.43942 1.00015 0.0
C2570 C 0.06634 0.45582 0.99606 0.0
H2571 H 1.00146 0.43144 0.98832 0.0
H2572 H 0.03977 0.42957 0.01982 0.0
S2573 S 0.08168 0.4964 0.93393 0.0
N2574 N 0.0503 0.48477 0.92875 0.0
N2575 N 0.09156 0.48379 0.96378 0.0
C2576 C 0.06921 0.46861 0.97049 0.0
C2577 C 0.0468 0.46918 0.95155 0.0
C2578 C 0.72255 0.72249 0.32287 0.0
C2579 C 0.70792 0.74717 0.31969 0.0
C2580 C 0.72029 0.70129 0.30347 0.0
C2581 C 0.70358 0.70435 0.2802 0.0
H2582 H 0.7388 0.72121 0.33797 0.0
H2583 H 0.73513 0.68476 0.30423 0.0
S2584 S 0.65444 0.76071 0.26764 0.0
N2585 N 0.671 0.77011 0.29565 0.0
N2586 N 0.66681 0.73031 0.25925 0.0
C2587 C 0.68493 0.72628 0.28002 0.0
C2588 C 0.68727 0.74792 0.2997 0.0
C2589 C 0.97569 0.05657 0.95285 0.0
C2590 C 1.00116 0.06863 0.95907 0.0
C2591 C 0.95415 0.05694 0.97197 0.0
C2592 C 0.95754 0.0696 0.99763 0.0
H2593 H 0.97386 0.04314 0.93523 0.0
H2594 H 0.93675 0.04356 0.96849 0.0
S2595 S 0.01677 0.1114 0.01976 0.0
N2596 N 0.02597 0.09893 0.98966 0.0
N2597 N 0.9852 0.1004 0.02506 0.0
C2598 C 0.98065 0.0863 1.00145 0.0
C2599 C 1.00275 0.08546 0.98231 0.0
C2600 C 0.25591 0.33647 0.23416 0.0
C2601 C 0.25152 0.32126 0.21003 0.0
C2602 C 0.23662 0.33632 0.25555 0.0
C2603 C 0.21185 0.32173 0.25321 0.0
H2604 H 0.27616 0.34455 0.23848 0.0
H2605 H 0.24312 0.34425 0.27519 0.0
S2606 S 0.18715 0.28604 0.19088 0.0
N2607 N 0.21829 0.29652 0.18266 0.0
N2608 N 0.18146 0.29738 0.22229 0.0
C2609 C 0.20519 0.31109 0.22722 0.0
C2610 C 0.22515 0.31065 0.20567 0.0
C2611 C 0.20061 0.71727 0.29588 0.0
C2612 C 0.20672 0.70392 0.27103 0.0
C2613 C 0.21943 0.7173 0.31771 0.0
C2614 C 0.24479 0.70386 0.31529 0.0
H2615 H 0.18339 0.73129 0.29688 0.0
H2616 H 0.21607 0.73148 0.33449 0.0
S2617 S 0.26633 0.65895 0.25809 0.0
N2618 N 0.23662 0.67168 0.24799 0.0
N2619 N 0.27169 0.67126 0.2892 0.0
C2620 C 0.24842 0.68611 0.2929 0.0
C2621 C 0.22946 0.68637 0.27053 0.0
C2622 C 0.9633 0.57021 0.98271 0.0
C2623 C 0.94959 0.56139 1.00648 0.0
C2624 C 0.96435 0.55343 0.95928 0.0
C2625 C 0.95146 0.52763 0.95898 0.0
H2626 H 0.97678 0.58785 0.98366 0.0
H2627 H 0.97886 0.55863 0.94329 0.0
S2628 S 0.90573 0.49984 0.01262 0.0
N2629 N 0.91771 0.52864 0.02587 0.0
N2630 N 0.91875 0.49779 0.98143 0.0
C2631 C 0.93322 0.52157 0.98038 0.0
C2632 C 0.93271 0.53822 1.00448 0.0
C2633 C 0.80253 0.80792 0.31797 0.0
C2634 C 0.77613 0.81932 0.31573 0.0
C2635 C 0.82067 0.80806 0.29557 0.0
C2636 C 0.81271 0.81926 0.27022 0.0
H2637 H 0.80757 0.79514 0.33542 0.0
H2638 H 0.83898 0.79554 0.29681 0.0
S2639 S 0.74915 0.85839 0.25665 0.0
N2640 N 0.7459 0.84793 0.28868 0.0
N2641 N 0.77941 0.8473 0.2463 0.0
C2642 C 0.78853 0.83482 0.26945 0.0
C2643 C 0.77039 0.8352 0.29244 0.0
C2644 C 0.55749 0.47189 0.45701 0.0
C2645 C 0.57023 0.49765 0.45929 0.0
C2646 C 0.55844 0.45299 0.47879 0.0
C2647 C 0.57182 0.45957 0.50352 0.0
H2648 H 0.54331 0.46806 0.44033 0.0
H2649 H 0.54503 0.43529 0.47789 0.0
S2650 S 0.61462 0.52094 0.51618 0.0
N2651 N 0.60192 0.52578 0.48516 0.0
N2652 N 0.60301 0.49081 0.52634 0.0
C2653 C 0.58842 0.48305 0.50393 0.0
C2654 C 0.58786 0.50198 0.4816 0.0
C2655 C 0.30208 0.71786 0.69839 0.0
C2656 C 0.27813 0.70252 0.70284 0.0
C2657 C 0.32234 0.71971 0.7188 0.0
C2658 C 0.31913 0.70625 0.74412 0.0
H2659 H 0.30303 0.73204 0.68131 0.0
H2660 H 0.33818 0.73512 0.71647 0.0
S2661 S 0.26468 0.65655 0.7616 0.0
N2662 N 0.25602 0.66807 0.73095 0.0
N2663 N 0.2939 0.67179 0.76939 0.0
C2664 C 0.29813 0.68679 0.74634 0.0
C2665 C 0.27765 0.68475 0.72548 0.0
C2666 C 0.96705 0.46923 0.5694 0.0
C2667 C 0.95429 0.49508 0.56841 0.0
C2668 C 0.96544 0.45104 0.54706 0.0
C2669 C 0.95141 0.45843 0.52296 0.0
H2670 H 0.98173 0.46486 0.5855 0.0
H2671 H 0.97884 0.4333 0.54699 0.0
S2672 S 0.90837 0.52022 0.51358 0.0
N2673 N 0.92182 0.52399 0.54443 0.0
N2674 N 0.91969 0.49044 0.50206 0.0
C2675 C 0.93481 0.48192 0.52383 0.0
C2676 C 0.93593 0.50008 0.54682 0.0
C2677 C 0.08552 0.04059 0.517 0.0
C2678 C 0.06936 0.06416 0.52066 0.0
C2679 C 0.08742 0.02053 0.5376 0.0
C2680 C 0.07255 0.02296 0.56221 0.0
H2681 H 0.09344 0.03554 0.49693 0.0
H2682 H 0.09671 1.00104 0.5323 0.0
S2683 S 0.03388 0.08418 0.58471 0.0
N2684 N 0.04382 0.09171 0.55322 0.0
N2685 N 0.04661 0.05352 0.5915 0.0
C2686 C 0.06043 0.04842 0.56788 0.0
C2687 C 0.05889 0.06911 0.54707 0.0
C2688 C 0.75633 0.73525 0.83624 0.0
C2689 C 0.75416 0.71109 0.82066 0.0
C2690 C 0.73444 0.75389 0.83779 0.0
C2691 C 0.71016 0.74953 0.82281 0.0
H2692 H 0.77609 0.7417 0.84403 0.0
H2693 H 0.73844 0.77391 0.84662 0.0
S2694 S 0.69172 0.68611 0.7855 0.0
N2695 N 0.72356 0.68081 0.79578 0.0
N2696 N 0.68297 0.71658 0.79748 0.0
C2697 C 0.70615 0.72346 0.8113 0.0
C2698 C 0.72819 0.70411 0.81033 0.0
C2699 C 0.96976 0.07093 0.47033 0.0
C2700 C 0.99434 0.06875 0.45549 0.0
C2701 C 0.95053 0.04941 0.47031 0.0
C2702 C 0.95547 0.02496 0.4557 0.0
H2703 H 0.96741 0.08715 0.48534 0.0
H2704 H 0.93408 0.05013 0.48522 0.0
S2705 S 0.01243 0.01322 0.40706 0.0
N2706 N 0.01898 0.04365 0.42045 0.0
N2707 N 0.98329 1.00302 0.42092 0.0
C2708 C 0.9773 0.02493 0.43701 0.0
C2709 C 0.99663 0.04701 0.43672 0.0
C2710 C 0.29345 0.8203 0.80427 0.0
C2711 C 0.26965 0.81155 0.818 0.0
C2712 C 0.31642 0.80301 0.80205 0.0
C2713 C 0.31643 0.77681 0.81404 0.0
H2714 H 0.29271 0.83845 0.79146 0.0
H2715 H 0.33234 0.80846 0.78755 0.0
S2716 S 0.26267 0.74818 0.85914 0.0
N2717 N 0.25003 0.77783 0.84874 0.0
N2718 N 0.2936 0.74598 0.84555 0.0
C2719 C 0.29504 0.77037 0.83216 0.0
C2720 C 0.27141 0.78761 0.83386 0.0
C2721 C 0.06495 0.47804 0.46218 0.0
C2722 C 0.05877 0.5033 0.4496 0.0
C2723 C 0.04551 0.4567 0.46297 0.0
C2724 C 0.01955 0.45994 0.45086 0.0
H2725 H 0.0829 0.47636 0.47517 0.0
H2726 H 0.04921 0.43958 0.47663 0.0
S2727 S 0.99688 0.51859 0.4085 0.0
N2728 N 0.02751 0.52768 0.41971 0.0
N2729 N 0.9915 0.48737 0.42046 0.0
C2730 C 0.01547 0.48283 0.43391 0.0
C2731 C 0.03498 0.5047 0.43352 0.0
C2732 C 0.70144 0.3004 0.71862 0.0
C2733 C 0.70556 0.27587 0.70409 0.0
C2734 C 0.72212 0.3205 0.71985 0.0
C2735 C 0.74756 0.31657 0.70672 0.0
H2736 H 0.6843 0.3021 0.73263 0.0
H2737 H 0.71984 0.33694 0.73464 0.0
S2738 S 0.7644 0.26017 0.65889 0.0
N2739 N 0.73363 0.25228 0.6706 0.0
N2740 N 0.77253 0.28977 0.67322 0.0
C2741 C 0.74956 0.29479 0.68805 0.0
C2742 C 0.7284 0.27449 0.68659 0.0
C2743 C 0.54017 0.01993 0.58433 0.0
C2744 C 0.56365 0.02287 0.56796 0.0
C2745 C 0.5201 0.0406 0.58516 0.0
C2746 C 0.52276 0.06457 0.56928 0.0
H2747 H 0.5352 1.00013 0.59307 0.0
H2748 H 0.50054 0.03575 0.59449 0.0
S2749 S 0.58416 0.08536 0.53013 0.0
N2750 N 0.59151 0.05424 0.54135 0.0
N2751 N 0.55351 0.09278 0.54245 0.0
C2752 C 0.54828 0.06974 0.55718 0.0
C2753 C 0.56883 0.04883 0.55656 0.0
C2754 C 0.32235 0.21944 0.72352 0.0
C2755 C 0.31795 0.24265 0.70708 0.0
C2756 C 0.30234 0.1988 0.72542 0.0
C2757 C 0.27739 0.20087 0.711 0.0
H2758 H 0.33897 0.21941 0.73827 0.0
H2759 H 0.30453 0.18359 0.74147 0.0
S2760 S 0.26064 0.25279 0.6584 0.0
N2761 N 0.29057 0.26272 0.6708 0.0
N2762 N 0.25295 0.22401 0.6745 0.0
C2763 C 0.27543 0.221 0.69061 0.0
C2764 C 0.29587 0.24194 0.68857 0.0
C2765 C 0.49995 0.48173 0.58596 0.0
C2766 C 0.49941 0.45709 0.5709 0.0
C2767 C 0.47889 0.50124 0.58337 0.0
C2768 C 0.45639 0.49649 0.566 0.0
H2769 H 0.51872 0.48795 0.59612 0.0
H2770 H 0.48241 0.52149 0.59171 0.0
S2771 S 0.4414 0.43181 0.52914 0.0
N2772 N 0.47164 0.42644 0.54342 0.0
N2773 N 0.43183 0.46282 0.53889 0.0
C2774 C 0.4533 0.46995 0.55515 0.0
C2775 C 0.47486 0.45019 0.55763 0.0
C2776 C 0.83514 0.7308 0.74585 0.0
C2777 C 0.81885 0.70696 0.7457 0.0
C2778 C 0.83307 0.75033 0.72476 0.0
C2779 C 0.81467 0.74649 0.70293 0.0
H2780 H 0.8461 0.73649 0.76433 0.0
H2781 H 0.84255 0.77013 0.72792 0.0
S2782 S 0.77444 0.68366 0.68889 0.0
N2783 N 0.78928 0.67758 0.71873 0.0
N2784 N 0.78537 0.71419 0.67906 0.0
C2785 C 0.80255 0.72048 0.70007 0.0
C2786 C 0.80468 0.70063 0.72153 0.0
C2787 C 1.00415 0.93736 0.53657 0.0
C2788 C 1.00393 0.95157 0.56167 0.0
C2789 C 0.98146 0.93816 0.51885 0.0
C2790 C 0.95828 0.95407 0.52522 0.0
H2791 H 0.02316 0.92901 0.52874 0.0
H2792 H 0.98407 0.93031 0.49822 0.0
S2793 S 0.94469 0.9884 0.59145 0.0
N2794 N 0.97607 0.97608 0.59473 0.0
N2795 N 0.93403 0.9789 0.56072 0.0
C2796 C 0.95609 0.96432 0.552 0.0
C2797 C 0.9789 0.96281 0.57042 0.0
C2798 C 0.18418 0.78587 0.75115 0.0
C2799 C 0.1994 0.81021 0.74817 0.0
C2800 C 0.18635 0.76457 0.73187 0.0
C2801 C 0.20305 0.76741 0.7086 0.0
H2802 H 0.17454 0.78131 0.77064 0.0
H2803 H 0.17813 0.7447 0.73729 0.0
S2804 S 0.23927 0.83052 0.68706 0.0
N2805 N 0.22597 0.83842 0.71719 0.0
N2806 N 0.22927 0.79883 0.6804 0.0
C2807 C 0.21373 0.79356 0.70289 0.0
C2808 C 0.21189 0.81504 0.72276 0.0
C2809 C 0.0686 0.5537 0.54748 0.0
C2810 C 0.06379 0.56902 0.52359 0.0
C2811 C 0.0487 0.5523 0.56826 0.0
C2812 C 0.02349 0.56615 0.56568 0.0
H2813 H 0.08554 0.53934 0.54812 0.0
H2814 H 0.05127 0.53702 0.58419 0.0
S2815 S 1.00532 0.61568 0.51122 0.0
N2816 N 0.03551 0.60355 0.50185 0.0
N2817 N 0.99813 0.60082 0.54076 0.0
C2818 C 0.02098 0.58543 0.54451 0.0
C2819 C 0.04128 0.58694 0.52346 0.0
C2820 C 0.80008 0.31972 0.80596 0.0
C2821 C 0.81385 0.31849 0.78071 0.0
C2822 C 0.80166 0.29786 0.82466 0.0
C2823 C 0.81652 0.27396 0.81828 0.0
H2824 H 0.78486 0.33552 0.80944 0.0
H2825 H 0.78756 0.29778 0.84183 0.0
S2826 S 0.86244 0.26461 0.7587 0.0
N2827 N 0.84815 0.2949 0.75363 0.0
N2828 N 0.8503 0.2534 0.78825 0.0
C2829 C 0.83414 0.27484 0.79559 0.0
C2830 C 0.833 0.29736 0.77686 0.0
C2831 C 0.5476 0.96778 0.4506 0.0
C2832 C 0.52268 0.95436 0.45622 0.0
C2833 C 0.56892 0.9682 0.47 0.0
C2834 C 0.56601 0.95492 0.49539 0.0
H2835 H 0.54894 0.98163 0.43327 0.0
H2836 H 0.5857 0.98244 0.46692 0.0
S2837 S 0.50854 0.91 0.51605 0.0
N2838 N 0.49913 0.92234 0.48596 0.0
N2839 N 0.53944 0.92253 0.52202 0.0
C2840 C 0.54361 0.93714 0.49868 0.0
C2841 C 0.52174 0.93706 0.47916 0.0
C2842 C 0.21569 0.22795 0.82372 0.0
C2843 C 0.20207 0.25151 0.8141 0.0
C2844 C 0.21845 0.20457 0.80699 0.0
C2845 C 0.20704 0.2038 0.7805 0.0
H2846 H 0.22798 0.22914 0.8422 0.0
H2847 H 0.2328 0.1888 0.81322 0.0
S2848 S 0.16278 0.25695 0.74939 0.0
N2849 N 0.17237 0.27032 0.77901 0.0
N2850 N 0.1764 0.22596 0.7483 0.0
C2851 C 0.18913 0.22508 0.77306 0.0
C2852 C 0.18697 0.24915 0.78971 0.0
C2853 C 0.47505 0.55179 0.44864 0.0
C2854 C 0.49884 0.5664 0.45598 0.0
C2855 C 0.45267 0.54996 0.46672 0.0
C2856 C 0.45328 0.56311 0.49237 0.0
H2857 H 0.47552 0.5381 0.43112 0.0
H2858 H 0.43691 0.53488 0.46246 0.0
S2859 S 0.50698 0.61067 0.51703 0.0
N2860 N 0.51888 0.59915 0.48749 0.0
N2861 N 0.47644 0.59656 0.5209 0.0
C2862 C 0.47446 0.582 0.49722 0.0
C2863 C 0.49748 0.58339 0.47914 0.0
C2864 C 0.73356 0.83343 0.75183 0.0
C2865 C 0.70855 0.81911 0.75211 0.0
C2866 C 0.75098 0.83227 0.72893 0.0
C2867 C 0.74418 0.81612 0.70602 0.0
H2868 H 0.74156 0.84212 0.77064 0.0
H2869 H 0.77165 0.84013 0.73113 0.0
S2870 S 0.67782 0.78151 0.69381 0.0
N2871 N 0.67507 0.79421 0.7251 0.0
N2872 N 0.70832 0.791 0.68256 0.0
C2873 C 0.71739 0.80584 0.70432 0.0
C2874 C 0.69939 0.80759 0.72737 0.0
C2875 C 0.75312 0.1869 0.79102 0.0
C2876 C 0.74813 0.20208 0.81504 0.0
C2877 C 0.73454 0.18746 0.769 0.0
C2878 C 0.70991 0.20233 0.77072 0.0
H2879 H 0.7734 0.17862 0.78731 0.0
H2880 H 0.74139 0.17954 0.74945 0.0
S2881 S 0.68363 0.23793 0.83236 0.0
N2882 N 0.71436 0.22702 0.84152 0.0
N2883 N 0.6788 0.22689 0.80069 0.0
C2884 C 0.70252 0.21294 0.79647 0.0
C2885 C 0.72177 0.21297 0.81864 0.0
C2886 C 0.46558 0.05095 0.45367 0.0
C2887 C 0.45297 0.0251 0.45571 0.0
C2888 C 0.46461 0.0697 0.47561 0.0
C2889 C 0.45142 0.06288 0.50034 0.0
H2890 H 0.47969 0.05497 0.43701 0.0
H2891 H 0.4779 0.0875 0.47479 0.0
S2892 S 0.40902 1.00113 0.51258 0.0
N2893 N 0.42147 0.99667 0.48142 0.0
N2894 N 0.42059 0.03121 0.523 0.0
C2895 C 0.43496 0.03928 0.50059 0.0
C2896 C 0.4354 0.02056 0.47802 0.0
C2897 C 0.2865 0.33563 0.76506 0.0
C2898 C 0.31065 0.32035 0.76849 0.0
C2899 C 0.26688 0.33707 0.78607 0.0
C2900 C 0.27053 0.3227 0.81083 0.0
H2901 H 0.28081 0.34303 0.74494 0.0
H2902 H 0.24693 0.34551 0.7811 0.0
S2903 S 0.3336 0.28676 0.83255 0.0
N2904 N 0.34 0.2965 0.80075 0.0
N2905 N 0.30267 0.29846 0.83988 0.0
C2906 C 0.29654 0.31173 0.81618 0.0
C2907 C 0.31672 0.31064 0.79494 0.0
C2908 C 0.04872 0.96958 0.94828 0.0
C2909 C 0.06487 0.99296 0.95297 0.0
C2910 C 0.04677 0.94883 0.96819 0.0
C2911 C 0.06097 0.95084 0.99328 0.0
H2912 H 0.03419 0.96944 0.93147 0.0
H2913 H 0.03095 0.93342 0.96571 0.0
S2914 S 0.11249 1.00355 0.01108 0.0
N2915 N 0.10038 0.01344 0.98104 0.0
N2916 N 0.09674 0.97447 0.01835 0.0
C2917 C 0.08099 0.97132 0.99564 0.0
C2918 C 0.08301 0.99241 0.97535 0.0
C2919 C 0.81972 0.21685 0.22437 0.0
C2920 C 0.81435 0.20349 0.24939 0.0
C2921 C 0.80043 0.21655 0.20287 0.0
C2922 C 0.77532 0.20266 0.20566 0.0
H2923 H 0.83672 0.2311 0.22299 0.0
H2924 H 0.8033 0.2307 0.18598 0.0
S2925 S 0.75528 0.15804 0.26359 0.0
N2926 N 0.78501 0.17118 0.27307 0.0
N2927 N 0.74928 0.17005 0.2325 0.0
C2928 C 0.7723 0.18516 0.22831 0.0
C2929 C 0.79167 0.18581 0.25036 0.0
C2930 C 0.46462 0.97047 0.06499 0.0
C2931 C 0.45334 0.99698 0.06378 0.0
C2932 C 0.46305 0.95266 0.04235 0.0
C2933 C 0.45058 0.96108 0.01771 0.0
H2934 H 0.47824 0.9651 0.0817 0.0
H2935 H 0.47542 0.9342 0.04265 0.0
S2936 S 0.41153 0.02523 1.00718 0.0
N2937 N 0.42371 0.02793 0.03867 0.0
N2938 N 0.4217 0.99499 0.99578 0.0
C2939 C 0.4353 0.98543 0.01812 0.0
C2940 C 0.43636 1.00325 0.04139 0.0
C2941 C 0.5486 0.5536 0.0716 0.0
C2942 C 0.56334 0.52907 0.06828 0.0
C2943 C 0.54823 0.57358 0.05081 0.0
C2944 C 0.56237 0.56944 0.02599 0.0
H2945 H 0.53397 0.55545 0.08821 0.0
H2946 H 0.53338 0.59003 0.05237 0.0
S2947 S 0.61015 0.51251 0.01097 0.0
N2948 N 0.59748 0.50497 0.04145 0.0
N2949 N 0.59636 0.54218 1.00221 0.0
C2950 C 0.58094 0.54752 0.02475 0.0
C2951 C 0.58156 0.52736 0.04606 0.0
C2952 C 0.13195 0.3844 0.20738 0.0
C2953 C 0.11431 0.37746 0.22911 0.0
C2954 C 0.12226 0.39887 0.18436 0.0
C2955 C 0.09471 0.40738 0.18242 0.0
H2956 H 0.15321 0.378 0.2078 0.0
H2957 H 0.13624 0.40259 0.16759 0.0
S2958 S 0.04085 0.39655 0.23501 0.0
N2959 N 0.06828 0.38149 0.24785 0.0
N2960 N 0.05039 0.40902 0.20505 0.0
C2961 C 0.07711 0.40111 0.20436 0.0
C2962 C 0.08683 0.38615 0.22758 0.0
C2963 C 0.64587 0.64662 0.09272 0.0
C2964 C 0.65317 0.6745 0.09543 0.0
C2965 C 0.62994 0.63748 0.07043 0.0
C2966 C 0.62047 0.65598 0.05042 0.0
H2967 H 0.65155 0.63194 0.10838 0.0
H2968 H 0.62421 0.61604 0.06937 0.0
S2969 S 0.63706 0.73009 0.04597 0.0
N2970 N 0.65206 0.71974 0.07447 0.0
N2971 N 0.62181 0.70271 0.03321 0.0
C2972 C 0.62857 0.68355 0.05231 0.0
C2973 C 0.64497 0.69277 0.07466 0.0
C2974 C 0.89401 0.12036 0.18256 0.0
C2975 C 0.91979 0.1075 0.181 0.0
C2976 C 0.88489 0.13231 0.20718 0.0
C2977 C 0.90104 0.13135 0.23113 0.0
H2978 H 0.88118 0.12187 0.16448 0.0
H2979 H 0.86513 0.14244 0.20741 0.0
S2980 S 0.96956 0.09854 0.23771 0.0
N2981 N 0.96085 0.09365 0.2054 0.0
N2982 N 0.94382 0.11551 0.25158 0.0
C2983 C 0.92657 0.11784 0.22981 0.0
C2984 C 0.93591 0.1061 0.20476 0.0
C2985 C 0.34891 0.84355 0.05975 0.0
C2986 C 0.35095 0.85823 0.08443 0.0
C2987 C 0.36041 0.85356 0.03553 0.0
C2988 C 0.37487 0.87854 0.03498 0.0
H2989 H 0.33847 0.82393 0.05918 0.0
H2990 H 0.35847 0.84113 0.01722 0.0
S2991 S 0.386 0.92508 0.09416 0.0
N2992 N 0.36825 0.89925 0.10701 0.0
N2993 N 0.39015 0.9181 0.0613 0.0
C2994 C 0.37679 0.89372 0.05947 0.0
C2995 C 0.36474 0.88359 0.08423 0.0
C2996 C 0.09187 0.60214 0.31188 0.0
C2997 C 0.10666 0.60459 0.33641 0.0
C2998 C 0.10202 0.61291 0.28735 0.0
C2999 C 0.12715 0.62712 0.28648 0.0
H3000 H 0.0721 0.59199 0.31169 0.0
H3001 H 0.08956 0.61071 0.2691 0.0
S3002 S 0.17369 0.63925 0.34543 0.0
N3003 N 0.14777 0.6219 0.35863 0.0
N3004 N 0.16681 0.64271 0.31247 0.0
C3005 C 0.14237 0.62944 0.31091 0.0
C3006 C 0.13214 0.61804 0.33589 0.0
C3007 C 0.8985 0.64147 0.95539 0.0
C3008 C 0.88459 0.62196 0.97145 0.0
C3009 C 0.88565 0.65444 0.93327 0.0
C3010 C 0.8584 0.64838 0.92613 0.0
H3011 H 0.9193 0.64746 0.96039 0.0
H3012 H 0.89705 0.6698 0.92198 0.0
S3013 S 0.81311 0.59796 0.96075 0.0
N3014 N 0.84229 0.59622 0.97779 0.0
N3015 N 0.81801 0.62099 0.93647 0.0
C3016 C 0.84451 0.62811 0.94126 0.0
C3017 C 0.85766 0.61479 0.96383 0.0
C3018 C 0.9337 0.91543 0.31729 0.0
C3019 C 0.91873 0.91285 0.34169 0.0
C3020 C 0.92444 0.90358 0.29286 0.0
C3021 C 0.9 0.88819 0.29186 0.0
H3022 H 0.95284 0.92671 0.31709 0.0
H3023 H 0.93693 0.90619 0.2747 0.0
S3024 S 0.85382 0.87432 0.35071 0.0
N3025 N 0.87855 0.89344 0.3638 0.0
N3026 N 0.86115 0.87074 0.31785 0.0
C3027 C 0.88477 0.8854 0.31624 0.0
C3028 C 0.89412 0.89784 0.34115 0.0
C3029 C 0.14812 0.87581 0.93001 0.0
C3030 C 0.15597 0.84795 0.92884 0.0
C3031 C 0.13207 0.88589 0.95177 0.0
C3032 C 0.12293 0.86836 0.97274 0.0
H3033 H 0.15354 0.88975 0.91361 0.0
H3034 H 0.12601 0.90727 0.9517 0.0
S3035 S 0.1405 0.79487 0.98119 0.0
N3036 N 0.15545 0.80388 0.95223 0.0
N3037 N 0.12477 0.82265 0.99237 0.0
C3038 C 0.13133 0.84083 0.97228 0.0
C3039 C 0.14794 0.83069 0.95052 0.0
C3040 C 0.20877 0.09572 0.42551 0.0
C3041 C 0.18377 0.10918 0.42103 0.0
C3042 C 0.23303 0.10513 0.41349 0.0
C3043 C 0.23322 0.1281 0.39597 0.0
H3044 H 0.20952 0.07748 0.43818 0.0
H3045 H 0.25165 0.09367 0.41739 0.0
S3046 S 0.1728 0.17046 0.37746 0.0
N3047 N 0.16036 0.14677 0.39822 0.0
N3048 N 0.20599 0.16435 0.37511 0.0
C3049 C 0.20831 0.14207 0.39165 0.0
C3050 C 0.18358 0.13264 0.40429 0.0
C3051 C 0.38225 0.58137 0.84369 0.0
C3052 C 0.36858 0.59988 0.86106 0.0
C3053 C 0.39398 0.55727 0.85396 0.0
C3054 C 0.39256 0.55067 0.88202 0.0
H3055 H 0.38304 0.58494 0.82179 0.0
H3056 H 0.40355 0.54336 0.83954 0.0
S3057 S 0.36152 0.5939 0.93652 0.0
N3058 N 0.35606 0.61116 0.90792 0.0
N3059 N 0.37809 0.56585 0.92735 0.0
C3060 C 0.37999 0.56964 0.89982 0.0
C3061 C 0.36793 0.59417 0.88929 0.0
C3062 C 0.82814 0.38164 0.42758 0.0
C3063 C 0.84528 0.399 0.41221 0.0
C3064 C 0.80618 0.36777 0.41522 0.0
C3065 C 0.8006 0.37079 0.38706 0.0
H3066 H 0.83089 0.37971 0.44952 0.0
H3067 H 0.79276 0.35566 0.4281 0.0
S3068 S 0.8423 0.41012 0.33704 0.0
N3069 N 0.85722 0.41586 0.36689 0.0
N3070 N 0.81613 0.3897 0.3436 0.0
C3071 C 0.8187 0.38666 0.37119 0.0
C3072 C 0.84095 0.40084 0.38379 0.0
C3073 C 0.63958 0.93134 0.87089 0.0
C3074 C 0.66769 0.93027 0.86391 0.0
C3075 C 0.62879 0.95324 0.88636 0.0
C3076 C 0.64582 0.97443 0.89591 0.0
H3077 H 0.62583 0.9149 0.86514 0.0
H3078 H 0.60721 0.95312 0.89162 0.0
S3079 S 0.71994 0.98299 0.88174 0.0
N3080 N 0.71162 0.95403 0.86635 0.0
N3081 N 0.69146 0.99409 0.89617 0.0
C3082 C 0.67364 0.97395 0.88877 0.0
C3083 C 0.68453 0.95215 0.87264 0.0
C3084 C 0.19801 0.93778 0.11289 0.0
C3085 C 0.17566 0.9198 0.11031 0.0
C3086 C 0.22277 0.92919 0.12462 0.0
C3087 C 0.22609 0.90237 0.13478 0.0
H3088 H 0.19643 0.95871 0.1056 0.0
H3089 H 0.23936 0.9439 0.12598 0.0
S3090 S 0.17349 0.84753 0.13403 0.0
N3091 N 0.15815 0.87399 0.11946 0.0
N3092 N 0.20471 0.85793 0.14187 0.0
C3093 C 0.2038 0.8842 0.13267 0.0
C3094 C 0.17861 0.89286 0.1203 0.0
C3095 C 0.14327 0.58917 0.14699 0.0
C3096 C 0.17141 0.59335 0.15228 0.0
C3097 C 0.13397 0.56554 0.13317 0.0
C3098 C 0.15249 0.54547 0.1238 0.0
H3099 H 0.12833 0.6045 0.15288 0.0
H3100 H 0.11223 0.56331 0.12919 0.0
S3101 S 0.22781 0.54531 0.13441 0.0
N3102 N 0.21734 0.5742 0.14856 0.0
N3103 N 0.19995 0.53051 0.12221 0.0
C3104 C 0.18051 0.54917 0.12937 0.0
C3105 C 0.18992 0.57291 0.14365 0.0
C3106 C 0.83545 0.62692 0.13512 0.0
C3107 C 0.84211 0.62937 0.10723 0.0
C3108 C 0.8126 0.64023 0.14617 0.0
C3109 C 0.79523 0.65639 0.12972 0.0
H3110 H 0.84765 0.61399 0.14845 0.0
H3111 H 0.80803 0.63699 0.16766 0.0
S3112 S 0.80471 0.67081 0.05556 0.0
N3113 N 0.83042 0.65027 0.06352 0.0
N3114 N 0.7874 0.67551 0.08426 0.0
C3115 C 0.80247 0.66021 0.10201 0.0
C3116 C 0.8259 0.64662 0.09075 0.0
C3117 C 0.84792 0.97841 0.15249 0.0
C3118 C 0.87415 0.98047 0.14067 0.0
C3119 C 0.83863 0.95379 0.1638 0.0
C3120 C 0.85532 0.93035 0.16425 0.0
H3121 H 0.83408 0.99578 0.15248 0.0
H3122 H 0.81809 0.95309 0.17222 0.0
S3123 S 0.92593 0.92496 0.13657 0.0
N3124 N 0.91692 0.95701 0.13043 0.0
N3125 N 0.89946 0.9106 0.15205 0.0
C3126 C 0.88182 0.93213 0.15302 0.0
C3127 C 0.89121 0.95722 0.14111 0.0
C3128 C 0.39514 0.17677 0.12464 0.0
C3129 C 0.39996 0.1726 0.0964 0.0
C3130 C 0.3799 0.19939 0.13405 0.0
C3131 C 0.36847 0.2184 0.1156 0.0
H3132 H 0.40268 0.16228 0.13966 0.0
H3133 H 0.37671 0.20178 0.1559 0.0
S3134 S 0.37603 0.21782 0.03988 0.0
N3135 N 0.39286 0.19039 0.0503 0.0
N3136 N 0.36376 0.23215 0.06794 0.0
C3137 C 0.3731 0.21452 0.08742 0.0
C3138 C 0.3889 0.19182 0.07786 0.0
C3139 C 0.40241 0.8382 0.3919 0.0
C3140 C 0.41364 0.83992 0.41845 0.0
C3141 C 0.3907 0.81361 0.38228 0.0
C3142 C 0.39036 0.78984 0.39869 0.0
H3143 H 0.40205 0.85612 0.37878 0.0
H3144 H 0.38196 0.8132 0.36186 0.0
S3145 S 0.41774 0.78389 0.46959 0.0
N3146 N 0.42389 0.81597 0.46081 0.0
N3147 N 0.40252 0.76985 0.44282 0.0
C3148 C 0.40194 0.79138 0.42513 0.0
C3149 C 0.41338 0.8164 0.43498 0.0
C3150 C 0.08383 0.35124 0.89351 0.0
C3151 C 0.099 0.36568 0.87366 0.0
C3152 C 0.06147 0.36342 0.90682 0.0
C3153 C 0.05336 0.39042 0.90067 0.0
H3154 H 0.08837 0.32995 0.89791 0.0
H3155 H 0.04971 0.3511 0.92105 0.0
S3156 S 0.08901 0.4384 0.85362 0.0
N3157 N 0.10631 0.40943 0.85092 0.0
N3158 N 0.06426 0.43229 0.87585 0.0
C3159 C 0.06937 0.40561 0.88213 0.0
C3160 C 0.09214 0.39322 0.8686 0.0
C3161 C 0.6029 0.71545 0.36864 0.0
C3162 C 0.63091 0.72213 0.37077 0.0
C3163 C 0.59217 0.69199 0.38142 0.0
C3164 C 0.60906 0.67444 0.39687 0.0
H3165 H 0.58888 0.729 0.35801 0.0
H3166 H 0.57031 0.68831 0.38024 0.0
S3167 S 0.68439 0.68004 0.40501 0.0
N3168 N 0.67583 0.70717 0.38669 0.0
N3169 N 0.65549 0.66349 0.411 0.0
C3170 C 0.63728 0.67996 0.39781 0.0
C3171 C 0.64826 0.70365 0.38464 0.0
C3172 C 0.45164 0.65886 0.33109 0.0
C3173 C 0.42854 0.66039 0.34816 0.0
C3174 C 0.47572 0.64603 0.3398 0.0
C3175 C 0.47766 0.63381 0.36587 0.0
H3176 H 0.45117 0.66778 0.31075 0.0
H3177 H 0.49286 0.64547 0.3257 0.0
S3178 S 0.42271 0.63149 0.4183 0.0
N3179 N 0.4088 0.64817 0.39232 0.0
N3180 N 0.45427 0.62398 0.40876 0.0
C3181 C 0.45469 0.63512 0.38324 0.0
C3182 C 0.4301 0.64845 0.37441 0.0
C3183 C 0.14358 0.81131 0.6309 0.0
C3184 C 0.13087 0.79775 0.65299 0.0
C3185 C 0.13073 0.83308 0.61735 0.0
C3186 C 0.10473 0.84247 0.62541 0.0
H3187 H 0.16334 0.80456 0.62336 0.0
H3188 H 0.14109 0.84233 0.60003 0.0
S3189 S 0.06317 0.81528 0.68308 0.0
N3190 N 0.09127 0.79642 0.68332 0.0
N3191 N 0.06698 0.83717 0.65758 0.0
C3192 C 0.0922 0.82997 0.64822 0.0
C3193 C 0.10533 0.80769 0.66208 0.0
C3194 C 0.06908 0.6336 0.63314 0.0
C3195 C 0.04897 0.62309 0.65087 0.0
C3196 C 0.09105 0.64933 0.6433 0.0
C3197 C 0.09328 0.65557 0.67151 0.0
H3198 H 0.06829 0.62896 0.61143 0.0
H3199 H 0.10673 0.65582 0.62902 0.0
S3200 S 0.04358 0.63558 0.72568 0.0
N3201 N 0.03143 0.62152 0.69741 0.0
N3202 N 0.07181 0.65171 0.71641 0.0
C3203 C 0.07248 0.64601 0.68912 0.0
C3204 C 0.05056 0.62966 0.67885 0.0
C3205 C 0.94872 0.86158 0.68744 0.0
C3206 C 0.925 0.86294 0.6712 0.0
C3207 C 0.97314 0.8741 0.67916 0.0
C3208 C 0.97479 0.88897 0.65446 0.0
H3209 H 0.94848 0.85054 0.70671 0.0
H3210 H 0.99082 0.87222 0.69247 0.0
S3211 S 0.91793 0.90001 0.60522 0.0
N3212 N 0.90423 0.88094 0.62962 0.0
N3213 N 0.95019 0.90491 0.61413 0.0
C3214 C 0.95107 0.89082 0.63812 0.0
C3215 C 0.92618 0.87767 0.64644 0.0
C3216 C 0.62715 0.90063 0.68258 0.0
C3217 C 0.60118 0.9132 0.68125 0.0
C3218 C 0.63674 0.88885 0.70714 0.0
C3219 C 0.62091 0.88971 0.73129 0.0
H3220 H 0.63986 0.89938 0.66441 0.0
H3221 H 0.65672 0.87915 0.70723 0.0
S3222 S 0.55172 0.92086 0.73842 0.0
N3223 N 0.56005 0.92605 0.70607 0.0
N3224 N 0.57793 0.9044 0.75204 0.0
C3225 C 0.59505 0.90253 0.73013 0.0
C3226 C 0.58522 0.91412 0.70516 0.0
C3227 C 0.15876 0.18767 0.5753 0.0
C3228 C 0.15846 0.17025 0.59821 0.0
C3229 C 0.1475 0.17945 0.5502 0.0
C3230 C 0.13495 0.15363 0.54706 0.0
H3231 H 0.16799 0.20784 0.57673 0.0
H3232 H 0.14841 0.19372 0.53322 0.0
S3233 S 0.12769 0.10076 0.60121 0.0
N3234 N 0.14413 0.12615 0.6165 0.0
N3235 N 0.12247 0.1108 0.56932 0.0
C3236 C 0.13423 0.13604 0.56993 0.0
C3237 C 0.14613 0.1443 0.59548 0.0
C3238 C 0.43475 0.60601 0.70063 0.0
C3239 C 0.41809 0.60643 0.67717 0.0
C3240 C 0.42646 0.61861 0.72499 0.0
C3241 C 0.40129 0.63262 0.72687 0.0
H3242 H 0.45452 0.59589 0.70014 0.0
H3243 H 0.4403 0.61775 0.74234 0.0
S3244 S 0.35014 0.64003 0.67102 0.0
N3245 N 0.37517 0.62196 0.65709 0.0
N3246 N 0.35956 0.64597 0.70299 0.0
C3247 C 0.38423 0.63305 0.70357 0.0
C3248 C 0.39261 0.61987 0.67871 0.0
C3249 C 0.87614 0.37274 0.59576 0.0
C3250 C 0.8701 0.34464 0.59926 0.0
C3251 C 0.8913 0.38207 0.57308 0.0
C3252 C 0.90136 0.36362 0.55332 0.0
H3253 H 0.86977 0.38763 0.61093 0.0
H3254 H 0.89569 0.40378 0.57134 0.0
S3255 S 0.889 0.28852 0.55138 0.0
N3256 N 0.87377 0.29889 0.57974 0.0
N3257 N 0.90261 0.31629 0.53767 0.0
C3258 C 0.89505 0.33563 0.55628 0.0
C3259 C 0.87939 0.3262 0.57911 0.0
C3260 C 0.62394 0.12528 0.84195 0.0
C3261 C 0.59568 0.12175 0.84697 0.0
C3262 C 0.63334 0.14022 0.81914 0.0
C3263 C 0.61488 0.15251 0.80065 0.0
H3264 H 0.63901 0.11703 0.85601 0.0
H3265 H 0.65523 0.14248 0.8162 0.0
S3266 S 0.53891 0.14824 0.80356 0.0
N3267 N 0.54944 0.1309 0.83062 0.0
N3268 N 0.56702 0.15926 0.78837 0.0
C3269 C 0.58663 0.149 0.80533 0.0
C3270 C 0.57709 0.1336 0.8283 0.0
C3271 C 0.37542 0.14538 0.42693 0.0
C3272 C 0.36892 0.17321 0.42244 0.0
C3273 C 0.39007 0.13705 0.45041 0.0
C3274 C 0.399 0.15628 0.47005 0.0
H3275 H 0.36982 0.12998 0.41192 0.0
H3276 H 0.39495 0.11552 0.45287 0.0
S3277 S 0.38474 0.23108 0.46937 0.0
N3278 N 0.37079 0.21953 0.4408 0.0
N3279 N 0.39849 0.20406 0.48435 0.0
C3280 C 0.39207 0.184 0.46607 0.0
C3281 C 0.37703 0.1924 0.44242 0.0
C3282 C 0.42519 0.37991 0.83772 0.0
C3283 C 0.41135 0.40407 0.84529 0.0
C3284 C 0.41493 0.36255 0.81729 0.0
C3285 C 0.39054 0.36878 0.80324 0.0
H3286 H 0.44459 0.3747 0.8472 0.0
H3287 H 0.42695 0.34473 0.81169 0.0
S3288 S 0.3449 0.42818 0.81698 0.0
N3289 N 0.37085 0.4324 0.83831 0.0
N3290 N 0.35141 0.39958 0.80004 0.0
C3291 C 0.37566 0.39211 0.81156 0.0
C3292 C 0.38608 0.40979 0.83255 0.0
C3293 C 0.65348 0.37765 0.43224 0.0
C3294 C 0.66732 0.35233 0.43117 0.0
C3295 C 0.64145 0.38699 0.4568 0.0
C3296 C 0.64328 0.37151 0.48114 0.0
H3297 H 0.65122 0.3899 0.41385 0.0
H3298 H 0.63056 0.40635 0.45665 0.0
S3299 S 0.67892 0.30446 0.489 0.0
N3300 N 0.68305 0.31252 0.45643 0.0
N3301 N 0.6611 0.32989 0.50241 0.0
C3302 C 0.6578 0.34648 0.48026 0.0
C3303 C 0.66962 0.33694 0.45532 0.0
C3304 C 0.67826 0.61739 0.88488 0.0
C3305 C 0.67343 0.61784 0.91329 0.0
C3306 C 0.70142 0.63005 0.87352 0.0
C3307 C 0.72082 0.64352 0.89016 0.0
H3308 H 0.66405 0.60706 0.87128 0.0
H3309 H 0.70433 0.62888 0.85153 0.0
S3310 S 0.71808 0.64965 0.96607 0.0
N3311 N 0.69017 0.63232 0.95795 0.0
N3312 N 0.73357 0.6563 0.93675 0.0
C3313 C 0.71602 0.6444 0.91865 0.0
C3314 C 0.69239 0.63149 0.93018 0.0
C3315 C 0.84722 0.04396 0.36957 0.0
C3316 C 0.87312 0.04157 0.38208 0.0
C3317 C 0.83837 0.06877 0.35825 0.0
C3318 C 0.8552 0.09213 0.35848 0.0
H3319 H 0.8333 0.02666 0.36894 0.0
H3320 H 0.81809 0.06967 0.34923 0.0
S3321 S 0.92497 0.09686 0.38838 0.0
N3322 N 0.91566 0.06478 0.39386 0.0
N3323 N 0.89905 0.11151 0.37222 0.0
C3324 C 0.88136 0.09007 0.37048 0.0
C3325 C 0.89028 0.06478 0.3824 0.0
C3326 C 0.33872 0.89408 0.89561 0.0
C3327 C 0.34225 0.92247 0.90021 0.0
C3328 C 0.31592 0.88396 0.88107 0.0
C3329 C 0.29611 0.90184 0.87014 0.0
H3330 H 0.35392 0.87952 0.90263 0.0
H3331 H 0.31415 0.86205 0.8778 0.0
S3332 S 0.29431 0.97751 0.87813 0.0
N3333 N 0.3226 0.96798 0.89402 0.0
N3334 N 0.28057 0.94901 0.86618 0.0
C3335 C 0.29913 0.9301 0.87489 0.0
C3336 C 0.32198 0.94038 0.88999 0.0
C3337 C 0.14085 0.4653 0.37545 0.0
C3338 C 0.15011 0.46991 0.40243 0.0
C3339 C 0.15214 0.4444 0.35913 0.0
C3340 C 0.17303 0.42718 0.36919 0.0
H3341 H 0.12538 0.47847 0.3665 0.0
H3342 H 0.14495 0.44234 0.33823 0.0
S3343 S 0.20229 0.42874 0.43953 0.0
N3344 N 0.17998 0.45416 0.43912 0.0
N3345 N 0.20091 0.41487 0.40869 0.0
C3346 C 0.1817 0.43097 0.39649 0.0
C3347 C 0.17028 0.45224 0.41304 0.0
C3348 C 0.7345 0.42146 0.6166 0.0
C3349 C 0.73621 0.39579 0.62967 0.0
C3350 C 0.70976 0.43101 0.60573 0.0
C3351 C 0.68581 0.41509 0.607 0.0
H3352 H 0.75226 0.43473 0.61531 0.0
H3353 H 0.70934 0.45114 0.59633 0.0
S3354 S 0.67923 0.34617 0.63847 0.0
N3355 N 0.71176 0.35437 0.64291 0.0
N3356 N 0.66517 0.37229 0.62212 0.0
C3357 C 0.68721 0.38911 0.61942 0.0
C3358 C 0.71243 0.37948 0.63087 0.0
C3359 C 0.68177 0.06328 0.6714 0.0
C3360 C 0.66805 0.08839 0.66856 0.0
C3361 C 0.67184 0.03947 0.65891 0.0
C3362 C 0.64799 0.03985 0.6426 0.0
H3363 H 0.70047 0.06204 0.68335 0.0
H3364 H 0.68338 0.02071 0.66172 0.0
S3365 S 0.60497 0.10088 0.628 0.0
N3366 N 0.62958 0.11261 0.64812 0.0
N3367 N 0.61095 0.06777 0.62419 0.0
C3368 C 0.63397 0.06491 0.63962 0.0
C3369 C 0.64397 0.0892 0.65272 0.0
C3370 C 0.31305 0.09196 0.60121 0.0
C3371 C 0.33739 0.10717 0.60314 0.0
C3372 C 0.28892 0.10094 0.61381 0.0
C3373 C 0.28823 0.12528 0.62937 0.0
H3374 H 0.31276 0.07266 0.59018 0.0
H3375 H 0.27087 0.08814 0.61193 0.0
S3376 S 0.34662 0.17265 0.64068 0.0
N3377 N 0.3595 0.14796 0.62137 0.0
N3378 N 0.31408 0.16479 0.64548 0.0
C3379 C 0.31238 0.141 0.63109 0.0
C3380 C 0.33697 0.13197 0.61786 0.0
C3381 C 0.37098 0.43108 0.64909 0.0
C3382 C 0.34495 0.43054 0.6615 0.0
C3383 C 0.38123 0.45518 0.63705 0.0
C3384 C 0.36587 0.47962 0.63726 0.0
H3385 H 0.38323 0.41259 0.64815 0.0
H3386 H 0.40131 0.45464 0.6276 0.0
S3387 S 0.29623 0.48854 0.667 0.0
N3388 N 0.30396 0.45616 0.67305 0.0
N3389 N 0.32294 0.50142 0.65074 0.0
C3390 C 0.33974 0.4792 0.64965 0.0
C3391 C 0.32932 0.45465 0.66162 0.0
C3392 C 0.90337 0.73059 0.59626 0.0
C3393 C 0.88995 0.7322 0.62177 0.0
C3394 C 0.91477 0.70595 0.58691 0.0
C3395 C 0.91379 0.68208 0.60294 0.0
H3396 H 0.90454 0.74834 0.58297 0.0
H3397 H 0.92434 0.70553 0.56687 0.0
S3398 S 0.8813 0.67516 0.67125 0.0
N3399 N 0.87642 0.70759 0.66295 0.0
N3400 N 0.89841 0.66132 0.64551 0.0
C3401 C 0.90097 0.68338 0.62871 0.0
C3402 C 0.8889 0.70842 0.63808 0.0
C3403 C 0.91394 0.28919 0.91853 0.0
C3404 C 0.89554 0.28966 0.89624 0.0
C3405 C 0.92592 0.31326 0.92859 0.0
C3406 C 0.92047 0.3388 0.91652 0.0
H3407 H 0.91871 0.27014 0.92889 0.0
H3408 H 0.93941 0.3119 0.9462 0.0
S3409 S 0.87392 0.35165 0.85781 0.0
N3410 N 0.87252 0.31813 0.86236 0.0
N3411 N 0.89548 0.36343 0.88115 0.0
C3412 C 0.90266 0.3397 0.89385 0.0
C3413 C 0.89009 0.31513 0.88376 0.0
C3414 C 0.56891 0.88757 0.38765 0.0
C3415 C 0.54898 0.89734 0.3692 0.0
C3416 C 0.59153 0.87216 0.37834 0.0
C3417 C 0.5947 0.86566 0.35031 0.0
H3418 H 0.56749 0.89258 0.40924 0.0
H3419 H 0.60702 0.86617 0.39309 0.0
S3420 S 0.54598 0.88331 0.29448 0.0
N3421 N 0.53265 0.89748 0.32215 0.0
N3422 N 0.57443 0.86821 0.30481 0.0
C3423 C 0.57415 0.87437 0.33201 0.0
C3424 C 0.55148 0.89024 0.3414 0.0
C3425 C 0.1209 0.22743 0.9287 0.0
C3426 C 0.13326 0.22979 0.90274 0.0
C3427 C 0.10865 0.20294 0.93718 0.0
C3428 C 0.10774 0.17995 0.91988 0.0
H3429 H 0.12117 0.24445 0.94298 0.0
H3430 H 0.09995 0.20193 0.95759 0.0
S3431 S 0.13664 0.1753 0.84973 0.0
N3432 N 0.14357 0.20695 0.8596 0.0
N3433 N 0.12012 0.16086 0.87552 0.0
C3434 C 0.11946 0.18203 0.89363 0.0
C3435 C 0.13235 0.20696 0.88508 0.0
C3436 C 0.92909 0.14767 0.87953 0.0
C3437 C 0.92564 0.15371 0.85142 0.0
C3438 C 0.95161 0.13219 0.88886 0.0
C3439 C 0.97114 0.12178 0.87039 0.0
H3440 H 0.914 0.15423 0.89441 0.0
H3441 H 0.95332 0.12772 0.91054 0.0
S3442 S 0.97331 0.1339 0.79534 0.0
N3443 N 0.94529 0.14974 0.80569 0.0
N3444 N 0.98675 0.12014 0.82315 0.0
C3445 C 0.9683 0.12814 0.84245 0.0
C3446 C 0.94577 0.14418 0.83301 0.0
C3447 C 0.62721 0.34379 0.12713 0.0
C3448 C 0.62002 0.3474 0.09935 0.0
C3449 C 0.64183 0.32045 0.13583 0.0
C3450 C 0.65001 0.30014 0.117 0.0
H3451 H 0.62224 0.35943 0.14211 0.0
H3452 H 0.64742 0.31866 0.15726 0.0
S3453 S 0.63285 0.298 0.04291 0.0
N3454 N 0.61981 0.32727 0.05378 0.0
N3455 N 0.64747 0.2839 0.06996 0.0
C3456 C 0.64209 0.30309 0.08945 0.0
C3457 C 0.62709 0.3266 0.08068 0.0
C3458 C 0.56095 0.14562 0.12932 0.0
C3459 C 0.537 0.14556 0.14545 0.0
C3460 C 0.58551 0.15722 0.13913 0.0
C3461 C 0.58704 0.16865 0.1656 0.0
H3462 H 0.56079 0.1365 0.10906 0.0
H3463 H 0.60361 0.15638 0.12629 0.0
S3464 S 0.53034 0.17408 0.21586 0.0
N3465 N 0.51652 0.15864 0.1891 0.0
N3466 N 0.56258 0.17981 0.20743 0.0
C3467 C 0.56325 0.16899 0.18174 0.0
C3468 C 0.53825 0.15764 0.17169 0.0
C3469 C 0.48556 0.35952 0.16783 0.0
C3470 C 0.48577 0.37462 0.14321 0.0
C3471 C 0.46152 0.34747 0.17772 0.0
C3472 C 0.43675 0.34952 0.16323 0.0
H3473 H 0.50394 0.35762 0.18015 0.0
H3474 H 0.46225 0.33672 0.19715 0.0
S3475 S 0.42622 0.38592 0.09731 0.0
N3476 N 0.45905 0.39036 0.10417 0.0
N3477 N 0.41376 0.36735 0.12274 0.0
C3478 C 0.43667 0.36379 0.13816 0.0
C3479 C 0.4612 0.37643 0.12818 0.0
loop_
_geom_bond_atom_site_label_1
_geom_bond_atom_site_label_2
_geom_bond_distance
_geom_bond_site_symmetry_2
_ccdc_geom_bond_type
Zn0 N4 2.020 . S
Zn0 O8 2.019 . S
Zn0 N10 2.119 . S
Zn0 O18 1.975 . S
C1 N2 1.334 . S
C1 N5 1.336 . S
N2 C1 1.334 . S
N2 C3 1.334 . S
C3 N2 1.334 . S
C3 N4 1.336 . S
N4 Zn0 2.020 . S
N4 C3 1.336 . S
N4 N5 1.354 . S
N5 C1 1.336 . S
N5 N4 1.354 . S
N5 Zn9 2.020 . S
C6 O7 1.244 . S
C6 O30 1.257 . S
O7 C6 1.244 . S
O8 Zn0 2.019 . S
O8 C28 1.257 . S
Zn9 N5 2.020 . S
Zn9 O16 1.975 . S
Zn9 N25 2.119 . S
Zn9 O30 2.019 . S
N10 Zn0 2.119 . S
N10 C12 1.334 . S
N10 C13 1.328 . S
C11 C12 1.391 . S
C11 N14 1.329 . S
C11 H32 0.930 . S
C12 N10 1.334 . S
C12 C11 1.391 . S
C12 H19 0.930 . S
C13 N10 1.328 . S
C13 C15 1.392 . S
C13 H20 0.930 . S
N14 C11 1.329 . S
N14 C15 1.331 . S
C15 C13 1.392 . S
C15 N14 1.331 . S
O16 Zn9 1.975 . S
O16 C17 1.252 . S
C17 O16 1.252 . S
C17 O18 1.252 . S
O18 Zn0 1.975 . S
O18 C17 1.252 . S
H19 C12 0.930 . S
H20 C13 0.930 . S
C21 C22 1.392 . S
C21 N25 1.328 . S
C21 H27 0.930 . S
C22 C21 1.392 . S
C22 N26 1.331 . S
C23 C24 1.391 . S
C23 N26 1.329 . S
C23 H33 0.930 . S
C24 C23 1.391 . S
C24 N25 1.334 . S
C24 H31 0.930 . S
N25 Zn9 2.119 . S
N25 C21 1.328 . S
N25 C24 1.334 . S
N26 C22 1.331 . S
N26 C23 1.329 . S
H27 C21 0.930 . S
C28 O8 1.257 . S
C28 O29 1.244 . S
O29 C28 1.244 . S
O30 C6 1.257 . S
O30 Zn9 2.019 . S
H31 C24 0.930 . S
H32 C11 0.930 . S
H33 C23 0.930 . S
Zn34 N38 2.020 . S
Zn34 O42 2.019 . S
Zn34 N44 2.119 . S
Zn34 O52 1.975 . S
C35 N36 1.334 . S
C35 N39 1.336 . S
N36 C35 1.334 . S
N36 C37 1.334 . S
C37 N36 1.334 . S
C37 N38 1.336 . S
N38 Zn34 2.020 . S
N38 C37 1.336 . S
N38 N39 1.354 . S
N39 C35 1.336 . S
N39 N38 1.354 . S
N39 Zn43 2.020 . S
C40 O41 1.244 . S
C40 O64 1.257 . S
O41 C40 1.244 . S
O42 Zn34 2.019 . S
O42 C62 1.241 1_556 S
Zn43 N39 2.020 . S
Zn43 O50 1.975 . S
Zn43 N59 2.119 . S
Zn43 O64 2.019 . S
N44 Zn34 2.119 . S
N44 C46 1.334 . S
N44 C47 1.328 . S
C45 C46 1.391 . S
C45 N48 1.329 . S
C45 H66 0.930 . S
C46 N44 1.334 . S
C46 C45 1.391 . S
C46 H53 0.930 . S
C47 N44 1.328 . S
C47 C49 1.392 . S
C47 H54 0.930 . S
N48 C45 1.329 . S
N48 C49 1.331 . S
C49 C47 1.392 . S
C49 N48 1.331 . S
O50 Zn43 1.975 . S
O50 C51 1.252 . S
C51 O50 1.252 . S
C51 O52 1.252 . S
O52 Zn34 1.975 . S
O52 C51 1.252 . S
H53 C46 0.930 . S
H54 C47 0.930 . S
C55 C56 1.392 . S
C55 N59 1.328 . S
C55 H61 0.930 . S
C56 C55 1.392 . S
C56 N60 1.331 . S
C57 C58 1.391 . S
C57 N60 1.329 . S
C57 H67 0.930 1_556 S
C58 C57 1.391 . S
C58 N59 1.334 . S
C58 H65 0.930 . S
N59 Zn43 2.119 . S
N59 C55 1.328 . S
N59 C58 1.334 . S
N60 C56 1.331 . S
N60 C57 1.329 . S
H61 C55 0.930 . S
C62 O42 1.241 1_554 S
C62 O63 1.246 . S
O63 C62 1.246 . S
O64 C40 1.257 . S
O64 Zn43 2.019 . S
H65 C58 0.930 . S
H66 C45 0.930 . S
H67 C57 0.930 1_554 S
Zn68 N72 2.020 . S
Zn68 O76 2.019 . S
Zn68 N78 2.119 . S
Zn68 O86 1.975 . S
C69 N70 1.334 . S
C69 N73 1.336 . S
N70 C69 1.334 . S
N70 C71 1.334 . S
C71 N70 1.334 . S
C71 N72 1.336 . S
N72 Zn68 2.020 . S
N72 C71 1.336 . S
N72 N73 1.354 . S
N73 C69 1.336 . S
N73 N72 1.354 . S
N73 Zn77 2.020 . S
C74 O75 1.244 . S
C74 O98 1.257 . S
O75 C74 1.244 . S
O76 Zn68 2.019 . S
O76 C96 1.257 . S
Zn77 N73 2.020 . S
Zn77 O84 1.975 . S
Zn77 N93 2.119 . S
Zn77 O98 2.019 . S
N78 Zn68 2.119 . S
N78 C80 1.334 . S
N78 C81 1.328 . S
C79 C80 1.391 . S
C79 N82 1.329 . S
C79 H100 0.930 . S
C80 N78 1.334 . S
C80 C79 1.391 . S
C80 H87 0.930 . S
C81 N78 1.328 . S
C81 C83 1.392 . S
C81 H88 0.930 . S
N82 C79 1.329 . S
N82 C83 1.331 . S
C83 C81 1.392 . S
C83 N82 1.331 . S
O84 Zn77 1.975 . S
O84 C85 1.252 . S
C85 O84 1.252 . S
C85 O86 1.252 . S
O86 Zn68 1.975 . S
O86 C85 1.252 . S
H87 C80 0.930 . S
H88 C81 0.930 . S
C89 C90 1.392 . S
C89 N93 1.328 . S
C89 H95 0.930 . S
C90 C89 1.392 . S
C90 N94 1.331 . S
C91 C92 1.391 . S
C91 N94 1.329 . S
C91 H101 0.930 . S
C92 C91 1.391 . S
C92 N93 1.334 . S
C92 H99 0.930 . S
N93 Zn77 2.119 . S
N93 C89 1.328 . S
N93 C92 1.334 . S
N94 C90 1.331 . S
N94 C91 1.329 . S
H95 C89 0.930 . S
C96 O76 1.257 . S
C96 O97 1.244 . S
O97 C96 1.244 . S
O98 C74 1.257 . S
O98 Zn77 2.019 . S
H99 C92 0.930 . S
H100 C79 0.930 . S
H101 C91 0.930 . S
Zn102 N106 2.020 . S
Zn102 O110 2.019 . S
Zn102 N112 2.119 . S
Zn102 O120 1.975 . S
C103 N104 1.334 . S
C103 N107 1.336 . S
N104 C103 1.334 . S
N104 C105 1.334 . S
C105 N104 1.334 . S
C105 N106 1.336 . S
N106 Zn102 2.020 . S
N106 C105 1.336 . S
N106 N107 1.354 . S
N107 C103 1.336 . S
N107 N106 1.354 . S
N107 Zn111 2.020 . S
C108 O109 1.246 . S
C108 O132 1.241 1_554 S
O109 C108 1.246 . S
O110 Zn102 2.019 . S
O110 C130 1.257 . S
Zn111 N107 2.020 . S
Zn111 O118 1.975 . S
Zn111 N127 2.119 . S
Zn111 O132 2.019 . S
N112 Zn102 2.119 . S
N112 C114 1.334 . S
N112 C115 1.328 . S
C113 C114 1.391 . S
C113 N116 1.329 . S
C113 H134 0.930 1_556 S
C114 N112 1.334 . S
C114 C113 1.391 . S
C114 H121 0.930 . S
C115 N112 1.328 . S
C115 C117 1.392 . S
C115 H122 0.930 . S
N116 C113 1.329 . S
N116 C117 1.331 . S
C117 C115 1.392 . S
C117 N116 1.331 . S
O118 Zn111 1.975 . S
O118 C119 1.252 . S
C119 O118 1.252 . S
C119 O120 1.252 . S
O120 Zn102 1.975 . S
O120 C119 1.252 . S
H121 C114 0.930 . S
H122 C115 0.930 . S
C123 C124 1.392 . S
C123 N127 1.328 . S
C123 H129 0.930 . S
C124 C123 1.392 . S
C124 N128 1.331 . S
C125 C126 1.391 . S
C125 N128 1.329 . S
C125 H135 0.930 . S
C126 C125 1.391 . S
C126 N127 1.334 . S
C126 H133 0.930 . S
N127 Zn111 2.119 . S
N127 C123 1.328 . S
N127 C126 1.334 . S
N128 C124 1.331 . S
N128 C125 1.329 . S
H129 C123 0.930 . S
C130 O110 1.257 . S
C130 O131 1.244 . S
O131 C130 1.244 . S
O132 C108 1.241 1_556 S
O132 Zn111 2.019 . S
H133 C126 0.930 . S
H134 C113 0.930 1_554 S
H135 C125 0.930 . S
Zn136 N140 2.020 . S
Zn136 O144 2.019 . S
Zn136 N146 2.119 . S
Zn136 O154 1.975 . S
C137 N138 1.334 . S
C137 N141 1.336 . S
N138 C137 1.334 . S
N138 C139 1.334 . S
C139 N138 1.334 . S
C139 N140 1.336 . S
N140 Zn136 2.020 . S
N140 C139 1.336 . S
N140 N141 1.354 . S
N141 C137 1.336 . S
N141 N140 1.354 . S
N141 Zn145 2.020 . S
C142 O143 1.244 . S
C142 O166 1.257 . S
O143 C142 1.244 . S
O144 Zn136 2.019 . S
O144 C164 1.257 . S
Zn145 N141 2.020 . S
Zn145 O152 1.975 . S
Zn145 N161 2.119 . S
Zn145 O166 2.019 . S
N146 Zn136 2.119 . S
N146 C148 1.334 . S
N146 C149 1.328 . S
C147 C148 1.391 . S
C147 N150 1.329 . S
C147 H168 0.930 . S
C148 N146 1.334 . S
C148 C147 1.391 . S
C148 H155 0.930 . S
C149 N146 1.328 . S
C149 C151 1.392 . S
C149 H156 0.930 . S
N150 C147 1.329 . S
N150 C151 1.331 . S
C151 C149 1.392 . S
C151 N150 1.331 . S
O152 Zn145 1.975 . S
O152 C153 1.252 . S
C153 O152 1.252 . S
C153 O154 1.252 . S
O154 Zn136 1.975 . S
O154 C153 1.252 . S
H155 C148 0.930 . S
H156 C149 0.930 . S
C157 C158 1.392 . S
C157 N161 1.328 . S
C157 H163 0.930 . S
C158 C157 1.392 . S
C158 N162 1.331 . S
C159 C160 1.391 . S
C159 N162 1.329 . S
C159 H169 0.930 . S
C160 C159 1.391 . S
C160 N161 1.334 . S
C160 H167 0.930 . S
N161 Zn145 2.119 . S
N161 C157 1.328 . S
N161 C160 1.334 . S
N162 C158 1.331 . S
N162 C159 1.329 . S
H163 C157 0.930 . S
C164 O144 1.257 . S
C164 O165 1.244 . S
O165 C164 1.244 . S
O166 C142 1.257 . S
O166 Zn145 2.019 . S
H167 C160 0.930 . S
H168 C147 0.930 . S
H169 C159 0.930 . S
Zn170 N174 2.020 . S
Zn170 O178 2.019 . S
Zn170 N180 2.119 . S
Zn170 O188 1.975 . S
C171 N172 1.334 . S
C171 N175 1.336 . S
N172 C171 1.334 . S
N172 C173 1.334 . S
C173 N172 1.334 . S
C173 N174 1.336 . S
N174 Zn170 2.020 . S
N174 C173 1.336 . S
N174 N175 1.354 . S
N175 C171 1.336 . S
N175 N174 1.354 . S
N175 Zn179 2.020 . S
C176 O177 1.246 . S
C176 O200 1.241 1_556 S
O177 C176 1.246 . S
O178 Zn170 2.019 . S
O178 C198 1.257 . S
Zn179 N175 2.020 . S
Zn179 O186 1.975 . S
Zn179 N195 2.119 . S
Zn179 O200 2.019 . S
N180 Zn170 2.119 . S
N180 C182 1.334 . S
N180 C183 1.328 1_655 S
C181 C182 1.391 . S
C181 N184 1.329 1_655 S
C181 H202 0.930 1_554 S
C182 N180 1.334 . S
C182 C181 1.391 . S
C182 H189 0.930 . S
C183 N180 1.328 1_455 S
C183 C185 1.392 . S
C183 H190 0.930 . S
N184 C181 1.329 1_455 S
N184 C185 1.331 . S
C185 C183 1.392 . S
C185 N184 1.331 . S
O186 Zn179 1.975 . S
O186 C187 1.252 . S
C187 O186 1.252 . S
C187 O188 1.252 . S
O188 Zn170 1.975 . S
O188 C187 1.252 . S
H189 C182 0.930 . S
H190 C183 0.930 . S
C191 C192 1.392 . S
C191 N195 1.328 . S
C191 H197 0.930 . S
C192 C191 1.392 . S
C192 N196 1.331 . S
C193 C194 1.391 . S
C193 N196 1.329 . S
C193 H203 0.930 . S
C194 C193 1.391 . S
C194 N195 1.334 . S
C194 H201 0.930 . S
N195 Zn179 2.119 . S
N195 C191 1.328 . S
N195 C194 1.334 . S
N196 C192 1.331 . S
N196 C193 1.329 . S
H197 C191 0.930 . S
C198 O178 1.257 . S
C198 O199 1.244 . S
O199 C198 1.244 . S
O200 C176 1.241 1_554 S
O200 Zn179 2.019 . S
H201 C194 0.930 . S
H202 C181 0.930 1_556 S
H203 C193 0.930 . S
Zn204 N208 2.020 . S
Zn204 O212 2.019 . S
Zn204 N214 2.119 . S
Zn204 O222 1.975 . S
C205 N206 1.334 . S
C205 N209 1.336 . S
N206 C205 1.334 . S
N206 C207 1.334 . S
C207 N206 1.334 . S
C207 N208 1.336 . S
N208 Zn204 2.020 . S
N208 C207 1.336 . S
N208 N209 1.354 . S
N209 C205 1.336 . S
N209 N208 1.354 . S
N209 Zn213 2.020 . S
C210 O211 1.244 . S
C210 O234 1.257 . S
O211 C210 1.244 . S
O212 Zn204 2.019 . S
O212 C232 1.257 . S
Zn213 N209 2.020 . S
Zn213 O220 1.975 . S
Zn213 N229 2.119 . S
Zn213 O234 2.019 . S
N214 Zn204 2.119 . S
N214 C216 1.334 . S
N214 C217 1.328 . S
C215 C216 1.391 . S
C215 N218 1.329 . S
C215 H236 0.930 . S
C216 N214 1.334 . S
C216 C215 1.391 . S
C216 H223 0.930 . S
C217 N214 1.328 . S
C217 C219 1.392 . S
C217 H224 0.930 . S
N218 C215 1.329 . S
N218 C219 1.331 . S
C219 C217 1.392 . S
C219 N218 1.331 . S
O220 Zn213 1.975 . S
O220 C221 1.252 . S
C221 O220 1.252 . S
C221 O222 1.252 . S
O222 Zn204 1.975 . S
O222 C221 1.252 . S
H223 C216 0.930 . S
H224 C217 0.930 . S
C225 C226 1.392 . S
C225 N229 1.328 . S
C225 H231 0.930 . S
C226 C225 1.392 . S
C226 N230 1.331 . S
C227 C228 1.391 . S
C227 N230 1.329 . S
C227 H237 0.930 . S
C228 C227 1.391 . S
C228 N229 1.334 . S
C228 H235 0.930 . S
N229 Zn213 2.119 . S
N229 C225 1.328 . S
N229 C228 1.334 . S
N230 C226 1.331 . S
N230 C227 1.329 . S
H231 C225 0.930 . S
C232 O212 1.257 . S
C232 O233 1.244 . S
O233 C232 1.244 . S
O234 C210 1.257 . S
O234 Zn213 2.019 . S
H235 C228 0.930 . S
H236 C215 0.930 . S
H237 C227 0.930 . S
Zn238 N242 2.020 . S
Zn238 O246 2.019 . S
Zn238 N248 2.119 . S
Zn238 O256 1.975 . S
C239 N240 1.334 . S
C239 N243 1.336 . S
N240 C239 1.334 . S
N240 C241 1.334 . S
C241 N240 1.334 . S
C241 N242 1.336 . S
N242 Zn238 2.020 . S
N242 C241 1.336 . S
N242 N243 1.354 . S
N243 C239 1.336 . S
N243 N242 1.354 . S
N243 Zn247 2.020 . S
C244 O245 1.246 . S
C244 O268 1.241 1_556 S
O245 C244 1.246 . S
O246 Zn238 2.019 . S
O246 C266 1.257 . S
Zn247 N243 2.020 . S
Zn247 O254 1.975 . S
Zn247 N263 2.119 . S
Zn247 O268 2.019 . S
N248 Zn238 2.119 . S
N248 C250 1.334 . S
N248 C251 1.328 1_455 S
C249 C250 1.391 . S
C249 N252 1.329 1_455 S
C249 H270 0.930 1_554 S
C250 N248 1.334 . S
C250 C249 1.391 . S
C250 H257 0.930 . S
C251 N248 1.328 1_655 S
C251 C253 1.392 . S
C251 H258 0.930 . S
N252 C249 1.329 1_655 S
N252 C253 1.331 . S
C253 C251 1.392 . S
C253 N252 1.331 . S
O254 Zn247 1.975 . S
O254 C255 1.252 . S
C255 O254 1.252 . S
C255 O256 1.252 . S
O256 Zn238 1.975 . S
O256 C255 1.252 . S
H257 C250 0.930 . S
H258 C251 0.930 . S
C259 C260 1.392 . S
C259 N263 1.328 . S
C259 H265 0.930 . S
C260 C259 1.392 . S
C260 N264 1.331 . S
C261 C262 1.391 . S
C261 N264 1.329 . S
C261 H271 0.930 . S
C262 C261 1.391 . S
C262 N263 1.334 . S
C262 H269 0.930 . S
N263 Zn247 2.119 . S
N263 C259 1.328 . S
N263 C262 1.334 . S
N264 C260 1.331 . S
N264 C261 1.329 . S
H265 C259 0.930 . S
C266 O246 1.257 . S
C266 O267 1.244 . S
O267 C266 1.244 . S
O268 C244 1.241 1_554 S
O268 Zn247 2.019 . S
H269 C262 0.930 . S
H270 C249 0.930 1_556 S
H271 C261 0.930 . S
Zn272 N276 2.020 . S
Zn272 O280 2.019 . S
Zn272 N282 2.119 . S
Zn272 O290 1.975 . S
C273 N274 1.334 . S
C273 N277 1.336 . S
N274 C273 1.334 . S
N274 C275 1.334 . S
C275 N274 1.334 . S
C275 N276 1.336 . S
N276 Zn272 2.020 . S
N276 C275 1.336 . S
N276 N277 1.354 . S
N277 C273 1.336 . S
N277 N276 1.354 . S
N277 Zn281 2.020 . S
C278 O279 1.244 . S
C278 O302 1.257 . S
O279 C278 1.244 . S
O280 Zn272 2.019 . S
O280 C300 1.257 . S
Zn281 N277 2.020 . S
Zn281 O288 1.975 . S
Zn281 N297 2.119 . S
Zn281 O302 2.019 . S
N282 Zn272 2.119 . S
N282 C284 1.334 . S
N282 C285 1.328 . S
C283 C284 1.391 . S
C283 N286 1.329 . S
C283 H304 0.930 . S
C284 N282 1.334 . S
C284 C283 1.391 . S
C284 H291 0.930 . S
C285 N282 1.328 . S
C285 C287 1.392 . S
C285 H292 0.930 . S
N286 C283 1.329 . S
N286 C287 1.331 . S
C287 C285 1.392 . S
C287 N286 1.331 . S
O288 Zn281 1.975 . S
O288 C289 1.252 . S
C289 O288 1.252 . S
C289 O290 1.252 . S
O290 Zn272 1.975 . S
O290 C289 1.252 . S
H291 C284 0.930 . S
H292 C285 0.930 . S
C293 C294 1.392 . S
C293 N297 1.328 . S
C293 H299 0.930 . S
C294 C293 1.392 . S
C294 N298 1.331 . S
C295 C296 1.391 . S
C295 N298 1.329 . S
C295 H305 0.930 . S
C296 C295 1.391 . S
C296 N297 1.334 . S
C296 H303 0.930 . S
N297 Zn281 2.119 . S
N297 C293 1.328 . S
N297 C296 1.334 . S
N298 C294 1.331 . S
N298 C295 1.329 . S
H299 C293 0.930 . S
C300 O280 1.257 . S
C300 O301 1.244 . S
O301 C300 1.244 . S
O302 C278 1.257 . S
O302 Zn281 2.019 . S
H303 C296 0.930 . S
H304 C283 0.930 . S
H305 C295 0.930 . S
Zn306 N310 2.020 . S
Zn306 O314 2.019 . S
Zn306 N316 2.119 . S
Zn306 O324 1.975 . S
C307 N308 1.334 . S
C307 N311 1.336 . S
N308 C307 1.334 . S
N308 C309 1.334 . S
C309 N308 1.334 . S
C309 N310 1.336 . S
N310 Zn306 2.020 . S
N310 C309 1.336 . S
N310 N311 1.354 . S
N311 C307 1.336 . S
N311 N310 1.354 . S
N311 Zn315 2.020 . S
C312 O313 1.244 . S
C312 O336 1.257 . S
O313 C312 1.244 . S
O314 Zn306 2.019 . S
O314 C334 1.257 . S
Zn315 N311 2.020 . S
Zn315 O322 1.975 . S
Zn315 N331 2.119 . S
Zn315 O336 2.019 . S
N316 Zn306 2.119 . S
N316 C318 1.334 . S
N316 C319 1.328 1_556 S
C317 C318 1.391 . S
C317 N320 1.329 1_556 S
C317 H338 0.930 . S
C318 N316 1.334 . S
C318 C317 1.391 . S
C318 H325 0.930 . S
C319 N316 1.328 1_554 S
C319 C321 1.392 . S
C319 H326 0.930 . S
N320 C317 1.329 1_554 S
N320 C321 1.331 . S
C321 C319 1.392 . S
C321 N320 1.331 . S
O322 Zn315 1.975 . S
O322 C323 1.252 . S
C323 O322 1.252 . S
C323 O324 1.252 . S
O324 Zn306 1.975 . S
O324 C323 1.252 . S
H325 C318 0.930 . S
H326 C319 0.930 . S
C327 C328 1.392 . S
C327 N331 1.328 . S
C327 H333 0.930 . S
C328 C327 1.392 . S
C328 N332 1.331 . S
C329 C330 1.391 . S
C329 N332 1.329 . S
C329 H339 0.930 . S
C330 C329 1.391 . S
C330 N331 1.334 . S
C330 H337 0.930 . S
N331 Zn315 2.119 . S
N331 C327 1.328 . S
N331 C330 1.334 . S
N332 C328 1.331 . S
N332 C329 1.329 . S
H333 C327 0.930 . S
C334 O314 1.257 . S
C334 O335 1.244 . S
O335 C334 1.244 . S
O336 C312 1.257 . S
O336 Zn315 2.019 . S
H337 C330 0.930 . S
H338 C317 0.930 . S
H339 C329 0.930 . S
Zn340 N344 2.020 . S
Zn340 O348 2.019 . S
Zn340 N350 2.119 . S
Zn340 O358 1.975 . S
C341 N342 1.334 . S
C341 N345 1.336 . S
N342 C341 1.334 . S
N342 C343 1.334 . S
C343 N342 1.334 . S
C343 N344 1.336 . S
N344 Zn340 2.020 . S
N344 C343 1.336 . S
N344 N345 1.354 . S
N345 C341 1.336 . S
N345 N344 1.354 . S
N345 Zn349 2.020 . S
C346 O347 1.244 . S
C346 O370 1.257 . S
O347 C346 1.244 . S
O348 Zn340 2.019 . S
O348 C368 1.257 . S
Zn349 N345 2.020 . S
Zn349 O356 1.975 . S
Zn349 N365 2.119 . S
Zn349 O370 2.019 . S
N350 Zn340 2.119 . S
N350 C352 1.334 . S
N350 C353 1.328 . S
C351 C352 1.391 . S
C351 N354 1.329 . S
C351 H372 0.930 . S
C352 N350 1.334 . S
C352 C351 1.391 . S
C352 H359 0.930 . S
C353 N350 1.328 . S
C353 C355 1.392 . S
C353 H360 0.930 . S
N354 C351 1.329 . S
N354 C355 1.331 . S
C355 C353 1.392 . S
C355 N354 1.331 . S
O356 Zn349 1.975 . S
O356 C357 1.252 . S
C357 O356 1.252 . S
C357 O358 1.252 . S
O358 Zn340 1.975 . S
O358 C357 1.252 . S
H359 C352 0.930 . S
H360 C353 0.930 . S
C361 C362 1.392 . S
C361 N365 1.328 . S
C361 H367 0.930 . S
C362 C361 1.392 . S
C362 N366 1.331 . S
C363 C364 1.391 . S
C363 N366 1.329 . S
C363 H373 0.930 . S
C364 C363 1.391 . S
C364 N365 1.334 . S
C364 H371 0.930 . S
N365 Zn349 2.119 . S
N365 C361 1.328 . S
N365 C364 1.334 . S
N366 C362 1.331 . S
N366 C363 1.329 . S
H367 C361 0.930 . S
C368 O348 1.257 . S
C368 O369 1.244 . S
O369 C368 1.244 . S
O370 C346 1.257 . S
O370 Zn349 2.019 . S
H371 C364 0.930 . S
H372 C351 0.930 . S
H373 C363 0.930 . S
Zn374 N378 2.020 . S
Zn374 O382 2.019 . S
Zn374 N384 2.119 . S
Zn374 O392 1.975 . S
C375 N376 1.334 . S
C375 N379 1.336 . S
N376 C375 1.334 . S
N376 C377 1.334 . S
C377 N376 1.334 . S
C377 N378 1.336 . S
N378 Zn374 2.020 . S
N378 C377 1.336 . S
N378 N379 1.354 . S
N379 C375 1.336 . S
N379 N378 1.354 . S
N379 Zn383 2.020 . S
C380 O381 1.246 . S
C380 O404 1.241 1_565 S
O381 C380 1.246 . S
O382 Zn374 2.019 . S
O382 C402 1.257 . S
Zn383 N379 2.020 . S
Zn383 O390 1.975 . S
Zn383 N399 2.119 . S
Zn383 O404 2.019 . S
N384 Zn374 2.119 . S
N384 C386 1.334 . S
N384 C387 1.328 1_556 S
C385 C386 1.391 . S
C385 N388 1.329 1_556 S
C385 H406 0.930 1_545 S
C386 N384 1.334 . S
C386 C385 1.391 . S
C386 H393 0.930 . S
C387 N384 1.328 1_554 S
C387 C389 1.392 . S
C387 H394 0.930 . S
N388 C385 1.329 1_554 S
N388 C389 1.331 . S
C389 C387 1.392 . S
C389 N388 1.331 . S
O390 Zn383 1.975 . S
O390 C391 1.252 . S
C391 O390 1.252 . S
C391 O392 1.252 . S
O392 Zn374 1.975 . S
O392 C391 1.252 . S
H393 C386 0.930 . S
H394 C387 0.930 . S
C395 C396 1.392 . S
C395 N399 1.328 . S
C395 H401 0.930 . S
C396 C395 1.392 . S
C396 N400 1.331 . S
C397 C398 1.391 . S
C397 N400 1.329 . S
C397 H407 0.930 . S
C398 C397 1.391 . S
C398 N399 1.334 . S
C398 H405 0.930 . S
N399 Zn383 2.119 . S
N399 C395 1.328 . S
N399 C398 1.334 . S
N400 C396 1.331 . S
N400 C397 1.329 . S
H401 C395 0.930 . S
C402 O382 1.257 . S
C402 O403 1.244 . S
O403 C402 1.244 . S
O404 C380 1.241 1_545 S
O404 Zn383 2.019 . S
H405 C398 0.930 . S
H406 C385 0.930 1_565 S
H407 C397 0.930 . S
Zn408 N412 2.020 . S
Zn408 O416 2.019 . S
Zn408 N418 2.119 . S
Zn408 O426 1.975 . S
C409 N410 1.334 . S
C409 N413 1.336 . S
N410 C409 1.334 . S
N410 C411 1.334 . S
C411 N410 1.334 . S
C411 N412 1.336 . S
N412 Zn408 2.020 . S
N412 C411 1.336 . S
N412 N413 1.354 . S
N413 C409 1.336 . S
N413 N412 1.354 . S
N413 Zn417 2.020 . S
C414 O415 1.244 . S
C414 O438 1.257 . S
O415 C414 1.244 . S
O416 Zn408 2.019 . S
O416 C436 1.257 . S
Zn417 N413 2.020 . S
Zn417 O424 1.975 . S
Zn417 N433 2.119 . S
Zn417 O438 2.019 . S
N418 Zn408 2.119 . S
N418 C420 1.334 . S
N418 C421 1.328 . S
C419 C420 1.391 . S
C419 N422 1.329 . S
C419 H440 0.930 . S
C420 N418 1.334 . S
C420 C419 1.391 . S
C420 H427 0.930 . S
C421 N418 1.328 . S
C421 C423 1.392 . S
C421 H428 0.930 . S
N422 C419 1.329 . S
N422 C423 1.331 . S
C423 C421 1.392 . S
C423 N422 1.331 . S
O424 Zn417 1.975 . S
O424 C425 1.252 . S
C425 O424 1.252 . S
C425 O426 1.252 . S
O426 Zn408 1.975 . S
O426 C425 1.252 . S
H427 C420 0.930 . S
H428 C421 0.930 . S
C429 C430 1.392 . S
C429 N433 1.328 . S
C429 H435 0.930 . S
C430 C429 1.392 . S
C430 N434 1.331 . S
C431 C432 1.391 . S
C431 N434 1.329 . S
C431 H441 0.930 . S
C432 C431 1.391 . S
C432 N433 1.334 . S
C432 H439 0.930 . S
N433 Zn417 2.119 . S
N433 C429 1.328 . S
N433 C432 1.334 . S
N434 C430 1.331 . S
N434 C431 1.329 . S
H435 C429 0.930 . S
C436 O416 1.257 . S
C436 O437 1.244 . S
O437 C436 1.244 . S
O438 C414 1.257 . S
O438 Zn417 2.019 . S
H439 C432 0.930 . S
H440 C419 0.930 . S
H441 C431 0.930 . S
Zn442 N446 2.020 . S
Zn442 O450 2.019 . S
Zn442 N452 2.119 . S
Zn442 O460 1.975 . S
C443 N444 1.334 . S
C443 N447 1.336 . S
N444 C443 1.334 . S
N444 C445 1.334 . S
C445 N444 1.334 . S
C445 N446 1.336 . S
N446 Zn442 2.020 . S
N446 C445 1.336 . S
N446 N447 1.354 . S
N447 C443 1.336 . S
N447 N446 1.354 . S
N447 Zn451 2.020 . S
C448 O449 1.244 . S
C448 O472 1.257 . S
O449 C448 1.244 . S
O450 Zn442 2.019 . S
O450 C470 1.257 . S
Zn451 N447 2.020 . S
Zn451 O458 1.975 . S
Zn451 N467 2.119 . S
Zn451 O472 2.019 . S
N452 Zn442 2.119 . S
N452 C454 1.334 . S
N452 C455 1.328 . S
C453 C454 1.391 . S
C453 N456 1.329 . S
C453 H474 0.930 . S
C454 N452 1.334 . S
C454 C453 1.391 . S
C454 H461 0.930 . S
C455 N452 1.328 . S
C455 C457 1.392 . S
C455 H462 0.930 . S
N456 C453 1.329 . S
N456 C457 1.331 . S
C457 C455 1.392 . S
C457 N456 1.331 . S
O458 Zn451 1.975 . S
O458 C459 1.252 . S
C459 O458 1.252 . S
C459 O460 1.252 . S
O460 Zn442 1.975 . S
O460 C459 1.252 . S
H461 C454 0.930 . S
H462 C455 0.930 . S
C463 C464 1.392 . S
C463 N467 1.328 1_556 S
C463 H469 0.930 . S
C464 C463 1.392 . S
C464 N468 1.331 . S
C465 C466 1.391 . S
C465 N468 1.329 1_554 S
C465 H475 0.930 . S
C466 C465 1.391 . S
C466 N467 1.334 . S
C466 H473 0.930 . S
N467 Zn451 2.119 . S
N467 C463 1.328 1_554 S
N467 C466 1.334 . S
N468 C464 1.331 . S
N468 C465 1.329 1_556 S
H469 C463 0.930 . S
C470 O450 1.257 . S
C470 O471 1.244 . S
O471 C470 1.244 . S
O472 C448 1.257 . S
O472 Zn451 2.019 . S
H473 C466 0.930 . S
H474 C453 0.930 . S
H475 C465 0.930 . S
Zn476 N480 2.020 . S
Zn476 O484 2.019 . S
Zn476 N486 2.119 . S
Zn476 O494 1.975 . S
C477 N478 1.334 . S
C477 N481 1.336 . S
N478 C477 1.334 . S
N478 C479 1.334 . S
C479 N478 1.334 . S
C479 N480 1.336 . S
N480 Zn476 2.020 . S
N480 C479 1.336 . S
N480 N481 1.354 . S
N481 C477 1.336 . S
N481 N480 1.354 . S
N481 Zn485 2.020 . S
C482 O483 1.244 . S
C482 O506 1.257 . S
O483 C482 1.244 . S
O484 Zn476 2.019 . S
O484 C504 1.257 . S
Zn485 N481 2.020 . S
Zn485 O492 1.975 . S
Zn485 N501 2.119 . S
Zn485 O506 2.019 . S
N486 Zn476 2.119 . S
N486 C488 1.334 . S
N486 C489 1.328 . S
C487 C488 1.391 . S
C487 N490 1.329 . S
C487 H508 0.930 . S
C488 N486 1.334 . S
C488 C487 1.391 . S
C488 H495 0.930 . S
C489 N486 1.328 . S
C489 C491 1.392 . S
C489 H496 0.930 . S
N490 C487 1.329 . S
N490 C491 1.331 . S
C491 C489 1.392 . S
C491 N490 1.331 . S
O492 Zn485 1.975 . S
O492 C493 1.252 . S
C493 O492 1.252 . S
C493 O494 1.252 . S
O494 Zn476 1.975 . S
O494 C493 1.252 . S
H495 C488 0.930 . S
H496 C489 0.930 . S
C497 C498 1.392 . S
C497 N501 1.328 . S
C497 H503 0.930 . S
C498 C497 1.392 . S
C498 N502 1.331 . S
C499 C500 1.391 . S
C499 N502 1.329 . S
C499 H509 0.930 . S
C500 C499 1.391 . S
C500 N501 1.334 . S
C500 H507 0.930 . S
N501 Zn485 2.119 . S
N501 C497 1.328 . S
N501 C500 1.334 . S
N502 C498 1.331 . S
N502 C499 1.329 . S
H503 C497 0.930 . S
C504 O484 1.257 . S
C504 O505 1.244 . S
O505 C504 1.244 . S
O506 C482 1.257 . S
O506 Zn485 2.019 . S
H507 C500 0.930 . S
H508 C487 0.930 . S
H509 C499 0.930 . S
Zn510 N514 2.020 . S
Zn510 O518 2.019 . S
Zn510 N520 2.119 . S
Zn510 O528 1.975 . S
C511 N512 1.334 . S
C511 N515 1.336 . S
N512 C511 1.334 . S
N512 C513 1.334 . S
C513 N512 1.334 . S
C513 N514 1.336 . S
N514 Zn510 2.020 . S
N514 C513 1.336 . S
N514 N515 1.354 . S
N515 C511 1.336 . S
N515 N514 1.354 . S
N515 Zn519 2.020 . S
C516 O517 1.244 . S
C516 O540 1.257 . S
O517 C516 1.244 . S
O518 Zn510 2.019 . S
O518 C538 1.241 1_545 S
Zn519 N515 2.020 . S
Zn519 O526 1.975 . S
Zn519 N535 2.119 . S
Zn519 O540 2.019 . S
N520 Zn510 2.119 . S
N520 C522 1.334 . S
N520 C523 1.328 . S
C521 C522 1.391 . S
C521 N524 1.329 . S
C521 H542 0.930 . S
C522 N520 1.334 . S
C522 C521 1.391 . S
C522 H529 0.930 . S
C523 N520 1.328 . S
C523 C525 1.392 . S
C523 H530 0.930 . S
N524 C521 1.329 . S
N524 C525 1.331 . S
C525 C523 1.392 . S
C525 N524 1.331 . S
O526 Zn519 1.975 . S
O526 C527 1.252 . S
C527 O526 1.252 . S
C527 O528 1.252 . S
O528 Zn510 1.975 . S
O528 C527 1.252 . S
H529 C522 0.930 . S
H530 C523 0.930 . S
C531 C532 1.392 . S
C531 N535 1.328 1_556 S
C531 H537 0.930 . S
C532 C531 1.392 . S
C532 N536 1.331 . S
C533 C534 1.391 . S
C533 N536 1.329 1_554 S
C533 H543 0.930 1_545 S
C534 C533 1.391 . S
C534 N535 1.334 . S
C534 H541 0.930 . S
N535 Zn519 2.119 . S
N535 C531 1.328 1_554 S
N535 C534 1.334 . S
N536 C532 1.331 . S
N536 C533 1.329 1_556 S
H537 C531 0.930 . S
C538 O518 1.241 1_565 S
C538 O539 1.246 . S
O539 C538 1.246 . S
O540 C516 1.257 . S
O540 Zn519 2.019 . S
H541 C534 0.930 . S
H542 C521 0.930 . S
H543 C533 0.930 1_565 S
Zn544 N548 2.020 . S
Zn544 O552 2.019 . S
Zn544 N554 2.119 . S
Zn544 O562 1.975 . S
C545 N546 1.334 . S
C545 N549 1.336 . S
N546 C545 1.334 . S
N546 C547 1.334 . S
C547 N546 1.334 . S
C547 N548 1.336 . S
N548 Zn544 2.020 . S
N548 C547 1.336 . S
N548 N549 1.354 . S
N549 C545 1.336 . S
N549 N548 1.354 . S
N549 Zn553 2.020 . S
C550 O551 1.244 . S
C550 O574 1.257 . S
O551 C550 1.244 . S
O552 Zn544 2.019 . S
O552 C572 1.257 . S
Zn553 N549 2.020 . S
Zn553 O560 1.975 . S
Zn553 N569 2.119 . S
Zn553 O574 2.019 . S
N554 Zn544 2.119 . S
N554 C556 1.334 . S
N554 C557 1.328 . S
C555 C556 1.391 . S
C555 N558 1.329 . S
C555 H576 0.930 . S
C556 N554 1.334 . S
C556 C555 1.391 . S
C556 H563 0.930 . S
C557 N554 1.328 . S
C557 C559 1.392 . S
C557 H564 0.930 . S
N558 C555 1.329 . S
N558 C559 1.331 . S
C559 C557 1.392 . S
C559 N558 1.331 . S
O560 Zn553 1.975 . S
O560 C561 1.252 . S
C561 O560 1.252 . S
C561 O562 1.252 . S
O562 Zn544 1.975 . S
O562 C561 1.252 . S
H563 C556 0.930 . S
H564 C557 0.930 . S
C565 C566 1.392 . S
C565 N569 1.328 . S
C565 H571 0.930 . S
C566 C565 1.392 . S
C566 N570 1.331 . S
C567 C568 1.391 . S
C567 N570 1.329 . S
C567 H577 0.930 . S
C568 C567 1.391 . S
C568 N569 1.334 . S
C568 H575 0.930 . S
N569 Zn553 2.119 . S
N569 C565 1.328 . S
N569 C568 1.334 . S
N570 C566 1.331 . S
N570 C567 1.329 . S
H571 C565 0.930 . S
C572 O552 1.257 . S
C572 O573 1.244 . S
O573 C572 1.244 . S
O574 C550 1.257 . S
O574 Zn553 2.019 . S
H575 C568 0.930 . S
H576 C555 0.930 . S
H577 C567 0.930 . S
Zn578 N582 2.020 . S
Zn578 O586 2.019 . S
Zn578 N588 2.119 . S
Zn578 O596 1.975 . S
C579 N580 1.334 . S
C579 N583 1.336 . S
N580 C579 1.334 . S
N580 C581 1.334 . S
C581 N580 1.334 . S
C581 N582 1.336 . S
N582 Zn578 2.020 . S
N582 C581 1.336 . S
N582 N583 1.354 . S
N583 C579 1.336 . S
N583 N582 1.354 . S
N583 Zn587 2.020 . S
C584 O585 1.244 . S
C584 O608 1.257 . S
O585 C584 1.244 . S
O586 Zn578 2.019 . S
O586 C606 1.257 . S
Zn587 N583 2.020 . S
Zn587 O594 1.975 . S
Zn587 N603 2.119 . S
Zn587 O608 2.019 . S
N588 Zn578 2.119 . S
N588 C590 1.334 . S
N588 C591 1.328 . S
C589 C590 1.391 . S
C589 N592 1.329 . S
C589 H610 0.930 . S
C590 N588 1.334 . S
C590 C589 1.391 . S
C590 H597 0.930 . S
C591 N588 1.328 . S
C591 C593 1.392 . S
C591 H598 0.930 . S
N592 C589 1.329 . S
N592 C593 1.331 . S
C593 C591 1.392 . S
C593 N592 1.331 . S
O594 Zn587 1.975 . S
O594 C595 1.252 . S
C595 O594 1.252 . S
C595 O596 1.252 . S
O596 Zn578 1.975 . S
O596 C595 1.252 . S
H597 C590 0.930 . S
H598 C591 0.930 . S
C599 C600 1.392 . S
C599 N603 1.328 . S
C599 H605 0.930 . S
C600 C599 1.392 . S
C600 N604 1.331 . S
C601 C602 1.391 . S
C601 N604 1.329 . S
C601 H611 0.930 . S
C602 C601 1.391 . S
C602 N603 1.334 . S
C602 H609 0.930 . S
N603 Zn587 2.119 . S
N603 C599 1.328 . S
N603 C602 1.334 . S
N604 C600 1.331 . S
N604 C601 1.329 . S
H605 C599 0.930 . S
C606 O586 1.257 . S
C606 O607 1.244 . S
O607 C606 1.244 . S
O608 C584 1.257 . S
O608 Zn587 2.019 . S
H609 C602 0.930 . S
H610 C589 0.930 . S
H611 C601 0.930 . S
Zn612 N616 2.020 . S
Zn612 O620 2.019 . S
Zn612 N622 2.119 . S
Zn612 O630 1.975 . S
C613 N614 1.334 . S
C613 N617 1.336 . S
N614 C613 1.334 . S
N614 C615 1.334 . S
C615 N614 1.334 . S
C615 N616 1.336 . S
N616 Zn612 2.020 . S
N616 C615 1.336 . S
N616 N617 1.354 . S
N617 C613 1.336 . S
N617 N616 1.354 . S
N617 Zn621 2.020 . S
C618 O619 1.244 . S
C618 O642 1.257 . S
O619 C618 1.244 . S
O620 Zn612 2.019 . S
O620 C640 1.241 1_655 S
Zn621 N617 2.020 . S
Zn621 O628 1.975 . S
Zn621 N637 2.119 . S
Zn621 O642 2.019 . S
N622 Zn612 2.119 . S
N622 C624 1.334 . S
N622 C625 1.328 . S
C623 C624 1.391 . S
C623 N626 1.329 . S
C623 H644 0.930 . S
C624 N622 1.334 . S
C624 C623 1.391 . S
C624 H631 0.930 . S
C625 N622 1.328 . S
C625 C627 1.392 . S
C625 H632 0.930 . S
N626 C623 1.329 . S
N626 C627 1.331 . S
C627 C625 1.392 . S
C627 N626 1.331 . S
O628 Zn621 1.975 . S
O628 C629 1.252 . S
C629 O628 1.252 . S
C629 O630 1.252 . S
O630 Zn612 1.975 . S
O630 C629 1.252 . S
H631 C624 0.930 . S
H632 C625 0.930 . S
C633 C634 1.392 . S
C633 N637 1.328 . S
C633 H639 0.930 . S
C634 C633 1.392 . S
C634 N638 1.331 . S
C635 C636 1.391 . S
C635 N638 1.329 . S
C635 H645 0.930 1_655 S
C636 C635 1.391 . S
C636 N637 1.334 . S
C636 H643 0.930 . S
N637 Zn621 2.119 . S
N637 C633 1.328 . S
N637 C636 1.334 . S
N638 C634 1.331 . S
N638 C635 1.329 . S
H639 C633 0.930 . S
C640 O620 1.241 1_455 S
C640 O641 1.246 . S
O641 C640 1.246 . S
O642 C618 1.257 . S
O642 Zn621 2.019 . S
H643 C636 0.930 . S
H644 C623 0.930 . S
H645 C635 0.930 1_455 S
Zn646 N650 2.020 . S
Zn646 O654 2.019 . S
Zn646 N656 2.119 . S
Zn646 O664 1.975 . S
C647 N648 1.334 . S
C647 N651 1.336 . S
N648 C647 1.334 . S
N648 C649 1.334 . S
C649 N648 1.334 . S
C649 N650 1.336 . S
N650 Zn646 2.020 . S
N650 C649 1.336 . S
N650 N651 1.354 . S
N651 C647 1.336 . S
N651 N650 1.354 . S
N651 Zn655 2.020 . S
C652 O653 1.244 . S
C652 O676 1.257 . S
O653 C652 1.244 . S
O654 Zn646 2.019 . S
O654 C674 1.257 . S
Zn655 N651 2.020 . S
Zn655 O662 1.975 . S
Zn655 N671 2.119 . S
Zn655 O676 2.019 . S
N656 Zn646 2.119 . S
N656 C658 1.334 . S
N656 C659 1.328 . S
C657 C658 1.391 . S
C657 N660 1.329 . S
C657 H678 0.930 . S
C658 N656 1.334 . S
C658 C657 1.391 . S
C658 H665 0.930 . S
C659 N656 1.328 . S
C659 C661 1.392 . S
C659 H666 0.930 . S
N660 C657 1.329 . S
N660 C661 1.331 . S
C661 C659 1.392 . S
C661 N660 1.331 . S
O662 Zn655 1.975 . S
O662 C663 1.252 . S
C663 O662 1.252 . S
C663 O664 1.252 . S
O664 Zn646 1.975 . S
O664 C663 1.252 . S
H665 C658 0.930 . S
H666 C659 0.930 . S
C667 C668 1.392 . S
C667 N671 1.328 . S
C667 H673 0.930 . S
C668 C667 1.392 . S
C668 N672 1.331 . S
C669 C670 1.391 . S
C669 N672 1.329 . S
C669 H679 0.930 . S
C670 C669 1.391 . S
C670 N671 1.334 . S
C670 H677 0.930 . S
N671 Zn655 2.119 . S
N671 C667 1.328 . S
N671 C670 1.334 . S
N672 C668 1.331 . S
N672 C669 1.329 . S
H673 C667 0.930 . S
C674 O654 1.257 . S
C674 O675 1.244 . S
O675 C674 1.244 . S
O676 C652 1.257 . S
O676 Zn655 2.019 . S
H677 C670 0.930 . S
H678 C657 0.930 . S
H679 C669 0.930 . S
Zn680 N684 2.020 . S
Zn680 O688 2.019 . S
Zn680 N690 2.119 . S
Zn680 O698 1.975 . S
C681 N682 1.334 . S
C681 N685 1.336 . S
N682 C681 1.334 . S
N682 C683 1.334 . S
C683 N682 1.334 . S
C683 N684 1.336 . S
N684 Zn680 2.020 . S
N684 C683 1.336 . S
N684 N685 1.354 . S
N685 C681 1.336 . S
N685 N684 1.354 . S
N685 Zn689 2.020 . S
C686 O687 1.244 . S
C686 O710 1.257 . S
O687 C686 1.244 . S
O688 Zn680 2.019 . S
O688 C708 1.257 . S
Zn689 N685 2.020 . S
Zn689 O696 1.975 . S
Zn689 N705 2.119 . S
Zn689 O710 2.019 . S
N690 Zn680 2.119 . S
N690 C692 1.334 . S
N690 C693 1.328 . S
C691 C692 1.391 . S
C691 N694 1.329 . S
C691 H712 0.930 . S
C692 N690 1.334 . S
C692 C691 1.391 . S
C692 H699 0.930 . S
C693 N690 1.328 . S
C693 C695 1.392 . S
C693 H700 0.930 . S
N694 C691 1.329 . S
N694 C695 1.331 . S
C695 C693 1.392 . S
C695 N694 1.331 . S
O696 Zn689 1.975 . S
O696 C697 1.252 . S
C697 O696 1.252 . S
C697 O698 1.252 . S
O698 Zn680 1.975 . S
O698 C697 1.252 . S
H699 C692 0.930 . S
H700 C693 0.930 . S
C701 C702 1.392 . S
C701 N705 1.328 . S
C701 H707 0.930 . S
C702 C701 1.392 . S
C702 N706 1.331 . S
C703 C704 1.391 . S
C703 N706 1.329 . S
C703 H713 0.930 . S
C704 C703 1.391 . S
C704 N705 1.334 . S
C704 H711 0.930 . S
N705 Zn689 2.119 . S
N705 C701 1.328 . S
N705 C704 1.334 . S
N706 C702 1.331 . S
N706 C703 1.329 . S
H707 C701 0.930 . S
C708 O688 1.257 . S
C708 O709 1.244 . S
O709 C708 1.244 . S
O710 C686 1.257 . S
O710 Zn689 2.019 . S
H711 C704 0.930 . S
H712 C691 0.930 . S
H713 C703 0.930 . S
Zn714 N718 2.020 . S
Zn714 O722 2.019 . S
Zn714 N724 2.119 . S
Zn714 O732 1.975 . S
C715 N716 1.334 . S
C715 N719 1.336 . S
N716 C715 1.334 . S
N716 C717 1.334 . S
C717 N716 1.334 . S
C717 N718 1.336 . S
N718 Zn714 2.020 . S
N718 C717 1.336 . S
N718 N719 1.354 . S
N719 C715 1.336 . S
N719 N718 1.354 . S
N719 Zn723 2.020 . S
C720 O721 1.244 . S
C720 O744 1.257 . S
O721 C720 1.244 . S
O722 Zn714 2.019 . S
O722 C742 1.257 . S
Zn723 N719 2.020 . S
Zn723 O730 1.975 . S
Zn723 N739 2.119 . S
Zn723 O744 2.019 . S
N724 Zn714 2.119 . S
N724 C726 1.334 . S
N724 C727 1.328 . S
C725 C726 1.391 . S
C725 N728 1.329 . S
C725 H746 0.930 . S
C726 N724 1.334 . S
C726 C725 1.391 . S
C726 H733 0.930 . S
C727 N724 1.328 . S
C727 C729 1.392 . S
C727 H734 0.930 . S
N728 C725 1.329 . S
N728 C729 1.331 . S
C729 C727 1.392 . S
C729 N728 1.331 . S
O730 Zn723 1.975 . S
O730 C731 1.252 . S
C731 O730 1.252 . S
C731 O732 1.252 . S
O732 Zn714 1.975 . S
O732 C731 1.252 . S
H733 C726 0.930 . S
H734 C727 0.930 . S
C735 C736 1.392 . S
C735 N739 1.328 . S
C735 H741 0.930 . S
C736 C735 1.392 . S
C736 N740 1.331 . S
C737 C738 1.391 . S
C737 N740 1.329 . S
C737 H747 0.930 . S
C738 C737 1.391 . S
C738 N739 1.334 . S
C738 H745 0.930 . S
N739 Zn723 2.119 . S
N739 C735 1.328 . S
N739 C738 1.334 . S
N740 C736 1.331 . S
N740 C737 1.329 . S
H741 C735 0.930 . S
C742 O722 1.257 . S
C742 O743 1.244 . S
O743 C742 1.244 . S
O744 C720 1.257 . S
O744 Zn723 2.019 . S
H745 C738 0.930 . S
H746 C725 0.930 . S
H747 C737 0.930 . S
Zn748 N752 2.020 . S
Zn748 O756 2.019 . S
Zn748 N758 2.119 . S
Zn748 O766 1.975 . S
C749 N750 1.334 . S
C749 N753 1.336 . S
N750 C749 1.334 . S
N750 C751 1.334 . S
C751 N750 1.334 . S
C751 N752 1.336 . S
N752 Zn748 2.020 . S
N752 C751 1.336 . S
N752 N753 1.354 . S
N753 C749 1.336 . S
N753 N752 1.354 . S
N753 Zn757 2.020 . S
C754 O755 1.244 . S
C754 O778 1.257 . S
O755 C754 1.244 . S
O756 Zn748 2.019 . S
O756 C776 1.241 1_655 S
Zn757 N753 2.020 . S
Zn757 O764 1.975 . S
Zn757 N773 2.119 . S
Zn757 O778 2.019 . S
N758 Zn748 2.119 . S
N758 C760 1.334 . S
N758 C761 1.328 . S
C759 C760 1.391 . S
C759 N762 1.329 . S
C759 H780 0.930 . S
C760 N758 1.334 . S
C760 C759 1.391 . S
C760 H767 0.930 . S
C761 N758 1.328 . S
C761 C763 1.392 . S
C761 H768 0.930 . S
N762 C759 1.329 . S
N762 C763 1.331 . S
C763 C761 1.392 . S
C763 N762 1.331 . S
O764 Zn757 1.975 . S
O764 C765 1.252 . S
C765 O764 1.252 . S
C765 O766 1.252 . S
O766 Zn748 1.975 . S
O766 C765 1.252 . S
H767 C760 0.930 . S
H768 C761 0.930 . S
C769 C770 1.392 . S
C769 N773 1.328 . S
C769 H775 0.930 . S
C770 C769 1.392 . S
C770 N774 1.331 . S
C771 C772 1.391 . S
C771 N774 1.329 . S
C771 H781 0.930 1_655 S
C772 C771 1.391 . S
C772 N773 1.334 . S
C772 H779 0.930 . S
N773 Zn757 2.119 . S
N773 C769 1.328 . S
N773 C772 1.334 . S
N774 C770 1.331 . S
N774 C771 1.329 . S
H775 C769 0.930 . S
C776 O756 1.241 1_455 S
C776 O777 1.246 . S
O777 C776 1.246 . S
O778 C754 1.257 . S
O778 Zn757 2.019 . S
H779 C772 0.930 . S
H780 C759 0.930 . S
H781 C771 0.930 1_455 S
Zn782 N786 2.020 . S
Zn782 O790 2.019 . S
Zn782 N792 2.119 . S
Zn782 O800 1.975 . S
C783 N784 1.334 . S
C783 N787 1.336 . S
N784 C783 1.334 . S
N784 C785 1.334 . S
C785 N784 1.334 . S
C785 N786 1.336 . S
N786 Zn782 2.020 . S
N786 C785 1.336 . S
N786 N787 1.354 . S
N787 C783 1.336 . S
N787 N786 1.354 . S
N787 Zn791 2.020 . S
C788 O789 1.244 . S
C788 O812 1.257 . S
O789 C788 1.244 . S
O790 Zn782 2.019 . S
O790 C810 1.241 1_455 S
Zn791 N787 2.020 . S
Zn791 O798 1.975 . S
Zn791 N807 2.119 . S
Zn791 O812 2.019 . S
N792 Zn782 2.119 . S
N792 C794 1.334 . S
N792 C795 1.328 . S
C793 C794 1.391 . S
C793 N796 1.329 . S
C793 H814 0.930 . S
C794 N792 1.334 . S
C794 C793 1.391 . S
C794 H801 0.930 . S
C795 N792 1.328 . S
C795 C797 1.392 . S
C795 H802 0.930 . S
N796 C793 1.329 . S
N796 C797 1.331 . S
C797 C795 1.392 . S
C797 N796 1.331 . S
O798 Zn791 1.975 . S
O798 C799 1.252 . S
C799 O798 1.252 . S
C799 O800 1.252 . S
O800 Zn782 1.975 . S
O800 C799 1.252 . S
H801 C794 0.930 . S
H802 C795 0.930 . S
C803 C804 1.392 . S
C803 N807 1.328 1_545 S
C803 H809 0.930 . S
C804 C803 1.392 . S
C804 N808 1.331 . S
C805 C806 1.391 . S
C805 N808 1.329 1_565 S
C805 H815 0.930 1_455 S
C806 C805 1.391 . S
C806 N807 1.334 . S
C806 H813 0.930 . S
N807 Zn791 2.119 . S
N807 C803 1.328 1_565 S
N807 C806 1.334 . S
N808 C804 1.331 . S
N808 C805 1.329 1_545 S
H809 C803 0.930 . S
C810 O790 1.241 1_655 S
C810 O811 1.246 . S
O811 C810 1.246 . S
O812 C788 1.257 . S
O812 Zn791 2.019 . S
H813 C806 0.930 . S
H814 C793 0.930 . S
H815 C805 0.930 1_655 S
Zn816 N820 2.020 . S
Zn816 O824 2.019 . S
Zn816 N826 2.119 . S
Zn816 O834 1.975 . S
C817 N818 1.334 . S
C817 N821 1.336 . S
N818 C817 1.334 . S
N818 C819 1.334 . S
C819 N818 1.334 . S
C819 N820 1.336 . S
N820 Zn816 2.020 . S
N820 C819 1.336 . S
N820 N821 1.354 . S
N821 C817 1.336 . S
N821 N820 1.354 . S
N821 Zn825 2.020 . S
C822 O823 1.244 . S
C822 O846 1.257 . S
O823 C822 1.244 . S
O824 Zn816 2.019 . S
O824 C844 1.257 . S
Zn825 N821 2.020 . S
Zn825 O832 1.975 . S
Zn825 N841 2.119 . S
Zn825 O846 2.019 . S
N826 Zn816 2.119 . S
N826 C828 1.334 . S
N826 C829 1.328 . S
C827 C828 1.391 . S
C827 N830 1.329 . S
C827 H848 0.930 . S
C828 N826 1.334 . S
C828 C827 1.391 . S
C828 H835 0.930 . S
C829 N826 1.328 . S
C829 C831 1.392 . S
C829 H836 0.930 . S
N830 C827 1.329 . S
N830 C831 1.331 . S
C831 C829 1.392 . S
C831 N830 1.331 . S
O832 Zn825 1.975 . S
O832 C833 1.252 . S
C833 O832 1.252 . S
C833 O834 1.252 . S
O834 Zn816 1.975 . S
O834 C833 1.252 . S
H835 C828 0.930 . S
H836 C829 0.930 . S
C837 C838 1.392 . S
C837 N841 1.328 . S
C837 H843 0.930 . S
C838 C837 1.392 . S
C838 N842 1.331 . S
C839 C840 1.391 . S
C839 N842 1.329 . S
C839 H849 0.930 . S
C840 C839 1.391 . S
C840 N841 1.334 . S
C840 H847 0.930 . S
N841 Zn825 2.119 . S
N841 C837 1.328 . S
N841 C840 1.334 . S
N842 C838 1.331 . S
N842 C839 1.329 . S
H843 C837 0.930 . S
C844 O824 1.257 . S
C844 O845 1.244 . S
O845 C844 1.244 . S
O846 C822 1.257 . S
O846 Zn825 2.019 . S
H847 C840 0.930 . S
H848 C827 0.930 . S
H849 C839 0.930 . S
Zn850 N854 2.020 . S
Zn850 O858 2.019 . S
Zn850 N860 2.119 . S
Zn850 O868 1.975 . S
C851 N852 1.334 . S
C851 N855 1.336 . S
N852 C851 1.334 . S
N852 C853 1.334 . S
C853 N852 1.334 . S
C853 N854 1.336 . S
N854 Zn850 2.020 . S
N854 C853 1.336 . S
N854 N855 1.354 . S
N855 C851 1.336 . S
N855 N854 1.354 . S
N855 Zn859 2.020 . S
C856 O857 1.244 . S
C856 O880 1.257 . S
O857 C856 1.244 . S
O858 Zn850 2.019 . S
O858 C878 1.257 . S
Zn859 N855 2.020 . S
Zn859 O866 1.975 . S
Zn859 N875 2.119 . S
Zn859 O880 2.019 . S
N860 Zn850 2.119 . S
N860 C862 1.334 . S
N860 C863 1.328 1_455 S
C861 C862 1.391 . S
C861 N864 1.329 1_455 S
C861 H882 0.930 . S
C862 N860 1.334 . S
C862 C861 1.391 . S
C862 H869 0.930 . S
C863 N860 1.328 1_655 S
C863 C865 1.392 . S
C863 H870 0.930 . S
N864 C861 1.329 1_655 S
N864 C865 1.331 . S
C865 C863 1.392 . S
C865 N864 1.331 . S
O866 Zn859 1.975 . S
O866 C867 1.252 . S
C867 O866 1.252 . S
C867 O868 1.252 . S
O868 Zn850 1.975 . S
O868 C867 1.252 . S
H869 C862 0.930 . S
H870 C863 0.930 . S
C871 C872 1.392 . S
C871 N875 1.328 . S
C871 H877 0.930 . S
C872 C871 1.392 . S
C872 N876 1.331 . S
C873 C874 1.391 . S
C873 N876 1.329 . S
C873 H883 0.930 . S
C874 C873 1.391 . S
C874 N875 1.334 . S
C874 H881 0.930 . S
N875 Zn859 2.119 . S
N875 C871 1.328 . S
N875 C874 1.334 . S
N876 C872 1.331 . S
N876 C873 1.329 . S
H877 C871 0.930 . S
C878 O858 1.257 . S
C878 O879 1.244 . S
O879 C878 1.244 . S
O880 C856 1.257 . S
O880 Zn859 2.019 . S
H881 C874 0.930 . S
H882 C861 0.930 . S
H883 C873 0.930 . S
Zn884 N888 2.020 . S
Zn884 O892 2.019 . S
Zn884 N894 2.119 . S
Zn884 O902 1.975 . S
C885 N886 1.334 . S
C885 N889 1.336 . S
N886 C885 1.334 . S
N886 C887 1.334 . S
C887 N886 1.334 . S
C887 N888 1.336 . S
N888 Zn884 2.020 . S
N888 C887 1.336 . S
N888 N889 1.354 . S
N889 C885 1.336 . S
N889 N888 1.354 . S
N889 Zn893 2.020 . S
C890 O891 1.244 . S
C890 O914 1.257 . S
O891 C890 1.244 . S
O892 Zn884 2.019 . S
O892 C912 1.257 . S
Zn893 N889 2.020 . S
Zn893 O900 1.975 . S
Zn893 N909 2.119 . S
Zn893 O914 2.019 . S
N894 Zn884 2.119 . S
N894 C896 1.334 . S
N894 C897 1.328 . S
C895 C896 1.391 . S
C895 N898 1.329 . S
C895 H916 0.930 . S
C896 N894 1.334 . S
C896 C895 1.391 . S
C896 H903 0.930 . S
C897 N894 1.328 . S
C897 C899 1.392 . S
C897 H904 0.930 . S
N898 C895 1.329 . S
N898 C899 1.331 . S
C899 C897 1.392 . S
C899 N898 1.331 . S
O900 Zn893 1.975 . S
O900 C901 1.252 . S
C901 O900 1.252 . S
C901 O902 1.252 . S
O902 Zn884 1.975 . S
O902 C901 1.252 . S
H903 C896 0.930 . S
H904 C897 0.930 . S
C905 C906 1.392 . S
C905 N909 1.328 . S
C905 H911 0.930 . S
C906 C905 1.392 . S
C906 N910 1.331 . S
C907 C908 1.391 . S
C907 N910 1.329 . S
C907 H917 0.930 . S
C908 C907 1.391 . S
C908 N909 1.334 . S
C908 H915 0.930 . S
N909 Zn893 2.119 . S
N909 C905 1.328 . S
N909 C908 1.334 . S
N910 C906 1.331 . S
N910 C907 1.329 . S
H911 C905 0.930 . S
C912 O892 1.257 . S
C912 O913 1.244 . S
O913 C912 1.244 . S
O914 C890 1.257 . S
O914 Zn893 2.019 . S
H915 C908 0.930 . S
H916 C895 0.930 . S
H917 C907 0.930 . S
Zn918 N922 2.020 . S
Zn918 O926 2.019 . S
Zn918 N928 2.119 . S
Zn918 O936 1.975 . S
C919 N920 1.334 . S
C919 N923 1.336 . S
N920 C919 1.334 . S
N920 C921 1.334 . S
C921 N920 1.334 . S
C921 N922 1.336 . S
N922 Zn918 2.020 . S
N922 C921 1.336 . S
N922 N923 1.354 . S
N923 C919 1.336 . S
N923 N922 1.354 . S
N923 Zn927 2.020 . S
C924 O925 1.244 . S
C924 O948 1.257 . S
O925 C924 1.244 . S
O926 Zn918 2.019 . S
O926 C946 1.257 . S
Zn927 N923 2.020 . S
Zn927 O934 1.975 . S
Zn927 N943 2.119 . S
Zn927 O948 2.019 . S
N928 Zn918 2.119 . S
N928 C930 1.334 . S
N928 C931 1.328 . S
C929 C930 1.391 . S
C929 N932 1.329 . S
C929 H950 0.930 . S
C930 N928 1.334 . S
C930 C929 1.391 . S
C930 H937 0.930 . S
C931 N928 1.328 . S
C931 C933 1.392 . S
C931 H938 0.930 . S
N932 C929 1.329 . S
N932 C933 1.331 . S
C933 C931 1.392 . S
C933 N932 1.331 . S
O934 Zn927 1.975 . S
O934 C935 1.252 . S
C935 O934 1.252 . S
C935 O936 1.252 . S
O936 Zn918 1.975 . S
O936 C935 1.252 . S
H937 C930 0.930 . S
H938 C931 0.930 . S
C939 C940 1.392 . S
C939 N943 1.328 1_455 S
C939 H945 0.930 . S
C940 C939 1.392 . S
C940 N944 1.331 . S
C941 C942 1.391 . S
C941 N944 1.329 1_655 S
C941 H951 0.930 . S
C942 C941 1.391 . S
C942 N943 1.334 . S
C942 H949 0.930 . S
N943 Zn927 2.119 . S
N943 C939 1.328 1_655 S
N943 C942 1.334 . S
N944 C940 1.331 . S
N944 C941 1.329 1_455 S
H945 C939 0.930 . S
C946 O926 1.257 . S
C946 O947 1.244 . S
O947 C946 1.244 . S
O948 C924 1.257 . S
O948 Zn927 2.019 . S
H949 C942 0.930 . S
H950 C929 0.930 . S
H951 C941 0.930 . S
Zn952 N956 2.020 . S
Zn952 O960 2.019 . S
Zn952 N962 2.119 . S
Zn952 O970 1.975 . S
C953 N954 1.334 . S
C953 N957 1.336 . S
N954 C953 1.334 . S
N954 C955 1.334 . S
C955 N954 1.334 . S
C955 N956 1.336 . S
N956 Zn952 2.020 . S
N956 C955 1.336 . S
N956 N957 1.354 . S
N957 C953 1.336 . S
N957 N956 1.354 . S
N957 Zn961 2.020 . S
C958 O959 1.244 . S
C958 O982 1.257 . S
O959 C958 1.244 . S
O960 Zn952 2.019 . S
O960 C980 1.257 . S
Zn961 N957 2.020 . S
Zn961 O968 1.975 . S
Zn961 N977 2.119 . S
Zn961 O982 2.019 . S
N962 Zn952 2.119 . S
N962 C964 1.334 . S
N962 C965 1.328 . S
C963 C964 1.391 . S
C963 N966 1.329 . S
C963 H984 0.930 . S
C964 N962 1.334 . S
C964 C963 1.391 . S
C964 H971 0.930 . S
C965 N962 1.328 . S
C965 C967 1.392 . S
C965 H972 0.930 . S
N966 C963 1.329 . S
N966 C967 1.331 . S
C967 C965 1.392 . S
C967 N966 1.331 . S
O968 Zn961 1.975 . S
O968 C969 1.252 . S
C969 O968 1.252 . S
C969 O970 1.252 . S
O970 Zn952 1.975 . S
O970 C969 1.252 . S
H971 C964 0.930 . S
H972 C965 0.930 . S
C973 C974 1.392 . S
C973 N977 1.328 . S
C973 H979 0.930 . S
C974 C973 1.392 . S
C974 N978 1.331 . S
C975 C976 1.391 . S
C975 N978 1.329 . S
C975 H985 0.930 . S
C976 C975 1.391 . S
C976 N977 1.334 . S
C976 H983 0.930 . S
N977 Zn961 2.119 . S
N977 C973 1.328 . S
N977 C976 1.334 . S
N978 C974 1.331 . S
N978 C975 1.329 . S
H979 C973 0.930 . S
C980 O960 1.257 . S
C980 O981 1.244 . S
O981 C980 1.244 . S
O982 C958 1.257 . S
O982 Zn961 2.019 . S
H983 C976 0.930 . S
H984 C963 0.930 . S
H985 C975 0.930 . S
Zn986 N990 2.020 . S
Zn986 O994 2.019 . S
Zn986 N996 2.119 . S
Zn986 O1004 1.975 . S
C987 N988 1.334 . S
C987 N991 1.336 . S
N988 C987 1.334 . S
N988 C989 1.334 . S
C989 N988 1.334 . S
C989 N990 1.336 . S
N990 Zn986 2.020 . S
N990 C989 1.336 . S
N990 N991 1.354 . S
N991 C987 1.336 . S
N991 N990 1.354 . S
N991 Zn995 2.020 . S
C992 O993 1.244 . S
C992 O1016 1.257 . S
O993 C992 1.244 . S
O994 Zn986 2.019 . S
O994 C1014 1.257 . S
Zn995 N991 2.020 . S
Zn995 O1002 1.975 . S
Zn995 N1011 2.119 . S
Zn995 O1016 2.019 . S
N996 Zn986 2.119 . S
N996 C998 1.334 . S
N996 C999 1.328 . S
C997 C998 1.391 . S
C997 N1000 1.329 . S
C997 H1018 0.930 . S
C998 N996 1.334 . S
C998 C997 1.391 . S
C998 H1005 0.930 . S
C999 N996 1.328 . S
C999 C1001 1.392 . S
C999 H1006 0.930 . S
N1000 C997 1.329 . S
N1000 C1001 1.331 . S
C1001 C999 1.392 . S
C1001 N1000 1.331 . S
O1002 Zn995 1.975 . S
O1002 C1003 1.252 . S
C1003 O1002 1.252 . S
C1003 O1004 1.252 . S
O1004 Zn986 1.975 . S
O1004 C1003 1.252 . S
H1005 C998 0.930 . S
H1006 C999 0.930 . S
C1007 C1008 1.392 . S
C1007 N1011 1.328 . S
C1007 H1013 0.930 . S
C1008 C1007 1.392 . S
C1008 N1012 1.331 . S
C1009 C1010 1.391 . S
C1009 N1012 1.329 . S
C1009 H1019 0.930 . S
C1010 C1009 1.391 . S
C1010 N1011 1.334 . S
C1010 H1017 0.930 . S
N1011 Zn995 2.119 . S
N1011 C1007 1.328 . S
N1011 C1010 1.334 . S
N1012 C1008 1.331 . S
N1012 C1009 1.329 . S
H1013 C1007 0.930 . S
C1014 O994 1.257 . S
C1014 O1015 1.244 . S
O1015 C1014 1.244 . S
O1016 C992 1.257 . S
O1016 Zn995 2.019 . S
H1017 C1010 0.930 . S
H1018 C997 0.930 . S
H1019 C1009 0.930 . S
Zn1020 N1024 2.020 . S
Zn1020 O1028 2.019 . S
Zn1020 N1030 2.119 . S
Zn1020 O1038 1.975 . S
C1021 N1022 1.334 . S
C1021 N1025 1.336 . S
N1022 C1021 1.334 . S
N1022 C1023 1.334 . S
C1023 N1022 1.334 . S
C1023 N1024 1.336 . S
N1024 Zn1020 2.020 . S
N1024 C1023 1.336 . S
N1024 N1025 1.354 . S
N1025 C1021 1.336 . S
N1025 N1024 1.354 . S
N1025 Zn1029 2.020 . S
C1026 O1027 1.244 . S
C1026 O1050 1.257 . S
O1027 C1026 1.244 . S
O1028 Zn1020 2.019 . S
O1028 C1048 1.257 . S
Zn1029 N1025 2.020 . S
Zn1029 O1036 1.975 . S
Zn1029 N1045 2.119 . S
Zn1029 O1050 2.019 . S
N1030 Zn1020 2.119 . S
N1030 C1032 1.334 . S
N1030 C1033 1.328 . S
C1031 C1032 1.391 . S
C1031 N1034 1.329 . S
C1031 H1052 0.930 . S
C1032 N1030 1.334 . S
C1032 C1031 1.391 . S
C1032 H1039 0.930 . S
C1033 N1030 1.328 . S
C1033 C1035 1.392 . S
C1033 H1040 0.930 . S
N1034 C1031 1.329 . S
N1034 C1035 1.331 . S
C1035 C1033 1.392 . S
C1035 N1034 1.331 . S
O1036 Zn1029 1.975 . S
O1036 C1037 1.252 . S
C1037 O1036 1.252 . S
C1037 O1038 1.252 . S
O1038 Zn1020 1.975 . S
O1038 C1037 1.252 . S
H1039 C1032 0.930 . S
H1040 C1033 0.930 . S
C1041 C1042 1.392 . S
C1041 N1045 1.328 . S
C1041 H1047 0.930 . S
C1042 C1041 1.392 . S
C1042 N1046 1.331 . S
C1043 C1044 1.391 . S
C1043 N1046 1.329 . S
C1043 H1053 0.930 . S
C1044 C1043 1.391 . S
C1044 N1045 1.334 . S
C1044 H1051 0.930 . S
N1045 Zn1029 2.119 . S
N1045 C1041 1.328 . S
N1045 C1044 1.334 . S
N1046 C1042 1.331 . S
N1046 C1043 1.329 . S
H1047 C1041 0.930 . S
C1048 O1028 1.257 . S
C1048 O1049 1.244 . S
O1049 C1048 1.244 . S
O1050 C1026 1.257 . S
O1050 Zn1029 2.019 . S
H1051 C1044 0.930 . S
H1052 C1031 0.930 . S
H1053 C1043 0.930 . S
Zn1054 N1058 2.020 . S
Zn1054 O1062 2.019 . S
Zn1054 N1064 2.119 . S
Zn1054 O1072 1.975 . S
C1055 N1056 1.334 . S
C1055 N1059 1.336 . S
N1056 C1055 1.334 . S
N1056 C1057 1.334 . S
C1057 N1056 1.334 . S
C1057 N1058 1.336 . S
N1058 Zn1054 2.020 . S
N1058 C1057 1.336 . S
N1058 N1059 1.354 . S
N1059 C1055 1.336 . S
N1059 N1058 1.354 . S
N1059 Zn1063 2.020 . S
C1060 O1061 1.244 . S
C1060 O1084 1.257 . S
O1061 C1060 1.244 . S
O1062 Zn1054 2.019 . S
O1062 C1082 1.257 . S
Zn1063 N1059 2.020 . S
Zn1063 O1070 1.975 . S
Zn1063 N1079 2.119 . S
Zn1063 O1084 2.019 . S
N1064 Zn1054 2.119 . S
N1064 C1066 1.334 . S
N1064 C1067 1.328 . S
C1065 C1066 1.391 . S
C1065 N1068 1.329 . S
C1065 H1086 0.930 . S
C1066 N1064 1.334 . S
C1066 C1065 1.391 . S
C1066 H1073 0.930 . S
C1067 N1064 1.328 . S
C1067 C1069 1.392 . S
C1067 H1074 0.930 . S
N1068 C1065 1.329 . S
N1068 C1069 1.331 . S
C1069 C1067 1.392 . S
C1069 N1068 1.331 . S
O1070 Zn1063 1.975 . S
O1070 C1071 1.252 . S
C1071 O1070 1.252 . S
C1071 O1072 1.252 . S
O1072 Zn1054 1.975 . S
O1072 C1071 1.252 . S
H1073 C1066 0.930 . S
H1074 C1067 0.930 . S
C1075 C1076 1.392 . S
C1075 N1079 1.328 . S
C1075 H1081 0.930 . S
C1076 C1075 1.392 . S
C1076 N1080 1.331 . S
C1077 C1078 1.391 . S
C1077 N1080 1.329 . S
C1077 H1087 0.930 . S
C1078 C1077 1.391 . S
C1078 N1079 1.334 . S
C1078 H1085 0.930 . S
N1079 Zn1063 2.119 . S
N1079 C1075 1.328 . S
N1079 C1078 1.334 . S
N1080 C1076 1.331 . S
N1080 C1077 1.329 . S
H1081 C1075 0.930 . S
C1082 O1062 1.257 . S
C1082 O1083 1.244 . S
O1083 C1082 1.244 . S
O1084 C1060 1.257 . S
O1084 Zn1063 2.019 . S
H1085 C1078 0.930 . S
H1086 C1065 0.930 . S
H1087 C1077 0.930 . S
Zn1088 N1092 2.020 . S
Zn1088 O1096 2.019 . S
Zn1088 N1098 2.119 . S
Zn1088 O1106 1.975 . S
C1089 N1090 1.334 . S
C1089 N1093 1.336 . S
N1090 C1089 1.334 . S
N1090 C1091 1.334 . S
C1091 N1090 1.334 . S
C1091 N1092 1.336 . S
N1092 Zn1088 2.020 . S
N1092 C1091 1.336 . S
N1092 N1093 1.354 . S
N1093 C1089 1.336 . S
N1093 N1092 1.354 . S
N1093 Zn1097 2.020 . S
C1094 O1095 1.244 . S
C1094 O1118 1.257 . S
O1095 C1094 1.244 . S
O1096 Zn1088 2.019 . S
O1096 C1116 1.257 . S
Zn1097 N1093 2.020 . S
Zn1097 O1104 1.975 . S
Zn1097 N1113 2.119 . S
Zn1097 O1118 2.019 . S
N1098 Zn1088 2.119 . S
N1098 C1100 1.334 . S
N1098 C1101 1.328 . S
C1099 C1100 1.391 . S
C1099 N1102 1.329 . S
C1099 H1120 0.930 . S
C1100 N1098 1.334 . S
C1100 C1099 1.391 . S
C1100 H1107 0.930 . S
C1101 N1098 1.328 . S
C1101 C1103 1.392 . S
C1101 H1108 0.930 . S
N1102 C1099 1.329 . S
N1102 C1103 1.331 . S
C1103 C1101 1.392 . S
C1103 N1102 1.331 . S
O1104 Zn1097 1.975 . S
O1104 C1105 1.252 . S
C1105 O1104 1.252 . S
C1105 O1106 1.252 . S
O1106 Zn1088 1.975 . S
O1106 C1105 1.252 . S
H1107 C1100 0.930 . S
H1108 C1101 0.930 . S
C1109 C1110 1.392 . S
C1109 N1113 1.328 . S
C1109 H1115 0.930 . S
C1110 C1109 1.392 . S
C1110 N1114 1.331 . S
C1111 C1112 1.391 . S
C1111 N1114 1.329 . S
C1111 H1121 0.930 . S
C1112 C1111 1.391 . S
C1112 N1113 1.334 . S
C1112 H1119 0.930 . S
N1113 Zn1097 2.119 . S
N1113 C1109 1.328 . S
N1113 C1112 1.334 . S
N1114 C1110 1.331 . S
N1114 C1111 1.329 . S
H1115 C1109 0.930 . S
C1116 O1096 1.257 . S
C1116 O1117 1.244 . S
O1117 C1116 1.244 . S
O1118 C1094 1.257 . S
O1118 Zn1097 2.019 . S
H1119 C1112 0.930 . S
H1120 C1099 0.930 . S
H1121 C1111 0.930 . S
Zn1122 N1126 2.020 . S
Zn1122 O1130 2.019 . S
Zn1122 N1132 2.119 . S
Zn1122 O1140 1.975 . S
C1123 N1124 1.334 . S
C1123 N1127 1.336 . S
N1124 C1123 1.334 . S
N1124 C1125 1.334 . S
C1125 N1124 1.334 . S
C1125 N1126 1.336 . S
N1126 Zn1122 2.020 . S
N1126 C1125 1.336 . S
N1126 N1127 1.354 . S
N1127 C1123 1.336 . S
N1127 N1126 1.354 . S
N1127 Zn1131 2.020 . S
C1128 O1129 1.246 . S
C1128 O1152 1.241 1_545 S
O1129 C1128 1.246 . S
O1130 Zn1122 2.019 . S
O1130 C1150 1.257 . S
Zn1131 N1127 2.020 . S
Zn1131 O1138 1.975 . S
Zn1131 N1147 2.119 . S
Zn1131 O1152 2.019 . S
N1132 Zn1122 2.119 . S
N1132 C1134 1.334 . S
N1132 C1135 1.328 . S
C1133 C1134 1.391 . S
C1133 N1136 1.329 . S
C1133 H1154 0.930 1_565 S
C1134 N1132 1.334 . S
C1134 C1133 1.391 . S
C1134 H1141 0.930 . S
C1135 N1132 1.328 . S
C1135 C1137 1.392 . S
C1135 H1142 0.930 . S
N1136 C1133 1.329 . S
N1136 C1137 1.331 . S
C1137 C1135 1.392 . S
C1137 N1136 1.331 . S
O1138 Zn1131 1.975 . S
O1138 C1139 1.252 . S
C1139 O1138 1.252 . S
C1139 O1140 1.252 . S
O1140 Zn1122 1.975 . S
O1140 C1139 1.252 . S
H1141 C1134 0.930 . S
H1142 C1135 0.930 . S
C1143 C1144 1.392 . S
C1143 N1147 1.328 . S
C1143 H1149 0.930 . S
C1144 C1143 1.392 . S
C1144 N1148 1.331 . S
C1145 C1146 1.391 . S
C1145 N1148 1.329 . S
C1145 H1155 0.930 . S
C1146 C1145 1.391 . S
C1146 N1147 1.334 . S
C1146 H1153 0.930 . S
N1147 Zn1131 2.119 . S
N1147 C1143 1.328 . S
N1147 C1146 1.334 . S
N1148 C1144 1.331 . S
N1148 C1145 1.329 . S
H1149 C1143 0.930 . S
C1150 O1130 1.257 . S
C1150 O1151 1.244 . S
O1151 C1150 1.244 . S
O1152 C1128 1.241 1_565 S
O1152 Zn1131 2.019 . S
H1153 C1146 0.930 . S
H1154 C1133 0.930 1_545 S
H1155 C1145 0.930 . S
Zn1156 N1160 2.020 . S
Zn1156 O1164 2.019 . S
Zn1156 N1166 2.119 . S
Zn1156 O1174 1.975 . S
C1157 N1158 1.334 . S
C1157 N1161 1.336 . S
N1158 C1157 1.334 . S
N1158 C1159 1.334 . S
C1159 N1158 1.334 . S
C1159 N1160 1.336 . S
N1160 Zn1156 2.020 . S
N1160 C1159 1.336 . S
N1160 N1161 1.354 . S
N1161 C1157 1.336 . S
N1161 N1160 1.354 . S
N1161 Zn1165 2.020 . S
C1162 O1163 1.244 . S
C1162 O1186 1.257 . S
O1163 C1162 1.244 . S
O1164 Zn1156 2.019 . S
O1164 C1184 1.257 . S
Zn1165 N1161 2.020 . S
Zn1165 O1172 1.975 . S
Zn1165 N1181 2.119 . S
Zn1165 O1186 2.019 . S
N1166 Zn1156 2.119 . S
N1166 C1168 1.334 . S
N1166 C1169 1.328 . S
C1167 C1168 1.391 . S
C1167 N1170 1.329 . S
C1167 H1188 0.930 . S
C1168 N1166 1.334 . S
C1168 C1167 1.391 . S
C1168 H1175 0.930 . S
C1169 N1166 1.328 . S
C1169 C1171 1.392 . S
C1169 H1176 0.930 . S
N1170 C1167 1.329 . S
N1170 C1171 1.331 . S
C1171 C1169 1.392 . S
C1171 N1170 1.331 . S
O1172 Zn1165 1.975 . S
O1172 C1173 1.252 . S
C1173 O1172 1.252 . S
C1173 O1174 1.252 . S
O1174 Zn1156 1.975 . S
O1174 C1173 1.252 . S
H1175 C1168 0.930 . S
H1176 C1169 0.930 . S
C1177 C1178 1.392 . S
C1177 N1181 1.328 . S
C1177 H1183 0.930 . S
C1178 C1177 1.392 . S
C1178 N1182 1.331 . S
C1179 C1180 1.391 . S
C1179 N1182 1.329 . S
C1179 H1189 0.930 . S
C1180 C1179 1.391 . S
C1180 N1181 1.334 . S
C1180 H1187 0.930 . S
N1181 Zn1165 2.119 . S
N1181 C1177 1.328 . S
N1181 C1180 1.334 . S
N1182 C1178 1.331 . S
N1182 C1179 1.329 . S
H1183 C1177 0.930 . S
C1184 O1164 1.257 . S
C1184 O1185 1.244 . S
O1185 C1184 1.244 . S
O1186 C1162 1.257 . S
O1186 Zn1165 2.019 . S
H1187 C1180 0.930 . S
H1188 C1167 0.930 . S
H1189 C1179 0.930 . S
Zn1190 N1194 2.020 . S
Zn1190 O1198 2.019 . S
Zn1190 N1200 2.119 . S
Zn1190 O1208 1.975 . S
C1191 N1192 1.334 . S
C1191 N1195 1.336 . S
N1192 C1191 1.334 . S
N1192 C1193 1.334 . S
C1193 N1192 1.334 . S
C1193 N1194 1.336 . S
N1194 Zn1190 2.020 . S
N1194 C1193 1.336 . S
N1194 N1195 1.354 . S
N1195 C1191 1.336 . S
N1195 N1194 1.354 . S
N1195 Zn1199 2.020 . S
C1196 O1197 1.244 . S
C1196 O1220 1.257 . S
O1197 C1196 1.244 . S
O1198 Zn1190 2.019 . S
O1198 C1218 1.257 . S
Zn1199 N1195 2.020 . S
Zn1199 O1206 1.975 . S
Zn1199 N1215 2.119 . S
Zn1199 O1220 2.019 . S
N1200 Zn1190 2.119 . S
N1200 C1202 1.334 . S
N1200 C1203 1.328 . S
C1201 C1202 1.391 . S
C1201 N1204 1.329 . S
C1201 H1222 0.930 . S
C1202 N1200 1.334 . S
C1202 C1201 1.391 . S
C1202 H1209 0.930 . S
C1203 N1200 1.328 . S
C1203 C1205 1.392 . S
C1203 H1210 0.930 . S
N1204 C1201 1.329 . S
N1204 C1205 1.331 . S
C1205 C1203 1.392 . S
C1205 N1204 1.331 . S
O1206 Zn1199 1.975 . S
O1206 C1207 1.252 . S
C1207 O1206 1.252 . S
C1207 O1208 1.252 . S
O1208 Zn1190 1.975 . S
O1208 C1207 1.252 . S
H1209 C1202 0.930 . S
H1210 C1203 0.930 . S
C1211 C1212 1.392 . S
C1211 N1215 1.328 . S
C1211 H1217 0.930 . S
C1212 C1211 1.392 . S
C1212 N1216 1.331 . S
C1213 C1214 1.391 . S
C1213 N1216 1.329 . S
C1213 H1223 0.930 . S
C1214 C1213 1.391 . S
C1214 N1215 1.334 . S
C1214 H1221 0.930 . S
N1215 Zn1199 2.119 . S
N1215 C1211 1.328 . S
N1215 C1214 1.334 . S
N1216 C1212 1.331 . S
N1216 C1213 1.329 . S
H1217 C1211 0.930 . S
C1218 O1198 1.257 . S
C1218 O1219 1.244 . S
O1219 C1218 1.244 . S
O1220 C1196 1.257 . S
O1220 Zn1199 2.019 . S
H1221 C1214 0.930 . S
H1222 C1201 0.930 . S
H1223 C1213 0.930 . S
Zn1224 N1228 2.020 . S
Zn1224 O1232 2.019 . S
Zn1224 N1234 2.119 . S
Zn1224 O1242 1.975 . S
C1225 N1226 1.334 . S
C1225 N1229 1.336 . S
N1226 C1225 1.334 . S
N1226 C1227 1.334 . S
C1227 N1226 1.334 . S
C1227 N1228 1.336 . S
N1228 Zn1224 2.020 . S
N1228 C1227 1.336 . S
N1228 N1229 1.354 . S
N1229 C1225 1.336 . S
N1229 N1228 1.354 . S
N1229 Zn1233 2.020 . S
C1230 O1231 1.244 . S
C1230 O1254 1.257 . S
O1231 C1230 1.244 . S
O1232 Zn1224 2.019 . S
O1232 C1252 1.257 . S
Zn1233 N1229 2.020 . S
Zn1233 O1240 1.975 . S
Zn1233 N1249 2.119 . S
Zn1233 O1254 2.019 . S
N1234 Zn1224 2.119 . S
N1234 C1236 1.334 . S
N1234 C1237 1.328 . S
C1235 C1236 1.391 . S
C1235 N1238 1.329 . S
C1235 H1256 0.930 . S
C1236 N1234 1.334 . S
C1236 C1235 1.391 . S
C1236 H1243 0.930 . S
C1237 N1234 1.328 . S
C1237 C1239 1.392 . S
C1237 H1244 0.930 . S
N1238 C1235 1.329 . S
N1238 C1239 1.331 . S
C1239 C1237 1.392 . S
C1239 N1238 1.331 . S
O1240 Zn1233 1.975 . S
O1240 C1241 1.252 . S
C1241 O1240 1.252 . S
C1241 O1242 1.252 . S
O1242 Zn1224 1.975 . S
O1242 C1241 1.252 . S
H1243 C1236 0.930 . S
H1244 C1237 0.930 . S
C1245 C1246 1.392 . S
C1245 N1249 1.328 . S
C1245 H1251 0.930 . S
C1246 C1245 1.392 . S
C1246 N1250 1.331 . S
C1247 C1248 1.391 . S
C1247 N1250 1.329 . S
C1247 H1257 0.930 . S
C1248 C1247 1.391 . S
C1248 N1249 1.334 . S
C1248 H1255 0.930 . S
N1249 Zn1233 2.119 . S
N1249 C1245 1.328 . S
N1249 C1248 1.334 . S
N1250 C1246 1.331 . S
N1250 C1247 1.329 . S
H1251 C1245 0.930 . S
C1252 O1232 1.257 . S
C1252 O1253 1.244 . S
O1253 C1252 1.244 . S
O1254 C1230 1.257 . S
O1254 Zn1233 2.019 . S
H1255 C1248 0.930 . S
H1256 C1235 0.930 . S
H1257 C1247 0.930 . S
Zn1258 N1262 2.020 . S
Zn1258 O1266 2.019 . S
Zn1258 N1268 2.119 . S
Zn1258 O1276 1.975 . S
C1259 N1260 1.334 . S
C1259 N1263 1.336 . S
N1260 C1259 1.334 . S
N1260 C1261 1.334 . S
C1261 N1260 1.334 . S
C1261 N1262 1.336 . S
N1262 Zn1258 2.020 . S
N1262 C1261 1.336 . S
N1262 N1263 1.354 . S
N1263 C1259 1.336 . S
N1263 N1262 1.354 . S
N1263 Zn1267 2.020 . S
C1264 O1265 1.244 . S
C1264 O1288 1.257 . S
O1265 C1264 1.244 . S
O1266 Zn1258 2.019 . S
O1266 C1286 1.241 1_565 S
Zn1267 N1263 2.020 . S
Zn1267 O1274 1.975 . S
Zn1267 N1283 2.119 . S
Zn1267 O1288 2.019 . S
N1268 Zn1258 2.119 . S
N1268 C1270 1.334 . S
N1268 C1271 1.328 . S
C1269 C1270 1.391 . S
C1269 N1272 1.329 . S
C1269 H1290 0.930 . S
C1270 N1268 1.334 . S
C1270 C1269 1.391 . S
C1270 H1277 0.930 . S
C1271 N1268 1.328 . S
C1271 C1273 1.392 . S
C1271 H1278 0.930 . S
N1272 C1269 1.329 . S
N1272 C1273 1.331 . S
C1273 C1271 1.392 . S
C1273 N1272 1.331 . S
O1274 Zn1267 1.975 . S
O1274 C1275 1.252 . S
C1275 O1274 1.252 . S
C1275 O1276 1.252 . S
O1276 Zn1258 1.975 . S
O1276 C1275 1.252 . S
H1277 C1270 0.930 . S
H1278 C1271 0.930 . S
C1279 C1280 1.392 . S
C1279 N1283 1.328 . S
C1279 H1285 0.930 . S
C1280 C1279 1.392 . S
C1280 N1284 1.331 . S
C1281 C1282 1.391 . S
C1281 N1284 1.329 . S
C1281 H1291 0.930 1_565 S
C1282 C1281 1.391 . S
C1282 N1283 1.334 . S
C1282 H1289 0.930 . S
N1283 Zn1267 2.119 . S
N1283 C1279 1.328 . S
N1283 C1282 1.334 . S
N1284 C1280 1.331 . S
N1284 C1281 1.329 . S
H1285 C1279 0.930 . S
C1286 O1266 1.241 1_545 S
C1286 O1287 1.246 . S
O1287 C1286 1.246 . S
O1288 C1264 1.257 . S
O1288 Zn1267 2.019 . S
H1289 C1282 0.930 . S
H1290 C1269 0.930 . S
H1291 C1281 0.930 1_545 S
Zn1292 N1296 2.020 . S
Zn1292 O1300 2.019 . S
Zn1292 N1302 2.119 . S
Zn1292 O1310 1.975 . S
C1293 N1294 1.334 . S
C1293 N1297 1.336 . S
N1294 C1293 1.334 . S
N1294 C1295 1.334 . S
C1295 N1294 1.334 . S
C1295 N1296 1.336 . S
N1296 Zn1292 2.020 . S
N1296 C1295 1.336 . S
N1296 N1297 1.354 . S
N1297 C1293 1.336 . S
N1297 N1296 1.354 . S
N1297 Zn1301 2.020 . S
C1298 O1299 1.244 . S
C1298 O1322 1.257 . S
O1299 C1298 1.244 . S
O1300 Zn1292 2.019 . S
O1300 C1320 1.257 . S
Zn1301 N1297 2.020 . S
Zn1301 O1308 1.975 . S
Zn1301 N1317 2.119 . S
Zn1301 O1322 2.019 . S
N1302 Zn1292 2.119 . S
N1302 C1304 1.334 . S
N1302 C1305 1.328 . S
C1303 C1304 1.391 . S
C1303 N1306 1.329 . S
C1303 H1324 0.930 . S
C1304 N1302 1.334 . S
C1304 C1303 1.391 . S
C1304 H1311 0.930 . S
C1305 N1302 1.328 . S
C1305 C1307 1.392 . S
C1305 H1312 0.930 . S
N1306 C1303 1.329 . S
N1306 C1307 1.331 . S
C1307 C1305 1.392 . S
C1307 N1306 1.331 . S
O1308 Zn1301 1.975 . S
O1308 C1309 1.252 . S
C1309 O1308 1.252 . S
C1309 O1310 1.252 . S
O1310 Zn1292 1.975 . S
O1310 C1309 1.252 . S
H1311 C1304 0.930 . S
H1312 C1305 0.930 . S
C1313 C1314 1.392 . S
C1313 N1317 1.328 . S
C1313 H1319 0.930 . S
C1314 C1313 1.392 . S
C1314 N1318 1.331 . S
C1315 C1316 1.391 . S
C1315 N1318 1.329 . S
C1315 H1325 0.930 . S
C1316 C1315 1.391 . S
C1316 N1317 1.334 . S
C1316 H1323 0.930 . S
N1317 Zn1301 2.119 . S
N1317 C1313 1.328 . S
N1317 C1316 1.334 . S
N1318 C1314 1.331 . S
N1318 C1315 1.329 . S
H1319 C1313 0.930 . S
C1320 O1300 1.257 . S
C1320 O1321 1.244 . S
O1321 C1320 1.244 . S
O1322 C1298 1.257 . S
O1322 Zn1301 2.019 . S
H1323 C1316 0.930 . S
H1324 C1303 0.930 . S
H1325 C1315 0.930 . S
Zn1326 N1330 2.020 . S
Zn1326 O1334 2.019 . S
Zn1326 N1336 2.119 . S
Zn1326 O1344 1.975 . S
C1327 N1328 1.334 . S
C1327 N1331 1.336 . S
N1328 C1327 1.334 . S
N1328 C1329 1.334 . S
C1329 N1328 1.334 . S
C1329 N1330 1.336 . S
N1330 Zn1326 2.020 . S
N1330 C1329 1.336 . S
N1330 N1331 1.354 . S
N1331 C1327 1.336 . S
N1331 N1330 1.354 . S
N1331 Zn1335 2.020 . S
C1332 O1333 1.244 . S
C1332 O1356 1.257 . S
O1333 C1332 1.244 . S
O1334 Zn1326 2.019 . S
O1334 C1354 1.257 . S
Zn1335 N1331 2.020 . S
Zn1335 O1342 1.975 . S
Zn1335 N1351 2.119 . S
Zn1335 O1356 2.019 . S
N1336 Zn1326 2.119 . S
N1336 C1338 1.334 . S
N1336 C1339 1.328 . S
C1337 C1338 1.391 . S
C1337 N1340 1.329 . S
C1337 H1358 0.930 . S
C1338 N1336 1.334 . S
C1338 C1337 1.391 . S
C1338 H1345 0.930 . S
C1339 N1336 1.328 . S
C1339 C1341 1.392 . S
C1339 H1346 0.930 . S
N1340 C1337 1.329 . S
N1340 C1341 1.331 . S
C1341 C1339 1.392 . S
C1341 N1340 1.331 . S
O1342 Zn1335 1.975 . S
O1342 C1343 1.252 . S
C1343 O1342 1.252 . S
C1343 O1344 1.252 . S
O1344 Zn1326 1.975 . S
O1344 C1343 1.252 . S
H1345 C1338 0.930 . S
H1346 C1339 0.930 . S
C1347 C1348 1.392 . S
C1347 N1351 1.328 . S
C1347 H1353 0.930 . S
C1348 C1347 1.392 . S
C1348 N1352 1.331 . S
C1349 C1350 1.391 . S
C1349 N1352 1.329 . S
C1349 H1359 0.930 . S
C1350 C1349 1.391 . S
C1350 N1351 1.334 . S
C1350 H1357 0.930 . S
N1351 Zn1335 2.119 . S
N1351 C1347 1.328 . S
N1351 C1350 1.334 . S
N1352 C1348 1.331 . S
N1352 C1349 1.329 . S
H1353 C1347 0.930 . S
C1354 O1334 1.257 . S
C1354 O1355 1.244 . S
O1355 C1354 1.244 . S
O1356 C1332 1.257 . S
O1356 Zn1335 2.019 . S
H1357 C1350 0.930 . S
H1358 C1337 0.930 . S
H1359 C1349 0.930 . S
Zn1360 N1364 2.020 . S
Zn1360 O1368 2.019 . S
Zn1360 N1370 2.119 . S
Zn1360 O1378 1.975 . S
C1361 N1362 1.334 . S
C1361 N1365 1.336 . S
N1362 C1361 1.334 . S
N1362 C1363 1.334 . S
C1363 N1362 1.334 . S
C1363 N1364 1.336 . S
N1364 Zn1360 2.020 . S
N1364 C1363 1.336 . S
N1364 N1365 1.354 . S
N1365 C1361 1.336 . S
N1365 N1364 1.354 . S
N1365 Zn1369 2.020 . S
C1366 O1367 1.244 . S
C1366 O1390 1.257 . S
O1367 C1366 1.244 . S
O1368 Zn1360 2.019 . S
O1368 C1388 1.257 . S
Zn1369 N1365 2.020 . S
Zn1369 O1376 1.975 . S
Zn1369 N1385 2.119 . S
Zn1369 O1390 2.019 . S
N1370 Zn1360 2.119 . S
N1370 C1372 1.334 . S
N1370 C1373 1.328 . S
C1371 C1372 1.391 . S
C1371 N1374 1.329 . S
C1371 H1392 0.930 . S
C1372 N1370 1.334 . S
C1372 C1371 1.391 . S
C1372 H1379 0.930 . S
C1373 N1370 1.328 . S
C1373 C1375 1.392 . S
C1373 H1380 0.930 . S
N1374 C1371 1.329 . S
N1374 C1375 1.331 . S
C1375 C1373 1.392 . S
C1375 N1374 1.331 . S
O1376 Zn1369 1.975 . S
O1376 C1377 1.252 . S
C1377 O1376 1.252 . S
C1377 O1378 1.252 . S
O1378 Zn1360 1.975 . S
O1378 C1377 1.252 . S
H1379 C1372 0.930 . S
H1380 C1373 0.930 . S
C1381 C1382 1.392 . S
C1381 N1385 1.328 . S
C1381 H1387 0.930 . S
C1382 C1381 1.392 . S
C1382 N1386 1.331 . S
C1383 C1384 1.391 . S
C1383 N1386 1.329 . S
C1383 H1393 0.930 . S
C1384 C1383 1.391 . S
C1384 N1385 1.334 . S
C1384 H1391 0.930 . S
N1385 Zn1369 2.119 . S
N1385 C1381 1.328 . S
N1385 C1384 1.334 . S
N1386 C1382 1.331 . S
N1386 C1383 1.329 . S
H1387 C1381 0.930 . S
C1388 O1368 1.257 . S
C1388 O1389 1.244 . S
O1389 C1388 1.244 . S
O1390 C1366 1.257 . S
O1390 Zn1369 2.019 . S
H1391 C1384 0.930 . S
H1392 C1371 0.930 . S
H1393 C1383 0.930 . S
Zn1394 N1398 2.020 . S
Zn1394 O1402 2.019 . S
Zn1394 N1404 2.119 . S
Zn1394 O1412 1.975 . S
C1395 N1396 1.334 . S
C1395 N1399 1.336 . S
N1396 C1395 1.334 . S
N1396 C1397 1.334 . S
C1397 N1396 1.334 . S
C1397 N1398 1.336 . S
N1398 Zn1394 2.020 . S
N1398 C1397 1.336 . S
N1398 N1399 1.354 . S
N1399 C1395 1.336 . S
N1399 N1398 1.354 . S
N1399 Zn1403 2.020 . S
C1400 O1401 1.244 . S
C1400 O1424 1.257 . S
O1401 C1400 1.244 . S
O1402 Zn1394 2.019 . S
O1402 C1422 1.257 . S
Zn1403 N1399 2.020 . S
Zn1403 O1410 1.975 . S
Zn1403 N1419 2.119 . S
Zn1403 O1424 2.019 . S
N1404 Zn1394 2.119 . S
N1404 C1406 1.334 . S
N1404 C1407 1.328 . S
C1405 C1406 1.391 . S
C1405 N1408 1.329 . S
C1405 H1426 0.930 . S
C1406 N1404 1.334 . S
C1406 C1405 1.391 . S
C1406 H1413 0.930 . S
C1407 N1404 1.328 . S
C1407 C1409 1.392 . S
C1407 H1414 0.930 . S
N1408 C1405 1.329 . S
N1408 C1409 1.331 . S
C1409 C1407 1.392 . S
C1409 N1408 1.331 . S
O1410 Zn1403 1.975 . S
O1410 C1411 1.252 . S
C1411 O1410 1.252 . S
C1411 O1412 1.252 . S
O1412 Zn1394 1.975 . S
O1412 C1411 1.252 . S
H1413 C1406 0.930 . S
H1414 C1407 0.930 . S
C1415 C1416 1.392 . S
C1415 N1419 1.328 . S
C1415 H1421 0.930 . S
C1416 C1415 1.392 . S
C1416 N1420 1.331 . S
C1417 C1418 1.391 . S
C1417 N1420 1.329 . S
C1417 H1427 0.930 . S
C1418 C1417 1.391 . S
C1418 N1419 1.334 . S
C1418 H1425 0.930 . S
N1419 Zn1403 2.119 . S
N1419 C1415 1.328 . S
N1419 C1418 1.334 . S
N1420 C1416 1.331 . S
N1420 C1417 1.329 . S
H1421 C1415 0.930 . S
C1422 O1402 1.257 . S
C1422 O1423 1.244 . S
O1423 C1422 1.244 . S
O1424 C1400 1.257 . S
O1424 Zn1403 2.019 . S
H1425 C1418 0.930 . S
H1426 C1405 0.930 . S
H1427 C1417 0.930 . S
Zn1428 N1432 2.020 . S
Zn1428 O1436 2.019 . S
Zn1428 N1438 2.119 . S
Zn1428 O1446 1.975 . S
C1429 N1430 1.334 . S
C1429 N1433 1.336 . S
N1430 C1429 1.334 . S
N1430 C1431 1.334 . S
C1431 N1430 1.334 . S
C1431 N1432 1.336 . S
N1432 Zn1428 2.020 . S
N1432 C1431 1.336 . S
N1432 N1433 1.354 . S
N1433 C1429 1.336 . S
N1433 N1432 1.354 . S
N1433 Zn1437 2.020 . S
C1434 O1435 1.244 . S
C1434 O1458 1.257 . S
O1435 C1434 1.244 . S
O1436 Zn1428 2.019 . S
O1436 C1456 1.257 . S
Zn1437 N1433 2.020 . S
Zn1437 O1444 1.975 . S
Zn1437 N1453 2.119 . S
Zn1437 O1458 2.019 . S
N1438 Zn1428 2.119 . S
N1438 C1440 1.334 . S
N1438 C1441 1.328 . S
C1439 C1440 1.391 . S
C1439 N1442 1.329 . S
C1439 H1460 0.930 . S
C1440 N1438 1.334 . S
C1440 C1439 1.391 . S
C1440 H1447 0.930 . S
C1441 N1438 1.328 . S
C1441 C1443 1.392 . S
C1441 H1448 0.930 . S
N1442 C1439 1.329 . S
N1442 C1443 1.331 . S
C1443 C1441 1.392 . S
C1443 N1442 1.331 . S
O1444 Zn1437 1.975 . S
O1444 C1445 1.252 . S
C1445 O1444 1.252 . S
C1445 O1446 1.252 . S
O1446 Zn1428 1.975 . S
O1446 C1445 1.252 . S
H1447 C1440 0.930 . S
H1448 C1441 0.930 . S
C1449 C1450 1.392 . S
C1449 N1453 1.328 1_545 S
C1449 H1455 0.930 . S
C1450 C1449 1.392 . S
C1450 N1454 1.331 . S
C1451 C1452 1.391 . S
C1451 N1454 1.329 1_565 S
C1451 H1461 0.930 . S
C1452 C1451 1.391 . S
C1452 N1453 1.334 . S
C1452 H1459 0.930 . S
N1453 Zn1437 2.119 . S
N1453 C1449 1.328 1_565 S
N1453 C1452 1.334 . S
N1454 C1450 1.331 . S
N1454 C1451 1.329 1_545 S
H1455 C1449 0.930 . S
C1456 O1436 1.257 . S
C1456 O1457 1.244 . S
O1457 C1456 1.244 . S
O1458 C1434 1.257 . S
O1458 Zn1437 2.019 . S
H1459 C1452 0.930 . S
H1460 C1439 0.930 . S
H1461 C1451 0.930 . S
Zn1462 N1466 2.020 . S
Zn1462 O1470 2.019 . S
Zn1462 N1472 2.119 . S
Zn1462 O1480 1.975 . S
C1463 N1464 1.334 . S
C1463 N1467 1.336 . S
N1464 C1463 1.334 . S
N1464 C1465 1.334 . S
C1465 N1464 1.334 . S
C1465 N1466 1.336 . S
N1466 Zn1462 2.020 . S
N1466 C1465 1.336 . S
N1466 N1467 1.354 . S
N1467 C1463 1.336 . S
N1467 N1466 1.354 . S
N1467 Zn1471 2.020 . S
C1468 O1469 1.244 . S
C1468 O1492 1.257 . S
O1469 C1468 1.244 . S
O1470 Zn1462 2.019 . S
O1470 C1490 1.257 . S
Zn1471 N1467 2.020 . S
Zn1471 O1478 1.975 . S
Zn1471 N1487 2.119 . S
Zn1471 O1492 2.019 . S
N1472 Zn1462 2.119 . S
N1472 C1474 1.334 . S
N1472 C1475 1.328 . S
C1473 C1474 1.391 . S
C1473 N1476 1.329 . S
C1473 H1494 0.930 . S
C1474 N1472 1.334 . S
C1474 C1473 1.391 . S
C1474 H1481 0.930 . S
C1475 N1472 1.328 . S
C1475 C1477 1.392 . S
C1475 H1482 0.930 . S
N1476 C1473 1.329 . S
N1476 C1477 1.331 . S
C1477 C1475 1.392 . S
C1477 N1476 1.331 . S
O1478 Zn1471 1.975 . S
O1478 C1479 1.252 . S
C1479 O1478 1.252 . S
C1479 O1480 1.252 . S
O1480 Zn1462 1.975 . S
O1480 C1479 1.252 . S
H1481 C1474 0.930 . S
H1482 C1475 0.930 . S
C1483 C1484 1.392 . S
C1483 N1487 1.328 . S
C1483 H1489 0.930 . S
C1484 C1483 1.392 . S
C1484 N1488 1.331 . S
C1485 C1486 1.391 . S
C1485 N1488 1.329 . S
C1485 H1495 0.930 . S
C1486 C1485 1.391 . S
C1486 N1487 1.334 . S
C1486 H1493 0.930 . S
N1487 Zn1471 2.119 . S
N1487 C1483 1.328 . S
N1487 C1486 1.334 . S
N1488 C1484 1.331 . S
N1488 C1485 1.329 . S
H1489 C1483 0.930 . S
C1490 O1470 1.257 . S
C1490 O1491 1.244 . S
O1491 C1490 1.244 . S
O1492 C1468 1.257 . S
O1492 Zn1471 2.019 . S
H1493 C1486 0.930 . S
H1494 C1473 0.930 . S
H1495 C1485 0.930 . S
Zn1496 N1500 2.020 . S
Zn1496 O1504 2.019 . S
Zn1496 N1506 2.119 . S
Zn1496 O1514 1.975 . S
C1497 N1498 1.334 . S
C1497 N1501 1.336 . S
N1498 C1497 1.334 . S
N1498 C1499 1.334 . S
C1499 N1498 1.334 . S
C1499 N1500 1.336 . S
N1500 Zn1496 2.020 . S
N1500 C1499 1.336 . S
N1500 N1501 1.354 . S
N1501 C1497 1.336 . S
N1501 N1500 1.354 . S
N1501 Zn1505 2.020 . S
C1502 O1503 1.244 . S
C1502 O1526 1.257 . S
O1503 C1502 1.244 . S
O1504 Zn1496 2.019 . S
O1504 C1524 1.241 1_455 S
Zn1505 N1501 2.020 . S
Zn1505 O1512 1.975 . S
Zn1505 N1521 2.119 . S
Zn1505 O1526 2.019 . S
N1506 Zn1496 2.119 . S
N1506 C1508 1.334 . S
N1506 C1509 1.328 . S
C1507 C1508 1.391 . S
C1507 N1510 1.329 . S
C1507 H1528 0.930 . S
C1508 N1506 1.334 . S
C1508 C1507 1.391 . S
C1508 H1515 0.930 . S
C1509 N1506 1.328 . S
C1509 C1511 1.392 . S
C1509 H1516 0.930 . S
N1510 C1507 1.329 . S
N1510 C1511 1.331 . S
C1511 C1509 1.392 . S
C1511 N1510 1.331 . S
O1512 Zn1505 1.975 . S
O1512 C1513 1.252 . S
C1513 O1512 1.252 . S
C1513 O1514 1.252 . S
O1514 Zn1496 1.975 . S
O1514 C1513 1.252 . S
H1515 C1508 0.930 . S
H1516 C1509 0.930 . S
C1517 C1518 1.392 . S
C1517 N1521 1.328 1_565 S
C1517 H1523 0.930 . S
C1518 C1517 1.392 . S
C1518 N1522 1.331 . S
C1519 C1520 1.391 . S
C1519 N1522 1.329 1_545 S
C1519 H1529 0.930 1_455 S
C1520 C1519 1.391 . S
C1520 N1521 1.334 . S
C1520 H1527 0.930 . S
N1521 Zn1505 2.119 . S
N1521 C1517 1.328 1_545 S
N1521 C1520 1.334 . S
N1522 C1518 1.331 . S
N1522 C1519 1.329 1_565 S
H1523 C1517 0.930 . S
C1524 O1504 1.241 1_655 S
C1524 O1525 1.246 . S
O1525 C1524 1.246 . S
O1526 C1502 1.257 . S
O1526 Zn1505 2.019 . S
H1527 C1520 0.930 . S
H1528 C1507 0.930 . S
H1529 C1519 0.930 1_655 S
Zn1530 N1534 2.020 . S
Zn1530 O1538 2.019 . S
Zn1530 N1540 2.119 . S
Zn1530 O1548 1.975 . S
C1531 N1532 1.334 . S
C1531 N1535 1.336 . S
N1532 C1531 1.334 . S
N1532 C1533 1.334 . S
C1533 N1532 1.334 . S
C1533 N1534 1.336 . S
N1534 Zn1530 2.020 . S
N1534 C1533 1.336 . S
N1534 N1535 1.354 . S
N1535 C1531 1.336 . S
N1535 N1534 1.354 . S
N1535 Zn1539 2.020 . S
C1536 O1537 1.244 . S
C1536 O1560 1.257 . S
O1537 C1536 1.244 . S
O1538 Zn1530 2.019 . S
O1538 C1558 1.257 . S
Zn1539 N1535 2.020 . S
Zn1539 O1546 1.975 . S
Zn1539 N1555 2.119 . S
Zn1539 O1560 2.019 . S
N1540 Zn1530 2.119 . S
N1540 C1542 1.334 . S
N1540 C1543 1.328 . S
C1541 C1542 1.391 . S
C1541 N1544 1.329 . S
C1541 H1562 0.930 . S
C1542 N1540 1.334 . S
C1542 C1541 1.391 . S
C1542 H1549 0.930 . S
C1543 N1540 1.328 . S
C1543 C1545 1.392 . S
C1543 H1550 0.930 . S
N1544 C1541 1.329 . S
N1544 C1545 1.331 . S
C1545 C1543 1.392 . S
C1545 N1544 1.331 . S
O1546 Zn1539 1.975 . S
O1546 C1547 1.252 . S
C1547 O1546 1.252 . S
C1547 O1548 1.252 . S
O1548 Zn1530 1.975 . S
O1548 C1547 1.252 . S
H1549 C1542 0.930 . S
H1550 C1543 0.930 . S
C1551 C1552 1.392 . S
C1551 N1555 1.328 . S
C1551 H1557 0.930 . S
C1552 C1551 1.392 . S
C1552 N1556 1.331 . S
C1553 C1554 1.391 . S
C1553 N1556 1.329 . S
C1553 H1563 0.930 . S
C1554 C1553 1.391 . S
C1554 N1555 1.334 . S
C1554 H1561 0.930 . S
N1555 Zn1539 2.119 . S
N1555 C1551 1.328 . S
N1555 C1554 1.334 . S
N1556 C1552 1.331 . S
N1556 C1553 1.329 . S
H1557 C1551 0.930 . S
C1558 O1538 1.257 . S
C1558 O1559 1.244 . S
O1559 C1558 1.244 . S
O1560 C1536 1.257 . S
O1560 Zn1539 2.019 . S
H1561 C1554 0.930 . S
H1562 C1541 0.930 . S
H1563 C1553 0.930 . S
Zn1564 N1568 2.020 . S
Zn1564 O1572 2.019 . S
Zn1564 N1574 2.119 . S
Zn1564 O1582 1.975 . S
C1565 N1566 1.334 . S
C1565 N1569 1.336 . S
N1566 C1565 1.334 . S
N1566 C1567 1.334 . S
C1567 N1566 1.334 . S
C1567 N1568 1.336 . S
N1568 Zn1564 2.020 . S
N1568 C1567 1.336 . S
N1568 N1569 1.354 . S
N1569 C1565 1.336 . S
N1569 N1568 1.354 . S
N1569 Zn1573 2.020 . S
C1570 O1571 1.244 . S
C1570 O1594 1.257 . S
O1571 C1570 1.244 . S
O1572 Zn1564 2.019 . S
O1572 C1592 1.257 . S
Zn1573 N1569 2.020 . S
Zn1573 O1580 1.975 . S
Zn1573 N1589 2.119 . S
Zn1573 O1594 2.019 . S
N1574 Zn1564 2.119 . S
N1574 C1576 1.334 . S
N1574 C1577 1.328 1_545 S
C1575 C1576 1.391 . S
C1575 N1578 1.329 1_545 S
C1575 H1596 0.930 . S
C1576 N1574 1.334 . S
C1576 C1575 1.391 . S
C1576 H1583 0.930 . S
C1577 N1574 1.328 1_565 S
C1577 C1579 1.392 . S
C1577 H1584 0.930 . S
N1578 C1575 1.329 1_565 S
N1578 C1579 1.331 . S
C1579 C1577 1.392 . S
C1579 N1578 1.331 . S
O1580 Zn1573 1.975 . S
O1580 C1581 1.252 . S
C1581 O1580 1.252 . S
C1581 O1582 1.252 . S
O1582 Zn1564 1.975 . S
O1582 C1581 1.252 . S
H1583 C1576 0.930 . S
H1584 C1577 0.930 . S
C1585 C1586 1.392 . S
C1585 N1589 1.328 . S
C1585 H1591 0.930 . S
C1586 C1585 1.392 . S
C1586 N1590 1.331 . S
C1587 C1588 1.391 . S
C1587 N1590 1.329 . S
C1587 H1597 0.930 . S
C1588 C1587 1.391 . S
C1588 N1589 1.334 . S
C1588 H1595 0.930 . S
N1589 Zn1573 2.119 . S
N1589 C1585 1.328 . S
N1589 C1588 1.334 . S
N1590 C1586 1.331 . S
N1590 C1587 1.329 . S
H1591 C1585 0.930 . S
C1592 O1572 1.257 . S
C1592 O1593 1.244 . S
O1593 C1592 1.244 . S
O1594 C1570 1.257 . S
O1594 Zn1573 2.019 . S
H1595 C1588 0.930 . S
H1596 C1575 0.930 . S
H1597 C1587 0.930 . S
Zn1598 N1602 2.020 . S
Zn1598 O1606 2.019 . S
Zn1598 N1608 2.119 . S
Zn1598 O1616 1.975 . S
C1599 N1600 1.334 . S
C1599 N1603 1.336 . S
N1600 C1599 1.334 . S
N1600 C1601 1.334 . S
C1601 N1600 1.334 . S
C1601 N1602 1.336 . S
N1602 Zn1598 2.020 . S
N1602 C1601 1.336 . S
N1602 N1603 1.354 . S
N1603 C1599 1.336 . S
N1603 N1602 1.354 . S
N1603 Zn1607 2.020 . S
C1604 O1605 1.244 . S
C1604 O1628 1.257 . S
O1605 C1604 1.244 . S
O1606 Zn1598 2.019 . S
O1606 C1626 1.257 . S
Zn1607 N1603 2.020 . S
Zn1607 O1614 1.975 . S
Zn1607 N1623 2.119 . S
Zn1607 O1628 2.019 . S
N1608 Zn1598 2.119 . S
N1608 C1610 1.334 . S
N1608 C1611 1.328 . S
C1609 C1610 1.391 . S
C1609 N1612 1.329 . S
C1609 H1630 0.930 . S
C1610 N1608 1.334 . S
C1610 C1609 1.391 . S
C1610 H1617 0.930 . S
C1611 N1608 1.328 . S
C1611 C1613 1.392 . S
C1611 H1618 0.930 . S
N1612 C1609 1.329 . S
N1612 C1613 1.331 . S
C1613 C1611 1.392 . S
C1613 N1612 1.331 . S
O1614 Zn1607 1.975 . S
O1614 C1615 1.252 . S
C1615 O1614 1.252 . S
C1615 O1616 1.252 . S
O1616 Zn1598 1.975 . S
O1616 C1615 1.252 . S
H1617 C1610 0.930 . S
H1618 C1611 0.930 . S
C1619 C1620 1.392 . S
C1619 N1623 1.328 . S
C1619 H1625 0.930 . S
C1620 C1619 1.392 . S
C1620 N1624 1.331 . S
C1621 C1622 1.391 . S
C1621 N1624 1.329 . S
C1621 H1631 0.930 . S
C1622 C1621 1.391 . S
C1622 N1623 1.334 . S
C1622 H1629 0.930 . S
N1623 Zn1607 2.119 . S
N1623 C1619 1.328 . S
N1623 C1622 1.334 . S
N1624 C1620 1.331 . S
N1624 C1621 1.329 . S
H1625 C1619 0.930 . S
C1626 O1606 1.257 . S
C1626 O1627 1.244 . S
O1627 C1626 1.244 . S
O1628 C1604 1.257 . S
O1628 Zn1607 2.019 . S
H1629 C1622 0.930 . S
H1630 C1609 0.930 . S
H1631 C1621 0.930 . S
C1632 C1633 1.369 . S
C1632 C1634 1.419 . S
C1632 H1636 0.930 . S
C1633 C1632 1.369 . S
C1633 C1642 1.429 . S
C1634 C1632 1.419 . S
C1634 C1635 1.363 . S
C1634 H1637 0.929 . S
C1635 C1634 1.363 . S
C1635 C1641 1.428 . S
H1636 C1632 0.930 . S
H1637 C1634 0.929 . S
S1638 N1639 1.613 . S
S1638 N1640 1.610 . S
N1639 S1638 1.613 . S
N1639 C1642 1.350 . S
N1640 S1638 1.610 . S
N1640 C1641 1.351 . S
C1641 C1635 1.428 . S
C1641 N1640 1.351 . S
C1641 C1642 1.434 . S
C1642 C1633 1.429 . S
C1642 N1639 1.350 . S
C1642 C1641 1.434 . S
C1643 C1644 1.369 . S
C1643 C1645 1.419 . S
C1643 H1647 0.930 . S
C1644 C1643 1.369 . S
C1644 C1653 1.429 . S
C1645 C1643 1.419 . S
C1645 C1646 1.363 . S
C1645 H1648 0.929 . S
C1646 C1645 1.363 . S
C1646 C1652 1.428 . S
H1647 C1643 0.930 . S
H1648 C1645 0.929 . S
S1649 N1650 1.613 . S
S1649 N1651 1.610 . S
N1650 S1649 1.613 . S
N1650 C1653 1.350 . S
N1651 S1649 1.610 . S
N1651 C1652 1.351 . S
C1652 C1646 1.428 . S
C1652 N1651 1.351 . S
C1652 C1653 1.434 . S
C1653 C1644 1.429 . S
C1653 N1650 1.350 . S
C1653 C1652 1.434 . S
C1654 C1655 1.369 . S
C1654 C1656 1.419 . S
C1654 H1658 0.930 . S
C1655 C1654 1.369 . S
C1655 C1664 1.429 . S
C1656 C1654 1.419 . S
C1656 C1657 1.363 . S
C1656 H1659 0.929 . S
C1657 C1656 1.363 . S
C1657 C1663 1.428 . S
H1658 C1654 0.930 . S
H1659 C1656 0.929 . S
S1660 N1661 1.613 . S
S1660 N1662 1.610 . S
N1661 S1660 1.613 . S
N1661 C1664 1.350 . S
N1662 S1660 1.610 . S
N1662 C1663 1.351 . S
C1663 C1657 1.428 . S
C1663 N1662 1.351 . S
C1663 C1664 1.434 . S
C1664 C1655 1.429 . S
C1664 N1661 1.350 . S
C1664 C1663 1.434 . S
C1665 C1666 1.369 . S
C1665 C1667 1.419 . S
C1665 H1669 0.930 . S
C1666 C1665 1.369 . S
C1666 C1675 1.429 . S
C1667 C1665 1.419 . S
C1667 C1668 1.363 . S
C1667 H1670 0.929 . S
C1668 C1667 1.363 . S
C1668 C1674 1.428 . S
H1669 C1665 0.930 . S
H1670 C1667 0.929 . S
S1671 N1672 1.613 . S
S1671 N1673 1.610 . S
N1672 S1671 1.613 . S
N1672 C1675 1.350 . S
N1673 S1671 1.610 . S
N1673 C1674 1.351 . S
C1674 C1668 1.428 . S
C1674 N1673 1.351 . S
C1674 C1675 1.434 . S
C1675 C1666 1.429 . S
C1675 N1672 1.350 . S
C1675 C1674 1.434 . S
C1676 C1677 1.369 . S
C1676 C1678 1.419 . S
C1676 H1680 0.930 . S
C1677 C1676 1.369 . S
C1677 C1686 1.429 . S
C1678 C1676 1.419 . S
C1678 C1679 1.363 . S
C1678 H1681 0.929 . S
C1679 C1678 1.363 . S
C1679 C1685 1.428 . S
H1680 C1676 0.930 . S
H1681 C1678 0.929 . S
S1682 N1683 1.613 . S
S1682 N1684 1.610 . S
N1683 S1682 1.613 . S
N1683 C1686 1.350 . S
N1684 S1682 1.610 . S
N1684 C1685 1.351 . S
C1685 C1679 1.428 . S
C1685 N1684 1.351 . S
C1685 C1686 1.434 . S
C1686 C1677 1.429 . S
C1686 N1683 1.350 . S
C1686 C1685 1.434 . S
C1687 C1688 1.369 . S
C1687 C1689 1.419 . S
C1687 H1691 0.907 1_455 S
C1688 C1687 1.369 . S
C1688 C1697 1.429 . S
C1689 C1687 1.419 . S
C1689 C1690 1.363 . S
C1689 H1692 0.929 . S
C1690 C1689 1.363 . S
C1690 C1696 1.428 . S
H1691 C1687 0.907 1_655 S
H1692 C1689 0.929 . S
S1693 N1694 1.613 . S
S1693 N1695 1.610 . S
N1694 S1693 1.613 . S
N1694 C1697 1.350 . S
N1695 S1693 1.610 . S
N1695 C1696 1.351 . S
C1696 C1690 1.428 . S
C1696 N1695 1.351 . S
C1696 C1697 1.434 . S
C1697 C1688 1.429 . S
C1697 N1694 1.350 . S
C1697 C1696 1.434 . S
C1698 C1699 1.369 . S
C1698 C1700 1.419 . S
C1698 H1702 0.930 . S
C1699 C1698 1.369 . S
C1699 C1708 1.429 . S
C1700 C1698 1.419 . S
C1700 C1701 1.363 . S
C1700 H1703 0.929 . S
C1701 C1700 1.363 . S
C1701 C1707 1.428 . S
H1702 C1698 0.930 . S
H1703 C1700 0.929 . S
S1704 N1705 1.613 . S
S1704 N1706 1.610 . S
N1705 S1704 1.613 . S
N1705 C1708 1.350 . S
N1706 S1704 1.610 . S
N1706 C1707 1.351 . S
C1707 C1701 1.428 . S
C1707 N1706 1.351 . S
C1707 C1708 1.434 . S
C1708 C1699 1.429 . S
C1708 N1705 1.350 . S
C1708 C1707 1.434 . S
C1709 C1710 1.369 . S
C1709 C1711 1.419 . S
C1709 H1713 0.930 . S
C1710 C1709 1.369 . S
C1710 C1719 1.429 . S
C1711 C1709 1.419 . S
C1711 C1712 1.363 . S
C1711 H1714 0.929 . S
C1712 C1711 1.363 . S
C1712 C1718 1.428 . S
H1713 C1709 0.930 . S
H1714 C1711 0.929 . S
S1715 N1716 1.613 . S
S1715 N1717 1.610 1_655 S
N1716 S1715 1.613 . S
N1716 C1719 1.350 . S
N1717 S1715 1.610 1_455 S
N1717 C1718 1.351 1_455 S
C1718 C1712 1.428 . S
C1718 N1717 1.351 1_655 S
C1718 C1719 1.434 . S
C1719 C1710 1.429 . S
C1719 N1716 1.350 . S
C1719 C1718 1.434 . S
C1720 C1721 1.369 . S
C1720 C1722 1.419 . S
C1720 H1724 0.930 . S
C1721 C1720 1.369 . S
C1721 C1730 1.429 . S
C1722 C1720 1.419 . S
C1722 C1723 1.363 . S
C1722 H1725 0.929 . S
C1723 C1722 1.363 . S
C1723 C1729 1.428 . S
H1724 C1720 0.930 . S
H1725 C1722 0.929 . S
S1726 N1727 1.613 . S
S1726 N1728 1.610 . S
N1727 S1726 1.613 . S
N1727 C1730 1.350 . S
N1728 S1726 1.610 . S
N1728 C1729 1.351 . S
C1729 C1723 1.428 . S
C1729 N1728 1.351 . S
C1729 C1730 1.434 . S
C1730 C1721 1.429 . S
C1730 N1727 1.350 . S
C1730 C1729 1.434 . S
C1731 C1732 1.369 . S
C1731 C1733 1.419 . S
C1731 H1735 0.930 . S
C1732 C1731 1.369 . S
C1732 C1741 1.429 . S
C1733 C1731 1.419 . S
C1733 C1734 1.363 . S
C1733 H1736 0.929 1_554 S
C1734 C1733 1.363 . S
C1734 C1740 1.428 . S
H1735 C1731 0.930 . S
H1736 C1733 0.929 1_556 S
S1737 N1738 1.613 . S
S1737 N1739 1.610 . S
N1738 S1737 1.613 . S
N1738 C1741 1.350 . S
N1739 S1737 1.610 . S
N1739 C1740 1.351 . S
C1740 C1734 1.428 . S
C1740 N1739 1.351 . S
C1740 C1741 1.434 . S
C1741 C1732 1.429 . S
C1741 N1738 1.350 . S
C1741 C1740 1.434 . S
C1742 C1743 1.369 . S
C1742 C1744 1.419 . S
C1742 H1746 0.930 . S
C1743 C1742 1.369 . S
C1743 C1752 1.429 . S
C1744 C1742 1.419 . S
C1744 C1745 1.363 . S
C1744 H1747 0.929 . S
C1745 C1744 1.363 . S
C1745 C1751 1.428 . S
H1746 C1742 0.930 . S
H1747 C1744 0.929 . S
S1748 N1749 1.613 . S
S1748 N1750 1.610 . S
N1749 S1748 1.613 . S
N1749 C1752 1.350 . S
N1750 S1748 1.610 . S
N1750 C1751 1.351 . S
C1751 C1745 1.428 . S
C1751 N1750 1.351 . S
C1751 C1752 1.434 . S
C1752 C1743 1.429 . S
C1752 N1749 1.350 . S
C1752 C1751 1.434 . S
C1753 C1754 1.369 . S
C1753 C1755 1.419 . S
C1753 H1757 0.930 . S
C1754 C1753 1.369 . S
C1754 C1763 1.429 . S
C1755 C1753 1.419 . S
C1755 C1756 1.363 . S
C1755 H1758 0.929 . S
C1756 C1755 1.363 . S
C1756 C1762 1.428 . S
H1757 C1753 0.930 . S
H1758 C1755 0.929 . S
S1759 N1760 1.613 1_554 S
S1759 N1761 1.610 . S
N1760 S1759 1.613 1_556 S
N1760 C1763 1.350 1_556 S
N1761 S1759 1.610 . S
N1761 C1762 1.351 . S
C1762 C1756 1.428 . S
C1762 N1761 1.351 . S
C1762 C1763 1.434 . S
C1763 C1754 1.429 . S
C1763 N1760 1.350 1_554 S
C1763 C1762 1.434 . S
C1764 C1765 1.369 . S
C1764 C1766 1.419 . S
C1764 H1768 0.930 . S
C1765 C1764 1.369 . S
C1765 C1774 1.429 . S
C1766 C1764 1.419 . S
C1766 C1767 1.363 . S
C1766 H1769 0.929 . S
C1767 C1766 1.363 . S
C1767 C1773 1.428 . S
H1768 C1764 0.930 . S
H1769 C1766 0.929 . S
S1770 N1771 1.613 . S
S1770 N1772 1.610 . S
N1771 S1770 1.613 . S
N1771 C1774 1.350 . S
N1772 S1770 1.610 . S
N1772 C1773 1.351 . S
C1773 C1767 1.428 . S
C1773 N1772 1.351 . S
C1773 C1774 1.434 . S
C1774 C1765 1.429 . S
C1774 N1771 1.350 . S
C1774 C1773 1.434 . S
C1775 C1776 1.369 . S
C1775 C1777 1.419 . S
C1775 H1779 0.930 . S
C1776 C1775 1.369 . S
C1776 C1785 1.429 . S
C1777 C1775 1.419 . S
C1777 C1778 1.363 . S
C1777 H1780 0.929 1_556 S
C1778 C1777 1.363 . S
C1778 C1784 1.428 . S
H1779 C1775 0.930 . S
H1780 C1777 0.929 1_554 S
S1781 N1782 1.613 . S
S1781 N1783 1.610 . S
N1782 S1781 1.613 . S
N1782 C1785 1.350 . S
N1783 S1781 1.610 . S
N1783 C1784 1.351 . S
C1784 C1778 1.428 . S
C1784 N1783 1.351 . S
C1784 C1785 1.434 . S
C1785 C1776 1.429 . S
C1785 N1782 1.350 . S
C1785 C1784 1.434 . S
C1786 C1787 1.369 . S
C1786 C1788 1.419 . S
C1786 H1790 0.930 . S
C1787 C1786 1.369 . S
C1787 C1796 1.429 . S
C1788 C1786 1.419 . S
C1788 C1789 1.363 . S
C1788 H1791 0.929 . S
C1789 C1788 1.363 . S
C1789 C1795 1.428 . S
H1790 C1786 0.930 . S
H1791 C1788 0.929 . S
S1792 N1793 1.613 . S
S1792 N1794 1.610 . S
N1793 S1792 1.613 . S
N1793 C1796 1.350 . S
N1794 S1792 1.610 . S
N1794 C1795 1.351 . S
C1795 C1789 1.428 . S
C1795 N1794 1.351 . S
C1795 C1796 1.434 . S
C1796 C1787 1.429 . S
C1796 N1793 1.350 . S
C1796 C1795 1.434 . S
C1797 C1798 1.369 . S
C1797 C1799 1.419 . S
C1797 H1801 0.930 . S
C1798 C1797 1.369 . S
C1798 C1807 1.429 . S
C1799 C1797 1.419 . S
C1799 C1800 1.363 . S
C1799 H1802 0.929 . S
C1800 C1799 1.363 . S
C1800 C1806 1.428 . S
H1801 C1797 0.930 . S
H1802 C1799 0.929 . S
S1803 N1804 1.613 1_556 S
S1803 N1805 1.610 . S
N1804 S1803 1.613 1_554 S
N1804 C1807 1.350 1_554 S
N1805 S1803 1.610 . S
N1805 C1806 1.351 . S
C1806 C1800 1.428 . S
C1806 N1805 1.351 . S
C1806 C1807 1.434 . S
C1807 C1798 1.429 . S
C1807 N1804 1.350 1_556 S
C1807 C1806 1.434 . S
C1808 C1809 1.369 . S
C1808 C1810 1.419 . S
C1808 H1812 0.930 . S
C1809 C1808 1.369 . S
C1809 C1818 1.429 . S
C1810 C1808 1.419 . S
C1810 C1811 1.363 . S
C1810 H1813 0.929 . S
C1811 C1810 1.363 . S
C1811 C1817 1.428 . S
H1812 C1808 0.930 . S
H1813 C1810 0.929 . S
S1814 N1815 1.613 . S
S1814 N1816 1.610 . S
N1815 S1814 1.613 . S
N1815 C1818 1.350 . S
N1816 S1814 1.610 . S
N1816 C1817 1.351 . S
C1817 C1811 1.428 . S
C1817 N1816 1.351 . S
C1817 C1818 1.434 . S
C1818 C1809 1.429 . S
C1818 N1815 1.350 . S
C1818 C1817 1.434 . S
C1819 C1820 1.369 . S
C1819 C1821 1.419 . S
C1819 H1823 0.930 . S
C1820 C1819 1.369 . S
C1820 C1829 1.429 . S
C1821 C1819 1.419 . S
C1821 C1822 1.363 . S
C1821 H1824 0.929 . S
C1822 C1821 1.363 . S
C1822 C1828 1.428 . S
H1823 C1819 0.930 . S
H1824 C1821 0.929 . S
S1825 N1826 1.613 . S
S1825 N1827 1.610 . S
N1826 S1825 1.613 . S
N1826 C1829 1.350 . S
N1827 S1825 1.610 . S
N1827 C1828 1.351 . S
C1828 C1822 1.428 . S
C1828 N1827 1.351 . S
C1828 C1829 1.434 . S
C1829 C1820 1.429 . S
C1829 N1826 1.350 . S
C1829 C1828 1.434 . S
C1830 C1831 1.369 . S
C1830 C1832 1.419 . S
C1830 H1834 0.930 . S
C1831 C1830 1.369 . S
C1831 C1840 1.429 . S
C1832 C1830 1.419 . S
C1832 C1833 1.363 . S
C1832 H1835 0.929 . S
C1833 C1832 1.363 . S
C1833 C1839 1.428 . S
H1834 C1830 0.930 . S
H1835 C1832 0.929 . S
S1836 N1837 1.613 . S
S1836 N1838 1.610 . S
N1837 S1836 1.613 . S
N1837 C1840 1.350 . S
N1838 S1836 1.610 . S
N1838 C1839 1.351 . S
C1839 C1833 1.428 . S
C1839 N1838 1.351 . S
C1839 C1840 1.434 . S
C1840 C1831 1.429 . S
C1840 N1837 1.350 . S
C1840 C1839 1.434 . S
C1841 C1842 1.369 . S
C1841 C1843 1.419 . S
C1841 H1845 0.930 . S
C1842 C1841 1.369 . S
C1842 C1851 1.429 . S
C1843 C1841 1.419 . S
C1843 C1844 1.363 . S
C1843 H1846 0.929 . S
C1844 C1843 1.363 . S
C1844 C1850 1.428 . S
H1845 C1841 0.930 . S
H1846 C1843 0.929 . S
S1847 N1848 1.613 . S
S1847 N1849 1.610 . S
N1848 S1847 1.613 . S
N1848 C1851 1.350 . S
N1849 S1847 1.610 . S
N1849 C1850 1.351 . S
C1850 C1844 1.428 . S
C1850 N1849 1.351 . S
C1850 C1851 1.434 . S
C1851 C1842 1.429 . S
C1851 N1848 1.350 . S
C1851 C1850 1.434 . S
C1852 C1853 1.369 . S
C1852 C1854 1.419 . S
C1852 H1856 0.930 . S
C1853 C1852 1.369 . S
C1853 C1862 1.429 . S
C1854 C1852 1.419 . S
C1854 C1855 1.363 . S
C1854 H1857 0.929 . S
C1855 C1854 1.363 . S
C1855 C1861 1.428 . S
H1856 C1852 0.930 . S
H1857 C1854 0.929 . S
S1858 N1859 1.613 . S
S1858 N1860 1.610 . S
N1859 S1858 1.613 . S
N1859 C1862 1.350 . S
N1860 S1858 1.610 . S
N1860 C1861 1.351 . S
C1861 C1855 1.428 . S
C1861 N1860 1.351 . S
C1861 C1862 1.434 . S
C1862 C1853 1.429 . S
C1862 N1859 1.350 . S
C1862 C1861 1.434 . S
C1863 C1864 1.369 . S
C1863 C1865 1.419 . S
C1863 H1867 0.930 . S
C1864 C1863 1.369 . S
C1864 C1873 1.429 . S
C1865 C1863 1.419 . S
C1865 C1866 1.363 . S
C1865 H1868 0.929 . S
C1866 C1865 1.363 . S
C1866 C1872 1.428 . S
H1867 C1863 0.930 . S
H1868 C1865 0.929 . S
S1869 N1870 1.613 . S
S1869 N1871 1.610 . S
N1870 S1869 1.613 . S
N1870 C1873 1.350 . S
N1871 S1869 1.610 . S
N1871 C1872 1.351 . S
C1872 C1866 1.428 . S
C1872 N1871 1.351 . S
C1872 C1873 1.434 . S
C1873 C1864 1.429 . S
C1873 N1870 1.350 . S
C1873 C1872 1.434 . S
C1874 C1875 1.369 . S
C1874 C1876 1.419 . S
C1874 H1878 0.930 . S
C1875 C1874 1.369 . S
C1875 C1884 1.429 . S
C1876 C1874 1.419 . S
C1876 C1877 1.363 . S
C1876 H1879 0.929 . S
C1877 C1876 1.363 . S
C1877 C1883 1.428 . S
H1878 C1874 0.930 . S
H1879 C1876 0.929 . S
S1880 N1881 1.613 . S
S1880 N1882 1.610 . S
N1881 S1880 1.613 . S
N1881 C1884 1.350 . S
N1882 S1880 1.610 . S
N1882 C1883 1.351 . S
C1883 C1877 1.428 . S
C1883 N1882 1.351 . S
C1883 C1884 1.434 . S
C1884 C1875 1.429 . S
C1884 N1881 1.350 . S
C1884 C1883 1.434 . S
C1885 C1886 1.369 . S
C1885 C1887 1.419 . S
C1885 H1889 0.930 . S
C1886 C1885 1.369 . S
C1886 C1895 1.429 . S
C1887 C1885 1.419 . S
C1887 C1888 1.363 . S
C1887 H1890 0.929 . S
C1888 C1887 1.363 . S
C1888 C1894 1.428 . S
H1889 C1885 0.930 . S
H1890 C1887 0.929 . S
S1891 N1892 1.613 . S
S1891 N1893 1.610 . S
N1892 S1891 1.613 . S
N1892 C1895 1.350 . S
N1893 S1891 1.610 . S
N1893 C1894 1.351 . S
C1894 C1888 1.428 . S
C1894 N1893 1.351 . S
C1894 C1895 1.434 . S
C1895 C1886 1.429 . S
C1895 N1892 1.350 . S
C1895 C1894 1.434 . S
C1896 C1897 1.369 . S
C1896 C1898 1.419 . S
C1896 H1900 0.930 . S
C1897 C1896 1.369 . S
C1897 C1906 1.429 . S
C1898 C1896 1.419 . S
C1898 C1899 1.363 . S
C1898 H1901 0.929 . S
C1899 C1898 1.363 . S
C1899 C1905 1.428 . S
H1900 C1896 0.930 . S
H1901 C1898 0.929 . S
S1902 N1903 1.613 . S
S1902 N1904 1.610 . S
N1903 S1902 1.613 . S
N1903 C1906 1.350 . S
N1904 S1902 1.610 . S
N1904 C1905 1.351 . S
C1905 C1899 1.428 . S
C1905 N1904 1.351 . S
C1905 C1906 1.434 . S
C1906 C1897 1.429 . S
C1906 N1903 1.350 . S
C1906 C1905 1.434 . S
C1907 C1908 1.369 . S
C1907 C1909 1.419 . S
C1907 H1911 0.930 . S
C1908 C1907 1.369 . S
C1908 C1917 1.429 . S
C1909 C1907 1.419 . S
C1909 C1910 1.363 . S
C1909 H1912 0.929 . S
C1910 C1909 1.363 . S
C1910 C1916 1.428 . S
H1911 C1907 0.930 . S
H1912 C1909 0.929 . S
S1913 N1914 1.613 . S
S1913 N1915 1.610 1_655 S
N1914 S1913 1.613 . S
N1914 C1917 1.350 . S
N1915 S1913 1.610 1_455 S
N1915 C1916 1.351 1_455 S
C1916 C1910 1.428 . S
C1916 N1915 1.351 1_655 S
C1916 C1917 1.434 . S
C1917 C1908 1.429 . S
C1917 N1914 1.350 . S
C1917 C1916 1.434 . S
C1918 C1919 1.369 . S
C1918 C1920 1.419 . S
C1918 H1922 0.930 . S
C1919 C1918 1.369 . S
C1919 C1928 1.429 . S
C1920 C1918 1.419 . S
C1920 C1921 1.363 . S
C1920 H1923 0.929 . S
C1921 C1920 1.363 . S
C1921 C1927 1.428 . S
H1922 C1918 0.930 . S
H1923 C1920 0.929 . S
S1924 N1925 1.613 . S
S1924 N1926 1.610 . S
N1925 S1924 1.613 . S
N1925 C1928 1.350 . S
N1926 S1924 1.610 . S
N1926 C1927 1.351 . S
C1927 C1921 1.428 . S
C1927 N1926 1.351 . S
C1927 C1928 1.434 . S
C1928 C1919 1.429 . S
C1928 N1925 1.350 . S
C1928 C1927 1.434 . S
C1929 C1930 1.369 . S
C1929 C1931 1.419 . S
C1929 H1933 0.939 . S
C1930 C1929 1.369 . S
C1930 C1939 1.429 . S
C1931 C1929 1.419 . S
C1931 C1932 1.363 . S
C1931 H1934 0.929 . S
C1932 C1931 1.363 . S
C1932 C1938 1.428 . S
H1933 C1929 0.939 . S
H1934 C1931 0.929 . S
S1935 N1936 1.613 . S
S1935 N1937 1.610 . S
N1936 S1935 1.613 . S
N1936 C1939 1.350 . S
N1937 S1935 1.610 . S
N1937 C1938 1.351 . S
C1938 C1932 1.428 . S
C1938 N1937 1.351 . S
C1938 C1939 1.434 . S
C1939 C1930 1.429 . S
C1939 N1936 1.350 . S
C1939 C1938 1.434 . S
C1940 C1941 1.369 . S
C1940 C1942 1.419 . S
C1940 H1944 0.930 . S
C1941 C1940 1.369 . S
C1941 C1950 1.429 . S
C1942 C1940 1.419 . S
C1942 C1943 1.363 . S
C1942 H1945 0.929 . S
C1943 C1942 1.363 . S
C1943 C1949 1.428 . S
H1944 C1940 0.930 . S
H1945 C1942 0.929 . S
S1946 N1947 1.613 . S
S1946 N1948 1.610 . S
N1947 S1946 1.613 . S
N1947 C1950 1.350 . S
N1948 S1946 1.610 . S
N1948 C1949 1.351 . S
C1949 C1943 1.428 . S
C1949 N1948 1.351 . S
C1949 C1950 1.434 . S
C1950 C1941 1.429 . S
C1950 N1947 1.350 . S
C1950 C1949 1.434 . S
C1951 C1952 1.369 . S
C1951 C1953 1.419 . S
C1951 H1955 0.930 . S
C1952 C1951 1.369 . S
C1952 C1961 1.429 . S
C1953 C1951 1.419 . S
C1953 C1954 1.363 . S
C1953 H1956 0.929 . S
C1954 C1953 1.363 . S
C1954 C1960 1.428 . S
H1955 C1951 0.930 . S
H1956 C1953 0.929 . S
S1957 N1958 1.613 . S
S1957 N1959 1.610 . S
N1958 S1957 1.613 . S
N1958 C1961 1.350 . S
N1959 S1957 1.610 . S
N1959 C1960 1.351 . S
C1960 C1954 1.428 . S
C1960 N1959 1.351 . S
C1960 C1961 1.434 . S
C1961 C1952 1.429 . S
C1961 N1958 1.350 . S
C1961 C1960 1.434 . S
C1962 C1963 1.369 . S
C1962 C1964 1.419 . S
C1962 H1966 0.930 . S
C1963 C1962 1.369 . S
C1963 C1972 1.429 . S
C1964 C1962 1.419 . S
C1964 C1965 1.363 . S
C1964 H1967 0.929 . S
C1965 C1964 1.363 . S
C1965 C1971 1.428 . S
H1966 C1962 0.930 . S
H1967 C1964 0.929 . S
S1968 N1969 1.613 . S
S1968 N1970 1.610 . S
N1969 S1968 1.613 . S
N1969 C1972 1.350 . S
N1970 S1968 1.610 . S
N1970 C1971 1.351 . S
C1971 C1965 1.428 . S
C1971 N1970 1.351 . S
C1971 C1972 1.434 . S
C1972 C1963 1.429 . S
C1972 N1969 1.350 . S
C1972 C1971 1.434 . S
C1973 C1974 1.369 . S
C1973 C1975 1.419 . S
C1973 H1977 0.930 . S
C1974 C1973 1.369 . S
C1974 C1983 1.429 . S
C1975 C1973 1.419 . S
C1975 C1976 1.363 . S
C1975 H1978 0.929 . S
C1976 C1975 1.363 . S
C1976 C1982 1.428 . S
H1977 C1973 0.930 . S
H1978 C1975 0.929 . S
S1979 N1980 1.613 . S
S1979 N1981 1.610 . S
N1980 S1979 1.613 . S
N1980 C1983 1.350 . S
N1981 S1979 1.610 . S
N1981 C1982 1.351 . S
C1982 C1976 1.428 . S
C1982 N1981 1.351 . S
C1982 C1983 1.434 . S
C1983 C1974 1.429 . S
C1983 N1980 1.350 . S
C1983 C1982 1.434 . S
C1984 C1985 1.369 . S
C1984 C1986 1.419 . S
C1984 H1988 0.930 . S
C1985 C1984 1.369 . S
C1985 C1994 1.429 . S
C1986 C1984 1.419 . S
C1986 C1987 1.363 . S
C1986 H1989 0.929 . S
C1987 C1986 1.363 . S
C1987 C1993 1.428 . S
H1988 C1984 0.930 . S
H1989 C1986 0.929 . S
S1990 N1991 1.613 . S
S1990 N1992 1.610 . S
N1991 S1990 1.613 . S
N1991 C1994 1.350 . S
N1992 S1990 1.610 . S
N1992 C1993 1.351 . S
C1993 C1987 1.428 . S
C1993 N1992 1.351 . S
C1993 C1994 1.434 . S
C1994 C1985 1.429 . S
C1994 N1991 1.350 . S
C1994 C1993 1.434 . S
C1995 C1996 1.369 . S
C1995 C1997 1.419 . S
C1995 H1999 0.930 . S
C1996 C1995 1.369 . S
C1996 C2005 1.429 . S
C1997 C1995 1.419 . S
C1997 C1998 1.363 . S
C1997 H2000 0.929 . S
C1998 C1997 1.363 . S
C1998 C2004 1.428 . S
H1999 C1995 0.930 . S
H2000 C1997 0.929 . S
S2001 N2002 1.613 . S
S2001 N2003 1.610 . S
N2002 S2001 1.613 . S
N2002 C2005 1.350 . S
N2003 S2001 1.610 . S
N2003 C2004 1.351 . S
C2004 C1998 1.428 . S
C2004 N2003 1.351 . S
C2004 C2005 1.434 . S
C2005 C1996 1.429 . S
C2005 N2002 1.350 . S
C2005 C2004 1.434 . S
C2006 C2007 1.369 . S
C2006 C2008 1.419 . S
C2006 H2010 0.930 . S
C2007 C2006 1.369 . S
C2007 C2016 1.429 . S
C2008 C2006 1.419 . S
C2008 C2009 1.363 . S
C2008 H2011 0.929 . S
C2009 C2008 1.363 . S
C2009 C2015 1.428 . S
H2010 C2006 0.930 . S
H2011 C2008 0.929 . S
S2012 N2013 1.613 . S
S2012 N2014 1.610 . S
N2013 S2012 1.613 . S
N2013 C2016 1.350 . S
N2014 S2012 1.610 . S
N2014 C2015 1.351 . S
C2015 C2009 1.428 . S
C2015 N2014 1.351 . S
C2015 C2016 1.434 . S
C2016 C2007 1.429 . S
C2016 N2013 1.350 . S
C2016 C2015 1.434 . S
C2017 C2018 1.369 . S
C2017 C2019 1.419 . S
C2017 H2021 0.930 . S
C2018 C2017 1.369 . S
C2018 C2027 1.429 . S
C2019 C2017 1.419 . S
C2019 C2020 1.363 . S
C2019 H2022 0.929 . S
C2020 C2019 1.363 . S
C2020 C2026 1.428 . S
H2021 C2017 0.930 . S
H2022 C2019 0.929 . S
S2023 N2024 1.613 . S
S2023 N2025 1.610 . S
N2024 S2023 1.613 . S
N2024 C2027 1.350 . S
N2025 S2023 1.610 . S
N2025 C2026 1.351 . S
C2026 C2020 1.428 . S
C2026 N2025 1.351 . S
C2026 C2027 1.434 . S
C2027 C2018 1.429 . S
C2027 N2024 1.350 . S
C2027 C2026 1.434 . S
C2028 C2029 1.369 . S
C2028 C2030 1.419 . S
C2028 H2032 0.930 . S
C2029 C2028 1.369 . S
C2029 C2038 1.429 . S
C2030 C2028 1.419 . S
C2030 C2031 1.363 . S
C2030 H2033 0.929 . S
C2031 C2030 1.363 . S
C2031 C2037 1.428 . S
H2032 C2028 0.930 . S
H2033 C2030 0.929 . S
S2034 N2035 1.613 . S
S2034 N2036 1.610 . S
N2035 S2034 1.613 . S
N2035 C2038 1.350 . S
N2036 S2034 1.610 . S
N2036 C2037 1.351 . S
C2037 C2031 1.428 . S
C2037 N2036 1.351 . S
C2037 C2038 1.434 . S
C2038 C2029 1.429 . S
C2038 N2035 1.350 . S
C2038 C2037 1.434 . S
C2039 C2040 1.369 . S
C2039 C2041 1.419 . S
C2039 H2043 0.930 . S
C2040 C2039 1.369 . S
C2040 C2049 1.429 . S
C2041 C2039 1.419 . S
C2041 C2042 1.363 . S
C2041 H2044 0.929 . S
C2042 C2041 1.363 . S
C2042 C2048 1.428 . S
H2043 C2039 0.930 . S
H2044 C2041 0.929 . S
S2045 N2046 1.613 . S
S2045 N2047 1.610 . S
N2046 S2045 1.613 . S
N2046 C2049 1.350 . S
N2047 S2045 1.610 . S
N2047 C2048 1.351 . S
C2048 C2042 1.428 . S
C2048 N2047 1.351 . S
C2048 C2049 1.434 . S
C2049 C2040 1.429 . S
C2049 N2046 1.350 . S
C2049 C2048 1.434 . S
C2050 C2051 1.369 . S
C2050 C2052 1.419 . S
C2050 H2054 0.930 . S
C2051 C2050 1.369 . S
C2051 C2060 1.429 . S
C2052 C2050 1.419 . S
C2052 C2053 1.363 . S
C2052 H2055 0.929 . S
C2053 C2052 1.363 . S
C2053 C2059 1.428 . S
H2054 C2050 0.930 . S
H2055 C2052 0.929 . S
S2056 N2057 1.613 . S
S2056 N2058 1.610 . S
N2057 S2056 1.613 . S
N2057 C2060 1.350 . S
N2058 S2056 1.610 . S
N2058 C2059 1.351 . S
C2059 C2053 1.428 . S
C2059 N2058 1.351 . S
C2059 C2060 1.434 . S
C2060 C2051 1.429 . S
C2060 N2057 1.350 . S
C2060 C2059 1.434 . S
C2061 C2062 1.369 . S
C2061 C2063 1.419 . S
C2061 H2065 0.930 . S
C2062 C2061 1.369 . S
C2062 C2071 1.429 . S
C2063 C2061 1.419 . S
C2063 C2064 1.363 . S
C2063 H2066 0.929 . S
C2064 C2063 1.363 . S
C2064 C2070 1.428 . S
H2065 C2061 0.930 . S
H2066 C2063 0.929 . S
S2067 N2068 1.613 . S
S2067 N2069 1.610 . S
N2068 S2067 1.613 . S
N2068 C2071 1.350 . S
N2069 S2067 1.610 . S
N2069 C2070 1.351 . S
C2070 C2064 1.428 . S
C2070 N2069 1.351 . S
C2070 C2071 1.434 . S
C2071 C2062 1.429 . S
C2071 N2068 1.350 . S
C2071 C2070 1.434 . S
C2072 C2073 1.369 . S
C2072 C2074 1.419 . S
C2072 H2076 0.930 . S
C2073 C2072 1.369 . S
C2073 C2082 1.429 . S
C2074 C2072 1.419 . S
C2074 C2075 1.363 . S
C2074 H2077 0.929 . S
C2075 C2074 1.363 . S
C2075 C2081 1.428 . S
H2076 C2072 0.930 . S
H2077 C2074 0.929 . S
S2078 N2079 1.613 . S
S2078 N2080 1.610 . S
N2079 S2078 1.613 . S
N2079 C2082 1.350 . S
N2080 S2078 1.610 . S
N2080 C2081 1.351 . S
C2081 C2075 1.428 . S
C2081 N2080 1.351 . S
C2081 C2082 1.434 . S
C2082 C2073 1.429 . S
C2082 N2079 1.350 . S
C2082 C2081 1.434 . S
C2083 C2084 1.369 . S
C2083 C2085 1.419 . S
C2083 H2087 0.930 . S
C2084 C2083 1.369 . S
C2084 C2093 1.429 . S
C2085 C2083 1.419 . S
C2085 C2086 1.363 . S
C2085 H2088 0.929 . S
C2086 C2085 1.363 . S
C2086 C2092 1.428 . S
H2087 C2083 0.930 . S
H2088 C2085 0.929 . S
S2089 N2090 1.613 . S
S2089 N2091 1.610 . S
N2090 S2089 1.613 . S
N2090 C2093 1.350 . S
N2091 S2089 1.610 . S
N2091 C2092 1.351 . S
C2092 C2086 1.428 . S
C2092 N2091 1.351 . S
C2092 C2093 1.434 . S
C2093 C2084 1.429 . S
C2093 N2090 1.350 . S
C2093 C2092 1.434 . S
C2094 C2095 1.369 . S
C2094 C2096 1.419 . S
C2094 H2098 0.930 . S
C2095 C2094 1.369 . S
C2095 C2104 1.429 . S
C2096 C2094 1.419 . S
C2096 C2097 1.363 . S
C2096 H2099 0.929 1_545 S
C2097 C2096 1.363 . S
C2097 C2103 1.428 . S
H2098 C2094 0.930 . S
H2099 C2096 0.929 1_565 S
S2100 N2101 1.613 . S
S2100 N2102 1.610 . S
N2101 S2100 1.613 . S
N2101 C2104 1.350 . S
N2102 S2100 1.610 . S
N2102 C2103 1.351 . S
C2103 C2097 1.428 . S
C2103 N2102 1.351 . S
C2103 C2104 1.434 . S
C2104 C2095 1.429 . S
C2104 N2101 1.350 . S
C2104 C2103 1.434 . S
C2105 C2106 1.369 . S
C2105 C2107 1.419 . S
C2105 H2109 0.930 . S
C2106 C2105 1.369 . S
C2106 C2115 1.429 . S
C2107 C2105 1.419 . S
C2107 C2108 1.363 . S
C2107 H2110 0.929 . S
C2108 C2107 1.363 . S
C2108 C2114 1.428 . S
H2109 C2105 0.930 . S
H2110 C2107 0.929 . S
S2111 N2112 1.613 . S
S2111 N2113 1.610 . S
N2112 S2111 1.613 . S
N2112 C2115 1.350 . S
N2113 S2111 1.610 . S
N2113 C2114 1.351 . S
C2114 C2108 1.428 . S
C2114 N2113 1.351 . S
C2114 C2115 1.434 . S
C2115 C2106 1.429 . S
C2115 N2112 1.350 . S
C2115 C2114 1.434 . S
C2116 C2117 1.369 . S
C2116 C2118 1.419 . S
C2116 H2120 0.930 . S
C2117 C2116 1.369 . S
C2117 C2126 1.429 . S
C2118 C2116 1.419 . S
C2118 C2119 1.363 . S
C2118 H2121 0.929 . S
C2119 C2118 1.363 . S
C2119 C2125 1.428 . S
H2120 C2116 0.930 . S
H2121 C2118 0.929 . S
S2122 N2123 1.613 . S
S2122 N2124 1.610 . S
N2123 S2122 1.613 . S
N2123 C2126 1.350 . S
N2124 S2122 1.610 . S
N2124 C2125 1.351 . S
C2125 C2119 1.428 . S
C2125 N2124 1.351 . S
C2125 C2126 1.434 . S
C2126 C2117 1.429 . S
C2126 N2123 1.350 . S
C2126 C2125 1.434 . S
C2127 C2128 1.369 . S
C2127 C2129 1.419 . S
C2127 H2131 0.930 . S
C2128 C2127 1.369 . S
C2128 C2137 1.429 . S
C2129 C2127 1.419 . S
C2129 C2130 1.363 . S
C2129 H2132 0.929 . S
C2130 C2129 1.363 . S
C2130 C2136 1.428 . S
H2131 C2127 0.930 . S
H2132 C2129 0.929 . S
S2133 N2134 1.613 . S
S2133 N2135 1.610 . S
N2134 S2133 1.613 . S
N2134 C2137 1.350 . S
N2135 S2133 1.610 . S
N2135 C2136 1.351 . S
C2136 C2130 1.428 . S
C2136 N2135 1.351 . S
C2136 C2137 1.434 . S
C2137 C2128 1.429 . S
C2137 N2134 1.350 . S
C2137 C2136 1.434 . S
C2138 C2139 1.369 . S
C2138 C2140 1.419 . S
C2138 H2142 0.930 . S
C2139 C2138 1.369 . S
C2139 C2148 1.429 . S
C2140 C2138 1.419 . S
C2140 C2141 1.363 . S
C2140 H2143 0.929 . S
C2141 C2140 1.363 . S
C2141 C2147 1.428 . S
H2142 C2138 0.930 . S
H2143 C2140 0.929 . S
S2144 N2145 1.613 . S
S2144 N2146 1.610 1_565 S
N2145 S2144 1.613 . S
N2145 C2148 1.350 . S
N2146 S2144 1.610 1_545 S
N2146 C2147 1.351 1_545 S
C2147 C2141 1.428 . S
C2147 N2146 1.351 1_565 S
C2147 C2148 1.434 . S
C2148 C2139 1.429 . S
C2148 N2145 1.350 . S
C2148 C2147 1.434 . S
C2149 C2150 1.369 . S
C2149 C2151 1.419 . S
C2149 H2153 0.930 . S
C2150 C2149 1.369 . S
C2150 C2159 1.429 . S
C2151 C2149 1.419 . S
C2151 C2152 1.363 . S
C2151 H2154 0.929 . S
C2152 C2151 1.363 . S
C2152 C2158 1.428 . S
H2153 C2149 0.930 . S
H2154 C2151 0.929 . S
S2155 N2156 1.613 . S
S2155 N2157 1.610 . S
N2156 S2155 1.613 . S
N2156 C2159 1.350 . S
N2157 S2155 1.610 . S
N2157 C2158 1.351 . S
C2158 C2152 1.428 . S
C2158 N2157 1.351 . S
C2158 C2159 1.434 . S
C2159 C2150 1.429 . S
C2159 N2156 1.350 . S
C2159 C2158 1.434 . S
C2160 C2161 1.369 . S
C2160 C2162 1.419 1_655 S
C2160 H2164 0.930 . S
C2161 C2160 1.369 . S
C2161 C2170 1.452 . S
C2162 C2160 1.419 1_455 S
C2162 C2163 1.363 . S
C2162 H2165 0.929 . S
C2163 C2162 1.363 . S
C2163 C2169 1.428 . S
H2164 C2160 0.930 . S
H2165 C2162 0.929 . S
S2166 N2167 1.613 . S
S2166 N2168 1.610 . S
N2167 S2166 1.613 . S
N2167 C2170 1.348 1_455 S
N2168 S2166 1.610 . S
N2168 C2169 1.351 . S
C2169 C2163 1.428 . S
C2169 N2168 1.351 . S
C2169 C2170 1.410 1_455 S
C2170 C2161 1.452 . S
C2170 N2167 1.348 1_655 S
C2170 C2169 1.410 1_655 S
C2171 C2172 1.369 . S
C2171 C2173 1.419 . S
C2171 H2175 0.930 . S
C2172 C2171 1.369 . S
C2172 C2181 1.429 . S
C2173 C2171 1.419 . S
C2173 C2174 1.363 . S
C2173 H2176 0.929 . S
C2174 C2173 1.363 . S
C2174 C2180 1.428 . S
H2175 C2171 0.930 . S
H2176 C2173 0.929 . S
S2177 N2178 1.613 . S
S2177 N2179 1.610 . S
N2178 S2177 1.613 . S
N2178 C2181 1.350 . S
N2179 S2177 1.610 . S
N2179 C2180 1.351 . S
C2180 C2174 1.428 . S
C2180 N2179 1.351 . S
C2180 C2181 1.434 . S
C2181 C2172 1.429 . S
C2181 N2178 1.350 . S
C2181 C2180 1.434 . S
C2182 C2183 1.369 . S
C2182 C2184 1.419 1_655 S
C2182 H2186 0.930 . S
C2183 C2182 1.369 . S
C2183 C2192 1.429 . S
C2184 C2182 1.419 1_455 S
C2184 C2185 1.363 . S
C2184 H2187 0.929 . S
C2185 C2184 1.363 . S
C2185 C2191 1.428 . S
H2186 C2182 0.930 . S
H2187 C2184 0.929 . S
S2188 N2189 1.613 1_455 S
S2188 N2190 1.610 . S
N2189 S2188 1.613 1_655 S
N2189 C2192 1.350 . S
N2190 S2188 1.610 . S
N2190 C2191 1.351 . S
C2191 C2185 1.428 . S
C2191 N2190 1.351 . S
C2191 C2192 1.434 1_455 S
C2192 C2183 1.429 . S
C2192 N2189 1.350 . S
C2192 C2191 1.434 1_655 S
C2193 C2194 1.369 1_655 S
C2193 C2195 1.419 . S
C2193 H2197 0.930 . S
C2194 C2193 1.369 1_455 S
C2194 C2203 1.429 . S
C2195 C2193 1.419 . S
C2195 C2196 1.363 . S
C2195 H2198 0.929 . S
C2196 C2195 1.363 . S
C2196 C2202 1.428 1_655 S
H2197 C2193 0.930 . S
H2198 C2195 0.929 . S
S2199 N2200 1.613 1_556 S
S2199 N2201 1.610 1_556 S
N2200 S2199 1.613 1_554 S
N2200 C2203 1.350 . S
N2201 S2199 1.610 1_554 S
N2201 C2202 1.351 . S
C2202 C2196 1.428 1_455 S
C2202 N2201 1.351 . S
C2202 C2203 1.434 . S
C2203 C2194 1.429 . S
C2203 N2200 1.350 . S
C2203 C2202 1.434 . S
C2204 C2205 1.369 . S
C2204 C2206 1.419 1_565 S
C2204 H2208 0.930 . S
C2205 C2204 1.369 . S
C2205 C2214 1.429 . S
C2206 C2204 1.419 1_545 S
C2206 C2207 1.363 . S
C2206 H2209 0.929 . S
C2207 C2206 1.363 . S
C2207 C2213 1.428 . S
H2208 C2204 0.930 . S
H2209 C2206 0.929 . S
S2210 N2211 1.613 . S
S2210 N2212 1.650 . S
N2211 S2210 1.613 . S
N2211 C2214 1.350 . S
N2212 S2210 1.650 . S
N2212 C2213 1.348 1_565 S
C2213 C2207 1.428 . S
C2213 N2212 1.348 1_545 S
C2213 C2214 1.434 1_545 S
C2214 C2205 1.429 . S
C2214 N2211 1.350 . S
C2214 C2213 1.434 1_565 S
C2215 C2216 1.369 1_554 S
C2215 C2217 1.419 . S
C2215 H2219 0.930 . S
C2216 C2215 1.369 1_556 S
C2216 C2225 1.429 . S
C2217 C2215 1.419 . S
C2217 C2218 1.363 . S
C2217 H2220 0.929 . S
C2218 C2217 1.363 . S
C2218 C2224 1.428 1_554 S
H2219 C2215 0.930 . S
H2220 C2217 0.929 . S
S2221 N2222 1.613 . S
S2221 N2223 1.610 . S
N2222 S2221 1.613 . S
N2222 C2225 1.350 . S
N2223 S2221 1.610 . S
N2223 C2224 1.351 . S
C2224 C2218 1.428 1_556 S
C2224 N2223 1.351 . S
C2224 C2225 1.434 . S
C2225 C2216 1.429 . S
C2225 N2222 1.350 . S
C2225 C2224 1.434 . S
C2226 C2227 1.369 . S
C2226 C2228 1.419 . S
C2226 H2230 0.930 . S
C2227 C2226 1.369 . S
C2227 C2236 1.429 . S
C2228 C2226 1.419 . S
C2228 C2229 1.363 . S
C2228 H2231 0.929 . S
C2229 C2228 1.363 . S
C2229 C2235 1.428 . S
H2230 C2226 0.930 . S
H2231 C2228 0.929 . S
S2232 N2233 1.613 . S
S2232 N2234 1.610 . S
N2233 S2232 1.613 . S
N2233 C2236 1.350 . S
N2234 S2232 1.610 . S
N2234 C2235 1.351 . S
C2235 C2229 1.428 . S
C2235 N2234 1.351 . S
C2235 C2236 1.434 . S
C2236 C2227 1.429 . S
C2236 N2233 1.350 . S
C2236 C2235 1.434 . S
C2237 C2238 1.369 1_556 S
C2237 C2239 1.419 . S
C2237 H2241 0.930 . S
C2238 C2237 1.369 1_554 S
C2238 C2247 1.429 . S
C2239 C2237 1.419 . S
C2239 C2240 1.363 . S
C2239 H2242 0.929 . S
C2240 C2239 1.363 . S
C2240 C2246 1.428 1_556 S
H2241 C2237 0.930 . S
H2242 C2239 0.929 . S
S2243 N2244 1.613 . S
S2243 N2245 1.610 . S
N2244 S2243 1.613 . S
N2244 C2247 1.350 . S
N2245 S2243 1.610 . S
N2245 C2246 1.351 . S
C2246 C2240 1.428 1_554 S
C2246 N2245 1.351 . S
C2246 C2247 1.434 . S
C2247 C2238 1.429 . S
C2247 N2244 1.350 . S
C2247 C2246 1.434 . S
C2248 C2249 1.369 . S
C2248 C2250 1.419 1_554 S
C2248 H2252 0.930 . S
C2249 C2248 1.369 . S
C2249 C2258 1.429 . S
C2250 C2248 1.419 1_556 S
C2250 C2251 1.363 . S
C2250 H2253 0.929 . S
C2251 C2250 1.363 . S
C2251 C2257 1.428 . S
H2252 C2248 0.930 . S
H2253 C2250 0.929 . S
S2254 N2255 1.613 1_556 S
S2254 N2256 1.610 . S
N2255 S2254 1.613 1_554 S
N2255 C2258 1.350 . S
N2256 S2254 1.610 . S
N2256 C2257 1.351 . S
C2257 C2251 1.428 . S
C2257 N2256 1.351 . S
C2257 C2258 1.434 1_556 S
C2258 C2249 1.429 . S
C2258 N2255 1.350 . S
C2258 C2257 1.434 1_554 S
C2259 C2260 1.369 . S
C2259 C2261 1.419 . S
C2259 H2263 0.930 . S
C2260 C2259 1.369 . S
C2260 C2269 1.429 . S
C2261 C2259 1.419 . S
C2261 C2262 1.363 . S
C2261 H2264 0.929 . S
C2262 C2261 1.363 . S
C2262 C2268 1.428 . S
H2263 C2259 0.930 . S
H2264 C2261 0.929 . S
S2265 N2266 1.613 . S
S2265 N2267 1.610 . S
N2266 S2265 1.613 . S
N2266 C2269 1.350 . S
N2267 S2265 1.610 . S
N2267 C2268 1.351 . S
C2268 C2262 1.428 . S
C2268 N2267 1.351 . S
C2268 C2269 1.434 . S
C2269 C2260 1.429 . S
C2269 N2266 1.350 . S
C2269 C2268 1.434 . S
C2270 C2271 1.369 . S
C2270 C2272 1.419 . S
C2270 H2274 0.930 . S
C2271 C2270 1.369 . S
C2271 C2280 1.429 . S
C2272 C2270 1.419 . S
C2272 C2273 1.363 . S
C2272 H2275 0.929 . S
C2273 C2272 1.363 . S
C2273 C2279 1.428 . S
H2274 C2270 0.930 . S
H2275 C2272 0.929 . S
S2276 N2277 1.613 1_455 S
S2276 N2278 1.610 1_455 S
N2277 S2276 1.613 1_655 S
N2277 C2280 1.350 . S
N2278 S2276 1.610 1_655 S
N2278 C2279 1.351 . S
C2279 C2273 1.428 . S
C2279 N2278 1.351 . S
C2279 C2280 1.434 . S
C2280 C2271 1.429 . S
C2280 N2277 1.350 . S
C2280 C2279 1.434 . S
C2281 C2282 1.369 . S
C2281 C2283 1.419 . S
C2281 H2285 0.930 . S
C2282 C2281 1.369 . S
C2282 C2291 1.429 . S
C2283 C2281 1.419 . S
C2283 C2284 1.363 . S
C2283 H2286 0.929 . S
C2284 C2283 1.363 . S
C2284 C2290 1.428 . S
H2285 C2281 0.930 . S
H2286 C2283 0.929 . S
S2287 N2288 1.613 . S
S2287 N2289 1.610 . S
N2288 S2287 1.613 . S
N2288 C2291 1.350 . S
N2289 S2287 1.610 . S
N2289 C2290 1.351 . S
C2290 C2284 1.428 . S
C2290 N2289 1.351 . S
C2290 C2291 1.434 . S
C2291 C2282 1.429 . S
C2291 N2288 1.350 . S
C2291 C2290 1.434 . S
C2292 C2293 1.369 . S
C2292 C2294 1.419 . S
C2292 H2296 0.930 . S
C2293 C2292 1.369 . S
C2293 C2302 1.429 . S
C2294 C2292 1.419 . S
C2294 C2295 1.363 . S
C2294 H2297 0.929 . S
C2295 C2294 1.363 . S
C2295 C2301 1.428 . S
H2296 C2292 0.930 . S
H2297 C2294 0.929 . S
S2298 N2299 1.613 . S
S2298 N2300 1.610 . S
N2299 S2298 1.613 . S
N2299 C2302 1.350 . S
N2300 S2298 1.610 . S
N2300 C2301 1.351 . S
C2301 C2295 1.428 . S
C2301 N2300 1.351 . S
C2301 C2302 1.434 . S
C2302 C2293 1.429 . S
C2302 N2299 1.350 . S
C2302 C2301 1.434 . S
C2303 C2304 1.369 . S
C2303 C2305 1.419 . S
C2303 H2307 0.930 . S
C2304 C2303 1.369 . S
C2304 C2313 1.429 1_545 S
C2305 C2303 1.419 . S
C2305 C2306 1.363 1_545 S
C2305 H2308 0.929 . S
C2306 C2305 1.363 1_565 S
C2306 C2312 1.428 . S
H2307 C2303 0.930 . S
H2308 C2305 0.929 . S
S2309 N2310 1.613 1_655 S
S2309 N2311 1.610 1_655 S
N2310 S2309 1.613 1_455 S
N2310 C2313 1.350 . S
N2311 S2309 1.610 1_455 S
N2311 C2312 1.351 . S
C2312 C2306 1.428 . S
C2312 N2311 1.351 . S
C2312 C2313 1.434 . S
C2313 C2304 1.429 1_565 S
C2313 N2310 1.350 . S
C2313 C2312 1.434 . S
C2314 C2315 1.369 . S
C2314 C2316 1.419 . S
C2314 H2318 0.930 . S
C2315 C2314 1.369 . S
C2315 C2324 1.429 . S
C2316 C2314 1.419 . S
C2316 C2317 1.363 . S
C2316 H2319 0.929 . S
C2317 C2316 1.363 . S
C2317 C2323 1.428 . S
H2318 C2314 0.930 . S
H2319 C2316 0.929 . S
S2320 N2321 1.613 . S
S2320 N2322 1.610 . S
N2321 S2320 1.613 . S
N2321 C2324 1.350 . S
N2322 S2320 1.610 . S
N2322 C2323 1.351 . S
C2323 C2317 1.428 . S
C2323 N2322 1.351 . S
C2323 C2324 1.434 . S
C2324 C2315 1.429 . S
C2324 N2321 1.350 . S
C2324 C2323 1.434 . S
C2325 C2326 1.369 . S
C2325 C2327 1.419 1_655 S
C2325 H2329 0.930 . S
C2326 C2325 1.369 . S
C2326 C2335 1.429 . S
C2327 C2325 1.419 1_455 S
C2327 C2328 1.363 . S
C2327 H2330 0.929 . S
C2328 C2327 1.363 . S
C2328 C2334 1.428 . S
H2329 C2325 0.930 . S
H2330 C2327 0.929 . S
S2331 N2332 1.613 . S
S2331 N2333 1.610 1_655 S
N2332 S2331 1.613 . S
N2332 C2335 1.350 . S
N2333 S2331 1.610 1_455 S
N2333 C2334 1.351 . S
C2334 C2328 1.428 . S
C2334 N2333 1.351 . S
C2334 C2335 1.434 1_455 S
C2335 C2326 1.429 . S
C2335 N2332 1.350 . S
C2335 C2334 1.434 1_655 S
C2336 C2337 1.369 . S
C2336 C2338 1.419 . S
C2336 H2340 0.930 . S
C2337 C2336 1.369 . S
C2337 C2346 1.429 . S
C2338 C2336 1.419 . S
C2338 C2339 1.363 . S
C2338 H2341 0.929 . S
C2339 C2338 1.363 . S
C2339 C2345 1.428 . S
H2340 C2336 0.930 . S
H2341 C2338 0.929 . S
S2342 N2343 1.613 . S
S2342 N2344 1.610 . S
N2343 S2342 1.613 . S
N2343 C2346 1.350 . S
N2344 S2342 1.610 . S
N2344 C2345 1.351 . S
C2345 C2339 1.428 . S
C2345 N2344 1.351 . S
C2345 C2346 1.434 . S
C2346 C2337 1.429 . S
C2346 N2343 1.350 . S
C2346 C2345 1.434 . S
C2347 C2348 1.369 . S
C2347 C2349 1.419 . S
C2347 H2351 0.930 . S
C2348 C2347 1.369 . S
C2348 C2357 1.429 . S
C2349 C2347 1.419 . S
C2349 C2350 1.363 . S
C2349 H2352 0.929 . S
C2350 C2349 1.363 . S
C2350 C2356 1.428 . S
H2351 C2347 0.930 . S
H2352 C2349 0.929 . S
S2353 N2354 1.613 . S
S2353 N2355 1.610 . S
N2354 S2353 1.613 . S
N2354 C2357 1.350 . S
N2355 S2353 1.610 . S
N2355 C2356 1.351 . S
C2356 C2350 1.428 . S
C2356 N2355 1.351 . S
C2356 C2357 1.434 . S
C2357 C2348 1.429 . S
C2357 N2354 1.350 . S
C2357 C2356 1.434 . S
C2358 C2359 1.369 . S
C2358 C2360 1.419 . S
C2358 H2362 0.930 . S
C2359 C2358 1.369 . S
C2359 C2368 1.429 . S
C2360 C2358 1.419 . S
C2360 C2361 1.363 . S
C2360 H2363 0.929 . S
C2361 C2360 1.363 . S
C2361 C2367 1.428 . S
H2362 C2358 0.930 . S
H2363 C2360 0.929 . S
S2364 N2365 1.613 . S
S2364 N2366 1.610 . S
N2365 S2364 1.613 . S
N2365 C2368 1.350 . S
N2366 S2364 1.610 . S
N2366 C2367 1.351 . S
C2367 C2361 1.428 . S
C2367 N2366 1.351 . S
C2367 C2368 1.434 . S
C2368 C2359 1.429 . S
C2368 N2365 1.350 . S
C2368 C2367 1.434 . S
C2369 C2370 1.369 . S
C2369 C2371 1.419 . S
C2369 H2373 0.930 . S
C2370 C2369 1.369 . S
C2370 C2379 1.429 . S
C2371 C2369 1.419 . S
C2371 C2372 1.363 . S
C2371 H2374 0.929 . S
C2372 C2371 1.363 . S
C2372 C2378 1.428 . S
H2373 C2369 0.930 . S
H2374 C2371 0.929 . S
S2375 N2376 1.613 . S
S2375 N2377 1.610 . S
N2376 S2375 1.613 . S
N2376 C2379 1.350 . S
N2377 S2375 1.610 . S
N2377 C2378 1.351 . S
C2378 C2372 1.428 . S
C2378 N2377 1.351 . S
C2378 C2379 1.434 . S
C2379 C2370 1.429 . S
C2379 N2376 1.350 . S
C2379 C2378 1.434 . S
C2380 C2381 1.369 . S
C2380 C2382 1.419 1_565 S
C2380 H2384 0.930 . S
C2381 C2380 1.369 . S
C2381 C2390 1.429 . S
C2382 C2380 1.419 1_545 S
C2382 C2383 1.363 . S
C2382 H2385 0.929 . S
C2383 C2382 1.363 . S
C2383 C2389 1.428 . S
H2384 C2380 0.930 . S
H2385 C2382 0.929 . S
S2386 N2387 1.613 1_545 S
S2386 N2388 1.610 . S
N2387 S2386 1.613 1_565 S
N2387 C2390 1.350 . S
N2388 S2386 1.610 . S
N2388 C2389 1.351 . S
C2389 C2383 1.428 . S
C2389 N2388 1.351 . S
C2389 C2390 1.434 1_545 S
C2390 C2381 1.429 . S
C2390 N2387 1.350 . S
C2390 C2389 1.434 1_565 S
C2391 C2392 1.369 . S
C2391 C2393 1.419 . S
C2391 H2395 0.930 . S
C2392 C2391 1.369 . S
C2392 C2401 1.429 . S
C2393 C2391 1.419 . S
C2393 C2394 1.363 . S
C2393 H2396 0.929 . S
C2394 C2393 1.363 . S
C2394 C2400 1.428 . S
H2395 C2391 0.930 . S
H2396 C2393 0.929 . S
S2397 N2398 1.613 . S
S2397 N2399 1.610 . S
N2398 S2397 1.613 . S
N2398 C2401 1.350 . S
N2399 S2397 1.610 . S
N2399 C2400 1.351 . S
C2400 C2394 1.428 . S
C2400 N2399 1.351 . S
C2400 C2401 1.434 . S
C2401 C2392 1.429 . S
C2401 N2398 1.350 . S
C2401 C2400 1.434 . S
C2402 C2403 1.369 . S
C2402 C2404 1.419 1_556 S
C2402 H2406 0.930 . S
C2403 C2402 1.369 . S
C2403 C2412 1.456 . S
C2404 C2402 1.419 1_554 S
C2404 C2405 1.363 . S
C2404 H2407 0.929 . S
C2405 C2404 1.363 . S
C2405 C2411 1.428 . S
H2406 C2402 0.930 . S
H2407 C2404 0.929 . S
S2408 N2409 1.613 . S
S2408 N2410 1.610 . S
N2409 S2408 1.613 . S
N2409 C2412 1.347 1_554 S
N2410 S2408 1.610 . S
N2410 C2411 1.351 . S
C2411 C2405 1.428 . S
C2411 N2410 1.351 . S
C2411 C2412 1.406 1_554 S
C2412 C2403 1.456 . S
C2412 N2409 1.347 1_556 S
C2412 C2411 1.406 1_556 S
C2413 C2414 1.369 . S
C2413 C2415 1.419 . S
C2413 H2417 0.930 . S
C2414 C2413 1.369 . S
C2414 C2423 1.429 1_545 S
C2415 C2413 1.419 . S
C2415 C2416 1.363 1_545 S
C2415 H2418 0.929 . S
C2416 C2415 1.363 1_565 S
C2416 C2422 1.428 . S
H2417 C2413 0.930 . S
H2418 C2415 0.929 . S
S2419 N2420 1.613 . S
S2419 N2421 1.610 . S
N2420 S2419 1.613 . S
N2420 C2423 1.350 . S
N2421 S2419 1.610 . S
N2421 C2422 1.351 . S
C2422 C2416 1.428 . S
C2422 N2421 1.351 . S
C2422 C2423 1.434 . S
C2423 C2414 1.429 1_565 S
C2423 N2420 1.350 . S
C2423 C2422 1.434 . S
C2424 C2425 1.369 . S
C2424 C2426 1.419 . S
C2424 H2428 0.930 . S
C2425 C2424 1.369 . S
C2425 C2434 1.429 . S
C2426 C2424 1.419 . S
C2426 C2427 1.363 . S
C2426 H2429 0.929 . S
C2427 C2426 1.363 . S
C2427 C2433 1.428 . S
H2428 C2424 0.930 . S
H2429 C2426 0.929 . S
S2430 N2431 1.613 . S
S2430 N2432 1.610 . S
N2431 S2430 1.613 . S
N2431 C2434 1.350 . S
N2432 S2430 1.610 . S
N2432 C2433 1.351 . S
C2433 C2427 1.428 . S
C2433 N2432 1.351 . S
C2433 C2434 1.434 . S
C2434 C2425 1.429 . S
C2434 N2431 1.350 . S
C2434 C2433 1.434 . S
C2435 C2436 1.369 . S
C2435 C2437 1.419 . S
C2435 H2439 0.930 . S
C2436 C2435 1.369 . S
C2436 C2445 1.429 . S
C2437 C2435 1.419 . S
C2437 C2438 1.363 . S
C2437 H2440 0.929 . S
C2438 C2437 1.363 . S
C2438 C2444 1.428 . S
H2439 C2435 0.930 . S
H2440 C2437 0.929 . S
S2441 N2442 1.613 1_554 S
S2441 N2443 1.610 1_554 S
N2442 S2441 1.613 1_556 S
N2442 C2445 1.350 . S
N2443 S2441 1.610 1_556 S
N2443 C2444 1.351 . S
C2444 C2438 1.428 . S
C2444 N2443 1.351 . S
C2444 C2445 1.434 . S
C2445 C2436 1.429 . S
C2445 N2442 1.350 . S
C2445 C2444 1.434 . S
C2446 C2447 1.369 . S
C2446 C2448 1.419 . S
C2446 H2450 0.930 . S
C2447 C2446 1.369 . S
C2447 C2456 1.429 . S
C2448 C2446 1.419 . S
C2448 C2449 1.363 . S
C2448 H2451 0.929 . S
C2449 C2448 1.363 . S
C2449 C2455 1.428 . S
H2450 C2446 0.930 . S
H2451 C2448 0.929 . S
S2452 N2453 1.613 . S
S2452 N2454 1.610 . S
N2453 S2452 1.613 . S
N2453 C2456 1.350 . S
N2454 S2452 1.610 . S
N2454 C2455 1.351 . S
C2455 C2449 1.428 . S
C2455 N2454 1.351 . S
C2455 C2456 1.434 . S
C2456 C2447 1.429 . S
C2456 N2453 1.350 . S
C2456 C2455 1.434 . S
C2457 C2458 1.369 . S
C2457 C2459 1.419 . S
C2457 H2461 0.930 . S
C2458 C2457 1.369 . S
C2458 C2467 1.429 . S
C2459 C2457 1.419 . S
C2459 C2460 1.363 . S
C2459 H2462 0.929 . S
C2460 C2459 1.363 . S
C2460 C2466 1.428 . S
H2461 C2457 0.930 . S
H2462 C2459 0.929 . S
S2463 N2464 1.613 . S
S2463 N2465 1.610 1_565 S
N2464 S2463 1.613 . S
N2464 C2467 1.350 . S
N2465 S2463 1.610 1_545 S
N2465 C2466 1.351 1_545 S
C2466 C2460 1.428 . S
C2466 N2465 1.351 1_565 S
C2466 C2467 1.434 . S
C2467 C2458 1.429 . S
C2467 N2464 1.350 . S
C2467 C2466 1.434 . S
C2468 C2469 1.369 . S
C2468 C2470 1.419 . S
C2468 H2472 0.930 . S
C2469 C2468 1.369 . S
C2469 C2478 1.429 . S
C2470 C2468 1.419 . S
C2470 C2471 1.363 . S
C2470 H2473 0.929 . S
C2471 C2470 1.363 . S
C2471 C2477 1.428 . S
H2472 C2468 0.930 . S
H2473 C2470 0.929 . S
S2474 N2475 1.613 . S
S2474 N2476 1.610 . S
N2475 S2474 1.613 . S
N2475 C2478 1.350 . S
N2476 S2474 1.610 . S
N2476 C2477 1.351 . S
C2477 C2471 1.428 . S
C2477 N2476 1.351 . S
C2477 C2478 1.434 . S
C2478 C2469 1.429 . S
C2478 N2475 1.350 . S
C2478 C2477 1.434 . S
C2479 C2480 1.369 . S
C2479 C2481 1.419 . S
C2479 H2483 0.930 . S
C2480 C2479 1.369 . S
C2480 C2489 1.429 . S
C2481 C2479 1.419 . S
C2481 C2482 1.363 . S
C2481 H2484 0.929 1_455 S
C2482 C2481 1.363 . S
C2482 C2488 1.428 . S
H2483 C2479 0.930 . S
H2484 C2481 0.929 1_655 S
S2485 N2486 1.613 . S
S2485 N2487 1.610 . S
N2486 S2485 1.613 . S
N2486 C2489 1.350 . S
N2487 S2485 1.610 . S
N2487 C2488 1.351 . S
C2488 C2482 1.428 . S
C2488 N2487 1.351 . S
C2488 C2489 1.434 . S
C2489 C2480 1.429 . S
C2489 N2486 1.350 . S
C2489 C2488 1.434 . S
C2490 C2491 1.369 . S
C2490 C2492 1.419 . S
C2490 H2494 0.930 . S
C2491 C2490 1.369 . S
C2491 C2500 1.429 . S
C2492 C2490 1.419 . S
C2492 C2493 1.363 . S
C2492 H2495 0.929 . S
C2493 C2492 1.363 . S
C2493 C2499 1.428 . S
H2494 C2490 0.930 . S
H2495 C2492 0.929 . S
S2496 N2497 1.613 . S
S2496 N2498 1.610 . S
N2497 S2496 1.613 . S
N2497 C2500 1.350 . S
N2498 S2496 1.610 . S
N2498 C2499 1.351 . S
C2499 C2493 1.428 . S
C2499 N2498 1.351 . S
C2499 C2500 1.434 . S
C2500 C2491 1.429 . S
C2500 N2497 1.350 . S
C2500 C2499 1.434 . S
C2501 C2502 1.369 . S
C2501 C2503 1.419 . S
C2501 H2505 0.930 . S
C2502 C2501 1.369 . S
C2502 C2511 1.429 . S
C2503 C2501 1.419 . S
C2503 C2504 1.363 . S
C2503 H2506 0.929 . S
C2504 C2503 1.363 . S
C2504 C2510 1.428 . S
H2505 C2501 0.930 . S
H2506 C2503 0.929 . S
S2507 N2508 1.613 1_455 S
S2507 N2509 1.610 . S
N2508 S2507 1.613 1_655 S
N2508 C2511 1.350 . S
N2509 S2507 1.610 . S
N2509 C2510 1.351 1_455 S
C2510 C2504 1.428 . S
C2510 N2509 1.351 1_655 S
C2510 C2511 1.434 . S
C2511 C2502 1.429 . S
C2511 N2508 1.350 . S
C2511 C2510 1.434 . S
C2512 C2513 1.369 . S
C2512 C2514 1.419 . S
C2512 H2516 0.930 . S
C2513 C2512 1.369 . S
C2513 C2522 1.429 . S
C2514 C2512 1.419 . S
C2514 C2515 1.363 . S
C2514 H2517 0.929 . S
C2515 C2514 1.363 . S
C2515 C2521 1.428 . S
H2516 C2512 0.930 . S
H2517 C2514 0.929 . S
S2518 N2519 1.613 . S
S2518 N2520 1.610 . S
N2519 S2518 1.613 . S
N2519 C2522 1.350 . S
N2520 S2518 1.610 . S
N2520 C2521 1.351 . S
C2521 C2515 1.428 . S
C2521 N2520 1.351 . S
C2521 C2522 1.434 . S
C2522 C2513 1.429 . S
C2522 N2519 1.350 . S
C2522 C2521 1.434 . S
C2523 C2524 1.369 . S
C2523 C2525 1.419 . S
C2523 H2527 0.930 . S
C2524 C2523 1.369 . S
C2524 C2533 1.429 . S
C2525 C2523 1.419 . S
C2525 C2526 1.363 . S
C2525 H2528 0.929 . S
C2526 C2525 1.363 . S
C2526 C2532 1.428 . S
H2527 C2523 0.930 . S
H2528 C2525 0.929 . S
S2529 N2530 1.613 . S
S2529 N2531 1.610 1_556 S
N2530 S2529 1.613 . S
N2530 C2533 1.350 1_556 S
N2531 S2529 1.610 1_554 S
N2531 C2532 1.351 . S
C2532 C2526 1.428 . S
C2532 N2531 1.351 . S
C2532 C2533 1.434 . S
C2533 C2524 1.429 . S
C2533 N2530 1.350 1_554 S
C2533 C2532 1.434 . S
C2534 C2535 1.369 . S
C2534 C2536 1.419 . S
C2534 H2538 0.930 . S
C2535 C2534 1.369 . S
C2535 C2544 1.429 . S
C2536 C2534 1.419 . S
C2536 C2537 1.363 . S
C2536 H2539 0.929 . S
C2537 C2536 1.363 . S
C2537 C2543 1.428 . S
H2538 C2534 0.930 . S
H2539 C2536 0.929 . S
S2540 N2541 1.613 . S
S2540 N2542 1.610 . S
N2541 S2540 1.613 . S
N2541 C2544 1.350 . S
N2542 S2540 1.610 . S
N2542 C2543 1.351 . S
C2543 C2537 1.428 . S
C2543 N2542 1.351 . S
C2543 C2544 1.434 . S
C2544 C2535 1.429 . S
C2544 N2541 1.350 . S
C2544 C2543 1.434 . S
C2545 C2546 1.369 . S
C2545 C2547 1.419 . S
C2545 H2549 0.930 . S
C2546 C2545 1.369 . S
C2546 C2555 1.429 . S
C2547 C2545 1.419 . S
C2547 C2548 1.363 . S
C2547 H2550 0.929 . S
C2548 C2547 1.363 . S
C2548 C2554 1.428 . S
H2549 C2545 0.930 . S
H2550 C2547 0.929 . S
S2551 N2552 1.613 . S
S2551 N2553 1.610 . S
N2552 S2551 1.613 . S
N2552 C2555 1.350 . S
N2553 S2551 1.610 . S
N2553 C2554 1.351 . S
C2554 C2548 1.428 . S
C2554 N2553 1.351 . S
C2554 C2555 1.434 . S
C2555 C2546 1.429 . S
C2555 N2552 1.350 . S
C2555 C2554 1.434 . S
C2556 C2557 1.369 . S
C2556 C2558 1.419 . S
C2556 H2560 0.930 . S
C2557 C2556 1.369 . S
C2557 C2566 1.429 . S
C2558 C2556 1.419 . S
C2558 C2559 1.363 . S
C2558 H2561 0.929 . S
C2559 C2558 1.363 . S
C2559 C2565 1.428 . S
H2560 C2556 0.930 . S
H2561 C2558 0.929 . S
S2562 N2563 1.613 . S
S2562 N2564 1.610 . S
N2563 S2562 1.613 . S
N2563 C2566 1.350 . S
N2564 S2562 1.610 . S
N2564 C2565 1.351 . S
C2565 C2559 1.428 . S
C2565 N2564 1.351 . S
C2565 C2566 1.434 . S
C2566 C2557 1.429 . S
C2566 N2563 1.350 . S
C2566 C2565 1.434 . S
C2567 C2568 1.369 . S
C2567 C2569 1.419 . S
C2567 H2571 0.930 . S
C2568 C2567 1.369 . S
C2568 C2577 1.429 . S
C2569 C2567 1.419 . S
C2569 C2570 1.363 . S
C2569 H2572 0.929 . S
C2570 C2569 1.363 . S
C2570 C2576 1.428 . S
H2571 C2567 0.930 . S
H2572 C2569 0.929 . S
S2573 N2574 1.613 1_455 S
S2573 N2575 1.614 . S
N2574 S2573 1.613 1_655 S
N2574 C2577 1.350 1_655 S
N2575 S2573 1.614 . S
N2575 C2576 1.356 . S
C2576 C2570 1.428 . S
C2576 N2575 1.356 . S
C2576 C2577 1.434 . S
C2577 C2568 1.429 . S
C2577 N2574 1.350 1_455 S
C2577 C2576 1.434 . S
C2578 C2579 1.369 . S
C2578 C2580 1.419 . S
C2578 H2582 0.930 . S
C2579 C2578 1.369 . S
C2579 C2588 1.429 . S
C2580 C2578 1.419 . S
C2580 C2581 1.363 . S
C2580 H2583 0.929 . S
C2581 C2580 1.363 . S
C2581 C2587 1.428 . S
H2582 C2578 0.930 . S
H2583 C2580 0.929 . S
S2584 N2585 1.613 . S
S2584 N2586 1.610 . S
N2585 S2584 1.613 . S
N2585 C2588 1.350 . S
N2586 S2584 1.610 . S
N2586 C2587 1.351 . S
C2587 C2581 1.428 . S
C2587 N2586 1.351 . S
C2587 C2588 1.434 . S
C2588 C2579 1.429 . S
C2588 N2585 1.350 . S
C2588 C2587 1.434 . S
C2589 C2590 1.369 . S
C2589 C2591 1.419 . S
C2589 H2593 0.930 . S
C2590 C2589 1.369 . S
C2590 C2599 1.429 . S
C2591 C2589 1.419 . S
C2591 C2592 1.363 . S
C2591 H2594 0.929 . S
C2592 C2591 1.363 . S
C2592 C2598 1.428 . S
H2593 C2589 0.930 . S
H2594 C2591 0.929 . S
S2595 N2596 1.613 1_554 S
S2595 N2597 1.610 1_455 S
N2596 S2595 1.613 1_556 S
N2596 C2599 1.350 1_455 S
N2597 S2595 1.610 1_655 S
N2597 C2598 1.351 1_554 S
C2598 C2592 1.428 . S
C2598 N2597 1.351 1_556 S
C2598 C2599 1.434 . S
C2599 C2590 1.429 . S
C2599 N2596 1.350 1_655 S
C2599 C2598 1.434 . S
C2600 C2601 1.369 . S
C2600 C2602 1.419 . S
C2600 H2604 0.930 . S
C2601 C2600 1.369 . S
C2601 C2610 1.429 . S
C2602 C2600 1.419 . S
C2602 C2603 1.363 . S
C2602 H2605 0.929 . S
C2603 C2602 1.363 . S
C2603 C2609 1.428 . S
H2604 C2600 0.930 . S
H2605 C2602 0.929 . S
S2606 N2607 1.613 . S
S2606 N2608 1.610 . S
N2607 S2606 1.613 . S
N2607 C2610 1.350 . S
N2608 S2606 1.610 . S
N2608 C2609 1.351 . S
C2609 C2603 1.428 . S
C2609 N2608 1.351 . S
C2609 C2610 1.434 . S
C2610 C2601 1.429 . S
C2610 N2607 1.350 . S
C2610 C2609 1.434 . S
C2611 C2612 1.369 . S
C2611 C2613 1.419 . S
C2611 H2615 0.930 . S
C2612 C2611 1.369 . S
C2612 C2621 1.429 . S
C2613 C2611 1.419 . S
C2613 C2614 1.363 . S
C2613 H2616 0.929 . S
C2614 C2613 1.363 . S
C2614 C2620 1.428 . S
H2615 C2611 0.930 . S
H2616 C2613 0.929 . S
S2617 N2618 1.613 . S
S2617 N2619 1.610 . S
N2618 S2617 1.613 . S
N2618 C2621 1.350 . S
N2619 S2617 1.610 . S
N2619 C2620 1.351 . S
C2620 C2614 1.428 . S
C2620 N2619 1.351 . S
C2620 C2621 1.434 . S
C2621 C2612 1.429 . S
C2621 N2618 1.350 . S
C2621 C2620 1.434 . S
C2622 C2623 1.369 . S
C2622 C2624 1.419 . S
C2622 H2626 0.930 . S
C2623 C2622 1.369 . S
C2623 C2632 1.429 . S
C2624 C2622 1.419 . S
C2624 C2625 1.363 . S
C2624 H2627 0.929 . S
C2625 C2624 1.363 . S
C2625 C2631 1.428 . S
H2626 C2622 0.930 . S
H2627 C2624 0.929 . S
S2628 N2629 1.613 . S
S2628 N2630 1.610 . S
N2629 S2628 1.613 . S
N2629 C2632 1.350 . S
N2630 S2628 1.610 . S
N2630 C2631 1.351 . S
C2631 C2625 1.428 . S
C2631 N2630 1.351 . S
C2631 C2632 1.434 . S
C2632 C2623 1.429 . S
C2632 N2629 1.350 . S
C2632 C2631 1.434 . S
C2633 C2634 1.369 . S
C2633 C2635 1.419 . S
C2633 H2637 0.930 . S
C2634 C2633 1.369 . S
C2634 C2643 1.429 . S
C2635 C2633 1.419 . S
C2635 C2636 1.363 . S
C2635 H2638 0.929 . S
C2636 C2635 1.363 . S
C2636 C2642 1.428 . S
H2637 C2633 0.930 . S
H2638 C2635 0.929 . S
S2639 N2640 1.613 . S
S2639 N2641 1.610 . S
N2640 S2639 1.613 . S
N2640 C2643 1.350 . S
N2641 S2639 1.610 . S
N2641 C2642 1.351 . S
C2642 C2636 1.428 . S
C2642 N2641 1.351 . S
C2642 C2643 1.434 . S
C2643 C2634 1.429 . S
C2643 N2640 1.350 . S
C2643 C2642 1.434 . S
C2644 C2645 1.369 . S
C2644 C2646 1.419 . S
C2644 H2648 0.930 . S
C2645 C2644 1.369 . S
C2645 C2654 1.429 . S
C2646 C2644 1.419 . S
C2646 C2647 1.363 . S
C2646 H2649 0.929 . S
C2647 C2646 1.363 . S
C2647 C2653 1.428 . S
H2648 C2644 0.930 . S
H2649 C2646 0.929 . S
S2650 N2651 1.613 . S
S2650 N2652 1.610 . S
N2651 S2650 1.613 . S
N2651 C2654 1.350 . S
N2652 S2650 1.610 . S
N2652 C2653 1.351 . S
C2653 C2647 1.428 . S
C2653 N2652 1.351 . S
C2653 C2654 1.434 . S
C2654 C2645 1.429 . S
C2654 N2651 1.350 . S
C2654 C2653 1.434 . S
C2655 C2656 1.369 . S
C2655 C2657 1.419 . S
C2655 H2659 0.930 . S
C2656 C2655 1.369 . S
C2656 C2665 1.429 . S
C2657 C2655 1.419 . S
C2657 C2658 1.363 . S
C2657 H2660 0.929 . S
C2658 C2657 1.363 . S
C2658 C2664 1.428 . S
H2659 C2655 0.930 . S
H2660 C2657 0.929 . S
S2661 N2662 1.613 . S
S2661 N2663 1.610 . S
N2662 S2661 1.613 . S
N2662 C2665 1.350 . S
N2663 S2661 1.610 . S
N2663 C2664 1.351 . S
C2664 C2658 1.428 . S
C2664 N2663 1.351 . S
C2664 C2665 1.434 . S
C2665 C2656 1.429 . S
C2665 N2662 1.350 . S
C2665 C2664 1.434 . S
C2666 C2667 1.369 . S
C2666 C2668 1.419 . S
C2666 H2670 0.930 . S
C2667 C2666 1.369 . S
C2667 C2676 1.429 . S
C2668 C2666 1.419 . S
C2668 C2669 1.363 . S
C2668 H2671 0.929 . S
C2669 C2668 1.363 . S
C2669 C2675 1.428 . S
H2670 C2666 0.930 . S
H2671 C2668 0.929 . S
S2672 N2673 1.613 . S
S2672 N2674 1.610 . S
N2673 S2672 1.613 . S
N2673 C2676 1.350 . S
N2674 S2672 1.610 . S
N2674 C2675 1.351 . S
C2675 C2669 1.428 . S
C2675 N2674 1.351 . S
C2675 C2676 1.434 . S
C2676 C2667 1.429 . S
C2676 N2673 1.350 . S
C2676 C2675 1.434 . S
C2677 C2678 1.369 . S
C2677 C2679 1.419 . S
C2677 H2681 0.930 . S
C2678 C2677 1.369 . S
C2678 C2687 1.429 . S
C2679 C2677 1.419 . S
C2679 C2680 1.363 . S
C2679 H2682 0.929 1_545 S
C2680 C2679 1.363 . S
C2680 C2686 1.428 . S
H2681 C2677 0.930 . S
H2682 C2679 0.929 1_565 S
S2683 N2684 1.613 . S
S2683 N2685 1.610 . S
N2684 S2683 1.613 . S
N2684 C2687 1.350 . S
N2685 S2683 1.610 . S
N2685 C2686 1.351 . S
C2686 C2680 1.428 . S
C2686 N2685 1.351 . S
C2686 C2687 1.434 . S
C2687 C2678 1.429 . S
C2687 N2684 1.350 . S
C2687 C2686 1.434 . S
C2688 C2689 1.369 . S
C2688 C2690 1.419 . S
C2688 H2692 0.930 . S
C2689 C2688 1.369 . S
C2689 C2698 1.429 . S
C2690 C2688 1.419 . S
C2690 C2691 1.363 . S
C2690 H2693 0.929 . S
C2691 C2690 1.363 . S
C2691 C2697 1.428 . S
H2692 C2688 0.930 . S
H2693 C2690 0.929 . S
S2694 N2695 1.613 . S
S2694 N2696 1.610 . S
N2695 S2694 1.613 . S
N2695 C2698 1.350 . S
N2696 S2694 1.610 . S
N2696 C2697 1.351 . S
C2697 C2691 1.428 . S
C2697 N2696 1.351 . S
C2697 C2698 1.434 . S
C2698 C2689 1.429 . S
C2698 N2695 1.350 . S
C2698 C2697 1.434 . S
C2699 C2700 1.369 . S
C2699 C2701 1.419 . S
C2699 H2703 0.930 . S
C2700 C2699 1.369 . S
C2700 C2709 1.424 1_655 S
C2701 C2699 1.419 . S
C2701 C2702 1.363 . S
C2701 H2704 0.929 . S
C2702 C2701 1.363 . S
C2702 C2708 1.428 . S
H2703 C2699 0.930 . S
H2704 C2701 0.929 . S
S2705 N2706 1.613 1_565 S
S2705 N2707 1.610 1_455 S
N2706 S2705 1.613 1_545 S
N2706 C2709 1.363 . S
N2707 S2705 1.610 1_655 S
N2707 C2708 1.351 1_565 S
C2708 C2702 1.428 . S
C2708 N2707 1.351 1_545 S
C2708 C2709 1.426 1_655 S
C2709 C2700 1.424 1_455 S
C2709 N2706 1.363 . S
C2709 C2708 1.426 1_455 S
C2710 C2711 1.369 . S
C2710 C2712 1.419 . S
C2710 H2714 0.930 . S
C2711 C2710 1.369 . S
C2711 C2720 1.429 . S
C2712 C2710 1.419 . S
C2712 C2713 1.363 . S
C2712 H2715 0.929 . S
C2713 C2712 1.363 . S
C2713 C2719 1.428 . S
H2714 C2710 0.930 . S
H2715 C2712 0.929 . S
S2716 N2717 1.613 . S
S2716 N2718 1.610 . S
N2717 S2716 1.613 . S
N2717 C2720 1.350 . S
N2718 S2716 1.610 . S
N2718 C2719 1.351 . S
C2719 C2713 1.428 . S
C2719 N2718 1.351 . S
C2719 C2720 1.434 . S
C2720 C2711 1.429 . S
C2720 N2717 1.350 . S
C2720 C2719 1.434 . S
C2721 C2722 1.369 . S
C2721 C2723 1.419 . S
C2721 H2725 0.930 . S
C2722 C2721 1.369 . S
C2722 C2731 1.429 . S
C2723 C2721 1.419 . S
C2723 C2724 1.363 . S
C2723 H2726 0.929 . S
C2724 C2723 1.363 . S
C2724 C2730 1.419 1_455 S
H2725 C2721 0.930 . S
H2726 C2723 0.929 . S
S2727 N2728 1.613 1_655 S
S2727 N2729 1.610 . S
N2728 S2727 1.613 1_455 S
N2728 C2731 1.350 . S
N2729 S2727 1.610 . S
N2729 C2730 1.377 . S
C2730 C2724 1.419 1_655 S
C2730 N2729 1.377 . S
C2730 C2731 1.418 1_655 S
C2731 C2722 1.429 . S
C2731 N2728 1.350 . S
C2731 C2730 1.418 1_455 S
C2732 C2733 1.369 . S
C2732 C2734 1.419 . S
C2732 H2736 0.930 . S
C2733 C2732 1.369 . S
C2733 C2742 1.429 . S
C2734 C2732 1.419 . S
C2734 C2735 1.363 . S
C2734 H2737 0.929 . S
C2735 C2734 1.363 . S
C2735 C2741 1.428 . S
H2736 C2732 0.930 . S
H2737 C2734 0.929 . S
S2738 N2739 1.613 . S
S2738 N2740 1.610 . S
N2739 S2738 1.613 . S
N2739 C2742 1.350 . S
N2740 S2738 1.610 . S
N2740 C2741 1.351 . S
C2741 C2735 1.428 . S
C2741 N2740 1.351 . S
C2741 C2742 1.434 . S
C2742 C2733 1.429 . S
C2742 N2739 1.350 . S
C2742 C2741 1.434 . S
C2743 C2744 1.369 . S
C2743 C2745 1.419 . S
C2743 H2747 0.930 . S
C2744 C2743 1.369 . S
C2744 C2753 1.429 . S
C2745 C2743 1.419 . S
C2745 C2746 1.363 . S
C2745 H2748 0.929 . S
C2746 C2745 1.363 . S
C2746 C2752 1.428 . S
H2747 C2743 0.930 . S
H2748 C2745 0.929 . S
S2749 N2750 1.613 . S
S2749 N2751 1.610 1_565 S
N2750 S2749 1.613 . S
N2750 C2753 1.350 1_565 S
N2751 S2749 1.610 1_545 S
N2751 C2752 1.351 . S
C2752 C2746 1.428 . S
C2752 N2751 1.351 . S
C2752 C2753 1.434 . S
C2753 C2744 1.429 . S
C2753 N2750 1.350 1_545 S
C2753 C2752 1.434 . S
C2754 C2755 1.369 . S
C2754 C2756 1.419 . S
C2754 H2758 0.930 . S
C2755 C2754 1.369 . S
C2755 C2764 1.429 . S
C2756 C2754 1.419 . S
C2756 C2757 1.363 . S
C2756 H2759 0.929 . S
C2757 C2756 1.363 . S
C2757 C2763 1.428 . S
H2758 C2754 0.930 . S
H2759 C2756 0.929 . S
S2760 N2761 1.613 . S
S2760 N2762 1.610 . S
N2761 S2760 1.613 . S
N2761 C2764 1.350 . S
N2762 S2760 1.610 . S
N2762 C2763 1.351 . S
C2763 C2757 1.428 . S
C2763 N2762 1.351 . S
C2763 C2764 1.434 . S
C2764 C2755 1.429 . S
C2764 N2761 1.350 . S
C2764 C2763 1.434 . S
C2765 C2766 1.369 . S
C2765 C2767 1.419 . S
C2765 H2769 0.930 . S
C2766 C2765 1.369 . S
C2766 C2775 1.429 . S
C2767 C2765 1.419 . S
C2767 C2768 1.363 . S
C2767 H2770 0.929 . S
C2768 C2767 1.363 . S
C2768 C2774 1.428 . S
H2769 C2765 0.930 . S
H2770 C2767 0.929 . S
S2771 N2772 1.613 . S
S2771 N2773 1.610 . S
N2772 S2771 1.613 . S
N2772 C2775 1.350 . S
N2773 S2771 1.610 . S
N2773 C2774 1.351 . S
C2774 C2768 1.428 . S
C2774 N2773 1.351 . S
C2774 C2775 1.434 . S
C2775 C2766 1.429 . S
C2775 N2772 1.350 . S
C2775 C2774 1.434 . S
C2776 C2777 1.369 . S
C2776 C2778 1.419 . S
C2776 H2780 0.930 . S
C2777 C2776 1.369 . S
C2777 C2786 1.429 . S
C2778 C2776 1.419 . S
C2778 C2779 1.363 . S
C2778 H2781 0.929 . S
C2779 C2778 1.363 . S
C2779 C2785 1.428 . S
H2780 C2776 0.930 . S
H2781 C2778 0.929 . S
S2782 N2783 1.613 . S
S2782 N2784 1.610 . S
N2783 S2782 1.613 . S
N2783 C2786 1.350 . S
N2784 S2782 1.610 . S
N2784 C2785 1.351 . S
C2785 C2779 1.428 . S
C2785 N2784 1.351 . S
C2785 C2786 1.434 . S
C2786 C2777 1.429 . S
C2786 N2783 1.350 . S
C2786 C2785 1.434 . S
C2787 C2788 1.369 . S
C2787 C2789 1.419 . S
C2787 H2791 0.930 1_655 S
C2788 C2787 1.369 . S
C2788 C2797 1.429 . S
C2789 C2787 1.419 . S
C2789 C2790 1.363 . S
C2789 H2792 0.929 . S
C2790 C2789 1.363 . S
C2790 C2796 1.428 . S
H2791 C2787 0.930 1_455 S
H2792 C2789 0.929 . S
S2793 N2794 1.613 . S
S2793 N2795 1.610 . S
N2794 S2793 1.613 . S
N2794 C2797 1.350 . S
N2795 S2793 1.610 . S
N2795 C2796 1.351 . S
C2796 C2790 1.428 . S
C2796 N2795 1.351 . S
C2796 C2797 1.434 . S
C2797 C2788 1.429 . S
C2797 N2794 1.350 . S
C2797 C2796 1.434 . S
C2798 C2799 1.369 . S
C2798 C2800 1.419 . S
C2798 H2802 0.930 . S
C2799 C2798 1.369 . S
C2799 C2808 1.429 . S
C2800 C2798 1.419 . S
C2800 C2801 1.363 . S
C2800 H2803 0.929 . S
C2801 C2800 1.363 . S
C2801 C2807 1.428 . S
H2802 C2798 0.930 . S
H2803 C2800 0.929 . S
S2804 N2805 1.613 . S
S2804 N2806 1.610 . S
N2805 S2804 1.613 . S
N2805 C2808 1.350 . S
N2806 S2804 1.610 . S
N2806 C2807 1.351 . S
C2807 C2801 1.428 . S
C2807 N2806 1.351 . S
C2807 C2808 1.434 . S
C2808 C2799 1.429 . S
C2808 N2805 1.350 . S
C2808 C2807 1.434 . S
C2809 C2810 1.369 . S
C2809 C2811 1.419 . S
C2809 H2813 0.930 . S
C2810 C2809 1.369 . S
C2810 C2819 1.429 . S
C2811 C2809 1.419 . S
C2811 C2812 1.363 . S
C2811 H2814 0.929 . S
C2812 C2811 1.363 . S
C2812 C2818 1.428 . S
H2813 C2809 0.930 . S
H2814 C2811 0.929 . S
S2815 N2816 1.613 1_655 S
S2815 N2817 1.610 . S
N2816 S2815 1.613 1_455 S
N2816 C2819 1.350 . S
N2817 S2815 1.610 . S
N2817 C2818 1.351 1_655 S
C2818 C2812 1.428 . S
C2818 N2817 1.351 1_455 S
C2818 C2819 1.434 . S
C2819 C2810 1.429 . S
C2819 N2816 1.350 . S
C2819 C2818 1.434 . S
C2820 C2821 1.369 . S
C2820 C2822 1.419 . S
C2820 H2824 0.930 . S
C2821 C2820 1.369 . S
C2821 C2830 1.429 . S
C2822 C2820 1.419 . S
C2822 C2823 1.363 . S
C2822 H2825 0.929 . S
C2823 C2822 1.363 . S
C2823 C2829 1.428 . S
H2824 C2820 0.930 . S
H2825 C2822 0.929 . S
S2826 N2827 1.613 . S
S2826 N2828 1.610 . S
N2827 S2826 1.613 . S
N2827 C2830 1.350 . S
N2828 S2826 1.610 . S
N2828 C2829 1.351 . S
C2829 C2823 1.428 . S
C2829 N2828 1.351 . S
C2829 C2830 1.434 . S
C2830 C2821 1.429 . S
C2830 N2827 1.350 . S
C2830 C2829 1.434 . S
C2831 C2832 1.369 . S
C2831 C2833 1.419 . S
C2831 H2835 0.930 . S
C2832 C2831 1.369 . S
C2832 C2841 1.429 . S
C2833 C2831 1.419 . S
C2833 C2834 1.363 . S
C2833 H2836 0.929 . S
C2834 C2833 1.363 . S
C2834 C2840 1.428 . S
H2835 C2831 0.930 . S
H2836 C2833 0.929 . S
S2837 N2838 1.613 . S
S2837 N2839 1.610 . S
N2838 S2837 1.613 . S
N2838 C2841 1.350 . S
N2839 S2837 1.610 . S
N2839 C2840 1.351 . S
C2840 C2834 1.428 . S
C2840 N2839 1.351 . S
C2840 C2841 1.434 . S
C2841 C2832 1.429 . S
C2841 N2838 1.350 . S
C2841 C2840 1.434 . S
C2842 C2843 1.369 . S
C2842 C2844 1.419 . S
C2842 H2846 0.930 . S
C2843 C2842 1.369 . S
C2843 C2852 1.429 . S
C2844 C2842 1.419 . S
C2844 C2845 1.363 . S
C2844 H2847 0.929 . S
C2845 C2844 1.363 . S
C2845 C2851 1.428 . S
H2846 C2842 0.930 . S
H2847 C2844 0.929 . S
S2848 N2849 1.613 . S
S2848 N2850 1.610 . S
N2849 S2848 1.613 . S
N2849 C2852 1.350 . S
N2850 S2848 1.610 . S
N2850 C2851 1.351 . S
C2851 C2845 1.428 . S
C2851 N2850 1.351 . S
C2851 C2852 1.434 . S
C2852 C2843 1.429 . S
C2852 N2849 1.350 . S
C2852 C2851 1.434 . S
C2853 C2854 1.369 . S
C2853 C2855 1.419 . S
C2853 H2857 0.930 . S
C2854 C2853 1.369 . S
C2854 C2863 1.429 . S
C2855 C2853 1.419 . S
C2855 C2856 1.363 . S
C2855 H2858 0.929 . S
C2856 C2855 1.363 . S
C2856 C2862 1.428 . S
H2857 C2853 0.930 . S
H2858 C2855 0.929 . S
S2859 N2860 1.613 . S
S2859 N2861 1.610 . S
N2860 S2859 1.613 . S
N2860 C2863 1.350 . S
N2861 S2859 1.610 . S
N2861 C2862 1.351 . S
C2862 C2856 1.428 . S
C2862 N2861 1.351 . S
C2862 C2863 1.434 . S
C2863 C2854 1.429 . S
C2863 N2860 1.350 . S
C2863 C2862 1.434 . S
C2864 C2865 1.369 . S
C2864 C2866 1.419 . S
C2864 H2868 0.930 . S
C2865 C2864 1.369 . S
C2865 C2874 1.429 . S
C2866 C2864 1.419 . S
C2866 C2867 1.363 . S
C2866 H2869 0.929 . S
C2867 C2866 1.363 . S
C2867 C2873 1.428 . S
H2868 C2864 0.930 . S
H2869 C2866 0.929 . S
S2870 N2871 1.613 . S
S2870 N2872 1.610 . S
N2871 S2870 1.613 . S
N2871 C2874 1.350 . S
N2872 S2870 1.610 . S
N2872 C2873 1.351 . S
C2873 C2867 1.428 . S
C2873 N2872 1.351 . S
C2873 C2874 1.434 . S
C2874 C2865 1.429 . S
C2874 N2871 1.350 . S
C2874 C2873 1.434 . S
C2875 C2876 1.369 . S
C2875 C2877 1.419 . S
C2875 H2879 0.930 . S
C2876 C2875 1.369 . S
C2876 C2885 1.429 . S
C2877 C2875 1.419 . S
C2877 C2878 1.363 . S
C2877 H2880 0.929 . S
C2878 C2877 1.363 . S
C2878 C2884 1.428 . S
H2879 C2875 0.930 . S
H2880 C2877 0.929 . S
S2881 N2882 1.613 . S
S2881 N2883 1.610 . S
N2882 S2881 1.613 . S
N2882 C2885 1.350 . S
N2883 S2881 1.610 . S
N2883 C2884 1.351 . S
C2884 C2878 1.428 . S
C2884 N2883 1.351 . S
C2884 C2885 1.434 . S
C2885 C2876 1.429 . S
C2885 N2882 1.350 . S
C2885 C2884 1.434 . S
C2886 C2887 1.369 . S
C2886 C2888 1.419 . S
C2886 H2890 0.930 . S
C2887 C2886 1.369 . S
C2887 C2896 1.430 1_545 S
C2888 C2886 1.419 . S
C2888 C2889 1.363 . S
C2888 H2891 0.929 . S
C2889 C2888 1.363 . S
C2889 C2895 1.428 . S
H2890 C2886 0.930 . S
H2891 C2888 0.929 . S
S2892 N2893 1.613 . S
S2892 N2894 1.610 1_565 S
N2893 S2892 1.613 . S
N2893 C2896 1.346 . S
N2894 S2892 1.610 1_545 S
N2894 C2895 1.351 . S
C2895 C2889 1.428 . S
C2895 N2894 1.351 . S
C2895 C2896 1.437 1_545 S
C2896 C2887 1.430 1_565 S
C2896 N2893 1.346 . S
C2896 C2895 1.437 1_565 S
C2897 C2898 1.369 . S
C2897 C2899 1.419 . S
C2897 H2901 0.930 . S
C2898 C2897 1.369 . S
C2898 C2907 1.429 . S
C2899 C2897 1.419 . S
C2899 C2900 1.363 . S
C2899 H2902 0.929 . S
C2900 C2899 1.363 . S
C2900 C2906 1.428 . S
H2901 C2897 0.930 . S
H2902 C2899 0.929 . S
S2903 N2904 1.613 . S
S2903 N2905 1.610 . S
N2904 S2903 1.613 . S
N2904 C2907 1.350 . S
N2905 S2903 1.610 . S
N2905 C2906 1.351 . S
C2906 C2900 1.428 . S
C2906 N2905 1.351 . S
C2906 C2907 1.434 . S
C2907 C2898 1.429 . S
C2907 N2904 1.350 . S
C2907 C2906 1.434 . S
C2908 C2909 1.369 . S
C2908 C2910 1.419 . S
C2908 H2912 0.930 . S
C2909 C2908 1.369 . S
C2909 C2918 1.429 . S
C2910 C2908 1.419 . S
C2910 C2911 1.363 . S
C2910 H2913 0.929 . S
C2911 C2910 1.363 . S
C2911 C2917 1.428 . S
H2912 C2908 0.930 . S
H2913 C2910 0.929 . S
S2914 N2915 1.613 1_554 S
S2914 N2916 1.610 1_545 S
N2915 S2914 1.613 1_556 S
N2915 C2918 1.350 1_545 S
N2916 S2914 1.610 1_565 S
N2916 C2917 1.351 1_554 S
C2917 C2911 1.428 . S
C2917 N2916 1.351 1_556 S
C2917 C2918 1.434 . S
C2918 C2909 1.429 . S
C2918 N2915 1.350 1_565 S
C2918 C2917 1.434 . S
C2919 C2920 1.369 . S
C2919 C2921 1.419 . S
C2919 H2923 0.930 . S
C2920 C2919 1.369 . S
C2920 C2929 1.429 . S
C2921 C2919 1.419 . S
C2921 C2922 1.363 . S
C2921 H2924 0.929 . S
C2922 C2921 1.363 . S
C2922 C2928 1.428 . S
H2923 C2919 0.930 . S
H2924 C2921 0.929 . S
S2925 N2926 1.613 . S
S2925 N2927 1.610 . S
N2926 S2925 1.613 . S
N2926 C2929 1.350 . S
N2927 S2925 1.610 . S
N2927 C2928 1.351 . S
C2928 C2922 1.428 . S
C2928 N2927 1.351 . S
C2928 C2929 1.434 . S
C2929 C2920 1.429 . S
C2929 N2926 1.350 . S
C2929 C2928 1.434 . S
C2930 C2931 1.369 . S
C2930 C2932 1.419 . S
C2930 H2934 0.930 . S
C2931 C2930 1.369 . S
C2931 C2940 1.429 . S
C2932 C2930 1.419 . S
C2932 C2933 1.363 . S
C2932 H2935 0.929 . S
C2933 C2932 1.363 . S
C2933 C2939 1.428 . S
H2934 C2930 0.930 . S
H2935 C2932 0.929 . S
S2936 N2937 1.613 1_556 S
S2936 N2938 1.610 1_545 S
N2937 S2936 1.613 1_554 S
N2937 C2940 1.350 1_545 S
N2938 S2936 1.610 1_565 S
N2938 C2939 1.351 1_556 S
C2939 C2933 1.428 . S
C2939 N2938 1.351 1_554 S
C2939 C2940 1.434 . S
C2940 C2931 1.429 . S
C2940 N2937 1.350 1_565 S
C2940 C2939 1.434 . S
C2941 C2942 1.369 . S
C2941 C2943 1.419 . S
C2941 H2945 0.930 . S
C2942 C2941 1.369 . S
C2942 C2951 1.429 . S
C2943 C2941 1.419 . S
C2943 C2944 1.363 . S
C2943 H2946 0.929 . S
C2944 C2943 1.363 . S
C2944 C2950 1.428 . S
H2945 C2941 0.930 . S
H2946 C2943 0.929 . S
S2947 N2948 1.613 . S
S2947 N2949 1.610 . S
N2948 S2947 1.613 . S
N2948 C2951 1.350 . S
N2949 S2947 1.610 . S
N2949 C2950 1.351 . S
C2950 C2944 1.428 . S
C2950 N2949 1.351 . S
C2950 C2951 1.434 . S
C2951 C2942 1.429 . S
C2951 N2948 1.350 . S
C2951 C2950 1.434 . S
C2952 C2953 1.369 . S
C2952 C2954 1.419 . S
C2952 H2956 0.930 . S
C2953 C2952 1.369 . S
C2953 C2962 1.429 . S
C2954 C2952 1.419 . S
C2954 C2955 1.363 . S
C2954 H2957 0.929 . S
C2955 C2954 1.363 . S
C2955 C2961 1.428 . S
H2956 C2952 0.930 . S
H2957 C2954 0.929 . S
S2958 N2959 1.613 . S
S2958 N2960 1.610 . S
N2959 S2958 1.613 . S
N2959 C2962 1.350 . S
N2960 S2958 1.610 . S
N2960 C2961 1.351 . S
C2961 C2955 1.428 . S
C2961 N2960 1.351 . S
C2961 C2962 1.434 . S
C2962 C2953 1.429 . S
C2962 N2959 1.350 . S
C2962 C2961 1.434 . S
C2963 C2964 1.369 . S
C2963 C2965 1.419 . S
C2963 H2967 0.930 . S
C2964 C2963 1.369 . S
C2964 C2973 1.429 . S
C2965 C2963 1.419 . S
C2965 C2966 1.363 . S
C2965 H2968 0.929 . S
C2966 C2965 1.363 . S
C2966 C2972 1.428 . S
H2967 C2963 0.930 . S
H2968 C2965 0.929 . S
S2969 N2970 1.613 . S
S2969 N2971 1.610 . S
N2970 S2969 1.613 . S
N2970 C2973 1.350 . S
N2971 S2969 1.610 . S
N2971 C2972 1.351 . S
C2972 C2966 1.428 . S
C2972 N2971 1.351 . S
C2972 C2973 1.434 . S
C2973 C2964 1.429 . S
C2973 N2970 1.350 . S
C2973 C2972 1.434 . S
C2974 C2975 1.369 . S
C2974 C2976 1.419 . S
C2974 H2978 0.930 . S
C2975 C2974 1.369 . S
C2975 C2984 1.429 . S
C2976 C2974 1.419 . S
C2976 C2977 1.363 . S
C2976 H2979 0.929 . S
C2977 C2976 1.363 . S
C2977 C2983 1.428 . S
H2978 C2974 0.930 . S
H2979 C2976 0.929 . S
S2980 N2981 1.613 . S
S2980 N2982 1.610 . S
N2981 S2980 1.613 . S
N2981 C2984 1.350 . S
N2982 S2980 1.610 . S
N2982 C2983 1.351 . S
C2983 C2977 1.428 . S
C2983 N2982 1.351 . S
C2983 C2984 1.434 . S
C2984 C2975 1.429 . S
C2984 N2981 1.350 . S
C2984 C2983 1.434 . S
C2985 C2986 1.369 . S
C2985 C2987 1.419 . S
C2985 H2989 0.930 . S
C2986 C2985 1.369 . S
C2986 C2995 1.429 . S
C2987 C2985 1.419 . S
C2987 C2988 1.363 . S
C2987 H2990 0.929 . S
C2988 C2987 1.363 . S
C2988 C2994 1.428 . S
H2989 C2985 0.930 . S
H2990 C2987 0.929 . S
S2991 N2992 1.613 . S
S2991 N2993 1.610 . S
N2992 S2991 1.613 . S
N2992 C2995 1.350 . S
N2993 S2991 1.610 . S
N2993 C2994 1.351 . S
C2994 C2988 1.428 . S
C2994 N2993 1.351 . S
C2994 C2995 1.434 . S
C2995 C2986 1.429 . S
C2995 N2992 1.350 . S
C2995 C2994 1.434 . S
C2996 C2997 1.369 . S
C2996 C2998 1.419 . S
C2996 H3000 0.930 . S
C2997 C2996 1.369 . S
C2997 C3006 1.429 . S
C2998 C2996 1.419 . S
C2998 C2999 1.363 . S
C2998 H3001 0.929 . S
C2999 C2998 1.363 . S
C2999 C3005 1.428 . S
H3000 C2996 0.930 . S
H3001 C2998 0.929 . S
S3002 N3003 1.613 . S
S3002 N3004 1.610 . S
N3003 S3002 1.613 . S
N3003 C3006 1.350 . S
N3004 S3002 1.610 . S
N3004 C3005 1.351 . S
C3005 C2999 1.428 . S
C3005 N3004 1.351 . S
C3005 C3006 1.434 . S
C3006 C2997 1.429 . S
C3006 N3003 1.350 . S
C3006 C3005 1.434 . S
C3007 C3008 1.369 . S
C3007 C3009 1.419 . S
C3007 H3011 0.930 . S
C3008 C3007 1.369 . S
C3008 C3017 1.429 . S
C3009 C3007 1.419 . S
C3009 C3010 1.363 . S
C3009 H3012 0.929 . S
C3010 C3009 1.363 . S
C3010 C3016 1.428 . S
H3011 C3007 0.930 . S
H3012 C3009 0.929 . S
S3013 N3014 1.613 . S
S3013 N3015 1.610 . S
N3014 S3013 1.613 . S
N3014 C3017 1.350 . S
N3015 S3013 1.610 . S
N3015 C3016 1.351 . S
C3016 C3010 1.428 . S
C3016 N3015 1.351 . S
C3016 C3017 1.434 . S
C3017 C3008 1.429 . S
C3017 N3014 1.350 . S
C3017 C3016 1.434 . S
C3018 C3019 1.369 . S
C3018 C3020 1.419 . S
C3018 H3022 0.930 . S
C3019 C3018 1.369 . S
C3019 C3028 1.429 . S
C3020 C3018 1.419 . S
C3020 C3021 1.363 . S
C3020 H3023 0.929 . S
C3021 C3020 1.363 . S
C3021 C3027 1.428 . S
H3022 C3018 0.930 . S
H3023 C3020 0.929 . S
S3024 N3025 1.613 . S
S3024 N3026 1.610 . S
N3025 S3024 1.613 . S
N3025 C3028 1.350 . S
N3026 S3024 1.610 . S
N3026 C3027 1.351 . S
C3027 C3021 1.428 . S
C3027 N3026 1.351 . S
C3027 C3028 1.434 . S
C3028 C3019 1.429 . S
C3028 N3025 1.350 . S
C3028 C3027 1.434 . S
C3029 C3030 1.369 . S
C3029 C3031 1.419 . S
C3029 H3033 0.930 . S
C3030 C3029 1.369 . S
C3030 C3039 1.429 . S
C3031 C3029 1.419 . S
C3031 C3032 1.363 . S
C3031 H3034 0.929 . S
C3032 C3031 1.363 . S
C3032 C3038 1.428 . S
H3033 C3029 0.930 . S
H3034 C3031 0.929 . S
S3035 N3036 1.613 . S
S3035 N3037 1.610 . S
N3036 S3035 1.613 . S
N3036 C3039 1.350 . S
N3037 S3035 1.610 . S
N3037 C3038 1.351 . S
C3038 C3032 1.428 . S
C3038 N3037 1.351 . S
C3038 C3039 1.434 . S
C3039 C3030 1.429 . S
C3039 N3036 1.350 . S
C3039 C3038 1.434 . S
C3040 C3041 1.369 . S
C3040 C3042 1.419 . S
C3040 H3044 0.930 . S
C3041 C3040 1.369 . S
C3041 C3050 1.429 . S
C3042 C3040 1.419 . S
C3042 C3043 1.363 . S
C3042 H3045 0.929 . S
C3043 C3042 1.363 . S
C3043 C3049 1.428 . S
H3044 C3040 0.930 . S
H3045 C3042 0.929 . S
S3046 N3047 1.613 . S
S3046 N3048 1.610 . S
N3047 S3046 1.613 . S
N3047 C3050 1.350 . S
N3048 S3046 1.610 . S
N3048 C3049 1.351 . S
C3049 C3043 1.428 . S
C3049 N3048 1.351 . S
C3049 C3050 1.434 . S
C3050 C3041 1.429 . S
C3050 N3047 1.350 . S
C3050 C3049 1.434 . S
C3051 C3052 1.369 . S
C3051 C3053 1.419 . S
C3051 H3055 0.930 . S
C3052 C3051 1.369 . S
C3052 C3061 1.429 . S
C3053 C3051 1.419 . S
C3053 C3054 1.363 . S
C3053 H3056 0.929 . S
C3054 C3053 1.363 . S
C3054 C3060 1.428 . S
H3055 C3051 0.930 . S
H3056 C3053 0.929 . S
S3057 N3058 1.613 . S
S3057 N3059 1.610 . S
N3058 S3057 1.613 . S
N3058 C3061 1.350 . S
N3059 S3057 1.610 . S
N3059 C3060 1.351 . S
C3060 C3054 1.428 . S
C3060 N3059 1.351 . S
C3060 C3061 1.434 . S
C3061 C3052 1.429 . S
C3061 N3058 1.350 . S
C3061 C3060 1.434 . S
C3062 C3063 1.369 . S
C3062 C3064 1.419 . S
C3062 H3066 0.930 . S
C3063 C3062 1.369 . S
C3063 C3072 1.429 . S
C3064 C3062 1.419 . S
C3064 C3065 1.363 . S
C3064 H3067 0.929 . S
C3065 C3064 1.363 . S
C3065 C3071 1.428 . S
H3066 C3062 0.930 . S
H3067 C3064 0.929 . S
S3068 N3069 1.613 . S
S3068 N3070 1.610 . S
N3069 S3068 1.613 . S
N3069 C3072 1.350 . S
N3070 S3068 1.610 . S
N3070 C3071 1.351 . S
C3071 C3065 1.428 . S
C3071 N3070 1.351 . S
C3071 C3072 1.434 . S
C3072 C3063 1.429 . S
C3072 N3069 1.350 . S
C3072 C3071 1.434 . S
C3073 C3074 1.369 . S
C3073 C3075 1.419 . S
C3073 H3077 0.930 . S
C3074 C3073 1.369 . S
C3074 C3083 1.429 . S
C3075 C3073 1.419 . S
C3075 C3076 1.363 . S
C3075 H3078 0.929 . S
C3076 C3075 1.363 . S
C3076 C3082 1.428 . S
H3077 C3073 0.930 . S
H3078 C3075 0.929 . S
S3079 N3080 1.613 . S
S3079 N3081 1.610 . S
N3080 S3079 1.613 . S
N3080 C3083 1.350 . S
N3081 S3079 1.610 . S
N3081 C3082 1.351 . S
C3082 C3076 1.428 . S
C3082 N3081 1.351 . S
C3082 C3083 1.434 . S
C3083 C3074 1.429 . S
C3083 N3080 1.350 . S
C3083 C3082 1.434 . S
C3084 C3085 1.369 . S
C3084 C3086 1.419 . S
C3084 H3088 0.930 . S
C3085 C3084 1.369 . S
C3085 C3094 1.429 . S
C3086 C3084 1.419 . S
C3086 C3087 1.363 . S
C3086 H3089 0.929 . S
C3087 C3086 1.363 . S
C3087 C3093 1.428 . S
H3088 C3084 0.930 . S
H3089 C3086 0.929 . S
S3090 N3091 1.613 . S
S3090 N3092 1.610 . S
N3091 S3090 1.613 . S
N3091 C3094 1.350 . S
N3092 S3090 1.610 . S
N3092 C3093 1.351 . S
C3093 C3087 1.428 . S
C3093 N3092 1.351 . S
C3093 C3094 1.434 . S
C3094 C3085 1.429 . S
C3094 N3091 1.350 . S
C3094 C3093 1.434 . S
C3095 C3096 1.369 . S
C3095 C3097 1.419 . S
C3095 H3099 0.930 . S
C3096 C3095 1.369 . S
C3096 C3105 1.429 . S
C3097 C3095 1.419 . S
C3097 C3098 1.363 . S
C3097 H3100 0.929 . S
C3098 C3097 1.363 . S
C3098 C3104 1.428 . S
H3099 C3095 0.930 . S
H3100 C3097 0.929 . S
S3101 N3102 1.613 . S
S3101 N3103 1.610 . S
N3102 S3101 1.613 . S
N3102 C3105 1.350 . S
N3103 S3101 1.610 . S
N3103 C3104 1.351 . S
C3104 C3098 1.428 . S
C3104 N3103 1.351 . S
C3104 C3105 1.434 . S
C3105 C3096 1.429 . S
C3105 N3102 1.350 . S
C3105 C3104 1.434 . S
C3106 C3107 1.369 . S
C3106 C3108 1.419 . S
C3106 H3110 0.930 . S
C3107 C3106 1.369 . S
C3107 C3116 1.429 . S
C3108 C3106 1.419 . S
C3108 C3109 1.363 . S
C3108 H3111 0.929 . S
C3109 C3108 1.363 . S
C3109 C3115 1.428 . S
H3110 C3106 0.930 . S
H3111 C3108 0.929 . S
S3112 N3113 1.613 . S
S3112 N3114 1.610 . S
N3113 S3112 1.613 . S
N3113 C3116 1.350 . S
N3114 S3112 1.610 . S
N3114 C3115 1.351 . S
C3115 C3109 1.428 . S
C3115 N3114 1.351 . S
C3115 C3116 1.434 . S
C3116 C3107 1.429 . S
C3116 N3113 1.350 . S
C3116 C3115 1.434 . S
C3117 C3118 1.369 . S
C3117 C3119 1.419 . S
C3117 H3121 0.947 . S
C3118 C3117 1.369 . S
C3118 C3127 1.429 . S
C3119 C3117 1.419 . S
C3119 C3120 1.363 . S
C3119 H3122 0.929 . S
C3120 C3119 1.363 . S
C3120 C3126 1.428 . S
H3121 C3117 0.947 . S
H3122 C3119 0.929 . S
S3123 N3124 1.613 . S
S3123 N3125 1.610 . S
N3124 S3123 1.613 . S
N3124 C3127 1.350 . S
N3125 S3123 1.610 . S
N3125 C3126 1.351 . S
C3126 C3120 1.428 . S
C3126 N3125 1.351 . S
C3126 C3127 1.434 . S
C3127 C3118 1.429 . S
C3127 N3124 1.350 . S
C3127 C3126 1.434 . S
C3128 C3129 1.369 . S
C3128 C3130 1.419 . S
C3128 H3132 0.930 . S
C3129 C3128 1.369 . S
C3129 C3138 1.429 . S
C3130 C3128 1.419 . S
C3130 C3131 1.363 . S
C3130 H3133 0.929 . S
C3131 C3130 1.363 . S
C3131 C3137 1.428 . S
H3132 C3128 0.930 . S
H3133 C3130 0.929 . S
S3134 N3135 1.613 . S
S3134 N3136 1.610 . S
N3135 S3134 1.613 . S
N3135 C3138 1.350 . S
N3136 S3134 1.610 . S
N3136 C3137 1.351 . S
C3137 C3131 1.428 . S
C3137 N3136 1.351 . S
C3137 C3138 1.434 . S
C3138 C3129 1.429 . S
C3138 N3135 1.350 . S
C3138 C3137 1.434 . S
C3139 C3140 1.369 . S
C3139 C3141 1.419 . S
C3139 H3143 0.930 . S
C3140 C3139 1.369 . S
C3140 C3149 1.429 . S
C3141 C3139 1.419 . S
C3141 C3142 1.363 . S
C3141 H3144 0.929 . S
C3142 C3141 1.363 . S
C3142 C3148 1.428 . S
H3143 C3139 0.930 . S
H3144 C3141 0.929 . S
S3145 N3146 1.613 . S
S3145 N3147 1.610 . S
N3146 S3145 1.613 . S
N3146 C3149 1.350 . S
N3147 S3145 1.610 . S
N3147 C3148 1.351 . S
C3148 C3142 1.428 . S
C3148 N3147 1.351 . S
C3148 C3149 1.434 . S
C3149 C3140 1.429 . S
C3149 N3146 1.350 . S
C3149 C3148 1.434 . S
C3150 C3151 1.369 . S
C3150 C3152 1.419 . S
C3150 H3154 0.930 . S
C3151 C3150 1.369 . S
C3151 C3160 1.429 . S
C3152 C3150 1.419 . S
C3152 C3153 1.363 . S
C3152 H3155 0.929 . S
C3153 C3152 1.363 . S
C3153 C3159 1.428 . S
H3154 C3150 0.930 . S
H3155 C3152 0.929 . S
S3156 N3157 1.613 . S
S3156 N3158 1.610 . S
N3157 S3156 1.613 . S
N3157 C3160 1.350 . S
N3158 S3156 1.610 . S
N3158 C3159 1.351 . S
C3159 C3153 1.428 . S
C3159 N3158 1.351 . S
C3159 C3160 1.434 . S
C3160 C3151 1.429 . S
C3160 N3157 1.350 . S
C3160 C3159 1.434 . S
C3161 C3162 1.369 . S
C3161 C3163 1.419 . S
C3161 H3165 0.930 . S
C3162 C3161 1.369 . S
C3162 C3171 1.429 . S
C3163 C3161 1.419 . S
C3163 C3164 1.363 . S
C3163 H3166 0.929 . S
C3164 C3163 1.363 . S
C3164 C3170 1.428 . S
H3165 C3161 0.930 . S
H3166 C3163 0.929 . S
S3167 N3168 1.613 . S
S3167 N3169 1.610 . S
N3168 S3167 1.613 . S
N3168 C3171 1.350 . S
N3169 S3167 1.610 . S
N3169 C3170 1.351 . S
C3170 C3164 1.428 . S
C3170 N3169 1.351 . S
C3170 C3171 1.434 . S
C3171 C3162 1.429 . S
C3171 N3168 1.350 . S
C3171 C3170 1.434 . S
C3172 C3173 1.369 . S
C3172 C3174 1.419 . S
C3172 H3176 0.930 . S
C3173 C3172 1.369 . S
C3173 C3182 1.429 . S
C3174 C3172 1.419 . S
C3174 C3175 1.363 . S
C3174 H3177 0.929 . S
C3175 C3174 1.363 . S
C3175 C3181 1.428 . S
H3176 C3172 0.930 . S
H3177 C3174 0.929 . S
S3178 N3179 1.613 . S
S3178 N3180 1.610 . S
N3179 S3178 1.613 . S
N3179 C3182 1.350 . S
N3180 S3178 1.610 . S
N3180 C3181 1.351 . S
C3181 C3175 1.428 . S
C3181 N3180 1.351 . S
C3181 C3182 1.434 . S
C3182 C3173 1.429 . S
C3182 N3179 1.350 . S
C3182 C3181 1.434 . S
C3183 C3184 1.369 . S
C3183 C3185 1.419 . S
C3183 H3187 0.930 . S
C3184 C3183 1.369 . S
C3184 C3193 1.429 . S
C3185 C3183 1.419 . S
C3185 C3186 1.363 . S
C3185 H3188 0.929 . S
C3186 C3185 1.363 . S
C3186 C3192 1.428 . S
H3187 C3183 0.930 . S
H3188 C3185 0.929 . S
S3189 N3190 1.613 . S
S3189 N3191 1.610 . S
N3190 S3189 1.613 . S
N3190 C3193 1.350 . S
N3191 S3189 1.610 . S
N3191 C3192 1.351 . S
C3192 C3186 1.428 . S
C3192 N3191 1.351 . S
C3192 C3193 1.434 . S
C3193 C3184 1.429 . S
C3193 N3190 1.350 . S
C3193 C3192 1.434 . S
C3194 C3195 1.369 . S
C3194 C3196 1.419 . S
C3194 H3198 0.930 . S
C3195 C3194 1.369 . S
C3195 C3204 1.429 . S
C3196 C3194 1.419 . S
C3196 C3197 1.363 . S
C3196 H3199 0.929 . S
C3197 C3196 1.363 . S
C3197 C3203 1.428 . S
H3198 C3194 0.930 . S
H3199 C3196 0.929 . S
S3200 N3201 1.614 . S
S3200 N3202 1.606 1_655 S
N3201 S3200 1.614 . S
N3201 C3204 1.350 1_655 S
N3202 S3200 1.606 1_455 S
N3202 C3203 1.351 . S
C3203 C3197 1.428 . S
C3203 N3202 1.351 . S
C3203 C3204 1.434 . S
C3204 C3195 1.429 . S
C3204 N3201 1.350 1_455 S
C3204 C3203 1.434 . S
C3205 C3206 1.369 . S
C3205 C3207 1.419 . S
C3205 H3209 0.930 . S
C3206 C3205 1.369 . S
C3206 C3215 1.429 . S
C3207 C3205 1.419 . S
C3207 C3208 1.363 . S
C3207 H3210 0.929 . S
C3208 C3207 1.363 . S
C3208 C3214 1.428 . S
H3209 C3205 0.930 . S
H3210 C3207 0.929 . S
S3211 N3212 1.613 . S
S3211 N3213 1.610 . S
N3212 S3211 1.613 . S
N3212 C3215 1.350 . S
N3213 S3211 1.610 . S
N3213 C3214 1.351 . S
C3214 C3208 1.428 . S
C3214 N3213 1.351 . S
C3214 C3215 1.434 . S
C3215 C3206 1.429 . S
C3215 N3212 1.350 . S
C3215 C3214 1.434 . S
C3216 C3217 1.369 . S
C3216 C3218 1.419 . S
C3216 H3220 0.930 . S
C3217 C3216 1.369 . S
C3217 C3226 1.429 . S
C3218 C3216 1.419 . S
C3218 C3219 1.363 . S
C3218 H3221 0.929 . S
C3219 C3218 1.363 . S
C3219 C3225 1.428 . S
H3220 C3216 0.930 . S
H3221 C3218 0.929 . S
S3222 N3223 1.613 . S
S3222 N3224 1.610 . S
N3223 S3222 1.613 . S
N3223 C3226 1.350 . S
N3224 S3222 1.610 . S
N3224 C3225 1.351 . S
C3225 C3219 1.428 . S
C3225 N3224 1.351 . S
C3225 C3226 1.434 . S
C3226 C3217 1.429 . S
C3226 N3223 1.350 . S
C3226 C3225 1.434 . S
C3227 C3228 1.369 . S
C3227 C3229 1.419 . S
C3227 H3231 0.930 . S
C3228 C3227 1.369 . S
C3228 C3237 1.429 . S
C3229 C3227 1.419 . S
C3229 C3230 1.363 . S
C3229 H3232 0.929 . S
C3230 C3229 1.363 . S
C3230 C3236 1.428 . S
H3231 C3227 0.930 . S
H3232 C3229 0.929 . S
S3233 N3234 1.613 . S
S3233 N3235 1.610 . S
N3234 S3233 1.613 . S
N3234 C3237 1.350 . S
N3235 S3233 1.610 . S
N3235 C3236 1.351 . S
C3236 C3230 1.428 . S
C3236 N3235 1.351 . S
C3236 C3237 1.434 . S
C3237 C3228 1.429 . S
C3237 N3234 1.350 . S
C3237 C3236 1.434 . S
C3238 C3239 1.369 . S
C3238 C3240 1.419 . S
C3238 H3242 0.930 . S
C3239 C3238 1.369 . S
C3239 C3248 1.429 . S
C3240 C3238 1.419 . S
C3240 C3241 1.363 . S
C3240 H3243 0.929 . S
C3241 C3240 1.363 . S
C3241 C3247 1.428 . S
H3242 C3238 0.930 . S
H3243 C3240 0.929 . S
S3244 N3245 1.613 . S
S3244 N3246 1.610 . S
N3245 S3244 1.613 . S
N3245 C3248 1.350 . S
N3246 S3244 1.610 . S
N3246 C3247 1.351 . S
C3247 C3241 1.428 . S
C3247 N3246 1.351 . S
C3247 C3248 1.434 . S
C3248 C3239 1.429 . S
C3248 N3245 1.350 . S
C3248 C3247 1.434 . S
C3249 C3250 1.369 . S
C3249 C3251 1.419 . S
C3249 H3253 0.930 . S
C3250 C3249 1.369 . S
C3250 C3259 1.429 . S
C3251 C3249 1.419 . S
C3251 C3252 1.363 . S
C3251 H3254 0.929 . S
C3252 C3251 1.363 . S
C3252 C3258 1.428 . S
H3253 C3249 0.930 . S
H3254 C3251 0.929 . S
S3255 N3256 1.613 . S
S3255 N3257 1.610 . S
N3256 S3255 1.613 . S
N3256 C3259 1.350 . S
N3257 S3255 1.610 . S
N3257 C3258 1.351 . S
C3258 C3252 1.428 . S
C3258 N3257 1.351 . S
C3258 C3259 1.434 . S
C3259 C3250 1.429 . S
C3259 N3256 1.350 . S
C3259 C3258 1.434 . S
C3260 C3261 1.369 . S
C3260 C3262 1.419 . S
C3260 H3264 0.930 . S
C3261 C3260 1.369 . S
C3261 C3270 1.429 . S
C3262 C3260 1.419 . S
C3262 C3263 1.363 . S
C3262 H3265 0.929 . S
C3263 C3262 1.363 . S
C3263 C3269 1.428 . S
H3264 C3260 0.930 . S
H3265 C3262 0.929 . S
S3266 N3267 1.613 . S
S3266 N3268 1.610 . S
N3267 S3266 1.613 . S
N3267 C3270 1.350 . S
N3268 S3266 1.610 . S
N3268 C3269 1.351 . S
C3269 C3263 1.428 . S
C3269 N3268 1.351 . S
C3269 C3270 1.434 . S
C3270 C3261 1.429 . S
C3270 N3267 1.350 . S
C3270 C3269 1.434 . S
C3271 C3272 1.369 . S
C3271 C3273 1.419 . S
C3271 H3275 0.930 . S
C3272 C3271 1.369 . S
C3272 C3281 1.429 . S
C3273 C3271 1.419 . S
C3273 C3274 1.363 . S
C3273 H3276 0.929 . S
C3274 C3273 1.363 . S
C3274 C3280 1.428 . S
H3275 C3271 0.930 . S
H3276 C3273 0.929 . S
S3277 N3278 1.613 . S
S3277 N3279 1.610 . S
N3278 S3277 1.613 . S
N3278 C3281 1.350 . S
N3279 S3277 1.610 . S
N3279 C3280 1.351 . S
C3280 C3274 1.428 . S
C3280 N3279 1.351 . S
C3280 C3281 1.434 . S
C3281 C3272 1.429 . S
C3281 N3278 1.350 . S
C3281 C3280 1.434 . S
C3282 C3283 1.369 . S
C3282 C3284 1.419 . S
C3282 H3286 0.930 . S
C3283 C3282 1.369 . S
C3283 C3292 1.429 . S
C3284 C3282 1.419 . S
C3284 C3285 1.363 . S
C3284 H3287 0.929 . S
C3285 C3284 1.363 . S
C3285 C3291 1.428 . S
H3286 C3282 0.930 . S
H3287 C3284 0.929 . S
S3288 N3289 1.613 . S
S3288 N3290 1.610 . S
N3289 S3288 1.613 . S
N3289 C3292 1.350 . S
N3290 S3288 1.610 . S
N3290 C3291 1.351 . S
C3291 C3285 1.428 . S
C3291 N3290 1.351 . S
C3291 C3292 1.434 . S
C3292 C3283 1.429 . S
C3292 N3289 1.350 . S
C3292 C3291 1.434 . S
C3293 C3294 1.369 . S
C3293 C3295 1.419 . S
C3293 H3297 0.930 . S
C3294 C3293 1.369 . S
C3294 C3303 1.429 . S
C3295 C3293 1.419 . S
C3295 C3296 1.363 . S
C3295 H3298 0.929 . S
C3296 C3295 1.363 . S
C3296 C3302 1.428 . S
H3297 C3293 0.930 . S
H3298 C3295 0.929 . S
S3299 N3300 1.613 . S
S3299 N3301 1.610 . S
N3300 S3299 1.613 . S
N3300 C3303 1.350 . S
N3301 S3299 1.610 . S
N3301 C3302 1.351 . S
C3302 C3296 1.428 . S
C3302 N3301 1.351 . S
C3302 C3303 1.434 . S
C3303 C3294 1.429 . S
C3303 N3300 1.350 . S
C3303 C3302 1.434 . S
C3304 C3305 1.369 . S
C3304 C3306 1.419 . S
C3304 H3308 0.930 . S
C3305 C3304 1.369 . S
C3305 C3314 1.429 . S
C3306 C3304 1.419 . S
C3306 C3307 1.363 . S
C3306 H3309 0.929 . S
C3307 C3306 1.363 . S
C3307 C3313 1.428 . S
H3308 C3304 0.930 . S
H3309 C3306 0.929 . S
S3310 N3311 1.613 . S
S3310 N3312 1.610 . S
N3311 S3310 1.613 . S
N3311 C3314 1.350 . S
N3312 S3310 1.610 . S
N3312 C3313 1.351 . S
C3313 C3307 1.428 . S
C3313 N3312 1.351 . S
C3313 C3314 1.434 . S
C3314 C3305 1.429 . S
C3314 N3311 1.350 . S
C3314 C3313 1.434 . S
C3315 C3316 1.369 . S
C3315 C3317 1.419 . S
C3315 H3319 0.930 . S
C3316 C3315 1.369 . S
C3316 C3325 1.429 . S
C3317 C3315 1.419 . S
C3317 C3318 1.363 . S
C3317 H3320 0.929 . S
C3318 C3317 1.363 . S
C3318 C3324 1.428 . S
H3319 C3315 0.930 . S
H3320 C3317 0.929 . S
S3321 N3322 1.613 . S
S3321 N3323 1.610 . S
N3322 S3321 1.613 . S
N3322 C3325 1.350 . S
N3323 S3321 1.610 . S
N3323 C3324 1.351 . S
C3324 C3318 1.428 . S
C3324 N3323 1.351 . S
C3324 C3325 1.434 . S
C3325 C3316 1.429 . S
C3325 N3322 1.350 . S
C3325 C3324 1.434 . S
C3326 C3327 1.369 . S
C3326 C3328 1.419 . S
C3326 H3330 0.930 . S
C3327 C3326 1.369 . S
C3327 C3336 1.429 . S
C3328 C3326 1.419 . S
C3328 C3329 1.363 . S
C3328 H3331 0.929 . S
C3329 C3328 1.363 . S
C3329 C3335 1.428 . S
H3330 C3326 0.930 . S
H3331 C3328 0.929 . S
S3332 N3333 1.613 . S
S3332 N3334 1.610 . S
N3333 S3332 1.613 . S
N3333 C3336 1.350 . S
N3334 S3332 1.610 . S
N3334 C3335 1.351 . S
C3335 C3329 1.428 . S
C3335 N3334 1.351 . S
C3335 C3336 1.434 . S
C3336 C3327 1.429 . S
C3336 N3333 1.350 . S
C3336 C3335 1.434 . S
C3337 C3338 1.369 . S
C3337 C3339 1.419 . S
C3337 H3341 0.930 . S
C3338 C3337 1.369 . S
C3338 C3347 1.429 . S
C3339 C3337 1.419 . S
C3339 C3340 1.363 . S
C3339 H3342 0.929 . S
C3340 C3339 1.363 . S
C3340 C3346 1.428 . S
H3341 C3337 0.930 . S
H3342 C3339 0.929 . S
S3343 N3344 1.613 . S
S3343 N3345 1.610 . S
N3344 S3343 1.613 . S
N3344 C3347 1.350 . S
N3345 S3343 1.610 . S
N3345 C3346 1.351 . S
C3346 C3340 1.428 . S
C3346 N3345 1.351 . S
C3346 C3347 1.434 . S
C3347 C3338 1.429 . S
C3347 N3344 1.350 . S
C3347 C3346 1.434 . S
C3348 C3349 1.369 . S
C3348 C3350 1.419 . S
C3348 H3352 0.930 . S
C3349 C3348 1.369 . S
C3349 C3358 1.429 . S
C3350 C3348 1.419 . S
C3350 C3351 1.363 . S
C3350 H3353 0.929 . S
C3351 C3350 1.363 . S
C3351 C3357 1.428 . S
H3352 C3348 0.930 . S
H3353 C3350 0.929 . S
S3354 N3355 1.613 . S
S3354 N3356 1.610 . S
N3355 S3354 1.613 . S
N3355 C3358 1.350 . S
N3356 S3354 1.610 . S
N3356 C3357 1.351 . S
C3357 C3351 1.428 . S
C3357 N3356 1.351 . S
C3357 C3358 1.434 . S
C3358 C3349 1.429 . S
C3358 N3355 1.350 . S
C3358 C3357 1.434 . S
C3359 C3360 1.369 . S
C3359 C3361 1.419 . S
C3359 H3363 0.930 . S
C3360 C3359 1.369 . S
C3360 C3369 1.429 . S
C3361 C3359 1.419 . S
C3361 C3362 1.363 . S
C3361 H3364 0.929 . S
C3362 C3361 1.363 . S
C3362 C3368 1.428 . S
H3363 C3359 0.930 . S
H3364 C3361 0.929 . S
S3365 N3366 1.613 . S
S3365 N3367 1.610 . S
N3366 S3365 1.613 . S
N3366 C3369 1.350 . S
N3367 S3365 1.610 . S
N3367 C3368 1.351 . S
C3368 C3362 1.428 . S
C3368 N3367 1.351 . S
C3368 C3369 1.434 . S
C3369 C3360 1.429 . S
C3369 N3366 1.350 . S
C3369 C3368 1.434 . S
C3370 C3371 1.369 . S
C3370 C3372 1.419 . S
C3370 H3374 0.930 . S
C3371 C3370 1.369 . S
C3371 C3380 1.429 . S
C3372 C3370 1.419 . S
C3372 C3373 1.363 . S
C3372 H3375 0.929 . S
C3373 C3372 1.363 . S
C3373 C3379 1.428 . S
H3374 C3370 0.930 . S
H3375 C3372 0.929 . S
S3376 N3377 1.613 . S
S3376 N3378 1.610 . S
N3377 S3376 1.613 . S
N3377 C3380 1.350 . S
N3378 S3376 1.610 . S
N3378 C3379 1.351 . S
C3379 C3373 1.428 . S
C3379 N3378 1.351 . S
C3379 C3380 1.434 . S
C3380 C3371 1.429 . S
C3380 N3377 1.350 . S
C3380 C3379 1.434 . S
C3381 C3382 1.369 . S
C3381 C3383 1.419 . S
C3381 H3385 0.930 . S
C3382 C3381 1.369 . S
C3382 C3391 1.429 . S
C3383 C3381 1.419 . S
C3383 C3384 1.363 . S
C3383 H3386 0.929 . S
C3384 C3383 1.363 . S
C3384 C3390 1.428 . S
H3385 C3381 0.930 . S
H3386 C3383 0.929 . S
S3387 N3388 1.613 . S
S3387 N3389 1.610 . S
N3388 S3387 1.613 . S
N3388 C3391 1.350 . S
N3389 S3387 1.610 . S
N3389 C3390 1.351 . S
C3390 C3384 1.428 . S
C3390 N3389 1.351 . S
C3390 C3391 1.434 . S
C3391 C3382 1.429 . S
C3391 N3388 1.350 . S
C3391 C3390 1.434 . S
C3392 C3393 1.369 . S
C3392 C3394 1.419 . S
C3392 H3396 0.930 . S
C3393 C3392 1.369 . S
C3393 C3402 1.429 . S
C3394 C3392 1.419 . S
C3394 C3395 1.363 . S
C3394 H3397 0.929 . S
C3395 C3394 1.363 . S
C3395 C3401 1.428 . S
H3396 C3392 0.930 . S
H3397 C3394 0.929 . S
S3398 N3399 1.613 . S
S3398 N3400 1.610 . S
N3399 S3398 1.613 . S
N3399 C3402 1.350 . S
N3400 S3398 1.610 . S
N3400 C3401 1.351 . S
C3401 C3395 1.428 . S
C3401 N3400 1.351 . S
C3401 C3402 1.434 . S
C3402 C3393 1.429 . S
C3402 N3399 1.350 . S
C3402 C3401 1.434 . S
C3403 C3404 1.369 . S
C3403 C3405 1.419 . S
C3403 H3407 0.930 . S
C3404 C3403 1.369 . S
C3404 C3413 1.429 . S
C3405 C3403 1.419 . S
C3405 C3406 1.363 . S
C3405 H3408 0.929 . S
C3406 C3405 1.363 . S
C3406 C3412 1.428 . S
H3407 C3403 0.930 . S
H3408 C3405 0.929 . S
S3409 N3410 1.613 . S
S3409 N3411 1.610 . S
N3410 S3409 1.613 . S
N3410 C3413 1.350 . S
N3411 S3409 1.610 . S
N3411 C3412 1.351 . S
C3412 C3406 1.428 . S
C3412 N3411 1.351 . S
C3412 C3413 1.434 . S
C3413 C3404 1.429 . S
C3413 N3410 1.350 . S
C3413 C3412 1.434 . S
C3414 C3415 1.369 . S
C3414 C3416 1.419 . S
C3414 H3418 0.930 . S
C3415 C3414 1.369 . S
C3415 C3424 1.429 . S
C3416 C3414 1.419 . S
C3416 C3417 1.363 . S
C3416 H3419 0.929 . S
C3417 C3416 1.363 . S
C3417 C3423 1.428 . S
H3418 C3414 0.930 . S
H3419 C3416 0.929 . S
S3420 N3421 1.613 . S
S3420 N3422 1.610 . S
N3421 S3420 1.613 . S
N3421 C3424 1.350 . S
N3422 S3420 1.610 . S
N3422 C3423 1.351 . S
C3423 C3417 1.428 . S
C3423 N3422 1.351 . S
C3423 C3424 1.434 . S
C3424 C3415 1.429 . S
C3424 N3421 1.350 . S
C3424 C3423 1.434 . S
C3425 C3426 1.369 . S
C3425 C3427 1.419 . S
C3425 H3429 0.930 . S
C3426 C3425 1.369 . S
C3426 C3435 1.429 . S
C3427 C3425 1.419 . S
C3427 C3428 1.363 . S
C3427 H3430 0.929 . S
C3428 C3427 1.363 . S
C3428 C3434 1.428 . S
H3429 C3425 0.930 . S
H3430 C3427 0.929 . S
S3431 N3432 1.613 . S
S3431 N3433 1.610 . S
N3432 S3431 1.613 . S
N3432 C3435 1.350 . S
N3433 S3431 1.610 . S
N3433 C3434 1.351 . S
C3434 C3428 1.428 . S
C3434 N3433 1.351 . S
C3434 C3435 1.434 . S
C3435 C3426 1.429 . S
C3435 N3432 1.350 . S
C3435 C3434 1.434 . S
C3436 C3437 1.369 . S
C3436 C3438 1.419 . S
C3436 H3440 0.930 . S
C3437 C3436 1.369 . S
C3437 C3446 1.429 . S
C3438 C3436 1.419 . S
C3438 C3439 1.363 . S
C3438 H3441 0.929 . S
C3439 C3438 1.363 . S
C3439 C3445 1.428 . S
H3440 C3436 0.930 . S
H3441 C3438 0.929 . S
S3442 N3443 1.613 . S
S3442 N3444 1.610 . S
N3443 S3442 1.613 . S
N3443 C3446 1.350 . S
N3444 S3442 1.610 . S
N3444 C3445 1.351 . S
C3445 C3439 1.428 . S
C3445 N3444 1.351 . S
C3445 C3446 1.434 . S
C3446 C3437 1.429 . S
C3446 N3443 1.350 . S
C3446 C3445 1.434 . S
C3447 C3448 1.369 . S
C3447 C3449 1.419 . S
C3447 H3451 0.930 . S
C3448 C3447 1.369 . S
C3448 C3457 1.429 . S
C3449 C3447 1.419 . S
C3449 C3450 1.363 . S
C3449 H3452 0.929 . S
C3450 C3449 1.363 . S
C3450 C3456 1.428 . S
H3451 C3447 0.930 . S
H3452 C3449 0.929 . S
S3453 N3454 1.613 . S
S3453 N3455 1.610 . S
N3454 S3453 1.613 . S
N3454 C3457 1.350 . S
N3455 S3453 1.610 . S
N3455 C3456 1.351 . S
C3456 C3450 1.428 . S
C3456 N3455 1.351 . S
C3456 C3457 1.434 . S
C3457 C3448 1.429 . S
C3457 N3454 1.350 . S
C3457 C3456 1.434 . S
C3458 C3459 1.369 . S
C3458 C3460 1.419 . S
C3458 H3462 0.930 . S
C3459 C3458 1.369 . S
C3459 C3468 1.429 . S
C3460 C3458 1.419 . S
C3460 C3461 1.363 . S
C3460 H3463 0.929 . S
C3461 C3460 1.363 . S
C3461 C3467 1.428 . S
H3462 C3458 0.930 . S
H3463 C3460 0.929 . S
S3464 N3465 1.613 . S
S3464 N3466 1.610 . S
N3465 S3464 1.613 . S
N3465 C3468 1.350 . S
N3466 S3464 1.610 . S
N3466 C3467 1.351 . S
C3467 C3461 1.428 . S
C3467 N3466 1.351 . S
C3467 C3468 1.434 . S
C3468 C3459 1.429 . S
C3468 N3465 1.350 . S
C3468 C3467 1.434 . S
C3469 C3470 1.369 . S
C3469 C3471 1.419 . S
C3469 H3473 0.930 . S
C3470 C3469 1.369 . S
C3470 C3479 1.429 . S
C3471 C3469 1.419 . S
C3471 C3472 1.363 . S
C3471 H3474 0.929 . S
C3472 C3471 1.363 . S
C3472 C3478 1.428 . S
H3473 C3469 0.930 . S
H3474 C3471 0.929 . S
S3475 N3476 1.613 . S
S3475 N3477 1.610 . S
N3476 S3475 1.613 . S
N3476 C3479 1.350 . S
N3477 S3475 1.610 . S
N3477 C3478 1.351 . S
C3478 C3472 1.428 . S
C3478 N3477 1.351 . S
C3478 C3479 1.434 . S
C3479 C3470 1.429 . S
C3479 N3476 1.350 . S
C3479 C3478 1.434 . S
C1633 C6 1.422 . S
C1635 C867 1.482 . S
C1644 C901 1.480 . S
C1646 C40 1.421 . S
C1655 C935 1.481 . S
C1657 C74 1.420 . S
C1666 C130 1.420 . S
C1668 C833 1.482 . S
C1677 C255 1.481 . S
C1679 C142 1.420 . S
C1688 C198 1.426 1_455 S
C1690 C153 1.483 . S
C1699 C232 1.419 . S
C1701 C187 1.481 . S
C1710 C221 1.481 . S
C1712 C266 1.428 1_655 S
C1721 C278 1.419 . S
C1723 C1581 1.481 . S
C1732 C561 1.482 . S
C1734 C334 1.422 1_554 S
C1743 C346 1.428 . S
C1745 C1615 1.481 . S
C1754 C402 1.429 1_554 S
C1756 C1547 1.481 . S
C1765 C414 1.420 . S
C1767 C1445 1.481 . S
C1776 C1479 1.482 . S
C1778 C448 1.422 1_556 S
C1787 C697 1.483 . S
C1789 C482 1.422 . S
C1798 C516 1.428 1_556 S
C1800 C1411 1.481 . S
C1809 C572 1.425 . S
C1811 C459 1.483 . S
C1820 C584 1.420 . S
C1822 C1207 1.481 . S
C1831 C618 1.419 . S
C1833 C1105 1.481 . S
C1842 C1139 1.480 . S
C1844 C674 1.422 . S
C1853 C357 1.480 . S
C1855 C686 1.421 . S
C1864 C1343 1.482 . S
C1866 C720 1.421 . S
C1875 C754 1.422 . S
C1877 C1241 1.480 . S
C1886 C1309 1.480 . S
C1888 C788 1.423 1_545 S
C1897 C844 1.419 . S
C1899 C51 1.481 . S
C1908 C85 1.482 . S
C1910 C878 1.428 1_655 S
C1919 C119 1.480 . S
C1921 C890 1.427 . S
C1930 C924 1.426 1_455 S
C1932 C17 1.483 . S
C1941 C958 1.429 . S
C1943 C1071 1.482 . S
C1952 C969 1.482 . S
C1954 C1014 1.421 . S
C1963 C1003 1.481 . S
C1965 C1048 1.420 . S
C1974 C1037 1.483 . S
C1976 C1082 1.424 . S
C1985 C1094 1.425 . S
C1987 C765 1.483 . S
C1996 C1150 1.421 . S
C1998 C1377 1.482 . S
C2007 C799 1.482 . S
C2009 C1184 1.421 . S
C2018 C1218 1.425 . S
C2020 C731 1.483 . S
C2029 C1230 1.420 . S
C2031 C629 1.481 . S
C2040 C663 1.482 . S
C2042 C1264 1.422 . S
C2051 C1513 1.483 . S
C2053 C1298 1.424 . S
C2062 C595 1.481 . S
C2064 C1332 1.428 . S
C2073 C1275 1.482 . S
C2075 C1388 1.421 . S
C2084 C1400 1.429 . S
C2086 C391 1.481 . S
C2095 C289 1.482 . S
C2097 C1434 1.421 1_545 S
C2106 C323 1.480 . S
C2108 C1490 1.424 . S
C2117 C1173 1.480 . S
C2119 C1502 1.421 1_565 S
C2128 C527 1.481 . S
C2130 C1536 1.427 . S
C2139 C425 1.481 . S
C2141 C1592 1.428 1_565 S
C2150 C1626 1.427 . S
C2152 C493 1.481 . S
C2161 C90 1.539 . S
C2163 C22 1.527 . S
C2172 C117 1.526 . S
C2174 C56 1.538 . S
C2183 C219 1.542 . S
C2185 C158 1.528 . S
C2194 C185 1.541 . S
C2196 C253 1.527 . S
C2205 C430 1.525 . S
C2207 C294 1.540 . S
C2216 C464 1.537 . S
C2218 C321 1.532 . S
C2227 C362 1.542 . S
C2229 C498 1.528 . S
C2238 C389 1.541 . S
C2240 C532 1.529 . S
C2249 C559 1.542 . S
C2251 C1477 1.528 . S
C2260 C736 1.530 . S
C2262 C600 1.538 . S
C2271 C770 1.541 . S
C2273 C634 1.527 . S
C2282 C1375 1.539 . S
C2284 C661 1.527 . S
C2293 C702 1.536 . S
C2295 C1613 1.533 . S
C2304 C804 1.527 . S
C2306 C1518 1.536 . S
C2315 C831 1.540 . S
C2317 C906 1.527 . S
C2326 C865 1.535 . S
C2328 C940 1.530 . S
C2337 C974 1.542 . S
C2339 C1035 1.527 . S
C2348 C1069 1.538 . S
C2350 C1001 1.528 . S
C2359 C1246 1.526 . S
C2361 C1110 1.537 . S
C2370 C1280 1.541 . S
C2372 C1137 1.529 . S
C2381 C1171 1.541 . S
C2383 C1314 1.530 . S
C2392 C1205 1.540 . S
C2394 C1348 1.530 . S
C2403 C1416 1.539 . S
C2405 C1552 1.527 . S
C2414 C1450 1.526 . S
C2416 C1579 1.540 . S
C2425 C1 2.450 . S
C2427 C275 2.412 . S
C2436 C307 2.405 . S
C2438 C35 2.452 . S
C2447 C69 2.455 . S
C2449 C343 2.409 . S
C2458 C105 2.451 . S
C2460 C375 2.412 1_565 S
C2469 C137 2.450 . S
C2471 C411 2.405 . S
C2480 C445 2.410 . S
C2482 C173 2.454 1_455 S
C2491 C207 2.453 . S
C2493 C479 2.412 . S
C2502 C513 2.412 1_565 S
C2504 C241 2.450 1_655 S
C2513 C545 2.412 . S
C2515 C273 2.454 . S
C2524 C309 2.450 1_554 S
C2526 C1599 2.411 . S
C2535 C1533 2.413 . S
C2537 C341 2.450 . S
C2546 C377 2.455 1_554 S
C2548 C1565 2.411 . S
C2557 C409 2.455 . S
C2559 C581 2.407 . S
C2568 C615 2.404 1_455 S
C2570 C443 2.450 1_556 S
C2579 C647 2.411 . S
C2581 C477 2.449 . S
C2590 C1499 2.405 1_655 S
C2592 C511 2.449 1_556 S
C2601 C547 2.455 . S
C2603 C3 2.411 . S
C2612 C139 2.412 . S
C2614 C579 2.450 . S
C2623 C171 2.413 1_556 S
C2625 C613 2.452 . S
C2634 C649 2.451 . S
C2636 C205 2.412 . S
C2645 C681 2.448 . S
C2647 C1055 2.410 . S
C2656 C715 2.447 . S
C2658 C887 2.407 . S
C2667 C749 2.448 . S
C2669 C921 2.409 . S
C2678 C851 2.408 . S
C2680 C783 2.454 1_545 S
C2689 C1091 2.410 . S
C2691 C819 2.454 . S
C2700 C853 2.449 1_655 S
C2702 C1123 2.411 1_545 S
C2711 C1157 2.413 . S
C2713 C885 2.452 . S
C2722 C1191 2.407 . S
C2724 C919 2.448 1_455 S
C2733 C953 2.448 . S
C2735 C1227 2.407 . S
C2744 C1261 2.404 1_545 S
C2746 C989 2.449 . S
C2755 C1023 2.447 . S
C2757 C1295 2.409 . S
C2766 C1057 2.454 . S
C2768 C1329 2.407 . S
C2777 C1089 2.455 . S
C2779 C1361 2.408 . S
C2788 C785 2.408 1_655 S
C2790 C1125 2.454 . S
C2799 C1159 2.454 . S
C2801 C717 2.406 . S
C2810 C1193 2.447 . S
C2812 C751 2.407 1_455 S
C2821 C1225 2.447 . S
C2823 C1397 2.407 . S
C2832 C1431 2.407 . S
C2834 C1259 2.448 . S
C2843 C1463 2.410 . S
C2845 C1293 2.449 . S
C2854 C683 2.411 . S
C2856 C1327 2.449 . S
C2865 C817 2.408 . S
C2867 C1363 2.454 . S
C2876 C1395 2.451 . S
C2878 C955 2.405 . S
C2887 C1429 2.449 1_545 S
C2889 C987 2.411 . S
C2898 C1021 2.408 . S
C2900 C1465 2.454 . S
C2909 C1497 2.447 1_565 S
C2911 C239 2.407 1_556 S
C2920 C71 2.407 . S
C2922 C1531 2.448 . S
C2931 C1567 2.447 1_565 S
C2933 C103 2.408 1_554 S
C2942 C1601 2.455 . S
C2944 C37 2.412 1_554 S
C2953 C28 1.208 . S
C2955 C457 1.103 . S
C2964 C491 1.100 . S
C2966 C62 1.223 . S
C2975 C525 1.107 . S
C2977 C96 1.216 . S
C2986 C423 1.092 . S
C2988 C108 1.231 . S
C2997 C1212 1.090 . S
C2999 C164 1.217 . S
C3008 C176 1.233 . S
C3010 C1103 1.102 . S
C3019 C1144 1.090 . S
C3021 C210 1.216 . S
C3030 C1178 1.093 . S
C3032 C244 1.225 . S
C3041 C872 1.090 . S
C3043 C300 1.215 . S
C3052 C899 1.091 . S
C3054 C312 1.213 . S
C3063 C933 1.097 . S
C3065 C368 1.210 . S
C3074 C838 1.101 . S
C3076 C380 1.223 . S
C3085 C260 1.090 . S
C3087 C436 1.216 . S
C3096 C151 1.096 . S
C3098 C470 1.210 . S
C3107 C192 1.105 . S
C3109 C504 1.217 . S
C3118 C538 1.227 . S
C3120 C226 1.093 . S
C3129 C1586 1.108 . S
C3131 C550 1.210 . S
C3140 C1443 1.110 . S
C3142 C606 1.213 . S
C3151 C1484 1.090 . S
C3153 C640 1.227 . S
C3162 C652 1.212 . S
C3164 C695 1.093 . S
C3173 C593 1.105 . S
C3175 C708 1.218 . S
C3184 C742 1.213 . S
C3186 C797 1.108 . S
C3195 C776 1.228 . S
C3197 C729 1.108 . S
C3206 C1382 1.100 . S
C3208 C810 1.232 . S
C3217 C1273 1.110 . S
C3219 C822 1.214 . S
C3228 C1307 1.090 . S
C3230 C856 1.215 . S
C3239 C1341 1.095 . S
C3241 C912 1.218 . S
C3250 C1239 1.097 . S
C3252 C946 1.210 . S
C3261 C396 1.103 . S
C3263 C980 1.209 . S
C3272 C287 1.107 . S
C3274 C992 1.210 . S
C3283 C328 1.100 . S
C3285 C1026 1.218 . S
C3294 C355 1.111 . S
C3296 C1060 1.212 . S
C3305 C49 1.108 . S
C3307 C1116 1.216 . S
C3316 C1128 1.224 . S
C3318 C83 1.095 . S
C3327 C124 1.108 . S
C3329 C1162 1.210 . S
C3338 C1196 1.208 . S
C3340 C15 1.100 . S
C3349 C1252 1.216 . S
C3351 C1076 1.092 . S
C3360 C967 1.101 . S
C3362 C1286 1.232 . S
C3371 C1008 1.095 . S
C3373 C1320 1.211 . S
C3382 C1042 1.110 . S
C3384 C1354 1.211 . S
C3393 C1366 1.215 . S
C3395 C763 1.092 . S
C3404 C1422 1.212 . S
C3406 C627 1.094 . S
C3415 C1456 1.209 . S
C3417 C668 1.106 . S
C3426 C1468 1.217 . S
C3428 C1511 1.093 . S
C3437 C1409 1.100 . S
C3439 C1524 1.223 . S
C3448 C1620 1.110 . S
C3450 C1558 1.211 . S
C3459 C1570 1.213 . S
C3461 C1545 1.108 . S
C3470 C1604 1.217 . S
C3472 C566 1.093 . S
