# Generated by pormake.
# Topology sra, (4)-cn, num edge types: 1
# Building blocks:
#     Node 0, Type 0, BuildingBlock: GALJAG_clean_sbu_0, # of connection points: 4
#     Node 1, Type 0, BuildingBlock: GALJAG_clean_sbu_0, # of connection points: 4
#     Node 2, Type 0, BuildingBlock: GALJAG_clean_sbu_0, # of connection points: 4
#     Node 3, Type 0, BuildingBlock: GALJAG_clean_sbu_0, # of connection points: 4
#     Node 4, Type 0, BuildingBlock: GALJAG_clean_sbu_0, # of connection points: 4
#     Node 5, Type 0, BuildingBlock: GALJAG_clean_sbu_0, # of connection points: 4
#     Node 6, Type 0, BuildingBlock: GALJAG_clean_sbu_0, # of connection points: 4
#     Node 7, Type 0, BuildingBlock: GALJAG_clean_sbu_0, # of connection points: 4
#     Edge 8, Type (0, 0), BuildingBlock: CIFDUS_clean_linker_0, # of connection points: 2
#     Edge 9, Type (0, 0), BuildingBlock: CIFDUS_clean_linker_0, # of connection points: 2
#     Edge 10, Type (0, 0), BuildingBlock: CIFDUS_clean_linker_0, # of connection points: 2
#     Edge 11, Type (0, 0), BuildingBlock: CIFDUS_clean_linker_0, # of connection points: 2
#     Edge 12, Type (0, 0), BuildingBlock: CIFDUS_clean_linker_0, # of connection points: 2
#     Edge 13, Type (0, 0), BuildingBlock: CIFDUS_clean_linker_0, # of connection points: 2
#     Edge 14, Type (0, 0), BuildingBlock: CIFDUS_clean_linker_0, # of connection points: 2
#     Edge 15, Type (0, 0), BuildingBlock: CIFDUS_clean_linker_0, # of connection points: 2
#     Edge 16, Type (0, 0), BuildingBlock: CIFDUS_clean_linker_0, # of connection points: 2
#     Edge 17, Type (0, 0), BuildingBlock: CIFDUS_clean_linker_0, # of connection points: 2
#     Edge 18, Type (0, 0), BuildingBlock: CIFDUS_clean_linker_0, # of connection points: 2
#     Edge 19, Type (0, 0), BuildingBlock: CIFDUS_clean_linker_0, # of connection points: 2
#     Edge 20, Type (0, 0), BuildingBlock: CIFDUS_clean_linker_0, # of connection points: 2
#     Edge 21, Type (0, 0), BuildingBlock: CIFDUS_clean_linker_0, # of connection points: 2
#     Edge 22, Type (0, 0), BuildingBlock: CIFDUS_clean_linker_0, # of connection points: 2
#     Edge 23, Type (0, 0), BuildingBlock: CIFDUS_clean_linker_0, # of connection points: 2
# Relax obj value: 0.076
# Max RMSD: 0.110
# Mean RMSD: 0.110
data_MOF--net-sra--node1-GALJAG_clean_sbu_0--edge1-CIFDUS_clean_linker_0
_symmetry_space_group_name_H-M    P1
_symmetry_Int_Tables_number       1
_symmetry_cell_setting            triclinic
loop_
_symmetry_equiv_pos_as_xyz
'x, y, z'
_cell_length_a     24.758563
_cell_length_b     47.219069
_cell_length_c     26.39192
_cell_angle_alpha  89.98309
_cell_angle_beta   89.351289
_cell_angle_gamma 90.163857
loop_
_atom_site_label
_atom_site_type_symbol
_atom_site_fract_x
_atom_site_fract_y
_atom_site_fract_z
_atom_type_partial_charge
In0 In 0.03053 0.10376 0.13263 0.0
O1 O 0.02525 0.09021 0.04993 0.0
O2 O 0.03204 0.05821 0.10668 0.0
C3 C 0.02908 0.16082 0.13285 0.0
C4 C 0.93364 0.09356 0.17659 0.0
C5 C 0.13343 0.09608 0.16157 0.0
O6 O 0.02677 0.14692 0.09193 0.0
O7 O 0.03184 0.1459 0.17233 0.0
O8 O 0.0939 0.09162 0.1914 0.0
O9 O 0.12076 0.10417 0.11774 0.0
C10 C 0.02845 0.06405 0.06013 0.0
O11 O 0.97752 0.08975 0.19975 0.0
O12 O 0.93897 0.10209 0.13149 0.0
In13 In 0.04356 0.38557 0.12895 0.0
O14 O 0.0387 0.40778 0.05229 0.0
O15 O 0.04488 0.43302 0.11908 0.0
C16 C 0.03822 0.32942 0.11219 0.0
C17 C 0.14703 0.38939 0.15845 0.0
C18 C 0.94733 0.39184 0.17594 0.0
O19 O 0.03668 0.34699 0.07597 0.0
O20 O 0.04258 0.34035 0.15554 0.0
O21 O 0.99141 0.39328 0.19969 0.0
O22 O 0.9522 0.38746 0.12894 0.0
C23 C 0.04133 0.43236 0.07142 0.0
O24 O 0.10792 0.39251 0.18925 0.0
O25 O 0.13366 0.38437 0.11332 0.0
In26 In 0.03906 0.88766 0.81085 0.0
O27 O 0.97577 0.90076 0.75267 0.0
O28 O 0.94883 0.88723 0.82574 0.0
C29 C 0.13587 0.89758 0.76647 0.0
C30 C 0.04157 0.92727 0.88352 0.0
C31 C 0.03984 0.83059 0.8105 0.0
O32 O 0.09194 0.90114 0.74328 0.0
O33 O 0.13065 0.88941 0.81179 0.0
O34 O 0.04321 0.84447 0.85137 0.0
O35 O 0.03633 0.84554 0.77111 0.0
C36 C 0.93621 0.89602 0.78232 0.0
O37 O 0.04439 0.90109 0.89365 0.0
O38 O 0.03819 0.93317 0.83698 0.0
In39 In 0.03248 0.60576 0.81403 0.0
O40 O 0.0377 0.58346 0.89055 0.0
O41 O 0.03224 0.55827 0.82363 0.0
C42 C 0.0359 0.66193 0.83095 0.0
C43 C 0.12901 0.60042 0.76718 0.0
C44 C 0.92911 0.60152 0.78448 0.0
O45 O 0.03856 0.64435 0.86709 0.0
O46 O 0.0315 0.65098 0.78761 0.0
O47 O 0.96828 0.5988 0.7536 0.0
O48 O 0.94239 0.60624 0.82973 0.0
C49 C 0.03565 0.5589 0.87131 0.0
O50 O 0.08501 0.59836 0.74342 0.0
O51 O 0.1239 0.60492 0.81413 0.0
In52 In 0.53407 0.60724 0.62947 0.0
O53 O 0.48112 0.59971 0.69975 0.0
O54 O 0.44253 0.60641 0.62899 0.0
C55 C 0.63707 0.60249 0.65969 0.0
C56 C 0.53198 0.56055 0.57174 0.0
C57 C 0.53267 0.66345 0.61252 0.0
O58 O 0.59766 0.60006 0.69041 0.0
O59 O 0.62419 0.60723 0.61435 0.0
O60 O 0.52777 0.64589 0.57657 0.0
O61 O 0.53792 0.65246 0.65573 0.0
C62 C 0.43723 0.60176 0.67589 0.0
O63 O 0.53105 0.58516 0.55261 0.0
O64 O 0.53332 0.55979 0.61952 0.0
In65 In 0.54073 0.88917 0.63194 0.0
O66 O 0.60442 0.9021 0.68986 0.0
O67 O 0.63087 0.88968 0.61605 0.0
C68 C 0.44416 0.89831 0.67708 0.0
C69 C 0.53602 0.92892 0.55962 0.0
C70 C 0.54043 0.8321 0.63203 0.0
O71 O 0.48819 0.90236 0.69991 0.0
O72 O 0.44919 0.88999 0.63185 0.0
O73 O 0.53564 0.84602 0.59134 0.0
O74 O 0.54517 0.84701 0.67133 0.0
C75 C 0.64377 0.89795 0.65974 0.0
O76 O 0.53462 0.90273 0.5493 0.0
O77 O 0.53955 0.93477 0.60617 0.0
In78 In 0.54228 0.38772 0.31339 0.0
O79 O 0.47858 0.39423 0.25227 0.0
O80 O 0.45216 0.38744 0.32846 0.0
C81 C 0.6392 0.39337 0.26728 0.0
C82 C 0.54398 0.4345 0.37091 0.0
C83 C 0.54436 0.33154 0.33032 0.0
O84 O 0.59537 0.3956 0.24336 0.0
O85 O 0.63379 0.38852 0.31411 0.0
O86 O 0.54783 0.34909 0.36642 0.0
O87 O 0.54018 0.34251 0.28699 0.0
C88 C 0.43921 0.39178 0.28302 0.0
O89 O 0.54541 0.40991 0.3901 0.0
O90 O 0.54231 0.4352 0.32313 0.0
In91 In 0.52964 0.10589 0.31137 0.0
O92 O 0.58135 0.09221 0.24319 0.0
O93 O 0.62106 0.10341 0.31154 0.0
C94 C 0.42619 0.09815 0.28381 0.0
C95 C 0.53291 0.06626 0.384 0.0
C96 C 0.53357 0.16293 0.31083 0.0
O97 O 0.46535 0.09306 0.25396 0.0
O98 O 0.43947 0.10696 0.32705 0.0
O99 O 0.53648 0.14903 0.35172 0.0
O100 O 0.52866 0.14802 0.27155 0.0
C101 C 0.6256 0.09532 0.26613 0.0
O102 O 0.53539 0.09245 0.39414 0.0
O103 O 0.52902 0.06037 0.3375 0.0
H104 H 0.0364 0.29038 0.18625 0.0
H105 H 0.03299 0.29876 0.02359 0.0
H106 H 0.02902 0.247 0.01498 0.0
H107 H 0.02769 0.19919 0.05462 0.0
H108 H 0.03122 0.19267 0.21782 0.0
H109 H 0.03387 0.2439 0.22514 0.0
C110 C 0.03478 0.28097 0.14879 0.0
C111 C 0.03514 0.29836 0.10562 0.0
C112 C 0.03251 0.25148 0.14426 0.0
C113 C 0.03281 0.28578 0.05744 0.0
C114 C 0.03056 0.25622 0.05254 0.0
C115 C 0.0289 0.20906 0.09168 0.0
C116 C 0.02936 0.19209 0.13557 0.0
C117 C 0.03054 0.23882 0.09578 0.0
C118 C 0.03093 0.20516 0.18339 0.0
C119 C 0.03246 0.2345 0.1877 0.0
H120 H 0.04479 0.7922 0.88852 0.0
H121 H 0.03386 0.79878 0.72569 0.0
H122 H 0.03189 0.74754 0.71834 0.0
H123 H 0.03264 0.70103 0.75712 0.0
H124 H 0.04351 0.69258 0.91939 0.0
H125 H 0.04615 0.74436 0.92803 0.0
C126 C 0.04206 0.78234 0.85153 0.0
C127 C 0.03944 0.79932 0.80775 0.0
C128 C 0.04087 0.75258 0.84742 0.0
C129 C 0.0359 0.78627 0.76003 0.0
C130 C 0.03475 0.75693 0.75571 0.0
C131 C 0.0356 0.71042 0.7945 0.0
C132 C 0.03781 0.69301 0.83755 0.0
C133 C 0.0371 0.73992 0.79904 0.0
C134 C 0.04172 0.70558 0.88564 0.0
C135 C 0.04322 0.73515 0.89055 0.0
H136 H 0.54604 0.7025 0.6853 0.0
H137 H 0.51954 0.69415 0.52477 0.0
H138 H 0.5198 0.74594 0.51592 0.0
H139 H 0.5274 0.79376 0.55482 0.0
H140 H 0.55392 0.80024 0.71592 0.0
H141 H 0.55388 0.749 0.72338 0.0
C142 C 0.54028 0.71192 0.64826 0.0
C143 C 0.53272 0.69454 0.60577 0.0
C144 C 0.54052 0.74143 0.64359 0.0
C145 C 0.52544 0.70713 0.55809 0.0
C146 C 0.52559 0.73671 0.55305 0.0
C147 C 0.5332 0.78387 0.59144 0.0
C148 C 0.54058 0.80083 0.63473 0.0
C149 C 0.53308 0.75411 0.59564 0.0
C150 C 0.54805 0.78775 0.68197 0.0
C151 C 0.54806 0.7584 0.68637 0.0
H152 H 0.53737 0.29247 0.25673 0.0
H153 H 0.55115 0.30084 0.41879 0.0
H154 H 0.5494 0.24906 0.4277 0.0
H155 H 0.54301 0.20126 0.38853 0.0
H156 H 0.5289 0.19477 0.22594 0.0
H157 H 0.5317 0.24599 0.21828 0.0
C158 C 0.54007 0.28305 0.29412 0.0
C159 C 0.54433 0.30045 0.33704 0.0
C160 C 0.5389 0.25356 0.29883 0.0
C161 C 0.54783 0.28786 0.38514 0.0
C162 C 0.54679 0.25828 0.39021 0.0
C163 C 0.54059 0.21113 0.35153 0.0
C164 C 0.53569 0.19418 0.30791 0.0
C165 C 0.54218 0.24088 0.34724 0.0
C166 C 0.53263 0.20725 0.26017 0.0
C167 C 0.53424 0.23658 0.25566 0.0
H168 H 0.38603 0.09238 0.18893 0.0
H169 H 0.33811 0.09744 0.34631 0.0
H170 H 0.24307 0.09519 0.32277 0.0
H171 H 0.17328 0.09422 0.25711 0.0
H172 H 0.22135 0.09202 0.09956 0.0
H173 H 0.31632 0.09054 0.1234 0.0
C174 C 0.35475 0.09273 0.21803 0.0
C175 C 0.36903 0.09508 0.26922 0.0
C176 C 0.30012 0.09203 0.20417 0.0
C177 C 0.32811 0.09573 0.30657 0.0
C178 C 0.27374 0.09444 0.29316 0.0
C179 C 0.20459 0.09312 0.2281 0.0
C180 C 0.1904 0.09323 0.17672 0.0
C181 C 0.25922 0.09294 0.24205 0.0
C182 C 0.23133 0.09207 0.13943 0.0
C183 C 0.28564 0.09122 0.153 0.0
H184 H 0.73684 0.39443 0.31284 0.0
H185 H 0.66202 0.3965 0.166 0.0
H186 H 0.75103 0.39701 0.12489 0.0
H187 H 0.84987 0.39513 0.13068 0.0
H188 H 0.92483 0.39364 0.27746 0.0
H189 H 0.83586 0.39476 0.31868 0.0
C190 C 0.74001 0.39511 0.27183 0.0
C191 C 0.69292 0.39527 0.24246 0.0
C192 C 0.79127 0.39544 0.24851 0.0
C193 C 0.69766 0.39634 0.18942 0.0
C194 C 0.74853 0.39657 0.16591 0.0
C195 C 0.84675 0.39516 0.17171 0.0
C196 C 0.89383 0.39414 0.20101 0.0
C197 C 0.79556 0.39586 0.19507 0.0
C198 C 0.88918 0.3944 0.25409 0.0
C199 C 0.83834 0.39498 0.27766 0.0
H200 H 0.23293 0.90115 0.81266 0.0
H201 H 0.15896 0.90171 0.66544 0.0
H202 H 0.24819 0.90313 0.62474 0.0
H203 H 0.34712 0.90146 0.63108 0.0
H204 H 0.42121 0.90226 0.77823 0.0
H205 H 0.33196 0.90326 0.81899 0.0
C206 C 0.23638 0.90178 0.77166 0.0
C207 C 0.18949 0.90108 0.74204 0.0
C208 C 0.28775 0.90275 0.74859 0.0
C209 C 0.19447 0.90222 0.68903 0.0
C210 C 0.24546 0.90293 0.66576 0.0
C211 C 0.3437 0.90205 0.67208 0.0
C212 C 0.3906 0.90153 0.70166 0.0
C213 C 0.29235 0.90278 0.69516 0.0
C214 C 0.38567 0.90262 0.75468 0.0
C215 C 0.33467 0.9031 0.77798 0.0
H216 H 0.67636 0.60032 0.75549 0.0
H217 H 0.72585 0.60058 0.59821 0.0
H218 H 0.82054 0.59916 0.62271 0.0
H219 H 0.88962 0.59928 0.68884 0.0
H220 H 0.84029 0.60056 0.84614 0.0
H221 H 0.7455 0.59985 0.82168 0.0
C222 C 0.7079 0.59991 0.72665 0.0
C223 C 0.69412 0.60058 0.67517 0.0
C224 C 0.76239 0.59944 0.74099 0.0
C225 C 0.7354 0.60016 0.63815 0.0
C226 C 0.7896 0.59934 0.6521 0.0
C227 C 0.85809 0.59925 0.71771 0.0
C228 C 0.87195 0.6 0.76916 0.0
C229 C 0.8036 0.59919 0.7034 0.0
C230 C 0.83068 0.60007 0.80621 0.0
C231 C 0.77643 0.59966 0.79229 0.0
H232 H 0.68366 0.90093 0.75508 0.0
H233 H 0.73183 0.90141 0.59752 0.0
H234 H 0.82684 0.90291 0.62138 0.0
H235 H 0.8965 0.90132 0.6871 0.0
H236 H 0.84813 0.89799 0.84453 0.0
H237 H 0.75325 0.9005 0.82078 0.0
C238 C 0.71499 0.90167 0.72604 0.0
C239 C 0.70081 0.90104 0.67468 0.0
C240 C 0.76959 0.90186 0.74003 0.0
C241 C 0.74178 0.90177 0.63738 0.0
C242 C 0.79612 0.90262 0.65097 0.0
C243 C 0.86515 0.90142 0.71615 0.0
C244 C 0.87925 0.89943 0.76743 0.0
C245 C 0.81055 0.90225 0.70217 0.0
C246 C 0.83825 0.89938 0.80472 0.0
C247 C 0.78397 0.90082 0.7912 0.0
H248 H 0.33965 0.5996 0.63037 0.0
H249 H 0.4145 0.59928 0.77724 0.0
H250 H 0.3255 0.59811 0.81836 0.0
H251 H 0.22659 0.59871 0.81251 0.0
H252 H 0.15164 0.59837 0.6657 0.0
H253 H 0.24066 0.59813 0.62452 0.0
C254 C 0.33648 0.59918 0.67139 0.0
C255 C 0.38357 0.59968 0.70076 0.0
C256 C 0.28524 0.59842 0.69471 0.0
C257 C 0.37885 0.59893 0.75382 0.0
C258 C 0.328 0.59831 0.77733 0.0
C259 C 0.22973 0.59848 0.77149 0.0
C260 C 0.18262 0.5987 0.74216 0.0
C261 C 0.28095 0.59828 0.74815 0.0
C262 C 0.18731 0.59821 0.68909 0.0
C263 C 0.23818 0.59813 0.66554 0.0
H264 H 0.72243 0.09031 0.31197 0.0
H265 H 0.64827 0.09179 0.16488 0.0
H266 H 0.73742 0.09003 0.12402 0.0
H267 H 0.83649 0.0911 0.13035 0.0
H268 H 0.9105 0.08839 0.27748 0.0
H269 H 0.82126 0.08738 0.31818 0.0
C270 C 0.7258 0.09004 0.27096 0.0
C271 C 0.67893 0.09145 0.24143 0.0
C272 C 0.77709 0.0889 0.24782 0.0
C273 C 0.68379 0.09075 0.18839 0.0
C274 C 0.73473 0.08985 0.16504 0.0
C275 C 0.83305 0.09007 0.17132 0.0
C276 C 0.87996 0.09008 0.20092 0.0
C277 C 0.78166 0.08938 0.19439 0.0
C278 C 0.87497 0.08843 0.2539 0.0
C279 C 0.82398 0.08796 0.27717 0.0
H280 H 0.18661 0.39319 0.25391 0.0
H281 H 0.23583 0.3892 0.09673 0.0
H282 H 0.33063 0.39072 0.12105 0.0
H283 H 0.39984 0.39195 0.18717 0.0
H284 H 0.35047 0.39441 0.34442 0.0
H285 H 0.25573 0.39483 0.31992 0.0
C286 C 0.21811 0.39278 0.22502 0.0
C287 C 0.20422 0.39107 0.17365 0.0
C288 C 0.27261 0.39335 0.23928 0.0
C289 C 0.24547 0.39044 0.1366 0.0
C290 C 0.29972 0.39133 0.15045 0.0
C291 C 0.3683 0.39274 0.216 0.0
C292 C 0.38213 0.39314 0.26747 0.0
C293 C 0.3138 0.39261 0.20168 0.0
C294 C 0.34087 0.39401 0.30448 0.0
C295 C 0.28665 0.39426 0.29054 0.0
H296 H 0.03875 0.00753 0.07439 0.0
H297 H 0.02035 0.07075 0.95775 0.0
H298 H 0.0234 0.03386 0.89278 0.0
H299 H 0.03143 0.98378 0.86933 0.0
H300 H 0.04975 0.92053 -0.01407 0.0
H301 H 0.04679 0.95742 0.05092 0.0
C302 C 0.0353 0.01324 0.03475 0.0
C303 C 0.02927 0.04181 0.02084 0.0
C304 C 0.03724 0.99197 -0.00229 0.0
C305 C 0.02497 0.0489 0.96937 0.0
C306 C 0.02677 0.02783 0.93225 0.0
C307 C 0.0349 0.97806 0.90896 0.0
C308 C 0.04087 0.94949 0.92285 0.0
C309 C 0.03297 -0.00067 0.94601 0.0
C310 C 0.04518 0.94239 -0.02568 0.0
C311 C 0.04343 0.96346 0.01145 0.0
H312 H 0.04107 0.5543 -0.02621 0.0
H313 H 0.03236 0.50464 0.83686 0.0
H314 H 0.03322 0.46105 0.88649 0.0
H315 H 0.03624 0.43693 0.96889 0.0
H316 H 0.04499 0.48661 0.10579 0.0
H317 H 0.04426 0.53018 0.05614 0.0
C318 C 0.03941 0.53393 0.95487 0.0
C319 C 0.03667 0.5327 0.90181 0.0
C320 C 0.03986 0.50891 -0.01638 0.0
C321 C 0.0345 0.50616 0.87775 0.0
C322 C 0.03497 0.4812 0.90606 0.0
C323 C 0.03795 0.4573 -0.01221 0.0
C324 C 0.04062 0.45853 0.04086 0.0
C325 C 0.03758 0.48231 0.95903 0.0
C326 C 0.04289 0.48508 0.0649 0.0
C327 C 0.04249 0.51003 0.03658 0.0
H328 H 0.53974 0.43885 0.47355 0.0
H329 H 0.54533 0.48884 0.33667 0.0
H330 H 0.54136 0.53231 0.38651 0.0
H331 H 0.53611 0.55623 0.46905 0.0
H332 H 0.53044 0.50621 0.60591 0.0
H333 H 0.53437 0.46276 0.55606 0.0
C334 C 0.54024 0.45927 0.45469 0.0
C335 C 0.54289 0.46063 0.40158 0.0
C336 C 0.53772 0.48421 0.48355 0.0
C337 C 0.54333 0.48722 0.37759 0.0
C338 C 0.541 0.51211 0.40602 0.0
C339 C 0.53558 0.53581 0.4879 0.0
C340 C 0.53294 0.53444 0.54101 0.0
C341 C 0.53806 0.51087 0.45902 0.0
C342 C 0.53244 0.50784 0.56499 0.0
C343 C 0.53475 0.48296 0.53655 0.0
H344 H 0.54052 0.98564 0.57423 0.0
H345 H 0.52773 0.92219 0.45726 0.0
H346 H 0.52565 0.95926 0.39261 0.0
H347 H 0.52776 0.00957 0.36951 0.0
H348 H 0.54075 0.07304 0.48642 0.0
H349 H 0.54251 0.03598 0.55112 0.0
C350 C 0.53722 0.97992 0.53458 0.0
C351 C 0.53427 0.95123 0.52049 0.0
C352 C 0.53615 0.0013 0.49772 0.0
C353 C 0.53005 0.94413 0.46902 0.0
C354 C 0.52888 0.9653 0.43208 0.0
C355 C 0.53099 0.01531 0.40916 0.0
C356 C 0.53415 0.04399 0.42321 0.0
C357 C 0.53197 0.99393 0.44602 0.0
C358 C 0.53829 0.0511 0.47468 0.0
C359 C 0.53928 0.02993 0.51165 0.0
loop_
_geom_bond_atom_site_label_1
_geom_bond_atom_site_label_2
_geom_bond_distance
_geom_bond_site_symmetry_2
_ccdc_geom_bond_type
In0 O1 2.294 . S
In0 O2 2.326 . S
In0 O6 2.266 . S
In0 O7 2.326 . S
In0 O8 2.266 . S
In0 O9 2.326 . S
In0 O11 2.294 1_455 S
In0 O12 2.326 1_455 S
O1 In0 2.294 . S
O1 C10 1.240 . S
O2 In0 2.326 . S
O2 C10 1.252 . S
C3 O6 1.252 . S
C3 O7 1.260 . S
C4 O11 1.240 . S
C4 O12 1.252 . S
C5 O8 1.252 . S
C5 O9 1.260 . S
O6 In0 2.266 . S
O6 C3 1.252 . S
O7 In0 2.326 . S
O7 C3 1.260 . S
O8 In0 2.266 . S
O8 C5 1.252 . S
O9 In0 2.326 . S
O9 C5 1.260 . S
C10 O1 1.240 . S
C10 O2 1.252 . S
O11 In0 2.294 1_655 S
O11 C4 1.240 . S
O12 In0 2.326 1_655 S
O12 C4 1.252 . S
In13 O14 2.294 . S
In13 O15 2.326 . S
In13 O19 2.266 . S
In13 O20 2.326 . S
In13 O21 2.266 1_455 S
In13 O22 2.326 1_455 S
In13 O24 2.294 . S
In13 O25 2.326 . S
O14 In13 2.294 . S
O14 C23 1.240 . S
O15 In13 2.326 . S
O15 C23 1.252 . S
C16 O19 1.252 . S
C16 O20 1.260 . S
C17 O24 1.240 . S
C17 O25 1.252 . S
C18 O21 1.252 . S
C18 O22 1.260 . S
O19 In13 2.266 . S
O19 C16 1.252 . S
O20 In13 2.326 . S
O20 C16 1.260 . S
O21 In13 2.266 1_655 S
O21 C18 1.252 . S
O22 In13 2.326 1_655 S
O22 C18 1.260 . S
C23 O14 1.240 . S
C23 O15 1.252 . S
O24 In13 2.294 . S
O24 C17 1.240 . S
O25 In13 2.326 . S
O25 C17 1.252 . S
In26 O27 2.294 1_455 S
In26 O28 2.326 1_455 S
In26 O32 2.266 . S
In26 O33 2.326 . S
In26 O34 2.266 . S
In26 O35 2.326 . S
In26 O37 2.294 . S
In26 O38 2.326 . S
O27 In26 2.294 1_655 S
O27 C36 1.240 . S
O28 In26 2.326 1_655 S
O28 C36 1.252 . S
C29 O32 1.252 . S
C29 O33 1.260 . S
C30 O37 1.240 . S
C30 O38 1.252 . S
C31 O34 1.252 . S
C31 O35 1.260 . S
O32 In26 2.266 . S
O32 C29 1.252 . S
O33 In26 2.326 . S
O33 C29 1.260 . S
O34 In26 2.266 . S
O34 C31 1.252 . S
O35 In26 2.326 . S
O35 C31 1.260 . S
C36 O27 1.240 . S
C36 O28 1.252 . S
O37 In26 2.294 . S
O37 C30 1.240 . S
O38 In26 2.326 . S
O38 C30 1.252 . S
In39 O40 2.294 . S
In39 O41 2.326 . S
In39 O45 2.266 . S
In39 O46 2.326 . S
In39 O47 2.266 1_455 S
In39 O48 2.326 1_455 S
In39 O50 2.294 . S
In39 O51 2.326 . S
O40 In39 2.294 . S
O40 C49 1.240 . S
O41 In39 2.326 . S
O41 C49 1.252 . S
C42 O45 1.252 . S
C42 O46 1.260 . S
C43 O50 1.240 . S
C43 O51 1.252 . S
C44 O47 1.252 . S
C44 O48 1.260 . S
O45 In39 2.266 . S
O45 C42 1.252 . S
O46 In39 2.326 . S
O46 C42 1.260 . S
O47 In39 2.266 1_655 S
O47 C44 1.252 . S
O48 In39 2.326 1_655 S
O48 C44 1.260 . S
C49 O40 1.240 . S
C49 O41 1.252 . S
O50 In39 2.294 . S
O50 C43 1.240 . S
O51 In39 2.326 . S
O51 C43 1.252 . S
In52 O53 2.294 . S
In52 O54 2.326 . S
In52 O58 2.266 . S
In52 O59 2.326 . S
In52 O60 2.266 . S
In52 O61 2.326 . S
In52 O63 2.294 . S
In52 O64 2.326 . S
O53 In52 2.294 . S
O53 C62 1.240 . S
O54 In52 2.326 . S
O54 C62 1.252 . S
C55 O58 1.252 . S
C55 O59 1.260 . S
C56 O63 1.240 . S
C56 O64 1.252 . S
C57 O60 1.252 . S
C57 O61 1.260 . S
O58 In52 2.266 . S
O58 C55 1.252 . S
O59 In52 2.326 . S
O59 C55 1.260 . S
O60 In52 2.266 . S
O60 C57 1.252 . S
O61 In52 2.326 . S
O61 C57 1.260 . S
C62 O53 1.240 . S
C62 O54 1.252 . S
O63 In52 2.294 . S
O63 C56 1.240 . S
O64 In52 2.326 . S
O64 C56 1.252 . S
In65 O66 2.294 . S
In65 O67 2.326 . S
In65 O71 2.266 . S
In65 O72 2.326 . S
In65 O73 2.266 . S
In65 O74 2.326 . S
In65 O76 2.294 . S
In65 O77 2.326 . S
O66 In65 2.294 . S
O66 C75 1.240 . S
O67 In65 2.326 . S
O67 C75 1.252 . S
C68 O71 1.252 . S
C68 O72 1.260 . S
C69 O76 1.240 . S
C69 O77 1.252 . S
C70 O73 1.252 . S
C70 O74 1.260 . S
O71 In65 2.266 . S
O71 C68 1.252 . S
O72 In65 2.326 . S
O72 C68 1.260 . S
O73 In65 2.266 . S
O73 C70 1.252 . S
O74 In65 2.326 . S
O74 C70 1.260 . S
C75 O66 1.240 . S
C75 O67 1.252 . S
O76 In65 2.294 . S
O76 C69 1.240 . S
O77 In65 2.326 . S
O77 C69 1.252 . S
In78 O79 2.294 . S
In78 O80 2.326 . S
In78 O84 2.266 . S
In78 O85 2.326 . S
In78 O86 2.266 . S
In78 O87 2.326 . S
In78 O89 2.294 . S
In78 O90 2.326 . S
O79 In78 2.294 . S
O79 C88 1.240 . S
O80 In78 2.326 . S
O80 C88 1.252 . S
C81 O84 1.252 . S
C81 O85 1.260 . S
C82 O89 1.240 . S
C82 O90 1.252 . S
C83 O86 1.252 . S
C83 O87 1.260 . S
O84 In78 2.266 . S
O84 C81 1.252 . S
O85 In78 2.326 . S
O85 C81 1.260 . S
O86 In78 2.266 . S
O86 C83 1.252 . S
O87 In78 2.326 . S
O87 C83 1.260 . S
C88 O79 1.240 . S
C88 O80 1.252 . S
O89 In78 2.294 . S
O89 C82 1.240 . S
O90 In78 2.326 . S
O90 C82 1.252 . S
In91 O92 2.294 . S
In91 O93 2.326 . S
In91 O97 2.266 . S
In91 O98 2.326 . S
In91 O99 2.266 . S
In91 O100 2.326 . S
In91 O102 2.294 . S
In91 O103 2.326 . S
O92 In91 2.294 . S
O92 C101 1.240 . S
O93 In91 2.326 . S
O93 C101 1.252 . S
C94 O97 1.252 . S
C94 O98 1.260 . S
C95 O102 1.240 . S
C95 O103 1.252 . S
C96 O99 1.252 . S
C96 O100 1.260 . S
O97 In91 2.266 . S
O97 C94 1.252 . S
O98 In91 2.326 . S
O98 C94 1.260 . S
O99 In91 2.266 . S
O99 C96 1.252 . S
O100 In91 2.326 . S
O100 C96 1.260 . S
C101 O92 1.240 . S
C101 O93 1.252 . S
O102 In91 2.294 . S
O102 C95 1.240 . S
O103 In91 2.326 . S
O103 C95 1.252 . S
H104 C110 0.930 . S
H105 C113 0.930 . S
H106 C114 0.930 . S
H107 C115 0.930 . S
H108 C118 0.930 . S
H109 C119 0.930 . S
C110 H104 0.930 . S
C110 C111 1.355 . S
C110 C112 1.415 . S
C111 C110 1.355 . S
C111 C113 1.419 . S
C112 C110 1.415 . S
C112 C117 1.425 . S
C112 C119 1.409 . S
C113 H105 0.930 . S
C113 C111 1.419 . S
C113 C114 1.362 . S
C114 H106 0.930 . S
C114 C113 1.362 . S
C114 C117 1.409 . S
C115 H107 0.930 . S
C115 C116 1.355 . S
C115 C117 1.415 . S
C116 C115 1.355 . S
C116 C118 1.419 . S
C117 C112 1.425 . S
C117 C114 1.409 . S
C117 C115 1.415 . S
C118 H108 0.930 . S
C118 C116 1.419 . S
C118 C119 1.362 . S
C119 H109 0.930 . S
C119 C112 1.409 . S
C119 C118 1.362 . S
H120 C126 0.930 . S
H121 C129 0.930 . S
H122 C130 0.930 . S
H123 C131 0.930 . S
H124 C134 0.930 . S
H125 C135 0.930 . S
C126 H120 0.930 . S
C126 C127 1.355 . S
C126 C128 1.415 . S
C127 C126 1.355 . S
C127 C129 1.419 . S
C128 C126 1.415 . S
C128 C133 1.425 . S
C128 C135 1.409 . S
C129 H121 0.930 . S
C129 C127 1.419 . S
C129 C130 1.362 . S
C130 H122 0.930 . S
C130 C129 1.362 . S
C130 C133 1.409 . S
C131 H123 0.930 . S
C131 C132 1.355 . S
C131 C133 1.415 . S
C132 C131 1.355 . S
C132 C134 1.419 . S
C133 C128 1.425 . S
C133 C130 1.409 . S
C133 C131 1.415 . S
C134 H124 0.930 . S
C134 C132 1.419 . S
C134 C135 1.362 . S
C135 H125 0.930 . S
C135 C128 1.409 . S
C135 C134 1.362 . S
H136 C142 0.930 . S
H137 C145 0.930 . S
H138 C146 0.930 . S
H139 C147 0.930 . S
H140 C150 0.930 . S
H141 C151 0.930 . S
C142 H136 0.930 . S
C142 C143 1.355 . S
C142 C144 1.415 . S
C143 C142 1.355 . S
C143 C145 1.419 . S
C144 C142 1.415 . S
C144 C149 1.425 . S
C144 C151 1.409 . S
C145 H137 0.930 . S
C145 C143 1.419 . S
C145 C146 1.362 . S
C146 H138 0.930 . S
C146 C145 1.362 . S
C146 C149 1.409 . S
C147 H139 0.930 . S
C147 C148 1.355 . S
C147 C149 1.415 . S
C148 C147 1.355 . S
C148 C150 1.419 . S
C149 C144 1.425 . S
C149 C146 1.409 . S
C149 C147 1.415 . S
C150 H140 0.930 . S
C150 C148 1.419 . S
C150 C151 1.362 . S
C151 H141 0.930 . S
C151 C144 1.409 . S
C151 C150 1.362 . S
H152 C158 0.930 . S
H153 C161 0.930 . S
H154 C162 0.930 . S
H155 C163 0.930 . S
H156 C166 0.930 . S
H157 C167 0.930 . S
C158 H152 0.930 . S
C158 C159 1.355 . S
C158 C160 1.415 . S
C159 C158 1.355 . S
C159 C161 1.419 . S
C160 C158 1.415 . S
C160 C165 1.425 . S
C160 C167 1.409 . S
C161 H153 0.930 . S
C161 C159 1.419 . S
C161 C162 1.362 . S
C162 H154 0.930 . S
C162 C161 1.362 . S
C162 C165 1.409 . S
C163 H155 0.930 . S
C163 C164 1.355 . S
C163 C165 1.415 . S
C164 C163 1.355 . S
C164 C166 1.419 . S
C165 C160 1.425 . S
C165 C162 1.409 . S
C165 C163 1.415 . S
C166 H156 0.930 . S
C166 C164 1.419 . S
C166 C167 1.362 . S
C167 H157 0.930 . S
C167 C160 1.409 . S
C167 C166 1.362 . S
H168 C174 0.930 . S
H169 C177 0.930 . S
H170 C178 0.930 . S
H171 C179 0.930 . S
H172 C182 0.930 . S
H173 C183 0.930 . S
C174 H168 0.930 . S
C174 C175 1.355 . S
C174 C176 1.415 . S
C175 C174 1.355 . S
C175 C177 1.419 . S
C176 C174 1.415 . S
C176 C181 1.425 . S
C176 C183 1.409 . S
C177 H169 0.930 . S
C177 C175 1.419 . S
C177 C178 1.362 . S
C178 H170 0.930 . S
C178 C177 1.362 . S
C178 C181 1.409 . S
C179 H171 0.930 . S
C179 C180 1.355 . S
C179 C181 1.415 . S
C180 C179 1.355 . S
C180 C182 1.419 . S
C181 C176 1.425 . S
C181 C178 1.409 . S
C181 C179 1.415 . S
C182 H172 0.930 . S
C182 C180 1.419 . S
C182 C183 1.362 . S
C183 H173 0.930 . S
C183 C176 1.409 . S
C183 C182 1.362 . S
H184 C190 0.930 . S
H185 C193 0.930 . S
H186 C194 0.930 . S
H187 C195 0.930 . S
H188 C198 0.930 . S
H189 C199 0.930 . S
C190 H184 0.930 . S
C190 C191 1.355 . S
C190 C192 1.415 . S
C191 C190 1.355 . S
C191 C193 1.419 . S
C192 C190 1.415 . S
C192 C197 1.425 . S
C192 C199 1.409 . S
C193 H185 0.930 . S
C193 C191 1.419 . S
C193 C194 1.362 . S
C194 H186 0.930 . S
C194 C193 1.362 . S
C194 C197 1.409 . S
C195 H187 0.930 . S
C195 C196 1.355 . S
C195 C197 1.415 . S
C196 C195 1.355 . S
C196 C198 1.419 . S
C197 C192 1.425 . S
C197 C194 1.409 . S
C197 C195 1.415 . S
C198 H188 0.930 . S
C198 C196 1.419 . S
C198 C199 1.362 . S
C199 H189 0.930 . S
C199 C192 1.409 . S
C199 C198 1.362 . S
H200 C206 0.930 . S
H201 C209 0.930 . S
H202 C210 0.930 . S
H203 C211 0.930 . S
H204 C214 0.930 . S
H205 C215 0.930 . S
C206 H200 0.930 . S
C206 C207 1.355 . S
C206 C208 1.415 . S
C207 C206 1.355 . S
C207 C209 1.419 . S
C208 C206 1.415 . S
C208 C213 1.425 . S
C208 C215 1.409 . S
C209 H201 0.930 . S
C209 C207 1.419 . S
C209 C210 1.362 . S
C210 H202 0.930 . S
C210 C209 1.362 . S
C210 C213 1.409 . S
C211 H203 0.930 . S
C211 C212 1.355 . S
C211 C213 1.415 . S
C212 C211 1.355 . S
C212 C214 1.419 . S
C213 C208 1.425 . S
C213 C210 1.409 . S
C213 C211 1.415 . S
C214 H204 0.930 . S
C214 C212 1.419 . S
C214 C215 1.362 . S
C215 H205 0.930 . S
C215 C208 1.409 . S
C215 C214 1.362 . S
H216 C222 0.930 . S
H217 C225 0.930 . S
H218 C226 0.930 . S
H219 C227 0.930 . S
H220 C230 0.930 . S
H221 C231 0.930 . S
C222 H216 0.930 . S
C222 C223 1.355 . S
C222 C224 1.415 . S
C223 C222 1.355 . S
C223 C225 1.419 . S
C224 C222 1.415 . S
C224 C229 1.425 . S
C224 C231 1.409 . S
C225 H217 0.930 . S
C225 C223 1.419 . S
C225 C226 1.362 . S
C226 H218 0.930 . S
C226 C225 1.362 . S
C226 C229 1.409 . S
C227 H219 0.930 . S
C227 C228 1.355 . S
C227 C229 1.415 . S
C228 C227 1.355 . S
C228 C230 1.419 . S
C229 C224 1.425 . S
C229 C226 1.409 . S
C229 C227 1.415 . S
C230 H220 0.930 . S
C230 C228 1.419 . S
C230 C231 1.362 . S
C231 H221 0.930 . S
C231 C224 1.409 . S
C231 C230 1.362 . S
H232 C238 0.930 . S
H233 C241 0.930 . S
H234 C242 0.930 . S
H235 C243 0.930 . S
H236 C246 0.930 . S
H237 C247 0.930 . S
C238 H232 0.930 . S
C238 C239 1.355 . S
C238 C240 1.415 . S
C239 C238 1.355 . S
C239 C241 1.419 . S
C240 C238 1.415 . S
C240 C245 1.425 . S
C240 C247 1.409 . S
C241 H233 0.930 . S
C241 C239 1.419 . S
C241 C242 1.362 . S
C242 H234 0.930 . S
C242 C241 1.362 . S
C242 C245 1.409 . S
C243 H235 0.930 . S
C243 C244 1.355 . S
C243 C245 1.415 . S
C244 C243 1.355 . S
C244 C246 1.419 . S
C245 C240 1.425 . S
C245 C242 1.409 . S
C245 C243 1.415 . S
C246 H236 0.930 . S
C246 C244 1.419 . S
C246 C247 1.362 . S
C247 H237 0.930 . S
C247 C240 1.409 . S
C247 C246 1.362 . S
H248 C254 0.930 . S
H249 C257 0.930 . S
H250 C258 0.930 . S
H251 C259 0.930 . S
H252 C262 0.930 . S
H253 C263 0.930 . S
C254 H248 0.930 . S
C254 C255 1.355 . S
C254 C256 1.415 . S
C255 C254 1.355 . S
C255 C257 1.419 . S
C256 C254 1.415 . S
C256 C261 1.425 . S
C256 C263 1.409 . S
C257 H249 0.930 . S
C257 C255 1.419 . S
C257 C258 1.362 . S
C258 H250 0.930 . S
C258 C257 1.362 . S
C258 C261 1.409 . S
C259 H251 0.930 . S
C259 C260 1.355 . S
C259 C261 1.415 . S
C260 C259 1.355 . S
C260 C262 1.419 . S
C261 C256 1.425 . S
C261 C258 1.409 . S
C261 C259 1.415 . S
C262 H252 0.930 . S
C262 C260 1.419 . S
C262 C263 1.362 . S
C263 H253 0.930 . S
C263 C256 1.409 . S
C263 C262 1.362 . S
H264 C270 0.930 . S
H265 C273 0.930 . S
H266 C274 0.930 . S
H267 C275 0.930 . S
H268 C278 0.930 . S
H269 C279 0.930 . S
C270 H264 0.930 . S
C270 C271 1.355 . S
C270 C272 1.415 . S
C271 C270 1.355 . S
C271 C273 1.419 . S
C272 C270 1.415 . S
C272 C277 1.425 . S
C272 C279 1.409 . S
C273 H265 0.930 . S
C273 C271 1.419 . S
C273 C274 1.362 . S
C274 H266 0.930 . S
C274 C273 1.362 . S
C274 C277 1.409 . S
C275 H267 0.930 . S
C275 C276 1.355 . S
C275 C277 1.415 . S
C276 C275 1.355 . S
C276 C278 1.419 . S
C277 C272 1.425 . S
C277 C274 1.409 . S
C277 C275 1.415 . S
C278 H268 0.930 . S
C278 C276 1.419 . S
C278 C279 1.362 . S
C279 H269 0.930 . S
C279 C272 1.409 . S
C279 C278 1.362 . S
H280 C286 0.930 . S
H281 C289 0.930 . S
H282 C290 0.930 . S
H283 C291 0.930 . S
H284 C294 0.930 . S
H285 C295 0.930 . S
C286 H280 0.930 . S
C286 C287 1.355 . S
C286 C288 1.415 . S
C287 C286 1.355 . S
C287 C289 1.419 . S
C288 C286 1.415 . S
C288 C293 1.425 . S
C288 C295 1.409 . S
C289 H281 0.930 . S
C289 C287 1.419 . S
C289 C290 1.362 . S
C290 H282 0.930 . S
C290 C289 1.362 . S
C290 C293 1.409 . S
C291 H283 0.930 . S
C291 C292 1.355 . S
C291 C293 1.415 . S
C292 C291 1.355 . S
C292 C294 1.419 . S
C293 C288 1.425 . S
C293 C290 1.409 . S
C293 C291 1.415 . S
C294 H284 0.930 . S
C294 C292 1.419 . S
C294 C295 1.362 . S
C295 H285 0.930 . S
C295 C288 1.409 . S
C295 C294 1.362 . S
H296 C302 0.930 . S
H297 C305 0.930 . S
H298 C306 0.930 . S
H299 C307 0.930 . S
H300 C310 0.930 . S
H301 C311 0.930 . S
C302 H296 0.930 . S
C302 C303 1.355 . S
C302 C304 1.415 . S
C303 C302 1.355 . S
C303 C305 1.419 1_455 S
C304 C302 1.415 . S
C304 C309 1.425 1_444 S
C304 C311 1.409 1_544 S
C305 H297 0.930 . S
C305 C303 1.419 1_655 S
C305 C306 1.362 . S
C306 H298 0.930 . S
C306 C305 1.362 . S
C306 C309 1.409 1_544 S
C307 H299 0.930 . S
C307 C308 1.355 1_655 S
C307 C309 1.415 . S
C308 C307 1.355 1_455 S
C308 C310 1.419 . S
C309 C304 1.425 1_666 S
C309 C306 1.409 1_566 S
C309 C307 1.415 . S
C310 H300 0.930 . S
C310 C308 1.419 . S
C310 C311 1.362 . S
C311 H301 0.930 . S
C311 C304 1.409 1_566 S
C311 C310 1.362 . S
H312 C318 0.930 1_554 S
H313 C321 0.930 . S
H314 C322 0.930 . S
H315 C323 0.930 1_556 S
H316 C326 0.930 . S
H317 C327 0.930 . S
C318 H312 0.930 1_556 S
C318 C319 1.355 . S
C318 C320 1.415 1_556 S
C319 C318 1.355 . S
C319 C321 1.419 . S
C320 C318 1.415 1_554 S
C320 C325 1.425 1_554 S
C320 C327 1.409 . S
C321 H313 0.930 . S
C321 C319 1.419 . S
C321 C322 1.362 . S
C322 H314 0.930 . S
C322 C321 1.362 . S
C322 C325 1.409 . S
C323 H315 0.930 1_554 S
C323 C324 1.355 . S
C323 C325 1.415 1_554 S
C324 C323 1.355 . S
C324 C326 1.419 . S
C325 C320 1.425 1_556 S
C325 C322 1.409 . S
C325 C323 1.415 1_556 S
C326 H316 0.930 . S
C326 C324 1.419 . S
C326 C327 1.362 . S
C327 H317 0.930 . S
C327 C320 1.409 . S
C327 C326 1.362 . S
H328 C334 0.930 . S
H329 C337 0.930 . S
H330 C338 0.930 . S
H331 C339 0.930 . S
H332 C342 0.930 . S
H333 C343 0.930 . S
C334 H328 0.930 . S
C334 C335 1.355 . S
C334 C336 1.415 . S
C335 C334 1.355 . S
C335 C337 1.419 . S
C336 C334 1.415 . S
C336 C341 1.425 . S
C336 C343 1.409 . S
C337 H329 0.930 . S
C337 C335 1.419 . S
C337 C338 1.362 . S
C338 H330 0.930 . S
C338 C337 1.362 . S
C338 C341 1.409 . S
C339 H331 0.930 . S
C339 C340 1.355 . S
C339 C341 1.415 . S
C340 C339 1.355 . S
C340 C342 1.419 . S
C341 C336 1.425 . S
C341 C338 1.409 . S
C341 C339 1.415 . S
C342 H332 0.930 . S
C342 C340 1.419 . S
C342 C343 1.362 . S
C343 H333 0.930 . S
C343 C336 1.409 . S
C343 C342 1.362 . S
H344 C350 0.930 . S
H345 C353 0.930 . S
H346 C354 0.930 . S
H347 C355 0.930 . S
H348 C358 0.930 . S
H349 C359 0.930 . S
C350 H344 0.930 . S
C350 C351 1.355 . S
C350 C352 1.413 . S
C351 C350 1.355 . S
C351 C353 1.419 . S
C352 C350 1.413 . S
C352 C357 1.425 1_565 S
C352 C359 1.410 1_565 S
C353 H345 0.930 . S
C353 C351 1.419 . S
C353 C354 1.362 . S
C354 H346 0.930 . S
C354 C353 1.362 . S
C354 C357 1.410 1_565 S
C355 H347 0.930 . S
C355 C356 1.355 . S
C355 C357 1.413 . S
C356 C355 1.355 . S
C356 C358 1.419 . S
C357 C352 1.425 1_545 S
C357 C354 1.410 1_545 S
C357 C355 1.413 . S
C358 H348 0.930 . S
C358 C356 1.419 . S
C358 C359 1.362 . S
C359 H349 0.930 . S
C359 C352 1.410 1_545 S
C359 C358 1.362 . S
C111 C16 1.463 . S
C116 C3 1.450 . S
C127 C31 1.457 . S
C132 C42 1.472 . S
C143 C57 1.452 . S
C148 C70 1.454 . S
C159 C83 1.473 . S
C164 C96 1.458 . S
C175 C94 1.647 . S
C180 C5 1.654 . S
C191 C81 1.656 . S
C196 C18 1.650 . S
C207 C29 1.663 . S
C212 C68 1.660 . S
C223 C55 1.644 . S
C228 C44 1.650 . S
C239 C75 1.231 . S
C244 C36 1.223 . S
C255 C62 1.228 . S
C260 C43 1.242 . S
C271 C101 1.229 . S
C276 C4 1.242 . S
C287 C17 1.238 . S
C292 C88 1.219 . S
C303 C10 1.426 . S
C308 C30 1.420 . S
C319 C49 1.419 . S
C324 C23 1.418 . S
C335 C82 1.419 . S
C340 C56 1.419 . S
C351 C69 1.427 . S
C356 C95 1.422 . S
