# Generated by pormake.
# Topology hbo, (4)-cn, num edge types: 1
# Building blocks:
#     Node 0, Type 0, BuildingBlock: GALJAG_clean_sbu_0, # of connection points: 4
#     Node 1, Type 0, BuildingBlock: GALJAG_clean_sbu_0, # of connection points: 4
#     Node 2, Type 0, BuildingBlock: GALJAG_clean_sbu_0, # of connection points: 4
#     Node 3, Type 0, BuildingBlock: GALJAG_clean_sbu_0, # of connection points: 4
#     Node 4, Type 0, BuildingBlock: GALJAG_clean_sbu_0, # of connection points: 4
#     Node 5, Type 0, BuildingBlock: GALJAG_clean_sbu_0, # of connection points: 4
#     Node 6, Type 0, BuildingBlock: GALJAG_clean_sbu_0, # of connection points: 4
#     Node 7, Type 0, BuildingBlock: GALJAG_clean_sbu_0, # of connection points: 4
#     Node 8, Type 0, BuildingBlock: GALJAG_clean_sbu_0, # of connection points: 4
#     Node 9, Type 0, BuildingBlock: GALJAG_clean_sbu_0, # of connection points: 4
#     Node 10, Type 0, BuildingBlock: GALJAG_clean_sbu_0, # of connection points: 4
#     Node 11, Type 0, BuildingBlock: GALJAG_clean_sbu_0, # of connection points: 4
#     Node 12, Type 0, BuildingBlock: GALJAG_clean_sbu_0, # of connection points: 4
#     Node 13, Type 0, BuildingBlock: GALJAG_clean_sbu_0, # of connection points: 4
#     Node 14, Type 0, BuildingBlock: GALJAG_clean_sbu_0, # of connection points: 4
#     Node 15, Type 0, BuildingBlock: GALJAG_clean_sbu_0, # of connection points: 4
#     Node 16, Type 0, BuildingBlock: GALJAG_clean_sbu_0, # of connection points: 4
#     Node 17, Type 0, BuildingBlock: GALJAG_clean_sbu_0, # of connection points: 4
#     Node 18, Type 0, BuildingBlock: GALJAG_clean_sbu_0, # of connection points: 4
#     Node 19, Type 0, BuildingBlock: GALJAG_clean_sbu_0, # of connection points: 4
#     Node 20, Type 0, BuildingBlock: GALJAG_clean_sbu_0, # of connection points: 4
#     Node 21, Type 0, BuildingBlock: GALJAG_clean_sbu_0, # of connection points: 4
#     Node 22, Type 0, BuildingBlock: GALJAG_clean_sbu_0, # of connection points: 4
#     Node 23, Type 0, BuildingBlock: GALJAG_clean_sbu_0, # of connection points: 4
#     Edge 24, Type (0, 0), BuildingBlock: TEMPAE_clean_linker_10, # of connection points: 2
#     Edge 25, Type (0, 0), BuildingBlock: TEMPAE_clean_linker_10, # of connection points: 2
#     Edge 26, Type (0, 0), BuildingBlock: TEMPAE_clean_linker_10, # of connection points: 2
#     Edge 27, Type (0, 0), BuildingBlock: TEMPAE_clean_linker_10, # of connection points: 2
#     Edge 28, Type (0, 0), BuildingBlock: TEMPAE_clean_linker_10, # of connection points: 2
#     Edge 29, Type (0, 0), BuildingBlock: TEMPAE_clean_linker_10, # of connection points: 2
#     Edge 30, Type (0, 0), BuildingBlock: TEMPAE_clean_linker_10, # of connection points: 2
#     Edge 31, Type (0, 0), BuildingBlock: TEMPAE_clean_linker_10, # of connection points: 2
#     Edge 32, Type (0, 0), BuildingBlock: TEMPAE_clean_linker_10, # of connection points: 2
#     Edge 33, Type (0, 0), BuildingBlock: TEMPAE_clean_linker_10, # of connection points: 2
#     Edge 34, Type (0, 0), BuildingBlock: TEMPAE_clean_linker_10, # of connection points: 2
#     Edge 35, Type (0, 0), BuildingBlock: TEMPAE_clean_linker_10, # of connection points: 2
#     Edge 36, Type (0, 0), BuildingBlock: TEMPAE_clean_linker_10, # of connection points: 2
#     Edge 37, Type (0, 0), BuildingBlock: TEMPAE_clean_linker_10, # of connection points: 2
#     Edge 38, Type (0, 0), BuildingBlock: TEMPAE_clean_linker_10, # of connection points: 2
#     Edge 39, Type (0, 0), BuildingBlock: TEMPAE_clean_linker_10, # of connection points: 2
#     Edge 40, Type (0, 0), BuildingBlock: TEMPAE_clean_linker_10, # of connection points: 2
#     Edge 41, Type (0, 0), BuildingBlock: TEMPAE_clean_linker_10, # of connection points: 2
#     Edge 42, Type (0, 0), BuildingBlock: TEMPAE_clean_linker_10, # of connection points: 2
#     Edge 43, Type (0, 0), BuildingBlock: TEMPAE_clean_linker_10, # of connection points: 2
#     Edge 44, Type (0, 0), BuildingBlock: TEMPAE_clean_linker_10, # of connection points: 2
#     Edge 45, Type (0, 0), BuildingBlock: TEMPAE_clean_linker_10, # of connection points: 2
#     Edge 46, Type (0, 0), BuildingBlock: TEMPAE_clean_linker_10, # of connection points: 2
#     Edge 47, Type (0, 0), BuildingBlock: TEMPAE_clean_linker_10, # of connection points: 2
#     Edge 48, Type (0, 0), BuildingBlock: TEMPAE_clean_linker_10, # of connection points: 2
#     Edge 49, Type (0, 0), BuildingBlock: TEMPAE_clean_linker_10, # of connection points: 2
#     Edge 50, Type (0, 0), BuildingBlock: TEMPAE_clean_linker_10, # of connection points: 2
#     Edge 51, Type (0, 0), BuildingBlock: TEMPAE_clean_linker_10, # of connection points: 2
#     Edge 52, Type (0, 0), BuildingBlock: TEMPAE_clean_linker_10, # of connection points: 2
#     Edge 53, Type (0, 0), BuildingBlock: TEMPAE_clean_linker_10, # of connection points: 2
#     Edge 54, Type (0, 0), BuildingBlock: TEMPAE_clean_linker_10, # of connection points: 2
#     Edge 55, Type (0, 0), BuildingBlock: TEMPAE_clean_linker_10, # of connection points: 2
#     Edge 56, Type (0, 0), BuildingBlock: TEMPAE_clean_linker_10, # of connection points: 2
#     Edge 57, Type (0, 0), BuildingBlock: TEMPAE_clean_linker_10, # of connection points: 2
#     Edge 58, Type (0, 0), BuildingBlock: TEMPAE_clean_linker_10, # of connection points: 2
#     Edge 59, Type (0, 0), BuildingBlock: TEMPAE_clean_linker_10, # of connection points: 2
#     Edge 60, Type (0, 0), BuildingBlock: TEMPAE_clean_linker_10, # of connection points: 2
#     Edge 61, Type (0, 0), BuildingBlock: TEMPAE_clean_linker_10, # of connection points: 2
#     Edge 62, Type (0, 0), BuildingBlock: TEMPAE_clean_linker_10, # of connection points: 2
#     Edge 63, Type (0, 0), BuildingBlock: TEMPAE_clean_linker_10, # of connection points: 2
#     Edge 64, Type (0, 0), BuildingBlock: TEMPAE_clean_linker_10, # of connection points: 2
#     Edge 65, Type (0, 0), BuildingBlock: TEMPAE_clean_linker_10, # of connection points: 2
#     Edge 66, Type (0, 0), BuildingBlock: TEMPAE_clean_linker_10, # of connection points: 2
#     Edge 67, Type (0, 0), BuildingBlock: TEMPAE_clean_linker_10, # of connection points: 2
#     Edge 68, Type (0, 0), BuildingBlock: TEMPAE_clean_linker_10, # of connection points: 2
#     Edge 69, Type (0, 0), BuildingBlock: TEMPAE_clean_linker_10, # of connection points: 2
#     Edge 70, Type (0, 0), BuildingBlock: TEMPAE_clean_linker_10, # of connection points: 2
#     Edge 71, Type (0, 0), BuildingBlock: TEMPAE_clean_linker_10, # of connection points: 2
# Relax obj value: 0.092
# Max RMSD: 0.160
# Mean RMSD: 0.160
data_MOF--net-hbo--node1-GALJAG_clean_sbu_0--edge1-TEMPAE_clean_linker_10
_symmetry_space_group_name_H-M    P1
_symmetry_Int_Tables_number       1
_symmetry_cell_setting            triclinic
loop_
_symmetry_equiv_pos_as_xyz
'x, y, z'
_cell_length_a     53.926176
_cell_length_b     53.92428
_cell_length_c     53.927065
_cell_angle_alpha  89.986628
_cell_angle_beta   89.991164
_cell_angle_gamma 89.979552
loop_
_atom_site_label
_atom_site_type_symbol
_atom_site_fract_x
_atom_site_fract_y
_atom_site_fract_z
_atom_type_partial_charge
In0 In 0.14168 0.36542 0.2499 0.0
O1 O 0.14383 0.3991 0.27559 0.0
O2 O 0.14152 0.40491 0.23651 0.0
C3 C 0.14954 0.32599 0.27968 0.0
C4 C 0.09348 0.36158 0.23814 0.0
C5 C 0.18202 0.3604 0.22123 0.0
O6 O 0.15198 0.34797 0.28747 0.0
O7 O 0.14267 0.32426 0.25744 0.0
O8 O 0.16071 0.3538 0.21405 0.0
O9 O 0.1828 0.36986 0.24261 0.0
C10 C 0.14296 0.41445 0.25784 0.0
O11 O 0.11042 0.35694 0.22265 0.0
O12 O 0.10092 0.36796 0.25938 0.0
In13 In 0.14103 0.64845 0.74576 0.0
O14 O 0.12315 0.6165 0.72455 0.0
O15 O 0.16236 0.61719 0.72702 0.0
C16 C 0.15322 0.68345 0.71208 0.0
C17 C 0.09646 0.65247 0.76781 0.0
C18 C 0.17151 0.65188 0.78524 0.0
O19 O 0.16894 0.6723 0.72525 0.0
O20 O 0.13114 0.67643 0.71526 0.0
O21 O 0.15954 0.6701 0.77681 0.0
O22 O 0.16734 0.63165 0.77434 0.0
C23 C 0.14335 0.60578 0.7197 0.0
O24 O 0.10633 0.67011 0.75603 0.0
O25 O 0.10937 0.63298 0.76895 0.0
In26 In 0.8574 0.63286 0.25244 0.0
O27 O 0.86024 0.6006 0.28015 0.0
O28 O 0.85166 0.59283 0.24237 0.0
C29 C 0.8492 0.66876 0.28658 0.0
C30 C 0.90354 0.63416 0.23356 0.0
C31 C 0.81948 0.64219 0.22145 0.0
O32 O 0.83538 0.65003 0.28447 0.0
O33 O 0.86767 0.66877 0.27233 0.0
O34 O 0.83919 0.65485 0.2211 0.0
O35 O 0.81918 0.62489 0.23714 0.0
C36 C 0.85524 0.58445 0.26389 0.0
O37 O 0.8847 0.63919 0.2206 0.0
O38 O 0.89897 0.62853 0.2558 0.0
In39 In 0.86714 0.35683 0.73778 0.0
O40 O 0.8684 0.38926 0.71014 0.0
O41 O 0.8567 0.39622 0.74714 0.0
C42 C 0.86176 0.31614 0.70954 0.0
C43 C 0.91495 0.35618 0.75218 0.0
C44 C 0.82658 0.34797 0.76509 0.0
O45 O 0.85847 0.33773 0.70096 0.0
O46 O 0.86843 0.31535 0.73195 0.0
O47 O 0.84807 0.34814 0.77455 0.0
O48 O 0.82578 0.35244 0.74212 0.0
C49 C 0.86086 0.40488 0.72587 0.0
O50 O 0.8974 0.35667 0.76767 0.0
O51 O 0.90827 0.35592 0.72979 0.0
In52 In 0.24951 0.1355 0.37488 0.0
O53 O 0.22202 0.10502 0.36422 0.0
O54 O 0.25214 0.09571 0.388 0.0
C55 C 0.22428 0.17599 0.35977 0.0
C56 C 0.25815 0.14534 0.42298 0.0
C57 C 0.28363 0.1323 0.33854 0.0
O58 O 0.2133 0.1564 0.36647 0.0
O59 O 0.24758 0.17497 0.36081 0.0
O60 O 0.28781 0.14355 0.35867 0.0
O61 O 0.26262 0.12215 0.33718 0.0
C62 C 0.23318 0.08838 0.37641 0.0
O63 O 0.27546 0.14011 0.40808 0.0
O64 O 0.23676 0.14568 0.41351 0.0
In65 In 0.3608 0.7473 0.85531 0.0
O66 O 0.3963 0.73558 0.83588 0.0
O67 O 0.39126 0.724 0.87318 0.0
C68 C 0.32997 0.70856 0.84848 0.0
C69 C 0.35551 0.77297 0.89795 0.0
C70 C 0.35136 0.78193 0.82037 0.0
O71 O 0.34215 0.71832 0.83108 0.0
O72 O 0.3341 0.71773 0.86956 0.0
O73 O 0.33461 0.76975 0.83114 0.0
O74 O 0.37304 0.77731 0.82782 0.0
C75 C 0.40508 0.72418 0.85431 0.0
O76 O 0.37609 0.77094 0.88702 0.0
O77 O 0.33761 0.76295 0.8868 0.0
In78 In 0.74783 0.86371 0.36243 0.0
O79 O 0.71798 0.85802 0.39208 0.0
O80 O 0.75459 0.86701 0.40365 0.0
C81 C 0.71315 0.85454 0.32775 0.0
C82 C 0.76109 0.91164 0.35933 0.0
C83 C 0.78129 0.82793 0.35157 0.0
O84 O 0.71673 0.84016 0.3459 0.0
O85 O 0.72675 0.87352 0.32744 0.0
O86 O 0.77595 0.84512 0.33664 0.0
O87 O 0.77053 0.82936 0.37223 0.0
C88 C 0.73256 0.86227 0.4099 0.0
O89 O 0.77716 0.89459 0.36014 0.0
O90 O 0.73892 0.90434 0.36017 0.0
In91 In 0.63839 0.24364 0.85528 0.0
O92 O 0.62709 0.21685 0.88633 0.0
O93 O 0.65823 0.24026 0.89203 0.0
C94 C 0.64129 0.21171 0.81713 0.0
C95 C 0.59357 0.26609 0.85574 0.0
C96 C 0.67838 0.27163 0.845 0.0
O97 O 0.64058 0.20428 0.83936 0.0
O98 O 0.63976 0.23489 0.81446 0.0
O99 O 0.65714 0.28117 0.84781 0.0
O100 O 0.67919 0.24846 0.84781 0.0
C101 C 0.64419 0.22377 0.90074 0.0
O102 O 0.61006 0.27093 0.8716 0.0
O103 O 0.59996 0.25052 0.83957 0.0
In104 In 0.25661 0.87302 0.6322 0.0
O105 O 0.28285 0.86368 0.6001 0.0
O106 O 0.24877 0.88179 0.59192 0.0
C107 C 0.29257 0.86087 0.66501 0.0
C108 C 0.24314 0.92043 0.63919 0.0
C109 C 0.2208 0.8392 0.64157 0.0
O110 O 0.28537 0.84631 0.64822 0.0
O111 O 0.28244 0.8819 0.66453 0.0
O112 O 0.22749 0.85522 0.6572 0.0
O113 O 0.23157 0.84077 0.62091 0.0
C114 C 0.26869 0.87268 0.58376 0.0
O115 O 0.2286 0.9026 0.64363 0.0
O116 O 0.26428 0.91425 0.63124 0.0
In117 In 0.63174 0.74885 0.14241 0.0
O118 O 0.61628 0.77047 0.10931 0.0
O119 O 0.65404 0.75951 0.10839 0.0
C120 C 0.64268 0.78668 0.17312 0.0
C121 C 0.58721 0.72644 0.14539 0.0
C122 C 0.66266 0.71194 0.15579 0.0
O123 O 0.65876 0.77543 0.16046 0.0
O124 O 0.62068 0.77967 0.16938 0.0
O125 O 0.65813 0.71693 0.13342 0.0
O126 O 0.65066 0.72472 0.17122 0.0
C127 C 0.63635 0.76998 0.09732 0.0
O128 O 0.60186 0.7228 0.1275 0.0
O129 O 0.59528 0.74097 0.16183 0.0
In130 In 0.7478 0.1279 0.63319 0.0
O131 O 0.71905 0.13874 0.60403 0.0
O132 O 0.75532 0.12882 0.59202 0.0
C133 C 0.71986 0.12931 0.67444 0.0
C134 C 0.75968 0.07952 0.63273 0.0
C135 C 0.77655 0.16808 0.64009 0.0
O136 O 0.7105 0.13031 0.653 0.0
O137 O 0.74315 0.12712 0.67493 0.0
O138 O 0.7857 0.14678 0.63665 0.0
O139 O 0.7532 0.16896 0.63966 0.0
C140 C 0.73371 0.13553 0.58606 0.0
O141 O 0.77524 0.09594 0.63883 0.0
O142 O 0.73849 0.08763 0.62713 0.0
In143 In 0.36182 0.23644 0.15253 0.0
O144 O 0.39808 0.23959 0.17379 0.0
O145 O 0.39377 0.26183 0.14158 0.0
C146 C 0.33399 0.2758 0.16551 0.0
C147 C 0.35687 0.21825 0.10612 0.0
C148 C 0.34745 0.19862 0.18191 0.0
O149 O 0.34331 0.2611 0.18111 0.0
O150 O 0.33951 0.27125 0.14325 0.0
O151 O 0.36977 0.20159 0.17554 0.0
O152 O 0.33252 0.21388 0.17242 0.0
C153 C 0.40758 0.25528 0.15929 0.0
O154 O 0.37695 0.21706 0.11801 0.0
O155 O 0.33913 0.22768 0.11802 0.0
In156 In 0.86598 0.63629 0.74971 0.0
O157 O 0.89717 0.64346 0.77757 0.0
O158 O 0.90627 0.64 0.7393 0.0
C159 C 0.82576 0.63929 0.77925 0.0
C160 C 0.86562 0.58828 0.73622 0.0
C161 C 0.85887 0.67631 0.72088 0.0
O162 O 0.84753 0.64136 0.78767 0.0
O163 O 0.82453 0.63502 0.7563 0.0
O164 O 0.86185 0.65489 0.71189 0.0
O165 O 0.85983 0.67742 0.74422 0.0
C166 C 0.91389 0.64346 0.76113 0.0
O167 O 0.8565 0.60505 0.72269 0.0
O168 O 0.87454 0.59573 0.7565 0.0
In169 In 0.86198 0.35457 0.23815 0.0
O170 O 0.85227 0.38458 0.26654 0.0
O171 O 0.87401 0.39464 0.23517 0.0
C172 C 0.85151 0.31625 0.26819 0.0
C173 C 0.91007 0.34805 0.22696 0.0
C174 C 0.82408 0.35057 0.20553 0.0
O175 O 0.8523 0.3383 0.27608 0.0
O176 O 0.85631 0.31374 0.24544 0.0
O177 O 0.84467 0.33997 0.20233 0.0
O178 O 0.82306 0.36415 0.22449 0.0
C179 C 0.86376 0.40145 0.25506 0.0
O180 O 0.89504 0.35783 0.21189 0.0
O181 O 0.90076 0.34145 0.24738 0.0
In182 In 0.14329 0.37723 0.74927 0.0
O183 O 0.11265 0.35903 0.77226 0.0
O184 O 0.10458 0.39292 0.75372 0.0
C185 C 0.18045 0.36436 0.78048 0.0
C186 C 0.15022 0.42437 0.73425 0.0
C187 C 0.14411 0.34242 0.71332 0.0
O188 O 0.1603 0.37332 0.78832 0.0
O189 O 0.18164 0.36211 0.75731 0.0
O190 O 0.16094 0.35846 0.71583 0.0
O191 O 0.12637 0.34447 0.72838 0.0
C192 C 0.09676 0.37554 0.76728 0.0
O193 O 0.14371 0.40742 0.71952 0.0
O194 O 0.15358 0.4174 0.75633 0.0
In195 In 0.12947 0.63953 0.2223 0.0
O196 O 0.14946 0.61144 0.24699 0.0
O197 O 0.11198 0.60429 0.23744 0.0
C198 C 0.14251 0.67719 0.25259 0.0
C199 C 0.08334 0.64613 0.20426 0.0
C200 C 0.16244 0.63801 0.18469 0.0
O201 O 0.12612 0.6616 0.25857 0.0
O202 O 0.15227 0.67352 0.23171 0.0
O203 O 0.14657 0.65505 0.18695 0.0
O204 O 0.1607 0.62098 0.2006 0.0
C205 C 0.13118 0.59695 0.24856 0.0
O206 O 0.0971 0.62853 0.19727 0.0
O207 O 0.09323 0.66074 0.21958 0.0
In208 In 0.73878 0.85174 0.63573 0.0
O209 O 0.7656 0.8819 0.62265 0.0
O210 O 0.74385 0.88873 0.65481 0.0
C211 C 0.77155 0.81426 0.63849 0.0
C212 C 0.71602 0.85051 0.59113 0.0
C213 C 0.71036 0.84327 0.67589 0.0
O214 O 0.77844 0.83664 0.63772 0.0
O215 O 0.74843 0.81108 0.63724 0.0
O216 O 0.70089 0.84749 0.65488 0.0
O217 O 0.73369 0.84384 0.67641 0.0
C218 C 0.75984 0.89678 0.63979 0.0
O219 O 0.72861 0.83277 0.5996 0.0
O220 O 0.71415 0.86882 0.60555 0.0
In221 In 0.63693 0.2343 0.13299 0.0
O222 O 0.64783 0.20942 0.10026 0.0
O223 O 0.63134 0.24443 0.09277 0.0
C224 C 0.6479 0.19533 0.16236 0.0
C225 C 0.58931 0.24713 0.14068 0.0
C226 C 0.6697 0.26985 0.14596 0.0
O227 O 0.66422 0.20706 0.15037 0.0
O228 O 0.62601 0.20263 0.15872 0.0
O229 O 0.6651 0.26455 0.12367 0.0
O230 O 0.6572 0.25781 0.16164 0.0
C231 C 0.64013 0.22457 0.08415 0.0
O232 O 0.60699 0.26075 0.14775 0.0
O233 O 0.59581 0.22743 0.12995 0.0
In234 In 0.23702 0.14943 0.65233 0.0
O235 O 0.24862 0.13096 0.61644 0.0
O236 O 0.25681 0.16928 0.6204 0.0
C237 C 0.26861 0.16549 0.68777 0.0
C238 C 0.22334 0.10212 0.6605 0.0
C239 C 0.19787 0.18057 0.6535 0.0
O240 O 0.27604 0.15328 0.66924 0.0
O241 O 0.24564 0.16948 0.68816 0.0
O242 O 0.20149 0.16411 0.66972 0.0
O243 O 0.21333 0.18049 0.63596 0.0
C244 C 0.25764 0.15024 0.6068 0.0
O245 O 0.21173 0.1162 0.64584 0.0
O246 O 0.24131 0.11218 0.67157 0.0
In247 In 0.35623 0.7356 0.125 0.0
O248 O 0.38826 0.70906 0.13428 0.0
O249 O 0.39671 0.74589 0.12317 0.0
C250 C 0.32488 0.69722 0.13146 0.0
C251 C 0.35313 0.75242 0.07812 0.0
C252 C 0.34102 0.76781 0.1602 0.0
O253 O 0.33865 0.70524 0.1486 0.0
O254 O 0.32773 0.70787 0.11085 0.0
O255 O 0.32638 0.75835 0.14462 0.0
O256 O 0.36341 0.76169 0.15751 0.0
C257 C 0.40481 0.72501 0.1298 0.0
O258 O 0.34786 0.76602 0.09645 0.0
O259 O 0.35961 0.73063 0.0836 0.0
In260 In 0.73421 0.13598 0.35982 0.0
O261 O 0.76216 0.10757 0.3454 0.0
O262 O 0.74467 0.10055 0.38 0.0
C263 C 0.76274 0.17483 0.3468 0.0
C264 C 0.71544 0.1453 0.40504 0.0
C265 C 0.70022 0.13129 0.32334 0.0
O266 O 0.77121 0.15687 0.3592 0.0
O267 O 0.74017 0.17303 0.34113 0.0
O268 O 0.69777 0.14633 0.34106 0.0
O269 O 0.71918 0.11772 0.32473 0.0
C270 C 0.75965 0.09313 0.36366 0.0
O271 O 0.733 0.15764 0.39576 0.0
O272 O 0.70692 0.12839 0.39127 0.0
In273 In 0.36251 0.25938 0.87692 0.0
O274 O 0.35663 0.22965 0.90642 0.0
O275 O 0.36138 0.26704 0.91819 0.0
C276 C 0.35719 0.233 0.83486 0.0
C277 C 0.41131 0.26967 0.87612 0.0
C278 C 0.32242 0.28863 0.87109 0.0
O279 O 0.35343 0.22369 0.85603 0.0
O280 O 0.3642 0.2553 0.83507 0.0
O281 O 0.34424 0.29717 0.87017 0.0
O282 O 0.32107 0.26575 0.87567 0.0
C283 C 0.35799 0.2447 0.92431 0.0
O284 O 0.39513 0.2864 0.87329 0.0
O285 O 0.40276 0.24814 0.87925 0.0
In286 In 0.24544 0.85718 0.35378 0.0
O287 O 0.21788 0.88894 0.36007 0.0
O288 O 0.25417 0.89765 0.34727 0.0
C289 C 0.21215 0.82133 0.34407 0.0
C290 C 0.26124 0.85391 0.40103 0.0
C291 C 0.27483 0.84622 0.31491 0.0
O292 O 0.20843 0.84365 0.33793 0.0
O293 O 0.23214 0.81752 0.35556 0.0
O294 O 0.2787 0.83753 0.33632 0.0
O295 O 0.25672 0.86092 0.3134 0.0
C296 C 0.23314 0.90556 0.35375 0.0
O297 O 0.27536 0.86102 0.38376 0.0
O298 O 0.23956 0.84836 0.39433 0.0
In299 In 0.63538 0.74 0.86744 0.0
O300 O 0.64127 0.76898 0.89777 0.0
O301 O 0.63751 0.73114 0.90835 0.0
C302 C 0.63663 0.76767 0.82604 0.0
C303 C 0.58724 0.72727 0.86694 0.0
C304 C 0.67691 0.71345 0.85956 0.0
O305 O 0.63983 0.77696 0.84733 0.0
O306 O 0.63252 0.74464 0.82585 0.0
O307 O 0.65592 0.70324 0.86175 0.0
O308 O 0.67682 0.73672 0.86195 0.0
C309 C 0.64041 0.75333 0.91517 0.0
O310 O 0.60415 0.71149 0.86307 0.0
O311 O 0.5948 0.749 0.87103 0.0
C312 C 0.11187 0.55684 0.26072 0.0
C313 C 0.13303 0.57183 0.25923 0.0
C314 C 0.11389 0.53141 0.26563 0.0
C315 C 0.13766 0.52078 0.26892 0.0
C316 C 0.15886 0.53623 0.26972 0.0
C317 C 0.15628 0.56168 0.26492 0.0
C318 C 0.09078 0.51562 0.26496 0.0
C319 C 0.18451 0.52563 0.27333 0.0
C320 C 0.14108 0.45215 0.28505 0.0
C321 C 0.14304 0.44159 0.26136 0.0
C322 C 0.13984 0.47803 0.28803 0.0
C323 C 0.14064 0.49349 0.26682 0.0
C324 C 0.14327 0.48285 0.24296 0.0
C325 C 0.14439 0.45707 0.24055 0.0
C326 C 0.13703 0.48877 0.31371 0.0
C327 C 0.14435 0.49869 0.21985 0.0
H328 H 0.09381 0.5647 0.25666 0.0
H329 H 0.17269 0.57325 0.26396 0.0
H330 H 0.09022 0.50513 0.24726 0.0
H331 H 0.09087 0.5019 0.28029 0.0
H332 H 0.07364 0.52698 0.26631 0.0
H333 H 0.19826 0.54023 0.27801 0.0
H334 H 0.18456 0.51143 0.28821 0.0
H335 H 0.19055 0.51641 0.25595 0.0
H336 H 0.14005 0.4402 0.30118 0.0
H337 H 0.14606 0.44901 0.22221 0.0
H338 H 0.11856 0.49765 0.31549 0.0
H339 H 0.15115 0.50339 0.31693 0.0
H340 H 0.13886 0.47442 0.32838 0.0
H341 H 0.12676 0.50916 0.21774 0.0
H342 H 0.14735 0.48751 0.2028 0.0
H343 H 0.15957 0.51244 0.22139 0.0
C344 C 0.94872 0.65112 0.79097 0.0
C345 C 0.94047 0.64661 0.76672 0.0
C346 C 0.97416 0.65354 0.79614 0.0
C347 C 0.99153 0.65118 0.7766 0.0
C348 C 0.9832 0.6468 0.7521 0.0
C349 C 0.95779 0.64465 0.74747 0.0
C350 C 0.98245 0.6584 0.82242 0.0
C351 C 0.00114 0.6441 0.73072 0.0
C352 C 0.05696 0.67548 0.77461 0.0
C353 C 0.07045 0.65333 0.77621 0.0
C354 C 0.0311 0.67551 0.77727 0.0
C355 C 0.01858 0.6528 0.7813 0.0
C356 C 0.03236 0.6308 0.78524 0.0
C357 C 0.05822 0.63136 0.78276 0.0
C358 C 0.01709 0.69944 0.77345 0.0
C359 C 0.01971 0.6062 0.78956 0.0
H360 H 0.93533 0.65268 0.80588 0.0
H361 H 0.95152 0.64117 0.7287 0.0
H362 H 0.99388 0.64268 0.82914 0.0
H363 H 0.99426 0.67523 0.82309 0.0
H364 H 0.96654 0.66094 0.83527 0.0
H365 H 0.99156 0.6407 0.7128 0.0
H366 H 0.01252 0.66114 0.72888 0.0
H367 H 0.01401 0.62844 0.7343 0.0
H368 H 0.06642 0.69258 0.76989 0.0
H369 H 0.06863 0.61421 0.78421 0.0
H370 H 0.00166 0.70113 0.78695 0.0
H371 H 0.00888 0.69959 0.75458 0.0
H372 H 0.02937 0.71588 0.77529 0.0
H373 H 0.00443 0.60811 0.80318 0.0
H374 H 0.03287 0.59185 0.79631 0.0
H375 H 0.01147 0.59962 0.77189 0.0
C376 C 0.88161 0.44382 0.25297 0.0
C377 C 0.86424 0.4275 0.26327 0.0
C378 C 0.88058 0.46926 0.25798 0.0
C379 C 0.86147 0.47862 0.27335 0.0
C380 C 0.84482 0.46204 0.28506 0.0
C381 C 0.8465 0.43654 0.27997 0.0
C382 C 0.89895 0.48628 0.24542 0.0
C383 C 0.82419 0.47133 0.30153 0.0
C384 C 0.86713 0.54711 0.28885 0.0
C385 C 0.85422 0.55763 0.26891 0.0
C386 C 0.86871 0.5212 0.29144 0.0
C387 C 0.85684 0.50575 0.27383 0.0
C388 C 0.84247 0.51644 0.25464 0.0
C389 C 0.8415 0.54223 0.25233 0.0
C390 C 0.88423 0.51044 0.31208 0.0
C391 C 0.8292 0.50065 0.23568 0.0
H392 H 0.8956 0.4368 0.24035 0.0
H393 H 0.83312 0.4239 0.28805 0.0
H394 H 0.88937 0.49712 0.23078 0.0
H395 H 0.90676 0.49968 0.25892 0.0
H396 H 0.91446 0.47589 0.2367 0.0
H397 H 0.81555 0.4561 0.31238 0.0
H398 H 0.83113 0.48567 0.31454 0.0
H399 H 0.80963 0.48009 0.28991 0.0
H400 H 0.87696 0.55905 0.30169 0.0
H401 H 0.83122 0.55038 0.23709 0.0
H402 H 0.90173 0.50296 0.30425 0.0
H403 H 0.87442 0.49483 0.32121 0.0
H404 H 0.88898 0.52456 0.32631 0.0
H405 H 0.84301 0.49098 0.22387 0.0
H406 H 0.81689 0.5118 0.22348 0.0
H407 H 0.81787 0.48623 0.24501 0.0
C408 C 0.05423 0.39319 0.76952 0.0
C409 C 0.0703 0.37322 0.77377 0.0
C410 C 0.02848 0.39007 0.77077 0.0
C411 C 0.01863 0.36635 0.77619 0.0
C412 C 0.03479 0.34664 0.78251 0.0
C413 C 0.06053 0.35034 0.78131 0.0
C414 C 0.01188 0.41167 0.76424 0.0
C415 C 0.02499 0.32112 0.78849 0.0
C416 C 0.94862 0.36222 0.78364 0.0
C417 C 0.94136 0.35672 0.75929 0.0
C418 C 0.97384 0.36467 0.78979 0.0
C419 C 0.99202 0.36139 0.77114 0.0
C420 C 0.98474 0.35488 0.74677 0.0
C421 C 0.95951 0.35272 0.74115 0.0
C422 C 0.98096 0.37166 0.81593 0.0
C423 C 0.00356 0.35099 0.72636 0.0
H424 H 0.06174 0.411 0.76399 0.0
H425 H 0.07293 0.33488 0.78472 0.0
H426 H 0.00377 0.40865 0.74556 0.0
H427 H 0.9963 0.41315 0.77758 0.0
H428 H 0.02214 0.42953 0.76403 0.0
H429 H 0.03939 0.30918 0.79713 0.0
H430 H 0.00882 0.32227 0.80116 0.0
H431 H 0.01862 0.31206 0.77115 0.0
H432 H 0.9346 0.36531 0.79771 0.0
H433 H 0.95399 0.34825 0.72234 0.0
H434 H 0.98848 0.3908 0.8161 0.0
H435 H 0.99577 0.35921 0.82293 0.0
H436 H 0.96491 0.37082 0.82883 0.0
H437 H 0.01349 0.36862 0.72263 0.0
H438 H 0.99488 0.34458 0.70881 0.0
H439 H 0.01759 0.33711 0.73217 0.0
C440 C 0.14913 0.45774 0.70197 0.0
C441 C 0.15185 0.45065 0.72686 0.0
C442 C 0.14876 0.48291 0.69523 0.0
C443 C 0.15074 0.50124 0.71389 0.0
C444 C 0.15411 0.4941 0.73895 0.0
C445 C 0.15479 0.4689 0.74508 0.0
C446 C 0.14561 0.48987 0.6683 0.0
C447 C 0.15619 0.51308 0.75947 0.0
C448 C 0.16755 0.56865 0.70662 0.0
C449 C 0.14451 0.57988 0.71098 0.0
C450 C 0.1696 0.54278 0.70486 0.0
C451 C 0.14816 0.52798 0.7079 0.0
C452 C 0.12458 0.53938 0.70974 0.0
C453 C 0.12302 0.56529 0.71109 0.0
C454 C 0.195 0.53132 0.70218 0.0
C455 C 0.10124 0.52426 0.71299 0.0
H456 H 0.14695 0.44364 0.68782 0.0
H457 H 0.15689 0.4635 0.76433 0.0
H458 H 0.12702 0.49818 0.66545 0.0
H459 H 0.15953 0.50401 0.66285 0.0
H460 H 0.14746 0.47358 0.65583 0.0
H461 H 0.15907 0.5044 0.77794 0.0
H462 H 0.1719 0.52582 0.75574 0.0
H463 H 0.13906 0.52446 0.76022 0.0
H464 H 0.18419 0.57992 0.70619 0.0
H465 H 0.10514 0.57392 0.71427 0.0
H466 H 0.19443 0.5151 0.68954 0.0
H467 H 0.20144 0.52467 0.72056 0.0
H468 H 0.20877 0.54487 0.69502 0.0
H469 H 0.1008 0.50856 0.69974 0.0
H470 H 0.08425 0.53563 0.71037 0.0
H471 H 0.10087 0.51635 0.73199 0.0
C472 C 0.94886 0.62812 0.23912 0.0
C473 C 0.92912 0.63538 0.2239 0.0
C474 C 0.97342 0.6303 0.23108 0.0
C475 C 0.97839 0.64006 0.20721 0.0
C476 C 0.95853 0.6468 0.19143 0.0
C477 C 0.93403 0.64437 0.19999 0.0
C478 C 0.99408 0.62274 0.24846 0.0
C479 C 0.96318 0.65719 0.16586 0.0
C480 C 0.04255 0.66748 0.20671 0.0
C481 C 0.05659 0.64717 0.19865 0.0
C482 C 0.01661 0.66634 0.20728 0.0
C483 C 0.00455 0.64428 0.19976 0.0
C484 C 0.01853 0.62469 0.18926 0.0
C485 C 0.04449 0.6264 0.18877 0.0
C486 C 0.00234 0.6878 0.21825 0.0
C487 C 0.00634 0.60096 0.18083 0.0
H488 H 0.94515 0.62101 0.25756 0.0
H489 H 0.91877 0.64995 0.18815 0.0
H490 H 0.00636 0.60899 0.23932 0.0
H491 H 0.00559 0.63915 0.25312 0.0
H492 H 0.987 0.61456 0.26599 0.0
H493 H 0.94579 0.65914 0.15499 0.0
H494 H 0.97198 0.67571 0.16746 0.0
H495 H 0.9762 0.64513 0.15547 0.0
H496 H 0.05185 0.68372 0.21405 0.0
H497 H 0.0553 0.6107 0.18236 0.0
H498 H 0.9962 0.68287 0.23726 0.0
H499 H 0.98552 0.69183 0.20714 0.0
H500 H 0.0138 0.70489 0.21936 0.0
H501 H 0.00132 0.58969 0.1973 0.0
H502 H 0.01886 0.58975 0.1689 0.0
H503 H 0.98901 0.60488 0.17047 0.0
C504 C 0.84964 0.55298 0.71078 0.0
C505 C 0.86558 0.56186 0.72928 0.0
C506 C 0.84807 0.52748 0.70571 0.0
C507 C 0.86303 0.51072 0.71929 0.0
C508 C 0.88011 0.51982 0.73703 0.0
C509 C 0.88102 0.54528 0.74195 0.0
C510 C 0.82952 0.51842 0.68683 0.0
C511 C 0.89666 0.50257 0.75165 0.0
C512 C 0.84294 0.44592 0.73592 0.0
C513 C 0.85839 0.43157 0.72078 0.0
C514 C 0.84292 0.47179 0.73422 0.0
C515 C 0.85912 0.48357 0.71727 0.0
C516 C 0.87367 0.46911 0.70085 0.0
C517 C 0.87298 0.44313 0.70268 0.0
C518 C 0.82677 0.48652 0.75176 0.0
C519 C 0.89124 0.48105 0.68263 0.0
H520 H 0.83773 0.56584 0.70092 0.0
H521 H 0.89359 0.55216 0.75604 0.0
H522 H 0.8382 0.50475 0.67413 0.0
H523 H 0.81407 0.50886 0.69648 0.0
H524 H 0.82168 0.53385 0.67565 0.0
H525 H 0.91058 0.51278 0.7629 0.0
H526 H 0.8852 0.49112 0.76434 0.0
H527 H 0.90658 0.48973 0.73901 0.0
H528 H 0.8314 0.43692 0.74972 0.0
H529 H 0.88495 0.43197 0.69098 0.0
H530 H 0.8166 0.50121 0.74157 0.0
H531 H 0.83858 0.49579 0.76582 0.0
H532 H 0.8131 0.47463 0.76157 0.0
H533 H 0.88208 0.49663 0.6728 0.0
H534 H 0.89823 0.46756 0.66871 0.0
H535 H 0.90734 0.48881 0.69281 0.0
C536 C 0.94842 0.36346 0.20633 0.0
C537 C 0.93691 0.34659 0.22237 0.0
C538 C 0.97437 0.36512 0.20523 0.0
C539 C 0.98892 0.34916 0.22017 0.0
C540 C 0.97731 0.33077 0.23487 0.0
C541 C 0.95139 0.32991 0.23602 0.0
C542 C 0.98608 0.38515 0.18957 0.0
C543 C 0.99221 0.31306 0.25064 0.0
C544 C 0.0588 0.34503 0.21225 0.0
C545 C 0.06692 0.35954 0.23221 0.0
C546 C 0.03336 0.34178 0.20766 0.0
C547 C 0.01587 0.35374 0.22316 0.0
C548 C 0.02409 0.36917 0.24274 0.0
C549 C 0.04952 0.37167 0.24718 0.0
C550 C 0.02523 0.3249 0.18689 0.0
C551 C 0.006 0.38261 0.25942 0.0
H552 H 0.93718 0.37641 0.19582 0.0
H553 H 0.94244 0.31667 0.24823 0.0
H554 H 0.99348 0.39991 0.20186 0.0
H555 H 0.00188 0.37765 0.17876 0.0
H556 H 0.97257 0.39369 0.17656 0.0
H557 H 0.98062 0.29779 0.25819 0.0
H558 H 0.00762 0.30488 0.23972 0.0
H559 H 0.00056 0.32327 0.26642 0.0
H560 H 0.07229 0.33559 0.20071 0.0
H561 H 0.05581 0.3831 0.26248 0.0
H562 H 0.01172 0.33451 0.17471 0.0
H563 H 0.01571 0.30844 0.19474 0.0
H564 H 0.04108 0.31846 0.17541 0.0
H565 H 0.99272 0.39356 0.24814 0.0
H566 H 0.01546 0.3953 0.27259 0.0
H567 H 0.99509 0.36895 0.27026 0.0
C568 C 0.27 0.17349 0.56863 0.0
C569 C 0.26555 0.15086 0.58062 0.0
C570 C 0.27299 0.17447 0.54278 0.0
C571 C 0.27144 0.15232 0.52878 0.0
C572 C 0.2689 0.12926 0.54107 0.0
C573 C 0.26599 0.12882 0.56686 0.0
C574 C 0.276 0.19937 0.53034 0.0
C575 C 0.26727 0.10519 0.52684 0.0
C576 C 0.24175 0.1533 0.46531 0.0
C577 C 0.26218 0.14944 0.44974 0.0
C578 C 0.24473 0.15518 0.49102 0.0
C579 C 0.26876 0.15332 0.50141 0.0
C580 C 0.28962 0.1505 0.48572 0.0
C581 C 0.28606 0.14847 0.45998 0.0
C582 C 0.22198 0.15813 0.50712 0.0
C583 C 0.31552 0.14874 0.49616 0.0
H584 H 0.26982 0.19056 0.57924 0.0
H585 H 0.26283 0.11124 0.5761 0.0
H586 H 0.29041 0.19849 0.51568 0.0
H587 H 0.25829 0.20465 0.52129 0.0
H588 H 0.28105 0.21412 0.54379 0.0
H589 H 0.26823 0.08875 0.53923 0.0
H590 H 0.24948 0.10453 0.51653 0.0
H591 H 0.28246 0.10391 0.51303 0.0
H592 H 0.22326 0.15418 0.45748 0.0
H593 H 0.30192 0.14563 0.44796 0.0
H594 H 0.22409 0.1744 0.51952 0.0
H595 H 0.21975 0.14153 0.51908 0.0
H596 H 0.20478 0.16054 0.49604 0.0
H597 H 0.3189 0.16396 0.50957 0.0
H598 H 0.32989 0.14955 0.48142 0.0
H599 H 0.31765 0.13101 0.50637 0.0
C600 C 0.37463 0.78755 0.93744 0.0
C601 C 0.35331 0.78169 0.9238 0.0
C602 C 0.37381 0.78884 0.96341 0.0
C603 C 0.35116 0.78406 0.97581 0.0
C604 C 0.32908 0.78115 0.96194 0.0
C605 C 0.33042 0.78004 0.93601 0.0
C606 C 0.39769 0.79247 0.97752 0.0
C607 C 0.30451 0.77624 0.97441 0.0
C608 C 0.35616 0.74393 0.03303 0.0
C609 C 0.35216 0.76101 0.05216 0.0
C610 C 0.35583 0.75134 0.00821 0.0
C611 C 0.35152 0.77657 0.0023 0.0
C612 C 0.34745 0.794 0.0215 0.0
C613 C 0.34775 0.78597 0.04632 0.0
C614 C 0.3601 0.73207 0.98829 0.0
C615 C 0.34295 0.82103 0.01582 0.0
H616 H 0.39233 0.78918 0.92804 0.0
H617 H 0.3138 0.77589 0.9255 0.0
H618 H 0.39473 0.80427 0.9941 0.0
H619 H 0.40458 0.77419 0.98401 0.0
H620 H 0.41227 0.80104 0.96575 0.0
H621 H 0.28868 0.77936 0.9616 0.0
H622 H 0.30393 0.75665 0.98072 0.0
H623 H 0.30209 0.78819 0.99097 0.0
H624 H 0.35953 0.7246 0.03745 0.0
H625 H 0.34474 0.79924 0.06111 0.0
H626 H 0.3766 0.73709 0.97707 0.0
H627 H 0.34395 0.73142 0.97556 0.0
H628 H 0.36302 0.71322 0.99607 0.0
H629 H 0.35914 0.82884 0.00582 0.0
H630 H 0.33972 0.83215 0.03286 0.0
H631 H 0.32665 0.82304 0.00344 0.0
C632 C 0.70022 0.85632 0.44276 0.0
C633 C 0.72485 0.86144 0.43613 0.0
C634 C 0.6932 0.85481 0.46782 0.0
C635 C 0.71131 0.85835 0.48648 0.0
C636 C 0.73607 0.864 0.4798 0.0
C637 C 0.74249 0.86551 0.45472 0.0
C638 C 0.66662 0.84896 0.47432 0.0
C639 C 0.75599 0.86789 0.49913 0.0
C640 C 0.70111 0.87367 0.55394 0.0
C641 C 0.70801 0.85119 0.565 0.0
C642 C 0.69964 0.8758 0.52804 0.0
C643 C 0.7052 0.85495 0.51309 0.0
C644 C 0.70954 0.83162 0.52432 0.0
C645 C 0.7109 0.83003 0.55019 0.0
C646 C 0.69458 0.90091 0.51675 0.0
C647 C 0.71532 0.80887 0.50906 0.0
H648 H 0.6865 0.85327 0.4284 0.0
H649 H 0.76153 0.86957 0.4497 0.0
H650 H 0.66559 0.83041 0.48315 0.0
H651 H 0.65942 0.86259 0.48795 0.0
H652 H 0.65437 0.84903 0.45776 0.0
H653 H 0.77417 0.87282 0.4908 0.0
H654 H 0.75046 0.88289 0.51207 0.0
H655 H 0.75838 0.85073 0.51024 0.0
H656 H 0.69865 0.89004 0.56535 0.0
H657 H 0.71589 0.81252 0.55872 0.0
H658 H 0.68237 0.89924 0.50029 0.0
H659 H 0.71233 0.90924 0.51051 0.0
H660 H 0.68582 0.91374 0.53028 0.0
H661 H 0.70244 0.80728 0.49311 0.0
H662 H 0.71419 0.7916 0.52024 0.0
H663 H 0.7344 0.81043 0.50149 0.0
C664 C 0.63165 0.23751 0.04081 0.0
C665 C 0.64107 0.21974 0.05725 0.0
C666 C 0.63266 0.23385 0.01517 0.0
C667 C 0.64336 0.21183 0.00569 0.0
C668 C 0.65246 0.19352 0.02217 0.0
C669 C 0.65124 0.19772 0.04786 0.0
C670 C 0.62274 0.25386 -0.00178 0.0
C671 C 0.6639 0.16982 0.01265 0.0
C672 C 0.62655 0.20307 0.93825 0.0
C673 C 0.64618 0.2156 0.92674 0.0
C674 C 0.62629 0.19971 0.96407 0.0
C675 C 0.64615 0.20908 0.97847 0.0
C676 C 0.66699 0.21972 0.96662 0.0
C677 C 0.66673 0.22289 0.94087 0.0
C678 C 0.60384 0.18806 0.97605 0.0
C679 C 0.68862 0.22979 0.98129 0.0
H680 H 0.62365 0.25451 0.04798 0.0
H681 H 0.65843 0.18389 0.06056 0.0
H682 H 0.638 0.26136 0.98663 0.0
H683 H 0.60863 0.246 0.98549 0.0
H684 H 0.61419 0.26945 0.00863 0.0
H685 H 0.66828 0.15663 0.02786 0.0
H686 H 0.65119 0.16062 -0.00065 0.0
H687 H 0.68126 0.17411 0.00248 0.0
H688 H 0.61071 0.19725 0.92734 0.0
H689 H 0.68212 0.23228 0.93196 0.0
H690 H 0.59225 0.20279 0.98453 0.0
H691 H 0.60943 0.17515 0.99106 0.0
H692 H 0.59232 0.17781 0.96239 0.0
H693 H 0.6829 0.24709 0.99085 0.0
H694 H 0.70479 0.23408 0.96926 0.0
H695 H 0.69451 0.21639 0.99573 0.0
C696 C 0.28839 0.86822 0.43578 0.0
C697 C 0.26854 0.85374 0.42737 0.0
C698 C 0.29291 0.87102 0.4613 0.0
C699 C 0.27735 0.85879 0.47856 0.0
C700 C 0.2584 0.84278 0.47 0.0
C701 C 0.25411 0.84061 0.44451 0.0
C702 C 0.31323 0.8883 0.46973 0.0
C703 C 0.24164 0.82909 0.4878 0.0
C704 C 0.29064 0.85384 0.5475 0.0
C705 C 0.27394 0.87137 0.55697 0.0
C706 C 0.29302 0.8503 0.52179 0.0
C707 C 0.2786 0.86487 0.50539 0.0
C708 C 0.26297 0.88369 0.51492 0.0
C709 C 0.26068 0.88656 0.54061 0.0
C710 C 0.30977 0.82998 0.51231 0.0
C711 C 0.24756 0.89991 0.49804 0.0
H712 H 0.29957 0.87839 0.42252 0.0
H713 H 0.23892 0.82916 0.438 0.0
H714 H 0.30484 0.90553 0.47724 0.0
H715 H 0.32425 0.87974 0.48485 0.0
H716 H 0.32591 0.89341 0.45432 0.0
H717 H 0.2297 0.81532 0.4782 0.0
H718 H 0.25277 0.81932 0.50208 0.0
H719 H 0.22949 0.84254 0.49754 0.0
H720 H 0.30091 0.84208 0.56016 0.0
H721 H 0.24797 0.90034 0.54792 0.0
H722 H 0.32117 0.83671 0.49657 0.0
H723 H 0.29829 0.81439 0.50535 0.0
H724 H 0.32229 0.82279 0.52701 0.0
H725 H 0.25926 0.90789 0.48312 0.0
H726 H 0.23846 0.91533 0.50823 0.0
H727 H 0.23296 0.88856 0.48904 0.0
C728 C 0.61664 0.7815 0.05713 0.0
C729 C 0.63817 0.77728 0.07104 0.0
C730 C 0.61761 0.78247 0.03116 0.0
C731 C 0.64068 0.77929 0.01901 0.0
C732 C 0.66274 0.77763 0.03311 0.0
C733 C 0.66121 0.77655 0.05902 0.0
C734 C 0.59368 0.78443 0.01677 0.0
C735 C 0.68774 0.77459 0.02086 0.0
C736 C 0.63928 0.74189 0.95976 0.0
C737 C 0.64151 0.7603 0.94159 0.0
C738 C 0.63906 0.74795 0.98496 0.0
C739 C 0.64124 0.77309 0.99222 0.0
C740 C 0.64385 0.79181 0.97401 0.0
C741 C 0.6439 0.78518 0.94881 0.0
C742 C 0.63626 0.7274 0.00383 0.0
C743 C 0.64634 0.81875 0.98115 0.0
H744 H 0.5988 0.78225 0.06638 0.0
H745 H 0.67795 0.77363 0.06976 0.0
H746 H 0.59576 0.79722 0.0008 0.0
H747 H 0.58875 0.76591 0.00928 0.0
H748 H 0.57813 0.791 0.02857 0.0
H749 H 0.7032 0.77807 0.03402 0.0
H750 H 0.68953 0.75537 0.01374 0.0
H751 H 0.68965 0.78735 0.00485 0.0
H752 H 0.6374 0.72264 0.95427 0.0
H753 H 0.64561 0.79947 0.93477 0.0
H754 H 0.61944 0.73061 0.01525 0.0
H755 H 0.65242 0.72728 0.01656 0.0
H756 H 0.63474 0.70882 0.99505 0.0
H757 H 0.62947 0.8249 0.99118 0.0
H758 H 0.64908 0.83095 0.96477 0.0
H759 H 0.66225 0.82122 0.99395 0.0
C760 C 0.74257 0.13145 0.54113 0.0
C761 C 0.72627 0.13873 0.55997 0.0
C762 C 0.73609 0.13403 0.51617 0.0
C763 C 0.7128 0.1444 0.50988 0.0
C764 C 0.69618 0.15179 0.5288 0.0
C765 C 0.7031 0.14876 0.55374 0.0
C766 C 0.75431 0.12574 0.49653 0.0
C767 C 0.67131 0.16308 0.52268 0.0
C768 C 0.71651 0.16869 0.4447 0.0
C769 C 0.70845 0.14796 0.43129 0.0
C770 C 0.71549 0.16893 0.47064 0.0
C771 C 0.70655 0.14777 0.48332 0.0
C772 C 0.69609 0.12787 0.46978 0.0
C773 C 0.69703 0.12827 0.4438 0.0
C774 C 0.72635 0.19075 0.48441 0.0
C775 C 0.68635 0.10498 0.48263 0.0
H776 H 0.76045 0.12357 0.54587 0.0
H777 H 0.69047 0.15441 0.56832 0.0
H778 H 0.74551 0.11186 0.48415 0.0
H779 H 0.75982 0.14178 0.48488 0.0
H780 H 0.77133 0.11741 0.50461 0.0
H781 H 0.66023 0.16717 0.53956 0.0
H782 H 0.674 0.18056 0.51218 0.0
H783 H 0.66054 0.15037 0.51063 0.0
H784 H 0.725 0.18413 0.435 0.0
H785 H 0.69065 0.11227 0.43344 0.0
H786 H 0.74512 0.18581 0.49126 0.0
H787 H 0.71483 0.19558 0.50075 0.0
H788 H 0.72804 0.20736 0.47232 0.0
H789 H 0.70222 0.09353 0.48901 0.0
H790 H 0.67474 0.09351 0.47006 0.0
H791 H 0.67525 0.10999 0.4992 0.0
C792 C 0.37691 0.2086 0.0656 0.0
C793 C 0.35529 0.21316 0.07928 0.0
C794 C 0.37663 0.20948 0.03961 0.0
C795 C 0.35417 0.21493 0.02715 0.0
C796 C 0.33188 0.2172 0.04082 0.0
C797 C 0.33272 0.21635 0.06679 0.0
C798 C 0.40077 0.20681 0.02568 0.0
C799 C 0.3075 0.22269 0.0282 0.0
C800 C 0.35947 0.25439 0.96936 0.0
C801 C 0.3564 0.23684 0.95048 0.0
C802 C 0.35871 0.24739 0.99434 0.0
C803 C 0.35469 0.22221 0.00061 0.0
C804 C 0.35135 0.20438 0.98165 0.0
C805 C 0.3523 0.21192 0.95673 0.0
C806 C 0.36239 0.26699 0.01404 0.0
C807 C 0.34691 0.17742 0.9877 0.0
H808 H 0.39438 0.20596 0.07518 0.0
H809 H 0.3159 0.21964 0.07731 0.0
H810 H 0.39836 0.19485 0.00912 0.0
H811 H 0.4069 0.22532 0.0191 0.0
H812 H 0.41565 0.19885 0.0375 0.0
H813 H 0.29147 0.21983 0.04084 0.0
H814 H 0.30734 0.24227 0.02188 0.0
H815 H 0.30505 0.21081 0.01159 0.0
H816 H 0.36267 0.27367 0.96463 0.0
H817 H 0.34992 0.1983 0.94215 0.0
H818 H 0.37867 0.26223 0.02569 0.0
H819 H 0.34597 0.26769 0.02641 0.0
H820 H 0.36534 0.28573 0.00602 0.0
H821 H 0.36289 0.16988 -0.00176 0.0
H822 H 0.34417 0.16597 0.9708 0.0
H823 H 0.3303 0.17554 -0.00029 0.0
C824 C 0.54473 0.23689 0.1361 0.0
C825 C 0.56297 0.25318 0.14483 0.0
C826 C 0.51958 0.24154 0.14023 0.0
C827 C 0.51243 0.26308 0.15342 0.0
C828 C 0.53069 0.27985 0.16202 0.0
C829 C 0.55587 0.27468 0.15763 0.0
C830 C 0.50068 0.22316 0.13069 0.0
C831 C 0.52364 0.303 0.17607 0.0
C832 C 0.44484 0.27626 0.14173 0.0
C833 C 0.43386 0.2626 0.16093 0.0
C834 C 0.47068 0.27871 0.14028 0.0
C835 C 0.48572 0.26723 0.15847 0.0
C836 C 0.47458 0.25559 0.17919 0.0
C837 C 0.44871 0.25338 0.18015 0.0
C838 C 0.48186 0.29148 0.11801 0.0
C839 C 0.48997 0.24333 0.19911 0.0
H840 H 0.55012 0.22028 0.12614 0.0
H841 H 0.56996 0.28732 0.16437 0.0
H842 H 0.48991 0.21541 0.14642 0.0
H843 H 0.48737 0.2326 0.11816 0.0
H844 H 0.50937 0.20755 0.12043 0.0
H845 H 0.53998 0.31477 0.18039 0.0
H846 H 0.51018 0.3141 0.16517 0.0
H847 H 0.51439 0.29787 0.19372 0.0
H848 H 0.43339 0.28367 0.12696 0.0
H849 H 0.44026 0.2431 0.19522 0.0
H850 H 0.48872 0.27729 0.10478 0.0
H851 H 0.49791 0.30311 0.12351 0.0
H852 H 0.4681 0.30331 0.10825 0.0
H853 H 0.49778 0.22575 0.19181 0.0
H854 H 0.4788 0.23899 0.21587 0.0
H855 H 0.50575 0.25532 0.20458 0.0
C856 C 0.55213 0.69754 0.86004 0.0
C857 C 0.56055 0.72138 0.86611 0.0
C858 C 0.52661 0.69254 0.85809 0.0
C859 C 0.50935 0.7119 0.86221 0.0
C860 C 0.51784 0.73581 0.86892 0.0
C861 C 0.5433 0.74022 0.87082 0.0
C862 C 0.51815 0.66681 0.85109 0.0
C863 C 0.50005 0.75701 0.87352 0.0
C864 C 0.44591 0.71763 0.83381 0.0
C865 C 0.43084 0.71499 0.85481 0.0
C866 C 0.47161 0.71422 0.83537 0.0
C867 C 0.48238 0.70804 0.85849 0.0
C868 C 0.46697 0.70288 0.87911 0.0
C869 C 0.44129 0.70647 0.87703 0.0
C870 C 0.48738 0.7197 0.81289 0.0
C871 C 0.47773 0.69591 0.90399 0.0
H872 H 0.56545 0.68291 0.85645 0.0
H873 H 0.5497 0.75865 0.87564 0.0
H874 H 0.50367 0.66023 0.86414 0.0
H875 H 0.50973 0.6672 0.83233 0.0
H876 H 0.53369 0.65328 0.85101 0.0
H877 H 0.50971 0.77428 0.87922 0.0
H878 H 0.48929 0.76092 0.85643 0.0
H879 H 0.48662 0.7519 0.88825 0.0
H880 H 0.43784 0.72389 0.81648 0.0
H881 H 0.42965 0.70411 0.89326 0.0
H882 H 0.50224 0.70564 0.81078 0.0
H883 H 0.49645 0.73802 0.81525 0.0
H884 H 0.47621 0.72019 0.79558 0.0
H885 H 0.49311 0.68242 0.90182 0.0
H886 H 0.46349 0.68783 0.91649 0.0
H887 H 0.48543 0.71273 0.913 0.0
C888 C 0.7483 0.95512 0.35213 0.0
C889 C 0.76716 0.93826 0.35798 0.0
C890 C 0.75259 0.98065 0.35256 0.0
C891 C 0.77635 0.98963 0.35918 0.0
C892 C 0.79581 0.97271 0.36422 0.0
C893 C 0.79098 0.94708 0.3635 0.0
C894 C 0.73134 -0.00198 0.34676 0.0
C895 C 0.82135 0.98163 0.37132 0.0
C896 C 0.78026 0.05737 0.34273 0.0
C897 C 0.77039 0.06799 0.3643 0.0
C898 C 0.78496 0.0318 0.34149 0.0
C899 C 0.77971 0.01675 0.36235 0.0
C900 C 0.77246 0.0279 0.38498 0.0
C901 C 0.76777 0.05343 0.38565 0.0
C902 C 0.79301 0.02065 0.31712 0.0
C903 C 0.76708 0.01256 0.40778 0.0
H904 H 0.72993 0.94835 0.34757 0.0
H905 H 0.80559 0.93403 0.36802 0.0
H906 H 0.72663 0.00907 0.36348 0.0
H907 H 0.73678 0.01122 0.33195 0.0
H908 H 0.71443 0.98798 0.34066 0.0
H909 H 0.83529 0.96647 0.37055 0.0
H910 H 0.82744 0.99693 0.35899 0.0
H911 H 0.82088 0.98903 0.39051 0.0
H912 H 0.78257 0.06865 0.32624 0.0
H913 H 0.76056 0.06169 0.40251 0.0
H914 H 0.77667 0.01241 0.30772 0.0
H915 H 0.80673 0.00561 0.32008 0.0
H916 H 0.80121 0.03481 0.3046 0.0
H917 H 0.74912 0.00282 0.40534 0.0
H918 H 0.76589 0.02418 0.42475 0.0
H919 H 0.7816 -0.00174 0.41055 0.0
C920 C 0.44764 0.29729 0.86713 0.0
C921 C 0.43825 0.27439 0.87512 0.0
C922 C 0.47331 0.30092 0.86435 0.0
C923 C 0.48979 0.28119 0.86977 0.0
C924 C 0.48037 0.25842 0.87881 0.0
C925 C 0.45474 0.2553 0.88131 0.0
C926 C 0.48272 0.32545 0.85472 0.0
C927 C 0.4973 0.23695 0.885 0.0
C928 C 0.55119 0.2705 0.83816 0.0
C929 C 0.56784 0.27523 0.85754 0.0
C930 C 0.52571 0.27447 0.84121 0.0
C931 C 0.5167 0.28321 0.86426 0.0
C932 C 0.53362 0.28998 0.88316 0.0
C933 C 0.5591 0.28594 0.87955 0.0
C934 C 0.50832 0.26728 0.82047 0.0
C935 C 0.52473 0.29952 0.90792 0.0
H936 H 0.43492 0.31212 0.86238 0.0
H937 H 0.44759 0.23764 0.88772 0.0
H938 H 0.49828 0.33226 0.86632 0.0
H939 H 0.48995 0.32301 0.83562 0.0
H940 H 0.46794 0.3398 0.85433 0.0
H941 H 0.48712 0.22105 0.89325 0.0
H942 H 0.50678 0.23045 0.86793 0.0
H943 H 0.51186 0.24294 0.89823 0.0
H944 H 0.55794 0.26251 0.82099 0.0
H945 H 0.57195 0.28973 0.89453 0.0
H946 H 0.4941 0.28185 0.81755 0.0
H947 H 0.49847 0.24994 0.82553 0.0
H948 H 0.51831 0.26414 0.80273 0.0
H949 H 0.50974 0.3134 0.90546 0.0
H950 H 0.54001 0.30806 0.91878 0.0
H951 H 0.51698 0.2839 0.91884 0.0
C952 C 0.20741 0.94117 0.36885 0.0
C953 C 0.22768 0.93234 0.35516 0.0
C954 C 0.20399 0.96674 0.37259 0.0
C955 C 0.22114 0.9837 0.3622 0.0
C956 C 0.24086 0.97484 0.3473 0.0
C957 C 0.24395 0.94928 0.34407 0.0
C958 C 0.1828 0.97551 0.38863 0.0
C959 C 0.25941 0.99232 0.33564 0.0
C960 C 0.21079 0.05302 0.35648 0.0
C961 C 0.22638 0.0619 0.37529 0.0
C962 C 0.20759 0.02742 0.35284 0.0
C963 C 0.22012 0.01049 0.36853 0.0
C964 C 0.23442 0.01946 0.38863 0.0
C965 C 0.23748 0.04507 0.39167 0.0
C966 C 0.1922 0.01855 0.33122 0.0
C967 C 0.24784 0.00203 0.40597 0.0
H968 H 0.19481 0.92809 0.37746 0.0
H969 H 0.25951 0.94251 0.33328 0.0
H970 H 0.19021 0.98272 0.40641 0.0
H971 H 0.17272 0.99095 0.37949 0.0
H972 H 0.16945 0.96038 0.39278 0.0
H973 H 0.27242 0.98259 0.32297 0.0
H974 H 0.24969 0.00703 0.32505 0.0
H975 H 0.27039 0.00157 0.35038 0.0
H976 H 0.20215 0.066 0.34379 0.0
H977 H 0.24934 0.0519 0.4064 0.0
H978 H 0.17975 0.00322 0.33696 0.0
H979 H 0.20464 0.01122 0.31656 0.0
H980 H 0.18081 0.0337 0.32312 0.0
H981 H 0.23511 0.98731 0.41266 0.0
H982 H 0.25573 0.01183 0.42228 0.0
H983 H 0.26321 0.99278 0.39588 0.0
C984 C 0.55127 0.70633 0.12432 0.0
C985 C 0.56145 0.71727 0.14557 0.0
C986 C 0.52562 0.7024 0.12241 0.0
C987 C 0.50999 0.70958 0.14225 0.0
C988 C 0.5205 0.71837 0.16462 0.0
C989 C 0.54616 0.72217 0.16599 0.0
C990 C 0.51513 0.69277 0.09832 0.0
C991 C 0.5045 0.72602 0.18629 0.0
C992 C 0.44848 0.7389 0.12604 0.0
C993 C 0.43162 0.72016 0.13226 0.0
C994 C 0.474 0.73538 0.12879 0.0
C995 C 0.48296 0.71249 0.13803 0.0
C996 C 0.4661 0.69325 0.14395 0.0
C997 C 0.44051 0.69733 0.14099 0.0
C998 C 0.49136 0.75639 0.1222 0.0
C999 C 0.47507 0.66863 0.15377 0.0
H1000 H 0.56308 0.7023 0.10856 0.0
H1001 H 0.55402 0.73032 0.1826 0.0
H1002 H 0.50002 0.67926 0.10179 0.0
H1003 H 0.50712 0.70844 0.08765 0.0
H1004 H 0.52959 0.68376 0.08673 0.0
H1005 H 0.51553 0.72851 0.20351 0.0
H1006 H 0.49519 0.74385 0.18192 0.0
H1007 H 0.48981 0.71206 0.18981 0.0
H1008 H 0.44171 0.75655 0.11917 0.0
H1009 H 0.42749 0.68278 0.14577 0.0
H1010 H 0.5051 0.7501 0.10824 0.0
H1011 H 0.5018 0.76231 0.13891 0.0
H1012 H 0.48138 0.77275 0.11463 0.0
H1013 H 0.48933 0.66072 0.14123 0.0
H1014 H 0.45975 0.65502 0.15582 0.0
H1015 H 0.48395 0.67132 0.17213 0.0
C1016 C 0.76232 0.93758 0.66099 0.0
C1017 C 0.76867 0.92263 0.64073 0.0
C1018 C 0.76602 0.96325 0.66027 0.0
C1019 C 0.77625 0.97416 0.6387 0.0
C1020 C 0.7848 0.9589 0.61913 0.0
C1021 C 0.7809 0.93319 0.62037 0.0
C1022 C 0.75687 0.97886 0.68165 0.0
C1023 C 0.79606 0.96984 0.59597 0.0
C1024 C 0.74741 0.03614 0.62371 0.0
C1025 C 0.76528 0.05276 0.63257 0.0
C1026 C 0.75131 0.01054 0.62475 0.0
C1027 C 0.77365 0.00129 0.63496 0.0
C1028 C 0.79222 0.01795 0.6431 0.0
C1029 C 0.7878 0.04361 0.64183 0.0
C1030 C 0.73105 0.9934 0.61573 0.0
C1031 C 0.8163 0.0087 0.65395 0.0
H1032 H 0.75319 0.92941 0.67694 0.0
H1033 H 0.78603 0.92163 0.60475 0.0
H1034 H 0.77073 0.99319 0.68665 0.0
H1035 H 0.73961 0.9886 0.67609 0.0
H1036 H 0.7528 0.96748 0.69834 0.0
H1037 H 0.80598 0.95563 0.58483 0.0
H1038 H 0.78115 0.97794 0.58432 0.0
H1039 H 0.80918 0.98498 0.60064 0.0
H1040 H 0.73007 0.04313 0.61632 0.0
H1041 H 0.80169 0.05645 0.6486 0.0
H1042 H 0.72374 0.98239 0.63151 0.0
H1043 H 0.73857 0.98014 0.60192 0.0
H1044 H 0.71537 0.00362 0.60712 0.0
H1045 H 0.81272 0.00022 0.67236 0.0
H1046 H 0.83004 0.02385 0.65632 0.0
H1047 H 0.82448 0.9941 0.64198 0.0
C1048 C 0.20535 0.06343 0.64284 0.0
C1049 C 0.21895 0.07516 0.66161 0.0
C1050 C 0.20553 0.03753 0.64051 0.0
C1051 C 0.21937 0.02316 0.65758 0.0
C1052 C 0.23126 0.03484 0.67785 0.0
C1053 C 0.23106 0.06077 0.67953 0.0
C1054 C 0.1927 0.02578 0.61858 0.0
C1055 C 0.24582 0.02011 0.6967 0.0
C1056 C 0.2149 0.95282 0.65672 0.0
C1057 C 0.23626 0.94658 0.64326 0.0
C1058 C 0.20893 0.97774 0.66144 0.0
C1059 C 0.22457 0.99668 0.65222 0.0
C1060 C 0.24585 0.99042 0.63817 0.0
C1061 C 0.25151 0.96544 0.634 0.0
C1062 C 0.18623 0.98378 0.67667 0.0
C1063 C 0.26286 0.01011 0.62775 0.0
H1064 H 0.19593 0.07452 0.62896 0.0
H1065 H 0.24139 0.06981 0.69421 0.0
H1066 H 0.20683 0.01974 0.60488 0.0
H1067 H 0.18219 0.00908 0.62436 0.0
H1068 H 0.1798 0.03887 0.60926 0.0
H1069 H 0.25069 0.0314 0.71323 0.0
H1070 H 0.23516 0.00363 0.70285 0.0
H1071 H 0.26326 0.01335 0.68811 0.0
H1072 H 0.20311 0.93823 0.66394 0.0
H1073 H 0.26796 0.96067 0.62347 0.0
H1074 H 0.17396 0.99665 0.66634 0.0
H1075 H 0.19186 0.99335 0.69399 0.0
H1076 H 0.17547 0.96694 0.68166 0.0
H1077 H 0.25216 0.0232 0.61602 0.0
H1078 H 0.27811 0.00211 0.61643 0.0
H1079 H 0.27117 0.02099 0.6431 0.0
C1080 C 0.16343 0.30584 0.31924 0.0
C1081 C 0.15624 0.30384 0.29435 0.0
C1082 C 0.1722 0.28504 0.33229 0.0
C1083 C 0.17414 0.26191 0.31997 0.0
C1084 C 0.166 0.25965 0.29514 0.0
C1085 C 0.15699 0.28059 0.28271 0.0
C1086 C 0.18035 0.28802 0.35889 0.0
C1087 C 0.16806 0.23542 0.28121 0.0
C1088 C 0.22475 0.21704 0.3388 0.0
C1089 C 0.21125 0.19834 0.35078 0.0
C1090 C 0.21291 0.23806 0.3292 0.0
C1091 C 0.18694 0.24066 0.33198 0.0
C1092 C 0.17326 0.22218 0.34469 0.0
C1093 C 0.18558 0.20106 0.35377 0.0
C1094 C 0.22813 0.25711 0.31539 0.0
C1095 C 0.14561 0.22453 0.34829 0.0
H1096 H 0.16275 0.32375 0.32834 0.0
H1097 H 0.15143 0.2789 0.26347 0.0
H1098 H 0.17228 0.27313 0.37057 0.0
H1099 H 0.20082 0.28632 0.36005 0.0
H1100 H 0.17486 0.30629 0.36667 0.0
H1101 H 0.15935 0.23635 0.26257 0.0
H1102 H 0.18791 0.23048 0.27888 0.0
H1103 H 0.15918 0.22024 0.29186 0.0
H1104 H 0.24461 0.21498 0.33639 0.0
H1105 H 0.17512 0.1867 0.36319 0.0
H1106 H 0.22549 0.27572 0.32374 0.0
H1107 H 0.22181 0.25823 0.29583 0.0
H1108 H 0.24825 0.25266 0.31549 0.0
H1109 H 0.14106 0.24277 0.35668 0.0
H1110 H 0.13803 0.20962 0.36031 0.0
H1111 H 0.13614 0.22369 0.33005 0.0
C1112 C 0.30324 0.68495 0.81941 0.0
C1113 C 0.30941 0.69117 0.84384 0.0
C1114 C 0.28048 0.67377 0.81391 0.0
C1115 C 0.26368 0.66846 0.8334 0.0
C1116 C 0.27096 0.67224 0.85831 0.0
C1117 C 0.29377 0.68374 0.86326 0.0
C1118 C 0.27352 0.66986 0.78705 0.0
C1119 C 0.2539 0.66607 0.8796 0.0
C1120 C 0.19834 0.67876 0.81122 0.0
C1121 C 0.19192 0.65493 0.80317 0.0
C1122 C 0.22101 0.68309 0.82305 0.0
C1123 C 0.23746 0.66302 0.82715 0.0
C1124 C 0.2299 0.63856 0.82148 0.0
C1125 C 0.20718 0.63479 0.80935 0.0
C1126 C 0.22829 0.70949 0.82899 0.0
C1127 C 0.24658 0.61662 0.82632 0.0
H1128 H 0.31541 0.69039 0.80436 0.0
H1129 H 0.29863 0.68824 0.88225 0.0
H1130 H 0.26614 0.65088 0.78421 0.0
H1131 H 0.25869 0.68314 0.78181 0.0
H1132 H 0.28952 0.67265 0.77437 0.0
H1133 H 0.26422 0.66442 0.89735 0.0
H1134 H 0.23992 0.68103 0.88168 0.0
H1135 H 0.24377 0.6485 0.87612 0.0
H1136 H 0.18644 0.69434 0.80674 0.0
H1137 H 0.20213 0.61626 0.80341 0.0
H1138 H 0.2434 0.71544 0.81633 0.0
H1139 H 0.23543 0.71084 0.84822 0.0
H1140 H 0.21252 0.72258 0.8269 0.0
H1141 H 0.26073 0.61541 0.81144 0.0
H1142 H 0.23598 0.59895 0.82653 0.0
H1143 H 0.25649 0.61867 0.84423 0.0
C1144 C 0.81784 0.69395 0.30927 0.0
C1145 C 0.84243 0.69061 0.3016 0.0
C1146 C 0.81001 0.71653 0.31954 0.0
C1147 C 0.82734 0.73602 0.32266 0.0
C1148 C 0.85256 0.73214 0.3165 0.0
C1149 C 0.85976 0.70954 0.30576 0.0
C1150 C 0.78289 0.72003 0.3256 0.0
C1151 C 0.87169 0.75224 0.32014 0.0
C1152 C 0.80014 0.80078 0.31931 0.0
C1153 C 0.79631 0.80618 0.34442 0.0
C1154 C 0.81094 0.77827 0.31201 0.0
C1155 C 0.81855 0.76101 0.33031 0.0
C1156 C 0.81606 0.76704 0.35573 0.0
C1157 C 0.80469 0.78947 0.3625 0.0
C1158 C 0.81298 0.77242 0.28469 0.0
C1159 C 0.82452 0.74939 0.37576 0.0
H1160 H 0.80436 0.67941 0.30596 0.0
H1161 H 0.87884 0.70695 0.29995 0.0
H1162 H 0.78067 0.7268 0.34489 0.0
H1163 H 0.77483 0.73429 0.31313 0.0
H1164 H 0.77209 0.70261 0.32346 0.0
H1165 H 0.89089 0.7452 0.31757 0.0
H1166 H 0.86844 0.76738 0.3066 0.0
H1167 H 0.87007 0.76038 0.33897 0.0
H1168 H 0.79357 0.8136 0.30529 0.0
H1169 H 0.80185 0.79367 0.38195 0.0
H1170 H 0.80113 0.7562 0.2802 0.0
H1171 H 0.83234 0.76737 0.27991 0.0
H1172 H 0.80719 0.78824 0.27284 0.0
H1173 H 0.81234 0.73282 0.37596 0.0
H1174 H 0.82403 0.75806 0.39444 0.0
H1175 H 0.84367 0.74288 0.37196 0.0
C1176 C 0.7821 0.33607 0.7666 0.0
C1177 C 0.80411 0.34154 0.77928 0.0
C1178 C 0.76118 0.32745 0.7793 0.0
C1179 C 0.76218 0.32463 0.80537 0.0
C1180 C 0.78388 0.33151 0.81845 0.0
C1181 C 0.80475 0.33968 0.80518 0.0
C1182 C 0.73852 0.31996 0.76462 0.0
C1183 C 0.78543 0.32919 0.8463 0.0
C1184 C 0.70004 0.31176 0.83593 0.0
C1185 C 0.70045 0.28581 0.83727 0.0
C1186 C 0.72057 0.32491 0.82672 0.0
C1187 C 0.74165 0.31168 0.81831 0.0
C1188 C 0.74236 0.28554 0.82035 0.0
C1189 C 0.72184 0.27296 0.82999 0.0
C1190 C 0.71941 0.35284 0.82524 0.0
C1191 C 0.76434 0.27069 0.81127 0.0
H1192 H 0.78152 0.33753 0.74656 0.0
H1193 H 0.82168 0.34414 0.81505 0.0
H1194 H 0.73589 0.29959 0.76597 0.0
H1195 H 0.72168 0.32885 0.77237 0.0
H1196 H 0.74008 0.32503 0.74471 0.0
H1197 H 0.80212 0.33855 0.85392 0.0
H1198 H 0.76867 0.33725 0.85513 0.0
H1199 H 0.78618 0.30931 0.85153 0.0
H1200 H 0.68357 0.32174 0.84171 0.0
H1201 H 0.72227 0.25289 0.831 0.0
H1202 H 0.71831 0.35867 0.80554 0.0
H1203 H 0.7365 0.36113 0.83314 0.0
H1204 H 0.70308 0.36046 0.83522 0.0
H1205 H 0.7665 0.27323 0.79096 0.0
H1206 H 0.76236 0.25055 0.81515 0.0
H1207 H 0.78163 0.27738 0.82016 0.0
C1208 C 0.19986 0.7993 0.63088 0.0
C1209 C 0.20439 0.81827 0.64808 0.0
C1210 C 0.18814 0.77723 0.63816 0.0
C1211 C 0.18094 0.77413 0.6632 0.0
C1212 C 0.18384 0.79397 0.68016 0.0
C1213 C 0.19551 0.81584 0.67237 0.0
C1214 C 0.18509 0.75662 0.61947 0.0
C1215 C 0.17629 0.79144 0.70702 0.0
C1216 C 0.14182 0.72018 0.68604 0.0
C1217 C 0.16008 0.7048 0.69637 0.0
C1218 C 0.14831 0.74242 0.67411 0.0
C1219 C 0.1736 0.7493 0.67257 0.0
C1220 C 0.19212 0.73315 0.68184 0.0
C1221 C 0.18512 0.71111 0.69362 0.0
C1222 C 0.12809 0.75909 0.66427 0.0
C1223 C 0.21933 0.73973 0.68044 0.0
H1224 H 0.20654 0.80117 0.61202 0.0
H1225 H 0.19882 0.83052 0.68569 0.0
H1226 H 0.19889 0.74184 0.62329 0.0
H1227 H 0.1664 0.74815 0.62097 0.0
H1228 H 0.18786 0.76326 0.60016 0.0
H1229 H 0.1772 0.8094 0.71707 0.0
H1230 H 0.15715 0.78404 0.70847 0.0
H1231 H 0.1888 0.77807 0.71642 0.0
H1232 H 0.12242 0.71534 0.68813 0.0
H1233 H 0.19931 0.6992 0.70144 0.0
H1234 H 0.13262 0.76549 0.64525 0.0
H1235 H 0.1266 0.7758 0.67617 0.0
H1236 H 0.10978 0.74967 0.66394 0.0
H1237 H 0.22457 0.7443 0.66108 0.0
H1238 H 0.23143 0.72443 0.68708 0.0
H1239 H 0.22301 0.7564 0.69192 0.0
C1240 C 0.69014 0.69456 0.1884 0.0
C1241 C 0.68318 0.69555 0.16339 0.0
C1242 C 0.71224 0.68304 0.19561 0.0
C1243 C 0.72754 0.67196 0.17739 0.0
C1244 C 0.7198 0.67141 0.15233 0.0
C1245 C 0.69769 0.68339 0.14557 0.0
C1246 C 0.71988 0.68402 0.22256 0.0
C1247 C 0.73543 0.65933 0.13251 0.0
C1248 C 0.79526 0.67177 0.19554 0.0
C1249 C 0.79749 0.64835 0.20649 0.0
C1250 C 0.77284 0.67925 0.18471 0.0
C1251 C 0.75242 0.66272 0.18458 0.0
C1252 C 0.7552 0.63841 0.19399 0.0
C1253 C 0.77769 0.63157 0.20505 0.0
C1254 C 0.77053 0.7054 0.17495 0.0
C1255 C 0.734 0.62013 0.19371 0.0
H1256 H 0.67895 0.70391 0.20224 0.0
H1257 H 0.69231 0.68405 0.12622 0.0
H1258 H 0.72422 0.66514 0.22945 0.0
H1259 H 0.73696 0.69534 0.22448 0.0
H1260 H 0.70526 0.69219 0.23456 0.0
H1261 H 0.72526 0.65749 0.11469 0.0
H1262 H 0.7523 0.67064 0.12922 0.0
H1263 H 0.74164 0.64067 0.13858 0.0
H1264 H 0.81057 0.68475 0.19661 0.0
H1265 H 0.7795 0.61331 0.21329 0.0
H1266 H 0.75769 0.71611 0.18697 0.0
H1267 H 0.76256 0.70532 0.15599 0.0
H1268 H 0.78866 0.71516 0.17443 0.0
H1269 H 0.71987 0.62579 0.20755 0.0
H1270 H 0.74023 0.60101 0.19823 0.0
H1271 H 0.72485 0.61994 0.17529 0.0
C1272 C 0.81742 0.19003 0.64247 0.0
C1273 C 0.79167 0.19011 0.64595 0.0
C1274 C 0.83188 0.2105 0.64963 0.0
C1275 C 0.82028 0.23113 0.66102 0.0
C1276 C 0.7942 0.23147 0.66399 0.0
C1277 C 0.78021 0.21106 0.65618 0.0
C1278 C 0.85958 0.20977 0.64566 0.0
C1279 C 0.78113 0.25293 0.67642 0.0
C1280 C 0.85318 0.27088 0.70835 0.0
C1281 C 0.85525 0.29348 0.69566 0.0
C1282 C 0.84306 0.24996 0.69679 0.0
C1283 C 0.83526 0.25156 0.67178 0.0
C1284 C 0.83905 0.27379 0.65831 0.0
C1285 C 0.84879 0.29463 0.67051 0.0
C1286 C 0.83903 0.22673 0.71193 0.0
C1287 C 0.83152 0.27598 0.63145 0.0
H1288 H 0.82629 0.17391 0.63438 0.0
H1289 H 0.76029 0.21118 0.65894 0.0
H1290 H 0.86598 0.2272 0.63677 0.0
H1291 H 0.86913 0.20829 0.66381 0.0
H1292 H 0.86532 0.19383 0.63395 0.0
H1293 H 0.76066 0.25061 0.67661 0.0
H1294 H 0.78766 0.2547 0.69586 0.0
H1295 H 0.78562 0.27053 0.66679 0.0
H1296 H 0.85819 0.26987 0.72779 0.0
H1297 H 0.85057 0.31203 0.66059 0.0
H1298 H 0.84634 0.21028 0.70199 0.0
H1299 H 0.81885 0.22378 0.71471 0.0
H1300 H 0.84806 0.22779 0.73042 0.0
H1301 H 0.83766 0.25945 0.62084 0.0
H1302 H 0.83935 0.29286 0.6226 0.0
H1303 H 0.81101 0.27691 0.63013 0.0
C1304 C 0.20501 0.3345 0.19089 0.0
C1305 C 0.20474 0.35459 0.20731 0.0
C1306 C 0.22746 0.32532 0.18157 0.0
C1307 C 0.24999 0.33699 0.18839 0.0
C1308 C 0.24952 0.35876 0.203 0.0
C1309 C 0.22687 0.36711 0.21265 0.0
C1310 C 0.22719 0.30185 0.16628 0.0
C1311 C 0.27307 0.37222 0.20989 0.0
C1312 C 0.30371 0.29266 0.19572 0.0
C1313 C 0.3152 0.29436 0.17249 0.0
C1314 C 0.28293 0.30711 0.20137 0.0
C1315 C 0.27383 0.32415 0.18357 0.0
C1316 C 0.2864 0.32721 0.16074 0.0
C1317 C 0.30682 0.31197 0.1553 0.0
C1318 C 0.26986 0.30304 0.22584 0.0
C1319 C 0.27769 0.34576 0.14168 0.0
H1320 H 0.18788 0.32482 0.18677 0.0
H1321 H 0.22659 0.38287 0.22513 0.0
H1322 H 0.2387 0.30408 0.1494 0.0
H1323 H 0.23529 0.28645 0.17728 0.0
H1324 H 0.20813 0.29649 0.16061 0.0
H1325 H 0.26924 0.39115 0.21706 0.0
H1326 H 0.28298 0.36166 0.2245 0.0
H1327 H 0.28565 0.37367 0.19366 0.0
H1328 H 0.31011 0.27901 0.20903 0.0
H1329 H 0.31579 0.3134 0.13737 0.0
H1330 H 0.25081 0.29603 0.22245 0.0
H1331 H 0.26814 0.32081 0.23604 0.0
H1332 H 0.27974 0.28953 0.23787 0.0
H1333 H 0.26054 0.33884 0.13269 0.0
H1334 H 0.29183 0.34894 0.12703 0.0
H1335 H 0.27317 0.36375 0.15058 0.0
C1336 C 0.35687 0.16514 0.21274 0.0
C1337 C 0.33985 0.18159 0.20194 0.0
C1338 C 0.35081 0.15205 0.23447 0.0
C1339 C 0.32748 0.15607 0.24582 0.0
C1340 C 0.30982 0.17168 0.23422 0.0
C1341 C 0.31614 0.18401 0.21228 0.0
C1342 C 0.36981 0.13496 0.24587 0.0
C1343 C 0.28476 0.17665 0.24576 0.0
C1344 C 0.29628 0.1189 0.29617 0.0
C1345 C 0.2999 0.13444 0.31669 0.0
C1346 C 0.30741 0.12425 0.27328 0.0
C1347 C 0.3219 0.14598 0.27083 0.0
C1348 C 0.32733 0.16049 0.29205 0.0
C1349 C 0.31645 0.15436 0.31485 0.0
C1350 C 0.30196 0.10782 0.25131 0.0
C1351 C 0.34258 0.18391 0.29022 0.0
H1352 H 0.37519 0.16312 0.20472 0.0
H1353 H 0.3029 0.19667 0.204 0.0
H1354 H 0.37855 0.14423 0.26201 0.0
H1355 H 0.36095 0.11769 0.2527 0.0
H1356 H 0.38465 0.12999 0.23247 0.0
H1357 H 0.27291 0.18868 0.23395 0.0
H1358 H 0.27482 0.15896 0.24909 0.0
H1359 H 0.28722 0.18585 0.26401 0.0
H1360 H 0.28373 0.10327 0.29767 0.0
H1361 H 0.31932 0.16637 0.33071 0.0
H1362 H 0.31876 0.10531 0.23969 0.0
H1363 H 0.28753 0.11665 0.23958 0.0
H1364 H 0.29506 0.08931 0.25717 0.0
H1365 H 0.3599 0.18048 0.2797 0.0
H1366 H 0.34749 0.19143 0.30876 0.0
H1367 H 0.33187 0.19823 0.28001 0.0
C1368 C 0.32143 0.80206 0.79164 0.0
C1369 C 0.34604 0.79818 0.79899 0.0
C1370 C 0.31588 0.81466 0.76962 0.0
C1371 C 0.33545 0.82362 0.75458 0.0
C1372 C 0.36033 0.82078 0.76245 0.0
C1373 C 0.36535 0.80804 0.78462 0.0
C1374 C 0.28907 0.81742 0.76196 0.0
C1375 C 0.38163 0.83024 0.74696 0.0
C1376 C 0.3161 0.82794 0.68736 0.0
C1377 C 0.30839 0.85271 0.68582 0.0
C1378 C 0.32665 0.8186 0.70921 0.0
C1379 C 0.32957 0.83445 0.72994 0.0
C1380 C 0.32367 0.85993 0.7278 0.0
C1381 C 0.3131 0.86877 0.70572 0.0
C1382 C 0.33287 0.79133 0.71069 0.0
C1383 C 0.32675 0.87746 0.74939 0.0
H1384 H 0.30643 0.79456 0.80273 0.0
H1385 H 0.38442 0.80507 0.79024 0.0
H1386 H 0.28477 0.83717 0.75807 0.0
H1387 H 0.28569 0.80687 0.74462 0.0
H1388 H 0.27605 0.8106 0.77639 0.0
H1389 H 0.3996 0.8291 0.75696 0.0
H1390 H 0.38305 0.81911 0.72971 0.0
H1391 H 0.37836 0.84977 0.74138 0.0
H1392 H 0.31264 0.81548 0.67197 0.0
H1393 H 0.30732 0.888 0.70457 0.0
H1394 H 0.3193 0.78188 0.72295 0.0
H1395 H 0.35153 0.78861 0.7189 0.0
H1396 H 0.33238 0.78224 0.69221 0.0
H1397 H 0.31222 0.8736 0.76345 0.0
H1398 H 0.32511 0.89717 0.74362 0.0
H1399 H 0.345 0.87469 0.75847 0.0
C1400 C 0.68803 0.82416 0.30374 0.0
C1401 C 0.69649 0.84848 0.30698 0.0
C1402 C 0.67596 0.81714 0.28182 0.0
C1403 C 0.67199 0.83501 0.26296 0.0
C1404 C 0.6787 0.86002 0.26702 0.0
C1405 C 0.6911 0.86644 0.28895 0.0
C1406 C 0.66915 0.79023 0.27813 0.0
C1407 C 0.67426 0.87968 0.24759 0.0
C1408 C 0.67476 0.80763 0.19861 0.0
C1409 C 0.64962 0.80344 0.19358 0.0
C1410 C 0.6822 0.81905 0.22067 0.0
C1411 C 0.66401 0.82672 0.23798 0.0
C1412 C 0.63854 0.8243 0.23215 0.0
C1413 C 0.63161 0.81253 0.20999 0.0
C1414 C 0.70958 0.82134 0.22617 0.0
C1415 C 0.61866 0.83278 0.24993 0.0
H1416 H 0.69213 0.81027 0.31768 0.0
H1417 H 0.69739 0.88536 0.29156 0.0
H1418 H 0.6497 0.78856 0.27169 0.0
H1419 H 0.6812 0.78204 0.26358 0.0
H1420 H 0.67136 0.77919 0.29539 0.0
H1421 H 0.67657 0.89868 0.25521 0.0
H1422 H 0.68765 0.87721 0.23217 0.0
H1423 H 0.65534 0.87796 0.23968 0.0
H1424 H 0.68875 0.80076 0.18591 0.0
H1425 H 0.61214 0.80941 0.20611 0.0
H1426 H 0.71445 0.80927 0.24212 0.0
H1427 H 0.71423 0.84067 0.23144 0.0
H1428 H 0.72128 0.81594 0.21009 0.0
H1429 H 0.61778 0.81982 0.26589 0.0
H1430 H 0.6001 0.83336 0.24101 0.0
H1431 H 0.62304 0.85144 0.25738 0.0
C1432 C 0.67925 0.13364 0.69636 0.0
C1433 C 0.70523 0.13362 0.69712 0.0
C1434 C 0.66536 0.14175 0.71684 0.0
C1435 C 0.67785 0.15059 0.73815 0.0
C1436 C 0.70402 0.14898 0.73956 0.0
C1437 C 0.71738 0.14023 0.71909 0.0
C1438 C 0.63744 0.14241 0.715 0.0
C1439 C 0.71811 0.1585 0.76183 0.0
C1440 C 0.65268 0.20574 0.77301 0.0
C1441 C 0.64662 0.19523 0.79598 0.0
C1442 C 0.66176 0.19113 0.75362 0.0
C1443 C 0.66432 0.16524 0.75711 0.0
C1444 C 0.65648 0.15422 0.77961 0.0
C1445 C 0.64797 0.16944 0.79899 0.0
C1446 C 0.67016 0.2037 0.73001 0.0
C1447 C 0.65824 0.1266 0.78369 0.0
H1448 H 0.66979 0.1282 0.67948 0.0
H1449 H 0.73747 0.14013 0.71978 0.0
H1450 H 0.62882 0.13635 0.73268 0.0
H1451 H 0.63127 0.16169 0.71136 0.0
H1452 H 0.63051 0.13042 0.69975 0.0
H1453 H 0.73815 0.15379 0.76097 0.0
H1454 H 0.71627 0.17898 0.76283 0.0
H1455 H 0.71029 0.15075 0.77918 0.0
H1456 H 0.65159 0.22567 0.77054 0.0
H1457 H 0.64309 0.16123 0.81668 0.0
H1458 H 0.66123 0.19497 0.71368 0.0
H1459 H 0.69051 0.20144 0.72784 0.0
H1460 H 0.66579 0.22383 0.72985 0.0
H1461 H 0.65188 0.11636 0.76701 0.0
H1462 H 0.64709 0.12052 0.79991 0.0
H1463 H 0.67786 0.12139 0.78703 0.0
C1464 C 0.8141 0.79752 0.64654 0.0
C1465 C 0.78858 0.7935 0.64365 0.0
C1466 C 0.82959 0.77858 0.6555 0.0
C1467 C 0.81911 0.75542 0.66207 0.0
C1468 C 0.79367 0.75083 0.65757 0.0
C1469 C 0.77877 0.76988 0.64821 0.0
C1470 C 0.85678 0.78387 0.65939 0.0
C1471 C 0.7817 0.72645 0.66448 0.0
C1472 C 0.85401 0.69708 0.6797 0.0
C1473 C 0.85236 0.69802 0.70562 0.0
C1474 C 0.84496 0.71665 0.66509 0.0
C1475 C 0.83351 0.73718 0.67677 0.0
C1476 C 0.833 0.73872 0.70297 0.0
C1477 C 0.84267 0.71921 0.71707 0.0
C1478 C 0.84646 0.71473 0.63721 0.0
C1479 C 0.82067 0.76016 0.71617 0.0
H1480 H 0.82179 0.8157 0.64278 0.0
H1481 H 0.75908 0.76662 0.64581 0.0
H1482 H 0.86036 0.78696 0.67941 0.0
H1483 H 0.86825 0.76785 0.65345 0.0
H1484 H 0.86287 0.80063 0.64907 0.0
H1485 H 0.76219 0.7252 0.65796 0.0
H1486 H 0.79228 0.71072 0.65651 0.0
H1487 H 0.78187 0.72426 0.68494 0.0
H1488 H 0.86178 0.68081 0.67081 0.0
H1489 H 0.84144 0.72003 0.73712 0.0
H1490 H 0.85209 0.73273 0.62897 0.0
H1491 H 0.82793 0.71001 0.62965 0.0
H1492 H 0.85979 0.7002 0.63123 0.0
H1493 H 0.82813 0.77805 0.70931 0.0
H1494 H 0.82333 0.75934 0.73659 0.0
H1495 H 0.80047 0.75999 0.71223 0.0
C1496 C 0.69973 0.28558 0.17723 0.0
C1497 C 0.69 0.28672 0.15318 0.0
C1498 C 0.72109 0.29891 0.18362 0.0
C1499 C 0.73267 0.31419 0.16565 0.0
C1500 C 0.72212 0.31649 0.14173 0.0
C1501 C 0.70103 0.30246 0.13567 0.0
C1502 C 0.73194 0.29568 0.20926 0.0
C1503 C 0.73357 0.33308 0.12232 0.0
C1504 C 0.77984 0.35784 0.19398 0.0
C1505 C 0.80178 0.3442 0.19102 0.0
C1506 C 0.75733 0.34921 0.18416 0.0
C1507 C 0.75676 0.32617 0.17161 0.0
C1508 C 0.77914 0.31313 0.16726 0.0
C1509 C 0.80145 0.32245 0.17681 0.0
C1510 C 0.73397 0.36399 0.18856 0.0
C1511 C 0.77931 0.28835 0.15419 0.0
H1512 H 0.69131 0.27335 0.19079 0.0
H1513 H 0.69344 0.30347 0.11708 0.0
H1514 H 0.75066 0.28724 0.20785 0.0
H1515 H 0.73412 0.31397 0.2184 0.0
H1516 H 0.72025 0.2837 0.22127 0.0
H1517 H 0.72145 0.3352 0.1058 0.0
H1518 H 0.73739 0.35172 0.13017 0.0
H1519 H 0.75157 0.32519 0.11623 0.0
H1520 H 0.78007 0.37476 0.20483 0.0
H1521 H 0.81836 0.31182 0.17452 0.0
H1522 H 0.72259 0.35471 0.20297 0.0
H1523 H 0.72264 0.36493 0.17141 0.0
H1524 H 0.73806 0.38316 0.19489 0.0
H1525 H 0.76965 0.2744 0.16585 0.0
H1526 H 0.79842 0.28163 0.15046 0.0
H1527 H 0.76916 0.28955 0.13636 0.0
C1528 C 0.17084 0.31316 0.69004 0.0
C1529 C 0.14701 0.32062 0.69713 0.0
C1530 C 0.17485 0.28987 0.6793 0.0
C1531 C 0.15437 0.27402 0.67481 0.0
C1532 C 0.13002 0.28245 0.6798 0.0
C1533 C 0.12664 0.30553 0.69138 0.0
C1534 C 0.20119 0.2815 0.67466 0.0
C1535 C 0.10766 0.26658 0.67427 0.0
C1536 C 0.17529 0.21804 0.63827 0.0
C1537 C 0.18068 0.20144 0.65753 0.0
C1538 C 0.1641 0.24103 0.64327 0.0
C1539 C 0.15911 0.24773 0.66815 0.0
C1540 C 0.16265 0.23015 0.68735 0.0
C1541 C 0.17304 0.20703 0.68171 0.0
C1542 C 0.15942 0.2588 0.62217 0.0
C1543 C 0.15788 0.2366 0.71419 0.0
H1544 H 0.18662 0.32478 0.69451 0.0
H1545 H 0.10814 0.31141 0.69666 0.0
H1546 H 0.20564 0.26557 0.68693 0.0
H1547 H 0.20337 0.27512 0.65524 0.0
H1548 H 0.21491 0.29646 0.67819 0.0
H1549 H 0.09042 0.27783 0.67336 0.0
H1550 H 0.10999 0.25651 0.65647 0.0
H1551 H 0.10536 0.25256 0.68914 0.0
H1552 H 0.18092 0.21361 0.61948 0.0
H1553 H 0.17714 0.1942 0.69665 0.0
H1554 H 0.17459 0.27265 0.62138 0.0
H1555 H 0.14176 0.269 0.62496 0.0
H1556 H 0.15871 0.24902 0.60405 0.0
H1557 H 0.17134 0.25093 0.72028 0.0
H1558 H 0.15971 0.22025 0.7266 0.0
H1559 H 0.13903 0.24448 0.71649 0.0
C1560 C 0.20187 0.62137 0.16693 0.0
C1561 C 0.18441 0.64058 0.16857 0.0
C1562 C 0.22553 0.62568 0.15694 0.0
C1563 C 0.2319 0.64988 0.14905 0.0
C1564 C 0.21361 0.66874 0.14873 0.0
C1565 C 0.18996 0.66375 0.15824 0.0
C1566 C 0.24421 0.60485 0.15665 0.0
C1567 C 0.21963 0.69485 0.14055 0.0
C1568 C 0.29565 0.67645 0.16038 0.0
C1569 C 0.30411 0.68005 0.1361 0.0
C1570 C 0.27272 0.66514 0.16494 0.0
C1571 C 0.25823 0.65671 0.14471 0.0
C1572 C 0.26782 0.65811 0.12033 0.0
C1573 C 0.29056 0.6701 0.11626 0.0
C1574 C 0.26313 0.66415 0.19125 0.0
C1575 C 0.25336 0.6485 0.09839 0.0
H1576 H 0.19754 0.60332 0.17467 0.0
H1577 H 0.17649 0.67864 0.15936 0.0
H1578 H 0.25562 0.60545 0.13953 0.0
H1579 H 0.25693 0.60684 0.17269 0.0
H1580 H 0.23507 0.58643 0.15794 0.0
H1581 H 0.20286 0.70678 0.13951 0.0
H1582 H 0.23283 0.70333 0.15387 0.0
H1583 H 0.22872 0.69472 0.12211 0.0
H1584 H 0.30609 0.68409 0.17577 0.0
H1585 H 0.2972 0.67263 0.09745 0.0
H1586 H 0.2568 0.64515 0.19588 0.0
H1587 H 0.24691 0.67669 0.19312 0.0
H1588 H 0.27739 0.66984 0.20498 0.0
H1589 H 0.24425 0.6306 0.10288 0.0
H1590 H 0.26541 0.6459 0.08188 0.0
H1591 H 0.23859 0.66196 0.0935 0.0
C1592 C 0.84333 0.27122 0.27339 0.0
C1593 C 0.84367 0.2951 0.28362 0.0
C1594 C 0.83276 0.25134 0.28629 0.0
C1595 C 0.82231 0.2555 0.31 0.0
C1596 C 0.82405 0.27922 0.32111 0.0
C1597 C 0.83473 0.29883 0.30773 0.0
C1598 C 0.83129 0.2263 0.27382 0.0
C1599 C 0.81328 0.28425 0.34645 0.0
C1600 C 0.76723 0.21467 0.32418 0.0
C1601 C 0.77791 0.19616 0.33895 0.0
C1602 C 0.78139 0.2345 0.31532 0.0
C1603 C 0.80686 0.2359 0.32149 0.0
C1604 C 0.81762 0.2177 0.33705 0.0
C1605 C 0.80298 0.19792 0.34558 0.0
C1606 C 0.76925 0.25351 0.29867 0.0
C1607 C 0.84468 0.21876 0.3441 0.0
H1608 H 0.85044 0.2682 0.25483 0.0
H1609 H 0.83512 0.31726 0.31575 0.0
H1610 H 0.83768 0.21149 0.28659 0.0
H1611 H 0.81173 0.22221 0.26894 0.0
H1612 H 0.8426 0.2255 0.25662 0.0
H1613 H 0.81929 0.30248 0.35392 0.0
H1614 H 0.79273 0.28417 0.34529 0.0
H1615 H 0.81875 0.2695 0.35971 0.0
H1616 H 0.74782 0.21343 0.31908 0.0
H1617 H 0.81124 0.18368 0.35712 0.0
H1618 H 0.77785 0.25288 0.27998 0.0
H1619 H 0.77219 0.27243 0.30616 0.0
H1620 H 0.74899 0.25035 0.29662 0.0
H1621 H 0.8563 0.21578 0.32738 0.0
H1622 H 0.84963 0.20451 0.35813 0.0
H1623 H 0.84939 0.23734 0.35156 0.0
C1624 C 0.2211 0.34354 0.78654 0.0
C1625 C 0.20095 0.35635 0.7968 0.0
C1626 C 0.24042 0.33477 0.80148 0.0
C1627 C 0.23975 0.33914 0.82735 0.0
C1628 C 0.21977 0.35262 0.83781 0.0
C1629 C 0.20046 0.36096 0.82238 0.0
C1630 C 0.26125 0.32024 0.78959 0.0
C1631 C 0.21863 0.35784 0.86528 0.0
C1632 C 0.27715 0.29153 0.8626 0.0
C1633 C 0.30027 0.30329 0.86431 0.0
C1634 C 0.25672 0.30365 0.85208 0.0
C1635 C 0.25943 0.32822 0.84328 0.0
C1636 C 0.28219 0.34086 0.84673 0.0
C1637 C 0.30244 0.32817 0.85712 0.0
C1638 C 0.23283 0.28944 0.84864 0.0
C1639 C 0.28565 0.36721 0.83795 0.0
H1640 H 0.22159 0.33991 0.76678 0.0
H1641 H 0.18495 0.37097 0.83035 0.0
H1642 H 0.27934 0.32904 0.79385 0.0
H1643 H 0.26174 0.30116 0.7973 0.0
H1644 H 0.25925 0.31896 0.76913 0.0
H1645 H 0.20286 0.37016 0.87021 0.0
H1646 H 0.21663 0.34018 0.87563 0.0
H1647 H 0.23614 0.36663 0.87156 0.0
H1648 H 0.2753 0.27233 0.86828 0.0
H1649 H 0.32024 0.33741 0.85858 0.0
H1650 H 0.23019 0.28526 0.82867 0.0
H1651 H 0.21674 0.3007 0.85475 0.0
H1652 H 0.23279 0.27167 0.85907 0.0
H1653 H 0.28681 0.36747 0.8174 0.0
H1654 H 0.30285 0.37564 0.84552 0.0
H1655 H 0.26958 0.37884 0.84338 0.0
C1656 C 0.20228 0.77632 0.34274 0.0
C1657 C 0.1962 0.80066 0.3359 0.0
C1658 C 0.1905 0.756 0.33167 0.0
C1659 C 0.17215 0.76018 0.3134 0.0
C1660 C 0.16454 0.78471 0.30787 0.0
C1661 C 0.17673 0.80473 0.31919 0.0
C1662 C 0.19913 0.73014 0.33811 0.0
C1663 C 0.14482 0.78986 0.28869 0.0
C1664 C 0.17002 0.71301 0.26156 0.0
C1665 C 0.14968 0.69835 0.26835 0.0
C1666 C 0.17728 0.7333 0.27598 0.0
C1667 C 0.16373 0.73923 0.29767 0.0
C1668 C 0.14299 0.72468 0.30455 0.0
C1669 C 0.13626 0.70426 0.28982 0.0
C1670 C 0.19968 0.74822 0.26813 0.0
C1671 C 0.12804 0.73062 0.32745 0.0
H1672 H 0.21717 0.77306 0.35584 0.0
H1673 H 0.17187 0.82353 0.31397 0.0
H1674 H 0.18307 0.71771 0.34132 0.0
H1675 H 0.20987 0.72241 0.32235 0.0
H1676 H 0.21112 0.72991 0.35487 0.0
H1677 H 0.13833 0.80941 0.28936 0.0
H1678 H 0.15243 0.7862 0.26992 0.0
H1679 H 0.12867 0.7774 0.29135 0.0
H1680 H 0.18046 0.7085 0.24497 0.0
H1681 H 0.12043 0.69302 0.29503 0.0
H1682 H 0.21403 0.74757 0.28286 0.0
H1683 H 0.19444 0.76794 0.26552 0.0
H1684 H 0.208 0.74128 0.2506 0.0
H1685 H 0.13995 0.7291 0.34415 0.0
H1686 H 0.11189 0.71804 0.32972 0.0
H1687 H 0.12123 0.75002 0.32657 0.0
C1688 C 0.78054 0.64778 0.7823 0.0
C1689 C 0.80339 0.64439 0.79421 0.0
C1690 C 0.75978 0.65634 0.79536 0.0
C1691 C 0.76181 0.66119 0.82107 0.0
C1692 C 0.78437 0.65617 0.83355 0.0
C1693 C 0.80503 0.64805 0.8199 0.0
C1694 C 0.73618 0.66176 0.78126 0.0
C1695 C 0.78704 0.66057 0.86106 0.0
C1696 C 0.72014 0.71293 0.84362 0.0
C1697 C 0.69955 0.69978 0.85248 0.0
C1698 C 0.74087 0.70051 0.83414 0.0
C1699 C 0.74126 0.67426 0.83399 0.0
C1700 C 0.7211 0.66085 0.84415 0.0
C1701 C 0.70028 0.6738 0.85303 0.0
C1702 C 0.76181 0.71553 0.82311 0.0
C1703 C 0.72114 0.63288 0.84483 0.0
H1704 H 0.77915 0.64494 0.76245 0.0
H1705 H 0.82263 0.64527 0.8292 0.0
H1706 H 0.72011 0.6528 0.79043 0.0
H1707 H 0.7327 0.68205 0.78122 0.0
H1708 H 0.73708 0.65526 0.76173 0.0
H1709 H 0.80431 0.65221 0.86856 0.0
H1710 H 0.78747 0.6808 0.86477 0.0
H1711 H 0.77092 0.65279 0.87121 0.0
H1712 H 0.71964 0.73302 0.84311 0.0
H1713 H 0.68444 0.66359 0.86004 0.0
H1714 H 0.76327 0.71162 0.80296 0.0
H1715 H 0.77971 0.71021 0.83171 0.0
H1716 H 0.75909 0.7358 0.82564 0.0
H1717 H 0.7193 0.62551 0.82571 0.0
H1718 H 0.7057 0.62539 0.85622 0.0
H1719 H 0.73897 0.62591 0.85239 0.0
C1720 C 0.70819 0.82695 0.71879 0.0
C1721 C 0.6958 0.83638 0.69799 0.0
C1722 C 0.69506 0.81814 0.73932 0.0
C1723 C 0.66884 0.81919 0.73926 0.0
C1724 C 0.65619 0.82973 0.7188 0.0
C1725 C 0.66986 0.838 0.69819 0.0
C1726 C 0.70929 0.80674 0.76063 0.0
C1727 C 0.62827 0.83163 0.7184 0.0
C1728 C 0.64202 0.76938 0.7803 0.0
C1729 C 0.64015 0.78193 0.80297 0.0
C1730 C 0.6496 0.78179 0.75879 0.0
C1731 C 0.65507 0.80744 0.75998 0.0
C1732 C 0.65109 0.82063 0.78232 0.0
C1733 C 0.64388 0.80764 0.80369 0.0
C1734 C 0.65384 0.76698 0.7354 0.0
C1735 C 0.65614 0.84809 0.78411 0.0
H1736 H 0.72825 0.82565 0.71873 0.0
H1737 H 0.66026 0.84544 0.68217 0.0
H1738 H 0.70446 0.81619 0.77824 0.0
H1739 H 0.70412 0.78692 0.76265 0.0
H1740 H 0.72969 0.80791 0.75797 0.0
H1741 H 0.62152 0.84315 0.70271 0.0
H1742 H 0.62011 0.81283 0.71666 0.0
H1743 H 0.62137 0.83969 0.73603 0.0
H1744 H 0.63897 0.74952 0.77962 0.0
H1745 H 0.64213 0.81745 0.82115 0.0
H1746 H 0.67407 0.7654 0.73189 0.0
H1747 H 0.6455 0.77647 0.71919 0.0
H1748 H 0.64598 0.74798 0.7367 0.0
H1749 H 0.67646 0.85128 0.7847 0.0
H1750 H 0.64781 0.85633 0.80105 0.0
H1751 H 0.6488 0.85795 0.76761 0.0
C1752 C 0.68855 0.11581 0.2813 0.0
C1753 C 0.68539 0.13313 0.30044 0.0
C1754 C 0.67941 0.12059 0.2574 0.0
C1755 C 0.66747 0.14345 0.25256 0.0
C1756 C 0.6624 0.15998 0.27234 0.0
C1757 C 0.67118 0.15444 0.29615 0.0
C1758 C 0.68424 0.10206 0.237 0.0
C1759 C 0.64981 0.18463 0.26799 0.0
C1760 C 0.67799 0.17769 0.19241 0.0
C1761 C 0.65413 0.17758 0.18219 0.0
C1762 C 0.68295 0.16532 0.2147 0.0
C1763 C 0.66369 0.15203 0.22667 0.0
C1764 C 0.64021 0.14992 0.21519 0.0
C1765 C 0.63557 0.16306 0.19319 0.0
C1766 C 0.70823 0.16823 0.22642 0.0
C1767 C 0.61951 0.13516 0.22689 0.0
H1768 H 0.69929 0.09914 0.28465 0.0
H1769 H 0.66861 0.16783 0.31092 0.0
H1770 H 0.66803 0.10061 0.22442 0.0
H1771 H 0.70031 0.10829 0.22577 0.0
H1772 H 0.68854 0.08338 0.24456 0.0
H1773 H 0.64541 0.19436 0.2856 0.0
H1774 H 0.66213 0.19672 0.25677 0.0
H1775 H 0.63239 0.18207 0.25739 0.0
H1776 H 0.69237 0.18889 0.18394 0.0
H1777 H 0.61714 0.16277 0.18517 0.0
H1778 H 0.716 0.14986 0.2314 0.0
H1779 H 0.70653 0.17913 0.2438 0.0
H1780 H 0.72156 0.17783 0.21399 0.0
H1781 H 0.62664 0.11758 0.23488 0.0
H1782 H 0.60467 0.13079 0.21329 0.0
H1783 H 0.61116 0.14604 0.24221 0.0
C1784 C 0.31013 0.16734 0.70864 0.0
C1785 C 0.28506 0.1742 0.70782 0.0
C1786 C 0.32545 0.17517 0.72824 0.0
C1787 C 0.31537 0.19023 0.74724 0.0
C1788 C 0.29013 0.19738 0.74629 0.0
C1789 C 0.27531 0.18923 0.72663 0.0
C1790 C 0.35228 0.16722 0.72873 0.0
C1791 C 0.2787 0.21359 0.7661 0.0
C1792 C 0.34092 0.196 0.81226 0.0
C1793 C 0.35092 0.21997 0.81161 0.0
C1794 C 0.33093 0.18518 0.79082 0.0
C1795 C 0.33087 0.19875 0.76834 0.0
C1796 C 0.34261 0.22219 0.76721 0.0
C1797 C 0.35254 0.23252 0.78889 0.0
C1798 C 0.31879 0.16003 0.79269 0.0
C1799 C 0.34296 0.23724 0.7436 0.0
H1800 H 0.31771 0.15569 0.69412 0.0
H1801 H 0.25595 0.19465 0.72605 0.0
H1802 H 0.36451 0.18374 0.72924 0.0
H1803 H 0.35602 0.15636 0.7458 0.0
H1804 H 0.35733 0.15576 0.71238 0.0
H1805 H 0.25883 0.21764 0.76245 0.0
H1806 H 0.28021 0.20438 0.78443 0.0
H1807 H 0.28886 0.23143 0.76732 0.0
H1808 H 0.33981 0.18615 0.82975 0.0
H1809 H 0.36043 0.251 0.78825 0.0
H1810 H 0.32436 0.14809 0.77689 0.0
H1811 H 0.29834 0.16224 0.79186 0.0
H1812 H 0.32358 0.15042 0.81028 0.0
H1813 H 0.34846 0.22555 0.7276 0.0
H1814 H 0.35583 0.25327 0.74483 0.0
H1815 H 0.32404 0.2444 0.73979 0.0
C1816 C 0.30091 0.81505 0.29292 0.0
C1817 C 0.28852 0.83787 0.29276 0.0
C1818 C 0.31085 0.80514 0.27101 0.0
C1819 C 0.30877 0.81869 0.24859 0.0
C1820 C 0.2975 0.84239 0.24866 0.0
C1821 C 0.28723 0.85158 0.27072 0.0
C1822 C 0.32239 0.77963 0.27161 0.0
C1823 C 0.29546 0.85763 0.22525 0.0
C1824 C 0.34923 0.79697 0.1952 0.0
C1825 C 0.33239 0.78279 0.18139 0.0
C1826 C 0.34163 0.80951 0.21671 0.0
C1827 C 0.31678 0.80726 0.22484 0.0
C1828 C 0.29962 0.79328 0.2107 0.0
C1829 C 0.30759 0.78145 0.18897 0.0
C1830 C 0.36028 0.82471 0.231 0.0
C1831 C 0.27304 0.7901 0.21899 0.0
H1832 H 0.30177 0.80434 0.30992 0.0
H1833 H 0.27774 0.86932 0.27061 0.0
H1834 H 0.3111 0.7667 0.26025 0.0
H1835 H 0.34124 0.78011 0.2634 0.0
H1836 H 0.32372 0.77209 0.29074 0.0
H1837 H 0.28861 0.8767 0.22896 0.0
H1838 H 0.31375 0.85886 0.21591 0.0
H1839 H 0.28249 0.84849 0.21216 0.0
H1840 H 0.36842 0.79808 0.1893 0.0
H1841 H 0.29459 0.77031 0.17843 0.0
H1842 H 0.36352 0.81621 0.24945 0.0
H1843 H 0.35299 0.84369 0.23421 0.0
H1844 H 0.37834 0.82613 0.22118 0.0
H1845 H 0.27255 0.78086 0.23737 0.0
H1846 H 0.26199 0.77887 0.20572 0.0
H1847 H 0.26403 0.80846 0.22112 0.0
loop_
_geom_bond_atom_site_label_1
_geom_bond_atom_site_label_2
_geom_bond_distance
_geom_bond_site_symmetry_2
_ccdc_geom_bond_type
In0 O1 2.294 . S
In0 O2 2.326 . S
In0 O6 2.266 . S
In0 O7 2.326 . S
In0 O8 2.266 . S
In0 O9 2.326 . S
In0 O11 2.294 . S
In0 O12 2.326 . S
O1 In0 2.294 . S
O1 C10 1.240 . S
O2 In0 2.326 . S
O2 C10 1.252 . S
C3 O6 1.252 . S
C3 O7 1.260 . S
C4 O11 1.240 . S
C4 O12 1.252 . S
C5 O8 1.252 . S
C5 O9 1.260 . S
O6 In0 2.266 . S
O6 C3 1.252 . S
O7 In0 2.326 . S
O7 C3 1.260 . S
O8 In0 2.266 . S
O8 C5 1.252 . S
O9 In0 2.326 . S
O9 C5 1.260 . S
C10 O1 1.240 . S
C10 O2 1.252 . S
O11 In0 2.294 . S
O11 C4 1.240 . S
O12 In0 2.326 . S
O12 C4 1.252 . S
In13 O14 2.294 . S
In13 O15 2.326 . S
In13 O19 2.266 . S
In13 O20 2.326 . S
In13 O21 2.266 . S
In13 O22 2.326 . S
In13 O24 2.294 . S
In13 O25 2.326 . S
O14 In13 2.294 . S
O14 C23 1.240 . S
O15 In13 2.326 . S
O15 C23 1.252 . S
C16 O19 1.252 . S
C16 O20 1.260 . S
C17 O24 1.240 . S
C17 O25 1.252 . S
C18 O21 1.252 . S
C18 O22 1.260 . S
O19 In13 2.266 . S
O19 C16 1.252 . S
O20 In13 2.326 . S
O20 C16 1.260 . S
O21 In13 2.266 . S
O21 C18 1.252 . S
O22 In13 2.326 . S
O22 C18 1.260 . S
C23 O14 1.240 . S
C23 O15 1.252 . S
O24 In13 2.294 . S
O24 C17 1.240 . S
O25 In13 2.326 . S
O25 C17 1.252 . S
In26 O27 2.294 . S
In26 O28 2.326 . S
In26 O32 2.266 . S
In26 O33 2.326 . S
In26 O34 2.266 . S
In26 O35 2.326 . S
In26 O37 2.294 . S
In26 O38 2.326 . S
O27 In26 2.294 . S
O27 C36 1.240 . S
O28 In26 2.326 . S
O28 C36 1.252 . S
C29 O32 1.252 . S
C29 O33 1.260 . S
C30 O37 1.240 . S
C30 O38 1.252 . S
C31 O34 1.252 . S
C31 O35 1.260 . S
O32 In26 2.266 . S
O32 C29 1.252 . S
O33 In26 2.326 . S
O33 C29 1.260 . S
O34 In26 2.266 . S
O34 C31 1.252 . S
O35 In26 2.326 . S
O35 C31 1.260 . S
C36 O27 1.240 . S
C36 O28 1.252 . S
O37 In26 2.294 . S
O37 C30 1.240 . S
O38 In26 2.326 . S
O38 C30 1.252 . S
In39 O40 2.294 . S
In39 O41 2.326 . S
In39 O45 2.266 . S
In39 O46 2.326 . S
In39 O47 2.266 . S
In39 O48 2.326 . S
In39 O50 2.294 . S
In39 O51 2.326 . S
O40 In39 2.294 . S
O40 C49 1.240 . S
O41 In39 2.326 . S
O41 C49 1.252 . S
C42 O45 1.252 . S
C42 O46 1.260 . S
C43 O50 1.240 . S
C43 O51 1.252 . S
C44 O47 1.252 . S
C44 O48 1.260 . S
O45 In39 2.266 . S
O45 C42 1.252 . S
O46 In39 2.326 . S
O46 C42 1.260 . S
O47 In39 2.266 . S
O47 C44 1.252 . S
O48 In39 2.326 . S
O48 C44 1.260 . S
C49 O40 1.240 . S
C49 O41 1.252 . S
O50 In39 2.294 . S
O50 C43 1.240 . S
O51 In39 2.326 . S
O51 C43 1.252 . S
In52 O53 2.294 . S
In52 O54 2.326 . S
In52 O58 2.266 . S
In52 O59 2.326 . S
In52 O60 2.266 . S
In52 O61 2.326 . S
In52 O63 2.294 . S
In52 O64 2.326 . S
O53 In52 2.294 . S
O53 C62 1.240 . S
O54 In52 2.326 . S
O54 C62 1.252 . S
C55 O58 1.252 . S
C55 O59 1.260 . S
C56 O63 1.240 . S
C56 O64 1.252 . S
C57 O60 1.252 . S
C57 O61 1.260 . S
O58 In52 2.266 . S
O58 C55 1.252 . S
O59 In52 2.326 . S
O59 C55 1.260 . S
O60 In52 2.266 . S
O60 C57 1.252 . S
O61 In52 2.326 . S
O61 C57 1.260 . S
C62 O53 1.240 . S
C62 O54 1.252 . S
O63 In52 2.294 . S
O63 C56 1.240 . S
O64 In52 2.326 . S
O64 C56 1.252 . S
In65 O66 2.294 . S
In65 O67 2.326 . S
In65 O71 2.266 . S
In65 O72 2.326 . S
In65 O73 2.266 . S
In65 O74 2.326 . S
In65 O76 2.294 . S
In65 O77 2.326 . S
O66 In65 2.294 . S
O66 C75 1.240 . S
O67 In65 2.326 . S
O67 C75 1.252 . S
C68 O71 1.252 . S
C68 O72 1.260 . S
C69 O76 1.240 . S
C69 O77 1.252 . S
C70 O73 1.252 . S
C70 O74 1.260 . S
O71 In65 2.266 . S
O71 C68 1.252 . S
O72 In65 2.326 . S
O72 C68 1.260 . S
O73 In65 2.266 . S
O73 C70 1.252 . S
O74 In65 2.326 . S
O74 C70 1.260 . S
C75 O66 1.240 . S
C75 O67 1.252 . S
O76 In65 2.294 . S
O76 C69 1.240 . S
O77 In65 2.326 . S
O77 C69 1.252 . S
In78 O79 2.294 . S
In78 O80 2.326 . S
In78 O84 2.266 . S
In78 O85 2.326 . S
In78 O86 2.266 . S
In78 O87 2.326 . S
In78 O89 2.294 . S
In78 O90 2.326 . S
O79 In78 2.294 . S
O79 C88 1.240 . S
O80 In78 2.326 . S
O80 C88 1.252 . S
C81 O84 1.252 . S
C81 O85 1.260 . S
C82 O89 1.240 . S
C82 O90 1.252 . S
C83 O86 1.252 . S
C83 O87 1.260 . S
O84 In78 2.266 . S
O84 C81 1.252 . S
O85 In78 2.326 . S
O85 C81 1.260 . S
O86 In78 2.266 . S
O86 C83 1.252 . S
O87 In78 2.326 . S
O87 C83 1.260 . S
C88 O79 1.240 . S
C88 O80 1.252 . S
O89 In78 2.294 . S
O89 C82 1.240 . S
O90 In78 2.326 . S
O90 C82 1.252 . S
In91 O92 2.294 . S
In91 O93 2.326 . S
In91 O97 2.266 . S
In91 O98 2.326 . S
In91 O99 2.266 . S
In91 O100 2.326 . S
In91 O102 2.294 . S
In91 O103 2.326 . S
O92 In91 2.294 . S
O92 C101 1.240 . S
O93 In91 2.326 . S
O93 C101 1.252 . S
C94 O97 1.252 . S
C94 O98 1.260 . S
C95 O102 1.240 . S
C95 O103 1.252 . S
C96 O99 1.252 . S
C96 O100 1.260 . S
O97 In91 2.266 . S
O97 C94 1.252 . S
O98 In91 2.326 . S
O98 C94 1.260 . S
O99 In91 2.266 . S
O99 C96 1.252 . S
O100 In91 2.326 . S
O100 C96 1.260 . S
C101 O92 1.240 . S
C101 O93 1.252 . S
O102 In91 2.294 . S
O102 C95 1.240 . S
O103 In91 2.326 . S
O103 C95 1.252 . S
In104 O105 2.294 . S
In104 O106 2.326 . S
In104 O110 2.266 . S
In104 O111 2.326 . S
In104 O112 2.266 . S
In104 O113 2.326 . S
In104 O115 2.294 . S
In104 O116 2.326 . S
O105 In104 2.294 . S
O105 C114 1.240 . S
O106 In104 2.326 . S
O106 C114 1.252 . S
C107 O110 1.252 . S
C107 O111 1.260 . S
C108 O115 1.240 . S
C108 O116 1.252 . S
C109 O112 1.252 . S
C109 O113 1.260 . S
O110 In104 2.266 . S
O110 C107 1.252 . S
O111 In104 2.326 . S
O111 C107 1.260 . S
O112 In104 2.266 . S
O112 C109 1.252 . S
O113 In104 2.326 . S
O113 C109 1.260 . S
C114 O105 1.240 . S
C114 O106 1.252 . S
O115 In104 2.294 . S
O115 C108 1.240 . S
O116 In104 2.326 . S
O116 C108 1.252 . S
In117 O118 2.294 . S
In117 O119 2.326 . S
In117 O123 2.266 . S
In117 O124 2.326 . S
In117 O125 2.266 . S
In117 O126 2.326 . S
In117 O128 2.294 . S
In117 O129 2.326 . S
O118 In117 2.294 . S
O118 C127 1.240 . S
O119 In117 2.326 . S
O119 C127 1.252 . S
C120 O123 1.252 . S
C120 O124 1.260 . S
C121 O128 1.240 . S
C121 O129 1.252 . S
C122 O125 1.252 . S
C122 O126 1.260 . S
O123 In117 2.266 . S
O123 C120 1.252 . S
O124 In117 2.326 . S
O124 C120 1.260 . S
O125 In117 2.266 . S
O125 C122 1.252 . S
O126 In117 2.326 . S
O126 C122 1.260 . S
C127 O118 1.240 . S
C127 O119 1.252 . S
O128 In117 2.294 . S
O128 C121 1.240 . S
O129 In117 2.326 . S
O129 C121 1.252 . S
In130 O131 2.294 . S
In130 O132 2.326 . S
In130 O136 2.266 . S
In130 O137 2.326 . S
In130 O138 2.266 . S
In130 O139 2.326 . S
In130 O141 2.294 . S
In130 O142 2.326 . S
O131 In130 2.294 . S
O131 C140 1.240 . S
O132 In130 2.326 . S
O132 C140 1.252 . S
C133 O136 1.252 . S
C133 O137 1.260 . S
C134 O141 1.240 . S
C134 O142 1.252 . S
C135 O138 1.252 . S
C135 O139 1.260 . S
O136 In130 2.266 . S
O136 C133 1.252 . S
O137 In130 2.326 . S
O137 C133 1.260 . S
O138 In130 2.266 . S
O138 C135 1.252 . S
O139 In130 2.326 . S
O139 C135 1.260 . S
C140 O131 1.240 . S
C140 O132 1.252 . S
O141 In130 2.294 . S
O141 C134 1.240 . S
O142 In130 2.326 . S
O142 C134 1.252 . S
In143 O144 2.294 . S
In143 O145 2.326 . S
In143 O149 2.266 . S
In143 O150 2.326 . S
In143 O151 2.266 . S
In143 O152 2.326 . S
In143 O154 2.294 . S
In143 O155 2.326 . S
O144 In143 2.294 . S
O144 C153 1.240 . S
O145 In143 2.326 . S
O145 C153 1.252 . S
C146 O149 1.252 . S
C146 O150 1.260 . S
C147 O154 1.240 . S
C147 O155 1.252 . S
C148 O151 1.252 . S
C148 O152 1.260 . S
O149 In143 2.266 . S
O149 C146 1.252 . S
O150 In143 2.326 . S
O150 C146 1.260 . S
O151 In143 2.266 . S
O151 C148 1.252 . S
O152 In143 2.326 . S
O152 C148 1.260 . S
C153 O144 1.240 . S
C153 O145 1.252 . S
O154 In143 2.294 . S
O154 C147 1.240 . S
O155 In143 2.326 . S
O155 C147 1.252 . S
In156 O157 2.294 . S
In156 O158 2.326 . S
In156 O162 2.266 . S
In156 O163 2.326 . S
In156 O164 2.266 . S
In156 O165 2.326 . S
In156 O167 2.294 . S
In156 O168 2.326 . S
O157 In156 2.294 . S
O157 C166 1.240 . S
O158 In156 2.326 . S
O158 C166 1.252 . S
C159 O162 1.252 . S
C159 O163 1.260 . S
C160 O167 1.240 . S
C160 O168 1.252 . S
C161 O164 1.252 . S
C161 O165 1.260 . S
O162 In156 2.266 . S
O162 C159 1.252 . S
O163 In156 2.326 . S
O163 C159 1.260 . S
O164 In156 2.266 . S
O164 C161 1.252 . S
O165 In156 2.326 . S
O165 C161 1.260 . S
C166 O157 1.240 . S
C166 O158 1.252 . S
O167 In156 2.294 . S
O167 C160 1.240 . S
O168 In156 2.326 . S
O168 C160 1.252 . S
In169 O170 2.294 . S
In169 O171 2.326 . S
In169 O175 2.266 . S
In169 O176 2.326 . S
In169 O177 2.266 . S
In169 O178 2.326 . S
In169 O180 2.294 . S
In169 O181 2.326 . S
O170 In169 2.294 . S
O170 C179 1.240 . S
O171 In169 2.326 . S
O171 C179 1.252 . S
C172 O175 1.252 . S
C172 O176 1.260 . S
C173 O180 1.240 . S
C173 O181 1.252 . S
C174 O177 1.252 . S
C174 O178 1.260 . S
O175 In169 2.266 . S
O175 C172 1.252 . S
O176 In169 2.326 . S
O176 C172 1.260 . S
O177 In169 2.266 . S
O177 C174 1.252 . S
O178 In169 2.326 . S
O178 C174 1.260 . S
C179 O170 1.240 . S
C179 O171 1.252 . S
O180 In169 2.294 . S
O180 C173 1.240 . S
O181 In169 2.326 . S
O181 C173 1.252 . S
In182 O183 2.294 . S
In182 O184 2.326 . S
In182 O188 2.266 . S
In182 O189 2.326 . S
In182 O190 2.266 . S
In182 O191 2.326 . S
In182 O193 2.294 . S
In182 O194 2.326 . S
O183 In182 2.294 . S
O183 C192 1.240 . S
O184 In182 2.326 . S
O184 C192 1.252 . S
C185 O188 1.252 . S
C185 O189 1.260 . S
C186 O193 1.240 . S
C186 O194 1.252 . S
C187 O190 1.252 . S
C187 O191 1.260 . S
O188 In182 2.266 . S
O188 C185 1.252 . S
O189 In182 2.326 . S
O189 C185 1.260 . S
O190 In182 2.266 . S
O190 C187 1.252 . S
O191 In182 2.326 . S
O191 C187 1.260 . S
C192 O183 1.240 . S
C192 O184 1.252 . S
O193 In182 2.294 . S
O193 C186 1.240 . S
O194 In182 2.326 . S
O194 C186 1.252 . S
In195 O196 2.294 . S
In195 O197 2.326 . S
In195 O201 2.266 . S
In195 O202 2.326 . S
In195 O203 2.266 . S
In195 O204 2.326 . S
In195 O206 2.294 . S
In195 O207 2.326 . S
O196 In195 2.294 . S
O196 C205 1.240 . S
O197 In195 2.326 . S
O197 C205 1.252 . S
C198 O201 1.252 . S
C198 O202 1.260 . S
C199 O206 1.240 . S
C199 O207 1.252 . S
C200 O203 1.252 . S
C200 O204 1.260 . S
O201 In195 2.266 . S
O201 C198 1.252 . S
O202 In195 2.326 . S
O202 C198 1.260 . S
O203 In195 2.266 . S
O203 C200 1.252 . S
O204 In195 2.326 . S
O204 C200 1.260 . S
C205 O196 1.240 . S
C205 O197 1.252 . S
O206 In195 2.294 . S
O206 C199 1.240 . S
O207 In195 2.326 . S
O207 C199 1.252 . S
In208 O209 2.294 . S
In208 O210 2.326 . S
In208 O214 2.266 . S
In208 O215 2.326 . S
In208 O216 2.266 . S
In208 O217 2.326 . S
In208 O219 2.294 . S
In208 O220 2.326 . S
O209 In208 2.294 . S
O209 C218 1.240 . S
O210 In208 2.326 . S
O210 C218 1.252 . S
C211 O214 1.252 . S
C211 O215 1.260 . S
C212 O219 1.240 . S
C212 O220 1.252 . S
C213 O216 1.252 . S
C213 O217 1.260 . S
O214 In208 2.266 . S
O214 C211 1.252 . S
O215 In208 2.326 . S
O215 C211 1.260 . S
O216 In208 2.266 . S
O216 C213 1.252 . S
O217 In208 2.326 . S
O217 C213 1.260 . S
C218 O209 1.240 . S
C218 O210 1.252 . S
O219 In208 2.294 . S
O219 C212 1.240 . S
O220 In208 2.326 . S
O220 C212 1.252 . S
In221 O222 2.294 . S
In221 O223 2.326 . S
In221 O227 2.266 . S
In221 O228 2.326 . S
In221 O229 2.266 . S
In221 O230 2.326 . S
In221 O232 2.294 . S
In221 O233 2.326 . S
O222 In221 2.294 . S
O222 C231 1.240 . S
O223 In221 2.326 . S
O223 C231 1.252 . S
C224 O227 1.252 . S
C224 O228 1.260 . S
C225 O232 1.240 . S
C225 O233 1.252 . S
C226 O229 1.252 . S
C226 O230 1.260 . S
O227 In221 2.266 . S
O227 C224 1.252 . S
O228 In221 2.326 . S
O228 C224 1.260 . S
O229 In221 2.266 . S
O229 C226 1.252 . S
O230 In221 2.326 . S
O230 C226 1.260 . S
C231 O222 1.240 . S
C231 O223 1.252 . S
O232 In221 2.294 . S
O232 C225 1.240 . S
O233 In221 2.326 . S
O233 C225 1.252 . S
In234 O235 2.294 . S
In234 O236 2.326 . S
In234 O240 2.266 . S
In234 O241 2.326 . S
In234 O242 2.266 . S
In234 O243 2.326 . S
In234 O245 2.294 . S
In234 O246 2.326 . S
O235 In234 2.294 . S
O235 C244 1.240 . S
O236 In234 2.326 . S
O236 C244 1.252 . S
C237 O240 1.252 . S
C237 O241 1.260 . S
C238 O245 1.240 . S
C238 O246 1.252 . S
C239 O242 1.252 . S
C239 O243 1.260 . S
O240 In234 2.266 . S
O240 C237 1.252 . S
O241 In234 2.326 . S
O241 C237 1.260 . S
O242 In234 2.266 . S
O242 C239 1.252 . S
O243 In234 2.326 . S
O243 C239 1.260 . S
C244 O235 1.240 . S
C244 O236 1.252 . S
O245 In234 2.294 . S
O245 C238 1.240 . S
O246 In234 2.326 . S
O246 C238 1.252 . S
In247 O248 2.294 . S
In247 O249 2.326 . S
In247 O253 2.266 . S
In247 O254 2.326 . S
In247 O255 2.266 . S
In247 O256 2.326 . S
In247 O258 2.294 . S
In247 O259 2.326 . S
O248 In247 2.294 . S
O248 C257 1.240 . S
O249 In247 2.326 . S
O249 C257 1.252 . S
C250 O253 1.252 . S
C250 O254 1.260 . S
C251 O258 1.240 . S
C251 O259 1.252 . S
C252 O255 1.252 . S
C252 O256 1.260 . S
O253 In247 2.266 . S
O253 C250 1.252 . S
O254 In247 2.326 . S
O254 C250 1.260 . S
O255 In247 2.266 . S
O255 C252 1.252 . S
O256 In247 2.326 . S
O256 C252 1.260 . S
C257 O248 1.240 . S
C257 O249 1.252 . S
O258 In247 2.294 . S
O258 C251 1.240 . S
O259 In247 2.326 . S
O259 C251 1.252 . S
In260 O261 2.294 . S
In260 O262 2.326 . S
In260 O266 2.266 . S
In260 O267 2.326 . S
In260 O268 2.266 . S
In260 O269 2.326 . S
In260 O271 2.294 . S
In260 O272 2.326 . S
O261 In260 2.294 . S
O261 C270 1.240 . S
O262 In260 2.326 . S
O262 C270 1.252 . S
C263 O266 1.252 . S
C263 O267 1.260 . S
C264 O271 1.240 . S
C264 O272 1.252 . S
C265 O268 1.252 . S
C265 O269 1.260 . S
O266 In260 2.266 . S
O266 C263 1.252 . S
O267 In260 2.326 . S
O267 C263 1.260 . S
O268 In260 2.266 . S
O268 C265 1.252 . S
O269 In260 2.326 . S
O269 C265 1.260 . S
C270 O261 1.240 . S
C270 O262 1.252 . S
O271 In260 2.294 . S
O271 C264 1.240 . S
O272 In260 2.326 . S
O272 C264 1.252 . S
In273 O274 2.294 . S
In273 O275 2.326 . S
In273 O279 2.266 . S
In273 O280 2.326 . S
In273 O281 2.266 . S
In273 O282 2.326 . S
In273 O284 2.294 . S
In273 O285 2.326 . S
O274 In273 2.294 . S
O274 C283 1.240 . S
O275 In273 2.326 . S
O275 C283 1.252 . S
C276 O279 1.252 . S
C276 O280 1.260 . S
C277 O284 1.240 . S
C277 O285 1.252 . S
C278 O281 1.252 . S
C278 O282 1.260 . S
O279 In273 2.266 . S
O279 C276 1.252 . S
O280 In273 2.326 . S
O280 C276 1.260 . S
O281 In273 2.266 . S
O281 C278 1.252 . S
O282 In273 2.326 . S
O282 C278 1.260 . S
C283 O274 1.240 . S
C283 O275 1.252 . S
O284 In273 2.294 . S
O284 C277 1.240 . S
O285 In273 2.326 . S
O285 C277 1.252 . S
In286 O287 2.294 . S
In286 O288 2.326 . S
In286 O292 2.266 . S
In286 O293 2.326 . S
In286 O294 2.266 . S
In286 O295 2.326 . S
In286 O297 2.294 . S
In286 O298 2.326 . S
O287 In286 2.294 . S
O287 C296 1.240 . S
O288 In286 2.326 . S
O288 C296 1.252 . S
C289 O292 1.252 . S
C289 O293 1.260 . S
C290 O297 1.240 . S
C290 O298 1.252 . S
C291 O294 1.252 . S
C291 O295 1.260 . S
O292 In286 2.266 . S
O292 C289 1.252 . S
O293 In286 2.326 . S
O293 C289 1.260 . S
O294 In286 2.266 . S
O294 C291 1.252 . S
O295 In286 2.326 . S
O295 C291 1.260 . S
C296 O287 1.240 . S
C296 O288 1.252 . S
O297 In286 2.294 . S
O297 C290 1.240 . S
O298 In286 2.326 . S
O298 C290 1.252 . S
In299 O300 2.294 . S
In299 O301 2.326 . S
In299 O305 2.266 . S
In299 O306 2.326 . S
In299 O307 2.266 . S
In299 O308 2.326 . S
In299 O310 2.294 . S
In299 O311 2.326 . S
O300 In299 2.294 . S
O300 C309 1.240 . S
O301 In299 2.326 . S
O301 C309 1.252 . S
C302 O305 1.252 . S
C302 O306 1.260 . S
C303 O310 1.240 . S
C303 O311 1.252 . S
C304 O307 1.252 . S
C304 O308 1.260 . S
O305 In299 2.266 . S
O305 C302 1.252 . S
O306 In299 2.326 . S
O306 C302 1.260 . S
O307 In299 2.266 . S
O307 C304 1.252 . S
O308 In299 2.326 . S
O308 C304 1.260 . S
C309 O300 1.240 . S
C309 O301 1.252 . S
O310 In299 2.294 . S
O310 C303 1.240 . S
O311 In299 2.326 . S
O311 C303 1.252 . S
C312 C313 1.391 . S
C312 C314 1.394 . S
C312 H328 0.931 . S
C313 C312 1.391 . S
C313 C317 1.376 . S
C314 C312 1.394 . S
C314 C315 1.369 . S
C314 C318 1.531 . S
C315 C314 1.369 . S
C315 C316 1.410 . S
C315 C323 1.503 . S
C316 C315 1.410 . S
C316 C317 1.392 . S
C316 C319 1.511 . S
C317 C313 1.376 . S
C317 C316 1.392 . S
C317 H329 0.929 . S
C318 C314 1.531 . S
C318 H330 0.960 . S
C318 H331 0.962 . S
C318 H332 0.960 . S
C319 C316 1.511 . S
C319 H333 0.961 . S
C319 H334 0.961 . S
C319 H335 0.961 . S
C320 C321 1.370 . S
C320 C322 1.363 . S
C320 H336 0.931 . S
C321 C320 1.370 . S
C321 C325 1.408 . S
C322 C320 1.363 . S
C322 C323 1.370 . S
C322 C326 1.524 . S
C323 C315 1.503 . S
C323 C322 1.370 . S
C323 C324 1.403 . S
C324 C323 1.403 . S
C324 C325 1.404 . S
C324 C327 1.539 . S
C325 C321 1.408 . S
C325 C324 1.404 . S
C325 H337 0.930 . S
C326 C322 1.524 . S
C326 H338 0.956 . S
C326 H339 0.961 . S
C326 H340 0.961 . S
C327 C324 1.539 . S
C327 H341 0.958 . S
C327 H342 0.961 . S
C327 H343 0.960 . S
H328 C312 0.931 . S
H329 C317 0.929 . S
H330 C318 0.960 . S
H331 C318 0.962 . S
H332 C318 0.960 . S
H333 C319 0.961 . S
H334 C319 0.961 . S
H335 C319 0.961 . S
H336 C320 0.931 . S
H337 C325 0.930 . S
H338 C326 0.956 . S
H339 C326 0.961 . S
H340 C326 0.961 . S
H341 C327 0.958 . S
H342 C327 0.961 . S
H343 C327 0.960 . S
C344 C345 1.391 . S
C344 C346 1.394 . S
C344 H360 0.931 . S
C345 C344 1.391 . S
C345 C349 1.376 . S
C346 C344 1.394 . S
C346 C347 1.369 . S
C346 C350 1.531 . S
C347 C346 1.369 . S
C347 C348 1.410 . S
C347 C355 1.503 1_655 S
C348 C347 1.410 . S
C348 C349 1.392 . S
C348 C351 1.511 . S
C349 C345 1.376 . S
C349 C348 1.392 . S
C349 H361 0.929 . S
C350 C346 1.531 . S
C350 H362 0.960 1_655 S
C350 H363 0.962 . S
C350 H364 0.960 . S
C351 C348 1.511 . S
C351 H365 0.961 . S
C351 H366 0.961 1_655 S
C351 H367 0.961 . S
C352 C353 1.370 . S
C352 C354 1.363 . S
C352 H368 0.931 . S
C353 C352 1.370 . S
C353 C357 1.408 . S
C354 C352 1.363 . S
C354 C355 1.370 . S
C354 C358 1.524 . S
C355 C347 1.503 1_455 S
C355 C354 1.370 . S
C355 C356 1.403 . S
C356 C355 1.403 . S
C356 C357 1.404 . S
C356 C359 1.539 . S
C357 C353 1.408 . S
C357 C356 1.404 . S
C357 H369 0.930 . S
C358 C354 1.524 . S
C358 H370 0.956 . S
C358 H371 0.961 1_455 S
C358 H372 0.961 . S
C359 C356 1.539 . S
C359 H373 0.958 . S
C359 H374 0.961 . S
C359 H375 0.971 . S
H360 C344 0.931 . S
H361 C349 0.929 . S
H362 C350 0.960 1_455 S
H363 C350 0.962 . S
H364 C350 0.960 . S
H365 C351 0.961 . S
H366 C351 0.961 1_455 S
H367 C351 0.961 . S
H368 C352 0.931 . S
H369 C357 0.930 . S
H370 C358 0.956 . S
H371 C358 0.961 1_655 S
H372 C358 0.961 . S
H373 C359 0.958 . S
H374 C359 0.961 . S
H375 C359 0.971 . S
C376 C377 1.391 . S
C376 C378 1.394 . S
C376 H392 0.931 . S
C377 C376 1.391 . S
C377 C381 1.376 . S
C378 C376 1.394 . S
C378 C379 1.369 . S
C378 C382 1.531 . S
C379 C378 1.369 . S
C379 C380 1.410 . S
C379 C387 1.503 . S
C380 C379 1.410 . S
C380 C381 1.392 . S
C380 C383 1.511 . S
C381 C377 1.376 . S
C381 C380 1.392 . S
C381 H393 0.929 . S
C382 C378 1.531 . S
C382 H394 0.960 . S
C382 H395 0.962 . S
C382 H396 0.960 . S
C383 C380 1.511 . S
C383 H397 0.961 . S
C383 H398 0.961 . S
C383 H399 0.961 . S
C384 C385 1.370 . S
C384 C386 1.363 . S
C384 H400 0.931 . S
C385 C384 1.370 . S
C385 C389 1.408 . S
C386 C384 1.363 . S
C386 C387 1.370 . S
C386 C390 1.524 . S
C387 C379 1.503 . S
C387 C386 1.370 . S
C387 C388 1.403 . S
C388 C387 1.403 . S
C388 C389 1.404 . S
C388 C391 1.539 . S
C389 C385 1.408 . S
C389 C388 1.404 . S
C389 H401 0.930 . S
C390 C386 1.524 . S
C390 H402 0.956 . S
C390 H403 0.961 . S
C390 H404 0.961 . S
C391 C388 1.539 . S
C391 H405 0.958 . S
C391 H406 0.961 . S
C391 H407 0.960 . S
H392 C376 0.931 . S
H393 C381 0.929 . S
H394 C382 0.960 . S
H395 C382 0.962 . S
H396 C382 0.960 . S
H397 C383 0.961 . S
H398 C383 0.961 . S
H399 C383 0.961 . S
H400 C384 0.931 . S
H401 C389 0.930 . S
H402 C390 0.956 . S
H403 C390 0.961 . S
H404 C390 0.961 . S
H405 C391 0.958 . S
H406 C391 0.961 . S
H407 C391 0.960 . S
C408 C409 1.391 . S
C408 C410 1.394 . S
C408 H424 0.931 . S
C409 C408 1.391 . S
C409 C413 1.376 . S
C410 C408 1.394 . S
C410 C411 1.369 . S
C410 C414 1.531 . S
C411 C410 1.369 . S
C411 C412 1.410 . S
C411 C419 1.503 1_455 S
C412 C411 1.410 . S
C412 C413 1.392 . S
C412 C415 1.511 . S
C413 C409 1.376 . S
C413 C412 1.392 . S
C413 H425 0.929 . S
C414 C410 1.531 . S
C414 H426 0.960 1_455 S
C414 H427 0.962 . S
C414 H428 0.960 . S
C415 C412 1.511 . S
C415 H429 0.961 . S
C415 H430 0.961 1_455 S
C415 H431 0.961 . S
C416 C417 1.370 . S
C416 C418 1.363 . S
C416 H432 0.931 . S
C417 C416 1.370 . S
C417 C421 1.408 . S
C418 C416 1.363 . S
C418 C419 1.370 . S
C418 C422 1.524 . S
C419 C411 1.503 1_655 S
C419 C418 1.370 . S
C419 C420 1.403 . S
C420 C419 1.403 . S
C420 C421 1.404 . S
C420 C423 1.539 . S
C421 C417 1.408 . S
C421 C420 1.404 . S
C421 H433 0.930 . S
C422 C418 1.524 . S
C422 H434 0.956 . S
C422 H435 0.961 1_655 S
C422 H436 0.961 . S
C423 C420 1.539 . S
C423 H437 0.958 . S
C423 H438 0.961 . S
C423 H439 0.971 . S
H424 C408 0.931 . S
H425 C413 0.929 . S
H426 C414 0.960 1_655 S
H427 C414 0.962 . S
H428 C414 0.960 . S
H429 C415 0.961 . S
H430 C415 0.961 1_655 S
H431 C415 0.961 . S
H432 C416 0.931 . S
H433 C421 0.930 . S
H434 C422 0.956 . S
H435 C422 0.961 1_455 S
H436 C422 0.961 . S
H437 C423 0.958 . S
H438 C423 0.961 . S
H439 C423 0.971 . S
C440 C441 1.391 . S
C440 C442 1.394 . S
C440 H456 0.931 . S
C441 C440 1.391 . S
C441 C445 1.376 . S
C442 C440 1.394 . S
C442 C443 1.369 . S
C442 C446 1.531 . S
C443 C442 1.369 . S
C443 C444 1.410 . S
C443 C451 1.503 . S
C444 C443 1.410 . S
C444 C445 1.392 . S
C444 C447 1.511 . S
C445 C441 1.376 . S
C445 C444 1.392 . S
C445 H457 0.929 . S
C446 C442 1.531 . S
C446 H458 0.960 . S
C446 H459 0.962 . S
C446 H460 0.960 . S
C447 C444 1.511 . S
C447 H461 0.961 . S
C447 H462 0.961 . S
C447 H463 0.961 . S
C448 C449 1.370 . S
C448 C450 1.363 . S
C448 H464 0.931 . S
C449 C448 1.370 . S
C449 C453 1.408 . S
C450 C448 1.363 . S
C450 C451 1.370 . S
C450 C454 1.524 . S
C451 C443 1.503 . S
C451 C450 1.370 . S
C451 C452 1.403 . S
C452 C451 1.403 . S
C452 C453 1.404 . S
C452 C455 1.539 . S
C453 C449 1.408 . S
C453 C452 1.404 . S
C453 H465 0.930 . S
C454 C450 1.524 . S
C454 H466 0.956 . S
C454 H467 0.961 . S
C454 H468 0.961 . S
C455 C452 1.539 . S
C455 H469 0.958 . S
C455 H470 0.961 . S
C455 H471 0.960 . S
H456 C440 0.931 . S
H457 C445 0.929 . S
H458 C446 0.960 . S
H459 C446 0.962 . S
H460 C446 0.960 . S
H461 C447 0.961 . S
H462 C447 0.961 . S
H463 C447 0.961 . S
H464 C448 0.931 . S
H465 C453 0.930 . S
H466 C454 0.956 . S
H467 C454 0.961 . S
H468 C454 0.961 . S
H469 C455 0.958 . S
H470 C455 0.961 . S
H471 C455 0.960 . S
C472 C473 1.391 . S
C472 C474 1.394 . S
C472 H488 0.931 . S
C473 C472 1.391 . S
C473 C477 1.376 . S
C474 C472 1.394 . S
C474 C475 1.369 . S
C474 C478 1.531 . S
C475 C474 1.369 . S
C475 C476 1.410 . S
C475 C483 1.503 1_655 S
C476 C475 1.410 . S
C476 C477 1.392 . S
C476 C479 1.511 . S
C477 C473 1.376 . S
C477 C476 1.392 . S
C477 H489 0.929 . S
C478 C474 1.531 . S
C478 H490 0.960 1_655 S
C478 H491 0.962 . S
C478 H492 0.960 . S
C479 C476 1.511 . S
C479 H493 0.961 . S
C479 H494 0.961 1_655 S
C479 H495 0.961 . S
C480 C481 1.370 . S
C480 C482 1.363 . S
C480 H496 0.931 . S
C481 C480 1.370 . S
C481 C485 1.408 . S
C482 C480 1.363 . S
C482 C483 1.370 . S
C482 C486 1.524 . S
C483 C475 1.503 1_455 S
C483 C482 1.370 . S
C483 C484 1.403 . S
C484 C483 1.403 . S
C484 C485 1.404 . S
C484 C487 1.539 . S
C485 C481 1.408 . S
C485 C484 1.404 . S
C485 H497 0.930 . S
C486 C482 1.524 . S
C486 H498 0.956 . S
C486 H499 0.961 1_455 S
C486 H500 0.961 . S
C487 C484 1.539 . S
C487 H501 0.958 . S
C487 H502 0.961 . S
C487 H503 0.971 . S
H488 C472 0.931 . S
H489 C477 0.929 . S
H490 C478 0.960 1_455 S
H491 C478 0.962 . S
H492 C478 0.960 . S
H493 C479 0.961 . S
H494 C479 0.961 1_455 S
H495 C479 0.961 . S
H496 C480 0.931 . S
H497 C485 0.930 . S
H498 C486 0.956 . S
H499 C486 0.961 1_655 S
H500 C486 0.961 . S
H501 C487 0.958 . S
H502 C487 0.961 . S
H503 C487 0.971 . S
C504 C505 1.391 . S
C504 C506 1.394 . S
C504 H520 0.931 . S
C505 C504 1.391 . S
C505 C509 1.376 . S
C506 C504 1.394 . S
C506 C507 1.369 . S
C506 C510 1.531 . S
C507 C506 1.369 . S
C507 C508 1.410 . S
C507 C515 1.503 . S
C508 C507 1.410 . S
C508 C509 1.392 . S
C508 C511 1.511 . S
C509 C505 1.376 . S
C509 C508 1.392 . S
C509 H521 0.929 . S
C510 C506 1.531 . S
C510 H522 0.960 . S
C510 H523 0.962 . S
C510 H524 0.960 . S
C511 C508 1.511 . S
C511 H525 0.961 . S
C511 H526 0.961 . S
C511 H527 0.961 . S
C512 C513 1.370 . S
C512 C514 1.363 . S
C512 H528 0.931 . S
C513 C512 1.370 . S
C513 C517 1.408 . S
C514 C512 1.363 . S
C514 C515 1.370 . S
C514 C518 1.524 . S
C515 C507 1.503 . S
C515 C514 1.370 . S
C515 C516 1.403 . S
C516 C515 1.403 . S
C516 C517 1.404 . S
C516 C519 1.539 . S
C517 C513 1.408 . S
C517 C516 1.404 . S
C517 H529 0.930 . S
C518 C514 1.524 . S
C518 H530 0.956 . S
C518 H531 0.961 . S
C518 H532 0.961 . S
C519 C516 1.539 . S
C519 H533 0.958 . S
C519 H534 0.961 . S
C519 H535 0.960 . S
H520 C504 0.931 . S
H521 C509 0.929 . S
H522 C510 0.960 . S
H523 C510 0.962 . S
H524 C510 0.960 . S
H525 C511 0.961 . S
H526 C511 0.961 . S
H527 C511 0.961 . S
H528 C512 0.931 . S
H529 C517 0.930 . S
H530 C518 0.956 . S
H531 C518 0.961 . S
H532 C518 0.961 . S
H533 C519 0.958 . S
H534 C519 0.961 . S
H535 C519 0.960 . S
C536 C537 1.391 . S
C536 C538 1.394 . S
C536 H552 0.931 . S
C537 C536 1.391 . S
C537 C541 1.376 . S
C538 C536 1.394 . S
C538 C539 1.369 . S
C538 C542 1.531 . S
C539 C538 1.369 . S
C539 C540 1.410 . S
C539 C547 1.503 1_655 S
C540 C539 1.410 . S
C540 C541 1.392 . S
C540 C543 1.511 . S
C541 C537 1.376 . S
C541 C540 1.392 . S
C541 H553 0.929 . S
C542 C538 1.531 . S
C542 H554 0.960 1_655 S
C542 H555 0.962 . S
C542 H556 0.960 . S
C543 C540 1.511 . S
C543 H557 0.961 . S
C543 H558 0.961 1_655 S
C543 H559 0.961 . S
C544 C545 1.370 . S
C544 C546 1.363 . S
C544 H560 0.931 . S
C545 C544 1.370 . S
C545 C549 1.408 . S
C546 C544 1.363 . S
C546 C547 1.370 . S
C546 C550 1.524 . S
C547 C539 1.503 1_455 S
C547 C546 1.370 . S
C547 C548 1.403 . S
C548 C547 1.403 . S
C548 C549 1.404 . S
C548 C551 1.539 . S
C549 C545 1.408 . S
C549 C548 1.404 . S
C549 H561 0.930 . S
C550 C546 1.524 . S
C550 H562 0.956 . S
C550 H563 0.961 1_455 S
C550 H564 0.961 . S
C551 C548 1.539 . S
C551 H565 0.958 . S
C551 H566 0.961 . S
C551 H567 0.971 . S
H552 C536 0.931 . S
H553 C541 0.929 . S
H554 C542 0.960 1_455 S
H555 C542 0.962 . S
H556 C542 0.960 . S
H557 C543 0.961 . S
H558 C543 0.961 1_455 S
H559 C543 0.961 . S
H560 C544 0.931 . S
H561 C549 0.930 . S
H562 C550 0.956 . S
H563 C550 0.961 1_655 S
H564 C550 0.961 . S
H565 C551 0.958 . S
H566 C551 0.961 . S
H567 C551 0.971 . S
C568 C569 1.391 . S
C568 C570 1.394 . S
C568 H584 0.931 . S
C569 C568 1.391 . S
C569 C573 1.376 . S
C570 C568 1.394 . S
C570 C571 1.369 . S
C570 C574 1.531 . S
C571 C570 1.369 . S
C571 C572 1.410 . S
C571 C579 1.503 . S
C572 C571 1.410 . S
C572 C573 1.392 . S
C572 C575 1.511 . S
C573 C569 1.376 . S
C573 C572 1.392 . S
C573 H585 0.929 . S
C574 C570 1.531 . S
C574 H586 0.960 . S
C574 H587 0.962 . S
C574 H588 0.960 . S
C575 C572 1.511 . S
C575 H589 0.961 . S
C575 H590 0.961 . S
C575 H591 0.961 . S
C576 C577 1.370 . S
C576 C578 1.363 . S
C576 H592 0.931 . S
C577 C576 1.370 . S
C577 C581 1.408 . S
C578 C576 1.363 . S
C578 C579 1.370 . S
C578 C582 1.524 . S
C579 C571 1.503 . S
C579 C578 1.370 . S
C579 C580 1.403 . S
C580 C579 1.403 . S
C580 C581 1.404 . S
C580 C583 1.539 . S
C581 C577 1.408 . S
C581 C580 1.404 . S
C581 H593 0.930 . S
C582 C578 1.524 . S
C582 H594 0.956 . S
C582 H595 0.961 . S
C582 H596 0.961 . S
C583 C580 1.539 . S
C583 H597 0.958 . S
C583 H598 0.961 . S
C583 H599 0.960 . S
H584 C568 0.931 . S
H585 C573 0.929 . S
H586 C574 0.960 . S
H587 C574 0.962 . S
H588 C574 0.960 . S
H589 C575 0.961 . S
H590 C575 0.961 . S
H591 C575 0.961 . S
H592 C576 0.931 . S
H593 C581 0.930 . S
H594 C582 0.956 . S
H595 C582 0.961 . S
H596 C582 0.961 . S
H597 C583 0.958 . S
H598 C583 0.961 . S
H599 C583 0.960 . S
C600 C601 1.391 . S
C600 C602 1.394 . S
C600 H616 0.931 . S
C601 C600 1.391 . S
C601 C605 1.376 . S
C602 C600 1.394 . S
C602 C603 1.369 . S
C602 C606 1.531 . S
C603 C602 1.369 . S
C603 C604 1.410 . S
C603 C611 1.503 1_556 S
C604 C603 1.410 . S
C604 C605 1.392 . S
C604 C607 1.511 . S
C605 C601 1.376 . S
C605 C604 1.392 . S
C605 H617 0.929 . S
C606 C602 1.531 . S
C606 H618 0.960 1_556 S
C606 H619 0.962 . S
C606 H620 0.960 . S
C607 C604 1.511 . S
C607 H621 0.961 . S
C607 H622 0.961 1_556 S
C607 H623 0.961 . S
C608 C609 1.370 . S
C608 C610 1.363 . S
C608 H624 0.931 . S
C609 C608 1.370 . S
C609 C613 1.408 . S
C610 C608 1.363 . S
C610 C611 1.370 . S
C610 C614 1.524 . S
C611 C603 1.503 1_554 S
C611 C610 1.370 . S
C611 C612 1.403 . S
C612 C611 1.403 . S
C612 C613 1.404 . S
C612 C615 1.539 . S
C613 C609 1.408 . S
C613 C612 1.404 . S
C613 H625 0.930 . S
C614 C610 1.524 . S
C614 H626 0.956 . S
C614 H627 0.961 1_554 S
C614 H628 0.961 . S
C615 C612 1.539 . S
C615 H629 0.958 . S
C615 H630 0.961 . S
C615 H631 0.971 . S
H616 C600 0.931 . S
H617 C605 0.929 . S
H618 C606 0.960 1_554 S
H619 C606 0.962 . S
H620 C606 0.960 . S
H621 C607 0.961 . S
H622 C607 0.961 1_554 S
H623 C607 0.961 . S
H624 C608 0.931 . S
H625 C613 0.930 . S
H626 C614 0.956 . S
H627 C614 0.961 1_556 S
H628 C614 0.961 . S
H629 C615 0.958 . S
H630 C615 0.961 . S
H631 C615 0.971 . S
C632 C633 1.391 . S
C632 C634 1.394 . S
C632 H648 0.931 . S
C633 C632 1.391 . S
C633 C637 1.376 . S
C634 C632 1.394 . S
C634 C635 1.369 . S
C634 C638 1.531 . S
C635 C634 1.369 . S
C635 C636 1.410 . S
C635 C643 1.503 . S
C636 C635 1.410 . S
C636 C637 1.392 . S
C636 C639 1.511 . S
C637 C633 1.376 . S
C637 C636 1.392 . S
C637 H649 0.929 . S
C638 C634 1.531 . S
C638 H650 0.960 . S
C638 H651 0.962 . S
C638 H652 0.960 . S
C639 C636 1.511 . S
C639 H653 0.961 . S
C639 H654 0.961 . S
C639 H655 0.961 . S
C640 C641 1.370 . S
C640 C642 1.363 . S
C640 H656 0.931 . S
C641 C640 1.370 . S
C641 C645 1.408 . S
C642 C640 1.363 . S
C642 C643 1.370 . S
C642 C646 1.524 . S
C643 C635 1.503 . S
C643 C642 1.370 . S
C643 C644 1.403 . S
C644 C643 1.403 . S
C644 C645 1.404 . S
C644 C647 1.539 . S
C645 C641 1.408 . S
C645 C644 1.404 . S
C645 H657 0.930 . S
C646 C642 1.524 . S
C646 H658 0.956 . S
C646 H659 0.961 . S
C646 H660 0.961 . S
C647 C644 1.539 . S
C647 H661 0.958 . S
C647 H662 0.961 . S
C647 H663 0.960 . S
H648 C632 0.931 . S
H649 C637 0.929 . S
H650 C638 0.960 . S
H651 C638 0.962 . S
H652 C638 0.960 . S
H653 C639 0.961 . S
H654 C639 0.961 . S
H655 C639 0.961 . S
H656 C640 0.931 . S
H657 C645 0.930 . S
H658 C646 0.956 . S
H659 C646 0.961 . S
H660 C646 0.961 . S
H661 C647 0.958 . S
H662 C647 0.961 . S
H663 C647 0.960 . S
C664 C665 1.391 . S
C664 C666 1.394 . S
C664 H680 0.931 . S
C665 C664 1.391 . S
C665 C669 1.376 . S
C666 C664 1.394 . S
C666 C667 1.369 . S
C666 C670 1.531 . S
C667 C666 1.369 . S
C667 C668 1.410 . S
C667 C675 1.503 1_554 S
C668 C667 1.410 . S
C668 C669 1.392 . S
C668 C671 1.511 . S
C669 C665 1.376 . S
C669 C668 1.392 . S
C669 H681 0.929 . S
C670 C666 1.531 . S
C670 H682 0.960 1_554 S
C670 H683 0.962 . S
C670 H684 0.960 . S
C671 C668 1.511 . S
C671 H685 0.961 . S
C671 H686 0.961 1_554 S
C671 H687 0.961 . S
C672 C673 1.370 . S
C672 C674 1.363 . S
C672 H688 0.931 . S
C673 C672 1.370 . S
C673 C677 1.408 . S
C674 C672 1.363 . S
C674 C675 1.370 . S
C674 C678 1.524 . S
C675 C667 1.503 1_556 S
C675 C674 1.370 . S
C675 C676 1.403 . S
C676 C675 1.403 . S
C676 C677 1.404 . S
C676 C679 1.539 . S
C677 C673 1.408 . S
C677 C676 1.404 . S
C677 H689 0.930 . S
C678 C674 1.524 . S
C678 H690 0.956 . S
C678 H691 0.961 1_556 S
C678 H692 0.961 . S
C679 C676 1.539 . S
C679 H693 0.958 . S
C679 H694 0.961 . S
C679 H695 0.971 . S
H680 C664 0.931 . S
H681 C669 0.929 . S
H682 C670 0.960 1_556 S
H683 C670 0.962 . S
H684 C670 0.960 . S
H685 C671 0.961 . S
H686 C671 0.961 1_556 S
H687 C671 0.961 . S
H688 C672 0.931 . S
H689 C677 0.930 . S
H690 C678 0.956 . S
H691 C678 0.961 1_554 S
H692 C678 0.961 . S
H693 C679 0.958 . S
H694 C679 0.961 . S
H695 C679 0.971 . S
C696 C697 1.391 . S
C696 C698 1.394 . S
C696 H712 0.931 . S
C697 C696 1.391 . S
C697 C701 1.376 . S
C698 C696 1.394 . S
C698 C699 1.369 . S
C698 C702 1.531 . S
C699 C698 1.369 . S
C699 C700 1.410 . S
C699 C707 1.503 . S
C700 C699 1.410 . S
C700 C701 1.392 . S
C700 C703 1.511 . S
C701 C697 1.376 . S
C701 C700 1.392 . S
C701 H713 0.929 . S
C702 C698 1.531 . S
C702 H714 0.960 . S
C702 H715 0.962 . S
C702 H716 0.960 . S
C703 C700 1.511 . S
C703 H717 0.961 . S
C703 H718 0.961 . S
C703 H719 0.961 . S
C704 C705 1.370 . S
C704 C706 1.363 . S
C704 H720 0.931 . S
C705 C704 1.370 . S
C705 C709 1.408 . S
C706 C704 1.363 . S
C706 C707 1.370 . S
C706 C710 1.524 . S
C707 C699 1.503 . S
C707 C706 1.370 . S
C707 C708 1.403 . S
C708 C707 1.403 . S
C708 C709 1.404 . S
C708 C711 1.539 . S
C709 C705 1.408 . S
C709 C708 1.404 . S
C709 H721 0.930 . S
C710 C706 1.524 . S
C710 H722 0.956 . S
C710 H723 0.961 . S
C710 H724 0.961 . S
C711 C708 1.539 . S
C711 H725 0.958 . S
C711 H726 0.961 . S
C711 H727 0.960 . S
H712 C696 0.931 . S
H713 C701 0.929 . S
H714 C702 0.960 . S
H715 C702 0.962 . S
H716 C702 0.960 . S
H717 C703 0.961 . S
H718 C703 0.961 . S
H719 C703 0.961 . S
H720 C704 0.931 . S
H721 C709 0.930 . S
H722 C710 0.956 . S
H723 C710 0.961 . S
H724 C710 0.961 . S
H725 C711 0.958 . S
H726 C711 0.961 . S
H727 C711 0.960 . S
C728 C729 1.391 . S
C728 C730 1.394 . S
C728 H744 0.931 . S
C729 C728 1.391 . S
C729 C733 1.376 . S
C730 C728 1.394 . S
C730 C731 1.369 . S
C730 C734 1.531 . S
C731 C730 1.369 . S
C731 C732 1.410 . S
C731 C739 1.503 1_554 S
C732 C731 1.410 . S
C732 C733 1.392 . S
C732 C735 1.511 . S
C733 C729 1.376 . S
C733 C732 1.392 . S
C733 H745 0.929 . S
C734 C730 1.531 . S
C734 H746 0.960 1_554 S
C734 H747 0.962 . S
C734 H748 0.960 . S
C735 C732 1.511 . S
C735 H749 0.961 . S
C735 H750 0.961 1_554 S
C735 H751 0.961 . S
C736 C737 1.370 . S
C736 C738 1.363 . S
C736 H752 0.931 . S
C737 C736 1.370 . S
C737 C741 1.408 . S
C738 C736 1.363 . S
C738 C739 1.370 . S
C738 C742 1.524 . S
C739 C731 1.503 1_556 S
C739 C738 1.370 . S
C739 C740 1.403 . S
C740 C739 1.403 . S
C740 C741 1.404 . S
C740 C743 1.539 . S
C741 C737 1.408 . S
C741 C740 1.404 . S
C741 H753 0.930 . S
C742 C738 1.524 . S
C742 H754 0.956 . S
C742 H755 0.961 1_556 S
C742 H756 0.961 . S
C743 C740 1.539 . S
C743 H757 0.958 . S
C743 H758 0.961 . S
C743 H759 0.971 . S
H744 C728 0.931 . S
H745 C733 0.929 . S
H746 C734 0.960 1_556 S
H747 C734 0.962 . S
H748 C734 0.960 . S
H749 C735 0.961 . S
H750 C735 0.961 1_556 S
H751 C735 0.961 . S
H752 C736 0.931 . S
H753 C741 0.930 . S
H754 C742 0.956 . S
H755 C742 0.961 1_554 S
H756 C742 0.961 . S
H757 C743 0.958 . S
H758 C743 0.961 . S
H759 C743 0.971 . S
C760 C761 1.391 . S
C760 C762 1.394 . S
C760 H776 0.931 . S
C761 C760 1.391 . S
C761 C765 1.376 . S
C762 C760 1.394 . S
C762 C763 1.369 . S
C762 C766 1.531 . S
C763 C762 1.369 . S
C763 C764 1.410 . S
C763 C771 1.503 . S
C764 C763 1.410 . S
C764 C765 1.392 . S
C764 C767 1.511 . S
C765 C761 1.376 . S
C765 C764 1.392 . S
C765 H777 0.929 . S
C766 C762 1.531 . S
C766 H778 0.960 . S
C766 H779 0.962 . S
C766 H780 0.960 . S
C767 C764 1.511 . S
C767 H781 0.961 . S
C767 H782 0.961 . S
C767 H783 0.961 . S
C768 C769 1.370 . S
C768 C770 1.363 . S
C768 H784 0.931 . S
C769 C768 1.370 . S
C769 C773 1.408 . S
C770 C768 1.363 . S
C770 C771 1.370 . S
C770 C774 1.524 . S
C771 C763 1.503 . S
C771 C770 1.370 . S
C771 C772 1.403 . S
C772 C771 1.403 . S
C772 C773 1.404 . S
C772 C775 1.539 . S
C773 C769 1.408 . S
C773 C772 1.404 . S
C773 H785 0.930 . S
C774 C770 1.524 . S
C774 H786 0.956 . S
C774 H787 0.961 . S
C774 H788 0.961 . S
C775 C772 1.539 . S
C775 H789 0.958 . S
C775 H790 0.961 . S
C775 H791 0.960 . S
H776 C760 0.931 . S
H777 C765 0.929 . S
H778 C766 0.960 . S
H779 C766 0.962 . S
H780 C766 0.960 . S
H781 C767 0.961 . S
H782 C767 0.961 . S
H783 C767 0.961 . S
H784 C768 0.931 . S
H785 C773 0.930 . S
H786 C774 0.956 . S
H787 C774 0.961 . S
H788 C774 0.961 . S
H789 C775 0.958 . S
H790 C775 0.961 . S
H791 C775 0.960 . S
C792 C793 1.391 . S
C792 C794 1.394 . S
C792 H808 0.931 . S
C793 C792 1.391 . S
C793 C797 1.376 . S
C794 C792 1.394 . S
C794 C795 1.369 . S
C794 C798 1.531 . S
C795 C794 1.369 . S
C795 C796 1.410 . S
C795 C803 1.503 1_554 S
C796 C795 1.410 . S
C796 C797 1.392 . S
C796 C799 1.511 . S
C797 C793 1.376 . S
C797 C796 1.392 . S
C797 H809 0.929 . S
C798 C794 1.531 . S
C798 H810 0.960 1_554 S
C798 H811 0.962 . S
C798 H812 0.960 . S
C799 C796 1.511 . S
C799 H813 0.961 . S
C799 H814 0.961 1_554 S
C799 H815 0.961 . S
C800 C801 1.370 . S
C800 C802 1.363 . S
C800 H816 0.931 . S
C801 C800 1.370 . S
C801 C805 1.408 . S
C802 C800 1.363 . S
C802 C803 1.370 . S
C802 C806 1.524 . S
C803 C795 1.503 1_556 S
C803 C802 1.370 . S
C803 C804 1.403 . S
C804 C803 1.403 . S
C804 C805 1.404 . S
C804 C807 1.539 . S
C805 C801 1.408 . S
C805 C804 1.404 . S
C805 H817 0.930 . S
C806 C802 1.524 . S
C806 H818 0.956 . S
C806 H819 0.961 1_556 S
C806 H820 0.961 . S
C807 C804 1.539 . S
C807 H821 0.958 . S
C807 H822 0.961 . S
C807 H823 0.971 . S
H808 C792 0.931 . S
H809 C797 0.929 . S
H810 C798 0.960 1_556 S
H811 C798 0.962 . S
H812 C798 0.960 . S
H813 C799 0.961 . S
H814 C799 0.961 1_556 S
H815 C799 0.961 . S
H816 C800 0.931 . S
H817 C805 0.930 . S
H818 C806 0.956 . S
H819 C806 0.961 1_554 S
H820 C806 0.961 . S
H821 C807 0.958 . S
H822 C807 0.961 . S
H823 C807 0.971 . S
C824 C825 1.391 . S
C824 C826 1.394 . S
C824 H840 0.931 . S
C825 C824 1.391 . S
C825 C829 1.376 . S
C826 C824 1.394 . S
C826 C827 1.369 . S
C826 C830 1.531 . S
C827 C826 1.369 . S
C827 C828 1.410 . S
C827 C835 1.503 . S
C828 C827 1.410 . S
C828 C829 1.392 . S
C828 C831 1.511 . S
C829 C825 1.376 . S
C829 C828 1.392 . S
C829 H841 0.929 . S
C830 C826 1.531 . S
C830 H842 0.960 . S
C830 H843 0.962 . S
C830 H844 0.960 . S
C831 C828 1.511 . S
C831 H845 0.961 . S
C831 H846 0.961 . S
C831 H847 0.961 . S
C832 C833 1.370 . S
C832 C834 1.363 . S
C832 H848 0.931 . S
C833 C832 1.370 . S
C833 C837 1.408 . S
C834 C832 1.363 . S
C834 C835 1.370 . S
C834 C838 1.524 . S
C835 C827 1.503 . S
C835 C834 1.370 . S
C835 C836 1.403 . S
C836 C835 1.403 . S
C836 C837 1.404 . S
C836 C839 1.539 . S
C837 C833 1.408 . S
C837 C836 1.404 . S
C837 H849 0.930 . S
C838 C834 1.524 . S
C838 H850 0.956 . S
C838 H851 0.961 . S
C838 H852 0.961 . S
C839 C836 1.539 . S
C839 H853 0.958 . S
C839 H854 0.961 . S
C839 H855 0.960 . S
H840 C824 0.931 . S
H841 C829 0.929 . S
H842 C830 0.960 . S
H843 C830 0.962 . S
H844 C830 0.960 . S
H845 C831 0.961 . S
H846 C831 0.961 . S
H847 C831 0.961 . S
H848 C832 0.931 . S
H849 C837 0.930 . S
H850 C838 0.956 . S
H851 C838 0.961 . S
H852 C838 0.961 . S
H853 C839 0.958 . S
H854 C839 0.961 . S
H855 C839 0.960 . S
C856 C857 1.391 . S
C856 C858 1.394 . S
C856 H872 0.931 . S
C857 C856 1.391 . S
C857 C861 1.376 . S
C858 C856 1.394 . S
C858 C859 1.369 . S
C858 C862 1.531 . S
C859 C858 1.369 . S
C859 C860 1.410 . S
C859 C867 1.503 . S
C860 C859 1.410 . S
C860 C861 1.392 . S
C860 C863 1.511 . S
C861 C857 1.376 . S
C861 C860 1.392 . S
C861 H873 0.929 . S
C862 C858 1.531 . S
C862 H874 0.960 . S
C862 H875 0.962 . S
C862 H876 0.960 . S
C863 C860 1.511 . S
C863 H877 0.961 . S
C863 H878 0.961 . S
C863 H879 0.961 . S
C864 C865 1.370 . S
C864 C866 1.363 . S
C864 H880 0.931 . S
C865 C864 1.370 . S
C865 C869 1.408 . S
C866 C864 1.363 . S
C866 C867 1.370 . S
C866 C870 1.524 . S
C867 C859 1.503 . S
C867 C866 1.370 . S
C867 C868 1.403 . S
C868 C867 1.403 . S
C868 C869 1.404 . S
C868 C871 1.539 . S
C869 C865 1.408 . S
C869 C868 1.404 . S
C869 H881 0.930 . S
C870 C866 1.524 . S
C870 H882 0.956 . S
C870 H883 0.961 . S
C870 H884 0.961 . S
C871 C868 1.539 . S
C871 H885 0.958 . S
C871 H886 0.961 . S
C871 H887 0.960 . S
H872 C856 0.931 . S
H873 C861 0.929 . S
H874 C862 0.960 . S
H875 C862 0.962 . S
H876 C862 0.960 . S
H877 C863 0.961 . S
H878 C863 0.961 . S
H879 C863 0.961 . S
H880 C864 0.931 . S
H881 C869 0.930 . S
H882 C870 0.956 . S
H883 C870 0.961 . S
H884 C870 0.961 . S
H885 C871 0.958 . S
H886 C871 0.961 . S
H887 C871 0.960 . S
C888 C889 1.391 . S
C888 C890 1.394 . S
C888 H904 0.931 . S
C889 C888 1.391 . S
C889 C893 1.376 . S
C890 C888 1.394 . S
C890 C891 1.369 . S
C890 C894 1.531 . S
C891 C890 1.369 . S
C891 C892 1.410 . S
C891 C899 1.503 1_565 S
C892 C891 1.410 . S
C892 C893 1.392 . S
C892 C895 1.511 . S
C893 C889 1.376 . S
C893 C892 1.392 . S
C893 H905 0.929 . S
C894 C890 1.531 . S
C894 H906 0.960 1_565 S
C894 H907 0.962 . S
C894 H908 0.960 . S
C895 C892 1.511 . S
C895 H909 0.961 . S
C895 H910 0.961 1_565 S
C895 H911 0.961 . S
C896 C897 1.370 . S
C896 C898 1.363 . S
C896 H912 0.931 . S
C897 C896 1.370 . S
C897 C901 1.408 . S
C898 C896 1.363 . S
C898 C899 1.370 . S
C898 C902 1.524 . S
C899 C891 1.503 1_545 S
C899 C898 1.370 . S
C899 C900 1.403 . S
C900 C899 1.403 . S
C900 C901 1.404 . S
C900 C903 1.539 . S
C901 C897 1.408 . S
C901 C900 1.404 . S
C901 H913 0.930 . S
C902 C898 1.524 . S
C902 H914 0.956 . S
C902 H915 0.961 1_545 S
C902 H916 0.961 . S
C903 C900 1.539 . S
C903 H917 0.958 . S
C903 H918 0.961 . S
C903 H919 0.971 . S
H904 C888 0.931 . S
H905 C893 0.929 . S
H906 C894 0.960 1_545 S
H907 C894 0.962 . S
H908 C894 0.960 . S
H909 C895 0.961 . S
H910 C895 0.961 1_545 S
H911 C895 0.961 . S
H912 C896 0.931 . S
H913 C901 0.930 . S
H914 C902 0.956 . S
H915 C902 0.961 1_565 S
H916 C902 0.961 . S
H917 C903 0.958 . S
H918 C903 0.961 . S
H919 C903 0.971 . S
C920 C921 1.391 . S
C920 C922 1.394 . S
C920 H936 0.931 . S
C921 C920 1.391 . S
C921 C925 1.376 . S
C922 C920 1.394 . S
C922 C923 1.369 . S
C922 C926 1.531 . S
C923 C922 1.369 . S
C923 C924 1.410 . S
C923 C931 1.503 . S
C924 C923 1.410 . S
C924 C925 1.392 . S
C924 C927 1.511 . S
C925 C921 1.376 . S
C925 C924 1.392 . S
C925 H937 0.929 . S
C926 C922 1.531 . S
C926 H938 0.960 . S
C926 H939 0.962 . S
C926 H940 0.960 . S
C927 C924 1.511 . S
C927 H941 0.961 . S
C927 H942 0.961 . S
C927 H943 0.961 . S
C928 C929 1.370 . S
C928 C930 1.363 . S
C928 H944 0.931 . S
C929 C928 1.370 . S
C929 C933 1.408 . S
C930 C928 1.363 . S
C930 C931 1.370 . S
C930 C934 1.524 . S
C931 C923 1.503 . S
C931 C930 1.370 . S
C931 C932 1.403 . S
C932 C931 1.403 . S
C932 C933 1.404 . S
C932 C935 1.539 . S
C933 C929 1.408 . S
C933 C932 1.404 . S
C933 H945 0.930 . S
C934 C930 1.524 . S
C934 H946 0.956 . S
C934 H947 0.961 . S
C934 H948 0.961 . S
C935 C932 1.539 . S
C935 H949 0.958 . S
C935 H950 0.961 . S
C935 H951 0.960 . S
H936 C920 0.931 . S
H937 C925 0.929 . S
H938 C926 0.960 . S
H939 C926 0.962 . S
H940 C926 0.960 . S
H941 C927 0.961 . S
H942 C927 0.961 . S
H943 C927 0.961 . S
H944 C928 0.931 . S
H945 C933 0.930 . S
H946 C934 0.956 . S
H947 C934 0.961 . S
H948 C934 0.961 . S
H949 C935 0.958 . S
H950 C935 0.961 . S
H951 C935 0.960 . S
C952 C953 1.391 . S
C952 C954 1.394 . S
C952 H968 0.931 . S
C953 C952 1.391 . S
C953 C957 1.376 . S
C954 C952 1.394 . S
C954 C955 1.369 . S
C954 C958 1.531 . S
C955 C954 1.369 . S
C955 C956 1.410 . S
C955 C963 1.503 1_565 S
C956 C955 1.410 . S
C956 C957 1.392 . S
C956 C959 1.511 . S
C957 C953 1.376 . S
C957 C956 1.392 . S
C957 H969 0.929 . S
C958 C954 1.531 . S
C958 H970 0.960 1_565 S
C958 H971 0.962 . S
C958 H972 0.960 . S
C959 C956 1.511 . S
C959 H973 0.961 . S
C959 H974 0.961 1_565 S
C959 H975 0.961 . S
C960 C961 1.370 . S
C960 C962 1.363 . S
C960 H976 0.931 . S
C961 C960 1.370 . S
C961 C965 1.408 . S
C962 C960 1.363 . S
C962 C963 1.370 . S
C962 C966 1.524 . S
C963 C955 1.503 1_545 S
C963 C962 1.370 . S
C963 C964 1.403 . S
C964 C963 1.403 . S
C964 C965 1.404 . S
C964 C967 1.539 . S
C965 C961 1.408 . S
C965 C964 1.404 . S
C965 H977 0.930 . S
C966 C962 1.524 . S
C966 H978 0.956 . S
C966 H979 0.961 1_545 S
C966 H980 0.961 . S
C967 C964 1.539 . S
C967 H981 0.958 . S
C967 H982 0.961 . S
C967 H983 0.971 . S
H968 C952 0.931 . S
H969 C957 0.929 . S
H970 C958 0.960 1_545 S
H971 C958 0.962 . S
H972 C958 0.960 . S
H973 C959 0.961 . S
H974 C959 0.961 1_545 S
H975 C959 0.961 . S
H976 C960 0.931 . S
H977 C965 0.930 . S
H978 C966 0.956 . S
H979 C966 0.961 1_565 S
H980 C966 0.961 . S
H981 C967 0.958 . S
H982 C967 0.961 . S
H983 C967 0.971 . S
C984 C985 1.391 . S
C984 C986 1.394 . S
C984 H1000 0.931 . S
C985 C984 1.391 . S
C985 C989 1.376 . S
C986 C984 1.394 . S
C986 C987 1.369 . S
C986 C990 1.531 . S
C987 C986 1.369 . S
C987 C988 1.410 . S
C987 C995 1.503 . S
C988 C987 1.410 . S
C988 C989 1.392 . S
C988 C991 1.511 . S
C989 C985 1.376 . S
C989 C988 1.392 . S
C989 H1001 0.929 . S
C990 C986 1.531 . S
C990 H1002 0.960 . S
C990 H1003 0.962 . S
C990 H1004 0.960 . S
C991 C988 1.511 . S
C991 H1005 0.961 . S
C991 H1006 0.961 . S
C991 H1007 0.961 . S
C992 C993 1.370 . S
C992 C994 1.363 . S
C992 H1008 0.931 . S
C993 C992 1.370 . S
C993 C997 1.408 . S
C994 C992 1.363 . S
C994 C995 1.370 . S
C994 C998 1.524 . S
C995 C987 1.503 . S
C995 C994 1.370 . S
C995 C996 1.403 . S
C996 C995 1.403 . S
C996 C997 1.404 . S
C996 C999 1.539 . S
C997 C993 1.408 . S
C997 C996 1.404 . S
C997 H1009 0.930 . S
C998 C994 1.524 . S
C998 H1010 0.956 . S
C998 H1011 0.961 . S
C998 H1012 0.961 . S
C999 C996 1.539 . S
C999 H1013 0.958 . S
C999 H1014 0.961 . S
C999 H1015 0.960 . S
H1000 C984 0.931 . S
H1001 C989 0.929 . S
H1002 C990 0.960 . S
H1003 C990 0.962 . S
H1004 C990 0.960 . S
H1005 C991 0.961 . S
H1006 C991 0.961 . S
H1007 C991 0.961 . S
H1008 C992 0.931 . S
H1009 C997 0.930 . S
H1010 C998 0.956 . S
H1011 C998 0.961 . S
H1012 C998 0.961 . S
H1013 C999 0.958 . S
H1014 C999 0.961 . S
H1015 C999 0.960 . S
C1016 C1017 1.391 . S
C1016 C1018 1.394 . S
C1016 H1032 0.931 . S
C1017 C1016 1.391 . S
C1017 C1021 1.376 . S
C1018 C1016 1.394 . S
C1018 C1019 1.369 . S
C1018 C1022 1.531 . S
C1019 C1018 1.369 . S
C1019 C1020 1.410 . S
C1019 C1027 1.503 1_565 S
C1020 C1019 1.410 . S
C1020 C1021 1.392 . S
C1020 C1023 1.511 . S
C1021 C1017 1.376 . S
C1021 C1020 1.392 . S
C1021 H1033 0.929 . S
C1022 C1018 1.531 . S
C1022 H1034 0.960 1_565 S
C1022 H1035 0.962 . S
C1022 H1036 0.960 . S
C1023 C1020 1.511 . S
C1023 H1037 0.961 . S
C1023 H1038 0.961 1_565 S
C1023 H1039 0.961 . S
C1024 C1025 1.370 . S
C1024 C1026 1.363 . S
C1024 H1040 0.931 . S
C1025 C1024 1.370 . S
C1025 C1029 1.408 . S
C1026 C1024 1.363 . S
C1026 C1027 1.370 . S
C1026 C1030 1.524 . S
C1027 C1019 1.503 1_545 S
C1027 C1026 1.370 . S
C1027 C1028 1.403 . S
C1028 C1027 1.403 . S
C1028 C1029 1.404 . S
C1028 C1031 1.539 . S
C1029 C1025 1.408 . S
C1029 C1028 1.404 . S
C1029 H1041 0.930 . S
C1030 C1026 1.524 . S
C1030 H1042 0.956 . S
C1030 H1043 0.961 1_545 S
C1030 H1044 0.961 . S
C1031 C1028 1.539 . S
C1031 H1045 0.958 . S
C1031 H1046 0.961 . S
C1031 H1047 0.971 . S
H1032 C1016 0.931 . S
H1033 C1021 0.929 . S
H1034 C1022 0.960 1_545 S
H1035 C1022 0.962 . S
H1036 C1022 0.960 . S
H1037 C1023 0.961 . S
H1038 C1023 0.961 1_545 S
H1039 C1023 0.961 . S
H1040 C1024 0.931 . S
H1041 C1029 0.930 . S
H1042 C1030 0.956 . S
H1043 C1030 0.961 1_565 S
H1044 C1030 0.961 . S
H1045 C1031 0.958 . S
H1046 C1031 0.961 . S
H1047 C1031 0.971 . S
C1048 C1049 1.391 . S
C1048 C1050 1.394 . S
C1048 H1064 0.931 . S
C1049 C1048 1.391 . S
C1049 C1053 1.376 . S
C1050 C1048 1.394 . S
C1050 C1051 1.369 . S
C1050 C1054 1.531 . S
C1051 C1050 1.369 . S
C1051 C1052 1.410 . S
C1051 C1059 1.503 1_545 S
C1052 C1051 1.410 . S
C1052 C1053 1.392 . S
C1052 C1055 1.511 . S
C1053 C1049 1.376 . S
C1053 C1052 1.392 . S
C1053 H1065 0.929 . S
C1054 C1050 1.531 . S
C1054 H1066 0.960 1_545 S
C1054 H1067 0.962 . S
C1054 H1068 0.960 . S
C1055 C1052 1.511 . S
C1055 H1069 0.961 . S
C1055 H1070 0.961 1_545 S
C1055 H1071 0.961 . S
C1056 C1057 1.370 . S
C1056 C1058 1.363 . S
C1056 H1072 0.931 . S
C1057 C1056 1.370 . S
C1057 C1061 1.408 . S
C1058 C1056 1.363 . S
C1058 C1059 1.370 . S
C1058 C1062 1.524 . S
C1059 C1051 1.503 1_565 S
C1059 C1058 1.370 . S
C1059 C1060 1.403 . S
C1060 C1059 1.403 . S
C1060 C1061 1.404 . S
C1060 C1063 1.539 . S
C1061 C1057 1.408 . S
C1061 C1060 1.404 . S
C1061 H1073 0.930 . S
C1062 C1058 1.524 . S
C1062 H1074 0.956 . S
C1062 H1075 0.961 1_565 S
C1062 H1076 0.961 . S
C1063 C1060 1.539 . S
C1063 H1077 0.958 . S
C1063 H1078 0.961 . S
C1063 H1079 0.971 . S
H1064 C1048 0.931 . S
H1065 C1053 0.929 . S
H1066 C1054 0.960 1_565 S
H1067 C1054 0.962 . S
H1068 C1054 0.960 . S
H1069 C1055 0.961 . S
H1070 C1055 0.961 1_565 S
H1071 C1055 0.961 . S
H1072 C1056 0.931 . S
H1073 C1061 0.930 . S
H1074 C1062 0.956 . S
H1075 C1062 0.961 1_545 S
H1076 C1062 0.961 . S
H1077 C1063 0.958 . S
H1078 C1063 0.961 . S
H1079 C1063 0.971 . S
C1080 C1081 1.391 . S
C1080 C1082 1.394 . S
C1080 H1096 0.931 . S
C1081 C1080 1.391 . S
C1081 C1085 1.376 . S
C1082 C1080 1.394 . S
C1082 C1083 1.369 . S
C1082 C1086 1.531 . S
C1083 C1082 1.369 . S
C1083 C1084 1.410 . S
C1083 C1091 1.503 . S
C1084 C1083 1.410 . S
C1084 C1085 1.392 . S
C1084 C1087 1.511 . S
C1085 C1081 1.376 . S
C1085 C1084 1.392 . S
C1085 H1097 0.929 . S
C1086 C1082 1.531 . S
C1086 H1098 0.960 . S
C1086 H1099 0.962 . S
C1086 H1100 0.960 . S
C1087 C1084 1.511 . S
C1087 H1101 0.961 . S
C1087 H1102 0.961 . S
C1087 H1103 0.961 . S
C1088 C1089 1.370 . S
C1088 C1090 1.363 . S
C1088 H1104 0.931 . S
C1089 C1088 1.370 . S
C1089 C1093 1.408 . S
C1090 C1088 1.363 . S
C1090 C1091 1.370 . S
C1090 C1094 1.524 . S
C1091 C1083 1.503 . S
C1091 C1090 1.370 . S
C1091 C1092 1.403 . S
C1092 C1091 1.403 . S
C1092 C1093 1.404 . S
C1092 C1095 1.539 . S
C1093 C1089 1.408 . S
C1093 C1092 1.404 . S
C1093 H1105 0.930 . S
C1094 C1090 1.524 . S
C1094 H1106 0.956 . S
C1094 H1107 0.961 . S
C1094 H1108 0.961 . S
C1095 C1092 1.539 . S
C1095 H1109 0.958 . S
C1095 H1110 0.961 . S
C1095 H1111 0.960 . S
H1096 C1080 0.931 . S
H1097 C1085 0.929 . S
H1098 C1086 0.960 . S
H1099 C1086 0.962 . S
H1100 C1086 0.960 . S
H1101 C1087 0.961 . S
H1102 C1087 0.961 . S
H1103 C1087 0.961 . S
H1104 C1088 0.931 . S
H1105 C1093 0.930 . S
H1106 C1094 0.956 . S
H1107 C1094 0.961 . S
H1108 C1094 0.961 . S
H1109 C1095 0.958 . S
H1110 C1095 0.961 . S
H1111 C1095 0.960 . S
C1112 C1113 1.391 . S
C1112 C1114 1.394 . S
C1112 H1128 0.931 . S
C1113 C1112 1.391 . S
C1113 C1117 1.376 . S
C1114 C1112 1.394 . S
C1114 C1115 1.369 . S
C1114 C1118 1.531 . S
C1115 C1114 1.369 . S
C1115 C1116 1.410 . S
C1115 C1123 1.503 . S
C1116 C1115 1.410 . S
C1116 C1117 1.392 . S
C1116 C1119 1.511 . S
C1117 C1113 1.376 . S
C1117 C1116 1.392 . S
C1117 H1129 0.929 . S
C1118 C1114 1.531 . S
C1118 H1130 0.960 . S
C1118 H1131 0.962 . S
C1118 H1132 0.960 . S
C1119 C1116 1.511 . S
C1119 H1133 0.961 . S
C1119 H1134 0.961 . S
C1119 H1135 0.961 . S
C1120 C1121 1.370 . S
C1120 C1122 1.363 . S
C1120 H1136 0.931 . S
C1121 C1120 1.370 . S
C1121 C1125 1.408 . S
C1122 C1120 1.363 . S
C1122 C1123 1.370 . S
C1122 C1126 1.524 . S
C1123 C1115 1.503 . S
C1123 C1122 1.370 . S
C1123 C1124 1.403 . S
C1124 C1123 1.403 . S
C1124 C1125 1.404 . S
C1124 C1127 1.539 . S
C1125 C1121 1.408 . S
C1125 C1124 1.404 . S
C1125 H1137 0.930 . S
C1126 C1122 1.524 . S
C1126 H1138 0.956 . S
C1126 H1139 0.961 . S
C1126 H1140 0.961 . S
C1127 C1124 1.539 . S
C1127 H1141 0.958 . S
C1127 H1142 0.961 . S
C1127 H1143 0.960 . S
H1128 C1112 0.931 . S
H1129 C1117 0.929 . S
H1130 C1118 0.960 . S
H1131 C1118 0.962 . S
H1132 C1118 0.960 . S
H1133 C1119 0.961 . S
H1134 C1119 0.961 . S
H1135 C1119 0.961 . S
H1136 C1120 0.931 . S
H1137 C1125 0.930 . S
H1138 C1126 0.956 . S
H1139 C1126 0.961 . S
H1140 C1126 0.961 . S
H1141 C1127 0.958 . S
H1142 C1127 0.961 . S
H1143 C1127 0.960 . S
C1144 C1145 1.391 . S
C1144 C1146 1.394 . S
C1144 H1160 0.931 . S
C1145 C1144 1.391 . S
C1145 C1149 1.376 . S
C1146 C1144 1.394 . S
C1146 C1147 1.369 . S
C1146 C1150 1.531 . S
C1147 C1146 1.369 . S
C1147 C1148 1.410 . S
C1147 C1155 1.503 . S
C1148 C1147 1.410 . S
C1148 C1149 1.392 . S
C1148 C1151 1.511 . S
C1149 C1145 1.376 . S
C1149 C1148 1.392 . S
C1149 H1161 0.929 . S
C1150 C1146 1.531 . S
C1150 H1162 0.960 . S
C1150 H1163 0.962 . S
C1150 H1164 0.960 . S
C1151 C1148 1.511 . S
C1151 H1165 0.961 . S
C1151 H1166 0.961 . S
C1151 H1167 0.961 . S
C1152 C1153 1.370 . S
C1152 C1154 1.363 . S
C1152 H1168 0.931 . S
C1153 C1152 1.370 . S
C1153 C1157 1.408 . S
C1154 C1152 1.363 . S
C1154 C1155 1.370 . S
C1154 C1158 1.524 . S
C1155 C1147 1.503 . S
C1155 C1154 1.370 . S
C1155 C1156 1.403 . S
C1156 C1155 1.403 . S
C1156 C1157 1.404 . S
C1156 C1159 1.539 . S
C1157 C1153 1.408 . S
C1157 C1156 1.404 . S
C1157 H1169 0.930 . S
C1158 C1154 1.524 . S
C1158 H1170 0.956 . S
C1158 H1171 0.961 . S
C1158 H1172 0.961 . S
C1159 C1156 1.539 . S
C1159 H1173 0.958 . S
C1159 H1174 0.961 . S
C1159 H1175 0.960 . S
H1160 C1144 0.931 . S
H1161 C1149 0.929 . S
H1162 C1150 0.960 . S
H1163 C1150 0.962 . S
H1164 C1150 0.960 . S
H1165 C1151 0.961 . S
H1166 C1151 0.961 . S
H1167 C1151 0.961 . S
H1168 C1152 0.931 . S
H1169 C1157 0.930 . S
H1170 C1158 0.956 . S
H1171 C1158 0.961 . S
H1172 C1158 0.961 . S
H1173 C1159 0.958 . S
H1174 C1159 0.961 . S
H1175 C1159 0.960 . S
C1176 C1177 1.391 . S
C1176 C1178 1.394 . S
C1176 H1192 0.931 . S
C1177 C1176 1.391 . S
C1177 C1181 1.376 . S
C1178 C1176 1.394 . S
C1178 C1179 1.369 . S
C1178 C1182 1.531 . S
C1179 C1178 1.369 . S
C1179 C1180 1.410 . S
C1179 C1187 1.503 . S
C1180 C1179 1.410 . S
C1180 C1181 1.392 . S
C1180 C1183 1.511 . S
C1181 C1177 1.376 . S
C1181 C1180 1.392 . S
C1181 H1193 0.929 . S
C1182 C1178 1.531 . S
C1182 H1194 0.960 . S
C1182 H1195 0.962 . S
C1182 H1196 0.960 . S
C1183 C1180 1.511 . S
C1183 H1197 0.961 . S
C1183 H1198 0.961 . S
C1183 H1199 0.961 . S
C1184 C1185 1.370 . S
C1184 C1186 1.363 . S
C1184 H1200 0.931 . S
C1185 C1184 1.370 . S
C1185 C1189 1.408 . S
C1186 C1184 1.363 . S
C1186 C1187 1.370 . S
C1186 C1190 1.524 . S
C1187 C1179 1.503 . S
C1187 C1186 1.370 . S
C1187 C1188 1.403 . S
C1188 C1187 1.403 . S
C1188 C1189 1.404 . S
C1188 C1191 1.539 . S
C1189 C1185 1.408 . S
C1189 C1188 1.404 . S
C1189 H1201 0.930 . S
C1190 C1186 1.524 . S
C1190 H1202 0.956 . S
C1190 H1203 0.961 . S
C1190 H1204 0.961 . S
C1191 C1188 1.539 . S
C1191 H1205 0.958 . S
C1191 H1206 0.961 . S
C1191 H1207 0.960 . S
H1192 C1176 0.931 . S
H1193 C1181 0.929 . S
H1194 C1182 0.960 . S
H1195 C1182 0.962 . S
H1196 C1182 0.960 . S
H1197 C1183 0.961 . S
H1198 C1183 0.961 . S
H1199 C1183 0.961 . S
H1200 C1184 0.931 . S
H1201 C1189 0.930 . S
H1202 C1190 0.956 . S
H1203 C1190 0.961 . S
H1204 C1190 0.961 . S
H1205 C1191 0.958 . S
H1206 C1191 0.961 . S
H1207 C1191 0.960 . S
C1208 C1209 1.391 . S
C1208 C1210 1.394 . S
C1208 H1224 0.931 . S
C1209 C1208 1.391 . S
C1209 C1213 1.376 . S
C1210 C1208 1.394 . S
C1210 C1211 1.369 . S
C1210 C1214 1.531 . S
C1211 C1210 1.369 . S
C1211 C1212 1.410 . S
C1211 C1219 1.503 . S
C1212 C1211 1.410 . S
C1212 C1213 1.392 . S
C1212 C1215 1.511 . S
C1213 C1209 1.376 . S
C1213 C1212 1.392 . S
C1213 H1225 0.929 . S
C1214 C1210 1.531 . S
C1214 H1226 0.960 . S
C1214 H1227 0.962 . S
C1214 H1228 0.960 . S
C1215 C1212 1.511 . S
C1215 H1229 0.961 . S
C1215 H1230 0.961 . S
C1215 H1231 0.961 . S
C1216 C1217 1.370 . S
C1216 C1218 1.363 . S
C1216 H1232 0.931 . S
C1217 C1216 1.370 . S
C1217 C1221 1.408 . S
C1218 C1216 1.363 . S
C1218 C1219 1.370 . S
C1218 C1222 1.524 . S
C1219 C1211 1.503 . S
C1219 C1218 1.370 . S
C1219 C1220 1.403 . S
C1220 C1219 1.403 . S
C1220 C1221 1.404 . S
C1220 C1223 1.539 . S
C1221 C1217 1.408 . S
C1221 C1220 1.404 . S
C1221 H1233 0.930 . S
C1222 C1218 1.524 . S
C1222 H1234 0.956 . S
C1222 H1235 0.961 . S
C1222 H1236 0.961 . S
C1223 C1220 1.539 . S
C1223 H1237 0.958 . S
C1223 H1238 0.961 . S
C1223 H1239 0.960 . S
H1224 C1208 0.931 . S
H1225 C1213 0.929 . S
H1226 C1214 0.960 . S
H1227 C1214 0.962 . S
H1228 C1214 0.960 . S
H1229 C1215 0.961 . S
H1230 C1215 0.961 . S
H1231 C1215 0.961 . S
H1232 C1216 0.931 . S
H1233 C1221 0.930 . S
H1234 C1222 0.956 . S
H1235 C1222 0.961 . S
H1236 C1222 0.961 . S
H1237 C1223 0.958 . S
H1238 C1223 0.961 . S
H1239 C1223 0.960 . S
C1240 C1241 1.391 . S
C1240 C1242 1.394 . S
C1240 H1256 0.931 . S
C1241 C1240 1.391 . S
C1241 C1245 1.376 . S
C1242 C1240 1.394 . S
C1242 C1243 1.369 . S
C1242 C1246 1.531 . S
C1243 C1242 1.369 . S
C1243 C1244 1.410 . S
C1243 C1251 1.503 . S
C1244 C1243 1.410 . S
C1244 C1245 1.392 . S
C1244 C1247 1.511 . S
C1245 C1241 1.376 . S
C1245 C1244 1.392 . S
C1245 H1257 0.929 . S
C1246 C1242 1.531 . S
C1246 H1258 0.960 . S
C1246 H1259 0.962 . S
C1246 H1260 0.960 . S
C1247 C1244 1.511 . S
C1247 H1261 0.961 . S
C1247 H1262 0.961 . S
C1247 H1263 0.961 . S
C1248 C1249 1.370 . S
C1248 C1250 1.363 . S
C1248 H1264 0.931 . S
C1249 C1248 1.370 . S
C1249 C1253 1.408 . S
C1250 C1248 1.363 . S
C1250 C1251 1.370 . S
C1250 C1254 1.524 . S
C1251 C1243 1.503 . S
C1251 C1250 1.370 . S
C1251 C1252 1.403 . S
C1252 C1251 1.403 . S
C1252 C1253 1.404 . S
C1252 C1255 1.539 . S
C1253 C1249 1.408 . S
C1253 C1252 1.404 . S
C1253 H1265 0.930 . S
C1254 C1250 1.524 . S
C1254 H1266 0.956 . S
C1254 H1267 0.961 . S
C1254 H1268 0.961 . S
C1255 C1252 1.539 . S
C1255 H1269 0.958 . S
C1255 H1270 0.961 . S
C1255 H1271 0.960 . S
H1256 C1240 0.931 . S
H1257 C1245 0.929 . S
H1258 C1246 0.960 . S
H1259 C1246 0.962 . S
H1260 C1246 0.960 . S
H1261 C1247 0.961 . S
H1262 C1247 0.961 . S
H1263 C1247 0.961 . S
H1264 C1248 0.931 . S
H1265 C1253 0.930 . S
H1266 C1254 0.956 . S
H1267 C1254 0.961 . S
H1268 C1254 0.961 . S
H1269 C1255 0.958 . S
H1270 C1255 0.961 . S
H1271 C1255 0.960 . S
C1272 C1273 1.391 . S
C1272 C1274 1.394 . S
C1272 H1288 0.931 . S
C1273 C1272 1.391 . S
C1273 C1277 1.376 . S
C1274 C1272 1.394 . S
C1274 C1275 1.369 . S
C1274 C1278 1.531 . S
C1275 C1274 1.369 . S
C1275 C1276 1.410 . S
C1275 C1283 1.503 . S
C1276 C1275 1.410 . S
C1276 C1277 1.392 . S
C1276 C1279 1.511 . S
C1277 C1273 1.376 . S
C1277 C1276 1.392 . S
C1277 H1289 0.929 . S
C1278 C1274 1.531 . S
C1278 H1290 0.960 . S
C1278 H1291 0.962 . S
C1278 H1292 0.960 . S
C1279 C1276 1.511 . S
C1279 H1293 0.961 . S
C1279 H1294 0.961 . S
C1279 H1295 0.961 . S
C1280 C1281 1.370 . S
C1280 C1282 1.363 . S
C1280 H1296 0.931 . S
C1281 C1280 1.370 . S
C1281 C1285 1.408 . S
C1282 C1280 1.363 . S
C1282 C1283 1.370 . S
C1282 C1286 1.524 . S
C1283 C1275 1.503 . S
C1283 C1282 1.370 . S
C1283 C1284 1.403 . S
C1284 C1283 1.403 . S
C1284 C1285 1.404 . S
C1284 C1287 1.539 . S
C1285 C1281 1.408 . S
C1285 C1284 1.404 . S
C1285 H1297 0.930 . S
C1286 C1282 1.524 . S
C1286 H1298 0.956 . S
C1286 H1299 0.961 . S
C1286 H1300 0.961 . S
C1287 C1284 1.539 . S
C1287 H1301 0.958 . S
C1287 H1302 0.961 . S
C1287 H1303 0.960 . S
H1288 C1272 0.931 . S
H1289 C1277 0.929 . S
H1290 C1278 0.960 . S
H1291 C1278 0.962 . S
H1292 C1278 0.960 . S
H1293 C1279 0.961 . S
H1294 C1279 0.961 . S
H1295 C1279 0.961 . S
H1296 C1280 0.931 . S
H1297 C1285 0.930 . S
H1298 C1286 0.956 . S
H1299 C1286 0.961 . S
H1300 C1286 0.961 . S
H1301 C1287 0.958 . S
H1302 C1287 0.961 . S
H1303 C1287 0.960 . S
C1304 C1305 1.391 . S
C1304 C1306 1.394 . S
C1304 H1320 0.931 . S
C1305 C1304 1.391 . S
C1305 C1309 1.376 . S
C1306 C1304 1.394 . S
C1306 C1307 1.369 . S
C1306 C1310 1.531 . S
C1307 C1306 1.369 . S
C1307 C1308 1.410 . S
C1307 C1315 1.503 . S
C1308 C1307 1.410 . S
C1308 C1309 1.392 . S
C1308 C1311 1.511 . S
C1309 C1305 1.376 . S
C1309 C1308 1.392 . S
C1309 H1321 0.929 . S
C1310 C1306 1.531 . S
C1310 H1322 0.960 . S
C1310 H1323 0.962 . S
C1310 H1324 0.960 . S
C1311 C1308 1.511 . S
C1311 H1325 0.961 . S
C1311 H1326 0.961 . S
C1311 H1327 0.961 . S
C1312 C1313 1.370 . S
C1312 C1314 1.363 . S
C1312 H1328 0.931 . S
C1313 C1312 1.370 . S
C1313 C1317 1.408 . S
C1314 C1312 1.363 . S
C1314 C1315 1.370 . S
C1314 C1318 1.524 . S
C1315 C1307 1.503 . S
C1315 C1314 1.370 . S
C1315 C1316 1.403 . S
C1316 C1315 1.403 . S
C1316 C1317 1.404 . S
C1316 C1319 1.539 . S
C1317 C1313 1.408 . S
C1317 C1316 1.404 . S
C1317 H1329 0.930 . S
C1318 C1314 1.524 . S
C1318 H1330 0.956 . S
C1318 H1331 0.961 . S
C1318 H1332 0.961 . S
C1319 C1316 1.539 . S
C1319 H1333 0.958 . S
C1319 H1334 0.961 . S
C1319 H1335 0.960 . S
H1320 C1304 0.931 . S
H1321 C1309 0.929 . S
H1322 C1310 0.960 . S
H1323 C1310 0.962 . S
H1324 C1310 0.960 . S
H1325 C1311 0.961 . S
H1326 C1311 0.961 . S
H1327 C1311 0.961 . S
H1328 C1312 0.931 . S
H1329 C1317 0.930 . S
H1330 C1318 0.956 . S
H1331 C1318 0.961 . S
H1332 C1318 0.961 . S
H1333 C1319 0.958 . S
H1334 C1319 0.961 . S
H1335 C1319 0.960 . S
C1336 C1337 1.391 . S
C1336 C1338 1.394 . S
C1336 H1352 0.931 . S
C1337 C1336 1.391 . S
C1337 C1341 1.376 . S
C1338 C1336 1.394 . S
C1338 C1339 1.369 . S
C1338 C1342 1.531 . S
C1339 C1338 1.369 . S
C1339 C1340 1.410 . S
C1339 C1347 1.503 . S
C1340 C1339 1.410 . S
C1340 C1341 1.392 . S
C1340 C1343 1.511 . S
C1341 C1337 1.376 . S
C1341 C1340 1.392 . S
C1341 H1353 0.929 . S
C1342 C1338 1.531 . S
C1342 H1354 0.960 . S
C1342 H1355 0.962 . S
C1342 H1356 0.960 . S
C1343 C1340 1.511 . S
C1343 H1357 0.961 . S
C1343 H1358 0.961 . S
C1343 H1359 0.961 . S
C1344 C1345 1.370 . S
C1344 C1346 1.363 . S
C1344 H1360 0.931 . S
C1345 C1344 1.370 . S
C1345 C1349 1.408 . S
C1346 C1344 1.363 . S
C1346 C1347 1.370 . S
C1346 C1350 1.524 . S
C1347 C1339 1.503 . S
C1347 C1346 1.370 . S
C1347 C1348 1.403 . S
C1348 C1347 1.403 . S
C1348 C1349 1.404 . S
C1348 C1351 1.539 . S
C1349 C1345 1.408 . S
C1349 C1348 1.404 . S
C1349 H1361 0.930 . S
C1350 C1346 1.524 . S
C1350 H1362 0.956 . S
C1350 H1363 0.961 . S
C1350 H1364 0.961 . S
C1351 C1348 1.539 . S
C1351 H1365 0.958 . S
C1351 H1366 0.961 . S
C1351 H1367 0.960 . S
H1352 C1336 0.931 . S
H1353 C1341 0.929 . S
H1354 C1342 0.960 . S
H1355 C1342 0.962 . S
H1356 C1342 0.960 . S
H1357 C1343 0.961 . S
H1358 C1343 0.961 . S
H1359 C1343 0.961 . S
H1360 C1344 0.931 . S
H1361 C1349 0.930 . S
H1362 C1350 0.956 . S
H1363 C1350 0.961 . S
H1364 C1350 0.961 . S
H1365 C1351 0.958 . S
H1366 C1351 0.961 . S
H1367 C1351 0.960 . S
C1368 C1369 1.391 . S
C1368 C1370 1.394 . S
C1368 H1384 0.931 . S
C1369 C1368 1.391 . S
C1369 C1373 1.376 . S
C1370 C1368 1.394 . S
C1370 C1371 1.369 . S
C1370 C1374 1.531 . S
C1371 C1370 1.369 . S
C1371 C1372 1.410 . S
C1371 C1379 1.503 . S
C1372 C1371 1.410 . S
C1372 C1373 1.392 . S
C1372 C1375 1.511 . S
C1373 C1369 1.376 . S
C1373 C1372 1.392 . S
C1373 H1385 0.929 . S
C1374 C1370 1.531 . S
C1374 H1386 0.960 . S
C1374 H1387 0.962 . S
C1374 H1388 0.960 . S
C1375 C1372 1.511 . S
C1375 H1389 0.961 . S
C1375 H1390 0.961 . S
C1375 H1391 0.961 . S
C1376 C1377 1.370 . S
C1376 C1378 1.363 . S
C1376 H1392 0.931 . S
C1377 C1376 1.370 . S
C1377 C1381 1.408 . S
C1378 C1376 1.363 . S
C1378 C1379 1.370 . S
C1378 C1382 1.524 . S
C1379 C1371 1.503 . S
C1379 C1378 1.370 . S
C1379 C1380 1.403 . S
C1380 C1379 1.403 . S
C1380 C1381 1.404 . S
C1380 C1383 1.539 . S
C1381 C1377 1.408 . S
C1381 C1380 1.404 . S
C1381 H1393 0.930 . S
C1382 C1378 1.524 . S
C1382 H1394 0.956 . S
C1382 H1395 0.961 . S
C1382 H1396 0.961 . S
C1383 C1380 1.539 . S
C1383 H1397 0.958 . S
C1383 H1398 0.961 . S
C1383 H1399 0.960 . S
H1384 C1368 0.931 . S
H1385 C1373 0.929 . S
H1386 C1374 0.960 . S
H1387 C1374 0.962 . S
H1388 C1374 0.960 . S
H1389 C1375 0.961 . S
H1390 C1375 0.961 . S
H1391 C1375 0.961 . S
H1392 C1376 0.931 . S
H1393 C1381 0.930 . S
H1394 C1382 0.956 . S
H1395 C1382 0.961 . S
H1396 C1382 0.961 . S
H1397 C1383 0.958 . S
H1398 C1383 0.961 . S
H1399 C1383 0.960 . S
C1400 C1401 1.391 . S
C1400 C1402 1.394 . S
C1400 H1416 0.931 . S
C1401 C1400 1.391 . S
C1401 C1405 1.376 . S
C1402 C1400 1.394 . S
C1402 C1403 1.369 . S
C1402 C1406 1.531 . S
C1403 C1402 1.369 . S
C1403 C1404 1.410 . S
C1403 C1411 1.503 . S
C1404 C1403 1.410 . S
C1404 C1405 1.392 . S
C1404 C1407 1.511 . S
C1405 C1401 1.376 . S
C1405 C1404 1.392 . S
C1405 H1417 0.929 . S
C1406 C1402 1.531 . S
C1406 H1418 0.960 . S
C1406 H1419 0.962 . S
C1406 H1420 0.960 . S
C1407 C1404 1.511 . S
C1407 H1421 0.961 . S
C1407 H1422 0.961 . S
C1407 H1423 0.961 . S
C1408 C1409 1.370 . S
C1408 C1410 1.363 . S
C1408 H1424 0.931 . S
C1409 C1408 1.370 . S
C1409 C1413 1.408 . S
C1410 C1408 1.363 . S
C1410 C1411 1.370 . S
C1410 C1414 1.524 . S
C1411 C1403 1.503 . S
C1411 C1410 1.370 . S
C1411 C1412 1.403 . S
C1412 C1411 1.403 . S
C1412 C1413 1.404 . S
C1412 C1415 1.539 . S
C1413 C1409 1.408 . S
C1413 C1412 1.404 . S
C1413 H1425 0.930 . S
C1414 C1410 1.524 . S
C1414 H1426 0.956 . S
C1414 H1427 0.961 . S
C1414 H1428 0.961 . S
C1415 C1412 1.539 . S
C1415 H1429 0.958 . S
C1415 H1430 0.961 . S
C1415 H1431 0.960 . S
H1416 C1400 0.931 . S
H1417 C1405 0.929 . S
H1418 C1406 0.960 . S
H1419 C1406 0.962 . S
H1420 C1406 0.960 . S
H1421 C1407 0.961 . S
H1422 C1407 0.961 . S
H1423 C1407 0.961 . S
H1424 C1408 0.931 . S
H1425 C1413 0.930 . S
H1426 C1414 0.956 . S
H1427 C1414 0.961 . S
H1428 C1414 0.961 . S
H1429 C1415 0.958 . S
H1430 C1415 0.961 . S
H1431 C1415 0.960 . S
C1432 C1433 1.391 . S
C1432 C1434 1.394 . S
C1432 H1448 0.931 . S
C1433 C1432 1.391 . S
C1433 C1437 1.376 . S
C1434 C1432 1.394 . S
C1434 C1435 1.369 . S
C1434 C1438 1.531 . S
C1435 C1434 1.369 . S
C1435 C1436 1.410 . S
C1435 C1443 1.503 . S
C1436 C1435 1.410 . S
C1436 C1437 1.392 . S
C1436 C1439 1.511 . S
C1437 C1433 1.376 . S
C1437 C1436 1.392 . S
C1437 H1449 0.929 . S
C1438 C1434 1.531 . S
C1438 H1450 0.960 . S
C1438 H1451 0.962 . S
C1438 H1452 0.960 . S
C1439 C1436 1.511 . S
C1439 H1453 0.961 . S
C1439 H1454 0.961 . S
C1439 H1455 0.961 . S
C1440 C1441 1.370 . S
C1440 C1442 1.363 . S
C1440 H1456 0.931 . S
C1441 C1440 1.370 . S
C1441 C1445 1.408 . S
C1442 C1440 1.363 . S
C1442 C1443 1.370 . S
C1442 C1446 1.524 . S
C1443 C1435 1.503 . S
C1443 C1442 1.370 . S
C1443 C1444 1.403 . S
C1444 C1443 1.403 . S
C1444 C1445 1.404 . S
C1444 C1447 1.539 . S
C1445 C1441 1.408 . S
C1445 C1444 1.404 . S
C1445 H1457 0.930 . S
C1446 C1442 1.524 . S
C1446 H1458 0.956 . S
C1446 H1459 0.961 . S
C1446 H1460 0.961 . S
C1447 C1444 1.539 . S
C1447 H1461 0.958 . S
C1447 H1462 0.961 . S
C1447 H1463 0.960 . S
H1448 C1432 0.931 . S
H1449 C1437 0.929 . S
H1450 C1438 0.960 . S
H1451 C1438 0.962 . S
H1452 C1438 0.960 . S
H1453 C1439 0.961 . S
H1454 C1439 0.961 . S
H1455 C1439 0.961 . S
H1456 C1440 0.931 . S
H1457 C1445 0.930 . S
H1458 C1446 0.956 . S
H1459 C1446 0.961 . S
H1460 C1446 0.961 . S
H1461 C1447 0.958 . S
H1462 C1447 0.961 . S
H1463 C1447 0.960 . S
C1464 C1465 1.391 . S
C1464 C1466 1.394 . S
C1464 H1480 0.931 . S
C1465 C1464 1.391 . S
C1465 C1469 1.376 . S
C1466 C1464 1.394 . S
C1466 C1467 1.369 . S
C1466 C1470 1.531 . S
C1467 C1466 1.369 . S
C1467 C1468 1.410 . S
C1467 C1475 1.503 . S
C1468 C1467 1.410 . S
C1468 C1469 1.392 . S
C1468 C1471 1.511 . S
C1469 C1465 1.376 . S
C1469 C1468 1.392 . S
C1469 H1481 0.929 . S
C1470 C1466 1.531 . S
C1470 H1482 0.960 . S
C1470 H1483 0.962 . S
C1470 H1484 0.960 . S
C1471 C1468 1.511 . S
C1471 H1485 0.961 . S
C1471 H1486 0.961 . S
C1471 H1487 0.961 . S
C1472 C1473 1.370 . S
C1472 C1474 1.363 . S
C1472 H1488 0.931 . S
C1473 C1472 1.370 . S
C1473 C1477 1.408 . S
C1474 C1472 1.363 . S
C1474 C1475 1.370 . S
C1474 C1478 1.524 . S
C1475 C1467 1.503 . S
C1475 C1474 1.370 . S
C1475 C1476 1.403 . S
C1476 C1475 1.403 . S
C1476 C1477 1.404 . S
C1476 C1479 1.539 . S
C1477 C1473 1.408 . S
C1477 C1476 1.404 . S
C1477 H1489 0.930 . S
C1478 C1474 1.524 . S
C1478 H1490 0.956 . S
C1478 H1491 0.961 . S
C1478 H1492 0.961 . S
C1479 C1476 1.539 . S
C1479 H1493 0.958 . S
C1479 H1494 0.961 . S
C1479 H1495 0.960 . S
H1480 C1464 0.931 . S
H1481 C1469 0.929 . S
H1482 C1470 0.960 . S
H1483 C1470 0.962 . S
H1484 C1470 0.960 . S
H1485 C1471 0.961 . S
H1486 C1471 0.961 . S
H1487 C1471 0.961 . S
H1488 C1472 0.931 . S
H1489 C1477 0.930 . S
H1490 C1478 0.956 . S
H1491 C1478 0.961 . S
H1492 C1478 0.961 . S
H1493 C1479 0.958 . S
H1494 C1479 0.961 . S
H1495 C1479 0.960 . S
C1496 C1497 1.391 . S
C1496 C1498 1.394 . S
C1496 H1512 0.931 . S
C1497 C1496 1.391 . S
C1497 C1501 1.376 . S
C1498 C1496 1.394 . S
C1498 C1499 1.369 . S
C1498 C1502 1.531 . S
C1499 C1498 1.369 . S
C1499 C1500 1.410 . S
C1499 C1507 1.503 . S
C1500 C1499 1.410 . S
C1500 C1501 1.392 . S
C1500 C1503 1.511 . S
C1501 C1497 1.376 . S
C1501 C1500 1.392 . S
C1501 H1513 0.929 . S
C1502 C1498 1.531 . S
C1502 H1514 0.960 . S
C1502 H1515 0.962 . S
C1502 H1516 0.960 . S
C1503 C1500 1.511 . S
C1503 H1517 0.961 . S
C1503 H1518 0.961 . S
C1503 H1519 0.961 . S
C1504 C1505 1.370 . S
C1504 C1506 1.363 . S
C1504 H1520 0.931 . S
C1505 C1504 1.370 . S
C1505 C1509 1.408 . S
C1506 C1504 1.363 . S
C1506 C1507 1.370 . S
C1506 C1510 1.524 . S
C1507 C1499 1.503 . S
C1507 C1506 1.370 . S
C1507 C1508 1.403 . S
C1508 C1507 1.403 . S
C1508 C1509 1.404 . S
C1508 C1511 1.539 . S
C1509 C1505 1.408 . S
C1509 C1508 1.404 . S
C1509 H1521 0.930 . S
C1510 C1506 1.524 . S
C1510 H1522 0.956 . S
C1510 H1523 0.961 . S
C1510 H1524 0.961 . S
C1511 C1508 1.539 . S
C1511 H1525 0.958 . S
C1511 H1526 0.961 . S
C1511 H1527 0.960 . S
H1512 C1496 0.931 . S
H1513 C1501 0.929 . S
H1514 C1502 0.960 . S
H1515 C1502 0.962 . S
H1516 C1502 0.960 . S
H1517 C1503 0.961 . S
H1518 C1503 0.961 . S
H1519 C1503 0.961 . S
H1520 C1504 0.931 . S
H1521 C1509 0.930 . S
H1522 C1510 0.956 . S
H1523 C1510 0.961 . S
H1524 C1510 0.961 . S
H1525 C1511 0.958 . S
H1526 C1511 0.961 . S
H1527 C1511 0.960 . S
C1528 C1529 1.391 . S
C1528 C1530 1.394 . S
C1528 H1544 0.931 . S
C1529 C1528 1.391 . S
C1529 C1533 1.376 . S
C1530 C1528 1.394 . S
C1530 C1531 1.369 . S
C1530 C1534 1.531 . S
C1531 C1530 1.369 . S
C1531 C1532 1.410 . S
C1531 C1539 1.503 . S
C1532 C1531 1.410 . S
C1532 C1533 1.392 . S
C1532 C1535 1.511 . S
C1533 C1529 1.376 . S
C1533 C1532 1.392 . S
C1533 H1545 0.929 . S
C1534 C1530 1.531 . S
C1534 H1546 0.960 . S
C1534 H1547 0.962 . S
C1534 H1548 0.960 . S
C1535 C1532 1.511 . S
C1535 H1549 0.961 . S
C1535 H1550 0.961 . S
C1535 H1551 0.961 . S
C1536 C1537 1.370 . S
C1536 C1538 1.363 . S
C1536 H1552 0.931 . S
C1537 C1536 1.370 . S
C1537 C1541 1.408 . S
C1538 C1536 1.363 . S
C1538 C1539 1.370 . S
C1538 C1542 1.524 . S
C1539 C1531 1.503 . S
C1539 C1538 1.370 . S
C1539 C1540 1.403 . S
C1540 C1539 1.403 . S
C1540 C1541 1.404 . S
C1540 C1543 1.539 . S
C1541 C1537 1.408 . S
C1541 C1540 1.404 . S
C1541 H1553 0.930 . S
C1542 C1538 1.524 . S
C1542 H1554 0.956 . S
C1542 H1555 0.961 . S
C1542 H1556 0.961 . S
C1543 C1540 1.539 . S
C1543 H1557 0.958 . S
C1543 H1558 0.961 . S
C1543 H1559 0.960 . S
H1544 C1528 0.931 . S
H1545 C1533 0.929 . S
H1546 C1534 0.960 . S
H1547 C1534 0.962 . S
H1548 C1534 0.960 . S
H1549 C1535 0.961 . S
H1550 C1535 0.961 . S
H1551 C1535 0.961 . S
H1552 C1536 0.931 . S
H1553 C1541 0.930 . S
H1554 C1542 0.956 . S
H1555 C1542 0.961 . S
H1556 C1542 0.961 . S
H1557 C1543 0.958 . S
H1558 C1543 0.961 . S
H1559 C1543 0.960 . S
C1560 C1561 1.391 . S
C1560 C1562 1.394 . S
C1560 H1576 0.931 . S
C1561 C1560 1.391 . S
C1561 C1565 1.376 . S
C1562 C1560 1.394 . S
C1562 C1563 1.369 . S
C1562 C1566 1.531 . S
C1563 C1562 1.369 . S
C1563 C1564 1.410 . S
C1563 C1571 1.503 . S
C1564 C1563 1.410 . S
C1564 C1565 1.392 . S
C1564 C1567 1.511 . S
C1565 C1561 1.376 . S
C1565 C1564 1.392 . S
C1565 H1577 0.929 . S
C1566 C1562 1.531 . S
C1566 H1578 0.960 . S
C1566 H1579 0.962 . S
C1566 H1580 0.960 . S
C1567 C1564 1.511 . S
C1567 H1581 0.961 . S
C1567 H1582 0.961 . S
C1567 H1583 0.961 . S
C1568 C1569 1.370 . S
C1568 C1570 1.363 . S
C1568 H1584 0.931 . S
C1569 C1568 1.370 . S
C1569 C1573 1.408 . S
C1570 C1568 1.363 . S
C1570 C1571 1.370 . S
C1570 C1574 1.524 . S
C1571 C1563 1.503 . S
C1571 C1570 1.370 . S
C1571 C1572 1.403 . S
C1572 C1571 1.403 . S
C1572 C1573 1.404 . S
C1572 C1575 1.539 . S
C1573 C1569 1.408 . S
C1573 C1572 1.404 . S
C1573 H1585 0.930 . S
C1574 C1570 1.524 . S
C1574 H1586 0.956 . S
C1574 H1587 0.961 . S
C1574 H1588 0.961 . S
C1575 C1572 1.539 . S
C1575 H1589 0.958 . S
C1575 H1590 0.961 . S
C1575 H1591 0.960 . S
H1576 C1560 0.931 . S
H1577 C1565 0.929 . S
H1578 C1566 0.960 . S
H1579 C1566 0.962 . S
H1580 C1566 0.960 . S
H1581 C1567 0.961 . S
H1582 C1567 0.961 . S
H1583 C1567 0.961 . S
H1584 C1568 0.931 . S
H1585 C1573 0.930 . S
H1586 C1574 0.956 . S
H1587 C1574 0.961 . S
H1588 C1574 0.961 . S
H1589 C1575 0.958 . S
H1590 C1575 0.961 . S
H1591 C1575 0.960 . S
C1592 C1593 1.391 . S
C1592 C1594 1.394 . S
C1592 H1608 0.931 . S
C1593 C1592 1.391 . S
C1593 C1597 1.376 . S
C1594 C1592 1.394 . S
C1594 C1595 1.369 . S
C1594 C1598 1.531 . S
C1595 C1594 1.369 . S
C1595 C1596 1.410 . S
C1595 C1603 1.503 . S
C1596 C1595 1.410 . S
C1596 C1597 1.392 . S
C1596 C1599 1.511 . S
C1597 C1593 1.376 . S
C1597 C1596 1.392 . S
C1597 H1609 0.929 . S
C1598 C1594 1.531 . S
C1598 H1610 0.960 . S
C1598 H1611 0.962 . S
C1598 H1612 0.960 . S
C1599 C1596 1.511 . S
C1599 H1613 0.961 . S
C1599 H1614 0.961 . S
C1599 H1615 0.961 . S
C1600 C1601 1.370 . S
C1600 C1602 1.363 . S
C1600 H1616 0.931 . S
C1601 C1600 1.370 . S
C1601 C1605 1.408 . S
C1602 C1600 1.363 . S
C1602 C1603 1.370 . S
C1602 C1606 1.524 . S
C1603 C1595 1.503 . S
C1603 C1602 1.370 . S
C1603 C1604 1.403 . S
C1604 C1603 1.403 . S
C1604 C1605 1.404 . S
C1604 C1607 1.539 . S
C1605 C1601 1.408 . S
C1605 C1604 1.404 . S
C1605 H1617 0.930 . S
C1606 C1602 1.524 . S
C1606 H1618 0.956 . S
C1606 H1619 0.961 . S
C1606 H1620 0.961 . S
C1607 C1604 1.539 . S
C1607 H1621 0.958 . S
C1607 H1622 0.961 . S
C1607 H1623 0.960 . S
H1608 C1592 0.931 . S
H1609 C1597 0.929 . S
H1610 C1598 0.960 . S
H1611 C1598 0.962 . S
H1612 C1598 0.960 . S
H1613 C1599 0.961 . S
H1614 C1599 0.961 . S
H1615 C1599 0.961 . S
H1616 C1600 0.931 . S
H1617 C1605 0.930 . S
H1618 C1606 0.956 . S
H1619 C1606 0.961 . S
H1620 C1606 0.961 . S
H1621 C1607 0.958 . S
H1622 C1607 0.961 . S
H1623 C1607 0.960 . S
C1624 C1625 1.391 . S
C1624 C1626 1.394 . S
C1624 H1640 0.931 . S
C1625 C1624 1.391 . S
C1625 C1629 1.376 . S
C1626 C1624 1.394 . S
C1626 C1627 1.369 . S
C1626 C1630 1.531 . S
C1627 C1626 1.369 . S
C1627 C1628 1.410 . S
C1627 C1635 1.503 . S
C1628 C1627 1.410 . S
C1628 C1629 1.392 . S
C1628 C1631 1.511 . S
C1629 C1625 1.376 . S
C1629 C1628 1.392 . S
C1629 H1641 0.929 . S
C1630 C1626 1.531 . S
C1630 H1642 0.960 . S
C1630 H1643 0.962 . S
C1630 H1644 0.960 . S
C1631 C1628 1.511 . S
C1631 H1645 0.961 . S
C1631 H1646 0.961 . S
C1631 H1647 0.961 . S
C1632 C1633 1.370 . S
C1632 C1634 1.363 . S
C1632 H1648 0.931 . S
C1633 C1632 1.370 . S
C1633 C1637 1.408 . S
C1634 C1632 1.363 . S
C1634 C1635 1.370 . S
C1634 C1638 1.524 . S
C1635 C1627 1.503 . S
C1635 C1634 1.370 . S
C1635 C1636 1.403 . S
C1636 C1635 1.403 . S
C1636 C1637 1.404 . S
C1636 C1639 1.539 . S
C1637 C1633 1.408 . S
C1637 C1636 1.404 . S
C1637 H1649 0.930 . S
C1638 C1634 1.524 . S
C1638 H1650 0.956 . S
C1638 H1651 0.961 . S
C1638 H1652 0.961 . S
C1639 C1636 1.539 . S
C1639 H1653 0.958 . S
C1639 H1654 0.961 . S
C1639 H1655 0.960 . S
H1640 C1624 0.931 . S
H1641 C1629 0.929 . S
H1642 C1630 0.960 . S
H1643 C1630 0.962 . S
H1644 C1630 0.960 . S
H1645 C1631 0.961 . S
H1646 C1631 0.961 . S
H1647 C1631 0.961 . S
H1648 C1632 0.931 . S
H1649 C1637 0.930 . S
H1650 C1638 0.956 . S
H1651 C1638 0.961 . S
H1652 C1638 0.961 . S
H1653 C1639 0.958 . S
H1654 C1639 0.961 . S
H1655 C1639 0.960 . S
C1656 C1657 1.391 . S
C1656 C1658 1.394 . S
C1656 H1672 0.931 . S
C1657 C1656 1.391 . S
C1657 C1661 1.376 . S
C1658 C1656 1.394 . S
C1658 C1659 1.369 . S
C1658 C1662 1.531 . S
C1659 C1658 1.369 . S
C1659 C1660 1.410 . S
C1659 C1667 1.503 . S
C1660 C1659 1.410 . S
C1660 C1661 1.392 . S
C1660 C1663 1.511 . S
C1661 C1657 1.376 . S
C1661 C1660 1.392 . S
C1661 H1673 0.929 . S
C1662 C1658 1.531 . S
C1662 H1674 0.960 . S
C1662 H1675 0.962 . S
C1662 H1676 0.960 . S
C1663 C1660 1.511 . S
C1663 H1677 0.961 . S
C1663 H1678 0.961 . S
C1663 H1679 0.961 . S
C1664 C1665 1.370 . S
C1664 C1666 1.363 . S
C1664 H1680 0.931 . S
C1665 C1664 1.370 . S
C1665 C1669 1.408 . S
C1666 C1664 1.363 . S
C1666 C1667 1.370 . S
C1666 C1670 1.524 . S
C1667 C1659 1.503 . S
C1667 C1666 1.370 . S
C1667 C1668 1.403 . S
C1668 C1667 1.403 . S
C1668 C1669 1.404 . S
C1668 C1671 1.539 . S
C1669 C1665 1.408 . S
C1669 C1668 1.404 . S
C1669 H1681 0.930 . S
C1670 C1666 1.524 . S
C1670 H1682 0.956 . S
C1670 H1683 0.961 . S
C1670 H1684 0.961 . S
C1671 C1668 1.539 . S
C1671 H1685 0.958 . S
C1671 H1686 0.961 . S
C1671 H1687 0.960 . S
H1672 C1656 0.931 . S
H1673 C1661 0.929 . S
H1674 C1662 0.960 . S
H1675 C1662 0.962 . S
H1676 C1662 0.960 . S
H1677 C1663 0.961 . S
H1678 C1663 0.961 . S
H1679 C1663 0.961 . S
H1680 C1664 0.931 . S
H1681 C1669 0.930 . S
H1682 C1670 0.956 . S
H1683 C1670 0.961 . S
H1684 C1670 0.961 . S
H1685 C1671 0.958 . S
H1686 C1671 0.961 . S
H1687 C1671 0.960 . S
C1688 C1689 1.391 . S
C1688 C1690 1.394 . S
C1688 H1704 0.931 . S
C1689 C1688 1.391 . S
C1689 C1693 1.376 . S
C1690 C1688 1.394 . S
C1690 C1691 1.369 . S
C1690 C1694 1.531 . S
C1691 C1690 1.369 . S
C1691 C1692 1.410 . S
C1691 C1699 1.503 . S
C1692 C1691 1.410 . S
C1692 C1693 1.392 . S
C1692 C1695 1.511 . S
C1693 C1689 1.376 . S
C1693 C1692 1.392 . S
C1693 H1705 0.929 . S
C1694 C1690 1.531 . S
C1694 H1706 0.960 . S
C1694 H1707 0.962 . S
C1694 H1708 0.960 . S
C1695 C1692 1.511 . S
C1695 H1709 0.961 . S
C1695 H1710 0.961 . S
C1695 H1711 0.961 . S
C1696 C1697 1.370 . S
C1696 C1698 1.363 . S
C1696 H1712 0.931 . S
C1697 C1696 1.370 . S
C1697 C1701 1.408 . S
C1698 C1696 1.363 . S
C1698 C1699 1.370 . S
C1698 C1702 1.524 . S
C1699 C1691 1.503 . S
C1699 C1698 1.370 . S
C1699 C1700 1.403 . S
C1700 C1699 1.403 . S
C1700 C1701 1.404 . S
C1700 C1703 1.539 . S
C1701 C1697 1.408 . S
C1701 C1700 1.404 . S
C1701 H1713 0.930 . S
C1702 C1698 1.524 . S
C1702 H1714 0.956 . S
C1702 H1715 0.961 . S
C1702 H1716 0.961 . S
C1703 C1700 1.539 . S
C1703 H1717 0.958 . S
C1703 H1718 0.961 . S
C1703 H1719 0.960 . S
H1704 C1688 0.931 . S
H1705 C1693 0.929 . S
H1706 C1694 0.960 . S
H1707 C1694 0.962 . S
H1708 C1694 0.960 . S
H1709 C1695 0.961 . S
H1710 C1695 0.961 . S
H1711 C1695 0.961 . S
H1712 C1696 0.931 . S
H1713 C1701 0.930 . S
H1714 C1702 0.956 . S
H1715 C1702 0.961 . S
H1716 C1702 0.961 . S
H1717 C1703 0.958 . S
H1718 C1703 0.961 . S
H1719 C1703 0.960 . S
C1720 C1721 1.391 . S
C1720 C1722 1.394 . S
C1720 H1736 0.931 . S
C1721 C1720 1.391 . S
C1721 C1725 1.376 . S
C1722 C1720 1.394 . S
C1722 C1723 1.369 . S
C1722 C1726 1.531 . S
C1723 C1722 1.369 . S
C1723 C1724 1.410 . S
C1723 C1731 1.503 . S
C1724 C1723 1.410 . S
C1724 C1725 1.392 . S
C1724 C1727 1.511 . S
C1725 C1721 1.376 . S
C1725 C1724 1.392 . S
C1725 H1737 0.929 . S
C1726 C1722 1.531 . S
C1726 H1738 0.960 . S
C1726 H1739 0.962 . S
C1726 H1740 0.960 . S
C1727 C1724 1.511 . S
C1727 H1741 0.961 . S
C1727 H1742 0.961 . S
C1727 H1743 0.961 . S
C1728 C1729 1.370 . S
C1728 C1730 1.363 . S
C1728 H1744 0.931 . S
C1729 C1728 1.370 . S
C1729 C1733 1.408 . S
C1730 C1728 1.363 . S
C1730 C1731 1.370 . S
C1730 C1734 1.524 . S
C1731 C1723 1.503 . S
C1731 C1730 1.370 . S
C1731 C1732 1.403 . S
C1732 C1731 1.403 . S
C1732 C1733 1.404 . S
C1732 C1735 1.539 . S
C1733 C1729 1.408 . S
C1733 C1732 1.404 . S
C1733 H1745 0.930 . S
C1734 C1730 1.524 . S
C1734 H1746 0.956 . S
C1734 H1747 0.961 . S
C1734 H1748 0.961 . S
C1735 C1732 1.539 . S
C1735 H1749 0.958 . S
C1735 H1750 0.961 . S
C1735 H1751 0.960 . S
H1736 C1720 0.931 . S
H1737 C1725 0.929 . S
H1738 C1726 0.960 . S
H1739 C1726 0.962 . S
H1740 C1726 0.960 . S
H1741 C1727 0.961 . S
H1742 C1727 0.961 . S
H1743 C1727 0.961 . S
H1744 C1728 0.931 . S
H1745 C1733 0.930 . S
H1746 C1734 0.956 . S
H1747 C1734 0.961 . S
H1748 C1734 0.961 . S
H1749 C1735 0.958 . S
H1750 C1735 0.961 . S
H1751 C1735 0.960 . S
C1752 C1753 1.391 . S
C1752 C1754 1.394 . S
C1752 H1768 0.931 . S
C1753 C1752 1.391 . S
C1753 C1757 1.376 . S
C1754 C1752 1.394 . S
C1754 C1755 1.369 . S
C1754 C1758 1.531 . S
C1755 C1754 1.369 . S
C1755 C1756 1.410 . S
C1755 C1763 1.503 . S
C1756 C1755 1.410 . S
C1756 C1757 1.392 . S
C1756 C1759 1.511 . S
C1757 C1753 1.376 . S
C1757 C1756 1.392 . S
C1757 H1769 0.929 . S
C1758 C1754 1.531 . S
C1758 H1770 0.960 . S
C1758 H1771 0.962 . S
C1758 H1772 0.960 . S
C1759 C1756 1.511 . S
C1759 H1773 0.961 . S
C1759 H1774 0.961 . S
C1759 H1775 0.961 . S
C1760 C1761 1.370 . S
C1760 C1762 1.363 . S
C1760 H1776 0.931 . S
C1761 C1760 1.370 . S
C1761 C1765 1.408 . S
C1762 C1760 1.363 . S
C1762 C1763 1.370 . S
C1762 C1766 1.524 . S
C1763 C1755 1.503 . S
C1763 C1762 1.370 . S
C1763 C1764 1.403 . S
C1764 C1763 1.403 . S
C1764 C1765 1.404 . S
C1764 C1767 1.539 . S
C1765 C1761 1.408 . S
C1765 C1764 1.404 . S
C1765 H1777 0.930 . S
C1766 C1762 1.524 . S
C1766 H1778 0.956 . S
C1766 H1779 0.961 . S
C1766 H1780 0.961 . S
C1767 C1764 1.539 . S
C1767 H1781 0.958 . S
C1767 H1782 0.961 . S
C1767 H1783 0.960 . S
H1768 C1752 0.931 . S
H1769 C1757 0.929 . S
H1770 C1758 0.960 . S
H1771 C1758 0.962 . S
H1772 C1758 0.960 . S
H1773 C1759 0.961 . S
H1774 C1759 0.961 . S
H1775 C1759 0.961 . S
H1776 C1760 0.931 . S
H1777 C1765 0.930 . S
H1778 C1766 0.956 . S
H1779 C1766 0.961 . S
H1780 C1766 0.961 . S
H1781 C1767 0.958 . S
H1782 C1767 0.961 . S
H1783 C1767 0.960 . S
C1784 C1785 1.391 . S
C1784 C1786 1.394 . S
C1784 H1800 0.931 . S
C1785 C1784 1.391 . S
C1785 C1789 1.376 . S
C1786 C1784 1.394 . S
C1786 C1787 1.369 . S
C1786 C1790 1.531 . S
C1787 C1786 1.369 . S
C1787 C1788 1.410 . S
C1787 C1795 1.503 . S
C1788 C1787 1.410 . S
C1788 C1789 1.392 . S
C1788 C1791 1.511 . S
C1789 C1785 1.376 . S
C1789 C1788 1.392 . S
C1789 H1801 0.929 . S
C1790 C1786 1.531 . S
C1790 H1802 0.960 . S
C1790 H1803 0.962 . S
C1790 H1804 0.960 . S
C1791 C1788 1.511 . S
C1791 H1805 0.961 . S
C1791 H1806 0.961 . S
C1791 H1807 0.961 . S
C1792 C1793 1.370 . S
C1792 C1794 1.363 . S
C1792 H1808 0.931 . S
C1793 C1792 1.370 . S
C1793 C1797 1.408 . S
C1794 C1792 1.363 . S
C1794 C1795 1.370 . S
C1794 C1798 1.524 . S
C1795 C1787 1.503 . S
C1795 C1794 1.370 . S
C1795 C1796 1.403 . S
C1796 C1795 1.403 . S
C1796 C1797 1.404 . S
C1796 C1799 1.539 . S
C1797 C1793 1.408 . S
C1797 C1796 1.404 . S
C1797 H1809 0.930 . S
C1798 C1794 1.524 . S
C1798 H1810 0.956 . S
C1798 H1811 0.961 . S
C1798 H1812 0.961 . S
C1799 C1796 1.539 . S
C1799 H1813 0.958 . S
C1799 H1814 0.961 . S
C1799 H1815 0.960 . S
H1800 C1784 0.931 . S
H1801 C1789 0.929 . S
H1802 C1790 0.960 . S
H1803 C1790 0.962 . S
H1804 C1790 0.960 . S
H1805 C1791 0.961 . S
H1806 C1791 0.961 . S
H1807 C1791 0.961 . S
H1808 C1792 0.931 . S
H1809 C1797 0.930 . S
H1810 C1798 0.956 . S
H1811 C1798 0.961 . S
H1812 C1798 0.961 . S
H1813 C1799 0.958 . S
H1814 C1799 0.961 . S
H1815 C1799 0.960 . S
C1816 C1817 1.391 . S
C1816 C1818 1.394 . S
C1816 H1832 0.931 . S
C1817 C1816 1.391 . S
C1817 C1821 1.376 . S
C1818 C1816 1.394 . S
C1818 C1819 1.369 . S
C1818 C1822 1.531 . S
C1819 C1818 1.369 . S
C1819 C1820 1.410 . S
C1819 C1827 1.503 . S
C1820 C1819 1.410 . S
C1820 C1821 1.392 . S
C1820 C1823 1.511 . S
C1821 C1817 1.376 . S
C1821 C1820 1.392 . S
C1821 H1833 0.929 . S
C1822 C1818 1.531 . S
C1822 H1834 0.960 . S
C1822 H1835 0.962 . S
C1822 H1836 0.960 . S
C1823 C1820 1.511 . S
C1823 H1837 0.961 . S
C1823 H1838 0.961 . S
C1823 H1839 0.961 . S
C1824 C1825 1.370 . S
C1824 C1826 1.363 . S
C1824 H1840 0.931 . S
C1825 C1824 1.370 . S
C1825 C1829 1.408 . S
C1826 C1824 1.363 . S
C1826 C1827 1.370 . S
C1826 C1830 1.524 . S
C1827 C1819 1.503 . S
C1827 C1826 1.370 . S
C1827 C1828 1.403 . S
C1828 C1827 1.403 . S
C1828 C1829 1.404 . S
C1828 C1831 1.539 . S
C1829 C1825 1.408 . S
C1829 C1828 1.404 . S
C1829 H1841 0.930 . S
C1830 C1826 1.524 . S
C1830 H1842 0.956 . S
C1830 H1843 0.961 . S
C1830 H1844 0.961 . S
C1831 C1828 1.539 . S
C1831 H1845 0.958 . S
C1831 H1846 0.961 . S
C1831 H1847 0.960 . S
H1832 C1816 0.931 . S
H1833 C1821 0.929 . S
H1834 C1822 0.960 . S
H1835 C1822 0.962 . S
H1836 C1822 0.960 . S
H1837 C1823 0.961 . S
H1838 C1823 0.961 . S
H1839 C1823 0.961 . S
H1840 C1824 0.931 . S
H1841 C1829 0.930 . S
H1842 C1830 0.956 . S
H1843 C1830 0.961 . S
H1844 C1830 0.961 . S
H1845 C1831 0.958 . S
H1846 C1831 0.961 . S
H1847 C1831 0.960 . S
C313 C205 1.403 . S
C321 C10 1.408 . S
C345 C166 1.404 . S
C353 C17 1.408 . S
C377 C179 1.404 . S
C385 C36 1.409 . S
C409 C192 1.403 . S
C417 C43 1.408 . S
C441 C186 1.407 . S
C449 C23 1.410 . S
C473 C30 1.403 . S
C481 C199 1.408 . S
C505 C160 1.408 . S
C513 C49 1.410 . S
C537 C173 1.402 . S
C545 C4 1.408 . S
C569 C244 1.409 . S
C577 C56 1.411 . S
C601 C69 1.410 . S
C609 C251 1.411 . S
C633 C88 1.409 . S
C641 C212 1.411 . S
C665 C231 1.405 . S
C673 C101 1.410 . S
C697 C290 1.402 . S
C705 C114 1.408 . S
C729 C127 1.410 . S
C737 C309 1.411 . S
C761 C140 1.403 . S
C769 C264 1.408 . S
C793 C147 1.410 . S
C801 C283 1.411 . S
C825 C225 1.409 . S
C833 C153 1.411 . S
C857 C303 1.403 . S
C865 C75 1.408 . S
C889 C82 1.401 . S
C897 C270 1.408 . S
C921 C277 1.406 . S
C929 C95 1.409 . S
C953 C296 1.402 . S
C961 C62 1.408 . S
C985 C121 1.410 . S
C993 C257 1.411 . S
C1017 C218 1.410 . S
C1025 C134 1.411 . S
C1049 C238 1.402 . S
C1057 C108 1.408 . S
C1081 C3 1.109 . S
C1089 C55 1.110 . S
C1113 C68 1.122 . S
C1121 C18 1.104 . S
C1145 C29 1.122 . S
C1153 C83 1.106 . S
C1177 C44 1.105 . S
C1185 C96 1.093 . S
C1209 C109 1.081 . S
C1217 C16 1.102 . S
C1241 C122 1.109 . S
C1249 C31 1.095 . S
C1273 C135 1.100 . S
C1281 C42 1.109 . S
C1305 C5 1.122 . S
C1313 C146 1.104 . S
C1337 C148 1.089 . S
C1345 C57 1.106 . S
C1369 C70 1.122 . S
C1377 C107 1.106 . S
C1401 C81 1.121 . S
C1409 C120 1.108 . S
C1433 C133 1.085 . S
C1441 C94 1.104 . S
C1465 C211 1.076 . S
C1473 C161 1.092 . S
C1497 C226 1.087 . S
C1505 C174 1.107 . S
C1529 C187 1.073 . S
C1537 C239 1.094 . S
C1561 C200 1.119 . S
C1569 C250 1.098 . S
C1593 C172 1.114 . S
C1601 C263 1.109 . S
C1625 C185 1.100 . S
C1633 C278 1.110 . S
C1657 C289 1.114 . S
C1665 C198 1.109 . S
C1689 C159 1.120 . S
C1697 C304 1.107 . S
C1721 C213 1.110 . S
C1729 C302 1.110 . S
C1753 C265 1.122 . S
C1761 C224 1.103 . S
C1785 C237 1.082 . S
C1793 C276 1.090 . S
C1817 C291 1.074 . S
C1825 C252 1.093 . S
