# Generated by pormake.
# Topology hbo, (4)-cn, num edge types: 1
# Building blocks:
#     Node 0, Type 0, BuildingBlock: ICAMEG_clean_sbu_1, # of connection points: 4
#     Node 1, Type 0, BuildingBlock: ICAMEG_clean_sbu_1, # of connection points: 4
#     Node 2, Type 0, BuildingBlock: ICAMEG_clean_sbu_1, # of connection points: 4
#     Node 3, Type 0, BuildingBlock: ICAMEG_clean_sbu_1, # of connection points: 4
#     Node 4, Type 0, BuildingBlock: ICAMEG_clean_sbu_1, # of connection points: 4
#     Node 5, Type 0, BuildingBlock: ICAMEG_clean_sbu_1, # of connection points: 4
#     Node 6, Type 0, BuildingBlock: ICAMEG_clean_sbu_1, # of connection points: 4
#     Node 7, Type 0, BuildingBlock: ICAMEG_clean_sbu_1, # of connection points: 4
#     Node 8, Type 0, BuildingBlock: ICAMEG_clean_sbu_1, # of connection points: 4
#     Node 9, Type 0, BuildingBlock: ICAMEG_clean_sbu_1, # of connection points: 4
#     Node 10, Type 0, BuildingBlock: ICAMEG_clean_sbu_1, # of connection points: 4
#     Node 11, Type 0, BuildingBlock: ICAMEG_clean_sbu_1, # of connection points: 4
#     Node 12, Type 0, BuildingBlock: ICAMEG_clean_sbu_1, # of connection points: 4
#     Node 13, Type 0, BuildingBlock: ICAMEG_clean_sbu_1, # of connection points: 4
#     Node 14, Type 0, BuildingBlock: ICAMEG_clean_sbu_1, # of connection points: 4
#     Node 15, Type 0, BuildingBlock: ICAMEG_clean_sbu_1, # of connection points: 4
#     Node 16, Type 0, BuildingBlock: ICAMEG_clean_sbu_1, # of connection points: 4
#     Node 17, Type 0, BuildingBlock: ICAMEG_clean_sbu_1, # of connection points: 4
#     Node 18, Type 0, BuildingBlock: ICAMEG_clean_sbu_1, # of connection points: 4
#     Node 19, Type 0, BuildingBlock: ICAMEG_clean_sbu_1, # of connection points: 4
#     Node 20, Type 0, BuildingBlock: ICAMEG_clean_sbu_1, # of connection points: 4
#     Node 21, Type 0, BuildingBlock: ICAMEG_clean_sbu_1, # of connection points: 4
#     Node 22, Type 0, BuildingBlock: ICAMEG_clean_sbu_1, # of connection points: 4
#     Node 23, Type 0, BuildingBlock: ICAMEG_clean_sbu_1, # of connection points: 4
#     Edge 24, Type (0, 0), BuildingBlock: XIVTED_clean_linker_0, # of connection points: 2
#     Edge 25, Type (0, 0), BuildingBlock: XIVTED_clean_linker_0, # of connection points: 2
#     Edge 26, Type (0, 0), BuildingBlock: XIVTED_clean_linker_0, # of connection points: 2
#     Edge 27, Type (0, 0), BuildingBlock: XIVTED_clean_linker_0, # of connection points: 2
#     Edge 28, Type (0, 0), BuildingBlock: XIVTED_clean_linker_0, # of connection points: 2
#     Edge 29, Type (0, 0), BuildingBlock: XIVTED_clean_linker_0, # of connection points: 2
#     Edge 30, Type (0, 0), BuildingBlock: XIVTED_clean_linker_0, # of connection points: 2
#     Edge 31, Type (0, 0), BuildingBlock: XIVTED_clean_linker_0, # of connection points: 2
#     Edge 32, Type (0, 0), BuildingBlock: XIVTED_clean_linker_0, # of connection points: 2
#     Edge 33, Type (0, 0), BuildingBlock: XIVTED_clean_linker_0, # of connection points: 2
#     Edge 34, Type (0, 0), BuildingBlock: XIVTED_clean_linker_0, # of connection points: 2
#     Edge 35, Type (0, 0), BuildingBlock: XIVTED_clean_linker_0, # of connection points: 2
#     Edge 36, Type (0, 0), BuildingBlock: XIVTED_clean_linker_0, # of connection points: 2
#     Edge 37, Type (0, 0), BuildingBlock: XIVTED_clean_linker_0, # of connection points: 2
#     Edge 38, Type (0, 0), BuildingBlock: XIVTED_clean_linker_0, # of connection points: 2
#     Edge 39, Type (0, 0), BuildingBlock: XIVTED_clean_linker_0, # of connection points: 2
#     Edge 40, Type (0, 0), BuildingBlock: XIVTED_clean_linker_0, # of connection points: 2
#     Edge 41, Type (0, 0), BuildingBlock: XIVTED_clean_linker_0, # of connection points: 2
#     Edge 42, Type (0, 0), BuildingBlock: XIVTED_clean_linker_0, # of connection points: 2
#     Edge 43, Type (0, 0), BuildingBlock: XIVTED_clean_linker_0, # of connection points: 2
#     Edge 44, Type (0, 0), BuildingBlock: XIVTED_clean_linker_0, # of connection points: 2
#     Edge 45, Type (0, 0), BuildingBlock: XIVTED_clean_linker_0, # of connection points: 2
#     Edge 46, Type (0, 0), BuildingBlock: XIVTED_clean_linker_0, # of connection points: 2
#     Edge 47, Type (0, 0), BuildingBlock: XIVTED_clean_linker_0, # of connection points: 2
#     Edge 48, Type (0, 0), BuildingBlock: XIVTED_clean_linker_0, # of connection points: 2
#     Edge 49, Type (0, 0), BuildingBlock: XIVTED_clean_linker_0, # of connection points: 2
#     Edge 50, Type (0, 0), BuildingBlock: XIVTED_clean_linker_0, # of connection points: 2
#     Edge 51, Type (0, 0), BuildingBlock: XIVTED_clean_linker_0, # of connection points: 2
#     Edge 52, Type (0, 0), BuildingBlock: XIVTED_clean_linker_0, # of connection points: 2
#     Edge 53, Type (0, 0), BuildingBlock: XIVTED_clean_linker_0, # of connection points: 2
#     Edge 54, Type (0, 0), BuildingBlock: XIVTED_clean_linker_0, # of connection points: 2
#     Edge 55, Type (0, 0), BuildingBlock: XIVTED_clean_linker_0, # of connection points: 2
#     Edge 56, Type (0, 0), BuildingBlock: XIVTED_clean_linker_0, # of connection points: 2
#     Edge 57, Type (0, 0), BuildingBlock: XIVTED_clean_linker_0, # of connection points: 2
#     Edge 58, Type (0, 0), BuildingBlock: XIVTED_clean_linker_0, # of connection points: 2
#     Edge 59, Type (0, 0), BuildingBlock: XIVTED_clean_linker_0, # of connection points: 2
#     Edge 60, Type (0, 0), BuildingBlock: XIVTED_clean_linker_0, # of connection points: 2
#     Edge 61, Type (0, 0), BuildingBlock: XIVTED_clean_linker_0, # of connection points: 2
#     Edge 62, Type (0, 0), BuildingBlock: XIVTED_clean_linker_0, # of connection points: 2
#     Edge 63, Type (0, 0), BuildingBlock: XIVTED_clean_linker_0, # of connection points: 2
#     Edge 64, Type (0, 0), BuildingBlock: XIVTED_clean_linker_0, # of connection points: 2
#     Edge 65, Type (0, 0), BuildingBlock: XIVTED_clean_linker_0, # of connection points: 2
#     Edge 66, Type (0, 0), BuildingBlock: XIVTED_clean_linker_0, # of connection points: 2
#     Edge 67, Type (0, 0), BuildingBlock: XIVTED_clean_linker_0, # of connection points: 2
#     Edge 68, Type (0, 0), BuildingBlock: XIVTED_clean_linker_0, # of connection points: 2
#     Edge 69, Type (0, 0), BuildingBlock: XIVTED_clean_linker_0, # of connection points: 2
#     Edge 70, Type (0, 0), BuildingBlock: XIVTED_clean_linker_0, # of connection points: 2
#     Edge 71, Type (0, 0), BuildingBlock: XIVTED_clean_linker_0, # of connection points: 2
# Relax obj value: 0.141
# Max RMSD: 0.173
# Mean RMSD: 0.173
data_MOF--net-hbo--node1-ICAMEG_clean_sbu_1--edge1-XIVTED_clean_linker_0
_symmetry_space_group_name_H-M    P1
_symmetry_Int_Tables_number       1
_symmetry_cell_setting            triclinic
loop_
_symmetry_equiv_pos_as_xyz
'x, y, z'
_cell_length_a     56.75219
_cell_length_b     56.694885
_cell_length_c     56.705059
_cell_angle_alpha  89.981341
_cell_angle_beta   90.004734
_cell_angle_gamma 90.006105
loop_
_atom_site_label
_atom_site_type_symbol
_atom_site_fract_x
_atom_site_fract_y
_atom_site_fract_z
_atom_type_partial_charge
Co0 Co 0.1624 0.36971 0.26619 0.0
Co1 Co 0.12676 0.33675 0.22994 0.0
O2 O 0.1335 0.36485 0.24842 0.0
C3 C 0.15836 0.41207 0.23607 0.0
O4 O 0.1555 0.39818 0.21777 0.0
C5 C 0.08561 0.34121 0.26155 0.0
O6 O 0.10004 0.34202 0.27964 0.0
O7 O 0.13489 0.31583 0.25697 0.0
O8 O 0.16285 0.33613 0.27637 0.0
H9 H 0.14207 0.25545 0.19818 0.0
H10 H 0.12101 0.40068 0.27416 0.0
O11 O 0.16219 0.40343 0.25643 0.0
H12 H 0.1379 0.36445 0.35139 0.0
H13 H 0.21656 0.41568 0.3194 0.0
H14 H 0.2068 0.34292 0.27276 0.0
H15 H 0.16267 0.3554 0.31684 0.0
H16 H 0.17988 0.40841 0.2972 0.0
O17 O 0.09347 0.33833 0.24073 0.0
H18 H 0.15106 0.29126 0.22117 0.0
H19 H 0.08638 0.3222 0.19964 0.0
H20 H 0.24369 0.3494 0.29484 0.0
H21 H 0.09591 0.41039 0.30829 0.0
H22 H 0.24874 0.386 0.31837 0.0
H23 H 0.10426 0.39216 0.34724 0.0
O24 O 0.18202 0.36142 0.23827 0.0
H25 H 0.08811 0.40637 0.19097 0.0
H26 H 0.13981 0.33752 0.17897 0.0
H27 H 0.13104 0.36379 0.14544 0.0
H28 H 0.10499 0.3985 0.15133 0.0
H29 H 0.0975 0.37975 0.22405 0.0
H30 H 0.07661 0.28664 0.17654 0.0
H31 H 0.10461 0.25299 0.17565 0.0
O32 O 0.15991 0.33494 0.21878 0.0
C33 C 0.15088 0.31746 0.27272 0.0
C34 C 0.12976 0.27002 0.19837 0.0
C35 C 0.09301 0.28752 0.18625 0.0
N36 N 0.11934 0.30886 0.2116 0.0
C37 C 0.13478 0.29037 0.21131 0.0
C38 C 0.09861 0.30758 0.1994 0.0
C39 C 0.10873 0.26865 0.18575 0.0
C40 C 0.12488 0.39283 0.29109 0.0
N41 N 0.14335 0.37754 0.29351 0.0
C42 C 0.11055 0.39833 0.31034 0.0
C43 C 0.11522 0.38807 0.33218 0.0
C44 C 0.13409 0.37251 0.33451 0.0
C45 C 0.14802 0.36739 0.31487 0.0
C46 C 0.21455 0.39965 0.30924 0.0
C47 C 0.20881 0.35883 0.28307 0.0
C48 C 0.19385 0.39546 0.29659 0.0
N49 N 0.19115 0.37519 0.28383 0.0
C50 C 0.22976 0.36243 0.29548 0.0
C51 C 0.2326 0.38298 0.30866 0.0
C52 C 0.17921 0.34593 0.22219 0.0
C53 C 0.09943 0.39126 0.18816 0.0
C54 C 0.12852 0.35261 0.18169 0.0
C55 C 0.12357 0.3674 0.16263 0.0
C56 C 0.10893 0.38686 0.16594 0.0
N57 N 0.11912 0.35703 0.20344 0.0
C58 C 0.10474 0.37607 0.20681 0.0
Co59 Co 0.16456 0.6197 0.7247 0.0
Co60 Co 0.1261 0.64993 0.76087 0.0
O61 O 0.13546 0.62218 0.74282 0.0
C62 C 0.16655 0.57951 0.75771 0.0
O63 O 0.15913 0.59359 0.7745 0.0
C64 C 0.08528 0.64337 0.72879 0.0
O65 O 0.09949 0.64385 0.71052 0.0
O66 O 0.13305 0.67132 0.73378 0.0
O67 O 0.16036 0.65218 0.71237 0.0
H68 H 0.13448 0.73243 0.79215 0.0
H69 H 0.12758 0.58308 0.72013 0.0
O70 O 0.16946 0.58712 0.7368 0.0
H71 H 0.13777 0.61562 0.64012 0.0
H72 H 0.22316 0.57768 0.67296 0.0
H73 H 0.20489 0.65155 0.71506 0.0
H74 H 0.16182 0.63035 0.67322 0.0
H75 H 0.18635 0.58158 0.69577 0.0
O76 O 0.09321 0.64578 0.74963 0.0
H77 H 0.1466 0.69727 0.76961 0.0
H78 H 0.0842 0.66149 0.79041 0.0
H79 H 0.24179 0.64849 0.69229 0.0
H80 H 0.10329 0.56768 0.68751 0.0
H81 H 0.25112 0.61134 0.67104 0.0
H82 H 0.10828 0.58402 0.64717 0.0
O83 O 0.18363 0.63222 0.7514 0.0
H84 H 0.09202 0.57797 0.79986 0.0
H85 H 0.13843 0.65049 0.81204 0.0
H86 H 0.13108 0.62388 0.84565 0.0
H87 H 0.1077 0.58733 0.83966 0.0
H88 H 0.09996 0.60497 0.76669 0.0
H89 H 0.07132 0.69633 0.81304 0.0
H90 H 0.09659 0.7321 0.81408 0.0
O91 O 0.1587 0.65446 0.77262 0.0
C92 C 0.14768 0.6702 0.71671 0.0
C93 C 0.12335 0.71693 0.79189 0.0
C94 C 0.08789 0.69668 0.80359 0.0
N95 N 0.11621 0.6773 0.77883 0.0
C96 C 0.13014 0.69695 0.77921 0.0
C97 C 0.09525 0.67702 0.7907 0.0
C98 C 0.10208 0.71674 0.80417 0.0
C99 C 0.12996 0.59016 0.70259 0.0
N100 N 0.14614 0.60754 0.69857 0.0
C101 C 0.11611 0.58142 0.68421 0.0
C102 C 0.1189 0.59062 0.66158 0.0
C103 C 0.13543 0.60836 0.65762 0.0
C104 C 0.14895 0.61669 0.67644 0.0
C105 C 0.21927 0.59397 0.68211 0.0
C106 C 0.20876 0.63538 0.70574 0.0
C107 C 0.19848 0.59627 0.69509 0.0
N108 N 0.19341 0.61683 0.70659 0.0
C109 C 0.22971 0.63372 0.69293 0.0
C110 C 0.23495 0.61287 0.68103 0.0
C111 C 0.17917 0.64644 0.76824 0.0
C112 C 0.10217 0.59388 0.8027 0.0
C113 C 0.1283 0.63459 0.80927 0.0
C114 C 0.12415 0.61961 0.82838 0.0
C115 C 0.11101 0.59912 0.82502 0.0
N116 N 0.11957 0.62934 0.78743 0.0
C117 C 0.10664 0.60929 0.78401 0.0
Co118 Co 0.83909 0.62943 0.26111 0.0
Co119 Co 0.86863 0.66784 0.22434 0.0
O120 O 0.86674 0.6392 0.24323 0.0
C121 C 0.8476 0.58843 0.22982 0.0
O122 O 0.84686 0.60237 0.21135 0.0
C123 C 0.90716 0.67254 0.25868 0.0
O124 O 0.89245 0.66544 0.27506 0.0
O125 O 0.85486 0.6871 0.25017 0.0
O126 O 0.83344 0.66216 0.27224 0.0
H127 H 0.83818 0.74328 0.18919 0.0
H128 H 0.88475 0.60488 0.26806 0.0
O129 O 0.84444 0.59648 0.25052 0.0
H130 H 0.86366 0.63681 0.34614 0.0
H131 H 0.79358 0.57412 0.31357 0.0
H132 H 0.79104 0.64859 0.26866 0.0
H133 H 0.83734 0.64265 0.31203 0.0
H134 H 0.82837 0.58772 0.2913 0.0
O135 O 0.9006 0.6742 0.23728 0.0
H136 H 0.83574 0.70683 0.21284 0.0
H137 H 0.90669 0.69018 0.19583 0.0
H138 H 0.75591 0.63574 0.29083 0.0
H139 H 0.91149 0.59849 0.30174 0.0
H140 H 0.75705 0.59826 0.31349 0.0
H141 H 0.90103 0.61458 0.34111 0.0
O142 O 0.81798 0.63518 0.2336 0.0
H143 H 0.92387 0.60771 0.19007 0.0
H144 H 0.85919 0.66316 0.17279 0.0
H145 H 0.87565 0.63884 0.14071 0.0
H146 H 0.90827 0.6109 0.14926 0.0
H147 H 0.90676 0.63224 0.22165 0.0
H148 H 0.90998 0.72656 0.17216 0.0
H149 H 0.87552 0.75335 0.16866 0.0
O150 O 0.83666 0.66216 0.21134 0.0
C151 C 0.84088 0.68274 0.26721 0.0
C152 C 0.85329 0.73171 0.19052 0.0
C153 C 0.8936 0.72234 0.18099 0.0
N154 N 0.87098 0.69631 0.20553 0.0
C155 C 0.85199 0.71101 0.20382 0.0
C156 C 0.89165 0.7018 0.19444 0.0
C157 C 0.87426 0.73736 0.17902 0.0
C158 C 0.87995 0.61174 0.28519 0.0
N159 N 0.85944 0.62403 0.28809 0.0
C160 C 0.89522 0.60814 0.30417 0.0
C161 C 0.88936 0.61721 0.32625 0.0
C162 C 0.8684 0.6297 0.32907 0.0
C163 C 0.85358 0.63299 0.30968 0.0
C164 C 0.79288 0.59051 0.3038 0.0
C165 C 0.79172 0.63233 0.27861 0.0
C166 C 0.81251 0.59828 0.29112 0.0
N167 N 0.81178 0.61902 0.27885 0.0
C168 C 0.77175 0.62512 0.29106 0.0
C169 C 0.77239 0.60407 0.30375 0.0
C170 C 0.81896 0.64914 0.21596 0.0
C171 C 0.9097 0.61985 0.18611 0.0
C172 C 0.87332 0.65098 0.17666 0.0
C173 C 0.88261 0.6373 0.15842 0.0
C174 C 0.90092 0.62164 0.16323 0.0
N175 N 0.88208 0.64918 0.19904 0.0
C176 C 0.9 0.63384 0.2039 0.0
Co177 Co 0.87162 0.33414 0.75574 0.0
Co178 Co 0.83775 0.36854 0.71883 0.0
O179 O 0.86663 0.36214 0.73643 0.0
C180 C 0.91212 0.33412 0.72295 0.0
O181 O 0.89786 0.3401 0.70574 0.0
C182 C 0.84372 0.41095 0.74858 0.0
O183 O 0.84544 0.39725 0.76717 0.0
O184 O 0.8178 0.36189 0.74697 0.0
O185 O 0.83889 0.33582 0.76802 0.0
H186 H 0.75493 0.35336 0.69139 0.0
H187 H 0.90485 0.3743 0.75898 0.0
O188 O 0.9045 0.33159 0.7439 0.0
H189 H 0.87295 0.36435 0.83926 0.0
H190 H 0.91835 0.28134 0.8097 0.0
H191 H 0.84358 0.29136 0.76652 0.0
H192 H 0.86052 0.33787 0.80708 0.0
H193 H 0.91128 0.31692 0.78567 0.0
O194 O 0.8401 0.40225 0.72821 0.0
H195 H 0.79156 0.34472 0.71318 0.0
H196 H 0.82257 0.40783 0.68737 0.0
H197 H 0.84983 0.2556 0.79052 0.0
H198 H 0.91792 0.40107 0.79068 0.0
H199 H 0.88744 0.25042 0.81232 0.0
H200 H 0.90189 0.39621 0.83115 0.0
O201 O 0.86106 0.31331 0.72965 0.0
H202 H 0.9056 0.40535 0.67531 0.0
H203 H 0.83647 0.35307 0.66856 0.0
H204 H 0.86127 0.36036 0.6336 0.0
H205 H 0.8961 0.3867 0.63684 0.0
H206 H 0.88047 0.39741 0.70988 0.0
H207 H 0.78623 0.41725 0.66544 0.0
H208 H 0.75211 0.38986 0.66731 0.0
O209 O 0.83505 0.33492 0.70901 0.0
C210 C 0.82012 0.34748 0.7641 0.0
C211 C 0.76971 0.36539 0.69037 0.0
C212 C 0.78726 0.40126 0.67583 0.0
N213 N 0.80925 0.37564 0.70136 0.0
C214 C 0.79051 0.36055 0.7026 0.0
C215 C 0.80778 0.39586 0.68831 0.0
C216 C 0.76813 0.38588 0.67688 0.0
C217 C 0.89793 0.37197 0.77659 0.0
N218 N 0.88201 0.35449 0.78119 0.0
C219 C 0.90534 0.38723 0.79445 0.0
C220 C 0.89631 0.38451 0.81714 0.0
C221 C 0.88006 0.36665 0.8217 0.0
C222 C 0.87304 0.35174 0.80339 0.0
C223 C 0.90187 0.28342 0.80033 0.0
C224 C 0.85993 0.2893 0.77609 0.0
C225 C 0.89778 0.3035 0.78666 0.0
N226 N 0.87696 0.30629 0.77487 0.0
C227 C 0.8634 0.26898 0.78959 0.0
C228 C 0.88451 0.26608 0.80179 0.0
C229 C 0.84566 0.31562 0.71344 0.0
C230 C 0.89043 0.3939 0.67366 0.0
C231 C 0.85164 0.36449 0.67014 0.0
C232 C 0.86559 0.3686 0.65026 0.0
C233 C 0.88511 0.3834 0.65209 0.0
N234 N 0.85696 0.37487 0.69123 0.0
C235 C 0.87607 0.38941 0.69315 0.0
Co236 Co 0.23669 0.12463 0.3381 0.0
Co237 Co 0.27142 0.16209 0.37104 0.0
O238 O 0.25358 0.13304 0.36685 0.0
C239 C 0.26878 0.08435 0.34622 0.0
O240 O 0.28645 0.09925 0.34735 0.0
C241 C 0.23756 0.1618 0.41056 0.0
O242 O 0.22119 0.15475 0.39583 0.0
O243 O 0.24472 0.18123 0.35902 0.0
O244 O 0.22495 0.15756 0.33414 0.0
H245 H 0.30297 0.2413 0.34691 0.0
H246 H 0.22893 0.09696 0.38188 0.0
O247 O 0.24799 0.09158 0.34186 0.0
H248 H 0.15088 0.12857 0.36037 0.0
H249 H 0.18689 0.07116 0.28772 0.0
H250 H 0.23002 0.1466 0.2911 0.0
H251 H 0.18564 0.13698 0.33566 0.0
H252 H 0.20789 0.08301 0.32393 0.0
O253 O 0.25859 0.16528 0.40355 0.0
H254 H 0.28092 0.20419 0.3415 0.0
H255 H 0.29941 0.18225 0.4107 0.0
H256 H 0.20913 0.13553 0.25459 0.0
H257 H 0.19459 0.08793 0.40694 0.0
H258 H 0.18736 0.09756 0.25276 0.0
H259 H 0.15523 0.10384 0.39627 0.0
O260 O 0.26462 0.13218 0.31822 0.0
H261 H 0.30833 0.09873 0.42075 0.0
H262 H 0.32304 0.16028 0.36108 0.0
H263 H 0.35608 0.1358 0.37519 0.0
H264 H 0.34882 0.10478 0.40527 0.0
H265 H 0.27577 0.12351 0.40603 0.0
H266 H 0.3215 0.21921 0.41693 0.0
H267 H 0.32345 0.249 0.38485 0.0
O268 O 0.28454 0.15968 0.33861 0.0
C269 C 0.22858 0.17753 0.34383 0.0
C270 C 0.30232 0.22842 0.36099 0.0
C271 C 0.3127 0.21603 0.4003 0.0
N272 N 0.28907 0.19099 0.37568 0.0
C273 C 0.28993 0.20735 0.358 0.0
C274 C 0.30013 0.19516 0.39668 0.0
C275 C 0.31379 0.23274 0.38229 0.0
C276 C 0.21182 0.10375 0.37698 0.0
N277 N 0.20929 0.1174 0.35726 0.0
C278 C 0.19246 0.09866 0.3913 0.0
C279 C 0.17039 0.10763 0.38532 0.0
C280 C 0.16794 0.12152 0.36519 0.0
C281 C 0.1877 0.12628 0.35131 0.0
C282 C 0.19628 0.08777 0.28832 0.0
C283 C 0.22047 0.13012 0.29048 0.0
C284 C 0.20823 0.09455 0.30876 0.0
N285 N 0.22 0.11556 0.30967 0.0
C286 C 0.20873 0.12391 0.26974 0.0
C287 C 0.19654 0.10259 0.26871 0.0
C288 C 0.28122 0.14723 0.32021 0.0
C289 C 0.31173 0.11223 0.40769 0.0
C290 C 0.31973 0.14679 0.37413 0.0
C291 C 0.33852 0.13301 0.38209 0.0
C292 C 0.33443 0.11562 0.39897 0.0
N293 N 0.29752 0.14339 0.3828 0.0
C294 C 0.29338 0.12637 0.39935 0.0
Co295 Co 0.32735 0.77297 0.87268 0.0
Co296 Co 0.36616 0.73618 0.84382 0.0
O297 O 0.35633 0.75457 0.87114 0.0
C298 C 0.32383 0.74047 0.91302 0.0
O299 O 0.33051 0.72339 0.89892 0.0
C300 C 0.40785 0.76718 0.85096 0.0
O301 O 0.39452 0.786 0.84893 0.0
O302 O 0.36055 0.76338 0.82221 0.0
O303 O 0.33225 0.78464 0.84004 0.0
H304 H 0.36001 0.70511 0.76106 0.0
H305 H 0.36362 0.77805 0.90994 0.0
O306 O 0.32183 0.76149 0.90538 0.0
H307 H 0.35471 0.85743 0.87551 0.0
H308 H 0.2684 0.82594 0.9126 0.0
H309 H 0.28766 0.78222 0.83994 0.0
H310 H 0.33075 0.82418 0.86097 0.0
H311 H 0.30512 0.80282 0.9098 0.0
O312 O 0.39916 0.74659 0.84912 0.0
H313 H 0.34717 0.72791 0.79579 0.0
H314 H 0.40771 0.70558 0.83377 0.0
H315 H 0.25085 0.80528 0.84191 0.0
H316 H 0.38782 0.81083 0.92517 0.0
H317 H 0.24103 0.82734 0.87845 0.0
H318 H 0.38346 0.85086 0.90789 0.0
O319 O 0.30835 0.74616 0.86033 0.0
H320 H 0.39661 0.69667 0.9171 0.0
H321 H 0.3528 0.68526 0.84287 0.0
H322 H 0.35839 0.65158 0.86982 0.0
H323 H 0.38045 0.65718 0.90724 0.0
H324 H 0.39045 0.72992 0.88975 0.0
H325 H 0.4213 0.68268 0.79938 0.0
H326 H 0.39733 0.68228 0.76273 0.0
O327 O 0.33349 0.72511 0.83819 0.0
C328 C 0.34571 0.78031 0.82259 0.0
C329 C 0.37057 0.70508 0.77696 0.0
C330 C 0.40499 0.69252 0.79845 0.0
N331 N 0.37658 0.71794 0.81684 0.0
C332 C 0.36336 0.71791 0.7967 0.0
C333 C 0.39723 0.70556 0.81785 0.0
C334 C 0.39153 0.6923 0.7779 0.0
C335 C 0.36152 0.79545 0.90245 0.0
N336 N 0.34573 0.79922 0.88465 0.0
C337 C 0.37532 0.81393 0.91109 0.0
C338 C 0.37288 0.83638 0.90137 0.0
C339 C 0.35676 0.84007 0.88319 0.0
C340 C 0.34329 0.82116 0.87498 0.0
C341 C 0.27251 0.81644 0.89657 0.0
C342 C 0.28357 0.7919 0.85585 0.0
C343 C 0.29324 0.80328 0.8949 0.0
N344 N 0.2986 0.79134 0.87466 0.0
C345 C 0.26267 0.80487 0.85688 0.0
C346 C 0.25716 0.81722 0.8774 0.0
C347 C 0.31293 0.72941 0.84604 0.0
C348 C 0.38702 0.694 0.90082 0.0
C349 C 0.36237 0.68786 0.85914 0.0
C350 C 0.36552 0.6687 0.87431 0.0
C351 C 0.37792 0.67185 0.89529 0.0
N352 N 0.37136 0.70953 0.86468 0.0
C353 C 0.38356 0.71274 0.88521 0.0
Co354 Co 0.75671 0.87312 0.33249 0.0
Co355 Co 0.72209 0.83851 0.36814 0.0
O356 O 0.73948 0.86732 0.36151 0.0
C357 C 0.72566 0.91482 0.33707 0.0
O358 O 0.70735 0.90082 0.33922 0.0
C359 C 0.75438 0.84358 0.40859 0.0
O360 O 0.77199 0.84495 0.39365 0.0
O361 O 0.74962 0.81861 0.3593 0.0
O362 O 0.76786 0.83996 0.33135 0.0
H363 H 0.69272 0.75643 0.35221 0.0
H364 H 0.76432 0.90345 0.37445 0.0
O365 O 0.74612 0.90645 0.33339 0.0
H366 H 0.84236 0.87017 0.35566 0.0
H367 H 0.80781 0.92141 0.27827 0.0
H368 H 0.76335 0.84724 0.28754 0.0
H369 H 0.80779 0.86057 0.33114 0.0
H370 H 0.78635 0.91296 0.31515 0.0
O371 O 0.73345 0.84008 0.40129 0.0
H372 H 0.71436 0.7931 0.34333 0.0
H373 H 0.69308 0.82241 0.40888 0.0
H374 H 0.78469 0.8549 0.25043 0.0
H375 H 0.79845 0.9137 0.39931 0.0
H376 H 0.80714 0.89221 0.24562 0.0
H377 H 0.83781 0.89696 0.39001 0.0
O378 O 0.72877 0.86433 0.31319 0.0
H379 H 0.68148 0.90625 0.40836 0.0
H380 H 0.67097 0.8377 0.35589 0.0
H381 H 0.63674 0.86266 0.36561 0.0
H382 H 0.64188 0.8972 0.39206 0.0
H383 H 0.71527 0.88094 0.39803 0.0
H384 H 0.67134 0.78597 0.41856 0.0
H385 H 0.67101 0.7527 0.39007 0.0
O386 O 0.71044 0.8368 0.33507 0.0
C387 C 0.76508 0.82104 0.34314 0.0
C388 C 0.69267 0.77083 0.36474 0.0
C389 C 0.6807 0.7874 0.40199 0.0
N390 N 0.70483 0.80993 0.37549 0.0
C391 C 0.70484 0.79166 0.35977 0.0
C392 C 0.69308 0.80796 0.39643 0.0
C393 C 0.68051 0.76874 0.38599 0.0
C394 C 0.78142 0.89624 0.37016 0.0
N395 N 0.78405 0.88145 0.35131 0.0
C396 C 0.80067 0.90205 0.38436 0.0
C397 C 0.82274 0.89262 0.37915 0.0
C398 C 0.8253 0.87758 0.35989 0.0
C399 C 0.80564 0.87213 0.34611 0.0
C400 C 0.79813 0.90507 0.28017 0.0
C401 C 0.77319 0.86346 0.28563 0.0
C402 C 0.7859 0.90022 0.30099 0.0
N403 N 0.77376 0.87955 0.30355 0.0
C404 C 0.78519 0.86773 0.26455 0.0
C405 C 0.79775 0.88868 0.26186 0.0
C406 C 0.71322 0.84829 0.31593 0.0
C407 C 0.679 0.89121 0.39687 0.0
C408 C 0.67336 0.85273 0.36735 0.0
C409 C 0.6539 0.86677 0.37284 0.0
C410 C 0.65679 0.88614 0.38769 0.0
N411 N 0.69508 0.85778 0.37647 0.0
C412 C 0.69805 0.87676 0.39103 0.0
Co413 Co 0.66582 0.23559 0.87294 0.0
Co414 Co 0.62836 0.27351 0.84353 0.0
O415 O 0.63759 0.25505 0.87109 0.0
C416 C 0.67058 0.26851 0.91296 0.0
O417 O 0.66341 0.28568 0.89918 0.0
C418 C 0.58756 0.24212 0.85162 0.0
O419 O 0.6021 0.22412 0.85198 0.0
O420 O 0.63413 0.2464 0.82183 0.0
O421 O 0.66023 0.22334 0.84072 0.0
H422 H 0.63629 0.30507 0.76108 0.0
H423 H 0.62958 0.23285 0.91044 0.0
O424 O 0.67215 0.24749 0.90528 0.0
H425 H 0.63537 0.15229 0.87819 0.0
H426 H 0.72312 0.18128 0.91355 0.0
H427 H 0.70488 0.22423 0.84015 0.0
H428 H 0.66058 0.18419 0.86276 0.0
H429 H 0.68725 0.20567 0.91054 0.0
O430 O 0.59518 0.26295 0.84811 0.0
H431 H 0.64836 0.28199 0.79593 0.0
H432 H 0.58711 0.30422 0.83278 0.0
H433 H 0.74083 0.19988 0.84232 0.0
H434 H 0.60415 0.20144 0.92656 0.0
H435 H 0.75015 0.17819 0.87923 0.0
H436 H 0.60692 0.16083 0.91036 0.0
O437 O 0.68562 0.26141 0.8599 0.0
H438 H 0.59645 0.31299 0.91616 0.0
H439 H 0.64225 0.32426 0.84311 0.0
H440 H 0.63628 0.3579 0.87002 0.0
H441 H 0.61322 0.35237 0.90684 0.0
H442 H 0.60298 0.27979 0.88885 0.0
H443 H 0.57429 0.32741 0.79827 0.0
H444 H 0.599 0.32799 0.76212 0.0
O445 O 0.66135 0.28438 0.83861 0.0
C446 C 0.64768 0.22846 0.82284 0.0
C447 C 0.62541 0.30501 0.77676 0.0
C448 C 0.59059 0.31753 0.79762 0.0
N449 N 0.61855 0.29191 0.81642 0.0
C450 C 0.63218 0.29203 0.79656 0.0
C451 C 0.59792 0.30433 0.81708 0.0
C452 C 0.60447 0.31785 0.77734 0.0
C453 C 0.63099 0.21518 0.90342 0.0
N454 N 0.64657 0.21034 0.88571 0.0
C455 C 0.6165 0.19749 0.91257 0.0
C456 C 0.61805 0.17472 0.90345 0.0
C457 C 0.63399 0.16992 0.88539 0.0
C458 C 0.64817 0.18806 0.87666 0.0
C459 C 0.71923 0.19061 0.89736 0.0
C460 C 0.70874 0.21472 0.85622 0.0
C461 C 0.69898 0.20448 0.89557 0.0
N462 N 0.6939 0.21621 0.87513 0.0
C463 C 0.72916 0.20102 0.85737 0.0
C464 C 0.73438 0.18887 0.87809 0.0
C465 C 0.68175 0.27881 0.84617 0.0
C466 C 0.60647 0.31564 0.90014 0.0
C467 C 0.63223 0.3217 0.85912 0.0
C468 C 0.62887 0.34083 0.87427 0.0
C469 C 0.61591 0.33772 0.89491 0.0
N470 N 0.62289 0.3001 0.86435 0.0
C471 C 0.61015 0.29692 0.88455 0.0
Co472 Co 0.26637 0.82904 0.62606 0.0
Co473 Co 0.22987 0.86557 0.65847 0.0
O474 O 0.24819 0.85805 0.63022 0.0
C475 C 0.23331 0.82908 0.58574 0.0
O476 O 0.21666 0.83691 0.59975 0.0
C477 C 0.26326 0.90543 0.65412 0.0
O478 O 0.27987 0.89043 0.64826 0.0
O479 O 0.25635 0.85625 0.67954 0.0
O480 O 0.279 0.83146 0.6586 0.0
H481 H 0.19717 0.8506 0.73944 0.0
H482 H 0.27085 0.86759 0.59106 0.0
O483 O 0.25413 0.8257 0.59336 0.0
H484 H 0.35076 0.8564 0.62334 0.0
H485 H 0.31794 0.77277 0.58076 0.0
H486 H 0.27585 0.78689 0.65552 0.0
H487 H 0.31778 0.83155 0.63696 0.0
H488 H 0.2953 0.80942 0.58678 0.0
O489 O 0.24235 0.89838 0.65813 0.0
H490 H 0.21996 0.84114 0.70362 0.0
H491 H 0.20106 0.90699 0.67331 0.0
H492 H 0.29844 0.75008 0.65032 0.0
H493 H 0.30337 0.89271 0.5768 0.0
H494 H 0.31968 0.74284 0.61272 0.0
H495 H 0.34365 0.88723 0.59303 0.0
O496 O 0.23969 0.80935 0.63748 0.0
H497 H 0.19353 0.90763 0.58947 0.0
H498 H 0.17841 0.85475 0.65687 0.0
H499 H 0.14564 0.86573 0.63048 0.0
H500 H 0.15311 0.89238 0.59652 0.0
H501 H 0.22583 0.89605 0.6162 0.0
H502 H 0.17823 0.91726 0.70888 0.0
H503 H 0.17612 0.88891 0.74222 0.0
O504 O 0.21699 0.833 0.65966 0.0
C505 C 0.27405 0.84255 0.67747 0.0
C506 C 0.1979 0.86307 0.72499 0.0
C507 C 0.18729 0.90049 0.70785 0.0
N508 N 0.21167 0.87341 0.68633 0.0
C509 C 0.21071 0.85778 0.70465 0.0
C510 C 0.20028 0.8946 0.68778 0.0
C511 C 0.18611 0.88457 0.72655 0.0
C512 C 0.28838 0.86496 0.59804 0.0
N513 N 0.29243 0.84806 0.61474 0.0
C514 C 0.3067 0.8793 0.58997 0.0
C515 C 0.32929 0.87623 0.59911 0.0
C516 C 0.33329 0.85895 0.61613 0.0
C517 C 0.31453 0.84497 0.62381 0.0
C518 C 0.3088 0.77574 0.59724 0.0
C519 C 0.28518 0.78393 0.63916 0.0
C520 C 0.29593 0.79644 0.60074 0.0
N521 N 0.28444 0.80036 0.62156 0.0
C522 C 0.29788 0.76302 0.6363 0.0
C523 C 0.30978 0.75896 0.61518 0.0
C524 C 0.22191 0.813 0.65074 0.0
C525 C 0.19005 0.89605 0.60425 0.0
C526 C 0.18181 0.8663 0.64208 0.0
C527 C 0.16318 0.8725 0.62724 0.0
C528 C 0.16738 0.88746 0.60819 0.0
N529 N 0.20399 0.87483 0.63812 0.0
C530 C 0.20824 0.88951 0.61949 0.0
Co531 Co 0.62221 0.72215 0.15994 0.0
Co532 Co 0.65495 0.75903 0.12475 0.0
O533 O 0.62693 0.74039 0.13125 0.0
C534 C 0.58024 0.7527 0.15697 0.0
O535 O 0.59434 0.77093 0.15477 0.0
C536 C 0.65065 0.72805 0.08304 0.0
O537 O 0.64962 0.70972 0.09716 0.0
O538 O 0.67572 0.73182 0.13234 0.0
O539 O 0.65573 0.71181 0.1601 0.0
H540 H 0.73629 0.7903 0.14046 0.0
H541 H 0.59095 0.71478 0.11864 0.0
O542 O 0.5886 0.73208 0.15998 0.0
H543 H 0.62742 0.63735 0.13406 0.0
H544 H 0.57635 0.66817 0.21345 0.0
H545 H 0.64904 0.71495 0.20422 0.0
H546 H 0.63662 0.67153 0.1593 0.0
H547 H 0.58355 0.69094 0.17706 0.0
O548 O 0.6534 0.74874 0.09129 0.0
H549 H 0.70046 0.7672 0.14909 0.0
H550 H 0.66946 0.79006 0.08485 0.0
H551 H 0.64264 0.69231 0.24083 0.0
H552 H 0.5811 0.68101 0.09308 0.0
H553 H 0.60608 0.6687 0.2456 0.0
H554 H 0.59944 0.64196 0.10069 0.0
O555 O 0.63052 0.74977 0.17992 0.0
H556 H 0.58531 0.79851 0.08679 0.0
H557 H 0.65428 0.80988 0.13844 0.0
H558 H 0.628 0.8435 0.13018 0.0
H559 H 0.59323 0.83793 0.10415 0.0
H560 H 0.61194 0.76531 0.09568 0.0
H561 H 0.70502 0.81327 0.07544 0.0
H562 H 0.73871 0.81355 0.1034 0.0
O563 O 0.65676 0.76986 0.15809 0.0
C564 C 0.67419 0.7156 0.14786 0.0
C565 C 0.72169 0.79038 0.12817 0.0
C566 C 0.70416 0.80325 0.09166 0.0
N567 N 0.68283 0.77746 0.11759 0.0
C568 C 0.70134 0.7774 0.133 0.0
C569 C 0.68409 0.79004 0.09706 0.0
C570 C 0.72305 0.80341 0.10737 0.0
C571 C 0.59885 0.6978 0.12219 0.0
N572 N 0.61427 0.69512 0.14051 0.0
C573 C 0.59327 0.67876 0.1076 0.0
C574 C 0.60359 0.65686 0.11186 0.0
C575 C 0.6193 0.65427 0.13057 0.0
C576 C 0.62449 0.67371 0.14478 0.0
C577 C 0.59238 0.67835 0.21156 0.0
C578 C 0.63316 0.7046 0.20612 0.0
C579 C 0.59653 0.69131 0.19102 0.0
N580 N 0.61679 0.70409 0.18847 0.0
C581 C 0.6296 0.69187 0.22691 0.0
C582 C 0.60907 0.67865 0.22959 0.0
C583 C 0.64566 0.76619 0.17728 0.0
C584 C 0.60044 0.80117 0.09811 0.0
C585 C 0.63915 0.80728 0.12717 0.0
C586 C 0.62436 0.82641 0.1225 0.0
C587 C 0.60487 0.82328 0.10788 0.0
N588 N 0.6347 0.78565 0.1175 0.0
C589 C 0.61563 0.78246 0.10314 0.0
Co590 Co 0.72294 0.15521 0.62995 0.0
Co591 Co 0.75799 0.12254 0.66744 0.0
O592 O 0.73961 0.12635 0.63864 0.0
C593 C 0.75422 0.14724 0.58885 0.0
O594 O 0.7725 0.14638 0.60302 0.0
C595 C 0.72328 0.08381 0.66962 0.0
O596 O 0.70702 0.09839 0.66199 0.0
O597 O 0.73205 0.13578 0.68687 0.0
O598 O 0.71173 0.15982 0.66284 0.0
H599 H 0.7922 0.14861 0.74488 0.0
H600 H 0.71441 0.11108 0.60314 0.0
O601 O 0.73361 0.15095 0.59686 0.0
H602 H 0.63702 0.13369 0.63554 0.0
H603 H 0.6728 0.20516 0.57637 0.0
H604 H 0.71713 0.20268 0.65114 0.0
H605 H 0.67208 0.15828 0.64299 0.0
H606 H 0.69356 0.16893 0.58857 0.0
O607 O 0.74452 0.09053 0.67215 0.0
H608 H 0.76928 0.15324 0.7082 0.0
H609 H 0.78551 0.08287 0.68833 0.0
H610 H 0.69648 0.23922 0.6397 0.0
H611 H 0.67977 0.0861 0.59508 0.0
H612 H 0.67411 0.24061 0.60207 0.0
H613 H 0.64073 0.09733 0.61139 0.0
O614 O 0.75119 0.17503 0.63676 0.0
H615 H 0.79205 0.06983 0.60496 0.0
H616 H 0.80984 0.1309 0.66423 0.0
H617 H 0.84192 0.11505 0.63955 0.0
H618 H 0.83311 0.08424 0.60969 0.0
H619 H 0.76047 0.08633 0.62989 0.0
H620 H 0.80843 0.0774 0.72489 0.0
H621 H 0.81197 0.11046 0.75341 0.0
O622 O 0.77178 0.15442 0.66359 0.0
C623 C 0.7158 0.15081 0.683 0.0
C624 C 0.79086 0.1341 0.73255 0.0
C625 C 0.79995 0.09412 0.72135 0.0
N626 N 0.77624 0.11842 0.69606 0.0
C627 C 0.77797 0.13664 0.71173 0.0
C628 C 0.78691 0.09731 0.7007 0.0
C629 C 0.80193 0.11268 0.73734 0.0
C630 C 0.69745 0.11621 0.61011 0.0
N631 N 0.69527 0.13617 0.62344 0.0
C632 C 0.67791 0.10194 0.60557 0.0
C633 C 0.65602 0.10823 0.61476 0.0
C634 C 0.65393 0.12862 0.62832 0.0
C635 C 0.67386 0.14244 0.63254 0.0
C636 C 0.68245 0.20476 0.59283 0.0
C637 C 0.70731 0.20311 0.63481 0.0
C638 C 0.69427 0.18431 0.59981 0.0
N639 N 0.70638 0.18365 0.62064 0.0
C640 C 0.69571 0.22387 0.62839 0.0
C641 C 0.68318 0.22464 0.60726 0.0
C642 C 0.76834 0.17278 0.65114 0.0
C643 C 0.79612 0.08321 0.61794 0.0
C644 C 0.80585 0.11759 0.6512 0.0
C645 C 0.8241 0.10863 0.63733 0.0
C646 C 0.81915 0.09133 0.62058 0.0
N647 N 0.78332 0.1095 0.64854 0.0
C648 C 0.77832 0.09257 0.63215 0.0
Co649 Co 0.36926 0.25759 0.15436 0.0
Co650 Co 0.33201 0.22046 0.12392 0.0
O651 O 0.36057 0.23934 0.12655 0.0
C652 C 0.4108 0.22692 0.14652 0.0
O653 O 0.39697 0.20835 0.14681 0.0
C654 C 0.3295 0.25303 0.08347 0.0
O655 O 0.33566 0.27018 0.09773 0.0
O656 O 0.31229 0.24698 0.13563 0.0
O657 O 0.33619 0.26827 0.15896 0.0
H658 H 0.25491 0.187 0.1518 0.0
H659 H 0.39495 0.26461 0.1093 0.0
O660 O 0.40254 0.24749 0.14996 0.0
H661 H 0.36133 0.34235 0.12896 0.0
H662 H 0.42229 0.31133 0.20103 0.0
H663 H 0.34858 0.26527 0.20178 0.0
H664 H 0.35524 0.30832 0.15535 0.0
H665 H 0.41014 0.28849 0.16606 0.0
O666 O 0.32745 0.232 0.09107 0.0
H667 H 0.2913 0.21057 0.15516 0.0
H668 H 0.31158 0.19038 0.08595 0.0
H669 H 0.35997 0.288 0.23707 0.0
H670 H 0.40165 0.29823 0.08254 0.0
H671 H 0.39707 0.31125 0.23683 0.0
H672 H 0.38472 0.33743 0.09227 0.0
O673 O 0.36336 0.23012 0.17554 0.0
H674 H 0.39503 0.18385 0.07363 0.0
H675 H 0.33575 0.16923 0.1355 0.0
H676 H 0.36085 0.13648 0.1218 0.0
H677 H 0.39073 0.14369 0.09061 0.0
H678 H 0.36967 0.21614 0.08799 0.0
H679 H 0.27531 0.16675 0.08176 0.0
H680 H 0.24673 0.16488 0.11489 0.0
O681 O 0.33591 0.20865 0.15668 0.0
C682 C 0.31604 0.26375 0.15014 0.0
C683 C 0.26726 0.18761 0.13727 0.0
C684 C 0.2787 0.17627 0.09795 0.0
N685 N 0.30362 0.20169 0.12085 0.0
C686 C 0.28793 0.20087 0.1391 0.0
C687 C 0.29918 0.18972 0.1004 0.0
C688 C 0.26268 0.17523 0.11655 0.0
C689 C 0.38773 0.28167 0.1138 0.0
N690 N 0.37481 0.28451 0.13394 0.0
C691 C 0.39149 0.30062 0.09851 0.0
C692 C 0.38195 0.32259 0.10396 0.0
C693 C 0.36882 0.32536 0.12454 0.0
C694 C 0.36538 0.30601 0.13939 0.0
C695 C 0.40607 0.3013 0.20133 0.0
C696 C 0.36468 0.27545 0.2015 0.0
C697 C 0.39912 0.2883 0.18161 0.0
N698 N 0.37859 0.2757 0.18183 0.0
C699 C 0.37107 0.28823 0.22155 0.0
C700 C 0.3919 0.30126 0.22141 0.0
C701 C 0.34879 0.21299 0.17457 0.0
C702 C 0.38204 0.18047 0.08719 0.0
C703 C 0.34876 0.17252 0.12199 0.0
C704 C 0.36289 0.1539 0.11426 0.0
C705 C 0.37964 0.15795 0.09675 0.0
N706 N 0.35119 0.19455 0.1125 0.0
C707 C 0.36758 0.19867 0.09533 0.0
Co708 Co 0.86895 0.66392 0.75858 0.0
Co709 Co 0.83566 0.62939 0.72164 0.0
O710 O 0.86391 0.63544 0.7401 0.0
C711 C 0.91101 0.66054 0.72813 0.0
O712 O 0.897 0.65877 0.70978 0.0
C713 C 0.84045 0.58678 0.75144 0.0
O714 O 0.84193 0.60031 0.77017 0.0
O715 O 0.81525 0.63642 0.74929 0.0
O716 O 0.83541 0.66428 0.76899 0.0
H717 H 0.75394 0.64586 0.69179 0.0
H718 H 0.89968 0.62215 0.76555 0.0
O719 O 0.90257 0.66368 0.74868 0.0
H720 H 0.86396 0.63761 0.84329 0.0
H721 H 0.91533 0.71663 0.81289 0.0
H722 H 0.84247 0.70834 0.76621 0.0
H723 H 0.85483 0.66314 0.80929 0.0
H724 H 0.90782 0.6805 0.78983 0.0
O725 O 0.83726 0.59569 0.7311 0.0
H726 H 0.79008 0.65395 0.71458 0.0
H727 H 0.82071 0.59023 0.68989 0.0
H728 H 0.84918 0.74468 0.78916 0.0
H729 H 0.90948 0.59631 0.79914 0.0
H730 H 0.88583 0.74899 0.81272 0.0
H731 H 0.89151 0.60394 0.83834 0.0
O732 O 0.86083 0.68419 0.7311 0.0
H733 H 0.90488 0.59235 0.68063 0.0
H734 H 0.83573 0.64414 0.67107 0.0
H735 H 0.86168 0.63665 0.63701 0.0
H736 H 0.89653 0.61057 0.64167 0.0
H737 H 0.87858 0.60046 0.71427 0.0
H738 H 0.78484 0.58135 0.66698 0.0
H739 H 0.75117 0.60933 0.66778 0.0
O740 O 0.83377 0.66295 0.71152 0.0
C741 C 0.81694 0.65196 0.76548 0.0
C742 C 0.76852 0.63357 0.69124 0.0
C743 C 0.78585 0.59735 0.67734 0.0
N744 N 0.80754 0.62268 0.7034 0.0
C745 C 0.78905 0.63809 0.70405 0.0
C746 C 0.8061 0.60244 0.69038 0.0
C747 C 0.76697 0.61306 0.67779 0.0
C748 C 0.89193 0.62571 0.78259 0.0
N749 N 0.87675 0.64419 0.78545 0.0
C750 C 0.89748 0.61096 0.80153 0.0
C751 C 0.88737 0.61523 0.82351 0.0
C752 C 0.8719 0.63411 0.8263 0.0
C753 C 0.86673 0.64847 0.80696 0.0
C754 C 0.89928 0.71494 0.80273 0.0
C755 C 0.8584 0.71003 0.77654 0.0
C756 C 0.89495 0.69455 0.7896 0.0
N757 N 0.87465 0.69225 0.77685 0.0
C758 C 0.86213 0.73068 0.78944 0.0
C759 C 0.88271 0.73309 0.80264 0.0
C760 C 0.84528 0.68193 0.71501 0.0
C761 C 0.88971 0.6037 0.67836 0.0
C762 C 0.8509 0.63283 0.67327 0.0
C763 C 0.8655 0.6286 0.6539 0.0
C764 C 0.88504 0.61395 0.65652 0.0
N765 N 0.85558 0.6227 0.69464 0.0
C766 C 0.8747 0.60829 0.69732 0.0
Co767 Co 0.83266 0.37389 0.26851 0.0
Co768 Co 0.8691 0.34044 0.23361 0.0
O769 O 0.86159 0.36909 0.25081 0.0
C770 C 0.83498 0.41434 0.23591 0.0
O771 O 0.83729 0.39941 0.21838 0.0
C772 C 0.91077 0.34693 0.26443 0.0
O773 O 0.89694 0.34722 0.28299 0.0
O774 O 0.86191 0.32066 0.26175 0.0
O775 O 0.83345 0.34094 0.28047 0.0
H776 H 0.85636 0.25718 0.20605 0.0
H777 H 0.87314 0.40652 0.27445 0.0
O778 O 0.8318 0.40694 0.25687 0.0
H779 H 0.85772 0.37421 0.35371 0.0
H780 H 0.77735 0.42096 0.31949 0.0
H781 H 0.78928 0.346 0.27704 0.0
H782 H 0.83315 0.36239 0.31986 0.0
H783 H 0.81407 0.4137 0.29737 0.0
O784 O 0.90242 0.34372 0.24386 0.0
H785 H 0.84636 0.29374 0.22738 0.0
H786 H 0.90967 0.32584 0.20358 0.0
H787 H 0.75237 0.35245 0.29909 0.0
H788 H 0.89801 0.41899 0.30785 0.0
H789 H 0.74623 0.39016 0.32051 0.0
H790 H 0.8904 0.40276 0.34782 0.0
O791 O 0.8131 0.36347 0.24129 0.0
H792 H 0.90455 0.40965 0.19104 0.0
H793 H 0.85577 0.33816 0.18273 0.0
H794 H 0.8632 0.36316 0.14793 0.0
H795 H 0.88778 0.39919 0.15196 0.0
H796 H 0.89653 0.38425 0.22541 0.0
H797 H 0.92045 0.28956 0.18213 0.0
H798 H 0.89365 0.25493 0.18322 0.0
O799 O 0.83596 0.33692 0.22285 0.0
C800 C 0.84609 0.32256 0.27764 0.0
C801 C 0.86815 0.27217 0.20538 0.0
C802 C 0.90413 0.29034 0.19198 0.0
N803 N 0.87732 0.31195 0.21657 0.0
C804 C 0.86255 0.29294 0.21737 0.0
C805 C 0.89796 0.31081 0.2042 0.0
C806 C 0.88908 0.27092 0.19259 0.0
C807 C 0.86959 0.39951 0.29182 0.0
N808 N 0.85163 0.38381 0.29521 0.0
C809 C 0.88379 0.40658 0.31065 0.0
C810 C 0.87953 0.39745 0.33307 0.0
C811 C 0.86121 0.38141 0.33638 0.0
C812 C 0.84739 0.37473 0.31713 0.0
C813 C 0.77984 0.40445 0.31026 0.0
C814 C 0.78679 0.3624 0.28644 0.0
C815 C 0.80057 0.40025 0.29766 0.0
N816 N 0.80387 0.37938 0.28608 0.0
C817 C 0.76583 0.36598 0.29884 0.0
C818 C 0.76239 0.38715 0.31083 0.0
C819 C 0.81634 0.34739 0.22589 0.0
C820 C 0.89388 0.39395 0.18904 0.0
C821 C 0.86643 0.35383 0.18465 0.0
C822 C 0.87062 0.36789 0.16486 0.0
C823 C 0.88443 0.3881 0.16713 0.0
N824 N 0.87578 0.35967 0.20608 0.0
C825 C 0.88935 0.37945 0.20843 0.0
Co826 Co 0.16142 0.36557 0.72161 0.0
Co827 Co 0.12619 0.3325 0.7588 0.0
O828 O 0.1328 0.36072 0.74015 0.0
C829 C 0.16114 0.40562 0.75495 0.0
O830 O 0.15434 0.39113 0.77166 0.0
C831 C 0.08621 0.33513 0.72542 0.0
O832 O 0.10094 0.34125 0.70867 0.0
O833 O 0.13627 0.31132 0.73264 0.0
O834 O 0.15954 0.33299 0.70905 0.0
H835 H 0.14369 0.25253 0.79279 0.0
H836 H 0.12212 0.39977 0.71782 0.0
O837 O 0.16419 0.39831 0.73395 0.0
H838 H 0.13268 0.36786 0.63762 0.0
H839 H 0.21577 0.41225 0.6692 0.0
H840 H 0.204 0.33704 0.7113 0.0
H841 H 0.15831 0.35472 0.67021 0.0
H842 H 0.1797 0.40536 0.69248 0.0
O843 O 0.09342 0.33164 0.74639 0.0
H844 H 0.152 0.28826 0.76939 0.0
H845 H 0.08533 0.3168 0.78792 0.0
H846 H 0.24023 0.34311 0.68805 0.0
H847 H 0.09621 0.41355 0.68571 0.0
H848 H 0.2463 0.38095 0.6668 0.0
H849 H 0.10137 0.39751 0.64528 0.0
O850 O 0.18184 0.35429 0.7479 0.0
H851 H 0.08226 0.40078 0.79422 0.0
H852 H 0.13703 0.33518 0.81024 0.0
H853 H 0.12542 0.36175 0.84265 0.0
H854 H 0.09782 0.39482 0.83473 0.0
H855 H 0.09448 0.37388 0.76229 0.0
H856 H 0.07621 0.2813 0.81137 0.0
H857 H 0.10555 0.24889 0.81399 0.0
O858 O 0.15873 0.33245 0.77149 0.0
C859 C 0.14957 0.31368 0.71466 0.0
C860 C 0.13079 0.26656 0.79185 0.0
C861 C 0.09291 0.28269 0.80225 0.0
N862 N 0.11925 0.30467 0.77744 0.0
C863 C 0.13543 0.28686 0.77868 0.0
C864 C 0.09815 0.30273 0.78891 0.0
C865 C 0.10938 0.26452 0.80372 0.0
C866 C 0.12461 0.39288 0.70023 0.0
N867 N 0.14177 0.37655 0.69587 0.0
C868 C 0.10983 0.40067 0.68214 0.0
C869 C 0.11271 0.39164 0.65947 0.0
C870 C 0.13026 0.37499 0.65516 0.0
C871 C 0.14469 0.36758 0.67369 0.0
C872 C 0.21331 0.39568 0.67834 0.0
C873 C 0.20645 0.3535 0.70198 0.0
C874 C 0.19295 0.39169 0.69159 0.0
N875 N 0.18968 0.37075 0.70309 0.0
C876 C 0.22703 0.35686 0.6889 0.0
C877 C 0.23043 0.3781 0.677 0.0
C878 C 0.17861 0.34121 0.76591 0.0
C879 C 0.09425 0.38639 0.7979 0.0
C880 C 0.12506 0.34956 0.80664 0.0
C881 C 0.11851 0.36452 0.82507 0.0
C882 C 0.10301 0.38306 0.82062 0.0
N883 N 0.11636 0.35292 0.78442 0.0
C884 C 0.10115 0.37106 0.77992 0.0
Co885 Co 0.11794 0.66549 0.22579 0.0
Co886 Co 0.14906 0.6303 0.26456 0.0
O887 O 0.12093 0.63802 0.24631 0.0
C888 C 0.07927 0.67105 0.25995 0.0
O889 O 0.0938 0.66451 0.27672 0.0
C890 C 0.14215 0.58737 0.23549 0.0
O891 O 0.1409 0.60063 0.21654 0.0
O892 O 0.16996 0.63559 0.23677 0.0
O893 O 0.14991 0.66007 0.21288 0.0
H894 H 0.23187 0.64187 0.29376 0.0
H895 H 0.08085 0.62872 0.22562 0.0
O896 O 0.08594 0.67179 0.23854 0.0
H897 H 0.11111 0.63127 0.14414 0.0
H898 H 0.07444 0.71969 0.17053 0.0
H899 H 0.14955 0.7047 0.21164 0.0
H900 H 0.12711 0.65795 0.17452 0.0
H901 H 0.079 0.68492 0.1963 0.0
O902 O 0.14537 0.59656 0.25571 0.0
H903 H 0.19622 0.65196 0.27103 0.0
H904 H 0.1616 0.59078 0.29692 0.0
H905 H 0.14582 0.73955 0.18586 0.0
H906 H 0.0642 0.60183 0.19574 0.0
H907 H 0.10805 0.74723 0.1651 0.0
H908 H 0.07938 0.60298 0.15468 0.0
O909 O 0.13135 0.68678 0.25025 0.0
H910 H 0.0783 0.59798 0.30694 0.0
H911 H 0.15009 0.64638 0.31465 0.0
H912 H 0.12409 0.64105 0.34909 0.0
H913 H 0.08791 0.61668 0.34535 0.0
H914 H 0.10469 0.60391 0.27289 0.0
H915 H 0.19694 0.57993 0.3198 0.0
H916 H 0.23238 0.60561 0.31837 0.0
O917 O 0.15328 0.66379 0.27387 0.0
C918 C 0.16827 0.64836 0.21829 0.0
C919 C 0.21651 0.63057 0.29459 0.0
C920 C 0.19692 0.5958 0.30918 0.0
N921 N 0.17679 0.62207 0.28278 0.0
C922 C 0.19625 0.63623 0.2818 0.0
C923 C 0.17698 0.60201 0.29614 0.0
C924 C 0.21679 0.61022 0.30837 0.0
C925 C 0.08742 0.62943 0.20774 0.0
N926 N 0.10485 0.64495 0.20179 0.0
C927 C 0.07798 0.61411 0.19092 0.0
C928 C 0.08653 0.61475 0.16789 0.0
C929 C 0.10434 0.6306 0.16197 0.0
C930 C 0.11338 0.64563 0.17926 0.0
C931 C 0.091 0.7165 0.17944 0.0
C932 C 0.1331 0.70783 0.20253 0.0
C933 C 0.09367 0.69687 0.19409 0.0
N934 N 0.11458 0.69269 0.2053 0.0
C935 C 0.13108 0.72764 0.18802 0.0
C936 C 0.10987 0.73195 0.1764 0.0
C937 C 0.14544 0.68384 0.26751 0.0
C938 C 0.09405 0.60858 0.3088 0.0
C939 C 0.13435 0.63579 0.31287 0.0
C940 C 0.11972 0.6328 0.33244 0.0
C941 C 0.09943 0.61911 0.33034 0.0
N942 N 0.12897 0.62538 0.2918 0.0
C943 C 0.10911 0.61192 0.28961 0.0
Co944 Co 0.76585 0.87448 0.66224 0.0
Co945 Co 0.73066 0.84272 0.62414 0.0
O946 O 0.74726 0.87132 0.63353 0.0
C947 C 0.73009 0.91185 0.66595 0.0
O948 O 0.71435 0.89646 0.65886 0.0
C949 C 0.76144 0.8521 0.58288 0.0
O950 O 0.78003 0.85197 0.59665 0.0
O951 O 0.75908 0.82292 0.63022 0.0
O952 O 0.78008 0.8429 0.65727 0.0
H953 H 0.70462 0.75833 0.63161 0.0
H954 H 0.76733 0.91202 0.62589 0.0
O955 O 0.75168 0.90609 0.66793 0.0
H956 H 0.84928 0.88414 0.6336 0.0
H957 H 0.816 0.9189 0.72045 0.0
H958 H 0.77832 0.84274 0.7019 0.0
H959 H 0.81771 0.86695 0.65807 0.0
H960 H 0.79273 0.91405 0.68401 0.0
O961 O 0.74095 0.84819 0.5911 0.0
H962 H 0.7252 0.7946 0.64397 0.0
H963 H 0.70106 0.83011 0.58258 0.0
H964 H 0.80159 0.84675 0.73842 0.0
H965 H 0.79838 0.92985 0.60119 0.0
H966 H 0.82063 0.88505 0.74789 0.0
H967 H 0.83969 0.91587 0.60494 0.0
O968 O 0.74046 0.86007 0.68161 0.0
H969 H 0.68684 0.91287 0.59226 0.0
H970 H 0.67991 0.83882 0.63738 0.0
H971 H 0.64467 0.8635 0.63118 0.0
H972 H 0.648 0.90081 0.60846 0.0
H973 H 0.72167 0.88778 0.59904 0.0
H974 H 0.68036 0.79417 0.56946 0.0
H975 H 0.682 0.75797 0.5941 0.0
O976 O 0.71981 0.83698 0.65696 0.0
C977 C 0.77641 0.82482 0.64446 0.0
C978 C 0.70371 0.77401 0.62075 0.0
C979 C 0.69013 0.79412 0.58586 0.0
N980 N 0.71418 0.81449 0.6141 0.0
C981 C 0.71527 0.79462 0.6277 0.0
C982 C 0.70192 0.8144 0.59335 0.0
C983 C 0.69104 0.77381 0.5997 0.0
C984 C 0.7853 0.90597 0.62773 0.0
N985 N 0.79073 0.88855 0.64347 0.0
C986 C 0.80279 0.91607 0.61365 0.0
C987 C 0.82596 0.9082 0.61575 0.0
C988 C 0.83135 0.89039 0.63181 0.0
C989 C 0.81339 0.88068 0.64558 0.0
C990 C 0.80784 0.90211 0.71649 0.0
C991 C 0.78668 0.85942 0.70583 0.0
C992 C 0.79461 0.89927 0.69592 0.0
N993 N 0.78435 0.87808 0.69076 0.0
C994 C 0.79978 0.8616 0.72657 0.0
C995 C 0.81043 0.88311 0.73188 0.0
C996 C 0.72424 0.84508 0.67741 0.0
C997 C 0.68514 0.89661 0.60212 0.0
C998 C 0.68152 0.85505 0.62751 0.0
C999 C 0.66149 0.86893 0.62402 0.0
C1000 C 0.66337 0.88986 0.61125 0.0
N1001 N 0.70282 0.86178 0.61848 0.0
C1002 C 0.70479 0.88227 0.60593 0.0
Co1003 Co 0.66451 0.22364 0.12422 0.0
Co1004 Co 0.62595 0.26033 0.1537 0.0
O1005 O 0.63574 0.24229 0.12613 0.0
C1006 C 0.66877 0.25795 0.08559 0.0
O1007 O 0.66148 0.27419 0.10036 0.0
C1008 C 0.58551 0.22838 0.14514 0.0
O1009 O 0.59999 0.21032 0.14517 0.0
O1010 O 0.63226 0.23314 0.1751 0.0
O1011 O 0.65905 0.21075 0.1563 0.0
H1012 H 0.63272 0.29127 0.23645 0.0
H1013 H 0.62889 0.22051 0.08613 0.0
O1014 O 0.67069 0.23654 0.09214 0.0
H1015 H 0.63605 0.13977 0.11772 0.0
H1016 H 0.72339 0.17171 0.08287 0.0
H1017 H 0.70362 0.21249 0.15708 0.0
H1018 H 0.66021 0.1721 0.13393 0.0
H1019 H 0.68693 0.19519 0.08615 0.0
O1020 O 0.59307 0.2492 0.14876 0.0
H1021 H 0.64547 0.26878 0.20148 0.0
H1022 H 0.58397 0.29004 0.16446 0.0
H1023 H 0.74015 0.18904 0.15464 0.0
H1024 H 0.60451 0.18867 0.06926 0.0
H1025 H 0.75023 0.16845 0.11732 0.0
H1026 H 0.60799 0.14797 0.08512 0.0
O1027 O 0.68364 0.24966 0.13788 0.0
H1028 H 0.59389 0.29971 0.08104 0.0
H1029 H 0.63854 0.31142 0.15472 0.0
H1030 H 0.6321 0.34514 0.128 0.0
H1031 H 0.60962 0.33939 0.09086 0.0
H1032 H 0.60089 0.26643 0.10816 0.0
H1033 H 0.57046 0.31263 0.19909 0.0
H1034 H 0.59496 0.3134 0.23539 0.0
O1035 O 0.65858 0.27193 0.15894 0.0
C1036 C 0.64629 0.21555 0.17415 0.0
C1037 C 0.62192 0.29113 0.22072 0.0
C1038 C 0.58696 0.30308 0.19976 0.0
N1039 N 0.61557 0.27824 0.18091 0.0
C1040 C 0.62908 0.27848 0.20084 0.0
C1041 C 0.59468 0.29023 0.18022 0.0
C1042 C 0.60072 0.30352 0.22012 0.0
C1043 C 0.63062 0.2028 0.09299 0.0
N1044 N 0.64602 0.19814 0.11091 0.0
C1045 C 0.61672 0.18487 0.08343 0.0
C1046 C 0.61866 0.16204 0.09235 0.0
C1047 C 0.63439 0.15743 0.11066 0.0
C1048 C 0.64798 0.17582 0.1198 0.0
C1049 C 0.71917 0.18057 0.09924 0.0
C1050 C 0.70782 0.20346 0.14083 0.0
C1051 C 0.69858 0.19392 0.10119 0.0
N1052 N 0.69308 0.20503 0.12185 0.0
C1053 C 0.72856 0.19026 0.13953 0.0
C1054 C 0.73422 0.17874 0.11858 0.0
C1055 C 0.67919 0.26688 0.15163 0.0
C1056 C 0.60365 0.30245 0.09721 0.0
C1057 C 0.62877 0.30876 0.13858 0.0
C1058 C 0.62514 0.32794 0.12354 0.0
C1059 C 0.61251 0.3247 0.10271 0.0
N1060 N 0.62001 0.28699 0.13307 0.0
C1061 C 0.60758 0.2837 0.11269 0.0
Co1062 Co 0.23624 0.12071 0.65894 0.0
Co1063 Co 0.27222 0.15515 0.62374 0.0
O1064 O 0.25394 0.12653 0.62989 0.0
C1065 C 0.26866 0.07984 0.65559 0.0
O1066 O 0.28542 0.09386 0.64796 0.0
C1067 C 0.23836 0.15346 0.58406 0.0
O1068 O 0.22182 0.14663 0.59873 0.0
O1069 O 0.24592 0.17571 0.63457 0.0
O1070 O 0.22382 0.15342 0.65867 0.0
H1071 H 0.30521 0.23514 0.64285 0.0
H1072 H 0.2308 0.08819 0.61841 0.0
O1073 O 0.24819 0.08776 0.66012 0.0
H1074 H 0.15133 0.12012 0.63307 0.0
H1075 H 0.18517 0.07252 0.71329 0.0
H1076 H 0.22771 0.14766 0.70291 0.0
H1077 H 0.18486 0.13204 0.65804 0.0
H1078 H 0.20727 0.08054 0.6767 0.0
O1079 O 0.25936 0.1568 0.59115 0.0
H1080 H 0.28253 0.19882 0.65057 0.0
H1081 H 0.30057 0.17232 0.58289 0.0
H1082 H 0.20566 0.14046 0.73971 0.0
H1083 H 0.19772 0.07563 0.59313 0.0
H1084 H 0.1842 0.10265 0.74507 0.0
H1085 H 0.15765 0.09168 0.60037 0.0
O1086 O 0.26335 0.13079 0.67884 0.0
H1087 H 0.30779 0.08871 0.57723 0.0
H1088 H 0.32382 0.15279 0.63379 0.0
H1089 H 0.35635 0.12702 0.62085 0.0
H1090 H 0.34843 0.09473 0.59233 0.0
H1091 H 0.27573 0.11477 0.5908 0.0
H1092 H 0.32328 0.20843 0.57435 0.0
H1093 H 0.32577 0.24011 0.6045 0.0
O1094 O 0.28548 0.15447 0.65612 0.0
C1095 C 0.22853 0.17287 0.64852 0.0
C1096 C 0.30432 0.22142 0.62961 0.0
C1097 C 0.31444 0.20644 0.59115 0.0
N1098 N 0.2904 0.1834 0.61728 0.0
C1099 C 0.29157 0.2008 0.6339 0.0
C1100 C 0.30152 0.18606 0.59607 0.0
C1101 C 0.31583 0.22421 0.60808 0.0
C1102 C 0.21338 0.09509 0.62179 0.0
N1103 N 0.20975 0.11075 0.63973 0.0
C1104 C 0.19473 0.08798 0.60737 0.0
C1105 C 0.17226 0.09703 0.61141 0.0
C1106 C 0.1687 0.113 0.62975 0.0
C1107 C 0.18777 0.11973 0.64379 0.0
C1108 C 0.19442 0.08908 0.71114 0.0
C1109 C 0.21829 0.13123 0.70506 0.0
C1110 C 0.20699 0.0937 0.69048 0.0
N1111 N 0.21862 0.11463 0.68761 0.0
C1112 C 0.20589 0.12722 0.72596 0.0
C1113 C 0.19387 0.10599 0.72896 0.0
C1114 C 0.28097 0.14439 0.67565 0.0
C1115 C 0.31147 0.10276 0.58961 0.0
C1116 C 0.32021 0.13872 0.62145 0.0
C1117 C 0.33872 0.12423 0.61413 0.0
C1118 C 0.33426 0.10612 0.59812 0.0
N1119 N 0.29791 0.13533 0.61299 0.0
C1120 C 0.29341 0.11762 0.59728 0.0
Co1121 Co 0.32572 0.76985 0.12853 0.0
Co1122 Co 0.36247 0.73136 0.1579 0.0
O1123 O 0.35405 0.75045 0.13051 0.0
C1124 C 0.32244 0.73854 0.08719 0.0
O1125 O 0.32864 0.72088 0.10081 0.0
C1126 C 0.40496 0.76105 0.15097 0.0
O1127 O 0.39174 0.78006 0.15116 0.0
O1128 O 0.35739 0.75854 0.17959 0.0
O1129 O 0.33 0.78076 0.16156 0.0
H1130 H 0.35283 0.69968 0.24009 0.0
H1131 H 0.36324 0.77462 0.09253 0.0
O1132 O 0.32076 0.75934 0.09543 0.0
H1133 H 0.35571 0.85347 0.12843 0.0
H1134 H 0.26957 0.82553 0.08818 0.0
H1135 H 0.28532 0.77943 0.16025 0.0
H1136 H 0.33026 0.82071 0.14144 0.0
H1137 H 0.30552 0.80129 0.09152 0.0
O1138 O 0.39592 0.74071 0.15374 0.0
H1139 H 0.34188 0.72337 0.20528 0.0
H1140 H 0.40254 0.69909 0.16876 0.0
H1141 H 0.24925 0.80359 0.15775 0.0
H1142 H 0.38893 0.80693 0.07883 0.0
H1143 H 0.24119 0.82685 0.12151 0.0
H1144 H 0.38529 0.84669 0.09686 0.0
O1145 O 0.30564 0.74326 0.13951 0.0
H1146 H 0.39378 0.6916 0.08515 0.0
H1147 H 0.34727 0.68092 0.15783 0.0
H1148 H 0.35252 0.64737 0.13068 0.0
H1149 H 0.37594 0.65259 0.09405 0.0
H1150 H 0.38792 0.72475 0.11268 0.0
H1151 H 0.41425 0.67528 0.20324 0.0
H1152 H 0.38926 0.67541 0.2392 0.0
O1153 O 0.32926 0.72126 0.16239 0.0
C1154 C 0.34315 0.77596 0.17912 0.0
C1155 C 0.36383 0.69942 0.2245 0.0
C1156 C 0.39831 0.68575 0.20383 0.0
N1157 N 0.37145 0.71246 0.18495 0.0
C1158 C 0.35768 0.71274 0.20472 0.0
C1159 C 0.39162 0.6993 0.18438 0.0
C1160 C 0.38428 0.68582 0.224 0.0
C1161 C 0.36144 0.79191 0.10034 0.0
N1162 N 0.34522 0.79579 0.11771 0.0
C1163 C 0.37608 0.81012 0.09256 0.0
C1164 C 0.37405 0.83241 0.10271 0.0
C1165 C 0.35747 0.83623 0.12043 0.0
C1166 C 0.34315 0.81759 0.12778 0.0
C1167 C 0.27291 0.81551 0.10408 0.0
C1168 C 0.282 0.78963 0.14448 0.0
C1169 C 0.29321 0.80172 0.10605 0.0
N1170 N 0.29759 0.78911 0.12613 0.0
C1171 C 0.26152 0.80322 0.14314 0.0
C1172 C 0.257 0.81625 0.12279 0.0
C1173 C 0.30922 0.72608 0.15356 0.0
C1174 C 0.38359 0.68909 0.10109 0.0
C1175 C 0.35742 0.68337 0.1419 0.0
C1176 C 0.36039 0.66428 0.12662 0.0
C1177 C 0.37355 0.66722 0.10608 0.0
N1178 N 0.36734 0.70477 0.13689 0.0
C1179 C 0.38029 0.70777 0.1168 0.0
Co1180 Co 0.72498 0.16706 0.37227 0.0
Co1181 Co 0.76078 0.13123 0.33918 0.0
O1182 O 0.74251 0.138 0.36737 0.0
C1183 C 0.75529 0.16274 0.41434 0.0
O1184 O 0.77355 0.16037 0.40033 0.0
C1185 C 0.72921 0.08997 0.34353 0.0
O1186 O 0.711 0.10424 0.34395 0.0
O1187 O 0.73348 0.13918 0.31869 0.0
O1188 O 0.71458 0.16767 0.33871 0.0
H1189 H 0.79139 0.14626 0.25741 0.0
H1190 H 0.71664 0.12558 0.4031 0.0
O1191 O 0.73486 0.16657 0.4059 0.0
H1192 H 0.63957 0.14347 0.36715 0.0
H1193 H 0.67255 0.22168 0.41856 0.0
H1194 H 0.71889 0.21166 0.34568 0.0
H1195 H 0.67434 0.16791 0.35806 0.0
H1196 H 0.69429 0.18473 0.4111 0.0
O1197 O 0.75002 0.09795 0.34101 0.0
H1198 H 0.76884 0.15533 0.29347 0.0
H1199 H 0.79097 0.09082 0.32445 0.0
H1200 H 0.69729 0.24883 0.35234 0.0
H1201 H 0.68228 0.10082 0.41284 0.0
H1202 H 0.67391 0.254 0.38901 0.0
H1203 H 0.6434 0.10967 0.39477 0.0
O1204 O 0.75307 0.18635 0.3641 0.0
H1205 H 0.80045 0.09288 0.40855 0.0
H1206 H 0.81176 0.14422 0.33926 0.0
H1207 H 0.84554 0.13551 0.36519 0.0
H1208 H 0.84 0.10964 0.40011 0.0
H1209 H 0.76711 0.10221 0.38227 0.0
H1210 H 0.81363 0.08095 0.28865 0.0
H1211 H 0.814 0.10883 0.25485 0.0
O1212 O 0.77207 0.16442 0.33715 0.0
C1213 C 0.71773 0.15515 0.3203 0.0
C1214 C 0.79144 0.13401 0.27205 0.0
C1215 C 0.80389 0.09734 0.28958 0.0
N1216 N 0.77878 0.12373 0.31111 0.0
C1217 C 0.77876 0.13908 0.29254 0.0
C1218 C 0.791 0.103 0.30978 0.0
C1219 C 0.8041 0.11299 0.27062 0.0
C1220 C 0.69975 0.12968 0.39531 0.0
N1221 N 0.6975 0.14825 0.3801 0.0
C1222 C 0.68037 0.11554 0.40083 0.0
C1223 C 0.65857 0.12049 0.39066 0.0
C1224 C 0.65641 0.13945 0.37515 0.0
C1225 C 0.67618 0.15319 0.37002 0.0
C1226 C 0.68264 0.21961 0.4025 0.0
C1227 C 0.70863 0.21374 0.3616 0.0
C1228 C 0.69502 0.19876 0.3982 0.0
N1229 N 0.70768 0.196 0.37788 0.0
C1230 C 0.69649 0.23484 0.36531 0.0
C1231 C 0.6834 0.23774 0.3859 0.0
C1232 C 0.76911 0.18353 0.34859 0.0
C1233 C 0.8031 0.10412 0.39335 0.0
C1234 C 0.80918 0.13301 0.35445 0.0
C1235 C 0.82839 0.12809 0.36904 0.0
C1236 C 0.82528 0.11356 0.38862 0.0
N1237 N 0.78749 0.12366 0.35918 0.0
C1238 C 0.7843 0.10939 0.37835 0.0
Co1239 Co 0.36974 0.25886 0.83795 0.0
Co1240 Co 0.33345 0.22129 0.86904 0.0
O1241 O 0.36148 0.24102 0.86622 0.0
C1242 C 0.41271 0.23046 0.84709 0.0
O1243 O 0.39983 0.21123 0.84771 0.0
C1244 C 0.32976 0.254 0.90938 0.0
O1245 O 0.33599 0.27134 0.89536 0.0
O1246 O 0.31297 0.24707 0.85691 0.0
O1247 O 0.33633 0.26798 0.83274 0.0
H1248 H 0.25751 0.18523 0.84122 0.0
H1249 H 0.39477 0.26821 0.88294 0.0
O1250 O 0.40338 0.25041 0.84284 0.0
H1251 H 0.35806 0.34389 0.86086 0.0
H1252 H 0.42085 0.31357 0.79022 0.0
H1253 H 0.34921 0.26433 0.79015 0.0
H1254 H 0.35356 0.3089 0.83544 0.0
H1255 H 0.40935 0.29122 0.82573 0.0
O1256 O 0.3283 0.23297 0.9017 0.0
H1257 H 0.2932 0.20982 0.83775 0.0
H1258 H 0.31374 0.19101 0.90729 0.0
H1259 H 0.35996 0.28652 0.75432 0.0
H1260 H 0.3999 0.30282 0.90876 0.0
H1261 H 0.39602 0.31137 0.75421 0.0
H1262 H 0.3814 0.34098 0.8978 0.0
O1263 O 0.36521 0.23059 0.81749 0.0
H1264 H 0.39733 0.1873 0.9201 0.0
H1265 H 0.33871 0.17 0.85831 0.0
H1266 H 0.36471 0.13821 0.8726 0.0
H1267 H 0.39426 0.14678 0.90376 0.0
H1268 H 0.3711 0.21861 0.90513 0.0
H1269 H 0.27816 0.16638 0.91159 0.0
H1270 H 0.2498 0.16329 0.87836 0.0
O1271 O 0.33784 0.20918 0.8365 0.0
C1272 C 0.31631 0.26333 0.84173 0.0
C1273 C 0.26977 0.18637 0.8558 0.0
C1274 C 0.28134 0.17581 0.89531 0.0
N1275 N 0.30562 0.20169 0.87222 0.0
C1276 C 0.29004 0.20021 0.85391 0.0
C1277 C 0.30143 0.18982 0.89278 0.0
C1278 C 0.26545 0.17408 0.87665 0.0
C1279 C 0.38686 0.28481 0.87793 0.0
N1280 N 0.37395 0.28653 0.85765 0.0
C1281 C 0.38974 0.30432 0.89267 0.0
C1282 C 0.37933 0.32572 0.88653 0.0
C1283 C 0.36621 0.32735 0.86582 0.0
C1284 C 0.36367 0.30746 0.85152 0.0
C1285 C 0.40508 0.30283 0.79006 0.0
C1286 C 0.36486 0.2752 0.79028 0.0
C1287 C 0.39851 0.2901 0.81009 0.0
N1288 N 0.37854 0.2766 0.81005 0.0
C1289 C 0.37089 0.28768 0.76992 0.0
C1290 C 0.39113 0.3016 0.76986 0.0
C1291 C 0.35088 0.21327 0.81869 0.0
C1292 C 0.3845 0.18334 0.90655 0.0
C1293 C 0.35159 0.17388 0.87177 0.0
C1294 C 0.36622 0.1558 0.87986 0.0
C1295 C 0.38279 0.16061 0.89735 0.0
N1296 N 0.35336 0.19612 0.8809 0.0
C1297 C 0.36955 0.20097 0.89806 0.0
Co1298 Co 0.27219 0.82879 0.37392 0.0
Co1299 Co 0.24022 0.87059 0.34366 0.0
O1300 O 0.25595 0.85901 0.37192 0.0
C1301 C 0.23743 0.82718 0.41244 0.0
O1302 O 0.22166 0.8352 0.39753 0.0
C1303 C 0.27275 0.91031 0.3545 0.0
O1304 O 0.29093 0.89607 0.35297 0.0
O1305 O 0.26863 0.86409 0.32406 0.0
O1306 O 0.28591 0.83322 0.34197 0.0
H1307 H 0.21541 0.86857 0.25861 0.0
H1308 H 0.27785 0.86413 0.41201 0.0
O1309 O 0.25861 0.82371 0.4059 0.0
H1310 H 0.358 0.85011 0.3815 0.0
H1311 H 0.31858 0.76567 0.41569 0.0
H1312 H 0.2803 0.78887 0.34113 0.0
H1313 H 0.32399 0.82874 0.36487 0.0
H1314 H 0.29834 0.80403 0.41222 0.0
O1315 O 0.25192 0.90286 0.35091 0.0
H1316 H 0.23475 0.85349 0.29453 0.0
H1317 H 0.21274 0.91406 0.33268 0.0
H1318 H 0.30051 0.75044 0.34376 0.0
H1319 H 0.31138 0.88577 0.42928 0.0
H1320 H 0.31983 0.73863 0.38126 0.0
H1321 H 0.3518 0.87883 0.41399 0.0
O1322 O 0.24482 0.81195 0.35991 0.0
H1323 H 0.19677 0.90115 0.41459 0.0
H1324 H 0.18897 0.85997 0.3384 0.0
H1325 H 0.15366 0.86665 0.36282 0.0
H1326 H 0.15742 0.88741 0.40121 0.0
H1327 H 0.23167 0.89391 0.38973 0.0
H1328 H 0.19329 0.92988 0.29713 0.0
H1329 H 0.19448 0.90704 0.25978 0.0
O1330 O 0.22788 0.83865 0.3361 0.0
C1331 C 0.28403 0.84768 0.32486 0.0
C1332 C 0.2147 0.87866 0.2748 0.0
C1333 C 0.20232 0.91308 0.29641 0.0
N1334 N 0.22472 0.88279 0.31572 0.0
C1335 C 0.22557 0.87018 0.29521 0.0
C1336 C 0.2134 0.90406 0.31647 0.0
C1337 C 0.20298 0.90025 0.27546 0.0
C1338 C 0.29541 0.8609 0.40537 0.0
N1339 N 0.29897 0.84511 0.38753 0.0
C1340 C 0.31431 0.87326 0.41517 0.0
C1341 C 0.33698 0.86937 0.40656 0.0
C1342 C 0.34047 0.85327 0.38833 0.0
C1343 C 0.32114 0.84127 0.37894 0.0
C1344 C 0.31027 0.77064 0.39925 0.0
C1345 C 0.2888 0.78391 0.35745 0.0
C1346 C 0.29874 0.79231 0.39719 0.0
N1347 N 0.28832 0.79874 0.37643 0.0
C1348 C 0.30016 0.7621 0.35886 0.0
C1349 C 0.31097 0.75548 0.37992 0.0
C1350 C 0.22987 0.81779 0.34417 0.0
C1351 C 0.19489 0.89216 0.39786 0.0
C1352 C 0.19078 0.86896 0.3551 0.0
C1353 C 0.1707 0.87274 0.36883 0.0
C1354 C 0.17283 0.88441 0.39036 0.0
N1355 N 0.21236 0.87663 0.36257 0.0
C1356 C 0.21457 0.8881 0.38365 0.0
Co1357 Co 0.62108 0.72198 0.83004 0.0
Co1358 Co 0.65528 0.75713 0.86555 0.0
O1359 O 0.6266 0.73973 0.85884 0.0
C1360 C 0.58108 0.75486 0.83318 0.0
O1361 O 0.59641 0.77213 0.83473 0.0
C1362 C 0.64965 0.72652 0.90754 0.0
O1363 O 0.64866 0.7079 0.89381 0.0
O1364 O 0.67492 0.72909 0.85788 0.0
O1365 O 0.65414 0.71014 0.8299 0.0
H1366 H 0.73795 0.78506 0.85045 0.0
H1367 H 0.58943 0.71592 0.87129 0.0
O1368 O 0.58799 0.7337 0.83014 0.0
H1369 H 0.62203 0.63688 0.85544 0.0
H1370 H 0.57254 0.67078 0.77623 0.0
H1371 H 0.6477 0.71338 0.78585 0.0
H1372 H 0.63303 0.67076 0.83047 0.0
H1373 H 0.58084 0.69306 0.81268 0.0
O1374 O 0.65298 0.74698 0.89899 0.0
H1375 H 0.70126 0.76351 0.84151 0.0
H1376 H 0.67083 0.7874 0.90564 0.0
H1377 H 0.64022 0.69119 0.7492 0.0
H1378 H 0.5778 0.6825 0.89657 0.0
H1379 H 0.6024 0.66968 0.74422 0.0
H1380 H 0.59418 0.64263 0.88874 0.0
O1381 O 0.63091 0.74917 0.81009 0.0
H1382 H 0.58679 0.79934 0.90264 0.0
H1383 H 0.65698 0.80803 0.85213 0.0
H1384 H 0.63197 0.84269 0.86008 0.0
H1385 H 0.59659 0.83846 0.88552 0.0
H1386 H 0.61218 0.76511 0.89407 0.0
H1387 H 0.70726 0.80907 0.91535 0.0
H1388 H 0.74111 0.80805 0.8876 0.0
O1389 O 0.65783 0.76784 0.83231 0.0
C1390 C 0.67282 0.71321 0.84204 0.0
C1391 C 0.7233 0.7857 0.86265 0.0
C1392 C 0.70608 0.79915 0.89909 0.0
N1393 N 0.68387 0.77435 0.87295 0.0
C1394 C 0.70246 0.77359 0.85765 0.0
C1395 C 0.68552 0.7868 0.89352 0.0
C1396 C 0.72506 0.79857 0.88351 0.0
C1397 C 0.59648 0.6986 0.86764 0.0
N1398 N 0.61179 0.69528 0.84934 0.0
C1399 C 0.5899 0.67975 0.88207 0.0
C1400 C 0.59912 0.6574 0.87769 0.0
C1401 C 0.61475 0.65416 0.85902 0.0
C1402 C 0.62096 0.67342 0.84497 0.0
C1403 C 0.5891 0.68005 0.77821 0.0
C1404 C 0.63126 0.70395 0.78387 0.0
C1405 C 0.59387 0.69273 0.79878 0.0
N1406 N 0.6148 0.70435 0.80144 0.0
C1407 C 0.6271 0.69147 0.76305 0.0
C1408 C 0.60587 0.67943 0.76026 0.0
C1409 C 0.64692 0.76471 0.81294 0.0
C1410 C 0.6022 0.80142 0.89158 0.0
C1411 C 0.64159 0.80603 0.86316 0.0
C1412 C 0.62752 0.82573 0.86765 0.0
C1413 C 0.60768 0.82336 0.88194 0.0
N1414 N 0.63611 0.78457 0.87269 0.0
C1415 C 0.6167 0.78212 0.88674 0.0
H1416 H 0.13537 0.55667 0.27145 0.0
H1417 H 0.15125 0.43879 0.19592 0.0
H1418 H 0.1464 0.55899 0.19613 0.0
H1419 H 0.15801 0.44408 0.27164 0.0
H1420 H 0.14484 0.48173 0.19418 0.0
H1421 H 0.13766 0.51405 0.27022 0.0
C1422 C 0.13822 0.54818 0.25457 0.0
C1423 C 0.14108 0.56143 0.2339 0.0
C1424 C 0.14778 0.47335 0.21109 0.0
C1425 C 0.14391 0.51233 0.2324 0.0
C1426 C 0.15147 0.44893 0.21211 0.0
C1427 C 0.15528 0.43784 0.23394 0.0
C1428 C 0.14765 0.48651 0.23208 0.0
C1429 C 0.15527 0.45177 0.25437 0.0
C1430 C 0.13958 0.52378 0.25389 0.0
C1431 C 0.14428 0.54938 0.21249 0.0
N1432 N 0.15146 0.47526 0.25291 0.0
N1433 N 0.14583 0.52539 0.21229 0.0
H1434 H 0.93775 0.65725 0.68754 0.0
H1435 H 0.05399 0.62876 0.76157 0.0
H1436 H 0.94254 0.65465 0.76355 0.0
H1437 H 0.05815 0.6532 0.68957 0.0
H1438 H 0.01138 0.63048 0.75942 0.0
H1439 H 0.98048 0.64978 0.6853 0.0
C1440 C 0.94774 0.65516 0.70369 0.0
C1441 C 0.9366 0.65673 0.72576 0.0
C1442 C 0.02152 0.63541 0.744 0.0
C1443 C 0.98494 0.6478 0.72327 0.0
C1444 C 0.04588 0.63438 0.74519 0.0
C1445 C 0.0596 0.64128 0.72585 0.0
C1446 C 0.01062 0.64358 0.72336 0.0
C1447 C 0.04813 0.64792 0.70493 0.0
C1448 C 0.97202 0.65088 0.70237 0.0
C1449 C 0.9503 0.65378 0.74613 0.0
N1450 N 0.02415 0.6492 0.70429 0.0
N1451 N 0.97364 0.64941 0.74435 0.0
H1452 H 0.83703 0.43922 0.19406 0.0
H1453 H 0.86576 0.55888 0.26236 0.0
H1454 H 0.84162 0.44745 0.26967 0.0
H1455 H 0.83733 0.55994 0.19176 0.0
H1456 H 0.86581 0.51612 0.26143 0.0
H1457 H 0.84403 0.48194 0.18969 0.0
C1458 C 0.83947 0.44995 0.20967 0.0
C1459 C 0.83854 0.43982 0.23226 0.0
C1460 C 0.85966 0.52562 0.24604 0.0
C1461 C 0.84701 0.48807 0.22736 0.0
C1462 C 0.85968 0.55004 0.24654 0.0
C1463 C 0.85107 0.56287 0.22728 0.0
C1464 C 0.85073 0.5138 0.22624 0.0
C1465 C 0.84391 0.55056 0.20704 0.0
C1466 C 0.84349 0.47421 0.20715 0.0
C1467 C 0.84195 0.45443 0.2519 0.0
N1468 N 0.84354 0.52653 0.20713 0.0
N1469 N 0.84607 0.47772 0.24896 0.0
H1470 H 0.05968 0.35383 0.6892 0.0
H1471 H 0.94102 0.30525 0.74731 0.0
H1472 H 0.05538 0.30884 0.75049 0.0
H1473 H 0.94047 0.35415 0.68898 0.0
H1474 H 0.98345 0.30197 0.74388 0.0
H1475 H 0.01667 0.35031 0.68438 0.0
C1476 C 0.04974 0.34303 0.70143 0.0
C1477 C 0.06096 0.3319 0.72047 0.0
C1478 C 0.97419 0.31336 0.73166 0.0
C1479 C 0.01225 0.3277 0.71503 0.0
C1480 C 0.94992 0.31524 0.73365 0.0
C1481 C 0.93736 0.33028 0.71864 0.0
C1482 C 0.98619 0.32692 0.71478 0.0
C1483 C 0.94966 0.34246 0.70096 0.0
C1484 C 0.02528 0.34106 0.6987 0.0
C1485 C 0.0474 0.31808 0.7358 0.0
N1486 N 0.97358 0.34082 0.69972 0.0
N1487 N 0.02382 0.31649 0.73279 0.0
H1488 H 0.14407 0.43253 0.79161 0.0
H1489 H 0.19546 0.55021 0.7337 0.0
H1490 H 0.1881 0.43575 0.72961 0.0
H1491 H 0.14629 0.55149 0.79173 0.0
H1492 H 0.19801 0.50762 0.73715 0.0
H1493 H 0.14914 0.47536 0.79666 0.0
C1494 C 0.155 0.44219 0.77927 0.0
C1495 C 0.1654 0.43073 0.75997 0.0
C1496 C 0.18676 0.51711 0.74931 0.0
C1497 C 0.17136 0.47927 0.76567 0.0
C1498 C 0.18531 0.54146 0.74732 0.0
C1499 C 0.17037 0.55426 0.76222 0.0
C1500 C 0.17286 0.50532 0.76607 0.0
C1501 C 0.15793 0.54213 0.77984 0.0
C1502 C 0.15785 0.46656 0.78213 0.0
C1503 C 0.17941 0.44395 0.7445 0.0
N1504 N 0.15915 0.51818 0.78106 0.0
N1505 N 0.18186 0.46746 0.74764 0.0
H1506 H 0.93321 0.65611 0.29606 0.0
H1507 H 0.05162 0.70174 0.23631 0.0
H1508 H 0.93725 0.70039 0.23427 0.0
H1509 H 0.05125 0.65395 0.29553 0.0
H1510 H 0.00951 0.7076 0.24108 0.0
H1511 H 0.97591 0.6608 0.30154 0.0
C1512 C 0.94302 0.66712 0.28393 0.0
C1513 C 0.93189 0.67755 0.26445 0.0
C1514 C 0.01855 0.69598 0.25324 0.0
C1515 C 0.98031 0.68301 0.27059 0.0
C1516 C 0.0426 0.69262 0.25049 0.0
C1517 C 0.0547 0.67702 0.26529 0.0
C1518 C 0.00635 0.68325 0.27063 0.0
C1519 C 0.04237 0.66599 0.28366 0.0
C1520 C 0.96733 0.66975 0.28702 0.0
C1521 C 0.94526 0.69168 0.24925 0.0
N1522 N 0.01865 0.66897 0.28557 0.0
N1523 N 0.96877 0.69382 0.25255 0.0
H1524 H 0.84044 0.55858 0.79124 0.0
H1525 H 0.85246 0.44174 0.71319 0.0
H1526 H 0.84731 0.55623 0.71541 0.0
H1527 H 0.84112 0.4388 0.78844 0.0
H1528 H 0.85434 0.48426 0.71535 0.0
H1529 H 0.84389 0.51527 0.79222 0.0
C1530 C 0.84275 0.54901 0.77488 0.0
C1531 C 0.84329 0.56099 0.7532 0.0
C1532 C 0.85145 0.47447 0.73149 0.0
C1533 C 0.8474 0.51189 0.7542 0.0
C1534 C 0.85033 0.45009 0.73025 0.0
C1535 C 0.84628 0.43672 0.75063 0.0
C1536 C 0.84829 0.48582 0.75325 0.0
C1537 C 0.84412 0.44853 0.77229 0.0
C1538 C 0.84471 0.52437 0.77545 0.0
C1539 C 0.84644 0.54781 0.73253 0.0
N1540 N 0.84492 0.47254 0.77304 0.0
N1541 N 0.84831 0.52408 0.73358 0.0
H1542 H 0.94024 0.36307 0.23075 0.0
H1543 H 0.0592 0.33933 0.30244 0.0
H1544 H 0.9394 0.33916 0.30303 0.0
H1545 H 0.05397 0.35185 0.22748 0.0
H1546 H 0.01617 0.34435 0.30559 0.0
H1547 H 0.98279 0.36522 0.23218 0.0
C1548 C 0.94908 0.3583 0.24701 0.0
C1549 C 0.93634 0.3505 0.26668 0.0
C1550 C 0.02459 0.34607 0.28854 0.0
C1551 C 0.98538 0.35263 0.26838 0.0
C1552 C 0.04906 0.34322 0.28673 0.0
C1553 C 0.06009 0.34487 0.26462 0.0
C1554 C 0.01138 0.35088 0.26814 0.0
C1555 C 0.04623 0.35007 0.24484 0.0
C1556 C 0.97344 0.35953 0.24783 0.0
C1557 C 0.94868 0.34507 0.28744 0.0
N1558 N 0.02269 0.35282 0.2471 0.0
N1559 N 0.97268 0.34592 0.28768 0.0
H1560 H 0.20298 0.13462 0.55654 0.0
H1561 H 0.2594 0.19146 0.44072 0.0
H1562 H 0.26179 0.18287 0.55488 0.0
H1563 H 0.20413 0.1393 0.43752 0.0
H1564 H 0.25493 0.19323 0.48323 0.0
H1565 H 0.19801 0.14024 0.51372 0.0
C1566 C 0.21461 0.14658 0.54722 0.0
C1567 C 0.23307 0.15799 0.55907 0.0
C1568 C 0.24359 0.18147 0.47335 0.0
C1569 C 0.22745 0.16459 0.51062 0.0
C1570 C 0.24616 0.18047 0.44904 0.0
C1571 C 0.23236 0.16496 0.43574 0.0
C1572 C 0.22738 0.16651 0.48459 0.0
C1573 C 0.21518 0.15141 0.4473 0.0
C1574 C 0.2118 0.14975 0.52287 0.0
C1575 C 0.24762 0.17335 0.54634 0.0
N1576 N 0.21342 0.15219 0.47124 0.0
N1577 N 0.24456 0.17608 0.52285 0.0
H1578 H 0.33876 0.70299 0.93997 0.0
H1579 H 0.29639 0.76618 0.0583 0.0
H1580 H 0.29907 0.76786 0.94333 0.0
H1581 H 0.33853 0.70281 0.05862 0.0
H1582 H 0.29254 0.7631 0.0158 0.0
H1583 H 0.33453 0.69883 0.98291 0.0
C1584 C 0.32891 0.71615 0.94969 0.0
C1585 C 0.31952 0.73596 0.93821 0.0
C1586 C 0.30252 0.74972 0.02507 0.0
C1587 C 0.31462 0.73134 0.98695 0.0
C1588 C 0.30475 0.75151 0.04937 0.0
C1589 C 0.31809 0.73492 0.06188 0.0
C1590 C 0.314 0.73139 0.01303 0.0
C1591 C 0.3282 0.71603 0.04951 0.0
C1592 C 0.32655 0.7138 0.97414 0.0
C1593 C 0.30691 0.7525 0.95153 0.0
N1594 N 0.32623 0.71494 0.02561 0.0
N1595 N 0.30498 0.74988 0.97516 0.0
H1596 H 0.79605 0.84334 0.4337 0.0
H1597 H 0.72817 0.87027 0.55417 0.0
H1598 H 0.72101 0.85363 0.4412 0.0
H1599 H 0.79931 0.84337 0.55365 0.0
H1600 H 0.72875 0.872 0.51148 0.0
H1601 H 0.80051 0.84962 0.47647 0.0
C1602 C 0.78059 0.84698 0.44429 0.0
C1603 C 0.7581 0.84768 0.43397 0.0
C1604 C 0.74434 0.86581 0.52059 0.0
C1605 C 0.76311 0.85522 0.48237 0.0
C1606 C 0.74403 0.86485 0.545 0.0
C1607 C 0.76357 0.85624 0.55737 0.0
C1608 C 0.76423 0.8578 0.50828 0.0
C1609 C 0.78382 0.84994 0.54464 0.0
C1610 C 0.78316 0.85057 0.46859 0.0
C1611 C 0.73866 0.8526 0.44839 0.0
N1612 N 0.78354 0.8505 0.52062 0.0
N1613 N 0.74165 0.85615 0.47177 0.0
H1614 H 0.69712 0.23401 0.05554 0.0
H1615 H 0.65318 0.3034 0.94177 0.0
H1616 H 0.6525 0.29551 0.05975 0.0
H1617 H 0.69922 0.24283 0.94108 0.0
H1618 H 0.65723 0.30526 0.9849 0.0
H1619 H 0.70269 0.2413 0.01372 0.0
C1620 C 0.68859 0.24917 0.04762 0.0
C1621 C 0.67404 0.26398 0.06096 0.0
C1622 C 0.66672 0.29182 0.97521 0.0
C1623 C 0.68007 0.27234 0.01291 0.0
C1624 C 0.66448 0.29082 0.95066 0.0
C1625 C 0.67555 0.27268 0.93803 0.0
C1626 C 0.6802 0.27461 0.98693 0.0
C1627 C 0.69 0.25682 0.95025 0.0
C1628 C 0.69182 0.25339 0.02372 0.0
C1629 C 0.66374 0.2836 0.04995 0.0
N1630 N 0.69171 0.25803 0.974 0.0
N1631 N 0.66664 0.28703 0.02638 0.0
H1632 H 0.20131 0.84684 0.43808 0.0
H1633 H 0.25569 0.79752 0.55801 0.0
H1634 H 0.25999 0.7987 0.4434 0.0
H1635 H 0.20034 0.84967 0.55671 0.0
H1636 H 0.25187 0.79275 0.51567 0.0
H1637 H 0.19542 0.84348 0.48092 0.0
C1638 C 0.21267 0.83529 0.4482 0.0
C1639 C 0.23137 0.82329 0.43735 0.0
C1640 C 0.24038 0.80515 0.52453 0.0
C1641 C 0.22477 0.81936 0.48594 0.0
C1642 C 0.24259 0.80789 0.54874 0.0
C1643 C 0.22858 0.82431 0.56071 0.0
C1644 C 0.22431 0.81922 0.51203 0.0
C1645 C 0.21156 0.83694 0.54798 0.0
C1646 C 0.20935 0.83344 0.47259 0.0
C1647 C 0.2456 0.80857 0.45115 0.0
N1648 N 0.21015 0.83443 0.52413 0.0
N1649 N 0.24209 0.80716 0.4747 0.0
H1650 H 0.65273 0.68746 0.05615 0.0
H1651 H 0.63631 0.7613 0.93717 0.0
H1652 H 0.64186 0.76273 0.05144 0.0
H1653 H 0.65483 0.68744 0.93625 0.0
H1654 H 0.63345 0.75985 0.97964 0.0
H1655 H 0.64945 0.68498 0.01288 0.0
C1656 C 0.64955 0.70338 0.04607 0.0
C1657 C 0.64785 0.72536 0.05735 0.0
C1658 C 0.63814 0.74386 0.97031 0.0
C1659 C 0.64391 0.72263 0.00833 0.0
C1660 C 0.6398 0.74469 0.94596 0.0
C1661 C 0.64622 0.72454 0.9332 0.0
C1662 C 0.64316 0.72277 0.98225 0.0
C1663 C 0.65002 0.70341 0.94554 0.0
C1664 C 0.6477 0.70195 0.02146 0.0
C1665 C 0.64363 0.74543 0.04355 0.0
N1666 N 0.6487 0.7031 0.96954 0.0
N1667 N 0.64187 0.74355 0.01986 0.0
H1668 H 0.72066 0.13404 0.55779 0.0
H1669 H 0.79572 0.15853 0.44118 0.0
H1670 H 0.79375 0.15486 0.56153 0.0
H1671 H 0.71972 0.15763 0.4458 0.0
H1672 H 0.7977 0.15125 0.48399 0.0
H1673 H 0.72282 0.13504 0.51514 0.0
C1674 C 0.73726 0.13873 0.54957 0.0
C1675 C 0.75695 0.14482 0.56317 0.0
C1676 C 0.78069 0.15266 0.47547 0.0
C1677 C 0.75946 0.14631 0.51414 0.0
C1678 C 0.77952 0.15684 0.45114 0.0
C1679 C 0.75753 0.15888 0.43995 0.0
C1680 C 0.7597 0.15018 0.48838 0.0
C1681 C 0.73709 0.15641 0.45361 0.0
C1682 C 0.73847 0.13934 0.52518 0.0
C1683 C 0.77813 0.15024 0.55158 0.0
N1684 N 0.73872 0.15217 0.477 0.0
N1685 N 0.77879 0.15117 0.52758 0.0
H1686 H 0.34508 0.29035 0.05663 0.0
H1687 H 0.30222 0.22775 0.93808 0.0
H1688 H 0.30495 0.22577 0.05289 0.0
H1689 H 0.3466 0.28957 0.93778 0.0
H1690 H 0.29804 0.23124 0.9805 0.0
H1691 H 0.34127 0.29453 0.01362 0.0
C1692 C 0.33523 0.27726 0.04681 0.0
C1693 C 0.32558 0.25752 0.05821 0.0
C1694 C 0.30859 0.24421 0.97126 0.0
C1695 C 0.32113 0.26219 0.00941 0.0
C1696 C 0.31099 0.24219 0.947 0.0
C1697 C 0.32507 0.25819 0.93453 0.0
C1698 C 0.32064 0.26216 0.98332 0.0
C1699 C 0.33569 0.27681 0.94688 0.0
C1700 C 0.33311 0.27962 0.02233 0.0
C1701 C 0.313 0.24107 0.04477 0.0
N1702 N 0.33355 0.27811 0.97077 0.0
N1703 N 0.31126 0.24372 0.02112 0.0
H1704 H 0.55875 0.18798 0.14973 0.0
H1705 H 0.43991 0.26085 0.13002 0.0
H1706 H 0.55445 0.26165 0.13092 0.0
H1707 H 0.43945 0.18796 0.15206 0.0
H1708 H 0.48224 0.25895 0.12535 0.0
H1709 H 0.51558 0.18519 0.14613 0.0
C1710 C 0.54877 0.20344 0.14461 0.0
C1711 C 0.56009 0.22516 0.14099 0.0
C1712 C 0.47303 0.24325 0.13113 0.0
C1713 C 0.51115 0.2221 0.13675 0.0
C1714 C 0.44878 0.24436 0.13386 0.0
C1715 C 0.43622 0.22463 0.14182 0.0
C1716 C 0.48505 0.22235 0.13671 0.0
C1717 C 0.44859 0.20361 0.14605 0.0
C1718 C 0.52421 0.20186 0.1426 0.0
C1719 C 0.54645 0.24464 0.1343 0.0
N1720 N 0.47249 0.20308 0.14375 0.0
N1721 N 0.52277 0.24265 0.13253 0.0
H1722 H 0.55754 0.79738 0.83449 0.0
H1723 H 0.43683 0.73458 0.87 0.0
H1724 H 0.54721 0.72225 0.84194 0.0
H1725 H 0.4373 0.80373 0.83811 0.0
H1726 H 0.47955 0.73386 0.86846 0.0
H1727 H 0.51531 0.80333 0.84262 0.0
C1728 C 0.54643 0.78219 0.8378 0.0
C1729 C 0.55583 0.75927 0.83735 0.0
C1730 C 0.47039 0.7493 0.86192 0.0
C1731 C 0.50809 0.766 0.8471 0.0
C1732 C 0.44599 0.74976 0.86286 0.0
C1733 C 0.43355 0.76906 0.85374 0.0
C1734 C 0.48257 0.76819 0.85162 0.0
C1735 C 0.44633 0.78845 0.84515 0.0
C1736 C 0.52245 0.78562 0.84245 0.0
C1737 C 0.54075 0.74022 0.84187 0.0
N1738 N 0.47029 0.78741 0.84397 0.0
N1739 N 0.51772 0.74404 0.84661 0.0
H1740 H 0.68558 0.94262 0.33664 0.0
H1741 H 0.76234 0.05895 0.35785 0.0
H1742 H 0.76112 0.94542 0.34572 0.0
H1743 H 0.68952 0.06278 0.33613 0.0
H1744 H 0.75939 0.01646 0.35953 0.0
H1745 H 0.68415 0.98586 0.34143 0.0
C1746 C 0.70177 0.95227 0.33971 0.0
C1747 C 0.72352 0.94048 0.34049 0.0
C1748 C 0.74395 0.02645 0.35439 0.0
C1749 C 0.72197 0.98937 0.34624 0.0
C1750 C 0.74565 0.05079 0.35342 0.0
C1751 C 0.72626 0.06435 0.34641 0.0
C1752 C 0.72278 0.01536 0.34804 0.0
C1753 C 0.70493 0.05284 0.3414 0.0
C1754 C 0.70094 0.97684 0.34242 0.0
C1755 C 0.74396 0.95371 0.34463 0.0
N1756 N 0.70379 0.02883 0.34203 0.0
N1757 N 0.74265 0.97733 0.3473 0.0
H1758 H 0.44282 0.19217 0.84599 0.0
H1759 H 0.55527 0.27549 0.86285 0.0
H1760 H 0.44084 0.26727 0.85849 0.0
H1761 H 0.56178 0.20105 0.84818 0.0
H1762 H 0.51291 0.27098 0.86545 0.0
H1763 H 0.48597 0.19323 0.85057 0.0
C1764 C 0.45141 0.20878 0.84988 0.0
C1765 C 0.4383 0.22971 0.85151 0.0
C1766 C 0.52348 0.25552 0.86173 0.0
C1767 C 0.48724 0.23104 0.85685 0.0
C1768 C 0.54775 0.25812 0.8602 0.0
C1769 C 0.56203 0.23867 0.85496 0.0
C1770 C 0.51322 0.23334 0.85775 0.0
C1771 C 0.55132 0.21652 0.85211 0.0
C1772 C 0.47597 0.20938 0.85246 0.0
C1773 C 0.45022 0.25074 0.85668 0.0
N1774 N 0.52743 0.21447 0.85328 0.0
N1775 N 0.47393 0.25085 0.85904 0.0
H1776 H 0.24112 0.93934 0.37501 0.0
H1777 H 0.31006 0.05866 0.34533 0.0
H1778 H 0.31096 0.93883 0.34492 0.0
H1779 H 0.23539 0.05257 0.35864 0.0
H1780 H 0.31407 0.01589 0.35205 0.0
H1781 H 0.24272 0.98203 0.37736 0.0
C1782 C 0.25694 0.94828 0.36907 0.0
C1783 C 0.27578 0.93563 0.35935 0.0
C1784 C 0.2969 0.02407 0.35362 0.0
C1785 C 0.27758 0.9847 0.3616 0.0
C1786 C 0.2946 0.04838 0.3498 0.0
C1787 C 0.27232 0.05907 0.35113 0.0
C1788 C 0.27682 0.01066 0.35914 0.0
C1789 C 0.25286 0.04506 0.35708 0.0
C1790 C 0.25783 0.97268 0.37037 0.0
C1791 C 0.29601 0.94804 0.35237 0.0
N1792 N 0.25559 0.02166 0.36081 0.0
N1793 N 0.29626 0.97206 0.35327 0.0
H1794 H 0.54806 0.7177 0.15225 0.0
H1795 H 0.43414 0.79966 0.15668 0.0
H1796 H 0.55388 0.7936 0.15576 0.0
H1797 H 0.43443 0.72557 0.13901 0.0
H1798 H 0.47756 0.79924 0.15623 0.0
H1799 H 0.50586 0.72139 0.14806 0.0
C1800 C 0.54044 0.73522 0.15221 0.0
C1801 C 0.55453 0.75538 0.15453 0.0
C1802 C 0.46799 0.7832 0.15225 0.0
C1803 C 0.50581 0.75978 0.1496 0.0
C1804 C 0.4433 0.78344 0.15246 0.0
C1805 C 0.43073 0.76253 0.14827 0.0
C1806 C 0.4799 0.76191 0.14783 0.0
C1807 C 0.44336 0.74201 0.1428 0.0
C1808 C 0.51625 0.73734 0.14967 0.0
C1809 C 0.54359 0.77761 0.1541 0.0
N1810 N 0.46717 0.74222 0.14291 0.0
N1811 N 0.51975 0.77925 0.15183 0.0
H1812 H 0.69243 0.93688 0.64859 0.0
H1813 H 0.74383 0.05612 0.70237 0.0
H1814 H 0.75242 0.94231 0.69506 0.0
H1815 H 0.69048 0.05534 0.64818 0.0
H1816 H 0.73997 0.01365 0.70648 0.0
H1817 H 0.68499 0.97927 0.65418 0.0
C1818 C 0.70376 0.94692 0.66024 0.0
C1819 C 0.72328 0.93631 0.6711 0.0
C1820 C 0.72888 0.02268 0.69382 0.0
C1821 C 0.71486 0.9843 0.67764 0.0
C1822 C 0.73108 0.04693 0.6915 0.0
C1823 C 0.71776 0.05904 0.67462 0.0
C1824 C 0.71357 0.01031 0.67881 0.0
C1825 C 0.70118 0.04647 0.66128 0.0
C1826 C 0.69955 0.97103 0.66338 0.0
C1827 C 0.73743 0.94994 0.68603 0.0
N1828 N 0.69985 0.02258 0.66332 0.0
N1829 N 0.73302 0.97323 0.68872 0.0
H1830 H 0.24637 0.05117 0.6863 0.0
H1831 H 0.29954 0.93129 0.63463 0.0
H1832 H 0.30027 0.05092 0.63262 0.0
H1833 H 0.23865 0.93706 0.67989 0.0
H1834 H 0.30516 0.97429 0.63778 0.0
H1835 H 0.24907 0.0086 0.68893 0.0
C1836 C 0.2589 0.04207 0.67511 0.0
C1837 C 0.27284 0.05447 0.65894 0.0
C1838 C 0.29073 0.966 0.64712 0.0
C1839 C 0.27582 0.00547 0.66157 0.0
C1840 C 0.28755 0.94155 0.64537 0.0
C1841 C 0.26843 0.93073 0.65677 0.0
C1842 C 0.27483 0.97941 0.66059 0.0
C1843 C 0.2534 0.94471 0.67049 0.0
C1844 C 0.26045 0.01772 0.67661 0.0
C1845 C 0.28913 0.04188 0.64522 0.0
N1846 N 0.2569 0.96825 0.67194 0.0
N1847 N 0.28995 0.01789 0.64657 0.0
H1848 H 0.13787 0.27131 0.26507 0.0
H1849 H 0.22981 0.22293 0.36028 0.0
H1850 H 0.179 0.3153 0.31172 0.0
H1851 H 0.19323 0.17805 0.31074 0.0
H1852 H 0.20699 0.2564 0.34612 0.0
H1853 H 0.15348 0.23642 0.28518 0.0
C1854 C 0.14986 0.27368 0.27974 0.0
C1855 C 0.1573 0.2963 0.28653 0.0
C1856 C 0.20383 0.2392 0.33843 0.0
C1857 C 0.17529 0.25653 0.30946 0.0
C1858 C 0.21689 0.22005 0.34652 0.0
C1859 C 0.21366 0.19764 0.33653 0.0
C1860 C 0.18745 0.23604 0.32013 0.0
C1861 C 0.19648 0.19502 0.31885 0.0
C1862 C 0.15884 0.25375 0.29114 0.0
C1863 C 0.17289 0.29827 0.30567 0.0
N1864 N 0.18416 0.21404 0.31108 0.0
N1865 N 0.18148 0.27867 0.31631 0.0
H1866 H 0.31583 0.69149 0.81635 0.0
H1867 H 0.17658 0.67536 0.80678 0.0
H1868 H 0.26563 0.73302 0.85585 0.0
H1869 H 0.22659 0.63802 0.76307 0.0
H1870 H 0.20913 0.69307 0.8283 0.0
H1871 H 0.28353 0.6685 0.80012 0.0
C1872 C 0.29803 0.69572 0.82177 0.0
C1873 C 0.29347 0.7144 0.83741 0.0
C1874 C 0.21299 0.68087 0.81412 0.0
C1875 C 0.25632 0.68803 0.81871 0.0
C1876 C 0.1944 0.67068 0.80179 0.0
C1877 C 0.19882 0.65529 0.78288 0.0
C1878 C 0.23623 0.67572 0.80752 0.0
C1879 C 0.22232 0.64986 0.77742 0.0
C1880 C 0.27957 0.68254 0.81244 0.0
C1881 C 0.27 0.71889 0.84379 0.0
N1882 N 0.24016 0.66022 0.78958 0.0
N1883 N 0.25229 0.70587 0.83429 0.0
H1884 H 0.8101 0.68131 0.30449 0.0
H1885 H 0.80402 0.82122 0.31496 0.0
H1886 H 0.85242 0.7295 0.26328 0.0
H1887 H 0.75966 0.7744 0.35554 0.0
H1888 H 0.82528 0.78743 0.29981 0.0
H1889 H 0.79461 0.71468 0.32673 0.0
C1890 C 0.81628 0.69887 0.30018 0.0
C1891 C 0.83245 0.7026 0.28178 0.0
C1892 C 0.81106 0.78448 0.31219 0.0
C1893 C 0.81474 0.74084 0.30726 0.0
C1894 C 0.79888 0.80383 0.32094 0.0
C1895 C 0.77983 0.80068 0.33643 0.0
C1896 C 0.80406 0.76169 0.31872 0.0
C1897 C 0.77416 0.77766 0.34357 0.0
C1898 C 0.80741 0.71791 0.31294 0.0
C1899 C 0.83986 0.72574 0.27716 0.0
N1900 N 0.78607 0.75898 0.33442 0.0
N1901 N 0.83082 0.74398 0.28971 0.0
H1902 H 0.77409 0.36176 0.75848 0.0
H1903 H 0.72818 0.27421 0.85871 0.0
H1904 H 0.81941 0.32162 0.80474 0.0
H1905 H 0.68181 0.31518 0.81421 0.0
H1906 H 0.76177 0.29498 0.84189 0.0
H1907 H 0.74006 0.34863 0.78151 0.0
C1908 C 0.77695 0.3505 0.77365 0.0
C1909 C 0.79966 0.34258 0.77949 0.0
C1910 C 0.74424 0.29958 0.83593 0.0
C1911 C 0.76083 0.32738 0.80576 0.0
C1912 C 0.72501 0.28769 0.84554 0.0
C1913 C 0.70211 0.29273 0.8377 0.0
C1914 C 0.74061 0.31654 0.81822 0.0
C1915 C 0.69915 0.31054 0.82068 0.0
C1916 C 0.75751 0.34296 0.78675 0.0
C1917 C 0.80227 0.32802 0.79937 0.0
N1918 N 0.7182 0.32163 0.81135 0.0
N1919 N 0.7831 0.32074 0.81162 0.0
H1920 H 0.18381 0.81259 0.68053 0.0
H1921 H 0.171 0.67282 0.67468 0.0
H1922 H 0.22468 0.76744 0.63474 0.0
H1923 H 0.13506 0.71612 0.726 0.0
H1924 H 0.18483 0.70824 0.65498 0.0
H1925 H 0.16066 0.77847 0.69273 0.0
C1926 C 0.18783 0.79556 0.67286 0.0
C1927 C 0.20648 0.79286 0.65677 0.0
C1928 C 0.17369 0.71005 0.67038 0.0
C1929 C 0.17991 0.75374 0.67071 0.0
C1930 C 0.16569 0.68979 0.68164 0.0
C1931 C 0.15213 0.69146 0.7023 0.0
C1932 C 0.1683 0.73223 0.67989 0.0
C1933 C 0.14562 0.71398 0.71025 0.0
C1934 C 0.17454 0.77609 0.67986 0.0
C1935 C 0.21067 0.77037 0.64736 0.0
N1936 N 0.15408 0.73352 0.69922 0.0
N1937 N 0.19761 0.75166 0.65461 0.0
H1938 H 0.71853 0.71934 0.12879 0.0
H1939 H 0.77439 0.63168 0.22334 0.0
H1940 H 0.67776 0.67851 0.17859 0.0
H1941 H 0.81513 0.67397 0.17477 0.0
H1942 H 0.7386 0.64316 0.20236 0.0
H1943 H 0.75374 0.69776 0.14085 0.0
C1944 C 0.7169 0.70568 0.14206 0.0
C1945 C 0.69518 0.70101 0.15293 0.0
C1946 C 0.75543 0.64965 0.19611 0.0
C1947 C 0.73545 0.67631 0.16688 0.0
C1948 C 0.77589 0.64302 0.20804 0.0
C1949 C 0.79778 0.65221 0.2011 0.0
C1950 C 0.75689 0.66561 0.17719 0.0
C1951 C 0.79862 0.66674 0.18103 0.0
C1952 C 0.73702 0.69335 0.14893 0.0
C1953 C 0.69415 0.68296 0.1699 0.0
N1954 N 0.77844 0.67323 0.16999 0.0
N1955 N 0.71404 0.67147 0.17652 0.0
H1956 H 0.80933 0.17292 0.67627 0.0
H1957 H 0.86826 0.27298 0.71118 0.0
H1958 H 0.76402 0.21857 0.63548 0.0
H1959 H 0.80776 0.31036 0.68401 0.0
H1960 H 0.85488 0.23759 0.69116 0.0
H1961 H 0.83244 0.20656 0.68788 0.0
C1962 C 0.80451 0.19003 0.66929 0.0
C1963 C 0.7845 0.19287 0.65501 0.0
C1964 C 0.84423 0.25332 0.68978 0.0
C1965 C 0.81147 0.23203 0.66805 0.0
C1966 C 0.85206 0.27369 0.7011 0.0
C1967 C 0.83885 0.29455 0.69974 0.0
C1968 C 0.82272 0.25367 0.67743 0.0
C1969 C 0.81835 0.29459 0.68588 0.0
C1970 C 0.81797 0.20943 0.67584 0.0
C1971 C 0.77924 0.21553 0.64659 0.0
N1972 N 0.81077 0.27439 0.67552 0.0
N1973 N 0.79247 0.23429 0.65352 0.0
H1974 H 0.22578 0.35803 0.22805 0.0
H1975 H 0.26979 0.26056 0.13634 0.0
H1976 H 0.17945 0.31675 0.18383 0.0
H1977 H 0.31654 0.30108 0.18083 0.0
H1978 H 0.23677 0.28415 0.15053 0.0
H1979 H 0.25958 0.34087 0.20758 0.0
C1980 C 0.22267 0.34566 0.21383 0.0
C1981 C 0.19971 0.33863 0.20788 0.0
C1982 C 0.25429 0.28798 0.15706 0.0
C1983 C 0.2383 0.31879 0.18456 0.0
C1984 C 0.27317 0.27448 0.14898 0.0
C1985 C 0.29599 0.27866 0.15753 0.0
C1986 C 0.25822 0.30574 0.17389 0.0
C1987 C 0.29926 0.29707 0.17382 0.0
C1988 C 0.24199 0.33579 0.20221 0.0
C1989 C 0.1968 0.32254 0.18925 0.0
N1990 N 0.28056 0.3098 0.18159 0.0
N1991 N 0.21585 0.31302 0.17844 0.0
H1992 H 0.32401 0.17175 0.17788 0.0
H1993 H 0.31977 0.17626 0.31792 0.0
H1994 H 0.36439 0.22088 0.21981 0.0
H1995 H 0.27765 0.12907 0.27543 0.0
H1996 H 0.34134 0.18803 0.28273 0.0
H1997 H 0.31235 0.15131 0.21369 0.0
C1998 C 0.33073 0.17809 0.19459 0.0
C1999 C 0.34496 0.19834 0.19581 0.0
C2000 C 0.32759 0.17488 0.28114 0.0
C2001 C 0.33135 0.17502 0.23705 0.0
C2002 C 0.31521 0.16811 0.30126 0.0
C2003 C 0.29656 0.15187 0.29963 0.0
C2004 C 0.32124 0.16547 0.25917 0.0
C2005 C 0.29171 0.1418 0.27755 0.0
C2006 C 0.324 0.16637 0.21508 0.0
C2007 C 0.35326 0.20548 0.218 0.0
N2008 N 0.30378 0.14899 0.25814 0.0
N2009 N 0.34604 0.19403 0.23779 0.0
H2010 H 0.36217 0.77181 0.77776 0.0
H2011 H 0.2701 0.86178 0.72173 0.0
H2012 H 0.32024 0.82096 0.81811 0.0
H2013 H 0.31259 0.81362 0.68073 0.0
H2014 H 0.29284 0.85125 0.75668 0.0
H2015 H 0.34916 0.79132 0.74159 0.0
C2016 C 0.35062 0.78696 0.77908 0.0
C2017 C 0.34197 0.79446 0.80101 0.0
C2018 C 0.29735 0.84317 0.73998 0.0
C2019 C 0.32682 0.81668 0.75972 0.0
C2020 C 0.28434 0.84917 0.72 0.0
C2021 C 0.28916 0.83833 0.69829 0.0
C2022 C 0.31522 0.82608 0.7383 0.0
C2023 C 0.308 0.82226 0.69713 0.0
C2024 C 0.34311 0.79804 0.7584 0.0
C2025 C 0.3271 0.81427 0.80161 0.0
N2026 N 0.32014 0.81642 0.7169 0.0
N2027 N 0.31976 0.82447 0.78127 0.0
H2028 H 0.7175 0.86248 0.2698 0.0
H2029 H 0.62976 0.76268 0.22295 0.0
H2030 H 0.6763 0.81723 0.31522 0.0
H2031 H 0.67481 0.80464 0.17802 0.0
H2032 H 0.64224 0.78644 0.25665 0.0
H2033 H 0.69731 0.84569 0.23569 0.0
C2034 C 0.70399 0.84929 0.27266 0.0
C2035 C 0.69885 0.84105 0.29543 0.0
C2036 C 0.6492 0.79056 0.23936 0.0
C2037 C 0.67583 0.82162 0.25644 0.0
C2038 C 0.64208 0.777 0.22009 0.0
C2039 C 0.65141 0.78148 0.19761 0.0
C2040 C 0.66577 0.80871 0.23611 0.0
C2041 C 0.66726 0.80035 0.19501 0.0
C2042 C 0.69252 0.83964 0.25316 0.0
C2043 C 0.68109 0.82396 0.29801 0.0
N2044 N 0.67406 0.81313 0.21405 0.0
N2045 N 0.6704 0.81465 0.27875 0.0
H2046 H 0.71596 0.13416 0.72836 0.0
H2047 H 0.63526 0.23829 0.77697 0.0
H2048 H 0.68223 0.18561 0.68335 0.0
H2049 H 0.66755 0.18475 0.82049 0.0
H2050 H 0.64738 0.21622 0.7419 0.0
H2051 H 0.69391 0.14965 0.76176 0.0
C2052 C 0.70383 0.14862 0.72544 0.0
C2053 C 0.70122 0.15879 0.70305 0.0
C2054 C 0.65147 0.20917 0.75917 0.0
C2055 C 0.67593 0.17671 0.74131 0.0
C2056 C 0.64446 0.2217 0.77919 0.0
C2057 C 0.65073 0.21357 0.80171 0.0
C2058 C 0.66482 0.18843 0.76179 0.0
C2059 C 0.66264 0.19193 0.80352 0.0
C2060 C 0.69117 0.15743 0.74454 0.0
C2061 C 0.68501 0.17734 0.70033 0.0
N2062 N 0.66952 0.18029 0.78384 0.0
N2063 N 0.67317 0.18588 0.71931 0.0
H2064 H 0.81783 0.82323 0.66909 0.0
H2065 H 0.81534 0.68332 0.6772 0.0
H2066 H 0.77005 0.77923 0.6293 0.0
H2067 H 0.86177 0.7274 0.71851 0.0
H2068 H 0.80311 0.71779 0.65486 0.0
H2069 H 0.83877 0.78811 0.68204 0.0
C2070 C 0.81194 0.80622 0.66274 0.0
C2071 C 0.79184 0.80419 0.64839 0.0
C2072 C 0.81615 0.71991 0.66863 0.0
C2073 C 0.81569 0.76381 0.66346 0.0
C2074 C 0.82317 0.7002 0.68148 0.0
C2075 C 0.83945 0.70246 0.70002 0.0
C2076 C 0.82531 0.74214 0.67441 0.0
C2077 C 0.84904 0.72482 0.70452 0.0
C2078 C 0.82391 0.78613 0.67021 0.0
C2079 C 0.78528 0.78166 0.64054 0.0
N2080 N 0.84163 0.74385 0.69197 0.0
N2081 N 0.79696 0.76231 0.64848 0.0
H2082 H 0.67742 0.30502 0.18133 0.0
H2083 H 0.81722 0.31718 0.18838 0.0
H2084 H 0.72613 0.26245 0.14107 0.0
H2085 H 0.76942 0.35855 0.2309 0.0
H2086 H 0.78377 0.30027 0.16777 0.0
H2087 H 0.71054 0.32767 0.19668 0.0
C2088 C 0.69505 0.30049 0.17558 0.0
C2089 C 0.69898 0.28162 0.15999 0.0
C2090 C 0.78056 0.31318 0.18147 0.0
C2091 C 0.73698 0.30757 0.17758 0.0
C2092 C 0.79969 0.32293 0.19327 0.0
C2093 C 0.79617 0.33922 0.21159 0.0
C2094 C 0.75762 0.31959 0.18807 0.0
C2095 C 0.77299 0.346 0.21696 0.0
C2096 C 0.71395 0.31348 0.18437 0.0
C2097 C 0.72222 0.27672 0.15314 0.0
N2098 N 0.75456 0.33597 0.20539 0.0
N2099 N 0.74034 0.28953 0.16209 0.0
H2100 H 0.13698 0.26759 0.72284 0.0
H2101 H 0.23216 0.21831 0.63202 0.0
H2102 H 0.17641 0.31152 0.67462 0.0
H2103 H 0.19012 0.17409 0.6777 0.0
H2104 H 0.20869 0.25228 0.64419 0.0
H2105 H 0.15264 0.23274 0.70305 0.0
C2106 C 0.14863 0.26995 0.70789 0.0
C2107 C 0.15565 0.29256 0.70065 0.0
C2108 C 0.20447 0.23508 0.65137 0.0
C2109 C 0.17385 0.25272 0.67809 0.0
C2110 C 0.2179 0.21567 0.64444 0.0
C2111 C 0.21333 0.19332 0.65404 0.0
C2112 C 0.18644 0.23215 0.66811 0.0
C2113 C 0.19449 0.19099 0.66996 0.0
C2114 C 0.15763 0.25002 0.69662 0.0
C2115 C 0.17072 0.29447 0.68106 0.0
N2116 N 0.1819 0.21019 0.67665 0.0
N2117 N 0.17953 0.27482 0.67067 0.0
H2118 H 0.17064 0.66947 0.17502 0.0
H2119 H 0.3093 0.68876 0.18424 0.0
H2120 H 0.21428 0.63727 0.22853 0.0
H2121 H 0.26361 0.72794 0.13749 0.0
H2122 H 0.27594 0.66436 0.19582 0.0
H2123 H 0.20586 0.6845 0.1558 0.0
C2124 C 0.18765 0.66516 0.18253 0.0
C2125 C 0.18945 0.65247 0.20374 0.0
C2126 C 0.27326 0.67819 0.1829 0.0
C2127 C 0.22988 0.66997 0.18188 0.0
C2128 C 0.29229 0.69221 0.1763 0.0
C2129 C 0.28923 0.71067 0.16003 0.0
C2130 C 0.25097 0.68261 0.17322 0.0
C2131 C 0.26678 0.7141 0.15026 0.0
C2132 C 0.20777 0.67387 0.17156 0.0
C2133 C 0.21202 0.64719 0.21237 0.0
N2134 N 0.24848 0.70029 0.15713 0.0
N2135 N 0.23137 0.65631 0.20161 0.0
H2136 H 0.86111 0.27675 0.27243 0.0
H2137 H 0.76729 0.22878 0.36576 0.0
H2138 H 0.81801 0.32126 0.31675 0.0
H2139 H 0.80628 0.1842 0.31782 0.0
H2140 H 0.79072 0.26242 0.35267 0.0
H2141 H 0.84641 0.24227 0.29375 0.0
C2142 C 0.84889 0.27934 0.28687 0.0
C2143 C 0.84053 0.30193 0.29255 0.0
C2144 C 0.79429 0.24522 0.3452 0.0
C2145 C 0.82353 0.2626 0.31687 0.0
C2146 C 0.78091 0.22599 0.35267 0.0
C2147 C 0.78457 0.20366 0.34266 0.0
C2148 C 0.81141 0.24212 0.32756 0.0
C2149 C 0.80261 0.20111 0.32587 0.0
C2150 C 0.84043 0.25964 0.29898 0.0
C2151 C 0.82474 0.30419 0.31151 0.0
N2152 N 0.81519 0.22015 0.31869 0.0
N2153 N 0.81658 0.28477 0.32279 0.0
H2154 H 0.22527 0.35183 0.75853 0.0
H2155 H 0.2699 0.25947 0.85509 0.0
H2156 H 0.17896 0.31421 0.80594 0.0
H2157 H 0.31628 0.29944 0.80969 0.0
H2158 H 0.23651 0.28176 0.83953 0.0
H2159 H 0.25906 0.33558 0.77962 0.0
C2160 C 0.22217 0.34042 0.77353 0.0
C2161 C 0.1992 0.3342 0.78027 0.0
C2162 C 0.25403 0.28575 0.83313 0.0
C2163 C 0.23782 0.31533 0.80433 0.0
C2164 C 0.27311 0.273 0.84198 0.0
C2165 C 0.29595 0.27742 0.83359 0.0
C2166 C 0.2578 0.30297 0.81569 0.0
C2167 C 0.29901 0.29526 0.81663 0.0
C2168 C 0.24149 0.33108 0.78554 0.0
C2169 C 0.19632 0.31935 0.79992 0.0
N2170 N 0.28015 0.30725 0.80815 0.0
N2171 N 0.21539 0.31025 0.8111 0.0
H2172 H 0.19688 0.82285 0.30934 0.0
H2173 H 0.13261 0.73017 0.26144 0.0
H2174 H 0.22737 0.77084 0.35595 0.0
H2175 H 0.17803 0.68533 0.30304 0.0
H2176 H 0.14918 0.76442 0.28103 0.0
H2177 H 0.17321 0.7924 0.29131 0.0
C2178 C 0.19839 0.80501 0.31602 0.0
C2179 C 0.21428 0.79944 0.33419 0.0
C2180 C 0.15584 0.74722 0.28579 0.0
C2181 C 0.18657 0.7641 0.31375 0.0
C2182 C 0.14613 0.72754 0.27467 0.0
C2183 C 0.15411 0.70481 0.28034 0.0
C2184 C 0.17393 0.74418 0.30252 0.0
C2185 C 0.17144 0.70249 0.29787 0.0
C2186 C 0.18461 0.78748 0.30574 0.0
C2187 C 0.21544 0.77599 0.34197 0.0
N2188 N 0.18084 0.72191 0.30817 0.0
N2189 N 0.20187 0.7592 0.33161 0.0
H2190 H 0.81473 0.68044 0.80437 0.0
H2191 H 0.67499 0.67549 0.81194 0.0
H2192 H 0.77188 0.63465 0.7611 0.0
H2193 H 0.71843 0.71866 0.85725 0.0
H2194 H 0.71035 0.65655 0.79672 0.0
H2195 H 0.77998 0.69095 0.82707 0.0
C2196 C 0.79806 0.67239 0.79973 0.0
C2197 C 0.79624 0.65677 0.78059 0.0
C2198 C 0.71214 0.66995 0.81021 0.0
C2199 C 0.7562 0.66897 0.80657 0.0
C2200 C 0.69193 0.68079 0.81897 0.0
C2201 C 0.69371 0.69899 0.83569 0.0
C2202 C 0.73435 0.67745 0.81807 0.0
C2203 C 0.71617 0.70489 0.84423 0.0
C2204 C 0.77818 0.67842 0.81278 0.0
C2205 C 0.77412 0.64687 0.77559 0.0
N2206 N 0.73562 0.69436 0.83509 0.0
N2207 N 0.75491 0.65334 0.78835 0.0
H2208 H 0.72775 0.85694 0.72415 0.0
H2209 H 0.63443 0.76 0.76627 0.0
H2210 H 0.68835 0.81274 0.67615 0.0
H2211 H 0.6766 0.80259 0.81333 0.0
H2212 H 0.65051 0.78211 0.73287 0.0
H2213 H 0.70574 0.84005 0.75695 0.0
C2214 C 0.71439 0.8438 0.72046 0.0
C2215 C 0.71007 0.83612 0.69735 0.0
C2216 C 0.65603 0.78672 0.75056 0.0
C2217 C 0.68483 0.81664 0.73488 0.0
C2218 C 0.64681 0.77415 0.76963 0.0
C2219 C 0.6543 0.77929 0.79265 0.0
C2220 C 0.67281 0.80451 0.75459 0.0
C2221 C 0.6704 0.79783 0.79593 0.0
C2222 C 0.70181 0.83415 0.73922 0.0
C2223 C 0.69243 0.8191 0.69368 0.0
N2224 N 0.6792 0.80963 0.77712 0.0
N2225 N 0.68057 0.80982 0.71228 0.0
H2226 H 0.68072 0.18601 0.31737 0.0
H2227 H 0.67038 0.17393 0.17815 0.0
H2228 H 0.72013 0.13555 0.27606 0.0
H2229 H 0.6315 0.2249 0.2193 0.0
H2230 H 0.68349 0.15521 0.21445 0.0
H2231 H 0.65801 0.19623 0.28246 0.0
C2232 C 0.68451 0.1769 0.30102 0.0
C2233 C 0.70262 0.16006 0.29963 0.0
C2234 C 0.67182 0.17028 0.21556 0.0
C2235 C 0.67659 0.17184 0.25948 0.0
C2236 C 0.66425 0.18098 0.19481 0.0
C2237 C 0.65014 0.20133 0.19565 0.0
C2238 C 0.66541 0.18005 0.23736 0.0
C2239 C 0.64256 0.20942 0.21777 0.0
C2240 C 0.67145 0.18275 0.28107 0.0
C2241 C 0.7065 0.14878 0.27795 0.0
N2242 N 0.65061 0.19897 0.23777 0.0
N2243 N 0.69376 0.15506 0.25867 0.0
H2244 H 0.3197 0.1733 0.67645 0.0
H2245 H 0.32772 0.1711 0.81651 0.0
H2246 H 0.27744 0.1284 0.72124 0.0
H2247 H 0.36518 0.22115 0.77297 0.0
H2248 H 0.31537 0.15017 0.78127 0.0
H2249 H 0.34202 0.18593 0.7109 0.0
C2250 C 0.31524 0.16586 0.69347 0.0
C2251 C 0.29637 0.14998 0.69595 0.0
C2252 C 0.32654 0.16554 0.77939 0.0
C2253 C 0.32197 0.16447 0.7355 0.0
C2254 C 0.33369 0.17753 0.79956 0.0
C2255 C 0.34724 0.19819 0.79773 0.0
C2256 C 0.33278 0.17433 0.75714 0.0
C2257 C 0.35459 0.20543 0.77523 0.0
C2258 C 0.32804 0.17312 0.71314 0.0
C2259 C 0.29164 0.14085 0.71846 0.0
N2260 N 0.34695 0.1937 0.75576 0.0
N2261 N 0.3042 0.14841 0.73739 0.0
H2262 H 0.28086 0.868 0.28096 0.0
H2263 H 0.36234 0.76911 0.22315 0.0
H2264 H 0.32118 0.81715 0.32091 0.0
H2265 H 0.31798 0.81685 0.18366 0.0
H2266 H 0.35355 0.7915 0.25893 0.0
H2267 H 0.30072 0.85477 0.24513 0.0
C2268 C 0.29418 0.85438 0.28231 0.0
C2269 C 0.29899 0.84337 0.30394 0.0
C2270 C 0.34601 0.79723 0.24235 0.0
C2271 C 0.3216 0.82798 0.26297 0.0
C2272 C 0.35104 0.78446 0.2219 0.0
C2273 C 0.34062 0.79086 0.20038 0.0
C2274 C 0.33044 0.81649 0.24125 0.0
C2275 C 0.3262 0.81101 0.19986 0.0
C2276 C 0.30546 0.84676 0.26181 0.0
C2277 C 0.31657 0.8259 0.30458 0.0
N2278 N 0.32135 0.82293 0.22001 0.0
N2279 N 0.32698 0.81853 0.28435 0.0
loop_
_geom_bond_atom_site_label_1
_geom_bond_atom_site_label_2
_geom_bond_distance
_geom_bond_site_symmetry_2
_ccdc_geom_bond_type
Co0 O2 2.143 . S
Co0 O8 2.074 . S
Co0 O11 2.093 . S
Co0 O24 2.097 . S
Co0 N41 2.151 . S
Co0 N49 2.214 . S
Co1 O2 2.160 . S
Co1 O7 2.058 . S
Co1 O17 2.057 . S
Co1 O32 2.037 . S
Co1 N36 2.145 . S
Co1 N57 2.257 . S
O2 Co0 2.143 . S
O2 Co1 2.160 . S
C3 O4 1.278 . S
C3 O11 1.224 . S
O4 C3 1.278 . S
C5 O6 1.245 . S
C5 O17 1.232 . S
O6 C5 1.245 . S
O7 Co1 2.058 . S
O7 C33 1.269 . S
O8 Co0 2.074 . S
O8 C33 1.257 . S
H9 C34 0.930 . S
H10 C40 0.930 . S
O11 Co0 2.093 . S
O11 C3 1.224 . S
H12 C44 0.929 . S
H13 C46 0.930 . S
H14 C47 0.930 . S
H15 C45 0.929 . S
H16 C48 0.928 . S
O17 Co1 2.057 . S
O17 C5 1.232 . S
H18 C37 0.929 . S
H19 C38 0.929 . S
H20 C50 0.931 . S
H21 C42 0.929 . S
H22 C51 0.930 . S
H23 C43 0.931 . S
O24 Co0 2.097 . S
O24 C52 1.214 . S
H25 C53 0.929 . S
H26 C54 0.929 . S
H27 C55 0.930 . S
H28 C56 0.929 . S
H29 C58 0.930 . S
H30 C35 0.930 . S
H31 C39 0.930 . S
O32 Co1 2.037 . S
O32 C52 1.234 . S
C33 O7 1.269 . S
C33 O8 1.257 . S
C34 H9 0.930 . S
C34 C37 1.388 . S
C34 C39 1.418 . S
C35 H30 0.930 . S
C35 C38 1.404 . S
C35 C39 1.353 . S
N36 Co1 2.145 . S
N36 C37 1.397 . S
N36 C38 1.334 . S
C37 H18 0.929 . S
C37 C34 1.388 . S
C37 N36 1.397 . S
C38 H19 0.929 . S
C38 C35 1.404 . S
C38 N36 1.334 . S
C39 H31 0.930 . S
C39 C34 1.418 . S
C39 C35 1.353 . S
C40 H10 0.930 . S
C40 N41 1.330 . S
C40 C42 1.446 . S
N41 Co0 2.151 . S
N41 C40 1.330 . S
N41 C45 1.418 . S
C42 H21 0.929 . S
C42 C40 1.446 . S
C42 C43 1.332 . S
C43 H23 0.931 . S
C43 C42 1.332 . S
C43 C44 1.267 . S
C44 H12 0.929 . S
C44 C43 1.267 . S
C44 C45 1.251 . S
C45 H15 0.929 . S
C45 N41 1.418 . S
C45 C44 1.251 . S
C46 H13 0.930 . S
C46 C48 1.406 . S
C46 C51 1.261 . S
C47 H14 0.930 . S
C47 N49 1.325 . S
C47 C50 1.357 . S
C48 H16 0.928 . S
C48 C46 1.406 . S
C48 N49 1.261 . S
N49 Co0 2.214 . S
N49 C47 1.325 . S
N49 C48 1.261 . S
C50 H20 0.931 . S
C50 C47 1.357 . S
C50 C51 1.312 . S
C51 H22 0.930 . S
C51 C46 1.261 . S
C51 C50 1.312 . S
C52 O24 1.214 . S
C52 O32 1.234 . S
C53 H25 0.929 . S
C53 C56 1.391 . S
C53 C58 1.391 . S
C54 H26 0.929 . S
C54 C55 1.390 . S
C54 N57 1.391 . S
C55 H27 0.930 . S
C55 C54 1.390 . S
C55 C56 1.392 . S
C56 H28 0.929 . S
C56 C53 1.391 . S
C56 C55 1.392 . S
N57 Co1 2.257 . S
N57 C54 1.391 . S
N57 C58 1.388 . S
C58 H29 0.930 . S
C58 C53 1.391 . S
C58 N57 1.388 . S
Co59 O61 2.143 . S
Co59 O67 2.074 . S
Co59 O70 2.093 . S
Co59 O83 2.097 . S
Co59 N100 2.151 . S
Co59 N108 2.214 . S
Co60 O61 2.160 . S
Co60 O66 2.058 . S
Co60 O76 2.057 . S
Co60 O91 2.037 . S
Co60 N95 2.145 . S
Co60 N116 2.257 . S
O61 Co59 2.143 . S
O61 Co60 2.160 . S
C62 O63 1.278 . S
C62 O70 1.224 . S
O63 C62 1.278 . S
C64 O65 1.245 . S
C64 O76 1.232 . S
O65 C64 1.245 . S
O66 Co60 2.058 . S
O66 C92 1.269 . S
O67 Co59 2.074 . S
O67 C92 1.257 . S
H68 C93 0.930 . S
H69 C99 0.930 . S
O70 Co59 2.093 . S
O70 C62 1.224 . S
H71 C103 0.929 . S
H72 C105 0.930 . S
H73 C106 0.930 . S
H74 C104 0.929 . S
H75 C107 0.928 . S
O76 Co60 2.057 . S
O76 C64 1.232 . S
H77 C96 0.929 . S
H78 C97 0.929 . S
H79 C109 0.931 . S
H80 C101 0.929 . S
H81 C110 0.930 . S
H82 C102 0.931 . S
O83 Co59 2.097 . S
O83 C111 1.214 . S
H84 C112 0.929 . S
H85 C113 0.929 . S
H86 C114 0.930 . S
H87 C115 0.929 . S
H88 C117 0.930 . S
H89 C94 0.930 . S
H90 C98 0.930 . S
O91 Co60 2.037 . S
O91 C111 1.234 . S
C92 O66 1.269 . S
C92 O67 1.257 . S
C93 H68 0.930 . S
C93 C96 1.388 . S
C93 C98 1.418 . S
C94 H89 0.930 . S
C94 C97 1.404 . S
C94 C98 1.353 . S
N95 Co60 2.145 . S
N95 C96 1.397 . S
N95 C97 1.334 . S
C96 H77 0.929 . S
C96 C93 1.388 . S
C96 N95 1.397 . S
C97 H78 0.929 . S
C97 C94 1.404 . S
C97 N95 1.334 . S
C98 H90 0.930 . S
C98 C93 1.418 . S
C98 C94 1.353 . S
C99 H69 0.930 . S
C99 N100 1.330 . S
C99 C101 1.446 . S
N100 Co59 2.151 . S
N100 C99 1.330 . S
N100 C104 1.418 . S
C101 H80 0.929 . S
C101 C99 1.446 . S
C101 C102 1.332 . S
C102 H82 0.931 . S
C102 C101 1.332 . S
C102 C103 1.267 . S
C103 H71 0.929 . S
C103 C102 1.267 . S
C103 C104 1.251 . S
C104 H74 0.929 . S
C104 N100 1.418 . S
C104 C103 1.251 . S
C105 H72 0.930 . S
C105 C107 1.406 . S
C105 C110 1.261 . S
C106 H73 0.930 . S
C106 N108 1.325 . S
C106 C109 1.357 . S
C107 H75 0.928 . S
C107 C105 1.406 . S
C107 N108 1.261 . S
N108 Co59 2.214 . S
N108 C106 1.325 . S
N108 C107 1.261 . S
C109 H79 0.931 . S
C109 C106 1.357 . S
C109 C110 1.312 . S
C110 H81 0.930 . S
C110 C105 1.261 . S
C110 C109 1.312 . S
C111 O83 1.214 . S
C111 O91 1.234 . S
C112 H84 0.929 . S
C112 C115 1.391 . S
C112 C117 1.391 . S
C113 H85 0.929 . S
C113 C114 1.390 . S
C113 N116 1.391 . S
C114 H86 0.930 . S
C114 C113 1.390 . S
C114 C115 1.392 . S
C115 H87 0.929 . S
C115 C112 1.391 . S
C115 C114 1.392 . S
N116 Co60 2.257 . S
N116 C113 1.391 . S
N116 C117 1.388 . S
C117 H88 0.930 . S
C117 C112 1.391 . S
C117 N116 1.388 . S
Co118 O120 2.143 . S
Co118 O126 2.074 . S
Co118 O129 2.093 . S
Co118 O142 2.097 . S
Co118 N159 2.151 . S
Co118 N167 2.214 . S
Co119 O120 2.160 . S
Co119 O125 2.058 . S
Co119 O135 2.057 . S
Co119 O150 2.037 . S
Co119 N154 2.145 . S
Co119 N175 2.257 . S
O120 Co118 2.143 . S
O120 Co119 2.160 . S
C121 O122 1.278 . S
C121 O129 1.224 . S
O122 C121 1.278 . S
C123 O124 1.245 . S
C123 O135 1.232 . S
O124 C123 1.245 . S
O125 Co119 2.058 . S
O125 C151 1.269 . S
O126 Co118 2.074 . S
O126 C151 1.257 . S
H127 C152 0.930 . S
H128 C158 0.930 . S
O129 Co118 2.093 . S
O129 C121 1.224 . S
H130 C162 0.929 . S
H131 C164 0.930 . S
H132 C165 0.930 . S
H133 C163 0.929 . S
H134 C166 0.928 . S
O135 Co119 2.057 . S
O135 C123 1.232 . S
H136 C155 0.929 . S
H137 C156 0.929 . S
H138 C168 0.931 . S
H139 C160 0.929 . S
H140 C169 0.930 . S
H141 C161 0.931 . S
O142 Co118 2.097 . S
O142 C170 1.214 . S
H143 C171 0.929 . S
H144 C172 0.929 . S
H145 C173 0.930 . S
H146 C174 0.929 . S
H147 C176 0.930 . S
H148 C153 0.930 . S
H149 C157 0.930 . S
O150 Co119 2.037 . S
O150 C170 1.234 . S
C151 O125 1.269 . S
C151 O126 1.257 . S
C152 H127 0.930 . S
C152 C155 1.388 . S
C152 C157 1.418 . S
C153 H148 0.930 . S
C153 C156 1.404 . S
C153 C157 1.353 . S
N154 Co119 2.145 . S
N154 C155 1.397 . S
N154 C156 1.334 . S
C155 H136 0.929 . S
C155 C152 1.388 . S
C155 N154 1.397 . S
C156 H137 0.929 . S
C156 C153 1.404 . S
C156 N154 1.334 . S
C157 H149 0.930 . S
C157 C152 1.418 . S
C157 C153 1.353 . S
C158 H128 0.930 . S
C158 N159 1.330 . S
C158 C160 1.446 . S
N159 Co118 2.151 . S
N159 C158 1.330 . S
N159 C163 1.418 . S
C160 H139 0.929 . S
C160 C158 1.446 . S
C160 C161 1.332 . S
C161 H141 0.931 . S
C161 C160 1.332 . S
C161 C162 1.267 . S
C162 H130 0.929 . S
C162 C161 1.267 . S
C162 C163 1.251 . S
C163 H133 0.929 . S
C163 N159 1.418 . S
C163 C162 1.251 . S
C164 H131 0.930 . S
C164 C166 1.406 . S
C164 C169 1.261 . S
C165 H132 0.930 . S
C165 N167 1.325 . S
C165 C168 1.357 . S
C166 H134 0.928 . S
C166 C164 1.406 . S
C166 N167 1.261 . S
N167 Co118 2.214 . S
N167 C165 1.325 . S
N167 C166 1.261 . S
C168 H138 0.931 . S
C168 C165 1.357 . S
C168 C169 1.312 . S
C169 H140 0.930 . S
C169 C164 1.261 . S
C169 C168 1.312 . S
C170 O142 1.214 . S
C170 O150 1.234 . S
C171 H143 0.929 . S
C171 C174 1.391 . S
C171 C176 1.391 . S
C172 H144 0.929 . S
C172 C173 1.390 . S
C172 N175 1.391 . S
C173 H145 0.930 . S
C173 C172 1.390 . S
C173 C174 1.392 . S
C174 H146 0.929 . S
C174 C171 1.391 . S
C174 C173 1.392 . S
N175 Co119 2.257 . S
N175 C172 1.391 . S
N175 C176 1.388 . S
C176 H147 0.930 . S
C176 C171 1.391 . S
C176 N175 1.388 . S
Co177 O179 2.143 . S
Co177 O185 2.074 . S
Co177 O188 2.093 . S
Co177 O201 2.097 . S
Co177 N218 2.151 . S
Co177 N226 2.214 . S
Co178 O179 2.160 . S
Co178 O184 2.058 . S
Co178 O194 2.057 . S
Co178 O209 2.037 . S
Co178 N213 2.145 . S
Co178 N234 2.257 . S
O179 Co177 2.143 . S
O179 Co178 2.160 . S
C180 O181 1.278 . S
C180 O188 1.224 . S
O181 C180 1.278 . S
C182 O183 1.245 . S
C182 O194 1.232 . S
O183 C182 1.245 . S
O184 Co178 2.058 . S
O184 C210 1.269 . S
O185 Co177 2.074 . S
O185 C210 1.257 . S
H186 C211 0.930 . S
H187 C217 0.930 . S
O188 Co177 2.093 . S
O188 C180 1.224 . S
H189 C221 0.929 . S
H190 C223 0.930 . S
H191 C224 0.930 . S
H192 C222 0.929 . S
H193 C225 0.928 . S
O194 Co178 2.057 . S
O194 C182 1.232 . S
H195 C214 0.929 . S
H196 C215 0.929 . S
H197 C227 0.931 . S
H198 C219 0.929 . S
H199 C228 0.930 . S
H200 C220 0.931 . S
O201 Co177 2.097 . S
O201 C229 1.214 . S
H202 C230 0.929 . S
H203 C231 0.929 . S
H204 C232 0.930 . S
H205 C233 0.929 . S
H206 C235 0.930 . S
H207 C212 0.930 . S
H208 C216 0.930 . S
O209 Co178 2.037 . S
O209 C229 1.234 . S
C210 O184 1.269 . S
C210 O185 1.257 . S
C211 H186 0.930 . S
C211 C214 1.388 . S
C211 C216 1.418 . S
C212 H207 0.930 . S
C212 C215 1.404 . S
C212 C216 1.353 . S
N213 Co178 2.145 . S
N213 C214 1.397 . S
N213 C215 1.334 . S
C214 H195 0.929 . S
C214 C211 1.388 . S
C214 N213 1.397 . S
C215 H196 0.929 . S
C215 C212 1.404 . S
C215 N213 1.334 . S
C216 H208 0.930 . S
C216 C211 1.418 . S
C216 C212 1.353 . S
C217 H187 0.930 . S
C217 N218 1.330 . S
C217 C219 1.446 . S
N218 Co177 2.151 . S
N218 C217 1.330 . S
N218 C222 1.418 . S
C219 H198 0.929 . S
C219 C217 1.446 . S
C219 C220 1.332 . S
C220 H200 0.931 . S
C220 C219 1.332 . S
C220 C221 1.267 . S
C221 H189 0.929 . S
C221 C220 1.267 . S
C221 C222 1.251 . S
C222 H192 0.929 . S
C222 N218 1.418 . S
C222 C221 1.251 . S
C223 H190 0.930 . S
C223 C225 1.406 . S
C223 C228 1.261 . S
C224 H191 0.930 . S
C224 N226 1.325 . S
C224 C227 1.357 . S
C225 H193 0.928 . S
C225 C223 1.406 . S
C225 N226 1.261 . S
N226 Co177 2.214 . S
N226 C224 1.325 . S
N226 C225 1.261 . S
C227 H197 0.931 . S
C227 C224 1.357 . S
C227 C228 1.312 . S
C228 H199 0.930 . S
C228 C223 1.261 . S
C228 C227 1.312 . S
C229 O201 1.214 . S
C229 O209 1.234 . S
C230 H202 0.929 . S
C230 C233 1.391 . S
C230 C235 1.391 . S
C231 H203 0.929 . S
C231 C232 1.390 . S
C231 N234 1.391 . S
C232 H204 0.930 . S
C232 C231 1.390 . S
C232 C233 1.392 . S
C233 H205 0.929 . S
C233 C230 1.391 . S
C233 C232 1.392 . S
N234 Co178 2.257 . S
N234 C231 1.391 . S
N234 C235 1.388 . S
C235 H206 0.930 . S
C235 C230 1.391 . S
C235 N234 1.388 . S
Co236 O238 2.143 . S
Co236 O244 2.074 . S
Co236 O247 2.093 . S
Co236 O260 2.097 . S
Co236 N277 2.151 . S
Co236 N285 2.214 . S
Co237 O238 2.160 . S
Co237 O243 2.058 . S
Co237 O253 2.057 . S
Co237 O268 2.037 . S
Co237 N272 2.145 . S
Co237 N293 2.257 . S
O238 Co236 2.143 . S
O238 Co237 2.160 . S
C239 O240 1.278 . S
C239 O247 1.224 . S
O240 C239 1.278 . S
C241 O242 1.245 . S
C241 O253 1.232 . S
O242 C241 1.245 . S
O243 Co237 2.058 . S
O243 C269 1.269 . S
O244 Co236 2.074 . S
O244 C269 1.257 . S
H245 C270 0.930 . S
H246 C276 0.930 . S
O247 Co236 2.093 . S
O247 C239 1.224 . S
H248 C280 0.929 . S
H249 C282 0.930 . S
H250 C283 0.930 . S
H251 C281 0.929 . S
H252 C284 0.928 . S
O253 Co237 2.057 . S
O253 C241 1.232 . S
H254 C273 0.929 . S
H255 C274 0.929 . S
H256 C286 0.931 . S
H257 C278 0.929 . S
H258 C287 0.930 . S
H259 C279 0.931 . S
O260 Co236 2.097 . S
O260 C288 1.214 . S
H261 C289 0.929 . S
H262 C290 0.929 . S
H263 C291 0.930 . S
H264 C292 0.929 . S
H265 C294 0.930 . S
H266 C271 0.930 . S
H267 C275 0.930 . S
O268 Co237 2.037 . S
O268 C288 1.234 . S
C269 O243 1.269 . S
C269 O244 1.257 . S
C270 H245 0.930 . S
C270 C273 1.388 . S
C270 C275 1.418 . S
C271 H266 0.930 . S
C271 C274 1.404 . S
C271 C275 1.353 . S
N272 Co237 2.145 . S
N272 C273 1.397 . S
N272 C274 1.334 . S
C273 H254 0.929 . S
C273 C270 1.388 . S
C273 N272 1.397 . S
C274 H255 0.929 . S
C274 C271 1.404 . S
C274 N272 1.334 . S
C275 H267 0.930 . S
C275 C270 1.418 . S
C275 C271 1.353 . S
C276 H246 0.930 . S
C276 N277 1.330 . S
C276 C278 1.446 . S
N277 Co236 2.151 . S
N277 C276 1.330 . S
N277 C281 1.418 . S
C278 H257 0.929 . S
C278 C276 1.446 . S
C278 C279 1.332 . S
C279 H259 0.931 . S
C279 C278 1.332 . S
C279 C280 1.267 . S
C280 H248 0.929 . S
C280 C279 1.267 . S
C280 C281 1.251 . S
C281 H251 0.929 . S
C281 N277 1.418 . S
C281 C280 1.251 . S
C282 H249 0.930 . S
C282 C284 1.406 . S
C282 C287 1.261 . S
C283 H250 0.930 . S
C283 N285 1.325 . S
C283 C286 1.357 . S
C284 H252 0.928 . S
C284 C282 1.406 . S
C284 N285 1.261 . S
N285 Co236 2.214 . S
N285 C283 1.325 . S
N285 C284 1.261 . S
C286 H256 0.931 . S
C286 C283 1.357 . S
C286 C287 1.312 . S
C287 H258 0.930 . S
C287 C282 1.261 . S
C287 C286 1.312 . S
C288 O260 1.214 . S
C288 O268 1.234 . S
C289 H261 0.929 . S
C289 C292 1.391 . S
C289 C294 1.391 . S
C290 H262 0.929 . S
C290 C291 1.390 . S
C290 N293 1.391 . S
C291 H263 0.930 . S
C291 C290 1.390 . S
C291 C292 1.392 . S
C292 H264 0.929 . S
C292 C289 1.391 . S
C292 C291 1.392 . S
N293 Co237 2.257 . S
N293 C290 1.391 . S
N293 C294 1.388 . S
C294 H265 0.930 . S
C294 C289 1.391 . S
C294 N293 1.388 . S
Co295 O297 2.143 . S
Co295 O303 2.074 . S
Co295 O306 2.093 . S
Co295 O319 2.097 . S
Co295 N336 2.151 . S
Co295 N344 2.214 . S
Co296 O297 2.160 . S
Co296 O302 2.058 . S
Co296 O312 2.057 . S
Co296 O327 2.037 . S
Co296 N331 2.145 . S
Co296 N352 2.257 . S
O297 Co295 2.143 . S
O297 Co296 2.160 . S
C298 O299 1.278 . S
C298 O306 1.224 . S
O299 C298 1.278 . S
C300 O301 1.245 . S
C300 O312 1.232 . S
O301 C300 1.245 . S
O302 Co296 2.058 . S
O302 C328 1.269 . S
O303 Co295 2.074 . S
O303 C328 1.257 . S
H304 C329 0.930 . S
H305 C335 0.930 . S
O306 Co295 2.093 . S
O306 C298 1.224 . S
H307 C339 0.929 . S
H308 C341 0.930 . S
H309 C342 0.930 . S
H310 C340 0.929 . S
H311 C343 0.928 . S
O312 Co296 2.057 . S
O312 C300 1.232 . S
H313 C332 0.929 . S
H314 C333 0.929 . S
H315 C345 0.931 . S
H316 C337 0.929 . S
H317 C346 0.930 . S
H318 C338 0.931 . S
O319 Co295 2.097 . S
O319 C347 1.214 . S
H320 C348 0.929 . S
H321 C349 0.929 . S
H322 C350 0.930 . S
H323 C351 0.929 . S
H324 C353 0.930 . S
H325 C330 0.930 . S
H326 C334 0.930 . S
O327 Co296 2.037 . S
O327 C347 1.234 . S
C328 O302 1.269 . S
C328 O303 1.257 . S
C329 H304 0.930 . S
C329 C332 1.388 . S
C329 C334 1.418 . S
C330 H325 0.930 . S
C330 C333 1.404 . S
C330 C334 1.353 . S
N331 Co296 2.145 . S
N331 C332 1.397 . S
N331 C333 1.334 . S
C332 H313 0.929 . S
C332 C329 1.388 . S
C332 N331 1.397 . S
C333 H314 0.929 . S
C333 C330 1.404 . S
C333 N331 1.334 . S
C334 H326 0.930 . S
C334 C329 1.418 . S
C334 C330 1.353 . S
C335 H305 0.930 . S
C335 N336 1.330 . S
C335 C337 1.446 . S
N336 Co295 2.151 . S
N336 C335 1.330 . S
N336 C340 1.418 . S
C337 H316 0.929 . S
C337 C335 1.446 . S
C337 C338 1.332 . S
C338 H318 0.931 . S
C338 C337 1.332 . S
C338 C339 1.267 . S
C339 H307 0.929 . S
C339 C338 1.267 . S
C339 C340 1.251 . S
C340 H310 0.929 . S
C340 N336 1.418 . S
C340 C339 1.251 . S
C341 H308 0.930 . S
C341 C343 1.406 . S
C341 C346 1.261 . S
C342 H309 0.930 . S
C342 N344 1.325 . S
C342 C345 1.357 . S
C343 H311 0.928 . S
C343 C341 1.406 . S
C343 N344 1.261 . S
N344 Co295 2.214 . S
N344 C342 1.325 . S
N344 C343 1.261 . S
C345 H315 0.931 . S
C345 C342 1.357 . S
C345 C346 1.312 . S
C346 H317 0.930 . S
C346 C341 1.261 . S
C346 C345 1.312 . S
C347 O319 1.214 . S
C347 O327 1.234 . S
C348 H320 0.929 . S
C348 C351 1.391 . S
C348 C353 1.391 . S
C349 H321 0.929 . S
C349 C350 1.390 . S
C349 N352 1.391 . S
C350 H322 0.930 . S
C350 C349 1.390 . S
C350 C351 1.392 . S
C351 H323 0.929 . S
C351 C348 1.391 . S
C351 C350 1.392 . S
N352 Co296 2.257 . S
N352 C349 1.391 . S
N352 C353 1.388 . S
C353 H324 0.930 . S
C353 C348 1.391 . S
C353 N352 1.388 . S
Co354 O356 2.143 . S
Co354 O362 2.074 . S
Co354 O365 2.093 . S
Co354 O378 2.097 . S
Co354 N395 2.151 . S
Co354 N403 2.214 . S
Co355 O356 2.160 . S
Co355 O361 2.058 . S
Co355 O371 2.057 . S
Co355 O386 2.037 . S
Co355 N390 2.145 . S
Co355 N411 2.257 . S
O356 Co354 2.143 . S
O356 Co355 2.160 . S
C357 O358 1.278 . S
C357 O365 1.224 . S
O358 C357 1.278 . S
C359 O360 1.245 . S
C359 O371 1.232 . S
O360 C359 1.245 . S
O361 Co355 2.058 . S
O361 C387 1.269 . S
O362 Co354 2.074 . S
O362 C387 1.257 . S
H363 C388 0.930 . S
H364 C394 0.930 . S
O365 Co354 2.093 . S
O365 C357 1.224 . S
H366 C398 0.929 . S
H367 C400 0.930 . S
H368 C401 0.930 . S
H369 C399 0.929 . S
H370 C402 0.928 . S
O371 Co355 2.057 . S
O371 C359 1.232 . S
H372 C391 0.929 . S
H373 C392 0.929 . S
H374 C404 0.931 . S
H375 C396 0.929 . S
H376 C405 0.930 . S
H377 C397 0.931 . S
O378 Co354 2.097 . S
O378 C406 1.214 . S
H379 C407 0.929 . S
H380 C408 0.929 . S
H381 C409 0.930 . S
H382 C410 0.929 . S
H383 C412 0.930 . S
H384 C389 0.930 . S
H385 C393 0.930 . S
O386 Co355 2.037 . S
O386 C406 1.234 . S
C387 O361 1.269 . S
C387 O362 1.257 . S
C388 H363 0.930 . S
C388 C391 1.388 . S
C388 C393 1.418 . S
C389 H384 0.930 . S
C389 C392 1.404 . S
C389 C393 1.353 . S
N390 Co355 2.145 . S
N390 C391 1.397 . S
N390 C392 1.334 . S
C391 H372 0.929 . S
C391 C388 1.388 . S
C391 N390 1.397 . S
C392 H373 0.929 . S
C392 C389 1.404 . S
C392 N390 1.334 . S
C393 H385 0.930 . S
C393 C388 1.418 . S
C393 C389 1.353 . S
C394 H364 0.930 . S
C394 N395 1.330 . S
C394 C396 1.446 . S
N395 Co354 2.151 . S
N395 C394 1.330 . S
N395 C399 1.418 . S
C396 H375 0.929 . S
C396 C394 1.446 . S
C396 C397 1.332 . S
C397 H377 0.931 . S
C397 C396 1.332 . S
C397 C398 1.267 . S
C398 H366 0.929 . S
C398 C397 1.267 . S
C398 C399 1.251 . S
C399 H369 0.929 . S
C399 N395 1.418 . S
C399 C398 1.251 . S
C400 H367 0.930 . S
C400 C402 1.406 . S
C400 C405 1.261 . S
C401 H368 0.930 . S
C401 N403 1.325 . S
C401 C404 1.357 . S
C402 H370 0.928 . S
C402 C400 1.406 . S
C402 N403 1.261 . S
N403 Co354 2.214 . S
N403 C401 1.325 . S
N403 C402 1.261 . S
C404 H374 0.931 . S
C404 C401 1.357 . S
C404 C405 1.312 . S
C405 H376 0.930 . S
C405 C400 1.261 . S
C405 C404 1.312 . S
C406 O378 1.214 . S
C406 O386 1.234 . S
C407 H379 0.929 . S
C407 C410 1.391 . S
C407 C412 1.391 . S
C408 H380 0.929 . S
C408 C409 1.390 . S
C408 N411 1.391 . S
C409 H381 0.930 . S
C409 C408 1.390 . S
C409 C410 1.392 . S
C410 H382 0.929 . S
C410 C407 1.391 . S
C410 C409 1.392 . S
N411 Co355 2.257 . S
N411 C408 1.391 . S
N411 C412 1.388 . S
C412 H383 0.930 . S
C412 C407 1.391 . S
C412 N411 1.388 . S
Co413 O415 2.143 . S
Co413 O421 2.074 . S
Co413 O424 2.093 . S
Co413 O437 2.097 . S
Co413 N454 2.151 . S
Co413 N462 2.214 . S
Co414 O415 2.160 . S
Co414 O420 2.058 . S
Co414 O430 2.057 . S
Co414 O445 2.037 . S
Co414 N449 2.145 . S
Co414 N470 2.257 . S
O415 Co413 2.143 . S
O415 Co414 2.160 . S
C416 O417 1.278 . S
C416 O424 1.224 . S
O417 C416 1.278 . S
C418 O419 1.245 . S
C418 O430 1.232 . S
O419 C418 1.245 . S
O420 Co414 2.058 . S
O420 C446 1.269 . S
O421 Co413 2.074 . S
O421 C446 1.257 . S
H422 C447 0.930 . S
H423 C453 0.930 . S
O424 Co413 2.093 . S
O424 C416 1.224 . S
H425 C457 0.929 . S
H426 C459 0.930 . S
H427 C460 0.930 . S
H428 C458 0.929 . S
H429 C461 0.928 . S
O430 Co414 2.057 . S
O430 C418 1.232 . S
H431 C450 0.929 . S
H432 C451 0.929 . S
H433 C463 0.931 . S
H434 C455 0.929 . S
H435 C464 0.930 . S
H436 C456 0.931 . S
O437 Co413 2.097 . S
O437 C465 1.214 . S
H438 C466 0.929 . S
H439 C467 0.929 . S
H440 C468 0.930 . S
H441 C469 0.929 . S
H442 C471 0.930 . S
H443 C448 0.930 . S
H444 C452 0.930 . S
O445 Co414 2.037 . S
O445 C465 1.234 . S
C446 O420 1.269 . S
C446 O421 1.257 . S
C447 H422 0.930 . S
C447 C450 1.388 . S
C447 C452 1.418 . S
C448 H443 0.930 . S
C448 C451 1.404 . S
C448 C452 1.353 . S
N449 Co414 2.145 . S
N449 C450 1.397 . S
N449 C451 1.334 . S
C450 H431 0.929 . S
C450 C447 1.388 . S
C450 N449 1.397 . S
C451 H432 0.929 . S
C451 C448 1.404 . S
C451 N449 1.334 . S
C452 H444 0.930 . S
C452 C447 1.418 . S
C452 C448 1.353 . S
C453 H423 0.930 . S
C453 N454 1.330 . S
C453 C455 1.446 . S
N454 Co413 2.151 . S
N454 C453 1.330 . S
N454 C458 1.418 . S
C455 H434 0.929 . S
C455 C453 1.446 . S
C455 C456 1.332 . S
C456 H436 0.931 . S
C456 C455 1.332 . S
C456 C457 1.267 . S
C457 H425 0.929 . S
C457 C456 1.267 . S
C457 C458 1.251 . S
C458 H428 0.929 . S
C458 N454 1.418 . S
C458 C457 1.251 . S
C459 H426 0.930 . S
C459 C461 1.406 . S
C459 C464 1.261 . S
C460 H427 0.930 . S
C460 N462 1.325 . S
C460 C463 1.357 . S
C461 H429 0.928 . S
C461 C459 1.406 . S
C461 N462 1.261 . S
N462 Co413 2.214 . S
N462 C460 1.325 . S
N462 C461 1.261 . S
C463 H433 0.931 . S
C463 C460 1.357 . S
C463 C464 1.312 . S
C464 H435 0.930 . S
C464 C459 1.261 . S
C464 C463 1.312 . S
C465 O437 1.214 . S
C465 O445 1.234 . S
C466 H438 0.929 . S
C466 C469 1.391 . S
C466 C471 1.391 . S
C467 H439 0.929 . S
C467 C468 1.390 . S
C467 N470 1.391 . S
C468 H440 0.930 . S
C468 C467 1.390 . S
C468 C469 1.392 . S
C469 H441 0.929 . S
C469 C466 1.391 . S
C469 C468 1.392 . S
N470 Co414 2.257 . S
N470 C467 1.391 . S
N470 C471 1.388 . S
C471 H442 0.930 . S
C471 C466 1.391 . S
C471 N470 1.388 . S
Co472 O474 2.143 . S
Co472 O480 2.074 . S
Co472 O483 2.093 . S
Co472 O496 2.097 . S
Co472 N513 2.151 . S
Co472 N521 2.214 . S
Co473 O474 2.160 . S
Co473 O479 2.058 . S
Co473 O489 2.057 . S
Co473 O504 2.037 . S
Co473 N508 2.145 . S
Co473 N529 2.257 . S
O474 Co472 2.143 . S
O474 Co473 2.160 . S
C475 O476 1.278 . S
C475 O483 1.224 . S
O476 C475 1.278 . S
C477 O478 1.245 . S
C477 O489 1.232 . S
O478 C477 1.245 . S
O479 Co473 2.058 . S
O479 C505 1.269 . S
O480 Co472 2.074 . S
O480 C505 1.257 . S
H481 C506 0.930 . S
H482 C512 0.930 . S
O483 Co472 2.093 . S
O483 C475 1.224 . S
H484 C516 0.929 . S
H485 C518 0.930 . S
H486 C519 0.930 . S
H487 C517 0.929 . S
H488 C520 0.928 . S
O489 Co473 2.057 . S
O489 C477 1.232 . S
H490 C509 0.929 . S
H491 C510 0.929 . S
H492 C522 0.931 . S
H493 C514 0.929 . S
H494 C523 0.930 . S
H495 C515 0.931 . S
O496 Co472 2.097 . S
O496 C524 1.214 . S
H497 C525 0.929 . S
H498 C526 0.929 . S
H499 C527 0.930 . S
H500 C528 0.929 . S
H501 C530 0.930 . S
H502 C507 0.930 . S
H503 C511 0.930 . S
O504 Co473 2.037 . S
O504 C524 1.234 . S
C505 O479 1.269 . S
C505 O480 1.257 . S
C506 H481 0.930 . S
C506 C509 1.388 . S
C506 C511 1.418 . S
C507 H502 0.930 . S
C507 C510 1.404 . S
C507 C511 1.353 . S
N508 Co473 2.145 . S
N508 C509 1.397 . S
N508 C510 1.334 . S
C509 H490 0.929 . S
C509 C506 1.388 . S
C509 N508 1.397 . S
C510 H491 0.929 . S
C510 C507 1.404 . S
C510 N508 1.334 . S
C511 H503 0.930 . S
C511 C506 1.418 . S
C511 C507 1.353 . S
C512 H482 0.930 . S
C512 N513 1.330 . S
C512 C514 1.446 . S
N513 Co472 2.151 . S
N513 C512 1.330 . S
N513 C517 1.418 . S
C514 H493 0.929 . S
C514 C512 1.446 . S
C514 C515 1.332 . S
C515 H495 0.931 . S
C515 C514 1.332 . S
C515 C516 1.267 . S
C516 H484 0.929 . S
C516 C515 1.267 . S
C516 C517 1.251 . S
C517 H487 0.929 . S
C517 N513 1.418 . S
C517 C516 1.251 . S
C518 H485 0.930 . S
C518 C520 1.406 . S
C518 C523 1.261 . S
C519 H486 0.930 . S
C519 N521 1.325 . S
C519 C522 1.357 . S
C520 H488 0.928 . S
C520 C518 1.406 . S
C520 N521 1.261 . S
N521 Co472 2.214 . S
N521 C519 1.325 . S
N521 C520 1.261 . S
C522 H492 0.931 . S
C522 C519 1.357 . S
C522 C523 1.312 . S
C523 H494 0.930 . S
C523 C518 1.261 . S
C523 C522 1.312 . S
C524 O496 1.214 . S
C524 O504 1.234 . S
C525 H497 0.929 . S
C525 C528 1.391 . S
C525 C530 1.391 . S
C526 H498 0.929 . S
C526 C527 1.390 . S
C526 N529 1.391 . S
C527 H499 0.930 . S
C527 C526 1.390 . S
C527 C528 1.392 . S
C528 H500 0.929 . S
C528 C525 1.391 . S
C528 C527 1.392 . S
N529 Co473 2.257 . S
N529 C526 1.391 . S
N529 C530 1.388 . S
C530 H501 0.930 . S
C530 C525 1.391 . S
C530 N529 1.388 . S
Co531 O533 2.143 . S
Co531 O539 2.074 . S
Co531 O542 2.093 . S
Co531 O555 2.097 . S
Co531 N572 2.151 . S
Co531 N580 2.214 . S
Co532 O533 2.160 . S
Co532 O538 2.058 . S
Co532 O548 2.057 . S
Co532 O563 2.037 . S
Co532 N567 2.145 . S
Co532 N588 2.257 . S
O533 Co531 2.143 . S
O533 Co532 2.160 . S
C534 O535 1.278 . S
C534 O542 1.224 . S
O535 C534 1.278 . S
C536 O537 1.245 . S
C536 O548 1.232 . S
O537 C536 1.245 . S
O538 Co532 2.058 . S
O538 C564 1.269 . S
O539 Co531 2.074 . S
O539 C564 1.257 . S
H540 C565 0.930 . S
H541 C571 0.930 . S
O542 Co531 2.093 . S
O542 C534 1.224 . S
H543 C575 0.929 . S
H544 C577 0.930 . S
H545 C578 0.930 . S
H546 C576 0.929 . S
H547 C579 0.928 . S
O548 Co532 2.057 . S
O548 C536 1.232 . S
H549 C568 0.929 . S
H550 C569 0.929 . S
H551 C581 0.931 . S
H552 C573 0.929 . S
H553 C582 0.930 . S
H554 C574 0.931 . S
O555 Co531 2.097 . S
O555 C583 1.214 . S
H556 C584 0.929 . S
H557 C585 0.929 . S
H558 C586 0.930 . S
H559 C587 0.929 . S
H560 C589 0.930 . S
H561 C566 0.930 . S
H562 C570 0.930 . S
O563 Co532 2.037 . S
O563 C583 1.234 . S
C564 O538 1.269 . S
C564 O539 1.257 . S
C565 H540 0.930 . S
C565 C568 1.388 . S
C565 C570 1.418 . S
C566 H561 0.930 . S
C566 C569 1.404 . S
C566 C570 1.353 . S
N567 Co532 2.145 . S
N567 C568 1.397 . S
N567 C569 1.334 . S
C568 H549 0.929 . S
C568 C565 1.388 . S
C568 N567 1.397 . S
C569 H550 0.929 . S
C569 C566 1.404 . S
C569 N567 1.334 . S
C570 H562 0.930 . S
C570 C565 1.418 . S
C570 C566 1.353 . S
C571 H541 0.930 . S
C571 N572 1.330 . S
C571 C573 1.446 . S
N572 Co531 2.151 . S
N572 C571 1.330 . S
N572 C576 1.418 . S
C573 H552 0.929 . S
C573 C571 1.446 . S
C573 C574 1.332 . S
C574 H554 0.931 . S
C574 C573 1.332 . S
C574 C575 1.267 . S
C575 H543 0.929 . S
C575 C574 1.267 . S
C575 C576 1.251 . S
C576 H546 0.929 . S
C576 N572 1.418 . S
C576 C575 1.251 . S
C577 H544 0.930 . S
C577 C579 1.406 . S
C577 C582 1.261 . S
C578 H545 0.930 . S
C578 N580 1.325 . S
C578 C581 1.357 . S
C579 H547 0.928 . S
C579 C577 1.406 . S
C579 N580 1.261 . S
N580 Co531 2.214 . S
N580 C578 1.325 . S
N580 C579 1.261 . S
C581 H551 0.931 . S
C581 C578 1.357 . S
C581 C582 1.312 . S
C582 H553 0.930 . S
C582 C577 1.261 . S
C582 C581 1.312 . S
C583 O555 1.214 . S
C583 O563 1.234 . S
C584 H556 0.929 . S
C584 C587 1.391 . S
C584 C589 1.391 . S
C585 H557 0.929 . S
C585 C586 1.390 . S
C585 N588 1.391 . S
C586 H558 0.930 . S
C586 C585 1.390 . S
C586 C587 1.392 . S
C587 H559 0.929 . S
C587 C584 1.391 . S
C587 C586 1.392 . S
N588 Co532 2.257 . S
N588 C585 1.391 . S
N588 C589 1.388 . S
C589 H560 0.930 . S
C589 C584 1.391 . S
C589 N588 1.388 . S
Co590 O592 2.143 . S
Co590 O598 2.074 . S
Co590 O601 2.093 . S
Co590 O614 2.097 . S
Co590 N631 2.151 . S
Co590 N639 2.214 . S
Co591 O592 2.160 . S
Co591 O597 2.058 . S
Co591 O607 2.057 . S
Co591 O622 2.037 . S
Co591 N626 2.145 . S
Co591 N647 2.257 . S
O592 Co590 2.143 . S
O592 Co591 2.160 . S
C593 O594 1.278 . S
C593 O601 1.224 . S
O594 C593 1.278 . S
C595 O596 1.245 . S
C595 O607 1.232 . S
O596 C595 1.245 . S
O597 Co591 2.058 . S
O597 C623 1.269 . S
O598 Co590 2.074 . S
O598 C623 1.257 . S
H599 C624 0.930 . S
H600 C630 0.930 . S
O601 Co590 2.093 . S
O601 C593 1.224 . S
H602 C634 0.929 . S
H603 C636 0.930 . S
H604 C637 0.930 . S
H605 C635 0.929 . S
H606 C638 0.928 . S
O607 Co591 2.057 . S
O607 C595 1.232 . S
H608 C627 0.929 . S
H609 C628 0.929 . S
H610 C640 0.931 . S
H611 C632 0.929 . S
H612 C641 0.930 . S
H613 C633 0.931 . S
O614 Co590 2.097 . S
O614 C642 1.214 . S
H615 C643 0.929 . S
H616 C644 0.929 . S
H617 C645 0.930 . S
H618 C646 0.929 . S
H619 C648 0.930 . S
H620 C625 0.930 . S
H621 C629 0.930 . S
O622 Co591 2.037 . S
O622 C642 1.234 . S
C623 O597 1.269 . S
C623 O598 1.257 . S
C624 H599 0.930 . S
C624 C627 1.388 . S
C624 C629 1.418 . S
C625 H620 0.930 . S
C625 C628 1.404 . S
C625 C629 1.353 . S
N626 Co591 2.145 . S
N626 C627 1.397 . S
N626 C628 1.334 . S
C627 H608 0.929 . S
C627 C624 1.388 . S
C627 N626 1.397 . S
C628 H609 0.929 . S
C628 C625 1.404 . S
C628 N626 1.334 . S
C629 H621 0.930 . S
C629 C624 1.418 . S
C629 C625 1.353 . S
C630 H600 0.930 . S
C630 N631 1.330 . S
C630 C632 1.446 . S
N631 Co590 2.151 . S
N631 C630 1.330 . S
N631 C635 1.418 . S
C632 H611 0.929 . S
C632 C630 1.446 . S
C632 C633 1.332 . S
C633 H613 0.931 . S
C633 C632 1.332 . S
C633 C634 1.267 . S
C634 H602 0.929 . S
C634 C633 1.267 . S
C634 C635 1.251 . S
C635 H605 0.929 . S
C635 N631 1.418 . S
C635 C634 1.251 . S
C636 H603 0.930 . S
C636 C638 1.406 . S
C636 C641 1.261 . S
C637 H604 0.930 . S
C637 N639 1.325 . S
C637 C640 1.357 . S
C638 H606 0.928 . S
C638 C636 1.406 . S
C638 N639 1.261 . S
N639 Co590 2.214 . S
N639 C637 1.325 . S
N639 C638 1.261 . S
C640 H610 0.931 . S
C640 C637 1.357 . S
C640 C641 1.312 . S
C641 H612 0.930 . S
C641 C636 1.261 . S
C641 C640 1.312 . S
C642 O614 1.214 . S
C642 O622 1.234 . S
C643 H615 0.929 . S
C643 C646 1.391 . S
C643 C648 1.391 . S
C644 H616 0.929 . S
C644 C645 1.390 . S
C644 N647 1.391 . S
C645 H617 0.930 . S
C645 C644 1.390 . S
C645 C646 1.392 . S
C646 H618 0.929 . S
C646 C643 1.391 . S
C646 C645 1.392 . S
N647 Co591 2.257 . S
N647 C644 1.391 . S
N647 C648 1.388 . S
C648 H619 0.930 . S
C648 C643 1.391 . S
C648 N647 1.388 . S
Co649 O651 2.143 . S
Co649 O657 2.074 . S
Co649 O660 2.093 . S
Co649 O673 2.097 . S
Co649 N690 2.151 . S
Co649 N698 2.214 . S
Co650 O651 2.160 . S
Co650 O656 2.058 . S
Co650 O666 2.057 . S
Co650 O681 2.037 . S
Co650 N685 2.145 . S
Co650 N706 2.257 . S
O651 Co649 2.143 . S
O651 Co650 2.160 . S
C652 O653 1.278 . S
C652 O660 1.224 . S
O653 C652 1.278 . S
C654 O655 1.245 . S
C654 O666 1.232 . S
O655 C654 1.245 . S
O656 Co650 2.058 . S
O656 C682 1.269 . S
O657 Co649 2.074 . S
O657 C682 1.257 . S
H658 C683 0.930 . S
H659 C689 0.930 . S
O660 Co649 2.093 . S
O660 C652 1.224 . S
H661 C693 0.929 . S
H662 C695 0.930 . S
H663 C696 0.930 . S
H664 C694 0.929 . S
H665 C697 0.928 . S
O666 Co650 2.057 . S
O666 C654 1.232 . S
H667 C686 0.929 . S
H668 C687 0.929 . S
H669 C699 0.931 . S
H670 C691 0.929 . S
H671 C700 0.930 . S
H672 C692 0.931 . S
O673 Co649 2.097 . S
O673 C701 1.214 . S
H674 C702 0.929 . S
H675 C703 0.929 . S
H676 C704 0.930 . S
H677 C705 0.929 . S
H678 C707 0.930 . S
H679 C684 0.930 . S
H680 C688 0.930 . S
O681 Co650 2.037 . S
O681 C701 1.234 . S
C682 O656 1.269 . S
C682 O657 1.257 . S
C683 H658 0.930 . S
C683 C686 1.388 . S
C683 C688 1.418 . S
C684 H679 0.930 . S
C684 C687 1.404 . S
C684 C688 1.353 . S
N685 Co650 2.145 . S
N685 C686 1.397 . S
N685 C687 1.334 . S
C686 H667 0.929 . S
C686 C683 1.388 . S
C686 N685 1.397 . S
C687 H668 0.929 . S
C687 C684 1.404 . S
C687 N685 1.334 . S
C688 H680 0.930 . S
C688 C683 1.418 . S
C688 C684 1.353 . S
C689 H659 0.930 . S
C689 N690 1.330 . S
C689 C691 1.446 . S
N690 Co649 2.151 . S
N690 C689 1.330 . S
N690 C694 1.418 . S
C691 H670 0.929 . S
C691 C689 1.446 . S
C691 C692 1.332 . S
C692 H672 0.931 . S
C692 C691 1.332 . S
C692 C693 1.267 . S
C693 H661 0.929 . S
C693 C692 1.267 . S
C693 C694 1.251 . S
C694 H664 0.929 . S
C694 N690 1.418 . S
C694 C693 1.251 . S
C695 H662 0.930 . S
C695 C697 1.406 . S
C695 C700 1.261 . S
C696 H663 0.930 . S
C696 N698 1.325 . S
C696 C699 1.357 . S
C697 H665 0.928 . S
C697 C695 1.406 . S
C697 N698 1.261 . S
N698 Co649 2.214 . S
N698 C696 1.325 . S
N698 C697 1.261 . S
C699 H669 0.931 . S
C699 C696 1.357 . S
C699 C700 1.312 . S
C700 H671 0.930 . S
C700 C695 1.261 . S
C700 C699 1.312 . S
C701 O673 1.214 . S
C701 O681 1.234 . S
C702 H674 0.929 . S
C702 C705 1.391 . S
C702 C707 1.391 . S
C703 H675 0.929 . S
C703 C704 1.390 . S
C703 N706 1.391 . S
C704 H676 0.930 . S
C704 C703 1.390 . S
C704 C705 1.392 . S
C705 H677 0.929 . S
C705 C702 1.391 . S
C705 C704 1.392 . S
N706 Co650 2.257 . S
N706 C703 1.391 . S
N706 C707 1.388 . S
C707 H678 0.930 . S
C707 C702 1.391 . S
C707 N706 1.388 . S
Co708 O710 2.143 . S
Co708 O716 2.074 . S
Co708 O719 2.093 . S
Co708 O732 2.097 . S
Co708 N749 2.151 . S
Co708 N757 2.214 . S
Co709 O710 2.160 . S
Co709 O715 2.058 . S
Co709 O725 2.057 . S
Co709 O740 2.037 . S
Co709 N744 2.145 . S
Co709 N765 2.257 . S
O710 Co708 2.143 . S
O710 Co709 2.160 . S
C711 O712 1.278 . S
C711 O719 1.224 . S
O712 C711 1.278 . S
C713 O714 1.245 . S
C713 O725 1.232 . S
O714 C713 1.245 . S
O715 Co709 2.058 . S
O715 C741 1.269 . S
O716 Co708 2.074 . S
O716 C741 1.257 . S
H717 C742 0.930 . S
H718 C748 0.930 . S
O719 Co708 2.093 . S
O719 C711 1.224 . S
H720 C752 0.929 . S
H721 C754 0.930 . S
H722 C755 0.930 . S
H723 C753 0.929 . S
H724 C756 0.928 . S
O725 Co709 2.057 . S
O725 C713 1.232 . S
H726 C745 0.929 . S
H727 C746 0.929 . S
H728 C758 0.931 . S
H729 C750 0.929 . S
H730 C759 0.930 . S
H731 C751 0.931 . S
O732 Co708 2.097 . S
O732 C760 1.214 . S
H733 C761 0.929 . S
H734 C762 0.929 . S
H735 C763 0.930 . S
H736 C764 0.929 . S
H737 C766 0.930 . S
H738 C743 0.930 . S
H739 C747 0.930 . S
O740 Co709 2.037 . S
O740 C760 1.234 . S
C741 O715 1.269 . S
C741 O716 1.257 . S
C742 H717 0.930 . S
C742 C745 1.388 . S
C742 C747 1.418 . S
C743 H738 0.930 . S
C743 C746 1.404 . S
C743 C747 1.353 . S
N744 Co709 2.145 . S
N744 C745 1.397 . S
N744 C746 1.334 . S
C745 H726 0.929 . S
C745 C742 1.388 . S
C745 N744 1.397 . S
C746 H727 0.929 . S
C746 C743 1.404 . S
C746 N744 1.334 . S
C747 H739 0.930 . S
C747 C742 1.418 . S
C747 C743 1.353 . S
C748 H718 0.930 . S
C748 N749 1.330 . S
C748 C750 1.446 . S
N749 Co708 2.151 . S
N749 C748 1.330 . S
N749 C753 1.418 . S
C750 H729 0.929 . S
C750 C748 1.446 . S
C750 C751 1.332 . S
C751 H731 0.931 . S
C751 C750 1.332 . S
C751 C752 1.267 . S
C752 H720 0.929 . S
C752 C751 1.267 . S
C752 C753 1.251 . S
C753 H723 0.929 . S
C753 N749 1.418 . S
C753 C752 1.251 . S
C754 H721 0.930 . S
C754 C756 1.406 . S
C754 C759 1.261 . S
C755 H722 0.930 . S
C755 N757 1.325 . S
C755 C758 1.357 . S
C756 H724 0.928 . S
C756 C754 1.406 . S
C756 N757 1.261 . S
N757 Co708 2.214 . S
N757 C755 1.325 . S
N757 C756 1.261 . S
C758 H728 0.931 . S
C758 C755 1.357 . S
C758 C759 1.312 . S
C759 H730 0.930 . S
C759 C754 1.261 . S
C759 C758 1.312 . S
C760 O732 1.214 . S
C760 O740 1.234 . S
C761 H733 0.929 . S
C761 C764 1.391 . S
C761 C766 1.391 . S
C762 H734 0.929 . S
C762 C763 1.390 . S
C762 N765 1.391 . S
C763 H735 0.930 . S
C763 C762 1.390 . S
C763 C764 1.392 . S
C764 H736 0.929 . S
C764 C761 1.391 . S
C764 C763 1.392 . S
N765 Co709 2.257 . S
N765 C762 1.391 . S
N765 C766 1.388 . S
C766 H737 0.930 . S
C766 C761 1.391 . S
C766 N765 1.388 . S
Co767 O769 2.143 . S
Co767 O775 2.074 . S
Co767 O778 2.093 . S
Co767 O791 2.097 . S
Co767 N808 2.151 . S
Co767 N816 2.214 . S
Co768 O769 2.160 . S
Co768 O774 2.058 . S
Co768 O784 2.057 . S
Co768 O799 2.037 . S
Co768 N803 2.145 . S
Co768 N824 2.257 . S
O769 Co767 2.143 . S
O769 Co768 2.160 . S
C770 O771 1.278 . S
C770 O778 1.224 . S
O771 C770 1.278 . S
C772 O773 1.245 . S
C772 O784 1.232 . S
O773 C772 1.245 . S
O774 Co768 2.058 . S
O774 C800 1.269 . S
O775 Co767 2.074 . S
O775 C800 1.257 . S
H776 C801 0.930 . S
H777 C807 0.930 . S
O778 Co767 2.093 . S
O778 C770 1.224 . S
H779 C811 0.929 . S
H780 C813 0.930 . S
H781 C814 0.930 . S
H782 C812 0.929 . S
H783 C815 0.928 . S
O784 Co768 2.057 . S
O784 C772 1.232 . S
H785 C804 0.929 . S
H786 C805 0.929 . S
H787 C817 0.931 . S
H788 C809 0.929 . S
H789 C818 0.930 . S
H790 C810 0.931 . S
O791 Co767 2.097 . S
O791 C819 1.214 . S
H792 C820 0.929 . S
H793 C821 0.929 . S
H794 C822 0.930 . S
H795 C823 0.929 . S
H796 C825 0.930 . S
H797 C802 0.930 . S
H798 C806 0.930 . S
O799 Co768 2.037 . S
O799 C819 1.234 . S
C800 O774 1.269 . S
C800 O775 1.257 . S
C801 H776 0.930 . S
C801 C804 1.388 . S
C801 C806 1.418 . S
C802 H797 0.930 . S
C802 C805 1.404 . S
C802 C806 1.353 . S
N803 Co768 2.145 . S
N803 C804 1.397 . S
N803 C805 1.334 . S
C804 H785 0.929 . S
C804 C801 1.388 . S
C804 N803 1.397 . S
C805 H786 0.929 . S
C805 C802 1.404 . S
C805 N803 1.334 . S
C806 H798 0.930 . S
C806 C801 1.418 . S
C806 C802 1.353 . S
C807 H777 0.930 . S
C807 N808 1.330 . S
C807 C809 1.446 . S
N808 Co767 2.151 . S
N808 C807 1.330 . S
N808 C812 1.418 . S
C809 H788 0.929 . S
C809 C807 1.446 . S
C809 C810 1.332 . S
C810 H790 0.931 . S
C810 C809 1.332 . S
C810 C811 1.267 . S
C811 H779 0.929 . S
C811 C810 1.267 . S
C811 C812 1.251 . S
C812 H782 0.929 . S
C812 N808 1.418 . S
C812 C811 1.251 . S
C813 H780 0.930 . S
C813 C815 1.406 . S
C813 C818 1.261 . S
C814 H781 0.930 . S
C814 N816 1.325 . S
C814 C817 1.357 . S
C815 H783 0.928 . S
C815 C813 1.406 . S
C815 N816 1.261 . S
N816 Co767 2.214 . S
N816 C814 1.325 . S
N816 C815 1.261 . S
C817 H787 0.931 . S
C817 C814 1.357 . S
C817 C818 1.312 . S
C818 H789 0.930 . S
C818 C813 1.261 . S
C818 C817 1.312 . S
C819 O791 1.214 . S
C819 O799 1.234 . S
C820 H792 0.929 . S
C820 C823 1.391 . S
C820 C825 1.391 . S
C821 H793 0.929 . S
C821 C822 1.390 . S
C821 N824 1.391 . S
C822 H794 0.930 . S
C822 C821 1.390 . S
C822 C823 1.392 . S
C823 H795 0.929 . S
C823 C820 1.391 . S
C823 C822 1.392 . S
N824 Co768 2.257 . S
N824 C821 1.391 . S
N824 C825 1.388 . S
C825 H796 0.930 . S
C825 C820 1.391 . S
C825 N824 1.388 . S
Co826 O828 2.143 . S
Co826 O834 2.074 . S
Co826 O837 2.093 . S
Co826 O850 2.097 . S
Co826 N867 2.151 . S
Co826 N875 2.214 . S
Co827 O828 2.160 . S
Co827 O833 2.058 . S
Co827 O843 2.057 . S
Co827 O858 2.037 . S
Co827 N862 2.145 . S
Co827 N883 2.257 . S
O828 Co826 2.143 . S
O828 Co827 2.160 . S
C829 O830 1.278 . S
C829 O837 1.224 . S
O830 C829 1.278 . S
C831 O832 1.245 . S
C831 O843 1.232 . S
O832 C831 1.245 . S
O833 Co827 2.058 . S
O833 C859 1.269 . S
O834 Co826 2.074 . S
O834 C859 1.257 . S
H835 C860 0.930 . S
H836 C866 0.930 . S
O837 Co826 2.093 . S
O837 C829 1.224 . S
H838 C870 0.929 . S
H839 C872 0.930 . S
H840 C873 0.930 . S
H841 C871 0.929 . S
H842 C874 0.928 . S
O843 Co827 2.057 . S
O843 C831 1.232 . S
H844 C863 0.929 . S
H845 C864 0.929 . S
H846 C876 0.931 . S
H847 C868 0.929 . S
H848 C877 0.930 . S
H849 C869 0.931 . S
O850 Co826 2.097 . S
O850 C878 1.214 . S
H851 C879 0.929 . S
H852 C880 0.929 . S
H853 C881 0.930 . S
H854 C882 0.929 . S
H855 C884 0.930 . S
H856 C861 0.930 . S
H857 C865 0.930 . S
O858 Co827 2.037 . S
O858 C878 1.234 . S
C859 O833 1.269 . S
C859 O834 1.257 . S
C860 H835 0.930 . S
C860 C863 1.388 . S
C860 C865 1.418 . S
C861 H856 0.930 . S
C861 C864 1.404 . S
C861 C865 1.353 . S
N862 Co827 2.145 . S
N862 C863 1.397 . S
N862 C864 1.334 . S
C863 H844 0.929 . S
C863 C860 1.388 . S
C863 N862 1.397 . S
C864 H845 0.929 . S
C864 C861 1.404 . S
C864 N862 1.334 . S
C865 H857 0.930 . S
C865 C860 1.418 . S
C865 C861 1.353 . S
C866 H836 0.930 . S
C866 N867 1.330 . S
C866 C868 1.446 . S
N867 Co826 2.151 . S
N867 C866 1.330 . S
N867 C871 1.418 . S
C868 H847 0.929 . S
C868 C866 1.446 . S
C868 C869 1.332 . S
C869 H849 0.931 . S
C869 C868 1.332 . S
C869 C870 1.267 . S
C870 H838 0.929 . S
C870 C869 1.267 . S
C870 C871 1.251 . S
C871 H841 0.929 . S
C871 N867 1.418 . S
C871 C870 1.251 . S
C872 H839 0.930 . S
C872 C874 1.406 . S
C872 C877 1.261 . S
C873 H840 0.930 . S
C873 N875 1.325 . S
C873 C876 1.357 . S
C874 H842 0.928 . S
C874 C872 1.406 . S
C874 N875 1.261 . S
N875 Co826 2.214 . S
N875 C873 1.325 . S
N875 C874 1.261 . S
C876 H846 0.931 . S
C876 C873 1.357 . S
C876 C877 1.312 . S
C877 H848 0.930 . S
C877 C872 1.261 . S
C877 C876 1.312 . S
C878 O850 1.214 . S
C878 O858 1.234 . S
C879 H851 0.929 . S
C879 C882 1.391 . S
C879 C884 1.391 . S
C880 H852 0.929 . S
C880 C881 1.390 . S
C880 N883 1.391 . S
C881 H853 0.930 . S
C881 C880 1.390 . S
C881 C882 1.392 . S
C882 H854 0.929 . S
C882 C879 1.391 . S
C882 C881 1.392 . S
N883 Co827 2.257 . S
N883 C880 1.391 . S
N883 C884 1.388 . S
C884 H855 0.930 . S
C884 C879 1.391 . S
C884 N883 1.388 . S
Co885 O887 2.143 . S
Co885 O893 2.074 . S
Co885 O896 2.093 . S
Co885 O909 2.097 . S
Co885 N926 2.151 . S
Co885 N934 2.214 . S
Co886 O887 2.160 . S
Co886 O892 2.058 . S
Co886 O902 2.057 . S
Co886 O917 2.037 . S
Co886 N921 2.145 . S
Co886 N942 2.257 . S
O887 Co885 2.143 . S
O887 Co886 2.160 . S
C888 O889 1.278 . S
C888 O896 1.224 . S
O889 C888 1.278 . S
C890 O891 1.245 . S
C890 O902 1.232 . S
O891 C890 1.245 . S
O892 Co886 2.058 . S
O892 C918 1.269 . S
O893 Co885 2.074 . S
O893 C918 1.257 . S
H894 C919 0.930 . S
H895 C925 0.930 . S
O896 Co885 2.093 . S
O896 C888 1.224 . S
H897 C929 0.929 . S
H898 C931 0.930 . S
H899 C932 0.930 . S
H900 C930 0.929 . S
H901 C933 0.928 . S
O902 Co886 2.057 . S
O902 C890 1.232 . S
H903 C922 0.929 . S
H904 C923 0.929 . S
H905 C935 0.931 . S
H906 C927 0.929 . S
H907 C936 0.930 . S
H908 C928 0.931 . S
O909 Co885 2.097 . S
O909 C937 1.214 . S
H910 C938 0.929 . S
H911 C939 0.929 . S
H912 C940 0.930 . S
H913 C941 0.929 . S
H914 C943 0.930 . S
H915 C920 0.930 . S
H916 C924 0.930 . S
O917 Co886 2.037 . S
O917 C937 1.234 . S
C918 O892 1.269 . S
C918 O893 1.257 . S
C919 H894 0.930 . S
C919 C922 1.388 . S
C919 C924 1.418 . S
C920 H915 0.930 . S
C920 C923 1.404 . S
C920 C924 1.353 . S
N921 Co886 2.145 . S
N921 C922 1.397 . S
N921 C923 1.334 . S
C922 H903 0.929 . S
C922 C919 1.388 . S
C922 N921 1.397 . S
C923 H904 0.929 . S
C923 C920 1.404 . S
C923 N921 1.334 . S
C924 H916 0.930 . S
C924 C919 1.418 . S
C924 C920 1.353 . S
C925 H895 0.930 . S
C925 N926 1.330 . S
C925 C927 1.446 . S
N926 Co885 2.151 . S
N926 C925 1.330 . S
N926 C930 1.418 . S
C927 H906 0.929 . S
C927 C925 1.446 . S
C927 C928 1.332 . S
C928 H908 0.931 . S
C928 C927 1.332 . S
C928 C929 1.267 . S
C929 H897 0.929 . S
C929 C928 1.267 . S
C929 C930 1.251 . S
C930 H900 0.929 . S
C930 N926 1.418 . S
C930 C929 1.251 . S
C931 H898 0.930 . S
C931 C933 1.406 . S
C931 C936 1.261 . S
C932 H899 0.930 . S
C932 N934 1.325 . S
C932 C935 1.357 . S
C933 H901 0.928 . S
C933 C931 1.406 . S
C933 N934 1.261 . S
N934 Co885 2.214 . S
N934 C932 1.325 . S
N934 C933 1.261 . S
C935 H905 0.931 . S
C935 C932 1.357 . S
C935 C936 1.312 . S
C936 H907 0.930 . S
C936 C931 1.261 . S
C936 C935 1.312 . S
C937 O909 1.214 . S
C937 O917 1.234 . S
C938 H910 0.929 . S
C938 C941 1.391 . S
C938 C943 1.391 . S
C939 H911 0.929 . S
C939 C940 1.390 . S
C939 N942 1.391 . S
C940 H912 0.930 . S
C940 C939 1.390 . S
C940 C941 1.392 . S
C941 H913 0.929 . S
C941 C938 1.391 . S
C941 C940 1.392 . S
N942 Co886 2.257 . S
N942 C939 1.391 . S
N942 C943 1.388 . S
C943 H914 0.930 . S
C943 C938 1.391 . S
C943 N942 1.388 . S
Co944 O946 2.143 . S
Co944 O952 2.074 . S
Co944 O955 2.093 . S
Co944 O968 2.097 . S
Co944 N985 2.151 . S
Co944 N993 2.214 . S
Co945 O946 2.160 . S
Co945 O951 2.058 . S
Co945 O961 2.057 . S
Co945 O976 2.037 . S
Co945 N980 2.145 . S
Co945 N1001 2.257 . S
O946 Co944 2.143 . S
O946 Co945 2.160 . S
C947 O948 1.278 . S
C947 O955 1.224 . S
O948 C947 1.278 . S
C949 O950 1.245 . S
C949 O961 1.232 . S
O950 C949 1.245 . S
O951 Co945 2.058 . S
O951 C977 1.269 . S
O952 Co944 2.074 . S
O952 C977 1.257 . S
H953 C978 0.930 . S
H954 C984 0.930 . S
O955 Co944 2.093 . S
O955 C947 1.224 . S
H956 C988 0.929 . S
H957 C990 0.930 . S
H958 C991 0.930 . S
H959 C989 0.929 . S
H960 C992 0.928 . S
O961 Co945 2.057 . S
O961 C949 1.232 . S
H962 C981 0.929 . S
H963 C982 0.929 . S
H964 C994 0.931 . S
H965 C986 0.929 . S
H966 C995 0.930 . S
H967 C987 0.931 . S
O968 Co944 2.097 . S
O968 C996 1.214 . S
H969 C997 0.929 . S
H970 C998 0.929 . S
H971 C999 0.930 . S
H972 C1000 0.929 . S
H973 C1002 0.930 . S
H974 C979 0.930 . S
H975 C983 0.930 . S
O976 Co945 2.037 . S
O976 C996 1.234 . S
C977 O951 1.269 . S
C977 O952 1.257 . S
C978 H953 0.930 . S
C978 C981 1.388 . S
C978 C983 1.418 . S
C979 H974 0.930 . S
C979 C982 1.404 . S
C979 C983 1.353 . S
N980 Co945 2.145 . S
N980 C981 1.397 . S
N980 C982 1.334 . S
C981 H962 0.929 . S
C981 C978 1.388 . S
C981 N980 1.397 . S
C982 H963 0.929 . S
C982 C979 1.404 . S
C982 N980 1.334 . S
C983 H975 0.930 . S
C983 C978 1.418 . S
C983 C979 1.353 . S
C984 H954 0.930 . S
C984 N985 1.330 . S
C984 C986 1.446 . S
N985 Co944 2.151 . S
N985 C984 1.330 . S
N985 C989 1.418 . S
C986 H965 0.929 . S
C986 C984 1.446 . S
C986 C987 1.332 . S
C987 H967 0.931 . S
C987 C986 1.332 . S
C987 C988 1.267 . S
C988 H956 0.929 . S
C988 C987 1.267 . S
C988 C989 1.251 . S
C989 H959 0.929 . S
C989 N985 1.418 . S
C989 C988 1.251 . S
C990 H957 0.930 . S
C990 C992 1.406 . S
C990 C995 1.261 . S
C991 H958 0.930 . S
C991 N993 1.325 . S
C991 C994 1.357 . S
C992 H960 0.928 . S
C992 C990 1.406 . S
C992 N993 1.261 . S
N993 Co944 2.214 . S
N993 C991 1.325 . S
N993 C992 1.261 . S
C994 H964 0.931 . S
C994 C991 1.357 . S
C994 C995 1.312 . S
C995 H966 0.930 . S
C995 C990 1.261 . S
C995 C994 1.312 . S
C996 O968 1.214 . S
C996 O976 1.234 . S
C997 H969 0.929 . S
C997 C1000 1.391 . S
C997 C1002 1.391 . S
C998 H970 0.929 . S
C998 C999 1.390 . S
C998 N1001 1.391 . S
C999 H971 0.930 . S
C999 C998 1.390 . S
C999 C1000 1.392 . S
C1000 H972 0.929 . S
C1000 C997 1.391 . S
C1000 C999 1.392 . S
N1001 Co945 2.257 . S
N1001 C998 1.391 . S
N1001 C1002 1.388 . S
C1002 H973 0.930 . S
C1002 C997 1.391 . S
C1002 N1001 1.388 . S
Co1003 O1005 2.143 . S
Co1003 O1011 2.074 . S
Co1003 O1014 2.093 . S
Co1003 O1027 2.097 . S
Co1003 N1044 2.151 . S
Co1003 N1052 2.214 . S
Co1004 O1005 2.160 . S
Co1004 O1010 2.058 . S
Co1004 O1020 2.057 . S
Co1004 O1035 2.037 . S
Co1004 N1039 2.145 . S
Co1004 N1060 2.257 . S
O1005 Co1003 2.143 . S
O1005 Co1004 2.160 . S
C1006 O1007 1.278 . S
C1006 O1014 1.224 . S
O1007 C1006 1.278 . S
C1008 O1009 1.245 . S
C1008 O1020 1.232 . S
O1009 C1008 1.245 . S
O1010 Co1004 2.058 . S
O1010 C1036 1.269 . S
O1011 Co1003 2.074 . S
O1011 C1036 1.257 . S
H1012 C1037 0.930 . S
H1013 C1043 0.930 . S
O1014 Co1003 2.093 . S
O1014 C1006 1.224 . S
H1015 C1047 0.929 . S
H1016 C1049 0.930 . S
H1017 C1050 0.930 . S
H1018 C1048 0.929 . S
H1019 C1051 0.928 . S
O1020 Co1004 2.057 . S
O1020 C1008 1.232 . S
H1021 C1040 0.929 . S
H1022 C1041 0.929 . S
H1023 C1053 0.931 . S
H1024 C1045 0.929 . S
H1025 C1054 0.930 . S
H1026 C1046 0.931 . S
O1027 Co1003 2.097 . S
O1027 C1055 1.214 . S
H1028 C1056 0.929 . S
H1029 C1057 0.929 . S
H1030 C1058 0.930 . S
H1031 C1059 0.929 . S
H1032 C1061 0.930 . S
H1033 C1038 0.930 . S
H1034 C1042 0.930 . S
O1035 Co1004 2.037 . S
O1035 C1055 1.234 . S
C1036 O1010 1.269 . S
C1036 O1011 1.257 . S
C1037 H1012 0.930 . S
C1037 C1040 1.388 . S
C1037 C1042 1.418 . S
C1038 H1033 0.930 . S
C1038 C1041 1.404 . S
C1038 C1042 1.353 . S
N1039 Co1004 2.145 . S
N1039 C1040 1.397 . S
N1039 C1041 1.334 . S
C1040 H1021 0.929 . S
C1040 C1037 1.388 . S
C1040 N1039 1.397 . S
C1041 H1022 0.929 . S
C1041 C1038 1.404 . S
C1041 N1039 1.334 . S
C1042 H1034 0.930 . S
C1042 C1037 1.418 . S
C1042 C1038 1.353 . S
C1043 H1013 0.930 . S
C1043 N1044 1.330 . S
C1043 C1045 1.446 . S
N1044 Co1003 2.151 . S
N1044 C1043 1.330 . S
N1044 C1048 1.418 . S
C1045 H1024 0.929 . S
C1045 C1043 1.446 . S
C1045 C1046 1.332 . S
C1046 H1026 0.931 . S
C1046 C1045 1.332 . S
C1046 C1047 1.267 . S
C1047 H1015 0.929 . S
C1047 C1046 1.267 . S
C1047 C1048 1.251 . S
C1048 H1018 0.929 . S
C1048 N1044 1.418 . S
C1048 C1047 1.251 . S
C1049 H1016 0.930 . S
C1049 C1051 1.406 . S
C1049 C1054 1.261 . S
C1050 H1017 0.930 . S
C1050 N1052 1.325 . S
C1050 C1053 1.357 . S
C1051 H1019 0.928 . S
C1051 C1049 1.406 . S
C1051 N1052 1.261 . S
N1052 Co1003 2.214 . S
N1052 C1050 1.325 . S
N1052 C1051 1.261 . S
C1053 H1023 0.931 . S
C1053 C1050 1.357 . S
C1053 C1054 1.312 . S
C1054 H1025 0.930 . S
C1054 C1049 1.261 . S
C1054 C1053 1.312 . S
C1055 O1027 1.214 . S
C1055 O1035 1.234 . S
C1056 H1028 0.929 . S
C1056 C1059 1.391 . S
C1056 C1061 1.391 . S
C1057 H1029 0.929 . S
C1057 C1058 1.390 . S
C1057 N1060 1.391 . S
C1058 H1030 0.930 . S
C1058 C1057 1.390 . S
C1058 C1059 1.392 . S
C1059 H1031 0.929 . S
C1059 C1056 1.391 . S
C1059 C1058 1.392 . S
N1060 Co1004 2.257 . S
N1060 C1057 1.391 . S
N1060 C1061 1.388 . S
C1061 H1032 0.930 . S
C1061 C1056 1.391 . S
C1061 N1060 1.388 . S
Co1062 O1064 2.143 . S
Co1062 O1070 2.074 . S
Co1062 O1073 2.093 . S
Co1062 O1086 2.097 . S
Co1062 N1103 2.151 . S
Co1062 N1111 2.214 . S
Co1063 O1064 2.160 . S
Co1063 O1069 2.058 . S
Co1063 O1079 2.057 . S
Co1063 O1094 2.037 . S
Co1063 N1098 2.145 . S
Co1063 N1119 2.257 . S
O1064 Co1062 2.143 . S
O1064 Co1063 2.160 . S
C1065 O1066 1.278 . S
C1065 O1073 1.224 . S
O1066 C1065 1.278 . S
C1067 O1068 1.245 . S
C1067 O1079 1.232 . S
O1068 C1067 1.245 . S
O1069 Co1063 2.058 . S
O1069 C1095 1.269 . S
O1070 Co1062 2.074 . S
O1070 C1095 1.257 . S
H1071 C1096 0.930 . S
H1072 C1102 0.930 . S
O1073 Co1062 2.093 . S
O1073 C1065 1.224 . S
H1074 C1106 0.929 . S
H1075 C1108 0.930 . S
H1076 C1109 0.930 . S
H1077 C1107 0.929 . S
H1078 C1110 0.928 . S
O1079 Co1063 2.057 . S
O1079 C1067 1.232 . S
H1080 C1099 0.929 . S
H1081 C1100 0.929 . S
H1082 C1112 0.931 . S
H1083 C1104 0.929 . S
H1084 C1113 0.930 . S
H1085 C1105 0.931 . S
O1086 Co1062 2.097 . S
O1086 C1114 1.214 . S
H1087 C1115 0.929 . S
H1088 C1116 0.929 . S
H1089 C1117 0.930 . S
H1090 C1118 0.929 . S
H1091 C1120 0.930 . S
H1092 C1097 0.930 . S
H1093 C1101 0.930 . S
O1094 Co1063 2.037 . S
O1094 C1114 1.234 . S
C1095 O1069 1.269 . S
C1095 O1070 1.257 . S
C1096 H1071 0.930 . S
C1096 C1099 1.388 . S
C1096 C1101 1.418 . S
C1097 H1092 0.930 . S
C1097 C1100 1.404 . S
C1097 C1101 1.353 . S
N1098 Co1063 2.145 . S
N1098 C1099 1.397 . S
N1098 C1100 1.334 . S
C1099 H1080 0.929 . S
C1099 C1096 1.388 . S
C1099 N1098 1.397 . S
C1100 H1081 0.929 . S
C1100 C1097 1.404 . S
C1100 N1098 1.334 . S
C1101 H1093 0.930 . S
C1101 C1096 1.418 . S
C1101 C1097 1.353 . S
C1102 H1072 0.930 . S
C1102 N1103 1.330 . S
C1102 C1104 1.446 . S
N1103 Co1062 2.151 . S
N1103 C1102 1.330 . S
N1103 C1107 1.418 . S
C1104 H1083 0.929 . S
C1104 C1102 1.446 . S
C1104 C1105 1.332 . S
C1105 H1085 0.931 . S
C1105 C1104 1.332 . S
C1105 C1106 1.267 . S
C1106 H1074 0.929 . S
C1106 C1105 1.267 . S
C1106 C1107 1.251 . S
C1107 H1077 0.929 . S
C1107 N1103 1.418 . S
C1107 C1106 1.251 . S
C1108 H1075 0.930 . S
C1108 C1110 1.406 . S
C1108 C1113 1.261 . S
C1109 H1076 0.930 . S
C1109 N1111 1.325 . S
C1109 C1112 1.357 . S
C1110 H1078 0.928 . S
C1110 C1108 1.406 . S
C1110 N1111 1.261 . S
N1111 Co1062 2.214 . S
N1111 C1109 1.325 . S
N1111 C1110 1.261 . S
C1112 H1082 0.931 . S
C1112 C1109 1.357 . S
C1112 C1113 1.312 . S
C1113 H1084 0.930 . S
C1113 C1108 1.261 . S
C1113 C1112 1.312 . S
C1114 O1086 1.214 . S
C1114 O1094 1.234 . S
C1115 H1087 0.929 . S
C1115 C1118 1.391 . S
C1115 C1120 1.391 . S
C1116 H1088 0.929 . S
C1116 C1117 1.390 . S
C1116 N1119 1.391 . S
C1117 H1089 0.930 . S
C1117 C1116 1.390 . S
C1117 C1118 1.392 . S
C1118 H1090 0.929 . S
C1118 C1115 1.391 . S
C1118 C1117 1.392 . S
N1119 Co1063 2.257 . S
N1119 C1116 1.391 . S
N1119 C1120 1.388 . S
C1120 H1091 0.930 . S
C1120 C1115 1.391 . S
C1120 N1119 1.388 . S
Co1121 O1123 2.143 . S
Co1121 O1129 2.074 . S
Co1121 O1132 2.093 . S
Co1121 O1145 2.097 . S
Co1121 N1162 2.151 . S
Co1121 N1170 2.214 . S
Co1122 O1123 2.160 . S
Co1122 O1128 2.058 . S
Co1122 O1138 2.057 . S
Co1122 O1153 2.037 . S
Co1122 N1157 2.145 . S
Co1122 N1178 2.257 . S
O1123 Co1121 2.143 . S
O1123 Co1122 2.160 . S
C1124 O1125 1.278 . S
C1124 O1132 1.224 . S
O1125 C1124 1.278 . S
C1126 O1127 1.245 . S
C1126 O1138 1.232 . S
O1127 C1126 1.245 . S
O1128 Co1122 2.058 . S
O1128 C1154 1.269 . S
O1129 Co1121 2.074 . S
O1129 C1154 1.257 . S
H1130 C1155 0.930 . S
H1131 C1161 0.930 . S
O1132 Co1121 2.093 . S
O1132 C1124 1.224 . S
H1133 C1165 0.929 . S
H1134 C1167 0.930 . S
H1135 C1168 0.930 . S
H1136 C1166 0.929 . S
H1137 C1169 0.928 . S
O1138 Co1122 2.057 . S
O1138 C1126 1.232 . S
H1139 C1158 0.929 . S
H1140 C1159 0.929 . S
H1141 C1171 0.931 . S
H1142 C1163 0.929 . S
H1143 C1172 0.930 . S
H1144 C1164 0.931 . S
O1145 Co1121 2.097 . S
O1145 C1173 1.214 . S
H1146 C1174 0.929 . S
H1147 C1175 0.929 . S
H1148 C1176 0.930 . S
H1149 C1177 0.929 . S
H1150 C1179 0.930 . S
H1151 C1156 0.930 . S
H1152 C1160 0.930 . S
O1153 Co1122 2.037 . S
O1153 C1173 1.234 . S
C1154 O1128 1.269 . S
C1154 O1129 1.257 . S
C1155 H1130 0.930 . S
C1155 C1158 1.388 . S
C1155 C1160 1.418 . S
C1156 H1151 0.930 . S
C1156 C1159 1.404 . S
C1156 C1160 1.353 . S
N1157 Co1122 2.145 . S
N1157 C1158 1.397 . S
N1157 C1159 1.334 . S
C1158 H1139 0.929 . S
C1158 C1155 1.388 . S
C1158 N1157 1.397 . S
C1159 H1140 0.929 . S
C1159 C1156 1.404 . S
C1159 N1157 1.334 . S
C1160 H1152 0.930 . S
C1160 C1155 1.418 . S
C1160 C1156 1.353 . S
C1161 H1131 0.930 . S
C1161 N1162 1.330 . S
C1161 C1163 1.446 . S
N1162 Co1121 2.151 . S
N1162 C1161 1.330 . S
N1162 C1166 1.418 . S
C1163 H1142 0.929 . S
C1163 C1161 1.446 . S
C1163 C1164 1.332 . S
C1164 H1144 0.931 . S
C1164 C1163 1.332 . S
C1164 C1165 1.267 . S
C1165 H1133 0.929 . S
C1165 C1164 1.267 . S
C1165 C1166 1.251 . S
C1166 H1136 0.929 . S
C1166 N1162 1.418 . S
C1166 C1165 1.251 . S
C1167 H1134 0.930 . S
C1167 C1169 1.406 . S
C1167 C1172 1.261 . S
C1168 H1135 0.930 . S
C1168 N1170 1.325 . S
C1168 C1171 1.357 . S
C1169 H1137 0.928 . S
C1169 C1167 1.406 . S
C1169 N1170 1.261 . S
N1170 Co1121 2.214 . S
N1170 C1168 1.325 . S
N1170 C1169 1.261 . S
C1171 H1141 0.931 . S
C1171 C1168 1.357 . S
C1171 C1172 1.312 . S
C1172 H1143 0.930 . S
C1172 C1167 1.261 . S
C1172 C1171 1.312 . S
C1173 O1145 1.214 . S
C1173 O1153 1.234 . S
C1174 H1146 0.929 . S
C1174 C1177 1.391 . S
C1174 C1179 1.391 . S
C1175 H1147 0.929 . S
C1175 C1176 1.390 . S
C1175 N1178 1.391 . S
C1176 H1148 0.930 . S
C1176 C1175 1.390 . S
C1176 C1177 1.392 . S
C1177 H1149 0.929 . S
C1177 C1174 1.391 . S
C1177 C1176 1.392 . S
N1178 Co1122 2.257 . S
N1178 C1175 1.391 . S
N1178 C1179 1.388 . S
C1179 H1150 0.930 . S
C1179 C1174 1.391 . S
C1179 N1178 1.388 . S
Co1180 O1182 2.143 . S
Co1180 O1188 2.074 . S
Co1180 O1191 2.093 . S
Co1180 O1204 2.097 . S
Co1180 N1221 2.151 . S
Co1180 N1229 2.214 . S
Co1181 O1182 2.160 . S
Co1181 O1187 2.058 . S
Co1181 O1197 2.057 . S
Co1181 O1212 2.037 . S
Co1181 N1216 2.145 . S
Co1181 N1237 2.257 . S
O1182 Co1180 2.143 . S
O1182 Co1181 2.160 . S
C1183 O1184 1.278 . S
C1183 O1191 1.224 . S
O1184 C1183 1.278 . S
C1185 O1186 1.245 . S
C1185 O1197 1.232 . S
O1186 C1185 1.245 . S
O1187 Co1181 2.058 . S
O1187 C1213 1.269 . S
O1188 Co1180 2.074 . S
O1188 C1213 1.257 . S
H1189 C1214 0.930 . S
H1190 C1220 0.930 . S
O1191 Co1180 2.093 . S
O1191 C1183 1.224 . S
H1192 C1224 0.929 . S
H1193 C1226 0.930 . S
H1194 C1227 0.930 . S
H1195 C1225 0.929 . S
H1196 C1228 0.928 . S
O1197 Co1181 2.057 . S
O1197 C1185 1.232 . S
H1198 C1217 0.929 . S
H1199 C1218 0.929 . S
H1200 C1230 0.931 . S
H1201 C1222 0.929 . S
H1202 C1231 0.930 . S
H1203 C1223 0.931 . S
O1204 Co1180 2.097 . S
O1204 C1232 1.214 . S
H1205 C1233 0.929 . S
H1206 C1234 0.929 . S
H1207 C1235 0.930 . S
H1208 C1236 0.929 . S
H1209 C1238 0.930 . S
H1210 C1215 0.930 . S
H1211 C1219 0.930 . S
O1212 Co1181 2.037 . S
O1212 C1232 1.234 . S
C1213 O1187 1.269 . S
C1213 O1188 1.257 . S
C1214 H1189 0.930 . S
C1214 C1217 1.388 . S
C1214 C1219 1.418 . S
C1215 H1210 0.930 . S
C1215 C1218 1.404 . S
C1215 C1219 1.353 . S
N1216 Co1181 2.145 . S
N1216 C1217 1.397 . S
N1216 C1218 1.334 . S
C1217 H1198 0.929 . S
C1217 C1214 1.388 . S
C1217 N1216 1.397 . S
C1218 H1199 0.929 . S
C1218 C1215 1.404 . S
C1218 N1216 1.334 . S
C1219 H1211 0.930 . S
C1219 C1214 1.418 . S
C1219 C1215 1.353 . S
C1220 H1190 0.930 . S
C1220 N1221 1.330 . S
C1220 C1222 1.446 . S
N1221 Co1180 2.151 . S
N1221 C1220 1.330 . S
N1221 C1225 1.418 . S
C1222 H1201 0.929 . S
C1222 C1220 1.446 . S
C1222 C1223 1.332 . S
C1223 H1203 0.931 . S
C1223 C1222 1.332 . S
C1223 C1224 1.267 . S
C1224 H1192 0.929 . S
C1224 C1223 1.267 . S
C1224 C1225 1.251 . S
C1225 H1195 0.929 . S
C1225 N1221 1.418 . S
C1225 C1224 1.251 . S
C1226 H1193 0.930 . S
C1226 C1228 1.406 . S
C1226 C1231 1.261 . S
C1227 H1194 0.930 . S
C1227 N1229 1.325 . S
C1227 C1230 1.357 . S
C1228 H1196 0.928 . S
C1228 C1226 1.406 . S
C1228 N1229 1.261 . S
N1229 Co1180 2.214 . S
N1229 C1227 1.325 . S
N1229 C1228 1.261 . S
C1230 H1200 0.931 . S
C1230 C1227 1.357 . S
C1230 C1231 1.312 . S
C1231 H1202 0.930 . S
C1231 C1226 1.261 . S
C1231 C1230 1.312 . S
C1232 O1204 1.214 . S
C1232 O1212 1.234 . S
C1233 H1205 0.929 . S
C1233 C1236 1.391 . S
C1233 C1238 1.391 . S
C1234 H1206 0.929 . S
C1234 C1235 1.390 . S
C1234 N1237 1.391 . S
C1235 H1207 0.930 . S
C1235 C1234 1.390 . S
C1235 C1236 1.392 . S
C1236 H1208 0.929 . S
C1236 C1233 1.391 . S
C1236 C1235 1.392 . S
N1237 Co1181 2.257 . S
N1237 C1234 1.391 . S
N1237 C1238 1.388 . S
C1238 H1209 0.930 . S
C1238 C1233 1.391 . S
C1238 N1237 1.388 . S
Co1239 O1241 2.143 . S
Co1239 O1247 2.074 . S
Co1239 O1250 2.093 . S
Co1239 O1263 2.097 . S
Co1239 N1280 2.151 . S
Co1239 N1288 2.214 . S
Co1240 O1241 2.160 . S
Co1240 O1246 2.058 . S
Co1240 O1256 2.057 . S
Co1240 O1271 2.037 . S
Co1240 N1275 2.145 . S
Co1240 N1296 2.257 . S
O1241 Co1239 2.143 . S
O1241 Co1240 2.160 . S
C1242 O1243 1.278 . S
C1242 O1250 1.224 . S
O1243 C1242 1.278 . S
C1244 O1245 1.245 . S
C1244 O1256 1.232 . S
O1245 C1244 1.245 . S
O1246 Co1240 2.058 . S
O1246 C1272 1.269 . S
O1247 Co1239 2.074 . S
O1247 C1272 1.257 . S
H1248 C1273 0.930 . S
H1249 C1279 0.930 . S
O1250 Co1239 2.093 . S
O1250 C1242 1.224 . S
H1251 C1283 0.929 . S
H1252 C1285 0.930 . S
H1253 C1286 0.930 . S
H1254 C1284 0.929 . S
H1255 C1287 0.928 . S
O1256 Co1240 2.057 . S
O1256 C1244 1.232 . S
H1257 C1276 0.929 . S
H1258 C1277 0.929 . S
H1259 C1289 0.931 . S
H1260 C1281 0.929 . S
H1261 C1290 0.930 . S
H1262 C1282 0.931 . S
O1263 Co1239 2.097 . S
O1263 C1291 1.214 . S
H1264 C1292 0.929 . S
H1265 C1293 0.929 . S
H1266 C1294 0.930 . S
H1267 C1295 0.929 . S
H1268 C1297 0.930 . S
H1269 C1274 0.930 . S
H1270 C1278 0.930 . S
O1271 Co1240 2.037 . S
O1271 C1291 1.234 . S
C1272 O1246 1.269 . S
C1272 O1247 1.257 . S
C1273 H1248 0.930 . S
C1273 C1276 1.388 . S
C1273 C1278 1.418 . S
C1274 H1269 0.930 . S
C1274 C1277 1.404 . S
C1274 C1278 1.353 . S
N1275 Co1240 2.145 . S
N1275 C1276 1.397 . S
N1275 C1277 1.334 . S
C1276 H1257 0.929 . S
C1276 C1273 1.388 . S
C1276 N1275 1.397 . S
C1277 H1258 0.929 . S
C1277 C1274 1.404 . S
C1277 N1275 1.334 . S
C1278 H1270 0.930 . S
C1278 C1273 1.418 . S
C1278 C1274 1.353 . S
C1279 H1249 0.930 . S
C1279 N1280 1.330 . S
C1279 C1281 1.446 . S
N1280 Co1239 2.151 . S
N1280 C1279 1.330 . S
N1280 C1284 1.418 . S
C1281 H1260 0.929 . S
C1281 C1279 1.446 . S
C1281 C1282 1.332 . S
C1282 H1262 0.931 . S
C1282 C1281 1.332 . S
C1282 C1283 1.267 . S
C1283 H1251 0.929 . S
C1283 C1282 1.267 . S
C1283 C1284 1.251 . S
C1284 H1254 0.929 . S
C1284 N1280 1.418 . S
C1284 C1283 1.251 . S
C1285 H1252 0.930 . S
C1285 C1287 1.406 . S
C1285 C1290 1.261 . S
C1286 H1253 0.930 . S
C1286 N1288 1.325 . S
C1286 C1289 1.357 . S
C1287 H1255 0.928 . S
C1287 C1285 1.406 . S
C1287 N1288 1.261 . S
N1288 Co1239 2.214 . S
N1288 C1286 1.325 . S
N1288 C1287 1.261 . S
C1289 H1259 0.931 . S
C1289 C1286 1.357 . S
C1289 C1290 1.312 . S
C1290 H1261 0.930 . S
C1290 C1285 1.261 . S
C1290 C1289 1.312 . S
C1291 O1263 1.214 . S
C1291 O1271 1.234 . S
C1292 H1264 0.929 . S
C1292 C1295 1.391 . S
C1292 C1297 1.391 . S
C1293 H1265 0.929 . S
C1293 C1294 1.390 . S
C1293 N1296 1.391 . S
C1294 H1266 0.930 . S
C1294 C1293 1.390 . S
C1294 C1295 1.392 . S
C1295 H1267 0.929 . S
C1295 C1292 1.391 . S
C1295 C1294 1.392 . S
N1296 Co1240 2.257 . S
N1296 C1293 1.391 . S
N1296 C1297 1.388 . S
C1297 H1268 0.930 . S
C1297 C1292 1.391 . S
C1297 N1296 1.388 . S
Co1298 O1300 2.143 . S
Co1298 O1306 2.074 . S
Co1298 O1309 2.093 . S
Co1298 O1322 2.097 . S
Co1298 N1339 2.151 . S
Co1298 N1347 2.214 . S
Co1299 O1300 2.160 . S
Co1299 O1305 2.058 . S
Co1299 O1315 2.057 . S
Co1299 O1330 2.037 . S
Co1299 N1334 2.145 . S
Co1299 N1355 2.257 . S
O1300 Co1298 2.143 . S
O1300 Co1299 2.160 . S
C1301 O1302 1.278 . S
C1301 O1309 1.224 . S
O1302 C1301 1.278 . S
C1303 O1304 1.245 . S
C1303 O1315 1.232 . S
O1304 C1303 1.245 . S
O1305 Co1299 2.058 . S
O1305 C1331 1.269 . S
O1306 Co1298 2.074 . S
O1306 C1331 1.257 . S
H1307 C1332 0.930 . S
H1308 C1338 0.930 . S
O1309 Co1298 2.093 . S
O1309 C1301 1.224 . S
H1310 C1342 0.929 . S
H1311 C1344 0.930 . S
H1312 C1345 0.930 . S
H1313 C1343 0.929 . S
H1314 C1346 0.928 . S
O1315 Co1299 2.057 . S
O1315 C1303 1.232 . S
H1316 C1335 0.929 . S
H1317 C1336 0.929 . S
H1318 C1348 0.931 . S
H1319 C1340 0.929 . S
H1320 C1349 0.930 . S
H1321 C1341 0.931 . S
O1322 Co1298 2.097 . S
O1322 C1350 1.214 . S
H1323 C1351 0.929 . S
H1324 C1352 0.929 . S
H1325 C1353 0.930 . S
H1326 C1354 0.929 . S
H1327 C1356 0.930 . S
H1328 C1333 0.930 . S
H1329 C1337 0.930 . S
O1330 Co1299 2.037 . S
O1330 C1350 1.234 . S
C1331 O1305 1.269 . S
C1331 O1306 1.257 . S
C1332 H1307 0.930 . S
C1332 C1335 1.388 . S
C1332 C1337 1.418 . S
C1333 H1328 0.930 . S
C1333 C1336 1.404 . S
C1333 C1337 1.353 . S
N1334 Co1299 2.145 . S
N1334 C1335 1.397 . S
N1334 C1336 1.334 . S
C1335 H1316 0.929 . S
C1335 C1332 1.388 . S
C1335 N1334 1.397 . S
C1336 H1317 0.929 . S
C1336 C1333 1.404 . S
C1336 N1334 1.334 . S
C1337 H1329 0.930 . S
C1337 C1332 1.418 . S
C1337 C1333 1.353 . S
C1338 H1308 0.930 . S
C1338 N1339 1.330 . S
C1338 C1340 1.446 . S
N1339 Co1298 2.151 . S
N1339 C1338 1.330 . S
N1339 C1343 1.418 . S
C1340 H1319 0.929 . S
C1340 C1338 1.446 . S
C1340 C1341 1.332 . S
C1341 H1321 0.931 . S
C1341 C1340 1.332 . S
C1341 C1342 1.267 . S
C1342 H1310 0.929 . S
C1342 C1341 1.267 . S
C1342 C1343 1.251 . S
C1343 H1313 0.929 . S
C1343 N1339 1.418 . S
C1343 C1342 1.251 . S
C1344 H1311 0.930 . S
C1344 C1346 1.406 . S
C1344 C1349 1.261 . S
C1345 H1312 0.930 . S
C1345 N1347 1.325 . S
C1345 C1348 1.357 . S
C1346 H1314 0.928 . S
C1346 C1344 1.406 . S
C1346 N1347 1.261 . S
N1347 Co1298 2.214 . S
N1347 C1345 1.325 . S
N1347 C1346 1.261 . S
C1348 H1318 0.931 . S
C1348 C1345 1.357 . S
C1348 C1349 1.312 . S
C1349 H1320 0.930 . S
C1349 C1344 1.261 . S
C1349 C1348 1.312 . S
C1350 O1322 1.214 . S
C1350 O1330 1.234 . S
C1351 H1323 0.929 . S
C1351 C1354 1.391 . S
C1351 C1356 1.391 . S
C1352 H1324 0.929 . S
C1352 C1353 1.390 . S
C1352 N1355 1.391 . S
C1353 H1325 0.930 . S
C1353 C1352 1.390 . S
C1353 C1354 1.392 . S
C1354 H1326 0.929 . S
C1354 C1351 1.391 . S
C1354 C1353 1.392 . S
N1355 Co1299 2.257 . S
N1355 C1352 1.391 . S
N1355 C1356 1.388 . S
C1356 H1327 0.930 . S
C1356 C1351 1.391 . S
C1356 N1355 1.388 . S
Co1357 O1359 2.143 . S
Co1357 O1365 2.074 . S
Co1357 O1368 2.093 . S
Co1357 O1381 2.097 . S
Co1357 N1398 2.151 . S
Co1357 N1406 2.214 . S
Co1358 O1359 2.160 . S
Co1358 O1364 2.058 . S
Co1358 O1374 2.057 . S
Co1358 O1389 2.037 . S
Co1358 N1393 2.145 . S
Co1358 N1414 2.257 . S
O1359 Co1357 2.143 . S
O1359 Co1358 2.160 . S
C1360 O1361 1.278 . S
C1360 O1368 1.224 . S
O1361 C1360 1.278 . S
C1362 O1363 1.245 . S
C1362 O1374 1.232 . S
O1363 C1362 1.245 . S
O1364 Co1358 2.058 . S
O1364 C1390 1.269 . S
O1365 Co1357 2.074 . S
O1365 C1390 1.257 . S
H1366 C1391 0.930 . S
H1367 C1397 0.930 . S
O1368 Co1357 2.093 . S
O1368 C1360 1.224 . S
H1369 C1401 0.929 . S
H1370 C1403 0.930 . S
H1371 C1404 0.930 . S
H1372 C1402 0.929 . S
H1373 C1405 0.928 . S
O1374 Co1358 2.057 . S
O1374 C1362 1.232 . S
H1375 C1394 0.929 . S
H1376 C1395 0.929 . S
H1377 C1407 0.931 . S
H1378 C1399 0.929 . S
H1379 C1408 0.930 . S
H1380 C1400 0.931 . S
O1381 Co1357 2.097 . S
O1381 C1409 1.214 . S
H1382 C1410 0.929 . S
H1383 C1411 0.929 . S
H1384 C1412 0.930 . S
H1385 C1413 0.929 . S
H1386 C1415 0.930 . S
H1387 C1392 0.930 . S
H1388 C1396 0.930 . S
O1389 Co1358 2.037 . S
O1389 C1409 1.234 . S
C1390 O1364 1.269 . S
C1390 O1365 1.257 . S
C1391 H1366 0.930 . S
C1391 C1394 1.388 . S
C1391 C1396 1.418 . S
C1392 H1387 0.930 . S
C1392 C1395 1.404 . S
C1392 C1396 1.353 . S
N1393 Co1358 2.145 . S
N1393 C1394 1.397 . S
N1393 C1395 1.334 . S
C1394 H1375 0.929 . S
C1394 C1391 1.388 . S
C1394 N1393 1.397 . S
C1395 H1376 0.929 . S
C1395 C1392 1.404 . S
C1395 N1393 1.334 . S
C1396 H1388 0.930 . S
C1396 C1391 1.418 . S
C1396 C1392 1.353 . S
C1397 H1367 0.930 . S
C1397 N1398 1.330 . S
C1397 C1399 1.446 . S
N1398 Co1357 2.151 . S
N1398 C1397 1.330 . S
N1398 C1402 1.418 . S
C1399 H1378 0.929 . S
C1399 C1397 1.446 . S
C1399 C1400 1.332 . S
C1400 H1380 0.931 . S
C1400 C1399 1.332 . S
C1400 C1401 1.267 . S
C1401 H1369 0.929 . S
C1401 C1400 1.267 . S
C1401 C1402 1.251 . S
C1402 H1372 0.929 . S
C1402 N1398 1.418 . S
C1402 C1401 1.251 . S
C1403 H1370 0.930 . S
C1403 C1405 1.406 . S
C1403 C1408 1.261 . S
C1404 H1371 0.930 . S
C1404 N1406 1.325 . S
C1404 C1407 1.357 . S
C1405 H1373 0.928 . S
C1405 C1403 1.406 . S
C1405 N1406 1.261 . S
N1406 Co1357 2.214 . S
N1406 C1404 1.325 . S
N1406 C1405 1.261 . S
C1407 H1377 0.931 . S
C1407 C1404 1.357 . S
C1407 C1408 1.312 . S
C1408 H1379 0.930 . S
C1408 C1403 1.261 . S
C1408 C1407 1.312 . S
C1409 O1381 1.214 . S
C1409 O1389 1.234 . S
C1410 H1382 0.929 . S
C1410 C1413 1.391 . S
C1410 C1415 1.391 . S
C1411 H1383 0.929 . S
C1411 C1412 1.390 . S
C1411 N1414 1.391 . S
C1412 H1384 0.930 . S
C1412 C1411 1.390 . S
C1412 C1413 1.392 . S
C1413 H1385 0.929 . S
C1413 C1410 1.391 . S
C1413 C1412 1.392 . S
N1414 Co1358 2.257 . S
N1414 C1411 1.391 . S
N1414 C1415 1.388 . S
C1415 H1386 0.930 . S
C1415 C1410 1.391 . S
C1415 N1414 1.388 . S
H1416 C1422 0.930 . S
H1417 C1426 0.930 . S
H1418 C1431 0.929 . S
H1419 C1429 0.929 . S
H1420 C1424 0.929 . S
H1421 C1430 0.929 . S
C1422 H1416 0.930 . S
C1422 C1423 1.367 . S
C1422 C1430 1.378 . S
C1423 C1422 1.367 . S
C1423 C1431 1.433 . S
C1424 H1420 0.929 . S
C1424 C1426 1.378 . S
C1424 C1428 1.350 . S
C1425 C1428 1.463 . S
C1425 C1430 1.350 . S
C1425 N1433 1.427 . S
C1426 H1417 0.930 . S
C1426 C1424 1.378 . S
C1426 C1427 1.367 . S
C1427 C1426 1.367 . S
C1427 C1429 1.433 . S
C1428 C1424 1.350 . S
C1428 C1425 1.463 . S
C1428 N1432 1.427 . S
C1429 H1419 0.929 . S
C1429 C1427 1.433 . S
C1429 N1432 1.384 . S
C1430 H1421 0.929 . S
C1430 C1422 1.378 . S
C1430 C1425 1.350 . S
C1431 H1418 0.929 . S
C1431 C1423 1.433 . S
C1431 N1433 1.384 . S
N1432 C1428 1.427 . S
N1432 C1429 1.384 . S
N1433 C1425 1.427 . S
N1433 C1431 1.384 . S
H1434 C1440 0.930 . S
H1435 C1444 0.930 . S
H1436 C1449 0.929 . S
H1437 C1447 0.929 . S
H1438 C1442 0.929 . S
H1439 C1448 0.929 . S
C1440 H1434 0.930 . S
C1440 C1441 1.367 . S
C1440 C1448 1.378 . S
C1441 C1440 1.367 . S
C1441 C1449 1.433 . S
C1442 H1438 0.929 . S
C1442 C1444 1.378 . S
C1442 C1446 1.350 . S
C1443 C1446 1.463 1_655 S
C1443 C1448 1.350 . S
C1443 N1451 1.427 . S
C1444 H1435 0.930 . S
C1444 C1442 1.378 . S
C1444 C1445 1.367 . S
C1445 C1444 1.367 . S
C1445 C1447 1.433 . S
C1446 C1442 1.350 . S
C1446 C1443 1.463 1_455 S
C1446 N1450 1.427 . S
C1447 H1437 0.929 . S
C1447 C1445 1.433 . S
C1447 N1450 1.384 . S
C1448 H1439 0.929 . S
C1448 C1440 1.378 . S
C1448 C1443 1.350 . S
C1449 H1436 0.929 . S
C1449 C1441 1.433 . S
C1449 N1451 1.384 . S
N1450 C1446 1.427 . S
N1450 C1447 1.384 . S
N1451 C1443 1.427 . S
N1451 C1449 1.384 . S
H1452 C1458 0.930 . S
H1453 C1462 0.930 . S
H1454 C1467 0.929 . S
H1455 C1465 0.929 . S
H1456 C1460 0.929 . S
H1457 C1466 0.929 . S
C1458 H1452 0.930 . S
C1458 C1459 1.367 . S
C1458 C1466 1.378 . S
C1459 C1458 1.367 . S
C1459 C1467 1.433 . S
C1460 H1456 0.929 . S
C1460 C1462 1.378 . S
C1460 C1464 1.350 . S
C1461 C1464 1.463 . S
C1461 C1466 1.350 . S
C1461 N1469 1.427 . S
C1462 H1453 0.930 . S
C1462 C1460 1.378 . S
C1462 C1463 1.367 . S
C1463 C1462 1.367 . S
C1463 C1465 1.433 . S
C1464 C1460 1.350 . S
C1464 C1461 1.463 . S
C1464 N1468 1.427 . S
C1465 H1455 0.929 . S
C1465 C1463 1.433 . S
C1465 N1468 1.384 . S
C1466 H1457 0.929 . S
C1466 C1458 1.378 . S
C1466 C1461 1.350 . S
C1467 H1454 0.929 . S
C1467 C1459 1.433 . S
C1467 N1469 1.384 . S
N1468 C1464 1.427 . S
N1468 C1465 1.384 . S
N1469 C1461 1.427 . S
N1469 C1467 1.384 . S
H1470 C1476 0.930 . S
H1471 C1480 0.930 . S
H1472 C1485 0.929 . S
H1473 C1483 0.929 . S
H1474 C1478 0.929 . S
H1475 C1484 0.929 . S
C1476 H1470 0.930 . S
C1476 C1477 1.367 . S
C1476 C1484 1.378 . S
C1477 C1476 1.367 . S
C1477 C1485 1.433 . S
C1478 H1474 0.929 . S
C1478 C1480 1.378 . S
C1478 C1482 1.350 . S
C1479 C1482 1.463 1_455 S
C1479 C1484 1.350 . S
C1479 N1487 1.427 . S
C1480 H1471 0.930 . S
C1480 C1478 1.378 . S
C1480 C1481 1.367 . S
C1481 C1480 1.367 . S
C1481 C1483 1.433 . S
C1482 C1478 1.350 . S
C1482 C1479 1.463 1_655 S
C1482 N1486 1.427 . S
C1483 H1473 0.929 . S
C1483 C1481 1.433 . S
C1483 N1486 1.384 . S
C1484 H1475 0.929 . S
C1484 C1476 1.378 . S
C1484 C1479 1.350 . S
C1485 H1472 0.929 . S
C1485 C1477 1.433 . S
C1485 N1487 1.384 . S
N1486 C1482 1.427 . S
N1486 C1483 1.384 . S
N1487 C1479 1.427 . S
N1487 C1485 1.384 . S
H1488 C1494 0.930 . S
H1489 C1498 0.930 . S
H1490 C1503 0.929 . S
H1491 C1501 0.929 . S
H1492 C1496 0.929 . S
H1493 C1502 0.929 . S
C1494 H1488 0.930 . S
C1494 C1495 1.367 . S
C1494 C1502 1.378 . S
C1495 C1494 1.367 . S
C1495 C1503 1.433 . S
C1496 H1492 0.929 . S
C1496 C1498 1.378 . S
C1496 C1500 1.350 . S
C1497 C1500 1.463 . S
C1497 C1502 1.350 . S
C1497 N1505 1.427 . S
C1498 H1489 0.930 . S
C1498 C1496 1.378 . S
C1498 C1499 1.367 . S
C1499 C1498 1.367 . S
C1499 C1501 1.433 . S
C1500 C1496 1.350 . S
C1500 C1497 1.463 . S
C1500 N1504 1.427 . S
C1501 H1491 0.929 . S
C1501 C1499 1.433 . S
C1501 N1504 1.384 . S
C1502 H1493 0.929 . S
C1502 C1494 1.378 . S
C1502 C1497 1.350 . S
C1503 H1490 0.929 . S
C1503 C1495 1.433 . S
C1503 N1505 1.384 . S
N1504 C1500 1.427 . S
N1504 C1501 1.384 . S
N1505 C1497 1.427 . S
N1505 C1503 1.384 . S
H1506 C1512 0.930 . S
H1507 C1516 0.930 . S
H1508 C1521 0.929 . S
H1509 C1519 0.929 . S
H1510 C1514 0.929 . S
H1511 C1520 0.929 . S
C1512 H1506 0.930 . S
C1512 C1513 1.367 . S
C1512 C1520 1.378 . S
C1513 C1512 1.367 . S
C1513 C1521 1.433 . S
C1514 H1510 0.929 . S
C1514 C1516 1.378 . S
C1514 C1518 1.350 . S
C1515 C1518 1.463 1_655 S
C1515 C1520 1.350 . S
C1515 N1523 1.427 . S
C1516 H1507 0.930 . S
C1516 C1514 1.378 . S
C1516 C1517 1.367 . S
C1517 C1516 1.367 . S
C1517 C1519 1.433 . S
C1518 C1514 1.350 . S
C1518 C1515 1.463 1_455 S
C1518 N1522 1.427 . S
C1519 H1509 0.929 . S
C1519 C1517 1.433 . S
C1519 N1522 1.384 . S
C1520 H1511 0.929 . S
C1520 C1512 1.378 . S
C1520 C1515 1.350 . S
C1521 H1508 0.929 . S
C1521 C1513 1.433 . S
C1521 N1523 1.384 . S
N1522 C1518 1.427 . S
N1522 C1519 1.384 . S
N1523 C1515 1.427 . S
N1523 C1521 1.384 . S
H1524 C1530 0.930 . S
H1525 C1534 0.930 . S
H1526 C1539 0.929 . S
H1527 C1537 0.929 . S
H1528 C1532 0.929 . S
H1529 C1538 0.929 . S
C1530 H1524 0.930 . S
C1530 C1531 1.367 . S
C1530 C1538 1.378 . S
C1531 C1530 1.367 . S
C1531 C1539 1.433 . S
C1532 H1528 0.929 . S
C1532 C1534 1.378 . S
C1532 C1536 1.350 . S
C1533 C1536 1.463 . S
C1533 C1538 1.350 . S
C1533 N1541 1.427 . S
C1534 H1525 0.930 . S
C1534 C1532 1.378 . S
C1534 C1535 1.367 . S
C1535 C1534 1.367 . S
C1535 C1537 1.433 . S
C1536 C1532 1.350 . S
C1536 C1533 1.463 . S
C1536 N1540 1.427 . S
C1537 H1527 0.929 . S
C1537 C1535 1.433 . S
C1537 N1540 1.384 . S
C1538 H1529 0.929 . S
C1538 C1530 1.378 . S
C1538 C1533 1.350 . S
C1539 H1526 0.929 . S
C1539 C1531 1.433 . S
C1539 N1541 1.384 . S
N1540 C1536 1.427 . S
N1540 C1537 1.384 . S
N1541 C1533 1.427 . S
N1541 C1539 1.384 . S
H1542 C1548 0.930 . S
H1543 C1552 0.930 . S
H1544 C1557 0.929 . S
H1545 C1555 0.929 . S
H1546 C1550 0.929 . S
H1547 C1556 0.929 . S
C1548 H1542 0.930 . S
C1548 C1549 1.367 . S
C1548 C1556 1.378 . S
C1549 C1548 1.367 . S
C1549 C1557 1.433 . S
C1550 H1546 0.929 . S
C1550 C1552 1.378 . S
C1550 C1554 1.350 . S
C1551 C1554 1.463 1_655 S
C1551 C1556 1.350 . S
C1551 N1559 1.427 . S
C1552 H1543 0.930 . S
C1552 C1550 1.378 . S
C1552 C1553 1.367 . S
C1553 C1552 1.367 . S
C1553 C1555 1.433 . S
C1554 C1550 1.350 . S
C1554 C1551 1.463 1_455 S
C1554 N1558 1.427 . S
C1555 H1545 0.929 . S
C1555 C1553 1.433 . S
C1555 N1558 1.384 . S
C1556 H1547 0.929 . S
C1556 C1548 1.378 . S
C1556 C1551 1.350 . S
C1557 H1544 0.929 . S
C1557 C1549 1.433 . S
C1557 N1559 1.384 . S
N1558 C1554 1.427 . S
N1558 C1555 1.384 . S
N1559 C1551 1.427 . S
N1559 C1557 1.384 . S
H1560 C1566 0.930 . S
H1561 C1570 0.930 . S
H1562 C1575 0.929 . S
H1563 C1573 0.929 . S
H1564 C1568 0.929 . S
H1565 C1574 0.929 . S
C1566 H1560 0.930 . S
C1566 C1567 1.367 . S
C1566 C1574 1.378 . S
C1567 C1566 1.367 . S
C1567 C1575 1.433 . S
C1568 H1564 0.929 . S
C1568 C1570 1.378 . S
C1568 C1572 1.350 . S
C1569 C1572 1.463 . S
C1569 C1574 1.350 . S
C1569 N1577 1.427 . S
C1570 H1561 0.930 . S
C1570 C1568 1.378 . S
C1570 C1571 1.367 . S
C1571 C1570 1.367 . S
C1571 C1573 1.433 . S
C1572 C1568 1.350 . S
C1572 C1569 1.463 . S
C1572 N1576 1.427 . S
C1573 H1563 0.929 . S
C1573 C1571 1.433 . S
C1573 N1576 1.384 . S
C1574 H1565 0.929 . S
C1574 C1566 1.378 . S
C1574 C1569 1.350 . S
C1575 H1562 0.929 . S
C1575 C1567 1.433 . S
C1575 N1577 1.384 . S
N1576 C1572 1.427 . S
N1576 C1573 1.384 . S
N1577 C1569 1.427 . S
N1577 C1575 1.384 . S
H1578 C1584 0.930 . S
H1579 C1588 0.930 . S
H1580 C1593 0.929 . S
H1581 C1591 0.929 . S
H1582 C1586 0.929 . S
H1583 C1592 0.929 . S
C1584 H1578 0.930 . S
C1584 C1585 1.367 . S
C1584 C1592 1.378 . S
C1585 C1584 1.367 . S
C1585 C1593 1.433 . S
C1586 H1582 0.929 . S
C1586 C1588 1.378 . S
C1586 C1590 1.350 . S
C1587 C1590 1.463 1_556 S
C1587 C1592 1.350 . S
C1587 N1595 1.427 . S
C1588 H1579 0.930 . S
C1588 C1586 1.378 . S
C1588 C1589 1.367 . S
C1589 C1588 1.367 . S
C1589 C1591 1.433 . S
C1590 C1586 1.350 . S
C1590 C1587 1.463 1_554 S
C1590 N1594 1.427 . S
C1591 H1581 0.929 . S
C1591 C1589 1.433 . S
C1591 N1594 1.384 . S
C1592 H1583 0.929 . S
C1592 C1584 1.378 . S
C1592 C1587 1.350 . S
C1593 H1580 0.929 . S
C1593 C1585 1.433 . S
C1593 N1595 1.384 . S
N1594 C1590 1.427 . S
N1594 C1591 1.384 . S
N1595 C1587 1.427 . S
N1595 C1593 1.384 . S
H1596 C1602 0.930 . S
H1597 C1606 0.930 . S
H1598 C1611 0.929 . S
H1599 C1609 0.929 . S
H1600 C1604 0.929 . S
H1601 C1610 0.929 . S
C1602 H1596 0.930 . S
C1602 C1603 1.367 . S
C1602 C1610 1.378 . S
C1603 C1602 1.367 . S
C1603 C1611 1.433 . S
C1604 H1600 0.929 . S
C1604 C1606 1.378 . S
C1604 C1608 1.350 . S
C1605 C1608 1.463 . S
C1605 C1610 1.350 . S
C1605 N1613 1.427 . S
C1606 H1597 0.930 . S
C1606 C1604 1.378 . S
C1606 C1607 1.367 . S
C1607 C1606 1.367 . S
C1607 C1609 1.433 . S
C1608 C1604 1.350 . S
C1608 C1605 1.463 . S
C1608 N1612 1.427 . S
C1609 H1599 0.929 . S
C1609 C1607 1.433 . S
C1609 N1612 1.384 . S
C1610 H1601 0.929 . S
C1610 C1602 1.378 . S
C1610 C1605 1.350 . S
C1611 H1598 0.929 . S
C1611 C1603 1.433 . S
C1611 N1613 1.384 . S
N1612 C1608 1.427 . S
N1612 C1609 1.384 . S
N1613 C1605 1.427 . S
N1613 C1611 1.384 . S
H1614 C1620 0.930 . S
H1615 C1624 0.930 . S
H1616 C1629 0.929 . S
H1617 C1627 0.929 . S
H1618 C1622 0.929 . S
H1619 C1628 0.929 . S
C1620 H1614 0.930 . S
C1620 C1621 1.367 . S
C1620 C1628 1.378 . S
C1621 C1620 1.367 . S
C1621 C1629 1.433 . S
C1622 H1618 0.929 . S
C1622 C1624 1.378 . S
C1622 C1626 1.350 . S
C1623 C1626 1.463 1_554 S
C1623 C1628 1.350 . S
C1623 N1631 1.427 . S
C1624 H1615 0.930 . S
C1624 C1622 1.378 . S
C1624 C1625 1.367 . S
C1625 C1624 1.367 . S
C1625 C1627 1.433 . S
C1626 C1622 1.350 . S
C1626 C1623 1.463 1_556 S
C1626 N1630 1.427 . S
C1627 H1617 0.929 . S
C1627 C1625 1.433 . S
C1627 N1630 1.384 . S
C1628 H1619 0.929 . S
C1628 C1620 1.378 . S
C1628 C1623 1.350 . S
C1629 H1616 0.929 . S
C1629 C1621 1.433 . S
C1629 N1631 1.384 . S
N1630 C1626 1.427 . S
N1630 C1627 1.384 . S
N1631 C1623 1.427 . S
N1631 C1629 1.384 . S
H1632 C1638 0.930 . S
H1633 C1642 0.930 . S
H1634 C1647 0.929 . S
H1635 C1645 0.929 . S
H1636 C1640 0.929 . S
H1637 C1646 0.929 . S
C1638 H1632 0.930 . S
C1638 C1639 1.367 . S
C1638 C1646 1.378 . S
C1639 C1638 1.367 . S
C1639 C1647 1.433 . S
C1640 H1636 0.929 . S
C1640 C1642 1.378 . S
C1640 C1644 1.350 . S
C1641 C1644 1.463 . S
C1641 C1646 1.350 . S
C1641 N1649 1.427 . S
C1642 H1633 0.930 . S
C1642 C1640 1.378 . S
C1642 C1643 1.367 . S
C1643 C1642 1.367 . S
C1643 C1645 1.433 . S
C1644 C1640 1.350 . S
C1644 C1641 1.463 . S
C1644 N1648 1.427 . S
C1645 H1635 0.929 . S
C1645 C1643 1.433 . S
C1645 N1648 1.384 . S
C1646 H1637 0.929 . S
C1646 C1638 1.378 . S
C1646 C1641 1.350 . S
C1647 H1634 0.929 . S
C1647 C1639 1.433 . S
C1647 N1649 1.384 . S
N1648 C1644 1.427 . S
N1648 C1645 1.384 . S
N1649 C1641 1.427 . S
N1649 C1647 1.384 . S
H1650 C1656 0.930 . S
H1651 C1660 0.930 . S
H1652 C1665 0.929 . S
H1653 C1663 0.929 . S
H1654 C1658 0.929 . S
H1655 C1664 0.929 . S
C1656 H1650 0.930 . S
C1656 C1657 1.367 . S
C1656 C1664 1.378 . S
C1657 C1656 1.367 . S
C1657 C1665 1.433 . S
C1658 H1654 0.929 . S
C1658 C1660 1.378 . S
C1658 C1662 1.350 . S
C1659 C1662 1.463 1_554 S
C1659 C1664 1.350 . S
C1659 N1667 1.427 . S
C1660 H1651 0.930 . S
C1660 C1658 1.378 . S
C1660 C1661 1.367 . S
C1661 C1660 1.367 . S
C1661 C1663 1.433 . S
C1662 C1658 1.350 . S
C1662 C1659 1.463 1_556 S
C1662 N1666 1.427 . S
C1663 H1653 0.929 . S
C1663 C1661 1.433 . S
C1663 N1666 1.384 . S
C1664 H1655 0.929 . S
C1664 C1656 1.378 . S
C1664 C1659 1.350 . S
C1665 H1652 0.929 . S
C1665 C1657 1.433 . S
C1665 N1667 1.384 . S
N1666 C1662 1.427 . S
N1666 C1663 1.384 . S
N1667 C1659 1.427 . S
N1667 C1665 1.384 . S
H1668 C1674 0.930 . S
H1669 C1678 0.930 . S
H1670 C1683 0.929 . S
H1671 C1681 0.929 . S
H1672 C1676 0.929 . S
H1673 C1682 0.929 . S
C1674 H1668 0.930 . S
C1674 C1675 1.367 . S
C1674 C1682 1.378 . S
C1675 C1674 1.367 . S
C1675 C1683 1.433 . S
C1676 H1672 0.929 . S
C1676 C1678 1.378 . S
C1676 C1680 1.350 . S
C1677 C1680 1.463 . S
C1677 C1682 1.350 . S
C1677 N1685 1.427 . S
C1678 H1669 0.930 . S
C1678 C1676 1.378 . S
C1678 C1679 1.367 . S
C1679 C1678 1.367 . S
C1679 C1681 1.433 . S
C1680 C1676 1.350 . S
C1680 C1677 1.463 . S
C1680 N1684 1.427 . S
C1681 H1671 0.929 . S
C1681 C1679 1.433 . S
C1681 N1684 1.384 . S
C1682 H1673 0.929 . S
C1682 C1674 1.378 . S
C1682 C1677 1.350 . S
C1683 H1670 0.929 . S
C1683 C1675 1.433 . S
C1683 N1685 1.384 . S
N1684 C1680 1.427 . S
N1684 C1681 1.384 . S
N1685 C1677 1.427 . S
N1685 C1683 1.384 . S
H1686 C1692 0.930 . S
H1687 C1696 0.930 . S
H1688 C1701 0.929 . S
H1689 C1699 0.929 . S
H1690 C1694 0.929 . S
H1691 C1700 0.929 . S
C1692 H1686 0.930 . S
C1692 C1693 1.367 . S
C1692 C1700 1.378 . S
C1693 C1692 1.367 . S
C1693 C1701 1.433 . S
C1694 H1690 0.929 . S
C1694 C1696 1.378 . S
C1694 C1698 1.350 . S
C1695 C1698 1.463 1_554 S
C1695 C1700 1.350 . S
C1695 N1703 1.427 . S
C1696 H1687 0.930 . S
C1696 C1694 1.378 . S
C1696 C1697 1.367 . S
C1697 C1696 1.367 . S
C1697 C1699 1.433 . S
C1698 C1694 1.350 . S
C1698 C1695 1.463 1_556 S
C1698 N1702 1.427 . S
C1699 H1689 0.929 . S
C1699 C1697 1.433 . S
C1699 N1702 1.384 . S
C1700 H1691 0.929 . S
C1700 C1692 1.378 . S
C1700 C1695 1.350 . S
C1701 H1688 0.929 . S
C1701 C1693 1.433 . S
C1701 N1703 1.384 . S
N1702 C1698 1.427 . S
N1702 C1699 1.384 . S
N1703 C1695 1.427 . S
N1703 C1701 1.384 . S
H1704 C1710 0.930 . S
H1705 C1714 0.930 . S
H1706 C1719 0.929 . S
H1707 C1717 0.929 . S
H1708 C1712 0.929 . S
H1709 C1718 0.929 . S
C1710 H1704 0.930 . S
C1710 C1711 1.367 . S
C1710 C1718 1.378 . S
C1711 C1710 1.367 . S
C1711 C1719 1.433 . S
C1712 H1708 0.929 . S
C1712 C1714 1.378 . S
C1712 C1716 1.350 . S
C1713 C1716 1.463 . S
C1713 C1718 1.350 . S
C1713 N1721 1.427 . S
C1714 H1705 0.930 . S
C1714 C1712 1.378 . S
C1714 C1715 1.367 . S
C1715 C1714 1.367 . S
C1715 C1717 1.433 . S
C1716 C1712 1.350 . S
C1716 C1713 1.463 . S
C1716 N1720 1.427 . S
C1717 H1707 0.929 . S
C1717 C1715 1.433 . S
C1717 N1720 1.384 . S
C1718 H1709 0.929 . S
C1718 C1710 1.378 . S
C1718 C1713 1.350 . S
C1719 H1706 0.929 . S
C1719 C1711 1.433 . S
C1719 N1721 1.384 . S
N1720 C1716 1.427 . S
N1720 C1717 1.384 . S
N1721 C1713 1.427 . S
N1721 C1719 1.384 . S
H1722 C1728 0.930 . S
H1723 C1732 0.930 . S
H1724 C1737 0.929 . S
H1725 C1735 0.929 . S
H1726 C1730 0.929 . S
H1727 C1736 0.929 . S
C1728 H1722 0.930 . S
C1728 C1729 1.367 . S
C1728 C1736 1.378 . S
C1729 C1728 1.367 . S
C1729 C1737 1.433 . S
C1730 H1726 0.929 . S
C1730 C1732 1.378 . S
C1730 C1734 1.350 . S
C1731 C1734 1.463 . S
C1731 C1736 1.350 . S
C1731 N1739 1.427 . S
C1732 H1723 0.930 . S
C1732 C1730 1.378 . S
C1732 C1733 1.367 . S
C1733 C1732 1.367 . S
C1733 C1735 1.433 . S
C1734 C1730 1.350 . S
C1734 C1731 1.463 . S
C1734 N1738 1.427 . S
C1735 H1725 0.929 . S
C1735 C1733 1.433 . S
C1735 N1738 1.384 . S
C1736 H1727 0.929 . S
C1736 C1728 1.378 . S
C1736 C1731 1.350 . S
C1737 H1724 0.929 . S
C1737 C1729 1.433 . S
C1737 N1739 1.384 . S
N1738 C1734 1.427 . S
N1738 C1735 1.384 . S
N1739 C1731 1.427 . S
N1739 C1737 1.384 . S
H1740 C1746 0.930 . S
H1741 C1750 0.930 . S
H1742 C1755 0.929 . S
H1743 C1753 0.929 . S
H1744 C1748 0.929 . S
H1745 C1754 0.929 . S
C1746 H1740 0.930 . S
C1746 C1747 1.367 . S
C1746 C1754 1.378 . S
C1747 C1746 1.367 . S
C1747 C1755 1.433 . S
C1748 H1744 0.929 . S
C1748 C1750 1.378 . S
C1748 C1752 1.350 . S
C1749 C1752 1.463 1_565 S
C1749 C1754 1.350 . S
C1749 N1757 1.427 . S
C1750 H1741 0.930 . S
C1750 C1748 1.378 . S
C1750 C1751 1.367 . S
C1751 C1750 1.367 . S
C1751 C1753 1.433 . S
C1752 C1748 1.350 . S
C1752 C1749 1.463 1_545 S
C1752 N1756 1.427 . S
C1753 H1743 0.929 . S
C1753 C1751 1.433 . S
C1753 N1756 1.384 . S
C1754 H1745 0.929 . S
C1754 C1746 1.378 . S
C1754 C1749 1.350 . S
C1755 H1742 0.929 . S
C1755 C1747 1.433 . S
C1755 N1757 1.384 . S
N1756 C1752 1.427 . S
N1756 C1753 1.384 . S
N1757 C1749 1.427 . S
N1757 C1755 1.384 . S
H1758 C1764 0.930 . S
H1759 C1768 0.930 . S
H1760 C1773 0.929 . S
H1761 C1771 0.929 . S
H1762 C1766 0.929 . S
H1763 C1772 0.929 . S
C1764 H1758 0.930 . S
C1764 C1765 1.367 . S
C1764 C1772 1.378 . S
C1765 C1764 1.367 . S
C1765 C1773 1.433 . S
C1766 H1762 0.929 . S
C1766 C1768 1.378 . S
C1766 C1770 1.350 . S
C1767 C1770 1.463 . S
C1767 C1772 1.350 . S
C1767 N1775 1.427 . S
C1768 H1759 0.930 . S
C1768 C1766 1.378 . S
C1768 C1769 1.367 . S
C1769 C1768 1.367 . S
C1769 C1771 1.433 . S
C1770 C1766 1.350 . S
C1770 C1767 1.463 . S
C1770 N1774 1.427 . S
C1771 H1761 0.929 . S
C1771 C1769 1.433 . S
C1771 N1774 1.384 . S
C1772 H1763 0.929 . S
C1772 C1764 1.378 . S
C1772 C1767 1.350 . S
C1773 H1760 0.929 . S
C1773 C1765 1.433 . S
C1773 N1775 1.384 . S
N1774 C1770 1.427 . S
N1774 C1771 1.384 . S
N1775 C1767 1.427 . S
N1775 C1773 1.384 . S
H1776 C1782 0.930 . S
H1777 C1786 0.930 . S
H1778 C1791 0.929 . S
H1779 C1789 0.929 . S
H1780 C1784 0.929 . S
H1781 C1790 0.929 . S
C1782 H1776 0.930 . S
C1782 C1783 1.367 . S
C1782 C1790 1.378 . S
C1783 C1782 1.367 . S
C1783 C1791 1.433 . S
C1784 H1780 0.929 . S
C1784 C1786 1.378 . S
C1784 C1788 1.350 . S
C1785 C1788 1.463 1_565 S
C1785 C1790 1.350 . S
C1785 N1793 1.427 . S
C1786 H1777 0.930 . S
C1786 C1784 1.378 . S
C1786 C1787 1.367 . S
C1787 C1786 1.367 . S
C1787 C1789 1.433 . S
C1788 C1784 1.350 . S
C1788 C1785 1.463 1_545 S
C1788 N1792 1.427 . S
C1789 H1779 0.929 . S
C1789 C1787 1.433 . S
C1789 N1792 1.384 . S
C1790 H1781 0.929 . S
C1790 C1782 1.378 . S
C1790 C1785 1.350 . S
C1791 H1778 0.929 . S
C1791 C1783 1.433 . S
C1791 N1793 1.384 . S
N1792 C1788 1.427 . S
N1792 C1789 1.384 . S
N1793 C1785 1.427 . S
N1793 C1791 1.384 . S
H1794 C1800 0.930 . S
H1795 C1804 0.930 . S
H1796 C1809 0.929 . S
H1797 C1807 0.929 . S
H1798 C1802 0.929 . S
H1799 C1808 0.929 . S
C1800 H1794 0.930 . S
C1800 C1801 1.367 . S
C1800 C1808 1.378 . S
C1801 C1800 1.367 . S
C1801 C1809 1.433 . S
C1802 H1798 0.929 . S
C1802 C1804 1.378 . S
C1802 C1806 1.350 . S
C1803 C1806 1.463 . S
C1803 C1808 1.350 . S
C1803 N1811 1.427 . S
C1804 H1795 0.930 . S
C1804 C1802 1.378 . S
C1804 C1805 1.367 . S
C1805 C1804 1.367 . S
C1805 C1807 1.433 . S
C1806 C1802 1.350 . S
C1806 C1803 1.463 . S
C1806 N1810 1.427 . S
C1807 H1797 0.929 . S
C1807 C1805 1.433 . S
C1807 N1810 1.384 . S
C1808 H1799 0.929 . S
C1808 C1800 1.378 . S
C1808 C1803 1.350 . S
C1809 H1796 0.929 . S
C1809 C1801 1.433 . S
C1809 N1811 1.384 . S
N1810 C1806 1.427 . S
N1810 C1807 1.384 . S
N1811 C1803 1.427 . S
N1811 C1809 1.384 . S
H1812 C1818 0.930 . S
H1813 C1822 0.930 . S
H1814 C1827 0.929 . S
H1815 C1825 0.929 . S
H1816 C1820 0.929 . S
H1817 C1826 0.929 . S
C1818 H1812 0.930 . S
C1818 C1819 1.367 . S
C1818 C1826 1.378 . S
C1819 C1818 1.367 . S
C1819 C1827 1.433 . S
C1820 H1816 0.929 . S
C1820 C1822 1.378 . S
C1820 C1824 1.350 . S
C1821 C1824 1.463 1_565 S
C1821 C1826 1.350 . S
C1821 N1829 1.427 . S
C1822 H1813 0.930 . S
C1822 C1820 1.378 . S
C1822 C1823 1.367 . S
C1823 C1822 1.367 . S
C1823 C1825 1.433 . S
C1824 C1820 1.350 . S
C1824 C1821 1.463 1_545 S
C1824 N1828 1.427 . S
C1825 H1815 0.929 . S
C1825 C1823 1.433 . S
C1825 N1828 1.384 . S
C1826 H1817 0.929 . S
C1826 C1818 1.378 . S
C1826 C1821 1.350 . S
C1827 H1814 0.929 . S
C1827 C1819 1.433 . S
C1827 N1829 1.384 . S
N1828 C1824 1.427 . S
N1828 C1825 1.384 . S
N1829 C1821 1.427 . S
N1829 C1827 1.384 . S
H1830 C1836 0.930 . S
H1831 C1840 0.930 . S
H1832 C1845 0.929 . S
H1833 C1843 0.929 . S
H1834 C1838 0.929 . S
H1835 C1844 0.929 . S
C1836 H1830 0.930 . S
C1836 C1837 1.367 . S
C1836 C1844 1.378 . S
C1837 C1836 1.367 . S
C1837 C1845 1.433 . S
C1838 H1834 0.929 . S
C1838 C1840 1.378 . S
C1838 C1842 1.350 . S
C1839 C1842 1.463 1_545 S
C1839 C1844 1.350 . S
C1839 N1847 1.427 . S
C1840 H1831 0.930 . S
C1840 C1838 1.378 . S
C1840 C1841 1.367 . S
C1841 C1840 1.367 . S
C1841 C1843 1.433 . S
C1842 C1838 1.350 . S
C1842 C1839 1.463 1_565 S
C1842 N1846 1.427 . S
C1843 H1833 0.929 . S
C1843 C1841 1.433 . S
C1843 N1846 1.384 . S
C1844 H1835 0.929 . S
C1844 C1836 1.378 . S
C1844 C1839 1.350 . S
C1845 H1832 0.929 . S
C1845 C1837 1.433 . S
C1845 N1847 1.384 . S
N1846 C1842 1.427 . S
N1846 C1843 1.384 . S
N1847 C1839 1.427 . S
N1847 C1845 1.384 . S
H1848 C1854 0.930 . S
H1849 C1858 0.930 . S
H1850 C1863 0.929 . S
H1851 C1861 0.929 . S
H1852 C1856 0.929 . S
H1853 C1862 0.929 . S
C1854 H1848 0.930 . S
C1854 C1855 1.367 . S
C1854 C1862 1.378 . S
C1855 C1854 1.367 . S
C1855 C1863 1.433 . S
C1856 H1852 0.929 . S
C1856 C1858 1.378 . S
C1856 C1860 1.350 . S
C1857 C1860 1.463 . S
C1857 C1862 1.350 . S
C1857 N1865 1.427 . S
C1858 H1849 0.930 . S
C1858 C1856 1.378 . S
C1858 C1859 1.367 . S
C1859 C1858 1.367 . S
C1859 C1861 1.433 . S
C1860 C1856 1.350 . S
C1860 C1857 1.463 . S
C1860 N1864 1.427 . S
C1861 H1851 0.929 . S
C1861 C1859 1.433 . S
C1861 N1864 1.384 . S
C1862 H1853 0.929 . S
C1862 C1854 1.378 . S
C1862 C1857 1.350 . S
C1863 H1850 0.929 . S
C1863 C1855 1.433 . S
C1863 N1865 1.384 . S
N1864 C1860 1.427 . S
N1864 C1861 1.384 . S
N1865 C1857 1.427 . S
N1865 C1863 1.384 . S
H1866 C1872 0.930 . S
H1867 C1876 0.930 . S
H1868 C1881 0.929 . S
H1869 C1879 0.929 . S
H1870 C1874 0.929 . S
H1871 C1880 0.929 . S
C1872 H1866 0.930 . S
C1872 C1873 1.367 . S
C1872 C1880 1.378 . S
C1873 C1872 1.367 . S
C1873 C1881 1.433 . S
C1874 H1870 0.929 . S
C1874 C1876 1.378 . S
C1874 C1878 1.350 . S
C1875 C1878 1.463 . S
C1875 C1880 1.350 . S
C1875 N1883 1.427 . S
C1876 H1867 0.930 . S
C1876 C1874 1.378 . S
C1876 C1877 1.367 . S
C1877 C1876 1.367 . S
C1877 C1879 1.433 . S
C1878 C1874 1.350 . S
C1878 C1875 1.463 . S
C1878 N1882 1.427 . S
C1879 H1869 0.929 . S
C1879 C1877 1.433 . S
C1879 N1882 1.384 . S
C1880 H1871 0.929 . S
C1880 C1872 1.378 . S
C1880 C1875 1.350 . S
C1881 H1868 0.929 . S
C1881 C1873 1.433 . S
C1881 N1883 1.384 . S
N1882 C1878 1.427 . S
N1882 C1879 1.384 . S
N1883 C1875 1.427 . S
N1883 C1881 1.384 . S
H1884 C1890 0.930 . S
H1885 C1894 0.930 . S
H1886 C1899 0.929 . S
H1887 C1897 0.929 . S
H1888 C1892 0.929 . S
H1889 C1898 0.929 . S
C1890 H1884 0.930 . S
C1890 C1891 1.367 . S
C1890 C1898 1.378 . S
C1891 C1890 1.367 . S
C1891 C1899 1.433 . S
C1892 H1888 0.929 . S
C1892 C1894 1.378 . S
C1892 C1896 1.350 . S
C1893 C1896 1.463 . S
C1893 C1898 1.350 . S
C1893 N1901 1.427 . S
C1894 H1885 0.930 . S
C1894 C1892 1.378 . S
C1894 C1895 1.367 . S
C1895 C1894 1.367 . S
C1895 C1897 1.433 . S
C1896 C1892 1.350 . S
C1896 C1893 1.463 . S
C1896 N1900 1.427 . S
C1897 H1887 0.929 . S
C1897 C1895 1.433 . S
C1897 N1900 1.384 . S
C1898 H1889 0.929 . S
C1898 C1890 1.378 . S
C1898 C1893 1.350 . S
C1899 H1886 0.929 . S
C1899 C1891 1.433 . S
C1899 N1901 1.384 . S
N1900 C1896 1.427 . S
N1900 C1897 1.384 . S
N1901 C1893 1.427 . S
N1901 C1899 1.384 . S
H1902 C1908 0.930 . S
H1903 C1912 0.930 . S
H1904 C1917 0.929 . S
H1905 C1915 0.929 . S
H1906 C1910 0.929 . S
H1907 C1916 0.929 . S
C1908 H1902 0.930 . S
C1908 C1909 1.367 . S
C1908 C1916 1.378 . S
C1909 C1908 1.367 . S
C1909 C1917 1.433 . S
C1910 H1906 0.929 . S
C1910 C1912 1.378 . S
C1910 C1914 1.350 . S
C1911 C1914 1.463 . S
C1911 C1916 1.350 . S
C1911 N1919 1.427 . S
C1912 H1903 0.930 . S
C1912 C1910 1.378 . S
C1912 C1913 1.367 . S
C1913 C1912 1.367 . S
C1913 C1915 1.433 . S
C1914 C1910 1.350 . S
C1914 C1911 1.463 . S
C1914 N1918 1.427 . S
C1915 H1905 0.929 . S
C1915 C1913 1.433 . S
C1915 N1918 1.384 . S
C1916 H1907 0.929 . S
C1916 C1908 1.378 . S
C1916 C1911 1.350 . S
C1917 H1904 0.929 . S
C1917 C1909 1.433 . S
C1917 N1919 1.384 . S
N1918 C1914 1.427 . S
N1918 C1915 1.384 . S
N1919 C1911 1.427 . S
N1919 C1917 1.384 . S
H1920 C1926 0.930 . S
H1921 C1930 0.930 . S
H1922 C1935 0.929 . S
H1923 C1933 0.929 . S
H1924 C1928 0.929 . S
H1925 C1934 0.929 . S
C1926 H1920 0.930 . S
C1926 C1927 1.367 . S
C1926 C1934 1.378 . S
C1927 C1926 1.367 . S
C1927 C1935 1.433 . S
C1928 H1924 0.929 . S
C1928 C1930 1.378 . S
C1928 C1932 1.350 . S
C1929 C1932 1.463 . S
C1929 C1934 1.350 . S
C1929 N1937 1.427 . S
C1930 H1921 0.930 . S
C1930 C1928 1.378 . S
C1930 C1931 1.367 . S
C1931 C1930 1.367 . S
C1931 C1933 1.433 . S
C1932 C1928 1.350 . S
C1932 C1929 1.463 . S
C1932 N1936 1.427 . S
C1933 H1923 0.929 . S
C1933 C1931 1.433 . S
C1933 N1936 1.384 . S
C1934 H1925 0.929 . S
C1934 C1926 1.378 . S
C1934 C1929 1.350 . S
C1935 H1922 0.929 . S
C1935 C1927 1.433 . S
C1935 N1937 1.384 . S
N1936 C1932 1.427 . S
N1936 C1933 1.384 . S
N1937 C1929 1.427 . S
N1937 C1935 1.384 . S
H1938 C1944 0.930 . S
H1939 C1948 0.930 . S
H1940 C1953 0.929 . S
H1941 C1951 0.929 . S
H1942 C1946 0.929 . S
H1943 C1952 0.929 . S
C1944 H1938 0.930 . S
C1944 C1945 1.367 . S
C1944 C1952 1.378 . S
C1945 C1944 1.367 . S
C1945 C1953 1.433 . S
C1946 H1942 0.929 . S
C1946 C1948 1.378 . S
C1946 C1950 1.350 . S
C1947 C1950 1.463 . S
C1947 C1952 1.350 . S
C1947 N1955 1.427 . S
C1948 H1939 0.930 . S
C1948 C1946 1.378 . S
C1948 C1949 1.367 . S
C1949 C1948 1.367 . S
C1949 C1951 1.433 . S
C1950 C1946 1.350 . S
C1950 C1947 1.463 . S
C1950 N1954 1.427 . S
C1951 H1941 0.929 . S
C1951 C1949 1.433 . S
C1951 N1954 1.384 . S
C1952 H1943 0.929 . S
C1952 C1944 1.378 . S
C1952 C1947 1.350 . S
C1953 H1940 0.929 . S
C1953 C1945 1.433 . S
C1953 N1955 1.384 . S
N1954 C1950 1.427 . S
N1954 C1951 1.384 . S
N1955 C1947 1.427 . S
N1955 C1953 1.384 . S
H1956 C1962 0.930 . S
H1957 C1966 0.930 . S
H1958 C1971 0.929 . S
H1959 C1969 0.929 . S
H1960 C1964 0.929 . S
H1961 C1970 0.929 . S
C1962 H1956 0.930 . S
C1962 C1963 1.367 . S
C1962 C1970 1.378 . S
C1963 C1962 1.367 . S
C1963 C1971 1.433 . S
C1964 H1960 0.929 . S
C1964 C1966 1.378 . S
C1964 C1968 1.350 . S
C1965 C1968 1.463 . S
C1965 C1970 1.350 . S
C1965 N1973 1.427 . S
C1966 H1957 0.930 . S
C1966 C1964 1.378 . S
C1966 C1967 1.367 . S
C1967 C1966 1.367 . S
C1967 C1969 1.433 . S
C1968 C1964 1.350 . S
C1968 C1965 1.463 . S
C1968 N1972 1.427 . S
C1969 H1959 0.929 . S
C1969 C1967 1.433 . S
C1969 N1972 1.384 . S
C1970 H1961 0.929 . S
C1970 C1962 1.378 . S
C1970 C1965 1.350 . S
C1971 H1958 0.929 . S
C1971 C1963 1.433 . S
C1971 N1973 1.384 . S
N1972 C1968 1.427 . S
N1972 C1969 1.384 . S
N1973 C1965 1.427 . S
N1973 C1971 1.384 . S
H1974 C1980 0.930 . S
H1975 C1984 0.930 . S
H1976 C1989 0.929 . S
H1977 C1987 0.929 . S
H1978 C1982 0.929 . S
H1979 C1988 0.929 . S
C1980 H1974 0.930 . S
C1980 C1981 1.367 . S
C1980 C1988 1.378 . S
C1981 C1980 1.367 . S
C1981 C1989 1.433 . S
C1982 H1978 0.929 . S
C1982 C1984 1.378 . S
C1982 C1986 1.350 . S
C1983 C1986 1.463 . S
C1983 C1988 1.350 . S
C1983 N1991 1.427 . S
C1984 H1975 0.930 . S
C1984 C1982 1.378 . S
C1984 C1985 1.367 . S
C1985 C1984 1.367 . S
C1985 C1987 1.433 . S
C1986 C1982 1.350 . S
C1986 C1983 1.463 . S
C1986 N1990 1.427 . S
C1987 H1977 0.929 . S
C1987 C1985 1.433 . S
C1987 N1990 1.384 . S
C1988 H1979 0.929 . S
C1988 C1980 1.378 . S
C1988 C1983 1.350 . S
C1989 H1976 0.929 . S
C1989 C1981 1.433 . S
C1989 N1991 1.384 . S
N1990 C1986 1.427 . S
N1990 C1987 1.384 . S
N1991 C1983 1.427 . S
N1991 C1989 1.384 . S
H1992 C1998 0.930 . S
H1993 C2002 0.930 . S
H1994 C2007 0.929 . S
H1995 C2005 0.929 . S
H1996 C2000 0.929 . S
H1997 C2006 0.929 . S
C1998 H1992 0.930 . S
C1998 C1999 1.367 . S
C1998 C2006 1.378 . S
C1999 C1998 1.367 . S
C1999 C2007 1.433 . S
C2000 H1996 0.929 . S
C2000 C2002 1.378 . S
C2000 C2004 1.350 . S
C2001 C2004 1.463 . S
C2001 C2006 1.350 . S
C2001 N2009 1.427 . S
C2002 H1993 0.930 . S
C2002 C2000 1.378 . S
C2002 C2003 1.367 . S
C2003 C2002 1.367 . S
C2003 C2005 1.433 . S
C2004 C2000 1.350 . S
C2004 C2001 1.463 . S
C2004 N2008 1.427 . S
C2005 H1995 0.929 . S
C2005 C2003 1.433 . S
C2005 N2008 1.384 . S
C2006 H1997 0.929 . S
C2006 C1998 1.378 . S
C2006 C2001 1.350 . S
C2007 H1994 0.929 . S
C2007 C1999 1.433 . S
C2007 N2009 1.384 . S
N2008 C2004 1.427 . S
N2008 C2005 1.384 . S
N2009 C2001 1.427 . S
N2009 C2007 1.384 . S
H2010 C2016 0.930 . S
H2011 C2020 0.930 . S
H2012 C2025 0.929 . S
H2013 C2023 0.929 . S
H2014 C2018 0.929 . S
H2015 C2024 0.929 . S
C2016 H2010 0.930 . S
C2016 C2017 1.367 . S
C2016 C2024 1.378 . S
C2017 C2016 1.367 . S
C2017 C2025 1.433 . S
C2018 H2014 0.929 . S
C2018 C2020 1.378 . S
C2018 C2022 1.350 . S
C2019 C2022 1.463 . S
C2019 C2024 1.350 . S
C2019 N2027 1.427 . S
C2020 H2011 0.930 . S
C2020 C2018 1.378 . S
C2020 C2021 1.367 . S
C2021 C2020 1.367 . S
C2021 C2023 1.433 . S
C2022 C2018 1.350 . S
C2022 C2019 1.463 . S
C2022 N2026 1.427 . S
C2023 H2013 0.929 . S
C2023 C2021 1.433 . S
C2023 N2026 1.384 . S
C2024 H2015 0.929 . S
C2024 C2016 1.378 . S
C2024 C2019 1.350 . S
C2025 H2012 0.929 . S
C2025 C2017 1.433 . S
C2025 N2027 1.384 . S
N2026 C2022 1.427 . S
N2026 C2023 1.384 . S
N2027 C2019 1.427 . S
N2027 C2025 1.384 . S
H2028 C2034 0.930 . S
H2029 C2038 0.930 . S
H2030 C2043 0.929 . S
H2031 C2041 0.929 . S
H2032 C2036 0.929 . S
H2033 C2042 0.929 . S
C2034 H2028 0.930 . S
C2034 C2035 1.367 . S
C2034 C2042 1.378 . S
C2035 C2034 1.367 . S
C2035 C2043 1.433 . S
C2036 H2032 0.929 . S
C2036 C2038 1.378 . S
C2036 C2040 1.350 . S
C2037 C2040 1.463 . S
C2037 C2042 1.350 . S
C2037 N2045 1.427 . S
C2038 H2029 0.930 . S
C2038 C2036 1.378 . S
C2038 C2039 1.367 . S
C2039 C2038 1.367 . S
C2039 C2041 1.433 . S
C2040 C2036 1.350 . S
C2040 C2037 1.463 . S
C2040 N2044 1.427 . S
C2041 H2031 0.929 . S
C2041 C2039 1.433 . S
C2041 N2044 1.384 . S
C2042 H2033 0.929 . S
C2042 C2034 1.378 . S
C2042 C2037 1.350 . S
C2043 H2030 0.929 . S
C2043 C2035 1.433 . S
C2043 N2045 1.384 . S
N2044 C2040 1.427 . S
N2044 C2041 1.384 . S
N2045 C2037 1.427 . S
N2045 C2043 1.384 . S
H2046 C2052 0.930 . S
H2047 C2056 0.930 . S
H2048 C2061 0.929 . S
H2049 C2059 0.929 . S
H2050 C2054 0.929 . S
H2051 C2060 0.929 . S
C2052 H2046 0.930 . S
C2052 C2053 1.367 . S
C2052 C2060 1.378 . S
C2053 C2052 1.367 . S
C2053 C2061 1.433 . S
C2054 H2050 0.929 . S
C2054 C2056 1.378 . S
C2054 C2058 1.350 . S
C2055 C2058 1.463 . S
C2055 C2060 1.350 . S
C2055 N2063 1.427 . S
C2056 H2047 0.930 . S
C2056 C2054 1.378 . S
C2056 C2057 1.367 . S
C2057 C2056 1.367 . S
C2057 C2059 1.433 . S
C2058 C2054 1.350 . S
C2058 C2055 1.463 . S
C2058 N2062 1.427 . S
C2059 H2049 0.929 . S
C2059 C2057 1.433 . S
C2059 N2062 1.384 . S
C2060 H2051 0.929 . S
C2060 C2052 1.378 . S
C2060 C2055 1.350 . S
C2061 H2048 0.929 . S
C2061 C2053 1.433 . S
C2061 N2063 1.384 . S
N2062 C2058 1.427 . S
N2062 C2059 1.384 . S
N2063 C2055 1.427 . S
N2063 C2061 1.384 . S
H2064 C2070 0.930 . S
H2065 C2074 0.930 . S
H2066 C2079 0.929 . S
H2067 C2077 0.929 . S
H2068 C2072 0.929 . S
H2069 C2078 0.929 . S
C2070 H2064 0.930 . S
C2070 C2071 1.367 . S
C2070 C2078 1.378 . S
C2071 C2070 1.367 . S
C2071 C2079 1.433 . S
C2072 H2068 0.929 . S
C2072 C2074 1.378 . S
C2072 C2076 1.350 . S
C2073 C2076 1.463 . S
C2073 C2078 1.350 . S
C2073 N2081 1.427 . S
C2074 H2065 0.930 . S
C2074 C2072 1.378 . S
C2074 C2075 1.367 . S
C2075 C2074 1.367 . S
C2075 C2077 1.433 . S
C2076 C2072 1.350 . S
C2076 C2073 1.463 . S
C2076 N2080 1.427 . S
C2077 H2067 0.929 . S
C2077 C2075 1.433 . S
C2077 N2080 1.384 . S
C2078 H2069 0.929 . S
C2078 C2070 1.378 . S
C2078 C2073 1.350 . S
C2079 H2066 0.929 . S
C2079 C2071 1.433 . S
C2079 N2081 1.384 . S
N2080 C2076 1.427 . S
N2080 C2077 1.384 . S
N2081 C2073 1.427 . S
N2081 C2079 1.384 . S
H2082 C2088 0.930 . S
H2083 C2092 0.930 . S
H2084 C2097 0.929 . S
H2085 C2095 0.929 . S
H2086 C2090 0.929 . S
H2087 C2096 0.929 . S
C2088 H2082 0.930 . S
C2088 C2089 1.367 . S
C2088 C2096 1.378 . S
C2089 C2088 1.367 . S
C2089 C2097 1.433 . S
C2090 H2086 0.929 . S
C2090 C2092 1.378 . S
C2090 C2094 1.350 . S
C2091 C2094 1.463 . S
C2091 C2096 1.350 . S
C2091 N2099 1.427 . S
C2092 H2083 0.930 . S
C2092 C2090 1.378 . S
C2092 C2093 1.367 . S
C2093 C2092 1.367 . S
C2093 C2095 1.433 . S
C2094 C2090 1.350 . S
C2094 C2091 1.463 . S
C2094 N2098 1.427 . S
C2095 H2085 0.929 . S
C2095 C2093 1.433 . S
C2095 N2098 1.384 . S
C2096 H2087 0.929 . S
C2096 C2088 1.378 . S
C2096 C2091 1.350 . S
C2097 H2084 0.929 . S
C2097 C2089 1.433 . S
C2097 N2099 1.384 . S
N2098 C2094 1.427 . S
N2098 C2095 1.384 . S
N2099 C2091 1.427 . S
N2099 C2097 1.384 . S
H2100 C2106 0.930 . S
H2101 C2110 0.930 . S
H2102 C2115 0.929 . S
H2103 C2113 0.929 . S
H2104 C2108 0.929 . S
H2105 C2114 0.929 . S
C2106 H2100 0.930 . S
C2106 C2107 1.367 . S
C2106 C2114 1.378 . S
C2107 C2106 1.367 . S
C2107 C2115 1.433 . S
C2108 H2104 0.929 . S
C2108 C2110 1.378 . S
C2108 C2112 1.350 . S
C2109 C2112 1.463 . S
C2109 C2114 1.350 . S
C2109 N2117 1.427 . S
C2110 H2101 0.930 . S
C2110 C2108 1.378 . S
C2110 C2111 1.367 . S
C2111 C2110 1.367 . S
C2111 C2113 1.433 . S
C2112 C2108 1.350 . S
C2112 C2109 1.463 . S
C2112 N2116 1.427 . S
C2113 H2103 0.929 . S
C2113 C2111 1.433 . S
C2113 N2116 1.384 . S
C2114 H2105 0.929 . S
C2114 C2106 1.378 . S
C2114 C2109 1.350 . S
C2115 H2102 0.929 . S
C2115 C2107 1.433 . S
C2115 N2117 1.384 . S
N2116 C2112 1.427 . S
N2116 C2113 1.384 . S
N2117 C2109 1.427 . S
N2117 C2115 1.384 . S
H2118 C2124 0.930 . S
H2119 C2128 0.930 . S
H2120 C2133 0.929 . S
H2121 C2131 0.929 . S
H2122 C2126 0.929 . S
H2123 C2132 0.929 . S
C2124 H2118 0.930 . S
C2124 C2125 1.367 . S
C2124 C2132 1.378 . S
C2125 C2124 1.367 . S
C2125 C2133 1.433 . S
C2126 H2122 0.929 . S
C2126 C2128 1.378 . S
C2126 C2130 1.350 . S
C2127 C2130 1.463 . S
C2127 C2132 1.350 . S
C2127 N2135 1.427 . S
C2128 H2119 0.930 . S
C2128 C2126 1.378 . S
C2128 C2129 1.367 . S
C2129 C2128 1.367 . S
C2129 C2131 1.433 . S
C2130 C2126 1.350 . S
C2130 C2127 1.463 . S
C2130 N2134 1.427 . S
C2131 H2121 0.929 . S
C2131 C2129 1.433 . S
C2131 N2134 1.384 . S
C2132 H2123 0.929 . S
C2132 C2124 1.378 . S
C2132 C2127 1.350 . S
C2133 H2120 0.929 . S
C2133 C2125 1.433 . S
C2133 N2135 1.384 . S
N2134 C2130 1.427 . S
N2134 C2131 1.384 . S
N2135 C2127 1.427 . S
N2135 C2133 1.384 . S
H2136 C2142 0.930 . S
H2137 C2146 0.930 . S
H2138 C2151 0.929 . S
H2139 C2149 0.929 . S
H2140 C2144 0.929 . S
H2141 C2150 0.929 . S
C2142 H2136 0.930 . S
C2142 C2143 1.367 . S
C2142 C2150 1.378 . S
C2143 C2142 1.367 . S
C2143 C2151 1.433 . S
C2144 H2140 0.929 . S
C2144 C2146 1.378 . S
C2144 C2148 1.350 . S
C2145 C2148 1.463 . S
C2145 C2150 1.350 . S
C2145 N2153 1.427 . S
C2146 H2137 0.930 . S
C2146 C2144 1.378 . S
C2146 C2147 1.367 . S
C2147 C2146 1.367 . S
C2147 C2149 1.433 . S
C2148 C2144 1.350 . S
C2148 C2145 1.463 . S
C2148 N2152 1.427 . S
C2149 H2139 0.929 . S
C2149 C2147 1.433 . S
C2149 N2152 1.384 . S
C2150 H2141 0.929 . S
C2150 C2142 1.378 . S
C2150 C2145 1.350 . S
C2151 H2138 0.929 . S
C2151 C2143 1.433 . S
C2151 N2153 1.384 . S
N2152 C2148 1.427 . S
N2152 C2149 1.384 . S
N2153 C2145 1.427 . S
N2153 C2151 1.384 . S
H2154 C2160 0.930 . S
H2155 C2164 0.930 . S
H2156 C2169 0.929 . S
H2157 C2167 0.929 . S
H2158 C2162 0.929 . S
H2159 C2168 0.929 . S
C2160 H2154 0.930 . S
C2160 C2161 1.367 . S
C2160 C2168 1.378 . S
C2161 C2160 1.367 . S
C2161 C2169 1.433 . S
C2162 H2158 0.929 . S
C2162 C2164 1.378 . S
C2162 C2166 1.350 . S
C2163 C2166 1.463 . S
C2163 C2168 1.350 . S
C2163 N2171 1.427 . S
C2164 H2155 0.930 . S
C2164 C2162 1.378 . S
C2164 C2165 1.367 . S
C2165 C2164 1.367 . S
C2165 C2167 1.433 . S
C2166 C2162 1.350 . S
C2166 C2163 1.463 . S
C2166 N2170 1.427 . S
C2167 H2157 0.929 . S
C2167 C2165 1.433 . S
C2167 N2170 1.384 . S
C2168 H2159 0.929 . S
C2168 C2160 1.378 . S
C2168 C2163 1.350 . S
C2169 H2156 0.929 . S
C2169 C2161 1.433 . S
C2169 N2171 1.384 . S
N2170 C2166 1.427 . S
N2170 C2167 1.384 . S
N2171 C2163 1.427 . S
N2171 C2169 1.384 . S
H2172 C2178 0.930 . S
H2173 C2182 0.930 . S
H2174 C2187 0.929 . S
H2175 C2185 0.929 . S
H2176 C2180 0.929 . S
H2177 C2186 0.929 . S
C2178 H2172 0.930 . S
C2178 C2179 1.367 . S
C2178 C2186 1.378 . S
C2179 C2178 1.367 . S
C2179 C2187 1.433 . S
C2180 H2176 0.929 . S
C2180 C2182 1.378 . S
C2180 C2184 1.350 . S
C2181 C2184 1.463 . S
C2181 C2186 1.350 . S
C2181 N2189 1.427 . S
C2182 H2173 0.930 . S
C2182 C2180 1.378 . S
C2182 C2183 1.367 . S
C2183 C2182 1.367 . S
C2183 C2185 1.433 . S
C2184 C2180 1.350 . S
C2184 C2181 1.463 . S
C2184 N2188 1.427 . S
C2185 H2175 0.929 . S
C2185 C2183 1.433 . S
C2185 N2188 1.384 . S
C2186 H2177 0.929 . S
C2186 C2178 1.378 . S
C2186 C2181 1.350 . S
C2187 H2174 0.929 . S
C2187 C2179 1.433 . S
C2187 N2189 1.384 . S
N2188 C2184 1.427 . S
N2188 C2185 1.384 . S
N2189 C2181 1.427 . S
N2189 C2187 1.384 . S
H2190 C2196 0.930 . S
H2191 C2200 0.930 . S
H2192 C2205 0.929 . S
H2193 C2203 0.929 . S
H2194 C2198 0.929 . S
H2195 C2204 0.929 . S
C2196 H2190 0.930 . S
C2196 C2197 1.367 . S
C2196 C2204 1.378 . S
C2197 C2196 1.367 . S
C2197 C2205 1.433 . S
C2198 H2194 0.929 . S
C2198 C2200 1.378 . S
C2198 C2202 1.350 . S
C2199 C2202 1.463 . S
C2199 C2204 1.350 . S
C2199 N2207 1.427 . S
C2200 H2191 0.930 . S
C2200 C2198 1.378 . S
C2200 C2201 1.367 . S
C2201 C2200 1.367 . S
C2201 C2203 1.433 . S
C2202 C2198 1.350 . S
C2202 C2199 1.463 . S
C2202 N2206 1.427 . S
C2203 H2193 0.929 . S
C2203 C2201 1.433 . S
C2203 N2206 1.384 . S
C2204 H2195 0.929 . S
C2204 C2196 1.378 . S
C2204 C2199 1.350 . S
C2205 H2192 0.929 . S
C2205 C2197 1.433 . S
C2205 N2207 1.384 . S
N2206 C2202 1.427 . S
N2206 C2203 1.384 . S
N2207 C2199 1.427 . S
N2207 C2205 1.384 . S
H2208 C2214 0.930 . S
H2209 C2218 0.930 . S
H2210 C2223 0.929 . S
H2211 C2221 0.929 . S
H2212 C2216 0.929 . S
H2213 C2222 0.929 . S
C2214 H2208 0.930 . S
C2214 C2215 1.367 . S
C2214 C2222 1.378 . S
C2215 C2214 1.367 . S
C2215 C2223 1.433 . S
C2216 H2212 0.929 . S
C2216 C2218 1.378 . S
C2216 C2220 1.350 . S
C2217 C2220 1.463 . S
C2217 C2222 1.350 . S
C2217 N2225 1.427 . S
C2218 H2209 0.930 . S
C2218 C2216 1.378 . S
C2218 C2219 1.367 . S
C2219 C2218 1.367 . S
C2219 C2221 1.433 . S
C2220 C2216 1.350 . S
C2220 C2217 1.463 . S
C2220 N2224 1.427 . S
C2221 H2211 0.929 . S
C2221 C2219 1.433 . S
C2221 N2224 1.384 . S
C2222 H2213 0.929 . S
C2222 C2214 1.378 . S
C2222 C2217 1.350 . S
C2223 H2210 0.929 . S
C2223 C2215 1.433 . S
C2223 N2225 1.384 . S
N2224 C2220 1.427 . S
N2224 C2221 1.384 . S
N2225 C2217 1.427 . S
N2225 C2223 1.384 . S
H2226 C2232 0.930 . S
H2227 C2236 0.930 . S
H2228 C2241 0.929 . S
H2229 C2239 0.929 . S
H2230 C2234 0.929 . S
H2231 C2240 0.929 . S
C2232 H2226 0.930 . S
C2232 C2233 1.367 . S
C2232 C2240 1.378 . S
C2233 C2232 1.367 . S
C2233 C2241 1.433 . S
C2234 H2230 0.929 . S
C2234 C2236 1.378 . S
C2234 C2238 1.350 . S
C2235 C2238 1.463 . S
C2235 C2240 1.350 . S
C2235 N2243 1.427 . S
C2236 H2227 0.930 . S
C2236 C2234 1.378 . S
C2236 C2237 1.367 . S
C2237 C2236 1.367 . S
C2237 C2239 1.433 . S
C2238 C2234 1.350 . S
C2238 C2235 1.463 . S
C2238 N2242 1.427 . S
C2239 H2229 0.929 . S
C2239 C2237 1.433 . S
C2239 N2242 1.384 . S
C2240 H2231 0.929 . S
C2240 C2232 1.378 . S
C2240 C2235 1.350 . S
C2241 H2228 0.929 . S
C2241 C2233 1.433 . S
C2241 N2243 1.384 . S
N2242 C2238 1.427 . S
N2242 C2239 1.384 . S
N2243 C2235 1.427 . S
N2243 C2241 1.384 . S
H2244 C2250 0.930 . S
H2245 C2254 0.930 . S
H2246 C2259 0.929 . S
H2247 C2257 0.929 . S
H2248 C2252 0.929 . S
H2249 C2258 0.929 . S
C2250 H2244 0.930 . S
C2250 C2251 1.367 . S
C2250 C2258 1.378 . S
C2251 C2250 1.367 . S
C2251 C2259 1.433 . S
C2252 H2248 0.929 . S
C2252 C2254 1.378 . S
C2252 C2256 1.350 . S
C2253 C2256 1.463 . S
C2253 C2258 1.350 . S
C2253 N2261 1.427 . S
C2254 H2245 0.930 . S
C2254 C2252 1.378 . S
C2254 C2255 1.367 . S
C2255 C2254 1.367 . S
C2255 C2257 1.433 . S
C2256 C2252 1.350 . S
C2256 C2253 1.463 . S
C2256 N2260 1.427 . S
C2257 H2247 0.929 . S
C2257 C2255 1.433 . S
C2257 N2260 1.384 . S
C2258 H2249 0.929 . S
C2258 C2250 1.378 . S
C2258 C2253 1.350 . S
C2259 H2246 0.929 . S
C2259 C2251 1.433 . S
C2259 N2261 1.384 . S
N2260 C2256 1.427 . S
N2260 C2257 1.384 . S
N2261 C2253 1.427 . S
N2261 C2259 1.384 . S
H2262 C2268 0.930 . S
H2263 C2272 0.930 . S
H2264 C2277 0.929 . S
H2265 C2275 0.929 . S
H2266 C2270 0.929 . S
H2267 C2276 0.929 . S
C2268 H2262 0.930 . S
C2268 C2269 1.367 . S
C2268 C2276 1.378 . S
C2269 C2268 1.367 . S
C2269 C2277 1.433 . S
C2270 H2266 0.929 . S
C2270 C2272 1.378 . S
C2270 C2274 1.350 . S
C2271 C2274 1.463 . S
C2271 C2276 1.350 . S
C2271 N2279 1.427 . S
C2272 H2263 0.930 . S
C2272 C2270 1.378 . S
C2272 C2273 1.367 . S
C2273 C2272 1.367 . S
C2273 C2275 1.433 . S
C2274 C2270 1.350 . S
C2274 C2271 1.463 . S
C2274 N2278 1.427 . S
C2275 H2265 0.929 . S
C2275 C2273 1.433 . S
C2275 N2278 1.384 . S
C2276 H2267 0.929 . S
C2276 C2268 1.378 . S
C2276 C2271 1.350 . S
C2277 H2264 0.929 . S
C2277 C2269 1.433 . S
C2277 N2279 1.384 . S
N2278 C2274 1.427 . S
N2278 C2275 1.384 . S
N2279 C2271 1.427 . S
N2279 C2277 1.384 . S
C1423 C890 1.396 . S
C1427 C3 1.391 . S
C1441 C711 1.395 . S
C1445 C64 1.399 . S
C1459 C770 1.397 . S
C1463 C121 1.401 . S
C1477 C831 1.398 . S
C1481 C180 1.395 . S
C1495 C829 1.402 . S
C1499 C62 1.402 . S
C1513 C123 1.400 . S
C1517 C888 1.398 . S
C1531 C713 1.391 . S
C1535 C182 1.393 . S
C1549 C772 1.395 . S
C1553 C5 1.395 . S
C1567 C1067 1.389 . S
C1571 C241 1.391 . S
C1585 C298 1.405 . S
C1589 C1124 1.406 . S
C1603 C359 1.390 . S
C1607 C949 1.389 . S
C1621 C1006 1.406 . S
C1625 C416 1.402 . S
C1639 C1301 1.406 . S
C1643 C475 1.404 . S
C1657 C536 1.389 . S
C1661 C1362 1.391 . S
C1675 C593 1.406 . S
C1679 C1183 1.402 . S
C1693 C654 1.388 . S
C1697 C1244 1.391 . S
C1711 C1008 1.397 . S
C1715 C652 1.396 . S
C1729 C1360 1.395 . S
C1733 C300 1.399 . S
C1747 C357 1.397 . S
C1751 C1185 1.401 . S
C1765 C1242 1.395 . S
C1769 C418 1.400 . S
C1783 C1303 1.399 . S
C1787 C239 1.395 . S
C1801 C534 1.398 . S
C1805 C1126 1.398 . S
C1819 C947 1.393 . S
C1823 C595 1.396 . S
C1837 C1065 1.397 . S
C1841 C477 1.399 . S
C1855 C33 1.030 . S
C1859 C269 1.041 . S
C1873 C347 1.046 . S
C1877 C111 1.046 . S
C1891 C151 1.044 . S
C1895 C387 1.035 . S
C1909 C210 1.033 . S
C1913 C465 1.047 . S
C1927 C524 1.047 . S
C1931 C92 1.040 . S
C1945 C564 1.036 . S
C1949 C170 1.044 . S
C1963 C642 1.038 . S
C1967 C229 1.045 . S
C1981 C52 1.043 . S
C1985 C682 1.030 . S
C1999 C701 1.042 . S
C2003 C288 1.036 . S
C2017 C328 1.037 . S
C2021 C505 1.048 . S
C2035 C406 1.040 . S
C2039 C583 1.037 . S
C2053 C623 1.044 . S
C2057 C446 1.039 . S
C2071 C977 1.039 . S
C2075 C760 1.037 . S
C2089 C1055 1.041 . S
C2093 C819 1.046 . S
C2107 C859 1.039 . S
C2111 C1095 1.037 . S
C2125 C918 1.044 . S
C2129 C1173 1.042 . S
C2143 C800 1.039 . S
C2147 C1232 1.045 . S
C2161 C878 1.040 . S
C2165 C1272 1.043 . S
C2179 C1350 1.040 . S
C2183 C937 1.047 . S
C2197 C741 1.040 . S
C2201 C1390 1.034 . S
C2215 C996 1.041 . S
C2219 C1409 1.036 . S
C2233 C1213 1.037 . S
C2237 C1036 1.047 . S
C2251 C1114 1.037 . S
C2255 C1291 1.041 . S
C2269 C1331 1.040 . S
C2273 C1154 1.044 . S
