# Generated by pormake.
# Topology ukk, (4)-cn, num edge types: 1
# Building blocks:
#     Node 0, Type 0, BuildingBlock: ESEHIV_clean_sbu_0, # of connection points: 4
#     Node 1, Type 0, BuildingBlock: ESEHIV_clean_sbu_0, # of connection points: 4
#     Node 2, Type 0, BuildingBlock: ESEHIV_clean_sbu_0, # of connection points: 4
#     Node 3, Type 0, BuildingBlock: ESEHIV_clean_sbu_0, # of connection points: 4
#     Node 4, Type 0, BuildingBlock: ESEHIV_clean_sbu_0, # of connection points: 4
#     Node 5, Type 0, BuildingBlock: ESEHIV_clean_sbu_0, # of connection points: 4
#     Node 6, Type 0, BuildingBlock: ESEHIV_clean_sbu_0, # of connection points: 4
#     Node 7, Type 0, BuildingBlock: ESEHIV_clean_sbu_0, # of connection points: 4
#     Node 8, Type 0, BuildingBlock: ESEHIV_clean_sbu_0, # of connection points: 4
#     Node 9, Type 0, BuildingBlock: ESEHIV_clean_sbu_0, # of connection points: 4
#     Node 10, Type 0, BuildingBlock: ESEHIV_clean_sbu_0, # of connection points: 4
#     Node 11, Type 0, BuildingBlock: ESEHIV_clean_sbu_0, # of connection points: 4
#     Node 12, Type 0, BuildingBlock: ESEHIV_clean_sbu_0, # of connection points: 4
#     Node 13, Type 0, BuildingBlock: ESEHIV_clean_sbu_0, # of connection points: 4
#     Node 14, Type 0, BuildingBlock: ESEHIV_clean_sbu_0, # of connection points: 4
#     Node 15, Type 0, BuildingBlock: ESEHIV_clean_sbu_0, # of connection points: 4
#     Edge 16, Type (0, 0), BuildingBlock: OJICUG_clean_linker_0, # of connection points: 2
#     Edge 17, Type (0, 0), BuildingBlock: OJICUG_clean_linker_0, # of connection points: 2
#     Edge 18, Type (0, 0), BuildingBlock: OJICUG_clean_linker_0, # of connection points: 2
#     Edge 19, Type (0, 0), BuildingBlock: OJICUG_clean_linker_0, # of connection points: 2
#     Edge 20, Type (0, 0), BuildingBlock: OJICUG_clean_linker_0, # of connection points: 2
#     Edge 21, Type (0, 0), BuildingBlock: OJICUG_clean_linker_0, # of connection points: 2
#     Edge 22, Type (0, 0), BuildingBlock: OJICUG_clean_linker_0, # of connection points: 2
#     Edge 23, Type (0, 0), BuildingBlock: OJICUG_clean_linker_0, # of connection points: 2
#     Edge 24, Type (0, 0), BuildingBlock: OJICUG_clean_linker_0, # of connection points: 2
#     Edge 25, Type (0, 0), BuildingBlock: OJICUG_clean_linker_0, # of connection points: 2
#     Edge 26, Type (0, 0), BuildingBlock: OJICUG_clean_linker_0, # of connection points: 2
#     Edge 27, Type (0, 0), BuildingBlock: OJICUG_clean_linker_0, # of connection points: 2
#     Edge 28, Type (0, 0), BuildingBlock: OJICUG_clean_linker_0, # of connection points: 2
#     Edge 29, Type (0, 0), BuildingBlock: OJICUG_clean_linker_0, # of connection points: 2
#     Edge 30, Type (0, 0), BuildingBlock: OJICUG_clean_linker_0, # of connection points: 2
#     Edge 31, Type (0, 0), BuildingBlock: OJICUG_clean_linker_0, # of connection points: 2
#     Edge 32, Type (0, 0), BuildingBlock: OJICUG_clean_linker_0, # of connection points: 2
#     Edge 33, Type (0, 0), BuildingBlock: OJICUG_clean_linker_0, # of connection points: 2
#     Edge 34, Type (0, 0), BuildingBlock: OJICUG_clean_linker_0, # of connection points: 2
#     Edge 35, Type (0, 0), BuildingBlock: OJICUG_clean_linker_0, # of connection points: 2
#     Edge 36, Type (0, 0), BuildingBlock: OJICUG_clean_linker_0, # of connection points: 2
#     Edge 37, Type (0, 0), BuildingBlock: OJICUG_clean_linker_0, # of connection points: 2
#     Edge 38, Type (0, 0), BuildingBlock: OJICUG_clean_linker_0, # of connection points: 2
#     Edge 39, Type (0, 0), BuildingBlock: OJICUG_clean_linker_0, # of connection points: 2
#     Edge 40, Type (0, 0), BuildingBlock: OJICUG_clean_linker_0, # of connection points: 2
#     Edge 41, Type (0, 0), BuildingBlock: OJICUG_clean_linker_0, # of connection points: 2
#     Edge 42, Type (0, 0), BuildingBlock: OJICUG_clean_linker_0, # of connection points: 2
#     Edge 43, Type (0, 0), BuildingBlock: OJICUG_clean_linker_0, # of connection points: 2
#     Edge 44, Type (0, 0), BuildingBlock: OJICUG_clean_linker_0, # of connection points: 2
#     Edge 45, Type (0, 0), BuildingBlock: OJICUG_clean_linker_0, # of connection points: 2
#     Edge 46, Type (0, 0), BuildingBlock: OJICUG_clean_linker_0, # of connection points: 2
#     Edge 47, Type (0, 0), BuildingBlock: OJICUG_clean_linker_0, # of connection points: 2
# Relax obj value: 0.037
# Max RMSD: 0.121
# Mean RMSD: 0.121
data_MOF--net-ukk--node1-ESEHIV_clean_sbu_0--edge1-OJICUG_clean_linker_0
_symmetry_space_group_name_H-M    P1
_symmetry_Int_Tables_number       1
_symmetry_cell_setting            triclinic
loop_
_symmetry_equiv_pos_as_xyz
'x, y, z'
_cell_length_a     41.846972
_cell_length_b     41.960931
_cell_length_c     17.871617
_cell_angle_alpha  89.526447
_cell_angle_beta   90.714186
_cell_angle_gamma 90.912891
loop_
_atom_site_label
_atom_site_type_symbol
_atom_site_fract_x
_atom_site_fract_y
_atom_site_fract_z
_atom_type_partial_charge
Cu0 Cu 0.43267 0.14599 0.04868 0.0
N1 N 0.47803 0.14556 0.04959 0.0
N2 N 0.52935 0.1476 0.08948 0.0
C3 C 0.49817 0.14611 0.10968 0.0
C4 C 0.5286 0.14826 1.01393 0.0
C5 C 0.49719 0.14727 0.98974 0.0
O6 O 0.41647 0.11042 0.11099 0.0
C7 C 0.39533 0.20175 0.09179 0.0
O8 O 0.36913 0.18426 0.08579 0.0
H9 H 0.49009 0.14555 0.16697 0.0
H10 H 0.48897 0.14865 0.93227 0.0
N11 N 0.41557 0.13951 0.95107 0.0
N12 N 0.38172 0.13775 0.85202 0.0
C13 C 0.38745 0.14955 0.92147 0.0
C14 C 0.42769 0.12041 0.89874 0.0
C15 C 0.40717 0.11948 0.83782 0.0
C16 C 0.42947 0.0833 0.10311 0.0
O17 O 0.45362 0.08115 0.05727 0.0
H18 H 0.37127 0.16482 0.95049 0.0
H19 H 0.44943 0.10706 0.90541 0.0
O20 O 0.42239 0.18902 0.08194 0.0
H21 H 0.54929 0.15034 0.97839 0.0
H22 H 0.4102 0.10531 0.78816 0.0
Cu23 Cu 0.1481 0.66109 0.94956 0.0
N24 N 0.14768 0.61736 0.97011 0.0
N25 N 0.15508 0.56542 0.95017 0.0
C26 C 0.15316 0.59479 0.919 0.0
C27 C 0.15047 0.56981 0.02405 0.0
C28 C 0.14613 0.60191 0.03624 0.0
O29 O 0.1171 0.66888 0.86867 0.0
C30 C 0.20835 0.69381 0.90583 0.0
O31 O 0.19491 0.72186 0.90704 0.0
H32 H 0.15609 0.60007 0.8601 0.0
H33 H 0.14317 0.61324 0.08976 0.0
N34 N 0.13651 0.68398 0.03479 0.0
N35 N 0.13 0.72272 0.11844 0.0
C36 C 0.14741 0.71244 0.06035 0.0
C37 C 0.11168 0.6761 0.07878 0.0
C38 C 0.10756 0.69989 0.13008 0.0
C39 C 0.09008 0.65452 0.873 0.0
O40 O 0.08468 0.63585 0.93098 0.0
H41 H 0.16658 0.72609 0.03491 0.0
H42 H 0.09687 0.65494 0.07238 0.0
O43 O 0.19206 0.66877 0.92059 0.0
H44 H 0.15129 0.55139 0.06673 0.0
H45 H 0.08904 0.7007 0.17176 0.0
Cu46 Cu 0.66962 0.9295 0.19376 0.0
N47 N 0.62632 0.93987 0.19315 0.0
N48 N 0.57461 0.93902 0.22273 0.0
C49 C 0.60364 0.92677 0.23719 0.0
C50 C 0.57904 0.96034 0.16677 0.0
C51 C 0.61095 0.96085 0.14873 0.0
O52 O 0.68996 0.94904 0.28002 0.0
C53 C 0.69673 0.86649 0.19302 0.0
O54 O 0.7247 0.87989 0.20738 0.0
H55 H 0.6081 0.9078 0.2772 0.0
H56 H 0.6219 0.97509 0.10517 0.0
N57 N 0.69032 0.94818 0.11221 0.0
N58 N 0.73066 0.9591 0.03484 0.0
C59 C 0.7154 0.93641 0.07548 0.0
C60 C 0.68963 0.97932 0.09371 0.0
C61 C 0.71429 0.98608 0.04563 0.0
C62 C 0.67736 0.95162 0.34397 0.0
O63 O 0.65241 0.93375 0.36073 0.0
H64 H 0.72414 0.91254 0.0839 0.0
H65 H 0.67419 0.99655 0.11881 0.0
O66 O 0.67191 0.88353 0.18896 0.0
H67 H 0.56046 0.97432 0.14034 0.0
H68 H 0.72088 1.00945 0.02426 0.0
Cu69 Cu 0.90719 0.41325 0.91548 0.0
N70 N 0.88379 0.43783 0.84752 0.0
N71 N 0.873 0.48218 0.78281 0.0
C72 C 0.89393 0.46726 0.82822 0.0
C73 C 0.84857 0.46125 0.77234 0.0
C74 C 0.85547 0.43359 0.81199 0.0
O75 O 0.95099 0.41132 0.87621 0.0
C76 C 0.87981 0.44001 0.04685 0.0
O77 O 0.88181 0.45361 0.11264 0.0
H78 H 0.91613 0.47781 0.84855 0.0
H79 H 0.84048 0.41245 0.81642 0.0
N80 N 0.89103 0.37249 0.9371 0.0
N81 N 0.88037 0.3305 1.01151 0.0
C82 C 0.89656 0.35836 1.00382 0.0
C83 C 0.87073 0.35277 0.90034 0.0
C84 C 0.86424 0.32669 0.9461 0.0
C85 C 0.95436 0.40565 0.8066 0.0
O86 O 0.92862 0.39936 0.76614 0.0
H87 H 0.91191 0.36879 0.0465 0.0
H88 H 0.86076 0.35735 0.84527 0.0
O89 O 0.90552 0.43496 1.01102 0.0
H90 H 0.82748 0.46557 0.7383 0.0
H91 H 0.84813 0.30701 0.93308 0.0
Cu92 Cu 0.42253 0.3998 0.17185 0.0
N93 N 0.46731 0.40377 0.18818 0.0
N94 N 0.52051 0.40509 0.16838 0.0
C95 C 0.49084 0.40565 0.13665 0.0
C96 C 0.51518 0.40257 0.24267 0.0
C97 C 0.48267 0.40161 0.25449 0.0
O98 O 0.41073 0.43131 0.09515 0.0
C99 C 0.39002 0.33934 0.13142 0.0
O100 O 0.36268 0.35428 0.1293 0.0
H101 H 0.48626 0.40704 0.07707 0.0
H102 H 0.47104 0.3985 0.30782 0.0
N103 N 0.39953 0.41054 0.25927 0.0
N104 N 0.35968 0.42008 0.33966 0.0
C105 C 0.36918 0.40286 0.2801 0.0
C106 C 0.40918 0.43327 0.30764 0.0
C107 C 0.38489 0.43917 0.35677 0.0
C108 C 0.41744 0.4307 0.02585 0.0
O109 O 0.43127 0.40548 0.99869 0.0
H110 H 0.35364 0.3866 0.24964 0.0
H111 H 0.4318 0.44601 0.30481 0.0
O112 O 0.41578 0.35493 0.14519 0.0
H113 H 0.53341 0.40046 0.28579 0.0
H114 H 0.38531 0.45701 0.40022 0.0
Cu115 Cu 0.39639 0.63925 0.80717 0.0
N116 N 0.3977 0.59441 0.8035 0.0
N117 N 0.40099 0.54322 0.84044 0.0
C118 C 0.40296 0.57416 0.86144 0.0
C119 C 0.39411 0.54419 0.76642 0.0
C120 C 0.39192 0.57565 0.74402 0.0
O121 O 0.42694 0.65315 0.88375 0.0
C122 C 0.34341 0.67749 0.85155 0.0
O123 O 0.36405 0.70129 0.85722 0.0
H124 H 0.40817 0.58206 0.91784 0.0
H125 H 0.38594 0.58421 0.68844 0.0
N126 N 0.40628 0.65803 0.71365 0.0
N127 N 0.40763 0.69215 0.61607 0.0
C128 C 0.39748 0.68689 0.68685 0.0
C129 C 0.42283 0.64484 0.65803 0.0
C130 C 0.42355 0.66566 0.59786 0.0
C131 C 0.45578 0.64442 0.87764 0.0
O132 O 0.46363 0.62795 0.81859 0.0
H133 H 0.38333 0.70346 0.71786 0.0
H134 H 0.43356 0.62158 0.66086 0.0
O135 O 0.35302 0.65007 0.83295 0.0
H136 H 0.39009 0.52364 0.73114 0.0
H137 H 0.4352 0.66174 0.54507 0.0
Cu138 Cu 0.64414 0.67456 0.16572 0.0
N139 N 0.59948 0.6721 0.16179 0.0
N140 N 0.55115 0.66676 0.1078 0.0
C141 C 0.58293 0.66959 0.09706 0.0
C142 C 0.54751 0.66799 0.18274 0.0
C143 C 0.57746 0.67122 0.21602 0.0
O144 O 0.65894 0.64515 0.09019 0.0
C145 C 0.68268 0.73127 0.13735 0.0
O146 O 0.7073 0.71277 0.12767 0.0
H147 H 0.59425 0.66957 0.04295 0.0
H148 H 0.58281 0.67224 0.27533 0.0
N149 N 0.66191 0.66192 0.25793 0.0
N150 N 0.70127 0.65395 0.34148 0.0
C151 C 0.69027 0.67253 0.28531 0.0
C152 C 0.65445 0.636 0.29955 0.0
C153 C 0.67888 0.63086 0.35076 0.0
C154 C 0.64585 0.61752 0.0937 0.0
O155 O 0.62504 0.61165 0.14665 0.0
H156 H 0.70398 0.69183 0.26064 0.0
H157 H 0.63387 0.62061 0.29005 0.0
O158 O 0.65519 0.71898 0.14877 0.0
H159 H 0.52499 0.66572 0.21158 0.0
H160 H 0.68083 0.61086 0.38911 0.0
Cu161 Cu 0.68748 0.4159 0.9009 0.0
N162 N 0.68538 0.4601 0.8839 0.0
N163 N 0.67759 0.5115 0.90971 0.0
C164 C 0.6719 0.48092 0.93035 0.0
C165 C 0.69538 0.50997 0.84753 0.0
C166 C 0.70013 0.47828 0.83173 0.0
O167 O 0.64878 0.40392 0.95809 0.0
C168 C 0.75376 0.41831 0.91751 0.0
O169 O 0.75066 0.42716 0.84723 0.0
H170 H 0.65949 0.47382 0.98058 0.0
H171 H 0.71434 0.46933 0.78667 0.0
N172 N 0.68689 0.39424 0.80868 0.0
N173 N 0.68881 0.35609 0.72147 0.0
C174 C 0.69067 0.36282 0.79553 0.0
C175 C 0.68209 0.40755 0.74074 0.0
C176 C 0.68345 0.38426 0.68715 0.0
C177 C 0.64506 0.41033 0.02715 0.0
O178 O 0.66944 0.42237 0.06507 0.0
H179 H 0.69455 0.34529 0.83932 0.0
H180 H 0.67712 0.43239 0.73062 0.0
O181 O 0.72875 0.40966 0.95321 0.0
H182 H 0.70472 0.53022 0.81644 0.0
H183 H 0.67951 0.38764 0.62765 0.0
Cu184 Cu 0.89151 0.67081 0.62274 0.0
N185 N 0.93619 0.67299 0.61779 0.0
N186 N 0.98674 0.67128 0.66032 0.0
C187 C 0.9556 0.66586 0.6759 0.0
C188 C 0.98686 0.68256 0.58929 0.0
C189 C 0.95559 0.68358 0.56315 0.0
O190 O 0.88029 0.63242 0.67973 0.0
C191 C 0.88016 0.73558 0.62605 0.0
O192 O 0.8877 0.73241 0.55538 0.0
H193 H 0.94679 0.65765 0.72949 0.0
H194 H 0.94755 0.69192 0.50876 0.0
N195 N 0.87108 0.66614 0.52984 0.0
N196 N 0.82967 0.65989 0.451 0.0
C197 C 0.83995 0.67209 0.51672 0.0
C198 C 0.88089 0.64981 0.47003 0.0
C199 C 0.85528 0.64579 0.42134 0.0
C200 C 0.89381 0.60712 0.6581 0.0
O201 O 0.91397 0.60907 0.60245 0.0
H202 H 0.82456 0.68297 0.55717 0.0
H203 H 0.90438 0.63977 0.46451 0.0
O204 O 0.87871 0.71071 0.66749 0.0
H205 H 1.00796 0.68951 0.55837 0.0
H206 H 0.85512 0.63248 0.36969 0.0
Cu207 Cu 0.68215 0.16954 0.40638 0.0
N208 N 0.68119 0.12905 0.45113 0.0
N209 N 0.68478 0.07625 0.46454 0.0
C210 C 0.688 0.10144 0.41759 0.0
C211 C 0.67568 0.08846 0.53032 0.0
C212 C 0.67375 0.12108 0.52207 0.0
O213 O 0.64628 0.17062 0.33331 0.0
C214 C 0.74933 0.16489 0.39878 0.0
O215 O 0.74519 0.15456 0.46763 0.0
H216 H 0.69442 0.09979 0.35933 0.0
H217 H 0.66725 0.13771 0.56491 0.0
N218 N 0.67317 0.19935 0.48116 0.0
N219 N 0.67357 0.23867 0.56554 0.0
C220 C 0.68958 0.22476 0.50911 0.0
C221 C 0.64595 0.19773 0.52036 0.0
C222 C 0.64619 0.22161 0.57238 0.0
C223 C 0.64477 0.15469 0.2728 0.0
O224 O 0.66967 0.13814 0.25328 0.0
H225 H 0.71271 0.2327 0.48915 0.0
H226 H 0.62715 0.1801 0.51163 0.0
O227 O 0.725 0.17492 0.36197 0.0
H228 H 0.67068 0.0748 0.58059 0.0
H229 H 0.62727 0.22654 0.6112 0.0
Cu230 Cu 0.17359 0.41617 0.65032 0.0
N231 N 0.12909 0.41372 0.63206 0.0
N232 N 0.07632 0.4104 0.65509 0.0
C233 C 0.10554 0.41969 0.68113 0.0
C234 C 0.08189 0.39856 0.58635 0.0
C235 C 0.11424 0.40057 0.57255 0.0
O236 O 0.18102 0.45048 0.72129 0.0
C237 C 0.16896 0.35508 0.72128 0.0
O238 O 0.14066 0.3642 0.7426 0.0
H239 H 0.10998 0.42951 0.73603 0.0
H240 H 0.12631 0.39158 0.52408 0.0
N241 N 0.19699 0.42561 0.56243 0.0
N242 N 0.23701 0.42944 0.47939 0.0
C243 C 0.22574 0.41433 0.54137 0.0
C244 C 0.18991 0.44835 0.5117 0.0
C245 C 0.21442 0.45084 0.46091 0.0
C246 C 0.17341 0.44882 0.78997 0.0
O247 O 0.16312 0.42153 0.81781 0.0
H248 H 0.23885 0.39657 0.5729 0.0
H249 H 0.16884 0.46294 0.51316 0.0
O250 O 0.18719 0.37473 0.68677 0.0
H251 H 0.06418 0.38765 0.54972 0.0
H252 H 0.21585 0.46762 0.41468 0.0
Cu253 Cu 0.39648 0.89796 0.39602 0.0
N254 N 0.38391 0.92169 0.31098 0.0
N255 N 0.38418 0.96547 0.23761 0.0
C256 C 0.40132 0.94649 0.28385 0.0
C257 C 0.35462 0.95211 0.23539 0.0
C258 C 0.3545 0.92517 0.28083 0.0
O259 O 0.44246 0.90536 0.40091 0.0
C260 C 0.35627 0.89791 0.52396 0.0
O261 O 0.37045 0.87223 0.54911 0.0
H262 H 0.42538 0.95217 0.30277 0.0
H263 H 0.33388 0.91059 0.29512 0.0
N264 N 0.38879 0.85361 0.39162 0.0
N265 N 0.38877 0.80251 0.42986 0.0
C266 C 0.40065 0.83223 0.44112 0.0
C267 C 0.36907 0.83671 0.34639 0.0
C268 C 0.36914 0.80514 0.36963 0.0
C269 C 0.45576 0.89424 0.34305 0.0
O270 O 0.4384 0.87666 0.29702 0.0
H271 H 0.41706 0.8386 0.48606 0.0
H272 H 0.35487 0.84677 0.30136 0.0
O273 O 0.36993 0.91505 0.47422 0.0
H274 H 0.33428 0.96175 0.20541 0.0
H275 H 0.35477 0.78592 0.34614 0.0
Cu276 Cu 0.91174 0.92611 0.74035 0.0
N277 N 0.95533 0.91769 0.75114 0.0
N278 N 1.0039 0.90085 0.72091 0.0
C279 C 0.97395 0.90697 0.69625 0.0
C280 C 1.00412 0.9081 0.79434 0.0
C281 C 0.97403 0.9182 0.81299 0.0
O282 O 0.90473 0.9626 0.67403 0.0
C283 C 0.89157 0.86258 0.74555 0.0
O284 O 0.902 0.8655 0.81485 0.0
H285 H 0.96558 0.90374 0.63923 0.0
H286 H 0.96625 0.92471 0.86813 0.0
N287 N 0.89351 0.93678 0.83096 0.0
N288 N 0.85498 0.94751 0.91176 0.0
C289 C 0.86284 0.93141 0.84977 0.0
C290 C 0.90547 0.95699 0.8826 0.0
C291 C 0.8818 0.96353 0.93282 0.0
C292 C 0.92399 0.98643 0.67573 0.0
O293 O 0.9499 0.98494 0.71777 0.0
H294 H 0.84606 0.91789 0.81552 0.0
H295 H 0.92906 0.96785 0.88108 0.0
O296 O 0.89211 0.88702 0.7027 0.0
H297 H 1.02431 0.90554 0.83222 0.0
H298 H 0.88381 0.97978 0.97941 0.0
Cu299 Cu 0.91423 0.16438 0.35621 0.0
N300 N 0.9002 0.14494 0.44438 0.0
N301 N 0.89693 0.1056 0.52907 0.0
C302 C 0.91184 0.11681 0.46773 0.0
C303 C 0.87504 0.12765 0.5457 0.0
C304 C 0.87738 0.15224 0.49365 0.0
O305 O 0.96137 0.16244 0.36311 0.0
C306 C 0.86795 0.13723 0.24952 0.0
O307 O 0.86201 0.12255 0.18616 0.0
H308 H 0.93033 0.10429 0.43867 0.0
H309 H 0.86277 0.17325 0.49041 0.0
N310 N 0.90034 0.20592 0.33855 0.0
N311 N 0.88746 0.24883 0.26971 0.0
C312 C 0.89716 0.21831 0.26913 0.0
C313 C 0.89225 0.22931 0.38532 0.0
C314 C 0.88439 0.2559 0.34295 0.0
C315 C 0.98123 0.18562 0.35497 0.0
O316 O 0.97063 0.21359 0.33361 0.0
H317 H 0.90282 0.20529 0.21912 0.0
H318 H 0.89238 0.22731 0.4457 0.0
O319 O 0.89707 0.14 0.27196 0.0
H320 H 0.8586 0.12607 0.59191 0.0
H321 H 0.87702 0.27862 0.36452 0.0
Cu322 Cu 0.17511 0.16195 0.62537 0.0
N323 N 0.15486 0.17013 0.53262 0.0
N324 N 0.11338 0.17674 0.45295 0.0
C325 C 0.12329 0.16495 0.51983 0.0
C326 C 0.13995 0.18981 0.42229 0.0
C327 C 0.16545 0.18568 0.47142 0.0
O328 O 0.15209 0.12449 0.66112 0.0
C329 C 0.18961 0.22311 0.66499 0.0
O330 O 0.21011 0.21828 0.61132 0.0
H331 H 0.10751 0.15428 0.56088 0.0
H332 H 0.18966 0.19449 0.46426 0.0
N333 N 0.21916 0.15288 0.62139 0.0
N334 N 0.26991 0.14635 0.66158 0.0
C335 C 0.24044 0.15696 0.67828 0.0
C336 C 0.23563 0.13924 0.56648 0.0
C337 C 0.26681 0.13523 0.5909 0.0
C338 C 0.16634 0.09901 0.67962 0.0
O339 O 0.19536 0.10103 0.70813 0.0
H340 H 0.23407 0.16722 0.73126 0.0
H341 H 0.2255 0.13201 0.51317 0.0
O342 O 0.17068 0.20041 0.68378 0.0
H343 H 0.14082 0.20209 0.36884 0.0
H344 H 0.28539 0.12404 0.55938 0.0
Cu345 Cu 0.15836 0.8969 0.45049 0.0
N346 N 0.15103 0.94053 0.45057 0.0
N347 N 0.14585 0.98912 0.49857 0.0
C348 C 0.15068 0.958 0.51333 0.0
C349 C 0.1431 0.99133 0.42335 0.0
C350 C 0.14651 0.96129 0.39378 0.0
O351 O 0.13284 0.88113 0.53381 0.0
C352 C 0.21844 0.89179 0.52815 0.0
O353 O 0.20177 0.88993 0.58985 0.0
H354 H 0.15432 0.94803 0.56879 0.0
H355 H 0.1466 0.95526 0.3351 0.0
N356 N 0.14537 0.8783 0.35946 0.0
N357 N 0.13622 0.84199 0.27026 0.0
C358 C 0.15347 0.84961 0.33228 0.0
C359 C 0.12248 0.88914 0.3126 0.0
C360 C 0.11677 0.86684 0.25781 0.0
C361 C 0.10494 0.86928 0.52338 0.0
O362 O 0.09604 0.86094 0.45555 0.0
H363 H 0.17018 0.83383 0.35993 0.0
H364 H 0.10945 0.91088 0.32023 0.0
O365 O 0.20412 0.89279 0.46494 0.0
H366 H 0.14024 1.01326 0.39182 0.0
H367 H 0.09887 0.86826 0.2137 0.0
C368 C 0.37455 1.02145 0.1962 0.0
C369 C 0.39503 0.99526 0.20434 0.0
H370 H 0.36943 0.07019 0.15971 0.0
C371 C 0.42686 0.99887 0.18125 0.0
H372 H 0.34999 1.01955 0.21425 0.0
C373 C 0.43785 1.02759 0.14975 0.0
C374 C 0.41752 0.05383 0.14151 0.0
H375 H 0.4432 0.9792 0.18647 0.0
H376 H 0.46243 1.02918 0.13165 0.0
C377 C 0.38577 0.05055 0.16577 0.0
C378 C 1.03629 0.63997 0.8204 0.0
C379 C 0.06453 0.65843 0.8152 0.0
H380 H 0.99008 0.62901 0.77492 0.0
C381 C 0.06739 0.68047 0.7558 0.0
H382 H 1.03326 0.62248 0.86475 0.0
C383 C 0.04218 0.68438 0.70392 0.0
C384 C 1.01363 0.66636 0.71055 0.0
H385 H 0.08884 0.69502 0.75008 0.0
H386 H 0.04475 0.70205 0.65986 0.0
C387 C 1.0113 0.64384 0.7689 0.0
C388 C 0.70736 1.00308 0.36119 0.0
C389 C 0.68461 0.98077 0.38762 0.0
H390 H 0.72524 0.0511 0.36548 0.0
C391 C 0.66528 0.98917 0.44792 0.0
H392 H 0.72291 0.99735 0.31536 0.0
C393 C 0.66669 1.02011 0.47654 0.0
C394 C 0.68734 0.04318 0.44513 0.0
H395 H 0.64759 0.97256 0.46981 0.0
H396 H 0.6501 1.02651 0.5197 0.0
C397 C 0.70856 1.03398 0.3894 0.0
C398 C 0.04448 0.41275 0.77275 0.0
C399 C 0.04596 0.4103 0.69406 0.0
H400 H 1.01474 0.41315 0.87024 0.0
C401 C 1.01697 0.40684 0.65395 0.0
H402 H 0.0661 0.41517 0.80612 0.0
C403 C 0.98768 0.40529 0.69085 0.0
C404 C 0.98615 0.40737 0.76929 0.0
H405 H 1.01672 0.40545 0.59356 0.0
H406 H 0.96609 0.40256 0.65731 0.0
C407 C 1.01496 0.41138 0.80983 0.0
C408 C 0.40184 0.48819 1.00868 0.0
C409 C 0.41202 0.45938 0.97761 0.0
H410 H 0.39036 0.53726 0.98988 0.0
C411 C 0.41828 0.4587 0.90049 0.0
H412 H 0.39686 0.4897 0.06785 0.0
C413 C 0.41458 0.48606 0.85577 0.0
C414 C 0.40472 0.51497 0.88691 0.0
H415 H 0.42629 0.43706 0.87455 0.0
H416 H 0.42001 0.48465 0.79687 0.0
C417 C 0.39836 0.51562 0.96402 0.0
C418 C 0.47198 0.66589 1.00448 0.0
C419 C 0.48005 0.65103 0.93711 0.0
H420 H 0.48834 0.68262 0.11184 0.0
C421 C 0.51175 0.64149 0.92739 0.0
H422 H 0.44774 0.67344 1.01388 0.0
C423 C 0.53481 0.64661 0.98327 0.0
C424 C 0.52692 0.66146 0.05069 0.0
H425 H 0.51887 0.62979 0.87657 0.0
H426 H 0.55879 0.63839 0.97391 0.0
C427 C 0.49516 0.67096 0.06081 0.0
C428 C 0.64133 0.53842 0.9952 0.0
C429 C 0.66854 0.53948 0.95015 0.0
H430 H 0.61287 0.56213 0.07475 0.0
C431 C 0.68739 0.5676 0.9485 0.0
H432 H 0.62591 0.51748 0.99651 0.0
C433 C 0.67978 0.5936 0.99348 0.0
C434 C 0.65324 0.59181 0.0408 0.0
H435 H 0.70861 0.5691 0.91459 0.0
H436 H 0.69513 0.61462 0.99286 0.0
C437 C 0.63382 0.56417 0.03994 0.0
C438 C 0.555 0.39757 0.05641 0.0
C439 C 0.55153 0.40605 0.13209 0.0
H440 H 0.58692 0.3918 0.96412 0.0
C441 C 0.5793 0.41521 0.17241 0.0
H442 H 0.53442 0.3901 0.0234 0.0
C443 C 0.60937 0.41593 0.13862 0.0
C444 C 0.61291 0.40755 0.06312 0.0
H445 H 0.57789 0.4224 0.23022 0.0
H446 H 0.62989 0.42346 0.1719 0.0
C447 C 0.58526 0.39828 0.02246 0.0
C448 C 0.85254 0.53576 0.75018 0.0
C449 C 0.87736 0.51354 0.7511 0.0
H450 H 0.8385 0.58359 0.72193 0.0
C451 C 0.90737 0.52273 0.72353 0.0
H452 H 0.8293 0.5292 0.77193 0.0
C453 C 0.91251 0.55328 0.69452 0.0
C454 C 0.88794 0.5757 0.69381 0.0
H455 H 0.92682 0.50601 0.72362 0.0
H456 H 0.93588 0.55941 0.67272 0.0
C457 C 0.85792 0.56683 0.72254 0.0
C458 C 0.61487 0.139 0.15525 0.0
C459 C 0.61481 0.15344 0.22602 0.0
H460 H 0.58808 0.12555 0.05738 0.0
C461 C 0.58573 0.16552 0.25188 0.0
H462 H 0.63662 0.12923 0.13338 0.0
C463 C 0.55756 0.16315 0.20806 0.0
C464 C 0.55783 0.149 0.13685 0.0
H465 H 0.58465 0.17662 0.30627 0.0
H466 H 0.53572 0.17291 0.22936 0.0
C467 C 0.58692 0.13695 0.11134 0.0
C468 C 0.17718 0.53612 0.84308 0.0
C469 C 0.16163 0.53591 0.91248 0.0
H470 H 0.19346 0.50895 0.7506 0.0
C471 C 0.15209 0.5064 0.94358 0.0
H472 H 0.18556 0.55821 0.81803 0.0
C473 C 0.15702 0.47799 0.90515 0.0
C474 C 0.17156 0.47839 0.8346 0.0
H475 H 0.13992 0.50527 0.99661 0.0
H476 H 0.14854 0.45582 0.92984 0.0
C477 C 0.18202 0.50775 0.8046 0.0
C478 C 0.51348 0.91063 0.36199 0.0
C479 C 0.48635 0.90738 0.31562 0.0
H480 H 0.56357 0.92292 0.36768 0.0
C481 C 0.48846 0.91588 0.23961 0.0
H482 H 0.51234 0.90424 0.42074 0.0
C483 C 0.51719 0.92697 0.20992 0.0
C484 C 0.5447 0.92923 0.25516 0.0
H485 H 0.46776 0.91391 0.20278 0.0
H486 H 0.51812 0.9329 0.15091 0.0
C487 C 0.54265 0.92109 0.33162 0.0
C488 C 0.88483 1.02577 0.62249 0.0
C489 C 0.91661 1.01649 0.63546 0.0
H490 H 0.85364 0.06218 0.57992 0.0
C491 C 0.94157 0.03718 0.61359 0.0
H492 H 0.86511 1.01044 0.6395 0.0
C493 C 0.93498 0.06633 0.57875 0.0
C494 C 0.90331 0.07587 0.5668 0.0
H495 H 0.96627 1.03075 0.62306 0.0
H496 H 0.95468 0.08172 0.56191 0.0
C497 C 0.87824 0.05543 0.5893 0.0
C498 C 1.02622 0.15581 0.41874 0.0
C499 C 1.01577 0.18196 0.37555 0.0
H500 H 0.06529 0.13369 0.47723 0.0
C501 C 0.03844 0.20563 0.35578 0.0
H502 H 1.00951 0.13716 0.43532 0.0
C503 C 0.07048 0.20349 0.37937 0.0
C504 C 0.08075 0.17786 0.42442 0.0
H505 H 1.03136 0.22612 0.32266 0.0
H506 H 0.087 0.2225 0.36423 0.0
C507 C 0.0582 0.15392 0.44327 0.0
C508 C 0.1295 0.04268 0.53783 0.0
C509 C 0.14714 1.01499 0.5511 0.0
H510 H 0.12071 0.09066 0.56982 0.0
C511 C 0.1676 1.01371 0.61404 0.0
H512 H 0.11318 0.0441 0.49048 0.0
C513 C 0.17209 0.0404 0.65957 0.0
C514 C 0.15594 0.06881 0.64358 0.0
H515 H 0.18158 0.99272 0.62566 0.0
H516 H 0.18943 0.03928 0.70499 0.0
C517 C 0.13362 0.06922 0.58393 0.0
C518 C 1.02392 0.8704 0.61398 0.0
C519 C 1.03 0.88933 0.67721 0.0
H520 H 0.04292 0.84842 0.5171 0.0
C521 C 0.0618 0.89803 0.69478 0.0
H522 H 0.99982 0.86263 0.59993 0.0
C523 C 0.08669 0.88971 0.64739 0.0
C524 C 0.08027 0.87242 0.58163 0.0
H525 H 0.06726 0.91261 0.74308 0.0
H526 H 0.11068 0.89823 0.66036 0.0
C527 C 0.04874 0.86198 0.56689 0.0
C528 C 0.42054 0.28839 0.12106 0.0
C529 C 0.39108 0.30411 0.12112 0.0
H530 H 0.44499 0.24418 0.11236 0.0
C531 C 0.36285 0.28567 0.11307 0.0
H532 H 0.4428 0.30168 0.12734 0.0
C533 C 0.36411 0.25244 0.10492 0.0
C534 C 0.39363 0.2368 0.10433 0.0
H535 H 0.33972 0.29688 0.1132 0.0
H536 H 0.34192 0.23906 0.0983 0.0
C537 C 0.4218 0.25527 0.11266 0.0
C538 C 0.2553 0.65997 0.87856 0.0
C539 C 0.24284 0.69049 0.88977 0.0
H540 H 0.29639 0.63204 0.85795 0.0
C541 C 0.2638 0.717 0.88783 0.0
H542 H 0.23992 0.63896 0.87945 0.0
C543 C 0.29658 0.71294 0.87588 0.0
C544 C 0.30892 0.68231 0.86507 0.0
H545 H 0.25499 0.7408 0.89649 0.0
H546 H 0.3122 0.73376 0.87495 0.0
C547 C 0.28781 0.65596 0.8662 0.0
C548 C 0.66341 0.81802 0.16504 0.0
C549 C 0.69379 0.83193 0.17722 0.0
H550 H 0.63621 0.77573 0.14181 0.0
C551 C 0.72089 0.81267 0.17213 0.0
H552 H 0.642 0.83211 0.16798 0.0
C553 C 0.71754 0.78009 0.15638 0.0
C554 C 0.68703 0.76617 0.14584 0.0
H555 H 0.74465 0.82271 0.1806 0.0
H556 H 0.73876 0.7657 0.1543 0.0
C557 C 0.66008 0.78562 0.14967 0.0
C558 C 0.7989 0.40093 1.00368 0.0
C559 C 0.7852 0.42361 0.95522 0.0
H560 H 0.84022 0.3881 0.06994 0.0
C561 C 0.80265 0.4517 0.93894 0.0
H562 H 0.78593 0.37917 1.01748 0.0
C563 C 0.8333 0.45682 0.96901 0.0
C564 C 0.84774 0.43352 1.01395 0.0
H565 H 0.79257 0.46981 0.90251 0.0
H566 H 0.846 0.47884 0.95598 0.0
C567 C 0.83001 0.40587 0.03283 0.0
C568 C 0.87732 0.79479 0.60979 0.0
C569 C 0.87798 0.76802 0.65775 0.0
H570 H 0.88066 0.84563 0.5997 0.0
C571 C 0.87966 0.77288 0.73537 0.0
H572 H 0.8758 0.79192 0.54966 0.0
C573 C 0.8826 0.80376 0.76406 0.0
C574 C 0.88369 0.83045 0.71578 0.0
H575 H 0.88019 0.75281 0.77385 0.0
H576 H 0.88514 0.80662 0.82402 0.0
C577 C 0.88003 0.82565 0.63846 0.0
C578 C 0.83201 0.13284 0.3596 0.0
C579 C 0.84038 0.1485 0.29304 0.0
H580 H 0.79753 0.12637 0.44593 0.0
C581 C 0.81871 0.17027 0.26126 0.0
H582 H 0.84711 0.11436 0.38253 0.0
C583 C 0.78939 0.17636 0.29587 0.0
C584 C 0.78114 0.16079 0.36313 0.0
H585 H 0.82407 0.18186 0.20839 0.0
H586 H 0.77298 0.1928 0.26937 0.0
C587 C 0.80317 0.13936 0.39504 0.0
C588 C 0.15367 0.29772 0.74343 0.0
C589 C 0.17678 0.32081 0.72268 0.0
H590 H 0.1396 0.24831 0.74185 0.0
C591 C 0.20592 0.31066 0.69382 0.0
H592 H 0.13101 0.30474 0.76629 0.0
C593 C 0.21074 0.27847 0.67987 0.0
C594 C 0.18659 0.25568 0.6946 0.0
H595 H 0.22438 0.32773 0.67806 0.0
H596 H 0.23288 0.27166 0.65406 0.0
C597 C 0.15855 0.26537 0.72953 0.0
C598 C 0.26962 0.91263 0.47535 0.0
C599 C 0.25367 0.89532 0.53156 0.0
H600 H 0.31433 0.92824 0.4307 0.0
C601 C 0.27166 0.88166 0.59011 0.0
H602 H 0.25635 0.92387 0.43016 0.0
C603 C 0.30516 0.88374 0.58993 0.0
C604 C 0.32116 0.90029 0.53234 0.0
H605 H 0.25992 0.86837 0.63443 0.0
H606 H 0.31855 0.87169 0.63372 0.0
C607 C 0.30291 0.91544 0.47623 0.0
C608 C 0.3287 0.14049 0.6797 0.0
C609 C 0.29825 0.14562 0.70975 0.0
H610 H 0.37875 0.13447 0.70051 0.0
C611 C 0.29617 0.14946 0.78795 0.0
H612 H 0.33175 0.13805 0.62006 0.0
C613 C 0.32348 0.14764 0.83439 0.0
C614 C 0.3537 0.14171 0.80421 0.0
H615 H 0.27336 0.15318 0.81397 0.0
H616 H 0.32073 0.14995 0.89421 0.0
C617 C 0.35588 0.13848 0.7261 0.0
C618 C 0.16327 0.79559 0.21546 0.0
C619 C 0.13514 0.81197 0.23154 0.0
H620 H 0.18369 0.75433 0.1647 0.0
C621 C 0.10559 0.79866 0.20894 0.0
H622 H 0.18632 0.80545 0.23206 0.0
C623 C 0.10408 0.76948 0.17199 0.0
C624 C 0.1321 0.75313 0.15531 0.0
H625 H 0.08354 0.81062 0.22109 0.0
H626 H 0.08092 0.75976 0.15572 0.0
C627 C 0.16179 0.76658 0.17667 0.0
C628 C 0.78353 0.98215 1.00358 0.0
C629 C 0.76158 0.95646 1.00116 0.0
H630 H 0.83044 0.99938 0.97734 0.0
C631 C 0.77088 0.92772 0.96872 0.0
H632 H 0.7773 1.00444 0.02921 0.0
C633 C 0.8015 0.92477 0.93919 0.0
C634 C 0.82353 0.95037 0.9425 0.0
H635 H 0.75443 0.90757 0.96607 0.0
H636 H 0.80812 0.90234 0.91473 0.0
C637 C 0.81418 0.97909 0.97489 0.0
C638 C 0.8764 0.25708 0.13405 0.0
C639 C 0.88344 0.26966 0.20537 0.0
H640 H 0.86991 0.26645 1.01667 0.0
C641 C 0.88774 0.30281 0.21197 0.0
H642 H 0.87239 0.23174 0.12692 0.0
C643 C 0.88613 0.32269 0.14876 0.0
C644 C 0.88007 0.31003 0.07712 0.0
H645 H 0.89325 0.31338 0.26571 0.0
H646 H 0.88977 0.34806 0.15614 0.0
C647 C 0.87465 0.27701 0.0708 0.0
C648 C 0.28151 0.39651 0.43136 0.0
C649 C 0.26795 0.42648 0.44432 0.0
H650 H 0.32105 0.37088 0.3855 0.0
C651 C 0.28488 0.45391 0.42065 0.0
H652 H 0.26896 0.37495 0.4485 0.0
C653 C 0.31466 0.4516 0.38617 0.0
C654 C 0.32819 0.42177 0.37246 0.0
H655 H 0.27527 0.47732 0.43 0.0
H656 H 0.32715 0.47328 0.36963 0.0
C657 C 0.31112 0.39416 0.39479 0.0
C658 C 0.39413 0.74402 0.44557 0.0
C659 C 0.39361 0.77465 0.47674 0.0
H660 H 0.39925 0.69383 0.46534 0.0
C661 C 0.39745 0.7776 0.55478 0.0
H662 H 0.3913 0.74098 0.38575 0.0
C663 C 0.40155 0.75059 0.60051 0.0
C664 C 0.40254 0.71999 0.56924 0.0
H665 H 0.39677 0.80081 0.58067 0.0
H666 H 0.40449 0.75368 0.66028 0.0
C667 C 0.39886 0.71706 0.49114 0.0
C668 C 0.75188 0.62766 0.37472 0.0
C669 C 0.73311 0.65511 0.37281 0.0
H670 H 0.79789 0.60795 0.39966 0.0
C671 C 0.74656 0.68415 0.39721 0.0
H672 H 0.74211 0.60512 0.35522 0.0
C673 C 0.77817 0.68564 0.42385 0.0
C674 C 0.79715 0.65834 0.4241 0.0
H675 H 0.73252 0.7056 0.39575 0.0
H676 H 0.78807 0.70819 0.44287 0.0
C677 C 0.78375 0.62935 0.39923 0.0
C678 C 0.67254 0.2694 0.683 0.0
C679 C 0.6819 0.26688 0.60786 0.0
H680 H 0.66769 0.29959 0.7783 0.0
C681 C 0.6965 0.2934 0.5733 0.0
H682 H 0.66151 0.24925 0.71137 0.0
C683 C 0.69984 0.32236 0.61158 0.0
C684 C 0.68909 0.32529 0.68564 0.0
H685 H 0.70383 0.29223 0.51552 0.0
H686 H 0.71018 0.34272 0.58263 0.0
C687 C 0.67629 0.29817 0.72158 0.0
loop_
_geom_bond_atom_site_label_1
_geom_bond_atom_site_label_2
_geom_bond_distance
_geom_bond_site_symmetry_2
_ccdc_geom_bond_type
Cu0 N1 1.999 . S
Cu0 O6 1.974 . S
Cu0 N11 1.985 . S
Cu0 O20 1.959 . S
N1 Cu0 1.999 . S
N1 C3 1.263 . S
N1 C5 1.389 . S
N2 C3 1.358 . S
N2 C4 1.400 . S
C3 N1 1.263 . S
C3 N2 1.358 . S
C3 H9 0.930 . S
C4 N2 1.400 . S
C4 C5 1.351 . S
C4 H21 0.930 . S
C5 N1 1.389 . S
C5 C4 1.351 . S
C5 H10 0.930 . S
O6 Cu0 1.974 . S
O6 C16 1.282 . S
C7 O8 1.261 . S
C7 O20 1.251 . S
O8 C7 1.261 . S
H9 C3 0.930 . S
H10 C5 0.930 . S
N11 Cu0 1.985 . S
N11 C13 1.335 . S
N11 C14 1.390 . S
N12 C13 1.345 . S
N12 C15 1.336 . S
C13 N11 1.335 . S
C13 N12 1.345 . S
C13 H18 0.930 . S
C14 N11 1.390 . S
C14 C15 1.346 . S
C14 H19 0.930 . S
C15 N12 1.336 . S
C15 C14 1.346 . S
C15 H22 0.929 . S
C16 O6 1.282 . S
C16 O17 1.216 . S
O17 C16 1.216 . S
H18 C13 0.930 . S
H19 C14 0.930 . S
O20 Cu0 1.959 . S
O20 C7 1.251 . S
H21 C4 0.930 . S
H22 C15 0.929 . S
Cu23 N24 1.999 . S
Cu23 O29 1.974 . S
Cu23 N34 1.985 . S
Cu23 O43 1.959 . S
N24 Cu23 1.999 . S
N24 C26 1.263 . S
N24 C28 1.389 . S
N25 C26 1.358 . S
N25 C27 1.400 . S
C26 N24 1.263 . S
C26 N25 1.358 . S
C26 H32 0.930 . S
C27 N25 1.400 . S
C27 C28 1.351 . S
C27 H44 0.930 . S
C28 N24 1.389 . S
C28 C27 1.351 . S
C28 H33 0.930 . S
O29 Cu23 1.974 . S
O29 C39 1.282 . S
C30 O31 1.261 . S
C30 O43 1.251 . S
O31 C30 1.261 . S
H32 C26 0.930 . S
H33 C28 0.930 . S
N34 Cu23 1.985 . S
N34 C36 1.335 . S
N34 C37 1.390 . S
N35 C36 1.345 . S
N35 C38 1.336 . S
C36 N34 1.335 . S
C36 N35 1.345 . S
C36 H41 0.930 . S
C37 N34 1.390 . S
C37 C38 1.346 . S
C37 H42 0.930 . S
C38 N35 1.336 . S
C38 C37 1.346 . S
C38 H45 0.929 . S
C39 O29 1.282 . S
C39 O40 1.216 . S
O40 C39 1.216 . S
H41 C36 0.930 . S
H42 C37 0.930 . S
O43 Cu23 1.959 . S
O43 C30 1.251 . S
H44 C27 0.930 . S
H45 C38 0.929 . S
Cu46 N47 1.999 . S
Cu46 O52 1.974 . S
Cu46 N57 1.985 . S
Cu46 O66 1.959 . S
N47 Cu46 1.999 . S
N47 C49 1.263 . S
N47 C51 1.389 . S
N48 C49 1.358 . S
N48 C50 1.400 . S
C49 N47 1.263 . S
C49 N48 1.358 . S
C49 H55 0.930 . S
C50 N48 1.400 . S
C50 C51 1.351 . S
C50 H67 0.930 . S
C51 N47 1.389 . S
C51 C50 1.351 . S
C51 H56 0.930 . S
O52 Cu46 1.974 . S
O52 C62 1.282 . S
C53 O54 1.261 . S
C53 O66 1.251 . S
O54 C53 1.261 . S
H55 C49 0.930 . S
H56 C51 0.930 . S
N57 Cu46 1.985 . S
N57 C59 1.335 . S
N57 C60 1.390 . S
N58 C59 1.345 . S
N58 C61 1.336 . S
C59 N57 1.335 . S
C59 N58 1.345 . S
C59 H64 0.930 . S
C60 N57 1.390 . S
C60 C61 1.346 . S
C60 H65 0.930 . S
C61 N58 1.336 . S
C61 C60 1.346 . S
C61 H68 0.929 . S
C62 O52 1.282 . S
C62 O63 1.216 . S
O63 C62 1.216 . S
H64 C59 0.930 . S
H65 C60 0.930 . S
O66 Cu46 1.959 . S
O66 C53 1.251 . S
H67 C50 0.930 . S
H68 C61 0.929 . S
Cu69 N70 1.999 . S
Cu69 O75 1.974 . S
Cu69 N80 1.985 . S
Cu69 O89 1.959 . S
N70 Cu69 1.999 . S
N70 C72 1.263 . S
N70 C74 1.389 . S
N71 C72 1.358 . S
N71 C73 1.400 . S
C72 N70 1.263 . S
C72 N71 1.358 . S
C72 H78 0.930 . S
C73 N71 1.400 . S
C73 C74 1.351 . S
C73 H90 0.930 . S
C74 N70 1.389 . S
C74 C73 1.351 . S
C74 H79 0.930 . S
O75 Cu69 1.974 . S
O75 C85 1.282 . S
C76 O77 1.261 . S
C76 O89 1.251 . S
O77 C76 1.261 . S
H78 C72 0.930 . S
H79 C74 0.930 . S
N80 Cu69 1.985 . S
N80 C82 1.335 . S
N80 C83 1.390 . S
N81 C82 1.345 . S
N81 C84 1.336 . S
C82 N80 1.335 . S
C82 N81 1.345 . S
C82 H87 0.930 . S
C83 N80 1.390 . S
C83 C84 1.346 . S
C83 H88 0.930 . S
C84 N81 1.336 . S
C84 C83 1.346 . S
C84 H91 0.929 . S
C85 O75 1.282 . S
C85 O86 1.216 . S
O86 C85 1.216 . S
H87 C82 0.930 . S
H88 C83 0.930 . S
O89 Cu69 1.959 . S
O89 C76 1.251 . S
H90 C73 0.930 . S
H91 C84 0.929 . S
Cu92 N93 1.999 . S
Cu92 O98 1.974 . S
Cu92 N103 1.985 . S
Cu92 O112 1.959 . S
N93 Cu92 1.999 . S
N93 C95 1.263 . S
N93 C97 1.389 . S
N94 C95 1.358 . S
N94 C96 1.400 . S
C95 N93 1.263 . S
C95 N94 1.358 . S
C95 H101 0.930 . S
C96 N94 1.400 . S
C96 C97 1.351 . S
C96 H113 0.930 . S
C97 N93 1.389 . S
C97 C96 1.351 . S
C97 H102 0.930 . S
O98 Cu92 1.974 . S
O98 C108 1.282 . S
C99 O100 1.261 . S
C99 O112 1.251 . S
O100 C99 1.261 . S
H101 C95 0.930 . S
H102 C97 0.930 . S
N103 Cu92 1.985 . S
N103 C105 1.335 . S
N103 C106 1.390 . S
N104 C105 1.345 . S
N104 C107 1.336 . S
C105 N103 1.335 . S
C105 N104 1.345 . S
C105 H110 0.930 . S
C106 N103 1.390 . S
C106 C107 1.346 . S
C106 H111 0.930 . S
C107 N104 1.336 . S
C107 C106 1.346 . S
C107 H114 0.929 . S
C108 O98 1.282 . S
C108 O109 1.216 . S
O109 C108 1.216 . S
H110 C105 0.930 . S
H111 C106 0.930 . S
O112 Cu92 1.959 . S
O112 C99 1.251 . S
H113 C96 0.930 . S
H114 C107 0.929 . S
Cu115 N116 1.999 . S
Cu115 O121 1.974 . S
Cu115 N126 1.985 . S
Cu115 O135 1.959 . S
N116 Cu115 1.999 . S
N116 C118 1.263 . S
N116 C120 1.389 . S
N117 C118 1.358 . S
N117 C119 1.400 . S
C118 N116 1.263 . S
C118 N117 1.358 . S
C118 H124 0.930 . S
C119 N117 1.400 . S
C119 C120 1.351 . S
C119 H136 0.930 . S
C120 N116 1.389 . S
C120 C119 1.351 . S
C120 H125 0.930 . S
O121 Cu115 1.974 . S
O121 C131 1.282 . S
C122 O123 1.261 . S
C122 O135 1.251 . S
O123 C122 1.261 . S
H124 C118 0.930 . S
H125 C120 0.930 . S
N126 Cu115 1.985 . S
N126 C128 1.335 . S
N126 C129 1.390 . S
N127 C128 1.345 . S
N127 C130 1.336 . S
C128 N126 1.335 . S
C128 N127 1.345 . S
C128 H133 0.930 . S
C129 N126 1.390 . S
C129 C130 1.346 . S
C129 H134 0.930 . S
C130 N127 1.336 . S
C130 C129 1.346 . S
C130 H137 0.929 . S
C131 O121 1.282 . S
C131 O132 1.216 . S
O132 C131 1.216 . S
H133 C128 0.930 . S
H134 C129 0.930 . S
O135 Cu115 1.959 . S
O135 C122 1.251 . S
H136 C119 0.930 . S
H137 C130 0.929 . S
Cu138 N139 1.999 . S
Cu138 O144 1.974 . S
Cu138 N149 1.985 . S
Cu138 O158 1.959 . S
N139 Cu138 1.999 . S
N139 C141 1.263 . S
N139 C143 1.389 . S
N140 C141 1.358 . S
N140 C142 1.400 . S
C141 N139 1.263 . S
C141 N140 1.358 . S
C141 H147 0.930 . S
C142 N140 1.400 . S
C142 C143 1.351 . S
C142 H159 0.930 . S
C143 N139 1.389 . S
C143 C142 1.351 . S
C143 H148 0.930 . S
O144 Cu138 1.974 . S
O144 C154 1.282 . S
C145 O146 1.261 . S
C145 O158 1.251 . S
O146 C145 1.261 . S
H147 C141 0.930 . S
H148 C143 0.930 . S
N149 Cu138 1.985 . S
N149 C151 1.335 . S
N149 C152 1.390 . S
N150 C151 1.345 . S
N150 C153 1.336 . S
C151 N149 1.335 . S
C151 N150 1.345 . S
C151 H156 0.930 . S
C152 N149 1.390 . S
C152 C153 1.346 . S
C152 H157 0.930 . S
C153 N150 1.336 . S
C153 C152 1.346 . S
C153 H160 0.929 . S
C154 O144 1.282 . S
C154 O155 1.216 . S
O155 C154 1.216 . S
H156 C151 0.930 . S
H157 C152 0.930 . S
O158 Cu138 1.959 . S
O158 C145 1.251 . S
H159 C142 0.930 . S
H160 C153 0.929 . S
Cu161 N162 1.999 . S
Cu161 O167 1.974 . S
Cu161 N172 1.985 . S
Cu161 O181 1.959 . S
N162 Cu161 1.999 . S
N162 C164 1.263 . S
N162 C166 1.389 . S
N163 C164 1.358 . S
N163 C165 1.400 . S
C164 N162 1.263 . S
C164 N163 1.358 . S
C164 H170 0.930 . S
C165 N163 1.400 . S
C165 C166 1.351 . S
C165 H182 0.930 . S
C166 N162 1.389 . S
C166 C165 1.351 . S
C166 H171 0.930 . S
O167 Cu161 1.974 . S
O167 C177 1.282 . S
C168 O169 1.261 . S
C168 O181 1.251 . S
O169 C168 1.261 . S
H170 C164 0.930 . S
H171 C166 0.930 . S
N172 Cu161 1.985 . S
N172 C174 1.335 . S
N172 C175 1.390 . S
N173 C174 1.345 . S
N173 C176 1.336 . S
C174 N172 1.335 . S
C174 N173 1.345 . S
C174 H179 0.930 . S
C175 N172 1.390 . S
C175 C176 1.346 . S
C175 H180 0.930 . S
C176 N173 1.336 . S
C176 C175 1.346 . S
C176 H183 0.929 . S
C177 O167 1.282 . S
C177 O178 1.216 . S
O178 C177 1.216 . S
H179 C174 0.930 . S
H180 C175 0.930 . S
O181 Cu161 1.959 . S
O181 C168 1.251 . S
H182 C165 0.930 . S
H183 C176 0.929 . S
Cu184 N185 1.999 . S
Cu184 O190 1.974 . S
Cu184 N195 1.985 . S
Cu184 O204 1.959 . S
N185 Cu184 1.999 . S
N185 C187 1.263 . S
N185 C189 1.389 . S
N186 C187 1.358 . S
N186 C188 1.400 . S
C187 N185 1.263 . S
C187 N186 1.358 . S
C187 H193 0.930 . S
C188 N186 1.400 . S
C188 C189 1.351 . S
C188 H205 0.930 . S
C189 N185 1.389 . S
C189 C188 1.351 . S
C189 H194 0.930 . S
O190 Cu184 1.974 . S
O190 C200 1.282 . S
C191 O192 1.261 . S
C191 O204 1.251 . S
O192 C191 1.261 . S
H193 C187 0.930 . S
H194 C189 0.930 . S
N195 Cu184 1.985 . S
N195 C197 1.335 . S
N195 C198 1.390 . S
N196 C197 1.345 . S
N196 C199 1.336 . S
C197 N195 1.335 . S
C197 N196 1.345 . S
C197 H202 0.930 . S
C198 N195 1.390 . S
C198 C199 1.346 . S
C198 H203 0.930 . S
C199 N196 1.336 . S
C199 C198 1.346 . S
C199 H206 0.929 . S
C200 O190 1.282 . S
C200 O201 1.216 . S
O201 C200 1.216 . S
H202 C197 0.930 . S
H203 C198 0.930 . S
O204 Cu184 1.959 . S
O204 C191 1.251 . S
H205 C188 0.930 . S
H206 C199 0.929 . S
Cu207 N208 1.999 . S
Cu207 O213 1.974 . S
Cu207 N218 1.985 . S
Cu207 O227 1.959 . S
N208 Cu207 1.999 . S
N208 C210 1.263 . S
N208 C212 1.389 . S
N209 C210 1.358 . S
N209 C211 1.400 . S
C210 N208 1.263 . S
C210 N209 1.358 . S
C210 H216 0.930 . S
C211 N209 1.400 . S
C211 C212 1.351 . S
C211 H228 0.930 . S
C212 N208 1.389 . S
C212 C211 1.351 . S
C212 H217 0.930 . S
O213 Cu207 1.974 . S
O213 C223 1.282 . S
C214 O215 1.261 . S
C214 O227 1.251 . S
O215 C214 1.261 . S
H216 C210 0.930 . S
H217 C212 0.930 . S
N218 Cu207 1.985 . S
N218 C220 1.335 . S
N218 C221 1.390 . S
N219 C220 1.345 . S
N219 C222 1.336 . S
C220 N218 1.335 . S
C220 N219 1.345 . S
C220 H225 0.930 . S
C221 N218 1.390 . S
C221 C222 1.346 . S
C221 H226 0.930 . S
C222 N219 1.336 . S
C222 C221 1.346 . S
C222 H229 0.929 . S
C223 O213 1.282 . S
C223 O224 1.216 . S
O224 C223 1.216 . S
H225 C220 0.930 . S
H226 C221 0.930 . S
O227 Cu207 1.959 . S
O227 C214 1.251 . S
H228 C211 0.930 . S
H229 C222 0.929 . S
Cu230 N231 1.999 . S
Cu230 O236 1.974 . S
Cu230 N241 1.985 . S
Cu230 O250 1.959 . S
N231 Cu230 1.999 . S
N231 C233 1.263 . S
N231 C235 1.389 . S
N232 C233 1.358 . S
N232 C234 1.400 . S
C233 N231 1.263 . S
C233 N232 1.358 . S
C233 H239 0.930 . S
C234 N232 1.400 . S
C234 C235 1.351 . S
C234 H251 0.930 . S
C235 N231 1.389 . S
C235 C234 1.351 . S
C235 H240 0.930 . S
O236 Cu230 1.974 . S
O236 C246 1.282 . S
C237 O238 1.261 . S
C237 O250 1.251 . S
O238 C237 1.261 . S
H239 C233 0.930 . S
H240 C235 0.930 . S
N241 Cu230 1.985 . S
N241 C243 1.335 . S
N241 C244 1.390 . S
N242 C243 1.345 . S
N242 C245 1.336 . S
C243 N241 1.335 . S
C243 N242 1.345 . S
C243 H248 0.930 . S
C244 N241 1.390 . S
C244 C245 1.346 . S
C244 H249 0.930 . S
C245 N242 1.336 . S
C245 C244 1.346 . S
C245 H252 0.929 . S
C246 O236 1.282 . S
C246 O247 1.216 . S
O247 C246 1.216 . S
H248 C243 0.930 . S
H249 C244 0.930 . S
O250 Cu230 1.959 . S
O250 C237 1.251 . S
H251 C234 0.930 . S
H252 C245 0.929 . S
Cu253 N254 1.999 . S
Cu253 O259 1.974 . S
Cu253 N264 1.985 . S
Cu253 O273 1.959 . S
N254 Cu253 1.999 . S
N254 C256 1.263 . S
N254 C258 1.389 . S
N255 C256 1.358 . S
N255 C257 1.400 . S
C256 N254 1.263 . S
C256 N255 1.358 . S
C256 H262 0.930 . S
C257 N255 1.400 . S
C257 C258 1.351 . S
C257 H274 0.930 . S
C258 N254 1.389 . S
C258 C257 1.351 . S
C258 H263 0.930 . S
O259 Cu253 1.974 . S
O259 C269 1.282 . S
C260 O261 1.261 . S
C260 O273 1.251 . S
O261 C260 1.261 . S
H262 C256 0.930 . S
H263 C258 0.930 . S
N264 Cu253 1.985 . S
N264 C266 1.335 . S
N264 C267 1.390 . S
N265 C266 1.345 . S
N265 C268 1.336 . S
C266 N264 1.335 . S
C266 N265 1.345 . S
C266 H271 0.930 . S
C267 N264 1.390 . S
C267 C268 1.346 . S
C267 H272 0.930 . S
C268 N265 1.336 . S
C268 C267 1.346 . S
C268 H275 0.929 . S
C269 O259 1.282 . S
C269 O270 1.216 . S
O270 C269 1.216 . S
H271 C266 0.930 . S
H272 C267 0.930 . S
O273 Cu253 1.959 . S
O273 C260 1.251 . S
H274 C257 0.930 . S
H275 C268 0.929 . S
Cu276 N277 1.999 . S
Cu276 O282 1.974 . S
Cu276 N287 1.985 . S
Cu276 O296 1.959 . S
N277 Cu276 1.999 . S
N277 C279 1.263 . S
N277 C281 1.389 . S
N278 C279 1.358 . S
N278 C280 1.400 . S
C279 N277 1.263 . S
C279 N278 1.358 . S
C279 H285 0.930 . S
C280 N278 1.400 . S
C280 C281 1.351 . S
C280 H297 0.930 . S
C281 N277 1.389 . S
C281 C280 1.351 . S
C281 H286 0.930 . S
O282 Cu276 1.974 . S
O282 C292 1.282 . S
C283 O284 1.261 . S
C283 O296 1.251 . S
O284 C283 1.261 . S
H285 C279 0.930 . S
H286 C281 0.930 . S
N287 Cu276 1.985 . S
N287 C289 1.335 . S
N287 C290 1.390 . S
N288 C289 1.345 . S
N288 C291 1.336 . S
C289 N287 1.335 . S
C289 N288 1.345 . S
C289 H294 0.930 . S
C290 N287 1.390 . S
C290 C291 1.346 . S
C290 H295 0.930 . S
C291 N288 1.336 . S
C291 C290 1.346 . S
C291 H298 0.929 . S
C292 O282 1.282 . S
C292 O293 1.216 . S
O293 C292 1.216 . S
H294 C289 0.930 . S
H295 C290 0.930 . S
O296 Cu276 1.959 . S
O296 C283 1.251 . S
H297 C280 0.930 . S
H298 C291 0.929 . S
Cu299 N300 1.999 . S
Cu299 O305 1.974 . S
Cu299 N310 1.985 . S
Cu299 O319 1.959 . S
N300 Cu299 1.999 . S
N300 C302 1.263 . S
N300 C304 1.389 . S
N301 C302 1.358 . S
N301 C303 1.400 . S
C302 N300 1.263 . S
C302 N301 1.358 . S
C302 H308 0.930 . S
C303 N301 1.400 . S
C303 C304 1.351 . S
C303 H320 0.930 . S
C304 N300 1.389 . S
C304 C303 1.351 . S
C304 H309 0.930 . S
O305 Cu299 1.974 . S
O305 C315 1.282 . S
C306 O307 1.261 . S
C306 O319 1.251 . S
O307 C306 1.261 . S
H308 C302 0.930 . S
H309 C304 0.930 . S
N310 Cu299 1.985 . S
N310 C312 1.335 . S
N310 C313 1.390 . S
N311 C312 1.345 . S
N311 C314 1.336 . S
C312 N310 1.335 . S
C312 N311 1.345 . S
C312 H317 0.930 . S
C313 N310 1.390 . S
C313 C314 1.346 . S
C313 H318 0.930 . S
C314 N311 1.336 . S
C314 C313 1.346 . S
C314 H321 0.929 . S
C315 O305 1.282 . S
C315 O316 1.216 . S
O316 C315 1.216 . S
H317 C312 0.930 . S
H318 C313 0.930 . S
O319 Cu299 1.959 . S
O319 C306 1.251 . S
H320 C303 0.930 . S
H321 C314 0.929 . S
Cu322 N323 1.999 . S
Cu322 O328 1.974 . S
Cu322 N333 1.985 . S
Cu322 O342 1.959 . S
N323 Cu322 1.999 . S
N323 C325 1.263 . S
N323 C327 1.389 . S
N324 C325 1.358 . S
N324 C326 1.400 . S
C325 N323 1.263 . S
C325 N324 1.358 . S
C325 H331 0.930 . S
C326 N324 1.400 . S
C326 C327 1.351 . S
C326 H343 0.930 . S
C327 N323 1.389 . S
C327 C326 1.351 . S
C327 H332 0.930 . S
O328 Cu322 1.974 . S
O328 C338 1.282 . S
C329 O330 1.261 . S
C329 O342 1.251 . S
O330 C329 1.261 . S
H331 C325 0.930 . S
H332 C327 0.930 . S
N333 Cu322 1.985 . S
N333 C335 1.335 . S
N333 C336 1.390 . S
N334 C335 1.345 . S
N334 C337 1.336 . S
C335 N333 1.335 . S
C335 N334 1.345 . S
C335 H340 0.930 . S
C336 N333 1.390 . S
C336 C337 1.346 . S
C336 H341 0.930 . S
C337 N334 1.336 . S
C337 C336 1.346 . S
C337 H344 0.929 . S
C338 O328 1.282 . S
C338 O339 1.216 . S
O339 C338 1.216 . S
H340 C335 0.930 . S
H341 C336 0.930 . S
O342 Cu322 1.959 . S
O342 C329 1.251 . S
H343 C326 0.930 . S
H344 C337 0.929 . S
Cu345 N346 1.999 . S
Cu345 O351 1.974 . S
Cu345 N356 1.985 . S
Cu345 O365 1.959 . S
N346 Cu345 1.999 . S
N346 C348 1.263 . S
N346 C350 1.389 . S
N347 C348 1.358 . S
N347 C349 1.400 . S
C348 N346 1.263 . S
C348 N347 1.358 . S
C348 H354 0.930 . S
C349 N347 1.400 . S
C349 C350 1.351 . S
C349 H366 0.930 . S
C350 N346 1.389 . S
C350 C349 1.351 . S
C350 H355 0.930 . S
O351 Cu345 1.974 . S
O351 C361 1.282 . S
C352 O353 1.261 . S
C352 O365 1.251 . S
O353 C352 1.261 . S
H354 C348 0.930 . S
H355 C350 0.930 . S
N356 Cu345 1.985 . S
N356 C358 1.335 . S
N356 C359 1.390 . S
N357 C358 1.345 . S
N357 C360 1.336 . S
C358 N356 1.335 . S
C358 N357 1.345 . S
C358 H363 0.930 . S
C359 N356 1.390 . S
C359 C360 1.346 . S
C359 H364 0.930 . S
C360 N357 1.336 . S
C360 C359 1.346 . S
C360 H367 0.929 . S
C361 O351 1.282 . S
C361 O362 1.216 . S
O362 C361 1.216 . S
H363 C358 0.930 . S
H364 C359 0.930 . S
O365 Cu345 1.959 . S
O365 C352 1.251 . S
H366 C349 0.930 . S
H367 C360 0.929 . S
C368 C369 1.387 . S
C368 H372 0.950 . S
C368 C377 1.390 1_565 S
C369 C368 1.387 . S
C369 C371 1.387 . S
H370 C377 0.950 . S
C371 C369 1.387 . S
C371 C373 1.390 1_565 S
C371 H375 0.950 . S
H372 C368 0.950 . S
C373 C371 1.390 1_545 S
C373 C374 1.387 . S
C373 H376 0.950 . S
C374 C373 1.387 . S
C374 C377 1.387 . S
H375 C371 0.950 . S
H376 C373 0.950 . S
C377 C368 1.390 1_545 S
C377 H370 0.950 . S
C377 C374 1.387 . S
C378 C379 1.387 . S
C378 H382 0.950 . S
C378 C387 1.390 1_455 S
C379 C378 1.387 . S
C379 C381 1.387 . S
H380 C387 0.950 . S
C381 C379 1.387 . S
C381 C383 1.390 1_455 S
C381 H385 0.950 . S
H382 C378 0.950 . S
C383 C381 1.390 1_655 S
C383 C384 1.387 . S
C383 H386 0.950 . S
C384 C383 1.387 . S
C384 C387 1.387 . S
H385 C381 0.950 . S
H386 C383 0.950 . S
C387 C378 1.390 1_655 S
C387 H380 0.950 . S
C387 C384 1.387 . S
C388 C389 1.387 . S
C388 H392 0.950 . S
C388 C397 1.390 1_565 S
C389 C388 1.387 . S
C389 C391 1.387 . S
H390 C397 0.950 . S
C391 C389 1.387 . S
C391 C393 1.390 1_565 S
C391 H395 0.950 . S
H392 C388 0.950 . S
C393 C391 1.390 1_545 S
C393 C394 1.387 . S
C393 H396 0.950 . S
C394 C393 1.387 . S
C394 C397 1.387 . S
H395 C391 0.950 . S
H396 C393 0.950 . S
C397 C388 1.390 1_545 S
C397 H390 0.950 . S
C397 C394 1.387 . S
C398 C399 1.387 . S
C398 H402 0.950 . S
C398 C407 1.390 1_455 S
C399 C398 1.387 . S
C399 C401 1.387 . S
H400 C407 0.950 . S
C401 C399 1.387 . S
C401 C403 1.390 1_455 S
C401 H405 0.950 . S
H402 C398 0.950 . S
C403 C401 1.390 1_655 S
C403 C404 1.387 . S
C403 H406 0.950 . S
C404 C403 1.387 . S
C404 C407 1.387 . S
H405 C401 0.950 . S
H406 C403 0.950 . S
C407 C398 1.390 1_655 S
C407 H400 0.950 . S
C407 C404 1.387 . S
C408 C409 1.387 . S
C408 H412 0.950 . S
C408 C417 1.390 . S
C409 C408 1.387 . S
C409 C411 1.387 . S
H410 C417 0.950 . S
C411 C409 1.387 . S
C411 C413 1.390 1_554 S
C411 H415 0.950 1_554 S
H412 C408 0.950 . S
C413 C411 1.390 1_556 S
C413 C414 1.387 1_556 S
C413 H416 0.950 . S
C414 C413 1.387 1_554 S
C414 C417 1.387 . S
H415 C411 0.950 1_556 S
H416 C413 0.950 . S
C417 C408 1.390 . S
C417 H410 0.950 . S
C417 C414 1.387 . S
C418 C419 1.387 . S
C418 H422 0.950 . S
C418 C427 1.390 . S
C419 C418 1.387 . S
C419 C421 1.387 1_556 S
H420 C427 0.950 . S
C421 C419 1.387 1_554 S
C421 C423 1.390 . S
C421 H425 0.950 . S
H422 C418 0.950 . S
C423 C421 1.390 . S
C423 C424 1.387 1_554 S
C423 H426 0.950 . S
C424 C423 1.387 1_556 S
C424 C427 1.387 . S
H425 C421 0.950 . S
H426 C423 0.950 . S
C427 C418 1.390 . S
C427 H420 0.950 . S
C427 C424 1.387 . S
C428 C429 1.387 1_556 S
C428 H432 0.950 . S
C428 C437 1.390 . S
C429 C428 1.387 1_554 S
C429 C431 1.387 . S
H430 C437 0.950 . S
C431 C429 1.387 . S
C431 C433 1.390 . S
C431 H435 0.950 . S
H432 C428 0.950 . S
C433 C431 1.390 . S
C433 C434 1.387 . S
C433 H436 0.950 . S
C434 C433 1.387 . S
C434 C437 1.387 1_554 S
H435 C431 0.950 . S
H436 C433 0.950 . S
C437 C428 1.390 . S
C437 H430 0.950 . S
C437 C434 1.387 1_556 S
C438 C439 1.387 . S
C438 H442 0.950 . S
C438 C447 1.390 . S
C439 C438 1.387 . S
C439 C441 1.387 1_556 S
H440 C447 0.950 . S
C441 C439 1.387 1_554 S
C441 C443 1.390 1_554 S
C441 H445 0.950 . S
H442 C438 0.950 . S
C443 C441 1.390 1_556 S
C443 C444 1.387 . S
C443 H446 0.950 1_556 S
C444 C443 1.387 . S
C444 C447 1.387 . S
H445 C441 0.950 . S
H446 C443 0.950 1_554 S
C447 C438 1.390 . S
C447 H440 0.950 . S
C447 C444 1.387 . S
C448 C449 1.387 . S
C448 H452 0.950 . S
C448 C457 1.390 . S
C449 C448 1.387 . S
C449 C451 1.387 . S
H450 C457 0.950 . S
C451 C449 1.387 . S
C451 C453 1.390 . S
C451 H455 0.950 . S
H452 C448 0.950 . S
C453 C451 1.390 . S
C453 C454 1.387 . S
C453 H456 0.950 . S
C454 C453 1.387 . S
C454 C457 1.387 . S
H455 C451 0.950 . S
H456 C453 0.950 . S
C457 C448 1.390 . S
C457 H450 0.950 . S
C457 C454 1.387 . S
C458 C459 1.387 . S
C458 H462 0.950 . S
C458 C467 1.390 . S
C459 C458 1.387 . S
C459 C461 1.387 . S
H460 C467 0.950 . S
C461 C459 1.387 . S
C461 C463 1.390 . S
C461 H465 0.950 . S
H462 C458 0.950 . S
C463 C461 1.390 . S
C463 C464 1.387 . S
C463 H466 0.950 . S
C464 C463 1.387 . S
C464 C467 1.387 . S
H465 C461 0.950 . S
H466 C463 0.950 . S
C467 C458 1.390 . S
C467 H460 0.950 . S
C467 C464 1.387 . S
C468 C469 1.387 . S
C468 H472 0.950 . S
C468 C477 1.390 . S
C469 C468 1.387 . S
C469 C471 1.387 . S
H470 C477 0.950 . S
C471 C469 1.387 . S
C471 C473 1.390 . S
C471 H475 0.950 . S
H472 C468 0.950 . S
C473 C471 1.390 . S
C473 C474 1.387 . S
C473 H476 0.950 . S
C474 C473 1.387 . S
C474 C477 1.387 . S
H475 C471 0.950 . S
H476 C473 0.950 . S
C477 C468 1.390 . S
C477 H470 0.950 . S
C477 C474 1.387 . S
C478 C479 1.387 . S
C478 H482 0.950 . S
C478 C487 1.390 . S
C479 C478 1.387 . S
C479 C481 1.387 . S
H480 C487 0.950 . S
C481 C479 1.387 . S
C481 C483 1.390 . S
C481 H485 0.950 . S
H482 C478 0.950 . S
C483 C481 1.390 . S
C483 C484 1.387 . S
C483 H486 0.950 . S
C484 C483 1.387 . S
C484 C487 1.387 . S
H485 C481 0.950 . S
H486 C483 0.950 . S
C487 C478 1.390 . S
C487 H480 0.950 . S
C487 C484 1.387 . S
C488 C489 1.387 . S
C488 H492 0.950 . S
C488 C497 1.390 1_565 S
C489 C488 1.387 . S
C489 C491 1.387 . S
H490 C497 0.950 . S
C491 C489 1.387 . S
C491 C493 1.390 1_565 S
C491 H495 0.950 . S
H492 C488 0.950 . S
C493 C491 1.390 1_545 S
C493 C494 1.387 . S
C493 H496 0.950 . S
C494 C493 1.387 . S
C494 C497 1.387 . S
H495 C491 0.950 . S
H496 C493 0.950 . S
C497 C488 1.390 1_545 S
C497 H490 0.950 . S
C497 C494 1.387 . S
C498 C499 1.387 . S
C498 H502 0.950 . S
C498 C507 1.390 1_655 S
C499 C498 1.387 . S
C499 C501 1.387 . S
H500 C507 0.950 . S
C501 C499 1.387 . S
C501 C503 1.390 1_655 S
C501 H505 0.950 . S
H502 C498 0.950 . S
C503 C501 1.390 1_455 S
C503 C504 1.387 . S
C503 H506 0.950 . S
C504 C503 1.387 . S
C504 C507 1.387 . S
H505 C501 0.950 . S
H506 C503 0.950 . S
C507 C498 1.390 1_455 S
C507 H500 0.950 . S
C507 C504 1.387 . S
C508 C509 1.387 . S
C508 H512 0.950 . S
C508 C517 1.390 1_565 S
C509 C508 1.387 . S
C509 C511 1.387 . S
H510 C517 0.950 . S
C511 C509 1.387 . S
C511 C513 1.390 1_565 S
C511 H515 0.950 . S
H512 C508 0.950 . S
C513 C511 1.390 1_545 S
C513 C514 1.387 . S
C513 H516 0.950 . S
C514 C513 1.387 . S
C514 C517 1.387 . S
H515 C511 0.950 . S
H516 C513 0.950 . S
C517 C508 1.390 1_545 S
C517 H510 0.950 . S
C517 C514 1.387 . S
C518 C519 1.387 . S
C518 H522 0.950 . S
C518 C527 1.390 1_655 S
C519 C518 1.387 . S
C519 C521 1.387 . S
H520 C527 0.950 . S
C521 C519 1.387 . S
C521 C523 1.390 1_655 S
C521 H525 0.950 . S
H522 C518 0.950 . S
C523 C521 1.390 1_455 S
C523 C524 1.387 . S
C523 H526 0.950 . S
C524 C523 1.387 . S
C524 C527 1.387 . S
H525 C521 0.950 . S
H526 C523 0.950 . S
C527 C518 1.390 1_455 S
C527 H520 0.950 . S
C527 C524 1.387 . S
C528 C529 1.387 . S
C528 H532 0.950 . S
C528 C537 1.390 . S
C529 C528 1.387 . S
C529 C531 1.387 . S
H530 C537 0.950 . S
C531 C529 1.387 . S
C531 C533 1.390 . S
C531 H535 0.950 . S
H532 C528 0.950 . S
C533 C531 1.390 . S
C533 C534 1.387 . S
C533 H536 0.950 . S
C534 C533 1.387 . S
C534 C537 1.387 . S
H535 C531 0.950 . S
H536 C533 0.950 . S
C537 C528 1.390 . S
C537 H530 0.950 . S
C537 C534 1.387 . S
C538 C539 1.387 . S
C538 H542 0.950 . S
C538 C547 1.390 . S
C539 C538 1.387 . S
C539 C541 1.387 . S
H540 C547 0.950 . S
C541 C539 1.387 . S
C541 C543 1.390 . S
C541 H545 0.950 . S
H542 C538 0.950 . S
C543 C541 1.390 . S
C543 C544 1.387 . S
C543 H546 0.950 . S
C544 C543 1.387 . S
C544 C547 1.387 . S
H545 C541 0.950 . S
H546 C543 0.950 . S
C547 C538 1.390 . S
C547 H540 0.950 . S
C547 C544 1.387 . S
C548 C549 1.387 . S
C548 H552 0.950 . S
C548 C557 1.390 . S
C549 C548 1.387 . S
C549 C551 1.387 . S
H550 C557 0.950 . S
C551 C549 1.387 . S
C551 C553 1.390 . S
C551 H555 0.950 . S
H552 C548 0.950 . S
C553 C551 1.390 . S
C553 C554 1.387 . S
C553 H556 0.950 . S
C554 C553 1.387 . S
C554 C557 1.387 . S
H555 C551 0.950 . S
H556 C553 0.950 . S
C557 C548 1.390 . S
C557 H550 0.950 . S
C557 C554 1.387 . S
C558 C559 1.387 . S
C558 H562 0.950 . S
C558 C567 1.390 . S
C559 C558 1.387 . S
C559 C561 1.387 . S
H560 C567 0.950 . S
C561 C559 1.387 . S
C561 C563 1.390 . S
C561 H565 0.950 . S
H562 C558 0.950 . S
C563 C561 1.390 . S
C563 C564 1.387 . S
C563 H566 0.950 . S
C564 C563 1.387 . S
C564 C567 1.387 . S
H565 C561 0.950 . S
H566 C563 0.950 . S
C567 C558 1.390 . S
C567 H560 0.950 . S
C567 C564 1.387 . S
C568 C569 1.387 . S
C568 H572 0.950 . S
C568 C577 1.390 . S
C569 C568 1.387 . S
C569 C571 1.387 . S
H570 C577 0.950 . S
C571 C569 1.387 . S
C571 C573 1.390 . S
C571 H575 0.950 . S
H572 C568 0.950 . S
C573 C571 1.390 . S
C573 C574 1.387 . S
C573 H576 0.950 . S
C574 C573 1.387 . S
C574 C577 1.387 . S
H575 C571 0.950 . S
H576 C573 0.950 . S
C577 C568 1.390 . S
C577 H570 0.950 . S
C577 C574 1.387 . S
C578 C579 1.387 . S
C578 H582 0.950 . S
C578 C587 1.390 . S
C579 C578 1.387 . S
C579 C581 1.387 . S
H580 C587 0.950 . S
C581 C579 1.387 . S
C581 C583 1.390 . S
C581 H585 0.950 . S
H582 C578 0.950 . S
C583 C581 1.390 . S
C583 C584 1.387 . S
C583 H586 0.950 . S
C584 C583 1.387 . S
C584 C587 1.387 . S
H585 C581 0.950 . S
H586 C583 0.950 . S
C587 C578 1.390 . S
C587 H580 0.950 . S
C587 C584 1.387 . S
C588 C589 1.387 . S
C588 H592 0.950 . S
C588 C597 1.390 . S
C589 C588 1.387 . S
C589 C591 1.387 . S
H590 C597 0.950 . S
C591 C589 1.387 . S
C591 C593 1.390 . S
C591 H595 0.950 . S
H592 C588 0.950 . S
C593 C591 1.390 . S
C593 C594 1.387 . S
C593 H596 0.950 . S
C594 C593 1.387 . S
C594 C597 1.387 . S
H595 C591 0.950 . S
H596 C593 0.950 . S
C597 C588 1.390 . S
C597 H590 0.950 . S
C597 C594 1.387 . S
C598 C599 1.387 . S
C598 H602 0.950 . S
C598 C607 1.390 . S
C599 C598 1.387 . S
C599 C601 1.387 . S
H600 C607 0.950 . S
C601 C599 1.387 . S
C601 C603 1.390 . S
C601 H605 0.950 . S
H602 C598 0.950 . S
C603 C601 1.390 . S
C603 C604 1.387 . S
C603 H606 0.950 . S
C604 C603 1.387 . S
C604 C607 1.387 . S
H605 C601 0.950 . S
H606 C603 0.950 . S
C607 C598 1.390 . S
C607 H600 0.950 . S
C607 C604 1.387 . S
C608 C609 1.387 . S
C608 H612 0.950 . S
C608 C617 1.390 . S
C609 C608 1.387 . S
C609 C611 1.387 . S
H610 C617 0.950 . S
C611 C609 1.387 . S
C611 C613 1.390 . S
C611 H615 0.950 . S
H612 C608 0.950 . S
C613 C611 1.390 . S
C613 C614 1.387 . S
C613 H616 0.950 . S
C614 C613 1.387 . S
C614 C617 1.387 . S
H615 C611 0.950 . S
H616 C613 0.950 . S
C617 C608 1.390 . S
C617 H610 0.950 . S
C617 C614 1.387 . S
C618 C619 1.387 . S
C618 H622 0.950 . S
C618 C627 1.390 . S
C619 C618 1.387 . S
C619 C621 1.387 . S
H620 C627 0.950 . S
C621 C619 1.387 . S
C621 C623 1.390 . S
C621 H625 0.950 . S
H622 C618 0.950 . S
C623 C621 1.390 . S
C623 C624 1.387 . S
C623 H626 0.950 . S
C624 C623 1.387 . S
C624 C627 1.387 . S
H625 C621 0.950 . S
H626 C623 0.950 . S
C627 C618 1.390 . S
C627 H620 0.950 . S
C627 C624 1.387 . S
C628 C629 1.387 . S
C628 H632 0.950 . S
C628 C637 1.390 . S
C629 C628 1.387 . S
C629 C631 1.387 . S
H630 C637 0.950 . S
C631 C629 1.387 . S
C631 C633 1.390 . S
C631 H635 0.950 . S
H632 C628 0.950 . S
C633 C631 1.390 . S
C633 C634 1.387 . S
C633 H636 0.950 . S
C634 C633 1.387 . S
C634 C637 1.387 . S
H635 C631 0.950 . S
H636 C633 0.950 . S
C637 C628 1.390 . S
C637 H630 0.950 . S
C637 C634 1.387 . S
C638 C639 1.387 . S
C638 H642 0.950 . S
C638 C647 1.390 . S
C639 C638 1.387 . S
C639 C641 1.387 . S
H640 C647 0.950 . S
C641 C639 1.387 . S
C641 C643 1.390 . S
C641 H645 0.950 . S
H642 C638 0.950 . S
C643 C641 1.390 . S
C643 C644 1.387 . S
C643 H646 0.950 . S
C644 C643 1.387 . S
C644 C647 1.387 . S
H645 C641 0.950 . S
H646 C643 0.950 . S
C647 C638 1.390 . S
C647 H640 0.950 . S
C647 C644 1.387 . S
C648 C649 1.387 . S
C648 H652 0.950 . S
C648 C657 1.390 . S
C649 C648 1.387 . S
C649 C651 1.387 . S
H650 C657 0.950 . S
C651 C649 1.387 . S
C651 C653 1.390 . S
C651 H655 0.950 . S
H652 C648 0.950 . S
C653 C651 1.390 . S
C653 C654 1.387 . S
C653 H656 0.950 . S
C654 C653 1.387 . S
C654 C657 1.387 . S
H655 C651 0.950 . S
H656 C653 0.950 . S
C657 C648 1.390 . S
C657 H650 0.950 . S
C657 C654 1.387 . S
C658 C659 1.387 . S
C658 H662 0.950 . S
C658 C667 1.390 . S
C659 C658 1.387 . S
C659 C661 1.387 . S
H660 C667 0.950 . S
C661 C659 1.387 . S
C661 C663 1.390 . S
C661 H665 0.950 . S
H662 C658 0.950 . S
C663 C661 1.390 . S
C663 C664 1.387 . S
C663 H666 0.950 . S
C664 C663 1.387 . S
C664 C667 1.387 . S
H665 C661 0.950 . S
H666 C663 0.950 . S
C667 C658 1.390 . S
C667 H660 0.950 . S
C667 C664 1.387 . S
C668 C669 1.387 . S
C668 H672 0.950 . S
C668 C677 1.390 . S
C669 C668 1.387 . S
C669 C671 1.387 . S
H670 C677 0.950 . S
C671 C669 1.387 . S
C671 C673 1.390 . S
C671 H675 0.950 . S
H672 C668 0.950 . S
C673 C671 1.390 . S
C673 C674 1.387 . S
C673 H676 0.950 . S
C674 C673 1.387 . S
C674 C677 1.387 . S
H675 C671 0.950 . S
H676 C673 0.950 . S
C677 C668 1.390 . S
C677 H670 0.950 . S
C677 C674 1.387 . S
C678 C679 1.387 . S
C678 H682 0.950 . S
C678 C687 1.390 . S
C679 C678 1.387 . S
C679 C681 1.387 . S
H680 C687 0.950 . S
C681 C679 1.387 . S
C681 C683 1.390 . S
C681 H685 0.950 . S
H682 C678 0.950 . S
C683 C681 1.390 . S
C683 C684 1.387 . S
C683 H686 0.950 . S
C684 C683 1.387 . S
C684 C687 1.387 . S
H685 C681 0.950 . S
H686 C683 0.950 . S
C687 C678 1.390 . S
C687 H680 0.950 . S
C687 C684 1.387 . S
C369 N255 1.478 . S
C374 C16 1.618 . S
C379 C39 1.619 . S
C384 N186 1.476 . S
C389 C62 1.618 . S
C394 N209 1.475 . S
C399 N232 1.478 . S
C404 C85 1.618 . S
C409 C108 1.618 . S
C414 N117 1.478 1_554 S
C419 C131 1.619 . S
C424 N140 1.476 1_556 S
C429 N163 1.475 1_554 S
C434 C154 1.619 . S
C439 N94 1.477 1_556 S
C444 C177 1.618 . S
C449 N71 1.475 . S
C454 C200 1.618 . S
C459 C223 1.618 . S
C464 N2 1.475 . S
C469 N25 1.474 . S
C474 C246 1.618 . S
C479 C269 1.618 . S
C484 N48 1.476 . S
C489 C292 1.618 . S
C494 N301 1.476 . S
C499 C315 1.618 . S
C504 N324 1.476 . S
C509 N347 1.474 . S
C514 C338 1.618 . S
C519 N278 1.474 . S
C524 C361 1.618 . S
C529 C99 1.411 . S
C534 C7 1.411 . S
C539 C30 1.413 . S
C544 C122 1.413 . S
C549 C53 1.411 . S
C554 C145 1.411 . S
C559 C168 1.411 . S
C564 C76 1.411 . S
C569 C191 1.411 . S
C574 C283 1.411 . S
C579 C306 1.413 . S
C584 C214 1.413 . S
C589 C237 1.411 . S
C594 C329 1.411 . S
C599 C352 1.413 . S
C604 C260 1.413 . S
C609 N334 1.785 . S
C614 N12 1.785 1_556 S
C619 N357 1.785 . S
C624 N35 1.785 1_554 S
C629 N58 1.785 1_556 S
C634 N288 1.785 . S
C639 N311 1.785 . S
C644 N81 1.785 1_554 S
C649 N242 1.787 . S
C654 N104 1.787 . S
C659 N265 1.787 . S
C664 N127 1.787 . S
C669 N150 1.785 . S
C674 N196 1.785 . S
C679 N219 1.785 . S
C684 N173 1.785 . S
