# Generated by pormake.
# Topology uog, (4)-cn, num edge types: 1
# Building blocks:
#     Node 0, Type 0, BuildingBlock: MUDLON_clean_sbu_0, # of connection points: 4
#     Node 1, Type 0, BuildingBlock: MUDLON_clean_sbu_0, # of connection points: 4
#     Node 2, Type 0, BuildingBlock: MUDLON_clean_sbu_0, # of connection points: 4
#     Node 3, Type 0, BuildingBlock: MUDLON_clean_sbu_0, # of connection points: 4
#     Node 4, Type 0, BuildingBlock: MUDLON_clean_sbu_0, # of connection points: 4
#     Node 5, Type 0, BuildingBlock: MUDLON_clean_sbu_0, # of connection points: 4
#     Edge 6, Type (0, 0), BuildingBlock: MIFKUJ_clean_linker_0, # of connection points: 2
#     Edge 7, Type (0, 0), BuildingBlock: MIFKUJ_clean_linker_0, # of connection points: 2
#     Edge 8, Type (0, 0), BuildingBlock: MIFKUJ_clean_linker_0, # of connection points: 2
#     Edge 9, Type (0, 0), BuildingBlock: MIFKUJ_clean_linker_0, # of connection points: 2
#     Edge 10, Type (0, 0), BuildingBlock: MIFKUJ_clean_linker_0, # of connection points: 2
#     Edge 11, Type (0, 0), BuildingBlock: MIFKUJ_clean_linker_0, # of connection points: 2
#     Edge 12, Type (0, 0), BuildingBlock: MIFKUJ_clean_linker_0, # of connection points: 2
#     Edge 13, Type (0, 0), BuildingBlock: MIFKUJ_clean_linker_0, # of connection points: 2
#     Edge 14, Type (0, 0), BuildingBlock: MIFKUJ_clean_linker_0, # of connection points: 2
#     Edge 15, Type (0, 0), BuildingBlock: MIFKUJ_clean_linker_0, # of connection points: 2
#     Edge 16, Type (0, 0), BuildingBlock: MIFKUJ_clean_linker_0, # of connection points: 2
#     Edge 17, Type (0, 0), BuildingBlock: MIFKUJ_clean_linker_0, # of connection points: 2
# Relax obj value: 0.035
# Max RMSD: 0.253
# Mean RMSD: 0.253
data_MOF--net-uog--node1-MUDLON_clean_sbu_0--edge1-MIFKUJ_clean_linker_0
_symmetry_space_group_name_H-M    P1
_symmetry_Int_Tables_number       1
_symmetry_cell_setting            triclinic
loop_
_symmetry_equiv_pos_as_xyz
'x, y, z'
_cell_length_a     38.313492
_cell_length_b     38.596193
_cell_length_c     57.410331
_cell_angle_alpha  90.735097
_cell_angle_beta   89.579355
_cell_angle_gamma 120.03929
loop_
_atom_site_label
_atom_site_type_symbol
_atom_site_fract_x
_atom_site_fract_y
_atom_site_fract_z
_atom_type_partial_charge
Mg0 Mg 0.59434 0.2963 0.18858 0.0
C1 C 0.65171 0.32141 0.14441 0.0
O2 O 0.67978 0.32173 0.15756 0.0
C3 C 0.63898 0.2914 0.23064 0.0
O4 O 0.62102 0.25381 0.22377 0.0
C5 C 0.57569 0.21355 0.17793 0.0
O6 O 0.60936 0.23564 0.16648 0.0
O7 O 0.55984 0.23095 0.1891 0.0
O8 O 0.61803 0.31326 0.15335 0.0
O9 O 0.55975 0.32656 0.19326 0.0
C10 C 0.58244 0.36445 0.19341 0.0
O11 O 0.62157 0.37927 0.1915 0.0
O12 O 0.63614 0.31679 0.21804 0.0
Mg13 Mg 0.30862 0.59834 0.52605 0.0
C14 C 0.31601 0.65238 0.48471 0.0
O15 O 0.28709 0.65547 0.49521 0.0
C16 C 0.30509 0.61104 0.57601 0.0
O17 O 0.27738 0.57348 0.57234 0.0
C18 C 0.37636 0.5848 0.53172 0.0
O19 O 0.39113 0.62313 0.53611 0.0
O20 O 0.33903 0.56356 0.52692 0.0
O21 O 0.33091 0.63337 0.49453 0.0
O22 O 0.24296 0.56348 0.52481 0.0
C23 C 0.22315 0.55647 0.50596 0.0
O24 O 0.24268 0.56693 0.48606 0.0
O25 O 0.32463 0.6321 0.55863 0.0
Mg26 Mg 0.71359 0.30758 0.85033 0.0
C27 C 0.70825 0.35069 0.80663 0.0
O28 O 0.74214 0.38084 0.81446 0.0
C29 C 0.66877 0.31198 0.89475 0.0
O30 O 0.63578 0.28465 0.88438 0.0
C31 C 0.79592 0.37595 0.85437 0.0
O32 O 0.77293 0.38946 0.86274 0.0
O33 O 0.77921 0.33971 0.84731 0.0
O34 O 0.68962 0.31932 0.81886 0.0
O35 O 0.68451 0.24247 0.85178 0.0
C36 C 0.64782 0.22436 0.84526 0.0
O37 O 0.6322 0.24581 0.83798 0.0
O38 O 0.7022 0.32704 0.88393 0.0
Mg39 Mg 0.42508 0.71252 0.19277 0.0
C40 C 0.41214 0.6915 0.14312 0.0
O41 O 0.44829 0.6971 0.14731 0.0
C42 C 0.40719 0.69311 0.24211 0.0
O43 O 0.4438 0.69892 0.23935 0.0
C44 C 0.44251 0.79489 0.20181 0.0
O45 O 0.40623 0.77256 0.2105 0.0
O46 O 0.4606 0.77771 0.193 0.0
O47 O 0.39239 0.69538 0.15989 0.0
O48 O 0.45798 0.67997 0.19368 0.0
C49 C 0.43461 0.64219 0.19374 0.0
O50 O 0.39549 0.62812 0.19332 0.0
O51 O 0.38884 0.6958 0.22446 0.0
Mg52 Mg 0.72338 0.4261 0.5162 0.0
C53 C 0.7291 0.38222 0.47368 0.0
O54 O 0.76667 0.39964 0.48084 0.0
C55 C 0.68921 0.36644 0.55895 0.0
O56 O 0.67698 0.33595 0.54446 0.0
C57 C 0.65471 0.43811 0.51099 0.0
O58 O 0.63959 0.39916 0.50952 0.0
O59 O 0.69268 0.46031 0.51327 0.0
O60 O 0.70316 0.38506 0.4863 0.0
O61 O 0.78916 0.46104 0.51473 0.0
C62 C 0.80862 0.45363 0.52986 0.0
O63 O 0.78849 0.42819 0.54648 0.0
O64 O 0.70692 0.40189 0.55116 0.0
Mg65 Mg 0.30374 0.7201 0.85885 0.0
C66 C 0.35357 0.72511 0.81617 0.0
O67 O 0.37279 0.76322 0.82199 0.0
C68 C 0.33502 0.6899 0.89958 0.0
O69 O 0.35892 0.6868 0.88422 0.0
C70 C 0.22354 0.65281 0.84945 0.0
O71 O 0.2479 0.63816 0.84765 0.0
O72 O 0.2387 0.68998 0.85399 0.0
O73 O 0.32583 0.70022 0.82946 0.0
O74 O 0.3358 0.78537 0.85922 0.0
C75 C 0.37059 0.80173 0.86856 0.0
O76 O 0.38283 0.7786 0.87768 0.0
O77 O 0.31107 0.70171 0.89314 0.0
H78 H 0.60274 0.16928 0.15507 0.0
H79 H 0.57997 0.09843 0.15939 0.0
H80 H 0.48917 0.0873 0.20844 0.0
H81 H 0.51236 0.15884 0.20449 0.0
H82 H 0.52919 0.05141 0.22417 0.0
H83 H 0.46361 0.04926 0.15315 0.0
H84 H 0.45871 0.06955 0.11331 0.0
H85 H 0.54117 0.03242 0.08876 0.0
H86 H 0.54701 0.01241 0.12854 0.0
H87 H 0.41519 0.83929 0.22417 0.0
H88 H 0.43958 0.91064 0.2205 0.0
H89 H 0.53318 0.92182 0.17371 0.0
H90 H 0.50867 0.84989 0.1772 0.0
H91 H 0.4922 0.95765 0.15687 0.0
H92 H 0.5569 0.95907 0.22815 0.0
H93 H 0.56095 0.93841 0.26803 0.0
H94 H 0.47894 0.97642 0.2921 0.0
H95 H 0.47393 0.99681 0.25228 0.0
C96 C 0.57769 0.15181 0.16667 0.0
C97 C 0.55932 0.16977 0.17942 0.0
C98 C 0.5646 0.11118 0.16904 0.0
C99 C 0.53261 0.0874 0.18407 0.0
C100 C 0.51389 0.10508 0.1967 0.0
C101 C 0.52701 0.14589 0.19434 0.0
C102 C 0.51979 0.04445 0.18707 0.0
C103 C 0.52048 0.03075 0.2095 0.0
C104 C 0.50953 0.01775 0.16784 0.0
C105 C 0.50604 0.02969 0.14388 0.0
C106 C 0.48096 0.04572 0.1393 0.0
C107 C 0.47796 0.05711 0.11672 0.0
C108 C 0.4997 0.05237 0.09853 0.0
C109 C 0.52439 0.03612 0.10288 0.0
C110 C 0.52753 0.02471 0.12543 0.0
C111 C 0.44121 0.85689 0.21323 0.0
C112 C 0.45997 0.83886 0.20094 0.0
C113 C 0.45521 0.89778 0.21124 0.0
C114 C 0.48835 0.92163 0.19695 0.0
C115 C 0.50757 0.90393 0.18486 0.0
C116 C 0.49368 0.86291 0.18696 0.0
C117 C 0.5016 0.96465 0.19395 0.0
C118 C 0.50096 0.97834 0.17152 0.0
C119 C 0.51177 0.9913 0.21319 0.0
C120 C 0.51476 0.97913 0.23717 0.0
C121 C 0.53946 0.96272 0.24191 0.0
C122 C 0.54198 0.95112 0.26451 0.0
C123 C 0.52014 0.95601 0.28258 0.0
C124 C 0.4958 0.97261 0.27808 0.0
C125 C 0.49315 0.98423 0.2555 0.0
H126 H 0.52214 0.94701 0.30007 0.0
H127 H 0.49733 0.06121 0.08106 0.0
H128 H 0.45659 0.62371 0.54168 0.0
H129 H 0.50316 0.59822 0.53849 0.0
H130 H 0.40556 0.48277 0.51707 0.0
H131 H 0.3583 0.50807 0.52038 0.0
H132 H 0.45712 0.47748 0.5489 0.0
H133 H 0.46845 0.54505 0.47691 0.0
H134 H 0.4785 0.60184 0.45287 0.0
H135 H 0.59624 0.67502 0.48242 0.0
H136 H 0.58665 0.6188 0.50689 0.0
H137 H 0.5737 0.39803 0.50346 0.0
H138 H 0.52706 0.42335 0.50731 0.0
H139 H 0.62602 0.54066 0.52454 0.0
H140 H 0.67328 0.51555 0.52036 0.0
H141 H 0.57397 0.54536 0.49528 0.0
H142 H 0.56457 0.4797 0.56681 0.0
H143 H 0.55589 0.42445 0.59179 0.0
H144 H 0.43638 0.34973 0.5649 0.0
H145 H 0.44462 0.40432 0.5394 0.0
C146 C 0.44482 0.5928 0.53638 0.0
C147 C 0.4037 0.568 0.53109 0.0
C148 C 0.4716 0.57833 0.5345 0.0
C149 C 0.45797 0.5388 0.52719 0.0
C150 C 0.41672 0.51345 0.52264 0.0
C151 C 0.38979 0.52796 0.5245 0.0
C152 C 0.48711 0.52445 0.52385 0.0
C153 C 0.48233 0.4919 0.53693 0.0
C154 C 0.5207 0.5441 0.50874 0.0
C155 C 0.52668 0.57781 0.49387 0.0
C156 C 0.49637 0.57333 0.4784 0.0
C157 C 0.502 0.60541 0.46468 0.0
C158 C 0.53795 0.64204 0.46616 0.0
C159 C 0.5684 0.64664 0.48131 0.0
C160 C 0.5629 0.61467 0.49509 0.0
C161 C 0.5857 0.4293 0.50796 0.0
C162 C 0.62724 0.45473 0.51176 0.0
C163 C 0.5589 0.44367 0.51026 0.0
C164 C 0.57291 0.4837 0.51665 0.0
C165 C 0.61452 0.50958 0.51973 0.0
C166 C 0.64149 0.49521 0.51733 0.0
C167 C 0.54393 0.49823 0.52026 0.0
C168 C 0.54876 0.53086 0.50724 0.0
C169 C 0.51058 0.47885 0.53558 0.0
C170 C 0.50536 0.44601 0.55102 0.0
C171 C 0.53654 0.45139 0.56608 0.0
C172 C 0.53169 0.42021 0.58037 0.0
C173 C 0.49563 0.38359 0.57992 0.0
C174 C 0.46431 0.37811 0.56522 0.0
C175 C 0.46905 0.40917 0.55085 0.0
H176 H 0.49193 0.35949 0.591 0.0
H177 H 0.54225 0.66684 0.45553 0.0
H178 H 0.85435 0.35891 0.83965 0.0
H179 H 0.92722 0.40556 0.83703 0.0
H180 H 0.90983 0.50138 0.86267 0.0
H181 H 0.83749 0.4554 0.8652 0.0
H182 H 0.96062 0.52512 0.82587 0.0
H183 H 0.94508 0.45683 0.89818 0.0
H184 H 0.92356 0.39805 0.92318 0.0
H185 H 0.99736 0.36402 0.88357 0.0
H186 H 0.01892 0.42236 0.85812 0.0
H187 H 0.1625 0.66914 0.8583 0.0
H188 H 0.08974 0.62182 0.85727 0.0
H189 H 0.11233 0.52768 0.8349 0.0
H190 H 0.18467 0.57434 0.83627 0.0
H191 H 0.05886 0.502 0.86882 0.0
H192 H 0.07622 0.57125 0.79714 0.0
H193 H 0.0979 0.62997 0.77207 0.0
H194 H 0.02097 0.662 0.80999 0.0
H195 H 0.99923 0.60373 0.8355 0.0
C196 C 0.8661 0.3899 0.84473 0.0
C197 C 0.84008 0.40335 0.8527 0.0
C198 C 0.90772 0.41651 0.84328 0.0
C199 C 0.92399 0.45694 0.84978 0.0
C200 C 0.89799 0.47039 0.85751 0.0
C201 C 0.85657 0.44391 0.85904 0.0
C202 C 0.96808 0.48548 0.84873 0.0
C203 C 0.9821 0.52027 0.83543 0.0
C204 C 0.99617 0.47877 0.86081 0.0
C205 C 0.98324 0.44369 0.87609 0.0
C206 C 0.95644 0.43662 0.89467 0.0
C207 C 0.94429 0.40342 0.90895 0.0
C208 C 0.95899 0.37724 0.90492 0.0
C209 C 0.98595 0.38428 0.88664 0.0
C210 C 0.99816 0.41741 0.8723 0.0
C211 C 0.15191 0.63845 0.85298 0.0
C212 C 0.17941 0.62553 0.84742 0.0
C213 C 0.11032 0.61143 0.85234 0.0
C214 C 0.09551 0.57116 0.84588 0.0
C215 C 0.12297 0.55849 0.84001 0.0
C216 C 0.1644 0.58533 0.84075 0.0
C217 C 0.05152 0.54177 0.84596 0.0
C218 C 0.03747 0.50682 0.85913 0.0
C219 C 0.02344 0.54831 0.83371 0.0
C220 C 0.03641 0.58334 0.81838 0.0
C221 C 0.06417 0.59099 0.80025 0.0
C222 C 0.07642 0.62416 0.78594 0.0
C223 C 0.0609 0.64976 0.78947 0.0
C224 C 0.03301 0.64218 0.80729 0.0
C225 C 0.02069 0.60906 0.82167 0.0
H226 H 0.07042 0.67542 0.77837 0.0
H227 H 0.94956 0.35157 0.916 0.0
H228 H 0.17195 0.52449 0.54306 0.0
H229 H 0.10105 0.50649 0.5453 0.0
H230 H 0.10441 0.53855 0.47331 0.0
H231 H 0.17529 0.55641 0.47084 0.0
H232 H 0.07107 0.57255 0.50284 0.0
H233 H 0.05526 0.4434 0.48653 0.0
H234 H 0.06667 0.3866 0.49211 0.0
H235 H 0.01732 0.36978 0.56116 0.0
H236 H 1.00614 0.42688 0.55611 0.0
H237 H 0.85765 0.49259 0.49265 0.0
H238 H 0.9283 0.51079 0.48738 0.0
H239 H 0.92921 0.46766 0.55621 0.0
H240 H 0.85869 0.44882 0.56141 0.0
H241 H 0.96038 0.43874 0.52606 0.0
H242 H 0.9785 0.56857 0.54366 0.0
H243 H 0.96797 0.62613 0.53917 0.0
H244 H 1.01364 0.64267 0.46922 0.0
H245 H 0.02396 0.58483 0.47319 0.0
C246 C 0.1575 0.52727 0.52762 0.0
C247 C 0.17927 0.54182 0.50676 0.0
C248 C 0.11697 0.51694 0.52892 0.0
C249 C 0.09748 0.52116 0.50946 0.0
C250 C 0.11893 0.53513 0.48853 0.0
C251 C 0.15936 0.54507 0.48713 0.0
C252 C 0.05509 0.51215 0.51123 0.0
C253 C 0.04669 0.54313 0.50756 0.0
C254 C 0.02356 0.47405 0.51793 0.0
C255 C 0.03023 0.43967 0.52102 0.0
C256 C 0.04717 0.42782 0.50298 0.0
C257 C 0.05353 0.39552 0.50603 0.0
C258 C 0.04282 0.37466 0.52699 0.0
C259 C 0.02564 0.386 0.54494 0.0
C260 C 0.01925 0.41831 0.54198 0.0
C261 C 0.87309 0.48753 0.50678 0.0
C262 C 0.85251 0.46917 0.52743 0.0
C263 C 0.9135 0.49797 0.50375 0.0
C264 C 0.93415 0.49065 0.52142 0.0
C265 C 0.9139 0.47339 0.54228 0.0
C266 C 0.87357 0.46278 0.54525 0.0
C267 C 0.97626 0.49928 0.51795 0.0
C268 C 0.98464 0.46816 0.52127 0.0
C269 C 1.0078 0.53735 0.51109 0.0
C270 C 1.00157 0.57209 0.50863 0.0
C271 C 0.98597 0.58426 0.52725 0.0
C272 C 0.9801 0.61698 0.52481 0.0
C273 C 0.99001 0.63797 0.5039 0.0
C274 C 1.00591 0.62634 0.4854 0.0
C275 C 1.0118 0.59361 0.48773 0.0
H276 H 0.98546 0.66331 0.50205 0.0
H277 H 0.04775 0.34965 0.52932 0.0
H278 H 0.35705 0.85931 0.85006 0.0
H279 H 0.40558 0.93089 0.8463 0.0
H280 H 0.49646 0.91421 0.87983 0.0
H281 H 0.44808 0.8432 0.88417 0.0
H282 H 0.50078 0.98025 0.89549 0.0
H283 H 0.494 0.92281 0.82012 0.0
H284 H 0.46052 0.8835 0.78474 0.0
H285 H 0.4163 0.96332 0.76958 0.0
H286 H 0.449 1.00277 0.80508 0.0
H287 H 0.66712 0.16958 0.86222 0.0
H288 H 0.62216 0.09708 0.86588 0.0
H289 H 0.52511 0.10747 0.83562 0.0
H290 H 0.56965 0.17926 0.83157 0.0
H291 H 0.5266 0.04391 0.81797 0.0
H292 H 0.5334 0.1002 0.89494 0.0
H293 H 0.56819 0.13854 0.93035 0.0
H294 H 0.61495 0.05974 0.94205 0.0
H295 H 0.58093 0.02129 0.90651 0.0
C296 C 0.38728 0.87097 0.85677 0.0
C297 C 0.3987 0.84547 0.86731 0.0
C298 C 0.41509 0.91185 0.85449 0.0
C299 C 0.45493 0.92787 0.86245 0.0
C300 C 0.46599 0.90261 0.87351 0.0
C301 C 0.43822 0.86191 0.87592 0.0
C302 C 0.48534 0.9708 0.85905 0.0
C303 C 0.50677 0.99402 0.87848 0.0
C304 C 0.493 0.98895 0.83689 0.0
C305 C 0.47364 0.96553 0.81539 0.0
C306 C 0.4769 0.93183 0.80933 0.0
C307 C 0.45809 0.90953 0.78924 0.0
C308 C 0.43621 0.92085 0.77495 0.0
C309 C 0.43321 0.95456 0.78069 0.0
C310 C 0.4519 0.97692 0.80078 0.0
C311 C 0.63628 0.15633 0.85623 0.0
C312 C 0.62196 0.18027 0.84671 0.0
C313 C 0.61056 0.11494 0.85842 0.0
C314 C 0.57009 0.09688 0.85126 0.0
C315 C 0.55616 0.12066 0.84127 0.0
C316 C 0.58172 0.16183 0.83906 0.0
C317 C 0.54169 0.0534 0.85446 0.0
C318 C 0.52068 0.03006 0.83496 0.0
C319 C 0.53468 0.03507 0.87652 0.0
C320 C 0.55496 0.05812 0.89794 0.0
C321 C 0.55135 0.09124 0.90497 0.0
C322 C 0.5709 0.11296 0.92508 0.0
C323 C 0.59383 0.10163 0.93841 0.0
C324 C 0.59722 0.06852 0.93168 0.0
C325 C 0.57781 0.04674 0.91157 0.0
H326 H 0.60888 0.1184 0.95399 0.0
H327 H 0.42166 0.90354 0.75941 0.0
H328 H 0.51359 0.65972 0.19432 0.0
H329 H 0.53834 0.61215 0.19479 0.0
H330 H 0.41584 0.51371 0.19428 0.0
H331 H 0.39099 0.56075 0.19413 0.0
H332 H 0.45974 0.50086 0.22503 0.0
H333 H 0.47338 0.54021 0.14504 0.0
H334 H 0.49605 0.58769 0.11246 0.0
H335 H 0.61952 0.63104 0.13118 0.0
H336 H 0.59756 0.58419 0.1641 0.0
H337 H 0.50295 0.34554 0.19453 0.0
H338 H 0.47707 0.39224 0.19511 0.0
H339 H 0.59887 0.49197 0.19588 0.0
H340 H 0.62481 0.44585 0.195 0.0
H341 H 0.55452 0.50357 0.1648 0.0
H342 H 0.54023 0.46385 0.24507 0.0
H343 H 0.5169 0.41592 0.27743 0.0
H344 H 0.39382 0.37251 0.25776 0.0
H345 H 0.41645 0.41985 0.22507 0.0
C346 C 0.49197 0.62795 0.19432 0.0
C347 C 0.45034 0.61407 0.19413 0.0
C348 C 0.50613 0.60079 0.19451 0.0
C349 C 0.47892 0.55931 0.19437 0.0
C350 C 0.4374 0.54551 0.19442 0.0
C351 C 0.42327 0.57254 0.19425 0.0
C352 C 0.49346 0.53011 0.19416 0.0
C353 C 0.48011 0.50116 0.2117 0.0
C354 C 0.52051 0.53085 0.17699 0.0
C355 C 0.53381 0.55898 0.15718 0.0
C356 C 0.50536 0.5601 0.14233 0.0
C357 C 0.51808 0.58685 0.12378 0.0
C358 C 0.5592 0.61244 0.11979 0.0
C359 C 0.58768 0.61125 0.13432 0.0
C360 C 0.57511 0.58458 0.15291 0.0
C361 C 0.52416 0.37741 0.19494 0.0
C362 C 0.56593 0.39192 0.19472 0.0
C363 C 0.50936 0.40407 0.19532 0.0
C364 C 0.53606 0.44566 0.19566 0.0
C365 C 0.57769 0.46007 0.19555 0.0
C366 C 0.59245 0.43355 0.19513 0.0
C367 C 0.52098 0.47444 0.19575 0.0
C368 C 0.53418 0.50327 0.17814 0.0
C369 C 0.4937 0.47352 0.21282 0.0
C370 C 0.48005 0.4451 0.23248 0.0
C371 C 0.5082 0.44386 0.24753 0.0
C372 C 0.49511 0.41684 0.26595 0.0
C373 C 0.45391 0.39111 0.26961 0.0
C374 C 0.42572 0.39241 0.25488 0.0
C375 C 0.43866 0.41935 0.23642 0.0
H376 H 0.44383 0.37021 0.28388 0.0
H377 H 0.56899 0.63313 0.10542 0.0
H378 H 0.73307 0.34662 0.92435 0.0
H379 H 0.73195 0.35347 0.96667 0.0
H380 H 0.6032 0.3042 0.96485 0.0
H381 H 0.60378 0.29617 0.92236 0.0
H382 H 0.65277 0.37733 0.99594 0.0
H383 H 0.62537 0.24339 0.97873 0.0
H384 H 0.63859 0.19372 0.95944 0.0
H385 H 0.75414 0.24575 0.99288 0.0
H386 H 0.74195 0.29641 1.01197 0.0
H387 H 0.59809 0.31995 0.11281 0.0
H388 H 0.60456 0.32455 0.07063 0.0
H389 H 0.72402 0.3404 0.07538 0.0
H390 H 0.71742 0.33493 0.1179 0.0
H391 H 0.68214 0.28724 0.04231 0.0
H392 H 0.70884 0.41885 0.0615 0.0
H393 H 0.69724 0.47009 0.08019 0.0
H394 H 0.58552 0.4247 0.04318 0.0
H395 H 0.59616 0.3728 0.0245 0.0
C396 C 0.70451 0.33772 0.93284 0.0
C397 C 0.66843 0.32069 0.91996 0.0
C398 C 0.70398 0.3416 0.95705 0.0
C399 C 0.66751 0.32919 0.96884 0.0
C400 C 0.63165 0.31398 0.95601 0.0
C401 C 0.63203 0.30934 0.93178 0.0
C402 C 0.66671 0.32987 0.99465 0.0
C403 C 0.6587 0.35739 1.00615 0.0
C404 C 0.67563 0.30458 1.00784 0.0
C405 C 0.68296 0.27401 0.99654 0.0
C406 C 0.65379 0.24453 0.98177 0.0
C407 C 0.66105 0.21613 0.97091 0.0
C408 C 0.69722 0.2166 0.97489 0.0
C409 C 0.72617 0.24546 0.98978 0.0
C410 C 0.7191 0.27405 1.00061 0.0
C411 C 0.62596 0.32474 0.105 0.0
C412 C 0.65729 0.3271 0.11883 0.0
C413 C 0.62967 0.32758 0.08079 0.0
C414 C 0.66496 0.33332 0.06976 0.0
C415 C 0.69651 0.33607 0.08349 0.0
C416 C 0.69277 0.33309 0.1078 0.0
C417 C 0.66795 0.33468 0.04388 0.0
C418 C 0.6764 0.30747 0.03225 0.0
C419 C 0.65963 0.36046 0.0306 0.0
C420 C 0.65315 0.3917 0.04175 0.0
C421 C 0.68164 0.41959 0.05748 0.0
C422 C 0.67526 0.44879 0.06805 0.0
C423 C 0.64062 0.45059 0.06292 0.0
C424 C 0.61232 0.42325 0.04716 0.0
C425 C 0.61854 0.39396 0.03655 0.0
H426 H 0.63574 0.47322 0.07112 0.0
H427 H 0.70276 0.19454 0.96649 0.0
H428 H 0.42843 0.66519 0.27927 0.0
H429 H 0.40431 0.65864 0.31926 0.0
H430 H 0.32288 0.69947 0.29894 0.0
H431 H 0.34686 0.70587 0.25846 0.0
H432 H 0.37026 0.73905 0.33924 0.0
H433 H 0.28216 0.60647 0.31214 0.0
H434 H 0.26302 0.54264 0.29199 0.0
H435 H 0.33712 0.52148 0.33879 0.0
H436 H 0.35723 0.58551 0.35902 0.0
H437 H 0.28446 0.68619 0.45591 0.0
H438 H 0.29406 0.69535 0.41367 0.0
H439 H 0.37838 0.65228 0.41523 0.0
H440 H 0.36928 0.64327 0.45719 0.0
H441 H 0.3176 0.61236 0.38287 0.0
H442 H 0.41175 0.74821 0.40656 0.0
H443 H 0.43265 0.81276 0.42632 0.0
H444 H 0.34745 0.82775 0.38581 0.0
H445 H 0.32564 0.76295 0.36602 0.0
C446 C 0.4051 0.67244 0.28321 0.0
C447 C 0.38949 0.686 0.26573 0.0
C448 C 0.39128 0.66858 0.30607 0.0
C449 C 0.36171 0.67842 0.31203 0.0
C450 C 0.34568 0.69167 0.29464 0.0
C451 C 0.35918 0.69505 0.27156 0.0
C452 C 0.34902 0.67584 0.3367 0.0
C453 C 0.35781 0.7112 0.34872 0.0
C454 C 0.33346 0.63962 0.34907 0.0
C455 C 0.32141 0.60097 0.33701 0.0
C456 C 0.29464 0.58837 0.31803 0.0
C457 C 0.28357 0.55212 0.30661 0.0
C458 C 0.2989 0.52805 0.31408 0.0
C459 C 0.32528 0.54016 0.33302 0.0
C460 C 0.33648 0.57642 0.34449 0.0
C461 C 0.30558 0.67934 0.44731 0.0
C462 C 0.3259 0.66375 0.45994 0.0
C463 C 0.31098 0.68455 0.42318 0.0
C464 C 0.33669 0.67419 0.41132 0.0
C465 C 0.35815 0.66015 0.42403 0.0
C466 C 0.35301 0.6552 0.44807 0.0
C467 C 0.33993 0.67575 0.38555 0.0
C468 C 0.3293 0.6401 0.37334 0.0
C469 C 0.35378 0.71168 0.37307 0.0
C470 C 0.36667 0.75048 0.38505 0.0
C471 C 0.39715 0.76505 0.40205 0.0
C472 C 0.40924 0.80174 0.41321 0.0
C473 C 0.39127 0.82427 0.40739 0.0
C474 C 0.36126 0.81021 0.39034 0.0
C475 C 0.34903 0.77352 0.37915 0.0
H476 H 0.4007 0.85268 0.41604 0.0
H477 H 0.29028 0.49998 0.30522 0.0
H478 H 0.65516 0.28613 0.78041 0.0
H479 H 0.64245 0.28431 0.73859 0.0
H480 H 0.72031 0.41226 0.73556 0.0
H481 H 0.7338 0.41436 0.77737 0.0
H482 H 0.64608 0.38004 0.70831 0.0
H483 H 0.75996 0.36045 0.72118 0.0
H484 H 0.79379 0.32695 0.73858 0.0
H485 H 0.70639 0.21531 0.70734 0.0
H486 H 0.67167 0.24809 0.69004 0.0
H487 H 0.71184 0.424 0.59271 0.0
H488 H 0.70473 0.41555 0.63466 0.0
H489 H 0.64655 0.28743 0.62563 0.0
H490 H 0.6542 0.29569 0.58322 0.0
H491 H 0.70175 0.31221 0.65927 0.0
H492 H 0.59239 0.33238 0.64212 0.0
H493 H 0.55725 0.36461 0.62478 0.0
H494 H 0.63216 0.47221 0.66383 0.0
H495 H 0.66825 0.44089 0.68112 0.0
C496 C 0.66905 0.31403 0.77097 0.0
C497 C 0.69571 0.35041 0.78222 0.0
C498 C 0.66182 0.31287 0.74705 0.0
C499 C 0.68068 0.3481 0.73398 0.0
C500 C 0.70547 0.38474 0.74536 0.0
C501 C 0.71321 0.38587 0.76923 0.0
C502 C 0.677 0.34644 0.70823 0.0
C503 C 0.65842 0.36547 0.69752 0.0
C504 C 0.692 0.32628 0.69427 0.0
C505 C 0.71294 0.3066 0.70457 0.0
C506 C 0.74773 0.32868 0.71821 0.0
C507 C 0.76711 0.30984 0.72802 0.0
C508 C 0.75217 0.26899 0.72414 0.0
C509 C 0.71788 0.24693 0.71038 0.0
C510 C 0.69834 0.26562 0.70056 0.0
C511 C 0.6973 0.3939 0.59952 0.0
C512 C 0.6835 0.36048 0.58451 0.0
C513 C 0.69302 0.38913 0.6236 0.0
C514 C 0.67449 0.35083 0.63336 0.0
C515 C 0.66073 0.31729 0.61849 0.0
C516 C 0.66507 0.32204 0.59426 0.0
C517 C 0.67133 0.34643 0.65913 0.0
C518 C 0.68874 0.3263 0.66993 0.0
C519 C 0.6549 0.36531 0.67315 0.0
C520 C 0.63324 0.38433 0.66281 0.0
C521 C 0.6016 0.36302 0.64688 0.0
C522 C 0.58148 0.38112 0.63707 0.0
C523 C 0.5925 0.42044 0.64318 0.0
C524 C 0.62366 0.44175 0.65911 0.0
C525 C 0.64394 0.42382 0.66894 0.0
H526 H 0.57684 0.43439 0.63561 0.0
H527 H 0.76722 0.25446 0.73174 0.0
H528 H 0.28965 0.6943 0.93509 0.0
H529 H 0.29691 0.68801 0.9767 0.0
H530 H 0.3935 0.66377 0.96293 0.0
H531 H 0.38629 0.66978 0.92098 0.0
H532 H 0.34148 0.61529 0.99744 0.0
H533 H 0.41584 0.75511 0.97943 0.0
H534 H 0.42585 0.81816 0.96299 0.0
H535 H 0.33339 0.8133 1.00788 0.0
H536 H 0.32239 0.74983 0.02434 0.0
H537 H 0.44175 0.66944 0.10623 0.0
H538 H 0.42104 0.66197 0.0656 0.0
H539 H 0.32726 0.68803 0.08426 0.0
H540 H 0.34805 0.69578 0.12525 0.0
H541 H 0.37334 0.73305 0.04771 0.0
H542 H 0.30249 0.59474 0.06767 0.0
H543 H 0.29398 0.53227 0.08411 0.0
H544 H 0.38136 0.53481 0.03585 0.0
H545 H 0.39085 0.59764 1.01933 0.0
C546 C 0.31231 0.68735 0.94081 0.0
C547 C 0.33768 0.68291 0.92467 0.0
C548 C 0.31643 0.68383 0.96465 0.0
C549 C 0.3461 0.67599 0.97292 0.0
C550 C 0.37047 0.66996 0.95688 0.0
C551 C 0.36639 0.67351 0.93293 0.0
C552 C 0.35264 0.67577 0.99834 0.0
C553 C 0.34886 0.64114 1.00842 0.0
C554 C 0.36131 0.70922 1.01272 0.0
C555 C 0.36799 0.74749 1.00294 0.0
C556 C 0.3974 0.7673 0.98566 0.0
C557 C 0.4033 0.80315 0.97636 0.0
C558 C 0.38019 0.81967 0.98434 0.0
C559 C 0.35121 0.80043 1.00169 0.0
C560 C 0.34515 0.76453 1.01102 0.0
C561 C 0.41643 0.6732 0.10179 0.0
C562 C 0.39661 0.68335 0.11896 0.0
C563 C 0.40448 0.66868 0.07854 0.0
C564 C 0.37243 0.67416 0.07191 0.0
C565 C 0.35201 0.68356 0.08904 0.0
C566 C 0.3638 0.68783 0.11244 0.0
C567 C 0.36226 0.67256 0.04688 0.0
C568 C 0.36553 0.70699 0.03681 0.0
C569 C 0.35332 0.63899 0.03255 0.0
C570 C 0.34762 0.60111 0.04238 0.0
C571 C 0.32014 0.58217 0.06068 0.0
C572 C 0.31509 0.54665 0.06999 0.0
C573 C 0.33718 0.52963 0.06106 0.0
C574 C 0.3643 0.54805 0.04276 0.0
C575 C 0.36948 0.58359 0.0334 0.0
H576 H 0.33323 0.50213 0.0683 0.0
H577 H 0.38481 0.84743 0.97713 0.0
H578 H 0.65826 0.35646 0.44988 0.0
H579 H 0.64563 0.33841 0.40855 0.0
H580 H 0.76456 0.35336 0.40149 0.0
H581 H 0.77764 0.372 0.44263 0.0
H582 H 0.75152 0.39116 0.36767 0.0
H583 H 0.6793 0.25997 0.4003 0.0
H584 H 0.63011 0.20719 0.42607 0.0
H585 H 0.53384 0.21644 0.39456 0.0
H586 H 0.58254 0.26967 0.36881 0.0
H587 H 0.65244 0.2452 0.26077 0.0
H588 H 0.67157 0.25898 0.30176 0.0
H589 H 0.68099 0.37472 0.29612 0.0
H590 H 0.6626 0.36144 0.25493 0.0
H591 H 0.63243 0.26936 0.33629 0.0
H592 H 0.74785 0.4392 0.33602 0.0
H593 H 0.79987 0.48947 0.31024 0.0
H594 H 0.81545 0.39787 0.27692 0.0
H595 H 0.76392 0.34715 0.3027 0.0
C596 C 0.6815 0.35528 0.43963 0.0
C597 C 0.719 0.36576 0.4496 0.0
C598 C 0.67423 0.34494 0.41597 0.0
C599 C 0.70414 0.34449 0.40186 0.0
C600 C 0.74109 0.35371 0.41196 0.0
C601 C 0.74843 0.36415 0.43556 0.0
C602 C 0.69766 0.33612 0.37638 0.0
C603 C 0.7255 0.36448 0.36082 0.0
C604 C 0.664 0.30114 0.36736 0.0
C605 C 0.63462 0.26905 0.38277 0.0
C606 C 0.64768 0.25095 0.39899 0.0
C607 C 0.61988 0.22092 0.41357 0.0
C608 C 0.57889 0.20854 0.41199 0.0
C609 C 0.5656 0.22609 0.39578 0.0
C610 C 0.59329 0.25616 0.38117 0.0
C611 C 0.65922 0.27389 0.26812 0.0
C612 C 0.65597 0.30221 0.25453 0.0
C613 C 0.66994 0.28162 0.29163 0.0
C614 C 0.67772 0.31786 0.30211 0.0
C615 C 0.67565 0.34672 0.28841 0.0
C616 C 0.66512 0.33908 0.26482 0.0
C617 C 0.68613 0.32455 0.32756 0.0
C618 C 0.65854 0.29599 0.34312 0.0
C619 C 0.72037 0.35903 0.33657 0.0
C620 C 0.75174 0.38934 0.32115 0.0
C621 C 0.76249 0.42982 0.32325 0.0
C622 C 0.79187 0.45839 0.30863 0.0
C623 C 0.81086 0.44685 0.2919 0.0
C624 C 0.80061 0.40674 0.28982 0.0
C625 C 0.77127 0.37806 0.30441 0.0
H626 H 0.83358 0.46901 0.28059 0.0
H627 H 0.55741 0.18528 0.42329 0.0
H628 H 0.41172 0.7694 0.78409 0.0
H629 H 0.41346 0.75272 0.74303 0.0
H630 H 0.30769 0.63704 0.75322 0.0
H631 H 0.30644 0.653 0.79437 0.0
H632 H 0.35774 0.63075 0.72373 0.0
H633 H 0.30232 0.7191 0.73244 0.0
H634 H 0.30462 0.78144 0.74532 0.0
H635 H 0.4096 0.85019 0.70306 0.0
H636 H 0.40815 0.78822 0.69013 0.0
H637 H 0.26345 0.5749 0.61535 0.0
H638 H 0.28086 0.5979 0.6555 0.0
H639 H 0.38595 0.70555 0.63202 0.0
H640 H 0.36829 0.68284 0.59142 0.0
H641 H 0.34696 0.72097 0.66703 0.0
H642 H 0.39648 0.63076 0.65443 0.0
H643 H 0.39313 0.56793 0.64165 0.0
H644 H 0.29888 0.50226 0.69123 0.0
H645 H 0.30124 0.56463 0.70408 0.0
C646 C 0.38926 0.74012 0.77769 0.0
C647 C 0.35868 0.71269 0.79246 0.0
C648 C 0.39016 0.73073 0.75417 0.0
C649 C 0.36013 0.69401 0.7449 0.0
C650 C 0.33106 0.66566 0.75993 0.0
C651 C 0.33038 0.67485 0.78349 0.0
C652 C 0.35723 0.68582 0.7194 0.0
C653 C 0.35518 0.65037 0.71136 0.0
C654 C 0.355 0.71196 0.70313 0.0
C655 C 0.35537 0.74911 0.71052 0.0
C656 C 0.32599 0.74754 0.72598 0.0
C657 C 0.32714 0.78279 0.73328 0.0
C658 C 0.35731 0.81976 0.72507 0.0
C659 C 0.38629 0.82153 0.70944 0.0
C660 C 0.3853 0.78636 0.7021 0.0
C661 C 0.29023 0.60357 0.61863 0.0
C662 C 0.31467 0.62691 0.60017 0.0
C663 C 0.30024 0.61659 0.64164 0.0
C664 C 0.33518 0.65303 0.6468 0.0
C665 C 0.35901 0.67716 0.62842 0.0
C666 C 0.34888 0.66417 0.60526 0.0
C667 C 0.34648 0.66541 0.67147 0.0
C668 C 0.35013 0.70163 0.67935 0.0
C669 C 0.35009 0.63993 0.68762 0.0
C670 C 0.34889 0.60238 0.68012 0.0
C671 C 0.37487 0.6029 0.66251 0.0
C672 C 0.37317 0.56736 0.65527 0.0
C673 C 0.34577 0.53112 0.6656 0.0
C674 C 0.32009 0.53036 0.68324 0.0
C675 C 0.32164 0.5658 0.69054 0.0
H676 H 0.34448 0.50364 0.65995 0.0
H677 H 0.35819 0.84703 0.73077 0.0
loop_
_geom_bond_atom_site_label_1
_geom_bond_atom_site_label_2
_geom_bond_distance
_geom_bond_site_symmetry_2
_ccdc_geom_bond_type
Mg0 O7 2.141 . S
Mg0 O8 2.048 . S
Mg0 O9 2.048 . S
Mg0 O12 2.141 . S
C1 O2 1.313 . S
C1 O8 1.195 . S
O2 C1 1.313 . S
C3 O4 1.245 . S
C3 O12 1.289 . S
O4 C3 1.245 . S
C5 O6 1.245 . S
C5 O7 1.289 . S
O6 C5 1.245 . S
O7 Mg0 2.141 . S
O7 C5 1.289 . S
O8 Mg0 2.048 . S
O8 C1 1.195 . S
O9 Mg0 2.048 . S
O9 C10 1.195 . S
C10 O9 1.195 . S
C10 O11 1.313 . S
O11 C10 1.313 . S
O12 Mg0 2.141 . S
O12 C3 1.289 . S
Mg13 O20 2.141 . S
Mg13 O21 2.048 . S
Mg13 O22 2.048 . S
Mg13 O25 2.141 . S
C14 O15 1.313 . S
C14 O21 1.195 . S
O15 C14 1.313 . S
C16 O17 1.245 . S
C16 O25 1.289 . S
O17 C16 1.245 . S
C18 O19 1.245 . S
C18 O20 1.289 . S
O19 C18 1.245 . S
O20 Mg13 2.141 . S
O20 C18 1.289 . S
O21 Mg13 2.048 . S
O21 C14 1.195 . S
O22 Mg13 2.048 . S
O22 C23 1.195 . S
C23 O22 1.195 . S
C23 O24 1.313 . S
O24 C23 1.313 . S
O25 Mg13 2.141 . S
O25 C16 1.289 . S
Mg26 O33 2.141 . S
Mg26 O34 2.048 . S
Mg26 O35 2.048 . S
Mg26 O38 2.141 . S
C27 O28 1.313 . S
C27 O34 1.195 . S
O28 C27 1.313 . S
C29 O30 1.245 . S
C29 O38 1.289 . S
O30 C29 1.245 . S
C31 O32 1.245 . S
C31 O33 1.289 . S
O32 C31 1.245 . S
O33 Mg26 2.141 . S
O33 C31 1.289 . S
O34 Mg26 2.048 . S
O34 C27 1.195 . S
O35 Mg26 2.048 . S
O35 C36 1.195 . S
C36 O35 1.195 . S
C36 O37 1.313 . S
O37 C36 1.313 . S
O38 Mg26 2.141 . S
O38 C29 1.289 . S
Mg39 O46 2.141 . S
Mg39 O47 2.048 . S
Mg39 O48 2.048 . S
Mg39 O51 2.141 . S
C40 O41 1.313 . S
C40 O47 1.195 . S
O41 C40 1.313 . S
C42 O43 1.245 . S
C42 O51 1.289 . S
O43 C42 1.245 . S
C44 O45 1.245 . S
C44 O46 1.289 . S
O45 C44 1.245 . S
O46 Mg39 2.141 . S
O46 C44 1.289 . S
O47 Mg39 2.048 . S
O47 C40 1.195 . S
O48 Mg39 2.048 . S
O48 C49 1.195 . S
C49 O48 1.195 . S
C49 O50 1.313 . S
O50 C49 1.313 . S
O51 Mg39 2.141 . S
O51 C42 1.289 . S
Mg52 O59 2.141 . S
Mg52 O60 2.048 . S
Mg52 O61 2.048 . S
Mg52 O64 2.141 . S
C53 O54 1.313 . S
C53 O60 1.195 . S
O54 C53 1.313 . S
C55 O56 1.245 . S
C55 O64 1.289 . S
O56 C55 1.245 . S
C57 O58 1.245 . S
C57 O59 1.289 . S
O58 C57 1.245 . S
O59 Mg52 2.141 . S
O59 C57 1.289 . S
O60 Mg52 2.048 . S
O60 C53 1.195 . S
O61 Mg52 2.048 . S
O61 C62 1.195 . S
C62 O61 1.195 . S
C62 O63 1.313 . S
O63 C62 1.313 . S
O64 Mg52 2.141 . S
O64 C55 1.289 . S
Mg65 O72 2.141 . S
Mg65 O73 2.048 . S
Mg65 O74 2.048 . S
Mg65 O77 2.141 . S
C66 O67 1.313 . S
C66 O73 1.195 . S
O67 C66 1.313 . S
C68 O69 1.245 . S
C68 O77 1.289 . S
O69 C68 1.245 . S
C70 O71 1.245 . S
C70 O72 1.289 . S
O71 C70 1.245 . S
O72 Mg65 2.141 . S
O72 C70 1.289 . S
O73 Mg65 2.048 . S
O73 C66 1.195 . S
O74 Mg65 2.048 . S
O74 C75 1.195 . S
C75 O74 1.195 . S
C75 O76 1.313 . S
O76 C75 1.313 . S
O77 Mg65 2.141 . S
O77 C68 1.289 . S
H78 C96 0.951 . S
H79 C98 0.951 . S
H80 C100 0.950 . S
H81 C101 0.950 . S
H82 C103 0.950 . S
H83 C106 0.950 . S
H84 C107 0.950 . S
H85 C109 0.950 . S
H86 C110 0.950 . S
H87 C111 0.951 . S
H88 C113 0.951 . S
H89 C115 0.950 . S
H90 C116 0.950 . S
H91 C118 0.950 . S
H92 C121 0.950 . S
H93 C122 0.950 . S
H94 C124 0.950 . S
H95 C125 0.950 . S
C96 H78 0.951 . S
C96 C97 1.366 . S
C96 C98 1.388 . S
C97 C96 1.366 . S
C97 C101 1.385 . S
C98 H79 0.951 . S
C98 C96 1.388 . S
C98 C99 1.366 . S
C99 C98 1.366 . S
C99 C100 1.414 . S
C99 C102 1.499 . S
C100 H80 0.950 . S
C100 C99 1.414 . S
C100 C101 1.374 . S
C101 H81 0.950 . S
C101 C97 1.385 . S
C101 C100 1.374 . S
C102 C99 1.499 . S
C102 C103 1.373 . S
C102 C104 1.389 . S
C103 H82 0.950 . S
C103 C102 1.373 . S
C103 C119 1.377 1_545 S
C104 C102 1.389 . S
C104 C105 1.524 . S
C104 C118 1.377 1_545 S
C105 C104 1.524 . S
C105 C106 1.397 . S
C105 C110 1.363 . S
C106 H83 0.950 . S
C106 C105 1.397 . S
C106 C107 1.334 . S
C107 H84 0.950 . S
C107 C106 1.334 . S
C107 C108 1.287 . S
C108 C107 1.287 . S
C108 C109 1.524 . S
C108 H127 0.913 . S
C109 H85 0.950 . S
C109 C108 1.524 . S
C109 C110 1.415 . S
C110 H86 0.950 . S
C110 C105 1.363 . S
C110 C109 1.415 . S
C111 H87 0.951 . S
C111 C112 1.366 . S
C111 C113 1.388 . S
C112 C111 1.366 . S
C112 C116 1.385 . S
C113 H88 0.951 . S
C113 C111 1.388 . S
C113 C114 1.366 . S
C114 C113 1.366 . S
C114 C115 1.414 . S
C114 C117 1.499 . S
C115 H89 0.950 . S
C115 C114 1.414 . S
C115 C116 1.374 . S
C116 H90 0.950 . S
C116 C112 1.385 . S
C116 C115 1.374 . S
C117 C114 1.499 . S
C117 C118 1.373 . S
C117 C119 1.389 . S
C118 H91 0.950 . S
C118 C104 1.377 1_565 S
C118 C117 1.373 . S
C119 C103 1.377 1_565 S
C119 C117 1.389 . S
C119 C120 1.524 . S
C120 C119 1.524 . S
C120 C121 1.397 . S
C120 C125 1.363 . S
C121 H92 0.950 . S
C121 C120 1.397 . S
C121 C122 1.334 . S
C122 H93 0.950 . S
C122 C121 1.334 . S
C122 C123 1.287 . S
C123 C122 1.287 . S
C123 C124 1.524 . S
C123 H126 0.999 . S
C124 H94 0.950 . S
C124 C123 1.524 . S
C124 C125 1.415 . S
C125 H95 0.950 . S
C125 C120 1.363 . S
C125 C124 1.415 . S
H126 C123 0.999 . S
H127 C108 0.913 . S
H128 C146 0.951 . S
H129 C148 0.951 . S
H130 C150 0.950 . S
H131 C151 0.950 . S
H132 C153 0.950 . S
H133 C156 0.950 . S
H134 C157 0.950 . S
H135 C159 0.950 . S
H136 C160 0.950 . S
H137 C161 0.951 . S
H138 C163 0.951 . S
H139 C165 0.950 . S
H140 C166 0.950 . S
H141 C168 0.950 . S
H142 C171 0.950 . S
H143 C172 0.950 . S
H144 C174 0.950 . S
H145 C175 0.950 . S
C146 H128 0.951 . S
C146 C147 1.366 . S
C146 C148 1.388 . S
C147 C146 1.366 . S
C147 C151 1.385 . S
C148 H129 0.951 . S
C148 C146 1.388 . S
C148 C149 1.366 . S
C149 C148 1.366 . S
C149 C150 1.414 . S
C149 C152 1.499 . S
C150 H130 0.950 . S
C150 C149 1.414 . S
C150 C151 1.374 . S
C151 H131 0.950 . S
C151 C147 1.385 . S
C151 C150 1.374 . S
C152 C149 1.499 . S
C152 C153 1.373 . S
C152 C154 1.389 . S
C153 H132 0.950 . S
C153 C152 1.373 . S
C153 C169 1.377 . S
C154 C152 1.389 . S
C154 C155 1.524 . S
C154 C168 1.377 . S
C155 C154 1.524 . S
C155 C156 1.397 . S
C155 C160 1.363 . S
C156 H133 0.950 . S
C156 C155 1.397 . S
C156 C157 1.334 . S
C157 H134 0.950 . S
C157 C156 1.334 . S
C157 C158 1.287 . S
C158 C157 1.287 . S
C158 C159 1.524 . S
C158 H177 0.913 . S
C159 H135 0.950 . S
C159 C158 1.524 . S
C159 C160 1.415 . S
C160 H136 0.950 . S
C160 C155 1.363 . S
C160 C159 1.415 . S
C161 H137 0.951 . S
C161 C162 1.366 . S
C161 C163 1.388 . S
C162 C161 1.366 . S
C162 C166 1.385 . S
C163 H138 0.951 . S
C163 C161 1.388 . S
C163 C164 1.366 . S
C164 C163 1.366 . S
C164 C165 1.414 . S
C164 C167 1.499 . S
C165 H139 0.950 . S
C165 C164 1.414 . S
C165 C166 1.374 . S
C166 H140 0.950 . S
C166 C162 1.385 . S
C166 C165 1.374 . S
C167 C164 1.499 . S
C167 C168 1.373 . S
C167 C169 1.389 . S
C168 H141 0.950 . S
C168 C154 1.377 . S
C168 C167 1.373 . S
C169 C153 1.377 . S
C169 C167 1.389 . S
C169 C170 1.524 . S
C170 C169 1.524 . S
C170 C171 1.397 . S
C170 C175 1.363 . S
C171 H142 0.950 . S
C171 C170 1.397 . S
C171 C172 1.334 . S
C172 H143 0.950 . S
C172 C171 1.334 . S
C172 C173 1.287 . S
C173 C172 1.287 . S
C173 C174 1.524 . S
C173 H176 0.999 . S
C174 H144 0.950 . S
C174 C173 1.524 . S
C174 C175 1.415 . S
C175 H145 0.950 . S
C175 C170 1.363 . S
C175 C174 1.415 . S
H176 C173 0.999 . S
H177 C158 0.913 . S
H178 C196 0.951 . S
H179 C198 0.951 . S
H180 C200 0.950 . S
H181 C201 0.950 . S
H182 C203 0.950 . S
H183 C206 0.950 . S
H184 C207 0.950 . S
H185 C209 0.950 . S
H186 C210 0.950 . S
H187 C211 0.951 . S
H188 C213 0.951 . S
H189 C215 0.950 . S
H190 C216 0.950 . S
H191 C218 0.950 . S
H192 C221 0.950 . S
H193 C222 0.950 . S
H194 C224 0.950 . S
H195 C225 0.950 . S
C196 H178 0.951 . S
C196 C197 1.366 . S
C196 C198 1.388 . S
C197 C196 1.366 . S
C197 C201 1.385 . S
C198 H179 0.951 . S
C198 C196 1.388 . S
C198 C199 1.366 . S
C199 C198 1.366 . S
C199 C200 1.414 . S
C199 C202 1.499 . S
C200 H180 0.950 . S
C200 C199 1.414 . S
C200 C201 1.374 . S
C201 H181 0.950 . S
C201 C197 1.385 . S
C201 C200 1.374 . S
C202 C199 1.499 . S
C202 C203 1.373 . S
C202 C204 1.389 . S
C203 H182 0.950 . S
C203 C202 1.373 . S
C203 C219 1.377 1_655 S
C204 C202 1.389 . S
C204 C205 1.524 . S
C204 C218 1.377 1_655 S
C205 C204 1.524 . S
C205 C206 1.397 . S
C205 C210 1.363 . S
C206 H183 0.950 . S
C206 C205 1.397 . S
C206 C207 1.334 . S
C207 H184 0.950 . S
C207 C206 1.334 . S
C207 C208 1.287 . S
C208 C207 1.287 . S
C208 C209 1.524 . S
C208 H227 0.913 . S
C209 H185 0.950 . S
C209 C208 1.524 . S
C209 C210 1.415 . S
C210 H186 0.950 . S
C210 C205 1.363 . S
C210 C209 1.415 . S
C211 H187 0.951 . S
C211 C212 1.366 . S
C211 C213 1.388 . S
C212 C211 1.366 . S
C212 C216 1.385 . S
C213 H188 0.951 . S
C213 C211 1.388 . S
C213 C214 1.366 . S
C214 C213 1.366 . S
C214 C215 1.414 . S
C214 C217 1.499 . S
C215 H189 0.950 . S
C215 C214 1.414 . S
C215 C216 1.374 . S
C216 H190 0.950 . S
C216 C212 1.385 . S
C216 C215 1.374 . S
C217 C214 1.499 . S
C217 C218 1.373 . S
C217 C219 1.389 . S
C218 H191 0.950 . S
C218 C204 1.377 1_455 S
C218 C217 1.373 . S
C219 C203 1.377 1_455 S
C219 C217 1.389 . S
C219 C220 1.524 . S
C220 C219 1.524 . S
C220 C221 1.397 . S
C220 C225 1.363 . S
C221 H192 0.950 . S
C221 C220 1.397 . S
C221 C222 1.334 . S
C222 H193 0.950 . S
C222 C221 1.334 . S
C222 C223 1.287 . S
C223 C222 1.287 . S
C223 C224 1.524 . S
C223 H226 0.999 . S
C224 H194 0.950 . S
C224 C223 1.524 . S
C224 C225 1.415 . S
C225 H195 0.950 . S
C225 C220 1.363 . S
C225 C224 1.415 . S
H226 C223 0.999 . S
H227 C208 0.913 . S
H228 C246 0.951 . S
H229 C248 0.951 . S
H230 C250 0.950 . S
H231 C251 0.950 . S
H232 C253 0.950 . S
H233 C256 0.950 . S
H234 C257 0.950 . S
H235 C259 0.950 . S
H236 C260 0.950 . S
H237 C261 0.951 . S
H238 C263 0.951 . S
H239 C265 0.950 . S
H240 C266 0.950 . S
H241 C268 0.950 . S
H242 C271 0.950 . S
H243 C272 0.950 . S
H244 C274 0.950 . S
H245 C275 0.950 . S
C246 H228 0.951 . S
C246 C247 1.366 . S
C246 C248 1.388 . S
C247 C246 1.366 . S
C247 C251 1.385 . S
C248 H229 0.951 . S
C248 C246 1.388 . S
C248 C249 1.366 . S
C249 C248 1.366 . S
C249 C250 1.414 . S
C249 C252 1.499 . S
C250 H230 0.950 . S
C250 C249 1.414 . S
C250 C251 1.374 . S
C251 H231 0.950 . S
C251 C247 1.385 . S
C251 C250 1.374 . S
C252 C249 1.499 . S
C252 C253 1.373 . S
C252 C254 1.389 . S
C253 H232 0.950 . S
C253 C252 1.373 . S
C253 C269 1.377 1_455 S
C254 C252 1.389 . S
C254 C255 1.524 . S
C254 C268 1.377 1_455 S
C255 C254 1.524 . S
C255 C256 1.397 . S
C255 C260 1.363 . S
C256 H233 0.950 . S
C256 C255 1.397 . S
C256 C257 1.334 . S
C257 H234 0.950 . S
C257 C256 1.334 . S
C257 C258 1.287 . S
C258 C257 1.287 . S
C258 C259 1.524 . S
C258 H277 0.913 . S
C259 H235 0.950 . S
C259 C258 1.524 . S
C259 C260 1.415 . S
C260 H236 0.950 . S
C260 C255 1.363 . S
C260 C259 1.415 . S
C261 H237 0.951 . S
C261 C262 1.366 . S
C261 C263 1.388 . S
C262 C261 1.366 . S
C262 C266 1.385 . S
C263 H238 0.951 . S
C263 C261 1.388 . S
C263 C264 1.366 . S
C264 C263 1.366 . S
C264 C265 1.414 . S
C264 C267 1.499 . S
C265 H239 0.950 . S
C265 C264 1.414 . S
C265 C266 1.374 . S
C266 H240 0.950 . S
C266 C262 1.385 . S
C266 C265 1.374 . S
C267 C264 1.499 . S
C267 C268 1.373 . S
C267 C269 1.389 . S
C268 H241 0.950 . S
C268 C254 1.377 1_655 S
C268 C267 1.373 . S
C269 C253 1.377 1_655 S
C269 C267 1.389 . S
C269 C270 1.524 . S
C270 C269 1.524 . S
C270 C271 1.397 . S
C270 C275 1.363 . S
C271 H242 0.950 . S
C271 C270 1.397 . S
C271 C272 1.334 . S
C272 H243 0.950 . S
C272 C271 1.334 . S
C272 C273 1.287 . S
C273 C272 1.287 . S
C273 C274 1.524 . S
C273 H276 0.999 . S
C274 H244 0.950 . S
C274 C273 1.524 . S
C274 C275 1.415 . S
C275 H245 0.950 . S
C275 C270 1.363 . S
C275 C274 1.415 . S
H276 C273 0.999 . S
H277 C258 0.913 . S
H278 C296 0.951 . S
H279 C298 0.951 . S
H280 C300 0.950 . S
H281 C301 0.950 . S
H282 C303 0.950 . S
H283 C306 0.950 . S
H284 C307 0.950 . S
H285 C309 0.950 . S
H286 C310 0.950 . S
H287 C311 0.951 . S
H288 C313 0.951 . S
H289 C315 0.950 . S
H290 C316 0.950 . S
H291 C318 0.950 . S
H292 C321 0.950 . S
H293 C322 0.950 . S
H294 C324 0.950 . S
H295 C325 0.950 . S
C296 H278 0.951 . S
C296 C297 1.366 . S
C296 C298 1.388 . S
C297 C296 1.366 . S
C297 C301 1.385 . S
C298 H279 0.951 . S
C298 C296 1.388 . S
C298 C299 1.366 . S
C299 C298 1.366 . S
C299 C300 1.414 . S
C299 C302 1.499 . S
C300 H280 0.950 . S
C300 C299 1.414 . S
C300 C301 1.374 . S
C301 H281 0.950 . S
C301 C297 1.385 . S
C301 C300 1.374 . S
C302 C299 1.499 . S
C302 C303 1.373 . S
C302 C304 1.389 . S
C303 H282 0.950 . S
C303 C302 1.373 . S
C303 C319 1.377 1_565 S
C304 C302 1.389 . S
C304 C305 1.524 . S
C304 C318 1.377 1_565 S
C305 C304 1.524 . S
C305 C306 1.397 . S
C305 C310 1.363 . S
C306 H283 0.950 . S
C306 C305 1.397 . S
C306 C307 1.334 . S
C307 H284 0.950 . S
C307 C306 1.334 . S
C307 C308 1.287 . S
C308 C307 1.287 . S
C308 C309 1.524 . S
C308 H327 0.913 . S
C309 H285 0.950 . S
C309 C308 1.524 . S
C309 C310 1.415 . S
C310 H286 0.950 . S
C310 C305 1.363 . S
C310 C309 1.415 . S
C311 H287 0.951 . S
C311 C312 1.366 . S
C311 C313 1.388 . S
C312 C311 1.366 . S
C312 C316 1.385 . S
C313 H288 0.951 . S
C313 C311 1.388 . S
C313 C314 1.366 . S
C314 C313 1.366 . S
C314 C315 1.414 . S
C314 C317 1.499 . S
C315 H289 0.950 . S
C315 C314 1.414 . S
C315 C316 1.374 . S
C316 H290 0.950 . S
C316 C312 1.385 . S
C316 C315 1.374 . S
C317 C314 1.499 . S
C317 C318 1.373 . S
C317 C319 1.389 . S
C318 H291 0.950 . S
C318 C304 1.377 1_545 S
C318 C317 1.373 . S
C319 C303 1.377 1_545 S
C319 C317 1.389 . S
C319 C320 1.524 . S
C320 C319 1.524 . S
C320 C321 1.397 . S
C320 C325 1.363 . S
C321 H292 0.950 . S
C321 C320 1.397 . S
C321 C322 1.334 . S
C322 H293 0.950 . S
C322 C321 1.334 . S
C322 C323 1.287 . S
C323 C322 1.287 . S
C323 C324 1.524 . S
C323 H326 0.999 . S
C324 H294 0.950 . S
C324 C323 1.524 . S
C324 C325 1.415 . S
C325 H295 0.950 . S
C325 C320 1.363 . S
C325 C324 1.415 . S
H326 C323 0.999 . S
H327 C308 0.913 . S
H328 C346 0.951 . S
H329 C348 0.951 . S
H330 C350 0.950 . S
H331 C351 0.950 . S
H332 C353 0.950 . S
H333 C356 0.950 . S
H334 C357 0.950 . S
H335 C359 0.950 . S
H336 C360 0.950 . S
H337 C361 0.951 . S
H338 C363 0.951 . S
H339 C365 0.950 . S
H340 C366 0.950 . S
H341 C368 0.950 . S
H342 C371 0.950 . S
H343 C372 0.950 . S
H344 C374 0.950 . S
H345 C375 0.950 . S
C346 H328 0.951 . S
C346 C347 1.366 . S
C346 C348 1.388 . S
C347 C346 1.366 . S
C347 C351 1.385 . S
C348 H329 0.951 . S
C348 C346 1.388 . S
C348 C349 1.366 . S
C349 C348 1.366 . S
C349 C350 1.414 . S
C349 C352 1.499 . S
C350 H330 0.950 . S
C350 C349 1.414 . S
C350 C351 1.374 . S
C351 H331 0.950 . S
C351 C347 1.385 . S
C351 C350 1.374 . S
C352 C349 1.499 . S
C352 C353 1.373 . S
C352 C354 1.389 . S
C353 H332 0.950 . S
C353 C352 1.373 . S
C353 C369 1.377 . S
C354 C352 1.389 . S
C354 C355 1.524 . S
C354 C368 1.377 . S
C355 C354 1.524 . S
C355 C356 1.397 . S
C355 C360 1.363 . S
C356 H333 0.950 . S
C356 C355 1.397 . S
C356 C357 1.334 . S
C357 H334 0.950 . S
C357 C356 1.334 . S
C357 C358 1.287 . S
C358 C357 1.287 . S
C358 C359 1.524 . S
C358 H377 0.913 . S
C359 H335 0.950 . S
C359 C358 1.524 . S
C359 C360 1.415 . S
C360 H336 0.950 . S
C360 C355 1.363 . S
C360 C359 1.415 . S
C361 H337 0.951 . S
C361 C362 1.366 . S
C361 C363 1.388 . S
C362 C361 1.366 . S
C362 C366 1.385 . S
C363 H338 0.951 . S
C363 C361 1.388 . S
C363 C364 1.366 . S
C364 C363 1.366 . S
C364 C365 1.414 . S
C364 C367 1.499 . S
C365 H339 0.950 . S
C365 C364 1.414 . S
C365 C366 1.374 . S
C366 H340 0.950 . S
C366 C362 1.385 . S
C366 C365 1.374 . S
C367 C364 1.499 . S
C367 C368 1.373 . S
C367 C369 1.389 . S
C368 H341 0.950 . S
C368 C354 1.377 . S
C368 C367 1.373 . S
C369 C353 1.377 . S
C369 C367 1.389 . S
C369 C370 1.524 . S
C370 C369 1.524 . S
C370 C371 1.397 . S
C370 C375 1.363 . S
C371 H342 0.950 . S
C371 C370 1.397 . S
C371 C372 1.334 . S
C372 H343 0.950 . S
C372 C371 1.334 . S
C372 C373 1.287 . S
C373 C372 1.287 . S
C373 C374 1.524 . S
C373 H376 0.999 . S
C374 H344 0.950 . S
C374 C373 1.524 . S
C374 C375 1.415 . S
C375 H345 0.950 . S
C375 C370 1.363 . S
C375 C374 1.415 . S
H376 C373 0.999 . S
H377 C358 0.913 . S
H378 C396 0.951 . S
H379 C398 0.951 . S
H380 C400 0.950 . S
H381 C401 0.950 . S
H382 C403 0.950 . S
H383 C406 0.950 . S
H384 C407 0.950 . S
H385 C409 0.950 . S
H386 C410 0.950 1_554 S
H387 C411 0.951 . S
H388 C413 0.951 . S
H389 C415 0.950 . S
H390 C416 0.950 . S
H391 C418 0.950 . S
H392 C421 0.950 . S
H393 C422 0.950 . S
H394 C424 0.950 . S
H395 C425 0.950 1_556 S
C396 H378 0.951 . S
C396 C397 1.366 . S
C396 C398 1.388 . S
C397 C396 1.366 . S
C397 C401 1.385 . S
C398 H379 0.951 . S
C398 C396 1.388 . S
C398 C399 1.366 . S
C399 C398 1.366 . S
C399 C400 1.414 . S
C399 C402 1.499 . S
C400 H380 0.950 . S
C400 C399 1.414 . S
C400 C401 1.374 . S
C401 H381 0.950 . S
C401 C397 1.385 . S
C401 C400 1.374 . S
C402 C399 1.499 . S
C402 C403 1.373 . S
C402 C404 1.389 . S
C403 H382 0.950 . S
C403 C402 1.373 . S
C403 C419 1.377 1_556 S
C404 C402 1.389 . S
C404 C405 1.524 . S
C404 C418 1.377 1_556 S
C405 C404 1.524 . S
C405 C406 1.397 . S
C405 C410 1.363 . S
C406 H383 0.950 . S
C406 C405 1.397 . S
C406 C407 1.334 . S
C407 H384 0.950 . S
C407 C406 1.334 . S
C407 C408 1.287 . S
C408 C407 1.287 . S
C408 C409 1.524 . S
C408 H427 0.913 . S
C409 H385 0.950 . S
C409 C408 1.524 . S
C409 C410 1.415 . S
C410 H386 0.950 1_556 S
C410 C405 1.363 . S
C410 C409 1.415 . S
C411 H387 0.951 . S
C411 C412 1.366 . S
C411 C413 1.388 . S
C412 C411 1.366 . S
C412 C416 1.385 . S
C413 H388 0.951 . S
C413 C411 1.388 . S
C413 C414 1.366 . S
C414 C413 1.366 . S
C414 C415 1.414 . S
C414 C417 1.499 . S
C415 H389 0.950 . S
C415 C414 1.414 . S
C415 C416 1.374 . S
C416 H390 0.950 . S
C416 C412 1.385 . S
C416 C415 1.374 . S
C417 C414 1.499 . S
C417 C418 1.373 . S
C417 C419 1.389 . S
C418 H391 0.950 . S
C418 C404 1.377 1_554 S
C418 C417 1.373 . S
C419 C403 1.377 1_554 S
C419 C417 1.389 . S
C419 C420 1.524 . S
C420 C419 1.524 . S
C420 C421 1.397 . S
C420 C425 1.363 . S
C421 H392 0.950 . S
C421 C420 1.397 . S
C421 C422 1.334 . S
C422 H393 0.950 . S
C422 C421 1.334 . S
C422 C423 1.287 . S
C423 C422 1.287 . S
C423 C424 1.524 . S
C423 H426 0.999 . S
C424 H394 0.950 . S
C424 C423 1.524 . S
C424 C425 1.415 . S
C425 H395 0.950 1_554 S
C425 C420 1.363 . S
C425 C424 1.415 . S
H426 C423 0.999 . S
H427 C408 0.913 . S
H428 C446 0.951 . S
H429 C448 0.951 . S
H430 C450 0.950 . S
H431 C451 0.950 . S
H432 C453 0.950 . S
H433 C456 0.950 . S
H434 C457 0.950 . S
H435 C459 0.950 . S
H436 C460 0.950 . S
H437 C461 0.951 . S
H438 C463 0.951 . S
H439 C465 0.950 . S
H440 C466 0.950 . S
H441 C468 0.950 . S
H442 C471 0.950 . S
H443 C472 0.950 . S
H444 C474 0.950 . S
H445 C475 0.950 . S
C446 H428 0.951 . S
C446 C447 1.366 . S
C446 C448 1.388 . S
C447 C446 1.366 . S
C447 C451 1.385 . S
C448 H429 0.951 . S
C448 C446 1.388 . S
C448 C449 1.366 . S
C449 C448 1.366 . S
C449 C450 1.414 . S
C449 C452 1.499 . S
C450 H430 0.950 . S
C450 C449 1.414 . S
C450 C451 1.374 . S
C451 H431 0.950 . S
C451 C447 1.385 . S
C451 C450 1.374 . S
C452 C449 1.499 . S
C452 C453 1.373 . S
C452 C454 1.389 . S
C453 H432 0.950 . S
C453 C452 1.373 . S
C453 C469 1.377 . S
C454 C452 1.389 . S
C454 C455 1.524 . S
C454 C468 1.377 . S
C455 C454 1.524 . S
C455 C456 1.397 . S
C455 C460 1.363 . S
C456 H433 0.950 . S
C456 C455 1.397 . S
C456 C457 1.334 . S
C457 H434 0.950 . S
C457 C456 1.334 . S
C457 C458 1.287 . S
C458 C457 1.287 . S
C458 C459 1.524 . S
C458 H477 0.913 . S
C459 H435 0.950 . S
C459 C458 1.524 . S
C459 C460 1.415 . S
C460 H436 0.950 . S
C460 C455 1.363 . S
C460 C459 1.415 . S
C461 H437 0.951 . S
C461 C462 1.366 . S
C461 C463 1.388 . S
C462 C461 1.366 . S
C462 C466 1.385 . S
C463 H438 0.951 . S
C463 C461 1.388 . S
C463 C464 1.366 . S
C464 C463 1.366 . S
C464 C465 1.414 . S
C464 C467 1.499 . S
C465 H439 0.950 . S
C465 C464 1.414 . S
C465 C466 1.374 . S
C466 H440 0.950 . S
C466 C462 1.385 . S
C466 C465 1.374 . S
C467 C464 1.499 . S
C467 C468 1.373 . S
C467 C469 1.389 . S
C468 H441 0.950 . S
C468 C454 1.377 . S
C468 C467 1.373 . S
C469 C453 1.377 . S
C469 C467 1.389 . S
C469 C470 1.524 . S
C470 C469 1.524 . S
C470 C471 1.397 . S
C470 C475 1.363 . S
C471 H442 0.950 . S
C471 C470 1.397 . S
C471 C472 1.334 . S
C472 H443 0.950 . S
C472 C471 1.334 . S
C472 C473 1.287 . S
C473 C472 1.287 . S
C473 C474 1.524 . S
C473 H476 0.999 . S
C474 H444 0.950 . S
C474 C473 1.524 . S
C474 C475 1.415 . S
C475 H445 0.950 . S
C475 C470 1.363 . S
C475 C474 1.415 . S
H476 C473 0.999 . S
H477 C458 0.913 . S
H478 C496 0.951 . S
H479 C498 0.951 . S
H480 C500 0.950 . S
H481 C501 0.950 . S
H482 C503 0.950 . S
H483 C506 0.950 . S
H484 C507 0.950 . S
H485 C509 0.950 . S
H486 C510 0.950 . S
H487 C511 0.951 . S
H488 C513 0.951 . S
H489 C515 0.950 . S
H490 C516 0.950 . S
H491 C518 0.950 . S
H492 C521 0.950 . S
H493 C522 0.950 . S
H494 C524 0.950 . S
H495 C525 0.950 . S
C496 H478 0.951 . S
C496 C497 1.366 . S
C496 C498 1.388 . S
C497 C496 1.366 . S
C497 C501 1.385 . S
C498 H479 0.951 . S
C498 C496 1.388 . S
C498 C499 1.366 . S
C499 C498 1.366 . S
C499 C500 1.414 . S
C499 C502 1.499 . S
C500 H480 0.950 . S
C500 C499 1.414 . S
C500 C501 1.374 . S
C501 H481 0.950 . S
C501 C497 1.385 . S
C501 C500 1.374 . S
C502 C499 1.499 . S
C502 C503 1.373 . S
C502 C504 1.389 . S
C503 H482 0.950 . S
C503 C502 1.373 . S
C503 C519 1.377 . S
C504 C502 1.389 . S
C504 C505 1.524 . S
C504 C518 1.377 . S
C505 C504 1.524 . S
C505 C506 1.397 . S
C505 C510 1.363 . S
C506 H483 0.950 . S
C506 C505 1.397 . S
C506 C507 1.334 . S
C507 H484 0.950 . S
C507 C506 1.334 . S
C507 C508 1.287 . S
C508 C507 1.287 . S
C508 C509 1.524 . S
C508 H527 0.913 . S
C509 H485 0.950 . S
C509 C508 1.524 . S
C509 C510 1.415 . S
C510 H486 0.950 . S
C510 C505 1.363 . S
C510 C509 1.415 . S
C511 H487 0.951 . S
C511 C512 1.366 . S
C511 C513 1.388 . S
C512 C511 1.366 . S
C512 C516 1.385 . S
C513 H488 0.951 . S
C513 C511 1.388 . S
C513 C514 1.366 . S
C514 C513 1.366 . S
C514 C515 1.414 . S
C514 C517 1.499 . S
C515 H489 0.950 . S
C515 C514 1.414 . S
C515 C516 1.374 . S
C516 H490 0.950 . S
C516 C512 1.385 . S
C516 C515 1.374 . S
C517 C514 1.499 . S
C517 C518 1.373 . S
C517 C519 1.389 . S
C518 H491 0.950 . S
C518 C504 1.377 . S
C518 C517 1.373 . S
C519 C503 1.377 . S
C519 C517 1.389 . S
C519 C520 1.524 . S
C520 C519 1.524 . S
C520 C521 1.397 . S
C520 C525 1.363 . S
C521 H492 0.950 . S
C521 C520 1.397 . S
C521 C522 1.334 . S
C522 H493 0.950 . S
C522 C521 1.334 . S
C522 C523 1.287 . S
C523 C522 1.287 . S
C523 C524 1.524 . S
C523 H526 0.999 . S
C524 H494 0.950 . S
C524 C523 1.524 . S
C524 C525 1.415 . S
C525 H495 0.950 . S
C525 C520 1.363 . S
C525 C524 1.415 . S
H526 C523 0.999 . S
H527 C508 0.913 . S
H528 C546 0.951 . S
H529 C548 0.951 . S
H530 C550 0.950 . S
H531 C551 0.950 . S
H532 C553 0.950 . S
H533 C556 0.950 . S
H534 C557 0.950 . S
H535 C559 0.950 . S
H536 C560 0.950 1_554 S
H537 C561 0.951 . S
H538 C563 0.951 . S
H539 C565 0.950 . S
H540 C566 0.950 . S
H541 C568 0.950 . S
H542 C571 0.950 . S
H543 C572 0.950 . S
H544 C574 0.950 . S
H545 C575 0.950 1_556 S
C546 H528 0.951 . S
C546 C547 1.366 . S
C546 C548 1.388 . S
C547 C546 1.366 . S
C547 C551 1.385 . S
C548 H529 0.951 . S
C548 C546 1.388 . S
C548 C549 1.366 . S
C549 C548 1.366 . S
C549 C550 1.414 . S
C549 C552 1.499 . S
C550 H530 0.950 . S
C550 C549 1.414 . S
C550 C551 1.374 . S
C551 H531 0.950 . S
C551 C547 1.385 . S
C551 C550 1.374 . S
C552 C549 1.499 . S
C552 C553 1.373 . S
C552 C554 1.389 . S
C553 H532 0.950 . S
C553 C552 1.373 . S
C553 C569 1.377 1_556 S
C554 C552 1.389 . S
C554 C555 1.524 . S
C554 C568 1.377 1_556 S
C555 C554 1.524 . S
C555 C556 1.397 . S
C555 C560 1.363 . S
C556 H533 0.950 . S
C556 C555 1.397 . S
C556 C557 1.334 . S
C557 H534 0.950 . S
C557 C556 1.334 . S
C557 C558 1.287 . S
C558 C557 1.287 . S
C558 C559 1.524 . S
C558 H577 0.913 . S
C559 H535 0.950 . S
C559 C558 1.524 . S
C559 C560 1.415 . S
C560 H536 0.950 1_556 S
C560 C555 1.363 . S
C560 C559 1.415 . S
C561 H537 0.951 . S
C561 C562 1.366 . S
C561 C563 1.388 . S
C562 C561 1.366 . S
C562 C566 1.385 . S
C563 H538 0.951 . S
C563 C561 1.388 . S
C563 C564 1.366 . S
C564 C563 1.366 . S
C564 C565 1.414 . S
C564 C567 1.499 . S
C565 H539 0.950 . S
C565 C564 1.414 . S
C565 C566 1.374 . S
C566 H540 0.950 . S
C566 C562 1.385 . S
C566 C565 1.374 . S
C567 C564 1.499 . S
C567 C568 1.373 . S
C567 C569 1.389 . S
C568 H541 0.950 . S
C568 C554 1.377 1_554 S
C568 C567 1.373 . S
C569 C553 1.377 1_554 S
C569 C567 1.389 . S
C569 C570 1.524 . S
C570 C569 1.524 . S
C570 C571 1.397 . S
C570 C575 1.363 . S
C571 H542 0.950 . S
C571 C570 1.397 . S
C571 C572 1.334 . S
C572 H543 0.950 . S
C572 C571 1.334 . S
C572 C573 1.287 . S
C573 C572 1.287 . S
C573 C574 1.524 . S
C573 H576 0.999 . S
C574 H544 0.950 . S
C574 C573 1.524 . S
C574 C575 1.415 . S
C575 H545 0.950 1_554 S
C575 C570 1.363 . S
C575 C574 1.415 . S
H576 C573 0.999 . S
H577 C558 0.913 . S
H578 C596 0.951 . S
H579 C598 0.951 . S
H580 C600 0.950 . S
H581 C601 0.950 . S
H582 C603 0.950 . S
H583 C606 0.950 . S
H584 C607 0.950 . S
H585 C609 0.950 . S
H586 C610 0.950 . S
H587 C611 0.951 . S
H588 C613 0.951 . S
H589 C615 0.950 . S
H590 C616 0.950 . S
H591 C618 0.950 . S
H592 C621 0.950 . S
H593 C622 0.950 . S
H594 C624 0.950 . S
H595 C625 0.950 . S
C596 H578 0.951 . S
C596 C597 1.366 . S
C596 C598 1.388 . S
C597 C596 1.366 . S
C597 C601 1.385 . S
C598 H579 0.951 . S
C598 C596 1.388 . S
C598 C599 1.366 . S
C599 C598 1.366 . S
C599 C600 1.414 . S
C599 C602 1.499 . S
C600 H580 0.950 . S
C600 C599 1.414 . S
C600 C601 1.374 . S
C601 H581 0.950 . S
C601 C597 1.385 . S
C601 C600 1.374 . S
C602 C599 1.499 . S
C602 C603 1.373 . S
C602 C604 1.389 . S
C603 H582 0.950 . S
C603 C602 1.373 . S
C603 C619 1.377 . S
C604 C602 1.389 . S
C604 C605 1.524 . S
C604 C618 1.377 . S
C605 C604 1.524 . S
C605 C606 1.397 . S
C605 C610 1.363 . S
C606 H583 0.950 . S
C606 C605 1.397 . S
C606 C607 1.334 . S
C607 H584 0.950 . S
C607 C606 1.334 . S
C607 C608 1.287 . S
C608 C607 1.287 . S
C608 C609 1.524 . S
C608 H627 0.913 . S
C609 H585 0.950 . S
C609 C608 1.524 . S
C609 C610 1.415 . S
C610 H586 0.950 . S
C610 C605 1.363 . S
C610 C609 1.415 . S
C611 H587 0.951 . S
C611 C612 1.366 . S
C611 C613 1.388 . S
C612 C611 1.366 . S
C612 C616 1.385 . S
C613 H588 0.951 . S
C613 C611 1.388 . S
C613 C614 1.366 . S
C614 C613 1.366 . S
C614 C615 1.414 . S
C614 C617 1.499 . S
C615 H589 0.950 . S
C615 C614 1.414 . S
C615 C616 1.374 . S
C616 H590 0.950 . S
C616 C612 1.385 . S
C616 C615 1.374 . S
C617 C614 1.499 . S
C617 C618 1.373 . S
C617 C619 1.389 . S
C618 H591 0.950 . S
C618 C604 1.377 . S
C618 C617 1.373 . S
C619 C603 1.377 . S
C619 C617 1.389 . S
C619 C620 1.524 . S
C620 C619 1.524 . S
C620 C621 1.397 . S
C620 C625 1.363 . S
C621 H592 0.950 . S
C621 C620 1.397 . S
C621 C622 1.334 . S
C622 H593 0.950 . S
C622 C621 1.334 . S
C622 C623 1.287 . S
C623 C622 1.287 . S
C623 C624 1.524 . S
C623 H626 0.999 . S
C624 H594 0.950 . S
C624 C623 1.524 . S
C624 C625 1.415 . S
C625 H595 0.950 . S
C625 C620 1.363 . S
C625 C624 1.415 . S
H626 C623 0.999 . S
H627 C608 0.913 . S
H628 C646 0.951 . S
H629 C648 0.951 . S
H630 C650 0.950 . S
H631 C651 0.950 . S
H632 C653 0.950 . S
H633 C656 0.950 . S
H634 C657 0.950 . S
H635 C659 0.950 . S
H636 C660 0.950 . S
H637 C661 0.951 . S
H638 C663 0.951 . S
H639 C665 0.950 . S
H640 C666 0.950 . S
H641 C668 0.950 . S
H642 C671 0.950 . S
H643 C672 0.950 . S
H644 C674 0.950 . S
H645 C675 0.950 . S
C646 H628 0.951 . S
C646 C647 1.366 . S
C646 C648 1.388 . S
C647 C646 1.366 . S
C647 C651 1.385 . S
C648 H629 0.951 . S
C648 C646 1.388 . S
C648 C649 1.366 . S
C649 C648 1.366 . S
C649 C650 1.414 . S
C649 C652 1.499 . S
C650 H630 0.950 . S
C650 C649 1.414 . S
C650 C651 1.374 . S
C651 H631 0.950 . S
C651 C647 1.385 . S
C651 C650 1.374 . S
C652 C649 1.499 . S
C652 C653 1.373 . S
C652 C654 1.389 . S
C653 H632 0.950 . S
C653 C652 1.373 . S
C653 C669 1.377 . S
C654 C652 1.389 . S
C654 C655 1.524 . S
C654 C668 1.377 . S
C655 C654 1.524 . S
C655 C656 1.397 . S
C655 C660 1.363 . S
C656 H633 0.950 . S
C656 C655 1.397 . S
C656 C657 1.334 . S
C657 H634 0.950 . S
C657 C656 1.334 . S
C657 C658 1.287 . S
C658 C657 1.287 . S
C658 C659 1.524 . S
C658 H677 0.913 . S
C659 H635 0.950 . S
C659 C658 1.524 . S
C659 C660 1.415 . S
C660 H636 0.950 . S
C660 C655 1.363 . S
C660 C659 1.415 . S
C661 H637 0.951 . S
C661 C662 1.366 . S
C661 C663 1.388 . S
C662 C661 1.366 . S
C662 C666 1.385 . S
C663 H638 0.951 . S
C663 C661 1.388 . S
C663 C664 1.366 . S
C664 C663 1.366 . S
C664 C665 1.414 . S
C664 C667 1.499 . S
C665 H639 0.950 . S
C665 C664 1.414 . S
C665 C666 1.374 . S
C666 H640 0.950 . S
C666 C662 1.385 . S
C666 C665 1.374 . S
C667 C664 1.499 . S
C667 C668 1.373 . S
C667 C669 1.389 . S
C668 H641 0.950 . S
C668 C654 1.377 . S
C668 C667 1.373 . S
C669 C653 1.377 . S
C669 C667 1.389 . S
C669 C670 1.524 . S
C670 C669 1.524 . S
C670 C671 1.397 . S
C670 C675 1.363 . S
C671 H642 0.950 . S
C671 C670 1.397 . S
C671 C672 1.334 . S
C672 H643 0.950 . S
C672 C671 1.334 . S
C672 C673 1.287 . S
C673 C672 1.287 . S
C673 C674 1.524 . S
C673 H676 0.999 . S
C674 H644 0.950 . S
C674 C673 1.524 . S
C674 C675 1.415 . S
C675 H645 0.950 . S
C675 C670 1.363 . S
C675 C674 1.415 . S
H676 C673 0.999 . S
H677 C658 0.913 . S
C97 C5 1.948 . S
C112 C44 1.948 . S
C147 C18 1.948 . S
C162 C57 1.948 . S
C197 C31 1.948 . S
C212 C70 1.948 . S
C247 C23 2.043 . S
C262 C62 2.043 . S
C297 C75 2.043 . S
C312 C36 2.043 . S
C347 C49 2.043 . S
C362 C10 2.043 . S
C397 C29 1.640 . S
C412 C1 1.651 . S
C447 C42 1.640 . S
C462 C14 1.651 . S
C497 C27 1.651 . S
C512 C55 1.640 . S
C547 C68 1.640 . S
C562 C40 1.651 . S
C597 C53 1.651 . S
C612 C3 1.640 . S
C647 C66 1.651 . S
C662 C16 1.639 . S
