# Generated by pormake.
# Topology lcy-e, (6)-cn, num edge types: 1
# Building blocks:
#     Node 0, Type 0, BuildingBlock: BETFAJ_clean_sbu_0, # of connection points: 6
#     Node 1, Type 0, BuildingBlock: BETFAJ_clean_sbu_0, # of connection points: 6
#     Node 2, Type 0, BuildingBlock: BETFAJ_clean_sbu_0, # of connection points: 6
#     Node 3, Type 0, BuildingBlock: BETFAJ_clean_sbu_0, # of connection points: 6
#     Node 4, Type 0, BuildingBlock: BETFAJ_clean_sbu_0, # of connection points: 6
#     Node 5, Type 0, BuildingBlock: BETFAJ_clean_sbu_0, # of connection points: 6
#     Node 6, Type 0, BuildingBlock: BETFAJ_clean_sbu_0, # of connection points: 6
#     Node 7, Type 0, BuildingBlock: BETFAJ_clean_sbu_0, # of connection points: 6
#     Node 8, Type 0, BuildingBlock: BETFAJ_clean_sbu_0, # of connection points: 6
#     Node 9, Type 0, BuildingBlock: BETFAJ_clean_sbu_0, # of connection points: 6
#     Node 10, Type 0, BuildingBlock: BETFAJ_clean_sbu_0, # of connection points: 6
#     Node 11, Type 0, BuildingBlock: BETFAJ_clean_sbu_0, # of connection points: 6
#     Edge 12, Type (0, 0), BuildingBlock: ZUJKAS_clean_linker_0, # of connection points: 2
#     Edge 13, Type (0, 0), BuildingBlock: ZUJKAS_clean_linker_0, # of connection points: 2
#     Edge 14, Type (0, 0), BuildingBlock: ZUJKAS_clean_linker_0, # of connection points: 2
#     Edge 15, Type (0, 0), BuildingBlock: ZUJKAS_clean_linker_0, # of connection points: 2
#     Edge 16, Type (0, 0), BuildingBlock: ZUJKAS_clean_linker_0, # of connection points: 2
#     Edge 17, Type (0, 0), BuildingBlock: ZUJKAS_clean_linker_0, # of connection points: 2
#     Edge 18, Type (0, 0), BuildingBlock: ZUJKAS_clean_linker_0, # of connection points: 2
#     Edge 19, Type (0, 0), BuildingBlock: ZUJKAS_clean_linker_0, # of connection points: 2
#     Edge 20, Type (0, 0), BuildingBlock: ZUJKAS_clean_linker_0, # of connection points: 2
#     Edge 21, Type (0, 0), BuildingBlock: ZUJKAS_clean_linker_0, # of connection points: 2
#     Edge 22, Type (0, 0), BuildingBlock: ZUJKAS_clean_linker_0, # of connection points: 2
#     Edge 23, Type (0, 0), BuildingBlock: ZUJKAS_clean_linker_0, # of connection points: 2
#     Edge 24, Type (0, 0), BuildingBlock: ZUJKAS_clean_linker_0, # of connection points: 2
#     Edge 25, Type (0, 0), BuildingBlock: ZUJKAS_clean_linker_0, # of connection points: 2
#     Edge 26, Type (0, 0), BuildingBlock: ZUJKAS_clean_linker_0, # of connection points: 2
#     Edge 27, Type (0, 0), BuildingBlock: ZUJKAS_clean_linker_0, # of connection points: 2
#     Edge 28, Type (0, 0), BuildingBlock: ZUJKAS_clean_linker_0, # of connection points: 2
#     Edge 29, Type (0, 0), BuildingBlock: ZUJKAS_clean_linker_0, # of connection points: 2
#     Edge 30, Type (0, 0), BuildingBlock: ZUJKAS_clean_linker_0, # of connection points: 2
#     Edge 31, Type (0, 0), BuildingBlock: ZUJKAS_clean_linker_0, # of connection points: 2
#     Edge 32, Type (0, 0), BuildingBlock: ZUJKAS_clean_linker_0, # of connection points: 2
#     Edge 33, Type (0, 0), BuildingBlock: ZUJKAS_clean_linker_0, # of connection points: 2
#     Edge 34, Type (0, 0), BuildingBlock: ZUJKAS_clean_linker_0, # of connection points: 2
#     Edge 35, Type (0, 0), BuildingBlock: ZUJKAS_clean_linker_0, # of connection points: 2
#     Edge 36, Type (0, 0), BuildingBlock: ZUJKAS_clean_linker_0, # of connection points: 2
#     Edge 37, Type (0, 0), BuildingBlock: ZUJKAS_clean_linker_0, # of connection points: 2
#     Edge 38, Type (0, 0), BuildingBlock: ZUJKAS_clean_linker_0, # of connection points: 2
#     Edge 39, Type (0, 0), BuildingBlock: ZUJKAS_clean_linker_0, # of connection points: 2
#     Edge 40, Type (0, 0), BuildingBlock: ZUJKAS_clean_linker_0, # of connection points: 2
#     Edge 41, Type (0, 0), BuildingBlock: ZUJKAS_clean_linker_0, # of connection points: 2
#     Edge 42, Type (0, 0), BuildingBlock: ZUJKAS_clean_linker_0, # of connection points: 2
#     Edge 43, Type (0, 0), BuildingBlock: ZUJKAS_clean_linker_0, # of connection points: 2
#     Edge 44, Type (0, 0), BuildingBlock: ZUJKAS_clean_linker_0, # of connection points: 2
#     Edge 45, Type (0, 0), BuildingBlock: ZUJKAS_clean_linker_0, # of connection points: 2
#     Edge 46, Type (0, 0), BuildingBlock: ZUJKAS_clean_linker_0, # of connection points: 2
#     Edge 47, Type (0, 0), BuildingBlock: ZUJKAS_clean_linker_0, # of connection points: 2
# Relax obj value: 0.203
# Max RMSD: 0.305
# Mean RMSD: 0.281
data_MOF--net-lcy-e--node1-BETFAJ_clean_sbu_0--edge1-ZUJKAS_clean_linker_0
_symmetry_space_group_name_H-M    P1
_symmetry_Int_Tables_number       1
_symmetry_cell_setting            triclinic
loop_
_symmetry_equiv_pos_as_xyz
'x, y, z'
_cell_length_a     56.678813
_cell_length_b     51.751431
_cell_length_c     56.609076
_cell_angle_alpha  89.391755
_cell_angle_beta   90.970421
_cell_angle_gamma 88.481869
loop_
_atom_site_label
_atom_site_type_symbol
_atom_site_fract_x
_atom_site_fract_y
_atom_site_fract_z
_atom_type_partial_charge
Sm0 Sm 0.14263 0.24649 0.46371 0.0
Sm1 Sm 0.15815 0.20164 0.49521 0.0
C2 C 0.13983 0.28792 0.43571 0.0
C3 C 0.14741 0.2949 0.4118 0.0
C4 C 0.14926 0.321 0.40554 0.0
C5 C 0.15656 0.32802 0.38295 0.0
C6 C 0.16211 0.30903 0.36616 0.0
C7 C 0.16028 0.28282 0.37256 0.0
C8 C 0.15309 0.2758 0.39524 0.0
C9 C 0.11294 0.20567 0.46109 0.0
C10 C 0.1866 0.20682 0.44697 0.0
C11 C 0.16171 0.16028 0.52321 0.0
C12 C 0.14775 0.14383 0.53895 0.0
C13 C 0.12999 0.12798 0.53001 0.0
C14 C 0.11871 0.11064 0.54491 0.0
C15 C 0.12493 0.10879 0.56906 0.0
C16 C 0.14213 0.12534 0.57806 0.0
C17 C 0.15347 0.14255 0.56315 0.0
C18 C 0.18411 0.24594 0.50032 0.0
C19 C 0.11726 0.24137 0.51373 0.0
O20 O 0.15668 0.28396 0.45149 0.0
O21 O 0.12316 0.27101 0.43711 0.0
O22 O 0.13532 0.20333 0.46186 0.0
O23 O 0.10603 0.22976 0.46034 0.0
O24 O 0.17473 0.22897 0.44364 0.0
O25 O 0.18208 0.19125 0.46474 0.0
O26 O 0.15744 0.15918 0.50046 0.0
O27 O 0.16623 0.18361 0.53037 0.0
O28 O 0.16215 0.24468 0.49812 0.0
O29 O 0.19366 0.22284 0.50104 0.0
O30 O 0.12379 0.21676 0.51229 0.0
O31 O 0.1254 0.25861 0.49868 0.0
H32 H 0.145 0.33598 0.41812 0.0
H33 H 0.1575 0.34837 0.37851 0.0
H34 H 0.16466 0.26774 0.36012 0.0
H35 H 0.15197 0.2555 0.39985 0.0
H36 H 0.12519 0.12844 0.5114 0.0
H37 H 0.10572 0.09804 0.53731 0.0
H38 H 0.14705 0.12479 0.59663 0.0
H39 H 0.16712 0.15451 0.5705 0.0
Sm40 Sm 1.00045 0.85689 0.72529 0.0
Sm41 Sm 0.04522 0.8669 0.76176 0.0
C42 C 0.96038 0.8636 0.70111 0.0
C43 C 0.95239 0.8698 0.67645 0.0
C44 C 0.94735 0.89559 0.66953 0.0
C45 C 0.93926 0.90164 0.64658 0.0
C46 C 0.93579 0.88207 0.62993 0.0
C47 C 0.94081 0.85626 0.63684 0.0
C48 C 0.94897 0.85019 0.65981 0.0
C49 C 0.04046 0.82822 0.71333 0.0
C50 C 0.03924 0.90248 0.71399 0.0
C51 C 0.08436 0.86493 0.78814 0.0
C52 C 0.10322 0.849 0.80015 0.0
C53 C 0.11806 0.83201 0.78762 0.0
C54 C 0.13794 0.82022 0.79872 0.0
C55 C 0.1435 0.82524 0.82256 0.0
C56 C 0.12808 0.84153 0.83522 0.0
C57 C 0.10823 0.85325 0.82414 0.0
C58 C 1.00419 0.89615 0.76756 0.0
C59 C 0.00733 0.82157 0.77355 0.0
O60 O 0.97065 0.88217 0.71271 0.0
O61 O 0.97007 0.84064 0.7055 0.0
O62 O 0.03806 0.84458 0.72933 0.0
O63 O 0.02046 0.82692 0.70183 0.0
O64 O 0.0179 0.89328 0.71037 0.0
O65 O 0.05387 0.89364 0.73083 0.0
O66 O 0.0842 0.86623 0.76499 0.0
O67 O 0.0632 0.86575 0.79718 0.0
O68 O 1.006 0.873 0.76149 0.0
O69 O 0.02498 0.90472 0.77297 0.0
O70 O 0.02975 0.82844 0.77466 0.0
O71 O 0.99194 0.83175 0.75782 0.0
H72 H 0.94943 0.91119 0.68194 0.0
H73 H 0.93519 0.92168 0.64208 0.0
H74 H 0.93852 0.84069 0.62444 0.0
H75 H 0.95249 0.83011 0.66453 0.0
H76 H 0.11478 0.8284 0.76908 0.0
H77 H 0.14918 0.80751 0.78849 0.0
H78 H 0.13188 0.8462 0.85347 0.0
H79 H 0.09728 0.86652 0.83413 0.0
Sm80 Sm 0.3847 0.77201 1.00104 0.0
Sm81 Sm 0.39618 0.73411 0.95708 0.0
C82 C 0.38529 0.79559 0.04229 0.0
C83 C 0.40131 0.81128 0.05658 0.0
C84 C 0.42166 0.82157 0.04677 0.0
C85 C 0.43457 0.83992 0.05915 0.0
C86 C 0.42739 0.84824 0.08158 0.0
C87 C 0.40762 0.83686 0.09175 0.0
C88 C 0.39469 0.81861 0.07933 0.0
C89 C 0.351 0.77873 0.96497 0.0
C90 C 0.42627 0.78817 0.9636 0.0
C91 C 0.40137 0.71402 0.91451 0.0
C92 C 0.38978 0.7003 0.89485 0.0
C93 C 0.36786 0.7087 0.88513 0.0
C94 C 0.35864 0.697 0.86487 0.0
C95 C 0.37124 0.67683 0.8538 0.0
C96 C 0.39284 0.66804 0.86401 0.0
C97 C 0.40198 0.67965 0.88427 0.0
C98 C 0.41995 0.72395 0.99922 0.0
C99 C 0.35716 0.71683 0.99427 0.0
O100 O 0.3906 0.77089 0.04012 0.0
O101 O 0.37759 0.80653 0.02257 0.0
O102 O 0.36877 0.76373 0.96559 0.0
O103 O 0.35073 0.79173 0.98442 0.0
O104 O 0.41503 0.79368 0.98337 0.0
O105 O 0.42175 0.76743 0.95092 0.0
O106 O 0.39481 0.73812 0.91811 0.0
O107 O 0.40637 0.70105 0.93405 0.0
O108 O 0.41495 0.74595 0.99047 0.0
O109 O 0.41402 0.70592 0.98455 0.0
O110 O 0.36249 0.71718 0.97158 0.0
O111 O 0.36593 0.73362 0.00954 0.0
H112 H 0.42703 0.81614 0.02919 0.0
H113 H 0.44988 0.84801 0.05094 0.0
H114 H 0.40141 0.84298 0.10885 0.0
H115 H 0.37892 0.81103 0.0871 0.0
H116 H 0.35813 0.72471 0.89278 0.0
H117 H 0.34204 0.70436 0.85741 0.0
H118 H 0.40283 0.65227 0.85621 0.0
H119 H 0.41894 0.67288 0.89137 0.0
Sm120 Sm 0.53277 0.11837 0.2301 0.0
Sm121 Sm 0.49369 0.10031 0.26265 0.0
C122 C 0.57033 0.12207 0.20305 0.0
C123 C 0.57907 0.11308 0.17993 0.0
C124 C 0.59921 0.09675 0.17926 0.0
C125 C 0.60831 0.08863 0.15768 0.0
C126 C 0.59757 0.0968 0.13618 0.0
C127 C 0.57726 0.11302 0.13688 0.0
C128 C 0.5681 0.12107 0.15851 0.0
C129 C 0.49192 0.14752 0.22599 0.0
C130 C 0.50081 0.06773 0.21497 0.0
C131 C 0.45598 0.09476 0.28936 0.0
C132 C 0.43711 0.10862 0.30216 0.0
C133 C 0.42912 0.13361 0.29548 0.0
C134 C 0.40959 0.14516 0.30657 0.0
C135 C 0.39769 0.1319 0.32452 0.0
C136 C 0.40618 0.10706 0.33134 0.0
C137 C 0.42565 0.09562 0.32031 0.0
C138 C 0.53753 0.07569 0.26928 0.0
C139 C 0.52516 0.14899 0.27865 0.0
O140 O 0.56853 0.1045 0.21968 0.0
O141 O 0.55302 0.13932 0.20303 0.0
O142 O 0.49267 0.12307 0.22813 0.0
O143 O 0.5129 0.15677 0.22434 0.0
O144 O 0.51965 0.08165 0.21114 0.0
O145 O 0.48679 0.0723 0.23283 0.0
O146 O 0.45513 0.09624 0.2663 0.0
O147 O 0.4775 0.09513 0.29806 0.0
O148 O 0.53334 0.09923 0.26547 0.0
O149 O 0.51777 0.06369 0.27127 0.0
O150 O 0.50357 0.13994 0.27767 0.0
O151 O 0.54156 0.14062 0.26399 0.0
H152 H 0.60803 0.09033 0.1955 0.0
H153 H 0.62372 0.07581 0.15788 0.0
H154 H 0.56868 0.11997 0.12071 0.0
H155 H 0.55258 0.13373 0.15838 0.0
H156 H 0.4377 0.14399 0.28144 0.0
H157 H 0.40376 0.1644 0.30101 0.0
H158 H 0.39733 0.09601 0.34473 0.0
H159 H 0.43137 0.07621 0.32555 0.0
Sm160 Sm 0.64135 0.23834 0.54606 0.0
Sm161 Sm 0.65298 0.28712 0.51735 0.0
C162 C 0.64212 0.19456 0.57094 0.0
C163 C 0.64936 0.18477 0.59482 0.0
C164 C 0.67274 0.17627 0.5997 0.0
C165 C 0.67916 0.16598 0.62194 0.0
C166 C 0.66237 0.16387 0.63984 0.0
C167 C 0.63904 0.17253 0.63498 0.0
C168 C 0.6326 0.18274 0.61274 0.0
C169 C 0.61061 0.27912 0.55238 0.0
C170 C 0.68301 0.2775 0.56552 0.0
C171 C 0.65361 0.3319 0.49399 0.0
C172 C 0.6396 0.35129 0.48003 0.0
C173 C 0.64394 0.37754 0.48348 0.0
C174 C 0.63204 0.39659 0.46986 0.0
C175 C 0.61542 0.38985 0.45239 0.0
C176 C 0.6108 0.36345 0.4492 0.0
C177 C 0.62277 0.34434 0.46291 0.0
C178 C 0.68117 0.24369 0.50947 0.0
C179 C 0.61368 0.24789 0.49654 0.0
O180 O 0.65883 0.20087 0.55644 0.0
O181 O 0.62374 0.21039 0.56953 0.0
O182 O 0.63276 0.2811 0.55103 0.0
O183 O 0.60442 0.25518 0.55198 0.0
O184 O 0.67315 0.25465 0.56696 0.0
O185 O 0.67674 0.29467 0.54912 0.0
O186 O 0.64917 0.33002 0.51652 0.0
O187 O 0.65867 0.3096 0.48433 0.0
O188 O 0.65926 0.24459 0.51191 0.0
O189 O 0.68946 0.26688 0.50976 0.0
O190 O 0.61918 0.27242 0.49909 0.0
O191 O 0.62304 0.22962 0.51062 0.0
H192 H 0.68609 0.17735 0.58629 0.0
H193 H 0.69733 0.15971 0.62513 0.0
H194 H 0.62556 0.17082 0.6482 0.0
H195 H 0.61437 0.18874 0.6095 0.0
H196 H 0.65694 0.38333 0.49652 0.0
H197 H 0.63638 0.41659 0.47261 0.0
H198 H 0.59793 0.35755 0.43611 0.0
H199 H 0.61904 0.3242 0.45998 0.0
Sm200 Sm 0.99425 0.37359 0.73635 0.0
Sm201 Sm 0.02502 0.35513 0.77802 0.0
C202 C 0.96801 0.37697 0.69721 0.0
C203 C 0.94435 0.36909 0.68959 0.0
C204 C 0.94016 0.3633 0.66581 0.0
C205 C 0.91805 0.35493 0.65831 0.0
C206 C 0.89962 0.35227 0.67446 0.0
C207 C 0.90398 0.35805 0.69838 0.0
C208 C 0.92618 0.36627 0.70589 0.0
C209 C 0.98946 0.40379 0.7755 0.0
C210 C 0.97609 0.3257 0.77078 0.0
C211 C 0.05116 0.34971 0.81716 0.0
C212 C 0.0631 0.36435 0.83594 0.0
C213 C 0.05095 0.38316 0.84916 0.0
C214 C 0.06181 0.39426 0.86886 0.0
C215 C 0.08502 0.3868 0.8757 0.0
C216 C 0.09744 0.36889 0.86172 0.0
C217 C 0.08655 0.35773 0.84213 0.0
C218 C 0.0316 0.32827 0.73648 0.0
C219 C 0.0434 0.4016 0.74456 0.0
O220 O 0.98334 0.35812 0.70152 0.0
O221 O 0.96903 0.39548 0.71275 0.0
O222 O 0.99111 0.37932 0.77601 0.0
O223 O 0.98889 0.41273 0.75397 0.0
O224 O 0.9733 0.339 0.7508 0.0
O225 O 0.99392 0.32954 0.78539 0.0
O226 O 0.02808 0.35029 0.81681 0.0
O227 O 0.06019 0.35 0.79605 0.0
O228 O 0.02879 0.35217 0.73869 0.0
O229 O 0.03255 0.31709 0.75715 0.0
O230 O 0.0413 0.39379 0.76672 0.0
O231 O 0.02908 0.3931 0.72784 0.0
H232 H 0.95409 0.36502 0.65305 0.0
H233 H 0.91555 0.35016 0.63987 0.0
H234 H 0.89019 0.35648 0.71128 0.0
H235 H 0.92916 0.37039 0.72441 0.0
H236 H 0.03282 0.3887 0.84477 0.0
H237 H 0.05165 0.40787 0.87926 0.0
H238 H 0.11549 0.36311 0.86615 0.0
H239 H 0.09628 0.34333 0.83218 0.0
Sm240 Sm 0.8793 0.74189 0.03886 0.0
Sm241 Sm 0.87602 0.68746 0.01019 0.0
C242 C 0.87032 0.78861 0.05574 0.0
C243 C 0.86692 0.8004 0.07914 0.0
C244 C 0.84728 0.81693 0.08255 0.0
C245 C 0.84275 0.82717 0.10483 0.0
C246 C 0.85786 0.82121 0.12421 0.0
C247 C 0.87776 0.80496 0.12069 0.0
C248 C 0.88219 0.79452 0.0984 0.0
C249 C 0.91402 0.7065 0.05414 0.0
C250 C 0.84493 0.6969 0.05918 0.0
C251 C 0.87711 0.63845 0.99696 0.0
C252 C 0.88807 0.62042 0.98019 0.0
C253 C 0.90813 0.62691 0.96744 0.0
C254 C 0.91867 0.60887 0.9523 0.0
C255 C 0.90936 0.58404 0.94977 0.0
C256 C 0.88913 0.57786 0.96251 0.0
C257 C 0.87863 0.59586 0.97755 0.0
C258 C 0.85001 0.72917 0.99257 0.0
C259 C 0.90913 0.73158 0.98985 0.0
O260 O 0.85385 0.77301 0.04886 0.0
O261 O 0.89162 0.78027 0.05046 0.0
O262 O 0.89817 0.70376 0.03871 0.0
O263 O 0.9112 0.72923 0.06339 0.0
O264 O 0.85404 0.7199 0.06253 0.0
O265 O 0.85045 0.68192 0.0411 0.0
O266 O 0.8909 0.64755 0.0135 0.0
O267 O 0.86182 0.65567 0.9884 0.0
O268 O 0.85349 0.72334 0.01405 0.0
O269 O 0.85938 0.71157 0.97906 0.0
O270 O 0.90757 0.7063 0.99317 0.0
O271 O 0.89719 0.74877 1.00269 0.0
H272 H 0.83524 0.82168 0.06798 0.0
H273 H 0.82743 0.83987 0.10688 0.0
H274 H 0.88961 0.79981 0.13529 0.0
H275 H 0.89733 0.78159 0.09633 0.0
H276 H 0.91572 0.64579 0.96934 0.0
H277 H 0.93431 0.61421 0.94288 0.0
H278 H 0.88123 0.55914 0.96069 0.0
H279 H 0.86314 0.59054 0.98726 0.0
Sm280 Sm 0.5385 0.60959 0.23835 0.0
Sm281 Sm 0.50574 0.62681 0.27727 0.0
C282 C 0.56485 0.60636 0.20015 0.0
C283 C 0.58878 0.61238 0.19261 0.0
C284 C 0.59535 0.60715 0.16938 0.0
C285 C 0.61787 0.61313 0.16165 0.0
C286 C 0.63428 0.62448 0.17704 0.0
C287 C 0.62757 0.62968 0.2004 0.0
C288 C 0.605 0.62365 0.20813 0.0
C289 C 0.54379 0.5798 0.27849 0.0
C290 C 0.55375 0.65845 0.2727 0.0
C291 C 0.47782 0.6329 0.31413 0.0
C292 C 0.46526 0.61963 0.33311 0.0
C293 C 0.47261 0.59511 0.34173 0.0
C294 C 0.46174 0.58433 0.36148 0.0
C295 C 0.44352 0.59801 0.37299 0.0
C296 C 0.43583 0.62218 0.36374 0.0
C297 C 0.44659 0.63284 0.34402 0.0
C298 C 0.49891 0.6525 0.23421 0.0
C299 C 0.49101 0.5784 0.24534 0.0
O300 O 0.55087 0.62617 0.20459 0.0
O301 O 0.56308 0.58746 0.21548 0.0
O302 O 0.54066 0.60419 0.27844 0.0
O303 O 0.54593 0.57107 0.2572 0.0
O304 O 0.5581 0.64484 0.25353 0.0
O305 O 0.53531 0.65417 0.28584 0.0
O306 O 0.50086 0.63248 0.3156 0.0
O307 O 0.46975 0.63087 0.29247 0.0
O308 O 0.50284 0.62879 0.23747 0.0
O309 O 0.49715 0.66395 0.25442 0.0
O310 O 0.49243 0.58662 0.2673 0.0
O311 O 0.50465 0.58806 0.2289 0.0
H312 H 0.58298 0.5986 0.15714 0.0
H313 H 0.62226 0.60927 0.14346 0.0
H314 H 0.63982 0.63818 0.21278 0.0
H315 H 0.60018 0.62781 0.22616 0.0
H316 H 0.48708 0.58465 0.33357 0.0
H317 H 0.46812 0.56572 0.36823 0.0
H318 H 0.42159 0.633 0.37191 0.0
H319 H 0.44068 0.65178 0.33762 0.0
Sm320 Sm 0.22423 0.49347 0.13302 0.0
Sm321 Sm 0.2522 0.44397 0.12126 0.0
C322 C 0.19997 0.53799 0.13262 0.0
C323 C 0.1764 0.54829 0.125 0.0
C324 C 0.16855 0.5472 0.10134 0.0
C325 C 0.14646 0.55784 0.09453 0.0
C326 C 0.13169 0.56972 0.11122 0.0
C327 C 0.13949 0.57033 0.13495 0.0
C328 C 0.1616 0.55985 0.14171 0.0
C329 C 0.21649 0.45297 0.1631 0.0
C330 C 0.20488 0.45529 0.0903 0.0
C331 C 0.27503 0.39854 0.12009 0.0
C332 C 0.29081 0.37951 0.13251 0.0
C333 C 0.28725 0.37183 0.15606 0.0
C334 C 0.30099 0.35156 0.16629 0.0
C335 C 0.31836 0.33852 0.15308 0.0
C336 C 0.32228 0.3469 0.12979 0.0
C337 C 0.30866 0.36713 0.11965 0.0
C338 C 0.26142 0.48699 0.09381 0.0
C339 C 0.27332 0.48273 0.16118 0.0
O340 O 0.21483 0.53135 0.11615 0.0
O341 O 0.20062 0.52202 0.1507 0.0
O342 O 0.21826 0.45094 0.14092 0.0
O343 O 0.21729 0.47688 0.16961 0.0
O344 O 0.20382 0.47822 0.10039 0.0
O345 O 0.22067 0.4374 0.09686 0.0
O346 O 0.25348 0.40165 0.1277 0.0
O347 O 0.28404 0.41996 0.1123 0.0
O348 O 0.25871 0.48629 0.11571 0.0
O349 O 0.2603 0.46387 0.08515 0.0
O350 O 0.27073 0.45827 0.15527 0.0
O351 O 0.25947 0.50128 0.15185 0.0
H352 H 0.17952 0.53836 0.08801 0.0
H353 H 0.1412 0.55725 0.07607 0.0
H354 H 0.12848 0.57884 0.1484 0.0
H355 H 0.1672 0.56087 0.16007 0.0
H356 H 0.27352 0.38104 0.16636 0.0
H357 H 0.29751 0.34555 0.18426 0.0
H358 H 0.33581 0.33766 0.11927 0.0
H359 H 0.31169 0.37269 0.10147 0.0
Sm360 Sm 0.73124 0.98213 0.88223 0.0
Sm361 Sm 0.76201 0.02888 0.8909 0.0
C362 C 0.70975 0.93744 0.87735 0.0
C363 C 0.68672 0.92749 0.88435 0.0
C364 C 0.68174 0.90138 0.88111 0.0
C365 C 0.65998 0.89174 0.88791 0.0
C366 C 0.64274 0.90805 0.89811 0.0
C367 C 0.64792 0.93427 0.90135 0.0
C368 C 0.66969 0.94387 0.89455 0.0
C369 C 0.71901 0.02567 0.85573 0.0
C370 C 0.71368 0.02173 0.92251 0.0
C371 C 0.78006 0.0755 0.89405 0.0
C372 C 0.7948 0.09375 0.88105 0.0
C373 C 0.79263 0.09728 0.85645 0.0
C374 C 0.80621 0.11563 0.84486 0.0
C375 C 0.82219 0.13076 0.85765 0.0
C376 C 0.82454 0.12672 0.88221 0.0
C377 C 0.81097 0.10847 0.89375 0.0
C378 C 0.77565 0.98504 0.91605 0.0
C379 C 0.78163 0.98776 0.85447 0.0
O380 O 0.72457 0.9421 0.89462 0.0
O381 O 0.70923 0.95559 0.86111 0.0
O382 O 0.73971 0.01716 0.8598 0.0
O383 O 0.70375 0.01094 0.86564 0.0
O384 O 0.71161 0.99821 0.91409 0.0
O385 O 0.73009 0.03739 0.91495 0.0
O386 O 0.75891 0.07134 0.88544 0.0
O387 O 0.79062 0.05464 0.90276 0.0
O388 O 0.75468 0.99316 0.91259 0.0
O389 O 0.79049 1.00128 0.90755 0.0
O390 O 0.77973 0.01283 0.85818 0.0
O391 O 0.76694 0.97147 0.86436 0.0
H392 H 0.69473 0.88841 0.87341 0.0
H393 H 0.65681 0.87139 0.88547 0.0
H394 H 0.63503 0.94749 0.90887 0.0
H395 H 0.67323 0.96412 0.89722 0.0
H396 H 0.78029 0.08609 0.84624 0.0
H397 H 0.80381 0.11833 0.82596 0.0
H398 H 0.83698 0.1376 0.89258 0.0
H399 H 0.81299 0.10597 0.91272 0.0
Sm400 Sm 0.76804 0.95636 0.39008 0.0
Sm401 Sm 0.81329 0.99212 0.37904 0.0
C402 C 0.72619 0.93535 0.38575 0.0
C403 C 0.71618 0.91077 0.37759 0.0
C404 C 0.72134 0.90094 0.35513 0.0
C405 C 0.71036 0.87882 0.34686 0.0
C406 C 0.69408 0.86581 0.36088 0.0
C407 C 0.68947 0.87532 0.38363 0.0
C408 C 0.70033 0.8976 0.39183 0.0
C409 C 0.80788 0.93829 0.41487 0.0
C410 C 0.80409 0.9422 0.34583 0.0
C411 C 0.85339 0.0174 0.37871 0.0
C412 C 0.87287 0.02929 0.39227 0.0
C413 C 0.88874 0.01432 0.40647 0.0
C414 C 0.90911 0.02524 0.41607 0.0
C415 C 0.91408 0.05137 0.41174 0.0
C416 C 0.89769 0.06649 0.39826 0.0
C417 C 0.87741 0.05556 0.38861 0.0
C418 C 0.77128 1.00296 0.35471 0.0
C419 C 0.77858 0.00666 0.42336 0.0
O420 O 0.73538 0.95002 0.36947 0.0
O421 O 0.73828 0.93494 0.40576 0.0
O422 O 0.80625 0.95683 0.40033 0.0
O423 O 0.7875 0.92741 0.41587 0.0
O424 O 0.78309 0.93974 0.35546 0.0
O425 O 0.81976 0.95871 0.35361 0.0
O426 O 0.85232 0.99211 0.37875 0.0
O427 O 0.8326 0.02917 0.37784 0.0
O428 O 0.77401 0.99602 0.37585 0.0
O429 O 0.79179 0.0062 0.34523 0.0
O430 O 0.80033 0.00694 0.41501 0.0
O431 O 0.76231 0.99083 0.41515 0.0
H432 H 0.73351 0.91061 0.34368 0.0
H433 H 0.71417 0.8724 0.32915 0.0
H434 H 0.67737 0.86561 0.39512 0.0
H435 H 0.69609 0.90475 0.40921 0.0
H436 H 0.88582 0.99398 0.40962 0.0
H437 H 0.92115 0.01311 0.42664 0.0
H438 H 0.90102 0.08657 0.39429 0.0
H439 H 0.86569 0.06747 0.37748 0.0
Sm440 Sm 0.30801 0.4827 0.62643 0.0
Sm441 Sm 0.27341 0.53183 0.61279 0.0
C442 C 0.33148 0.43812 0.62515 0.0
C443 C 0.35637 0.43067 0.62095 0.0
C444 C 0.36882 0.44213 0.6025 0.0
C445 C 0.39234 0.435 0.59856 0.0
C446 C 0.40406 0.4164 0.61311 0.0
C447 C 0.39162 0.40521 0.6318 0.0
C448 C 0.36799 0.41225 0.63564 0.0
C449 C 0.32079 0.52619 0.65142 0.0
C450 C 0.32086 0.52285 0.58215 0.0
C451 C 0.24709 0.57481 0.61218 0.0
C452 C 0.23366 0.59256 0.6277 0.0
C453 C 0.2434 0.61606 0.63465 0.0
C454 C 0.22993 0.63431 0.64699 0.0
C455 C 0.20633 0.62956 0.65249 0.0
C456 C 0.19685 0.60568 0.64623 0.0
C457 C 0.21033 0.58742 0.63394 0.0
C458 C 0.2673 0.48665 0.58809 0.0
C459 C 0.26007 0.49286 0.65667 0.0
O460 O 0.31961 0.44799 0.60694 0.0
O461 O 0.32714 0.4501 0.64501 0.0
O462 O 0.30489 0.52428 0.63589 0.0
O463 O 0.33177 0.50393 0.65359 0.0
O464 O 0.32405 0.49986 0.59249 0.0
O465 O 0.30439 0.53975 0.58867 0.0
O466 O 0.2702 0.57461 0.61406 0.0
O467 O 0.23856 0.55188 0.60829 0.0
O468 O 0.2722 0.48874 0.60967 0.0
O469 O 0.26363 0.50944 0.57854 0.0
O470 O 0.25921 0.51687 0.64822 0.0
O471 O 0.27538 0.47508 0.64907 0.0
H472 H 0.36034 0.45653 0.59096 0.0
H473 H 0.40117 0.44374 0.58378 0.0
H474 H 0.40017 0.3911 0.64358 0.0
H475 H 0.35879 0.40334 0.6501 0.0
H476 H 0.26124 0.62073 0.62991 0.0
H477 H 0.2377 0.6526 0.65133 0.0
H478 H 0.17883 0.60127 0.6505 0.0
H479 H 0.20222 0.56956 0.62881 0.0
H480 H 0.23058 0.25281 0.51338 0.0
H481 H 0.24839 0.2933 0.52645 0.0
H482 H 0.18205 0.33412 0.51353 0.0
H483 H 0.16425 0.2941 0.50083 0.0
H484 H 0.25146 0.34441 0.50338 0.0
H485 H 0.19762 0.34625 0.58435 0.0
H486 H 0.20146 0.3176 0.56676 0.0
H487 H 0.18079 0.34278 0.55745 0.0
C488 C 0.21992 0.27049 0.51318 0.0
C489 C 0.19598 0.27024 0.5063 0.0
C490 C 0.23009 0.29358 0.52059 0.0
C491 C 0.21642 0.31663 0.52128 0.0
C492 C 0.19282 0.31651 0.51349 0.0
H493 H 0.25265 0.47768 0.54245 0.0
H494 H 0.2423 0.43596 0.52528 0.0
C495 C 0.1827 0.29359 0.50616 0.0
C496 C 0.22621 0.3407 0.5311 0.0
H497 H 0.21814 0.38435 0.57523 0.0
C498 C 0.24434 0.3531 0.51918 0.0
C499 C 0.21703 0.35187 0.55183 0.0
C500 C 0.1983 0.33886 0.56601 0.0
C501 C 0.25312 0.37675 0.52716 0.0
C502 C 0.2433 0.38837 0.54743 0.0
C503 C 0.22554 0.3756 0.55958 0.0
C504 C 0.25132 0.4135 0.55681 0.0
C505 C 0.27299 0.38891 0.51403 0.0
C506 C 0.25959 0.41486 0.58026 0.0
C507 C 0.26521 0.43859 0.5901 0.0
C508 C 0.26272 0.46158 0.57673 0.0
C509 C 0.25487 0.46026 0.55311 0.0
C510 C 0.24912 0.4364 0.54325 0.0
H511 H 0.28256 0.37462 0.50296 0.0
H512 H 0.26564 0.40447 0.5022 0.0
H513 H 0.28578 0.39765 0.52647 0.0
H514 H 0.26134 0.39752 0.59112 0.0
H515 H 0.27108 0.43896 0.6084 0.0
H516 H 0.80066 0.93847 0.85421 0.0
H517 H 0.83812 0.92429 0.83683 0.0
H518 H 0.84712 1.00082 0.80813 0.0
H519 H 0.80979 0.01513 0.82529 0.0
H520 H 0.8586 0.959 0.7764 0.0
H521 H 0.90263 0.94839 0.86462 0.0
H522 H 0.87555 0.93143 0.86097 0.0
H523 H 0.87502 0.96613 0.86012 0.0
C524 C 0.81039 0.95215 0.84384 0.0
C525 C 0.80228 0.97796 0.84122 0.0
C526 C 0.83189 0.94408 0.8341 0.0
C527 C 0.84555 0.96164 0.82152 0.0
C528 C 0.83692 0.98702 0.81789 0.0
H529 H 0.99583 0.94291 0.78891 0.0
H530 H 0.95734 0.96117 0.80089 0.0
C531 C 0.81556 0.99515 0.82773 0.0
C532 C 0.86925 0.95393 0.81287 0.0
H533 H 0.92476 0.93504 0.83158 0.0
C534 C 0.87308 0.95379 0.78844 0.0
C535 C 0.88822 0.94763 0.82864 0.0
C536 C 0.88534 0.94856 0.85507 0.0
C537 C 0.89525 0.94679 0.77934 0.0
C538 C 0.914 0.93969 0.79511 0.0
C539 C 0.91034 0.94048 0.81954 0.0
C540 C 0.93713 0.92987 0.78659 0.0
C541 C 0.89847 0.94708 0.75295 0.0
C542 C 0.93847 0.90631 0.77466 0.0
C543 C 0.96028 0.89586 0.76802 0.0
C544 C 0.98126 0.9088 0.77305 0.0
C545 C 0.97994 0.93265 0.78465 0.0
C546 C 0.95801 0.94303 0.79152 0.0
H547 H 0.88455 0.95908 0.74371 0.0
H548 H 0.91602 0.95456 0.74836 0.0
H549 H 0.89745 0.92705 0.74627 0.0
H550 H 0.92266 0.8956 0.77108 0.0
H551 H 0.9607 0.87727 0.75942 0.0
H552 H 0.33797 0.67794 0.96849 0.0
H553 H 0.31812 0.63987 0.98313 0.0
H554 H 0.32388 0.66809 0.05429 0.0
H555 H 0.34391 0.7064 0.03985 0.0
H556 H 0.33902 0.60399 0.01716 0.0
H557 H 0.25372 0.64648 0.04701 0.0
H558 H 0.27232 0.66277 0.02628 0.0
H559 H 0.2797 0.66246 0.05726 0.0
C560 C 0.33477 0.67635 0.98725 0.0
C561 C 0.34261 0.69534 1.00299 0.0
C562 C 0.32343 0.65448 0.99556 0.0
C563 C 0.3194 0.6512 0.01975 0.0
C564 C 0.32653 0.67041 0.0355 0.0
H565 H 0.26881 0.53409 0.11256 0.0
H566 H 0.28191 0.573 0.09271 0.0
C567 C 0.33803 0.69229 0.0272 0.0
C568 C 0.3092 0.62688 0.02862 0.0
H569 H 0.26226 0.60277 0.05786 0.0
C570 C 0.32214 0.60363 0.02589 0.0
C571 C 0.28721 0.62653 0.03999 0.0
C572 C 0.27226 0.65083 0.0427 0.0
C573 C 0.31409 0.58013 0.03499 0.0
C574 C 0.29217 0.57976 0.0466 0.0
C575 C 0.27901 0.603 0.04889 0.0
C576 C 0.28337 0.55592 0.05803 0.0
C577 C 0.32964 0.55615 0.03295 0.0
C578 C 0.27943 0.53329 0.04511 0.0
C579 C 0.27207 0.51075 0.05654 0.0
C580 C 0.26831 0.51063 0.081 0.0
C581 C 0.27164 0.53349 0.0937 0.0
C582 C 0.27908 0.55584 0.08236 0.0
H583 H 0.34812 0.5609 0.02877 0.0
H584 H 0.32975 0.54458 0.04958 0.0
H585 H 0.32274 0.544 0.0185 0.0
H586 H 0.28209 0.53304 0.02622 0.0
H587 H 0.26945 0.49347 0.04631 0.0
H588 H 0.55107 0.02668 0.28506 0.0
H589 H 0.59105 0.01177 0.29772 0.0
H590 H 0.61798 0.08634 0.27934 0.0
H591 H 0.57848 0.10138 0.26735 0.0
H592 H 0.63561 0.00945 0.27416 0.0
H593 H 0.63705 0.07758 0.34904 0.0
H594 H 0.61027 0.07034 0.33304 0.0
H595 H 0.63051 0.09305 0.32109 0.0
C596 C 0.56558 0.03978 0.28364 0.0
C597 C 0.56156 0.06525 0.27535 0.0
C598 C 0.58841 0.03125 0.29081 0.0
C599 C 0.60748 0.04809 0.28986 0.0
C600 C 0.60354 0.07314 0.28069 0.0
H601 H 0.76003 0.01541 0.30821 0.0
H602 H 0.72043 0.02528 0.29129 0.0
C603 C 0.58088 0.08165 0.27369 0.0
C604 C 0.63138 0.04018 0.29918 0.0
H605 H 0.67351 0.05682 0.33973 0.0
C606 C 0.64388 0.01969 0.28857 0.0
C607 C 0.64212 0.05338 0.31815 0.0
C608 C 0.62924 0.07465 0.33117 0.0
C609 C 0.66697 0.01239 0.29617 0.0
C610 C 0.67797 0.02619 0.31462 0.0
C611 C 0.66527 0.04641 0.3254 0.0
C612 C 0.70209 0.01928 0.32409 0.0
C613 C 0.67919 0.98965 0.2847 0.0
C614 C 0.70511 0.01316 0.34817 0.0
C615 C 0.72757 0.0079 0.35781 0.0
C616 C 0.74771 0.00849 0.34365 0.0
C617 C 0.74483 0.01463 0.31951 0.0
C618 C 0.72219 0.02005 0.30981 0.0
H619 H 0.6665 0.9774 0.27508 0.0
H620 H 0.69207 0.99683 0.2718 0.0
H621 H 0.68899 0.97748 0.29806 0.0
H622 H 0.69 0.01256 0.35961 0.0
H623 H 0.72914 1.00349 0.37653 0.0
H624 H 0.72856 0.23657 0.50032 0.0
H625 H 0.7488 0.1958 0.48912 0.0
H626 H 0.68343 0.15578 0.49546 0.0
H627 H 0.66329 0.19591 0.50635 0.0
H628 H 0.75023 0.14339 0.51434 0.0
H629 H 0.70614 0.14406 0.42597 0.0
H630 H 0.70856 0.1728 0.4436 0.0
H631 H 0.6867 0.14942 0.45029 0.0
C632 C 0.71863 0.219 0.49942 0.0
C633 C 0.69433 0.21946 0.50403 0.0
C634 C 0.73018 0.19578 0.4931 0.0
C635 C 0.71751 0.17288 0.49123 0.0
C636 C 0.69346 0.17327 0.49655 0.0
H637 H 0.73438 0.01764 0.44022 0.0
H638 H 0.72109 0.05728 0.45956 0.0
C639 C 0.682 0.19628 0.50281 0.0
C640 C 0.72877 0.14855 0.48284 0.0
H641 H 0.72562 0.10495 0.43817 0.0
C642 C 0.74511 0.13504 0.49759 0.0
C643 C 0.72193 0.13772 0.46104 0.0
C644 C 0.70502 0.1518 0.44417 0.0
C645 C 0.7542 0.11048 0.49139 0.0
C646 C 0.74694 0.09942 0.46977 0.0
C647 C 0.73098 0.11327 0.45486 0.0
C648 C 0.75577 0.07369 0.46182 0.0
C649 C 0.77087 0.09625 0.50834 0.0
C650 C 0.77979 0.06936 0.45728 0.0
C651 C 0.78749 0.04662 0.44631 0.0
C652 C 0.77127 0.02783 0.43943 0.0
C653 C 0.7474 0.0316 0.44525 0.0
C654 C 0.73974 0.05434 0.45624 0.0
H655 H 0.76976 0.10408 0.5265 0.0
H656 H 0.76711 0.0753 0.50897 0.0
H657 H 0.78925 0.09839 0.5023 0.0
H658 H 0.79245 0.08415 0.46104 0.0
H659 H 0.80601 0.04447 0.44211 0.0
H660 H 0.07493 0.42487 0.77415 0.0
H661 H 0.11188 0.445 0.76347 0.0
H662 H 0.09656 0.43148 0.68981 0.0
H663 H 0.05938 0.41199 0.70025 0.0
H664 H 0.14881 0.42247 0.74263 0.0
H665 H 0.11702 0.50504 0.68699 0.0
H666 H 0.09755 0.48699 0.70546 0.0
H667 H 0.10547 0.47516 0.67677 0.0
C668 C 0.07918 0.42667 0.75563 0.0
C669 C 0.06412 0.4169 0.73804 0.0
C670 C 0.10037 0.4381 0.74957 0.0
C671 C 0.10694 0.44004 0.72582 0.0
C672 C 0.09166 0.43082 0.70821 0.0
H673 H 0.24525 0.44398 0.66608 0.0
H674 H 0.20918 0.43206 0.68598 0.0
C675 C 0.07039 0.41957 0.71423 0.0
C676 C 0.13045 0.44991 0.71953 0.0
H677 H 0.15768 0.49195 0.68272 0.0
C678 C 0.15075 0.4379 0.72975 0.0
C679 C 0.13306 0.47031 0.70301 0.0
C680 C 0.11209 0.4853 0.69263 0.0
C681 C 0.17351 0.44505 0.72325 0.0
C682 C 0.17608 0.46431 0.70561 0.0
C683 C 0.15579 0.47698 0.69606 0.0
C684 C 0.19946 0.47111 0.69611 0.0
C685 C 0.19453 0.43196 0.73547 0.0
C686 C 0.20614 0.49703 0.69511 0.0
C687 C 0.22661 0.50395 0.68343 0.0
C688 C 0.24091 0.48506 0.67255 0.0
C689 C 0.23482 0.45897 0.67453 0.0
C690 C 0.21418 0.45211 0.68599 0.0
H691 H 0.18997 0.42479 0.75335 0.0
H692 H 0.20036 0.41503 0.72499 0.0
H693 H 0.20951 0.44524 0.73721 0.0
H694 H 0.19509 0.51205 0.70275 0.0
H695 H 0.23079 0.52422 0.68226 0.0
H696 H 0.74734 0.94925 0.93629 0.0
H697 H 0.75868 0.90534 0.94983 0.0
H698 H 0.83072 0.91849 0.93068 0.0
H699 H 0.81946 0.96217 0.9169 0.0
H700 H 0.78107 0.8648 0.92224 0.0
H701 H 0.83515 0.89209 1.00039 0.0
H702 H 0.81397 0.91412 0.98618 0.0
H703 H 0.84227 0.90816 0.97321 0.0
C704 C 0.76557 0.94274 0.93496 0.0
C705 C 0.7825 0.95909 0.92548 0.0
C706 C 0.77204 0.9177 0.94273 0.0
C707 C 0.79558 0.90874 0.94144 0.0
C708 C 0.81253 0.92513 0.93215 0.0
H709 H 0.85568 0.75225 0.94946 0.0
H710 H 0.84142 0.79546 0.93666 0.0
C711 C 0.80606 0.95008 0.92427 0.0
C712 C 0.80241 0.88206 0.94931 0.0
H713 H 0.83695 0.84798 0.9894 0.0
C714 C 0.79322 0.86109 0.93697 0.0
C715 C 0.81811 0.87728 0.96865 0.0
C716 C 0.82784 0.89905 0.98305 0.0
C717 C 0.79968 0.83544 0.94319 0.0
C718 C 0.81587 0.83069 0.96213 0.0
C719 C 0.82469 0.85167 0.97475 0.0
C720 C 0.82372 0.8041 0.96935 0.0
C721 C 0.78894 0.81362 0.92962 0.0
C722 C 0.81862 0.79466 0.99198 0.0
C723 C 0.82667 0.77001 0.99924 0.0
C724 C 0.84025 0.75447 0.98416 0.0
C725 C 0.84512 0.76377 0.96139 0.0
C726 C 0.83697 0.78842 0.95407 0.0
H727 H 0.77299 0.82016 0.91932 0.0
H728 H 0.80207 0.80576 0.91707 0.0
H729 H 0.78408 0.79769 0.94176 0.0
H730 H 0.80839 0.80639 1.00403 0.0
H731 H 0.82224 0.76308 0.01668 0.0
H732 H 0.46332 0.55065 0.27479 0.0
H733 H 0.42742 0.52796 0.26431 0.0
H734 H 0.43781 0.54617 0.19073 0.0
H735 H 0.47402 0.5683 0.201 0.0
H736 H 0.38876 0.5499 0.24502 0.0
H737 H 0.41992 0.47179 0.18649 0.0
H738 H 0.43985 0.48971 0.2049 0.0
H739 H 0.42973 0.50272 0.17676 0.0
C740 C 0.45826 0.54932 0.25631 0.0
C741 C 0.47153 0.56128 0.23872 0.0
C742 C 0.4377 0.53638 0.25036 0.0
C743 C 0.42999 0.53514 0.22672 0.0
C744 C 0.44366 0.5463 0.20904 0.0
H745 H 0.28967 0.53102 0.16963 0.0
H746 H 0.327 0.54202 0.1885 0.0
C747 C 0.46435 0.55906 0.21495 0.0
C748 C 0.40658 0.52448 0.22078 0.0
H749 H 0.37856 0.48349 0.18346 0.0
C750 C 0.38658 0.5351 0.2318 0.0
C751 C 0.40368 0.50491 0.2038 0.0
C752 C 0.42448 0.49143 0.1925 0.0
C753 C 0.36374 0.52748 0.22559 0.0
C754 C 0.36076 0.50919 0.20746 0.0
C755 C 0.3808 0.49774 0.19717 0.0
C756 C 0.3371 0.50259 0.19803 0.0
C757 C 0.34305 0.53915 0.23852 0.0
C758 C 0.33036 0.47672 0.19694 0.0
C759 C 0.30906 0.47031 0.18591 0.0
C760 C 0.29414 0.48967 0.1757 0.0
C761 C 0.3006 0.51564 0.17751 0.0
C762 C 0.32194 0.52199 0.1884 0.0
H763 H 0.34837 0.54551 0.25648 0.0
H764 H 0.33615 0.55643 0.22859 0.0
H765 H 0.32857 0.52524 0.24018 0.0
H766 H 0.34181 0.46142 0.20419 0.0
H767 H 0.30465 0.45012 0.18481 0.0
H768 H 0.56733 0.1723 0.28713 0.0
H769 H 0.57996 0.19326 0.32361 0.0
H770 H 0.51113 0.18235 0.3529 0.0
H771 H 0.49812 0.1623 0.31635 0.0
H772 H 0.52812 0.22797 0.36576 0.0
H773 H 0.59632 0.15065 0.38186 0.0
H774 H 0.6001 0.16794 0.35461 0.0
H775 H 0.57435 0.14884 0.35858 0.0
C776 C 0.55476 0.17477 0.30118 0.0
C777 C 0.53181 0.16533 0.2989 0.0
C778 C 0.56207 0.18654 0.32211 0.0
C779 C 0.5467 0.18867 0.34125 0.0
C780 C 0.52337 0.18071 0.33846 0.0
H781 H 0.59507 0.20079 0.48696 0.0
H782 H 0.57624 0.18733 0.45007 0.0
C783 C 0.51596 0.16923 0.31749 0.0
C784 C 0.55511 0.19795 0.36458 0.0
H785 H 0.5961 0.18566 0.40842 0.0
C786 C 0.54298 0.21872 0.37512 0.0
C787 C 0.57414 0.18547 0.37704 0.0
C788 C 0.58684 0.16183 0.36759 0.0
C789 C 0.54953 0.22757 0.39762 0.0
C790 C 0.56917 0.21575 0.40963 0.0
C791 C 0.58113 0.19482 0.39918 0.0
C792 C 0.57794 0.22482 0.43292 0.0
C793 C 0.53499 0.24907 0.40846 0.0
C794 C 0.5848 0.25048 0.43576 0.0
C795 C 0.59524 0.25831 0.45696 0.0
C796 C 0.59949 0.2405 0.4756 0.0
C797 C 0.59206 0.21498 0.47296 0.0
C798 C 0.58135 0.20725 0.45185 0.0
H799 H 0.51676 0.25003 0.4009 0.0
H800 H 0.53395 0.24658 0.42792 0.0
H801 H 0.54325 0.26782 0.40466 0.0
H802 H 0.58295 0.26425 0.42128 0.0
H803 H 0.60094 0.27806 0.45827 0.0
H804 H 0.09207 0.21125 0.54358 0.0
H805 H 0.07426 0.22387 0.58096 0.0
H806 H 0.09428 0.30262 0.56896 0.0
H807 H 0.11207 0.29024 0.5314 0.0
H808 H 0.1095 0.27662 0.61491 0.0
H809 H 0.0134 0.27123 0.59398 0.0
H810 H 0.03234 0.245 0.58443 0.0
H811 H 0.03503 0.27651 0.57145 0.0
C812 C 0.09233 0.23136 0.54865 0.0
C813 C 0.10348 0.24976 0.53447 0.0
C814 C 0.08211 0.23852 0.57002 0.0
C815 C 0.08292 0.26416 0.57768 0.0
C816 C 0.09342 0.28273 0.56329 0.0
H817 H 0.03071 0.35154 0.69339 0.0
H818 H 0.0422 0.33329 0.65561 0.0
C819 C 0.10345 0.27565 0.54177 0.0
C820 C 0.07427 0.27123 0.6014 0.0
H821 H 0.02422 0.28034 0.63346 0.0
C822 C 0.09087 0.27731 0.61903 0.0
C823 C 0.04997 0.27204 0.60667 0.0
C824 C 0.03152 0.26601 0.58818 0.0
C825 C 0.08377 0.28437 0.64178 0.0
C826 C 0.05948 0.2854 0.647 0.0
C827 C 0.04286 0.2792 0.62943 0.0
C828 C 0.05106 0.29533 0.66991 0.0
C829 C 0.10216 0.29133 0.66003 0.0
C830 C 0.05198 0.27985 0.69048 0.0
C831 C 0.04514 0.2902 0.71224 0.0
C832 C 0.03751 0.31619 0.71366 0.0
C833 C 0.03637 0.3314 0.6929 0.0
C834 C 0.04294 0.32104 0.67126 0.0
H835 H 0.1203 0.29057 0.6529 0.0
H836 H 0.09836 0.3111 0.66667 0.0
H837 H 0.10144 0.27778 0.67531 0.0
H838 H 0.05826 0.25993 0.68972 0.0
H839 H 0.04626 0.27807 0.72795 0.0
H840 H 0.03296 0.797 0.80903 0.0
H841 H 0.01787 0.77814 0.84531 0.0
H842 H 0.94652 0.7923 0.81988 0.0
H843 H 0.96138 0.81089 0.7834 0.0
H844 H 0.99079 0.8052 0.87687 0.0
H845 H 0.94352 0.71901 0.8462 0.0
H846 H 0.9645 0.73543 0.82812 0.0
H847 H 0.93482 0.74818 0.83056 0.0
C848 C 0.01404 0.79556 0.81084 0.0
C849 C 0.9984 0.80555 0.79323 0.0
C850 C 1.00545 0.78485 0.83169 0.0
C851 C 0.98107 0.78373 0.83532 0.0
C852 C 0.9654 0.79255 0.81733 0.0
H853 H 0.9083 0.77986 0.96924 0.0
H854 H 0.92693 0.79274 0.93239 0.0
C855 C 0.97397 0.80323 0.79644 0.0
C856 C 0.97209 0.77545 0.85865 0.0
H857 H 0.93581 0.73288 0.88545 0.0
C858 C 0.9789 0.78926 0.87877 0.0
C859 C 0.9567 0.75457 0.86115 0.0
C860 C 0.94961 0.73826 0.8404 0.0
C861 C 0.97042 0.78305 0.90126 0.0
C862 C 0.9544 0.76273 0.90363 0.0
C863 C 0.94793 0.74861 0.88358 0.0
C864 C 0.94427 0.75559 0.92677 0.0
C865 C 0.97894 0.79809 0.92229 0.0
C866 C 0.94773 0.73042 0.93584 0.0
C867 C 0.93706 0.72298 0.95682 0.0
C868 C 0.9226 0.74054 0.9692 0.0
C869 C 0.91957 0.76595 0.96036 0.0
C870 C 0.93022 0.77335 0.93928 0.0
H871 H 0.99563 0.80803 0.91857 0.0
H872 H 0.96539 0.81305 0.92672 0.0
H873 H 0.98182 0.78525 0.93797 0.0
H874 H 0.95847 0.71639 0.92648 0.0
H875 H 0.93979 0.70325 0.96307 0.0
H876 H 0.47974 0.70086 0.22375 0.0
H877 H 0.46665 0.71763 0.18463 0.0
H878 H 0.49003 0.64635 0.1528 0.0
H879 H 0.50272 0.62943 0.19156 0.0
H880 H 0.50371 0.69823 0.12969 0.0
H881 H 0.40804 0.68484 0.14578 0.0
H882 H 0.42576 0.69998 0.16819 0.0
H883 H 0.43066 0.66642 0.16191 0.0
C884 C 0.48221 0.68888 0.20837 0.0
C885 C 0.49226 0.66383 0.21075 0.0
C886 C 0.47468 0.69844 0.18607 0.0
C887 C 0.47731 0.68317 0.16583 0.0
C888 C 0.48785 0.65845 0.16816 0.0
H889 H 0.42086 0.67856 0.02417 0.0
H890 H 0.43483 0.67088 0.06495 0.0
C891 C 0.49511 0.64883 0.19036 0.0
C892 C 0.46861 0.69239 0.14219 0.0
H893 H 0.41853 0.69908 0.10786 0.0
C894 C 0.48508 0.69877 0.12497 0.0
C895 C 0.44432 0.69275 0.13603 0.0
C896 C 0.42603 0.68557 0.15381 0.0
C897 C 0.47789 0.70525 0.10167 0.0
C898 C 0.45361 0.70527 0.09541 0.0
C899 C 0.43712 0.69915 0.11272 0.0
C900 C 0.44513 0.71029 0.07071 0.0
C901 C 0.49632 0.71121 0.08364 0.0
C902 C 0.44618 0.73504 0.06042 0.0
C903 C 0.43814 0.73949 0.03712 0.0
C904 C 0.42893 0.71925 0.02369 0.0
C905 C 0.42796 0.6945 0.03403 0.0
C906 C 0.43584 0.69011 0.05735 0.0
H907 H 0.51452 0.70683 0.09043 0.0
H908 H 0.49329 0.69994 0.06733 0.0
H909 H 0.49497 0.73203 0.07876 0.0
H910 H 0.45308 0.75095 0.07046 0.0
H911 H 0.43911 0.75877 0.02961 0.0
H912 H 0.19297 0.34647 0.35412 0.0
H913 H 0.20264 0.36167 0.31449 0.0
H914 H 0.15813 0.30411 0.28395 0.0
H915 H 0.14798 0.28905 0.32365 0.0
H916 H 0.2223 0.33466 0.27417 0.0
H917 H 0.1311 0.37469 0.2579 0.0
H918 H 0.14191 0.36588 0.28713 0.0
H919 H 0.13417 0.34121 0.26659 0.0
C920 C 0.18523 0.33703 0.33898 0.0
C921 C 0.16949 0.31675 0.34205 0.0
C922 C 0.19093 0.34559 0.31635 0.0
C923 C 0.18093 0.33417 0.2963 0.0
C924 C 0.16587 0.31332 0.29921 0.0
H925 H 0.2107 0.40109 0.15416 0.0
H926 H 0.20222 0.36695 0.18342 0.0
C927 C 0.16021 0.30465 0.3219 0.0
C928 C 0.18532 0.34536 0.2726 0.0
H929 H 0.15951 0.38403 0.22968 0.0
C930 C 0.20849 0.34496 0.26413 0.0
C931 C 0.16726 0.35889 0.25963 0.0
C932 C 0.1422 0.36044 0.26821 0.0
C933 C 0.21421 0.35869 0.24354 0.0
C934 C 0.19638 0.37319 0.23128 0.0
C935 C 0.17304 0.37258 0.23906 0.0
C936 C 0.20226 0.39275 0.21325 0.0
C937 C 0.23949 0.359 0.2357 0.0
C938 C 0.20514 0.41826 0.22046 0.0
C939 C 0.20996 0.43752 0.20402 0.0
C940 C 0.21192 0.43173 0.17993 0.0
C941 C 0.20927 0.40605 0.17262 0.0
C942 C 0.20443 0.38662 0.18925 0.0
H943 H 0.25099 0.34505 0.24593 0.0
H944 H 0.24046 0.35429 0.21664 0.0
H945 H 0.24643 0.3787 0.23796 0.0
H946 H 0.20352 0.42331 0.23891 0.0
H947 H 0.212 0.45707 0.21025 0.0
H948 H 0.90277 0.85619 0.60407 0.0
H949 H 0.8859 0.86782 0.56525 0.0
H950 H 0.92943 0.93479 0.56243 0.0
H951 H 0.9469 0.92293 0.60104 0.0
H952 H 0.86097 0.91411 0.55415 0.0
H953 H 0.93943 0.90191 0.49724 0.0
H954 H 0.93828 0.88801 0.52659 0.0
H955 H 0.94316 0.92192 0.52273 0.0
C956 C 0.90913 0.87313 0.59504 0.0
C957 C 0.92627 0.88857 0.60574 0.0
C958 C 0.89934 0.87984 0.57288 0.0
C959 C 0.90656 0.90202 0.56077 0.0
C960 C 0.92384 0.91736 0.57123 0.0
H961 H 0.84442 0.96941 0.42853 0.0
H962 H 0.87084 0.96239 0.46325 0.0
C963 C 0.93362 0.91069 0.59345 0.0
C964 C 0.89488 0.90974 0.53791 0.0
H965 H 0.90415 0.91781 0.47869 0.0
C966 C 0.87047 0.915 0.5377 0.0
C967 C 0.9073 0.9112 0.51644 0.0
C968 C 0.93347 0.9053 0.51557 0.0
C969 C 0.85807 0.92121 0.51663 0.0
C970 C 0.87029 0.92177 0.49504 0.0
C971 C 0.89483 0.91735 0.49526 0.0
C972 C 0.85726 0.92486 0.47212 0.0
C973 C 0.83185 0.9269 0.51761 0.0
C974 C 0.8417 0.90569 0.46509 0.0
C975 C 0.82676 0.90964 0.44548 0.0
C976 C 0.82715 0.93278 0.43231 0.0
C977 C 0.84385 0.95134 0.43832 0.0
C978 C 0.85885 0.94739 0.45816 0.0
H979 H 0.82631 0.9323 0.53568 0.0
H980 H 0.8265 0.9428 0.50515 0.0
H981 H 0.82222 0.90938 0.51244 0.0
H982 H 0.84043 0.88803 0.47539 0.0
H983 H 0.81415 0.89495 0.4412 0.0
H984 H 0.35622 0.53074 0.68334 0.0
H985 H 0.35918 0.56162 0.71546 0.0
H986 H 0.2949 0.60024 0.69091 0.0
H987 H 0.29168 0.56895 0.6585 0.0
H988 H 0.33977 0.63261 0.70663 0.0
H989 H 0.30731 0.56054 0.77101 0.0
H990 H 0.32905 0.54874 0.75068 0.0
H991 H 0.30045 0.55932 0.73974 0.0
C992 C 0.34284 0.546 0.68453 0.0
C993 C 0.3237 0.54742 0.66843 0.0
C994 C 0.34455 0.56359 0.70293 0.0
C995 C 0.32716 0.58301 0.70568 0.0
C996 C 0.30848 0.58531 0.68907 0.0
H997 H 0.32588 0.66381 0.8418 0.0
H998 H 0.31197 0.6443 0.80495 0.0
C999 C 0.30672 0.56755 0.67054 0.0
C1000 C 0.32837 0.59983 0.72669 0.0
H1001 H 0.32642 0.59701 0.78692 0.0
C1002 C 0.33647 0.62506 0.72418 0.0
C1003 C 0.32387 0.58998 0.74952 0.0
C1004 C 0.31451 0.56322 0.75304 0.0
C1005 C 0.34133 0.64025 0.74407 0.0
C1006 C 0.33829 0.62974 0.76701 0.0
C1007 C 0.32893 0.60503 0.76939 0.0
C1008 C 0.34626 0.6432 0.78872 0.0
C1009 C 0.35002 0.66726 0.74037 0.0
C1010 C 0.37017 0.64887 0.79194 0.0
C1011 C 0.37815 0.65994 0.81293 0.0
C1012 C 0.36243 0.66551 0.83129 0.0
C1013 C 0.33842 0.66 0.82796 0.0
C1014 C 0.33045 0.64878 0.80694 0.0
H1015 H 0.34441 0.67519 0.72278 0.0
H1016 H 0.34344 0.68049 0.75425 0.0
H1017 H 0.3696 0.6668 0.74119 0.0
H1018 H 0.3828 0.64426 0.77838 0.0
H1019 H 0.3967 0.66419 0.81476 0.0
H1020 H 0.57405 0.0834 0.09538 0.0
H1021 H 0.59108 0.0702 0.05776 0.0
H1022 H 0.66106 0.07852 0.0872 0.0
H1023 H 0.64429 0.09218 0.12465 0.0
H1024 H 0.62243 0.09745 0.02805 0.0
H1025 H 0.66203 0.00433 0.06076 0.0
H1026 H 0.63967 0.02207 0.07673 0.0
H1027 H 0.66986 0.03181 0.07807 0.0
C1028 C 0.59307 0.08263 0.09383 0.0
C1029 C 0.60777 0.08872 0.11318 0.0
C1030 C 0.60276 0.07495 0.07233 0.0
C1031 C 0.62733 0.073 0.0698 0.0
C1032 C 0.64205 0.07936 0.08892 0.0
H1033 H 0.71394 0.06782 0.94592 0.0
H1034 H 0.69107 0.08017 0.98039 0.0
C1035 C 0.6324 0.08711 0.11037 0.0
C1036 C 0.63767 0.06469 0.04708 0.0
H1037 H 0.67379 0.01866 0.02277 0.0
C1038 C 0.63353 0.08014 0.02682 0.0
C1039 C 0.65188 0.04191 0.04545 0.0
C1040 C 0.65599 0.0239 0.06634 0.0
C1041 C 0.64383 0.07383 1.00513 0.0
C1042 C 0.65888 0.05164 1.00376 0.0
C1043 C 0.66241 0.03578 0.02386 0.0
C1044 C 0.67161 0.04479 0.98186 0.0
C1045 C 0.63842 0.0909 0.98386 0.0
C1046 C 0.66848 0.02066 0.97131 0.0
C1047 C 0.68164 0.01345 0.95162 0.0
C1048 C 0.69837 0.03016 0.94219 0.0
C1049 C 0.70117 0.05449 0.9526 0.0
C1050 C 0.688 0.06167 0.97227 0.0
H1051 H 0.62177 0.1024 0.98601 0.0
H1052 H 0.65295 0.10461 0.98158 0.0
H1053 H 0.63691 0.0793 0.96754 0.0
H1054 H 0.65601 0.00728 0.97847 0.0
H1055 H 0.679 0.99456 0.94411 0.0
H1056 H 0.69077 0.12109 0.64886 0.0
H1057 H 0.70035 0.10069 0.68712 0.0
H1058 H 0.65802 0.15873 0.72201 0.0
H1059 H 0.64881 0.17969 0.68383 0.0
H1060 H 0.70217 0.14741 0.74488 0.0
H1061 H 0.65317 0.0585 0.72523 0.0
H1062 H 0.67459 0.06661 0.70352 0.0
H1063 H 0.64942 0.08779 0.70782 0.0
C1064 C 0.68371 0.12973 0.66468 0.0
C1065 C 0.66892 0.15199 0.66323 0.0
C1066 C 0.68902 0.11788 0.68652 0.0
C1067 C 0.6796 0.12795 0.70738 0.0
C1068 C 0.66534 0.15052 0.70611 0.0
H1069 H 0.67504 0.04092 0.83977 0.0
H1070 H 0.66507 0.06821 0.80521 0.0
C1071 C 0.65996 0.16237 0.68426 0.0
C1072 C 0.6844 0.11472 0.73045 0.0
H1073 H 0.67718 0.05768 0.75999 0.0
C1074 C 0.69664 0.12783 0.74825 0.0
C1075 C 0.67685 0.08933 0.73495 0.0
C1076 C 0.66258 0.07476 0.71698 0.0
C1077 C 0.70203 0.11597 0.77024 0.0
C1078 C 0.69523 0.09021 0.7744 0.0
C1079 C 0.68253 0.07736 0.75677 0.0
C1080 C 0.70132 0.07594 0.79673 0.0
C1081 C 0.71471 0.13123 0.78888 0.0
C1082 C 0.72501 0.07144 0.80365 0.0
C1083 C 0.73073 0.05593 0.82344 0.0
C1084 C 0.71287 0.04443 0.83655 0.0
C1085 C 0.68917 0.04952 0.83001 0.0
C1086 C 0.68346 0.06507 0.81024 0.0
H1087 H 0.71251 0.15238 0.78566 0.0
H1088 H 0.7082 0.12663 0.8068 0.0
H1089 H 0.73386 0.12624 0.78851 0.0
H1090 H 0.73912 0.07916 0.79327 0.0
H1091 H 0.74916 0.05227 0.82801 0.0
H1092 H 0.17387 0.48885 0.06703 0.0
H1093 H 0.14963 0.48017 0.03186 0.0
H1094 H 0.17565 0.40112 0.03246 0.0
H1095 H 0.1997 0.40945 0.06752 0.0
H1096 H 0.16653 0.46273 0.98779 0.0
H1097 H 0.10394 0.39384 0.02583 0.0
H1098 H 0.12156 0.41478 0.0439 0.0
H1099 H 0.13431 0.38544 0.03235 0.0
C1100 C 0.1742 0.46952 0.05987 0.0
C1101 C 0.18873 0.44983 0.07016 0.0
C1102 C 0.16038 0.46463 0.03974 0.0
C1103 C 0.16063 0.43993 0.02972 0.0
C1104 C 0.17484 0.4202 0.04015 0.0
H1105 H 0.11219 0.3595 0.90814 0.0
H1106 H 0.12954 0.37478 0.94497 0.0
C1107 C 0.1887 0.42506 0.06016 0.0
C1108 C 0.14715 0.4349 0.00762 0.0
H1109 H 0.10635 0.39498 0.9837 0.0
C1110 C 0.15311 0.4482 0.9869 0.0
C1111 C 0.12968 0.41592 1.00654 0.0
C1112 C 0.1218 0.40183 0.02838 0.0
C1113 C 0.14287 0.44214 0.96492 0.0
C1114 C 0.12592 0.42258 0.96375 0.0
C1115 C 0.11942 0.40989 0.98461 0.0
C1116 C 0.11562 0.41393 0.94096 0.0
C1117 C 0.15106 0.45589 0.94302 0.0
C1118 C 0.10194 0.43087 0.92644 0.0
C1119 C 0.09217 0.42224 0.90512 0.0
C1120 C 0.09582 0.39647 0.898 0.0
C1121 C 0.10942 0.37959 0.91275 0.0
C1122 C 0.11917 0.38823 0.93397 0.0
H1123 H 0.16775 0.46616 0.94626 0.0
H1124 H 0.15379 0.44205 0.9284 0.0
H1125 H 0.13735 0.47039 0.93719 0.0
H1126 H 0.09863 0.45068 0.93168 0.0
H1127 H 0.08187 0.43578 0.89419 0.0
H1128 H 0.84624 0.93887 0.32285 0.0
H1129 H 0.85492 0.916 0.28632 0.0
H1130 H 0.7841 0.88768 0.28398 0.0
H1131 H 0.77512 0.91055 0.3205 0.0
H1132 H 0.85108 0.86156 0.27517 0.0
H1133 H 0.79205 0.92541 0.21935 0.0
H1134 H 0.80171 0.93424 0.24867 0.0
H1135 H 0.77884 0.91122 0.24489 0.0
C1136 C 0.83248 0.92769 0.31468 0.0
C1137 C 0.8099 0.92674 0.32461 0.0
C1138 C 0.83752 0.9146 0.29379 0.0
C1139 C 0.82007 0.90045 0.28227 0.0
C1140 C 0.79772 0.89882 0.29241 0.0
H1141 H 0.81523 0.82392 0.14614 0.0
H1142 H 0.80641 0.84176 0.18495 0.0
C1143 C 0.79267 0.91181 0.31338 0.0
C1144 C 0.82519 0.88787 0.25939 0.0
H1145 H 0.8108 0.8902 0.20056 0.0
C1146 C 0.84229 0.86778 0.25883 0.0
C1147 C 0.81367 0.89601 0.23813 0.0
C1148 C 0.79566 0.91803 0.2376 0.0
C1149 C 0.84797 0.85536 0.23761 0.0
C1150 C 0.83667 0.86373 0.21625 0.0
C1151 C 0.81948 0.88377 0.21689 0.0
C1152 C 0.84239 0.85212 0.193 0.0
C1153 C 0.86564 0.83303 0.23839 0.0
C1154 C 0.86552 0.85214 0.18445 0.0
C1155 C 0.87063 0.84183 0.16228 0.0
C1156 C 0.85262 0.83168 0.14802 0.0
C1157 C 0.82946 0.83183 0.15657 0.0
C1158 C 0.82441 0.84194 0.1788 0.0
H1159 H 0.86716 0.82418 0.25634 0.0
H1160 H 0.86075 0.81783 0.22565 0.0
H1161 H 0.88327 0.84014 0.2337 0.0
H1162 H 0.8796 0.86052 0.19475 0.0
H1163 H 0.88858 0.84235 0.15606 0.0
H1164 H 0.31536 0.56433 0.55191 0.0
H1165 H 0.33803 0.57383 0.5167 0.0
H1166 H 0.38225 0.50605 0.53009 0.0
H1167 H 0.35966 0.49628 0.56545 0.0
H1168 H 0.40686 0.55343 0.51809 0.0
H1169 H 0.33484 0.53106 0.45438 0.0
H1170 H 0.32657 0.55275 0.4776 0.0
H1171 H 0.33514 0.51989 0.48474 0.0
C1172 C 0.32996 0.55144 0.54751 0.0
C1173 C 0.33557 0.52943 0.56154 0.0
C1174 C 0.34282 0.55685 0.52726 0.0
C1175 C 0.36159 0.54044 0.5206 0.0
C1176 C 0.36771 0.51886 0.53485 0.0
H1177 H 0.42972 0.54852 0.38258 0.0
H1178 H 0.41139 0.53245 0.41872 0.0
C1179 C 0.35475 0.51331 0.55505 0.0
C1180 C 0.37478 0.54595 0.49876 0.0
H1181 H 0.36819 0.55188 0.43882 0.0
C1182 C 0.39849 0.55291 0.50074 0.0
C1183 C 0.3639 0.54494 0.47613 0.0
C1184 C 0.33877 0.53655 0.47293 0.0
C1185 C 0.41135 0.5598 0.48071 0.0
C1186 C 0.40015 0.55985 0.45817 0.0
C1187 C 0.3767 0.55198 0.45612 0.0
C1188 C 0.4121 0.56914 0.43665 0.0
C1189 C 0.43681 0.56706 0.4838 0.0
C1190 C 0.41843 0.59508 0.43472 0.0
C1191 C 0.42878 0.60429 0.41416 0.0
C1192 C 0.43302 0.58775 0.39502 0.0
C1193 C 0.42685 0.56168 0.39707 0.0
C1194 C 0.41631 0.55251 0.41764 0.0
H1195 H 0.44445 0.55969 0.50086 0.0
H1196 H 0.44766 0.55942 0.46916 0.0
H1197 H 0.43791 0.58843 0.48364 0.0
H1198 H 0.41504 0.60834 0.44902 0.0
H1199 H 0.43355 0.6244 0.41327 0.0
H1200 H 0.20138 0.23248 0.40715 0.0
H1201 H 0.23562 0.22159 0.38285 0.0
H1202 H 0.25169 0.15526 0.42755 0.0
H1203 H 0.21748 0.16553 0.45144 0.0
H1204 H 0.28232 0.21837 0.3951 0.0
H1205 H 0.25452 0.12298 0.36335 0.0
H1206 H 0.23437 0.14541 0.37733 0.0
H1207 H 0.25399 0.12479 0.39494 0.0
C1208 C 0.21203 0.21538 0.41163 0.0
C1209 C 0.20648 0.19979 0.43119 0.0
C1210 C 0.23165 0.20922 0.39774 0.0
C1211 C 0.24606 0.18732 0.40307 0.0
C1212 C 0.24055 0.17183 0.42262 0.0
H1213 H 0.38452 0.12878 0.37095 0.0
H1214 H 0.3475 0.14399 0.38827 0.0
C1215 C 0.22096 0.17786 0.43639 0.0
C1216 C 0.26745 0.18109 0.38898 0.0
H1217 H 0.29575 0.13188 0.36001 0.0
C1218 C 0.28508 0.19959 0.38714 0.0
C1219 C 0.2711 0.15661 0.37843 0.0
C1220 C 0.25237 0.13642 0.37838 0.0
C1221 C 0.30656 0.19385 0.37594 0.0
C1222 C 0.31052 0.16905 0.36639 0.0
C1223 C 0.2927 0.15083 0.36755 0.0
C1224 C 0.33343 0.16128 0.35592 0.0
C1225 C 0.32525 0.21399 0.37484 0.0
C1226 C 0.33784 0.16615 0.332 0.0
C1227 C 0.35894 0.15726 0.32191 0.0
C1228 C 0.37604 0.14327 0.33558 0.0
C1229 C 0.37168 0.13906 0.35974 0.0
C1230 C 0.35057 0.14788 0.36975 0.0
H1231 H 0.31948 0.23248 0.38301 0.0
H1232 H 0.34156 0.20663 0.38408 0.0
H1233 H 0.32978 0.21779 0.35614 0.0
H1234 H 0.32474 0.17638 0.32103 0.0
H1235 H 0.36149 0.16064 0.30323 0.0
H1236 H 0.07901 0.09287 0.5695 0.0
H1237 H 0.06246 0.0589 0.59423 0.0
H1238 H 0.13037 0.04574 0.6283 0.0
H1239 H 0.14717 0.07914 0.60346 0.0
H1240 H 0.07827 0.00572 0.5976 0.0
H1241 H 0.0845 0.05541 0.6838 0.0
H1242 H 0.08595 0.07243 0.65586 0.0
H1243 H 0.11136 0.05468 0.6674 0.0
C1244 C 0.09045 0.08271 0.58221 0.0
C1245 C 0.11441 0.08889 0.58457 0.0
C1246 C 0.08093 0.0634 0.59639 0.0
C1247 C 0.09512 0.05011 0.61331 0.0
C1248 C 0.119 0.05618 0.6157 0.0
H1249 H 0.08239 0.92515 0.71369 0.0
H1250 H 0.09486 0.96078 0.68859 0.0
C1251 C 0.12854 0.07535 0.60151 0.0
C1252 C 0.08532 0.02919 0.62793 0.0
H1253 H 0.07615 0.01063 0.68502 0.0
C1254 C 0.07756 0.00683 0.6167 0.0
C1255 C 0.08454 0.03073 0.65283 0.0
C1256 C 0.09183 0.05468 0.66573 0.0
C1257 C 0.06974 0.98559 0.62978 0.0
C1258 C 0.06923 0.98701 0.65472 0.0
C1259 C 0.07664 0.00955 0.66591 0.0
C1260 C 0.06151 0.96515 0.66962 0.0
C1261 C 0.06288 0.96151 0.61682 0.0
C1262 C 0.03853 0.95589 0.66742 0.0
C1263 C 0.03135 0.93542 0.68168 0.0
C1264 C 0.04695 0.92395 0.6986 0.0
C1265 C 0.0699 0.93345 0.70086 0.0
C1266 C 0.07707 0.95386 0.68654 0.0
H1267 H 0.06994 0.96112 0.59864 0.0
H1268 H 0.06936 0.94385 0.62648 0.0
H1269 H 0.04335 0.96091 0.61543 0.0
H1270 H 0.02606 0.96468 0.65484 0.0
H1271 H 0.01348 0.92877 0.67956 0.0
H1272 H 0.18734 0.82029 0.80285 0.0
H1273 H 0.22458 0.80674 0.82221 0.0
H1274 H 0.18823 0.79484 0.88756 0.0
H1275 H 0.15079 0.80733 0.86812 0.0
H1276 H 0.24625 0.83038 0.85803 0.0
H1277 H 0.22914 0.72991 0.88561 0.0
H1278 H 0.2105 0.74741 0.86439 0.0
H1279 H 0.20672 0.75214 0.89559 0.0
C1280 C 0.1871 0.81414 0.82118 0.0
C1281 C 0.16593 0.8149 0.83386 0.0
C1282 C 0.2085 0.80656 0.83229 0.0
C1283 C 0.20927 0.79941 0.85631 0.0
C1284 C 0.18812 0.79969 0.86891 0.0
H1285 H 0.31619 0.81525 0.96135 0.0
H1286 H 0.28391 0.81867 0.93238 0.0
C1287 C 0.16671 0.80721 0.85781 0.0
C1288 C 0.23233 0.79378 0.86867 0.0
H1289 H 0.26127 0.75052 0.90579 0.0
C1290 C 0.24962 0.81273 0.86818 0.0
C1291 C 0.23704 0.7706 0.88165 0.0
C1292 C 0.21996 0.74874 0.88166 0.0
C1293 C 0.27085 0.80972 0.88123 0.0
C1294 C 0.27483 0.78737 0.89551 0.0
C1295 C 0.25814 0.76779 0.89505 0.0
C1296 C 0.2951 0.78513 0.91256 0.0
C1297 C 0.28873 0.83076 0.87986 0.0
C1298 C 0.31202 0.7648 0.91139 0.0
C1299 C 0.33065 0.7628 0.9281 0.0
C1300 C 0.33243 0.78094 0.9463 0.0
C1301 C 0.31541 0.8011 0.94742 0.0
C1302 C 0.29698 0.80315 0.93078 0.0
H1303 H 0.28672 0.84206 0.86312 0.0
H1304 H 0.28602 0.84428 0.89471 0.0
H1305 H 0.30704 0.82262 0.8812 0.0
H1306 H 0.3108 0.75051 0.89761 0.0
H1307 H 0.34335 0.74688 0.9271 0.0
H1308 H 0.46239 0.03701 0.21626 0.0
H1309 H 0.45356 1.00028 0.19136 0.0
H1310 H 0.51732 0.01193 0.15265 0.0
H1311 H 0.52654 0.04883 0.17775 0.0
H1312 H 0.44705 0.99893 0.1422 0.0
H1313 H 0.5221 0.9348 0.17251 0.0
H1314 H 0.51299 0.96332 0.18843 0.0
H1315 H 0.52969 0.96634 0.16192 0.0
C1316 C 0.47463 0.03186 0.20249 0.0
C1317 C 0.49527 0.0459 0.19912 0.0
C1318 C 0.4695 0.01081 0.18823 0.0
C1319 C 0.4849 1.00314 0.17034 0.0
C1320 C 0.50538 0.01725 0.16663 0.0
H1321 H 0.44288 0.89311 0.06175 0.0
H1322 H 0.45891 0.93051 0.08196 0.0
C1323 C 0.51054 0.03844 0.1809 0.0
C1324 C 0.47911 0.98051 0.15557 0.0
H1325 H 0.49674 0.91854 0.143 0.0
C1326 C 0.458 0.98142 0.14222 0.0
C1327 C 0.49329 0.95758 0.15587 0.0
C1328 C 0.51571 0.9552 0.17057 0.0
C1329 C 0.45057 0.95998 0.12931 0.0
C1330 C 0.46479 0.93708 0.12951 0.0
C1331 C 0.48598 0.93619 0.14274 0.0
C1332 C 0.45728 0.91352 0.11695 0.0
C1333 C 0.42717 0.96173 0.11619 0.0
C1334 C 0.45187 0.89118 0.12982 0.0
C1335 C 0.44287 0.86966 0.1183 0.0
C1336 C 0.43924 0.86999 0.09364 0.0
C1337 C 0.44562 0.89206 0.08072 0.0
C1338 C 0.45456 0.91358 0.09227 0.0
H1339 H 0.41617 0.97856 0.12186 0.0
H1340 H 0.43034 0.96392 0.09699 0.0
H1341 H 0.41709 0.94386 0.1189 0.0
H1342 H 0.45397 0.89067 0.14888 0.0
H1343 H 0.43845 0.85288 0.12876 0.0
H1344 H 0.87602 0.3648 0.63307 0.0
H1345 H 0.83801 0.34922 0.61907 0.0
H1346 H 0.83121 0.30495 0.68337 0.0
H1347 H 0.86967 0.31972 0.69733 0.0
H1348 H 0.82583 0.29241 0.61558 0.0
H1349 H 0.76816 0.35219 0.67355 0.0
H1350 H 0.7977 0.36151 0.66631 0.0
H1351 H 0.79346 0.33535 0.68666 0.0
C1352 C 0.86663 0.35154 0.6442 0.0
C1353 C 0.87604 0.34346 0.66632 0.0
C1354 C 0.84482 0.34281 0.63621 0.0
C1355 C 0.83183 0.32607 0.65025 0.0
C1356 C 0.84093 0.31808 0.6724 0.0
H1357 H 0.70846 0.24453 0.59522 0.0
H1358 H 0.74386 0.25442 0.61862 0.0
C1359 C 0.86286 0.32666 0.68037 0.0
C1360 C 0.80897 0.31664 0.64129 0.0
H1361 H 0.74932 0.32515 0.6463 0.0
C1362 C 0.80907 0.29929 0.62243 0.0
C1363 C 0.78725 0.32584 0.65026 0.0
C1364 C 0.7864 0.34485 0.67025 0.0
C1365 C 0.78792 0.29121 0.61197 0.0
C1366 C 0.76615 0.30069 0.62071 0.0
C1367 C 0.76606 0.31775 0.63982 0.0
C1368 C 0.74348 0.29492 0.60874 0.0
C1369 C 0.78897 0.27342 0.59105 0.0
C1370 C 0.73121 0.31459 0.59608 0.0
C1371 C 0.71109 0.30904 0.5827 0.0
C1372 C 0.70273 0.2837 0.58185 0.0
C1373 C 0.71444 0.26423 0.59546 0.0
C1374 C 0.73472 0.2698 0.60876 0.0
H1375 H 0.80718 0.27088 0.58434 0.0
H1376 H 0.78257 0.25414 0.5963 0.0
H1377 H 0.77732 0.28101 0.57645 0.0
H1378 H 0.73768 0.33411 0.5959 0.0
H1379 H 0.70243 0.32455 0.57259 0.0
H1380 H 0.98645 0.45599 0.77564 0.0
H1381 H 0.97547 0.48419 0.80808 0.0
H1382 H 0.96996 0.41782 0.85421 0.0
H1383 H 0.98139 0.38926 0.82159 0.0
H1384 H 0.9329 0.48268 0.83102 0.0
H1385 H 0.00808 0.46809 0.89461 0.0
H1386 H 0.00981 0.45866 0.86405 0.0
H1387 H 0.99416 0.43924 0.8847 0.0
C1388 C 0.98314 0.44734 0.79274 0.0
C1389 C 0.98459 0.4204 0.79604 0.0
C1390 C 0.97688 0.46352 0.81128 0.0
C1391 C 0.97197 0.45319 0.8336 0.0
C1392 C 0.974 0.42627 0.83722 0.0
H1393 H 0.91663 0.53203 0.95769 0.0
H1394 H 0.93207 0.49974 0.93025 0.0
C1395 C 0.98038 0.40997 0.81857 0.0
C1396 C 0.96318 0.47075 0.8523 0.0
H1397 H 0.97634 0.49529 0.90665 0.0
C1398 C 0.9424 0.48541 0.84757 0.0
C1399 C 0.97552 0.47417 0.87393 0.0
C1400 C 0.99823 0.45939 0.87968 0.0
C1401 C 0.93371 0.50353 0.86372 0.0
C1402 C 0.94632 0.50746 0.88509 0.0
C1403 C 0.96681 0.49237 0.89016 0.0
C1404 C 0.93843 0.52728 0.90224 0.0
C1405 C 0.91094 0.51817 0.85784 0.0
C1406 C 0.93735 0.55358 0.89579 0.0
C1407 C 0.9284 0.57208 0.91136 0.0
C1408 C 0.92037 0.56466 0.93375 0.0
C1409 C 0.92224 0.53837 0.94043 0.0
C1410 C 0.93124 0.51989 0.92485 0.0
H1411 H 0.90049 0.50837 0.84396 0.0
H1412 H 0.89992 0.52041 0.87376 0.0
H1413 H 0.91504 0.53775 0.85115 0.0
H1414 H 0.94313 0.55975 0.87853 0.0
H1415 H 0.92714 0.59209 0.90559 0.0
H1416 H 0.82106 0.65149 0.05821 0.0
H1417 H 0.78755 0.6395 0.08219 0.0
H1418 H 0.79289 0.71042 0.12094 0.0
H1419 H 0.82628 0.72282 0.0969 0.0
H1420 H 0.78234 0.63359 0.13186 0.0
H1421 H 0.72469 0.71304 0.0945 0.0
H1422 H 0.75228 0.70336 0.08134 0.0
H1423 H 0.75216 0.72293 0.10736 0.0
C1424 C 0.81529 0.66451 0.07194 0.0
C1425 C 0.82629 0.68828 0.07541 0.0
C1426 C 0.79611 0.65758 0.08565 0.0
C1427 C 0.78748 0.67427 0.10304 0.0
C1428 C 0.79901 0.69748 0.10729 0.0
H1429 H 0.65925 0.66806 0.1863 0.0
H1430 H 0.69764 0.67972 0.17078 0.0
C1431 C 0.8182 0.70445 0.09359 0.0
C1432 C 0.76592 0.66772 0.11611 0.0
H1433 H 0.70849 0.68686 0.12407 0.0
C1434 C 0.7662 0.64525 0.13023 0.0
C1435 C 0.74489 0.683 0.11396 0.0
C1436 C 0.74329 0.70682 0.09834 0.0
C1437 C 0.74601 0.63767 0.14232 0.0
C1438 C 0.72487 0.6527 0.13983 0.0
C1439 C 0.72472 0.67539 0.12601 0.0
C1440 C 0.70241 0.64477 0.15057 0.0
C1441 C 0.74759 0.61377 0.15782 0.0
C1442 C 0.69231 0.62127 0.14435 0.0
C1443 C 0.67047 0.61448 0.15331 0.0
C1444 C 0.65812 0.63115 0.16853 0.0
C1445 C 0.66839 0.6546 0.17489 0.0
C1446 C 0.69027 0.66138 0.16592 0.0
H1447 H 0.7661 0.6091 0.16346 0.0
H1448 H 0.73668 0.61611 0.1738 0.0
H1449 H 0.74099 0.59709 0.14773 0.0
H1450 H 0.70109 0.60838 0.13216 0.0
H1451 H 0.6632 0.59617 0.14822 0.0
H1452 H 0.59903 0.43809 0.46526 0.0
H1453 H 0.58262 0.4727 0.43962 0.0
H1454 H 0.58898 0.42291 0.37937 0.0
H1455 H 0.60568 0.38834 0.40476 0.0
H1456 H 0.60429 0.49606 0.4012 0.0
H1457 H 0.52102 0.45115 0.37283 0.0
H1458 H 0.53835 0.4394 0.39797 0.0
H1459 H 0.5466 0.43067 0.36851 0.0
C1460 C 0.59693 0.43445 0.44655 0.0
C1461 C 0.60372 0.41033 0.43712 0.0
C1462 C 0.58744 0.45426 0.43194 0.0
C1463 C 0.58428 0.45034 0.40761 0.0
C1464 C 0.59075 0.42622 0.39817 0.0
H1465 H 0.55397 0.52855 0.27878 0.0
H1466 H 0.56188 0.49993 0.31247 0.0
C1467 C 0.60028 0.40642 0.41275 0.0
C1468 C 0.5754 0.47179 0.39184 0.0
H1469 H 0.53336 0.48722 0.34973 0.0
C1470 C 0.58857 0.49435 0.39019 0.0
C1471 C 0.55482 0.46961 0.3776 0.0
C1472 C 0.53923 0.44651 0.37944 0.0
C1473 C 0.5825 0.51408 0.37371 0.0
C1474 C 0.56247 0.51137 0.35876 0.0
C1475 C 0.54873 0.48931 0.36116 0.0
C1476 C 0.55698 0.52955 0.33873 0.0
C1477 C 0.59827 0.53698 0.37155 0.0
C1478 C 0.55132 0.55589 0.3422 0.0
C1479 C 0.54686 0.57255 0.32274 0.0
C1480 C 0.54793 0.56302 0.2996 0.0
C1481 C 0.55314 0.5366 0.29635 0.0
C1482 C 0.55761 0.52012 0.31563 0.0
H1483 H 0.61521 0.53396 0.3815 0.0
H1484 H 0.60221 0.54098 0.35274 0.0
H1485 H 0.5891 0.55434 0.3787 0.0
H1486 H 0.5503 0.56353 0.35989 0.0
H1487 H 0.54265 0.59277 0.32577 0.0
H1488 H 0.33856 0.3328 0.19744 0.0
H1489 H 0.36398 0.29682 0.21227 0.0
H1490 H 0.35448 0.25719 0.14634 0.0
H1491 H 0.32915 0.29289 0.13144 0.0
H1492 H 0.35786 0.24137 0.21693 0.0
H1493 H 0.42638 0.26677 0.15222 0.0
H1494 H 0.40186 0.28829 0.15879 0.0
H1495 H 0.39773 0.26138 0.13947 0.0
C1496 C 0.34163 0.31626 0.18624 0.0
C1497 C 0.33216 0.31593 0.1631 0.0
C1498 C 0.35615 0.29572 0.19473 0.0
C1499 C 0.3614 0.27451 0.18027 0.0
C1500 C 0.35101 0.27356 0.15764 0.0
H1501 H 0.44597 0.13329 0.21686 0.0
H1502 H 0.41206 0.16262 0.20725 0.0
C1503 C 0.33662 0.29406 0.14912 0.0
C1504 C 0.37901 0.25426 0.18807 0.0
H1505 H 0.43342 0.22894 0.17505 0.0
C1506 C 0.37438 0.23856 0.2078 0.0
C1507 C 0.40063 0.25079 0.17623 0.0
C1508 C 0.40714 0.26781 0.15563 0.0
C1509 C 0.39086 0.21946 0.21594 0.0
C1510 C 0.41235 0.21591 0.2039 0.0
C1511 C 0.41684 0.23154 0.18414 0.0
C1512 C 0.43147 0.19769 0.21234 0.0
C1513 C 0.3855 0.20372 0.23767 0.0
C1514 C 0.45345 0.20761 0.21858 0.0
C1515 C 0.47266 0.19105 0.22375 0.0
C1516 C 0.47042 0.16411 0.22283 0.0
C1517 C 0.44817 0.15399 0.21765 0.0
C1518 C 0.4288 0.17072 0.21229 0.0
H1519 H 0.37016 0.2119 0.24732 0.0
H1520 H 0.38138 0.18373 0.23239 0.0
H1521 H 0.40107 0.2026 0.24986 0.0
H1522 H 0.45592 0.2283 0.21883 0.0
H1523 H 0.48951 0.19946 0.22795 0.0
H1524 H 0.93704 0.31049 0.74539 0.0
H1525 H 0.90924 0.277 0.75621 0.0
H1526 H 0.94812 0.26255 0.82135 0.0
H1527 H 0.97605 0.29548 0.81064 0.0
H1528 H 0.93737 0.21771 0.79811 0.0
H1529 H 0.85773 0.28188 0.80592 0.0
H1530 H 0.87242 0.28355 0.77808 0.0
H1531 H 0.88715 0.29426 0.80442 0.0
C1532 C 0.93964 0.30023 0.76205 0.0
C1533 C 0.9588 0.30578 0.77715 0.0
C1534 C 0.92365 0.28118 0.76826 0.0
C1535 C 0.92644 0.26744 0.78972 0.0
C1536 C 0.94558 0.27289 0.80472 0.0
H1537 H 0.83241 0.17909 0.87351 0.0
H1538 H 0.85711 0.21123 0.85501 0.0
C1539 C 0.96154 0.29183 0.79855 0.0
C1540 C 0.90978 0.2471 0.7967 0.0
H1541 H 0.85266 0.23723 0.81215 0.0
C1542 C 0.91881 0.22192 0.80102 0.0
C1543 C 0.88561 0.25269 0.8007 0.0
C1544 C 0.8751 0.27958 0.79725 0.0
C1545 C 0.90446 0.2023 0.8096 0.0
C1546 C 0.88027 0.20786 0.81358 0.0
C1547 C 0.87116 0.23294 0.80892 0.0
C1548 C 0.86456 0.18841 0.82409 0.0
C1549 C 0.91556 0.17606 0.81521 0.0
C1550 C 0.86018 0.16499 0.8127 0.0
C1551 C 0.84623 0.14636 0.82339 0.0
C1552 C 0.83627 0.15087 0.84564 0.0
C1553 C 0.84017 0.1747 0.85662 0.0
C1554 C 0.85413 0.19323 0.84596 0.0
H1555 H 0.93513 0.17668 0.81627 0.0
H1556 H 0.90906 0.16838 0.83222 0.0
H1557 H 0.91073 0.16239 0.80108 0.0
H1558 H 0.8677 0.16102 0.79562 0.0
H1559 H 0.84368 0.12823 0.81445 0.0
H1560 H 0.09935 0.55274 0.07838 0.0
H1561 H 0.06188 0.57377 0.06598 0.0
H1562 H 0.07349 0.63466 0.11591 0.0
H1563 H 0.11134 0.6146 0.12755 0.0
H1564 H 0.02212 0.58554 0.09086 0.0
H1565 H 0.05982 0.67548 0.05593 0.0
H1566 H 0.07781 0.64707 0.06299 0.0
H1567 H 0.069 0.669 0.08591 0.0
C1568 C 0.09412 0.57081 0.08649 0.0
C1569 C 0.10853 0.582 0.10391 0.0
C1570 C 0.07258 0.58269 0.0795 0.0
C1571 C 0.06505 0.60604 0.08969 0.0
C1572 C 0.07915 0.61697 0.10738 0.0
H1573 H 0.94464 0.70886 0.09121 0.0
H1574 H 0.98042 0.68233 0.09865 0.0
C1575 C 0.10069 0.60522 0.11428 0.0
C1576 C 0.04233 0.61892 0.08222 0.0
H1577 H 0.01827 0.67684 0.06313 0.0
C1578 C 0.02129 0.60539 0.08451 0.0
C1579 C 0.04124 0.64477 0.07371 0.0
C1580 C 0.0632 0.65983 0.06924 0.0
C1581 C 0.99918 0.61742 0.07954 0.0
C1582 C 0.99814 0.64357 0.07206 0.0
C1583 C 0.01915 0.65684 0.06909 0.0
C1584 C 0.97543 0.65802 0.06824 0.0
C1585 C 0.97701 0.60248 0.0831 0.0
C1586 C 0.96071 0.65304 0.04869 0.0
C1587 C 0.94025 0.66829 0.04435 0.0
C1588 C 0.93419 0.68861 0.05954 0.0
C1589 C 0.94878 0.69321 0.07928 0.0
C1590 C 0.96922 0.6781 0.08355 0.0
H1591 H 0.98068 0.5834 0.09174 0.0
H1592 H 0.9644 0.61375 0.09402 0.0
H1593 H 0.96832 0.59925 0.0657 0.0
H1594 H 0.96544 0.63791 0.03643 0.0
H1595 H 0.92975 0.66484 0.02865 0.0
H1596 H 0.64797 0.85294 0.36771 0.0
H1597 H 0.62692 0.81648 0.35145 0.0
H1598 H 0.68954 0.79156 0.31496 0.0
H1599 H 0.71117 0.82715 0.33221 0.0
H1600 H 0.61721 0.80602 0.30597 0.0
H1601 H 0.67083 0.72466 0.34529 0.0
H1602 H 0.67356 0.75753 0.35505 0.0
H1603 H 0.68764 0.74701 0.32845 0.0
C1604 C 0.6575 0.83941 0.35669 0.0
C1605 C 0.6814 0.84303 0.35146 0.0
C1606 C 0.64533 0.81867 0.34719 0.0
C1607 C 0.65668 0.80102 0.3322 0.0
C1608 C 0.68049 0.80455 0.32687 0.0
H1609 H 0.59715 0.67015 0.25468 0.0
H1610 H 0.62323 0.7048 0.26733 0.0
C1611 C 0.69276 0.8252 0.33651 0.0
C1612 C 0.64322 0.7796 0.32153 0.0
H1613 H 0.64128 0.71378 0.31724 0.0
C1614 C 0.62252 0.78587 0.30845 0.0
C1615 C 0.65018 0.75325 0.32463 0.0
C1616 C 0.67164 0.74512 0.33929 0.0
C1617 C 0.60852 0.7666 0.29863 0.0
C1618 C 0.61529 0.74032 0.30203 0.0
C1619 C 0.63624 0.73398 0.31457 0.0
C1620 C 0.59983 0.71924 0.29423 0.0
C1621 C 0.58646 0.77444 0.28478 0.0
C1622 C 0.57822 0.71575 0.30535 0.0
C1623 C 0.56342 0.69601 0.29832 0.0
C1624 C 0.56985 0.67926 0.27993 0.0
C1625 C 0.5916 0.68273 0.26883 0.0
C1626 C 0.60655 0.70247 0.27605 0.0
H1627 H 0.58657 0.79507 0.27914 0.0
H1628 H 0.58442 0.76225 0.26888 0.0
H1629 H 0.57085 0.77167 0.29602 0.0
H1630 H 0.57283 0.72831 0.31959 0.0
H1631 H 0.54685 0.694 0.30731 0.0
H1632 H 0.61908 0.32903 0.56623 0.0
H1633 H 0.58908 0.36244 0.57623 0.0
H1634 H 0.53392 0.31029 0.55736 0.0
H1635 H 0.56339 0.27718 0.54762 0.0
H1636 H 0.52901 0.36537 0.53971 0.0
H1637 H 0.54516 0.35197 0.63661 0.0
H1638 H 0.56968 0.35697 0.61735 0.0
H1639 H 0.55403 0.32737 0.61594 0.0
C1640 C 0.60054 0.32493 0.56403 0.0
C1641 C 0.59349 0.3005 0.55642 0.0
C1642 C 0.58349 0.34392 0.56976 0.0
C1643 C 0.55935 0.33867 0.56764 0.0
C1644 C 0.55246 0.31467 0.55911 0.0
H1645 H 0.42392 0.36762 0.6164 0.0
H1646 H 0.46403 0.35377 0.60651 0.0
C1647 C 0.56933 0.29576 0.55365 0.0
C1648 C 0.54077 0.35715 0.57539 0.0
H1649 H 0.5104 0.37445 0.62459 0.0
C1650 C 0.52523 0.36805 0.55825 0.0
C1651 C 0.53584 0.36022 0.5996 0.0
C1652 C 0.55194 0.34854 0.61858 0.0
C1653 C 0.5042 0.38084 0.56471 0.0
C1654 C 0.49868 0.38271 0.5889 0.0
C1655 C 0.51479 0.37298 0.60607 0.0
C1656 C 0.47511 0.39196 0.59649 0.0
C1657 C 0.48727 0.39079 0.54566 0.0
C1658 C 0.46824 0.41811 0.59449 0.0
C1659 C 0.44535 0.42619 0.60039 0.0
C1660 C 0.4289 0.4082 0.60829 0.0
C1661 C 0.43614 0.38208 0.61072 0.0
C1662 C 0.45903 0.37408 0.60496 0.0
H1663 H 0.49331 0.38583 0.52766 0.0
H1664 H 0.46954 0.38267 0.54825 0.0
H1665 H 0.48539 0.41214 0.54681 0.0
H1666 H 0.48051 0.4322 0.58817 0.0
H1667 H 0.44054 0.44652 0.5987 0.0
H1668 H 0.16085 0.6433 0.64049 0.0
H1669 H 0.13637 0.67808 0.65667 0.0
H1670 H 0.19287 0.69739 0.70475 0.0
H1671 H 0.21763 0.66245 0.68858 0.0
H1672 H 0.12146 0.68583 0.70263 0.0
H1673 H 0.1766 0.76672 0.67203 0.0
H1674 H 0.18041 0.73423 0.66117 0.0
H1675 H 0.19133 0.74224 0.69007 0.0
C1676 C 0.16803 0.6547 0.6547 0.0
C1677 C 0.19121 0.65006 0.66325 0.0
C1678 C 0.15404 0.67469 0.66385 0.0
C1679 C 0.16289 0.69055 0.6817 0.0
C1680 C 0.18586 0.68573 0.69064 0.0
H1681 H 0.0808 0.82245 0.74065 0.0
H1682 H 0.11272 0.78965 0.73618 0.0
C1683 C 0.19995 0.66573 0.68142 0.0
C1684 C 0.14778 0.712 0.69071 0.0
H1685 H 0.14142 0.77789 0.69142 0.0
C1686 C 0.12596 0.70595 0.70043 0.0
C1687 C 0.15374 0.73826 0.68794 0.0
C1688 C 0.1767 0.74591 0.67709 0.0
C1689 C 0.10961 0.7254 0.70667 0.0
C1690 C 0.11511 0.75157 0.7029 0.0
C1691 C 0.13734 0.75775 0.69429 0.0
C1692 C 0.09694 0.77239 0.70527 0.0
C1693 C 0.08622 0.71783 0.71662 0.0
C1694 C 0.07795 0.77381 0.68909 0.0
C1695 C 0.05999 0.79247 0.69151 0.0
C1696 C 0.06067 0.81012 0.71016 0.0
C1697 C 0.08 0.80917 0.72606 0.0
C1698 C 0.09812 0.79045 0.72357 0.0
H1699 H 0.0869 0.69775 0.72379 0.0
H1700 H 0.08074 0.73121 0.73085 0.0
H1701 H 0.07252 0.719 0.70237 0.0
H1702 H 0.07688 0.76021 0.67472 0.0
H1703 H 0.04534 0.79279 0.67896 0.0
H1704 H 0.4464 0.82819 0.98769 0.0
H1705 H 0.4814 0.85216 0.97685 0.0
H1706 H 0.48691 0.80833 0.91275 0.0
H1707 H 0.45195 0.78457 0.92319 0.0
H1708 H 0.5266 0.83156 0.9696 0.0
H1709 H 0.49313 0.88218 0.88859 0.0
H1710 H 0.47378 0.86752 0.90958 0.0
H1711 H 0.48877 0.84797 0.88812 0.0
C1712 C 0.45482 0.8239 0.9711 0.0
C1713 C 0.44623 0.80443 0.95631 0.0
C1714 C 0.4749 0.83759 0.96497 0.0
C1715 C 0.48664 0.8323 0.94383 0.0
C1716 C 0.4779 0.81316 0.9289 0.0
H1717 H 0.61547 0.87295 0.87492 0.0
H1718 H 0.57783 0.85552 0.8871 0.0
C1719 C 0.45792 0.79946 0.93502 0.0
C1720 C 0.50881 0.84559 0.93792 0.0
H1721 H 0.53494 0.88103 0.8948 0.0
C1722 C 0.52836 0.84264 0.95338 0.0
C1723 C 0.51113 0.85997 0.91672 0.0
C1724 C 0.49053 0.86485 0.89989 0.0
C1725 C 0.55037 0.85288 0.94783 0.0
C1726 C 0.5528 0.86689 0.92642 0.0
C1727 C 0.53312 0.87022 0.91117 0.0
C1728 C 0.57574 0.87767 0.91922 0.0
C1729 C 0.57103 0.84779 0.96455 0.0
C1730 C 0.58703 0.89617 0.93308 0.0
C1731 C 0.6087 0.90604 0.92626 0.0
C1732 C 0.61952 0.89774 0.90533 0.0
C1733 C 0.60794 0.87947 0.89134 0.0
C1734 C 0.58629 0.86962 0.89818 0.0
H1735 H 0.56777 0.83154 0.97696 0.0
H1736 H 0.58737 0.84326 0.95469 0.0
H1737 H 0.57405 0.86533 0.97518 0.0
H1738 H 0.57906 0.90306 0.94916 0.0
H1739 H 0.61713 0.91992 0.93757 0.0
H1740 H 0.92099 0.09941 0.43036 0.0
H1741 H 0.95842 0.1189 0.44137 0.0
H1742 H 0.99589 0.04833 0.42376 0.0
H1743 H 0.95857 0.02888 0.41212 0.0
H1744 H 0.99346 0.10288 0.47534 0.0
H1745 H 0.02892 0.10357 0.38424 0.0
H1746 H 0.99816 0.09847 0.39003 0.0
H1747 H 0.01966 0.07289 0.39542 0.0
C1748 C 0.93718 0.08803 0.42872 0.0
C1749 C 0.93671 0.0626 0.42018 0.0
C1750 C 0.95857 0.09916 0.43517 0.0
C1751 C 0.98002 0.08523 0.43308 0.0
C1752 C 0.97962 0.05961 0.42518 0.0
H1753 H 0.12141 0.1535 0.45301 0.0
H1754 H 0.09143 0.12002 0.44827 0.0
C1755 C 0.9582 0.04842 0.41878 0.0
C1756 C 1.00269 0.09784 0.43892 0.0
H1757 H 0.05247 0.1215 0.41412 0.0
C1758 C 1.00647 0.10669 0.462 0.0
C1759 C 0.01983 0.10264 0.42158 0.0
C1760 C 0.0165 0.0941 0.39637 0.0
C1761 C 0.02649 0.12085 0.46802 0.0
C1762 C 0.04301 0.12676 0.45042 0.0
C1763 C 0.03985 0.11688 0.42762 0.0
C1764 C 0.06167 0.146 0.4545 0.0
C1765 C 0.02955 0.12985 0.49312 0.0
C1766 C 0.0549 0.17159 0.45942 0.0
C1767 C 0.07178 0.19052 0.46191 0.0
C1768 C 0.09594 0.18444 0.45952 0.0
C1769 C 0.10292 0.15872 0.45496 0.0
C1770 C 0.08584 0.13965 0.45224 0.0
H1771 H 0.02019 0.11726 0.5057 0.0
H1772 H 0.04851 0.13016 0.4984 0.0
H1773 H 0.02199 0.14976 0.4946 0.0
H1774 H 0.03641 0.1771 0.46082 0.0
H1775 H 0.06578 0.21012 0.46548 0.0
loop_
_geom_bond_atom_site_label_1
_geom_bond_atom_site_label_2
_geom_bond_distance
_geom_bond_site_symmetry_2
_ccdc_geom_bond_type
Sm0 C2 2.846 . S
Sm0 O20 2.543 . S
Sm0 O21 2.450 . S
Sm0 O22 2.681 . S
Sm0 O23 2.464 . S
Sm0 O24 2.396 . S
Sm0 O28 2.386 . S
Sm0 O31 2.408 . S
Sm1 C11 2.846 . S
Sm1 O22 2.386 . S
Sm1 O25 2.408 . S
Sm1 O26 2.543 . S
Sm1 O27 2.450 . S
Sm1 O28 2.681 . S
Sm1 O29 2.464 . S
Sm1 O30 2.396 . S
C2 Sm0 2.846 . S
C2 C3 1.506 . S
C2 O20 1.261 . S
C2 O21 1.242 . S
C3 C2 1.506 . S
C3 C4 1.358 . S
C3 C8 1.382 . S
C4 C3 1.358 . S
C4 C5 1.385 . S
C4 H32 0.930 . S
C5 C4 1.385 . S
C5 C6 1.395 . S
C5 H33 0.929 . S
C6 C5 1.395 . S
C6 C7 1.335 . S
C7 C6 1.335 . S
C7 C8 1.398 . S
C7 H34 0.930 . S
C8 C3 1.382 . S
C8 C7 1.398 . S
C8 H35 0.929 . S
C9 O22 1.271 . S
C9 O23 1.251 . S
C10 O24 1.252 . S
C10 O25 1.272 . S
C11 Sm1 2.846 . S
C11 C12 1.506 . S
C11 O26 1.261 . S
C11 O27 1.242 . S
C12 C11 1.506 . S
C12 C13 1.358 . S
C12 C17 1.382 . S
C13 C12 1.358 . S
C13 C14 1.385 . S
C13 H36 0.930 . S
C14 C13 1.385 . S
C14 C15 1.395 . S
C14 H37 0.929 . S
C15 C14 1.395 . S
C15 C16 1.335 . S
C16 C15 1.335 . S
C16 C17 1.398 . S
C16 H38 0.930 . S
C17 C12 1.382 . S
C17 C16 1.398 . S
C17 H39 0.929 . S
C18 O28 1.271 . S
C18 O29 1.251 . S
C19 O30 1.252 . S
C19 O31 1.272 . S
O20 Sm0 2.543 . S
O20 C2 1.261 . S
O21 Sm0 2.450 . S
O21 C2 1.242 . S
O22 Sm0 2.681 . S
O22 Sm1 2.386 . S
O22 C9 1.271 . S
O23 Sm0 2.464 . S
O23 C9 1.251 . S
O24 Sm0 2.396 . S
O24 C10 1.252 . S
O25 Sm1 2.408 . S
O25 C10 1.272 . S
O26 Sm1 2.543 . S
O26 C11 1.261 . S
O27 Sm1 2.450 . S
O27 C11 1.242 . S
O28 Sm0 2.386 . S
O28 Sm1 2.681 . S
O28 C18 1.271 . S
O29 Sm1 2.464 . S
O29 C18 1.251 . S
O30 Sm1 2.396 . S
O30 C19 1.252 . S
O31 Sm0 2.408 . S
O31 C19 1.272 . S
H32 C4 0.930 . S
H33 C5 0.929 . S
H34 C7 0.930 . S
H35 C8 0.929 . S
H36 C13 0.930 . S
H37 C14 0.929 . S
H38 C16 0.930 . S
H39 C17 0.929 . S
Sm40 C42 2.846 . S
Sm40 O60 2.543 . S
Sm40 O61 2.450 . S
Sm40 O62 2.681 1_655 S
Sm40 O63 2.464 1_655 S
Sm40 O64 2.396 1_655 S
Sm40 O68 2.387 1_655 S
Sm40 O71 2.408 . S
Sm41 C51 2.846 . S
Sm41 O62 2.386 . S
Sm41 O65 2.408 . S
Sm41 O66 2.543 . S
Sm41 O67 2.450 . S
Sm41 O68 2.679 . S
Sm41 O69 2.464 . S
Sm41 O70 2.396 . S
C42 Sm40 2.846 . S
C42 C43 1.506 . S
C42 O60 1.261 . S
C42 O61 1.242 . S
C43 C42 1.506 . S
C43 C44 1.358 . S
C43 C48 1.382 . S
C44 C43 1.358 . S
C44 C45 1.385 . S
C44 H72 0.930 . S
C45 C44 1.385 . S
C45 C46 1.395 . S
C45 H73 0.929 . S
C46 C45 1.395 . S
C46 C47 1.335 . S
C47 C46 1.335 . S
C47 C48 1.398 . S
C47 H74 0.930 . S
C48 C43 1.382 . S
C48 C47 1.398 . S
C48 H75 0.929 . S
C49 O62 1.271 . S
C49 O63 1.251 . S
C50 O64 1.252 . S
C50 O65 1.272 . S
C51 Sm41 2.846 . S
C51 C52 1.506 . S
C51 O66 1.261 . S
C51 O67 1.242 . S
C52 C51 1.506 . S
C52 C53 1.358 . S
C52 C57 1.382 . S
C53 C52 1.358 . S
C53 C54 1.385 . S
C53 H76 0.930 . S
C54 C53 1.385 . S
C54 C55 1.395 . S
C54 H77 0.929 . S
C55 C54 1.395 . S
C55 C56 1.335 . S
C56 C55 1.335 . S
C56 C57 1.398 . S
C56 H78 0.930 . S
C57 C52 1.382 . S
C57 C56 1.398 . S
C57 H79 0.929 . S
C58 O68 1.272 1_655 S
C58 O69 1.251 1_655 S
C59 O70 1.252 . S
C59 O71 1.272 1_455 S
O60 Sm40 2.543 . S
O60 C42 1.261 . S
O61 Sm40 2.450 . S
O61 C42 1.242 . S
O62 Sm40 2.681 1_455 S
O62 Sm41 2.386 . S
O62 C49 1.271 . S
O63 Sm40 2.464 1_455 S
O63 C49 1.251 . S
O64 Sm40 2.396 1_455 S
O64 C50 1.252 . S
O65 Sm41 2.408 . S
O65 C50 1.272 . S
O66 Sm41 2.543 . S
O66 C51 1.261 . S
O67 Sm41 2.450 . S
O67 C51 1.242 . S
O68 Sm40 2.387 1_455 S
O68 Sm41 2.679 . S
O68 C58 1.272 1_455 S
O69 Sm41 2.464 . S
O69 C58 1.251 1_455 S
O70 Sm41 2.396 . S
O70 C59 1.252 . S
O71 Sm40 2.408 . S
O71 C59 1.272 1_655 S
H72 C44 0.930 . S
H73 C45 0.929 . S
H74 C47 0.930 . S
H75 C48 0.929 . S
H76 C53 0.930 . S
H77 C54 0.929 . S
H78 C56 0.930 . S
H79 C57 0.929 . S
Sm80 C82 2.846 . S
Sm80 O100 2.543 . S
Sm80 O101 2.450 . S
Sm80 O102 2.681 1_554 S
Sm80 O103 2.464 1_554 S
Sm80 O104 2.396 1_554 S
Sm80 O108 2.386 . S
Sm80 O111 2.408 . S
Sm81 C91 2.846 . S
Sm81 O102 2.386 . S
Sm81 O105 2.408 . S
Sm81 O106 2.543 . S
Sm81 O107 2.450 . S
Sm81 O108 2.681 1_556 S
Sm81 O109 2.464 . S
Sm81 O110 2.396 . S
C82 Sm80 2.846 . S
C82 C83 1.506 . S
C82 O100 1.261 . S
C82 O101 1.242 . S
C83 C82 1.506 . S
C83 C84 1.358 . S
C83 C88 1.382 . S
C84 C83 1.358 . S
C84 C85 1.385 . S
C84 H112 0.930 . S
C85 C84 1.385 . S
C85 C86 1.395 . S
C85 H113 0.929 . S
C86 C85 1.395 . S
C86 C87 1.335 . S
C87 C86 1.335 . S
C87 C88 1.398 . S
C87 H114 0.930 . S
C88 C83 1.382 . S
C88 C87 1.398 . S
C88 H115 0.929 . S
C89 O102 1.271 . S
C89 O103 1.251 . S
C90 O104 1.252 . S
C90 O105 1.272 . S
C91 Sm81 2.846 . S
C91 C92 1.506 . S
C91 O106 1.261 . S
C91 O107 1.242 . S
C92 C91 1.506 . S
C92 C93 1.358 . S
C92 C97 1.382 . S
C93 C92 1.358 . S
C93 C94 1.385 . S
C93 H116 0.930 . S
C94 C93 1.385 . S
C94 C95 1.395 . S
C94 H117 0.929 . S
C95 C94 1.395 . S
C95 C96 1.335 . S
C96 C95 1.335 . S
C96 C97 1.398 . S
C96 H118 0.930 . S
C97 C92 1.382 . S
C97 C96 1.398 . S
C97 H119 0.929 . S
C98 O108 1.271 . S
C98 O109 1.251 1_554 S
C99 O110 1.252 . S
C99 O111 1.272 1_556 S
O100 Sm80 2.543 . S
O100 C82 1.261 . S
O101 Sm80 2.450 . S
O101 C82 1.242 . S
O102 Sm80 2.681 1_556 S
O102 Sm81 2.386 . S
O102 C89 1.271 . S
O103 Sm80 2.464 1_556 S
O103 C89 1.251 . S
O104 Sm80 2.396 1_556 S
O104 C90 1.252 . S
O105 Sm81 2.408 . S
O105 C90 1.272 . S
O106 Sm81 2.543 . S
O106 C91 1.261 . S
O107 Sm81 2.450 . S
O107 C91 1.242 . S
O108 Sm80 2.386 . S
O108 Sm81 2.681 1_554 S
O108 C98 1.271 . S
O109 Sm81 2.464 . S
O109 C98 1.251 1_556 S
O110 Sm81 2.396 . S
O110 C99 1.252 . S
O111 Sm80 2.408 . S
O111 C99 1.272 1_554 S
H112 C84 0.930 . S
H113 C85 0.929 . S
H114 C87 0.930 . S
H115 C88 0.929 . S
H116 C93 0.930 . S
H117 C94 0.929 . S
H118 C96 0.930 . S
H119 C97 0.929 . S
Sm120 C122 2.846 . S
Sm120 O140 2.543 . S
Sm120 O141 2.450 . S
Sm120 O142 2.681 . S
Sm120 O143 2.464 . S
Sm120 O144 2.396 . S
Sm120 O148 2.386 . S
Sm120 O151 2.408 . S
Sm121 C131 2.846 . S
Sm121 O142 2.386 . S
Sm121 O145 2.408 . S
Sm121 O146 2.543 . S
Sm121 O147 2.450 . S
Sm121 O148 2.681 . S
Sm121 O149 2.464 . S
Sm121 O150 2.396 . S
C122 Sm120 2.846 . S
C122 C123 1.506 . S
C122 O140 1.261 . S
C122 O141 1.242 . S
C123 C122 1.506 . S
C123 C124 1.358 . S
C123 C128 1.382 . S
C124 C123 1.358 . S
C124 C125 1.385 . S
C124 H152 0.930 . S
C125 C124 1.385 . S
C125 C126 1.395 . S
C125 H153 0.929 . S
C126 C125 1.395 . S
C126 C127 1.335 . S
C127 C126 1.335 . S
C127 C128 1.398 . S
C127 H154 0.930 . S
C128 C123 1.382 . S
C128 C127 1.398 . S
C128 H155 0.929 . S
C129 O142 1.271 . S
C129 O143 1.251 . S
C130 O144 1.252 . S
C130 O145 1.272 . S
C131 Sm121 2.846 . S
C131 C132 1.506 . S
C131 O146 1.261 . S
C131 O147 1.242 . S
C132 C131 1.506 . S
C132 C133 1.358 . S
C132 C137 1.382 . S
C133 C132 1.358 . S
C133 C134 1.385 . S
C133 H156 0.930 . S
C134 C133 1.385 . S
C134 C135 1.395 . S
C134 H157 0.929 . S
C135 C134 1.395 . S
C135 C136 1.335 . S
C136 C135 1.335 . S
C136 C137 1.398 . S
C136 H158 0.930 . S
C137 C132 1.382 . S
C137 C136 1.398 . S
C137 H159 0.929 . S
C138 O148 1.271 . S
C138 O149 1.251 . S
C139 O150 1.252 . S
C139 O151 1.272 . S
O140 Sm120 2.543 . S
O140 C122 1.261 . S
O141 Sm120 2.450 . S
O141 C122 1.242 . S
O142 Sm120 2.681 . S
O142 Sm121 2.386 . S
O142 C129 1.271 . S
O143 Sm120 2.464 . S
O143 C129 1.251 . S
O144 Sm120 2.396 . S
O144 C130 1.252 . S
O145 Sm121 2.408 . S
O145 C130 1.272 . S
O146 Sm121 2.543 . S
O146 C131 1.261 . S
O147 Sm121 2.450 . S
O147 C131 1.242 . S
O148 Sm120 2.386 . S
O148 Sm121 2.681 . S
O148 C138 1.271 . S
O149 Sm121 2.464 . S
O149 C138 1.251 . S
O150 Sm121 2.396 . S
O150 C139 1.252 . S
O151 Sm120 2.408 . S
O151 C139 1.272 . S
H152 C124 0.930 . S
H153 C125 0.929 . S
H154 C127 0.930 . S
H155 C128 0.929 . S
H156 C133 0.930 . S
H157 C134 0.929 . S
H158 C136 0.930 . S
H159 C137 0.929 . S
Sm160 C162 2.846 . S
Sm160 O180 2.543 . S
Sm160 O181 2.450 . S
Sm160 O182 2.681 . S
Sm160 O183 2.464 . S
Sm160 O184 2.396 . S
Sm160 O188 2.386 . S
Sm160 O191 2.408 . S
Sm161 C171 2.846 . S
Sm161 O182 2.386 . S
Sm161 O185 2.408 . S
Sm161 O186 2.543 . S
Sm161 O187 2.450 . S
Sm161 O188 2.681 . S
Sm161 O189 2.464 . S
Sm161 O190 2.396 . S
C162 Sm160 2.846 . S
C162 C163 1.506 . S
C162 O180 1.261 . S
C162 O181 1.242 . S
C163 C162 1.506 . S
C163 C164 1.358 . S
C163 C168 1.382 . S
C164 C163 1.358 . S
C164 C165 1.385 . S
C164 H192 0.930 . S
C165 C164 1.385 . S
C165 C166 1.395 . S
C165 H193 0.929 . S
C166 C165 1.395 . S
C166 C167 1.335 . S
C167 C166 1.335 . S
C167 C168 1.398 . S
C167 H194 0.930 . S
C168 C163 1.382 . S
C168 C167 1.398 . S
C168 H195 0.929 . S
C169 O182 1.271 . S
C169 O183 1.251 . S
C170 O184 1.252 . S
C170 O185 1.272 . S
C171 Sm161 2.846 . S
C171 C172 1.506 . S
C171 O186 1.261 . S
C171 O187 1.242 . S
C172 C171 1.506 . S
C172 C173 1.358 . S
C172 C177 1.382 . S
C173 C172 1.358 . S
C173 C174 1.385 . S
C173 H196 0.930 . S
C174 C173 1.385 . S
C174 C175 1.395 . S
C174 H197 0.929 . S
C175 C174 1.395 . S
C175 C176 1.335 . S
C176 C175 1.335 . S
C176 C177 1.398 . S
C176 H198 0.930 . S
C177 C172 1.382 . S
C177 C176 1.398 . S
C177 H199 0.929 . S
C178 O188 1.271 . S
C178 O189 1.251 . S
C179 O190 1.252 . S
C179 O191 1.272 . S
O180 Sm160 2.543 . S
O180 C162 1.261 . S
O181 Sm160 2.450 . S
O181 C162 1.242 . S
O182 Sm160 2.681 . S
O182 Sm161 2.386 . S
O182 C169 1.271 . S
O183 Sm160 2.464 . S
O183 C169 1.251 . S
O184 Sm160 2.396 . S
O184 C170 1.252 . S
O185 Sm161 2.408 . S
O185 C170 1.272 . S
O186 Sm161 2.543 . S
O186 C171 1.261 . S
O187 Sm161 2.450 . S
O187 C171 1.242 . S
O188 Sm160 2.386 . S
O188 Sm161 2.681 . S
O188 C178 1.271 . S
O189 Sm161 2.464 . S
O189 C178 1.251 . S
O190 Sm161 2.396 . S
O190 C179 1.252 . S
O191 Sm160 2.408 . S
O191 C179 1.272 . S
H192 C164 0.930 . S
H193 C165 0.929 . S
H194 C167 0.930 . S
H195 C168 0.929 . S
H196 C173 0.930 . S
H197 C174 0.929 . S
H198 C176 0.930 . S
H199 C177 0.929 . S
Sm200 C202 2.846 . S
Sm200 O220 2.543 . S
Sm200 O221 2.450 . S
Sm200 O222 2.681 . S
Sm200 O223 2.464 . S
Sm200 O224 2.396 . S
Sm200 O228 2.386 . S
Sm200 O231 2.408 1_655 S
Sm201 C211 2.846 . S
Sm201 O222 2.386 1_455 S
Sm201 O225 2.408 1_455 S
Sm201 O226 2.543 . S
Sm201 O227 2.450 . S
Sm201 O228 2.681 1_455 S
Sm201 O229 2.464 . S
Sm201 O230 2.396 . S
C202 Sm200 2.846 . S
C202 C203 1.506 . S
C202 O220 1.261 . S
C202 O221 1.242 . S
C203 C202 1.506 . S
C203 C204 1.358 . S
C203 C208 1.382 . S
C204 C203 1.358 . S
C204 C205 1.385 . S
C204 H232 0.930 . S
C205 C204 1.385 . S
C205 C206 1.395 . S
C205 H233 0.929 . S
C206 C205 1.395 . S
C206 C207 1.335 . S
C207 C206 1.335 . S
C207 C208 1.398 . S
C207 H234 0.930 . S
C208 C203 1.382 . S
C208 C207 1.398 . S
C208 H235 0.929 . S
C209 O222 1.271 . S
C209 O223 1.251 . S
C210 O224 1.252 . S
C210 O225 1.272 . S
C211 Sm201 2.846 . S
C211 C212 1.506 . S
C211 O226 1.261 . S
C211 O227 1.242 . S
C212 C211 1.506 . S
C212 C213 1.358 . S
C212 C217 1.382 . S
C213 C212 1.358 . S
C213 C214 1.385 . S
C213 H236 0.930 . S
C214 C213 1.385 . S
C214 C215 1.395 . S
C214 H237 0.929 . S
C215 C214 1.395 . S
C215 C216 1.335 . S
C216 C215 1.335 . S
C216 C217 1.398 . S
C216 H238 0.930 . S
C217 C212 1.382 . S
C217 C216 1.398 . S
C217 H239 0.929 . S
C218 O228 1.271 1_455 S
C218 O229 1.251 . S
C219 O230 1.252 . S
C219 O231 1.272 . S
O220 Sm200 2.543 . S
O220 C202 1.261 . S
O221 Sm200 2.450 . S
O221 C202 1.242 . S
O222 Sm200 2.681 . S
O222 Sm201 2.386 1_655 S
O222 C209 1.271 . S
O223 Sm200 2.464 . S
O223 C209 1.251 . S
O224 Sm200 2.396 . S
O224 C210 1.252 . S
O225 Sm201 2.408 1_655 S
O225 C210 1.272 . S
O226 Sm201 2.543 . S
O226 C211 1.261 . S
O227 Sm201 2.450 . S
O227 C211 1.242 . S
O228 Sm200 2.386 . S
O228 Sm201 2.681 1_655 S
O228 C218 1.271 1_655 S
O229 Sm201 2.464 . S
O229 C218 1.251 . S
O230 Sm201 2.396 . S
O230 C219 1.252 . S
O231 Sm200 2.408 1_455 S
O231 C219 1.272 . S
H232 C204 0.930 . S
H233 C205 0.929 . S
H234 C207 0.930 . S
H235 C208 0.929 . S
H236 C213 0.930 . S
H237 C214 0.929 . S
H238 C216 0.930 . S
H239 C217 0.929 . S
Sm240 C242 2.846 . S
Sm240 O260 2.543 . S
Sm240 O261 2.450 . S
Sm240 O262 2.681 . S
Sm240 O263 2.464 . S
Sm240 O264 2.396 . S
Sm240 O268 2.386 . S
Sm240 O271 2.408 1_554 S
Sm241 C251 2.846 . S
Sm241 O262 2.386 1_556 S
Sm241 O265 2.408 1_556 S
Sm241 O266 2.543 . S
Sm241 O267 2.450 . S
Sm241 O268 2.681 1_556 S
Sm241 O269 2.464 . S
Sm241 O270 2.396 . S
C242 Sm240 2.846 . S
C242 C243 1.506 . S
C242 O260 1.261 . S
C242 O261 1.242 . S
C243 C242 1.506 . S
C243 C244 1.358 . S
C243 C248 1.382 . S
C244 C243 1.358 . S
C244 C245 1.385 . S
C244 H272 0.930 . S
C245 C244 1.385 . S
C245 C246 1.395 . S
C245 H273 0.929 . S
C246 C245 1.395 . S
C246 C247 1.335 . S
C247 C246 1.335 . S
C247 C248 1.398 . S
C247 H274 0.930 . S
C248 C243 1.382 . S
C248 C247 1.398 . S
C248 H275 0.929 . S
C249 O262 1.271 . S
C249 O263 1.251 . S
C250 O264 1.252 . S
C250 O265 1.272 . S
C251 Sm241 2.846 . S
C251 C252 1.506 . S
C251 O266 1.261 . S
C251 O267 1.242 . S
C252 C251 1.506 . S
C252 C253 1.358 . S
C252 C257 1.382 . S
C253 C252 1.358 . S
C253 C254 1.385 . S
C253 H276 0.930 . S
C254 C253 1.385 . S
C254 C255 1.395 . S
C254 H277 0.929 . S
C255 C254 1.395 . S
C255 C256 1.335 . S
C256 C255 1.335 . S
C256 C257 1.398 . S
C256 H278 0.930 . S
C257 C252 1.382 . S
C257 C256 1.398 . S
C257 H279 0.929 . S
C258 O268 1.271 1_556 S
C258 O269 1.251 . S
C259 O270 1.252 . S
C259 O271 1.272 . S
O260 Sm240 2.543 . S
O260 C242 1.261 . S
O261 Sm240 2.450 . S
O261 C242 1.242 . S
O262 Sm240 2.681 . S
O262 Sm241 2.386 1_554 S
O262 C249 1.271 . S
O263 Sm240 2.464 . S
O263 C249 1.251 . S
O264 Sm240 2.396 . S
O264 C250 1.252 . S
O265 Sm241 2.408 1_554 S
O265 C250 1.272 . S
O266 Sm241 2.543 . S
O266 C251 1.261 . S
O267 Sm241 2.450 . S
O267 C251 1.242 . S
O268 Sm240 2.386 . S
O268 Sm241 2.681 1_554 S
O268 C258 1.271 1_554 S
O269 Sm241 2.464 . S
O269 C258 1.251 . S
O270 Sm241 2.396 . S
O270 C259 1.252 . S
O271 Sm240 2.408 1_556 S
O271 C259 1.272 . S
H272 C244 0.930 . S
H273 C245 0.929 . S
H274 C247 0.930 . S
H275 C248 0.929 . S
H276 C253 0.930 . S
H277 C254 0.929 . S
H278 C256 0.930 . S
H279 C257 0.929 . S
Sm280 C282 2.846 . S
Sm280 O300 2.543 . S
Sm280 O301 2.450 . S
Sm280 O302 2.681 . S
Sm280 O303 2.464 . S
Sm280 O304 2.396 . S
Sm280 O308 2.386 . S
Sm280 O311 2.408 . S
Sm281 C291 2.846 . S
Sm281 O302 2.386 . S
Sm281 O305 2.408 . S
Sm281 O306 2.543 . S
Sm281 O307 2.450 . S
Sm281 O308 2.681 . S
Sm281 O309 2.464 . S
Sm281 O310 2.396 . S
C282 Sm280 2.846 . S
C282 C283 1.506 . S
C282 O300 1.261 . S
C282 O301 1.242 . S
C283 C282 1.506 . S
C283 C284 1.358 . S
C283 C288 1.382 . S
C284 C283 1.358 . S
C284 C285 1.385 . S
C284 H312 0.930 . S
C285 C284 1.385 . S
C285 C286 1.395 . S
C285 H313 0.929 . S
C286 C285 1.395 . S
C286 C287 1.335 . S
C287 C286 1.335 . S
C287 C288 1.398 . S
C287 H314 0.930 . S
C288 C283 1.382 . S
C288 C287 1.398 . S
C288 H315 0.929 . S
C289 O302 1.271 . S
C289 O303 1.251 . S
C290 O304 1.252 . S
C290 O305 1.272 . S
C291 Sm281 2.846 . S
C291 C292 1.506 . S
C291 O306 1.261 . S
C291 O307 1.242 . S
C292 C291 1.506 . S
C292 C293 1.358 . S
C292 C297 1.382 . S
C293 C292 1.358 . S
C293 C294 1.385 . S
C293 H316 0.930 . S
C294 C293 1.385 . S
C294 C295 1.395 . S
C294 H317 0.929 . S
C295 C294 1.395 . S
C295 C296 1.335 . S
C296 C295 1.335 . S
C296 C297 1.398 . S
C296 H318 0.930 . S
C297 C292 1.382 . S
C297 C296 1.398 . S
C297 H319 0.929 . S
C298 O308 1.271 . S
C298 O309 1.251 . S
C299 O310 1.252 . S
C299 O311 1.272 . S
O300 Sm280 2.543 . S
O300 C282 1.261 . S
O301 Sm280 2.450 . S
O301 C282 1.242 . S
O302 Sm280 2.681 . S
O302 Sm281 2.386 . S
O302 C289 1.271 . S
O303 Sm280 2.464 . S
O303 C289 1.251 . S
O304 Sm280 2.396 . S
O304 C290 1.252 . S
O305 Sm281 2.408 . S
O305 C290 1.272 . S
O306 Sm281 2.543 . S
O306 C291 1.261 . S
O307 Sm281 2.450 . S
O307 C291 1.242 . S
O308 Sm280 2.386 . S
O308 Sm281 2.681 . S
O308 C298 1.271 . S
O309 Sm281 2.464 . S
O309 C298 1.251 . S
O310 Sm281 2.396 . S
O310 C299 1.252 . S
O311 Sm280 2.408 . S
O311 C299 1.272 . S
H312 C284 0.930 . S
H313 C285 0.929 . S
H314 C287 0.930 . S
H315 C288 0.929 . S
H316 C293 0.930 . S
H317 C294 0.929 . S
H318 C296 0.930 . S
H319 C297 0.929 . S
Sm320 C322 2.846 . S
Sm320 O340 2.543 . S
Sm320 O341 2.450 . S
Sm320 O342 2.681 . S
Sm320 O343 2.464 . S
Sm320 O344 2.396 . S
Sm320 O348 2.386 . S
Sm320 O351 2.408 . S
Sm321 C331 2.846 . S
Sm321 O342 2.386 . S
Sm321 O345 2.408 . S
Sm321 O346 2.543 . S
Sm321 O347 2.450 . S
Sm321 O348 2.681 . S
Sm321 O349 2.464 . S
Sm321 O350 2.396 . S
C322 Sm320 2.846 . S
C322 C323 1.506 . S
C322 O340 1.261 . S
C322 O341 1.242 . S
C323 C322 1.506 . S
C323 C324 1.358 . S
C323 C328 1.382 . S
C324 C323 1.358 . S
C324 C325 1.385 . S
C324 H352 0.930 . S
C325 C324 1.385 . S
C325 C326 1.395 . S
C325 H353 0.929 . S
C326 C325 1.395 . S
C326 C327 1.335 . S
C327 C326 1.335 . S
C327 C328 1.398 . S
C327 H354 0.930 . S
C328 C323 1.382 . S
C328 C327 1.398 . S
C328 H355 0.929 . S
C329 O342 1.271 . S
C329 O343 1.251 . S
C330 O344 1.252 . S
C330 O345 1.272 . S
C331 Sm321 2.846 . S
C331 C332 1.506 . S
C331 O346 1.261 . S
C331 O347 1.242 . S
C332 C331 1.506 . S
C332 C333 1.358 . S
C332 C337 1.382 . S
C333 C332 1.358 . S
C333 C334 1.385 . S
C333 H356 0.930 . S
C334 C333 1.385 . S
C334 C335 1.395 . S
C334 H357 0.929 . S
C335 C334 1.395 . S
C335 C336 1.335 . S
C336 C335 1.335 . S
C336 C337 1.398 . S
C336 H358 0.930 . S
C337 C332 1.382 . S
C337 C336 1.398 . S
C337 H359 0.929 . S
C338 O348 1.271 . S
C338 O349 1.251 . S
C339 O350 1.252 . S
C339 O351 1.272 . S
O340 Sm320 2.543 . S
O340 C322 1.261 . S
O341 Sm320 2.450 . S
O341 C322 1.242 . S
O342 Sm320 2.681 . S
O342 Sm321 2.386 . S
O342 C329 1.271 . S
O343 Sm320 2.464 . S
O343 C329 1.251 . S
O344 Sm320 2.396 . S
O344 C330 1.252 . S
O345 Sm321 2.408 . S
O345 C330 1.272 . S
O346 Sm321 2.543 . S
O346 C331 1.261 . S
O347 Sm321 2.450 . S
O347 C331 1.242 . S
O348 Sm320 2.386 . S
O348 Sm321 2.681 . S
O348 C338 1.271 . S
O349 Sm321 2.464 . S
O349 C338 1.251 . S
O350 Sm321 2.396 . S
O350 C339 1.252 . S
O351 Sm320 2.408 . S
O351 C339 1.272 . S
H352 C324 0.930 . S
H353 C325 0.929 . S
H354 C327 0.930 . S
H355 C328 0.929 . S
H356 C333 0.930 . S
H357 C334 0.929 . S
H358 C336 0.930 . S
H359 C337 0.929 . S
Sm360 C362 2.846 . S
Sm360 O380 2.543 . S
Sm360 O381 2.450 . S
Sm360 O382 2.681 1_565 S
Sm360 O383 2.464 1_565 S
Sm360 O384 2.396 1_565 S
Sm360 O388 2.386 . S
Sm360 O391 2.408 . S
Sm361 C371 2.846 . S
Sm361 O382 2.386 . S
Sm361 O385 2.408 . S
Sm361 O386 2.543 . S
Sm361 O387 2.450 . S
Sm361 O388 2.681 1_545 S
Sm361 O389 2.464 1_545 S
Sm361 O390 2.396 1_545 S
C362 Sm360 2.846 . S
C362 C363 1.506 . S
C362 O380 1.261 . S
C362 O381 1.242 . S
C363 C362 1.506 . S
C363 C364 1.358 . S
C363 C368 1.382 . S
C364 C363 1.358 . S
C364 C365 1.385 . S
C364 H392 0.930 . S
C365 C364 1.385 . S
C365 C366 1.395 . S
C365 H393 0.929 . S
C366 C365 1.395 . S
C366 C367 1.335 . S
C367 C366 1.335 . S
C367 C368 1.398 . S
C367 H394 0.930 . S
C368 C363 1.382 . S
C368 C367 1.398 . S
C368 H395 0.929 . S
C369 O382 1.271 . S
C369 O383 1.251 . S
C370 O384 1.252 . S
C370 O385 1.272 . S
C371 Sm361 2.846 . S
C371 C372 1.506 . S
C371 O386 1.261 . S
C371 O387 1.242 . S
C372 C371 1.506 . S
C372 C373 1.358 . S
C372 C377 1.382 . S
C373 C372 1.358 . S
C373 C374 1.385 . S
C373 H396 0.930 . S
C374 C373 1.385 . S
C374 C375 1.395 . S
C374 H397 0.929 . S
C375 C374 1.395 . S
C375 C376 1.335 . S
C376 C375 1.335 . S
C376 C377 1.398 . S
C376 H398 0.930 . S
C377 C372 1.382 . S
C377 C376 1.398 . S
C377 H399 0.929 . S
C378 O388 1.271 . S
C378 O389 1.251 . S
C379 O390 1.252 . S
C379 O391 1.272 . S
O380 Sm360 2.543 . S
O380 C362 1.261 . S
O381 Sm360 2.450 . S
O381 C362 1.242 . S
O382 Sm360 2.681 1_545 S
O382 Sm361 2.386 . S
O382 C369 1.271 . S
O383 Sm360 2.464 1_545 S
O383 C369 1.251 . S
O384 Sm360 2.396 1_545 S
O384 C370 1.252 . S
O385 Sm361 2.408 . S
O385 C370 1.272 . S
O386 Sm361 2.543 . S
O386 C371 1.261 . S
O387 Sm361 2.450 . S
O387 C371 1.242 . S
O388 Sm360 2.386 . S
O388 Sm361 2.681 1_565 S
O388 C378 1.271 . S
O389 Sm361 2.464 1_565 S
O389 C378 1.251 . S
O390 Sm361 2.396 1_565 S
O390 C379 1.252 . S
O391 Sm360 2.408 . S
O391 C379 1.272 . S
H392 C364 0.930 . S
H393 C365 0.929 . S
H394 C367 0.930 . S
H395 C368 0.929 . S
H396 C373 0.930 . S
H397 C374 0.929 . S
H398 C376 0.930 . S
H399 C377 0.929 . S
Sm400 C402 2.846 . S
Sm400 O420 2.543 . S
Sm400 O421 2.450 . S
Sm400 O422 2.681 . S
Sm400 O423 2.464 . S
Sm400 O424 2.396 . S
Sm400 O428 2.386 . S
Sm400 O431 2.411 1_565 S
Sm401 C411 2.846 . S
Sm401 O422 2.386 1_545 S
Sm401 O425 2.408 1_545 S
Sm401 O426 2.543 . S
Sm401 O427 2.450 . S
Sm401 O428 2.681 1_545 S
Sm401 O429 2.464 . S
Sm401 O430 2.396 . S
C402 Sm400 2.846 . S
C402 C403 1.506 . S
C402 O420 1.261 . S
C402 O421 1.242 . S
C403 C402 1.506 . S
C403 C404 1.358 . S
C403 C408 1.382 . S
C404 C403 1.358 . S
C404 C405 1.385 . S
C404 H432 0.930 . S
C405 C404 1.385 . S
C405 C406 1.395 . S
C405 H433 0.929 . S
C406 C405 1.395 . S
C406 C407 1.335 . S
C407 C406 1.335 . S
C407 C408 1.398 . S
C407 H434 0.930 . S
C408 C403 1.382 . S
C408 C407 1.398 . S
C408 H435 0.929 . S
C409 O422 1.271 . S
C409 O423 1.251 . S
C410 O424 1.252 . S
C410 O425 1.272 . S
C411 Sm401 2.846 . S
C411 C412 1.506 . S
C411 O426 1.261 . S
C411 O427 1.242 . S
C412 C411 1.506 . S
C412 C413 1.358 . S
C412 C417 1.382 . S
C413 C412 1.358 . S
C413 C414 1.385 . S
C413 H436 0.930 . S
C414 C413 1.385 . S
C414 C415 1.395 . S
C414 H437 0.929 . S
C415 C414 1.395 . S
C415 C416 1.335 . S
C416 C415 1.335 . S
C416 C417 1.398 . S
C416 H438 0.930 . S
C417 C412 1.382 . S
C417 C416 1.398 . S
C417 H439 0.929 . S
C418 O428 1.271 1_545 S
C418 O429 1.251 . S
C419 O430 1.252 . S
C419 O431 1.269 . S
O420 Sm400 2.543 . S
O420 C402 1.261 . S
O421 Sm400 2.450 . S
O421 C402 1.242 . S
O422 Sm400 2.681 . S
O422 Sm401 2.386 1_565 S
O422 C409 1.271 . S
O423 Sm400 2.464 . S
O423 C409 1.251 . S
O424 Sm400 2.396 . S
O424 C410 1.252 . S
O425 Sm401 2.408 1_565 S
O425 C410 1.272 . S
O426 Sm401 2.543 . S
O426 C411 1.261 . S
O427 Sm401 2.450 . S
O427 C411 1.242 . S
O428 Sm400 2.386 . S
O428 Sm401 2.681 1_565 S
O428 C418 1.271 1_565 S
O429 Sm401 2.464 . S
O429 C418 1.251 . S
O430 Sm401 2.396 . S
O430 C419 1.252 . S
O431 Sm400 2.411 1_545 S
O431 C419 1.269 . S
H432 C404 0.930 . S
H433 C405 0.929 . S
H434 C407 0.930 . S
H435 C408 0.929 . S
H436 C413 0.930 . S
H437 C414 0.929 . S
H438 C416 0.930 . S
H439 C417 0.929 . S
Sm440 C442 2.846 . S
Sm440 O460 2.543 . S
Sm440 O461 2.450 . S
Sm440 O462 2.681 . S
Sm440 O463 2.464 . S
Sm440 O464 2.396 . S
Sm440 O468 2.386 . S
Sm440 O471 2.408 . S
Sm441 C451 2.846 . S
Sm441 O462 2.386 . S
Sm441 O465 2.408 . S
Sm441 O466 2.543 . S
Sm441 O467 2.450 . S
Sm441 O468 2.681 . S
Sm441 O469 2.464 . S
Sm441 O470 2.396 . S
C442 Sm440 2.846 . S
C442 C443 1.506 . S
C442 O460 1.261 . S
C442 O461 1.242 . S
C443 C442 1.506 . S
C443 C444 1.358 . S
C443 C448 1.382 . S
C444 C443 1.358 . S
C444 C445 1.385 . S
C444 H472 0.930 . S
C445 C444 1.385 . S
C445 C446 1.395 . S
C445 H473 0.929 . S
C446 C445 1.395 . S
C446 C447 1.335 . S
C447 C446 1.335 . S
C447 C448 1.398 . S
C447 H474 0.930 . S
C448 C443 1.382 . S
C448 C447 1.398 . S
C448 H475 0.929 . S
C449 O462 1.271 . S
C449 O463 1.251 . S
C450 O464 1.252 . S
C450 O465 1.272 . S
C451 Sm441 2.846 . S
C451 C452 1.506 . S
C451 O466 1.261 . S
C451 O467 1.242 . S
C452 C451 1.506 . S
C452 C453 1.358 . S
C452 C457 1.382 . S
C453 C452 1.358 . S
C453 C454 1.385 . S
C453 H476 0.930 . S
C454 C453 1.385 . S
C454 C455 1.395 . S
C454 H477 0.929 . S
C455 C454 1.395 . S
C455 C456 1.335 . S
C456 C455 1.335 . S
C456 C457 1.398 . S
C456 H478 0.930 . S
C457 C452 1.382 . S
C457 C456 1.398 . S
C457 H479 0.929 . S
C458 O468 1.271 . S
C458 O469 1.251 . S
C459 O470 1.252 . S
C459 O471 1.272 . S
O460 Sm440 2.543 . S
O460 C442 1.261 . S
O461 Sm440 2.450 . S
O461 C442 1.242 . S
O462 Sm440 2.681 . S
O462 Sm441 2.386 . S
O462 C449 1.271 . S
O463 Sm440 2.464 . S
O463 C449 1.251 . S
O464 Sm440 2.396 . S
O464 C450 1.252 . S
O465 Sm441 2.408 . S
O465 C450 1.272 . S
O466 Sm441 2.543 . S
O466 C451 1.261 . S
O467 Sm441 2.450 . S
O467 C451 1.242 . S
O468 Sm440 2.386 . S
O468 Sm441 2.681 . S
O468 C458 1.271 . S
O469 Sm441 2.464 . S
O469 C458 1.251 . S
O470 Sm441 2.396 . S
O470 C459 1.252 . S
O471 Sm440 2.408 . S
O471 C459 1.272 . S
H472 C444 0.930 . S
H473 C445 0.929 . S
H474 C447 0.930 . S
H475 C448 0.929 . S
H476 C453 0.930 . S
H477 C454 0.929 . S
H478 C456 0.930 . S
H479 C457 0.929 . S
H480 C488 0.929 . S
H481 C490 0.930 . S
H482 C492 0.930 . S
H483 C495 0.929 . S
H484 C498 0.930 . S
H485 C500 0.960 . S
H486 C500 0.960 . S
H487 C500 0.960 . S
C488 H480 0.929 . S
C488 C489 1.377 . S
C488 C490 1.384 . S
C489 C488 1.377 . S
C489 C495 1.390 . S
C490 H481 0.930 . S
C490 C488 1.384 . S
C490 C491 1.372 . S
C491 C490 1.372 . S
C491 C492 1.400 . S
C491 C496 1.490 . S
C492 H482 0.930 . S
C492 C491 1.400 . S
C492 C495 1.386 . S
H493 C509 0.930 . S
H494 C510 0.931 . S
C495 H483 0.929 . S
C495 C489 1.390 . S
C495 C492 1.386 . S
C496 C491 1.490 . S
C496 C498 1.395 . S
C496 C499 1.403 . S
H497 C503 0.930 . S
C498 H484 0.930 . S
C498 C496 1.395 . S
C498 C501 1.403 . S
C499 C496 1.403 . S
C499 C500 1.524 . S
C499 C503 1.400 . S
C500 H485 0.960 . S
C500 H486 0.960 . S
C500 H487 0.960 . S
C500 C499 1.524 . S
C501 C498 1.403 . S
C501 C502 1.392 . S
C501 C505 1.495 . S
C502 C501 1.392 . S
C502 C503 1.385 . S
C502 C504 1.478 . S
C503 H497 0.930 . S
C503 C499 1.400 . S
C503 C502 1.385 . S
C504 C502 1.478 . S
C504 C506 1.381 . S
C504 C510 1.383 . S
C505 C501 1.495 . S
C505 H511 0.959 . S
C505 H512 0.961 . S
C505 H513 0.960 . S
C506 C504 1.381 . S
C506 C507 1.394 . S
C506 H514 0.930 . S
C507 C506 1.394 . S
C507 C508 1.383 . S
C507 H515 0.929 . S
C508 C507 1.383 . S
C508 C509 1.377 . S
C509 H493 0.930 . S
C509 C508 1.377 . S
C509 C510 1.379 . S
C510 H494 0.931 . S
C510 C504 1.383 . S
C510 C509 1.379 . S
H511 C505 0.959 . S
H512 C505 0.961 . S
H513 C505 0.960 . S
H514 C506 0.930 . S
H515 C507 0.929 . S
H516 C524 0.929 . S
H517 C526 0.930 . S
H518 C528 0.930 . S
H519 C531 0.929 1_545 S
H520 C534 0.930 . S
H521 C536 0.960 . S
H522 C536 0.960 . S
H523 C536 0.960 1_545 S
C524 H516 0.929 . S
C524 C525 1.377 . S
C524 C526 1.384 . S
C525 C524 1.377 . S
C525 C531 1.390 . S
C526 H517 0.930 . S
C526 C524 1.384 . S
C526 C527 1.372 . S
C527 C526 1.372 . S
C527 C528 1.400 . S
C527 C532 1.490 . S
C528 H518 0.930 . S
C528 C527 1.400 . S
C528 C531 1.386 . S
H529 C545 0.930 . S
H530 C546 0.931 . S
C531 H519 0.929 1_565 S
C531 C525 1.390 . S
C531 C528 1.386 . S
C532 C527 1.490 . S
C532 C534 1.395 . S
C532 C535 1.403 . S
H533 C539 0.930 . S
C534 H520 0.930 . S
C534 C532 1.395 . S
C534 C537 1.403 . S
C535 C532 1.403 . S
C535 C536 1.524 . S
C535 C539 1.400 . S
C536 H521 0.960 . S
C536 H522 0.960 . S
C536 H523 0.960 1_565 S
C536 C535 1.524 . S
C537 C534 1.403 . S
C537 C538 1.392 . S
C537 C541 1.495 . S
C538 C537 1.392 . S
C538 C539 1.385 . S
C538 C540 1.478 . S
C539 H533 0.930 . S
C539 C535 1.400 . S
C539 C538 1.385 . S
C540 C538 1.478 . S
C540 C542 1.381 . S
C540 C546 1.383 . S
C541 C537 1.495 . S
C541 H547 0.959 . S
C541 H548 0.961 . S
C541 H549 0.960 . S
C542 C540 1.381 . S
C542 C543 1.394 . S
C542 H550 0.930 . S
C543 C542 1.394 . S
C543 C544 1.383 . S
C543 H551 0.929 . S
C544 C543 1.383 . S
C544 C545 1.377 . S
C545 H529 0.930 . S
C545 C544 1.377 . S
C545 C546 1.379 . S
C546 H530 0.931 . S
C546 C540 1.383 . S
C546 C545 1.379 . S
H547 C541 0.959 . S
H548 C541 0.961 . S
H549 C541 0.960 . S
H550 C542 0.930 . S
H551 C543 0.929 . S
H552 C560 0.929 . S
H553 C562 0.930 . S
H554 C564 0.930 . S
H555 C567 0.929 . S
H556 C570 0.930 1_556 S
H557 C572 0.960 . S
H558 C572 0.960 . S
H559 C572 0.960 . S
C560 H552 0.929 . S
C560 C561 1.377 . S
C560 C562 1.384 1_556 S
C561 C560 1.377 . S
C561 C567 1.390 1_556 S
C562 H553 0.930 . S
C562 C560 1.384 1_554 S
C562 C563 1.372 . S
C563 C562 1.372 . S
C563 C564 1.400 . S
C563 C568 1.490 . S
C564 H554 0.930 . S
C564 C563 1.400 . S
C564 C567 1.386 . S
H565 C581 0.930 . S
H566 C582 0.931 . S
C567 H555 0.929 . S
C567 C561 1.390 1_554 S
C567 C564 1.386 . S
C568 C563 1.490 . S
C568 C570 1.395 . S
C568 C571 1.403 . S
H569 C575 0.930 . S
C570 H556 0.930 1_554 S
C570 C568 1.395 . S
C570 C573 1.403 . S
C571 C568 1.403 . S
C571 C572 1.524 . S
C571 C575 1.400 . S
C572 H557 0.960 . S
C572 H558 0.960 . S
C572 H559 0.960 . S
C572 C571 1.524 . S
C573 C570 1.403 . S
C573 C574 1.392 . S
C573 C577 1.495 1_554 S
C574 C573 1.392 . S
C574 C575 1.385 . S
C574 C576 1.478 . S
C575 H569 0.930 . S
C575 C571 1.400 . S
C575 C574 1.385 . S
C576 C574 1.478 . S
C576 C578 1.381 . S
C576 C582 1.383 . S
C577 C573 1.495 1_556 S
C577 H583 0.959 . S
C577 H584 0.961 . S
C577 H585 0.959 . S
C578 C576 1.381 . S
C578 C579 1.394 . S
C578 H586 0.930 . S
C579 C578 1.394 . S
C579 C580 1.383 . S
C579 H587 0.929 . S
C580 C579 1.383 . S
C580 C581 1.377 . S
C581 H565 0.930 . S
C581 C580 1.377 . S
C581 C582 1.379 . S
C582 H566 0.931 . S
C582 C576 1.383 . S
C582 C581 1.379 . S
H583 C577 0.959 . S
H584 C577 0.961 . S
H585 C577 0.959 . S
H586 C578 0.930 . S
H587 C579 0.929 . S
H588 C596 0.929 . S
H589 C598 0.930 . S
H590 C600 0.930 . S
H591 C603 0.929 . S
H592 C606 0.930 . S
H593 C608 0.960 . S
H594 C608 0.960 . S
H595 C608 0.960 . S
C596 H588 0.929 . S
C596 C597 1.377 . S
C596 C598 1.384 . S
C597 C596 1.377 . S
C597 C603 1.390 . S
C598 H589 0.930 . S
C598 C596 1.384 . S
C598 C599 1.372 . S
C599 C598 1.372 . S
C599 C600 1.400 . S
C599 C604 1.490 . S
C600 H590 0.930 . S
C600 C599 1.400 . S
C600 C603 1.386 . S
H601 C617 0.930 . S
H602 C618 0.931 . S
C603 H591 0.929 . S
C603 C597 1.390 . S
C603 C600 1.386 . S
C604 C599 1.490 . S
C604 C606 1.395 . S
C604 C607 1.403 . S
H605 C611 0.930 . S
C606 H592 0.930 . S
C606 C604 1.395 . S
C606 C609 1.403 . S
C607 C604 1.403 . S
C607 C608 1.524 . S
C607 C611 1.400 . S
C608 H593 0.960 . S
C608 H594 0.960 . S
C608 H595 0.960 . S
C608 C607 1.524 . S
C609 C606 1.403 . S
C609 C610 1.392 . S
C609 C613 1.495 . S
C610 C609 1.392 . S
C610 C611 1.385 . S
C610 C612 1.478 . S
C611 H605 0.930 . S
C611 C607 1.400 . S
C611 C610 1.385 . S
C612 C610 1.478 . S
C612 C614 1.381 . S
C612 C618 1.383 . S
C613 C609 1.495 . S
C613 H619 0.959 1_545 S
C613 H620 0.961 1_545 S
C613 H621 0.960 . S
C614 C612 1.381 . S
C614 C615 1.394 . S
C614 H622 0.930 . S
C615 C614 1.394 . S
C615 C616 1.383 . S
C615 H623 0.929 . S
C616 C615 1.383 . S
C616 C617 1.377 . S
C617 H601 0.930 . S
C617 C616 1.377 . S
C617 C618 1.379 . S
C618 H602 0.931 . S
C618 C612 1.383 . S
C618 C617 1.379 . S
H619 C613 0.959 1_565 S
H620 C613 0.961 1_565 S
H621 C613 0.960 . S
H622 C614 0.930 . S
H623 C615 0.929 . S
H624 C632 0.929 . S
H625 C634 0.930 . S
H626 C636 0.930 . S
H627 C639 0.929 . S
H628 C642 0.930 . S
H629 C644 0.960 . S
H630 C644 0.960 . S
H631 C644 0.960 . S
C632 H624 0.929 . S
C632 C633 1.377 . S
C632 C634 1.384 . S
C633 C632 1.377 . S
C633 C639 1.390 . S
C634 H625 0.930 . S
C634 C632 1.384 . S
C634 C635 1.372 . S
C635 C634 1.372 . S
C635 C636 1.400 . S
C635 C640 1.490 . S
C636 H626 0.930 . S
C636 C635 1.400 . S
C636 C639 1.386 . S
H637 C653 0.930 . S
H638 C654 0.931 . S
C639 H627 0.929 . S
C639 C633 1.390 . S
C639 C636 1.386 . S
C640 C635 1.490 . S
C640 C642 1.395 . S
C640 C643 1.403 . S
H641 C647 0.930 . S
C642 H628 0.930 . S
C642 C640 1.395 . S
C642 C645 1.403 . S
C643 C640 1.403 . S
C643 C644 1.524 . S
C643 C647 1.400 . S
C644 H629 0.960 . S
C644 H630 0.960 . S
C644 H631 0.960 . S
C644 C643 1.524 . S
C645 C642 1.403 . S
C645 C646 1.392 . S
C645 C649 1.495 . S
C646 C645 1.392 . S
C646 C647 1.385 . S
C646 C648 1.478 . S
C647 H641 0.930 . S
C647 C643 1.400 . S
C647 C646 1.385 . S
C648 C646 1.478 . S
C648 C650 1.381 . S
C648 C654 1.383 . S
C649 C645 1.495 . S
C649 H655 0.959 . S
C649 H656 0.961 . S
C649 H657 0.960 . S
C650 C648 1.381 . S
C650 C651 1.394 . S
C650 H658 0.930 . S
C651 C650 1.394 . S
C651 C652 1.383 . S
C651 H659 0.929 . S
C652 C651 1.383 . S
C652 C653 1.377 . S
C653 H637 0.930 . S
C653 C652 1.377 . S
C653 C654 1.379 . S
C654 H638 0.931 . S
C654 C648 1.383 . S
C654 C653 1.379 . S
H655 C649 0.959 . S
H656 C649 0.961 . S
H657 C649 0.960 . S
H658 C650 0.930 . S
H659 C651 0.929 . S
H660 C668 0.929 . S
H661 C670 0.930 . S
H662 C672 0.930 . S
H663 C675 0.929 . S
H664 C678 0.930 . S
H665 C680 0.960 . S
H666 C680 0.960 . S
H667 C680 0.960 . S
C668 H660 0.929 . S
C668 C669 1.377 . S
C668 C670 1.384 . S
C669 C668 1.377 . S
C669 C675 1.390 . S
C670 H661 0.930 . S
C670 C668 1.384 . S
C670 C671 1.372 . S
C671 C670 1.372 . S
C671 C672 1.400 . S
C671 C676 1.490 . S
C672 H662 0.930 . S
C672 C671 1.400 . S
C672 C675 1.386 . S
H673 C689 0.930 . S
H674 C690 0.931 . S
C675 H663 0.929 . S
C675 C669 1.390 . S
C675 C672 1.386 . S
C676 C671 1.490 . S
C676 C678 1.395 . S
C676 C679 1.403 . S
H677 C683 0.930 . S
C678 H664 0.930 . S
C678 C676 1.395 . S
C678 C681 1.403 . S
C679 C676 1.403 . S
C679 C680 1.524 . S
C679 C683 1.400 . S
C680 H665 0.960 . S
C680 H666 0.960 . S
C680 H667 0.960 . S
C680 C679 1.524 . S
C681 C678 1.403 . S
C681 C682 1.392 . S
C681 C685 1.495 . S
C682 C681 1.392 . S
C682 C683 1.385 . S
C682 C684 1.478 . S
C683 H677 0.930 . S
C683 C679 1.400 . S
C683 C682 1.385 . S
C684 C682 1.478 . S
C684 C686 1.381 . S
C684 C690 1.383 . S
C685 C681 1.495 . S
C685 H691 0.959 . S
C685 H692 0.961 . S
C685 H693 0.960 . S
C686 C684 1.381 . S
C686 C687 1.394 . S
C686 H694 0.930 . S
C687 C686 1.394 . S
C687 C688 1.383 . S
C687 H695 0.929 . S
C688 C687 1.383 . S
C688 C689 1.377 . S
C689 H673 0.930 . S
C689 C688 1.377 . S
C689 C690 1.379 . S
C690 H674 0.931 . S
C690 C684 1.383 . S
C690 C689 1.379 . S
H691 C685 0.959 . S
H692 C685 0.961 . S
H693 C685 0.960 . S
H694 C686 0.930 . S
H695 C687 0.929 . S
H696 C704 0.929 . S
H697 C706 0.930 . S
H698 C708 0.930 . S
H699 C711 0.929 . S
H700 C714 0.930 . S
H701 C716 0.960 . S
H702 C716 0.960 . S
H703 C716 0.960 . S
C704 H696 0.929 . S
C704 C705 1.377 . S
C704 C706 1.384 . S
C705 C704 1.377 . S
C705 C711 1.390 . S
C706 H697 0.930 . S
C706 C704 1.384 . S
C706 C707 1.372 . S
C707 C706 1.372 . S
C707 C708 1.400 . S
C707 C712 1.490 . S
C708 H698 0.930 . S
C708 C707 1.400 . S
C708 C711 1.386 . S
H709 C725 0.930 . S
H710 C726 0.931 . S
C711 H699 0.929 . S
C711 C705 1.390 . S
C711 C708 1.386 . S
C712 C707 1.490 . S
C712 C714 1.395 . S
C712 C715 1.403 . S
H713 C719 0.930 . S
C714 H700 0.930 . S
C714 C712 1.395 . S
C714 C717 1.403 . S
C715 C712 1.403 . S
C715 C716 1.524 . S
C715 C719 1.400 . S
C716 H701 0.960 . S
C716 H702 0.960 . S
C716 H703 0.960 . S
C716 C715 1.524 . S
C717 C714 1.403 . S
C717 C718 1.392 . S
C717 C721 1.495 . S
C718 C717 1.392 . S
C718 C719 1.385 . S
C718 C720 1.478 . S
C719 H713 0.930 . S
C719 C715 1.400 . S
C719 C718 1.385 . S
C720 C718 1.478 . S
C720 C722 1.381 . S
C720 C726 1.383 . S
C721 C717 1.495 . S
C721 H727 0.959 . S
C721 H728 0.961 . S
C721 H729 0.960 . S
C722 C720 1.381 . S
C722 C723 1.390 1_556 S
C722 H730 0.930 1_556 S
C723 C722 1.390 1_554 S
C723 C724 1.374 1_554 S
C723 H731 0.942 . S
C724 C723 1.374 1_556 S
C724 C725 1.377 . S
C725 H709 0.930 . S
C725 C724 1.377 . S
C725 C726 1.379 . S
C726 H710 0.931 . S
C726 C720 1.383 . S
C726 C725 1.379 . S
H727 C721 0.959 . S
H728 C721 0.961 . S
H729 C721 0.960 . S
H730 C722 0.930 1_554 S
H731 C723 0.942 . S
H732 C740 0.929 . S
H733 C742 0.930 . S
H734 C744 0.930 . S
H735 C747 0.929 . S
H736 C750 0.930 . S
H737 C752 0.960 . S
H738 C752 0.960 . S
H739 C752 0.960 . S
C740 H732 0.929 . S
C740 C741 1.377 . S
C740 C742 1.384 . S
C741 C740 1.377 . S
C741 C747 1.390 . S
C742 H733 0.930 . S
C742 C740 1.384 . S
C742 C743 1.372 . S
C743 C742 1.372 . S
C743 C744 1.400 . S
C743 C748 1.490 . S
C744 H734 0.930 . S
C744 C743 1.400 . S
C744 C747 1.386 . S
H745 C761 0.930 . S
H746 C762 0.931 . S
C747 H735 0.929 . S
C747 C741 1.390 . S
C747 C744 1.386 . S
C748 C743 1.490 . S
C748 C750 1.395 . S
C748 C751 1.403 . S
H749 C755 0.930 . S
C750 H736 0.930 . S
C750 C748 1.395 . S
C750 C753 1.403 . S
C751 C748 1.403 . S
C751 C752 1.524 . S
C751 C755 1.400 . S
C752 H737 0.960 . S
C752 H738 0.960 . S
C752 H739 0.960 . S
C752 C751 1.524 . S
C753 C750 1.403 . S
C753 C754 1.392 . S
C753 C757 1.495 . S
C754 C753 1.392 . S
C754 C755 1.385 . S
C754 C756 1.478 . S
C755 H749 0.930 . S
C755 C751 1.400 . S
C755 C754 1.385 . S
C756 C754 1.478 . S
C756 C758 1.381 . S
C756 C762 1.383 . S
C757 C753 1.495 . S
C757 H763 0.959 . S
C757 H764 0.961 . S
C757 H765 0.960 . S
C758 C756 1.381 . S
C758 C759 1.394 . S
C758 H766 0.930 . S
C759 C758 1.394 . S
C759 C760 1.383 . S
C759 H767 0.929 . S
C760 C759 1.383 . S
C760 C761 1.377 . S
C761 H745 0.930 . S
C761 C760 1.377 . S
C761 C762 1.379 . S
C762 H746 0.931 . S
C762 C756 1.383 . S
C762 C761 1.379 . S
H763 C757 0.959 . S
H764 C757 0.961 . S
H765 C757 0.960 . S
H766 C758 0.930 . S
H767 C759 0.929 . S
H768 C776 0.929 . S
H769 C778 0.930 . S
H770 C780 0.930 . S
H771 C783 0.929 . S
H772 C786 0.930 . S
H773 C788 0.960 . S
H774 C788 0.960 . S
H775 C788 0.960 . S
C776 H768 0.929 . S
C776 C777 1.377 . S
C776 C778 1.384 . S
C777 C776 1.377 . S
C777 C783 1.390 . S
C778 H769 0.930 . S
C778 C776 1.384 . S
C778 C779 1.372 . S
C779 C778 1.372 . S
C779 C780 1.400 . S
C779 C784 1.490 . S
C780 H770 0.930 . S
C780 C779 1.400 . S
C780 C783 1.386 . S
H781 C797 0.930 . S
H782 C798 0.931 . S
C783 H771 0.929 . S
C783 C777 1.390 . S
C783 C780 1.386 . S
C784 C779 1.490 . S
C784 C786 1.395 . S
C784 C787 1.403 . S
H785 C791 0.930 . S
C786 H772 0.930 . S
C786 C784 1.395 . S
C786 C789 1.403 . S
C787 C784 1.403 . S
C787 C788 1.524 . S
C787 C791 1.400 . S
C788 H773 0.960 . S
C788 H774 0.960 . S
C788 H775 0.960 . S
C788 C787 1.524 . S
C789 C786 1.403 . S
C789 C790 1.392 . S
C789 C793 1.495 . S
C790 C789 1.392 . S
C790 C791 1.385 . S
C790 C792 1.478 . S
C791 H785 0.930 . S
C791 C787 1.400 . S
C791 C790 1.385 . S
C792 C790 1.478 . S
C792 C794 1.381 . S
C792 C798 1.383 . S
C793 C789 1.495 . S
C793 H799 0.959 . S
C793 H800 0.961 . S
C793 H801 0.960 . S
C794 C792 1.381 . S
C794 C795 1.394 . S
C794 H802 0.930 . S
C795 C794 1.394 . S
C795 C796 1.383 . S
C795 H803 0.929 . S
C796 C795 1.383 . S
C796 C797 1.377 . S
C797 H781 0.930 . S
C797 C796 1.377 . S
C797 C798 1.379 . S
C798 H782 0.931 . S
C798 C792 1.383 . S
C798 C797 1.379 . S
H799 C793 0.959 . S
H800 C793 0.961 . S
H801 C793 0.960 . S
H802 C794 0.930 . S
H803 C795 0.929 . S
H804 C812 0.929 . S
H805 C814 0.930 . S
H806 C816 0.930 . S
H807 C819 0.929 . S
H808 C822 0.930 . S
H809 C824 0.918 1_655 S
H810 C824 0.960 . S
H811 C824 0.960 . S
C812 H804 0.929 . S
C812 C813 1.377 . S
C812 C814 1.384 . S
C813 C812 1.377 . S
C813 C819 1.390 . S
C814 H805 0.930 . S
C814 C812 1.384 . S
C814 C815 1.372 . S
C815 C814 1.372 . S
C815 C816 1.400 . S
C815 C820 1.490 . S
C816 H806 0.930 . S
C816 C815 1.400 . S
C816 C819 1.386 . S
H817 C833 0.930 . S
H818 C834 0.931 . S
C819 H807 0.929 . S
C819 C813 1.390 . S
C819 C816 1.386 . S
C820 C815 1.490 . S
C820 C822 1.395 . S
C820 C823 1.403 . S
H821 C827 0.930 . S
C822 H808 0.930 . S
C822 C820 1.395 . S
C822 C825 1.403 . S
C823 C820 1.403 . S
C823 C824 1.524 . S
C823 C827 1.400 . S
C824 H809 0.918 1_455 S
C824 H810 0.960 . S
C824 H811 0.960 . S
C824 C823 1.524 . S
C825 C822 1.403 . S
C825 C826 1.392 . S
C825 C829 1.495 . S
C826 C825 1.392 . S
C826 C827 1.385 . S
C826 C828 1.478 . S
C827 H821 0.930 . S
C827 C823 1.400 . S
C827 C826 1.385 . S
C828 C826 1.478 . S
C828 C830 1.381 . S
C828 C834 1.383 . S
C829 C825 1.495 . S
C829 H835 0.959 . S
C829 H836 0.961 . S
C829 H837 0.960 . S
C830 C828 1.381 . S
C830 C831 1.394 . S
C830 H838 0.930 . S
C831 C830 1.394 . S
C831 C832 1.383 . S
C831 H839 0.929 . S
C832 C831 1.383 . S
C832 C833 1.377 . S
C833 H817 0.930 . S
C833 C832 1.377 . S
C833 C834 1.379 . S
C834 H818 0.931 . S
C834 C828 1.383 . S
C834 C833 1.379 . S
H835 C829 0.959 . S
H836 C829 0.961 . S
H837 C829 0.960 . S
H838 C830 0.930 . S
H839 C831 0.929 . S
H840 C848 0.929 . S
H841 C850 0.931 1_455 S
H842 C852 0.930 . S
H843 C855 0.929 . S
H844 C858 0.930 1_455 S
H845 C860 0.960 . S
H846 C860 0.960 . S
H847 C860 0.960 . S
C848 H840 0.929 . S
C848 C849 1.377 . S
C848 C850 1.384 1_455 S
C849 C848 1.377 . S
C849 C855 1.390 1_455 S
C850 H841 0.931 1_655 S
C850 C848 1.384 1_655 S
C850 C851 1.372 . S
C851 C850 1.372 . S
C851 C852 1.400 . S
C851 C856 1.490 . S
C852 H842 0.930 . S
C852 C851 1.400 . S
C852 C855 1.386 . S
H853 C869 0.930 . S
H854 C870 0.931 . S
C855 H843 0.929 . S
C855 C849 1.390 1_655 S
C855 C852 1.386 . S
C856 C851 1.490 . S
C856 C858 1.395 . S
C856 C859 1.403 . S
H857 C863 0.930 . S
C858 H844 0.930 1_655 S
C858 C856 1.395 . S
C858 C861 1.403 . S
C859 C856 1.403 . S
C859 C860 1.524 . S
C859 C863 1.400 . S
C860 H845 0.960 . S
C860 H846 0.960 . S
C860 H847 0.960 . S
C860 C859 1.524 . S
C861 C858 1.403 . S
C861 C862 1.392 . S
C861 C865 1.495 1_655 S
C862 C861 1.392 . S
C862 C863 1.385 . S
C862 C864 1.478 . S
C863 H857 0.930 . S
C863 C859 1.400 . S
C863 C862 1.385 . S
C864 C862 1.478 . S
C864 C866 1.381 . S
C864 C870 1.383 . S
C865 C861 1.495 1_455 S
C865 H871 0.959 . S
C865 H872 0.961 . S
C865 H873 0.954 1_455 S
C866 C864 1.381 . S
C866 C867 1.394 . S
C866 H874 0.930 . S
C867 C866 1.394 . S
C867 C868 1.383 . S
C867 H875 0.929 . S
C868 C867 1.383 . S
C868 C869 1.377 . S
C869 H853 0.930 . S
C869 C868 1.377 . S
C869 C870 1.379 . S
C870 H854 0.931 . S
C870 C864 1.383 . S
C870 C869 1.379 . S
H871 C865 0.959 . S
H872 C865 0.961 . S
H873 C865 0.954 1_655 S
H874 C866 0.930 . S
H875 C867 0.929 . S
H876 C884 0.929 . S
H877 C886 0.930 . S
H878 C888 0.930 . S
H879 C891 0.929 . S
H880 C894 0.930 . S
H881 C896 0.960 . S
H882 C896 0.960 . S
H883 C896 0.960 . S
C884 H876 0.929 . S
C884 C885 1.377 . S
C884 C886 1.384 . S
C885 C884 1.377 . S
C885 C891 1.390 . S
C886 H877 0.930 . S
C886 C884 1.384 . S
C886 C887 1.372 . S
C887 C886 1.372 . S
C887 C888 1.400 . S
C887 C892 1.490 . S
C888 H878 0.930 . S
C888 C887 1.400 . S
C888 C891 1.386 . S
H889 C905 0.930 . S
H890 C906 0.931 . S
C891 H879 0.929 . S
C891 C885 1.390 . S
C891 C888 1.386 . S
C892 C887 1.490 . S
C892 C894 1.395 . S
C892 C895 1.403 . S
H893 C899 0.930 . S
C894 H880 0.930 . S
C894 C892 1.395 . S
C894 C897 1.403 . S
C895 C892 1.403 . S
C895 C896 1.524 . S
C895 C899 1.400 . S
C896 H881 0.960 . S
C896 H882 0.960 . S
C896 H883 0.960 . S
C896 C895 1.524 . S
C897 C894 1.403 . S
C897 C898 1.392 . S
C897 C901 1.495 . S
C898 C897 1.392 . S
C898 C899 1.385 . S
C898 C900 1.478 . S
C899 H893 0.930 . S
C899 C895 1.400 . S
C899 C898 1.385 . S
C900 C898 1.478 . S
C900 C902 1.381 . S
C900 C906 1.383 . S
C901 C897 1.495 . S
C901 H907 0.959 . S
C901 H908 0.961 . S
C901 H909 0.960 . S
C902 C900 1.381 . S
C902 C903 1.394 . S
C902 H910 0.930 . S
C903 C902 1.394 . S
C903 C904 1.383 . S
C903 H911 0.929 . S
C904 C903 1.383 . S
C904 C905 1.377 . S
C905 H889 0.930 . S
C905 C904 1.377 . S
C905 C906 1.379 . S
C906 H890 0.931 . S
C906 C900 1.383 . S
C906 C905 1.379 . S
H907 C901 0.959 . S
H908 C901 0.961 . S
H909 C901 0.960 . S
H910 C902 0.930 . S
H911 C903 0.929 . S
H912 C920 0.929 . S
H913 C922 0.930 . S
H914 C924 0.930 . S
H915 C927 0.929 . S
H916 C930 0.930 . S
H917 C932 0.960 . S
H918 C932 0.960 . S
H919 C932 0.960 . S
C920 H912 0.929 . S
C920 C921 1.377 . S
C920 C922 1.384 . S
C921 C920 1.377 . S
C921 C927 1.390 . S
C922 H913 0.930 . S
C922 C920 1.384 . S
C922 C923 1.372 . S
C923 C922 1.372 . S
C923 C924 1.400 . S
C923 C928 1.490 . S
C924 H914 0.930 . S
C924 C923 1.400 . S
C924 C927 1.386 . S
H925 C941 0.930 . S
H926 C942 0.931 . S
C927 H915 0.929 . S
C927 C921 1.390 . S
C927 C924 1.386 . S
C928 C923 1.490 . S
C928 C930 1.395 . S
C928 C931 1.403 . S
H929 C935 0.930 . S
C930 H916 0.930 . S
C930 C928 1.395 . S
C930 C933 1.403 . S
C931 C928 1.403 . S
C931 C932 1.524 . S
C931 C935 1.400 . S
C932 H917 0.960 . S
C932 H918 0.960 . S
C932 H919 0.960 . S
C932 C931 1.524 . S
C933 C930 1.403 . S
C933 C934 1.392 . S
C933 C937 1.495 . S
C934 C933 1.392 . S
C934 C935 1.385 . S
C934 C936 1.478 . S
C935 H929 0.930 . S
C935 C931 1.400 . S
C935 C934 1.385 . S
C936 C934 1.478 . S
C936 C938 1.381 . S
C936 C942 1.383 . S
C937 C933 1.495 . S
C937 H943 0.959 . S
C937 H944 0.961 . S
C937 H945 0.960 . S
C938 C936 1.381 . S
C938 C939 1.394 . S
C938 H946 0.930 . S
C939 C938 1.394 . S
C939 C940 1.383 . S
C939 H947 0.929 . S
C940 C939 1.383 . S
C940 C941 1.377 . S
C941 H925 0.930 . S
C941 C940 1.377 . S
C941 C942 1.379 . S
C942 H926 0.931 . S
C942 C936 1.383 . S
C942 C941 1.379 . S
H943 C937 0.959 . S
H944 C937 0.961 . S
H945 C937 0.960 . S
H946 C938 0.930 . S
H947 C939 0.929 . S
H948 C956 0.929 . S
H949 C958 0.930 . S
H950 C960 0.930 . S
H951 C963 0.929 . S
H952 C966 0.930 . S
H953 C968 0.960 . S
H954 C968 0.960 . S
H955 C968 0.960 . S
C956 H948 0.929 . S
C956 C957 1.377 . S
C956 C958 1.384 . S
C957 C956 1.377 . S
C957 C963 1.390 . S
C958 H949 0.930 . S
C958 C956 1.384 . S
C958 C959 1.372 . S
C959 C958 1.372 . S
C959 C960 1.400 . S
C959 C964 1.490 . S
C960 H950 0.930 . S
C960 C959 1.400 . S
C960 C963 1.386 . S
H961 C977 0.930 . S
H962 C978 0.931 . S
C963 H951 0.929 . S
C963 C957 1.390 . S
C963 C960 1.386 . S
C964 C959 1.490 . S
C964 C966 1.395 . S
C964 C967 1.403 . S
H965 C971 0.930 . S
C966 H952 0.930 . S
C966 C964 1.395 . S
C966 C969 1.403 . S
C967 C964 1.403 . S
C967 C968 1.524 . S
C967 C971 1.400 . S
C968 H953 0.960 . S
C968 H954 0.960 . S
C968 H955 0.960 . S
C968 C967 1.524 . S
C969 C966 1.403 . S
C969 C970 1.392 . S
C969 C973 1.495 . S
C970 C969 1.392 . S
C970 C971 1.385 . S
C970 C972 1.478 . S
C971 H965 0.930 . S
C971 C967 1.400 . S
C971 C970 1.385 . S
C972 C970 1.478 . S
C972 C974 1.381 . S
C972 C978 1.383 . S
C973 C969 1.495 . S
C973 H979 0.959 . S
C973 H980 0.961 . S
C973 H981 0.960 . S
C974 C972 1.381 . S
C974 C975 1.394 . S
C974 H982 0.930 . S
C975 C974 1.394 . S
C975 C976 1.383 . S
C975 H983 0.929 . S
C976 C975 1.383 . S
C976 C977 1.377 . S
C977 H961 0.930 . S
C977 C976 1.377 . S
C977 C978 1.379 . S
C978 H962 0.931 . S
C978 C972 1.383 . S
C978 C977 1.379 . S
H979 C973 0.959 . S
H980 C973 0.961 . S
H981 C973 0.960 . S
H982 C974 0.930 . S
H983 C975 0.929 . S
H984 C992 0.929 . S
H985 C994 0.930 . S
H986 C996 0.930 . S
H987 C999 0.929 . S
H988 C1002 0.930 . S
H989 C1004 0.960 . S
H990 C1004 0.960 . S
H991 C1004 0.960 . S
C992 H984 0.929 . S
C992 C993 1.377 . S
C992 C994 1.384 . S
C993 C992 1.377 . S
C993 C999 1.390 . S
C994 H985 0.930 . S
C994 C992 1.384 . S
C994 C995 1.372 . S
C995 C994 1.372 . S
C995 C996 1.400 . S
C995 C1000 1.490 . S
C996 H986 0.930 . S
C996 C995 1.400 . S
C996 C999 1.386 . S
H997 C1013 0.930 . S
H998 C1014 0.931 . S
C999 H987 0.929 . S
C999 C993 1.390 . S
C999 C996 1.386 . S
C1000 C995 1.490 . S
C1000 C1002 1.395 . S
C1000 C1003 1.403 . S
H1001 C1007 0.930 . S
C1002 H988 0.930 . S
C1002 C1000 1.395 . S
C1002 C1005 1.403 . S
C1003 C1000 1.403 . S
C1003 C1004 1.524 . S
C1003 C1007 1.400 . S
C1004 H989 0.960 . S
C1004 H990 0.960 . S
C1004 H991 0.960 . S
C1004 C1003 1.524 . S
C1005 C1002 1.403 . S
C1005 C1006 1.392 . S
C1005 C1009 1.495 . S
C1006 C1005 1.392 . S
C1006 C1007 1.385 . S
C1006 C1008 1.478 . S
C1007 H1001 0.930 . S
C1007 C1003 1.400 . S
C1007 C1006 1.385 . S
C1008 C1006 1.478 . S
C1008 C1010 1.381 . S
C1008 C1014 1.383 . S
C1009 C1005 1.495 . S
C1009 H1015 0.959 . S
C1009 H1016 0.961 . S
C1009 H1017 0.960 . S
C1010 C1008 1.381 . S
C1010 C1011 1.394 . S
C1010 H1018 0.930 . S
C1011 C1010 1.394 . S
C1011 C1012 1.383 . S
C1011 H1019 0.929 . S
C1012 C1011 1.383 . S
C1012 C1013 1.377 . S
C1013 H997 0.930 . S
C1013 C1012 1.377 . S
C1013 C1014 1.379 . S
C1014 H998 0.931 . S
C1014 C1008 1.383 . S
C1014 C1013 1.379 . S
H1015 C1009 0.959 . S
H1016 C1009 0.961 . S
H1017 C1009 0.960 . S
H1018 C1010 0.930 . S
H1019 C1011 0.929 . S
H1020 C1028 0.929 . S
H1021 C1030 0.930 . S
H1022 C1032 0.930 . S
H1023 C1035 0.929 . S
H1024 C1038 0.930 . S
H1025 C1040 0.960 . S
H1026 C1040 0.960 . S
H1027 C1040 0.960 . S
C1028 H1020 0.929 . S
C1028 C1029 1.377 . S
C1028 C1030 1.384 . S
C1029 C1028 1.377 . S
C1029 C1035 1.390 . S
C1030 H1021 0.930 . S
C1030 C1028 1.384 . S
C1030 C1031 1.372 . S
C1031 C1030 1.372 . S
C1031 C1032 1.400 . S
C1031 C1036 1.490 . S
C1032 H1022 0.930 . S
C1032 C1031 1.400 . S
C1032 C1035 1.386 . S
H1033 C1049 0.930 . S
H1034 C1050 0.931 . S
C1035 H1023 0.929 . S
C1035 C1029 1.390 . S
C1035 C1032 1.386 . S
C1036 C1031 1.490 . S
C1036 C1038 1.361 1_554 S
C1036 C1039 1.403 . S
H1037 C1043 0.930 . S
C1038 H1024 0.930 . S
C1038 C1036 1.361 1_556 S
C1038 C1041 1.437 . S
C1039 C1036 1.403 . S
C1039 C1040 1.524 . S
C1039 C1043 1.373 1_554 S
C1040 H1025 0.960 . S
C1040 H1026 0.960 . S
C1040 H1027 0.960 . S
C1040 C1039 1.524 . S
C1041 C1038 1.437 . S
C1041 C1042 1.392 . S
C1041 C1045 1.495 . S
C1042 C1041 1.392 . S
C1042 C1043 1.412 . S
C1042 C1044 1.478 . S
C1043 H1037 0.930 . S
C1043 C1039 1.373 1_556 S
C1043 C1042 1.412 . S
C1044 C1042 1.478 . S
C1044 C1046 1.381 . S
C1044 C1050 1.383 . S
C1045 C1041 1.495 . S
C1045 H1051 0.959 . S
C1045 H1052 0.961 . S
C1045 H1053 0.960 . S
C1046 C1044 1.381 . S
C1046 C1047 1.394 . S
C1046 H1054 0.930 . S
C1047 C1046 1.394 . S
C1047 C1048 1.383 . S
C1047 H1055 0.929 . S
C1048 C1047 1.383 . S
C1048 C1049 1.377 . S
C1049 H1033 0.930 . S
C1049 C1048 1.377 . S
C1049 C1050 1.379 . S
C1050 H1034 0.931 . S
C1050 C1044 1.383 . S
C1050 C1049 1.379 . S
H1051 C1045 0.959 . S
H1052 C1045 0.961 . S
H1053 C1045 0.960 . S
H1054 C1046 0.930 . S
H1055 C1047 0.929 . S
H1056 C1064 0.929 . S
H1057 C1066 0.930 . S
H1058 C1068 0.930 . S
H1059 C1071 0.929 . S
H1060 C1074 0.930 . S
H1061 C1076 0.960 . S
H1062 C1076 0.960 . S
H1063 C1076 0.960 . S
C1064 H1056 0.929 . S
C1064 C1065 1.377 . S
C1064 C1066 1.384 . S
C1065 C1064 1.377 . S
C1065 C1071 1.390 . S
C1066 H1057 0.930 . S
C1066 C1064 1.384 . S
C1066 C1067 1.372 . S
C1067 C1066 1.372 . S
C1067 C1068 1.400 . S
C1067 C1072 1.490 . S
C1068 H1058 0.930 . S
C1068 C1067 1.400 . S
C1068 C1071 1.386 . S
H1069 C1085 0.930 . S
H1070 C1086 0.931 . S
C1071 H1059 0.929 . S
C1071 C1065 1.390 . S
C1071 C1068 1.386 . S
C1072 C1067 1.490 . S
C1072 C1074 1.395 . S
C1072 C1075 1.403 . S
H1073 C1079 0.930 . S
C1074 H1060 0.930 . S
C1074 C1072 1.395 . S
C1074 C1077 1.403 . S
C1075 C1072 1.403 . S
C1075 C1076 1.524 . S
C1075 C1079 1.400 . S
C1076 H1061 0.960 . S
C1076 H1062 0.960 . S
C1076 H1063 0.960 . S
C1076 C1075 1.524 . S
C1077 C1074 1.403 . S
C1077 C1078 1.392 . S
C1077 C1081 1.495 . S
C1078 C1077 1.392 . S
C1078 C1079 1.385 . S
C1078 C1080 1.478 . S
C1079 H1073 0.930 . S
C1079 C1075 1.400 . S
C1079 C1078 1.385 . S
C1080 C1078 1.478 . S
C1080 C1082 1.381 . S
C1080 C1086 1.383 . S
C1081 C1077 1.495 . S
C1081 H1087 0.959 . S
C1081 H1088 0.961 . S
C1081 H1089 0.960 . S
C1082 C1080 1.381 . S
C1082 C1083 1.394 . S
C1082 H1090 0.930 . S
C1083 C1082 1.394 . S
C1083 C1084 1.383 . S
C1083 H1091 0.929 . S
C1084 C1083 1.383 . S
C1084 C1085 1.377 . S
C1085 H1069 0.930 . S
C1085 C1084 1.377 . S
C1085 C1086 1.379 . S
C1086 H1070 0.931 . S
C1086 C1080 1.383 . S
C1086 C1085 1.379 . S
H1087 C1081 0.959 . S
H1088 C1081 0.961 . S
H1089 C1081 0.960 . S
H1090 C1082 0.930 . S
H1091 C1083 0.929 . S
H1092 C1100 0.929 . S
H1093 C1102 0.930 1_556 S
H1094 C1104 0.930 . S
H1095 C1107 0.929 . S
H1096 C1110 0.930 . S
H1097 C1112 0.960 . S
H1098 C1112 0.976 . S
H1099 C1112 0.960 1_554 S
C1100 H1092 0.929 . S
C1100 C1101 1.377 . S
C1100 C1102 1.384 . S
C1101 C1100 1.377 . S
C1101 C1107 1.390 . S
C1102 H1093 0.930 1_554 S
C1102 C1100 1.384 . S
C1102 C1103 1.372 . S
C1103 C1102 1.372 . S
C1103 C1104 1.400 . S
C1103 C1108 1.490 1_554 S
C1104 H1094 0.930 . S
C1104 C1103 1.400 . S
C1104 C1107 1.386 . S
H1105 C1121 0.930 . S
H1106 C1122 0.931 . S
C1107 H1095 0.929 . S
C1107 C1101 1.390 . S
C1107 C1104 1.386 . S
C1108 C1103 1.490 1_556 S
C1108 C1110 1.395 . S
C1108 C1111 1.403 . S
H1109 C1115 0.930 . S
C1110 H1096 0.930 . S
C1110 C1108 1.395 . S
C1110 C1113 1.403 . S
C1111 C1108 1.403 . S
C1111 C1112 1.524 . S
C1111 C1115 1.400 . S
C1112 H1097 0.960 . S
C1112 H1098 0.976 . S
C1112 H1099 0.960 1_556 S
C1112 C1111 1.524 . S
C1113 C1110 1.403 . S
C1113 C1114 1.392 . S
C1113 C1117 1.495 . S
C1114 C1113 1.392 . S
C1114 C1115 1.385 . S
C1114 C1116 1.478 . S
C1115 H1109 0.930 . S
C1115 C1111 1.400 . S
C1115 C1114 1.385 . S
C1116 C1114 1.478 . S
C1116 C1118 1.381 . S
C1116 C1122 1.383 . S
C1117 C1113 1.495 . S
C1117 H1123 0.959 . S
C1117 H1124 0.961 . S
C1117 H1125 0.960 . S
C1118 C1116 1.381 . S
C1118 C1119 1.394 . S
C1118 H1126 0.930 . S
C1119 C1118 1.394 . S
C1119 C1120 1.383 . S
C1119 H1127 0.929 . S
C1120 C1119 1.383 . S
C1120 C1121 1.377 . S
C1121 H1105 0.930 . S
C1121 C1120 1.377 . S
C1121 C1122 1.379 . S
C1122 H1106 0.931 . S
C1122 C1116 1.383 . S
C1122 C1121 1.379 . S
H1123 C1117 0.959 . S
H1124 C1117 0.961 . S
H1125 C1117 0.960 . S
H1126 C1118 0.930 . S
H1127 C1119 0.929 . S
H1128 C1136 0.929 . S
H1129 C1138 0.930 . S
H1130 C1140 0.930 . S
H1131 C1143 0.929 . S
H1132 C1146 0.930 . S
H1133 C1148 0.960 . S
H1134 C1148 0.960 . S
H1135 C1148 0.960 . S
C1136 H1128 0.929 . S
C1136 C1137 1.377 . S
C1136 C1138 1.384 . S
C1137 C1136 1.377 . S
C1137 C1143 1.390 . S
C1138 H1129 0.930 . S
C1138 C1136 1.384 . S
C1138 C1139 1.372 . S
C1139 C1138 1.372 . S
C1139 C1140 1.400 . S
C1139 C1144 1.490 . S
C1140 H1130 0.930 . S
C1140 C1139 1.400 . S
C1140 C1143 1.386 . S
H1141 C1157 0.930 . S
H1142 C1158 0.931 . S
C1143 H1131 0.929 . S
C1143 C1137 1.390 . S
C1143 C1140 1.386 . S
C1144 C1139 1.490 . S
C1144 C1146 1.395 . S
C1144 C1147 1.403 . S
H1145 C1151 0.930 . S
C1146 H1132 0.930 . S
C1146 C1144 1.395 . S
C1146 C1149 1.403 . S
C1147 C1144 1.403 . S
C1147 C1148 1.524 . S
C1147 C1151 1.400 . S
C1148 H1133 0.960 . S
C1148 H1134 0.960 . S
C1148 H1135 0.960 . S
C1148 C1147 1.524 . S
C1149 C1146 1.403 . S
C1149 C1150 1.392 . S
C1149 C1153 1.495 . S
C1150 C1149 1.392 . S
C1150 C1151 1.385 . S
C1150 C1152 1.478 . S
C1151 H1145 0.930 . S
C1151 C1147 1.400 . S
C1151 C1150 1.385 . S
C1152 C1150 1.478 . S
C1152 C1154 1.381 . S
C1152 C1158 1.383 . S
C1153 C1149 1.495 . S
C1153 H1159 0.959 . S
C1153 H1160 0.961 . S
C1153 H1161 0.960 . S
C1154 C1152 1.381 . S
C1154 C1155 1.394 . S
C1154 H1162 0.930 . S
C1155 C1154 1.394 . S
C1155 C1156 1.383 . S
C1155 H1163 0.929 . S
C1156 C1155 1.383 . S
C1156 C1157 1.377 . S
C1157 H1141 0.930 . S
C1157 C1156 1.377 . S
C1157 C1158 1.379 . S
C1158 H1142 0.931 . S
C1158 C1152 1.383 . S
C1158 C1157 1.379 . S
H1159 C1153 0.959 . S
H1160 C1153 0.961 . S
H1161 C1153 0.960 . S
H1162 C1154 0.930 . S
H1163 C1155 0.929 . S
H1164 C1172 0.929 . S
H1165 C1174 0.930 . S
H1166 C1176 0.930 . S
H1167 C1179 0.929 . S
H1168 C1182 0.930 . S
H1169 C1184 0.960 . S
H1170 C1184 0.960 . S
H1171 C1184 0.960 . S
C1172 H1164 0.929 . S
C1172 C1173 1.377 . S
C1172 C1174 1.384 . S
C1173 C1172 1.377 . S
C1173 C1179 1.390 . S
C1174 H1165 0.930 . S
C1174 C1172 1.384 . S
C1174 C1175 1.372 . S
C1175 C1174 1.372 . S
C1175 C1176 1.400 . S
C1175 C1180 1.490 . S
C1176 H1166 0.930 . S
C1176 C1175 1.400 . S
C1176 C1179 1.386 . S
H1177 C1193 0.930 . S
H1178 C1194 0.931 . S
C1179 H1167 0.929 . S
C1179 C1173 1.390 . S
C1179 C1176 1.386 . S
C1180 C1175 1.490 . S
C1180 C1182 1.395 . S
C1180 C1183 1.403 . S
H1181 C1187 0.930 . S
C1182 H1168 0.930 . S
C1182 C1180 1.395 . S
C1182 C1185 1.403 . S
C1183 C1180 1.403 . S
C1183 C1184 1.524 . S
C1183 C1187 1.400 . S
C1184 H1169 0.960 . S
C1184 H1170 0.960 . S
C1184 H1171 0.960 . S
C1184 C1183 1.524 . S
C1185 C1182 1.403 . S
C1185 C1186 1.392 . S
C1185 C1189 1.495 . S
C1186 C1185 1.392 . S
C1186 C1187 1.385 . S
C1186 C1188 1.478 . S
C1187 H1181 0.930 . S
C1187 C1183 1.400 . S
C1187 C1186 1.385 . S
C1188 C1186 1.478 . S
C1188 C1190 1.381 . S
C1188 C1194 1.383 . S
C1189 C1185 1.495 . S
C1189 H1195 0.959 . S
C1189 H1196 0.961 . S
C1189 H1197 0.960 . S
C1190 C1188 1.381 . S
C1190 C1191 1.394 . S
C1190 H1198 0.930 . S
C1191 C1190 1.394 . S
C1191 C1192 1.383 . S
C1191 H1199 0.929 . S
C1192 C1191 1.383 . S
C1192 C1193 1.377 . S
C1193 H1177 0.930 . S
C1193 C1192 1.377 . S
C1193 C1194 1.379 . S
C1194 H1178 0.931 . S
C1194 C1188 1.383 . S
C1194 C1193 1.379 . S
H1195 C1189 0.959 . S
H1196 C1189 0.961 . S
H1197 C1189 0.960 . S
H1198 C1190 0.930 . S
H1199 C1191 0.929 . S
H1200 C1208 0.929 . S
H1201 C1210 0.930 . S
H1202 C1212 0.930 . S
H1203 C1215 0.929 . S
H1204 C1218 0.930 . S
H1205 C1220 0.960 . S
H1206 C1220 0.960 . S
H1207 C1220 0.960 . S
C1208 H1200 0.929 . S
C1208 C1209 1.377 . S
C1208 C1210 1.384 . S
C1209 C1208 1.377 . S
C1209 C1215 1.390 . S
C1210 H1201 0.930 . S
C1210 C1208 1.384 . S
C1210 C1211 1.372 . S
C1211 C1210 1.372 . S
C1211 C1212 1.400 . S
C1211 C1216 1.490 . S
C1212 H1202 0.930 . S
C1212 C1211 1.400 . S
C1212 C1215 1.386 . S
H1213 C1229 0.930 . S
H1214 C1230 0.931 . S
C1215 H1203 0.929 . S
C1215 C1209 1.390 . S
C1215 C1212 1.386 . S
C1216 C1211 1.490 . S
C1216 C1218 1.395 . S
C1216 C1219 1.403 . S
H1217 C1223 0.930 . S
C1218 H1204 0.930 . S
C1218 C1216 1.395 . S
C1218 C1221 1.403 . S
C1219 C1216 1.403 . S
C1219 C1220 1.524 . S
C1219 C1223 1.400 . S
C1220 H1205 0.960 . S
C1220 H1206 0.960 . S
C1220 H1207 0.960 . S
C1220 C1219 1.524 . S
C1221 C1218 1.403 . S
C1221 C1222 1.392 . S
C1221 C1225 1.495 . S
C1222 C1221 1.392 . S
C1222 C1223 1.385 . S
C1222 C1224 1.478 . S
C1223 H1217 0.930 . S
C1223 C1219 1.400 . S
C1223 C1222 1.385 . S
C1224 C1222 1.478 . S
C1224 C1226 1.381 . S
C1224 C1230 1.383 . S
C1225 C1221 1.495 . S
C1225 H1231 0.959 . S
C1225 H1232 0.961 . S
C1225 H1233 0.960 . S
C1226 C1224 1.381 . S
C1226 C1227 1.394 . S
C1226 H1234 0.930 . S
C1227 C1226 1.394 . S
C1227 C1228 1.383 . S
C1227 H1235 0.929 . S
C1228 C1227 1.383 . S
C1228 C1229 1.377 . S
C1229 H1213 0.930 . S
C1229 C1228 1.377 . S
C1229 C1230 1.379 . S
C1230 H1214 0.931 . S
C1230 C1224 1.383 . S
C1230 C1229 1.379 . S
H1231 C1225 0.959 . S
H1232 C1225 0.961 . S
H1233 C1225 0.960 . S
H1234 C1226 0.930 . S
H1235 C1227 0.929 . S
H1236 C1244 0.929 . S
H1237 C1246 0.930 . S
H1238 C1248 0.930 . S
H1239 C1251 0.929 . S
H1240 C1254 0.930 . S
H1241 C1256 0.960 . S
H1242 C1256 0.960 . S
H1243 C1256 0.960 . S
C1244 H1236 0.929 . S
C1244 C1245 1.377 . S
C1244 C1246 1.384 . S
C1245 C1244 1.377 . S
C1245 C1251 1.390 . S
C1246 H1237 0.930 . S
C1246 C1244 1.384 . S
C1246 C1247 1.372 . S
C1247 C1246 1.372 . S
C1247 C1248 1.400 . S
C1247 C1252 1.490 . S
C1248 H1238 0.930 . S
C1248 C1247 1.400 . S
C1248 C1251 1.386 . S
H1249 C1265 0.930 . S
H1250 C1266 0.931 . S
C1251 H1239 0.929 . S
C1251 C1245 1.390 . S
C1251 C1248 1.386 . S
C1252 C1247 1.490 . S
C1252 C1254 1.395 . S
C1252 C1255 1.403 . S
H1253 C1259 0.930 . S
C1254 H1240 0.930 . S
C1254 C1252 1.395 . S
C1254 C1257 1.403 . S
C1255 C1252 1.403 . S
C1255 C1256 1.524 . S
C1255 C1259 1.400 . S
C1256 H1241 0.960 . S
C1256 H1242 0.960 . S
C1256 H1243 0.960 . S
C1256 C1255 1.524 . S
C1257 C1254 1.403 . S
C1257 C1258 1.392 . S
C1257 C1261 1.495 1_545 S
C1258 C1257 1.392 . S
C1258 C1259 1.385 . S
C1258 C1260 1.478 1_545 S
C1259 H1253 0.930 . S
C1259 C1255 1.400 . S
C1259 C1258 1.385 . S
C1260 C1258 1.478 1_565 S
C1260 C1262 1.381 . S
C1260 C1266 1.383 . S
C1261 C1257 1.495 1_565 S
C1261 H1267 0.959 1_565 S
C1261 H1268 0.961 . S
C1261 H1269 0.960 . S
C1262 C1260 1.381 . S
C1262 C1263 1.394 . S
C1262 H1270 0.930 . S
C1263 C1262 1.394 . S
C1263 C1264 1.383 . S
C1263 H1271 0.929 . S
C1264 C1263 1.383 . S
C1264 C1265 1.377 . S
C1265 H1249 0.930 . S
C1265 C1264 1.377 . S
C1265 C1266 1.379 . S
C1266 H1250 0.931 . S
C1266 C1260 1.383 . S
C1266 C1265 1.379 . S
H1267 C1261 0.959 1_545 S
H1268 C1261 0.961 . S
H1269 C1261 0.960 . S
H1270 C1262 0.930 . S
H1271 C1263 0.929 . S
H1272 C1280 0.929 . S
H1273 C1282 0.930 . S
H1274 C1284 0.930 . S
H1275 C1287 0.929 . S
H1276 C1290 0.930 . S
H1277 C1292 0.960 . S
H1278 C1292 0.960 . S
H1279 C1292 0.960 . S
C1280 H1272 0.929 . S
C1280 C1281 1.377 . S
C1280 C1282 1.384 . S
C1281 C1280 1.377 . S
C1281 C1287 1.390 . S
C1282 H1273 0.930 . S
C1282 C1280 1.384 . S
C1282 C1283 1.372 . S
C1283 C1282 1.372 . S
C1283 C1284 1.400 . S
C1283 C1288 1.490 . S
C1284 H1274 0.930 . S
C1284 C1283 1.400 . S
C1284 C1287 1.386 . S
H1285 C1301 0.930 . S
H1286 C1302 0.931 . S
C1287 H1275 0.929 . S
C1287 C1281 1.390 . S
C1287 C1284 1.386 . S
C1288 C1283 1.490 . S
C1288 C1290 1.395 . S
C1288 C1291 1.403 . S
H1289 C1295 0.930 . S
C1290 H1276 0.930 . S
C1290 C1288 1.395 . S
C1290 C1293 1.403 . S
C1291 C1288 1.403 . S
C1291 C1292 1.524 . S
C1291 C1295 1.400 . S
C1292 H1277 0.960 . S
C1292 H1278 0.960 . S
C1292 H1279 0.960 . S
C1292 C1291 1.524 . S
C1293 C1290 1.403 . S
C1293 C1294 1.392 . S
C1293 C1297 1.495 . S
C1294 C1293 1.392 . S
C1294 C1295 1.385 . S
C1294 C1296 1.478 . S
C1295 H1289 0.930 . S
C1295 C1291 1.400 . S
C1295 C1294 1.385 . S
C1296 C1294 1.478 . S
C1296 C1298 1.381 . S
C1296 C1302 1.383 . S
C1297 C1293 1.495 . S
C1297 H1303 0.959 . S
C1297 H1304 0.961 . S
C1297 H1305 0.960 . S
C1298 C1296 1.381 . S
C1298 C1299 1.394 . S
C1298 H1306 0.930 . S
C1299 C1298 1.394 . S
C1299 C1300 1.383 . S
C1299 H1307 0.929 . S
C1300 C1299 1.383 . S
C1300 C1301 1.377 . S
C1301 H1285 0.930 . S
C1301 C1300 1.377 . S
C1301 C1302 1.379 . S
C1302 H1286 0.931 . S
C1302 C1296 1.383 . S
C1302 C1301 1.379 . S
H1303 C1297 0.959 . S
H1304 C1297 0.961 . S
H1305 C1297 0.960 . S
H1306 C1298 0.930 . S
H1307 C1299 0.929 . S
H1308 C1316 0.929 . S
H1309 C1318 0.930 . S
H1310 C1320 0.930 . S
H1311 C1323 0.929 . S
H1312 C1326 0.930 . S
H1313 C1328 0.960 . S
H1314 C1328 0.960 . S
H1315 C1328 0.960 . S
C1316 H1308 0.929 . S
C1316 C1317 1.377 . S
C1316 C1318 1.384 . S
C1317 C1316 1.377 . S
C1317 C1323 1.390 . S
C1318 H1309 0.930 . S
C1318 C1316 1.384 . S
C1318 C1319 1.372 . S
C1319 C1318 1.372 . S
C1319 C1320 1.400 . S
C1319 C1324 1.490 . S
C1320 H1310 0.930 . S
C1320 C1319 1.400 . S
C1320 C1323 1.386 . S
H1321 C1337 0.930 . S
H1322 C1338 0.931 . S
C1323 H1311 0.929 . S
C1323 C1317 1.390 . S
C1323 C1320 1.386 . S
C1324 C1319 1.490 . S
C1324 C1326 1.395 . S
C1324 C1327 1.403 1_545 S
H1325 C1331 0.930 . S
C1326 H1312 0.930 . S
C1326 C1324 1.395 . S
C1326 C1329 1.403 1_545 S
C1327 C1324 1.403 1_565 S
C1327 C1328 1.524 . S
C1327 C1331 1.400 . S
C1328 H1313 0.960 . S
C1328 H1314 0.960 . S
C1328 H1315 0.960 . S
C1328 C1327 1.524 . S
C1329 C1326 1.403 1_565 S
C1329 C1330 1.392 . S
C1329 C1333 1.495 . S
C1330 C1329 1.392 . S
C1330 C1331 1.385 . S
C1330 C1332 1.478 . S
C1331 H1325 0.930 . S
C1331 C1327 1.400 . S
C1331 C1330 1.385 . S
C1332 C1330 1.478 . S
C1332 C1334 1.381 . S
C1332 C1338 1.383 . S
C1333 C1329 1.495 . S
C1333 H1339 0.959 1_565 S
C1333 H1340 0.961 . S
C1333 H1341 0.960 . S
C1334 C1332 1.381 . S
C1334 C1335 1.394 . S
C1334 H1342 0.930 . S
C1335 C1334 1.394 . S
C1335 C1336 1.383 . S
C1335 H1343 0.929 . S
C1336 C1335 1.383 . S
C1336 C1337 1.377 . S
C1337 H1321 0.930 . S
C1337 C1336 1.377 . S
C1337 C1338 1.379 . S
C1338 H1322 0.931 . S
C1338 C1332 1.383 . S
C1338 C1337 1.379 . S
H1339 C1333 0.959 1_545 S
H1340 C1333 0.961 . S
H1341 C1333 0.960 . S
H1342 C1334 0.930 . S
H1343 C1335 0.929 . S
H1344 C1352 0.929 . S
H1345 C1354 0.930 . S
H1346 C1356 0.930 . S
H1347 C1359 0.929 . S
H1348 C1362 0.930 . S
H1349 C1364 0.960 . S
H1350 C1364 0.960 . S
H1351 C1364 0.960 . S
C1352 H1344 0.929 . S
C1352 C1353 1.377 . S
C1352 C1354 1.384 . S
C1353 C1352 1.377 . S
C1353 C1359 1.390 . S
C1354 H1345 0.930 . S
C1354 C1352 1.384 . S
C1354 C1355 1.372 . S
C1355 C1354 1.372 . S
C1355 C1356 1.400 . S
C1355 C1360 1.490 . S
C1356 H1346 0.930 . S
C1356 C1355 1.400 . S
C1356 C1359 1.386 . S
H1357 C1373 0.930 . S
H1358 C1374 0.931 . S
C1359 H1347 0.929 . S
C1359 C1353 1.390 . S
C1359 C1356 1.386 . S
C1360 C1355 1.490 . S
C1360 C1362 1.395 . S
C1360 C1363 1.403 . S
H1361 C1367 0.930 . S
C1362 H1348 0.930 . S
C1362 C1360 1.395 . S
C1362 C1365 1.403 . S
C1363 C1360 1.403 . S
C1363 C1364 1.524 . S
C1363 C1367 1.400 . S
C1364 H1349 0.960 . S
C1364 H1350 0.960 . S
C1364 H1351 0.960 . S
C1364 C1363 1.524 . S
C1365 C1362 1.403 . S
C1365 C1366 1.392 . S
C1365 C1369 1.495 . S
C1366 C1365 1.392 . S
C1366 C1367 1.385 . S
C1366 C1368 1.478 . S
C1367 H1361 0.930 . S
C1367 C1363 1.400 . S
C1367 C1366 1.385 . S
C1368 C1366 1.478 . S
C1368 C1370 1.381 . S
C1368 C1374 1.383 . S
C1369 C1365 1.495 . S
C1369 H1375 0.959 . S
C1369 H1376 0.961 . S
C1369 H1377 0.960 . S
C1370 C1368 1.381 . S
C1370 C1371 1.394 . S
C1370 H1378 0.930 . S
C1371 C1370 1.394 . S
C1371 C1372 1.383 . S
C1371 H1379 0.929 . S
C1372 C1371 1.383 . S
C1372 C1373 1.377 . S
C1373 H1357 0.930 . S
C1373 C1372 1.377 . S
C1373 C1374 1.379 . S
C1374 H1358 0.931 . S
C1374 C1368 1.383 . S
C1374 C1373 1.379 . S
H1375 C1369 0.959 . S
H1376 C1369 0.961 . S
H1377 C1369 0.960 . S
H1378 C1370 0.930 . S
H1379 C1371 0.929 . S
H1380 C1388 0.925 . S
H1381 C1390 0.930 . S
H1382 C1392 0.930 . S
H1383 C1395 0.929 . S
H1384 C1398 0.930 . S
H1385 C1400 0.960 . S
H1386 C1400 0.960 . S
H1387 C1400 0.960 . S
C1388 H1380 0.925 . S
C1388 C1389 1.377 . S
C1388 C1390 1.384 . S
C1389 C1388 1.377 . S
C1389 C1395 1.390 . S
C1390 H1381 0.930 . S
C1390 C1388 1.384 . S
C1390 C1391 1.372 . S
C1391 C1390 1.372 . S
C1391 C1392 1.400 . S
C1391 C1396 1.490 . S
C1392 H1382 0.930 . S
C1392 C1391 1.400 . S
C1392 C1395 1.386 . S
H1393 C1409 0.930 . S
H1394 C1410 0.931 . S
C1395 H1383 0.929 . S
C1395 C1389 1.390 . S
C1395 C1392 1.386 . S
C1396 C1391 1.490 . S
C1396 C1398 1.395 . S
C1396 C1399 1.403 . S
H1397 C1403 0.930 . S
C1398 H1384 0.930 . S
C1398 C1396 1.395 . S
C1398 C1401 1.403 . S
C1399 C1396 1.403 . S
C1399 C1400 1.524 . S
C1399 C1403 1.400 . S
C1400 H1385 0.960 . S
C1400 H1386 0.960 . S
C1400 H1387 0.960 . S
C1400 C1399 1.524 . S
C1401 C1398 1.403 . S
C1401 C1402 1.392 . S
C1401 C1405 1.495 . S
C1402 C1401 1.392 . S
C1402 C1403 1.385 . S
C1402 C1404 1.478 . S
C1403 H1397 0.930 . S
C1403 C1399 1.400 . S
C1403 C1402 1.385 . S
C1404 C1402 1.478 . S
C1404 C1406 1.381 . S
C1404 C1410 1.383 . S
C1405 C1401 1.495 . S
C1405 H1411 0.959 . S
C1405 H1412 0.961 . S
C1405 H1413 0.960 . S
C1406 C1404 1.381 . S
C1406 C1407 1.394 . S
C1406 H1414 0.930 . S
C1407 C1406 1.394 . S
C1407 C1408 1.383 . S
C1407 H1415 0.929 . S
C1408 C1407 1.383 . S
C1408 C1409 1.377 . S
C1409 H1393 0.930 . S
C1409 C1408 1.377 . S
C1409 C1410 1.379 . S
C1410 H1394 0.931 . S
C1410 C1404 1.383 . S
C1410 C1409 1.379 . S
H1411 C1405 0.959 . S
H1412 C1405 0.961 . S
H1413 C1405 0.960 . S
H1414 C1406 0.930 . S
H1415 C1407 0.929 . S
H1416 C1424 0.929 . S
H1417 C1426 0.930 . S
H1418 C1428 0.930 . S
H1419 C1431 0.929 . S
H1420 C1434 0.930 . S
H1421 C1436 0.960 . S
H1422 C1436 0.960 . S
H1423 C1436 0.960 . S
C1424 H1416 0.929 . S
C1424 C1425 1.377 . S
C1424 C1426 1.384 . S
C1425 C1424 1.377 . S
C1425 C1431 1.390 . S
C1426 H1417 0.930 . S
C1426 C1424 1.384 . S
C1426 C1427 1.372 . S
C1427 C1426 1.372 . S
C1427 C1428 1.400 . S
C1427 C1432 1.490 . S
C1428 H1418 0.930 . S
C1428 C1427 1.400 . S
C1428 C1431 1.386 . S
H1429 C1445 0.930 . S
H1430 C1446 0.931 . S
C1431 H1419 0.929 . S
C1431 C1425 1.390 . S
C1431 C1428 1.386 . S
C1432 C1427 1.490 . S
C1432 C1434 1.395 . S
C1432 C1435 1.403 . S
H1433 C1439 0.930 . S
C1434 H1420 0.930 . S
C1434 C1432 1.395 . S
C1434 C1437 1.403 . S
C1435 C1432 1.403 . S
C1435 C1436 1.524 . S
C1435 C1439 1.400 . S
C1436 H1421 0.960 . S
C1436 H1422 0.960 . S
C1436 H1423 0.960 . S
C1436 C1435 1.524 . S
C1437 C1434 1.403 . S
C1437 C1438 1.392 . S
C1437 C1441 1.495 . S
C1438 C1437 1.392 . S
C1438 C1439 1.385 . S
C1438 C1440 1.478 . S
C1439 H1433 0.930 . S
C1439 C1435 1.400 . S
C1439 C1438 1.385 . S
C1440 C1438 1.478 . S
C1440 C1442 1.381 . S
C1440 C1446 1.383 . S
C1441 C1437 1.495 . S
C1441 H1447 0.959 . S
C1441 H1448 0.961 . S
C1441 H1449 0.960 . S
C1442 C1440 1.381 . S
C1442 C1443 1.394 . S
C1442 H1450 0.930 . S
C1443 C1442 1.394 . S
C1443 C1444 1.383 . S
C1443 H1451 0.929 . S
C1444 C1443 1.383 . S
C1444 C1445 1.377 . S
C1445 H1429 0.930 . S
C1445 C1444 1.377 . S
C1445 C1446 1.379 . S
C1446 H1430 0.931 . S
C1446 C1440 1.383 . S
C1446 C1445 1.379 . S
H1447 C1441 0.959 . S
H1448 C1441 0.961 . S
H1449 C1441 0.960 . S
H1450 C1442 0.930 . S
H1451 C1443 0.929 . S
H1452 C1460 0.929 . S
H1453 C1462 0.930 . S
H1454 C1464 0.930 . S
H1455 C1467 0.929 . S
H1456 C1470 0.930 . S
H1457 C1472 0.960 . S
H1458 C1472 0.960 . S
H1459 C1472 0.960 . S
C1460 H1452 0.929 . S
C1460 C1461 1.377 . S
C1460 C1462 1.384 . S
C1461 C1460 1.377 . S
C1461 C1467 1.390 . S
C1462 H1453 0.930 . S
C1462 C1460 1.384 . S
C1462 C1463 1.372 . S
C1463 C1462 1.372 . S
C1463 C1464 1.400 . S
C1463 C1468 1.490 . S
C1464 H1454 0.930 . S
C1464 C1463 1.400 . S
C1464 C1467 1.386 . S
H1465 C1481 0.930 . S
H1466 C1482 0.931 . S
C1467 H1455 0.929 . S
C1467 C1461 1.390 . S
C1467 C1464 1.386 . S
C1468 C1463 1.490 . S
C1468 C1470 1.395 . S
C1468 C1471 1.403 . S
H1469 C1475 0.930 . S
C1470 H1456 0.930 . S
C1470 C1468 1.395 . S
C1470 C1473 1.403 . S
C1471 C1468 1.403 . S
C1471 C1472 1.524 . S
C1471 C1475 1.400 . S
C1472 H1457 0.960 . S
C1472 H1458 0.960 . S
C1472 H1459 0.960 . S
C1472 C1471 1.524 . S
C1473 C1470 1.403 . S
C1473 C1474 1.392 . S
C1473 C1477 1.495 . S
C1474 C1473 1.392 . S
C1474 C1475 1.385 . S
C1474 C1476 1.478 . S
C1475 H1469 0.930 . S
C1475 C1471 1.400 . S
C1475 C1474 1.385 . S
C1476 C1474 1.478 . S
C1476 C1478 1.381 . S
C1476 C1482 1.383 . S
C1477 C1473 1.495 . S
C1477 H1483 0.959 . S
C1477 H1484 0.961 . S
C1477 H1485 0.960 . S
C1478 C1476 1.381 . S
C1478 C1479 1.394 . S
C1478 H1486 0.930 . S
C1479 C1478 1.394 . S
C1479 C1480 1.383 . S
C1479 H1487 0.929 . S
C1480 C1479 1.383 . S
C1480 C1481 1.377 . S
C1481 H1465 0.930 . S
C1481 C1480 1.377 . S
C1481 C1482 1.379 . S
C1482 H1466 0.931 . S
C1482 C1476 1.383 . S
C1482 C1481 1.379 . S
H1483 C1477 0.959 . S
H1484 C1477 0.961 . S
H1485 C1477 0.960 . S
H1486 C1478 0.930 . S
H1487 C1479 0.929 . S
H1488 C1496 0.929 . S
H1489 C1498 0.930 . S
H1490 C1500 0.930 . S
H1491 C1503 0.929 . S
H1492 C1506 0.930 . S
H1493 C1508 0.960 . S
H1494 C1508 0.960 . S
H1495 C1508 0.960 . S
C1496 H1488 0.929 . S
C1496 C1497 1.377 . S
C1496 C1498 1.384 . S
C1497 C1496 1.377 . S
C1497 C1503 1.390 . S
C1498 H1489 0.930 . S
C1498 C1496 1.384 . S
C1498 C1499 1.372 . S
C1499 C1498 1.372 . S
C1499 C1500 1.400 . S
C1499 C1504 1.490 . S
C1500 H1490 0.930 . S
C1500 C1499 1.400 . S
C1500 C1503 1.386 . S
H1501 C1517 0.930 . S
H1502 C1518 0.931 . S
C1503 H1491 0.929 . S
C1503 C1497 1.390 . S
C1503 C1500 1.386 . S
C1504 C1499 1.490 . S
C1504 C1506 1.395 . S
C1504 C1507 1.403 . S
H1505 C1511 0.930 . S
C1506 H1492 0.930 . S
C1506 C1504 1.395 . S
C1506 C1509 1.403 . S
C1507 C1504 1.403 . S
C1507 C1508 1.524 . S
C1507 C1511 1.400 . S
C1508 H1493 0.960 . S
C1508 H1494 0.960 . S
C1508 H1495 0.960 . S
C1508 C1507 1.524 . S
C1509 C1506 1.403 . S
C1509 C1510 1.392 . S
C1509 C1513 1.495 . S
C1510 C1509 1.392 . S
C1510 C1511 1.385 . S
C1510 C1512 1.478 . S
C1511 H1505 0.930 . S
C1511 C1507 1.400 . S
C1511 C1510 1.385 . S
C1512 C1510 1.478 . S
C1512 C1514 1.381 . S
C1512 C1518 1.383 . S
C1513 C1509 1.495 . S
C1513 H1519 0.959 . S
C1513 H1520 0.961 . S
C1513 H1521 0.960 . S
C1514 C1512 1.381 . S
C1514 C1515 1.394 . S
C1514 H1522 0.930 . S
C1515 C1514 1.394 . S
C1515 C1516 1.383 . S
C1515 H1523 0.929 . S
C1516 C1515 1.383 . S
C1516 C1517 1.377 . S
C1517 H1501 0.930 . S
C1517 C1516 1.377 . S
C1517 C1518 1.379 . S
C1518 H1502 0.931 . S
C1518 C1512 1.383 . S
C1518 C1517 1.379 . S
H1519 C1513 0.959 . S
H1520 C1513 0.961 . S
H1521 C1513 0.960 . S
H1522 C1514 0.930 . S
H1523 C1515 0.929 . S
H1524 C1532 0.929 . S
H1525 C1534 0.930 . S
H1526 C1536 0.930 . S
H1527 C1539 0.929 . S
H1528 C1542 0.930 . S
H1529 C1544 0.960 . S
H1530 C1544 0.960 . S
H1531 C1544 0.960 . S
C1532 H1524 0.929 . S
C1532 C1533 1.377 . S
C1532 C1534 1.384 . S
C1533 C1532 1.377 . S
C1533 C1539 1.390 . S
C1534 H1525 0.930 . S
C1534 C1532 1.384 . S
C1534 C1535 1.372 . S
C1535 C1534 1.372 . S
C1535 C1536 1.400 . S
C1535 C1540 1.490 . S
C1536 H1526 0.930 . S
C1536 C1535 1.400 . S
C1536 C1539 1.386 . S
H1537 C1553 0.930 . S
H1538 C1554 0.931 . S
C1539 H1527 0.929 . S
C1539 C1533 1.390 . S
C1539 C1536 1.386 . S
C1540 C1535 1.490 . S
C1540 C1542 1.395 . S
C1540 C1543 1.403 . S
H1541 C1547 0.930 . S
C1542 H1528 0.930 . S
C1542 C1540 1.395 . S
C1542 C1545 1.403 . S
C1543 C1540 1.403 . S
C1543 C1544 1.524 . S
C1543 C1547 1.400 . S
C1544 H1529 0.960 . S
C1544 H1530 0.960 . S
C1544 H1531 0.960 . S
C1544 C1543 1.524 . S
C1545 C1542 1.403 . S
C1545 C1546 1.392 . S
C1545 C1549 1.495 . S
C1546 C1545 1.392 . S
C1546 C1547 1.385 . S
C1546 C1548 1.478 . S
C1547 H1541 0.930 . S
C1547 C1543 1.400 . S
C1547 C1546 1.385 . S
C1548 C1546 1.478 . S
C1548 C1550 1.381 . S
C1548 C1554 1.383 . S
C1549 C1545 1.495 . S
C1549 H1555 0.959 . S
C1549 H1556 0.961 . S
C1549 H1557 0.960 . S
C1550 C1548 1.381 . S
C1550 C1551 1.394 . S
C1550 H1558 0.930 . S
C1551 C1550 1.394 . S
C1551 C1552 1.383 . S
C1551 H1559 0.929 . S
C1552 C1551 1.383 . S
C1552 C1553 1.377 . S
C1553 H1537 0.930 . S
C1553 C1552 1.377 . S
C1553 C1554 1.379 . S
C1554 H1538 0.931 . S
C1554 C1548 1.383 . S
C1554 C1553 1.379 . S
H1555 C1549 0.959 . S
H1556 C1549 0.961 . S
H1557 C1549 0.960 . S
H1558 C1550 0.930 . S
H1559 C1551 0.929 . S
H1560 C1568 0.929 . S
H1561 C1570 0.930 . S
H1562 C1572 0.930 . S
H1563 C1575 0.929 . S
H1564 C1578 0.930 . S
H1565 C1580 0.960 . S
H1566 C1580 0.960 . S
H1567 C1580 0.960 . S
C1568 H1560 0.929 . S
C1568 C1569 1.377 . S
C1568 C1570 1.384 . S
C1569 C1568 1.377 . S
C1569 C1575 1.390 . S
C1570 H1561 0.930 . S
C1570 C1568 1.384 . S
C1570 C1571 1.372 . S
C1571 C1570 1.372 . S
C1571 C1572 1.400 . S
C1571 C1576 1.490 . S
C1572 H1562 0.930 . S
C1572 C1571 1.400 . S
C1572 C1575 1.386 . S
H1573 C1589 0.930 . S
H1574 C1590 0.931 . S
C1575 H1563 0.929 . S
C1575 C1569 1.390 . S
C1575 C1572 1.386 . S
C1576 C1571 1.490 . S
C1576 C1578 1.395 . S
C1576 C1579 1.403 . S
H1577 C1583 0.930 . S
C1578 H1564 0.930 . S
C1578 C1576 1.395 . S
C1578 C1581 1.403 1_455 S
C1579 C1576 1.403 . S
C1579 C1580 1.524 . S
C1579 C1583 1.400 . S
C1580 H1565 0.960 . S
C1580 H1566 0.960 . S
C1580 H1567 0.960 . S
C1580 C1579 1.524 . S
C1581 C1578 1.403 1_655 S
C1581 C1582 1.392 . S
C1581 C1585 1.495 . S
C1582 C1581 1.392 . S
C1582 C1583 1.385 1_655 S
C1582 C1584 1.478 . S
C1583 H1577 0.930 . S
C1583 C1579 1.400 . S
C1583 C1582 1.385 1_455 S
C1584 C1582 1.478 . S
C1584 C1586 1.381 . S
C1584 C1590 1.383 . S
C1585 C1581 1.495 . S
C1585 H1591 0.959 . S
C1585 H1592 0.961 . S
C1585 H1593 0.960 . S
C1586 C1584 1.381 . S
C1586 C1587 1.394 . S
C1586 H1594 0.930 . S
C1587 C1586 1.394 . S
C1587 C1588 1.383 . S
C1587 H1595 0.929 . S
C1588 C1587 1.383 . S
C1588 C1589 1.377 . S
C1589 H1573 0.930 . S
C1589 C1588 1.377 . S
C1589 C1590 1.379 . S
C1590 H1574 0.931 . S
C1590 C1584 1.383 . S
C1590 C1589 1.379 . S
H1591 C1585 0.959 . S
H1592 C1585 0.961 . S
H1593 C1585 0.960 . S
H1594 C1586 0.930 . S
H1595 C1587 0.929 . S
H1596 C1604 0.929 . S
H1597 C1606 0.930 . S
H1598 C1608 0.930 . S
H1599 C1611 0.929 . S
H1600 C1614 0.930 . S
H1601 C1616 0.960 . S
H1602 C1616 0.960 . S
H1603 C1616 0.960 . S
C1604 H1596 0.929 . S
C1604 C1605 1.377 . S
C1604 C1606 1.384 . S
C1605 C1604 1.377 . S
C1605 C1611 1.390 . S
C1606 H1597 0.930 . S
C1606 C1604 1.384 . S
C1606 C1607 1.372 . S
C1607 C1606 1.372 . S
C1607 C1608 1.400 . S
C1607 C1612 1.490 . S
C1608 H1598 0.930 . S
C1608 C1607 1.400 . S
C1608 C1611 1.386 . S
H1609 C1625 0.930 . S
H1610 C1626 0.931 . S
C1611 H1599 0.929 . S
C1611 C1605 1.390 . S
C1611 C1608 1.386 . S
C1612 C1607 1.490 . S
C1612 C1614 1.395 . S
C1612 C1615 1.403 . S
H1613 C1619 0.930 . S
C1614 H1600 0.930 . S
C1614 C1612 1.395 . S
C1614 C1617 1.403 . S
C1615 C1612 1.403 . S
C1615 C1616 1.524 . S
C1615 C1619 1.400 . S
C1616 H1601 0.960 . S
C1616 H1602 0.960 . S
C1616 H1603 0.960 . S
C1616 C1615 1.524 . S
C1617 C1614 1.403 . S
C1617 C1618 1.392 . S
C1617 C1621 1.495 . S
C1618 C1617 1.392 . S
C1618 C1619 1.385 . S
C1618 C1620 1.478 . S
C1619 H1613 0.930 . S
C1619 C1615 1.400 . S
C1619 C1618 1.385 . S
C1620 C1618 1.478 . S
C1620 C1622 1.381 . S
C1620 C1626 1.383 . S
C1621 C1617 1.495 . S
C1621 H1627 0.959 . S
C1621 H1628 0.961 . S
C1621 H1629 0.960 . S
C1622 C1620 1.381 . S
C1622 C1623 1.394 . S
C1622 H1630 0.930 . S
C1623 C1622 1.394 . S
C1623 C1624 1.383 . S
C1623 H1631 0.929 . S
C1624 C1623 1.383 . S
C1624 C1625 1.377 . S
C1625 H1609 0.930 . S
C1625 C1624 1.377 . S
C1625 C1626 1.379 . S
C1626 H1610 0.931 . S
C1626 C1620 1.383 . S
C1626 C1625 1.379 . S
H1627 C1621 0.959 . S
H1628 C1621 0.961 . S
H1629 C1621 0.960 . S
H1630 C1622 0.930 . S
H1631 C1623 0.929 . S
H1632 C1640 0.929 . S
H1633 C1642 0.930 . S
H1634 C1644 0.930 . S
H1635 C1647 0.929 . S
H1636 C1650 0.930 . S
H1637 C1652 0.960 . S
H1638 C1652 0.960 . S
H1639 C1652 0.960 . S
C1640 H1632 0.929 . S
C1640 C1641 1.377 . S
C1640 C1642 1.384 . S
C1641 C1640 1.377 . S
C1641 C1647 1.390 . S
C1642 H1633 0.930 . S
C1642 C1640 1.384 . S
C1642 C1643 1.372 . S
C1643 C1642 1.372 . S
C1643 C1644 1.400 . S
C1643 C1648 1.490 . S
C1644 H1634 0.930 . S
C1644 C1643 1.400 . S
C1644 C1647 1.386 . S
H1645 C1661 0.930 . S
H1646 C1662 0.931 . S
C1647 H1635 0.929 . S
C1647 C1641 1.390 . S
C1647 C1644 1.386 . S
C1648 C1643 1.490 . S
C1648 C1650 1.395 . S
C1648 C1651 1.403 . S
H1649 C1655 0.930 . S
C1650 H1636 0.930 . S
C1650 C1648 1.395 . S
C1650 C1653 1.403 . S
C1651 C1648 1.403 . S
C1651 C1652 1.524 . S
C1651 C1655 1.400 . S
C1652 H1637 0.960 . S
C1652 H1638 0.960 . S
C1652 H1639 0.960 . S
C1652 C1651 1.524 . S
C1653 C1650 1.403 . S
C1653 C1654 1.392 . S
C1653 C1657 1.495 . S
C1654 C1653 1.392 . S
C1654 C1655 1.385 . S
C1654 C1656 1.478 . S
C1655 H1649 0.930 . S
C1655 C1651 1.400 . S
C1655 C1654 1.385 . S
C1656 C1654 1.478 . S
C1656 C1658 1.381 . S
C1656 C1662 1.383 . S
C1657 C1653 1.495 . S
C1657 H1663 0.959 . S
C1657 H1664 0.961 . S
C1657 H1665 0.960 . S
C1658 C1656 1.381 . S
C1658 C1659 1.394 . S
C1658 H1666 0.930 . S
C1659 C1658 1.394 . S
C1659 C1660 1.383 . S
C1659 H1667 0.929 . S
C1660 C1659 1.383 . S
C1660 C1661 1.377 . S
C1661 H1645 0.930 . S
C1661 C1660 1.377 . S
C1661 C1662 1.379 . S
C1662 H1646 0.931 . S
C1662 C1656 1.383 . S
C1662 C1661 1.379 . S
H1663 C1657 0.959 . S
H1664 C1657 0.961 . S
H1665 C1657 0.960 . S
H1666 C1658 0.930 . S
H1667 C1659 0.929 . S
H1668 C1676 0.929 . S
H1669 C1678 0.930 . S
H1670 C1680 0.930 . S
H1671 C1683 0.929 . S
H1672 C1686 0.930 . S
H1673 C1688 0.960 . S
H1674 C1688 0.960 . S
H1675 C1688 0.960 . S
C1676 H1668 0.929 . S
C1676 C1677 1.377 . S
C1676 C1678 1.384 . S
C1677 C1676 1.377 . S
C1677 C1683 1.390 . S
C1678 H1669 0.930 . S
C1678 C1676 1.384 . S
C1678 C1679 1.372 . S
C1679 C1678 1.372 . S
C1679 C1680 1.400 . S
C1679 C1684 1.490 . S
C1680 H1670 0.930 . S
C1680 C1679 1.400 . S
C1680 C1683 1.386 . S
H1681 C1697 0.930 . S
H1682 C1698 0.931 . S
C1683 H1671 0.929 . S
C1683 C1677 1.390 . S
C1683 C1680 1.386 . S
C1684 C1679 1.490 . S
C1684 C1686 1.395 . S
C1684 C1687 1.403 . S
H1685 C1691 0.930 . S
C1686 H1672 0.930 . S
C1686 C1684 1.395 . S
C1686 C1689 1.403 . S
C1687 C1684 1.403 . S
C1687 C1688 1.524 . S
C1687 C1691 1.400 . S
C1688 H1673 0.960 . S
C1688 H1674 0.960 . S
C1688 H1675 0.960 . S
C1688 C1687 1.524 . S
C1689 C1686 1.403 . S
C1689 C1690 1.392 . S
C1689 C1693 1.495 . S
C1690 C1689 1.392 . S
C1690 C1691 1.385 . S
C1690 C1692 1.478 . S
C1691 H1685 0.930 . S
C1691 C1687 1.400 . S
C1691 C1690 1.385 . S
C1692 C1690 1.478 . S
C1692 C1694 1.381 . S
C1692 C1698 1.383 . S
C1693 C1689 1.495 . S
C1693 H1699 0.959 . S
C1693 H1700 0.961 . S
C1693 H1701 0.960 . S
C1694 C1692 1.381 . S
C1694 C1695 1.394 . S
C1694 H1702 0.930 . S
C1695 C1694 1.394 . S
C1695 C1696 1.383 . S
C1695 H1703 0.929 . S
C1696 C1695 1.383 . S
C1696 C1697 1.377 . S
C1697 H1681 0.930 . S
C1697 C1696 1.377 . S
C1697 C1698 1.379 . S
C1698 H1682 0.931 . S
C1698 C1692 1.383 . S
C1698 C1697 1.379 . S
H1699 C1693 0.959 . S
H1700 C1693 0.961 . S
H1701 C1693 0.960 . S
H1702 C1694 0.930 . S
H1703 C1695 0.929 . S
H1704 C1712 0.929 . S
H1705 C1714 0.930 . S
H1706 C1716 0.930 . S
H1707 C1719 0.929 . S
H1708 C1722 0.930 . S
H1709 C1724 0.960 . S
H1710 C1724 0.960 . S
H1711 C1724 0.960 . S
C1712 H1704 0.929 . S
C1712 C1713 1.377 . S
C1712 C1714 1.384 . S
C1713 C1712 1.377 . S
C1713 C1719 1.390 . S
C1714 H1705 0.930 . S
C1714 C1712 1.384 . S
C1714 C1715 1.372 . S
C1715 C1714 1.372 . S
C1715 C1716 1.400 . S
C1715 C1720 1.490 . S
C1716 H1706 0.930 . S
C1716 C1715 1.400 . S
C1716 C1719 1.386 . S
H1717 C1733 0.930 . S
H1718 C1734 0.931 . S
C1719 H1707 0.929 . S
C1719 C1713 1.390 . S
C1719 C1716 1.386 . S
C1720 C1715 1.490 . S
C1720 C1722 1.395 . S
C1720 C1723 1.403 . S
H1721 C1727 0.930 . S
C1722 H1708 0.930 . S
C1722 C1720 1.395 . S
C1722 C1725 1.403 . S
C1723 C1720 1.403 . S
C1723 C1724 1.524 . S
C1723 C1727 1.400 . S
C1724 H1709 0.960 . S
C1724 H1710 0.960 . S
C1724 H1711 0.960 . S
C1724 C1723 1.524 . S
C1725 C1722 1.403 . S
C1725 C1726 1.392 . S
C1725 C1729 1.495 . S
C1726 C1725 1.392 . S
C1726 C1727 1.385 . S
C1726 C1728 1.478 . S
C1727 H1721 0.930 . S
C1727 C1723 1.400 . S
C1727 C1726 1.385 . S
C1728 C1726 1.478 . S
C1728 C1730 1.381 . S
C1728 C1734 1.383 . S
C1729 C1725 1.495 . S
C1729 H1735 0.959 . S
C1729 H1736 0.961 . S
C1729 H1737 0.960 . S
C1730 C1728 1.381 . S
C1730 C1731 1.394 . S
C1730 H1738 0.930 . S
C1731 C1730 1.394 . S
C1731 C1732 1.383 . S
C1731 H1739 0.929 . S
C1732 C1731 1.383 . S
C1732 C1733 1.377 . S
C1733 H1717 0.930 . S
C1733 C1732 1.377 . S
C1733 C1734 1.379 . S
C1734 H1718 0.931 . S
C1734 C1728 1.383 . S
C1734 C1733 1.379 . S
H1735 C1729 0.959 . S
H1736 C1729 0.961 . S
H1737 C1729 0.960 . S
H1738 C1730 0.930 . S
H1739 C1731 0.929 . S
H1740 C1748 0.929 . S
H1741 C1750 0.930 . S
H1742 C1752 0.930 . S
H1743 C1755 0.929 . S
H1744 C1758 0.930 . S
H1745 C1760 0.960 . S
H1746 C1760 0.960 . S
H1747 C1760 0.960 . S
C1748 H1740 0.929 . S
C1748 C1749 1.377 . S
C1748 C1750 1.384 . S
C1749 C1748 1.377 . S
C1749 C1755 1.390 . S
C1750 H1741 0.930 . S
C1750 C1748 1.384 . S
C1750 C1751 1.372 . S
C1751 C1750 1.372 . S
C1751 C1752 1.400 . S
C1751 C1756 1.490 . S
C1752 H1742 0.930 . S
C1752 C1751 1.400 . S
C1752 C1755 1.386 . S
H1753 C1769 0.930 . S
H1754 C1770 0.931 . S
C1755 H1743 0.929 . S
C1755 C1749 1.390 . S
C1755 C1752 1.386 . S
C1756 C1751 1.490 . S
C1756 C1758 1.395 . S
C1756 C1759 1.403 . S
H1757 C1763 0.930 1_455 S
C1758 H1744 0.930 . S
C1758 C1756 1.395 . S
C1758 C1761 1.403 . S
C1759 C1756 1.403 . S
C1759 C1760 1.524 . S
C1759 C1763 1.400 . S
C1760 H1745 0.960 . S
C1760 H1746 0.960 . S
C1760 H1747 0.960 . S
C1760 C1759 1.524 . S
C1761 C1758 1.403 . S
C1761 C1762 1.407 . S
C1761 C1765 1.495 . S
C1762 C1761 1.407 . S
C1762 C1763 1.388 . S
C1762 C1764 1.460 1_655 S
C1763 H1757 0.930 1_655 S
C1763 C1759 1.400 . S
C1763 C1762 1.388 . S
C1764 C1762 1.460 1_455 S
C1764 C1766 1.381 . S
C1764 C1770 1.383 . S
C1765 C1761 1.495 . S
C1765 H1771 0.959 . S
C1765 H1772 0.961 . S
C1765 H1773 0.960 . S
C1766 C1764 1.381 . S
C1766 C1767 1.394 . S
C1766 H1774 0.930 . S
C1767 C1766 1.394 . S
C1767 C1768 1.383 . S
C1767 H1775 0.929 . S
C1768 C1767 1.383 . S
C1768 C1769 1.377 . S
C1769 H1753 0.930 . S
C1769 C1768 1.377 . S
C1769 C1770 1.379 . S
C1770 H1754 0.931 . S
C1770 C1764 1.383 . S
C1770 C1769 1.379 . S
H1771 C1765 0.959 . S
H1772 C1765 0.961 . S
H1773 C1765 0.960 . S
H1774 C1766 0.930 . S
H1775 C1767 0.929 . S
C489 C18 0.838 . S
C508 C458 0.870 . S
C525 C379 1.576 . S
C544 C58 1.649 . S
C561 C99 1.124 . S
C580 C338 1.173 . S
C597 C138 1.945 . S
C616 C418 1.940 . S
C633 C178 1.614 . S
C652 C419 1.588 . S
C669 C219 1.380 . S
C688 C459 1.406 . S
C705 C378 1.710 . S
C724 C258 1.714 . S
C741 C299 1.652 . S
C760 C339 1.711 . S
C777 C139 1.700 . S
C796 C179 1.749 . S
C813 C19 1.427 . S
C832 C218 1.472 . S
C849 C59 1.573 . S
C868 C259 1.596 . S
C885 C298 1.805 . S
C904 C98 1.815 . S
C921 C6 1.523 . S
C940 C329 1.459 . S
C957 C46 1.845 . S
C976 C409 1.736 . S
C993 C449 1.794 . S
C1012 C95 1.792 . S
C1029 C126 1.500 . S
C1048 C370 1.460 . S
C1065 C166 1.139 . S
C1084 C369 1.093 . S
C1101 C330 1.773 . S
C1120 C215 1.734 . S
C1137 C410 1.300 . S
C1156 C246 1.307 . S
C1173 C450 2.722 . S
C1192 C295 2.629 . S
C1209 C10 2.784 . S
C1228 C135 2.706 . S
C1245 C15 1.906 . S
C1264 C50 1.959 . S
C1281 C55 2.194 . S
C1300 C89 2.175 . S
C1317 C130 1.695 . S
C1336 C86 1.723 . S
C1353 C206 1.428 . S
C1372 C170 1.413 . S
C1389 C209 1.097 . S
C1408 C255 1.155 . S
C1425 C250 1.439 . S
C1444 C286 1.458 . S
C1461 C175 0.595 . S
C1480 C289 0.678 . S
C1497 C335 0.506 . S
C1516 C129 0.612 . S
C1533 C210 1.493 . S
C1552 C375 1.483 . S
C1569 C326 1.295 . S
C1588 C249 1.272 . S
C1605 C406 1.877 . S
C1624 C290 1.851 . S
C1641 C169 1.161 . S
C1660 C446 1.216 . S
C1677 C455 1.537 . S
C1696 C49 1.463 . S
C1713 C90 1.485 . S
C1732 C366 1.502 . S
C1749 C415 1.625 . S
C1768 C9 1.594 . S
