# Generated by pormake.
# Topology vck, (7)-cn, num edge types: 1
# Building blocks:
#     Node 0, Type 0, BuildingBlock: NUHQUE_clean_sbu_2, # of connection points: 7
#     Node 1, Type 0, BuildingBlock: NUHQUE_clean_sbu_2, # of connection points: 7
#     Node 2, Type 0, BuildingBlock: NUHQUE_clean_sbu_2, # of connection points: 7
#     Node 3, Type 0, BuildingBlock: NUHQUE_clean_sbu_2, # of connection points: 7
#     Node 4, Type 0, BuildingBlock: NUHQUE_clean_sbu_2, # of connection points: 7
#     Node 5, Type 0, BuildingBlock: NUHQUE_clean_sbu_2, # of connection points: 7
#     Node 6, Type 0, BuildingBlock: NUHQUE_clean_sbu_2, # of connection points: 7
#     Node 7, Type 0, BuildingBlock: NUHQUE_clean_sbu_2, # of connection points: 7
#     Node 8, Type 0, BuildingBlock: NUHQUE_clean_sbu_2, # of connection points: 7
#     Node 9, Type 0, BuildingBlock: NUHQUE_clean_sbu_2, # of connection points: 7
#     Node 10, Type 0, BuildingBlock: NUHQUE_clean_sbu_2, # of connection points: 7
#     Node 11, Type 0, BuildingBlock: NUHQUE_clean_sbu_2, # of connection points: 7
#     Node 12, Type 0, BuildingBlock: NUHQUE_clean_sbu_2, # of connection points: 7
#     Node 13, Type 0, BuildingBlock: NUHQUE_clean_sbu_2, # of connection points: 7
#     Node 14, Type 0, BuildingBlock: NUHQUE_clean_sbu_2, # of connection points: 7
#     Node 15, Type 0, BuildingBlock: NUHQUE_clean_sbu_2, # of connection points: 7
#     Edge 16, Type (0, 0), BuildingBlock: XIVTED_clean_linker_0, # of connection points: 2
#     Edge 17, Type (0, 0), BuildingBlock: XIVTED_clean_linker_0, # of connection points: 2
#     Edge 18, Type (0, 0), BuildingBlock: XIVTED_clean_linker_0, # of connection points: 2
#     Edge 19, Type (0, 0), BuildingBlock: XIVTED_clean_linker_0, # of connection points: 2
#     Edge 20, Type (0, 0), BuildingBlock: XIVTED_clean_linker_0, # of connection points: 2
#     Edge 21, Type (0, 0), BuildingBlock: XIVTED_clean_linker_0, # of connection points: 2
#     Edge 22, Type (0, 0), BuildingBlock: XIVTED_clean_linker_0, # of connection points: 2
#     Edge 23, Type (0, 0), BuildingBlock: XIVTED_clean_linker_0, # of connection points: 2
#     Edge 24, Type (0, 0), BuildingBlock: XIVTED_clean_linker_0, # of connection points: 2
#     Edge 25, Type (0, 0), BuildingBlock: XIVTED_clean_linker_0, # of connection points: 2
#     Edge 26, Type (0, 0), BuildingBlock: XIVTED_clean_linker_0, # of connection points: 2
#     Edge 27, Type (0, 0), BuildingBlock: XIVTED_clean_linker_0, # of connection points: 2
#     Edge 28, Type (0, 0), BuildingBlock: XIVTED_clean_linker_0, # of connection points: 2
#     Edge 29, Type (0, 0), BuildingBlock: XIVTED_clean_linker_0, # of connection points: 2
#     Edge 30, Type (0, 0), BuildingBlock: XIVTED_clean_linker_0, # of connection points: 2
#     Edge 31, Type (0, 0), BuildingBlock: XIVTED_clean_linker_0, # of connection points: 2
#     Edge 32, Type (0, 0), BuildingBlock: XIVTED_clean_linker_0, # of connection points: 2
#     Edge 33, Type (0, 0), BuildingBlock: XIVTED_clean_linker_0, # of connection points: 2
#     Edge 34, Type (0, 0), BuildingBlock: XIVTED_clean_linker_0, # of connection points: 2
#     Edge 35, Type (0, 0), BuildingBlock: XIVTED_clean_linker_0, # of connection points: 2
#     Edge 36, Type (0, 0), BuildingBlock: XIVTED_clean_linker_0, # of connection points: 2
#     Edge 37, Type (0, 0), BuildingBlock: XIVTED_clean_linker_0, # of connection points: 2
#     Edge 38, Type (0, 0), BuildingBlock: XIVTED_clean_linker_0, # of connection points: 2
#     Edge 39, Type (0, 0), BuildingBlock: XIVTED_clean_linker_0, # of connection points: 2
#     Edge 40, Type (0, 0), BuildingBlock: XIVTED_clean_linker_0, # of connection points: 2
#     Edge 41, Type (0, 0), BuildingBlock: XIVTED_clean_linker_0, # of connection points: 2
#     Edge 42, Type (0, 0), BuildingBlock: XIVTED_clean_linker_0, # of connection points: 2
#     Edge 43, Type (0, 0), BuildingBlock: XIVTED_clean_linker_0, # of connection points: 2
#     Edge 44, Type (0, 0), BuildingBlock: XIVTED_clean_linker_0, # of connection points: 2
#     Edge 45, Type (0, 0), BuildingBlock: XIVTED_clean_linker_0, # of connection points: 2
#     Edge 46, Type (0, 0), BuildingBlock: XIVTED_clean_linker_0, # of connection points: 2
#     Edge 47, Type (0, 0), BuildingBlock: XIVTED_clean_linker_0, # of connection points: 2
#     Edge 48, Type (0, 0), BuildingBlock: XIVTED_clean_linker_0, # of connection points: 2
#     Edge 49, Type (0, 0), BuildingBlock: XIVTED_clean_linker_0, # of connection points: 2
#     Edge 50, Type (0, 0), BuildingBlock: XIVTED_clean_linker_0, # of connection points: 2
#     Edge 51, Type (0, 0), BuildingBlock: XIVTED_clean_linker_0, # of connection points: 2
#     Edge 52, Type (0, 0), BuildingBlock: XIVTED_clean_linker_0, # of connection points: 2
#     Edge 53, Type (0, 0), BuildingBlock: XIVTED_clean_linker_0, # of connection points: 2
#     Edge 54, Type (0, 0), BuildingBlock: XIVTED_clean_linker_0, # of connection points: 2
#     Edge 55, Type (0, 0), BuildingBlock: XIVTED_clean_linker_0, # of connection points: 2
#     Edge 56, Type (0, 0), BuildingBlock: XIVTED_clean_linker_0, # of connection points: 2
#     Edge 57, Type (0, 0), BuildingBlock: XIVTED_clean_linker_0, # of connection points: 2
#     Edge 58, Type (0, 0), BuildingBlock: XIVTED_clean_linker_0, # of connection points: 2
#     Edge 59, Type (0, 0), BuildingBlock: XIVTED_clean_linker_0, # of connection points: 2
#     Edge 60, Type (0, 0), BuildingBlock: XIVTED_clean_linker_0, # of connection points: 2
#     Edge 61, Type (0, 0), BuildingBlock: XIVTED_clean_linker_0, # of connection points: 2
#     Edge 62, Type (0, 0), BuildingBlock: XIVTED_clean_linker_0, # of connection points: 2
#     Edge 63, Type (0, 0), BuildingBlock: XIVTED_clean_linker_0, # of connection points: 2
#     Edge 64, Type (0, 0), BuildingBlock: XIVTED_clean_linker_0, # of connection points: 2
#     Edge 65, Type (0, 0), BuildingBlock: XIVTED_clean_linker_0, # of connection points: 2
#     Edge 66, Type (0, 0), BuildingBlock: XIVTED_clean_linker_0, # of connection points: 2
#     Edge 67, Type (0, 0), BuildingBlock: XIVTED_clean_linker_0, # of connection points: 2
#     Edge 68, Type (0, 0), BuildingBlock: XIVTED_clean_linker_0, # of connection points: 2
#     Edge 69, Type (0, 0), BuildingBlock: XIVTED_clean_linker_0, # of connection points: 2
#     Edge 70, Type (0, 0), BuildingBlock: XIVTED_clean_linker_0, # of connection points: 2
#     Edge 71, Type (0, 0), BuildingBlock: XIVTED_clean_linker_0, # of connection points: 2
# Relax obj value: 0.174
# Max RMSD: 0.198
# Mean RMSD: 0.198
data_MOF--net-vck--node1-NUHQUE_clean_sbu_2--edge1-XIVTED_clean_linker_0
_symmetry_space_group_name_H-M    P1
_symmetry_Int_Tables_number       1
_symmetry_cell_setting            triclinic
loop_
_symmetry_equiv_pos_as_xyz
'x, y, z'
_cell_length_a     73.540842
_cell_length_b     48.919608
_cell_length_c     21.396153
_cell_angle_alpha  90.035627
_cell_angle_beta   90.032878
_cell_angle_gamma 90.076521
loop_
_atom_site_label
_atom_site_type_symbol
_atom_site_fract_x
_atom_site_fract_y
_atom_site_fract_z
_atom_type_partial_charge
O0 O 0.54918 0.15655 0.1359 0.0
Tb1 Tb 0.56589 0.12018 0.14423 0.0
Eu2 Eu 0.56467 0.13332 0.98299 0.0
C3 C 0.55398 0.178 0.16926 0.0
O4 O 0.56892 0.17675 0.20283 0.0
C5 C 0.59101 0.16201 0.08412 0.0
O6 O 0.58389 0.09761 0.97103 0.0
C7 C 0.55708 0.1565 0.87682 0.0
C8 C 0.57774 0.07494 0.94519 0.0
O9 O 0.56076 0.07401 0.92624 0.0
C10 C 0.54289 0.08678 0.0523 0.0
C11 C 0.54689 0.15669 0.81704 0.0
C12 C 0.53361 0.17703 0.80796 0.0
C13 C 0.52527 0.18061 0.74951 0.0
C14 C 0.52987 0.16298 0.70047 0.0
C15 C 0.54311 0.14263 0.70821 0.0
C16 C 0.55177 0.13969 0.76647 0.0
O17 O 0.59136 0.1394 0.11725 0.0
O18 O 0.57837 0.16585 0.04151 0.0
O19 O 0.57921 0.10889 0.23262 0.0
O20 O 0.55051 0.1132 0.22973 0.0
C21 C 0.56429 0.10757 0.26532 0.0
O22 O 0.54075 0.1082 0.01582 0.0
O23 O 0.55688 0.08513 0.09039 0.0
O24 O 0.57067 0.13936 0.88411 0.0
O25 O 0.54795 0.16114 0.92858 0.0
H26 H 0.53046 0.1911 0.84561 0.0
H27 H 0.5235 0.1657 0.65516 0.0
H28 H 0.56241 0.12456 0.77188 0.0
O29 O 0.44579 0.86178 0.13866 0.0
Tb30 Tb 0.43034 0.89892 0.15424 0.0
Eu31 Eu 0.42963 0.887 0.98908 0.0
C32 C 0.46365 0.86179 0.13843 0.0
O33 O 0.47242 0.88521 0.13886 0.0
C34 C 0.40377 0.85895 0.09504 0.0
O35 O 0.41175 0.92257 0.96092 0.0
C36 C 0.43939 0.86068 0.88894 0.0
C37 C 0.40329 0.93867 1.00069 0.0
O38 O 0.40373 0.933 0.06061 0.0
C39 C 0.45161 0.93432 0.05963 0.0
C40 C 0.44976 0.86055 0.82962 0.0
C41 C 0.4631 0.84029 0.82144 0.0
C42 C 0.47239 0.83769 0.76458 0.0
C43 C 0.46842 0.85569 0.71574 0.0
C44 C 0.45474 0.87552 0.7219 0.0
C45 C 0.44537 0.8779 0.77908 0.0
O46 O 0.40427 0.88097 0.13015 0.0
O47 O 0.41545 0.8554 0.04921 0.0
O48 O 0.41797 0.90949 0.24469 0.0
O49 O 0.44647 0.90332 0.23929 0.0
C50 C 0.43309 0.90924 0.27643 0.0
O51 O 0.45306 0.91372 0.0203 0.0
O52 O 0.43895 0.93487 0.10296 0.0
O53 O 0.42444 0.87527 0.89248 0.0
O54 O 0.44866 0.85999 0.94151 0.0
H55 H 0.46599 0.82604 0.85898 0.0
H56 H 0.47518 0.85299 0.67111 0.0
H57 H 0.43458 0.89282 0.78365 0.0
O58 O 0.69702 0.40789 0.38581 0.0
Tb59 Tb 0.68109 0.3709 0.39736 0.0
Eu60 Eu 0.68017 0.38324 0.23408 0.0
C61 C 0.69222 0.42923 0.41941 0.0
O62 O 0.67765 0.42745 0.45466 0.0
C63 C 0.65383 0.41057 0.339 0.0
O64 O 0.66143 0.34698 0.22079 0.0
C65 C 0.68764 0.40722 0.12856 0.0
C66 C 0.66798 0.3246 0.19497 0.0
O67 O 0.68504 0.32432 0.1769 0.0
C68 C 0.70315 0.33766 0.30286 0.0
C69 C 0.69884 0.40791 0.07091 0.0
C70 C 0.71181 0.42891 0.06408 0.0
C71 C 0.72164 0.4319 0.00833 0.0
C72 C 0.71852 0.41363 0.95917 0.0
C73 C 0.70519 0.39316 0.96385 0.0
C74 C 0.69534 0.39034 0.01991 0.0
O75 O 0.65493 0.38849 0.37378 0.0
O76 O 0.66509 0.41463 0.29205 0.0
O77 O 0.66857 0.35913 0.4867 0.0
O78 O 0.69708 0.36548 0.48235 0.0
C79 C 0.68362 0.35912 0.51881 0.0
O80 O 0.70466 0.35906 0.26589 0.0
O81 O 0.68975 0.33585 0.34325 0.0
O82 O 0.67494 0.38846 0.13434 0.0
O83 O 0.69573 0.41325 0.18164 0.0
H84 H 0.714 0.44341 0.10171 0.0
H85 H 0.72565 0.4166 0.91532 0.0
H86 H 0.68478 0.37493 0.02313 0.0
O87 O 0.2999 0.61254 0.39731 0.0
Tb88 Tb 0.31584 0.64969 0.4056 0.0
Eu89 Eu 0.31586 0.63647 0.24265 0.0
C90 C 0.30353 0.59324 0.43825 0.0
O91 O 0.31693 0.5973 0.47786 0.0
C92 C 0.34205 0.60857 0.34721 0.0
O93 O 0.33433 0.67306 0.2297 0.0
C94 C 0.30835 0.61275 0.13683 0.0
C95 C 0.32767 0.69536 0.20382 0.0
O96 O 0.31065 0.69539 0.18513 0.0
C97 C 0.29335 0.68233 0.31129 0.0
C98 C 0.29787 0.61226 0.07756 0.0
C99 C 0.28482 0.59147 0.06891 0.0
C100 C 0.27619 0.58782 0.01094 0.0
C101 C 0.28026 0.60578 0.962 0.0
C102 C 0.29328 0.62654 0.96926 0.0
C103 C 0.30224 0.62958 0.02698 0.0
O104 O 0.34155 0.63083 0.38162 0.0
O105 O 0.3305 0.60474 0.30094 0.0
O106 O 0.32898 0.66194 0.4936 0.0
O107 O 0.30035 0.6566 0.49107 0.0
C108 C 0.31409 0.66283 0.52649 0.0
O109 O 0.29152 0.66074 0.27507 0.0
O110 O 0.30712 0.68432 0.3502 0.0
O111 O 0.32167 0.63047 0.14359 0.0
O112 O 0.29952 0.60773 0.18902 0.0
H113 H 0.28205 0.57721 0.1065 0.0
H114 H 0.27365 0.60307 0.9171 0.0
H115 H 0.31269 0.64506 0.03197 0.0
O116 O 0.55007 0.65893 0.63931 0.0
Tb117 Tb 0.56606 0.62211 0.65213 0.0
Eu118 Eu 0.56755 0.63409 0.48553 0.0
C119 C 0.55499 0.68066 0.67144 0.0
O120 O 0.56975 0.67941 0.70589 0.0
C121 C 0.59385 0.66077 0.59296 0.0
O122 O 0.58465 0.59803 0.45519 0.0
C123 C 0.55811 0.66152 0.3867 0.0
C124 C 0.59306 0.58147 0.49405 0.0
O125 O 0.59289 0.58676 0.55419 0.0
C126 C 0.54518 0.587 0.55606 0.0
C127 C 0.54877 0.6632 0.32554 0.0
C128 C 0.53755 0.68597 0.31422 0.0
C129 C 0.53053 0.69087 0.25434 0.0
C130 C 0.5341 0.67228 0.20632 0.0
C131 C 0.54505 0.64929 0.21659 0.0
C132 C 0.55262 0.64491 0.27617 0.0
O133 O 0.59242 0.63901 0.62854 0.0
O134 O 0.58274 0.66479 0.54557 0.0
O135 O 0.57895 0.61133 0.74146 0.0
O136 O 0.55037 0.61667 0.73787 0.0
C137 C 0.56402 0.61099 0.77409 0.0
O138 O 0.5439 0.6076 0.51659 0.0
O139 O 0.55777 0.58637 0.59962 0.0
O140 O 0.5732 0.64727 0.3906 0.0
O141 O 0.54824 0.66093 0.43793 0.0
H142 H 0.53514 0.70074 0.35112 0.0
H143 H 0.52879 0.67626 0.15987 0.0
H144 H 0.56163 0.62771 0.28359 0.0
O145 O 0.44782 0.36208 0.63845 0.0
Tb146 Tb 0.43236 0.39952 0.64995 0.0
Eu147 Eu 0.43147 0.38731 0.48452 0.0
C148 C 0.44376 0.34209 0.67717 0.0
O149 O 0.43021 0.34572 0.71634 0.0
C150 C 0.40557 0.35981 0.59059 0.0
O151 O 0.41347 0.42301 0.45811 0.0
C152 C 0.44072 0.36127 0.38333 0.0
C153 C 0.40509 0.43884 0.49864 0.0
O154 O 0.40578 0.43291 0.55839 0.0
C155 C 0.45387 0.43433 0.55434 0.0
C156 C 0.45118 0.36117 0.32417 0.0
C157 C 0.46445 0.34079 0.31603 0.0
C158 C 0.47389 0.33831 0.25945 0.0
C159 C 0.47015 0.35651 0.2108 0.0
C160 C 0.45652 0.37641 0.21682 0.0
C161 C 0.44699 0.37869 0.27372 0.0
O162 O 0.40621 0.38201 0.62506 0.0
O163 O 0.41727 0.35584 0.545 0.0
O164 O 0.41959 0.41055 0.73942 0.0
O165 O 0.44815 0.40483 0.73555 0.0
C166 C 0.43457 0.41072 0.77192 0.0
O167 O 0.45518 0.4136 0.51531 0.0
O168 O 0.44125 0.43512 0.59781 0.0
O169 O 0.42608 0.37654 0.3874 0.0
O170 O 0.4499 0.35971 0.43597 0.0
H171 H 0.46718 0.32638 0.35338 0.0
H172 H 0.47706 0.35395 0.1664 0.0
H173 H 0.43624 0.3937 0.27816 0.0
O174 O 0.69647 0.90754 0.88912 0.0
Tb175 Tb 0.68039 0.87044 0.89747 0.0
Eu176 Eu 0.68076 0.88506 0.73414 0.0
C177 C 0.69265 0.92712 0.92924 0.0
O178 O 0.67896 0.92338 0.96779 0.0
C179 C 0.65455 0.91196 0.8398 0.0
O180 O 0.66409 0.84812 0.70544 0.0
C181 C 0.68981 0.91121 0.633 0.0
C182 C 0.65461 0.83266 0.74381 0.0
O183 O 0.65336 0.83939 0.80302 0.0
C184 C 0.7023 0.83758 0.80131 0.0
C185 C 0.69898 0.91124 0.57137 0.0
C186 C 0.71236 0.93123 0.56044 0.0
C187 C 0.72008 0.93458 0.50092 0.0
C188 C 0.71468 0.9171 0.45249 0.0
C189 C 0.70134 0.89705 0.4622 0.0
C190 C 0.69334 0.89423 0.52159 0.0
O191 O 0.65467 0.88938 0.873 0.0
O192 O 0.66666 0.91621 0.79559 0.0
O193 O 0.6961 0.86364 0.98258 0.0
O194 O 0.66745 0.85906 0.98649 0.0
C195 C 0.68244 0.85809 0.01888 0.0
O196 O 0.7046 0.85995 0.76811 0.0
O197 O 0.68891 0.8356 0.8417 0.0
O198 O 0.67444 0.89776 0.63914 0.0
O199 O 0.69998 0.91087 0.68358 0.0
H200 H 0.71615 0.94512 0.59779 0.0
H201 H 0.72063 0.9194 0.40641 0.0
H202 H 0.6827 0.8792 0.52856 0.0
O203 O 0.29988 0.1137 0.89253 0.0
Tb204 Tb 0.31637 0.15032 0.90135 0.0
Eu205 Eu 0.31682 0.13767 0.7382 0.0
C206 C 0.30456 0.0926 0.92707 0.0
O207 O 0.31926 0.09439 0.96173 0.0
C208 C 0.34269 0.10927 0.84271 0.0
O209 O 0.33584 0.1737 0.72617 0.0
C210 C 0.30944 0.1142 0.632 0.0
C211 C 0.32954 0.19636 0.7009 0.0
O212 O 0.31249 0.19717 0.68269 0.0
C213 C 0.29412 0.18342 0.80706 0.0
C214 C 0.29885 0.11383 0.57299 0.0
C215 C 0.28575 0.09312 0.56437 0.0
C216 C 0.27702 0.08961 0.50651 0.0
C217 C 0.28105 0.10766 0.45769 0.0
C218 C 0.29413 0.12833 0.46495 0.0
C219 C 0.30317 0.13123 0.52253 0.0
O220 O 0.34212 0.13145 0.87738 0.0
O221 O 0.3312 0.10562 0.79623 0.0
O222 O 0.3296 0.16256 0.98919 0.0
O223 O 0.30099 0.1569 0.98713 0.0
C224 C 0.31476 0.16327 0.0223 0.0
O225 O 0.29246 0.16206 0.77006 0.0
O226 O 0.30774 0.18523 0.84666 0.0
O227 O 0.32259 0.13218 0.63897 0.0
O228 O 0.30074 0.10875 0.68421 0.0
H229 H 0.28302 0.07878 0.60184 0.0
H230 H 0.27438 0.10505 0.41286 0.0
H231 H 0.31367 0.14664 0.52746 0.0
O232 O 0.0502 0.15613 0.64548 0.0
Tb233 Tb 0.06586 0.11875 0.65164 0.0
Eu234 Eu 0.06657 0.13176 0.48374 0.0
C235 C 0.0557 0.17643 0.68119 0.0
O236 O 0.07065 0.17331 0.71402 0.0
C237 C 0.09298 0.15842 0.59134 0.0
O238 O 0.08342 0.09503 0.45587 0.0
C239 C 0.05716 0.15837 0.38339 0.0
C240 C 0.09244 0.07971 0.49577 0.0
O241 O 0.09296 0.08669 0.55498 0.0
C242 C 0.04416 0.08524 0.55475 0.0
C243 C 0.0471 0.15845 0.32326 0.0
C244 C 0.03394 0.17891 0.31337 0.0
C245 C 0.02494 0.18118 0.2557 0.0
C246 C 0.02911 0.16273 0.20787 0.0
C247 C 0.04259 0.14275 0.21574 0.0
C248 C 0.05162 0.14065 0.27362 0.0
O249 O 0.09191 0.1365 0.62671 0.0
O250 O 0.08176 0.16234 0.54413 0.0
O251 O 0.0789 0.10763 0.74064 0.0
O252 O 0.05017 0.11071 0.73616 0.0
C253 C 0.06388 0.10564 0.77259 0.0
O254 O 0.04272 0.10614 0.51626 0.0
O255 O 0.0573 0.08391 0.59629 0.0
O256 O 0.07211 0.14379 0.38768 0.0
O257 O 0.04769 0.15895 0.43549 0.0
H258 H 0.03092 0.19343 0.35024 0.0
H259 H 0.0226 0.16508 0.16267 0.0
H260 H 0.06224 0.12554 0.27947 0.0
O261 O 0.94702 0.86191 0.63802 0.0
Tb262 Tb 0.93129 0.8989 0.65219 0.0
Eu263 Eu 0.92863 0.88776 0.48572 0.0
C264 C 0.94214 0.84019 0.67021 0.0
O265 O 0.92746 0.84154 0.705 0.0
C266 C 0.90251 0.86113 0.59399 0.0
O267 O 0.91122 0.92384 0.45761 0.0
C268 C 0.93799 0.86096 0.38572 0.0
C269 C 0.90307 0.94018 0.49763 0.0
O270 O 0.90374 0.93462 0.55759 0.0
C271 C 0.95159 0.9343 0.55546 0.0
C272 C 0.94883 0.86057 0.32736 0.0
C273 C 0.96201 0.83998 0.32011 0.0
C274 C 0.97168 0.83727 0.26399 0.0
C275 C 0.96821 0.8554 0.21496 0.0
C276 C 0.9547 0.87552 0.22013 0.0
C277 C 0.94499 0.87807 0.27658 0.0
O278 O 0.90462 0.8824 0.63083 0.0
O279 O 0.91294 0.85733 0.54471 0.0
O280 O 0.9477 0.90451 0.73633 0.0
O281 O 0.91912 0.90924 0.74297 0.0
C282 C 0.93434 0.90985 0.77402 0.0
O283 O 0.95262 0.91365 0.51607 0.0
O284 O 0.93932 0.93488 0.60003 0.0
O285 O 0.92361 0.87684 0.38857 0.0
O286 O 0.94679 0.85909 0.43909 0.0
H287 H 0.96449 0.82561 0.35775 0.0
H288 H 0.97523 0.85257 0.17084 0.0
H289 H 0.93433 0.89325 0.28033 0.0
O290 O 0.19738 0.40753 0.89501 0.0
Tb291 Tb 0.18183 0.37008 0.90612 0.0
Eu292 Eu 0.1797 0.38133 0.73938 0.0
C293 C 0.19373 0.42713 0.93528 0.0
O294 O 0.18044 0.42317 0.97533 0.0
C295 C 0.15389 0.40864 0.84766 0.0
O296 O 0.16248 0.34501 0.71086 0.0
C297 C 0.18908 0.40805 0.63943 0.0
C298 C 0.15411 0.32872 0.75048 0.0
O299 O 0.15436 0.33447 0.8104 0.0
C300 C 0.20245 0.33506 0.80972 0.0
C301 C 0.19938 0.40854 0.57998 0.0
C302 C 0.21251 0.42917 0.57167 0.0
C303 C 0.22113 0.43282 0.51377 0.0
C304 C 0.21699 0.41497 0.46463 0.0
C305 C 0.20391 0.3943 0.47161 0.0
C306 C 0.19495 0.39126 0.5293 0.0
O307 O 0.15546 0.38714 0.884 0.0
O308 O 0.16452 0.41217 0.79878 0.0
O309 O 0.16917 0.3593 0.99577 0.0
O310 O 0.19785 0.3632 0.99059 0.0
C311 C 0.18426 0.35793 0.0274 0.0
O312 O 0.20364 0.35557 0.77011 0.0
O313 O 0.18982 0.33437 0.85301 0.0
O314 O 0.17434 0.39294 0.64298 0.0
O315 O 0.19834 0.40911 0.69199 0.0
H316 H 0.21535 0.44331 0.60951 0.0
H317 H 0.2236 0.41775 0.41976 0.0
H318 H 0.18447 0.37583 0.53424 0.0
O319 O 0.79763 0.61382 0.88969 0.0
Tb320 Tb 0.81354 0.65088 0.90214 0.0
Eu321 Eu 0.81491 0.63828 0.73678 0.0
C322 C 0.80262 0.59217 0.92191 0.0
O323 O 0.81739 0.59365 0.95629 0.0
C324 C 0.8416 0.61197 0.84361 0.0
O325 O 0.83126 0.67567 0.70944 0.0
C326 C 0.80583 0.6123 0.63521 0.0
C327 C 0.84033 0.69121 0.74891 0.0
O328 O 0.84118 0.6843 0.8081 0.0
C329 C 0.79247 0.68448 0.80537 0.0
C330 C 0.7951 0.61232 0.57649 0.0
C331 C 0.78176 0.59196 0.56858 0.0
C332 C 0.77214 0.58962 0.5123 0.0
C333 C 0.77577 0.6079 0.46369 0.0
C334 C 0.78947 0.62775 0.46938 0.0
C335 C 0.79918 0.62992 0.526 0.0
O336 O 0.83988 0.63354 0.87981 0.0
O337 O 0.83089 0.60799 0.79504 0.0
O338 O 0.82612 0.662 0.99191 0.0
O339 O 0.79756 0.65648 0.98723 0.0
C340 C 0.81108 0.66227 0.024 0.0
O341 O 0.7906 0.66229 0.77114 0.0
O342 O 0.80535 0.68623 0.84773 0.0
O343 O 0.82017 0.62825 0.63925 0.0
O344 O 0.79693 0.60988 0.68823 0.0
H345 H 0.77914 0.57745 0.60582 0.0
H346 H 0.76872 0.60539 0.4195 0.0
H347 H 0.80999 0.64488 0.53014 0.0
O348 O 0.04856 0.65758 0.13898 0.0
Tb349 Tb 0.06446 0.62074 0.15292 0.0
Eu350 Eu 0.06637 0.63157 0.98662 0.0
C351 C 0.05358 0.6794 0.17064 0.0
O352 O 0.06836 0.67814 0.20498 0.0
C353 C 0.09275 0.65889 0.09368 0.0
O354 O 0.08361 0.59524 0.95884 0.0
C355 C 0.05667 0.65799 0.8865 0.0
C356 C 0.09228 0.57959 0.999 0.0
O357 O 0.09228 0.5861 0.05852 0.0
C358 C 0.04398 0.58497 0.05758 0.0
C359 C 0.04582 0.65817 0.8281 0.0
C360 C 0.03245 0.67849 0.8208 0.0
C361 C 0.02277 0.68097 0.76462 0.0
C362 C 0.02642 0.66292 0.71555 0.0
C363 C 0.04015 0.64313 0.72072 0.0
C364 C 0.04985 0.64077 0.77725 0.0
O365 O 0.09093 0.63766 0.1308 0.0
O366 O 0.08212 0.66237 0.04476 0.0
O367 O 0.0767 0.61075 0.24382 0.0
O368 O 0.04807 0.6148 0.23688 0.0
C369 C 0.06147 0.60979 0.2747 0.0
O370 O 0.04257 0.60556 0.01823 0.0
O371 O 0.05665 0.5846 0.10085 0.0
O372 O 0.0712 0.64242 0.88936 0.0
O373 O 0.04787 0.65971 0.93987 0.0
H374 H 0.02984 0.69283 0.8584 0.0
H375 H 0.01938 0.66561 0.67142 0.0
H376 H 0.06067 0.62584 0.78102 0.0
O377 O 0.94634 0.35858 0.12253 0.0
Tb378 Tb 0.93129 0.3953 0.14703 0.0
Eu379 Eu 0.92828 0.38798 0.98419 0.0
C380 C 0.94131 0.33557 0.14942 0.0
O381 O 0.92643 0.33545 0.18333 0.0
C382 C 0.90004 0.36186 0.08825 0.0
O383 O 0.91147 0.42438 0.95424 0.0
C384 C 0.93816 0.36019 0.88643 0.0
C385 C 0.90415 0.44174 0.99391 0.0
O386 O 0.90542 0.43704 0.05415 0.0
C387 C 0.95229 0.43263 0.05635 0.0
C388 C 0.95085 0.35816 0.83286 0.0
C389 C 0.96568 0.34 0.83661 0.0
C390 C 0.97675 0.33532 0.78449 0.0
C391 C 0.97304 0.34884 0.72854 0.0
C392 C 0.95749 0.36517 0.722 0.0
C393 C 0.94669 0.37047 0.77485 0.0
O394 O 0.90396 0.38039 0.13064 0.0
O395 O 0.90957 0.35916 0.03655 0.0
O396 O 0.94835 0.39042 0.22932 0.0
O397 O 0.9222 0.40795 0.2406 0.0
C398 C 0.93696 0.40046 0.26946 0.0
O399 O 0.95278 0.41268 0.0151 0.0
O400 O 0.9405 0.43248 0.10234 0.0
O401 O 0.92545 0.37904 0.88497 0.0
O402 O 0.94476 0.35592 0.94276 0.0
H403 H 0.96821 0.32862 0.87919 0.0
H404 H 0.98148 0.34463 0.68809 0.0
H405 H 0.93447 0.38263 0.76977 0.0
O406 O 0.19817 0.90919 0.39249 0.0
Tb407 Tb 0.18296 0.87158 0.40566 0.0
Eu408 Eu 0.18039 0.88174 0.23817 0.0
C409 C 0.19445 0.929 0.43213 0.0
O410 O 0.18122 0.92511 0.47244 0.0
C411 C 0.1543 0.90879 0.3465 0.0
O412 O 0.16316 0.84545 0.20928 0.0
C413 C 0.19014 0.90864 0.13879 0.0
C414 C 0.15482 0.82918 0.24903 0.0
O415 O 0.15515 0.83501 0.30891 0.0
C416 C 0.20308 0.83574 0.30977 0.0
C417 C 0.20116 0.90908 0.08085 0.0
C418 C 0.21446 0.92959 0.07433 0.0
C419 C 0.22431 0.93231 0.01862 0.0
C420 C 0.22089 0.91433 0.96918 0.0
C421 C 0.20724 0.89433 0.97356 0.0
C422 C 0.19738 0.89172 0.02969 0.0
O423 O 0.15633 0.88772 0.38385 0.0
O424 O 0.16461 0.91223 0.29676 0.0
O425 O 0.17085 0.86162 0.49672 0.0
O426 O 0.19951 0.86509 0.48912 0.0
C427 C 0.18614 0.86027 0.52721 0.0
O428 O 0.20428 0.85596 0.2694 0.0
O429 O 0.19055 0.83548 0.3534 0.0
O430 O 0.17569 0.89282 0.14096 0.0
O431 O 0.19879 0.91038 0.19247 0.0
H432 H 0.21688 0.9439 0.11219 0.0
H433 H 0.22806 0.91722 0.92538 0.0
H434 H 0.18662 0.87662 0.03289 0.0
O435 O 0.79922 0.11421 0.38664 0.0
Tb436 Tb 0.81527 0.1512 0.39673 0.0
Eu437 Eu 0.81534 0.13748 0.23396 0.0
C438 C 0.80283 0.09457 0.42676 0.0
O439 O 0.81614 0.09838 0.46686 0.0
C440 C 0.84154 0.11006 0.33965 0.0
O441 O 0.83249 0.17519 0.21742 0.0
C442 C 0.80701 0.11238 0.13066 0.0
C443 C 0.82729 0.19246 0.17372 0.0
O444 O 0.81276 0.18658 0.14054 0.0
C445 C 0.79384 0.18481 0.30131 0.0
C446 C 0.79729 0.11159 0.06998 0.0
C447 C 0.78444 0.09063 0.06037 0.0
C448 C 0.77636 0.08664 1.00161 0.0
C449 C 0.78076 0.10448 0.9528 0.0
C450 C 0.79354 0.12552 0.96106 0.0
C451 C 0.80199 0.12887 0.01965 0.0
O452 O 0.84104 0.13241 0.37367 0.0
O453 O 0.82995 0.10611 0.29356 0.0
O454 O 0.82817 0.16232 0.48591 0.0
O455 O 0.79944 0.15874 0.48129 0.0
C456 C 0.81313 0.16396 0.51782 0.0
O457 O 0.79156 0.16321 0.26538 0.0
O458 O 0.80751 0.18616 0.34075 0.0
O459 O 0.82157 0.12783 0.1367 0.0
O460 O 0.79729 0.11046 0.18208 0.0
H461 H 0.78138 0.07652 0.09802 0.0
H462 H 0.77455 0.10152 0.90731 0.0
H463 H 0.81224 0.14459 0.02564 0.0
H464 H 0.51703 0.18062 0.15515 0.0
H465 H 0.50923 0.34048 0.22045 0.0
H466 H 0.56406 0.23016 0.19704 0.0
H467 H 0.46671 0.28387 0.2706 0.0
H468 H 0.52894 0.30166 0.19381 0.0
H469 H 0.49748 0.22015 0.17719 0.0
C470 C 0.52323 0.19992 0.16803 0.0
C471 C 0.54214 0.20218 0.1746 0.0
C472 C 0.51533 0.29779 0.21097 0.0
C473 C 0.51998 0.24722 0.19963 0.0
C474 C 0.50414 0.31984 0.22623 0.0
C475 C 0.48646 0.31523 0.24831 0.0
C476 C 0.50859 0.27102 0.21639 0.0
C477 C 0.48038 0.28818 0.25453 0.0
C478 C 0.51209 0.22232 0.18115 0.0
C479 C 0.54951 0.22756 0.19191 0.0
N480 N 0.49138 0.26705 0.23812 0.0
N481 N 0.53842 0.24915 0.20369 0.0
H482 H 0.49991 0.85147 0.12096 0.0
H483 H 0.49881 0.71008 0.30502 0.0
H484 H 0.45002 0.81353 0.1825 0.0
H485 H 0.5402 0.72949 0.16958 0.0
H486 H 0.48216 0.75156 0.27384 0.0
H487 H 0.51643 0.80979 0.14979 0.0
C488 C 0.49242 0.83431 0.14002 0.0
C489 C 0.47357 0.83594 0.14916 0.0
C490 C 0.49491 0.74669 0.25108 0.0
C491 C 0.49239 0.78863 0.18361 0.0
C492 C 0.50441 0.72324 0.26915 0.0
C493 C 0.52079 0.7165 0.23959 0.0
C494 C 0.50208 0.76368 0.20413 0.0
C495 C 0.52753 0.73403 0.19315 0.0
C496 C 0.50184 0.8106 0.15653 0.0
C497 C 0.46454 0.81312 0.17426 0.0
N498 N 0.5182 0.75691 0.17702 0.0
N499 N 0.47406 0.79051 0.19127 0.0
H500 H 0.72903 0.43263 0.40212 0.0
H501 H 0.73659 0.59183 0.47574 0.0
H502 H 0.68203 0.48099 0.44994 0.0
H503 H 0.77949 0.53521 0.52072 0.0
H504 H 0.71686 0.55307 0.44807 0.0
H505 H 0.74852 0.47223 0.42488 0.0
C506 C 0.72281 0.45171 0.41637 0.0
C507 C 0.70394 0.45361 0.42441 0.0
C508 C 0.73056 0.54917 0.46436 0.0
C509 C 0.72603 0.4987 0.45038 0.0
C510 C 0.74175 0.57119 0.48024 0.0
C511 C 0.75955 0.56654 0.50114 0.0
C512 C 0.73741 0.52244 0.46793 0.0
C513 C 0.76574 0.53951 0.50563 0.0
C514 C 0.73392 0.47414 0.42992 0.0
C515 C 0.69656 0.47869 0.44355 0.0
N516 N 0.75473 0.51844 0.48861 0.0
N517 N 0.70762 0.50031 0.45577 0.0
H518 H 0.27395 0.57807 0.3674 0.0
H519 H 0.24887 0.45132 0.58862 0.0
H520 H 0.30661 0.55256 0.52458 0.0
H521 H 0.22158 0.46779 0.41413 0.0
H522 H 0.26934 0.48985 0.56833 0.0
H523 H 0.25396 0.53865 0.38492 0.0
C524 C 0.27698 0.56412 0.40529 0.0
C525 C 0.29194 0.56868 0.44467 0.0
C526 C 0.25891 0.48497 0.53436 0.0
C527 C 0.26908 0.52378 0.46538 0.0
C528 C 0.24717 0.46309 0.54616 0.0
C529 C 0.2336 0.45624 0.50285 0.0
C530 C 0.25694 0.50028 0.47914 0.0
C531 C 0.23205 0.4721 0.44834 0.0
C532 C 0.26557 0.54166 0.41535 0.0
C533 C 0.29522 0.54993 0.4931 0.0
N534 N 0.24354 0.49339 0.43812 0.0
N535 N 0.28384 0.52844 0.50226 0.0
H536 H 0.46569 0.78326 0.77928 0.0
H537 H 0.56517 0.73305 0.69617 0.0
H538 H 0.50742 0.83995 0.72215 0.0
H539 H 0.51795 0.68302 0.66032 0.0
H540 H 0.54516 0.77192 0.71811 0.0
H541 H 0.48577 0.74516 0.75093 0.0
C542 C 0.47919 0.78762 0.76158 0.0
C543 C 0.48502 0.81468 0.75334 0.0
C544 C 0.53921 0.7525 0.70484 0.0
C545 C 0.50789 0.77143 0.72066 0.0
C546 C 0.55058 0.73037 0.69229 0.0
C547 C 0.54315 0.70487 0.67632 0.0
C548 C 0.52029 0.7489 0.70296 0.0
C549 C 0.52419 0.70242 0.672 0.0
C550 C 0.49052 0.76595 0.74478 0.0
C551 C 0.50249 0.81931 0.72927 0.0
N552 N 0.51337 0.72409 0.68616 0.0
N553 N 0.51339 0.79788 0.71414 0.0
H554 H 0.4737 0.32762 0.60739 0.0
H555 H 0.49702 0.19836 0.82274 0.0
H556 H 0.43967 0.29987 0.75903 0.0
H557 H 0.52512 0.21594 0.6504 0.0
H558 H 0.47664 0.23692 0.80243 0.0
H559 H 0.49331 0.28769 0.62336 0.0
C560 C 0.47029 0.31307 0.64369 0.0
C561 C 0.45507 0.31718 0.68208 0.0
C562 C 0.48722 0.23227 0.7689 0.0
C563 C 0.4775 0.27169 0.70105 0.0
C564 C 0.4989 0.21037 0.7807 0.0
C565 C 0.5127 0.20384 0.73807 0.0
C566 C 0.48948 0.24797 0.71439 0.0
C567 C 0.51448 0.22 0.68409 0.0
C568 C 0.48149 0.29031 0.65286 0.0
C569 C 0.45129 0.29764 0.72842 0.0
N570 N 0.50305 0.24136 0.6739 0.0
N571 N 0.46247 0.2759 0.73684 0.0
H572 H 0.68861 0.96877 0.01273 0.0
H573 H 0.77683 0.05132 0.90237 0.0
H574 H 0.72319 0.94151 0.86215 0.0
H575 H 0.748 0.06813 0.07365 0.0
H576 H 0.75612 0.01319 0.88183 0.0
H577 H 0.70879 1.00757 0.02967 0.0
C578 C 0.70042 0.97099 0.9829 0.0
C579 C 0.70425 0.95171 0.93606 0.0
C580 C 0.75432 0.02519 0.9239 0.0
C581 C 0.72752 0.99631 0.95553 0.0
C582 C 0.76607 0.04706 0.93554 0.0
C583 C 0.76406 0.06305 0.98969 0.0
C584 C 0.74035 0.01931 0.96648 0.0
C585 C 0.75009 0.05628 0.03153 0.0
C586 C 0.71198 0.99316 0.99285 0.0
C587 C 0.71973 0.95582 0.89886 0.0
N588 N 0.73872 0.03501 0.01889 0.0
N589 N 0.73082 0.97766 0.90946 0.0
H590 H 0.26004 0.93029 0.98445 0.0
H591 H 0.26769 0.08938 0.91049 0.0
H592 H 0.21687 0.98673 0.02761 0.0
H593 H 0.31459 0.04097 0.95913 0.0
H594 H 0.24811 0.04994 0.93394 0.0
H595 H 0.27982 0.96913 0.95812 0.0
C596 C 0.25483 0.95091 0.98891 0.0
C597 C 0.23694 0.95547 0.00883 0.0
C598 C 0.2627 0.04799 0.93908 0.0
C599 C 0.25915 0.99968 0.9771 0.0
C600 C 0.27386 0.07034 0.92514 0.0
C601 C 0.29274 0.06836 0.9331 0.0
C602 C 0.27056 0.02345 0.95982 0.0
C603 C 0.30007 0.04333 0.95277 0.0
C604 C 0.26606 0.97298 0.97378 0.0
C605 C 0.2307 0.98248 0.01327 0.0
N606 N 0.28897 0.02179 0.96529 0.0
N607 N 0.24175 1.00362 0.99693 0.0
H608 H 0.01315 0.33795 0.75975 0.0
H609 H 0.01877 0.18095 0.66987 0.0
H610 H 0.96977 0.28138 0.80023 0.0
H611 H 0.06683 0.22677 0.71953 0.0
H612 H 2e-05 0.21993 0.7023 0.0
H613 H 0.03301 0.29917 0.73393 0.0
C614 C 0.00801 0.31729 0.76472 0.0
C615 C 0.98998 0.31267 0.78303 0.0
C616 C 0.01468 0.22141 0.70583 0.0
C617 C 0.01214 0.26861 0.75095 0.0
C618 C 0.02536 0.19937 0.68664 0.0
C619 C 0.04433 0.20073 0.69214 0.0
C620 C 0.02308 0.24508 0.72947 0.0
C621 C 0.05221 0.22493 0.71484 0.0
C622 C 0.01924 0.29527 0.74953 0.0
C623 C 0.98373 0.28565 0.78739 0.0
N624 N 0.04155 0.24624 0.73248 0.0
N625 N 0.99473 0.2646 0.77055 0.0
H626 H 0.98723 0.67835 0.7282 0.0
H627 H 0.97907 0.83752 0.65483 0.0
H628 H 0.02985 0.73553 0.77381 0.0
H629 H 0.93219 0.78811 0.69914 0.0
H630 H -0.00127 0.7983 0.67848 0.0
H631 H 0.96738 0.71682 0.70023 0.0
C632 C 0.99229 0.69905 0.73285 0.0
C633 C 0.01006 0.70392 0.75396 0.0
C634 C 0.98413 0.79607 0.68254 0.0
C635 C 0.98778 0.74774 0.72035 0.0
C636 C 0.97292 0.81829 0.66844 0.0
C637 C 0.95401 0.816 0.67522 0.0
C638 C 0.97632 0.77132 0.70232 0.0
C639 C 0.94673 0.79072 0.69365 0.0
C640 C 0.98104 0.72091 0.71676 0.0
C641 C 0.01612 0.73104 0.75858 0.0
N642 N 0.95789 0.76932 0.70644 0.0
N643 N 0.00505 0.75198 0.74134 0.0
H644 H 0.24856 0.56901 0.08576 0.0
H645 H 0.22345 0.44204 0.8646 0.0
H646 H 0.27566 0.55297 0.9108 0.0
H647 H 0.19052 0.46831 0.02039 0.0
H648 H 0.24348 0.4815 0.882 0.0
H649 H 0.2281 0.53047 0.06515 0.0
C650 C 0.25022 0.55733 0.04313 0.0
C651 C 0.26375 0.56432 0.9998 0.0
C652 C 0.2318 0.47865 0.91212 0.0
C653 C 0.24041 0.52022 0.97571 0.0
C654 C 0.22036 0.45616 0.90212 0.0
C655 C 0.20532 0.45179 0.94117 0.0
C656 C 0.22823 0.49672 0.9618 0.0
C657 C 0.20198 0.47076 0.98915 0.0
C658 C 0.23849 0.53544 0.03115 0.0
C659 C 0.26524 0.54855 0.94507 0.0
N660 N 0.21338 0.49224 0.99829 0.0
N661 N 0.25376 0.52723 0.93467 0.0
H662 H 0.81324 0.54003 0.94635 0.0
H663 H 0.71392 0.4861 0.02285 0.0
H664 H 0.76558 0.5888 0.91013 0.0
H665 H 0.757 0.43125 0.96906 0.0
H666 H 0.73357 0.52508 0.99659 0.0
H667 H 0.79363 0.50053 0.96703 0.0
C668 C 0.79864 0.54232 0.94216 0.0
C669 C 0.79099 0.56765 0.92639 0.0
C670 C 0.73871 0.5045 0.99072 0.0
C671 C 0.76853 0.52284 0.95156 0.0
C672 C 0.72762 0.48233 1.00634 0.0
C673 C 0.73395 0.45551 0.99842 0.0
C674 C 0.75635 0.49979 0.9681 0.0
C675 C 0.75167 0.45166 0.97589 0.0
C676 C 0.78749 0.51981 0.95399 0.0
C677 C 0.77201 0.56955 0.92166 0.0
N678 N 0.76232 0.47356 0.96187 0.0
N679 N 0.76138 0.54751 0.93506 0.0
H680 H 0.06395 0.73174 0.19463 0.0
H681 H 0.96456 0.78288 0.27806 0.0
H682 H 0.01651 0.68198 0.16032 0.0
H683 H 0.0069 0.83902 0.22365 0.0
H684 H 0.98444 0.74452 0.24979 0.0
H685 H 0.04412 0.77072 0.21716 0.0
C686 C 0.04934 0.72914 0.19118 0.0
C687 C 0.04181 0.70368 0.17549 0.0
C688 C 0.98937 0.76524 0.24425 0.0
C689 C 0.01913 0.74786 0.20282 0.0
C690 C 0.97815 0.78706 0.26104 0.0
C691 C 0.9842 0.81405 0.25349 0.0
C692 C 0.00686 0.77051 0.22078 0.0
C693 C 0.0018 0.81846 0.23024 0.0
C694 C 0.03807 0.75134 0.20409 0.0
C695 C 0.02283 0.70135 0.17175 0.0
N696 N 0.01257 0.79689 0.21503 0.0
N697 N 0.0121 0.72309 0.18622 0.0
H698 H 0.932 0.28217 0.16443 0.0
H699 H 0.03084 0.236 0.27074 0.0
H700 H 0.97857 0.33527 0.1469 0.0
H701 H 0.99048 0.17809 0.20839 0.0
H702 H 0.01079 0.27351 0.23788 0.0
H703 H 0.95236 0.24414 0.1895 0.0
C704 C 0.94655 0.28568 0.16487 0.0
C705 C 0.95364 0.31183 0.15326 0.0
C706 C 0.00633 0.25258 0.23157 0.0
C707 C 0.97693 0.26868 0.18391 0.0
C708 C 0.01764 0.23124 0.25099 0.0
C709 C 0.01222 0.20398 0.24257 0.0
C710 C 0.98938 0.24658 0.20449 0.0
C711 C 0.99512 0.19886 0.21575 0.0
C712 C 0.95814 0.26402 0.1794 0.0
C713 C 0.97258 0.31535 0.15487 0.0
N714 N 0.98427 0.21995 0.19797 0.0
N715 N 0.98358 0.29409 0.17089 0.0
H716 H 0.22411 0.94382 0.361 0.0
H717 H 0.24946 0.07081 0.58159 0.0
H718 H 0.19118 0.97046 0.51645 0.0
H719 H 0.27631 0.05493 0.40609 0.0
H720 H 0.22893 0.03236 0.56105 0.0
H721 H 0.24414 0.98333 0.3779 0.0
C722 C 0.22101 0.95804 0.39832 0.0
C723 C 0.20598 0.95375 0.43745 0.0
C724 C 0.23928 0.03735 0.5269 0.0
C725 C 0.2289 0.99872 0.45755 0.0
C726 C 0.25105 0.05918 0.53884 0.0
C727 C 0.26453 0.06619 0.49535 0.0
C728 C 0.2411 0.02219 0.47135 0.0
C729 C 0.26593 0.05049 0.44048 0.0
C730 C 0.23246 0.98055 0.40804 0.0
C731 C 0.20263 0.97284 0.48516 0.0
N732 N 0.25441 0.02921 0.43013 0.0
N733 N 0.21404 0.99433 0.49407 0.0
H734 H 0.74917 0.95115 0.5717 0.0
H735 H 0.77293 0.08022 0.35635 0.0
H736 H 0.72028 0.96978 0.40145 0.0
H737 H 0.80663 0.05243 0.50885 0.0
H738 H 0.75316 0.04037 0.37197 0.0
H739 H 0.76991 0.98915 0.55046 0.0
C740 C 0.74719 0.96326 0.52989 0.0
C741 C 0.73302 0.95725 0.48824 0.0
C742 C 0.76495 0.04296 0.40173 0.0
C743 C 0.7567 1.00077 0.46344 0.0
C744 C 0.77624 0.06568 0.39277 0.0
C745 C 0.79139 0.06976 0.43155 0.0
C746 C 0.76881 0.02435 0.45003 0.0
C747 C 0.79505 0.05024 0.47799 0.0
C748 C 0.75909 0.98486 0.51755 0.0
C749 C 0.73117 0.97349 0.43443 0.0
N750 N 0.78379 0.02853 0.48615 0.0
N751 N 0.74282 0.99457 0.42372 0.0
H752 H 0.57713 0.13714 0.65756 0.0
H753 H 0.53408 0.09467 0.33117 0.0
H754 H 0.5213 0.11291 0.63113 0.0
H755 H 0.59122 0.11171 0.35408 0.0
H756 H 0.53051 0.09435 0.44433 0.0
H757 H 0.58411 0.12077 0.55168 0.0
C758 C 0.56649 0.12758 0.63014 0.0
C759 C 0.54859 0.12656 0.65264 0.0
C760 C 0.54392 0.09782 0.42498 0.0
C761 C 0.55631 0.10839 0.53153 0.0
C762 C 0.54594 0.09801 0.36027 0.0
C763 C 0.56292 0.10349 0.33344 0.0
C764 C 0.55893 0.10368 0.46343 0.0
C765 C 0.57788 0.1075 0.37315 0.0
C766 C 0.57043 0.11846 0.56956 0.0
C767 C 0.53524 0.11429 0.61514 0.0
N768 N 0.57548 0.10798 0.43632 0.0
N769 N 0.53931 0.10605 0.55622 0.0
H770 H 0.46416 0.91821 0.34143 0.0
H771 H 0.4208 0.88096 0.67017 0.0
H772 H 0.40644 0.90737 0.36648 0.0
H773 H 0.47678 0.9044 0.64365 0.0
H774 H 0.41405 0.89627 0.56335 0.0
H775 H 0.4681 0.91835 0.45452 0.0
C776 C 0.45227 0.91614 0.37095 0.0
C777 C 0.43498 0.91255 0.34473 0.0
C778 C 0.42772 0.89863 0.58139 0.0
C779 C 0.43937 0.91227 0.47469 0.0
C780 C 0.43153 0.89013 0.64254 0.0
C781 C 0.44941 0.89119 0.66542 0.0
C782 C 0.44193 0.90809 0.54305 0.0
C783 C 0.46285 0.90295 0.62746 0.0
C784 C 0.45451 0.91627 0.43563 0.0
C785 C 0.42002 0.91012 0.38504 0.0
N786 N 0.4589 0.91053 0.56798 0.0
N787 N 0.42258 0.9096 0.44815 0.0
H788 H 0.65647 0.35867 0.60696 0.0
H789 H 0.72833 0.36536 0.88736 0.0
H790 H 0.7146 0.3521 0.58572 0.0
H791 H 0.67175 0.3861 0.90943 0.0
H792 H 0.72198 0.34959 0.78125 0.0
H793 H 0.66043 0.35889 0.72113 0.0
C794 C 0.67002 0.35681 0.62639 0.0
C795 C 0.68526 0.35562 0.58709 0.0
C796 C 0.71085 0.35714 0.80951 0.0
C797 C 0.68988 0.35581 0.71697 0.0
C798 C 0.71447 0.36599 0.8702 0.0
C799 C 0.70058 0.37728 0.90688 0.0
C800 C 0.69323 0.35983 0.7849 0.0
C801 C 0.68284 0.37749 0.88262 0.0
C802 C 0.67228 0.357 0.69142 0.0
C803 C 0.70251 0.35329 0.61443 0.0
N804 N 0.67971 0.36935 0.82266 0.0
N805 N 0.70435 0.35364 0.67756 0.0
H806 H 0.34163 0.66171 0.61324 0.0
H807 H 0.27063 0.65639 0.8957 0.0
H808 H 0.28365 0.67181 0.5949 0.0
H809 H 0.32677 0.63275 0.915 0.0
H810 H 0.27707 0.67321 0.79056 0.0
H811 H 0.33815 0.66118 0.72758 0.0
C812 C 0.32824 0.66433 0.63335 0.0
C813 C 0.31287 0.66654 0.59481 0.0
C814 C 0.2881 0.66481 0.81802 0.0
C815 C 0.30879 0.66598 0.72486 0.0
C816 C 0.28444 0.65539 0.87816 0.0
C817 C 0.29817 0.64301 0.91367 0.0
C818 C 0.30559 0.66152 0.79271 0.0
C819 C 0.31583 0.64222 0.88899 0.0
C820 C 0.32625 0.66394 0.69847 0.0
C821 C 0.29582 0.66981 0.623 0.0
N822 N 0.319 0.6509 0.82947 0.0
N823 N 0.29423 0.66923 0.68619 0.0
H824 H 0.52135 0.62077 0.14439 0.0
H825 H 0.59162 0.61101 0.86054 0.0
H826 H 0.57826 0.64005 0.16302 0.0
H827 H 0.53338 0.60432 0.84319 0.0
H828 H 0.58834 0.61173 0.97489 0.0
H829 H 0.52704 0.60354 0.03901 0.0
C830 C 0.53516 0.62057 0.12675 0.0
C831 C 0.54936 0.63182 0.16213 0.0
C832 C 0.57632 0.6097 0.94602 0.0
C833 C 0.55593 0.61307 0.04078 0.0
C834 C 0.57819 0.60923 0.88087 0.0
C835 C 0.56272 0.60787 0.84258 0.0
C836 C 0.55887 0.60862 0.97275 0.0
C837 C 0.54564 0.60564 0.87108 0.0
C838 C 0.5384 0.611 0.06641 0.0
C839 C 0.56699 0.63135 0.13716 0.0
N840 N 0.54416 0.60628 0.93433 0.0
N841 N 0.56975 0.62259 0.07745 0.0
H842 H 0.47887 0.40622 0.1416 0.0
H843 H 0.40731 0.40957 0.85971 0.0
H844 H 0.42294 0.38144 0.16225 0.0
H845 H 0.46534 0.4186 0.83967 0.0
H846 H 0.41111 0.40907 0.974 0.0
H847 H 0.47224 0.42178 0.03557 0.0
C848 C 0.46506 0.4047 0.12418 0.0
C849 C 0.45146 0.39235 0.16044 0.0
C850 C 0.42296 0.41155 0.94452 0.0
C851 C 0.44382 0.40949 0.03845 0.0
C852 C 0.42079 0.41191 0.87942 0.0
C853 C 0.43606 0.4139 0.8404 0.0
C854 C 0.4405 0.41343 0.97044 0.0
C855 C 0.45322 0.4168 0.86813 0.0
C856 C 0.4613 0.41339 0.06351 0.0
C857 C 0.43379 0.39092 0.13578 0.0
N858 N 0.45498 0.41632 0.93131 0.0
N859 N 0.43052 0.39894 0.07582 0.0
H860 H 0.72 0.85631 0.40491 0.0
H861 H 0.71309 0.84932 0.08624 0.0
H862 H 0.6702 0.90219 0.39388 0.0
H863 H 0.65535 0.86116 0.1072 0.0
H864 H 0.71654 0.85097 0.1991 0.0
H865 H 0.71437 0.83836 0.29997 0.0
C866 C 0.70766 0.86207 0.38063 0.0
C867 C 0.69552 0.88063 0.40774 0.0
C868 C 0.70298 0.85233 0.17973 0.0
C869 C 0.68953 0.86181 0.28599 0.0
C870 C 0.70105 0.85164 0.11492 0.0
C871 C 0.68392 0.85508 0.08742 0.0
C872 C 0.68765 0.8567 0.21772 0.0
C873 C 0.6688 0.85828 0.12671 0.0
C874 C 0.70459 0.85229 0.32022 0.0
C875 C 0.67979 0.88773 0.37445 0.0
N876 N 0.67105 0.85948 0.18993 0.0
N877 N 0.67736 0.87861 0.31484 0.0
H878 H 0.34237 0.16266 0.10876 0.0
H879 H 0.27154 0.15839 0.39163 0.0
H880 H 0.28436 0.17249 0.0907 0.0
H881 H 0.32762 0.13439 0.4107 0.0
H882 H 0.27798 0.17512 0.28642 0.0
H883 H 0.33899 0.16272 0.22315 0.0
C884 C 0.32899 0.16533 0.12894 0.0
C885 C 0.31359 0.16727 0.09051 0.0
C886 C 0.289 0.16667 0.31386 0.0
C887 C 0.30961 0.16742 0.22055 0.0
C888 C 0.28533 0.1573 0.37403 0.0
C889 C 0.29904 0.14482 0.40945 0.0
C890 C 0.30646 0.16321 0.28846 0.0
C891 C 0.3167 0.14393 0.38473 0.0
C892 C 0.32705 0.1653 0.19407 0.0
C893 C 0.29656 0.17066 0.11875 0.0
N894 N 0.31986 0.15253 0.32517 0.0
N895 N 0.29502 0.17043 0.18195 0.0
H896 H 0.07657 0.13696 0.16476 0.0
H897 H 0.03349 0.09344 0.83865 0.0
H898 H 0.02071 0.11277 0.13906 0.0
H899 H 0.09065 0.11024 0.86172 0.0
H900 H 0.02981 0.09392 0.95187 0.0
H901 H 0.08345 0.12043 0.05896 0.0
C902 C 0.0659 0.12737 0.13757 0.0
C903 C 0.04802 0.12641 0.16034 0.0
C904 C 0.04324 0.09716 0.93253 0.0
C905 C 0.05563 0.10808 0.0391 0.0
C906 C 0.04533 0.09688 0.86777 0.0
C907 C 0.06236 0.10202 0.84092 0.0
C908 C 0.05824 0.10312 0.97099 0.0
C909 C 0.07728 0.10624 0.88074 0.0
C910 C 0.06978 0.11817 0.07698 0.0
C911 C 0.03464 0.1141 0.12295 0.0
N912 N 0.07483 0.10713 0.94387 0.0
N913 N 0.03865 0.1058 0.064 0.0
H914 H 0.92101 0.88232 0.16742 0.0
H915 H 0.96548 0.91835 0.83936 0.0
H916 H 0.97747 0.90329 0.14204 0.0
H917 H 0.90767 0.90829 0.86369 0.0
H918 H 0.9693 0.91833 0.9526 0.0
H919 H 0.91476 0.89782 0.06047 0.0
C920 C 0.93197 0.89098 0.13999 0.0
C921 C 0.94982 0.89128 0.16327 0.0
C922 C 0.95571 0.91646 0.93348 0.0
C923 C 0.94289 0.90839 0.04068 0.0
C924 C 0.95355 0.91644 0.86874 0.0
C925 C 0.93627 0.9131 0.8423 0.0
C926 C 0.9405 0.91266 0.9723 0.0
C927 C 0.92125 0.91083 0.88241 0.0
C928 C 0.92844 0.89958 0.07875 0.0
C929 C 0.96356 0.9024 0.12554 0.0
N930 N 0.92373 0.91025 0.94552 0.0
N931 N 0.95986 0.91011 0.06593 0.0
H932 H 0.21495 0.34779 0.09383 0.0
H933 H 0.17019 0.38727 0.41931 0.0
H934 H 0.15732 0.36056 0.1159 0.0
H935 H 0.22653 0.36559 0.39539 0.0
H936 H 0.16392 0.37083 0.31296 0.0
H937 H 0.21841 0.34795 0.20718 0.0
C938 C 0.20298 0.3503 0.12275 0.0
C939 C 0.18586 0.35441 0.09565 0.0
C940 C 0.17758 0.36909 0.33148 0.0
C941 C 0.1897 0.35507 0.22574 0.0
C942 C 0.18111 0.37824 0.39235 0.0
C943 C 0.19893 0.37799 0.41573 0.0
C944 C 0.19201 0.35979 0.29399 0.0
C945 C 0.21264 0.36639 0.37873 0.0
C946 C 0.20494 0.35037 0.18755 0.0
C947 C 0.17077 0.35742 0.13515 0.0
N948 N 0.20895 0.35815 0.31948 0.0
N949 N 0.17307 0.35812 0.19833 0.0
H950 H 0.76699 0.65734 0.39418 0.0
H951 H 0.83832 0.66143 0.11188 0.0
H952 H 0.82298 0.633 0.41436 0.0
H953 H 0.78025 0.66959 0.09178 0.0
H954 H 0.83456 0.66079 0.22612 0.0
H955 H 0.77346 0.6728 0.28796 0.0
C956 C 0.78077 0.65589 0.37662 0.0
C957 C 0.79443 0.64368 0.41283 0.0
C958 C 0.82269 0.6631 0.19665 0.0
C959 C 0.80189 0.66075 0.29062 0.0
C960 C 0.82483 0.66354 0.13157 0.0
C961 C 0.80954 0.66535 0.09251 0.0
C962 C 0.80515 0.66472 0.22258 0.0
C963 C 0.79238 0.66796 0.12025 0.0
C964 C 0.78444 0.66453 0.31583 0.0
C965 C 0.81207 0.64236 0.38797 0.0
N966 N 0.79064 0.66741 0.18344 0.0
N967 N 0.81525 0.65035 0.32793 0.0
H968 H 0.03037 0.60032 0.33938 0.0
H969 H 0.07398 0.6372 0.66864 0.0
H970 H 0.08801 0.61208 0.36489 0.0
H971 H 0.01778 0.61497 0.64182 0.0
H972 H 0.08055 0.622 0.5617 0.0
H973 H 0.02641 0.60014 0.45253 0.0
C974 C 0.04224 0.60257 0.369 0.0
C975 C 0.05951 0.60645 0.34292 0.0
C976 C 0.06686 0.61989 0.57965 0.0
C977 C 0.0551 0.60666 0.47283 0.0
C978 C 0.06315 0.62833 0.6409 0.0
C979 C 0.04527 0.62758 0.66378 0.0
C980 C 0.05256 0.6108 0.54119 0.0
C981 C 0.0317 0.6162 0.62564 0.0
C982 C 0.03999 0.60243 0.43369 0.0
C983 C 0.07444 0.60912 0.38333 0.0
N984 N 0.03557 0.60866 0.56604 0.0
N985 N 0.07187 0.60958 0.44639 0.0
H986 H 0.96455 0.37598 0.33055 0.0
H987 H 0.94396 0.41471 0.67882 0.0
H988 H 0.91577 0.42283 0.36291 0.0
H989 H 0.95714 0.33276 0.61925 0.0
H990 H 0.93775 0.42676 0.56841 0.0
H991 H 0.96799 0.37001 0.44296 0.0
C992 C 0.95467 0.38532 0.36143 0.0
C993 C 0.93976 0.3997 0.33759 0.0
C994 C 0.94191 0.40617 0.58024 0.0
C995 C 0.94372 0.39305 0.4662 0.0
C996 C 0.94542 0.39929 0.64284 0.0
C997 C 0.95164 0.37295 0.65795 0.0
C998 C 0.9449 0.3866 0.53332 0.0
C999 C 0.9531 0.35362 0.60967 0.0
C1000 C 0.95662 0.38181 0.42545 0.0
C1001 C 0.92738 0.41143 0.37979 0.0
N1002 N 0.95008 0.36095 0.54966 0.0
N1003 N 0.9296 0.40783 0.44258 0.0
H1004 H 0.1735 0.88746 0.92115 0.0
H1005 H 0.21733 0.85119 0.59184 0.0
H1006 H 0.22998 0.86713 0.89426 0.0
H1007 H 0.15968 0.86242 0.61747 0.0
H1008 H 0.22137 0.85128 0.70502 0.0
H1009 H 0.16709 0.87209 0.81421 0.0
C1010 C 0.18444 0.879 0.89337 0.0
C1011 C 0.20233 0.87883 0.91628 0.0
C1012 C 0.20777 0.8534 0.68619 0.0
C1013 C 0.19522 0.86185 0.79364 0.0
C1014 C 0.20548 0.85337 0.62149 0.0
C1015 C 0.18818 0.85702 0.59543 0.0
C1016 C 0.19268 0.85754 0.72533 0.0
C1017 C 0.17327 0.85963 0.63588 0.0
C1018 C 0.18082 0.87047 0.83213 0.0
C1019 C 0.21604 0.86794 0.87807 0.0
N1020 N 0.17588 0.86023 0.69891 0.0
N1021 N 0.21225 0.86028 0.81846 0.0
H1022 H 0.8273 0.13274 0.90932 0.0
H1023 H 0.78263 0.17458 0.58479 0.0
H1024 H 0.77099 0.15455 0.88544 0.0
H1025 H 0.84014 0.16044 0.60614 0.0
H1026 H 0.77924 0.17381 0.69812 0.0
H1027 H 0.83363 0.14965 0.80337 0.0
C1028 C 0.81641 0.14191 0.88247 0.0
C1029 C 0.79858 0.1421 0.90574 0.0
C1030 C 0.79268 0.17122 0.67836 0.0
C1031 C 0.80555 0.16083 0.78447 0.0
C1032 C 0.7946 0.17166 0.61355 0.0
C1033 C 0.81165 0.16735 0.5862 0.0
C1034 C 0.80788 0.16594 0.71634 0.0
C1035 C 0.82674 0.16378 0.62556 0.0
C1036 C 0.81997 0.15131 0.82183 0.0
C1037 C 0.78489 0.15385 0.86889 0.0
N1038 N 0.82446 0.16273 0.68874 0.0
N1039 N 0.78861 0.16237 0.80989 0.0
H1040 H 0.52053 0.07143 0.95558 0.0
H1041 H 0.46277 0.96661 0.15599 0.0
H1042 H 0.53486 0.05075 0.14532 0.0
H1043 H 0.47082 0.95339 0.95854 0.0
H1044 H 0.48522 1.00357 0.15283 0.0
H1045 H 0.49833 0.03374 0.95536 0.0
C1046 C 0.51898 0.05901 0.99714 0.0
C1047 C 0.52955 0.06415 0.05053 0.0
C1048 C 0.48205 0.99257 0.11023 0.0
C1049 C 0.5041 0.0216 0.05085 0.0
C1050 C 0.46919 0.97161 0.11187 0.0
C1051 C 0.46496 0.95693 0.05741 0.0
C1052 C 0.49045 0.99935 0.05347 0.0
C1053 C 0.47378 0.96414 1.00161 0.0
C1054 C 0.50641 0.0375 0.99683 0.0
C1055 C 0.52707 0.04739 0.10305 0.0
N1056 N 0.48603 0.98506 1.00089 0.0
N1057 N 0.51446 0.02706 0.10213 0.0
H1058 H 0.72421 0.32199 0.20294 0.0
H1059 H 0.78476 0.21877 0.39681 0.0
H1060 H 0.71265 0.30237 0.39546 0.0
H1061 H 0.77288 0.20248 0.20283 0.0
H1062 H 0.76261 0.25602 0.39542 0.0
H1063 H 0.74629 0.28418 0.20003 0.0
C1064 C 0.72635 0.3098 0.24453 0.0
C1065 C 0.71658 0.31524 0.2995 0.0
C1066 C 0.76487 0.24429 0.35318 0.0
C1067 C 0.74189 0.27261 0.29671 0.0
C1068 C 0.77755 0.22314 0.3538 0.0
C1069 C 0.78059 0.20749 0.29987 0.0
C1070 C 0.75546 0.2503 0.29786 0.0
C1071 C 0.7708 0.21396 0.24549 0.0
C1072 C 0.73884 0.28823 0.2427 0.0
C1073 C 0.71982 0.29878 0.35202 0.0
N1074 N 0.75874 0.2351 0.24564 0.0
N1075 N 0.73232 0.2784 0.34953 0.0
H1076 H 0.27111 0.69665 0.21328 0.0
H1077 H 0.21427 0.80454 0.40749 0.0
H1078 H 0.28538 0.71947 0.40191 0.0
H1079 H 0.22221 0.81561 0.2093 0.0
H1080 H 0.23639 0.76732 0.40605 0.0
H1081 H 0.24926 0.73471 0.21037 0.0
C1082 C 0.26962 0.7096 0.25403 0.0
C1083 C 0.28007 0.70496 0.30792 0.0
C1084 C 0.23329 0.77791 0.36289 0.0
C1085 C 0.25504 0.74794 0.30514 0.0
C1086 C 0.22062 0.79904 0.36356 0.0
C1087 C 0.21643 0.81319 0.3084 0.0
C1088 C 0.24158 0.7704 0.30645 0.0
C1089 C 0.22516 0.8053 0.25288 0.0
C1090 C 0.25726 0.73132 0.25217 0.0
C1091 C 0.27767 0.7224 0.35933 0.0
N1092 N 0.23724 0.7842 0.25314 0.0
N1093 N 0.26528 0.74293 0.3569 0.0
H1094 H 0.47424 0.45133 0.45369 0.0
H1095 H 0.53493 0.55379 0.65171 0.0
H1096 H 0.4638 0.46899 0.64802 0.0
H1097 H 0.52488 0.56884 0.456 0.0
H1098 H 0.51259 0.51684 0.64928 0.0
H1099 H 0.49642 0.48909 0.45154 0.0
C1100 C 0.47662 0.46309 0.49582 0.0
C1101 C 0.46715 0.45705 0.55111 0.0
C1102 C 0.51527 0.52823 0.60687 0.0
C1103 C 0.49256 0.49971 0.54911 0.0
C1104 C 0.52808 0.54923 0.60807 0.0
C1105 C 0.53175 0.56445 0.55395 0.0
C1106 C 0.50627 0.52194 0.55086 0.0
C1107 C 0.52237 0.5577 0.49883 0.0
C1108 C 0.48918 0.48465 0.49443 0.0
C1109 C 0.4707 0.47301 0.60429 0.0
N1110 N 0.51012 0.53674 0.49851 0.0
N1111 N 0.48323 0.4934 0.60212 0.0
H1112 H 0.79866 0.73864 0.8273 0.0
H1113 H 0.69579 0.78329 0.82062 0.0
H1114 H 0.75686 0.68232 0.76816 0.0
H1115 H 0.73828 0.83979 0.76899 0.0
H1116 H 0.71784 0.74574 0.81552 0.0
H1117 H 0.77665 0.77617 0.82018 0.0
C1118 C 0.78485 0.7342 0.81275 0.0
C1119 C 0.77953 0.70737 0.7984 0.0
C1120 C 0.72227 0.76635 0.80493 0.0
C1121 C 0.75432 0.75001 0.7912 0.0
C1122 C 0.70975 0.78776 0.80812 0.0
C1123 C 0.71526 0.81466 0.7953 0.0
C1124 C 0.7405 0.77199 0.79048 0.0
C1125 C 0.73348 0.81932 0.77897 0.0
C1126 C 0.77236 0.75561 0.8084 0.0
C1127 C 0.76151 0.70275 0.7794 0.0
N1128 N 0.74553 0.79824 0.77787 0.0
N1129 N 0.74946 0.72381 0.77718 0.0
H1130 H 0.27224 0.19846 0.70873 0.0
H1131 H 0.21341 0.30287 0.90621 0.0
H1132 H 0.28542 0.21938 0.89942 0.0
H1133 H 0.22213 0.31626 0.70916 0.0
H1134 H 0.23588 0.26611 0.90382 0.0
H1135 H 0.24998 0.23601 0.70697 0.0
C1136 C 0.27042 0.2109 0.75017 0.0
C1137 C 0.28069 0.20586 0.8043 0.0
C1138 C 0.23286 0.2771 0.86112 0.0
C1139 C 0.25518 0.24825 0.80282 0.0
C1140 C 0.21999 0.29797 0.86232 0.0
C1141 C 0.21593 0.31266 0.80778 0.0
C1142 C 0.24148 0.27038 0.80472 0.0
C1143 C 0.22496 0.30553 0.7523 0.0
C1144 C 0.25783 0.23233 0.74898 0.0
C1145 C 0.27787 0.22264 0.85661 0.0
N1146 N 0.23724 0.28467 0.752 0.0
N1147 N 0.26526 0.24289 0.85479 0.0
H1148 H 0.97131 0.95176 0.45377 0.0
H1149 H 0.03451 0.05139 0.65 0.0
H1150 H 0.96247 0.96804 0.64965 0.0
H1151 H 0.02278 0.06839 0.45626 0.0
H1152 H 0.01181 0.01488 0.64831 0.0
H1153 H 0.99377 0.98913 0.4512 0.0
C1154 C 0.9741 0.96315 0.49614 0.0
C1155 C 0.965 0.95684 0.55199 0.0
C1156 C 0.01421 0.02661 0.60618 0.0
C1157 C 0.99075 0.99903 0.54951 0.0
C1158 C 0.02722 0.04735 0.60696 0.0
C1159 C 0.03052 0.06298 0.55318 0.0
C1160 C 0.00465 0.02099 0.55089 0.0
C1161 C 0.02057 0.05691 0.49882 0.0
C1162 C 0.98682 0.98448 0.49453 0.0
C1163 C 0.96908 0.9723 0.6055 0.0
N1164 N 0.00815 0.03619 0.49886 0.0
N1165 N 0.98177 0.99247 0.60307 0.0
H1166 H 0.97143 0.45121 0.95435 0.0
H1167 H 0.03478 0.55049 0.15232 0.0
H1168 H 0.9639 0.46519 0.15179 0.0
H1169 H 0.02285 0.56768 0.95878 0.0
H1170 H 0.01249 0.51345 0.15018 0.0
H1171 H 0.99383 0.48867 0.95225 0.0
C1172 C 0.97451 0.46209 0.99718 0.0
C1173 C 0.96578 0.45511 0.05332 0.0
C1174 C 0.01475 0.52533 0.10817 0.0
C1175 C 0.99145 0.49746 0.05133 0.0
C1176 C 0.02754 0.54638 0.1092 0.0
C1177 C 0.03066 0.56225 0.05564 0.0
C1178 C 0.00521 0.51964 0.05287 0.0
C1179 C 0.02077 0.55604 1.00121 0.0
C1180 C 0.98719 0.48348 0.99585 0.0
C1181 C 0.97022 0.46995 0.10741 0.0
N1182 N 0.00855 0.53505 1.00103 0.0
N1183 N 0.98284 0.49022 0.10517 0.0
H1184 H 0.61499 0.07315 0.93871 0.0
H1185 H 0.62173 0.91076 0.90176 0.0
H1186 H 0.56734 0.0217 0.93156 0.0
H1187 H 0.66134 0.96626 0.82391 0.0
H1188 H 0.60313 0.95032 0.93287 0.0
H1189 H 0.63393 0.03291 0.91718 0.0
C1190 C 0.60854 0.05337 0.93318 0.0
C1191 C 0.58958 0.05078 0.93638 0.0
C1192 C 0.61591 0.95371 0.90896 0.0
C1193 C 0.61111 1.00475 0.91253 0.0
C1194 C 0.62651 0.93121 0.89133 0.0
C1195 C 0.64298 0.93521 0.85951 0.0
C1196 C 0.62207 0.98034 0.89601 0.0
C1197 C 0.64859 0.96217 0.84745 0.0
C1198 C 0.61933 0.03048 0.92064 0.0
C1199 C 0.58192 0.02464 0.92878 0.0
N1200 N 0.63822 0.98367 0.86595 0.0
N1201 N 0.5927 1.00263 0.91738 0.0
H1202 H 0.39109 0.9823 0.06969 0.0
H1203 H 0.35059 0.06291 0.77673 0.0
H1204 H 0.39564 0.95322 0.87987 0.0
H1205 H 0.35992 0.1013 0.95561 0.0
H1206 H 0.36574 0.02177 0.81477 0.0
H1207 H 0.37781 0.02488 0.03046 0.0
C1208 C 0.3892 0.98477 0.01981 0.0
C1209 C 0.39445 0.96407 0.97804 0.0
C1210 C 0.36462 0.03926 0.84557 0.0
C1211 C 0.3793 0.01283 0.93285 0.0
C1212 C 0.35598 0.06282 0.82385 0.0
C1213 C 0.35392 0.08566 0.86301 0.0
C1214 C 0.37107 0.03827 0.9073 0.0
C1215 C 0.36124 0.08426 0.92364 0.0
C1216 C 0.38174 1.00917 0.99744 0.0
C1217 C 0.3918 0.96857 0.91384 0.0
N1218 N 0.3693 0.06087 0.94414 0.0
N1219 N 0.38435 0.99236 0.89329 0.0
H1220 H 0.67918 0.27182 0.18089 0.0
H1221 H 0.58343 0.21606 0.0682 0.0
H1222 H 0.63078 0.32151 0.18589 0.0
H1223 H 0.62411 0.16205 0.14455 0.0
H1224 H 0.6017 0.25527 0.10064 0.0
H1225 H 0.66036 0.23166 0.15823 0.0
C1226 C 0.66457 0.27427 0.17736 0.0
C1227 C 0.65652 0.30007 0.185 0.0
C1228 C 0.60663 0.23486 0.11037 0.0
C1229 C 0.63498 0.25425 0.1583 0.0
C1230 C 0.5963 0.21241 0.09138 0.0
C1231 C 0.60235 0.18567 0.10314 0.0
C1232 C 0.62336 0.23066 0.14032 0.0
C1233 C 0.61898 0.18229 0.13438 0.0
C1234 C 0.65386 0.25131 0.16471 0.0
C1235 C 0.63753 0.302 0.18042 0.0
N1236 N 0.62903 0.20454 0.15132 0.0
N1237 N 0.62742 0.27945 0.16659 0.0
H1238 H 0.41028 0.80514 0.07182 0.0
H1239 H 0.31619 0.74818 0.19349 0.0
H1240 H 0.37175 0.85853 0.16243 0.0
H1241 H 0.36476 0.69885 0.19276 0.0
H1242 H 0.33477 0.78874 0.17177 0.0
H1243 H 0.39218 0.76578 0.10397 0.0
C1244 C 0.39793 0.80864 0.0982 0.0
C1245 C 0.39246 0.83526 0.11414 0.0
C1246 C 0.34135 0.76907 0.17683 0.0
C1247 C 0.37163 0.79005 0.1509 0.0
C1248 C 0.33078 0.7459 0.18891 0.0
C1249 C 0.33896 0.72009 0.19463 0.0
C1250 C 0.36019 0.76631 0.16892 0.0
C1251 C 0.35792 0.71836 0.18878 0.0
C1252 C 0.3877 0.78609 0.11697 0.0
C1253 C 0.37645 0.83839 0.14911 0.0
N1254 N 0.36787 0.7411 0.17539 0.0
N1255 N 0.36646 0.81604 0.16579 0.0
H1256 H 0.63644 0.41735 0.45189 0.0
H1257 H 0.60041 0.56788 0.37248 0.0
H1258 H 0.64543 0.4572 0.27459 0.0
H1259 H 0.60499 0.53701 0.56074 0.0
H1260 H 0.6136 0.52531 0.33342 0.0
H1261 H 0.62108 0.45859 0.48959 0.0
C1262 C 0.63496 0.43457 0.42052 0.0
C1263 C 0.64233 0.43378 0.35997 0.0
C1264 C 0.61175 0.52786 0.38329 0.0
C1265 C 0.62482 0.48112 0.40306 0.0
C1266 C 0.60422 0.55218 0.40567 0.0
C1267 C 0.60167 0.55612 0.47008 0.0
C1268 C 0.61659 0.5071 0.42545 0.0
C1269 C 0.60684 0.53497 0.51077 0.0
C1270 C 0.62632 0.45821 0.44231 0.0
C1271 C 0.64006 0.45686 0.32169 0.0
N1272 N 0.61398 0.51135 0.48778 0.0
N1273 N 0.63156 0.47955 0.34388 0.0
H1274 H 0.35122 0.56342 0.27903 0.0
H1275 H 0.39221 0.48145 0.56949 0.0
H1276 H 0.35847 0.59983 0.46114 0.0
H1277 H 0.39737 0.45424 0.3784 0.0
H1278 H 0.37826 0.52384 0.53213 0.0
H1279 H 0.36698 0.52253 0.31553 0.0
C1280 C 0.35628 0.56294 0.32657 0.0
C1281 C 0.3535 0.58516 0.36703 0.0
C1282 C 0.38247 0.5086 0.49841 0.0
C1283 C 0.37136 0.53806 0.40954 0.0
C1284 C 0.39033 0.48429 0.51971 0.0
C1285 C 0.39594 0.46416 0.47704 0.0
C1286 C 0.38001 0.51273 0.43398 0.0
C1287 C 0.39327 0.46913 0.41304 0.0
C1288 C 0.36527 0.53953 0.34741 0.0
C1289 C 0.36038 0.5833 0.42816 0.0
N1290 N 0.38544 0.49282 0.39354 0.0
N1291 N 0.36883 0.56006 0.44773 0.0
H1292 H 0.64923 0.81697 0.62231 0.0
H1293 H 0.61041 0.6685 0.70715 0.0
H1294 H 0.64119 0.78954 0.81197 0.0
H1295 H 0.60336 0.7064 0.52662 0.0
H1296 H 0.62589 0.70989 0.74393 0.0
H1297 H 0.63616 0.77403 0.58452 0.0
C1298 C 0.6447 0.80194 0.65606 0.0
C1299 C 0.64622 0.80698 0.72047 0.0
C1300 C 0.62105 0.70903 0.69615 0.0
C1301 C 0.63143 0.75754 0.67737 0.0
C1302 C 0.61235 0.68531 0.6749 0.0
C1303 C 0.60547 0.68395 0.61368 0.0
C1304 C 0.62314 0.73143 0.65569 0.0
C1305 C 0.60832 0.70652 0.57427 0.0
C1306 C 0.63723 0.77742 0.63441 0.0
C1307 C 0.64015 0.78666 0.76193 0.0
N1308 N 0.6169 0.72928 0.59593 0.0
N1309 N 0.63309 0.76281 0.73969 0.0
H1310 H 0.37337 0.36075 0.65621 0.0
H1311 H 0.36673 0.19833 0.69111 0.0
H1312 H 0.41197 0.30559 0.57187 0.0
H1313 H 0.31905 0.24959 0.68904 0.0
H1314 H 0.38549 0.23868 0.66809 0.0
H1315 H 0.355 0.32108 0.6885 0.0
C1316 C 0.37796 0.34036 0.64455 0.0
C1317 C 0.39408 0.33649 0.6106 0.0
C1318 C 0.37092 0.24104 0.67301 0.0
C1319 C 0.37346 0.29121 0.64851 0.0
C1320 C 0.36024 0.21809 0.68643 0.0
C1321 C 0.34131 0.2206 0.69147 0.0
C1322 C 0.36264 0.26674 0.66591 0.0
C1323 C 0.33359 0.24671 0.68485 0.0
C1324 C 0.3675 0.31778 0.66288 0.0
C1325 C 0.39948 0.30958 0.59706 0.0
N1326 N 0.34428 0.26879 0.6726 0.0
N1327 N 0.38927 0.288 0.61632 0.0
H1328 H 0.14229 0.9516 0.27557 0.0
H1329 H 0.10689 0.0385 0.56722 0.0
H1330 H 0.14007 0.91924 0.46303 0.0
H1331 H 0.09743 0.06192 0.3755 0.0
H1332 H 0.12023 0.99555 0.53061 0.0
H1333 H 0.12651 0.99258 0.31155 0.0
C1334 C 0.13831 0.95296 0.32421 0.0
C1335 C 0.14256 0.93189 0.3663 0.0
C1336 C 0.1152 1.01007 0.49658 0.0
C1337 C 0.1247 0.97912 0.40813 0.0
C1338 C 0.10767 0.03469 0.51742 0.0
C1339 C 0.10107 0.05394 0.47438 0.0
C1340 C 0.1163 1.00472 0.43217 0.0
C1341 C 0.10235 0.04774 0.41042 0.0
C1342 C 0.12932 0.97642 0.34475 0.0
C1343 C 0.13702 0.93486 0.42879 0.0
N1344 N 0.10988 0.02377 0.39131 0.0
N1345 N 0.12856 0.95815 0.44794 0.0
H1346 H 0.89073 0.98367 0.56686 0.0
H1347 H 0.85029 0.06421 0.27328 0.0
H1348 H 0.89539 0.95481 0.37689 0.0
H1349 H 0.85795 0.10188 0.45385 0.0
H1350 H 0.86568 0.02328 0.3114 0.0
H1351 H 0.87715 0.02607 0.52786 0.0
C1352 C 0.88882 0.98616 0.51699 0.0
C1353 C 0.89418 0.96557 0.47511 0.0
C1354 C 0.86415 0.04057 0.34258 0.0
C1355 C 0.87867 0.01413 0.43019 0.0
C1356 C 0.85537 0.06399 0.32081 0.0
C1357 C 0.85281 0.08658 0.36035 0.0
C1358 C 0.87024 0.03944 0.40474 0.0
C1359 C 0.8597 0.08505 0.42154 0.0
C1360 C 0.88117 0.01046 0.49475 0.0
C1361 C 0.89148 0.97008 0.41095 0.0
N1362 N 0.86794 0.06179 0.44203 0.0
N1363 N 0.88386 0.99377 0.39053 0.0
H1364 H 0.10158 0.20449 0.52527 0.0
H1365 H 0.14187 0.28498 0.81916 0.0
H1366 H 0.11024 0.16614 0.70446 0.0
H1367 H 0.14683 0.31396 0.62945 0.0
H1368 H 0.12863 0.24234 0.7796 0.0
H1369 H 0.11702 0.2454 0.56354 0.0
C1370 C 0.10688 0.20453 0.57251 0.0
C1371 C 0.1045 0.18178 0.61171 0.0
C1372 C 0.13265 0.25803 0.74667 0.0
C1373 C 0.122 0.22895 0.65627 0.0
C1374 C 0.1401 0.28246 0.76923 0.0
C1375 C 0.14543 0.30317 0.7276 0.0
C1376 C 0.13032 0.25434 0.68202 0.0
C1377 C 0.14292 0.29862 0.66334 0.0
C1378 C 0.11569 0.22797 0.59437 0.0
C1379 C 0.11175 0.18312 0.67246 0.0
N1380 N 0.13548 0.2748 0.6426 0.0
N1381 N 0.11998 0.20641 0.6931 0.0
H1382 H 0.85421 0.73344 0.81901 0.0
H1383 H 0.89132 0.81706 0.52515 0.0
H1384 H 0.84559 0.70798 0.62811 0.0
H1385 H 0.88704 0.85234 0.70952 0.0
H1386 H 0.87537 0.77646 0.56249 0.0
H1387 H 0.86753 0.77622 0.78081 0.0
C1388 C 0.85517 0.73677 0.76908 0.0
C1389 C 0.84882 0.71699 0.72673 0.0
C1390 C 0.87775 0.79317 0.59469 0.0
C1391 C 0.86404 0.76598 0.6827 0.0
C1392 C 0.88686 0.81643 0.57336 0.0
C1393 C 0.89061 0.83821 0.61423 0.0
C1394 C 0.87253 0.79137 0.65767 0.0
C1395 C 0.88442 0.83614 0.67621 0.0
C1396 C 0.86268 0.76129 0.74732 0.0
C1397 C 0.8503 0.72259 0.66254 0.0
N1398 N 0.87588 0.81301 0.69621 0.0
N1399 N 0.85783 0.74644 0.64255 0.0
H1400 H 0.10604 0.5377 0.07011 0.0
H1401 H 0.1428 0.45232 0.77786 0.0
H1402 H 0.09823 0.5627 0.87856 0.0
H1403 H 0.13921 0.41863 0.96383 0.0
H1404 H 0.12723 0.49337 0.81438 0.0
H1405 H 0.11945 0.49486 0.03301 0.0
C1406 C 0.10721 0.53427 0.02026 0.0
C1407 C 0.10104 0.55393 0.97741 0.0
C1408 C 0.12969 0.47692 0.84714 0.0
C1409 C 0.11634 0.50483 0.93463 0.0
C1410 C 0.13857 0.45341 0.82628 0.0
C1411 C 0.14236 0.43193 0.86779 0.0
C1412 C 0.12473 0.47926 0.91028 0.0
C1413 C 0.13652 0.43458 0.93004 0.0
C1414 C 0.11477 0.50971 0.99913 0.0
C1415 C 0.1028 0.5482 0.91336 0.0
N1416 N 0.12816 0.45791 0.94952 0.0
N1417 N 0.11035 0.52428 0.89398 0.0
H1418 H 0.85893 0.60501 0.95664 0.0
H1419 H 0.89565 0.45512 0.87304 0.0
H1420 H 0.8509 0.56614 0.77752 0.0
H1421 H 0.8931 0.48652 0.06138 0.0
H1422 H 0.88215 0.49762 0.8351 0.0
H1423 H 0.87486 0.56407 0.99307 0.0
C1424 C 0.86074 0.58808 0.92461 0.0
C1425 C 0.85347 0.58906 0.86391 0.0
C1426 C 0.88452 0.49522 0.88474 0.0
C1427 C 0.8716 0.54201 0.9056 0.0
C1428 C 0.89223 0.47092 0.90649 0.0
C1429 C 0.89545 0.46713 0.97059 0.0
C1430 C 0.88012 0.51609 0.92724 0.0
C1431 C 0.89075 0.48843 0.01163 0.0
C1432 C 0.86971 0.5646 0.94567 0.0
C1433 C 0.85617 0.56633 0.82477 0.0
N1434 N 0.88337 0.51199 0.98926 0.0
N1435 N 0.86495 0.54378 0.84631 0.0
H1436 H 0.14212 0.78601 0.31847 0.0
H1437 H 0.10258 0.70387 0.02543 0.0
H1438 H 0.14782 0.81379 0.12808 0.0
H1439 H 0.1092 0.66751 0.20778 0.0
H1440 H 0.11829 0.74476 0.06262 0.0
H1441 H 0.1287 0.74338 0.27983 0.0
C1442 C 0.14048 0.78323 0.26856 0.0
C1443 C 0.14607 0.80361 0.2265 0.0
C1444 C 0.11646 0.72776 0.09438 0.0
C1445 C 0.13073 0.75474 0.18193 0.0
C1446 C 0.10751 0.70432 0.07313 0.0
C1447 C 0.10448 0.68213 0.1135 0.0
C1448 C 0.12229 0.7293 0.15679 0.0
C1449 C 0.11124 0.68401 0.17484 0.0
C1450 C 0.13292 0.75879 0.24653 0.0
C1451 C 0.14371 0.79871 0.16229 0.0
N1452 N 0.11964 0.70728 0.19478 0.0
N1453 N 0.13616 0.77488 0.14204 0.0
H1454 H 0.82594 0.22424 0.06924 0.0
H1455 H 0.88802 0.34486 0.20366 0.0
H1456 H 0.85108 0.2198 0.2512 0.0
H1457 H 0.88188 0.3287 1.00647 0.0
H1458 H 0.86963 0.30411 0.22631 0.0
H1459 H 0.84189 0.26727 0.04995 0.0
C1460 C 0.8348 0.23234 0.10524 0.0
C1461 C 0.83726 0.2183 0.16182 0.0
C1462 C 0.87221 0.30969 0.17815 0.0
C1463 C 0.85536 0.26787 0.14026 0.0
C1464 C 0.88254 0.33308 0.16512 0.0
C1465 C 0.88657 0.34018 0.103 0.0
C1466 C 0.86556 0.29363 0.12871 0.0
C1467 C 0.87921 0.32396 0.05503 0.0
C1468 C 0.84392 0.2569 0.09411 0.0
C1469 C 0.84892 0.22982 0.20672 0.0
N1470 N 0.86907 0.30151 0.06887 0.0
N1471 N 0.85749 0.25403 0.19512 0.0
loop_
_geom_bond_atom_site_label_1
_geom_bond_atom_site_label_2
_geom_bond_distance
_geom_bond_site_symmetry_2
_ccdc_geom_bond_type
O0 Tb1 2.292 . S
O0 C3 1.255 . S
Tb1 O0 2.292 . S
Tb1 O17 2.326 . S
Tb1 O19 2.500 . S
Tb1 O20 2.473 . S
Tb1 O23 2.324 . S
Eu2 O6 2.292 . S
Eu2 C7 2.852 . S
Eu2 O18 2.324 1_556 S
Eu2 O22 2.328 . S
Eu2 O24 2.500 . S
Eu2 O25 2.473 . S
C3 O0 1.255 . S
C3 O4 1.247 . S
O4 C3 1.247 . S
C5 O17 1.242 . S
C5 O18 1.258 . S
O6 Eu2 2.292 . S
O6 C8 1.255 . S
C7 Eu2 2.852 . S
C7 C11 1.503 . S
C7 O24 1.273 . S
C7 O25 1.257 . S
C8 O6 1.255 . S
C8 O9 1.247 1_556 S
O9 C8 1.247 1_554 S
C10 O22 1.236 1_554 S
C10 O23 1.258 . S
C11 C7 1.503 . S
C11 C12 1.379 . S
C11 C16 1.392 . S
C12 C11 1.379 . S
C12 C13 1.404 . S
C12 H26 0.929 . S
C13 C12 1.404 . S
C13 C14 1.389 . S
C14 C13 1.389 . S
C14 C15 1.399 . S
C14 H27 0.931 . S
C15 C14 1.399 . S
C15 C16 1.390 . S
C16 C11 1.392 . S
C16 C15 1.390 . S
C16 H28 0.929 . S
O17 Tb1 2.326 . S
O17 C5 1.242 . S
O18 Eu2 2.324 1_554 S
O18 C5 1.258 . S
O19 Tb1 2.500 . S
O19 C21 1.273 . S
O20 Tb1 2.473 . S
O20 C21 1.257 . S
C21 O19 1.273 . S
C21 O20 1.257 . S
O22 Eu2 2.328 . S
O22 C10 1.236 1_556 S
O23 Tb1 2.324 . S
O23 C10 1.258 . S
O24 Eu2 2.500 . S
O24 C7 1.273 . S
O25 Eu2 2.473 . S
O25 C7 1.257 . S
H26 C12 0.929 . S
H27 C14 0.931 . S
H28 C16 0.929 . S
O29 Tb30 2.292 . S
O29 C32 1.255 . S
Tb30 O29 2.292 . S
Tb30 O46 2.326 . S
Tb30 O48 2.500 . S
Tb30 O49 2.473 . S
Tb30 O52 2.324 . S
Eu31 O35 2.292 . S
Eu31 C36 2.852 . S
Eu31 O47 2.324 1_556 S
Eu31 O51 2.328 . S
Eu31 O53 2.500 . S
Eu31 O54 2.473 . S
C32 O29 1.255 . S
C32 O33 1.247 . S
O33 C32 1.247 . S
C34 O46 1.242 . S
C34 O47 1.258 . S
O35 Eu31 2.292 . S
O35 C37 1.255 . S
C36 Eu31 2.852 . S
C36 C40 1.503 . S
C36 O53 1.273 . S
C36 O54 1.257 . S
C37 O35 1.255 . S
C37 O38 1.247 1_556 S
O38 C37 1.247 1_554 S
C39 O51 1.236 1_554 S
C39 O52 1.258 . S
C40 C36 1.503 . S
C40 C41 1.379 . S
C40 C45 1.392 . S
C41 C40 1.379 . S
C41 C42 1.404 . S
C41 H55 0.929 . S
C42 C41 1.404 . S
C42 C43 1.389 . S
C43 C42 1.389 . S
C43 C44 1.399 . S
C43 H56 0.931 . S
C44 C43 1.399 . S
C44 C45 1.390 . S
C45 C40 1.392 . S
C45 C44 1.390 . S
C45 H57 0.929 . S
O46 Tb30 2.326 . S
O46 C34 1.242 . S
O47 Eu31 2.324 1_554 S
O47 C34 1.258 . S
O48 Tb30 2.500 . S
O48 C50 1.273 . S
O49 Tb30 2.473 . S
O49 C50 1.257 . S
C50 O48 1.273 . S
C50 O49 1.257 . S
O51 Eu31 2.328 . S
O51 C39 1.236 1_556 S
O52 Tb30 2.324 . S
O52 C39 1.258 . S
O53 Eu31 2.500 . S
O53 C36 1.273 . S
O54 Eu31 2.473 . S
O54 C36 1.257 . S
H55 C41 0.929 . S
H56 C43 0.931 . S
H57 C45 0.929 . S
O58 Tb59 2.292 . S
O58 C61 1.255 . S
Tb59 O58 2.292 . S
Tb59 O75 2.326 . S
Tb59 O77 2.500 . S
Tb59 O78 2.473 . S
Tb59 O81 2.324 . S
Eu60 O64 2.292 . S
Eu60 C65 2.852 . S
Eu60 O76 2.324 . S
Eu60 O80 2.326 . S
Eu60 O82 2.500 . S
Eu60 O83 2.473 . S
C61 O58 1.255 . S
C61 O62 1.247 . S
O62 C61 1.247 . S
C63 O75 1.242 . S
C63 O76 1.258 . S
O64 Eu60 2.292 . S
O64 C66 1.255 . S
C65 Eu60 2.852 . S
C65 C69 1.503 . S
C65 O82 1.273 . S
C65 O83 1.257 . S
C66 O64 1.255 . S
C66 O67 1.247 . S
O67 C66 1.247 . S
C68 O80 1.242 . S
C68 O81 1.258 . S
C69 C65 1.503 . S
C69 C70 1.379 . S
C69 C74 1.392 . S
C70 C69 1.379 . S
C70 C71 1.404 . S
C70 H84 0.929 . S
C71 C70 1.404 . S
C71 C72 1.389 1_554 S
C72 C71 1.389 1_556 S
C72 C73 1.399 . S
C72 H85 0.931 . S
C73 C72 1.399 . S
C73 C74 1.390 1_556 S
C74 C69 1.392 . S
C74 C73 1.390 1_554 S
C74 H86 0.929 . S
O75 Tb59 2.326 . S
O75 C63 1.242 . S
O76 Eu60 2.324 . S
O76 C63 1.258 . S
O77 Tb59 2.500 . S
O77 C79 1.273 . S
O78 Tb59 2.473 . S
O78 C79 1.257 . S
C79 O77 1.273 . S
C79 O78 1.257 . S
O80 Eu60 2.326 . S
O80 C68 1.242 . S
O81 Tb59 2.324 . S
O81 C68 1.258 . S
O82 Eu60 2.500 . S
O82 C65 1.273 . S
O83 Eu60 2.473 . S
O83 C65 1.257 . S
H84 C70 0.929 . S
H85 C72 0.931 . S
H86 C74 0.929 . S
O87 Tb88 2.292 . S
O87 C90 1.255 . S
Tb88 O87 2.292 . S
Tb88 O104 2.326 . S
Tb88 O106 2.500 . S
Tb88 O107 2.473 . S
Tb88 O110 2.324 . S
Eu89 O93 2.292 . S
Eu89 C94 2.852 . S
Eu89 O105 2.324 . S
Eu89 O109 2.326 . S
Eu89 O111 2.500 . S
Eu89 O112 2.473 . S
C90 O87 1.255 . S
C90 O91 1.247 . S
O91 C90 1.247 . S
C92 O104 1.242 . S
C92 O105 1.258 . S
O93 Eu89 2.292 . S
O93 C95 1.255 . S
C94 Eu89 2.852 . S
C94 C98 1.503 . S
C94 O111 1.273 . S
C94 O112 1.257 . S
C95 O93 1.255 . S
C95 O96 1.247 . S
O96 C95 1.247 . S
C97 O109 1.242 . S
C97 O110 1.258 . S
C98 C94 1.503 . S
C98 C99 1.379 . S
C98 C103 1.392 . S
C99 C98 1.379 . S
C99 C100 1.404 . S
C99 H113 0.929 . S
C100 C99 1.404 . S
C100 C101 1.389 1_554 S
C101 C100 1.389 1_556 S
C101 C102 1.399 . S
C101 H114 0.931 . S
C102 C101 1.399 . S
C102 C103 1.390 1_556 S
C103 C98 1.392 . S
C103 C102 1.390 1_554 S
C103 H115 0.929 . S
O104 Tb88 2.326 . S
O104 C92 1.242 . S
O105 Eu89 2.324 . S
O105 C92 1.258 . S
O106 Tb88 2.500 . S
O106 C108 1.273 . S
O107 Tb88 2.473 . S
O107 C108 1.257 . S
C108 O106 1.273 . S
C108 O107 1.257 . S
O109 Eu89 2.326 . S
O109 C97 1.242 . S
O110 Tb88 2.324 . S
O110 C97 1.258 . S
O111 Eu89 2.500 . S
O111 C94 1.273 . S
O112 Eu89 2.473 . S
O112 C94 1.257 . S
H113 C99 0.929 . S
H114 C101 0.931 . S
H115 C103 0.929 . S
O116 Tb117 2.292 . S
O116 C119 1.255 . S
Tb117 O116 2.292 . S
Tb117 O133 2.326 . S
Tb117 O135 2.500 . S
Tb117 O136 2.473 . S
Tb117 O139 2.324 . S
Eu118 O122 2.292 . S
Eu118 C123 2.852 . S
Eu118 O134 2.324 . S
Eu118 O138 2.326 . S
Eu118 O140 2.500 . S
Eu118 O141 2.473 . S
C119 O116 1.255 . S
C119 O120 1.247 . S
O120 C119 1.247 . S
C121 O133 1.242 . S
C121 O134 1.258 . S
O122 Eu118 2.292 . S
O122 C124 1.255 . S
C123 Eu118 2.852 . S
C123 C127 1.503 . S
C123 O140 1.273 . S
C123 O141 1.257 . S
C124 O122 1.255 . S
C124 O125 1.247 . S
O125 C124 1.247 . S
C126 O138 1.242 . S
C126 O139 1.258 . S
C127 C123 1.503 . S
C127 C128 1.379 . S
C127 C132 1.392 . S
C128 C127 1.379 . S
C128 C129 1.404 . S
C128 H142 0.929 . S
C129 C128 1.404 . S
C129 C130 1.389 . S
C130 C129 1.389 . S
C130 C131 1.399 . S
C130 H143 0.931 . S
C131 C130 1.399 . S
C131 C132 1.390 . S
C132 C127 1.392 . S
C132 C131 1.390 . S
C132 H144 0.929 . S
O133 Tb117 2.326 . S
O133 C121 1.242 . S
O134 Eu118 2.324 . S
O134 C121 1.258 . S
O135 Tb117 2.500 . S
O135 C137 1.273 . S
O136 Tb117 2.473 . S
O136 C137 1.257 . S
C137 O135 1.273 . S
C137 O136 1.257 . S
O138 Eu118 2.326 . S
O138 C126 1.242 . S
O139 Tb117 2.324 . S
O139 C126 1.258 . S
O140 Eu118 2.500 . S
O140 C123 1.273 . S
O141 Eu118 2.473 . S
O141 C123 1.257 . S
H142 C128 0.929 . S
H143 C130 0.931 . S
H144 C132 0.929 . S
O145 Tb146 2.292 . S
O145 C148 1.255 . S
Tb146 O145 2.292 . S
Tb146 O162 2.326 . S
Tb146 O164 2.500 . S
Tb146 O165 2.473 . S
Tb146 O168 2.324 . S
Eu147 O151 2.292 . S
Eu147 C152 2.852 . S
Eu147 O163 2.324 . S
Eu147 O167 2.326 . S
Eu147 O169 2.500 . S
Eu147 O170 2.473 . S
C148 O145 1.255 . S
C148 O149 1.247 . S
O149 C148 1.247 . S
C150 O162 1.242 . S
C150 O163 1.258 . S
O151 Eu147 2.292 . S
O151 C153 1.255 . S
C152 Eu147 2.852 . S
C152 C156 1.503 . S
C152 O169 1.273 . S
C152 O170 1.257 . S
C153 O151 1.255 . S
C153 O154 1.247 . S
O154 C153 1.247 . S
C155 O167 1.242 . S
C155 O168 1.258 . S
C156 C152 1.503 . S
C156 C157 1.379 . S
C156 C161 1.392 . S
C157 C156 1.379 . S
C157 C158 1.404 . S
C157 H171 0.929 . S
C158 C157 1.404 . S
C158 C159 1.389 . S
C159 C158 1.389 . S
C159 C160 1.399 . S
C159 H172 0.931 . S
C160 C159 1.399 . S
C160 C161 1.390 . S
C161 C156 1.392 . S
C161 C160 1.390 . S
C161 H173 0.929 . S
O162 Tb146 2.326 . S
O162 C150 1.242 . S
O163 Eu147 2.324 . S
O163 C150 1.258 . S
O164 Tb146 2.500 . S
O164 C166 1.273 . S
O165 Tb146 2.473 . S
O165 C166 1.257 . S
C166 O164 1.273 . S
C166 O165 1.257 . S
O167 Eu147 2.326 . S
O167 C155 1.242 . S
O168 Tb146 2.324 . S
O168 C155 1.258 . S
O169 Eu147 2.500 . S
O169 C152 1.273 . S
O170 Eu147 2.473 . S
O170 C152 1.257 . S
H171 C157 0.929 . S
H172 C159 0.931 . S
H173 C161 0.929 . S
O174 Tb175 2.292 . S
O174 C177 1.255 . S
Tb175 O174 2.292 . S
Tb175 O191 2.326 . S
Tb175 O193 2.500 . S
Tb175 O194 2.473 . S
Tb175 O197 2.324 . S
Eu176 O180 2.292 . S
Eu176 C181 2.852 . S
Eu176 O192 2.324 . S
Eu176 O196 2.326 . S
Eu176 O198 2.500 . S
Eu176 O199 2.473 . S
C177 O174 1.255 . S
C177 O178 1.247 . S
O178 C177 1.247 . S
C179 O191 1.242 . S
C179 O192 1.258 . S
O180 Eu176 2.292 . S
O180 C182 1.255 . S
C181 Eu176 2.852 . S
C181 C185 1.503 . S
C181 O198 1.273 . S
C181 O199 1.257 . S
C182 O180 1.255 . S
C182 O183 1.247 . S
O183 C182 1.247 . S
C184 O196 1.242 . S
C184 O197 1.258 . S
C185 C181 1.503 . S
C185 C186 1.379 . S
C185 C190 1.392 . S
C186 C185 1.379 . S
C186 C187 1.404 . S
C186 H200 0.929 . S
C187 C186 1.404 . S
C187 C188 1.389 . S
C188 C187 1.389 . S
C188 C189 1.399 . S
C188 H201 0.931 . S
C189 C188 1.399 . S
C189 C190 1.390 . S
C190 C185 1.392 . S
C190 C189 1.390 . S
C190 H202 0.929 . S
O191 Tb175 2.326 . S
O191 C179 1.242 . S
O192 Eu176 2.324 . S
O192 C179 1.258 . S
O193 Tb175 2.500 . S
O193 C195 1.273 . S
O194 Tb175 2.473 . S
O194 C195 1.257 . S
C195 O193 1.273 . S
C195 O194 1.257 . S
O196 Eu176 2.326 . S
O196 C184 1.242 . S
O197 Tb175 2.324 . S
O197 C184 1.258 . S
O198 Eu176 2.500 . S
O198 C181 1.273 . S
O199 Eu176 2.473 . S
O199 C181 1.257 . S
H200 C186 0.929 . S
H201 C188 0.931 . S
H202 C190 0.929 . S
O203 Tb204 2.292 . S
O203 C206 1.255 . S
Tb204 O203 2.292 . S
Tb204 O220 2.326 . S
Tb204 O222 2.500 . S
Tb204 O223 2.473 . S
Tb204 O226 2.324 . S
Eu205 O209 2.292 . S
Eu205 C210 2.852 . S
Eu205 O221 2.324 . S
Eu205 O225 2.326 . S
Eu205 O227 2.500 . S
Eu205 O228 2.473 . S
C206 O203 1.255 . S
C206 O207 1.247 . S
O207 C206 1.247 . S
C208 O220 1.242 . S
C208 O221 1.258 . S
O209 Eu205 2.292 . S
O209 C211 1.255 . S
C210 Eu205 2.852 . S
C210 C214 1.503 . S
C210 O227 1.273 . S
C210 O228 1.257 . S
C211 O209 1.255 . S
C211 O212 1.247 . S
O212 C211 1.247 . S
C213 O225 1.242 . S
C213 O226 1.258 . S
C214 C210 1.503 . S
C214 C215 1.379 . S
C214 C219 1.392 . S
C215 C214 1.379 . S
C215 C216 1.404 . S
C215 H229 0.929 . S
C216 C215 1.404 . S
C216 C217 1.389 . S
C217 C216 1.389 . S
C217 C218 1.399 . S
C217 H230 0.931 . S
C218 C217 1.399 . S
C218 C219 1.390 . S
C219 C214 1.392 . S
C219 C218 1.390 . S
C219 H231 0.929 . S
O220 Tb204 2.326 . S
O220 C208 1.242 . S
O221 Eu205 2.324 . S
O221 C208 1.258 . S
O222 Tb204 2.500 . S
O222 C224 1.273 . S
O223 Tb204 2.473 . S
O223 C224 1.257 . S
C224 O222 1.273 . S
C224 O223 1.257 . S
O225 Eu205 2.326 . S
O225 C213 1.242 . S
O226 Tb204 2.324 . S
O226 C213 1.258 . S
O227 Eu205 2.500 . S
O227 C210 1.273 . S
O228 Eu205 2.473 . S
O228 C210 1.257 . S
H229 C215 0.929 . S
H230 C217 0.931 . S
H231 C219 0.929 . S
O232 Tb233 2.292 . S
O232 C235 1.255 . S
Tb233 O232 2.292 . S
Tb233 O249 2.326 . S
Tb233 O251 2.500 . S
Tb233 O252 2.473 . S
Tb233 O255 2.324 . S
Eu234 O238 2.292 . S
Eu234 C239 2.852 . S
Eu234 O250 2.324 . S
Eu234 O254 2.326 . S
Eu234 O256 2.500 . S
Eu234 O257 2.473 . S
C235 O232 1.255 . S
C235 O236 1.247 . S
O236 C235 1.247 . S
C237 O249 1.242 . S
C237 O250 1.258 . S
O238 Eu234 2.292 . S
O238 C240 1.255 . S
C239 Eu234 2.852 . S
C239 C243 1.503 . S
C239 O256 1.273 . S
C239 O257 1.257 . S
C240 O238 1.255 . S
C240 O241 1.247 . S
O241 C240 1.247 . S
C242 O254 1.242 . S
C242 O255 1.258 . S
C243 C239 1.503 . S
C243 C244 1.379 . S
C243 C248 1.392 . S
C244 C243 1.379 . S
C244 C245 1.404 . S
C244 H258 0.929 . S
C245 C244 1.404 . S
C245 C246 1.389 . S
C246 C245 1.389 . S
C246 C247 1.399 . S
C246 H259 0.931 . S
C247 C246 1.399 . S
C247 C248 1.390 . S
C248 C243 1.392 . S
C248 C247 1.390 . S
C248 H260 0.929 . S
O249 Tb233 2.326 . S
O249 C237 1.242 . S
O250 Eu234 2.324 . S
O250 C237 1.258 . S
O251 Tb233 2.500 . S
O251 C253 1.273 . S
O252 Tb233 2.473 . S
O252 C253 1.257 . S
C253 O251 1.273 . S
C253 O252 1.257 . S
O254 Eu234 2.326 . S
O254 C242 1.242 . S
O255 Tb233 2.324 . S
O255 C242 1.258 . S
O256 Eu234 2.500 . S
O256 C239 1.273 . S
O257 Eu234 2.473 . S
O257 C239 1.257 . S
H258 C244 0.929 . S
H259 C246 0.931 . S
H260 C248 0.929 . S
O261 Tb262 2.292 . S
O261 C264 1.255 . S
Tb262 O261 2.292 . S
Tb262 O278 2.326 . S
Tb262 O280 2.500 . S
Tb262 O281 2.473 . S
Tb262 O284 2.324 . S
Eu263 O267 2.292 . S
Eu263 C268 2.852 . S
Eu263 O279 2.324 . S
Eu263 O283 2.326 . S
Eu263 O285 2.500 . S
Eu263 O286 2.473 . S
C264 O261 1.255 . S
C264 O265 1.247 . S
O265 C264 1.247 . S
C266 O278 1.242 . S
C266 O279 1.258 . S
O267 Eu263 2.292 . S
O267 C269 1.255 . S
C268 Eu263 2.852 . S
C268 C272 1.503 . S
C268 O285 1.273 . S
C268 O286 1.257 . S
C269 O267 1.255 . S
C269 O270 1.247 . S
O270 C269 1.247 . S
C271 O283 1.242 . S
C271 O284 1.258 . S
C272 C268 1.503 . S
C272 C273 1.379 . S
C272 C277 1.392 . S
C273 C272 1.379 . S
C273 C274 1.404 . S
C273 H287 0.929 . S
C274 C273 1.404 . S
C274 C275 1.389 . S
C275 C274 1.389 . S
C275 C276 1.399 . S
C275 H288 0.931 . S
C276 C275 1.399 . S
C276 C277 1.390 . S
C277 C272 1.392 . S
C277 C276 1.390 . S
C277 H289 0.929 . S
O278 Tb262 2.326 . S
O278 C266 1.242 . S
O279 Eu263 2.324 . S
O279 C266 1.258 . S
O280 Tb262 2.500 . S
O280 C282 1.273 . S
O281 Tb262 2.473 . S
O281 C282 1.257 . S
C282 O280 1.273 . S
C282 O281 1.257 . S
O283 Eu263 2.326 . S
O283 C271 1.242 . S
O284 Tb262 2.324 . S
O284 C271 1.258 . S
O285 Eu263 2.500 . S
O285 C268 1.273 . S
O286 Eu263 2.473 . S
O286 C268 1.257 . S
H287 C273 0.929 . S
H288 C275 0.931 . S
H289 C277 0.929 . S
O290 Tb291 2.292 . S
O290 C293 1.255 . S
Tb291 O290 2.292 . S
Tb291 O307 2.326 . S
Tb291 O309 2.500 . S
Tb291 O310 2.473 . S
Tb291 O313 2.324 . S
Eu292 O296 2.292 . S
Eu292 C297 2.852 . S
Eu292 O308 2.324 . S
Eu292 O312 2.326 . S
Eu292 O314 2.500 . S
Eu292 O315 2.473 . S
C293 O290 1.255 . S
C293 O294 1.247 . S
O294 C293 1.247 . S
C295 O307 1.242 . S
C295 O308 1.258 . S
O296 Eu292 2.292 . S
O296 C298 1.255 . S
C297 Eu292 2.852 . S
C297 C301 1.503 . S
C297 O314 1.273 . S
C297 O315 1.257 . S
C298 O296 1.255 . S
C298 O299 1.247 . S
O299 C298 1.247 . S
C300 O312 1.242 . S
C300 O313 1.258 . S
C301 C297 1.503 . S
C301 C302 1.379 . S
C301 C306 1.392 . S
C302 C301 1.379 . S
C302 C303 1.404 . S
C302 H316 0.929 . S
C303 C302 1.404 . S
C303 C304 1.389 . S
C304 C303 1.389 . S
C304 C305 1.399 . S
C304 H317 0.931 . S
C305 C304 1.399 . S
C305 C306 1.390 . S
C306 C301 1.392 . S
C306 C305 1.390 . S
C306 H318 0.929 . S
O307 Tb291 2.326 . S
O307 C295 1.242 . S
O308 Eu292 2.324 . S
O308 C295 1.258 . S
O309 Tb291 2.500 . S
O309 C311 1.273 . S
O310 Tb291 2.473 . S
O310 C311 1.257 . S
C311 O309 1.273 . S
C311 O310 1.257 . S
O312 Eu292 2.326 . S
O312 C300 1.242 . S
O313 Tb291 2.324 . S
O313 C300 1.258 . S
O314 Eu292 2.500 . S
O314 C297 1.273 . S
O315 Eu292 2.473 . S
O315 C297 1.257 . S
H316 C302 0.929 . S
H317 C304 0.931 . S
H318 C306 0.929 . S
O319 Tb320 2.292 . S
O319 C322 1.255 . S
Tb320 O319 2.292 . S
Tb320 O336 2.326 . S
Tb320 O338 2.500 . S
Tb320 O339 2.473 . S
Tb320 O342 2.324 . S
Eu321 O325 2.292 . S
Eu321 C326 2.852 . S
Eu321 O337 2.324 . S
Eu321 O341 2.326 . S
Eu321 O343 2.500 . S
Eu321 O344 2.473 . S
C322 O319 1.255 . S
C322 O323 1.247 . S
O323 C322 1.247 . S
C324 O336 1.242 . S
C324 O337 1.258 . S
O325 Eu321 2.292 . S
O325 C327 1.255 . S
C326 Eu321 2.852 . S
C326 C330 1.503 . S
C326 O343 1.273 . S
C326 O344 1.257 . S
C327 O325 1.255 . S
C327 O328 1.247 . S
O328 C327 1.247 . S
C329 O341 1.242 . S
C329 O342 1.258 . S
C330 C326 1.503 . S
C330 C331 1.379 . S
C330 C335 1.392 . S
C331 C330 1.379 . S
C331 C332 1.404 . S
C331 H345 0.929 . S
C332 C331 1.404 . S
C332 C333 1.389 . S
C333 C332 1.389 . S
C333 C334 1.399 . S
C333 H346 0.931 . S
C334 C333 1.399 . S
C334 C335 1.390 . S
C335 C330 1.392 . S
C335 C334 1.390 . S
C335 H347 0.929 . S
O336 Tb320 2.326 . S
O336 C324 1.242 . S
O337 Eu321 2.324 . S
O337 C324 1.258 . S
O338 Tb320 2.500 . S
O338 C340 1.273 . S
O339 Tb320 2.473 . S
O339 C340 1.257 . S
C340 O338 1.273 . S
C340 O339 1.257 . S
O341 Eu321 2.326 . S
O341 C329 1.242 . S
O342 Tb320 2.324 . S
O342 C329 1.258 . S
O343 Eu321 2.500 . S
O343 C326 1.273 . S
O344 Eu321 2.473 . S
O344 C326 1.257 . S
H345 C331 0.929 . S
H346 C333 0.931 . S
H347 C335 0.929 . S
O348 Tb349 2.292 . S
O348 C351 1.255 . S
Tb349 O348 2.292 . S
Tb349 O365 2.326 . S
Tb349 O367 2.500 . S
Tb349 O368 2.473 . S
Tb349 O371 2.324 . S
Eu350 O354 2.292 . S
Eu350 C355 2.852 . S
Eu350 O366 2.324 1_556 S
Eu350 O370 2.328 . S
Eu350 O372 2.500 . S
Eu350 O373 2.473 . S
C351 O348 1.255 . S
C351 O352 1.247 . S
O352 C351 1.247 . S
C353 O365 1.242 . S
C353 O366 1.258 . S
O354 Eu350 2.292 . S
O354 C356 1.255 . S
C355 Eu350 2.852 . S
C355 C359 1.503 . S
C355 O372 1.273 . S
C355 O373 1.257 . S
C356 O354 1.255 . S
C356 O357 1.247 1_556 S
O357 C356 1.247 1_554 S
C358 O370 1.236 1_554 S
C358 O371 1.258 . S
C359 C355 1.503 . S
C359 C360 1.379 . S
C359 C364 1.392 . S
C360 C359 1.379 . S
C360 C361 1.404 . S
C360 H374 0.929 . S
C361 C360 1.404 . S
C361 C362 1.389 . S
C362 C361 1.389 . S
C362 C363 1.399 . S
C362 H375 0.931 . S
C363 C362 1.399 . S
C363 C364 1.390 . S
C364 C359 1.392 . S
C364 C363 1.390 . S
C364 H376 0.929 . S
O365 Tb349 2.326 . S
O365 C353 1.242 . S
O366 Eu350 2.324 1_554 S
O366 C353 1.258 . S
O367 Tb349 2.500 . S
O367 C369 1.273 . S
O368 Tb349 2.473 . S
O368 C369 1.257 . S
C369 O367 1.273 . S
C369 O368 1.257 . S
O370 Eu350 2.328 . S
O370 C358 1.236 1_556 S
O371 Tb349 2.324 . S
O371 C358 1.258 . S
O372 Eu350 2.500 . S
O372 C355 1.273 . S
O373 Eu350 2.473 . S
O373 C355 1.257 . S
H374 C360 0.929 . S
H375 C362 0.931 . S
H376 C364 0.929 . S
O377 Tb378 2.292 . S
O377 C380 1.255 . S
Tb378 O377 2.292 . S
Tb378 O394 2.326 . S
Tb378 O396 2.500 . S
Tb378 O397 2.473 . S
Tb378 O400 2.324 . S
Eu379 O383 2.292 . S
Eu379 C384 2.852 . S
Eu379 O395 2.324 1_556 S
Eu379 O399 2.328 . S
Eu379 O401 2.500 . S
Eu379 O402 2.473 . S
C380 O377 1.255 . S
C380 O381 1.247 . S
O381 C380 1.247 . S
C382 O394 1.242 . S
C382 O395 1.258 . S
O383 Eu379 2.292 . S
O383 C385 1.255 . S
C384 Eu379 2.852 . S
C384 C388 1.503 . S
C384 O401 1.273 . S
C384 O402 1.257 . S
C385 O383 1.255 . S
C385 O386 1.247 1_556 S
O386 C385 1.247 1_554 S
C387 O399 1.236 1_554 S
C387 O400 1.258 . S
C388 C384 1.503 . S
C388 C389 1.379 . S
C388 C393 1.392 . S
C389 C388 1.379 . S
C389 C390 1.404 . S
C389 H403 0.929 . S
C390 C389 1.404 . S
C390 C391 1.389 . S
C391 C390 1.389 . S
C391 C392 1.399 . S
C391 H404 0.931 . S
C392 C391 1.399 . S
C392 C393 1.390 . S
C393 C388 1.392 . S
C393 C392 1.390 . S
C393 H405 0.929 . S
O394 Tb378 2.326 . S
O394 C382 1.242 . S
O395 Eu379 2.324 1_554 S
O395 C382 1.258 . S
O396 Tb378 2.500 . S
O396 C398 1.273 . S
O397 Tb378 2.473 . S
O397 C398 1.257 . S
C398 O396 1.273 . S
C398 O397 1.257 . S
O399 Eu379 2.328 . S
O399 C387 1.236 1_556 S
O400 Tb378 2.324 . S
O400 C387 1.258 . S
O401 Eu379 2.500 . S
O401 C384 1.273 . S
O402 Eu379 2.473 . S
O402 C384 1.257 . S
H403 C389 0.929 . S
H404 C391 0.931 . S
H405 C393 0.929 . S
O406 Tb407 2.292 . S
O406 C409 1.255 . S
Tb407 O406 2.292 . S
Tb407 O423 2.326 . S
Tb407 O425 2.500 . S
Tb407 O426 2.473 . S
Tb407 O429 2.324 . S
Eu408 O412 2.292 . S
Eu408 C413 2.852 . S
Eu408 O424 2.324 . S
Eu408 O428 2.326 . S
Eu408 O430 2.500 . S
Eu408 O431 2.473 . S
C409 O406 1.255 . S
C409 O410 1.247 . S
O410 C409 1.247 . S
C411 O423 1.242 . S
C411 O424 1.258 . S
O412 Eu408 2.292 . S
O412 C414 1.255 . S
C413 Eu408 2.852 . S
C413 C417 1.503 . S
C413 O430 1.273 . S
C413 O431 1.257 . S
C414 O412 1.255 . S
C414 O415 1.247 . S
O415 C414 1.247 . S
C416 O428 1.242 . S
C416 O429 1.258 . S
C417 C413 1.503 . S
C417 C418 1.379 . S
C417 C422 1.392 . S
C418 C417 1.379 . S
C418 C419 1.404 . S
C418 H432 0.929 . S
C419 C418 1.404 . S
C419 C420 1.389 1_554 S
C420 C419 1.389 1_556 S
C420 C421 1.399 . S
C420 H433 0.931 . S
C421 C420 1.399 . S
C421 C422 1.390 1_556 S
C422 C417 1.392 . S
C422 C421 1.390 1_554 S
C422 H434 0.929 . S
O423 Tb407 2.326 . S
O423 C411 1.242 . S
O424 Eu408 2.324 . S
O424 C411 1.258 . S
O425 Tb407 2.500 . S
O425 C427 1.273 . S
O426 Tb407 2.473 . S
O426 C427 1.257 . S
C427 O425 1.273 . S
C427 O426 1.257 . S
O428 Eu408 2.326 . S
O428 C416 1.242 . S
O429 Tb407 2.324 . S
O429 C416 1.258 . S
O430 Eu408 2.500 . S
O430 C413 1.273 . S
O431 Eu408 2.473 . S
O431 C413 1.257 . S
H432 C418 0.929 . S
H433 C420 0.931 . S
H434 C422 0.929 . S
O435 Tb436 2.292 . S
O435 C438 1.255 . S
Tb436 O435 2.292 . S
Tb436 O452 2.326 . S
Tb436 O454 2.500 . S
Tb436 O455 2.473 . S
Tb436 O458 2.324 . S
Eu437 O441 2.292 . S
Eu437 C442 2.852 . S
Eu437 O453 2.324 . S
Eu437 O457 2.326 . S
Eu437 O459 2.500 . S
Eu437 O460 2.473 . S
C438 O435 1.255 . S
C438 O439 1.247 . S
O439 C438 1.247 . S
C440 O452 1.242 . S
C440 O453 1.258 . S
O441 Eu437 2.292 . S
O441 C443 1.255 . S
C442 Eu437 2.852 . S
C442 C446 1.503 . S
C442 O459 1.273 . S
C442 O460 1.257 . S
C443 O441 1.255 . S
C443 O444 1.247 . S
O444 C443 1.247 . S
C445 O457 1.242 . S
C445 O458 1.258 . S
C446 C442 1.503 . S
C446 C447 1.379 . S
C446 C451 1.392 . S
C447 C446 1.379 . S
C447 C448 1.404 . S
C447 H461 0.929 . S
C448 C447 1.404 . S
C448 C449 1.389 1_554 S
C449 C448 1.389 1_556 S
C449 C450 1.399 . S
C449 H462 0.931 . S
C450 C449 1.399 . S
C450 C451 1.390 1_556 S
C451 C446 1.392 . S
C451 C450 1.390 1_554 S
C451 H463 0.929 . S
O452 Tb436 2.326 . S
O452 C440 1.242 . S
O453 Eu437 2.324 . S
O453 C440 1.258 . S
O454 Tb436 2.500 . S
O454 C456 1.273 . S
O455 Tb436 2.473 . S
O455 C456 1.257 . S
C456 O454 1.273 . S
C456 O455 1.257 . S
O457 Eu437 2.326 . S
O457 C445 1.242 . S
O458 Tb436 2.324 . S
O458 C445 1.258 . S
O459 Eu437 2.500 . S
O459 C442 1.273 . S
O460 Eu437 2.473 . S
O460 C442 1.257 . S
H461 C447 0.929 . S
H462 C449 0.931 . S
H463 C451 0.929 . S
H464 C470 0.930 . S
H465 C474 0.930 . S
H466 C479 0.929 . S
H467 C477 0.929 . S
H468 C472 0.929 . S
H469 C478 0.929 . S
C470 H464 0.930 . S
C470 C471 1.367 . S
C470 C478 1.378 . S
C471 C470 1.367 . S
C471 C479 1.433 . S
C472 H468 0.929 . S
C472 C474 1.378 . S
C472 C476 1.350 . S
C473 C476 1.463 . S
C473 C478 1.350 . S
C473 N481 1.427 . S
C474 H465 0.930 . S
C474 C472 1.378 . S
C474 C475 1.367 . S
C475 C474 1.367 . S
C475 C477 1.433 . S
C476 C472 1.350 . S
C476 C473 1.463 . S
C476 N480 1.427 . S
C477 H467 0.929 . S
C477 C475 1.433 . S
C477 N480 1.384 . S
C478 H469 0.929 . S
C478 C470 1.378 . S
C478 C473 1.350 . S
C479 H466 0.929 . S
C479 C471 1.433 . S
C479 N481 1.384 . S
N480 C476 1.427 . S
N480 C477 1.384 . S
N481 C473 1.427 . S
N481 C479 1.384 . S
H482 C488 0.930 . S
H483 C492 0.930 . S
H484 C497 0.929 . S
H485 C495 0.929 . S
H486 C490 0.929 . S
H487 C496 0.929 . S
C488 H482 0.930 . S
C488 C489 1.367 . S
C488 C496 1.378 . S
C489 C488 1.367 . S
C489 C497 1.433 . S
C490 H486 0.929 . S
C490 C492 1.378 . S
C490 C494 1.350 . S
C491 C494 1.463 . S
C491 C496 1.350 . S
C491 N499 1.427 . S
C492 H483 0.930 . S
C492 C490 1.378 . S
C492 C493 1.367 . S
C493 C492 1.367 . S
C493 C495 1.433 . S
C494 C490 1.350 . S
C494 C491 1.463 . S
C494 N498 1.427 . S
C495 H485 0.929 . S
C495 C493 1.433 . S
C495 N498 1.384 . S
C496 H487 0.929 . S
C496 C488 1.378 . S
C496 C491 1.350 . S
C497 H484 0.929 . S
C497 C489 1.433 . S
C497 N499 1.384 . S
N498 C494 1.427 . S
N498 C495 1.384 . S
N499 C491 1.427 . S
N499 C497 1.384 . S
H500 C506 0.930 . S
H501 C510 0.930 . S
H502 C515 0.929 . S
H503 C513 0.929 . S
H504 C508 0.929 . S
H505 C514 0.929 . S
C506 H500 0.930 . S
C506 C507 1.367 . S
C506 C514 1.378 . S
C507 C506 1.367 . S
C507 C515 1.433 . S
C508 H504 0.929 . S
C508 C510 1.378 . S
C508 C512 1.350 . S
C509 C512 1.463 . S
C509 C514 1.350 . S
C509 N517 1.427 . S
C510 H501 0.930 . S
C510 C508 1.378 . S
C510 C511 1.367 . S
C511 C510 1.367 . S
C511 C513 1.433 . S
C512 C508 1.350 . S
C512 C509 1.463 . S
C512 N516 1.427 . S
C513 H503 0.929 . S
C513 C511 1.433 . S
C513 N516 1.384 . S
C514 H505 0.929 . S
C514 C506 1.378 . S
C514 C509 1.350 . S
C515 H502 0.929 . S
C515 C507 1.433 . S
C515 N517 1.384 . S
N516 C512 1.427 . S
N516 C513 1.384 . S
N517 C509 1.427 . S
N517 C515 1.384 . S
H518 C524 0.930 . S
H519 C528 0.930 . S
H520 C533 0.929 . S
H521 C531 0.929 . S
H522 C526 0.929 . S
H523 C532 0.929 . S
C524 H518 0.930 . S
C524 C525 1.367 . S
C524 C532 1.378 . S
C525 C524 1.367 . S
C525 C533 1.433 . S
C526 H522 0.929 . S
C526 C528 1.378 . S
C526 C530 1.350 . S
C527 C530 1.463 . S
C527 C532 1.350 . S
C527 N535 1.427 . S
C528 H519 0.930 . S
C528 C526 1.378 . S
C528 C529 1.367 . S
C529 C528 1.367 . S
C529 C531 1.433 . S
C530 C526 1.350 . S
C530 C527 1.463 . S
C530 N534 1.427 . S
C531 H521 0.929 . S
C531 C529 1.433 . S
C531 N534 1.384 . S
C532 H523 0.929 . S
C532 C524 1.378 . S
C532 C527 1.350 . S
C533 H520 0.929 . S
C533 C525 1.433 . S
C533 N535 1.384 . S
N534 C530 1.427 . S
N534 C531 1.384 . S
N535 C527 1.427 . S
N535 C533 1.384 . S
H536 C542 0.930 . S
H537 C546 0.930 . S
H538 C551 0.929 . S
H539 C549 0.929 . S
H540 C544 0.929 . S
H541 C550 0.929 . S
C542 H536 0.930 . S
C542 C543 1.367 . S
C542 C550 1.378 . S
C543 C542 1.367 . S
C543 C551 1.433 . S
C544 H540 0.929 . S
C544 C546 1.378 . S
C544 C548 1.350 . S
C545 C548 1.463 . S
C545 C550 1.350 . S
C545 N553 1.427 . S
C546 H537 0.930 . S
C546 C544 1.378 . S
C546 C547 1.367 . S
C547 C546 1.367 . S
C547 C549 1.433 . S
C548 C544 1.350 . S
C548 C545 1.463 . S
C548 N552 1.427 . S
C549 H539 0.929 . S
C549 C547 1.433 . S
C549 N552 1.384 . S
C550 H541 0.929 . S
C550 C542 1.378 . S
C550 C545 1.350 . S
C551 H538 0.929 . S
C551 C543 1.433 . S
C551 N553 1.384 . S
N552 C548 1.427 . S
N552 C549 1.384 . S
N553 C545 1.427 . S
N553 C551 1.384 . S
H554 C560 0.930 . S
H555 C564 0.930 . S
H556 C569 0.929 . S
H557 C567 0.929 . S
H558 C562 0.929 . S
H559 C568 0.929 . S
C560 H554 0.930 . S
C560 C561 1.367 . S
C560 C568 1.378 . S
C561 C560 1.367 . S
C561 C569 1.433 . S
C562 H558 0.929 . S
C562 C564 1.378 . S
C562 C566 1.350 . S
C563 C566 1.463 . S
C563 C568 1.350 . S
C563 N571 1.427 . S
C564 H555 0.930 . S
C564 C562 1.378 . S
C564 C565 1.367 . S
C565 C564 1.367 . S
C565 C567 1.433 . S
C566 C562 1.350 . S
C566 C563 1.463 . S
C566 N570 1.427 . S
C567 H557 0.929 . S
C567 C565 1.433 . S
C567 N570 1.384 . S
C568 H559 0.929 . S
C568 C560 1.378 . S
C568 C563 1.350 . S
C569 H556 0.929 . S
C569 C561 1.433 . S
C569 N571 1.384 . S
N570 C566 1.427 . S
N570 C567 1.384 . S
N571 C563 1.427 . S
N571 C569 1.384 . S
H572 C578 0.930 . S
H573 C582 0.930 . S
H574 C587 0.929 . S
H575 C585 0.929 . S
H576 C580 0.929 . S
H577 C586 0.929 1_554 S
C578 H572 0.930 . S
C578 C579 1.367 . S
C578 C586 1.378 . S
C579 C578 1.367 . S
C579 C587 1.433 . S
C580 H576 0.929 . S
C580 C582 1.378 . S
C580 C584 1.350 . S
C581 C584 1.463 . S
C581 C586 1.350 1_545 S
C581 N589 1.427 1_545 S
C582 H573 0.930 . S
C582 C580 1.378 . S
C582 C583 1.367 1_556 S
C583 C582 1.367 1_554 S
C583 C585 1.433 . S
C584 C580 1.350 . S
C584 C581 1.463 . S
C584 N588 1.427 1_556 S
C585 H575 0.929 . S
C585 C583 1.433 . S
C585 N588 1.384 . S
C586 H577 0.929 1_556 S
C586 C578 1.378 . S
C586 C581 1.350 1_565 S
C587 H574 0.929 . S
C587 C579 1.433 . S
C587 N589 1.384 . S
N588 C584 1.427 1_554 S
N588 C585 1.384 . S
N589 C581 1.427 1_565 S
N589 C587 1.384 . S
H590 C596 0.930 . S
H591 C600 0.930 . S
H592 C605 0.929 . S
H593 C603 0.929 . S
H594 C598 0.929 . S
H595 C604 0.929 . S
C596 H590 0.930 . S
C596 C597 1.367 . S
C596 C604 1.378 . S
C597 C596 1.367 . S
C597 C605 1.433 . S
C598 H594 0.929 . S
C598 C600 1.378 . S
C598 C602 1.350 1_545 S
C599 C602 1.463 . S
C599 C604 1.350 1_556 S
C599 N607 1.427 . S
C600 H591 0.930 . S
C600 C598 1.378 . S
C600 C601 1.367 . S
C601 C600 1.367 . S
C601 C603 1.433 . S
C602 C598 1.350 1_565 S
C602 C599 1.463 . S
C602 N606 1.424 1_565 S
C603 H593 0.929 . S
C603 C601 1.433 . S
C603 N606 1.411 . S
C604 H595 0.929 . S
C604 C596 1.378 . S
C604 C599 1.350 1_554 S
C605 H592 0.929 . S
C605 C597 1.433 . S
C605 N607 1.384 1_554 S
N606 C602 1.424 1_545 S
N606 C603 1.411 . S
N607 C599 1.427 . S
N607 C605 1.384 1_556 S
H608 C614 0.930 . S
H609 C618 0.930 . S
H610 C623 0.929 . S
H611 C621 0.929 . S
H612 C616 0.929 1_655 S
H613 C622 0.954 . S
C614 H608 0.930 . S
C614 C615 1.367 . S
C614 C622 1.359 1_655 S
C615 C614 1.367 . S
C615 C623 1.433 . S
C616 H612 0.929 1_455 S
C616 C618 1.378 . S
C616 C620 1.350 . S
C617 C620 1.463 1_655 S
C617 C622 1.346 1_655 S
C617 N625 1.427 . S
C618 H609 0.930 . S
C618 C616 1.378 . S
C618 C619 1.367 . S
C619 C618 1.367 . S
C619 C621 1.433 . S
C620 C616 1.350 . S
C620 C617 1.463 1_455 S
C620 N624 1.427 . S
C621 H611 0.929 . S
C621 C619 1.433 . S
C621 N624 1.384 . S
C622 H613 0.954 . S
C622 C614 1.359 1_455 S
C622 C617 1.346 1_455 S
C623 H610 0.929 . S
C623 C615 1.433 . S
C623 N625 1.384 . S
N624 C620 1.427 . S
N624 C621 1.384 . S
N625 C617 1.427 . S
N625 C623 1.384 . S
H626 C632 0.930 . S
H627 C636 0.930 . S
H628 C641 0.929 . S
H629 C639 0.929 . S
H630 C634 0.929 . S
H631 C640 0.927 1_655 S
C632 H626 0.930 . S
C632 C633 1.367 . S
C632 C640 1.378 . S
C633 C632 1.367 . S
C633 C641 1.433 . S
C634 H630 0.929 . S
C634 C636 1.378 . S
C634 C638 1.350 . S
C635 C638 1.463 1_455 S
C635 C640 1.350 . S
C635 N643 1.427 . S
C636 H627 0.930 . S
C636 C634 1.378 . S
C636 C637 1.367 . S
C637 C636 1.367 . S
C637 C639 1.433 . S
C638 C634 1.350 . S
C638 C635 1.463 1_655 S
C638 N642 1.427 . S
C639 H629 0.929 . S
C639 C637 1.433 . S
C639 N642 1.384 . S
C640 H631 0.927 1_455 S
C640 C632 1.378 . S
C640 C635 1.350 . S
C641 H628 0.929 . S
C641 C633 1.433 . S
C641 N643 1.384 . S
N642 C638 1.427 . S
N642 C639 1.384 . S
N643 C635 1.427 . S
N643 C641 1.384 . S
H644 C650 0.930 . S
H645 C654 0.930 . S
H646 C659 0.929 . S
H647 C657 0.929 . S
H648 C652 0.929 . S
H649 C658 0.929 . S
C650 H644 0.930 . S
C650 C651 1.367 . S
C650 C658 1.378 . S
C651 C650 1.367 . S
C651 C659 1.433 1_554 S
C652 H648 0.929 . S
C652 C654 1.378 . S
C652 C656 1.350 . S
C653 C656 1.463 . S
C653 C658 1.350 1_556 S
C653 N661 1.427 . S
C654 H645 0.930 . S
C654 C652 1.378 . S
C654 C655 1.367 . S
C655 C654 1.367 . S
C655 C657 1.433 . S
C656 C652 1.350 . S
C656 C653 1.463 . S
C656 N660 1.427 1_556 S
C657 H647 0.929 . S
C657 C655 1.433 . S
C657 N660 1.384 1_556 S
C658 H649 0.929 . S
C658 C650 1.378 . S
C658 C653 1.350 1_554 S
C659 H646 0.929 . S
C659 C651 1.433 1_556 S
C659 N661 1.384 . S
N660 C656 1.427 1_554 S
N660 C657 1.384 1_554 S
N661 C653 1.427 . S
N661 C659 1.384 . S
H662 C668 0.930 . S
H663 C672 0.930 . S
H664 C677 0.929 . S
H665 C675 0.929 1_556 S
H666 C670 0.929 . S
H667 C676 0.929 . S
C668 H662 0.930 . S
C668 C669 1.367 . S
C668 C676 1.378 . S
C669 C668 1.367 . S
C669 C677 1.433 . S
C670 H666 0.929 . S
C670 C672 1.378 . S
C670 C674 1.350 1_554 S
C671 C674 1.463 . S
C671 C676 1.350 . S
C671 N679 1.427 . S
C672 H663 0.930 . S
C672 C670 1.378 . S
C672 C673 1.367 . S
C673 C672 1.367 . S
C673 C675 1.433 . S
C674 C670 1.350 1_556 S
C674 C671 1.463 . S
C674 N678 1.427 . S
C675 H665 0.929 1_554 S
C675 C673 1.433 . S
C675 N678 1.384 1_554 S
C676 H667 0.929 . S
C676 C668 1.378 . S
C676 C671 1.350 . S
C677 H664 0.929 . S
C677 C669 1.433 . S
C677 N679 1.384 . S
N678 C674 1.427 . S
N678 C675 1.384 1_556 S
N679 C671 1.427 . S
N679 C677 1.384 . S
H680 C686 0.930 . S
H681 C690 0.930 . S
H682 C695 0.947 . S
H683 C693 0.918 1_455 S
H684 C688 0.929 . S
H685 C694 0.929 . S
C686 H680 0.930 . S
C686 C687 1.367 . S
C686 C694 1.378 . S
C687 C686 1.367 . S
C687 C695 1.433 . S
C688 H684 0.929 . S
C688 C690 1.378 . S
C688 C692 1.350 . S
C689 C692 1.463 1_455 S
C689 C694 1.350 . S
C689 N697 1.427 1_455 S
C690 H681 0.930 . S
C690 C688 1.378 . S
C690 C691 1.367 . S
C691 C690 1.367 . S
C691 C693 1.457 . S
C692 C688 1.350 . S
C692 C689 1.463 1_655 S
C692 N696 1.427 1_655 S
C693 H683 0.918 1_655 S
C693 C691 1.457 . S
C693 N696 1.373 1_655 S
C694 H685 0.929 . S
C694 C686 1.378 . S
C694 C689 1.350 . S
C695 H682 0.947 . S
C695 C687 1.433 . S
C695 N697 1.384 1_455 S
N696 C692 1.427 1_455 S
N696 C693 1.373 1_455 S
N697 C689 1.427 1_655 S
N697 C695 1.384 1_655 S
H698 C704 0.930 . S
H699 C708 0.930 . S
H700 C713 0.929 1_455 S
H701 C711 0.929 . S
H702 C706 0.929 . S
H703 C712 0.929 . S
C704 H698 0.930 . S
C704 C705 1.367 . S
C704 C712 1.378 . S
C705 C704 1.367 . S
C705 C713 1.433 . S
C706 H702 0.929 . S
C706 C708 1.378 . S
C706 C710 1.350 . S
C707 C710 1.463 1_655 S
C707 C712 1.350 . S
C707 N715 1.427 1_655 S
C708 H699 0.930 . S
C708 C706 1.378 . S
C708 C709 1.367 . S
C709 C708 1.367 . S
C709 C711 1.433 1_455 S
C710 C706 1.350 . S
C710 C707 1.463 1_455 S
C710 N714 1.427 1_455 S
C711 H701 0.929 . S
C711 C709 1.433 1_655 S
C711 N714 1.384 . S
C712 H703 0.929 . S
C712 C704 1.378 . S
C712 C707 1.350 . S
C713 H700 0.929 1_655 S
C713 C705 1.433 . S
C713 N715 1.384 1_655 S
N714 C710 1.427 1_655 S
N714 C711 1.384 . S
N715 C707 1.427 1_455 S
N715 C713 1.384 1_455 S
H716 C722 0.930 . S
H717 C726 0.930 . S
H718 C731 0.929 . S
H719 C729 0.929 . S
H720 C724 0.929 . S
H721 C730 0.929 . S
C722 H716 0.930 . S
C722 C723 1.367 . S
C722 C730 1.378 1_565 S
C723 C722 1.367 . S
C723 C731 1.433 . S
C724 H720 0.929 . S
C724 C726 1.378 . S
C724 C728 1.350 . S
C725 C728 1.463 . S
C725 C730 1.350 . S
C725 N733 1.427 1_545 S
C726 H717 0.930 . S
C726 C724 1.378 . S
C726 C727 1.367 . S
C727 C726 1.367 . S
C727 C729 1.433 . S
C728 C724 1.350 . S
C728 C725 1.463 . S
C728 N732 1.427 . S
C729 H719 0.929 . S
C729 C727 1.433 . S
C729 N732 1.384 . S
C730 H721 0.929 . S
C730 C722 1.378 1_545 S
C730 C725 1.350 . S
C731 H718 0.929 . S
C731 C723 1.433 . S
C731 N733 1.384 . S
N732 C728 1.427 . S
N732 C729 1.384 . S
N733 C725 1.427 1_565 S
N733 C731 1.384 . S
H734 C740 0.930 . S
H735 C744 0.930 . S
H736 C749 0.929 . S
H737 C747 0.929 . S
H738 C742 0.929 . S
H739 C748 0.929 . S
C740 H734 0.930 . S
C740 C741 1.367 . S
C740 C748 1.378 . S
C741 C740 1.367 . S
C741 C749 1.433 . S
C742 H738 0.929 . S
C742 C744 1.378 1_565 S
C742 C746 1.350 . S
C743 C746 1.463 . S
C743 C748 1.350 . S
C743 N751 1.427 . S
C744 H735 0.930 . S
C744 C742 1.378 1_545 S
C744 C745 1.367 . S
C745 C744 1.367 . S
C745 C747 1.433 . S
C746 C742 1.350 . S
C746 C743 1.463 . S
C746 N750 1.427 1_565 S
C747 H737 0.929 . S
C747 C745 1.433 . S
C747 N750 1.384 . S
C748 H739 0.929 . S
C748 C740 1.378 . S
C748 C743 1.350 . S
C749 H736 0.929 . S
C749 C741 1.433 . S
C749 N751 1.384 . S
N750 C746 1.427 1_545 S
N750 C747 1.384 . S
N751 C743 1.427 . S
N751 C749 1.384 . S
H752 C758 0.930 . S
H753 C762 0.930 . S
H754 C767 0.929 . S
H755 C765 0.929 . S
H756 C760 0.929 . S
H757 C766 0.929 . S
C758 H752 0.930 . S
C758 C759 1.367 . S
C758 C766 1.378 . S
C759 C758 1.367 . S
C759 C767 1.433 . S
C760 H756 0.929 . S
C760 C762 1.378 . S
C760 C764 1.350 . S
C761 C764 1.463 . S
C761 C766 1.350 . S
C761 N769 1.427 . S
C762 H753 0.930 . S
C762 C760 1.378 . S
C762 C763 1.367 . S
C763 C762 1.367 . S
C763 C765 1.433 . S
C764 C760 1.350 . S
C764 C761 1.463 . S
C764 N768 1.427 . S
C765 H755 0.929 . S
C765 C763 1.433 . S
C765 N768 1.384 . S
C766 H757 0.929 . S
C766 C758 1.378 . S
C766 C761 1.350 . S
C767 H754 0.929 . S
C767 C759 1.433 . S
C767 N769 1.384 . S
N768 C764 1.427 . S
N768 C765 1.384 . S
N769 C761 1.427 . S
N769 C767 1.384 . S
H770 C776 0.930 . S
H771 C780 0.930 . S
H772 C785 0.929 . S
H773 C783 0.929 . S
H774 C778 0.929 . S
H775 C784 0.929 . S
C776 H770 0.930 . S
C776 C777 1.367 . S
C776 C784 1.378 . S
C777 C776 1.367 . S
C777 C785 1.433 . S
C778 H774 0.929 . S
C778 C780 1.378 . S
C778 C782 1.350 . S
C779 C782 1.463 . S
C779 C784 1.350 . S
C779 N787 1.427 . S
C780 H771 0.930 . S
C780 C778 1.378 . S
C780 C781 1.367 . S
C781 C780 1.367 . S
C781 C783 1.433 . S
C782 C778 1.350 . S
C782 C779 1.463 . S
C782 N786 1.427 . S
C783 H773 0.929 . S
C783 C781 1.433 . S
C783 N786 1.384 . S
C784 H775 0.929 . S
C784 C776 1.378 . S
C784 C779 1.350 . S
C785 H772 0.929 . S
C785 C777 1.433 . S
C785 N787 1.384 . S
N786 C782 1.427 . S
N786 C783 1.384 . S
N787 C779 1.427 . S
N787 C785 1.384 . S
H788 C794 0.930 . S
H789 C798 0.930 . S
H790 C803 0.929 . S
H791 C801 0.929 . S
H792 C796 0.929 . S
H793 C802 0.929 . S
C794 H788 0.930 . S
C794 C795 1.367 . S
C794 C802 1.378 . S
C795 C794 1.367 . S
C795 C803 1.433 . S
C796 H792 0.929 . S
C796 C798 1.378 . S
C796 C800 1.350 . S
C797 C800 1.463 . S
C797 C802 1.350 . S
C797 N805 1.427 . S
C798 H789 0.930 . S
C798 C796 1.378 . S
C798 C799 1.367 . S
C799 C798 1.367 . S
C799 C801 1.433 . S
C800 C796 1.350 . S
C800 C797 1.463 . S
C800 N804 1.427 . S
C801 H791 0.929 . S
C801 C799 1.433 . S
C801 N804 1.384 . S
C802 H793 0.929 . S
C802 C794 1.378 . S
C802 C797 1.350 . S
C803 H790 0.929 . S
C803 C795 1.433 . S
C803 N805 1.384 . S
N804 C800 1.427 . S
N804 C801 1.384 . S
N805 C797 1.427 . S
N805 C803 1.384 . S
H806 C812 0.930 . S
H807 C816 0.930 . S
H808 C821 0.929 . S
H809 C819 0.929 . S
H810 C814 0.929 . S
H811 C820 0.929 . S
C812 H806 0.930 . S
C812 C813 1.367 . S
C812 C820 1.378 . S
C813 C812 1.367 . S
C813 C821 1.433 . S
C814 H810 0.929 . S
C814 C816 1.378 . S
C814 C818 1.350 . S
C815 C818 1.463 . S
C815 C820 1.350 . S
C815 N823 1.427 . S
C816 H807 0.930 . S
C816 C814 1.378 . S
C816 C817 1.367 . S
C817 C816 1.367 . S
C817 C819 1.433 . S
C818 C814 1.350 . S
C818 C815 1.463 . S
C818 N822 1.427 . S
C819 H809 0.929 . S
C819 C817 1.433 . S
C819 N822 1.384 . S
C820 H811 0.929 . S
C820 C812 1.378 . S
C820 C815 1.350 . S
C821 H808 0.929 . S
C821 C813 1.433 . S
C821 N823 1.384 . S
N822 C818 1.427 . S
N822 C819 1.384 . S
N823 C815 1.427 . S
N823 C821 1.384 . S
H824 C830 0.930 . S
H825 C834 0.930 . S
H826 C839 0.929 . S
H827 C837 0.929 . S
H828 C832 0.929 . S
H829 C838 0.929 . S
C830 H824 0.930 . S
C830 C831 1.367 . S
C830 C838 1.378 . S
C831 C830 1.367 . S
C831 C839 1.433 . S
C832 H828 0.929 . S
C832 C834 1.378 . S
C832 C836 1.350 . S
C833 C836 1.463 1_554 S
C833 C838 1.350 . S
C833 N841 1.427 . S
C834 H825 0.930 . S
C834 C832 1.378 . S
C834 C835 1.367 . S
C835 C834 1.367 . S
C835 C837 1.433 . S
C836 C832 1.350 . S
C836 C833 1.463 1_556 S
C836 N840 1.427 . S
C837 H827 0.929 . S
C837 C835 1.433 . S
C837 N840 1.384 . S
C838 H829 0.929 . S
C838 C830 1.378 . S
C838 C833 1.350 . S
C839 H826 0.929 . S
C839 C831 1.433 . S
C839 N841 1.384 . S
N840 C836 1.427 . S
N840 C837 1.384 . S
N841 C833 1.427 . S
N841 C839 1.384 . S
H842 C848 0.930 . S
H843 C852 0.930 . S
H844 C857 0.929 . S
H845 C855 0.929 . S
H846 C850 0.929 . S
H847 C856 0.929 . S
C848 H842 0.930 . S
C848 C849 1.367 . S
C848 C856 1.378 . S
C849 C848 1.367 . S
C849 C857 1.433 . S
C850 H846 0.929 . S
C850 C852 1.378 . S
C850 C854 1.350 . S
C851 C854 1.463 1_554 S
C851 C856 1.350 . S
C851 N859 1.427 . S
C852 H843 0.930 . S
C852 C850 1.378 . S
C852 C853 1.367 . S
C853 C852 1.367 . S
C853 C855 1.433 . S
C854 C850 1.350 . S
C854 C851 1.463 1_556 S
C854 N858 1.427 . S
C855 H845 0.929 . S
C855 C853 1.433 . S
C855 N858 1.384 . S
C856 H847 0.929 . S
C856 C848 1.378 . S
C856 C851 1.350 . S
C857 H844 0.929 . S
C857 C849 1.433 . S
C857 N859 1.384 . S
N858 C854 1.427 . S
N858 C855 1.384 . S
N859 C851 1.427 . S
N859 C857 1.384 . S
H860 C866 0.930 . S
H861 C870 0.930 . S
H862 C875 0.929 . S
H863 C873 0.929 . S
H864 C868 0.929 . S
H865 C874 0.929 . S
C866 H860 0.930 . S
C866 C867 1.367 . S
C866 C874 1.378 . S
C867 C866 1.367 . S
C867 C875 1.433 . S
C868 H864 0.929 . S
C868 C870 1.378 . S
C868 C872 1.350 . S
C869 C872 1.463 . S
C869 C874 1.350 . S
C869 N877 1.427 . S
C870 H861 0.930 . S
C870 C868 1.378 . S
C870 C871 1.367 . S
C871 C870 1.367 . S
C871 C873 1.433 . S
C872 C868 1.350 . S
C872 C869 1.463 . S
C872 N876 1.427 . S
C873 H863 0.929 . S
C873 C871 1.433 . S
C873 N876 1.384 . S
C874 H865 0.929 . S
C874 C866 1.378 . S
C874 C869 1.350 . S
C875 H862 0.929 . S
C875 C867 1.433 . S
C875 N877 1.384 . S
N876 C872 1.427 . S
N876 C873 1.384 . S
N877 C869 1.427 . S
N877 C875 1.384 . S
H878 C884 0.930 . S
H879 C888 0.930 . S
H880 C893 0.929 . S
H881 C891 0.929 . S
H882 C886 0.929 . S
H883 C892 0.929 . S
C884 H878 0.930 . S
C884 C885 1.367 . S
C884 C892 1.378 . S
C885 C884 1.367 . S
C885 C893 1.433 . S
C886 H882 0.929 . S
C886 C888 1.378 . S
C886 C890 1.350 . S
C887 C890 1.463 . S
C887 C892 1.350 . S
C887 N895 1.427 . S
C888 H879 0.930 . S
C888 C886 1.378 . S
C888 C889 1.367 . S
C889 C888 1.367 . S
C889 C891 1.433 . S
C890 C886 1.350 . S
C890 C887 1.463 . S
C890 N894 1.427 . S
C891 H881 0.929 . S
C891 C889 1.433 . S
C891 N894 1.384 . S
C892 H883 0.929 . S
C892 C884 1.378 . S
C892 C887 1.350 . S
C893 H880 0.929 . S
C893 C885 1.433 . S
C893 N895 1.384 . S
N894 C890 1.427 . S
N894 C891 1.384 . S
N895 C887 1.427 . S
N895 C893 1.384 . S
H896 C902 0.930 . S
H897 C906 0.930 . S
H898 C911 0.929 . S
H899 C909 0.929 . S
H900 C904 0.929 . S
H901 C910 0.929 . S
C902 H896 0.930 . S
C902 C903 1.367 . S
C902 C910 1.378 . S
C903 C902 1.367 . S
C903 C911 1.433 . S
C904 H900 0.929 . S
C904 C906 1.378 . S
C904 C908 1.350 . S
C905 C908 1.463 1_554 S
C905 C910 1.350 . S
C905 N913 1.427 . S
C906 H897 0.930 . S
C906 C904 1.378 . S
C906 C907 1.367 . S
C907 C906 1.367 . S
C907 C909 1.433 . S
C908 C904 1.350 . S
C908 C905 1.463 1_556 S
C908 N912 1.427 . S
C909 H899 0.929 . S
C909 C907 1.433 . S
C909 N912 1.384 . S
C910 H901 0.929 . S
C910 C902 1.378 . S
C910 C905 1.350 . S
C911 H898 0.929 . S
C911 C903 1.433 . S
C911 N913 1.384 . S
N912 C908 1.427 . S
N912 C909 1.384 . S
N913 C905 1.427 . S
N913 C911 1.384 . S
H914 C920 0.930 . S
H915 C924 0.930 . S
H916 C929 0.929 . S
H917 C927 0.929 . S
H918 C922 0.929 . S
H919 C928 0.929 . S
C920 H914 0.930 . S
C920 C921 1.367 . S
C920 C928 1.378 . S
C921 C920 1.367 . S
C921 C929 1.433 . S
C922 H918 0.929 . S
C922 C924 1.378 . S
C922 C926 1.350 . S
C923 C926 1.463 1_554 S
C923 C928 1.350 . S
C923 N931 1.427 . S
C924 H915 0.930 . S
C924 C922 1.378 . S
C924 C925 1.367 . S
C925 C924 1.367 . S
C925 C927 1.433 . S
C926 C922 1.350 . S
C926 C923 1.463 1_556 S
C926 N930 1.427 . S
C927 H917 0.929 . S
C927 C925 1.433 . S
C927 N930 1.384 . S
C928 H919 0.929 . S
C928 C920 1.378 . S
C928 C923 1.350 . S
C929 H916 0.929 . S
C929 C921 1.433 . S
C929 N931 1.384 . S
N930 C926 1.427 . S
N930 C927 1.384 . S
N931 C923 1.427 . S
N931 C929 1.384 . S
H932 C938 0.930 . S
H933 C942 0.930 . S
H934 C947 0.929 . S
H935 C945 0.929 . S
H936 C940 0.929 . S
H937 C946 0.929 . S
C938 H932 0.930 . S
C938 C939 1.367 . S
C938 C946 1.378 . S
C939 C938 1.367 . S
C939 C947 1.433 . S
C940 H936 0.929 . S
C940 C942 1.378 . S
C940 C944 1.350 . S
C941 C944 1.463 . S
C941 C946 1.350 . S
C941 N949 1.427 . S
C942 H933 0.930 . S
C942 C940 1.378 . S
C942 C943 1.367 . S
C943 C942 1.367 . S
C943 C945 1.433 . S
C944 C940 1.350 . S
C944 C941 1.463 . S
C944 N948 1.427 . S
C945 H935 0.929 . S
C945 C943 1.433 . S
C945 N948 1.384 . S
C946 H937 0.929 . S
C946 C938 1.378 . S
C946 C941 1.350 . S
C947 H934 0.929 . S
C947 C939 1.433 . S
C947 N949 1.384 . S
N948 C944 1.427 . S
N948 C945 1.384 . S
N949 C941 1.427 . S
N949 C947 1.384 . S
H950 C956 0.930 . S
H951 C960 0.930 . S
H952 C965 0.929 . S
H953 C963 0.929 . S
H954 C958 0.929 . S
H955 C964 0.929 . S
C956 H950 0.930 . S
C956 C957 1.367 . S
C956 C964 1.378 . S
C957 C956 1.367 . S
C957 C965 1.433 . S
C958 H954 0.929 . S
C958 C960 1.378 . S
C958 C962 1.350 . S
C959 C962 1.463 . S
C959 C964 1.350 . S
C959 N967 1.427 . S
C960 H951 0.930 . S
C960 C958 1.378 . S
C960 C961 1.367 . S
C961 C960 1.367 . S
C961 C963 1.433 . S
C962 C958 1.350 . S
C962 C959 1.463 . S
C962 N966 1.427 . S
C963 H953 0.929 . S
C963 C961 1.433 . S
C963 N966 1.384 . S
C964 H955 0.929 . S
C964 C956 1.378 . S
C964 C959 1.350 . S
C965 H952 0.929 . S
C965 C957 1.433 . S
C965 N967 1.384 . S
N966 C962 1.427 . S
N966 C963 1.384 . S
N967 C959 1.427 . S
N967 C965 1.384 . S
H968 C974 0.930 . S
H969 C978 0.930 . S
H970 C983 0.929 . S
H971 C981 0.929 . S
H972 C976 0.929 . S
H973 C982 0.929 . S
C974 H968 0.930 . S
C974 C975 1.367 . S
C974 C982 1.378 . S
C975 C974 1.367 . S
C975 C983 1.433 . S
C976 H972 0.929 . S
C976 C978 1.378 . S
C976 C980 1.350 . S
C977 C980 1.463 . S
C977 C982 1.350 . S
C977 N985 1.427 . S
C978 H969 0.930 . S
C978 C976 1.378 . S
C978 C979 1.367 . S
C979 C978 1.367 . S
C979 C981 1.433 . S
C980 C976 1.350 . S
C980 C977 1.463 . S
C980 N984 1.427 . S
C981 H971 0.929 . S
C981 C979 1.433 . S
C981 N984 1.384 . S
C982 H973 0.929 . S
C982 C974 1.378 . S
C982 C977 1.350 . S
C983 H970 0.929 . S
C983 C975 1.433 . S
C983 N985 1.384 . S
N984 C980 1.427 . S
N984 C981 1.384 . S
N985 C977 1.427 . S
N985 C983 1.384 . S
H986 C992 0.930 . S
H987 C996 0.930 . S
H988 C1001 0.929 . S
H989 C999 0.929 . S
H990 C994 0.929 . S
H991 C1000 0.929 . S
C992 H986 0.930 . S
C992 C993 1.367 . S
C992 C1000 1.378 . S
C993 C992 1.367 . S
C993 C1001 1.433 . S
C994 H990 0.929 . S
C994 C996 1.378 . S
C994 C998 1.350 . S
C995 C998 1.463 . S
C995 C1000 1.350 . S
C995 N1003 1.427 . S
C996 H987 0.930 . S
C996 C994 1.378 . S
C996 C997 1.367 . S
C997 C996 1.367 . S
C997 C999 1.433 . S
C998 C994 1.350 . S
C998 C995 1.463 . S
C998 N1002 1.427 . S
C999 H989 0.929 . S
C999 C997 1.433 . S
C999 N1002 1.384 . S
C1000 H991 0.929 . S
C1000 C992 1.378 . S
C1000 C995 1.350 . S
C1001 H988 0.929 . S
C1001 C993 1.433 . S
C1001 N1003 1.384 . S
N1002 C998 1.427 . S
N1002 C999 1.384 . S
N1003 C995 1.427 . S
N1003 C1001 1.384 . S
H1004 C1010 0.930 . S
H1005 C1014 0.930 . S
H1006 C1019 0.929 . S
H1007 C1017 0.929 . S
H1008 C1012 0.929 . S
H1009 C1018 0.929 . S
C1010 H1004 0.930 . S
C1010 C1011 1.367 . S
C1010 C1018 1.378 . S
C1011 C1010 1.367 . S
C1011 C1019 1.433 . S
C1012 H1008 0.929 . S
C1012 C1014 1.378 . S
C1012 C1016 1.350 . S
C1013 C1016 1.463 . S
C1013 C1018 1.350 . S
C1013 N1021 1.427 . S
C1014 H1005 0.930 . S
C1014 C1012 1.378 . S
C1014 C1015 1.367 . S
C1015 C1014 1.367 . S
C1015 C1017 1.433 . S
C1016 C1012 1.350 . S
C1016 C1013 1.463 . S
C1016 N1020 1.427 . S
C1017 H1007 0.929 . S
C1017 C1015 1.433 . S
C1017 N1020 1.384 . S
C1018 H1009 0.929 . S
C1018 C1010 1.378 . S
C1018 C1013 1.350 . S
C1019 H1006 0.929 . S
C1019 C1011 1.433 . S
C1019 N1021 1.384 . S
N1020 C1016 1.427 . S
N1020 C1017 1.384 . S
N1021 C1013 1.427 . S
N1021 C1019 1.384 . S
H1022 C1028 0.930 . S
H1023 C1032 0.930 . S
H1024 C1037 0.929 . S
H1025 C1035 0.929 . S
H1026 C1030 0.929 . S
H1027 C1036 0.929 . S
C1028 H1022 0.930 . S
C1028 C1029 1.367 . S
C1028 C1036 1.378 . S
C1029 C1028 1.367 . S
C1029 C1037 1.433 . S
C1030 H1026 0.929 . S
C1030 C1032 1.378 . S
C1030 C1034 1.350 . S
C1031 C1034 1.463 . S
C1031 C1036 1.350 . S
C1031 N1039 1.427 . S
C1032 H1023 0.930 . S
C1032 C1030 1.378 . S
C1032 C1033 1.367 . S
C1033 C1032 1.367 . S
C1033 C1035 1.433 . S
C1034 C1030 1.350 . S
C1034 C1031 1.463 . S
C1034 N1038 1.427 . S
C1035 H1025 0.929 . S
C1035 C1033 1.433 . S
C1035 N1038 1.384 . S
C1036 H1027 0.929 . S
C1036 C1028 1.378 . S
C1036 C1031 1.350 . S
C1037 H1024 0.929 . S
C1037 C1029 1.433 . S
C1037 N1039 1.384 . S
N1038 C1034 1.427 . S
N1038 C1035 1.384 . S
N1039 C1031 1.427 . S
N1039 C1037 1.384 . S
H1040 C1046 0.930 . S
H1041 C1050 0.930 . S
H1042 C1055 0.929 . S
H1043 C1053 0.929 . S
H1044 C1048 0.929 . S
H1045 C1054 0.929 . S
C1046 H1040 0.930 . S
C1046 C1047 1.367 1_556 S
C1046 C1054 1.378 . S
C1047 C1046 1.367 1_554 S
C1047 C1055 1.433 . S
C1048 H1044 0.929 . S
C1048 C1050 1.378 . S
C1048 C1052 1.350 . S
C1049 C1052 1.463 1_545 S
C1049 C1054 1.350 1_554 S
C1049 N1057 1.427 . S
C1050 H1041 0.930 . S
C1050 C1048 1.378 . S
C1050 C1051 1.367 . S
C1051 C1050 1.367 . S
C1051 C1053 1.433 1_554 S
C1052 C1048 1.350 . S
C1052 C1049 1.463 1_565 S
C1052 N1056 1.427 1_554 S
C1053 H1043 0.929 . S
C1053 C1051 1.433 1_556 S
C1053 N1056 1.384 . S
C1054 H1045 0.929 . S
C1054 C1046 1.378 . S
C1054 C1049 1.350 1_556 S
C1055 H1042 0.929 . S
C1055 C1047 1.433 . S
C1055 N1057 1.384 . S
N1056 C1052 1.427 1_556 S
N1056 C1053 1.384 . S
N1057 C1049 1.427 . S
N1057 C1055 1.384 . S
H1058 C1064 0.930 . S
H1059 C1068 0.930 . S
H1060 C1073 0.929 . S
H1061 C1071 0.929 . S
H1062 C1066 0.929 . S
H1063 C1072 0.929 . S
C1064 H1058 0.930 . S
C1064 C1065 1.367 . S
C1064 C1072 1.378 . S
C1065 C1064 1.367 . S
C1065 C1073 1.433 . S
C1066 H1062 0.929 . S
C1066 C1068 1.378 . S
C1066 C1070 1.350 . S
C1067 C1070 1.463 . S
C1067 C1072 1.350 . S
C1067 N1075 1.427 . S
C1068 H1059 0.930 . S
C1068 C1066 1.378 . S
C1068 C1069 1.367 . S
C1069 C1068 1.367 . S
C1069 C1071 1.433 . S
C1070 C1066 1.350 . S
C1070 C1067 1.463 . S
C1070 N1074 1.427 . S
C1071 H1061 0.929 . S
C1071 C1069 1.433 . S
C1071 N1074 1.384 . S
C1072 H1063 0.929 . S
C1072 C1064 1.378 . S
C1072 C1067 1.350 . S
C1073 H1060 0.929 . S
C1073 C1065 1.433 . S
C1073 N1075 1.384 . S
N1074 C1070 1.427 . S
N1074 C1071 1.384 . S
N1075 C1067 1.427 . S
N1075 C1073 1.384 . S
H1076 C1082 0.930 . S
H1077 C1086 0.930 . S
H1078 C1091 0.929 . S
H1079 C1089 0.929 . S
H1080 C1084 0.929 . S
H1081 C1090 0.929 . S
C1082 H1076 0.930 . S
C1082 C1083 1.367 . S
C1082 C1090 1.378 . S
C1083 C1082 1.367 . S
C1083 C1091 1.433 . S
C1084 H1080 0.929 . S
C1084 C1086 1.378 . S
C1084 C1088 1.350 . S
C1085 C1088 1.463 . S
C1085 C1090 1.350 . S
C1085 N1093 1.427 . S
C1086 H1077 0.930 . S
C1086 C1084 1.378 . S
C1086 C1087 1.367 . S
C1087 C1086 1.367 . S
C1087 C1089 1.433 . S
C1088 C1084 1.350 . S
C1088 C1085 1.463 . S
C1088 N1092 1.427 . S
C1089 H1079 0.929 . S
C1089 C1087 1.433 . S
C1089 N1092 1.384 . S
C1090 H1081 0.929 . S
C1090 C1082 1.378 . S
C1090 C1085 1.350 . S
C1091 H1078 0.929 . S
C1091 C1083 1.433 . S
C1091 N1093 1.384 . S
N1092 C1088 1.427 . S
N1092 C1089 1.384 . S
N1093 C1085 1.427 . S
N1093 C1091 1.384 . S
H1094 C1100 0.930 . S
H1095 C1104 0.930 . S
H1096 C1109 0.929 . S
H1097 C1107 0.929 . S
H1098 C1102 0.929 . S
H1099 C1108 0.929 . S
C1100 H1094 0.930 . S
C1100 C1101 1.367 . S
C1100 C1108 1.378 . S
C1101 C1100 1.367 . S
C1101 C1109 1.433 . S
C1102 H1098 0.929 . S
C1102 C1104 1.378 . S
C1102 C1106 1.350 . S
C1103 C1106 1.463 . S
C1103 C1108 1.350 . S
C1103 N1111 1.427 . S
C1104 H1095 0.930 . S
C1104 C1102 1.378 . S
C1104 C1105 1.367 . S
C1105 C1104 1.367 . S
C1105 C1107 1.433 . S
C1106 C1102 1.350 . S
C1106 C1103 1.463 . S
C1106 N1110 1.427 . S
C1107 H1097 0.929 . S
C1107 C1105 1.433 . S
C1107 N1110 1.384 . S
C1108 H1099 0.929 . S
C1108 C1100 1.378 . S
C1108 C1103 1.350 . S
C1109 H1096 0.929 . S
C1109 C1101 1.433 . S
C1109 N1111 1.384 . S
N1110 C1106 1.427 . S
N1110 C1107 1.384 . S
N1111 C1103 1.427 . S
N1111 C1109 1.384 . S
H1112 C1118 0.930 . S
H1113 C1122 0.930 . S
H1114 C1127 0.929 . S
H1115 C1125 0.929 . S
H1116 C1120 0.929 . S
H1117 C1126 0.929 . S
C1118 H1112 0.930 . S
C1118 C1119 1.367 . S
C1118 C1126 1.378 . S
C1119 C1118 1.367 . S
C1119 C1127 1.433 . S
C1120 H1116 0.929 . S
C1120 C1122 1.378 . S
C1120 C1124 1.350 . S
C1121 C1124 1.463 . S
C1121 C1126 1.350 . S
C1121 N1129 1.427 . S
C1122 H1113 0.930 . S
C1122 C1120 1.378 . S
C1122 C1123 1.367 . S
C1123 C1122 1.367 . S
C1123 C1125 1.433 . S
C1124 C1120 1.350 . S
C1124 C1121 1.463 . S
C1124 N1128 1.427 . S
C1125 H1115 0.929 . S
C1125 C1123 1.433 . S
C1125 N1128 1.384 . S
C1126 H1117 0.929 . S
C1126 C1118 1.378 . S
C1126 C1121 1.350 . S
C1127 H1114 0.929 . S
C1127 C1119 1.433 . S
C1127 N1129 1.384 . S
N1128 C1124 1.427 . S
N1128 C1125 1.384 . S
N1129 C1121 1.427 . S
N1129 C1127 1.384 . S
H1130 C1136 0.930 . S
H1131 C1140 0.930 . S
H1132 C1145 0.929 . S
H1133 C1143 0.929 . S
H1134 C1138 0.929 . S
H1135 C1144 0.929 . S
C1136 H1130 0.930 . S
C1136 C1137 1.367 . S
C1136 C1144 1.378 . S
C1137 C1136 1.367 . S
C1137 C1145 1.433 . S
C1138 H1134 0.929 . S
C1138 C1140 1.378 . S
C1138 C1142 1.350 . S
C1139 C1142 1.463 . S
C1139 C1144 1.350 . S
C1139 N1147 1.427 . S
C1140 H1131 0.930 . S
C1140 C1138 1.378 . S
C1140 C1141 1.367 . S
C1141 C1140 1.367 . S
C1141 C1143 1.433 . S
C1142 C1138 1.350 . S
C1142 C1139 1.463 . S
C1142 N1146 1.427 . S
C1143 H1133 0.929 . S
C1143 C1141 1.433 . S
C1143 N1146 1.384 . S
C1144 H1135 0.929 . S
C1144 C1136 1.378 . S
C1144 C1139 1.350 . S
C1145 H1132 0.929 . S
C1145 C1137 1.433 . S
C1145 N1147 1.384 . S
N1146 C1142 1.427 . S
N1146 C1143 1.384 . S
N1147 C1139 1.427 . S
N1147 C1145 1.384 . S
H1148 C1154 0.930 . S
H1149 C1158 0.930 . S
H1150 C1163 0.929 . S
H1151 C1161 0.929 . S
H1152 C1156 0.929 . S
H1153 C1162 0.929 . S
C1154 H1148 0.930 . S
C1154 C1155 1.367 . S
C1154 C1162 1.378 1_655 S
C1155 C1154 1.367 . S
C1155 C1163 1.433 . S
C1156 H1152 0.929 . S
C1156 C1158 1.378 1_655 S
C1156 C1160 1.350 1_655 S
C1157 C1160 1.463 1_665 S
C1157 C1162 1.350 1_655 S
C1157 N1165 1.427 . S
C1158 H1149 0.930 . S
C1158 C1156 1.378 1_455 S
C1158 C1159 1.367 . S
C1159 C1158 1.367 . S
C1159 C1161 1.433 . S
C1160 C1156 1.350 1_455 S
C1160 C1157 1.463 1_445 S
C1160 N1164 1.427 . S
C1161 H1151 0.929 . S
C1161 C1159 1.433 . S
C1161 N1164 1.384 . S
C1162 H1153 0.929 . S
C1162 C1154 1.378 1_455 S
C1162 C1157 1.350 1_455 S
C1163 H1150 0.929 . S
C1163 C1155 1.433 . S
C1163 N1165 1.384 . S
N1164 C1160 1.427 . S
N1164 C1161 1.384 . S
N1165 C1157 1.427 . S
N1165 C1163 1.384 . S
H1166 C1172 0.930 . S
H1167 C1176 0.930 . S
H1168 C1181 0.929 . S
H1169 C1179 0.929 . S
H1170 C1174 0.929 . S
H1171 C1180 0.929 . S
C1172 H1166 0.930 . S
C1172 C1173 1.367 1_556 S
C1172 C1180 1.378 1_655 S
C1173 C1172 1.367 1_554 S
C1173 C1181 1.433 . S
C1174 H1170 0.929 . S
C1174 C1176 1.378 1_655 S
C1174 C1178 1.350 1_655 S
C1175 C1178 1.463 1_655 S
C1175 C1180 1.350 1_654 S
C1175 N1183 1.427 . S
C1176 H1167 0.930 . S
C1176 C1174 1.378 1_455 S
C1176 C1177 1.367 . S
C1177 C1176 1.367 . S
C1177 C1179 1.433 1_554 S
C1178 C1174 1.350 1_455 S
C1178 C1175 1.463 1_455 S
C1178 N1182 1.427 1_554 S
C1179 H1169 0.929 . S
C1179 C1177 1.433 1_556 S
C1179 N1182 1.384 . S
C1180 H1171 0.929 . S
C1180 C1172 1.378 1_455 S
C1180 C1175 1.350 1_456 S
C1181 H1168 0.929 . S
C1181 C1173 1.433 . S
C1181 N1183 1.384 . S
N1182 C1178 1.427 1_556 S
N1182 C1179 1.384 . S
N1183 C1175 1.427 . S
N1183 C1181 1.384 . S
H1184 C1190 0.930 . S
H1185 C1194 0.930 . S
H1186 C1199 0.929 . S
H1187 C1197 0.929 . S
H1188 C1192 0.929 . S
H1189 C1198 0.929 . S
C1190 H1184 0.930 . S
C1190 C1191 1.367 . S
C1190 C1198 1.378 . S
C1191 C1190 1.367 . S
C1191 C1199 1.433 1_545 S
C1192 H1188 0.929 . S
C1192 C1194 1.378 . S
C1192 C1196 1.350 . S
C1193 C1196 1.463 . S
C1193 C1198 1.350 1_565 S
C1193 N1201 1.427 . S
C1194 H1185 0.930 . S
C1194 C1192 1.378 . S
C1194 C1195 1.367 . S
C1195 C1194 1.367 . S
C1195 C1197 1.433 . S
C1196 C1192 1.350 . S
C1196 C1193 1.463 . S
C1196 N1200 1.427 . S
C1197 H1187 0.929 . S
C1197 C1195 1.433 . S
C1197 N1200 1.384 . S
C1198 H1189 0.929 . S
C1198 C1190 1.378 . S
C1198 C1193 1.350 1_545 S
C1199 H1186 0.929 . S
C1199 C1191 1.433 1_565 S
C1199 N1201 1.384 . S
N1200 C1196 1.427 . S
N1200 C1197 1.384 . S
N1201 C1193 1.427 . S
N1201 C1199 1.384 . S
H1202 C1208 0.930 1_554 S
H1203 C1212 0.930 . S
H1204 C1217 0.929 . S
H1205 C1215 0.929 . S
H1206 C1210 0.929 . S
H1207 C1216 0.929 1_554 S
C1208 H1202 0.930 1_556 S
C1208 C1209 1.367 . S
C1208 C1216 1.378 1_565 S
C1209 C1208 1.367 . S
C1209 C1217 1.433 . S
C1210 H1206 0.929 . S
C1210 C1212 1.378 . S
C1210 C1214 1.350 . S
C1211 C1214 1.463 . S
C1211 C1216 1.350 . S
C1211 N1219 1.427 1_545 S
C1212 H1203 0.930 . S
C1212 C1210 1.378 . S
C1212 C1213 1.367 . S
C1213 C1212 1.367 . S
C1213 C1215 1.433 . S
C1214 C1210 1.350 . S
C1214 C1211 1.463 . S
C1214 N1218 1.427 . S
C1215 H1205 0.929 . S
C1215 C1213 1.433 . S
C1215 N1218 1.384 . S
C1216 H1207 0.929 1_556 S
C1216 C1208 1.378 1_545 S
C1216 C1211 1.350 . S
C1217 H1204 0.929 . S
C1217 C1209 1.433 . S
C1217 N1219 1.384 . S
N1218 C1214 1.427 . S
N1218 C1215 1.384 . S
N1219 C1211 1.427 1_565 S
N1219 C1217 1.384 . S
H1220 C1226 0.930 . S
H1221 C1230 0.930 . S
H1222 C1235 0.929 . S
H1223 C1233 0.929 . S
H1224 C1228 0.929 . S
H1225 C1234 0.929 . S
C1226 H1220 0.930 . S
C1226 C1227 1.367 . S
C1226 C1234 1.378 . S
C1227 C1226 1.367 . S
C1227 C1235 1.433 . S
C1228 H1224 0.929 . S
C1228 C1230 1.378 . S
C1228 C1232 1.350 . S
C1229 C1232 1.463 . S
C1229 C1234 1.350 . S
C1229 N1237 1.427 . S
C1230 H1221 0.930 . S
C1230 C1228 1.378 . S
C1230 C1231 1.367 . S
C1231 C1230 1.367 . S
C1231 C1233 1.433 . S
C1232 C1228 1.350 . S
C1232 C1229 1.463 . S
C1232 N1236 1.427 . S
C1233 H1223 0.929 . S
C1233 C1231 1.433 . S
C1233 N1236 1.384 . S
C1234 H1225 0.929 . S
C1234 C1226 1.378 . S
C1234 C1229 1.350 . S
C1235 H1222 0.929 . S
C1235 C1227 1.433 . S
C1235 N1237 1.384 . S
N1236 C1232 1.427 . S
N1236 C1233 1.384 . S
N1237 C1229 1.427 . S
N1237 C1235 1.384 . S
H1238 C1244 0.930 . S
H1239 C1248 0.930 . S
H1240 C1253 0.929 . S
H1241 C1251 0.929 . S
H1242 C1246 0.929 . S
H1243 C1252 0.929 . S
C1244 H1238 0.930 . S
C1244 C1245 1.367 . S
C1244 C1252 1.378 . S
C1245 C1244 1.367 . S
C1245 C1253 1.433 . S
C1246 H1242 0.929 . S
C1246 C1248 1.378 . S
C1246 C1250 1.350 . S
C1247 C1250 1.463 . S
C1247 C1252 1.350 . S
C1247 N1255 1.427 . S
C1248 H1239 0.930 . S
C1248 C1246 1.378 . S
C1248 C1249 1.367 . S
C1249 C1248 1.367 . S
C1249 C1251 1.433 . S
C1250 C1246 1.350 . S
C1250 C1247 1.463 . S
C1250 N1254 1.427 . S
C1251 H1241 0.929 . S
C1251 C1249 1.433 . S
C1251 N1254 1.384 . S
C1252 H1243 0.929 . S
C1252 C1244 1.378 . S
C1252 C1247 1.350 . S
C1253 H1240 0.929 . S
C1253 C1245 1.433 . S
C1253 N1255 1.384 . S
N1254 C1250 1.427 . S
N1254 C1251 1.384 . S
N1255 C1247 1.427 . S
N1255 C1253 1.384 . S
H1256 C1262 0.930 . S
H1257 C1266 0.930 . S
H1258 C1271 0.929 . S
H1259 C1269 0.929 . S
H1260 C1264 0.929 . S
H1261 C1270 0.929 . S
C1262 H1256 0.930 . S
C1262 C1263 1.367 . S
C1262 C1270 1.378 . S
C1263 C1262 1.367 . S
C1263 C1271 1.433 . S
C1264 H1260 0.929 . S
C1264 C1266 1.378 . S
C1264 C1268 1.350 . S
C1265 C1268 1.463 . S
C1265 C1270 1.350 . S
C1265 N1273 1.427 . S
C1266 H1257 0.930 . S
C1266 C1264 1.378 . S
C1266 C1267 1.367 . S
C1267 C1266 1.367 . S
C1267 C1269 1.433 . S
C1268 C1264 1.350 . S
C1268 C1265 1.463 . S
C1268 N1272 1.427 . S
C1269 H1259 0.929 . S
C1269 C1267 1.433 . S
C1269 N1272 1.384 . S
C1270 H1261 0.929 . S
C1270 C1262 1.378 . S
C1270 C1265 1.350 . S
C1271 H1258 0.929 . S
C1271 C1263 1.433 . S
C1271 N1273 1.384 . S
N1272 C1268 1.427 . S
N1272 C1269 1.384 . S
N1273 C1265 1.427 . S
N1273 C1271 1.384 . S
H1274 C1280 0.930 . S
H1275 C1284 0.930 . S
H1276 C1289 0.929 . S
H1277 C1287 0.929 . S
H1278 C1282 0.929 . S
H1279 C1288 0.929 . S
C1280 H1274 0.930 . S
C1280 C1281 1.367 . S
C1280 C1288 1.378 . S
C1281 C1280 1.367 . S
C1281 C1289 1.433 . S
C1282 H1278 0.929 . S
C1282 C1284 1.378 . S
C1282 C1286 1.350 . S
C1283 C1286 1.463 . S
C1283 C1288 1.350 . S
C1283 N1291 1.427 . S
C1284 H1275 0.930 . S
C1284 C1282 1.378 . S
C1284 C1285 1.367 . S
C1285 C1284 1.367 . S
C1285 C1287 1.433 . S
C1286 C1282 1.350 . S
C1286 C1283 1.463 . S
C1286 N1290 1.427 . S
C1287 H1277 0.929 . S
C1287 C1285 1.433 . S
C1287 N1290 1.384 . S
C1288 H1279 0.929 . S
C1288 C1280 1.378 . S
C1288 C1283 1.350 . S
C1289 H1276 0.929 . S
C1289 C1281 1.433 . S
C1289 N1291 1.384 . S
N1290 C1286 1.427 . S
N1290 C1287 1.384 . S
N1291 C1283 1.427 . S
N1291 C1289 1.384 . S
H1292 C1298 0.930 . S
H1293 C1302 0.930 . S
H1294 C1307 0.929 . S
H1295 C1305 0.929 . S
H1296 C1300 0.929 . S
H1297 C1306 0.929 . S
C1298 H1292 0.930 . S
C1298 C1299 1.367 . S
C1298 C1306 1.378 . S
C1299 C1298 1.367 . S
C1299 C1307 1.433 . S
C1300 H1296 0.929 . S
C1300 C1302 1.378 . S
C1300 C1304 1.350 . S
C1301 C1304 1.463 . S
C1301 C1306 1.350 . S
C1301 N1309 1.427 . S
C1302 H1293 0.930 . S
C1302 C1300 1.378 . S
C1302 C1303 1.367 . S
C1303 C1302 1.367 . S
C1303 C1305 1.433 . S
C1304 C1300 1.350 . S
C1304 C1301 1.463 . S
C1304 N1308 1.427 . S
C1305 H1295 0.929 . S
C1305 C1303 1.433 . S
C1305 N1308 1.384 . S
C1306 H1297 0.929 . S
C1306 C1298 1.378 . S
C1306 C1301 1.350 . S
C1307 H1294 0.929 . S
C1307 C1299 1.433 . S
C1307 N1309 1.384 . S
N1308 C1304 1.427 . S
N1308 C1305 1.384 . S
N1309 C1301 1.427 . S
N1309 C1307 1.384 . S
H1310 C1316 0.930 . S
H1311 C1320 0.930 . S
H1312 C1325 0.929 . S
H1313 C1323 0.929 . S
H1314 C1318 0.929 . S
H1315 C1324 0.929 . S
C1316 H1310 0.930 . S
C1316 C1317 1.367 . S
C1316 C1324 1.378 . S
C1317 C1316 1.367 . S
C1317 C1325 1.433 . S
C1318 H1314 0.929 . S
C1318 C1320 1.378 . S
C1318 C1322 1.350 . S
C1319 C1322 1.463 . S
C1319 C1324 1.350 . S
C1319 N1327 1.427 . S
C1320 H1311 0.930 . S
C1320 C1318 1.378 . S
C1320 C1321 1.367 . S
C1321 C1320 1.367 . S
C1321 C1323 1.433 . S
C1322 C1318 1.350 . S
C1322 C1319 1.463 . S
C1322 N1326 1.427 . S
C1323 H1313 0.929 . S
C1323 C1321 1.433 . S
C1323 N1326 1.384 . S
C1324 H1315 0.929 . S
C1324 C1316 1.378 . S
C1324 C1319 1.350 . S
C1325 H1312 0.929 . S
C1325 C1317 1.433 . S
C1325 N1327 1.384 . S
N1326 C1322 1.427 . S
N1326 C1323 1.384 . S
N1327 C1319 1.427 . S
N1327 C1325 1.384 . S
H1328 C1334 0.930 . S
H1329 C1338 0.930 . S
H1330 C1343 0.929 . S
H1331 C1341 0.929 . S
H1332 C1336 0.929 . S
H1333 C1342 0.929 . S
C1334 H1328 0.930 . S
C1334 C1335 1.367 . S
C1334 C1342 1.378 . S
C1335 C1334 1.367 . S
C1335 C1343 1.433 . S
C1336 H1332 0.929 . S
C1336 C1338 1.378 1_565 S
C1336 C1340 1.350 . S
C1337 C1340 1.463 . S
C1337 C1342 1.350 . S
C1337 N1345 1.427 . S
C1338 H1329 0.930 . S
C1338 C1336 1.378 1_545 S
C1338 C1339 1.367 . S
C1339 C1338 1.367 . S
C1339 C1341 1.433 . S
C1340 C1336 1.350 . S
C1340 C1337 1.463 . S
C1340 N1344 1.427 1_565 S
C1341 H1331 0.929 . S
C1341 C1339 1.433 . S
C1341 N1344 1.384 . S
C1342 H1333 0.929 . S
C1342 C1334 1.378 . S
C1342 C1337 1.350 . S
C1343 H1330 0.929 . S
C1343 C1335 1.433 . S
C1343 N1345 1.384 . S
N1344 C1340 1.427 1_545 S
N1344 C1341 1.384 . S
N1345 C1337 1.427 . S
N1345 C1343 1.384 . S
H1346 C1352 0.931 1_545 S
H1347 C1356 0.930 . S
H1348 C1361 0.929 . S
H1349 C1359 0.929 . S
H1350 C1354 0.929 . S
H1351 C1360 0.929 . S
C1352 H1346 0.931 1_565 S
C1352 C1353 1.367 . S
C1352 C1360 1.378 1_565 S
C1353 C1352 1.367 . S
C1353 C1361 1.433 . S
C1354 H1350 0.929 . S
C1354 C1356 1.378 . S
C1354 C1358 1.350 . S
C1355 C1358 1.463 . S
C1355 C1360 1.350 . S
C1355 N1363 1.427 1_545 S
C1356 H1347 0.930 . S
C1356 C1354 1.378 . S
C1356 C1357 1.367 . S
C1357 C1356 1.367 . S
C1357 C1359 1.433 . S
C1358 C1354 1.350 . S
C1358 C1355 1.463 . S
C1358 N1362 1.427 . S
C1359 H1349 0.929 . S
C1359 C1357 1.433 . S
C1359 N1362 1.384 . S
C1360 H1351 0.929 . S
C1360 C1352 1.378 1_545 S
C1360 C1355 1.350 . S
C1361 H1348 0.929 . S
C1361 C1353 1.433 . S
C1361 N1363 1.384 . S
N1362 C1358 1.427 . S
N1362 C1359 1.384 . S
N1363 C1355 1.427 1_565 S
N1363 C1361 1.384 . S
H1364 C1370 0.930 . S
H1365 C1374 0.930 . S
H1366 C1379 0.929 . S
H1367 C1377 0.929 . S
H1368 C1372 0.929 . S
H1369 C1378 0.929 . S
C1370 H1364 0.930 . S
C1370 C1371 1.367 . S
C1370 C1378 1.378 . S
C1371 C1370 1.367 . S
C1371 C1379 1.433 . S
C1372 H1368 0.929 . S
C1372 C1374 1.378 . S
C1372 C1376 1.350 . S
C1373 C1376 1.463 . S
C1373 C1378 1.350 . S
C1373 N1381 1.427 . S
C1374 H1365 0.930 . S
C1374 C1372 1.378 . S
C1374 C1375 1.367 . S
C1375 C1374 1.367 . S
C1375 C1377 1.433 . S
C1376 C1372 1.350 . S
C1376 C1373 1.463 . S
C1376 N1380 1.427 . S
C1377 H1367 0.929 . S
C1377 C1375 1.433 . S
C1377 N1380 1.384 . S
C1378 H1369 0.929 . S
C1378 C1370 1.378 . S
C1378 C1373 1.350 . S
C1379 H1366 0.929 . S
C1379 C1371 1.433 . S
C1379 N1381 1.384 . S
N1380 C1376 1.427 . S
N1380 C1377 1.384 . S
N1381 C1373 1.427 . S
N1381 C1379 1.384 . S
H1382 C1388 0.930 . S
H1383 C1392 0.930 . S
H1384 C1397 0.929 . S
H1385 C1395 0.929 . S
H1386 C1390 0.929 . S
H1387 C1396 0.929 . S
C1388 H1382 0.930 . S
C1388 C1389 1.367 . S
C1388 C1396 1.378 . S
C1389 C1388 1.367 . S
C1389 C1397 1.433 . S
C1390 H1386 0.929 . S
C1390 C1392 1.378 . S
C1390 C1394 1.350 . S
C1391 C1394 1.463 . S
C1391 C1396 1.350 . S
C1391 N1399 1.427 . S
C1392 H1383 0.930 . S
C1392 C1390 1.378 . S
C1392 C1393 1.367 . S
C1393 C1392 1.367 . S
C1393 C1395 1.433 . S
C1394 C1390 1.350 . S
C1394 C1391 1.463 . S
C1394 N1398 1.427 . S
C1395 H1385 0.929 . S
C1395 C1393 1.433 . S
C1395 N1398 1.384 . S
C1396 H1387 0.929 . S
C1396 C1388 1.378 . S
C1396 C1391 1.350 . S
C1397 H1384 0.929 . S
C1397 C1389 1.433 . S
C1397 N1399 1.384 . S
N1398 C1394 1.427 . S
N1398 C1395 1.384 . S
N1399 C1391 1.427 . S
N1399 C1397 1.384 . S
H1400 C1406 0.930 1_554 S
H1401 C1410 0.930 . S
H1402 C1415 0.929 . S
H1403 C1413 0.929 . S
H1404 C1408 0.929 . S
H1405 C1414 0.929 . S
C1406 H1400 0.930 1_556 S
C1406 C1407 1.367 . S
C1406 C1414 1.378 . S
C1407 C1406 1.367 . S
C1407 C1415 1.433 . S
C1408 H1404 0.929 . S
C1408 C1410 1.378 . S
C1408 C1412 1.350 . S
C1409 C1412 1.463 . S
C1409 C1414 1.350 . S
C1409 N1417 1.427 . S
C1410 H1401 0.930 . S
C1410 C1408 1.378 . S
C1410 C1411 1.367 . S
C1411 C1410 1.367 . S
C1411 C1413 1.433 . S
C1412 C1408 1.350 . S
C1412 C1409 1.463 . S
C1412 N1416 1.427 . S
C1413 H1403 0.929 . S
C1413 C1411 1.433 . S
C1413 N1416 1.384 . S
C1414 H1405 0.929 . S
C1414 C1406 1.378 . S
C1414 C1409 1.350 . S
C1415 H1402 0.929 . S
C1415 C1407 1.433 . S
C1415 N1417 1.384 . S
N1416 C1412 1.427 . S
N1416 C1413 1.384 . S
N1417 C1409 1.427 . S
N1417 C1415 1.384 . S
H1418 C1424 0.930 . S
H1419 C1428 0.930 . S
H1420 C1433 0.929 . S
H1421 C1431 0.929 1_554 S
H1422 C1426 0.929 . S
H1423 C1432 0.929 . S
C1424 H1418 0.930 . S
C1424 C1425 1.367 . S
C1424 C1432 1.378 . S
C1425 C1424 1.367 . S
C1425 C1433 1.433 . S
C1426 H1422 0.929 . S
C1426 C1428 1.378 . S
C1426 C1430 1.350 . S
C1427 C1430 1.463 . S
C1427 C1432 1.350 . S
C1427 N1435 1.427 . S
C1428 H1419 0.930 . S
C1428 C1426 1.378 . S
C1428 C1429 1.367 . S
C1429 C1428 1.367 . S
C1429 C1431 1.433 . S
C1430 C1426 1.350 . S
C1430 C1427 1.463 . S
C1430 N1434 1.427 . S
C1431 H1421 0.929 1_556 S
C1431 C1429 1.433 . S
C1431 N1434 1.384 . S
C1432 H1423 0.929 . S
C1432 C1424 1.378 . S
C1432 C1427 1.350 . S
C1433 H1420 0.929 . S
C1433 C1425 1.433 . S
C1433 N1435 1.384 . S
N1434 C1430 1.427 . S
N1434 C1431 1.384 . S
N1435 C1427 1.427 . S
N1435 C1433 1.384 . S
H1436 C1442 0.930 . S
H1437 C1446 0.930 . S
H1438 C1451 0.929 . S
H1439 C1449 0.929 . S
H1440 C1444 0.929 . S
H1441 C1450 0.929 . S
C1442 H1436 0.930 . S
C1442 C1443 1.367 . S
C1442 C1450 1.378 . S
C1443 C1442 1.367 . S
C1443 C1451 1.433 . S
C1444 H1440 0.929 . S
C1444 C1446 1.378 . S
C1444 C1448 1.350 . S
C1445 C1448 1.463 . S
C1445 C1450 1.350 . S
C1445 N1453 1.427 . S
C1446 H1437 0.930 . S
C1446 C1444 1.378 . S
C1446 C1447 1.367 . S
C1447 C1446 1.367 . S
C1447 C1449 1.433 . S
C1448 C1444 1.350 . S
C1448 C1445 1.463 . S
C1448 N1452 1.427 . S
C1449 H1439 0.929 . S
C1449 C1447 1.433 . S
C1449 N1452 1.384 . S
C1450 H1441 0.929 . S
C1450 C1442 1.378 . S
C1450 C1445 1.350 . S
C1451 H1438 0.929 . S
C1451 C1443 1.433 . S
C1451 N1453 1.384 . S
N1452 C1448 1.427 . S
N1452 C1449 1.384 . S
N1453 C1445 1.427 . S
N1453 C1451 1.384 . S
H1454 C1460 0.930 . S
H1455 C1464 0.930 . S
H1456 C1469 0.929 . S
H1457 C1467 0.929 . S
H1458 C1462 0.929 . S
H1459 C1468 0.929 . S
C1460 H1454 0.930 . S
C1460 C1461 1.367 . S
C1460 C1468 1.378 . S
C1461 C1460 1.367 . S
C1461 C1469 1.433 . S
C1462 H1458 0.929 . S
C1462 C1464 1.378 . S
C1462 C1466 1.350 . S
C1463 C1466 1.463 . S
C1463 C1468 1.350 . S
C1463 N1471 1.427 . S
C1464 H1455 0.930 . S
C1464 C1462 1.378 . S
C1464 C1465 1.367 . S
C1465 C1464 1.367 . S
C1465 C1467 1.433 . S
C1466 C1462 1.350 . S
C1466 C1463 1.463 . S
C1466 N1470 1.427 . S
C1467 H1457 0.929 . S
C1467 C1465 1.433 . S
C1467 N1470 1.384 . S
C1468 H1459 0.929 . S
C1468 C1460 1.378 . S
C1468 C1463 1.350 . S
C1469 H1456 0.929 . S
C1469 C1461 1.433 . S
C1469 N1471 1.384 . S
N1470 C1466 1.427 . S
N1470 C1467 1.384 . S
N1471 C1463 1.427 . S
N1471 C1469 1.384 . S
C471 C3 0.844 . S
C475 C158 0.831 . S
C489 C32 0.838 . S
C493 C129 0.845 . S
C507 C61 0.842 . S
C511 C332 0.833 . S
C525 C90 0.838 . S
C529 C303 0.844 . S
C543 C42 0.834 . S
C547 C119 0.845 . S
C561 C148 0.838 . S
C565 C13 0.844 . S
C579 C177 0.851 . S
C583 C448 0.813 . S
C597 C419 0.839 . S
C601 C206 0.840 . S
C615 C390 0.820 . S
C619 C235 0.849 . S
C633 C361 0.817 . S
C637 C264 0.851 . S
C651 C100 0.844 . S
C655 C293 0.838 . S
C669 C322 0.843 . S
C673 C71 0.835 . S
C687 C351 0.845 . S
C691 C274 0.830 . S
C705 C380 0.850 . S
C709 C245 0.818 . S
C723 C409 0.840 . S
C727 C216 0.842 . S
C741 C187 0.842 . S
C745 C438 0.840 . S
C759 C15 2.230 . S
C763 C21 2.079 . S
C777 C50 2.070 . S
C781 C44 2.230 . S
C795 C79 2.071 . S
C799 C73 2.239 . S
C813 C108 2.075 . S
C817 C102 2.239 . S
C831 C131 2.239 . S
C835 C137 2.072 . S
C849 C160 2.239 . S
C853 C166 2.076 . S
C867 C189 2.237 . S
C871 C195 2.068 1_554 S
C885 C224 2.083 1_554 S
C889 C218 2.236 . S
C903 C247 2.229 . S
C907 C253 2.075 . S
C921 C276 2.235 . S
C925 C282 2.067 . S
C939 C311 2.078 1_554 S
C943 C305 2.230 . S
C957 C334 2.239 . S
C961 C340 2.072 1_554 S
C975 C369 2.079 . S
C979 C363 2.230 . S
C993 C398 2.071 . S
C997 C392 2.239 . S
C1011 C421 2.230 . S
C1015 C427 2.078 . S
C1029 C450 2.230 . S
C1033 C456 2.079 . S
C1047 C10 1.637 . S
C1051 C39 1.625 . S
C1065 C68 1.635 . S
C1069 C445 1.624 . S
C1083 C97 1.637 . S
C1087 C416 1.625 . S
C1101 C155 1.631 . S
C1105 C126 1.626 . S
C1119 C329 1.634 . S
C1123 C184 1.634 . S
C1137 C213 1.636 . S
C1141 C300 1.624 . S
C1155 C271 1.631 . S
C1159 C242 1.626 . S
C1173 C387 1.631 . S
C1177 C358 1.626 . S
C1191 C8 1.508 . S
C1195 C179 1.541 . S
C1209 C37 1.508 . S
C1213 C208 1.544 . S
C1227 C66 1.515 . S
C1231 C5 1.548 . S
C1245 C34 1.549 . S
C1249 C95 1.515 . S
C1263 C63 1.540 . S
C1267 C124 1.507 . S
C1281 C92 1.540 . S
C1285 C153 1.505 . S
C1299 C182 1.519 . S
C1303 C121 1.549 . S
C1317 C150 1.543 . S
C1321 C211 1.512 . S
C1335 C411 1.542 . S
C1339 C240 1.507 . S
C1353 C269 1.509 . S
C1357 C440 1.544 . S
C1371 C237 1.542 . S
C1375 C298 1.507 . S
C1389 C327 1.515 . S
C1393 C266 1.549 . S
C1407 C356 1.510 . S
C1411 C295 1.545 . S
C1425 C324 1.547 . S
C1429 C385 1.518 . S
C1443 C414 1.508 . S
C1447 C353 1.543 . S
C1461 C443 1.520 . S
C1465 C382 1.549 . S
