# Generated by pormake.
# Topology und, (4)-cn, num edge types: 1
# Building blocks:
#     Node 0, Type 0, BuildingBlock: ICAMEG_clean_sbu_1, # of connection points: 4
#     Node 1, Type 0, BuildingBlock: ICAMEG_clean_sbu_1, # of connection points: 4
#     Node 2, Type 0, BuildingBlock: ICAMEG_clean_sbu_1, # of connection points: 4
#     Node 3, Type 0, BuildingBlock: ICAMEG_clean_sbu_1, # of connection points: 4
#     Node 4, Type 0, BuildingBlock: ICAMEG_clean_sbu_1, # of connection points: 4
#     Node 5, Type 0, BuildingBlock: ICAMEG_clean_sbu_1, # of connection points: 4
#     Node 6, Type 0, BuildingBlock: ICAMEG_clean_sbu_1, # of connection points: 4
#     Node 7, Type 0, BuildingBlock: ICAMEG_clean_sbu_1, # of connection points: 4
#     Node 8, Type 0, BuildingBlock: ICAMEG_clean_sbu_1, # of connection points: 4
#     Node 9, Type 0, BuildingBlock: ICAMEG_clean_sbu_1, # of connection points: 4
#     Node 10, Type 0, BuildingBlock: ICAMEG_clean_sbu_1, # of connection points: 4
#     Node 11, Type 0, BuildingBlock: ICAMEG_clean_sbu_1, # of connection points: 4
#     Node 12, Type 0, BuildingBlock: ICAMEG_clean_sbu_1, # of connection points: 4
#     Node 13, Type 0, BuildingBlock: ICAMEG_clean_sbu_1, # of connection points: 4
#     Node 14, Type 0, BuildingBlock: ICAMEG_clean_sbu_1, # of connection points: 4
#     Node 15, Type 0, BuildingBlock: ICAMEG_clean_sbu_1, # of connection points: 4
#     Edge 16, Type (0, 0), BuildingBlock: AJUNOK_clean_linker_0, # of connection points: 2
#     Edge 17, Type (0, 0), BuildingBlock: AJUNOK_clean_linker_0, # of connection points: 2
#     Edge 18, Type (0, 0), BuildingBlock: AJUNOK_clean_linker_0, # of connection points: 2
#     Edge 19, Type (0, 0), BuildingBlock: AJUNOK_clean_linker_0, # of connection points: 2
#     Edge 20, Type (0, 0), BuildingBlock: AJUNOK_clean_linker_0, # of connection points: 2
#     Edge 21, Type (0, 0), BuildingBlock: AJUNOK_clean_linker_0, # of connection points: 2
#     Edge 22, Type (0, 0), BuildingBlock: AJUNOK_clean_linker_0, # of connection points: 2
#     Edge 23, Type (0, 0), BuildingBlock: AJUNOK_clean_linker_0, # of connection points: 2
#     Edge 24, Type (0, 0), BuildingBlock: AJUNOK_clean_linker_0, # of connection points: 2
#     Edge 25, Type (0, 0), BuildingBlock: AJUNOK_clean_linker_0, # of connection points: 2
#     Edge 26, Type (0, 0), BuildingBlock: AJUNOK_clean_linker_0, # of connection points: 2
#     Edge 27, Type (0, 0), BuildingBlock: AJUNOK_clean_linker_0, # of connection points: 2
#     Edge 28, Type (0, 0), BuildingBlock: AJUNOK_clean_linker_0, # of connection points: 2
#     Edge 29, Type (0, 0), BuildingBlock: AJUNOK_clean_linker_0, # of connection points: 2
#     Edge 30, Type (0, 0), BuildingBlock: AJUNOK_clean_linker_0, # of connection points: 2
#     Edge 31, Type (0, 0), BuildingBlock: AJUNOK_clean_linker_0, # of connection points: 2
#     Edge 32, Type (0, 0), BuildingBlock: AJUNOK_clean_linker_0, # of connection points: 2
#     Edge 33, Type (0, 0), BuildingBlock: AJUNOK_clean_linker_0, # of connection points: 2
#     Edge 34, Type (0, 0), BuildingBlock: AJUNOK_clean_linker_0, # of connection points: 2
#     Edge 35, Type (0, 0), BuildingBlock: AJUNOK_clean_linker_0, # of connection points: 2
#     Edge 36, Type (0, 0), BuildingBlock: AJUNOK_clean_linker_0, # of connection points: 2
#     Edge 37, Type (0, 0), BuildingBlock: AJUNOK_clean_linker_0, # of connection points: 2
#     Edge 38, Type (0, 0), BuildingBlock: AJUNOK_clean_linker_0, # of connection points: 2
#     Edge 39, Type (0, 0), BuildingBlock: AJUNOK_clean_linker_0, # of connection points: 2
#     Edge 40, Type (0, 0), BuildingBlock: AJUNOK_clean_linker_0, # of connection points: 2
#     Edge 41, Type (0, 0), BuildingBlock: AJUNOK_clean_linker_0, # of connection points: 2
#     Edge 42, Type (0, 0), BuildingBlock: AJUNOK_clean_linker_0, # of connection points: 2
#     Edge 43, Type (0, 0), BuildingBlock: AJUNOK_clean_linker_0, # of connection points: 2
#     Edge 44, Type (0, 0), BuildingBlock: AJUNOK_clean_linker_0, # of connection points: 2
#     Edge 45, Type (0, 0), BuildingBlock: AJUNOK_clean_linker_0, # of connection points: 2
#     Edge 46, Type (0, 0), BuildingBlock: AJUNOK_clean_linker_0, # of connection points: 2
#     Edge 47, Type (0, 0), BuildingBlock: AJUNOK_clean_linker_0, # of connection points: 2
# Relax obj value: 0.026
# Max RMSD: 0.081
# Mean RMSD: 0.081
data_MOF--net-und--node1-ICAMEG_clean_sbu_1--edge1-AJUNOK_clean_linker_0
_symmetry_space_group_name_H-M    P1
_symmetry_Int_Tables_number       1
_symmetry_cell_setting            triclinic
loop_
_symmetry_equiv_pos_as_xyz
'x, y, z'
_cell_length_a     49.311555
_cell_length_b     49.30789
_cell_length_c     16.51311
_cell_angle_alpha  90.026482
_cell_angle_beta   89.97023
_cell_angle_gamma 90.190647
loop_
_atom_site_label
_atom_site_type_symbol
_atom_site_fract_x
_atom_site_fract_y
_atom_site_fract_z
_atom_type_partial_charge
Co0 Co 0.29289 0.3303 0.01649 0.0
Co1 Co 0.22403 0.33055 1.0034 0.0
O2 O 0.25863 0.35053 0.00944 0.0
C3 C 0.30638 0.38184 0.92312 0.0
O4 O 0.28065 0.38799 0.91564 0.0
C5 C 0.2119 0.38255 0.09503 0.0
O6 O 0.23782 0.38764 0.10403 0.0
O7 O 0.23291 0.31311 0.10896 0.0
O8 O 0.27482 0.29984 0.07743 0.0
H9 H 0.16612 0.24699 0.02958 0.0
H10 H 0.29121 0.3871 0.0786 0.0
O11 O 0.3134 0.35987 0.95789 0.0
H12 H 0.32204 0.33177 0.30898 0.0
H13 H 0.39362 0.31865 0.05413 0.0
H14 H 0.3074 0.27279 0.98815 0.0
H15 H 0.31228 0.3105 0.17724 0.0
H16 H 0.35074 0.3442 0.05254 0.0
O17 O 0.20407 0.36058 0.06146 0.0
H18 H 0.20885 0.2731 0.03088 0.0
H19 H 0.16618 0.34504 0.97079 0.0
H20 H 0.34978 0.24642 0.98982 0.0
H21 H 0.30114 0.40923 0.2088 0.0
H22 H 0.39331 0.26936 0.02289 0.0
H23 H 0.31661 0.38153 0.32544 0.0
O24 O 0.28384 0.31273 0.91137 0.0
H25 H 0.21714 0.40892 0.80897 0.0
H26 H 0.20376 0.31051 0.84381 0.0
H27 H 0.19405 0.33147 0.71172 0.0
H28 H 0.20061 0.38107 0.69363 0.0
H29 H 0.22697 0.38708 0.93954 0.0
H30 H 0.12298 0.31973 0.96948 0.0
H31 H 0.12278 0.27032 0.99871 0.0
O32 O 0.24165 0.29981 0.9424 0.0
C33 C 0.25393 0.29882 0.12302 0.0
C34 C 0.16596 0.2685 0.01651 0.0
C35 C 0.14174 0.30933 0.9829 0.0
N36 N 0.19007 0.31053 1.00044 0.0
C37 C 0.1901 0.28338 0.01699 0.0
C38 C 0.16627 0.32357 0.98395 0.0
C39 C 0.14164 0.2816 0.99927 0.0
C40 C 0.29815 0.37488 0.12847 0.0
N41 N 0.30116 0.34751 0.11975 0.0
C42 C 0.30365 0.38754 0.20237 0.0
C43 C 0.31229 0.37199 0.26781 0.0
C44 C 0.31532 0.34408 0.25864 0.0
C45 C 0.30963 0.33213 0.18384 0.0
C46 C 0.37478 0.30841 0.03971 0.0
C47 C 0.32623 0.28291 1.00295 0.0
C48 C 0.35043 0.32279 0.03846 0.0
N49 N 0.32654 0.31 0.0204 0.0
C50 C 0.35018 0.26787 1.00368 0.0
C51 C 0.37459 0.28076 0.02219 0.0
C52 C 0.26263 0.29861 0.89708 0.0
C53 C 0.21412 0.3873 0.81613 0.0
C54 C 0.20685 0.33208 0.83652 0.0
C55 C 0.20122 0.34385 0.76152 0.0
C56 C 0.20489 0.37167 0.75142 0.0
N57 N 0.21586 0.34754 0.89992 0.0
C58 C 0.21956 0.37481 0.89025 0.0
Co59 Co 0.93907 0.97769 0.26184 0.0
Co60 Co 0.94015 0.04664 0.25971 0.0
O61 O 0.91955 0.01242 0.26053 0.0
C62 C 0.88705 0.96807 0.35627 0.0
O63 O 0.88255 0.99419 0.36152 0.0
C64 C 0.88849 0.05805 0.16503 0.0
O65 O 0.88222 0.03221 0.1622 0.0
O66 O 0.95755 0.03492 0.15643 0.0
O67 O 0.96995 0.99358 0.19702 0.0
H68 H 0.02419 0.10272 0.21629 0.0
H69 H 0.88246 0.97949 0.19838 0.0
O70 O 0.90885 0.95939 0.32392 0.0
H71 H 0.93713 0.94089 0.977 0.0
H72 H 0.94853 0.87605 0.24583 0.0
H73 H 0.99607 0.96258 0.2956 0.0
H74 H 0.95846 0.95346 0.10644 0.0
H75 H 0.92385 0.91939 0.23902 0.0
O76 O 0.91065 0.06579 0.19759 0.0
H77 H 0.99745 0.06047 0.2235 0.0
H78 H 0.92704 0.10515 0.28653 0.0
H79 H 0.02156 0.91972 0.30249 0.0
H80 H 0.86022 0.9668 0.07053 0.0
H81 H 0.99778 0.87604 0.27731 0.0
H82 H 0.88759 0.94742 0.95839 0.0
O83 O 0.95689 0.98905 0.36509 0.0
H84 H 0.86155 0.0596 0.45077 0.0
H85 H 0.96029 0.06979 0.41594 0.0
H86 H 0.93932 0.0826 0.54561 0.0
H87 H 0.88953 0.07767 0.56369 0.0
H88 H 0.88342 0.04661 0.32274 0.0
H89 H 0.95297 0.1479 0.27942 0.0
H90 H 1.00196 0.14686 0.24449 0.0
O91 O 0.97054 0.02998 0.32396 0.0
C92 C 0.97163 0.01341 0.14747 0.0
C93 C 1.00288 0.10344 0.23175 0.0
C94 C 0.96291 0.1288 0.26721 0.0
N95 N 0.96074 0.08027 0.25596 0.0
C96 C 0.98762 0.07957 0.23597 0.0
C97 C 0.94832 0.10451 0.27098 0.0
C98 C 0.99039 0.1282 0.24757 0.0
C99 C 0.89453 0.97085 0.15055 0.0
N100 N 0.92178 0.9672 0.1605 0.0
C101 C 0.88181 0.96379 0.07794 0.0
C102 C 0.89718 0.95296 0.01501 0.0
C103 C 0.92496 0.94931 0.02539 0.0
C104 C 0.93696 0.95659 0.09885 0.0
C105 C 0.95914 0.89496 0.25667 0.0
C106 C 0.98559 0.94368 0.28434 0.0
C107 C 0.94526 0.91958 0.25304 0.0
N108 N 0.95857 0.94356 0.26604 0.0
C109 C 1.00012 0.91946 0.28845 0.0
C110 C 0.98677 0.89496 0.27435 0.0
C111 C 0.97168 0.01019 0.37362 0.0
C112 C 0.88325 0.06192 0.44361 0.0
C113 C 0.93868 0.06731 0.42331 0.0
C114 C 0.92688 0.07475 0.4969 0.0
C115 C 0.89896 0.07201 0.50698 0.0
N116 N 0.92316 0.05742 0.36123 0.0
C117 C 0.89577 0.05469 0.37087 0.0
Co118 Co 0.22463 0.69149 0.50802 0.0
Co119 Co 0.2935 0.69157 0.5082 0.0
O120 O 0.25902 0.67139 0.50815 0.0
C121 C 0.21324 0.63944 0.4143 0.0
O122 O 0.23909 0.63336 0.41136 0.0
C123 C 0.3047 0.63959 0.60193 0.0
O124 O 0.27885 0.63331 0.60455 0.0
O125 O 0.28235 0.70913 0.61196 0.0
O126 O 0.24122 0.72217 0.57174 0.0
H127 H 0.35081 0.77485 0.55056 0.0
H128 H 0.22572 0.63489 0.57177 0.0
O129 O 0.20554 0.66164 0.44655 0.0
H130 H 0.18938 0.69038 0.79471 0.0
H131 H 0.12335 0.70292 0.53101 0.0
H132 H 0.21023 0.74854 0.47164 0.0
H133 H 0.20159 0.71141 0.66455 0.0
H134 H 0.16633 0.67761 0.53711 0.0
O135 O 0.31245 0.66181 0.56975 0.0
H136 H 0.3082 0.74866 0.54451 0.0
H137 H 0.35173 0.67776 0.47908 0.0
H138 H 0.16776 0.77467 0.46543 0.0
H139 H 0.21334 0.61296 0.70034 0.0
H140 H 0.12389 0.75186 0.49534 0.0
H141 H 0.19509 0.64074 0.81327 0.0
O142 O 0.23588 0.70903 0.40422 0.0
H143 H 0.30444 0.61294 0.31607 0.0
H144 H 0.3166 0.71145 0.35158 0.0
H145 H 0.32869 0.69037 0.22145 0.0
H146 H 0.32278 0.6407 0.20303 0.0
H147 H 0.29217 0.63492 0.44459 0.0
H148 H 0.39483 0.70314 0.485 0.0
H149 H 0.39455 0.7521 0.52057 0.0
O150 O 0.27707 0.72218 0.44448 0.0
C151 C 0.2611 0.72357 0.62108 0.0
C152 C 0.35121 0.75354 0.53486 0.0
C153 C 0.37591 0.71331 0.49803 0.0
N154 N 0.32741 0.71173 0.51104 0.0
C155 C 0.32713 0.73859 0.53132 0.0
C156 C 0.35142 0.69903 0.49497 0.0
C157 C 0.37573 0.74077 0.51803 0.0
C158 C 0.21755 0.64714 0.61992 0.0
N159 N 0.21433 0.67444 0.60996 0.0
C160 C 0.21068 0.6346 0.69296 0.0
C161 C 0.20048 0.65019 0.75633 0.0
C162 C 0.1973 0.67803 0.74598 0.0
C163 C 0.20438 0.68986 0.67209 0.0
C164 C 0.14233 0.71311 0.518 0.0
C165 C 0.19125 0.73845 0.48479 0.0
C166 C 0.16674 0.69887 0.52115 0.0
N167 N 0.19082 0.7116 0.5051 0.0
C168 C 0.16725 0.75337 0.48116 0.0
C169 C 0.14265 0.74056 0.49795 0.0
C170 C 0.2572 0.72353 0.39514 0.0
C171 C 0.30719 0.63459 0.32339 0.0
C172 C 0.31371 0.68988 0.3441 0.0
C173 C 0.32074 0.67802 0.27023 0.0
C174 C 0.31744 0.65017 0.25996 0.0
N175 N 0.30371 0.67448 0.40629 0.0
C176 C 0.30038 0.64716 0.3964 0.0
Co177 Co 0.5778 0.04495 0.75979 0.0
Co178 Co 0.57654 0.976 0.75883 0.0
O179 O 0.59726 0.01016 0.75904 0.0
C180 C 0.63002 0.05496 0.85292 0.0
O181 O 0.63506 0.02891 0.85662 0.0
C182 C 0.62858 0.96387 0.66618 0.0
O183 O 0.6353 0.98962 0.66415 0.0
O184 O 0.5592 0.98754 0.65519 0.0
O185 O 0.5469 0.02897 0.69535 0.0
H186 H 0.49232 0.92013 0.71614 0.0
H187 H 0.63437 0.04267 0.69573 0.0
O188 O 0.60798 0.0634 0.82162 0.0
H189 H 0.57975 0.08117 0.4744 0.0
H190 H 0.56852 0.14658 0.74209 0.0
H191 H 0.52083 0.06024 0.79366 0.0
H192 H 0.55845 0.06899 0.60423 0.0
H193 H 0.59311 0.10318 0.73584 0.0
O194 O 0.60604 0.95649 0.69723 0.0
H195 H 0.51921 0.96229 0.72268 0.0
H196 H 0.5894 0.91751 0.78697 0.0
H197 H 0.49543 0.10316 0.80004 0.0
H198 H 0.65657 0.05496 0.56749 0.0
H199 H 0.51928 0.14675 0.77394 0.0
H200 H 0.62923 0.07431 0.45537 0.0
O201 O 0.55998 0.03389 0.86333 0.0
H202 H 0.65482 0.96362 0.95129 0.0
H203 H 0.55617 0.95312 0.91512 0.0
H204 H 0.57691 0.9406 0.04526 0.0
H205 H 0.62665 0.94567 0.06402 0.0
H206 H 0.63319 0.97632 0.8228 0.0
H207 H 0.56332 0.87483 0.78052 0.0
H208 H 0.51436 0.87597 0.74529 0.0
O209 O 0.54617 0.99295 0.8227 0.0
C210 C 0.54513 0.00906 0.64607 0.0
C211 C 0.51362 0.91936 0.73172 0.0
C212 C 0.55345 0.89394 0.76788 0.0
N213 N 0.55582 0.94243 0.75569 0.0
C214 C 0.52896 0.94319 0.73556 0.0
C215 C 0.56814 0.91819 0.77125 0.0
C216 C 0.526 0.8946 0.74807 0.0
C217 C 0.62231 0.0513 0.64795 0.0
N218 N 0.5951 0.05517 0.65818 0.0
C219 C 0.63501 0.05813 0.57509 0.0
C220 C 0.61966 0.06895 0.51218 0.0
C221 C 0.59191 0.07278 0.52279 0.0
C222 C 0.57993 0.06573 0.5965 0.0
C223 C 0.55787 0.12771 0.75331 0.0
C224 C 0.53135 0.0791 0.78199 0.0
C225 C 0.5717 0.10306 0.74998 0.0
N226 N 0.55835 0.07913 0.76345 0.0
C227 C 0.51686 0.10336 0.78581 0.0
C228 C 0.53025 0.1278 0.7712 0.0
C229 C 0.54512 0.01282 0.8722 0.0
C230 C 0.63314 0.96122 0.94383 0.0
C231 C 0.57777 0.95564 0.92274 0.0
C232 C 0.58943 0.94838 0.99662 0.0
C233 C 0.61732 0.9512 1.00708 0.0
N234 N 0.59339 0.96543 0.86072 0.0
C235 C 0.62075 0.96828 0.8708 0.0
Co236 Co 0.72541 0.69291 1.00295 0.0
Co237 Co 0.7943 0.69204 0.00877 0.0
O238 O 0.75955 0.67237 0.00735 0.0
C239 C 0.71297 0.64219 0.10122 0.0
O240 O 0.73883 0.63664 0.10871 0.0
C241 C 0.80556 0.63949 0.91775 0.0
O242 O 0.77966 0.63358 0.91334 0.0
O243 O 0.78434 0.70884 0.9032 0.0
O244 O 0.74296 0.72281 0.93811 0.0
H245 H 0.85304 0.77421 0.96496 0.0
H246 H 0.72622 0.63572 0.94423 0.0
O247 O 0.70545 0.66377 0.06517 0.0
H248 H 0.69281 0.68953 0.71382 0.0
H249 H 0.62444 0.70511 0.97376 0.0
H250 H 0.71162 0.75073 0.02917 0.0
H251 H 0.70419 0.71167 0.8431 0.0
H252 H 0.66713 0.67925 0.9731 0.0
O253 O 0.81337 0.66163 0.95037 0.0
H254 H 0.81004 0.74864 0.97003 0.0
H255 H 0.85209 0.67767 0.04268 0.0
H256 H 0.66944 0.77743 0.02956 0.0
H257 H 0.71468 0.61271 0.81655 0.0
H258 H 0.62542 0.75461 1.00184 0.0
H259 H 0.6979 0.63964 0.69992 0.0
O260 O 0.73583 0.71129 0.1062 0.0
H261 H 0.80304 0.61463 0.20588 0.0
H262 H 0.81605 0.71284 0.16601 0.0
H263 H 0.82684 0.69254 0.29818 0.0
H264 H 0.82048 0.64302 0.31881 0.0
H265 H 0.79206 0.63586 0.07524 0.0
H266 H 0.89557 0.70243 0.03787 0.0
H267 H 0.89623 0.7511 0.99912 0.0
O268 O 0.77771 0.72336 0.06928 0.0
C269 C 0.76336 0.72332 0.89047 0.0
C270 C 0.85302 0.75303 0.98211 0.0
C271 C 0.87689 0.71275 0.02306 0.0
N272 N 0.82848 0.71174 1.00717 0.0
C273 C 0.82872 0.73844 0.98515 0.0
C274 C 0.85219 0.69883 0.02554 0.0
C275 C 0.87724 0.74005 1.00127 0.0
C276 C 0.71871 0.64761 0.89436 0.0
N277 N 0.71584 0.67504 0.90171 0.0
C278 C 0.7123 0.63445 0.82189 0.0
C279 C 0.70293 0.64957 0.75645 0.0
C280 C 0.70009 0.67755 0.76419 0.0
C281 C 0.70668 0.69 0.83758 0.0
C282 C 0.64348 0.7153 0.98596 0.0
C283 C 0.69257 0.74065 0.01683 0.0
C284 C 0.66772 0.70073 0.98602 0.0
N285 N 0.69187 0.71344 1.00122 0.0
C286 C 0.66874 0.75588 0.0172 0.0
C287 C 0.64405 0.74306 1.00168 0.0
C288 C 0.75732 0.72544 0.1165 0.0
C289 C 0.80596 0.63622 0.19762 0.0
C290 C 0.81296 0.69135 0.17447 0.0
C291 C 0.81925 0.67993 0.24948 0.0
C292 C 0.8157 0.65216 0.26099 0.0
N293 N 0.80342 0.6756 0.1124 0.0
C294 C 0.79988 0.64836 0.12344 0.0
Co295 Co 0.07911 0.04577 0.767 0.0
Co296 Co 0.07873 0.97692 0.7541 0.0
O297 O 0.09905 0.01128 0.76078 0.0
C298 C 0.12927 0.05768 0.66728 0.0
O299 O 0.13146 0.03206 0.64734 0.0
C300 C 0.13 0.96399 0.84876 0.0
O301 O 0.13601 0.98979 0.85645 0.0
O302 O 0.06107 0.98604 0.85903 0.0
O303 O 0.04827 0.0281 0.82759 0.0
H304 H 0.99468 0.91972 0.78044 0.0
H305 H 0.1357 0.0438 0.82843 0.0
O306 O 0.10926 0.0657 0.7097 0.0
H307 H 0.08072 0.07507 0.05948 0.0
H308 H 0.06869 0.14674 0.80261 0.0
H309 H 0.02178 0.06088 0.73896 0.0
H310 H 0.05932 0.06543 0.92779 0.0
H311 H 0.09381 0.1036 0.80079 0.0
O312 O 0.10819 0.9567 0.81331 0.0
H313 H 0.02116 0.96223 0.78183 0.0
H314 H 0.09256 0.91906 0.71922 0.0
H315 H 0.99585 0.10355 0.74072 0.0
H316 H 0.15799 0.05357 0.95873 0.0
H317 H 0.01933 0.14689 0.77273 0.0
H318 H 0.13044 0.06924 0.0756 0.0
O319 O 0.06167 0.03684 0.66149 0.0
H320 H 0.15794 0.96842 0.56313 0.0
H321 H 0.05909 0.95725 0.59331 0.0
H322 H 0.08054 0.94719 0.46209 0.0
H323 H 0.13037 0.95262 0.44636 0.0
H324 H 0.13561 0.97873 0.69273 0.0
H325 H 0.06692 0.87606 0.71793 0.0
H326 H 0.01758 0.87622 0.74842 0.0
O327 O 0.04839 0.99477 0.6925 0.0
C328 C 0.04699 1.0072 0.87306 0.0
C329 C 0.01616 0.91939 0.76691 0.0
C330 C 0.0567 0.89489 0.73189 0.0
N331 N 0.05836 0.94317 0.75045 0.0
C332 C 0.03125 0.94341 0.76748 0.0
C333 C 0.07113 0.9193 0.73296 0.0
C334 C 0.02902 0.89499 0.74899 0.0
C335 C 0.12357 0.05076 0.87869 0.0
N336 N 0.09621 0.05394 0.87027 0.0
C337 C 0.13631 0.0562 0.95249 0.0
C338 C 0.12084 0.06497 0.01805 0.0
C339 C 0.09295 0.06821 0.00907 0.0
C340 C 0.08092 0.06259 0.93436 0.0
C341 C 0.05823 0.12798 0.78869 0.0
C342 C 0.03212 0.07963 0.75332 0.0
C343 C 0.07235 0.10349 0.78736 0.0
N344 N 0.05924 0.07969 0.77022 0.0
C345 C 0.01734 0.10374 0.75407 0.0
C346 C 0.03053 0.12805 0.77195 0.0
C347 C 0.0474 0.01572 0.64718 0.0
C348 C 0.13623 0.96587 0.56929 0.0
C349 C 0.08075 0.9599 0.58701 0.0
C350 C 0.0928 0.95404 0.51252 0.0
C351 C 0.12074 0.95706 0.50375 0.0
N352 N 0.09606 0.96852 0.6512 0.0
C353 C 0.12346 0.97153 0.64288 0.0
Co354 Co 0.79212 0.32929 0.50656 0.0
Co355 Co 0.72325 0.32946 0.50724 0.0
O356 O 0.75781 0.34956 0.50692 0.0
C357 C 0.80444 0.38171 0.59768 0.0
O358 O 0.77881 0.38872 0.59845 0.0
C359 C 0.71168 0.38194 0.41619 0.0
O360 O 0.73746 0.38856 0.41471 0.0
O361 O 0.7342 0.31198 0.40302 0.0
O362 O 0.77524 0.29869 0.44328 0.0
H363 H 0.66574 0.2463 0.46501 0.0
H364 H 0.79077 0.38578 0.44147 0.0
O365 O 0.81158 0.359 0.56762 0.0
H366 H 0.82718 0.32986 0.21967 0.0
H367 H 0.89332 0.31733 0.48282 0.0
H368 H 0.80627 0.27217 0.54306 0.0
H369 H 0.8151 0.30911 0.35032 0.0
H370 H 0.85047 0.34285 0.47697 0.0
O371 O 0.70415 0.35934 0.44645 0.0
H372 H 0.70839 0.27242 0.47072 0.0
H373 H 0.66508 0.34334 0.53715 0.0
H374 H 0.84861 0.24584 0.54907 0.0
H375 H 0.803 0.40743 0.31243 0.0
H376 H 0.89256 0.26841 0.5187 0.0
H377 H 0.8213 0.37944 0.20005 0.0
O378 O 0.78092 0.31188 0.61062 0.0
H379 H 0.71349 0.40762 0.70176 0.0
H380 H 0.70009 0.30939 0.66351 0.0
H381 H 0.68836 0.33019 0.79432 0.0
H382 H 0.6949 0.37972 0.81412 0.0
H383 H 0.72535 0.38592 0.57254 0.0
H384 H 0.62193 0.31804 0.53155 0.0
H385 H 0.62208 0.26911 0.49566 0.0
O386 O 0.73974 0.29873 0.57036 0.0
C387 C 0.75539 0.29742 0.39385 0.0
C388 C 0.6654 0.2676 0.48086 0.0
C389 C 0.64082 0.30785 0.51823 0.0
N390 N 0.6893 0.30935 0.5047 0.0
C391 C 0.68951 0.2825 0.48422 0.0
C392 C 0.66533 0.32209 0.52111 0.0
C393 C 0.64091 0.28041 0.49806 0.0
C394 C 0.79898 0.37343 0.39365 0.0
N395 N 0.80234 0.34618 0.40427 0.0
C396 C 0.80576 0.38582 0.3203 0.0
C397 C 0.81598 0.37011 0.25724 0.0
C398 C 0.81927 0.34231 0.26819 0.0
C399 C 0.81227 0.33064 0.34238 0.0
C400 C 0.8743 0.30723 0.49597 0.0
C401 C 0.82529 0.28215 0.52966 0.0
C402 C 0.84996 0.3216 0.49293 0.0
N403 N 0.82582 0.30899 0.50914 0.0
C404 C 0.84921 0.26713 0.5332 0.0
C405 C 0.87386 0.2798 0.51615 0.0
C406 C 0.75959 0.2974 0.61977 0.0
C407 C 0.71044 0.38604 0.69381 0.0
C408 C 0.70319 0.3309 0.67152 0.0
C409 C 0.6964 0.3426 0.74581 0.0
C410 C 0.70005 0.37037 0.75686 0.0
N411 N 0.71329 0.34639 0.60964 0.0
C412 C 0.71701 0.37362 0.62036 0.0
Co413 Co 0.43749 0.977 0.26446 0.0
Co414 Co 0.43786 0.04594 0.25398 0.0
O415 O 0.41764 0.0115 0.25915 0.0
C416 C 0.3857 0.96514 0.17138 0.0
O417 O 0.38043 0.99107 0.1646 0.0
C418 C 0.3864 0.05775 0.34821 0.0
O419 O 0.38215 0.03181 0.36008 0.0
O420 O 0.45525 0.03651 0.35905 0.0
O421 O 0.46807 0.99447 0.32679 0.0
H422 H 0.52173 0.1033 0.28212 0.0
H423 H 0.38067 0.97892 0.32694 0.0
O424 O 0.40764 0.95724 0.20463 0.0
H425 H 0.43574 0.94575 0.55492 0.0
H426 H 0.44798 0.87584 0.29442 0.0
H427 H 0.49497 0.9622 0.23768 0.0
H428 H 0.45707 0.9563 0.42381 0.0
H429 H 0.42277 0.91893 0.29422 0.0
O430 O 0.4079 0.06582 0.31247 0.0
H431 H 0.49538 0.06071 0.28214 0.0
H432 H 0.42372 0.10397 0.22293 0.0
H433 H 0.52099 0.91958 0.23788 0.0
H434 H 0.35847 0.9682 0.45643 0.0
H435 H 0.49748 0.87599 0.26641 0.0
H436 H 0.38604 0.95156 0.5719 0.0
O437 O 0.45518 0.98646 0.15992 0.0
H438 H 0.35934 0.0546 0.06092 0.0
H439 H 0.458 0.06631 0.09452 0.0
H440 H 0.43699 0.0766 0.96289 0.0
H441 H 0.38727 0.07086 0.94541 0.0
H442 H 0.38122 0.04419 0.19106 0.0
H443 H 0.44927 0.14703 0.22287 0.0
H444 H 0.49866 0.14687 0.25232 0.0
O445 O 0.46851 0.02837 0.19248 0.0
C446 C 0.46932 0.01531 0.37268 0.0
C447 C 0.50023 0.10362 0.26896 0.0
C448 C 0.45956 0.12817 0.23582 0.0
N449 N 0.45807 0.0798 0.25205 0.0
C450 C 0.48521 0.07956 0.26872 0.0
C451 C 0.44518 0.10372 0.23614 0.0
C452 C 0.48727 0.12807 0.25232 0.0
C453 C 0.39283 0.97144 0.37621 0.0
N454 N 0.42017 0.96822 0.36719 0.0
C455 C 0.38013 0.96551 0.44976 0.0
C456 C 0.39561 0.95622 0.51455 0.0
C457 C 0.42348 0.95298 0.50508 0.0
C458 C 0.43547 0.95911 0.43064 0.0
C459 C 0.45846 0.89471 0.28205 0.0
C460 C 0.48461 0.94334 0.25057 0.0
C461 C 0.44428 0.91918 0.28165 0.0
N462 N 0.45742 0.94311 0.26648 0.0
C463 C 0.49945 0.91926 0.25042 0.0
C464 C 0.48624 0.89481 0.26635 0.0
C465 C 0.4695 1.00758 0.1464 0.0
C466 C 0.38102 0.05723 0.06778 0.0
C467 C 0.43639 0.06354 0.08745 0.0
C468 C 0.42459 0.06952 0.01272 0.0
C469 C 0.3967 0.06632 1.00298 0.0
N470 N 0.42089 0.05461 0.15086 0.0
C471 C 0.39354 0.05145 0.14162 0.0
Co472 Co 0.79328 0.83294 0.5088 0.0
Co473 Co 0.72439 0.83065 0.50319 0.0
O474 O 0.75824 0.8519 0.5081 0.0
C475 C 0.80362 0.88629 0.42153 0.0
O476 O 0.77759 0.89143 0.41752 0.0
C477 C 0.71094 0.88144 0.59996 0.0
O478 O 0.73667 0.8878 0.60674 0.0
O479 O 0.73509 0.81251 0.60639 0.0
O480 O 0.77709 0.8012 0.56891 0.0
H481 H 0.66971 0.74492 0.52932 0.0
H482 H 0.78981 0.88879 0.57792 0.0
O483 O 0.81192 0.86393 0.4512 0.0
H484 H 0.82674 0.83218 0.79716 0.0
H485 H 0.89482 0.82467 0.53368 0.0
H486 H 0.80958 0.77657 0.47077 0.0
H487 H 0.81601 0.81217 0.66441 0.0
H488 H 0.85106 0.84866 0.5391 0.0
O489 O 0.70387 0.85939 0.56526 0.0
H490 H 0.71147 0.77255 0.52927 0.0
H491 H 0.66593 0.84302 0.47289 0.0
H492 H 0.85286 0.75178 0.46508 0.0
H493 H 0.80067 0.90972 0.70917 0.0
H494 H 0.8959 0.77584 0.49686 0.0
H495 H 0.81922 0.88137 0.82026 0.0
O496 O 0.78345 0.81619 0.40293 0.0
H497 H 0.71286 0.91051 0.31625 0.0
H498 H 0.70345 0.8114 0.34336 0.0
H499 H 0.69191 0.83321 0.21388 0.0
H500 H 0.69647 0.88317 0.19968 0.0
H501 H 0.72454 0.88785 0.4441 0.0
H502 H 0.62365 0.81622 0.47323 0.0
H503 H 0.62537 0.76676 0.50127 0.0
O504 O 0.74243 0.80113 0.4384 0.0
C505 C 0.75678 0.79878 0.61646 0.0
C506 C 0.66869 0.76645 0.51697 0.0
C507 C 0.64284 0.80646 0.48557 0.0
N508 N 0.69118 0.80939 0.50119 0.0
C509 C 0.69228 0.7822 0.51679 0.0
C510 C 0.66685 0.82156 0.48582 0.0
C511 C 0.64382 0.77872 0.50127 0.0
C512 C 0.7981 0.87631 0.62526 0.0
N513 N 0.80232 0.84926 0.61282 0.0
C514 C 0.80412 0.88828 0.69982 0.0
C515 C 0.81448 0.87236 0.76215 0.0
C516 C 0.81869 0.84478 0.74925 0.0
C517 C 0.81245 0.83353 0.67389 0.0
C518 C 0.8762 0.81394 0.51999 0.0
C519 C 0.82819 0.78717 0.48499 0.0
C520 C 0.85135 0.82742 0.52286 0.0
N521 N 0.82771 0.81394 0.50623 0.0
C522 C 0.85266 0.77303 0.48152 0.0
C523 C 0.87679 0.78654 0.49931 0.0
C524 C 0.76274 0.80117 0.39039 0.0
C525 C 0.71071 0.88874 0.32172 0.0
C526 C 0.70569 0.83312 0.33774 0.0
C527 C 0.69902 0.84537 0.26422 0.0
C528 C 0.70156 0.87339 0.25631 0.0
N529 N 0.71464 0.84829 0.40184 0.0
C530 C 0.7172 0.87577 0.39431 0.0
Co531 Co 0.44016 0.47665 0.75691 0.0
Co532 Co 0.43917 0.54552 0.76316 0.0
O533 O 0.41952 0.51075 0.7616 0.0
C534 C 0.3892 0.46386 0.85388 0.0
O535 O 0.3831 0.48965 0.85971 0.0
C536 C 0.38633 0.55717 0.67408 0.0
O537 O 0.37994 0.53135 0.67058 0.0
O538 O 0.45576 0.53563 0.65726 0.0
O539 O 0.46996 0.49432 0.69196 0.0
H540 H 0.5212 0.60435 0.71782 0.0
H541 H 0.383 0.47769 0.69771 0.0
O542 O 0.41112 0.45655 0.81921 0.0
H543 H 0.43695 0.44394 0.46783 0.0
H544 H 0.45263 0.37568 0.72802 0.0
H545 H 0.49805 0.46306 0.78226 0.0
H546 H 0.45898 0.45529 0.59725 0.0
H547 H 0.42662 0.41829 0.72765 0.0
O548 O 0.40872 0.56469 0.70558 0.0
H549 H 0.49565 0.56134 0.72292 0.0
H550 H 0.42492 0.60326 0.79861 0.0
H551 H 0.52489 0.42096 0.78233 0.0
H552 H 0.36011 0.46621 0.56988 0.0
H553 H 0.50216 0.37685 0.75518 0.0
H554 H 0.3871 0.44924 0.4535 0.0
O555 O 0.45852 0.48711 0.86017 0.0
H556 H 0.36219 0.55378 0.96223 0.0
H557 H 0.46024 0.56723 0.92015 0.0
H558 H 0.44021 0.57781 0.05292 0.0
H559 H 0.39077 0.57125 0.07466 0.0
H560 H 0.38314 0.54302 0.83097 0.0
H561 H 0.44966 0.64675 0.79389 0.0
H562 H 0.4982 0.64748 0.75359 0.0
O563 O 0.47058 0.52891 0.82267 0.0
C564 C 0.47031 0.5147 0.64432 0.0
C565 C 0.50007 0.6043 0.73566 0.0
C566 C 0.45994 0.62809 0.7784 0.0
N567 N 0.45887 0.57971 0.7616 0.0
C568 C 0.48549 0.57999 0.7387 0.0
C569 C 0.44602 0.60339 0.78084 0.0
C570 C 0.48716 0.62849 0.75573 0.0
C571 C 0.39492 0.47008 0.64801 0.0
N572 N 0.42232 0.46706 0.65564 0.0
C573 C 0.38182 0.46371 0.57543 0.0
C574 C 0.39698 0.45423 0.51013 0.0
C575 C 0.42493 0.45127 0.51811 0.0
C576 C 0.43732 0.45783 0.59161 0.0
C577 C 0.46277 0.39477 0.73993 0.0
C578 C 0.48802 0.44397 0.77012 0.0
C579 C 0.44813 0.41897 0.74013 0.0
N580 N 0.46079 0.44317 0.75496 0.0
C581 C 0.50332 0.42019 0.77033 0.0
C582 C 0.49056 0.39545 0.75514 0.0
C583 C 0.47265 0.50862 0.87018 0.0
C584 C 0.38374 0.55681 0.95348 0.0
C585 C 0.43878 0.56405 0.92907 0.0
C586 C 0.42751 0.57022 1.00444 0.0
C587 C 0.39979 0.56656 0.01657 0.0
N588 N 0.42292 0.55451 0.86726 0.0
C589 C 0.39573 0.55084 0.87894 0.0
Co590 Co 0.72354 0.18972 0.01238 0.0
Co591 Co 0.7924 0.1908 1.00068 0.0
O592 O 0.75825 0.17015 1.00692 0.0
C593 C 0.71211 0.138 0.91857 0.0
O594 O 0.73808 0.1339 0.90728 0.0
C595 C 0.80579 0.1395 0.09472 0.0
O596 O 0.78005 0.13329 0.10264 0.0
O597 O 0.78293 0.20818 0.10566 0.0
O598 O 0.74081 0.22068 0.07361 0.0
H599 H 0.84876 0.27534 0.02933 0.0
H600 H 0.72639 0.13319 0.07556 0.0
O601 O 0.70395 0.15944 0.95413 0.0
H602 H 0.69311 0.18826 0.30376 0.0
H603 H 0.62237 0.19927 0.04487 0.0
H604 H 0.70806 0.24696 0.98445 0.0
H605 H 0.70296 0.20946 0.17196 0.0
H606 H 0.66572 0.17451 0.04422 0.0
O607 O 0.81287 0.16143 0.0595 0.0
H608 H 0.80652 0.24844 0.02998 0.0
H609 H 0.85039 0.17767 0.96531 0.0
H610 H 0.66518 0.27253 0.98509 0.0
H611 H 0.71643 0.11111 0.20588 0.0
H612 H 0.62192 0.24866 0.01547 0.0
H613 H 0.69973 0.13869 0.32139 0.0
O614 O 0.7326 0.20727 0.90709 0.0
H615 H 0.80183 0.11202 0.80854 0.0
H616 H 0.81204 0.21091 0.84031 0.0
H617 H 0.82233 0.1898 0.70877 0.0
H618 H 0.81737 0.13996 0.69221 0.0
H619 H 0.79134 0.13401 0.93852 0.0
H620 H 0.89313 0.20374 0.96474 0.0
H621 H 0.89248 0.25298 0.99664 0.0
O622 O 0.77434 0.22108 0.93954 0.0
C623 C 0.76161 0.22204 0.11952 0.0
C624 C 0.8493 0.25391 0.01521 0.0
C625 C 0.87421 0.21373 0.97902 0.0
N626 N 0.82595 0.21152 0.99761 0.0
C627 C 0.82544 0.23858 0.01538 0.0
C628 C 0.84994 0.19905 0.97971 0.0
C629 C 0.87383 0.24135 0.99691 0.0
C630 C 0.71892 0.14534 0.125 0.0
N631 N 0.71523 0.1726 0.11564 0.0
C632 C 0.7134 0.13272 0.19893 0.0
C633 C 0.70407 0.1482 0.26374 0.0
C634 C 0.70037 0.176 0.2539 0.0
C635 C 0.70608 0.18791 0.17908 0.0
C636 C 0.64109 0.2099 0.03167 0.0
C637 C 0.68935 0.23645 0.99812 0.0
C638 C 0.66571 0.19598 0.03099 0.0
N639 N 0.68946 0.20931 0.01476 0.0
C640 C 0.66512 0.25103 0.99823 0.0
C641 C 0.64085 0.23762 0.01519 0.0
C642 C 0.75358 0.22183 0.89351 0.0
C643 C 0.80413 0.13375 0.81501 0.0
C644 C 0.80958 0.18925 0.83364 0.0
C645 C 0.81557 0.17739 0.75896 0.0
C646 C 0.81281 0.14943 0.74974 0.0
N647 N 0.80106 0.17375 0.89754 0.0
C648 C 0.79832 0.14633 0.88878 0.0
Co649 Co 0.07888 0.54415 0.25334 0.0
Co650 Co 0.07816 0.47522 0.25861 0.0
O651 O 0.09866 0.50958 0.25441 0.0
C652 C 0.13173 0.55626 0.34237 0.0
O653 O 0.13825 0.53051 0.34527 0.0
C654 C 0.12836 0.46382 0.15828 0.0
O655 O 0.13219 0.48979 0.14576 0.0
O656 O 0.05969 0.48559 0.15557 0.0
O657 O 0.04753 0.52726 0.19357 0.0
H658 H 0.99358 0.41866 0.23532 0.0
H659 H 0.13496 0.54259 0.18552 0.0
O660 O 0.10925 0.56358 0.31125 0.0
H661 H 0.07762 0.57686 0.96413 0.0
H662 H 0.06792 0.64531 0.22442 0.0
H663 H 0.02234 0.55927 0.29389 0.0
H664 H 0.05765 0.56572 0.09665 0.0
H665 H 0.09286 0.6021 0.21886 0.0
O666 O 0.10741 0.45559 0.19641 0.0
H667 H 0.02026 0.46104 0.23502 0.0
H668 H 0.0922 0.41686 0.28438 0.0
H669 H 0.9966 0.60198 0.29983 0.0
H670 H 0.15584 0.55396 0.05457 0.0
H671 H 0.01939 0.64543 0.26483 0.0
H672 H 0.12712 0.57115 0.94239 0.0
O673 O 0.06236 0.53392 0.35904 0.0
H674 H 0.15853 0.46531 0.44399 0.0
H675 H 0.05962 0.45346 0.41827 0.0
H676 H 0.08197 0.44218 0.54718 0.0
H677 H 0.13182 0.44798 0.56066 0.0
H678 H 0.13532 0.47669 0.31659 0.0
H679 H 0.06633 0.374 0.28452 0.0
H680 H 0.01663 0.37473 0.26022 0.0
O681 O 0.04828 0.49247 0.3241 0.0
C682 C 0.04549 0.50698 0.14587 0.0
C683 C 0.01522 0.41808 0.24618 0.0
C684 C 0.05605 0.39302 0.27368 0.0
N685 N 0.05774 0.44148 0.26007 0.0
C686 C 0.03043 0.44203 0.24623 0.0
C687 C 0.07061 0.41736 0.27327 0.0
C688 C 0.02816 0.39344 0.26008 0.0
C689 C 0.12231 0.55033 0.13773 0.0
N690 N 0.09508 0.5535 0.14938 0.0
C691 C 0.13426 0.55662 0.06333 0.0
C692 C 0.11813 0.56621 1.00037 0.0
C693 C 0.09037 0.56939 0.0125 0.0
C694 C 0.07915 0.5629 0.08771 0.0
C695 C 0.05773 0.62651 0.23958 0.0
C696 C 0.0324 0.57806 0.27841 0.0
C697 C 0.07176 0.60197 0.23665 0.0
N698 N 0.05903 0.57811 0.25547 0.0
C699 C 0.01772 0.6022 0.28194 0.0
C700 C 0.03052 0.62656 0.26231 0.0
C701 C 0.04787 0.51284 0.37188 0.0
C702 C 0.13681 0.46263 0.43883 0.0
C703 C 0.08129 0.45622 0.4236 0.0
C704 C 0.09385 0.4497 0.49679 0.0
C705 C 0.12181 0.45294 0.50429 0.0
N706 N 0.09613 0.4657 0.35949 0.0
C707 C 0.12354 0.46895 0.36658 0.0
Co708 Co 0.22421 0.19078 0.51126 0.0
Co709 Co 0.2932 0.19122 0.5077 0.0
O710 O 0.25876 0.17097 0.50883 0.0
C711 C 0.21396 0.13796 0.60129 0.0
O712 O 0.23984 0.132 0.60058 0.0
C713 C 0.30356 0.13969 0.41182 0.0
O714 O 0.27751 0.13469 0.40633 0.0
O715 O 0.28143 0.20898 0.40509 0.0
O716 O 0.24025 0.22164 0.44668 0.0
H717 H 0.34994 0.27497 0.46756 0.0
H718 H 0.22548 0.13428 0.44503 0.0
O719 O 0.20576 0.16064 0.57353 0.0
H720 H 0.18649 0.19025 0.22765 0.0
H721 H 0.12263 0.2012 0.49882 0.0
H722 H 0.20975 0.24789 0.54619 0.0
H723 H 0.19963 0.21089 0.35753 0.0
H724 H 0.1657 0.17612 0.49027 0.0
O725 O 0.31193 0.16155 0.44482 0.0
H726 H 0.30746 0.24858 0.47448 0.0
H727 H 0.35172 0.1772 0.52988 0.0
H728 H 0.16717 0.27378 0.55481 0.0
H729 H 0.2122 0.11275 0.31684 0.0
H730 H 0.12318 0.25042 0.53085 0.0
H731 H 0.1926 0.14076 0.2066 0.0
O732 O 0.23595 0.20825 0.61457 0.0
H733 H 0.3054 0.1121 0.69695 0.0
H734 H 0.31725 0.21071 0.66341 0.0
H735 H 0.33015 0.18929 0.79229 0.0
H736 H 0.32437 0.13957 0.80971 0.0
H737 H 0.29239 0.1344 0.56969 0.0
H738 H 0.39469 0.2028 0.52308 0.0
H739 H 0.39397 0.25209 0.49218 0.0
O740 O 0.27697 0.22164 0.57324 0.0
C741 C 0.26001 0.22326 0.39682 0.0
C742 C 0.35052 0.25353 0.48137 0.0
C743 C 0.37563 0.21302 0.51251 0.0
N744 N 0.32704 0.21144 0.50352 0.0
C745 C 0.32652 0.23847 0.48548 0.0
C746 C 0.35122 0.19862 0.51617 0.0
C747 C 0.37521 0.24067 0.49515 0.0
C748 C 0.21671 0.14665 0.39827 0.0
N749 N 0.21327 0.17387 0.40964 0.0
C750 C 0.20933 0.13432 0.32533 0.0
C751 C 0.19838 0.15004 0.26347 0.0
C752 C 0.19497 0.17779 0.27521 0.0
C753 C 0.20258 0.1894 0.34896 0.0
C754 C 0.14166 0.21162 0.50912 0.0
C755 C 0.19072 0.2376 0.53541 0.0
C756 C 0.16614 0.19752 0.50449 0.0
N757 N 0.19029 0.2106 0.51678 0.0
C758 C 0.16666 0.25235 0.54052 0.0
C759 C 0.14199 0.23924 0.52711 0.0
C760 C 0.25721 0.22286 0.62315 0.0
C761 C 0.30807 0.13377 0.69009 0.0
C762 C 0.31443 0.18913 0.67051 0.0
C763 C 0.3219 0.17708 0.74364 0.0
C764 C 0.31868 0.14919 0.75336 0.0
N765 N 0.30403 0.17389 0.60854 0.0
C766 C 0.30082 0.14654 0.61783 0.0
Co767 Co 0.57919 0.54636 0.26294 0.0
Co768 Co 0.57809 0.4775 0.25594 0.0
O769 O 0.59883 0.5117 0.26079 0.0
C770 C 0.63204 0.55857 0.17391 0.0
O771 O 0.63877 0.53287 0.17163 0.0
C772 C 0.62948 0.46449 0.35039 0.0
O773 O 0.63592 0.49024 0.3561 0.0
O774 O 0.56002 0.48768 0.35989 0.0
O775 O 0.5479 0.52946 0.32308 0.0
H776 H 0.49331 0.4214 0.28335 0.0
H777 H 0.63527 0.54384 0.33025 0.0
O778 O 0.6095 0.56581 0.20481 0.0
H779 H 0.57858 0.57863 0.55269 0.0
H780 H 0.56884 0.64755 0.2933 0.0
H781 H 0.5226 0.5618 0.2244 0.0
H782 H 0.55839 0.56804 0.4201 0.0
H783 H 0.59358 0.60421 0.29754 0.0
O784 O 0.60726 0.45734 0.31691 0.0
H785 H 0.52027 0.46359 0.2834 0.0
H786 H 0.59129 0.4193 0.22396 0.0
H787 H 0.49705 0.60464 0.21986 0.0
H788 H 0.65638 0.55459 0.46132 0.0
H789 H 0.52017 0.64794 0.25459 0.0
H790 H 0.62798 0.57206 0.57399 0.0
O791 O 0.56242 0.53646 0.15721 0.0
H792 H 0.65753 0.46806 0.06606 0.0
H793 H 0.55877 0.45631 0.09648 0.0
H794 H 0.58038 0.44538 0.96616 0.0
H795 H 0.63016 0.4511 0.95029 0.0
H796 H 0.63505 0.47913 0.19481 0.0
H797 H 0.56516 0.37659 0.22417 0.0
H798 H 0.51577 0.37747 0.25371 0.0
O799 O 0.54813 0.49515 0.19234 0.0
C800 C 0.54588 0.50908 0.37036 0.0
C801 C 0.51482 0.42075 0.27036 0.0
C802 C 0.55514 0.3956 0.23722 0.0
N803 N 0.55735 0.44395 0.25386 0.0
C804 C 0.5302 0.44458 0.27025 0.0
C805 C 0.56985 0.41984 0.23757 0.0
C806 C 0.52743 0.39611 0.25377 0.0
C807 C 0.62276 0.55168 0.3783 0.0
N808 N 0.5956 0.55538 0.36682 0.0
C809 C 0.63484 0.55763 0.45274 0.0
C810 C 0.6189 0.56739 0.51597 0.0
C811 C 0.59119 0.57106 0.50408 0.0
C812 C 0.57984 0.5649 0.4288 0.0
C813 C 0.5585 0.62881 0.27832 0.0
C814 C 0.5328 0.58052 0.23982 0.0
C815 C 0.57242 0.6042 0.28051 0.0
N816 N 0.55949 0.58042 0.26192 0.0
C817 C 0.51822 0.60474 0.23706 0.0
C818 C 0.53121 0.62902 0.25653 0.0
C819 C 0.54783 0.51546 0.14449 0.0
C820 C 0.63583 0.46538 0.07228 0.0
C821 C 0.58041 0.45903 0.09019 0.0
C822 C 0.59255 0.45271 0.01617 0.0
C823 C 0.62047 0.45591 0.00732 0.0
N824 N 0.5956 0.46824 0.1539 0.0
C825 C 0.62298 0.47151 0.14539 0.0
Co826 Co 0.2936 0.83093 1.00241 0.0
Co827 Co 0.22471 0.83057 0.01426 0.0
O828 O 0.2591 0.85086 0.00832 0.0
C829 C 0.30528 0.88095 0.10293 0.0
O830 O 0.27956 0.88335 0.12147 0.0
C831 C 0.21197 0.88194 0.91982 0.0
O832 O 0.23778 0.88797 0.91264 0.0
O833 O 0.23402 0.81301 0.90937 0.0
O834 O 0.27607 0.8002 0.94103 0.0
H835 H 0.16752 0.74657 0.98625 0.0
H836 H 0.29178 0.88764 0.94188 0.0
O837 O 0.31341 0.86093 0.06072 0.0
H838 H 0.32341 0.83306 0.71043 0.0
H839 H 0.39463 0.8206 0.96846 0.0
H840 H 0.30866 0.77354 0.02975 0.0
H841 H 0.31352 0.81142 0.84162 0.0
H842 H 0.35149 0.84571 0.97001 0.0
O843 O 0.20462 0.86009 0.95496 0.0
H844 H 0.21004 0.77303 0.98574 0.0
H845 H 0.1668 0.8444 0.04834 0.0
H846 H 0.35133 0.74762 0.02825 0.0
H847 H 0.3018 0.91017 0.8121 0.0
H848 H 0.39473 0.77118 0.99742 0.0
H849 H 0.31765 0.88282 0.69503 0.0
O850 O 0.28446 0.81331 0.10745 0.0
H851 H 0.21583 0.90961 0.2057 0.0
H852 H 0.20475 0.81078 0.17457 0.0
H853 H 0.19445 0.8321 0.3058 0.0
H854 H 0.19983 0.88192 0.32202 0.0
H855 H 0.22638 0.8874 0.0761 0.0
H856 H 0.12379 0.81877 0.04875 0.0
H857 H 0.12398 0.76946 0.01783 0.0
O858 O 0.24242 0.80015 0.07585 0.0
C859 C 0.25521 0.79896 0.8954 0.0
C860 C 0.16718 0.76803 0.99997 0.0
C861 C 0.14263 0.80855 0.03499 0.0
N862 N 0.19095 0.81021 0.01717 0.0
C863 C 0.1912 0.78312 0.99989 0.0
C864 C 0.16705 0.82298 0.03441 0.0
C865 C 0.14275 0.78089 0.01764 0.0
C866 C 0.29883 0.8756 0.89155 0.0
N867 N 0.30198 0.84823 0.89958 0.0
C868 C 0.30441 0.88847 0.81804 0.0
C869 C 0.31327 0.87312 0.75236 0.0
C870 C 0.31648 0.8452 0.76094 0.0
C871 C 0.31072 0.83304 0.83537 0.0
C872 C 0.37585 0.8101 0.98184 0.0
C873 C 0.32743 0.78392 0.01589 0.0
C874 C 0.35135 0.82423 0.98301 0.0
N875 N 0.32752 0.81107 0.99947 0.0
C876 C 0.35155 0.76914 0.0153 0.0
C877 C 0.37589 0.78237 0.99807 0.0
C878 C 0.2633 0.79908 0.1214 0.0
C879 C 0.2133 0.8879 0.19935 0.0
C880 C 0.20738 0.83243 0.18109 0.0
C881 C 0.20139 0.84441 0.25559 0.0
C882 C 0.20438 0.87235 0.26462 0.0
N883 N 0.21612 0.8478 0.11717 0.0
C884 C 0.2191 0.8752 0.12575 0.0
Co885 Co 0.93966 0.47562 0.76009 0.0
Co886 Co 0.93909 0.54448 0.75325 0.0
O887 O 0.91921 0.50984 0.75534 0.0
C888 C 0.88838 0.46296 0.66448 0.0
O889 O 0.88262 0.48879 0.65747 0.0
C890 C 0.88653 0.55653 0.84361 0.0
O891 O 0.87998 0.53076 0.84716 0.0
O892 O 0.95583 0.53457 0.85889 0.0
O893 O 0.96977 0.49321 0.82384 0.0
H894 H 0.02163 0.60276 0.79641 0.0
H895 H 0.88266 0.47712 0.8206 0.0
O896 O 0.91028 0.45556 0.69903 0.0
H897 H 0.93695 0.44373 0.04999 0.0
H898 H 0.95164 0.3747 0.7918 0.0
H899 H 0.99735 0.46156 0.73278 0.0
H900 H 0.95874 0.45458 0.91979 0.0
H901 H 0.92591 0.41748 0.79192 0.0
O902 O 0.9089 0.56391 0.81154 0.0
H903 H 0.99577 0.55992 0.79193 0.0
H904 H 0.92513 0.60231 0.71834 0.0
H905 H 0.02393 0.4193 0.73292 0.0
H906 H 0.86 0.46612 0.94923 0.0
H907 H 1.00105 0.37544 0.76246 0.0
H908 H 0.88717 0.44936 0.06536 0.0
O909 O 0.95787 0.48575 0.65619 0.0
H910 H 0.86173 0.55313 0.55592 0.0
H911 H 0.95995 0.56597 0.59578 0.0
H912 H 0.9397 0.57664 0.46346 0.0
H913 H 0.89017 0.57037 0.44284 0.0
H914 H 0.8829 0.54228 0.68672 0.0
H915 H 0.95017 0.64564 0.72248 0.0
H916 H 0.99883 0.64604 0.7614 0.0
O917 O 0.97023 0.52757 0.69293 0.0
C918 C 0.97025 0.51355 0.87164 0.0
C919 C 1.00046 0.60285 0.77915 0.0
C920 C 0.96037 0.62691 0.73761 0.0
N921 N 0.95902 0.57853 0.75427 0.0
C922 C 0.98571 0.57864 0.77645 0.0
C923 C 0.94628 0.6023 0.73549 0.0
C924 C 0.98765 0.62712 0.75951 0.0
C925 C 0.89465 0.46959 0.87021 0.0
N926 N 0.92202 0.4664 0.86201 0.0
C927 C 0.88169 0.46349 0.94323 0.0
C928 C 0.89694 0.45413 0.0084 0.0
C929 C 0.92486 0.45099 0.99983 0.0
C930 C 0.93711 0.45727 0.92589 0.0
C931 C 0.96184 0.39367 0.77878 0.0
C932 C 0.98725 0.44258 0.74587 0.0
C933 C 0.94735 0.41795 0.77838 0.0
N934 N 0.96009 0.44202 0.76215 0.0
C935 C 1.00241 0.4187 0.74581 0.0
C936 C 0.98956 0.3941 0.76235 0.0
C937 C 0.97216 0.50715 0.64573 0.0
C938 C 0.88332 0.55602 0.56418 0.0
C939 C 0.93845 0.56293 0.58734 0.0
C940 C 0.92706 0.56914 0.51223 0.0
C941 C 0.89929 0.56565 0.50073 0.0
N942 N 0.92267 0.55352 0.64952 0.0
C943 C 0.89543 0.55001 0.63846 0.0
C944 C 0.27597 0.26095 0.2006 0.0
C945 C 0.25442 0.27956 0.19281 0.0
C946 C 0.27774 0.24315 0.26671 0.0
C947 C 0.25806 0.24306 0.32843 0.0
H948 H 0.29178 0.26001 0.15514 0.0
H949 H 0.29467 0.22924 0.26895 0.0
S950 S 0.19786 0.28836 0.3388 0.0
N951 N 0.21314 0.29702 0.25373 0.0
N952 N 0.2165 0.26398 0.37808 0.0
C953 C 0.23645 0.26173 0.32176 0.0
C954 C 0.23461 0.27979 0.25407 0.0
C955 C 0.99138 0.99217 0.50358 0.0
C956 C 0.99157 0.01184 0.44189 0.0
C957 C 0.00924 0.99381 0.56964 0.0
C958 C 0.02816 0.01522 0.57738 0.0
H959 H 0.97718 0.97538 0.50136 0.0
H960 H 1.00809 0.97804 0.61517 0.0
S961 S 0.0379 0.07159 0.43116 0.0
N962 N 0.0132 0.05315 0.39203 0.0
N963 N 0.04629 0.05628 0.51628 0.0
C964 C 0.0287 0.03499 0.51605 0.0
C965 C 0.01062 0.03326 0.44843 0.0
C966 C 0.27911 0.7434 0.75109 0.0
C967 C 0.2594 0.7434 0.6895 0.0
C968 C 0.27739 0.76118 0.81738 0.0
C969 C 0.25585 0.7798 0.8254 0.0
H970 H 0.29598 0.72941 0.74863 0.0
H971 H 0.29318 0.7602 0.86285 0.0
S972 S 0.19937 0.78896 0.67947 0.0
N973 N 0.21795 0.76455 0.63999 0.0
N974 N 0.21466 0.79746 0.76462 0.0
C975 C 0.23607 0.78015 0.76413 0.0
C976 C 0.23788 0.76216 0.69631 0.0
C977 C 0.50763 0.02952 0.06846 0.0
C978 C 0.48869 1.00814 0.07637 0.0
C979 C 0.52548 0.03106 1.00222 0.0
C980 C 0.52522 0.01134 0.94058 0.0
H981 H 0.50882 0.0453 0.11398 0.0
H982 H 0.53973 0.04781 0.99984 0.0
S983 S 0.47873 0.95173 0.9302 0.0
N984 N 0.47043 0.9671 0.01535 0.0
N985 N 0.50345 0.97009 0.89089 0.0
C986 C 0.50611 0.99 0.94727 0.0
C987 C 0.48806 0.98836 0.015 0.0
C988 C 0.24108 0.76113 0.19904 0.0
C989 C 0.26266 0.77985 0.19119 0.0
C990 C 0.2393 0.74331 0.26519 0.0
C991 C 0.25899 0.74336 0.3268 0.0
H992 H 0.22529 0.76009 0.15356 0.0
H993 H 0.22239 0.72926 0.26754 0.0
S994 S 0.31917 0.78913 0.33713 0.0
N995 N 0.30391 0.79763 0.25205 0.0
N996 N 0.30052 0.76462 0.37643 0.0
C997 C 0.28058 0.7622 0.32011 0.0
C998 C 0.28245 0.78024 0.25244 0.0
C999 C 0.50683 0.99276 0.45091 0.0
C1000 C 0.48861 0.01461 0.44246 0.0
C1001 C 0.52472 0.99099 0.51687 0.0
C1002 C 0.52528 0.01097 0.57775 0.0
H1003 H 0.50741 0.97674 0.40605 0.0
H1004 H 0.53835 0.97383 0.51968 0.0
S1005 S 0.48106 0.07202 0.58621 0.0
N1006 N 0.472 0.05649 0.50194 0.0
N1007 N 0.50516 0.05312 0.6259 0.0
C1008 C 0.50696 0.03285 0.57042 0.0
C1009 C 0.48883 0.0347 0.50294 0.0
C1010 C 0.2389 0.24291 0.75242 0.0
C1011 C 0.25894 0.24267 0.69171 0.0
C1012 C 0.24045 0.2608 0.81851 0.0
C1013 C 0.26215 0.27932 0.82728 0.0
H1014 H 0.22183 0.22906 0.74935 0.0
H1015 H 0.22438 0.26 0.8632 0.0
S1016 S 0.31965 0.28778 0.68408 0.0
N1017 N 0.30098 0.26342 0.64404 0.0
N1018 N 0.30396 0.29656 0.76828 0.0
C1019 C 0.28231 0.27941 0.76698 0.0
C1020 C 0.28067 0.2613 0.69934 0.0
C1021 C 0.00946 0.02958 0.95152 0.0
C1022 C 0.02775 1.00779 0.94291 0.0
C1023 C 0.9917 0.03135 0.01779 0.0
C1024 C 0.99135 0.01144 0.07882 0.0
H1025 H 1.00874 0.04555 0.90659 0.0
H1026 H 0.97802 0.04846 0.02074 0.0
S1027 S 0.03577 0.95055 0.08685 0.0
N1028 N 0.04462 0.96603 1.00229 0.0
N1029 N 0.01168 0.9694 0.1269 0.0
C1030 C 0.0097 0.9896 0.0713 0.0
C1031 C 0.02771 0.98775 1.00349 0.0
C1032 C 0.74063 0.76057 0.81172 0.0
C1033 C 0.76248 0.74233 0.82006 0.0
C1034 C 0.73874 0.77833 0.74551 0.0
C1035 C 0.7586 0.77877 0.68434 0.0
H1036 H 0.72473 0.7613 0.85693 0.0
H1037 H 0.72164 0.79204 0.74293 0.0
S1038 S 0.81955 0.73443 0.67529 0.0
N1039 N 0.80419 0.72553 0.76 0.0
N1040 N 0.80059 0.75849 0.63556 0.0
C1041 C 0.78045 0.7604 0.69142 0.0
C1042 C 0.78242 0.74237 0.75912 0.0
C1043 C 0.73749 0.27766 0.26347 0.0
C1044 C 0.75705 0.27757 0.32547 0.0
C1045 C 0.73929 0.25987 0.19717 0.0
C1046 C 0.76078 0.24118 0.18957 0.0
H1047 H 0.72069 0.29173 0.26562 0.0
H1048 H 0.72362 0.26092 0.15133 0.0
S1049 S 0.81681 0.23167 0.33682 0.0
N1050 N 0.79825 0.25616 0.3759 0.0
N1051 N 0.80171 0.22328 0.25128 0.0
C1052 C 0.7804 0.24071 0.2513 0.0
C1053 C 0.77849 0.25868 0.31911 0.0
C1054 C 0.77563 0.25992 0.81609 0.0
C1055 C 0.75414 0.24108 0.82374 0.0
C1056 C 0.77741 0.27773 0.74994 0.0
C1057 C 0.75779 0.27757 0.68813 0.0
H1058 H 0.79137 0.26104 0.8617 0.0
H1059 H 0.79426 0.29185 0.74774 0.0
S1060 S 0.69779 0.23158 0.67738 0.0
N1061 N 0.71302 0.22313 0.76258 0.0
N1062 N 0.71638 0.25615 0.63821 0.0
C1063 C 0.73626 0.25865 0.69467 0.0
C1064 C 0.73441 0.2406 0.76234 0.0
C1065 C 0.73887 0.74566 0.24528 0.0
C1066 C 0.75882 0.74552 0.18434 0.0
C1067 C 0.74049 0.76349 0.31145 0.0
C1068 C 0.76213 0.78213 0.31996 0.0
H1069 H 0.72192 0.73165 0.24253 0.0
H1070 H 0.72455 0.76251 0.35648 0.0
S1071 S 0.81933 0.79087 0.17589 0.0
N1072 N 0.80067 0.76647 0.13602 0.0
N1073 N 0.80375 0.79958 0.26035 0.0
C1074 C 0.78214 0.78238 0.25925 0.0
C1075 C 0.78046 0.76427 0.19161 0.0
C1076 C 0.51025 0.49282 0.06634 0.0
C1077 C 0.5289 0.51448 0.07401 0.0
C1078 C 0.49257 0.49082 0.99997 0.0
C1079 C 0.49265 0.51038 0.93801 0.0
H1080 H 0.50914 0.47716 0.11223 0.0
H1081 H 0.4785 0.47391 0.99789 0.0
S1082 S 0.53826 0.57065 0.92691 0.0
N1083 N 0.54668 0.55562 0.01244 0.0
N1084 N 0.5139 0.55181 0.88764 0.0
C1085 C 0.51146 0.532 0.94438 0.0
C1086 C 0.52938 0.53409 0.01225 0.0
C1087 C 0.01034 0.49028 0.45087 0.0
C1088 C 0.02891 0.51198 0.44244 0.0
C1089 C 0.99247 0.48862 0.51702 0.0
C1090 C 0.9923 0.50856 0.57801 0.0
H1091 H 0.00942 0.47437 0.40572 0.0
H1092 H 0.97847 0.47167 0.5197 0.0
S1093 S 0.03772 0.56902 0.58707 0.0
N1094 N 0.04639 0.55353 0.50245 0.0
N1095 N 0.01332 0.55033 0.62674 0.0
C1096 C 0.01108 0.53018 0.57095 0.0
C1097 C 0.02917 0.53193 0.50333 0.0
C1098 C 0.02558 0.48916 0.01579 0.0
C1099 C 0.02545 0.50862 0.0781 0.0
C1100 C 1.00788 0.4911 0.94945 0.0
C1101 C 0.98918 0.5126 0.94214 0.0
H1102 H 0.0397 0.47239 0.01756 0.0
H1103 H 0.00903 0.47553 0.90328 0.0
S1104 S 0.9796 0.56839 0.09037 0.0
N1105 N 1.00404 0.54973 0.12926 0.0
N1106 N 0.97124 0.55344 1.00453 0.0
C1107 C 0.98863 0.53209 1.00429 0.0
C1108 C 1.00656 0.53006 0.07213 0.0
C1109 C 0.50784 0.49236 0.56555 0.0
C1110 C 0.48929 0.51396 0.57383 0.0
C1111 C 0.52566 0.49069 0.49935 0.0
C1112 C 0.52581 0.51053 0.43817 0.0
H1113 H 0.50879 0.47651 0.61084 0.0
H1114 H 0.53963 0.47381 0.49677 0.0
S1115 S 0.4805 0.57076 0.42881 0.0
N1116 N 0.47184 0.55534 0.51361 0.0
N1117 N 0.50485 0.55215 0.38918 0.0
C1118 C 0.50708 0.53208 0.44513 0.0
C1119 C 0.48903 0.53383 0.51281 0.0
C1120 C 0.14371 0.41597 0.13543 0.0
C1121 C 0.15002 0.44384 0.13874 0.0
C1122 C 0.16385 0.3964 0.12232 0.0
C1123 C 0.19132 0.40375 0.11337 0.0
H1124 H 0.12296 0.40913 0.1429 0.0
H1125 H 0.15781 0.37528 0.11956 0.0
S1126 S 0.21879 0.47398 0.11745 0.0
N1127 N 0.18588 0.47776 0.13179 0.0
N1128 N 0.22372 0.44103 0.10811 0.0
C1129 C 0.19798 0.43154 0.11688 0.0
C1130 C 0.17737 0.45154 0.12911 0.0
C1131 C 0.8516 0.90063 0.39482 0.0
C1132 C 0.82406 0.9077 0.40243 0.0
C1133 C 0.87171 0.92032 0.38167 0.0
C1134 C 0.86531 0.94808 0.37629 0.0
H1135 H 0.8578 0.87962 0.39892 0.0
H1136 H 0.89251 0.91361 0.37561 0.0
S1137 S 0.79628 0.97757 0.39278 0.0
N1138 N 0.79146 0.94464 0.40399 0.0
N1139 N 0.82924 0.98163 0.3796 0.0
C1140 C 0.83787 0.95553 0.38425 0.0
C1141 C 0.81728 0.93538 0.39697 0.0
C1142 C 0.3185 0.59146 0.63158 0.0
C1143 C 0.32557 0.61906 0.62405 0.0
C1144 C 0.33827 0.57148 0.64554 0.0
C1145 C 0.36594 0.57827 0.65273 0.0
H1146 H 0.29756 0.58509 0.62551 0.0
H1147 H 0.3317 0.5506 0.65171 0.0
S1148 S 0.39526 0.64765 0.63798 0.0
N1149 N 0.36234 0.65208 0.62671 0.0
N1150 N 0.39935 0.6147 0.64954 0.0
C1151 C 0.37327 0.6058 0.64498 0.0
C1152 C 0.35317 0.62611 0.63164 0.0
C1153 C 0.66417 0.12281 0.89556 0.0
C1154 C 0.69193 0.11634 0.8998 0.0
C1155 C 0.64442 0.10278 0.8821 0.0
C1156 C 0.65143 0.07526 0.87334 0.0
H1157 H 0.65756 0.14362 0.90232 0.0
H1158 H 0.62341 0.10902 0.87844 0.0
S1159 S 0.72125 0.04731 0.88125 0.0
N1160 N 0.7254 0.08022 0.89514 0.0
N1161 N 0.68829 0.04258 0.87045 0.0
C1162 C 0.6791 0.0684 0.8783 0.0
C1163 C 0.69931 0.0889 0.89113 0.0
C1164 C 0.17978 0.57105 0.37042 0.0
C1165 C 0.15207 0.57755 0.36376 0.0
C1166 C 0.19951 0.59121 0.38435 0.0
C1167 C 0.19236 0.61873 0.39239 0.0
H1168 H 0.18642 0.55025 0.36383 0.0
H1169 H 0.22048 0.58504 0.38995 0.0
S1170 S 0.12255 0.64663 0.37997 0.0
N1171 N 0.11855 0.61365 0.36797 0.0
N1172 N 0.15547 0.65138 0.39083 0.0
C1173 C 0.16472 0.62551 0.38537 0.0
C1174 C 0.14466 0.605 0.37203 0.0
C1175 C 0.67679 0.94944 0.64104 0.0
C1176 C 0.64904 0.9427 0.64562 0.0
C1177 C 0.69668 0.92948 0.62866 0.0
C1178 C 0.6897 0.90189 0.61996 0.0
H1179 H 0.68335 0.97029 0.64828 0.0
H1180 H 0.71768 0.93585 0.6248 0.0
S1181 S 0.61988 0.87337 0.6268 0.0
N1182 N 0.61567 0.9063 0.63894 0.0
N1183 N 0.65289 0.86891 0.61812 0.0
C1184 C 0.66202 0.89486 0.62458 0.0
C1185 C 0.64178 0.91519 0.63669 0.0
C1186 C 0.34105 0.44973 0.88213 0.0
C1187 C 0.36865 0.44279 0.87512 0.0
C1188 C 0.321 0.42988 0.89536 0.0
C1189 C 0.32769 0.40223 0.90269 0.0
H1190 H 0.33475 0.47065 0.87609 0.0
H1191 H 0.30012 0.43637 0.90099 0.0
S1192 S 0.39702 0.37322 0.88947 0.0
N1193 N 0.40158 0.40616 0.87784 0.0
N1194 N 0.36403 0.36897 0.90083 0.0
C1195 C 0.35522 0.39501 0.89578 0.0
C1196 C 0.37562 0.41521 0.88255 0.0
C1197 C 0.82026 0.09161 0.1242 0.0
C1198 C 0.82706 0.11923 0.11531 0.0
C1199 C 0.84027 0.07187 0.13766 0.0
C1200 C 0.86793 0.0789 0.1432 0.0
H1201 H 0.79933 0.08507 0.1197 0.0
H1202 H 0.8339 0.05097 0.14505 0.0
S1203 S 0.89657 0.14844 0.12431 0.0
N1204 N 0.86356 0.15256 0.11428 0.0
N1205 N 0.90102 0.11557 0.13714 0.0
C1206 C 0.875 0.10645 0.13403 0.0
C1207 C 0.85464 0.12653 0.1208 0.0
C1208 C 0.81903 0.59127 0.88772 0.0
C1209 C 0.82632 0.6188 0.89588 0.0
C1210 C 0.83863 0.57117 0.87311 0.0
C1211 C 0.86635 0.57775 0.86575 0.0
H1212 H 0.79803 0.58507 0.89367 0.0
H1213 H 0.83189 0.55036 0.86645 0.0
S1214 S 0.89623 0.64686 0.8821 0.0
N1215 N 0.86337 0.65152 0.894 0.0
N1216 N 0.90005 0.61391 0.86947 0.0
C1217 C 0.87391 0.6052 0.87418 0.0
C1218 C 0.85398 0.62564 0.88839 0.0
C1219 C 0.16656 0.12473 0.63946 0.0
C1220 C 0.19334 0.1169 0.62163 0.0
C1221 C 0.14608 0.10546 0.65312 0.0
C1222 C 0.15131 0.07743 0.64832 0.0
H1223 H 0.16129 0.14602 0.64286 0.0
H1224 H 0.12589 0.11268 0.66709 0.0
S1225 S 0.21794 0.04605 0.60251 0.0
N1226 N 0.22395 0.07899 0.59955 0.0
N1227 N 0.18543 0.0428 0.62451 0.0
C1228 C 0.17797 0.06924 0.63018 0.0
C1229 C 0.19897 0.08893 0.61725 0.0
C1230 C 0.69744 0.43021 0.39101 0.0
C1231 C 0.69061 0.40248 0.39568 0.0
C1232 C 0.67752 0.45015 0.37873 0.0
C1233 C 0.6499 0.44325 0.37035 0.0
H1234 H 0.71831 0.4367 0.39806 0.0
H1235 H 0.68395 0.47114 0.37474 0.0
S1236 S 0.62118 0.3735 0.37762 0.0
N1237 N 0.65411 0.3692 0.38921 0.0
N1238 N 0.61682 0.40653 0.36914 0.0
C1239 C 0.6428 0.41559 0.37517 0.0
C1240 C 0.66307 0.39529 0.38696 0.0
C1241 C 0.37238 0.91742 0.1374 0.0
C1242 C 0.36468 0.9445 0.15125 0.0
C1243 C 0.35302 0.89709 0.12286 0.0
C1244 C 0.32505 0.9028 0.12305 0.0
H1245 H 0.39362 0.91184 0.13751 0.0
H1246 H 0.36011 0.87665 0.11176 0.0
S1247 S 0.29405 0.97035 0.15776 0.0
N1248 N 0.327 0.97591 0.16487 0.0
N1249 N 0.29063 0.93765 0.13856 0.0
C1250 C 0.317 0.92975 0.13751 0.0
C1251 C 0.33679 0.95059 0.15114 0.0
C1252 C 0.81975 0.42978 0.62247 0.0
C1253 C 0.82591 0.40192 0.61867 0.0
C1254 C 0.8401 0.4494 0.63499 0.0
C1255 C 0.86751 0.44201 0.64453 0.0
H1256 H 0.79907 0.43662 0.61447 0.0
H1257 H 0.83418 0.4705 0.63821 0.0
S1258 S 0.89452 0.37175 0.64006 0.0
N1259 N 0.86154 0.36801 0.6273 0.0
N1260 N 0.89966 0.40471 0.64795 0.0
C1261 C 0.87394 0.41422 0.6407 0.0
C1262 C 0.85322 0.39427 0.62861 0.0
C1263 C 0.35146 0.12538 0.38461 0.0
C1264 C 0.32384 0.11836 0.39164 0.0
C1265 C 0.37144 0.10565 0.37162 0.0
C1266 C 0.36479 0.07791 0.36626 0.0
H1267 H 0.35782 0.14638 0.38931 0.0
H1268 H 0.39234 0.11225 0.36618 0.0
S1269 S 0.29545 0.04858 0.37971 0.0
N1270 N 0.29088 0.0815 0.39138 0.0
N1271 N 0.32841 0.04446 0.36762 0.0
C1272 C 0.33726 0.07053 0.37307 0.0
C1273 C 0.31682 0.09071 0.38536 0.0
C1274 C 0.68004 0.57376 0.14744 0.0
C1275 C 0.65221 0.57996 0.15208 0.0
C1276 C 0.69959 0.59406 0.13333 0.0
C1277 C 0.69215 0.62141 0.12288 0.0
H1278 H 0.68689 0.55311 0.1559 0.0
H1279 H 0.72068 0.58813 0.12949 0.0
S1280 S 0.62193 0.64846 0.12907 0.0
N1281 N 0.61826 0.61555 0.1435 0.0
N1282 N 0.65485 0.65356 0.11953 0.0
C1283 C 0.66439 0.62787 0.12757 0.0
C1284 C 0.6445 0.60722 0.14143 0.0
C1285 C 0.19786 0.92998 0.89136 0.0
C1286 C 0.19093 0.90235 0.89857 0.0
C1287 C 0.178 0.94985 0.87761 0.0
C1288 C 0.15039 0.94291 0.8699 0.0
H1289 H 0.21877 0.93644 0.89758 0.0
H1290 H 0.18447 0.97078 0.87179 0.0
S1291 S 0.12144 0.87338 0.88352 0.0
N1292 N 0.15435 0.86911 0.89575 0.0
N1293 N 0.11717 0.90632 0.8717 0.0
C1294 C 0.14318 0.91534 0.87707 0.0
C1295 C 0.16338 0.89514 0.89088 0.0
loop_
_geom_bond_atom_site_label_1
_geom_bond_atom_site_label_2
_geom_bond_distance
_geom_bond_site_symmetry_2
_ccdc_geom_bond_type
Co0 O2 2.143 . S
Co0 O8 2.074 . S
Co0 O11 2.093 1_554 S
Co0 O24 2.097 1_554 S
Co0 N41 2.151 . S
Co0 N49 2.214 . S
Co1 O2 2.160 1_556 S
Co1 O7 2.058 1_556 S
Co1 O17 2.057 1_556 S
Co1 O32 2.037 . S
Co1 N36 2.145 . S
Co1 N57 2.257 . S
O2 Co0 2.143 . S
O2 Co1 2.160 1_554 S
C3 O4 1.278 . S
C3 O11 1.224 . S
O4 C3 1.278 . S
C5 O6 1.245 . S
C5 O17 1.232 . S
O6 C5 1.245 . S
O7 Co1 2.058 1_554 S
O7 C33 1.269 . S
O8 Co0 2.074 . S
O8 C33 1.257 . S
H9 C34 0.930 . S
H10 C40 0.930 . S
O11 Co0 2.093 1_556 S
O11 C3 1.224 . S
H12 C44 0.929 . S
H13 C46 0.930 . S
H14 C47 0.930 . S
H15 C45 0.929 . S
H16 C48 0.928 . S
O17 Co1 2.057 1_554 S
O17 C5 1.232 . S
H18 C37 0.929 . S
H19 C38 0.929 1_554 S
H20 C50 0.931 . S
H21 C42 0.929 . S
H22 C51 0.930 . S
H23 C43 0.931 . S
O24 Co0 2.097 1_556 S
O24 C52 1.214 . S
H25 C53 0.929 . S
H26 C54 0.929 . S
H27 C55 0.930 . S
H28 C56 0.929 . S
H29 C58 0.930 . S
H30 C35 0.930 . S
H31 C39 0.930 . S
O32 Co1 2.037 . S
O32 C52 1.234 . S
C33 O7 1.269 . S
C33 O8 1.257 . S
C34 H9 0.930 . S
C34 C37 1.388 . S
C34 C39 1.418 . S
C35 H30 0.930 . S
C35 C38 1.404 . S
C35 C39 1.353 . S
N36 Co1 2.145 . S
N36 C37 1.397 . S
N36 C38 1.334 . S
C37 H18 0.929 . S
C37 C34 1.388 . S
C37 N36 1.397 . S
C38 H19 0.929 1_556 S
C38 C35 1.404 . S
C38 N36 1.334 . S
C39 H31 0.930 . S
C39 C34 1.418 . S
C39 C35 1.353 . S
C40 H10 0.930 . S
C40 N41 1.330 . S
C40 C42 1.446 . S
N41 Co0 2.151 . S
N41 C40 1.330 . S
N41 C45 1.418 . S
C42 H21 0.929 . S
C42 C40 1.446 . S
C42 C43 1.332 . S
C43 H23 0.931 . S
C43 C42 1.332 . S
C43 C44 1.267 . S
C44 H12 0.929 . S
C44 C43 1.267 . S
C44 C45 1.251 . S
C45 H15 0.929 . S
C45 N41 1.418 . S
C45 C44 1.251 . S
C46 H13 0.930 . S
C46 C48 1.406 . S
C46 C51 1.261 . S
C47 H14 0.930 . S
C47 N49 1.325 1_556 S
C47 C50 1.357 . S
C48 H16 0.928 . S
C48 C46 1.406 . S
C48 N49 1.261 . S
N49 Co0 2.214 . S
N49 C47 1.325 1_554 S
N49 C48 1.261 . S
C50 H20 0.931 . S
C50 C47 1.357 . S
C50 C51 1.312 1_556 S
C51 H22 0.930 . S
C51 C46 1.261 . S
C51 C50 1.312 1_554 S
C52 O24 1.214 . S
C52 O32 1.234 . S
C53 H25 0.929 . S
C53 C56 1.391 . S
C53 C58 1.391 . S
C54 H26 0.929 . S
C54 C55 1.390 . S
C54 N57 1.391 . S
C55 H27 0.930 . S
C55 C54 1.390 . S
C55 C56 1.392 . S
C56 H28 0.929 . S
C56 C53 1.391 . S
C56 C55 1.392 . S
N57 Co1 2.257 . S
N57 C54 1.391 . S
N57 C58 1.388 . S
C58 H29 0.930 . S
C58 C53 1.391 . S
C58 N57 1.388 . S
Co59 O61 2.124 1_565 S
Co59 O67 2.074 . S
Co59 O70 2.093 . S
Co59 O83 2.097 . S
Co59 N100 2.151 . S
Co59 N108 2.214 . S
Co60 O61 2.179 . S
Co60 O66 2.058 . S
Co60 O76 2.057 . S
Co60 O91 2.037 . S
Co60 N95 2.145 . S
Co60 N116 2.257 . S
O61 Co59 2.124 1_545 S
O61 Co60 2.179 . S
C62 O63 1.278 . S
C62 O70 1.224 . S
O63 C62 1.278 . S
C64 O65 1.245 . S
C64 O76 1.232 . S
O65 C64 1.245 . S
O66 Co60 2.058 . S
O66 C92 1.269 . S
O67 Co59 2.074 . S
O67 C92 1.257 1_565 S
H68 C93 0.930 1_455 S
H69 C99 0.930 . S
O70 Co59 2.093 . S
O70 C62 1.224 . S
H71 C103 0.929 1_556 S
H72 C105 0.930 . S
H73 C106 0.930 . S
H74 C104 0.929 . S
H75 C107 0.928 . S
O76 Co60 2.057 . S
O76 C64 1.232 . S
H77 C96 0.929 . S
H78 C97 0.929 . S
H79 C109 0.927 1_455 S
H80 C101 0.929 . S
H81 C110 0.930 1_455 S
H82 C102 0.931 1_556 S
O83 Co59 2.097 . S
O83 C111 1.214 . S
H84 C112 0.929 . S
H85 C113 0.929 . S
H86 C114 0.930 . S
H87 C115 0.929 . S
H88 C117 0.930 . S
H89 C94 0.930 . S
H90 C98 0.930 . S
O91 Co60 2.037 . S
O91 C111 1.234 1_545 S
C92 O66 1.269 . S
C92 O67 1.257 1_545 S
C93 H68 0.930 1_655 S
C93 C96 1.388 . S
C93 C98 1.418 . S
C94 H89 0.930 . S
C94 C97 1.404 . S
C94 C98 1.353 . S
N95 Co60 2.145 . S
N95 C96 1.397 . S
N95 C97 1.334 . S
C96 H77 0.929 . S
C96 C93 1.388 . S
C96 N95 1.397 . S
C97 H78 0.929 . S
C97 C94 1.404 . S
C97 N95 1.334 . S
C98 H90 0.930 . S
C98 C93 1.418 . S
C98 C94 1.353 . S
C99 H69 0.930 . S
C99 N100 1.330 . S
C99 C101 1.446 . S
N100 Co59 2.151 . S
N100 C99 1.330 . S
N100 C104 1.418 . S
C101 H80 0.929 . S
C101 C99 1.446 . S
C101 C102 1.332 . S
C102 H82 0.931 1_554 S
C102 C101 1.332 . S
C102 C103 1.267 . S
C103 H71 0.929 1_554 S
C103 C102 1.267 . S
C103 C104 1.251 . S
C104 H74 0.929 . S
C104 N100 1.418 . S
C104 C103 1.251 . S
C105 H72 0.930 . S
C105 C107 1.406 . S
C105 C110 1.261 . S
C106 H73 0.930 . S
C106 N108 1.325 . S
C106 C109 1.360 . S
C107 H75 0.928 . S
C107 C105 1.406 . S
C107 N108 1.261 . S
N108 Co59 2.214 . S
N108 C106 1.325 . S
N108 C107 1.261 . S
C109 H79 0.927 1_655 S
C109 C106 1.360 . S
C109 C110 1.314 . S
C110 H81 0.930 1_655 S
C110 C105 1.261 . S
C110 C109 1.314 . S
C111 O83 1.214 . S
C111 O91 1.234 1_565 S
C112 H84 0.929 . S
C112 C115 1.391 . S
C112 C117 1.391 . S
C113 H85 0.929 . S
C113 C114 1.390 . S
C113 N116 1.391 . S
C114 H86 0.930 . S
C114 C113 1.390 . S
C114 C115 1.392 . S
C115 H87 0.929 . S
C115 C112 1.391 . S
C115 C114 1.392 . S
N116 Co60 2.257 . S
N116 C113 1.391 . S
N116 C117 1.388 . S
C117 H88 0.930 . S
C117 C112 1.391 . S
C117 N116 1.388 . S
Co118 O120 2.143 . S
Co118 O126 2.074 . S
Co118 O129 2.093 . S
Co118 O142 2.097 . S
Co118 N159 2.151 . S
Co118 N167 2.214 . S
Co119 O120 2.160 . S
Co119 O125 2.058 . S
Co119 O135 2.057 . S
Co119 O150 2.037 . S
Co119 N154 2.145 . S
Co119 N175 2.257 . S
O120 Co118 2.143 . S
O120 Co119 2.160 . S
C121 O122 1.278 . S
C121 O129 1.224 . S
O122 C121 1.278 . S
C123 O124 1.245 . S
C123 O135 1.232 . S
O124 C123 1.245 . S
O125 Co119 2.058 . S
O125 C151 1.269 . S
O126 Co118 2.074 . S
O126 C151 1.257 . S
H127 C152 0.930 . S
H128 C158 0.930 . S
O129 Co118 2.093 . S
O129 C121 1.224 . S
H130 C162 0.929 . S
H131 C164 0.930 . S
H132 C165 0.930 . S
H133 C163 0.929 . S
H134 C166 0.928 . S
O135 Co119 2.057 . S
O135 C123 1.232 . S
H136 C155 0.929 . S
H137 C156 0.929 . S
H138 C168 0.931 . S
H139 C160 0.929 . S
H140 C169 0.930 . S
H141 C161 0.931 . S
O142 Co118 2.097 . S
O142 C170 1.214 . S
H143 C171 0.929 . S
H144 C172 0.929 . S
H145 C173 0.930 . S
H146 C174 0.929 . S
H147 C176 0.930 . S
H148 C153 0.930 . S
H149 C157 0.930 . S
O150 Co119 2.037 . S
O150 C170 1.234 . S
C151 O125 1.269 . S
C151 O126 1.257 . S
C152 H127 0.930 . S
C152 C155 1.388 . S
C152 C157 1.418 . S
C153 H148 0.930 . S
C153 C156 1.404 . S
C153 C157 1.353 . S
N154 Co119 2.145 . S
N154 C155 1.397 . S
N154 C156 1.334 . S
C155 H136 0.929 . S
C155 C152 1.388 . S
C155 N154 1.397 . S
C156 H137 0.929 . S
C156 C153 1.404 . S
C156 N154 1.334 . S
C157 H149 0.930 . S
C157 C152 1.418 . S
C157 C153 1.353 . S
C158 H128 0.930 . S
C158 N159 1.330 . S
C158 C160 1.446 . S
N159 Co118 2.151 . S
N159 C158 1.330 . S
N159 C163 1.418 . S
C160 H139 0.929 . S
C160 C158 1.446 . S
C160 C161 1.332 . S
C161 H141 0.931 . S
C161 C160 1.332 . S
C161 C162 1.267 . S
C162 H130 0.929 . S
C162 C161 1.267 . S
C162 C163 1.251 . S
C163 H133 0.929 . S
C163 N159 1.418 . S
C163 C162 1.251 . S
C164 H131 0.930 . S
C164 C166 1.406 . S
C164 C169 1.261 . S
C165 H132 0.930 . S
C165 N167 1.325 . S
C165 C168 1.357 . S
C166 H134 0.928 . S
C166 C164 1.406 . S
C166 N167 1.261 . S
N167 Co118 2.214 . S
N167 C165 1.325 . S
N167 C166 1.261 . S
C168 H138 0.931 . S
C168 C165 1.357 . S
C168 C169 1.312 . S
C169 H140 0.930 . S
C169 C164 1.261 . S
C169 C168 1.312 . S
C170 O142 1.214 . S
C170 O150 1.234 . S
C171 H143 0.929 . S
C171 C174 1.391 . S
C171 C176 1.391 . S
C172 H144 0.929 . S
C172 C173 1.390 . S
C172 N175 1.391 . S
C173 H145 0.930 . S
C173 C172 1.390 . S
C173 C174 1.392 . S
C174 H146 0.929 . S
C174 C171 1.391 . S
C174 C173 1.392 . S
N175 Co119 2.257 . S
N175 C172 1.391 . S
N175 C176 1.388 . S
C176 H147 0.930 . S
C176 C171 1.391 . S
C176 N175 1.388 . S
Co177 O179 2.143 . S
Co177 O185 2.074 . S
Co177 O188 2.093 . S
Co177 O201 2.097 . S
Co177 N218 2.151 . S
Co177 N226 2.214 . S
Co178 O179 2.160 1_565 S
Co178 O184 2.058 . S
Co178 O194 2.057 . S
Co178 O209 2.037 . S
Co178 N213 2.145 . S
Co178 N234 2.257 . S
O179 Co177 2.143 . S
O179 Co178 2.160 1_545 S
C180 O181 1.278 . S
C180 O188 1.224 . S
O181 C180 1.278 . S
C182 O183 1.245 . S
C182 O194 1.232 . S
O183 C182 1.245 . S
O184 Co178 2.058 . S
O184 C210 1.269 . S
O185 Co177 2.074 . S
O185 C210 1.257 1_545 S
H186 C211 0.930 . S
H187 C217 0.930 . S
O188 Co177 2.093 . S
O188 C180 1.224 . S
H189 C221 0.929 . S
H190 C223 0.930 . S
H191 C224 0.930 . S
H192 C222 0.929 . S
H193 C225 0.928 . S
O194 Co178 2.057 . S
O194 C182 1.232 . S
H195 C214 0.929 . S
H196 C215 0.929 . S
H197 C227 0.931 . S
H198 C219 0.929 . S
H199 C228 0.930 . S
H200 C220 0.931 . S
O201 Co177 2.097 . S
O201 C229 1.214 . S
H202 C230 0.929 . S
H203 C231 0.929 . S
H204 C232 0.930 . S
H205 C233 0.929 . S
H206 C235 0.930 . S
H207 C212 0.930 . S
H208 C216 0.930 . S
O209 Co178 2.037 . S
O209 C229 1.234 1_565 S
C210 O184 1.269 . S
C210 O185 1.257 1_565 S
C211 H186 0.930 . S
C211 C214 1.388 . S
C211 C216 1.418 . S
C212 H207 0.930 . S
C212 C215 1.404 . S
C212 C216 1.353 . S
N213 Co178 2.145 . S
N213 C214 1.397 . S
N213 C215 1.334 . S
C214 H195 0.929 . S
C214 C211 1.388 . S
C214 N213 1.397 . S
C215 H196 0.929 . S
C215 C212 1.404 . S
C215 N213 1.334 . S
C216 H208 0.930 . S
C216 C211 1.418 . S
C216 C212 1.353 . S
C217 H187 0.930 . S
C217 N218 1.330 . S
C217 C219 1.446 . S
N218 Co177 2.151 . S
N218 C217 1.330 . S
N218 C222 1.418 . S
C219 H198 0.929 . S
C219 C217 1.446 . S
C219 C220 1.332 . S
C220 H200 0.931 . S
C220 C219 1.332 . S
C220 C221 1.267 . S
C221 H189 0.929 . S
C221 C220 1.267 . S
C221 C222 1.251 . S
C222 H192 0.929 . S
C222 N218 1.418 . S
C222 C221 1.251 . S
C223 H190 0.930 . S
C223 C225 1.406 . S
C223 C228 1.261 . S
C224 H191 0.930 . S
C224 N226 1.325 . S
C224 C227 1.357 . S
C225 H193 0.928 . S
C225 C223 1.406 . S
C225 N226 1.261 . S
N226 Co177 2.214 . S
N226 C224 1.325 . S
N226 C225 1.261 . S
C227 H197 0.931 . S
C227 C224 1.357 . S
C227 C228 1.312 . S
C228 H199 0.930 . S
C228 C223 1.261 . S
C228 C227 1.312 . S
C229 O201 1.214 . S
C229 O209 1.234 1_545 S
C230 H202 0.929 . S
C230 C233 1.391 1_556 S
C230 C235 1.391 . S
C231 H203 0.929 . S
C231 C232 1.390 1_556 S
C231 N234 1.391 . S
C232 H204 0.930 . S
C232 C231 1.390 1_554 S
C232 C233 1.392 . S
C233 H205 0.929 . S
C233 C230 1.391 1_554 S
C233 C232 1.392 . S
N234 Co178 2.257 . S
N234 C231 1.391 . S
N234 C235 1.388 . S
C235 H206 0.930 . S
C235 C230 1.391 . S
C235 N234 1.388 . S
Co236 O238 2.143 . S
Co236 O244 2.074 . S
Co236 O247 2.093 1_556 S
Co236 O260 2.097 1_556 S
Co236 N277 2.151 . S
Co236 N285 2.214 . S
Co237 O238 2.160 1_554 S
Co237 O243 2.058 1_554 S
Co237 O253 2.057 1_554 S
Co237 O268 2.037 . S
Co237 N272 2.145 . S
Co237 N293 2.257 . S
O238 Co236 2.143 . S
O238 Co237 2.160 1_556 S
C239 O240 1.278 . S
C239 O247 1.224 . S
O240 C239 1.278 . S
C241 O242 1.245 . S
C241 O253 1.232 . S
O242 C241 1.245 . S
O243 Co237 2.058 1_556 S
O243 C269 1.269 . S
O244 Co236 2.074 . S
O244 C269 1.257 . S
H245 C270 0.930 . S
H246 C276 0.930 . S
O247 Co236 2.093 1_554 S
O247 C239 1.224 . S
H248 C280 0.929 . S
H249 C282 0.930 . S
H250 C283 0.930 . S
H251 C281 0.929 . S
H252 C284 0.928 . S
O253 Co237 2.057 1_556 S
O253 C241 1.232 . S
H254 C273 0.929 . S
H255 C274 0.927 1_556 S
H256 C286 0.931 . S
H257 C278 0.929 . S
H258 C287 0.930 . S
H259 C279 0.931 . S
O260 Co236 2.097 1_554 S
O260 C288 1.214 . S
H261 C289 0.929 . S
H262 C290 0.929 . S
H263 C291 0.930 . S
H264 C292 0.929 . S
H265 C294 0.930 . S
H266 C271 0.930 . S
H267 C275 0.930 . S
O268 Co237 2.037 . S
O268 C288 1.234 . S
C269 O243 1.269 . S
C269 O244 1.257 . S
C270 H245 0.930 . S
C270 C273 1.388 . S
C270 C275 1.418 . S
C271 H266 0.930 . S
C271 C274 1.404 . S
C271 C275 1.353 . S
N272 Co237 2.145 . S
N272 C273 1.397 . S
N272 C274 1.334 . S
C273 H254 0.929 . S
C273 C270 1.388 . S
C273 N272 1.397 . S
C274 H255 0.927 1_554 S
C274 C271 1.404 . S
C274 N272 1.334 . S
C275 H267 0.930 . S
C275 C270 1.418 . S
C275 C271 1.353 . S
C276 H246 0.930 . S
C276 N277 1.330 . S
C276 C278 1.446 . S
N277 Co236 2.151 . S
N277 C276 1.330 . S
N277 C281 1.418 . S
C278 H257 0.929 . S
C278 C276 1.446 . S
C278 C279 1.332 . S
C279 H259 0.931 . S
C279 C278 1.332 . S
C279 C280 1.267 . S
C280 H248 0.929 . S
C280 C279 1.267 . S
C280 C281 1.251 . S
C281 H251 0.929 . S
C281 N277 1.418 . S
C281 C280 1.251 . S
C282 H249 0.930 . S
C282 C284 1.406 . S
C282 C287 1.261 . S
C283 H250 0.930 . S
C283 N285 1.325 1_554 S
C283 C286 1.357 . S
C284 H252 0.928 . S
C284 C282 1.406 . S
C284 N285 1.261 . S
N285 Co236 2.214 . S
N285 C283 1.325 1_556 S
N285 C284 1.261 . S
C286 H256 0.931 . S
C286 C283 1.357 . S
C286 C287 1.312 1_554 S
C287 H258 0.930 . S
C287 C282 1.261 . S
C287 C286 1.312 1_556 S
C288 O260 1.214 . S
C288 O268 1.234 . S
C289 H261 0.929 . S
C289 C292 1.391 . S
C289 C294 1.391 . S
C290 H262 0.929 . S
C290 C291 1.390 . S
C290 N293 1.391 . S
C291 H263 0.930 . S
C291 C290 1.390 . S
C291 C292 1.392 . S
C292 H264 0.929 . S
C292 C289 1.391 . S
C292 C291 1.392 . S
N293 Co237 2.257 . S
N293 C290 1.391 . S
N293 C294 1.388 . S
C294 H265 0.930 . S
C294 C289 1.391 . S
C294 N293 1.388 . S
Co295 O297 2.143 . S
Co295 O303 2.074 . S
Co295 O306 2.093 . S
Co295 O319 2.097 . S
Co295 N336 2.151 . S
Co295 N344 2.214 . S
Co296 O297 2.160 1_565 S
Co296 O302 2.058 . S
Co296 O312 2.057 . S
Co296 O327 2.037 . S
Co296 N331 2.145 . S
Co296 N352 2.257 . S
O297 Co295 2.143 . S
O297 Co296 2.160 1_545 S
C298 O299 1.278 . S
C298 O306 1.224 . S
O299 C298 1.278 . S
C300 O301 1.245 . S
C300 O312 1.232 . S
O301 C300 1.245 . S
O302 Co296 2.058 . S
O302 C328 1.269 . S
O303 Co295 2.074 . S
O303 C328 1.257 1_545 S
H304 C329 0.930 1_655 S
H305 C335 0.930 . S
O306 Co295 2.093 . S
O306 C298 1.224 . S
H307 C339 0.929 1_554 S
H308 C341 0.930 . S
H309 C342 0.930 . S
H310 C340 0.929 . S
H311 C343 0.928 . S
O312 Co296 2.057 . S
O312 C300 1.232 . S
H313 C332 0.929 . S
H314 C333 0.929 . S
H315 C345 0.927 1_655 S
H316 C337 0.929 . S
H317 C346 0.930 1_655 S
H318 C338 0.931 1_554 S
O319 Co295 2.097 . S
O319 C347 1.214 . S
H320 C348 0.929 . S
H321 C349 0.929 . S
H322 C350 0.930 . S
H323 C351 0.929 . S
H324 C353 0.930 . S
H325 C330 0.930 . S
H326 C334 0.930 . S
O327 Co296 2.037 . S
O327 C347 1.234 1_565 S
C328 O302 1.269 . S
C328 O303 1.257 1_565 S
C329 H304 0.930 1_455 S
C329 C332 1.388 . S
C329 C334 1.418 . S
C330 H325 0.930 . S
C330 C333 1.404 . S
C330 C334 1.353 . S
N331 Co296 2.145 . S
N331 C332 1.397 . S
N331 C333 1.334 . S
C332 H313 0.929 . S
C332 C329 1.388 . S
C332 N331 1.397 . S
C333 H314 0.929 . S
C333 C330 1.404 . S
C333 N331 1.334 . S
C334 H326 0.930 . S
C334 C329 1.418 . S
C334 C330 1.353 . S
C335 H305 0.930 . S
C335 N336 1.330 . S
C335 C337 1.446 . S
N336 Co295 2.151 . S
N336 C335 1.330 . S
N336 C340 1.418 . S
C337 H316 0.929 . S
C337 C335 1.446 . S
C337 C338 1.332 . S
C338 H318 0.931 1_556 S
C338 C337 1.332 . S
C338 C339 1.267 . S
C339 H307 0.929 1_556 S
C339 C338 1.267 . S
C339 C340 1.251 . S
C340 H310 0.929 . S
C340 N336 1.418 . S
C340 C339 1.251 . S
C341 H308 0.930 . S
C341 C343 1.406 . S
C341 C346 1.261 . S
C342 H309 0.930 . S
C342 N344 1.325 . S
C342 C345 1.359 . S
C343 H311 0.928 . S
C343 C341 1.406 . S
C343 N344 1.261 . S
N344 Co295 2.214 . S
N344 C342 1.325 . S
N344 C343 1.261 . S
C345 H315 0.927 1_455 S
C345 C342 1.359 . S
C345 C346 1.314 . S
C346 H317 0.930 1_455 S
C346 C341 1.261 . S
C346 C345 1.314 . S
C347 O319 1.214 . S
C347 O327 1.234 1_545 S
C348 H320 0.929 . S
C348 C351 1.391 . S
C348 C353 1.391 . S
C349 H321 0.929 . S
C349 C350 1.390 . S
C349 N352 1.391 . S
C350 H322 0.930 . S
C350 C349 1.390 . S
C350 C351 1.392 . S
C351 H323 0.929 . S
C351 C348 1.391 . S
C351 C350 1.392 . S
N352 Co296 2.257 . S
N352 C349 1.391 . S
N352 C353 1.388 . S
C353 H324 0.930 . S
C353 C348 1.391 . S
C353 N352 1.388 . S
Co354 O356 2.143 . S
Co354 O362 2.074 . S
Co354 O365 2.093 . S
Co354 O378 2.097 . S
Co354 N395 2.151 . S
Co354 N403 2.214 . S
Co355 O356 2.160 . S
Co355 O361 2.058 . S
Co355 O371 2.057 . S
Co355 O386 2.037 . S
Co355 N390 2.145 . S
Co355 N411 2.257 . S
O356 Co354 2.143 . S
O356 Co355 2.160 . S
C357 O358 1.278 . S
C357 O365 1.224 . S
O358 C357 1.278 . S
C359 O360 1.245 . S
C359 O371 1.232 . S
O360 C359 1.245 . S
O361 Co355 2.058 . S
O361 C387 1.269 . S
O362 Co354 2.074 . S
O362 C387 1.257 . S
H363 C388 0.930 . S
H364 C394 0.930 . S
O365 Co354 2.093 . S
O365 C357 1.224 . S
H366 C398 0.929 . S
H367 C400 0.930 . S
H368 C401 0.930 . S
H369 C399 0.929 . S
H370 C402 0.928 . S
O371 Co355 2.057 . S
O371 C359 1.232 . S
H372 C391 0.929 . S
H373 C392 0.929 . S
H374 C404 0.931 . S
H375 C396 0.929 . S
H376 C405 0.930 . S
H377 C397 0.931 . S
O378 Co354 2.097 . S
O378 C406 1.214 . S
H379 C407 0.929 . S
H380 C408 0.929 . S
H381 C409 0.930 . S
H382 C410 0.929 . S
H383 C412 0.930 . S
H384 C389 0.930 . S
H385 C393 0.930 . S
O386 Co355 2.037 . S
O386 C406 1.234 . S
C387 O361 1.269 . S
C387 O362 1.257 . S
C388 H363 0.930 . S
C388 C391 1.388 . S
C388 C393 1.418 . S
C389 H384 0.930 . S
C389 C392 1.404 . S
C389 C393 1.353 . S
N390 Co355 2.145 . S
N390 C391 1.397 . S
N390 C392 1.334 . S
C391 H372 0.929 . S
C391 C388 1.388 . S
C391 N390 1.397 . S
C392 H373 0.929 . S
C392 C389 1.404 . S
C392 N390 1.334 . S
C393 H385 0.930 . S
C393 C388 1.418 . S
C393 C389 1.353 . S
C394 H364 0.930 . S
C394 N395 1.330 . S
C394 C396 1.446 . S
N395 Co354 2.151 . S
N395 C394 1.330 . S
N395 C399 1.418 . S
C396 H375 0.929 . S
C396 C394 1.446 . S
C396 C397 1.332 . S
C397 H377 0.931 . S
C397 C396 1.332 . S
C397 C398 1.267 . S
C398 H366 0.929 . S
C398 C397 1.267 . S
C398 C399 1.251 . S
C399 H369 0.929 . S
C399 N395 1.418 . S
C399 C398 1.251 . S
C400 H367 0.930 . S
C400 C402 1.406 . S
C400 C405 1.261 . S
C401 H368 0.930 . S
C401 N403 1.325 . S
C401 C404 1.357 . S
C402 H370 0.928 . S
C402 C400 1.406 . S
C402 N403 1.261 . S
N403 Co354 2.214 . S
N403 C401 1.325 . S
N403 C402 1.261 . S
C404 H374 0.931 . S
C404 C401 1.357 . S
C404 C405 1.312 . S
C405 H376 0.930 . S
C405 C400 1.261 . S
C405 C404 1.312 . S
C406 O378 1.214 . S
C406 O386 1.234 . S
C407 H379 0.929 . S
C407 C410 1.391 . S
C407 C412 1.391 . S
C408 H380 0.929 . S
C408 C409 1.390 . S
C408 N411 1.391 . S
C409 H381 0.930 . S
C409 C408 1.390 . S
C409 C410 1.392 . S
C410 H382 0.929 . S
C410 C407 1.391 . S
C410 C409 1.392 . S
N411 Co355 2.257 . S
N411 C408 1.391 . S
N411 C412 1.388 . S
C412 H383 0.930 . S
C412 C407 1.391 . S
C412 N411 1.388 . S
Co413 O415 2.124 1_565 S
Co413 O421 2.074 . S
Co413 O424 2.093 . S
Co413 O437 2.097 . S
Co413 N454 2.151 . S
Co413 N462 2.214 . S
Co414 O415 2.179 . S
Co414 O420 2.058 . S
Co414 O430 2.057 . S
Co414 O445 2.037 . S
Co414 N449 2.145 . S
Co414 N470 2.257 . S
O415 Co413 2.124 1_545 S
O415 Co414 2.179 . S
C416 O417 1.278 . S
C416 O424 1.224 . S
O417 C416 1.278 . S
C418 O419 1.245 . S
C418 O430 1.232 . S
O419 C418 1.245 . S
O420 Co414 2.058 . S
O420 C446 1.269 . S
O421 Co413 2.074 . S
O421 C446 1.257 1_565 S
H422 C447 0.930 . S
H423 C453 0.930 . S
O424 Co413 2.093 . S
O424 C416 1.224 . S
H425 C457 0.929 . S
H426 C459 0.930 . S
H427 C460 0.930 . S
H428 C458 0.929 . S
H429 C461 0.928 . S
O430 Co414 2.057 . S
O430 C418 1.232 . S
H431 C450 0.929 . S
H432 C451 0.929 . S
H433 C463 0.931 . S
H434 C455 0.929 . S
H435 C464 0.930 . S
H436 C456 0.931 . S
O437 Co413 2.097 . S
O437 C465 1.214 . S
H438 C466 0.929 . S
H439 C467 0.929 . S
H440 C468 0.930 . S
H441 C469 0.929 . S
H442 C471 0.930 . S
H443 C448 0.930 . S
H444 C452 0.930 . S
O445 Co414 2.037 . S
O445 C465 1.234 1_545 S
C446 O420 1.269 . S
C446 O421 1.257 1_545 S
C447 H422 0.930 . S
C447 C450 1.388 . S
C447 C452 1.418 . S
C448 H443 0.930 . S
C448 C451 1.404 . S
C448 C452 1.353 . S
N449 Co414 2.145 . S
N449 C450 1.397 . S
N449 C451 1.334 . S
C450 H431 0.929 . S
C450 C447 1.388 . S
C450 N449 1.397 . S
C451 H432 0.929 . S
C451 C448 1.404 . S
C451 N449 1.334 . S
C452 H444 0.930 . S
C452 C447 1.418 . S
C452 C448 1.353 . S
C453 H423 0.930 . S
C453 N454 1.330 . S
C453 C455 1.446 . S
N454 Co413 2.151 . S
N454 C453 1.330 . S
N454 C458 1.418 . S
C455 H434 0.929 . S
C455 C453 1.446 . S
C455 C456 1.332 . S
C456 H436 0.931 . S
C456 C455 1.332 . S
C456 C457 1.267 . S
C457 H425 0.929 . S
C457 C456 1.267 . S
C457 C458 1.251 . S
C458 H428 0.929 . S
C458 N454 1.418 . S
C458 C457 1.251 . S
C459 H426 0.930 . S
C459 C461 1.406 . S
C459 C464 1.261 . S
C460 H427 0.930 . S
C460 N462 1.325 . S
C460 C463 1.357 . S
C461 H429 0.928 . S
C461 C459 1.406 . S
C461 N462 1.261 . S
N462 Co413 2.214 . S
N462 C460 1.325 . S
N462 C461 1.261 . S
C463 H433 0.931 . S
C463 C460 1.357 . S
C463 C464 1.312 . S
C464 H435 0.930 . S
C464 C459 1.261 . S
C464 C463 1.312 . S
C465 O437 1.214 . S
C465 O445 1.234 1_565 S
C466 H438 0.929 . S
C466 C469 1.391 1_554 S
C466 C471 1.391 . S
C467 H439 0.929 . S
C467 C468 1.390 1_554 S
C467 N470 1.391 . S
C468 H440 0.930 . S
C468 C467 1.390 1_556 S
C468 C469 1.392 . S
C469 H441 0.929 . S
C469 C466 1.391 1_556 S
C469 C468 1.392 . S
N470 Co414 2.257 . S
N470 C467 1.391 . S
N470 C471 1.388 . S
C471 H442 0.930 . S
C471 C466 1.391 . S
C471 N470 1.388 . S
Co472 O474 2.143 . S
Co472 O480 2.074 . S
Co472 O483 2.093 . S
Co472 O496 2.097 . S
Co472 N513 2.151 . S
Co472 N521 2.214 . S
Co473 O474 2.160 . S
Co473 O479 2.058 . S
Co473 O489 2.057 . S
Co473 O504 2.037 . S
Co473 N508 2.145 . S
Co473 N529 2.257 . S
O474 Co472 2.143 . S
O474 Co473 2.160 . S
C475 O476 1.278 . S
C475 O483 1.224 . S
O476 C475 1.278 . S
C477 O478 1.245 . S
C477 O489 1.232 . S
O478 C477 1.245 . S
O479 Co473 2.058 . S
O479 C505 1.269 . S
O480 Co472 2.074 . S
O480 C505 1.257 . S
H481 C506 0.930 . S
H482 C512 0.930 . S
O483 Co472 2.093 . S
O483 C475 1.224 . S
H484 C516 0.929 . S
H485 C518 0.930 . S
H486 C519 0.930 . S
H487 C517 0.929 . S
H488 C520 0.928 . S
O489 Co473 2.057 . S
O489 C477 1.232 . S
H490 C509 0.929 . S
H491 C510 0.929 . S
H492 C522 0.931 . S
H493 C514 0.929 . S
H494 C523 0.930 . S
H495 C515 0.931 . S
O496 Co472 2.097 . S
O496 C524 1.214 . S
H497 C525 0.929 . S
H498 C526 0.929 . S
H499 C527 0.930 . S
H500 C528 0.929 . S
H501 C530 0.930 . S
H502 C507 0.930 . S
H503 C511 0.930 . S
O504 Co473 2.037 . S
O504 C524 1.234 . S
C505 O479 1.269 . S
C505 O480 1.257 . S
C506 H481 0.930 . S
C506 C509 1.388 . S
C506 C511 1.418 . S
C507 H502 0.930 . S
C507 C510 1.404 . S
C507 C511 1.353 . S
N508 Co473 2.145 . S
N508 C509 1.397 . S
N508 C510 1.334 . S
C509 H490 0.929 . S
C509 C506 1.388 . S
C509 N508 1.397 . S
C510 H491 0.929 . S
C510 C507 1.404 . S
C510 N508 1.334 . S
C511 H503 0.930 . S
C511 C506 1.418 . S
C511 C507 1.353 . S
C512 H482 0.930 . S
C512 N513 1.330 . S
C512 C514 1.446 . S
N513 Co472 2.151 . S
N513 C512 1.330 . S
N513 C517 1.418 . S
C514 H493 0.929 . S
C514 C512 1.446 . S
C514 C515 1.332 . S
C515 H495 0.931 . S
C515 C514 1.332 . S
C515 C516 1.267 . S
C516 H484 0.929 . S
C516 C515 1.267 . S
C516 C517 1.251 . S
C517 H487 0.929 . S
C517 N513 1.418 . S
C517 C516 1.251 . S
C518 H485 0.930 . S
C518 C520 1.406 . S
C518 C523 1.261 . S
C519 H486 0.930 . S
C519 N521 1.325 . S
C519 C522 1.357 . S
C520 H488 0.928 . S
C520 C518 1.406 . S
C520 N521 1.261 . S
N521 Co472 2.214 . S
N521 C519 1.325 . S
N521 C520 1.261 . S
C522 H492 0.931 . S
C522 C519 1.357 . S
C522 C523 1.312 . S
C523 H494 0.930 . S
C523 C518 1.261 . S
C523 C522 1.312 . S
C524 O496 1.214 . S
C524 O504 1.234 . S
C525 H497 0.929 . S
C525 C528 1.391 . S
C525 C530 1.391 . S
C526 H498 0.929 . S
C526 C527 1.390 . S
C526 N529 1.391 . S
C527 H499 0.930 . S
C527 C526 1.390 . S
C527 C528 1.392 . S
C528 H500 0.929 . S
C528 C525 1.391 . S
C528 C527 1.392 . S
N529 Co473 2.257 . S
N529 C526 1.391 . S
N529 C530 1.388 . S
C530 H501 0.930 . S
C530 C525 1.391 . S
C530 N529 1.388 . S
Co531 O533 2.143 . S
Co531 O539 2.074 . S
Co531 O542 2.093 . S
Co531 O555 2.097 . S
Co531 N572 2.151 . S
Co531 N580 2.214 . S
Co532 O533 2.160 . S
Co532 O538 2.058 . S
Co532 O548 2.057 . S
Co532 O563 2.037 . S
Co532 N567 2.145 . S
Co532 N588 2.257 . S
O533 Co531 2.143 . S
O533 Co532 2.160 . S
C534 O535 1.278 . S
C534 O542 1.224 . S
O535 C534 1.278 . S
C536 O537 1.245 . S
C536 O548 1.232 . S
O537 C536 1.245 . S
O538 Co532 2.058 . S
O538 C564 1.269 . S
O539 Co531 2.074 . S
O539 C564 1.257 . S
H540 C565 0.930 . S
H541 C571 0.930 . S
O542 Co531 2.093 . S
O542 C534 1.224 . S
H543 C575 0.929 . S
H544 C577 0.930 . S
H545 C578 0.930 . S
H546 C576 0.929 . S
H547 C579 0.928 . S
O548 Co532 2.057 . S
O548 C536 1.232 . S
H549 C568 0.929 . S
H550 C569 0.929 . S
H551 C581 0.931 . S
H552 C573 0.929 . S
H553 C582 0.930 . S
H554 C574 0.931 . S
O555 Co531 2.097 . S
O555 C583 1.214 . S
H556 C584 0.929 . S
H557 C585 0.929 . S
H558 C586 0.930 . S
H559 C587 0.929 . S
H560 C589 0.930 . S
H561 C566 0.930 . S
H562 C570 0.930 . S
O563 Co532 2.037 . S
O563 C583 1.234 . S
C564 O538 1.269 . S
C564 O539 1.257 . S
C565 H540 0.930 . S
C565 C568 1.388 . S
C565 C570 1.418 . S
C566 H561 0.930 . S
C566 C569 1.404 . S
C566 C570 1.353 . S
N567 Co532 2.145 . S
N567 C568 1.397 . S
N567 C569 1.334 . S
C568 H549 0.929 . S
C568 C565 1.388 . S
C568 N567 1.397 . S
C569 H550 0.929 . S
C569 C566 1.404 . S
C569 N567 1.334 . S
C570 H562 0.930 . S
C570 C565 1.418 . S
C570 C566 1.353 . S
C571 H541 0.930 . S
C571 N572 1.330 . S
C571 C573 1.446 . S
N572 Co531 2.151 . S
N572 C571 1.330 . S
N572 C576 1.418 . S
C573 H552 0.929 . S
C573 C571 1.446 . S
C573 C574 1.332 . S
C574 H554 0.931 . S
C574 C573 1.332 . S
C574 C575 1.267 . S
C575 H543 0.929 . S
C575 C574 1.267 . S
C575 C576 1.251 . S
C576 H546 0.929 . S
C576 N572 1.418 . S
C576 C575 1.251 . S
C577 H544 0.930 . S
C577 C579 1.406 . S
C577 C582 1.261 . S
C578 H545 0.930 . S
C578 N580 1.325 . S
C578 C581 1.357 . S
C579 H547 0.928 . S
C579 C577 1.406 . S
C579 N580 1.261 . S
N580 Co531 2.214 . S
N580 C578 1.325 . S
N580 C579 1.261 . S
C581 H551 0.931 . S
C581 C578 1.357 . S
C581 C582 1.312 . S
C582 H553 0.930 . S
C582 C577 1.261 . S
C582 C581 1.312 . S
C583 O555 1.214 . S
C583 O563 1.234 . S
C584 H556 0.929 . S
C584 C587 1.391 1_556 S
C584 C589 1.391 . S
C585 H557 0.929 . S
C585 C586 1.390 1_556 S
C585 N588 1.391 . S
C586 H558 0.930 . S
C586 C585 1.390 1_554 S
C586 C587 1.392 . S
C587 H559 0.929 . S
C587 C584 1.391 1_554 S
C587 C586 1.392 . S
N588 Co532 2.257 . S
N588 C585 1.391 . S
N588 C589 1.388 . S
C589 H560 0.930 . S
C589 C584 1.391 . S
C589 N588 1.388 . S
Co590 O592 2.143 . S
Co590 O598 2.074 . S
Co590 O601 2.093 1_554 S
Co590 O614 2.097 1_554 S
Co590 N631 2.151 . S
Co590 N639 2.214 . S
Co591 O592 2.160 1_556 S
Co591 O597 2.058 1_556 S
Co591 O607 2.057 1_556 S
Co591 O622 2.037 . S
Co591 N626 2.145 . S
Co591 N647 2.257 . S
O592 Co590 2.143 . S
O592 Co591 2.160 1_554 S
C593 O594 1.278 . S
C593 O601 1.224 . S
O594 C593 1.278 . S
C595 O596 1.245 . S
C595 O607 1.232 . S
O596 C595 1.245 . S
O597 Co591 2.058 1_554 S
O597 C623 1.269 . S
O598 Co590 2.074 . S
O598 C623 1.257 . S
H599 C624 0.930 . S
H600 C630 0.930 . S
O601 Co590 2.093 1_556 S
O601 C593 1.224 . S
H602 C634 0.929 . S
H603 C636 0.930 . S
H604 C637 0.930 . S
H605 C635 0.929 . S
H606 C638 0.928 . S
O607 Co591 2.057 1_554 S
O607 C595 1.232 . S
H608 C627 0.929 . S
H609 C628 0.929 1_554 S
H610 C640 0.931 . S
H611 C632 0.929 . S
H612 C641 0.930 . S
H613 C633 0.931 . S
O614 Co590 2.097 1_556 S
O614 C642 1.214 . S
H615 C643 0.929 . S
H616 C644 0.929 . S
H617 C645 0.930 . S
H618 C646 0.929 . S
H619 C648 0.930 . S
H620 C625 0.930 . S
H621 C629 0.930 . S
O622 Co591 2.037 . S
O622 C642 1.234 . S
C623 O597 1.269 . S
C623 O598 1.257 . S
C624 H599 0.930 . S
C624 C627 1.388 . S
C624 C629 1.418 . S
C625 H620 0.930 . S
C625 C628 1.404 . S
C625 C629 1.353 . S
N626 Co591 2.145 . S
N626 C627 1.397 . S
N626 C628 1.334 . S
C627 H608 0.929 . S
C627 C624 1.388 . S
C627 N626 1.397 . S
C628 H609 0.929 1_556 S
C628 C625 1.404 . S
C628 N626 1.334 . S
C629 H621 0.930 . S
C629 C624 1.418 . S
C629 C625 1.353 . S
C630 H600 0.930 . S
C630 N631 1.330 . S
C630 C632 1.446 . S
N631 Co590 2.151 . S
N631 C630 1.330 . S
N631 C635 1.418 . S
C632 H611 0.929 . S
C632 C630 1.446 . S
C632 C633 1.332 . S
C633 H613 0.931 . S
C633 C632 1.332 . S
C633 C634 1.267 . S
C634 H602 0.929 . S
C634 C633 1.267 . S
C634 C635 1.251 . S
C635 H605 0.929 . S
C635 N631 1.418 . S
C635 C634 1.251 . S
C636 H603 0.930 . S
C636 C638 1.406 . S
C636 C641 1.261 . S
C637 H604 0.930 . S
C637 N639 1.325 1_556 S
C637 C640 1.357 . S
C638 H606 0.928 . S
C638 C636 1.406 . S
C638 N639 1.261 . S
N639 Co590 2.214 . S
N639 C637 1.325 1_554 S
N639 C638 1.261 . S
C640 H610 0.931 . S
C640 C637 1.357 . S
C640 C641 1.312 1_556 S
C641 H612 0.930 . S
C641 C636 1.261 . S
C641 C640 1.312 1_554 S
C642 O614 1.214 . S
C642 O622 1.234 . S
C643 H615 0.929 . S
C643 C646 1.391 . S
C643 C648 1.391 . S
C644 H616 0.929 . S
C644 C645 1.390 . S
C644 N647 1.391 . S
C645 H617 0.930 . S
C645 C644 1.390 . S
C645 C646 1.392 . S
C646 H618 0.929 . S
C646 C643 1.391 . S
C646 C645 1.392 . S
N647 Co591 2.257 . S
N647 C644 1.391 . S
N647 C648 1.388 . S
C648 H619 0.930 . S
C648 C643 1.391 . S
C648 N647 1.388 . S
Co649 O651 2.143 . S
Co649 O657 2.074 . S
Co649 O660 2.093 . S
Co649 O673 2.097 . S
Co649 N690 2.151 . S
Co649 N698 2.214 . S
Co650 O651 2.160 . S
Co650 O656 2.058 . S
Co650 O666 2.057 . S
Co650 O681 2.037 . S
Co650 N685 2.145 . S
Co650 N706 2.257 . S
O651 Co649 2.143 . S
O651 Co650 2.160 . S
C652 O653 1.278 . S
C652 O660 1.224 . S
O653 C652 1.278 . S
C654 O655 1.245 . S
C654 O666 1.232 . S
O655 C654 1.245 . S
O656 Co650 2.058 . S
O656 C682 1.269 . S
O657 Co649 2.074 . S
O657 C682 1.257 . S
H658 C683 0.930 1_655 S
H659 C689 0.930 . S
O660 Co649 2.093 . S
O660 C652 1.224 . S
H661 C693 0.929 1_556 S
H662 C695 0.930 . S
H663 C696 0.930 . S
H664 C694 0.929 . S
H665 C697 0.928 . S
O666 Co650 2.057 . S
O666 C654 1.232 . S
H667 C686 0.929 . S
H668 C687 0.929 . S
H669 C699 0.927 1_655 S
H670 C691 0.929 . S
H671 C700 0.930 1_655 S
H672 C692 0.931 1_556 S
O673 Co649 2.097 . S
O673 C701 1.214 . S
H674 C702 0.929 . S
H675 C703 0.929 . S
H676 C704 0.930 . S
H677 C705 0.929 . S
H678 C707 0.930 . S
H679 C684 0.930 . S
H680 C688 0.930 . S
O681 Co650 2.037 . S
O681 C701 1.234 . S
C682 O656 1.269 . S
C682 O657 1.257 . S
C683 H658 0.930 1_455 S
C683 C686 1.388 . S
C683 C688 1.418 . S
C684 H679 0.930 . S
C684 C687 1.404 . S
C684 C688 1.353 . S
N685 Co650 2.145 . S
N685 C686 1.397 . S
N685 C687 1.334 . S
C686 H667 0.929 . S
C686 C683 1.388 . S
C686 N685 1.397 . S
C687 H668 0.929 . S
C687 C684 1.404 . S
C687 N685 1.334 . S
C688 H680 0.930 . S
C688 C683 1.418 . S
C688 C684 1.353 . S
C689 H659 0.930 . S
C689 N690 1.330 . S
C689 C691 1.446 . S
N690 Co649 2.151 . S
N690 C689 1.330 . S
N690 C694 1.418 . S
C691 H670 0.929 . S
C691 C689 1.446 . S
C691 C692 1.332 . S
C692 H672 0.931 1_554 S
C692 C691 1.332 . S
C692 C693 1.267 . S
C693 H661 0.929 1_554 S
C693 C692 1.267 . S
C693 C694 1.251 . S
C694 H664 0.929 . S
C694 N690 1.418 . S
C694 C693 1.251 . S
C695 H662 0.930 . S
C695 C697 1.406 . S
C695 C700 1.261 . S
C696 H663 0.930 . S
C696 N698 1.325 . S
C696 C699 1.360 . S
C697 H665 0.928 . S
C697 C695 1.406 . S
C697 N698 1.261 . S
N698 Co649 2.214 . S
N698 C696 1.325 . S
N698 C697 1.261 . S
C699 H669 0.927 1_455 S
C699 C696 1.360 . S
C699 C700 1.314 . S
C700 H671 0.930 1_455 S
C700 C695 1.261 . S
C700 C699 1.314 . S
C701 O673 1.214 . S
C701 O681 1.234 . S
C702 H674 0.929 . S
C702 C705 1.391 . S
C702 C707 1.391 . S
C703 H675 0.929 . S
C703 C704 1.390 . S
C703 N706 1.391 . S
C704 H676 0.930 . S
C704 C703 1.390 . S
C704 C705 1.392 . S
C705 H677 0.929 . S
C705 C702 1.391 . S
C705 C704 1.392 . S
N706 Co650 2.257 . S
N706 C703 1.391 . S
N706 C707 1.388 . S
C707 H678 0.930 . S
C707 C702 1.391 . S
C707 N706 1.388 . S
Co708 O710 2.143 . S
Co708 O716 2.074 . S
Co708 O719 2.093 . S
Co708 O732 2.097 . S
Co708 N749 2.151 . S
Co708 N757 2.214 . S
Co709 O710 2.160 . S
Co709 O715 2.058 . S
Co709 O725 2.057 . S
Co709 O740 2.037 . S
Co709 N744 2.145 . S
Co709 N765 2.257 . S
O710 Co708 2.143 . S
O710 Co709 2.160 . S
C711 O712 1.278 . S
C711 O719 1.224 . S
O712 C711 1.278 . S
C713 O714 1.245 . S
C713 O725 1.232 . S
O714 C713 1.245 . S
O715 Co709 2.058 . S
O715 C741 1.269 . S
O716 Co708 2.074 . S
O716 C741 1.257 . S
H717 C742 0.930 . S
H718 C748 0.930 . S
O719 Co708 2.093 . S
O719 C711 1.224 . S
H720 C752 0.929 . S
H721 C754 0.930 . S
H722 C755 0.930 . S
H723 C753 0.929 . S
H724 C756 0.928 . S
O725 Co709 2.057 . S
O725 C713 1.232 . S
H726 C745 0.929 . S
H727 C746 0.929 . S
H728 C758 0.931 . S
H729 C750 0.929 . S
H730 C759 0.930 . S
H731 C751 0.931 . S
O732 Co708 2.097 . S
O732 C760 1.214 . S
H733 C761 0.929 . S
H734 C762 0.929 . S
H735 C763 0.930 . S
H736 C764 0.929 . S
H737 C766 0.930 . S
H738 C743 0.930 . S
H739 C747 0.930 . S
O740 Co709 2.037 . S
O740 C760 1.234 . S
C741 O715 1.269 . S
C741 O716 1.257 . S
C742 H717 0.930 . S
C742 C745 1.388 . S
C742 C747 1.418 . S
C743 H738 0.930 . S
C743 C746 1.404 . S
C743 C747 1.353 . S
N744 Co709 2.145 . S
N744 C745 1.397 . S
N744 C746 1.334 . S
C745 H726 0.929 . S
C745 C742 1.388 . S
C745 N744 1.397 . S
C746 H727 0.929 . S
C746 C743 1.404 . S
C746 N744 1.334 . S
C747 H739 0.930 . S
C747 C742 1.418 . S
C747 C743 1.353 . S
C748 H718 0.930 . S
C748 N749 1.330 . S
C748 C750 1.446 . S
N749 Co708 2.151 . S
N749 C748 1.330 . S
N749 C753 1.418 . S
C750 H729 0.929 . S
C750 C748 1.446 . S
C750 C751 1.332 . S
C751 H731 0.931 . S
C751 C750 1.332 . S
C751 C752 1.267 . S
C752 H720 0.929 . S
C752 C751 1.267 . S
C752 C753 1.251 . S
C753 H723 0.929 . S
C753 N749 1.418 . S
C753 C752 1.251 . S
C754 H721 0.930 . S
C754 C756 1.406 . S
C754 C759 1.261 . S
C755 H722 0.930 . S
C755 N757 1.325 . S
C755 C758 1.357 . S
C756 H724 0.928 . S
C756 C754 1.406 . S
C756 N757 1.261 . S
N757 Co708 2.214 . S
N757 C755 1.325 . S
N757 C756 1.261 . S
C758 H728 0.931 . S
C758 C755 1.357 . S
C758 C759 1.312 . S
C759 H730 0.930 . S
C759 C754 1.261 . S
C759 C758 1.312 . S
C760 O732 1.214 . S
C760 O740 1.234 . S
C761 H733 0.929 . S
C761 C764 1.391 . S
C761 C766 1.391 . S
C762 H734 0.929 . S
C762 C763 1.390 . S
C762 N765 1.391 . S
C763 H735 0.930 . S
C763 C762 1.390 . S
C763 C764 1.392 . S
C764 H736 0.929 . S
C764 C761 1.391 . S
C764 C763 1.392 . S
N765 Co709 2.257 . S
N765 C762 1.391 . S
N765 C766 1.388 . S
C766 H737 0.930 . S
C766 C761 1.391 . S
C766 N765 1.388 . S
Co767 O769 2.143 . S
Co767 O775 2.074 . S
Co767 O778 2.093 . S
Co767 O791 2.097 . S
Co767 N808 2.151 . S
Co767 N816 2.214 . S
Co768 O769 2.160 . S
Co768 O774 2.058 . S
Co768 O784 2.057 . S
Co768 O799 2.037 . S
Co768 N803 2.145 . S
Co768 N824 2.257 . S
O769 Co767 2.143 . S
O769 Co768 2.160 . S
C770 O771 1.278 . S
C770 O778 1.224 . S
O771 C770 1.278 . S
C772 O773 1.245 . S
C772 O784 1.232 . S
O773 C772 1.245 . S
O774 Co768 2.058 . S
O774 C800 1.269 . S
O775 Co767 2.074 . S
O775 C800 1.257 . S
H776 C801 0.930 . S
H777 C807 0.930 . S
O778 Co767 2.093 . S
O778 C770 1.224 . S
H779 C811 0.929 . S
H780 C813 0.930 . S
H781 C814 0.930 . S
H782 C812 0.929 . S
H783 C815 0.928 . S
O784 Co768 2.057 . S
O784 C772 1.232 . S
H785 C804 0.929 . S
H786 C805 0.929 . S
H787 C817 0.931 . S
H788 C809 0.929 . S
H789 C818 0.930 . S
H790 C810 0.931 . S
O791 Co767 2.097 . S
O791 C819 1.214 . S
H792 C820 0.929 . S
H793 C821 0.929 . S
H794 C822 0.930 . S
H795 C823 0.929 . S
H796 C825 0.930 . S
H797 C802 0.930 . S
H798 C806 0.930 . S
O799 Co768 2.037 . S
O799 C819 1.234 . S
C800 O774 1.269 . S
C800 O775 1.257 . S
C801 H776 0.930 . S
C801 C804 1.388 . S
C801 C806 1.418 . S
C802 H797 0.930 . S
C802 C805 1.404 . S
C802 C806 1.353 . S
N803 Co768 2.145 . S
N803 C804 1.397 . S
N803 C805 1.334 . S
C804 H785 0.929 . S
C804 C801 1.388 . S
C804 N803 1.397 . S
C805 H786 0.929 . S
C805 C802 1.404 . S
C805 N803 1.334 . S
C806 H798 0.930 . S
C806 C801 1.418 . S
C806 C802 1.353 . S
C807 H777 0.930 . S
C807 N808 1.330 . S
C807 C809 1.446 . S
N808 Co767 2.151 . S
N808 C807 1.330 . S
N808 C812 1.418 . S
C809 H788 0.929 . S
C809 C807 1.446 . S
C809 C810 1.332 . S
C810 H790 0.931 . S
C810 C809 1.332 . S
C810 C811 1.267 . S
C811 H779 0.929 . S
C811 C810 1.267 . S
C811 C812 1.251 . S
C812 H782 0.929 . S
C812 N808 1.418 . S
C812 C811 1.251 . S
C813 H780 0.930 . S
C813 C815 1.406 . S
C813 C818 1.261 . S
C814 H781 0.930 . S
C814 N816 1.325 . S
C814 C817 1.357 . S
C815 H783 0.928 . S
C815 C813 1.406 . S
C815 N816 1.261 . S
N816 Co767 2.214 . S
N816 C814 1.325 . S
N816 C815 1.261 . S
C817 H787 0.931 . S
C817 C814 1.357 . S
C817 C818 1.312 . S
C818 H789 0.930 . S
C818 C813 1.261 . S
C818 C817 1.312 . S
C819 O791 1.214 . S
C819 O799 1.234 . S
C820 H792 0.929 . S
C820 C823 1.391 1_554 S
C820 C825 1.391 . S
C821 H793 0.929 . S
C821 C822 1.390 1_554 S
C821 N824 1.391 . S
C822 H794 0.930 . S
C822 C821 1.390 1_556 S
C822 C823 1.392 . S
C823 H795 0.929 . S
C823 C820 1.391 1_556 S
C823 C822 1.392 . S
N824 Co768 2.257 . S
N824 C821 1.391 . S
N824 C825 1.388 . S
C825 H796 0.930 . S
C825 C820 1.391 . S
C825 N824 1.388 . S
Co826 O828 2.143 . S
Co826 O834 2.074 . S
Co826 O837 2.093 1_556 S
Co826 O850 2.097 1_556 S
Co826 N867 2.151 . S
Co826 N875 2.214 . S
Co827 O828 2.160 1_554 S
Co827 O833 2.058 1_554 S
Co827 O843 2.057 1_554 S
Co827 O858 2.037 . S
Co827 N862 2.145 . S
Co827 N883 2.257 . S
O828 Co826 2.143 . S
O828 Co827 2.160 1_556 S
C829 O830 1.278 . S
C829 O837 1.224 . S
O830 C829 1.278 . S
C831 O832 1.245 . S
C831 O843 1.232 . S
O832 C831 1.245 . S
O833 Co827 2.058 1_556 S
O833 C859 1.269 . S
O834 Co826 2.074 . S
O834 C859 1.257 . S
H835 C860 0.930 . S
H836 C866 0.930 . S
O837 Co826 2.093 1_554 S
O837 C829 1.224 . S
H838 C870 0.929 . S
H839 C872 0.930 . S
H840 C873 0.930 . S
H841 C871 0.929 . S
H842 C874 0.928 . S
O843 Co827 2.057 1_556 S
O843 C831 1.232 . S
H844 C863 0.929 . S
H845 C864 0.927 1_556 S
H846 C876 0.931 . S
H847 C868 0.929 . S
H848 C877 0.930 . S
H849 C869 0.931 . S
O850 Co826 2.097 1_554 S
O850 C878 1.214 . S
H851 C879 0.929 . S
H852 C880 0.929 . S
H853 C881 0.930 . S
H854 C882 0.929 . S
H855 C884 0.930 . S
H856 C861 0.930 . S
H857 C865 0.930 . S
O858 Co827 2.037 . S
O858 C878 1.234 . S
C859 O833 1.269 . S
C859 O834 1.257 . S
C860 H835 0.930 . S
C860 C863 1.388 . S
C860 C865 1.418 . S
C861 H856 0.930 . S
C861 C864 1.404 . S
C861 C865 1.353 . S
N862 Co827 2.145 . S
N862 C863 1.397 . S
N862 C864 1.334 . S
C863 H844 0.929 . S
C863 C860 1.388 . S
C863 N862 1.397 . S
C864 H845 0.927 1_554 S
C864 C861 1.404 . S
C864 N862 1.334 . S
C865 H857 0.930 . S
C865 C860 1.418 . S
C865 C861 1.353 . S
C866 H836 0.930 . S
C866 N867 1.330 . S
C866 C868 1.446 . S
N867 Co826 2.151 . S
N867 C866 1.330 . S
N867 C871 1.418 . S
C868 H847 0.929 . S
C868 C866 1.446 . S
C868 C869 1.332 . S
C869 H849 0.931 . S
C869 C868 1.332 . S
C869 C870 1.267 . S
C870 H838 0.929 . S
C870 C869 1.267 . S
C870 C871 1.251 . S
C871 H841 0.929 . S
C871 N867 1.418 . S
C871 C870 1.251 . S
C872 H839 0.930 . S
C872 C874 1.406 . S
C872 C877 1.261 . S
C873 H840 0.930 . S
C873 N875 1.325 1_554 S
C873 C876 1.357 . S
C874 H842 0.928 . S
C874 C872 1.406 . S
C874 N875 1.261 . S
N875 Co826 2.214 . S
N875 C873 1.325 1_556 S
N875 C874 1.261 . S
C876 H846 0.931 . S
C876 C873 1.357 . S
C876 C877 1.312 1_554 S
C877 H848 0.930 . S
C877 C872 1.261 . S
C877 C876 1.312 1_556 S
C878 O850 1.214 . S
C878 O858 1.234 . S
C879 H851 0.929 . S
C879 C882 1.391 . S
C879 C884 1.391 . S
C880 H852 0.929 . S
C880 C881 1.390 . S
C880 N883 1.391 . S
C881 H853 0.930 . S
C881 C880 1.390 . S
C881 C882 1.392 . S
C882 H854 0.929 . S
C882 C879 1.391 . S
C882 C881 1.392 . S
N883 Co827 2.257 . S
N883 C880 1.391 . S
N883 C884 1.388 . S
C884 H855 0.930 . S
C884 C879 1.391 . S
C884 N883 1.388 . S
Co885 O887 2.143 . S
Co885 O893 2.074 . S
Co885 O896 2.093 . S
Co885 O909 2.097 . S
Co885 N926 2.151 . S
Co885 N934 2.214 . S
Co886 O887 2.160 . S
Co886 O892 2.058 . S
Co886 O902 2.057 . S
Co886 O917 2.037 . S
Co886 N921 2.145 . S
Co886 N942 2.257 . S
O887 Co885 2.143 . S
O887 Co886 2.160 . S
C888 O889 1.278 . S
C888 O896 1.224 . S
O889 C888 1.278 . S
C890 O891 1.245 . S
C890 O902 1.232 . S
O891 C890 1.245 . S
O892 Co886 2.058 . S
O892 C918 1.269 . S
O893 Co885 2.074 . S
O893 C918 1.257 . S
H894 C919 0.930 1_455 S
H895 C925 0.930 . S
O896 Co885 2.093 . S
O896 C888 1.224 . S
H897 C929 0.929 1_554 S
H898 C931 0.930 . S
H899 C932 0.930 . S
H900 C930 0.929 . S
H901 C933 0.928 . S
O902 Co886 2.057 . S
O902 C890 1.232 . S
H903 C922 0.929 . S
H904 C923 0.929 . S
H905 C935 0.927 1_455 S
H906 C927 0.929 . S
H907 C936 0.930 1_455 S
H908 C928 0.931 1_554 S
O909 Co885 2.097 . S
O909 C937 1.214 . S
H910 C938 0.929 . S
H911 C939 0.929 . S
H912 C940 0.930 . S
H913 C941 0.929 . S
H914 C943 0.930 . S
H915 C920 0.930 . S
H916 C924 0.930 . S
O917 Co886 2.037 . S
O917 C937 1.234 . S
C918 O892 1.269 . S
C918 O893 1.257 . S
C919 H894 0.930 1_655 S
C919 C922 1.388 . S
C919 C924 1.418 . S
C920 H915 0.930 . S
C920 C923 1.404 . S
C920 C924 1.353 . S
N921 Co886 2.145 . S
N921 C922 1.397 . S
N921 C923 1.334 . S
C922 H903 0.929 . S
C922 C919 1.388 . S
C922 N921 1.397 . S
C923 H904 0.929 . S
C923 C920 1.404 . S
C923 N921 1.334 . S
C924 H916 0.930 . S
C924 C919 1.418 . S
C924 C920 1.353 . S
C925 H895 0.930 . S
C925 N926 1.330 . S
C925 C927 1.446 . S
N926 Co885 2.151 . S
N926 C925 1.330 . S
N926 C930 1.418 . S
C927 H906 0.929 . S
C927 C925 1.446 . S
C927 C928 1.332 . S
C928 H908 0.931 1_556 S
C928 C927 1.332 . S
C928 C929 1.267 . S
C929 H897 0.929 1_556 S
C929 C928 1.267 . S
C929 C930 1.251 . S
C930 H900 0.929 . S
C930 N926 1.418 . S
C930 C929 1.251 . S
C931 H898 0.930 . S
C931 C933 1.406 . S
C931 C936 1.261 . S
C932 H899 0.930 . S
C932 N934 1.325 . S
C932 C935 1.359 . S
C933 H901 0.928 . S
C933 C931 1.406 . S
C933 N934 1.261 . S
N934 Co885 2.214 . S
N934 C932 1.325 . S
N934 C933 1.261 . S
C935 H905 0.927 1_655 S
C935 C932 1.359 . S
C935 C936 1.314 . S
C936 H907 0.930 1_655 S
C936 C931 1.261 . S
C936 C935 1.314 . S
C937 O909 1.214 . S
C937 O917 1.234 . S
C938 H910 0.929 . S
C938 C941 1.391 . S
C938 C943 1.391 . S
C939 H911 0.929 . S
C939 C940 1.390 . S
C939 N942 1.391 . S
C940 H912 0.930 . S
C940 C939 1.390 . S
C940 C941 1.392 . S
C941 H913 0.929 . S
C941 C938 1.391 . S
C941 C940 1.392 . S
N942 Co886 2.257 . S
N942 C939 1.391 . S
N942 C943 1.388 . S
C943 H914 0.930 . S
C943 C938 1.391 . S
C943 N942 1.388 . S
C944 C945 1.369 . S
C944 C946 1.419 . S
C944 H948 0.930 . S
C945 C944 1.369 . S
C945 C954 1.429 . S
C946 C944 1.419 . S
C946 C947 1.363 . S
C946 H949 0.929 . S
C947 C946 1.363 . S
C947 C953 1.428 . S
H948 C944 0.930 . S
H949 C946 0.929 . S
S950 N951 1.613 . S
S950 N952 1.610 . S
N951 S950 1.613 . S
N951 C954 1.350 . S
N952 S950 1.610 . S
N952 C953 1.351 . S
C953 C947 1.428 . S
C953 N952 1.351 . S
C953 C954 1.434 . S
C954 C945 1.429 . S
C954 N951 1.350 . S
C954 C953 1.434 . S
C955 C956 1.374 . S
C955 C957 1.419 1_655 S
C955 H959 0.930 . S
C956 C955 1.374 . S
C956 C965 1.423 1_565 S
C957 C955 1.419 1_455 S
C957 C958 1.363 1_565 S
C957 H960 0.929 . S
C958 C957 1.363 1_545 S
C958 C964 1.428 . S
H959 C955 0.930 . S
H960 C957 0.929 . S
S961 N962 1.613 1_455 S
S961 N963 1.610 . S
N962 S961 1.613 1_655 S
N962 C965 1.350 . S
N963 S961 1.610 . S
N963 C964 1.351 . S
C964 C958 1.428 . S
C964 N963 1.351 . S
C964 C965 1.434 1_455 S
C965 C956 1.423 1_545 S
C965 N962 1.350 . S
C965 C964 1.434 1_655 S
C966 C967 1.369 . S
C966 C968 1.419 . S
C966 H970 0.930 . S
C967 C966 1.369 . S
C967 C976 1.429 . S
C968 C966 1.419 . S
C968 C969 1.363 . S
C968 H971 0.929 . S
C969 C968 1.363 . S
C969 C975 1.428 . S
H970 C966 0.930 . S
H971 C968 0.929 . S
S972 N973 1.613 . S
S972 N974 1.610 . S
N973 S972 1.613 . S
N973 C976 1.350 . S
N974 S972 1.610 . S
N974 C975 1.351 . S
C975 C969 1.428 . S
C975 N974 1.351 . S
C975 C976 1.434 . S
C976 C967 1.429 . S
C976 N973 1.350 . S
C976 C975 1.434 . S
C977 C978 1.372 . S
C977 C979 1.419 . S
C977 H981 0.930 . S
C978 C977 1.372 . S
C978 C987 1.424 1_564 S
C979 C977 1.419 . S
C979 C980 1.363 1_564 S
C979 H982 0.929 . S
C980 C979 1.363 1_546 S
C980 C986 1.428 . S
H981 C977 0.930 . S
H982 C979 0.929 . S
S983 N984 1.613 . S
S983 N985 1.610 . S
N984 S983 1.613 . S
N984 C987 1.350 . S
N985 S983 1.610 . S
N985 C986 1.351 . S
C986 C980 1.428 . S
C986 N985 1.351 . S
C986 C987 1.434 . S
C987 C978 1.424 1_546 S
C987 N984 1.350 . S
C987 C986 1.434 . S
C988 C989 1.369 . S
C988 C990 1.419 . S
C988 H992 0.930 . S
C989 C988 1.369 . S
C989 C998 1.429 . S
C990 C988 1.419 . S
C990 C991 1.363 . S
C990 H993 0.929 . S
C991 C990 1.363 . S
C991 C997 1.428 . S
H992 C988 0.930 . S
H993 C990 0.929 . S
S994 N995 1.613 . S
S994 N996 1.610 . S
N995 S994 1.613 . S
N995 C998 1.350 . S
N996 S994 1.610 . S
N996 C997 1.351 . S
C997 C991 1.428 . S
C997 N996 1.351 . S
C997 C998 1.434 . S
C998 C989 1.429 . S
C998 N995 1.350 . S
C998 C997 1.434 . S
C999 C1000 1.369 . S
C999 C1001 1.419 . S
C999 H1003 0.930 . S
C1000 C999 1.369 . S
C1000 C1009 1.429 1_545 S
C1001 C999 1.419 . S
C1001 C1002 1.351 1_545 S
C1001 H1004 0.929 . S
C1002 C1001 1.351 1_565 S
C1002 C1008 1.438 . S
H1003 C999 0.930 . S
H1004 C1001 0.929 . S
S1005 N1006 1.613 . S
S1005 N1007 1.610 . S
N1006 S1005 1.613 . S
N1006 C1009 1.350 . S
N1007 S1005 1.610 . S
N1007 C1008 1.351 . S
C1008 C1002 1.438 . S
C1008 N1007 1.351 . S
C1008 C1009 1.434 . S
C1009 C1000 1.429 1_565 S
C1009 N1006 1.350 . S
C1009 C1008 1.434 . S
C1010 C1011 1.369 . S
C1010 C1012 1.419 . S
C1010 H1014 0.930 . S
C1011 C1010 1.369 . S
C1011 C1020 1.429 . S
C1012 C1010 1.419 . S
C1012 C1013 1.363 . S
C1012 H1015 0.929 . S
C1013 C1012 1.363 . S
C1013 C1019 1.428 . S
H1014 C1010 0.930 . S
H1015 C1012 0.929 . S
S1016 N1017 1.613 . S
S1016 N1018 1.610 . S
N1017 S1016 1.613 . S
N1017 C1020 1.350 . S
N1018 S1016 1.610 . S
N1018 C1019 1.351 . S
C1019 C1013 1.428 . S
C1019 N1018 1.351 . S
C1019 C1020 1.434 . S
C1020 C1011 1.429 . S
C1020 N1017 1.350 . S
C1020 C1019 1.434 . S
C1021 C1022 1.365 1_645 S
C1021 C1023 1.419 . S
C1021 H1025 0.930 . S
C1022 C1021 1.365 1_465 S
C1022 C1031 1.431 1_556 S
C1023 C1021 1.419 . S
C1023 C1024 1.363 1_556 S
C1023 H1026 0.929 . S
C1024 C1023 1.363 1_554 S
C1024 C1030 1.431 1_655 S
H1025 C1021 0.930 . S
H1026 C1023 0.929 . S
S1027 N1028 1.613 . S
S1027 N1029 1.610 . S
N1028 S1027 1.613 . S
N1028 C1031 1.350 . S
N1029 S1027 1.610 . S
N1029 C1030 1.349 1_565 S
C1030 C1024 1.431 1_455 S
C1030 N1029 1.349 1_545 S
C1030 C1031 1.432 1_545 S
C1031 C1022 1.431 1_554 S
C1031 N1028 1.350 . S
C1031 C1030 1.432 1_565 S
C1032 C1033 1.369 . S
C1032 C1034 1.419 . S
C1032 H1036 0.930 . S
C1033 C1032 1.369 . S
C1033 C1042 1.429 . S
C1034 C1032 1.419 . S
C1034 C1035 1.363 . S
C1034 H1037 0.929 . S
C1035 C1034 1.363 . S
C1035 C1041 1.428 . S
H1036 C1032 0.930 . S
H1037 C1034 0.929 . S
S1038 N1039 1.613 . S
S1038 N1040 1.610 . S
N1039 S1038 1.613 . S
N1039 C1042 1.350 . S
N1040 S1038 1.610 . S
N1040 C1041 1.351 . S
C1041 C1035 1.428 . S
C1041 N1040 1.351 . S
C1041 C1042 1.434 . S
C1042 C1033 1.429 . S
C1042 N1039 1.350 . S
C1042 C1041 1.434 . S
C1043 C1044 1.369 . S
C1043 C1045 1.419 . S
C1043 H1047 0.930 . S
C1044 C1043 1.369 . S
C1044 C1053 1.429 . S
C1045 C1043 1.419 . S
C1045 C1046 1.363 . S
C1045 H1048 0.929 . S
C1046 C1045 1.363 . S
C1046 C1052 1.428 . S
H1047 C1043 0.930 . S
H1048 C1045 0.929 . S
S1049 N1050 1.613 . S
S1049 N1051 1.610 . S
N1050 S1049 1.613 . S
N1050 C1053 1.350 . S
N1051 S1049 1.610 . S
N1051 C1052 1.351 . S
C1052 C1046 1.428 . S
C1052 N1051 1.351 . S
C1052 C1053 1.434 . S
C1053 C1044 1.429 . S
C1053 N1050 1.350 . S
C1053 C1052 1.434 . S
C1054 C1055 1.369 . S
C1054 C1056 1.419 . S
C1054 H1058 0.930 . S
C1055 C1054 1.369 . S
C1055 C1064 1.429 . S
C1056 C1054 1.419 . S
C1056 C1057 1.363 . S
C1056 H1059 0.929 . S
C1057 C1056 1.363 . S
C1057 C1063 1.428 . S
H1058 C1054 0.930 . S
H1059 C1056 0.929 . S
S1060 N1061 1.613 . S
S1060 N1062 1.610 . S
N1061 S1060 1.613 . S
N1061 C1064 1.350 . S
N1062 S1060 1.610 . S
N1062 C1063 1.351 . S
C1063 C1057 1.428 . S
C1063 N1062 1.351 . S
C1063 C1064 1.434 . S
C1064 C1055 1.429 . S
C1064 N1061 1.350 . S
C1064 C1063 1.434 . S
C1065 C1066 1.369 . S
C1065 C1067 1.419 . S
C1065 H1069 0.930 . S
C1066 C1065 1.369 . S
C1066 C1075 1.429 . S
C1067 C1065 1.419 . S
C1067 C1068 1.363 . S
C1067 H1070 0.929 . S
C1068 C1067 1.363 . S
C1068 C1074 1.428 . S
H1069 C1065 0.930 . S
H1070 C1067 0.929 . S
S1071 N1072 1.613 . S
S1071 N1073 1.610 . S
N1072 S1071 1.613 . S
N1072 C1075 1.350 . S
N1073 S1071 1.610 . S
N1073 C1074 1.351 . S
C1074 C1068 1.428 . S
C1074 N1073 1.351 . S
C1074 C1075 1.434 . S
C1075 C1066 1.429 . S
C1075 N1072 1.350 . S
C1075 C1074 1.434 . S
C1076 C1077 1.369 . S
C1076 C1078 1.419 1_554 S
C1076 H1080 0.930 . S
C1077 C1076 1.369 . S
C1077 C1086 1.429 . S
C1078 C1076 1.419 1_556 S
C1078 C1079 1.363 . S
C1078 H1081 0.929 . S
C1079 C1078 1.363 . S
C1079 C1085 1.428 . S
H1080 C1076 0.930 . S
H1081 C1078 0.929 . S
S1082 N1083 1.613 . S
S1082 N1084 1.610 1_554 S
N1083 S1082 1.613 . S
N1083 C1086 1.350 . S
N1084 S1082 1.610 1_556 S
N1084 C1085 1.351 . S
C1085 C1079 1.428 . S
C1085 N1084 1.351 . S
C1085 C1086 1.434 1_556 S
C1086 C1077 1.429 . S
C1086 N1083 1.350 . S
C1086 C1085 1.434 1_554 S
C1087 C1088 1.369 1_655 S
C1087 C1089 1.419 . S
C1087 H1091 0.930 . S
C1088 C1087 1.369 1_455 S
C1088 C1097 1.429 . S
C1089 C1087 1.419 . S
C1089 C1090 1.363 . S
C1089 H1092 0.929 . S
C1090 C1089 1.363 . S
C1090 C1096 1.428 1_655 S
H1091 C1087 0.930 . S
H1092 C1089 0.929 . S
S1093 N1094 1.613 . S
S1093 N1095 1.610 . S
N1094 S1093 1.613 . S
N1094 C1097 1.350 . S
N1095 S1093 1.610 . S
N1095 C1096 1.351 . S
C1096 C1090 1.428 1_455 S
C1096 N1095 1.351 . S
C1096 C1097 1.434 . S
C1097 C1088 1.429 . S
C1097 N1094 1.350 . S
C1097 C1096 1.434 . S
C1098 C1099 1.369 1_556 S
C1098 C1100 1.419 . S
C1098 H1102 0.930 . S
C1099 C1098 1.369 1_554 S
C1099 C1108 1.429 1_455 S
C1100 C1098 1.419 . S
C1100 C1101 1.363 1_455 S
C1100 H1103 0.929 . S
C1101 C1100 1.363 1_655 S
C1101 C1107 1.428 1_556 S
H1102 C1098 0.930 . S
H1103 C1100 0.929 . S
S1104 N1105 1.613 . S
S1104 N1106 1.610 . S
N1105 S1104 1.613 . S
N1105 C1108 1.350 . S
N1106 S1104 1.610 . S
N1106 C1107 1.351 . S
C1107 C1101 1.428 1_554 S
C1107 N1106 1.351 . S
C1107 C1108 1.434 . S
C1108 C1099 1.429 1_655 S
C1108 N1105 1.350 . S
C1108 C1107 1.434 . S
C1109 C1110 1.369 . S
C1109 C1111 1.419 . S
C1109 H1113 0.930 . S
C1110 C1109 1.369 . S
C1110 C1119 1.429 . S
C1111 C1109 1.419 . S
C1111 C1112 1.363 . S
C1111 H1114 0.929 . S
C1112 C1111 1.363 . S
C1112 C1118 1.428 . S
H1113 C1109 0.930 . S
H1114 C1111 0.929 . S
S1115 N1116 1.613 . S
S1115 N1117 1.610 . S
N1116 S1115 1.613 . S
N1116 C1119 1.350 . S
N1117 S1115 1.610 . S
N1117 C1118 1.351 . S
C1118 C1112 1.428 . S
C1118 N1117 1.351 . S
C1118 C1119 1.434 . S
C1119 C1110 1.429 . S
C1119 N1116 1.350 . S
C1119 C1118 1.434 . S
C1120 C1121 1.369 . S
C1120 C1122 1.419 . S
C1120 H1124 0.930 . S
C1121 C1120 1.369 . S
C1121 C1130 1.429 . S
C1122 C1120 1.419 . S
C1122 C1123 1.363 . S
C1122 H1125 0.929 . S
C1123 C1122 1.363 . S
C1123 C1129 1.428 . S
H1124 C1120 0.930 . S
H1125 C1122 0.929 . S
S1126 N1127 1.613 1_556 S
S1126 N1128 1.610 . S
N1127 S1126 1.613 1_554 S
N1127 C1130 1.350 . S
N1128 S1126 1.610 . S
N1128 C1129 1.351 1_556 S
C1129 C1123 1.428 . S
C1129 N1128 1.351 1_554 S
C1129 C1130 1.434 . S
C1130 C1121 1.429 . S
C1130 N1127 1.350 . S
C1130 C1129 1.434 . S
C1131 C1132 1.369 . S
C1131 C1133 1.419 . S
C1131 H1135 0.930 . S
C1132 C1131 1.369 . S
C1132 C1141 1.429 . S
C1133 C1131 1.419 . S
C1133 C1134 1.363 . S
C1133 H1136 0.929 . S
C1134 C1133 1.363 . S
C1134 C1140 1.428 . S
H1135 C1131 0.930 . S
H1136 C1133 0.929 . S
S1137 N1138 1.613 . S
S1137 N1139 1.610 . S
N1138 S1137 1.613 . S
N1138 C1141 1.350 . S
N1139 S1137 1.610 . S
N1139 C1140 1.351 . S
C1140 C1134 1.428 . S
C1140 N1139 1.351 . S
C1140 C1141 1.434 . S
C1141 C1132 1.429 . S
C1141 N1138 1.350 . S
C1141 C1140 1.434 . S
C1142 C1143 1.369 . S
C1142 C1144 1.419 . S
C1142 H1146 0.930 . S
C1143 C1142 1.369 . S
C1143 C1152 1.429 . S
C1144 C1142 1.419 . S
C1144 C1145 1.363 . S
C1144 H1147 0.929 . S
C1145 C1144 1.363 . S
C1145 C1151 1.428 . S
H1146 C1142 0.930 . S
H1147 C1144 0.929 . S
S1148 N1149 1.613 . S
S1148 N1150 1.610 . S
N1149 S1148 1.613 . S
N1149 C1152 1.350 . S
N1150 S1148 1.610 . S
N1150 C1151 1.351 . S
C1151 C1145 1.428 . S
C1151 N1150 1.351 . S
C1151 C1152 1.434 . S
C1152 C1143 1.429 . S
C1152 N1149 1.350 . S
C1152 C1151 1.434 . S
C1153 C1154 1.369 . S
C1153 C1155 1.419 . S
C1153 H1157 0.930 . S
C1154 C1153 1.369 . S
C1154 C1163 1.429 . S
C1155 C1153 1.419 . S
C1155 C1156 1.363 . S
C1155 H1158 0.929 . S
C1156 C1155 1.363 . S
C1156 C1162 1.428 . S
H1157 C1153 0.930 . S
H1158 C1155 0.929 . S
S1159 N1160 1.613 . S
S1159 N1161 1.610 . S
N1160 S1159 1.613 . S
N1160 C1163 1.350 . S
N1161 S1159 1.610 . S
N1161 C1162 1.351 . S
C1162 C1156 1.428 . S
C1162 N1161 1.351 . S
C1162 C1163 1.434 . S
C1163 C1154 1.429 . S
C1163 N1160 1.350 . S
C1163 C1162 1.434 . S
C1164 C1165 1.369 . S
C1164 C1166 1.419 . S
C1164 H1168 0.930 . S
C1165 C1164 1.369 . S
C1165 C1174 1.429 . S
C1166 C1164 1.419 . S
C1166 C1167 1.363 . S
C1166 H1169 0.929 . S
C1167 C1166 1.363 . S
C1167 C1173 1.428 . S
H1168 C1164 0.930 . S
H1169 C1166 0.929 . S
S1170 N1171 1.613 . S
S1170 N1172 1.610 . S
N1171 S1170 1.613 . S
N1171 C1174 1.350 . S
N1172 S1170 1.610 . S
N1172 C1173 1.351 . S
C1173 C1167 1.428 . S
C1173 N1172 1.351 . S
C1173 C1174 1.434 . S
C1174 C1165 1.429 . S
C1174 N1171 1.350 . S
C1174 C1173 1.434 . S
C1175 C1176 1.369 . S
C1175 C1177 1.419 . S
C1175 H1179 0.930 . S
C1176 C1175 1.369 . S
C1176 C1185 1.429 . S
C1177 C1175 1.419 . S
C1177 C1178 1.363 . S
C1177 H1180 0.929 . S
C1178 C1177 1.363 . S
C1178 C1184 1.428 . S
H1179 C1175 0.930 . S
H1180 C1177 0.929 . S
S1181 N1182 1.613 . S
S1181 N1183 1.610 . S
N1182 S1181 1.613 . S
N1182 C1185 1.350 . S
N1183 S1181 1.610 . S
N1183 C1184 1.351 . S
C1184 C1178 1.428 . S
C1184 N1183 1.351 . S
C1184 C1185 1.434 . S
C1185 C1176 1.429 . S
C1185 N1182 1.350 . S
C1185 C1184 1.434 . S
C1186 C1187 1.369 . S
C1186 C1188 1.419 . S
C1186 H1190 0.930 . S
C1187 C1186 1.369 . S
C1187 C1196 1.429 . S
C1188 C1186 1.419 . S
C1188 C1189 1.363 . S
C1188 H1191 0.929 . S
C1189 C1188 1.363 . S
C1189 C1195 1.428 . S
H1190 C1186 0.930 . S
H1191 C1188 0.929 . S
S1192 N1193 1.613 . S
S1192 N1194 1.610 . S
N1193 S1192 1.613 . S
N1193 C1196 1.350 . S
N1194 S1192 1.610 . S
N1194 C1195 1.351 . S
C1195 C1189 1.428 . S
C1195 N1194 1.351 . S
C1195 C1196 1.434 . S
C1196 C1187 1.429 . S
C1196 N1193 1.350 . S
C1196 C1195 1.434 . S
C1197 C1198 1.369 . S
C1197 C1199 1.419 . S
C1197 H1201 0.941 . S
C1198 C1197 1.369 . S
C1198 C1207 1.429 . S
C1199 C1197 1.419 . S
C1199 C1200 1.363 . S
C1199 H1202 0.929 . S
C1200 C1199 1.363 . S
C1200 C1206 1.428 . S
H1201 C1197 0.941 . S
H1202 C1199 0.929 . S
S1203 N1204 1.613 . S
S1203 N1205 1.610 . S
N1204 S1203 1.613 . S
N1204 C1207 1.350 . S
N1205 S1203 1.610 . S
N1205 C1206 1.351 . S
C1206 C1200 1.428 . S
C1206 N1205 1.351 . S
C1206 C1207 1.434 . S
C1207 C1198 1.429 . S
C1207 N1204 1.350 . S
C1207 C1206 1.434 . S
C1208 C1209 1.369 . S
C1208 C1210 1.419 . S
C1208 H1212 0.930 . S
C1209 C1208 1.369 . S
C1209 C1218 1.429 . S
C1210 C1208 1.419 . S
C1210 C1211 1.363 . S
C1210 H1213 0.929 . S
C1211 C1210 1.363 . S
C1211 C1217 1.428 . S
H1212 C1208 0.930 . S
H1213 C1210 0.929 . S
S1214 N1215 1.613 . S
S1214 N1216 1.610 . S
N1215 S1214 1.613 . S
N1215 C1218 1.350 . S
N1216 S1214 1.610 . S
N1216 C1217 1.351 . S
C1217 C1211 1.428 . S
C1217 N1216 1.351 . S
C1217 C1218 1.434 . S
C1218 C1209 1.429 . S
C1218 N1215 1.350 . S
C1218 C1217 1.434 . S
C1219 C1220 1.369 . S
C1219 C1221 1.419 . S
C1219 H1223 0.930 . S
C1220 C1219 1.369 . S
C1220 C1229 1.429 . S
C1221 C1219 1.419 . S
C1221 C1222 1.363 . S
C1221 H1224 0.929 . S
C1222 C1221 1.363 . S
C1222 C1228 1.428 . S
H1223 C1219 0.930 . S
H1224 C1221 0.929 . S
S1225 N1226 1.613 . S
S1225 N1227 1.610 . S
N1226 S1225 1.613 . S
N1226 C1229 1.350 . S
N1227 S1225 1.610 . S
N1227 C1228 1.351 . S
C1228 C1222 1.428 . S
C1228 N1227 1.351 . S
C1228 C1229 1.434 . S
C1229 C1220 1.429 . S
C1229 N1226 1.350 . S
C1229 C1228 1.434 . S
C1230 C1231 1.369 . S
C1230 C1232 1.419 . S
C1230 H1234 0.930 . S
C1231 C1230 1.369 . S
C1231 C1240 1.429 . S
C1232 C1230 1.419 . S
C1232 C1233 1.363 . S
C1232 H1235 0.929 . S
C1233 C1232 1.363 . S
C1233 C1239 1.428 . S
H1234 C1230 0.930 . S
H1235 C1232 0.929 . S
S1236 N1237 1.613 . S
S1236 N1238 1.610 . S
N1237 S1236 1.613 . S
N1237 C1240 1.350 . S
N1238 S1236 1.610 . S
N1238 C1239 1.351 . S
C1239 C1233 1.428 . S
C1239 N1238 1.351 . S
C1239 C1240 1.434 . S
C1240 C1231 1.429 . S
C1240 N1237 1.350 . S
C1240 C1239 1.434 . S
C1241 C1242 1.369 . S
C1241 C1243 1.419 . S
C1241 H1245 0.930 . S
C1242 C1241 1.369 . S
C1242 C1251 1.429 . S
C1243 C1241 1.419 . S
C1243 C1244 1.363 . S
C1243 H1246 0.929 . S
C1244 C1243 1.363 . S
C1244 C1250 1.428 . S
H1245 C1241 0.930 . S
H1246 C1243 0.929 . S
S1247 N1248 1.613 . S
S1247 N1249 1.610 . S
N1248 S1247 1.613 . S
N1248 C1251 1.350 . S
N1249 S1247 1.610 . S
N1249 C1250 1.351 . S
C1250 C1244 1.428 . S
C1250 N1249 1.351 . S
C1250 C1251 1.434 . S
C1251 C1242 1.429 . S
C1251 N1248 1.350 . S
C1251 C1250 1.434 . S
C1252 C1253 1.369 . S
C1252 C1254 1.419 . S
C1252 H1256 0.930 . S
C1253 C1252 1.369 . S
C1253 C1262 1.429 . S
C1254 C1252 1.419 . S
C1254 C1255 1.363 . S
C1254 H1257 0.929 . S
C1255 C1254 1.363 . S
C1255 C1261 1.428 . S
H1256 C1252 0.930 . S
H1257 C1254 0.929 . S
S1258 N1259 1.613 . S
S1258 N1260 1.610 . S
N1259 S1258 1.613 . S
N1259 C1262 1.350 . S
N1260 S1258 1.610 . S
N1260 C1261 1.351 . S
C1261 C1255 1.428 . S
C1261 N1260 1.351 . S
C1261 C1262 1.434 . S
C1262 C1253 1.429 . S
C1262 N1259 1.350 . S
C1262 C1261 1.434 . S
C1263 C1264 1.369 . S
C1263 C1265 1.419 . S
C1263 H1267 0.930 . S
C1264 C1263 1.369 . S
C1264 C1273 1.429 . S
C1265 C1263 1.419 . S
C1265 C1266 1.363 . S
C1265 H1268 0.929 . S
C1266 C1265 1.363 . S
C1266 C1272 1.428 . S
H1267 C1263 0.930 . S
H1268 C1265 0.929 . S
S1269 N1270 1.613 . S
S1269 N1271 1.610 . S
N1270 S1269 1.613 . S
N1270 C1273 1.350 . S
N1271 S1269 1.610 . S
N1271 C1272 1.351 . S
C1272 C1266 1.428 . S
C1272 N1271 1.351 . S
C1272 C1273 1.434 . S
C1273 C1264 1.429 . S
C1273 N1270 1.350 . S
C1273 C1272 1.434 . S
C1274 C1275 1.369 . S
C1274 C1276 1.419 . S
C1274 H1278 0.930 . S
C1275 C1274 1.369 . S
C1275 C1284 1.429 . S
C1276 C1274 1.419 . S
C1276 C1277 1.363 . S
C1276 H1279 0.929 . S
C1277 C1276 1.363 . S
C1277 C1283 1.428 . S
H1278 C1274 0.930 . S
H1279 C1276 0.929 . S
S1280 N1281 1.613 1_556 S
S1280 N1282 1.610 . S
N1281 S1280 1.613 1_554 S
N1281 C1284 1.350 . S
N1282 S1280 1.610 . S
N1282 C1283 1.351 1_556 S
C1283 C1277 1.428 . S
C1283 N1282 1.351 1_554 S
C1283 C1284 1.434 . S
C1284 C1275 1.429 . S
C1284 N1281 1.350 . S
C1284 C1283 1.434 . S
C1285 C1286 1.369 . S
C1285 C1287 1.419 . S
C1285 H1289 0.930 . S
C1286 C1285 1.369 . S
C1286 C1295 1.429 . S
C1287 C1285 1.419 . S
C1287 C1288 1.363 . S
C1287 H1290 0.929 . S
C1288 C1287 1.363 . S
C1288 C1294 1.428 . S
H1289 C1285 0.930 . S
H1290 C1287 0.929 . S
S1291 N1292 1.613 . S
S1291 N1293 1.610 . S
N1292 S1291 1.613 . S
N1292 C1295 1.350 . S
N1293 S1291 1.610 . S
N1293 C1294 1.351 . S
C1294 C1288 1.428 . S
C1294 N1293 1.351 . S
C1294 C1295 1.434 . S
C1295 C1286 1.429 . S
C1295 N1292 1.350 . S
C1295 C1294 1.434 . S
C945 C33 1.649 . S
C947 C741 1.651 . S
C956 C111 1.641 . S
C958 C347 1.640 . S
C967 C151 1.651 . S
C969 C859 1.649 . S
C978 C465 1.639 . S
C980 C229 1.641 . S
C989 C878 1.642 . S
C991 C170 1.639 . S
C1000 C446 1.649 . S
C1002 C210 1.652 . S
C1011 C760 1.639 . S
C1013 C52 1.641 . S
C1022 C328 1.651 . S
C1024 C92 1.650 . S
C1033 C269 1.649 . S
C1035 C505 1.651 . S
C1044 C387 1.651 . S
C1046 C623 1.649 . S
C1055 C642 1.638 . S
C1057 C406 1.641 . S
C1066 C288 1.642 . S
C1068 C524 1.639 . S
C1077 C819 1.641 . S
C1079 C583 1.639 . S
C1088 C701 1.638 . S
C1090 C937 1.641 . S
C1099 C682 1.651 . S
C1101 C918 1.649 . S
C1110 C564 1.650 . S
C1112 C800 1.650 . S
C1121 C654 1.515 . S
C1123 C5 1.513 . S
C1132 C475 1.514 . S
C1134 C62 1.514 . S
C1143 C123 1.513 . S
C1145 C536 1.514 . S
C1154 C593 1.514 . S
C1156 C180 1.514 . S
C1165 C652 1.513 . S
C1167 C121 1.512 . S
C1176 C182 1.513 . S
C1178 C477 1.515 . S
C1187 C534 1.512 . S
C1189 C3 1.513 . S
C1198 C595 1.515 . S
C1200 C64 1.513 . S
C1209 C241 1.515 . S
C1211 C890 1.513 . S
C1220 C711 1.513 . S
C1222 C298 1.514 . S
C1231 C359 1.515 . S
C1233 C772 1.513 . S
C1242 C416 1.514 . S
C1244 C829 1.514 . S
C1253 C357 1.513 . S
C1255 C888 1.512 . S
C1264 C713 1.515 . S
C1266 C418 1.513 . S
C1275 C770 1.514 . S
C1277 C239 1.513 . S
C1286 C831 1.514 . S
C1288 C300 1.514 . S
