# Generated by pormake.
# Topology ung, (4)-cn, num edge types: 1
# Building blocks:
#     Node 0, Type 0, BuildingBlock: QUQFOY_clean_sbu_3, # of connection points: 4
#     Node 1, Type 0, BuildingBlock: QUQFOY_clean_sbu_3, # of connection points: 4
#     Node 2, Type 0, BuildingBlock: QUQFOY_clean_sbu_3, # of connection points: 4
#     Node 3, Type 0, BuildingBlock: QUQFOY_clean_sbu_3, # of connection points: 4
#     Node 4, Type 0, BuildingBlock: QUQFOY_clean_sbu_3, # of connection points: 4
#     Node 5, Type 0, BuildingBlock: QUQFOY_clean_sbu_3, # of connection points: 4
#     Node 6, Type 0, BuildingBlock: QUQFOY_clean_sbu_3, # of connection points: 4
#     Node 7, Type 0, BuildingBlock: QUQFOY_clean_sbu_3, # of connection points: 4
#     Node 8, Type 0, BuildingBlock: QUQFOY_clean_sbu_3, # of connection points: 4
#     Node 9, Type 0, BuildingBlock: QUQFOY_clean_sbu_3, # of connection points: 4
#     Node 10, Type 0, BuildingBlock: QUQFOY_clean_sbu_3, # of connection points: 4
#     Node 11, Type 0, BuildingBlock: QUQFOY_clean_sbu_3, # of connection points: 4
#     Node 12, Type 0, BuildingBlock: QUQFOY_clean_sbu_3, # of connection points: 4
#     Node 13, Type 0, BuildingBlock: QUQFOY_clean_sbu_3, # of connection points: 4
#     Node 14, Type 0, BuildingBlock: QUQFOY_clean_sbu_3, # of connection points: 4
#     Node 15, Type 0, BuildingBlock: QUQFOY_clean_sbu_3, # of connection points: 4
#     Node 16, Type 0, BuildingBlock: QUQFOY_clean_sbu_3, # of connection points: 4
#     Node 17, Type 0, BuildingBlock: QUQFOY_clean_sbu_3, # of connection points: 4
#     Edge 18, Type (0, 0), BuildingBlock: KIFKEQ_clean_linker_1, # of connection points: 2
#     Edge 19, Type (0, 0), BuildingBlock: KIFKEQ_clean_linker_1, # of connection points: 2
#     Edge 20, Type (0, 0), BuildingBlock: KIFKEQ_clean_linker_1, # of connection points: 2
#     Edge 21, Type (0, 0), BuildingBlock: KIFKEQ_clean_linker_1, # of connection points: 2
#     Edge 22, Type (0, 0), BuildingBlock: KIFKEQ_clean_linker_1, # of connection points: 2
#     Edge 23, Type (0, 0), BuildingBlock: KIFKEQ_clean_linker_1, # of connection points: 2
#     Edge 24, Type (0, 0), BuildingBlock: KIFKEQ_clean_linker_1, # of connection points: 2
#     Edge 25, Type (0, 0), BuildingBlock: KIFKEQ_clean_linker_1, # of connection points: 2
#     Edge 26, Type (0, 0), BuildingBlock: KIFKEQ_clean_linker_1, # of connection points: 2
#     Edge 27, Type (0, 0), BuildingBlock: KIFKEQ_clean_linker_1, # of connection points: 2
#     Edge 28, Type (0, 0), BuildingBlock: KIFKEQ_clean_linker_1, # of connection points: 2
#     Edge 29, Type (0, 0), BuildingBlock: KIFKEQ_clean_linker_1, # of connection points: 2
#     Edge 30, Type (0, 0), BuildingBlock: KIFKEQ_clean_linker_1, # of connection points: 2
#     Edge 31, Type (0, 0), BuildingBlock: KIFKEQ_clean_linker_1, # of connection points: 2
#     Edge 32, Type (0, 0), BuildingBlock: KIFKEQ_clean_linker_1, # of connection points: 2
#     Edge 33, Type (0, 0), BuildingBlock: KIFKEQ_clean_linker_1, # of connection points: 2
#     Edge 34, Type (0, 0), BuildingBlock: KIFKEQ_clean_linker_1, # of connection points: 2
#     Edge 35, Type (0, 0), BuildingBlock: KIFKEQ_clean_linker_1, # of connection points: 2
#     Edge 36, Type (0, 0), BuildingBlock: KIFKEQ_clean_linker_1, # of connection points: 2
#     Edge 37, Type (0, 0), BuildingBlock: KIFKEQ_clean_linker_1, # of connection points: 2
#     Edge 38, Type (0, 0), BuildingBlock: KIFKEQ_clean_linker_1, # of connection points: 2
#     Edge 39, Type (0, 0), BuildingBlock: KIFKEQ_clean_linker_1, # of connection points: 2
#     Edge 40, Type (0, 0), BuildingBlock: KIFKEQ_clean_linker_1, # of connection points: 2
#     Edge 41, Type (0, 0), BuildingBlock: KIFKEQ_clean_linker_1, # of connection points: 2
#     Edge 42, Type (0, 0), BuildingBlock: KIFKEQ_clean_linker_1, # of connection points: 2
#     Edge 43, Type (0, 0), BuildingBlock: KIFKEQ_clean_linker_1, # of connection points: 2
#     Edge 44, Type (0, 0), BuildingBlock: KIFKEQ_clean_linker_1, # of connection points: 2
#     Edge 45, Type (0, 0), BuildingBlock: KIFKEQ_clean_linker_1, # of connection points: 2
#     Edge 46, Type (0, 0), BuildingBlock: KIFKEQ_clean_linker_1, # of connection points: 2
#     Edge 47, Type (0, 0), BuildingBlock: KIFKEQ_clean_linker_1, # of connection points: 2
#     Edge 48, Type (0, 0), BuildingBlock: KIFKEQ_clean_linker_1, # of connection points: 2
#     Edge 49, Type (0, 0), BuildingBlock: KIFKEQ_clean_linker_1, # of connection points: 2
#     Edge 50, Type (0, 0), BuildingBlock: KIFKEQ_clean_linker_1, # of connection points: 2
#     Edge 51, Type (0, 0), BuildingBlock: KIFKEQ_clean_linker_1, # of connection points: 2
#     Edge 52, Type (0, 0), BuildingBlock: KIFKEQ_clean_linker_1, # of connection points: 2
#     Edge 53, Type (0, 0), BuildingBlock: KIFKEQ_clean_linker_1, # of connection points: 2
# Relax obj value: 0.078
# Max RMSD: 0.194
# Mean RMSD: 0.191
data_MOF--net-ung--node1-QUQFOY_clean_sbu_3--edge1-KIFKEQ_clean_linker_1
_symmetry_space_group_name_H-M    P1
_symmetry_Int_Tables_number       1
_symmetry_cell_setting            triclinic
loop_
_symmetry_equiv_pos_as_xyz
'x, y, z'
_cell_length_a     77.758621
_cell_length_b     78.505332
_cell_length_c     24.224417
_cell_angle_alpha  89.582533
_cell_angle_beta   91.096807
_cell_angle_gamma 121.15749
loop_
_atom_site_label
_atom_site_type_symbol
_atom_site_fract_x
_atom_site_fract_y
_atom_site_fract_z
_atom_type_partial_charge
C0 C 0.06607 0.64624 0.26526 0.0
O1 O 0.0758 0.6475 0.22253 0.0
Cd2 Cd 0.05526 0.62483 0.14915 0.0
O3 O 0.04835 0.63151 0.27079 0.0
Cd4 Cd 0.02634 0.59887 0.22783 0.0
C5 C 0.00937 0.62161 0.1506 0.0
O6 O 0.04393 0.59005 0.16054 0.0
O7 O 0.01137 0.57579 0.15353 0.0
O8 O 0.03791 0.58555 0.29674 0.0
C9 C 0.02736 0.57671 0.13841 0.0
O10 O 0.02661 0.62871 0.12931 0.0
C11 C 0.02151 0.57549 0.32198 0.0
O12 O 0.00418 0.60977 0.19149 0.0
O13 O 0.00643 0.5762 0.30346 0.0
C14 C 0.45145 0.42078 0.19656 0.0
O15 O 0.45713 0.41958 0.24511 0.0
Cd16 Cd 0.46048 0.44382 0.31244 0.0
O17 O 0.45006 0.43568 0.18301 0.0
Cd18 Cd 0.45843 0.46832 0.21814 0.0
C19 C 0.41747 0.44594 0.29433 0.0
O20 O 0.48446 0.47801 0.29027 0.0
O21 O 0.46819 0.49369 0.28609 0.0
O22 O 0.48387 0.48045 0.15134 0.0
C23 C 0.48227 0.49207 0.30761 0.0
O24 O 0.42768 0.44016 0.32154 0.0
C25 C 0.47768 0.48959 0.12156 0.0
O26 O 0.42434 0.45645 0.25087 0.0
O27 O 0.46173 0.48899 0.13657 0.0
C28 C 0.59337 -0.00432 0.24918 0.0
O29 O 0.58881 -0.00974 0.19912 0.0
Cd30 Cd 0.58304 0.01097 0.13483 0.0
O31 O 0.59405 0.01128 0.26599 0.0
Cd32 Cd 0.58817 0.03763 0.23896 0.0
C33 C 0.62676 0.05656 0.15217 0.0
O34 O 0.56081 0.02059 0.17065 0.0
O35 O 0.5757 0.05275 0.17741 0.0
O36 O 0.56759 0.02503 0.3185 0.0
C37 C 0.56205 0.03673 0.15515 0.0
O38 O 0.61477 0.04183 0.12167 0.0
C39 C 0.57368 0.04167 0.34163 0.0
O40 O 0.62225 0.05824 0.20145 0.0
O41 O 0.58739 0.05712 0.31751 0.0
C42 C 0.06822 0.46901 0.75098 0.0
O43 O 0.07497 0.47497 0.70293 0.0
Cd44 Cd 0.0537 0.47879 0.63508 0.0
O45 O 0.05145 0.46676 0.76411 0.0
Cd46 Cd 0.0248 0.47202 0.73162 0.0
C47 C 0.00916 0.43348 0.64585 0.0
O48 O 0.0409 0.49912 0.66515 0.0
O49 O 0.00825 0.48146 0.6646 0.0
O50 O 0.03806 0.49536 0.80439 0.0
C51 C 0.0242 0.49619 0.64593 0.0
O52 O 0.0246 0.44589 0.61904 0.0
C53 C 0.02213 0.48868 0.83179 0.0
O54 O 0.0056 0.43798 0.69315 0.0
O55 O 0.0064 0.47321 0.81286 0.0
C56 C 0.63627 0.60541 0.68915 0.0
O57 O 0.63882 0.59875 0.73445 0.0
Cd58 Cd 0.61509 0.59317 0.8072 0.0
O59 O 0.62066 0.60644 0.68165 0.0
Cd60 Cd 0.58878 0.59654 0.7235 0.0
C61 C 0.6128 0.63575 0.8062 0.0
O62 O 0.57972 0.56979 0.79131 0.0
O63 O 0.56562 0.58758 0.79576 0.0
O64 O 0.57477 0.57138 0.65562 0.0
C65 C 0.56651 0.5727 0.81248 0.0
O66 O 0.61825 0.62472 0.82988 0.0
C67 C 0.56485 0.5775 0.62889 0.0
O68 O 0.60259 0.63024 0.76108 0.0
O69 O 0.56599 0.5934 0.64599 0.0
C70 C 0.45516 0.08225 0.6943 0.0
O71 O 0.46055 0.09043 0.74143 0.0
Cd72 Cd 0.462 0.0704 0.81549 0.0
O73 O 0.45436 0.06592 0.68557 0.0
Cd74 Cd 0.46484 0.04469 0.7317 0.0
C75 C 0.42131 0.02284 0.79476 0.0
O76 O 0.4876 0.06204 0.81094 0.0
O77 O 0.47025 0.02966 0.81002 0.0
O78 O 0.49369 0.05785 0.67458 0.0
C79 C 0.48387 0.04564 0.8326 0.0
O80 O 0.42968 0.03939 0.82054 0.0
C81 C 0.48841 0.04195 0.64818 0.0
O82 O 0.43026 0.01982 0.75592 0.0
O83 O 0.47152 0.02669 0.66012 0.0
C84 C 0.6463 0.93889 0.52965 0.0
O85 O 0.64026 0.93489 0.57897 0.0
Cd86 Cd 0.66028 0.93026 0.64886 0.0
O87 O 0.66203 0.93902 0.51595 0.0
Cd88 Cd 0.68643 0.93131 0.55399 0.0
C89 C 0.70747 0.97173 0.6333 0.0
O90 O 0.66919 0.90615 0.62645 0.0
O91 O 0.70184 0.92325 0.62657 0.0
O92 O 0.67405 0.9069 0.48189 0.0
C93 C 0.6858 0.90921 0.64685 0.0
O94 O 0.69206 0.9613 0.66264 0.0
C95 C 0.69091 0.91237 0.46072 0.0
O96 O 0.70926 0.96571 0.58615 0.0
O97 O 0.70631 0.92741 0.48235 0.0
C98 C 0.11984 0.75838 0.53961 0.0
O99 O 0.12924 0.76037 0.58476 0.0
Cd100 Cd 0.13591 0.78833 0.64339 0.0
O101 O 0.11723 0.7722 0.52247 0.0
Cd102 Cd 0.12722 0.80656 0.54119 0.0
C103 C 0.09086 0.78735 0.63279 0.0
O104 O 0.15706 0.82011 0.60162 0.0
O105 O 0.14008 0.83502 0.60072 0.0
O106 O 0.14487 0.81114 0.45788 0.0
C107 C 0.15542 0.83463 0.61754 0.0
O108 O 0.1037 0.78556 0.66179 0.0
C109 C 0.13921 0.82179 0.43349 0.0
O110 O 0.09433 0.79326 0.58283 0.0
O111 O 0.12713 0.82526 0.45897 0.0
C112 C 0.29928 0.40713 0.52977 0.0
O113 O 0.30085 0.41518 0.57627 0.0
Cd114 Cd 0.27344 0.39542 0.64031 0.0
O115 O 0.28336 0.39091 0.5175 0.0
Cd116 Cd 0.24986 0.36702 0.54683 0.0
C117 C 0.27027 0.35011 0.63619 0.0
O118 O 0.23974 0.38503 0.60832 0.0
O119 O 0.22312 0.35267 0.61076 0.0
O120 O 0.24369 0.37946 0.46423 0.0
C121 C 0.2249 0.36888 0.62649 0.0
O122 O 0.27402 0.36545 0.66377 0.0
C123 C 0.23213 0.3628 0.44121 0.0
O124 O 0.26296 0.34722 0.58721 0.0
O125 O 0.22839 0.3472 0.46781 0.0
C126 C 0.74114 0.80606 0.07239 0.0
O127 O 0.7468 0.81024 0.02277 0.0
Cd128 Cd 0.72574 0.81442 0.95491 0.0
O129 O 0.72524 0.80534 0.08742 0.0
Cd130 Cd 0.69874 0.81096 0.05608 0.0
C131 C 0.68001 0.77094 -0.02624 0.0
O132 O 0.7144 0.83597 -0.01621 0.0
O133 O 0.68181 0.81975 -0.0105 0.0
O134 O 0.71159 0.83632 0.12472 0.0
C135 C 0.69756 0.83322 0.96642 0.0
O136 O 0.69524 0.7823 0.94472 0.0
C137 C 0.69571 0.8294 0.15253 0.0
O138 O 0.6777 0.77646 0.02115 0.0
O139 O 0.68057 0.8129 0.13639 0.0
C140 C 0.30395 0.93835 0.02823 0.0
O141 O 0.30563 0.932 0.0751 0.0
Cd142 Cd 0.27939 0.92542 0.14115 0.0
O143 O 0.28837 0.93903 0.01664 0.0
Cd144 Cd 0.25558 0.93014 0.0488 0.0
C145 C 0.27791 0.96841 0.13661 0.0
O146 O 0.24474 0.90232 0.11426 0.0
O147 O 0.22871 0.91834 0.11108 0.0
O148 O 0.2448 0.90775 -0.02652 0.0
C149 C 0.23005 0.90394 0.12999 0.0
O150 O 0.28227 0.95693 0.16256 0.0
C151 C 0.23601 0.9149 0.94581 0.0
O152 O 0.26907 0.96342 0.08944 0.0
O153 O 0.23614 0.92991 0.96623 0.0
C154 C 0.12136 0.41193 0.0298 0.0
O155 O 0.1279 0.41846 0.07816 0.0
Cd156 Cd 0.13433 0.39807 0.1418 0.0
O157 O 0.11953 0.39568 0.01418 0.0
Cd158 Cd 0.12654 0.37004 0.04158 0.0
C159 C 0.0905 0.35188 0.13624 0.0
O160 O 0.15536 0.38685 0.10593 0.0
O161 O 0.13932 0.35454 0.09998 0.0
O162 O 0.14859 0.38327 0.96636 0.0
C163 C 0.15376 0.37045 0.12065 0.0
O164 O 0.10297 0.36785 0.16167 0.0
C165 C 0.14104 0.36756 0.93746 0.0
O166 O 0.09385 0.3487 0.08702 0.0
O167 O 0.12572 0.35206 0.95664 0.0
C168 C 0.39551 0.31005 0.91798 0.0
O169 O 0.40107 0.31102 0.86858 0.0
Cd170 Cd 0.37892 0.28369 0.80631 0.0
O171 O 0.37947 0.29479 0.93399 0.0
Cd172 Cd 0.35255 0.26203 0.90524 0.0
C173 C 0.33439 0.28241 0.81937 0.0
O174 O 0.36865 0.25095 0.84071 0.0
O175 O 0.336 0.23501 0.84015 0.0
O176 O 0.36507 0.25251 -0.01844 0.0
C177 C 0.35198 0.23627 0.82342 0.0
O178 O 0.34874 0.28505 0.78894 0.0
C179 C 0.34896 0.24351 0.0085 0.0
O180 O 0.33273 0.27592 0.86859 0.0
O181 O 0.33354 0.24299 -0.01265 0.0
C182 C 0.78604 0.09223 0.86779 0.0
O183 O 0.79117 0.09217 0.91784 0.0
Cd184 Cd 0.80079 0.12117 -0.02386 0.0
O185 O 0.78624 0.10734 0.84811 0.0
Cd186 Cd 0.79424 0.14083 0.86913 0.0
C187 C 0.75789 0.12347 0.96371 0.0
O188 O 0.82332 0.15213 0.93162 0.0
O189 O 0.81033 0.17073 0.92315 0.0
O190 O 0.81098 0.14471 0.78441 0.0
C191 C 0.82381 0.1681 0.94432 0.0
O192 O 0.77023 0.12128 -0.0063 0.0
C193 C 0.80543 0.15551 0.76041 0.0
O194 O 0.76145 0.12856 0.91307 0.0
O195 O 0.79392 0.1595 0.78688 0.0
C196 C 0.92865 0.65914 0.9102 0.0
O197 O 0.92335 0.6521 0.86169 0.0
Cd198 Cd 0.9157 0.6708 0.79455 0.0
O199 O 0.92794 0.67429 0.92398 0.0
Cd200 Cd 0.91762 0.69686 0.8918 0.0
C201 C 0.95743 0.71761 0.81035 0.0
O202 O 0.89097 0.6786 0.82151 0.0
O203 O 0.90583 0.71089 0.82563 0.0
O204 O 0.89553 0.68384 0.96831 0.0
C205 C 0.89213 0.69459 0.8047 0.0
O206 O 0.94654 0.70247 0.7799 0.0
C207 C 0.90086 0.70047 -0.00947 0.0
O208 O 0.95185 0.71917 0.85829 0.0
O209 O 0.9148 0.71602 0.96731 0.0
C210 C 0.39603 0.13407 0.4173 0.0
O211 O 0.40416 0.14462 0.37496 0.0
Cd212 Cd 0.38201 0.14882 0.31171 0.0
O213 O 0.37849 0.12966 0.4307 0.0
Cd214 Cd 0.35312 0.13819 0.40806 0.0
C215 C 0.33831 0.10218 0.3156 0.0
O216 O 0.3686 0.16758 0.34894 0.0
O217 O 0.33606 0.14853 0.34519 0.0
O218 O 0.36643 0.15873 0.48721 0.0
C219 C 0.35175 0.16447 0.33049 0.0
O220 O 0.35377 0.11549 0.29052 0.0
C221 C 0.35022 0.15155 0.51362 0.0
O222 O 0.33419 0.10547 0.36369 0.0
O223 O 0.33448 0.13699 0.49137 0.0
C224 C -0.03024 0.26865 0.36549 0.0
O225 O -0.03029 0.26165 0.41292 0.0
Cd226 Cd 0.94219 0.25454 0.47419 0.0
O227 O 0.955 0.27021 0.34973 0.0
Cd228 Cd 0.92162 0.26236 0.37486 0.0
C229 C 0.94299 0.29885 0.46937 0.0
O230 O 0.9089 0.23314 0.43573 0.0
O231 O 0.8927 0.24887 0.43088 0.0
O232 O 0.9154 0.24452 0.2908 0.0
C233 C 0.89385 0.23439 0.44978 0.0
O234 O 0.94582 0.2864 0.49586 0.0
C235 C 0.90533 0.25102 0.26674 0.0
O236 O 0.93548 0.29494 0.42049 0.0
O237 O 0.90266 0.26344 0.29316 0.0
C238 C 0.79112 0.74869 0.35814 0.0
O239 O 0.79447 0.75449 0.40801 0.0
Cd240 Cd 0.79431 0.73245 0.47808 0.0
O241 O 0.79003 0.73253 0.34494 0.0
Cd242 Cd 0.7956 0.70702 0.38575 0.0
C243 C 0.75176 0.68691 0.44856 0.0
O244 O 0.81834 0.72235 0.46565 0.0
O245 O 0.80051 0.69006 0.46071 0.0
O246 O 0.82416 0.71876 0.32845 0.0
C247 C 0.81427 0.70554 0.48495 0.0
O248 O 0.76105 0.70264 0.47784 0.0
C249 C 0.8175 0.70317 0.29938 0.0
O250 O 0.76023 0.68402 0.40812 0.0
O251 O 0.79995 0.68869 0.31004 0.0
H252 H -0.00866 0.47909 0.90367 0.0
H253 H 0.05366 0.5227 0.87304 0.0
H254 H -0.00763 0.49858 -0.01637 0.0
H255 H 0.05446 0.54228 0.95033 0.0
H256 H 0.05643 0.56831 0.11465 0.0
H257 H 0.05438 0.54441 0.04709 0.0
H258 H -0.00597 0.5293 0.00166 0.0
H259 H -0.00419 0.55249 0.07073 0.0
C260 C 0.00522 0.49275 0.91407 0.0
C261 C 0.02237 0.49936 0.88199 0.0
C262 C 0.00581 0.50397 0.95959 0.0
C263 C 0.02353 0.52202 -0.02652 0.0
C264 C 0.04069 0.52831 0.94175 0.0
C265 C 0.04014 0.5171 0.89689 0.0
C266 C 0.04273 0.55982 0.0903 0.0
C267 C 0.02636 0.56237 0.09761 0.0
C268 C 0.04153 0.54614 0.05153 0.0
C269 C 0.02405 0.53498 0.01868 0.0
C270 C 0.00758 0.53737 0.02677 0.0
C271 C 0.00869 0.55083 0.066 0.0
H272 H 0.54139 0.57896 0.87369 0.0
H273 H 0.55946 0.53619 0.84524 0.0
H274 H 0.51847 0.55764 0.94426 0.0
H275 H 0.53586 0.51438 0.91481 0.0
H276 H 0.51354 0.49535 0.09025 0.0
H277 H 0.53357 0.51412 0.01253 0.0
H278 H 0.48782 0.527 0.96236 0.0
H279 H 0.46784 0.50854 0.04222 0.0
C280 C 0.54031 0.56487 0.88215 0.0
C281 C 0.55235 0.5593 0.85428 0.0
C282 C 0.52699 0.55255 0.92228 0.0
C283 C 0.52529 0.53429 0.93521 0.0
C284 C 0.53703 0.52851 0.9064 0.0
C285 C 0.55052 0.54095 0.86651 0.0
C286 C 0.50763 0.50209 0.06262 0.0
C287 C 0.48912 0.50054 0.07252 0.0
C288 C 0.51909 0.51273 0.01763 0.0
C289 C 0.51229 0.52199 -0.01901 0.0
C290 C 0.49358 0.5202 -0.00976 0.0
C291 C 0.4821 0.5096 0.03576 0.0
H292 H 0.55601 0.06708 0.13148 0.0
H293 H 0.53931 0.00793 0.07872 0.0
H294 H 0.53642 0.06929 0.05542 0.0
H295 H 0.52027 0.0104 0.00105 0.0
H296 H 0.47297 0.01363 0.89819 0.0
H297 H 0.49088 0.01127 -0.02177 0.0
H298 H 0.5375 0.07294 0.95762 0.0
H299 H 0.51905 0.07548 0.87841 0.0
C300 C 0.54815 0.05455 0.10345 0.0
C301 C 0.54916 0.03732 0.11087 0.0
C302 C 0.53706 0.05589 0.05961 0.0
C303 C 0.52691 0.04011 0.02186 0.0
C304 C 0.5277 0.02273 0.0298 0.0
C305 C 0.53863 0.02131 0.07415 0.0
C306 C 0.48702 0.02672 0.91086 0.0
C307 C 0.49468 0.04475 0.88205 0.0
C308 C 0.49735 0.02531 0.95655 0.0
C309 C 0.51569 0.04185 -0.02585 0.0
C310 C 0.52327 0.05997 0.94558 0.0
C311 C 0.51278 0.06144 0.90009 0.0
H312 H 0.55113 0.01142 0.41189 0.0
H313 H 0.57369 0.07386 0.38432 0.0
H314 H 0.53139 0.01145 0.48848 0.0
H315 H 0.55336 0.0738 0.46 0.0
H316 H 0.52692 0.07087 0.62744 0.0
H317 H 0.54899 0.07108 0.55751 0.0
H318 H 0.50182 0.01294 0.50165 0.0
H319 H 0.47989 0.01247 0.57325 0.0
C320 C 0.55194 0.0252 0.42246 0.0
C321 C 0.56389 0.04264 0.39207 0.0
C322 C 0.54047 0.02517 0.46603 0.0
C323 C 0.54053 0.04254 0.47993 0.0
C324 C 0.55307 0.06019 0.45071 0.0
C325 C 0.56473 0.06026 0.40734 0.0
C326 C 0.52125 0.05808 0.60033 0.0
C327 C 0.50164 0.04164 0.60577 0.0
C328 C 0.5339 0.05827 0.56 0.0
C329 C 0.5272 0.04208 0.5238 0.0
C330 C 0.50758 0.02556 0.5294 0.0
C331 C 0.49495 0.0253 0.57016 0.0
H332 H -0.00784 0.55836 0.40037 0.0
H333 H 0.04905 0.566 0.35312 0.0
H334 H -0.00754 0.54025 0.48297 0.0
H335 H 0.04906 0.54761 0.4336 0.0
H336 H -0.00888 0.48964 0.587 0.0
H337 H -0.01034 0.50922 0.51063 0.0
H338 H 0.05337 0.55124 0.53127 0.0
H339 H 0.05494 0.53124 0.60635 0.0
C340 C 0.0046 0.55604 0.40742 0.0
C341 C 0.02063 0.56369 0.37059 0.0
C342 C 0.00478 0.54568 0.45454 0.0
C343 C 0.02093 0.54273 0.46521 0.0
C344 C 0.03667 0.55008 0.42755 0.0
C345 C 0.03657 0.56049 0.38105 0.0
C346 C 0.0048 0.50312 0.57535 0.0
C347 C 0.02321 0.50881 0.60217 0.0
C348 C 0.00392 0.51441 0.53186 0.0
C349 C 0.02142 0.53169 0.51456 0.0
C350 C 0.03969 0.53776 0.54284 0.0
C351 C 0.0406 0.52637 0.58599 0.0
H352 H 0.54802 0.58911 0.54697 0.0
H353 H 0.55415 0.53995 0.60165 0.0
H354 H 0.52919 0.56981 0.46498 0.0
H355 H 0.53505 0.52069 0.52187 0.0
H356 H 0.51712 0.49663 0.35084 0.0
H357 H 0.53805 0.51908 0.42493 0.0
H358 H 0.49739 0.54094 0.43802 0.0
H359 H 0.47694 0.51906 0.36264 0.0
C360 C 0.54522 0.57419 0.54167 0.0
C361 C 0.55265 0.5661 0.58044 0.0
C362 C 0.53444 0.56313 0.4949 0.0
C363 C 0.53085 0.54379 0.48654 0.0
C364 C 0.53801 0.53571 0.52609 0.0
C365 C 0.54883 0.54673 0.5722 0.0
C366 C 0.51274 0.50631 0.36939 0.0
C367 C 0.49533 0.50597 0.35132 0.0
C368 C 0.52467 0.51913 0.41194 0.0
C369 C 0.51927 0.53167 0.43777 0.0
C370 C 0.5021 0.53165 0.41868 0.0
C371 C 0.4903 0.51898 0.37576 0.0
H372 H 0.66604 0.81785 0.22909 0.0
H373 H 0.7241 0.86704 0.1823 0.0
H374 H 0.66538 0.8378 0.3052 0.0
H375 H 0.7231 0.8871 0.25613 0.0
H376 H 0.72418 0.91273 0.42416 0.0
H377 H 0.72536 0.89164 0.35259 0.0
H378 H 0.66163 0.8655 0.32106 0.0
H379 H 0.66038 0.88592 0.39391 0.0
C380 C 0.67861 0.8329 0.23501 0.0
C381 C 0.6951 0.84084 0.1998 0.0
C382 C 0.6782 0.84439 0.27832 0.0
C383 C 0.6942 0.86411 0.28681 0.0
C384 C 0.7107 0.87191 0.25162 0.0
C385 C 0.7112 0.86039 0.20892 0.0
C386 C 0.71049 0.90255 0.40163 0.0
C387 C 0.69222 0.90097 0.41456 0.0
C388 C 0.71113 0.89046 0.36057 0.0
C389 C 0.69354 0.87676 0.33115 0.0
C390 C 0.67537 0.87552 0.34362 0.0
C391 C 0.6747 0.8874 0.38502 0.0
H392 H 0.15558 0.8089 0.35903 0.0
H393 H 0.1433 0.85573 0.3888 0.0
H394 H 0.17541 0.82679 0.27925 0.0
H395 H 0.16384 0.87412 0.31021 0.0
H396 H 0.19314 0.89849 0.14747 0.0
H397 H 0.16826 0.87639 0.21335 0.0
H398 H 0.20762 0.85546 0.26569 0.0
H399 H 0.23221 0.87709 0.19793 0.0
C400 C 0.15697 0.82296 0.34804 0.0
C401 C 0.14803 0.83103 0.3802 0.0
C402 C 0.16849 0.8333 0.30265 0.0
C403 C 0.17156 0.85207 0.28884 0.0
C404 C 0.16169 0.85963 0.31934 0.0
C405 C 0.14991 0.84912 0.36443 0.0
C406 C 0.19641 0.88904 0.17278 0.0
C407 C 0.21467 0.88958 0.16785 0.0
C408 C 0.18217 0.87644 0.21074 0.0
C409 C 0.18595 0.86423 0.24515 0.0
C410 C 0.20406 0.86444 0.23929 0.0
C411 C 0.21823 0.87691 0.20073 0.0
H412 H 0.19703 0.33249 0.39641 0.0
H413 H 0.24637 0.392 0.3647 0.0
H414 H 0.17945 0.33426 0.31386 0.0
H415 H 0.22928 0.39357 0.28151 0.0
H416 H 0.18062 0.3999 0.19014 0.0
H417 H 0.201 0.39706 0.26315 0.0
H418 H 0.17862 0.33606 0.2151 0.0
H419 H 0.15778 0.33873 0.14348 0.0
C420 C 0.2043 0.34572 0.37101 0.0
C421 C 0.22289 0.36218 0.38714 0.0
C422 C 0.19429 0.34677 0.32371 0.0
C423 C 0.20286 0.36421 0.29156 0.0
C424 C 0.22204 0.38014 0.30611 0.0
C425 C 0.23188 0.37918 0.35354 0.0
C426 C 0.18023 0.38598 0.19492 0.0
C427 C 0.16754 0.36953 0.16144 0.0
C428 C 0.19197 0.38434 0.23654 0.0
C429 C 0.19139 0.36628 0.24506 0.0
C430 C 0.17915 0.35005 0.21027 0.0
C431 C 0.16731 0.35164 0.16905 0.0
H432 H 0.17565 0.39803 0.89711 0.0
H433 H 0.1286 0.33753 0.86065 0.0
H434 H 0.19384 0.3982 0.81736 0.0
H435 H 0.14657 0.33797 0.77822 0.0
H436 H 0.19811 0.33766 0.68823 0.0
H437 H 0.17573 0.33722 0.75732 0.0
H438 H 0.19596 0.39876 0.72111 0.0
H439 H 0.21919 0.3994 0.65356 0.0
C440 C 0.16898 0.38481 0.87139 0.0
C441 C 0.15073 0.36767 0.8855 0.0
C442 C 0.17938 0.385 0.8251 0.0
C443 C 0.17173 0.36812 0.7911 0.0
C444 C 0.15306 0.35115 0.804 0.0
C445 C 0.1427 0.35089 0.85099 0.0
C446 C 0.19772 0.35109 0.69482 0.0
C447 C 0.21057 0.36865 0.66595 0.0
C448 C 0.1847 0.35077 0.73412 0.0
C449 C 0.18401 0.36795 0.74505 0.0
C450 C 0.19636 0.38534 0.71456 0.0
C451 C 0.20964 0.38573 0.67573 0.0
H452 H 0.72601 0.85552 0.89043 0.0
H453 H 0.66543 0.83649 0.93835 0.0
H454 H 0.72257 0.8732 0.81186 0.0
H455 H 0.66225 0.8548 0.86148 0.0
H456 H 0.65612 0.87336 0.68673 0.0
H457 H 0.65901 0.85456 0.76357 0.0
H458 H 0.72071 0.90169 0.79153 0.0
H459 H 0.71804 0.91987 0.71388 0.0
C460 C 0.71207 0.85533 0.88448 0.0
C461 C 0.69601 0.84468 0.92035 0.0
C462 C 0.71009 0.8655 0.83964 0.0
C463 C 0.69211 0.86542 0.83039 0.0
C464 C 0.67614 0.85487 0.86676 0.0
C465 C 0.67804 0.84451 0.91108 0.0
C466 C 0.67025 0.87961 0.70945 0.0
C467 C 0.68687 0.89796 0.69423 0.0
C468 C 0.67191 0.86893 0.75355 0.0
C469 C 0.69016 0.87658 0.78351 0.0
C470 C 0.70661 0.89513 0.76862 0.0
C471 C 0.70502 0.90562 0.72429 0.0
H472 H 0.21878 0.92783 0.86877 0.0
H473 H 0.23047 0.88061 0.90345 0.0
H474 H 0.20174 0.91117 0.78217 0.0
H475 H 0.21303 0.86381 0.81929 0.0
H476 H 0.1925 0.84189 0.64951 0.0
H477 H 0.21437 0.86439 0.72234 0.0
H478 H 0.17124 0.88225 0.75212 0.0
H479 H 0.14996 0.86053 0.67773 0.0
C480 C 0.2177 0.91394 0.85794 0.0
C481 C 0.22592 0.90553 0.89291 0.0
C482 C 0.20792 0.90437 0.80851 0.0
C483 C 0.2061 0.88618 0.79354 0.0
C484 C 0.21453 0.87799 0.82858 0.0
C485 C 0.22438 0.88758 0.87735 0.0
C486 C 0.18786 0.85082 0.67125 0.0
C487 C 0.16945 0.84929 0.65844 0.0
C488 C 0.20032 0.86365 0.71312 0.0
C489 C 0.19443 0.87494 0.74368 0.0
C490 C 0.17637 0.87397 0.72917 0.0
C491 C 0.16408 0.86137 0.68677 0.0
H492 H 0.32042 0.21093 0.75711 0.0
H493 H 0.38137 0.22824 0.80193 0.0
H494 H 0.31944 0.18805 0.68817 0.0
H495 H 0.3801 0.20453 0.7352 0.0
H496 H 0.38137 0.18451 0.56068 0.0
H497 H 0.38113 0.2028 0.63976 0.0
H498 H 0.3187 0.15835 0.66633 0.0
H499 H 0.31873 0.14032 0.58423 0.0
C500 C 0.33351 0.20959 0.75275 0.0
C501 C 0.35109 0.22156 0.78421 0.0
C502 C 0.33289 0.19631 0.7136 0.0
C503 C 0.34973 0.19448 0.70569 0.0
C504 C 0.367 0.20587 0.73914 0.0
C505 C 0.36775 0.21943 0.77753 0.0
C506 C 0.36758 0.17845 0.58351 0.0
C507 C 0.35 0.161 0.5659 0.0
C508 C 0.3675 0.18891 0.62946 0.0
C509 C 0.34991 0.1821 0.65978 0.0
C510 C 0.33245 0.16419 0.64346 0.0
C511 C 0.33247 0.15377 0.59672 0.0
H512 H 0.82007 0.14129 0.6846 0.0
H513 H 0.80994 0.18951 0.71482 0.0
H514 H 0.83903 0.15816 0.60267 0.0
H515 H 0.82959 0.20687 0.6339 0.0
H516 H 0.85722 0.22951 0.46844 0.0
H517 H 0.83271 0.20812 0.53617 0.0
H518 H 0.87151 0.18631 0.58657 0.0
H519 H 0.89574 0.20726 0.51723 0.0
C520 C 0.82174 0.15544 0.67327 0.0
C521 C 0.81369 0.1642 0.70618 0.0
C522 C 0.83275 0.16518 0.62661 0.0
C523 C 0.83617 0.18404 0.6122 0.0
C524 C 0.82714 0.19229 0.6435 0.0
C525 C 0.81588 0.18239 0.68992 0.0
C526 C 0.86042 0.21999 0.49363 0.0
C527 C 0.87845 0.22012 0.48781 0.0
C528 C 0.8464 0.2078 0.53266 0.0
C529 C 0.85016 0.1956 0.56715 0.0
C530 C 0.86797 0.19532 0.56017 0.0
C531 C 0.88193 0.20739 0.52066 0.0
H532 H 0.88412 0.72377 0.7851 0.0
H533 H 0.87012 0.66605 0.72663 0.0
H534 H 0.8643 0.72595 0.70982 0.0
H535 H 0.85081 0.66853 0.64941 0.0
H536 H 0.8036 0.67221 0.54486 0.0
H537 H 0.82108 0.6688 0.62452 0.0
H538 H 0.86682 0.73118 0.61297 0.0
H539 H 0.84883 0.73472 0.53447 0.0
C540 C 0.87679 0.71153 0.75596 0.0
C541 C 0.87871 0.69477 0.76139 0.0
C542 C 0.86556 0.71286 0.71256 0.0
C543 C 0.85622 0.69757 0.6731 0.0
C544 C 0.85769 0.68051 0.67938 0.0
C545 C 0.86876 0.67907 0.72343 0.0
C546 C 0.81736 0.68522 0.55948 0.0
C547 C 0.82487 0.70376 0.53358 0.0
C548 C 0.82745 0.68322 0.60492 0.0
C549 C 0.84535 0.69969 0.62512 0.0
C550 C 0.85286 0.71825 0.59906 0.0
C551 C 0.84265 0.7203 0.55393 0.0
H552 H 0.80662 0.67428 0.22047 0.0
H553 H 0.8566 0.73033 0.27921 0.0
H554 H 0.82748 0.67396 0.14675 0.0
H555 H 0.87751 0.72973 0.20709 0.0
H556 H 0.90191 0.73304 0.03426 0.0
H557 H 0.88158 0.73345 0.10922 0.0
H558 H 0.85583 0.67019 0.13201 0.0
H559 H 0.87563 0.66971 0.05624 0.0
C560 C 0.82207 0.68642 0.21787 0.0
C561 C 0.82993 0.70234 0.25545 0.0
C562 C 0.83406 0.68622 0.17588 0.0
C563 C 0.85417 0.70186 0.17098 0.0
C564 C 0.86201 0.71764 0.20904 0.0
C565 C 0.85003 0.7179 0.25063 0.0
C566 C 0.89204 0.7193 0.05569 0.0
C567 C 0.8903 0.70136 0.03932 0.0
C568 C 0.8804 0.7195 0.09867 0.0
C569 C 0.86695 0.7018 0.12634 0.0
C570 C 0.8657 0.684 0.11084 0.0
C571 C 0.87719 0.68377 0.06771 0.0
H572 H 0.38097 0.20236 0.30455 0.0
H573 H 0.31942 0.15709 0.26655 0.0
H574 H 0.37937 0.22373 0.23372 0.0
H575 H 0.31806 0.178 0.19409 0.0
H576 H 0.37933 0.24052 0.05373 0.0
H577 H 0.37921 0.22322 0.1365 0.0
H578 H 0.31812 0.2075 0.16728 0.0
H579 H 0.31801 0.22445 0.08197 0.0
C580 C 0.36711 0.19701 0.28106 0.0
C581 C 0.35042 0.178 0.29053 0.0
C582 C 0.36618 0.20919 0.24037 0.0
C583 C 0.34866 0.20247 0.20765 0.0
C584 C 0.33171 0.18375 0.2188 0.0
C585 C 0.33255 0.17169 0.26004 0.0
C586 C 0.36585 0.23351 0.07816 0.0
C587 C 0.34862 0.23377 0.06113 0.0
C588 C 0.36587 0.22373 0.12615 0.0
C589 C 0.34872 0.21408 0.15892 0.0
C590 C 0.33153 0.21465 0.14264 0.0
C591 C 0.33146 0.22439 0.094 0.0
H592 H 0.87238 0.24949 0.21886 0.0
H593 H 0.91764 0.23438 0.19168 0.0
H594 H 0.85432 0.23103 0.13558 0.0
H595 H 0.90012 0.2166 0.10772 0.0
H596 H 0.84856 0.16308 0.01531 0.0
H597 H 0.87006 0.1857 0.08832 0.0
H598 H 0.85371 0.22842 0.03703 0.0
H599 H 0.83172 0.2055 0.96532 0.0
C600 C 0.87871 0.24266 0.19428 0.0
C601 C 0.89623 0.24314 0.21194 0.0
C602 C 0.86841 0.2321 0.14653 0.0
C603 C 0.87562 0.22206 0.11542 0.0
C604 C 0.89387 0.2237 0.13146 0.0
C605 C 0.90399 0.23402 0.17934 0.0
C606 C 0.84975 0.17738 0.01933 0.0
C607 C 0.83839 0.18247 -0.01508 0.0
C608 C 0.86214 0.19042 0.06097 0.0
C609 C 0.86357 0.20889 0.06865 0.0
C610 C 0.8527 0.2142 0.03288 0.0
C611 C 0.84019 0.2011 -0.0084 0.0
H612 H 0.04652 0.65077 0.35039 0.0
H613 H 0.10549 0.67645 0.2798 0.0
H614 H 0.06013 0.67655 0.42109 0.0
H615 H 0.11914 0.70232 0.35174 0.0
H616 H 0.13469 0.73345 0.52944 0.0
H617 H 0.12261 0.70527 0.46479 0.0
H618 H 0.0754 0.71492 0.4078 0.0
H619 H 0.08749 0.74297 0.47088 0.0
C620 C 0.06244 0.66182 0.35016 0.0
C621 C 0.0749 0.66165 0.30909 0.0
C622 C 0.07019 0.67655 0.39075 0.0
C623 C 0.09064 0.69135 0.39174 0.0
C624 C 0.10333 0.69093 0.35196 0.0
C625 C 0.09549 0.67626 0.31064 0.0
C626 C 0.12163 0.72936 0.50339 0.0
C627 C 0.11201 0.74035 0.5051 0.0
C628 C 0.11486 0.71341 0.46625 0.0
C629 C 0.09811 0.70802 0.43149 0.0
C630 C 0.08828 0.71873 0.43437 0.0
C631 C 0.09523 0.73479 0.4704 0.0
H632 H 0.40352 0.4711 0.30985 0.0
H633 H 0.38852 0.41038 0.33258 0.0
H634 H 0.37405 0.46414 0.36399 0.0
H635 H 0.35902 0.40332 0.38482 0.0
H636 H 0.29825 0.39316 0.42685 0.0
H637 H 0.32563 0.4043 0.36289 0.0
H638 H 0.36494 0.45188 0.47431 0.0
H639 H 0.33735 0.44057 0.53991 0.0
C640 C 0.39358 0.45617 0.32504 0.0
C641 C 0.39805 0.44118 0.31677 0.0
C642 C 0.37696 0.45228 0.35642 0.0
C643 C 0.36441 0.43324 0.37852 0.0
C644 C 0.36845 0.4181 0.36798 0.0
C645 C 0.38523 0.42209 0.33798 0.0
C646 C 0.31262 0.40614 0.43793 0.0
C647 C 0.31568 0.41578 0.48913 0.0
C648 C 0.32826 0.41252 0.40099 0.0
C649 C 0.34732 0.42884 0.41388 0.0
C650 C 0.35026 0.4393 0.46346 0.0
C651 C 0.33455 0.43276 0.50102 0.0
H652 H 0.61363 0.94299 0.54343 0.0
H653 H 0.65437 0.94562 0.42001 0.0
H654 H 0.59753 0.95322 0.47411 0.0
H655 H 0.63862 0.95618 0.35154 0.0
H656 H 0.59867 0.96419 0.22932 0.0
H657 H 0.60826 0.94699 0.29671 0.0
H658 H 0.60818 -0.01561 0.42655 0.0
H659 H 0.59835 0.00115 0.36026 0.0
C660 C 0.61907 0.94561 0.50154 0.0
C661 C 0.63543 0.94371 0.48748 0.0
C662 C 0.60989 0.95152 0.46188 0.0
C663 C 0.61687 0.95561 0.40737 0.0
C664 C 0.63271 0.95293 0.39292 0.0
C665 C 0.64189 0.94707 0.43246 0.0
C666 C 0.6005 0.96855 0.27236 0.0
C667 C 0.59793 -0.01584 0.28925 0.0
C668 C 0.60605 0.95876 0.31089 0.0
C669 C 0.60898 0.96434 0.367 0.0
C670 C 0.60577 -0.02049 0.3839 0.0
C671 C 0.60033 -0.01072 0.3456 0.0
H672 H 0.63265 0.07356 0.05171 0.0
H673 H 0.66418 0.07273 0.19905 0.0
H674 H 0.66446 0.09449 0.00595 0.0
H675 H 0.69613 0.09243 0.15246 0.0
H676 H 0.7528 0.13278 0.06707 0.0
H677 H 0.72127 0.12129 0.11407 0.0
H678 H 0.68863 0.09081 0.9647 0.0
H679 H 0.72029 0.10363 0.9172 0.0
C680 C 0.64652 0.07804 0.07432 0.0
C681 C 0.64609 0.07156 0.12869 0.0
C682 C 0.66477 0.08985 0.04796 0.0
C683 C 0.68302 0.09494 0.0748 0.0
C684 C 0.68251 0.08913 0.13036 0.0
C685 C 0.66421 0.07774 0.15724 0.0
C686 C 0.7388 0.12398 0.04416 0.0
C687 C 0.73888 0.119 -0.01133 0.0
C688 C 0.7207 0.11719 0.07122 0.0
C689 C 0.70223 0.10475 0.04382 0.0
C690 C 0.70243 0.10056 -0.01269 0.0
C691 C 0.72058 0.10782 0.95988 0.0
H692 H 0.94388 0.67367 0.01248 0.0
H693 H 0.93212 0.62602 0.9003 0.0
H694 H 0.96097 0.66301 0.07607 0.0
H695 H 0.94915 0.61517 0.9656 0.0
H696 H -0.03123 0.59705 0.13619 0.0
H697 H 0.94622 0.60385 0.08027 0.0
H698 H -0.00442 0.66337 0.04955 0.0
H699 H 0.01811 0.65649 0.10367 0.0
C700 C 0.94464 0.66072 0.00163 0.0
C701 C 0.93682 0.65083 0.95081 0.0
C702 C 0.9544 0.65464 0.03827 0.0
C703 C 0.95633 0.63836 0.02549 0.0
C704 C 0.94766 0.62772 -0.02373 0.0
C705 C 0.93805 0.63399 0.93894 0.0
C706 C -0.02536 0.61165 0.11813 0.0
C707 C -0.0049 0.62631 0.1243 0.0
C708 C 0.96184 0.61544 0.08586 0.0
C709 C -0.03071 0.63407 0.06073 0.0
C710 C -0.01045 0.6489 0.0687 0.0
C711 C 0.00238 0.64499 0.09967 0.0
H712 H 0.42622 0.34842 0.89785 0.0
H713 H 0.39106 0.30868 0.02913 0.0
H714 H 0.44307 0.37573 0.96489 0.0
H715 H 0.40752 0.33575 0.09517 0.0
H716 H 0.44925 0.38496 0.21099 0.0
H717 H 0.43926 0.35864 0.14237 0.0
H718 H 0.43238 0.39491 0.01941 0.0
H719 H 0.4426 0.42122 0.08728 0.0
C720 C 0.42224 0.34547 0.94092 0.0
C721 C 0.40718 0.32644 0.958 0.0
C722 C 0.4318 0.36109 -0.02075 0.0
C723 C 0.42659 0.3579 0.03536 0.0
C724 C 0.41208 0.33869 0.0525 0.0
C725 C 0.4025 0.32319 0.01437 0.0
C726 C 0.44578 0.38737 0.16921 0.0
C727 C 0.44652 0.40511 0.15486 0.0
C728 C 0.44002 0.37229 0.12992 0.0
C729 C 0.43497 0.37467 0.07546 0.0
C730 C 0.4364 0.39268 0.06075 0.0
C731 C 0.44207 0.40769 0.09995 0.0
H732 H 0.95674 0.3101 0.57504 0.0
H733 H 0.94263 0.33105 0.4253 0.0
H734 H -0.03104 0.34222 0.61826 0.0
H735 H 0.95464 0.36332 0.46937 0.0
H736 H 0.00755 0.42317 0.53837 0.0
H737 H -0.01191 0.39041 0.49687 0.0
H738 H 0.96023 0.36602 0.65346 0.0
H739 H -0.01987 0.39911 0.69572 0.0
C740 C 0.95602 0.32149 0.55143 0.0
C741 C 0.94894 0.31806 0.49632 0.0
C742 C 0.96284 0.33988 0.57658 0.0
C743 C 0.9628 0.35534 0.54729 0.0
C744 C 0.95504 0.35173 0.49283 0.0
C745 C 0.94814 0.33325 0.4676 0.0
C746 C -0.00282 0.41089 0.56408 0.0
C747 C -0.00439 0.4137 0.62063 0.0
C748 C -0.01417 0.39211 0.53999 0.0
C749 C -0.02736 0.37559 0.57182 0.0
C750 C -0.02957 0.37847 0.62799 0.0
C751 C -0.01825 0.39739 0.65215 0.0
H752 H 0.63289 0.61786 0.58671 0.0
H753 H 0.67374 0.60954 0.69089 0.0
H754 H 0.65869 0.63392 0.51763 0.0
H755 H 0.69969 0.6257 0.62069 0.0
H756 H 0.73815 0.6475 0.46337 0.0
H757 H 0.70835 0.62376 0.5156 0.0
H758 H 0.69144 0.66798 0.52917 0.0
H759 H 0.72125 0.69164 0.47858 0.0
C760 C 0.64729 0.61921 0.59469 0.0
C761 C 0.65137 0.61272 0.64492 0.0
C762 C 0.66203 0.62837 0.55489 0.0
C763 C 0.68116 0.63115 0.56402 0.0
C764 C 0.68496 0.62359 0.61256 0.0
C765 C 0.67018 0.61448 0.65284 0.0
C766 C 0.72766 0.65182 0.47611 0.0
C767 C 0.73178 0.67126 0.46674 0.0
C768 C 0.71081 0.63838 0.50644 0.0
C769 C 0.69769 0.6441 0.52647 0.0
C770 C 0.70122 0.66313 0.51384 0.0
C771 C 0.71822 0.67665 0.48481 0.0
H772 H 0.3791 0.10049 0.47837 0.0
H773 H 0.43669 0.15147 0.43654 0.0
H774 H 0.39566 0.089 0.54169 0.0
H775 H 0.45333 0.14002 0.50157 0.0
H776 H 0.46183 0.12017 0.68782 0.0
H777 H 0.44972 0.13364 0.61532 0.0
H778 H 0.42248 0.07763 0.52813 0.0
H779 H 0.43471 0.06424 0.59939 0.0
C780 C 0.39533 0.10921 0.48263 0.0
C781 C 0.40663 0.12686 0.45255 0.0
C782 C 0.40478 0.10259 0.51873 0.0
C783 C 0.4257 0.11365 0.52635 0.0
C784 C 0.43713 0.1313 0.4963 0.0
C785 C 0.42766 0.13774 0.45901 0.0
C786 C 0.45345 0.11083 0.65286 0.0
C787 C 0.44911 0.09111 0.64953 0.0
C788 C 0.44668 0.11858 0.61132 0.0
C789 C 0.43521 0.10662 0.56641 0.0
C790 C 0.43129 0.08711 0.56246 0.0
C791 C 0.4383 0.07948 0.60331 0.0
H792 H 0.30162 0.94824 0.92193 0.0
H793 H 0.34255 0.94544 0.03989 0.0
H794 H 0.32871 0.9652 0.85687 0.0
H795 H 0.36983 0.96244 -0.02658 0.0
H796 H 0.41016 -0.01573 0.81543 0.0
H797 H 0.38068 0.95986 0.86777 0.0
H798 H 0.36 0.00131 0.87354 0.0
H799 H 0.3895 0.0257 0.82302 0.0
C800 C 0.31634 0.95096 0.93381 0.0
C801 C 0.32001 0.94581 -0.01331 0.0
C802 C 0.33182 0.96063 0.89628 0.0
C803 C 0.35131 0.96523 0.91036 0.0
C804 C 0.35483 0.95892 0.96161 0.0
C805 C 0.33928 0.9493 -0.00034 0.0
C806 C 0.39898 -0.01214 0.82673 0.0
C807 C 0.40189 0.00672 0.81492 0.0
C808 C 0.38232 0.97404 0.8571 0.0
C809 C 0.36817 -0.02122 0.87463 0.0
C810 C 0.37063 -0.00274 0.86015 0.0
C811 C 0.38743 0.01117 0.83116 0.0
H812 H 0.10047 0.46431 0.73553 0.0
H813 H 0.06125 0.4634 0.86111 0.0
H814 H 0.11653 0.45371 0.80425 0.0
H815 H 0.07704 0.45267 0.929 0.0
H816 H 0.11775 0.44449 0.04882 0.0
H817 H 0.10827 0.46182 -0.01847 0.0
H818 H 0.10446 0.42198 0.85336 0.0
H819 H 0.11401 0.40493 0.91965 0.0
C820 C 0.09544 0.46207 0.77778 0.0
C821 C 0.07943 0.46445 0.79265 0.0
C822 C 0.10457 0.45595 0.81707 0.0
C823 C 0.09797 0.45227 0.87199 0.0
C824 C 0.08261 0.45556 0.88725 0.0
C825 C 0.07342 0.46152 0.84806 0.0
C826 C 0.11503 0.43957 0.0062 0.0
C827 C 0.11644 0.42322 -0.0102 0.0
C828 C 0.10958 0.44946 0.96771 0.0
C829 C 0.10567 0.44329 0.9121 0.0
C830 C 0.10766 0.4273 0.89562 0.0
C831 C 0.11292 0.41738 0.93394 0.0
H832 H 0.62954 0.64869 0.90838 0.0
H833 H 0.60856 0.66612 0.76456 0.0
H834 H 0.64103 0.68079 0.95065 0.0
H835 H 0.61993 0.69844 0.80775 0.0
H836 H 0.67416 0.76002 0.86608 0.0
H837 H 0.65366 0.72689 0.82749 0.0
H838 H 0.63163 0.70364 -0.01007 0.0
H839 H 0.6526 0.73715 0.02914 0.0
C840 C 0.62719 0.65931 0.8859 0.0
C841 C 0.61841 0.65494 0.8326 0.0
C842 C 0.63356 0.67766 0.9106 0.0
C843 C 0.63139 0.69216 0.88262 0.0
C844 C 0.62193 0.68758 0.83014 0.0
C845 C 0.61544 0.6691 0.80541 0.0
C846 C 0.66479 0.74791 0.89367 0.0
C847 C 0.66527 0.75112 0.95087 0.0
C848 C 0.65283 0.72892 0.87133 0.0
C849 C 0.64111 0.71262 0.90563 0.0
C850 C 0.6407 0.71594 0.96256 0.0
C851 C 0.65262 0.73509 -0.01501 0.0
H852 H 0.71794 0.00976 0.60947 0.0
H853 H 0.7328 0.97457 0.71472 0.0
H854 H 0.74017 0.03932 0.66476 0.0
H855 H 0.75578 0.00414 0.76893 0.0
H856 H 0.76846 0.05296 0.89708 0.0
H857 H 0.75264 0.0242 0.83524 0.0
H858 H 0.77287 0.06356 0.69428 0.0
H859 H 0.78782 0.09213 0.7561 0.0
C860 C 0.72658 0.0086 0.64333 0.0
C861 C 0.72394 -0.00988 0.65779 0.0
C862 C 0.73933 0.02548 0.67512 0.0
C863 C 0.74972 0.02414 0.72178 0.0
C864 C 0.74777 0.00569 0.73409 0.0
C865 C 0.73485 -0.01118 0.70269 0.0
C866 C 0.76975 0.0554 0.8529 0.0
C867 C 0.77914 0.07475 0.83145 0.0
C868 C 0.76076 0.03893 0.81729 0.0
C869 C 0.76125 0.04152 0.75952 0.0
C870 C 0.77173 0.06096 0.73837 0.0
C871 C 0.78042 0.07735 0.77387 0.0
H872 H 0.05369 0.76767 0.58412 0.0
H873 H 0.08462 0.79412 0.73801 0.0
H874 H 0.02154 0.75408 0.62926 0.0
H875 H 0.05258 0.78199 0.78281 0.0
H876 H -0.00593 0.73322 0.86081 0.0
H877 H 0.02663 0.75321 0.81769 0.0
H878 H -0.00297 0.75724 0.66913 0.0
H879 H 0.96457 0.73585 0.71137 0.0
C880 C 0.05353 0.77104 0.62734 0.0
C881 C 0.07153 0.78172 0.65778 0.0
C882 C 0.03508 0.76338 0.6534 0.0
C883 C 0.03426 0.76673 0.71021 0.0
C884 C 0.05246 0.77853 0.73958 0.0
C885 C 0.07086 0.78567 0.71385 0.0
C886 C -0.00531 0.73875 0.81933 0.0
C887 C -0.02302 0.733 0.78915 0.0
C888 C 0.01336 0.7503 0.79442 0.0
C889 C 0.01464 0.75673 0.73925 0.0
C890 C -0.00324 0.7521 0.71086 0.0
C891 C -0.02186 0.74006 0.73521 0.0
H892 H 0.26373 0.33708 0.7418 0.0
H893 H 0.28781 0.33173 0.58843 0.0
H894 H 0.27456 0.31643 0.78771 0.0
H895 H 0.30023 0.31247 0.63468 0.0
H896 H 0.31572 0.27213 0.71947 0.0
H897 H 0.29569 0.28431 0.67579 0.0
H898 H 0.30297 0.31859 0.82303 0.0
H899 H 0.3215 0.30489 0.86763 0.0
C900 C 0.27139 0.33141 0.71801 0.0
C901 C 0.27504 0.33597 0.66178 0.0
C902 C 0.2778 0.31974 0.74437 0.0
C903 C 0.28863 0.31291 0.71547 0.0
C904 C 0.29167 0.31705 0.65848 0.0
C905 C 0.28469 0.32823 0.63179 0.0
C906 C 0.31255 0.28192 0.74265 0.0
C907 C 0.32008 0.28765 0.79669 0.0
C908 C 0.30129 0.28913 0.71748 0.0
C909 C 0.29793 0.30283 0.74515 0.0
C910 C 0.30488 0.30788 0.80032 0.0
C911 C 0.31562 0.30014 0.82605 0.0
H912 H 0.00782 0.27643 0.39038 0.0
H913 H -0.0291 0.27746 0.25628 0.0
H914 H 0.03725 0.29308 0.33139 0.0
H915 H 0.00019 0.29427 0.19812 0.0
H916 H 0.05678 0.31784 0.09631 0.0
H917 H 0.02761 0.29355 0.14938 0.0
H918 H 0.05537 0.32759 0.29811 0.0
H919 H 0.08415 0.35146 0.2461 0.0
C920 C 0.00592 0.2799 0.34817 0.0
C921 C -0.01289 0.27594 0.32839 0.0
C922 C 0.02276 0.2895 0.31445 0.0
C923 C 0.02107 0.2952 0.26027 0.0
C924 C 0.00201 0.29 0.23944 0.0
C925 C -0.01476 0.28052 0.27311 0.0
C926 C 0.05662 0.32002 0.14035 0.0
C927 C 0.0727 0.33672 0.16673 0.0
C928 C 0.03997 0.30613 0.17072 0.0
C929 C 0.03927 0.30857 0.22805 0.0
C930 C 0.05557 0.32503 0.25429 0.0
C931 C 0.07199 0.33891 0.22412 0.0
H932 H 0.79065 0.78315 0.37068 0.0
H933 H 0.7844 0.74053 0.24784 0.0
H934 H 0.78264 0.80052 0.30028 0.0
H935 H 0.77602 0.7576 0.17811 0.0
H936 H 0.77155 0.79865 0.05489 0.0
H937 H 0.78757 0.78796 0.12356 0.0
H938 H 0.75173 0.79203 0.25104 0.0
H939 H 0.73615 0.80294 0.18342 0.0
C940 C 0.78772 0.77756 0.32863 0.0
C941 C 0.78793 0.7603 0.31505 0.0
C942 C 0.78309 0.78749 0.28837 0.0
C943 C 0.77857 0.78036 0.23369 0.0
C944 C 0.77964 0.76362 0.21967 0.0
C945 C 0.78426 0.7537 0.25985 0.0
C946 C 0.76736 0.79753 0.09773 0.0
C947 C 0.75245 0.80145 0.11357 0.0
C948 C 0.77644 0.79133 0.13698 0.0
C949 C 0.77088 0.78911 0.19274 0.0
C950 C 0.75658 0.79383 0.20867 0.0
C951 C 0.74748 0.79991 0.16964 0.0
H952 H 0.27718 0.00012 0.09012 0.0
H953 H 0.29073 -0.01995 0.24245 0.0
H954 H 0.28804 0.03233 0.13338 0.0
H955 H 0.30167 0.01202 0.28492 0.0
H956 H 0.30882 0.06723 0.36118 0.0
H957 H 0.29051 0.03443 0.31704 0.0
H958 H 0.32112 0.06029 0.16455 0.0
H959 H 0.33912 0.09289 0.20802 0.0
C960 C 0.28231 0.00251 0.13279 0.0
C961 C 0.2833 -0.0124 0.16258 0.0
C962 C 0.28855 0.02093 0.15752 0.0
C963 C 0.29569 0.02469 0.21258 0.0
C964 C 0.29599 0.00952 0.24274 0.0
C965 C 0.28992 -0.00876 0.21805 0.0
C966 C 0.3114 0.06593 0.31805 0.0
C967 C 0.32561 0.08261 0.28837 0.0
C968 C 0.30098 0.04716 0.29283 0.0
C969 C 0.30446 0.04479 0.23739 0.0
C970 C 0.31794 0.06164 0.20711 0.0
C971 C 0.32842 0.08032 0.23231 0.0
loop_
_geom_bond_atom_site_label_1
_geom_bond_atom_site_label_2
_geom_bond_distance
_geom_bond_site_symmetry_2
_ccdc_geom_bond_type
C0 O1 1.306 . S
C0 O3 1.160 . S
O1 C0 1.306 . S
O1 Cd2 2.228 . S
Cd2 O1 2.228 . S
Cd2 O6 2.273 . S
Cd2 O10 2.277 . S
O3 C0 1.160 . S
O3 Cd4 2.203 . S
Cd4 O3 2.203 . S
Cd4 O6 2.411 . S
Cd4 O7 2.333 . S
Cd4 O8 2.352 . S
Cd4 O12 2.277 . S
Cd4 O13 2.356 . S
C5 O10 1.209 . S
C5 O12 1.226 . S
O6 Cd2 2.273 . S
O6 Cd4 2.411 . S
O6 C9 1.320 . S
O7 Cd4 2.333 . S
O7 C9 1.214 . S
O8 Cd4 2.352 . S
O8 C11 1.258 . S
C9 O6 1.320 . S
C9 O7 1.214 . S
O10 Cd2 2.277 . S
O10 C5 1.209 . S
C11 O8 1.258 . S
C11 O13 1.282 . S
O12 Cd4 2.277 . S
O12 C5 1.226 . S
O13 Cd4 2.356 . S
O13 C11 1.282 . S
C14 O15 1.306 . S
C14 O17 1.160 . S
O15 C14 1.306 . S
O15 Cd16 2.228 . S
Cd16 O15 2.228 . S
Cd16 O20 2.273 . S
Cd16 O24 2.277 . S
O17 C14 1.160 . S
O17 Cd18 2.203 . S
Cd18 O17 2.203 . S
Cd18 O20 2.411 . S
Cd18 O21 2.333 . S
Cd18 O22 2.352 . S
Cd18 O26 2.277 . S
Cd18 O27 2.356 . S
C19 O24 1.209 . S
C19 O26 1.226 . S
O20 Cd16 2.273 . S
O20 Cd18 2.411 . S
O20 C23 1.320 . S
O21 Cd18 2.333 . S
O21 C23 1.214 . S
O22 Cd18 2.352 . S
O22 C25 1.258 . S
C23 O20 1.320 . S
C23 O21 1.214 . S
O24 Cd16 2.277 . S
O24 C19 1.209 . S
C25 O22 1.258 . S
C25 O27 1.282 . S
O26 Cd18 2.277 . S
O26 C19 1.226 . S
O27 Cd18 2.356 . S
O27 C25 1.282 . S
C28 O29 1.306 . S
C28 O31 1.160 . S
O29 C28 1.306 . S
O29 Cd30 2.228 . S
Cd30 O29 2.228 . S
Cd30 O34 2.273 . S
Cd30 O38 2.277 . S
O31 C28 1.160 . S
O31 Cd32 2.203 . S
Cd32 O31 2.203 . S
Cd32 O34 2.411 . S
Cd32 O35 2.333 . S
Cd32 O36 2.352 . S
Cd32 O40 2.277 . S
Cd32 O41 2.356 . S
C33 O38 1.209 . S
C33 O40 1.226 . S
O34 Cd30 2.273 . S
O34 Cd32 2.411 . S
O34 C37 1.320 . S
O35 Cd32 2.333 . S
O35 C37 1.214 . S
O36 Cd32 2.352 . S
O36 C39 1.258 . S
C37 O34 1.320 . S
C37 O35 1.214 . S
O38 Cd30 2.277 . S
O38 C33 1.209 . S
C39 O36 1.258 . S
C39 O41 1.282 . S
O40 Cd32 2.277 . S
O40 C33 1.226 . S
O41 Cd32 2.356 . S
O41 C39 1.282 . S
C42 O43 1.306 . S
C42 O45 1.160 . S
O43 C42 1.306 . S
O43 Cd44 2.228 . S
Cd44 O43 2.228 . S
Cd44 O48 2.273 . S
Cd44 O52 2.277 . S
O45 C42 1.160 . S
O45 Cd46 2.203 . S
Cd46 O45 2.203 . S
Cd46 O48 2.411 . S
Cd46 O49 2.333 . S
Cd46 O50 2.352 . S
Cd46 O54 2.277 . S
Cd46 O55 2.356 . S
C47 O52 1.209 . S
C47 O54 1.226 . S
O48 Cd44 2.273 . S
O48 Cd46 2.411 . S
O48 C51 1.320 . S
O49 Cd46 2.333 . S
O49 C51 1.214 . S
O50 Cd46 2.352 . S
O50 C53 1.258 . S
C51 O48 1.320 . S
C51 O49 1.214 . S
O52 Cd44 2.277 . S
O52 C47 1.209 . S
C53 O50 1.258 . S
C53 O55 1.282 . S
O54 Cd46 2.277 . S
O54 C47 1.226 . S
O55 Cd46 2.356 . S
O55 C53 1.282 . S
C56 O57 1.306 . S
C56 O59 1.160 . S
O57 C56 1.306 . S
O57 Cd58 2.228 . S
Cd58 O57 2.228 . S
Cd58 O62 2.273 . S
Cd58 O66 2.277 . S
O59 C56 1.160 . S
O59 Cd60 2.203 . S
Cd60 O59 2.203 . S
Cd60 O62 2.411 . S
Cd60 O63 2.333 . S
Cd60 O64 2.352 . S
Cd60 O68 2.277 . S
Cd60 O69 2.356 . S
C61 O66 1.209 . S
C61 O68 1.226 . S
O62 Cd58 2.273 . S
O62 Cd60 2.411 . S
O62 C65 1.320 . S
O63 Cd60 2.333 . S
O63 C65 1.214 . S
O64 Cd60 2.352 . S
O64 C67 1.258 . S
C65 O62 1.320 . S
C65 O63 1.214 . S
O66 Cd58 2.277 . S
O66 C61 1.209 . S
C67 O64 1.258 . S
C67 O69 1.282 . S
O68 Cd60 2.277 . S
O68 C61 1.226 . S
O69 Cd60 2.356 . S
O69 C67 1.282 . S
C70 O71 1.306 . S
C70 O73 1.160 . S
O71 C70 1.306 . S
O71 Cd72 2.228 . S
Cd72 O71 2.228 . S
Cd72 O76 2.273 . S
Cd72 O80 2.277 . S
O73 C70 1.160 . S
O73 Cd74 2.203 . S
Cd74 O73 2.203 . S
Cd74 O76 2.411 . S
Cd74 O77 2.333 . S
Cd74 O78 2.352 . S
Cd74 O82 2.277 . S
Cd74 O83 2.356 . S
C75 O80 1.209 . S
C75 O82 1.226 . S
O76 Cd72 2.273 . S
O76 Cd74 2.411 . S
O76 C79 1.320 . S
O77 Cd74 2.333 . S
O77 C79 1.214 . S
O78 Cd74 2.352 . S
O78 C81 1.258 . S
C79 O76 1.320 . S
C79 O77 1.214 . S
O80 Cd72 2.277 . S
O80 C75 1.209 . S
C81 O78 1.258 . S
C81 O83 1.282 . S
O82 Cd74 2.277 . S
O82 C75 1.226 . S
O83 Cd74 2.356 . S
O83 C81 1.282 . S
C84 O85 1.306 . S
C84 O87 1.160 . S
O85 C84 1.306 . S
O85 Cd86 2.228 . S
Cd86 O85 2.228 . S
Cd86 O90 2.273 . S
Cd86 O94 2.277 . S
O87 C84 1.160 . S
O87 Cd88 2.203 . S
Cd88 O87 2.203 . S
Cd88 O90 2.411 . S
Cd88 O91 2.333 . S
Cd88 O92 2.352 . S
Cd88 O96 2.277 . S
Cd88 O97 2.356 . S
C89 O94 1.209 . S
C89 O96 1.226 . S
O90 Cd86 2.273 . S
O90 Cd88 2.411 . S
O90 C93 1.320 . S
O91 Cd88 2.333 . S
O91 C93 1.214 . S
O92 Cd88 2.352 . S
O92 C95 1.258 . S
C93 O90 1.320 . S
C93 O91 1.214 . S
O94 Cd86 2.277 . S
O94 C89 1.209 . S
C95 O92 1.258 . S
C95 O97 1.282 . S
O96 Cd88 2.277 . S
O96 C89 1.226 . S
O97 Cd88 2.356 . S
O97 C95 1.282 . S
C98 O99 1.306 . S
C98 O101 1.160 . S
O99 C98 1.306 . S
O99 Cd100 2.228 . S
Cd100 O99 2.228 . S
Cd100 O104 2.273 . S
Cd100 O108 2.277 . S
O101 C98 1.160 . S
O101 Cd102 2.203 . S
Cd102 O101 2.203 . S
Cd102 O104 2.411 . S
Cd102 O105 2.333 . S
Cd102 O106 2.352 . S
Cd102 O110 2.277 . S
Cd102 O111 2.356 . S
C103 O108 1.209 . S
C103 O110 1.226 . S
O104 Cd100 2.273 . S
O104 Cd102 2.411 . S
O104 C107 1.320 . S
O105 Cd102 2.333 . S
O105 C107 1.214 . S
O106 Cd102 2.352 . S
O106 C109 1.258 . S
C107 O104 1.320 . S
C107 O105 1.214 . S
O108 Cd100 2.277 . S
O108 C103 1.209 . S
C109 O106 1.258 . S
C109 O111 1.282 . S
O110 Cd102 2.277 . S
O110 C103 1.226 . S
O111 Cd102 2.356 . S
O111 C109 1.282 . S
C112 O113 1.306 . S
C112 O115 1.160 . S
O113 C112 1.306 . S
O113 Cd114 2.228 . S
Cd114 O113 2.228 . S
Cd114 O118 2.273 . S
Cd114 O122 2.277 . S
O115 C112 1.160 . S
O115 Cd116 2.203 . S
Cd116 O115 2.203 . S
Cd116 O118 2.411 . S
Cd116 O119 2.333 . S
Cd116 O120 2.352 . S
Cd116 O124 2.277 . S
Cd116 O125 2.356 . S
C117 O122 1.209 . S
C117 O124 1.226 . S
O118 Cd114 2.273 . S
O118 Cd116 2.411 . S
O118 C121 1.320 . S
O119 Cd116 2.333 . S
O119 C121 1.214 . S
O120 Cd116 2.352 . S
O120 C123 1.258 . S
C121 O118 1.320 . S
C121 O119 1.214 . S
O122 Cd114 2.277 . S
O122 C117 1.209 . S
C123 O120 1.258 . S
C123 O125 1.282 . S
O124 Cd116 2.277 . S
O124 C117 1.226 . S
O125 Cd116 2.356 . S
O125 C123 1.282 . S
C126 O127 1.306 . S
C126 O129 1.160 . S
O127 C126 1.306 . S
O127 Cd128 2.228 1_554 S
Cd128 O127 2.228 1_556 S
Cd128 O132 2.273 1_556 S
Cd128 O136 2.277 1_556 S
O129 C126 1.160 . S
O129 Cd130 2.203 . S
Cd130 O129 2.203 . S
Cd130 O132 2.411 . S
Cd130 O133 2.333 . S
Cd130 O134 2.352 . S
Cd130 O138 2.277 . S
Cd130 O139 2.356 . S
C131 O136 1.209 . S
C131 O138 1.226 . S
O132 Cd128 2.273 1_554 S
O132 Cd130 2.411 . S
O132 C135 1.320 1_554 S
O133 Cd130 2.333 . S
O133 C135 1.214 1_554 S
O134 Cd130 2.352 . S
O134 C137 1.258 . S
C135 O132 1.320 1_556 S
C135 O133 1.214 1_556 S
O136 Cd128 2.277 1_554 S
O136 C131 1.209 . S
C137 O134 1.258 . S
C137 O139 1.282 . S
O138 Cd130 2.277 . S
O138 C131 1.226 . S
O139 Cd130 2.356 . S
O139 C137 1.282 . S
C140 O141 1.306 . S
C140 O143 1.160 . S
O141 C140 1.306 . S
O141 Cd142 2.228 . S
Cd142 O141 2.228 . S
Cd142 O146 2.273 . S
Cd142 O150 2.277 . S
O143 C140 1.160 . S
O143 Cd144 2.203 . S
Cd144 O143 2.203 . S
Cd144 O146 2.411 . S
Cd144 O147 2.333 . S
Cd144 O148 2.352 . S
Cd144 O152 2.277 . S
Cd144 O153 2.356 . S
C145 O150 1.209 . S
C145 O152 1.226 . S
O146 Cd142 2.273 . S
O146 Cd144 2.411 . S
O146 C149 1.320 . S
O147 Cd144 2.333 . S
O147 C149 1.214 . S
O148 Cd144 2.352 . S
O148 C151 1.258 1_554 S
C149 O146 1.320 . S
C149 O147 1.214 . S
O150 Cd142 2.277 . S
O150 C145 1.209 . S
C151 O148 1.258 1_556 S
C151 O153 1.282 1_556 S
O152 Cd144 2.277 . S
O152 C145 1.226 . S
O153 Cd144 2.356 . S
O153 C151 1.282 1_554 S
C154 O155 1.306 . S
C154 O157 1.160 . S
O155 C154 1.306 . S
O155 Cd156 2.228 . S
Cd156 O155 2.228 . S
Cd156 O160 2.273 . S
Cd156 O164 2.277 . S
O157 C154 1.160 . S
O157 Cd158 2.203 . S
Cd158 O157 2.203 . S
Cd158 O160 2.411 . S
Cd158 O161 2.333 . S
Cd158 O162 2.348 1_554 S
Cd158 O166 2.277 . S
Cd158 O167 2.357 . S
C159 O164 1.209 . S
C159 O166 1.226 . S
O160 Cd156 2.273 . S
O160 Cd158 2.411 . S
O160 C163 1.320 . S
O161 Cd158 2.333 . S
O161 C163 1.214 . S
O162 Cd158 2.348 1_556 S
O162 C165 1.261 . S
C163 O160 1.320 . S
C163 O161 1.214 . S
O164 Cd156 2.277 . S
O164 C159 1.209 . S
C165 O162 1.261 . S
C165 O167 1.282 1_556 S
O166 Cd158 2.277 . S
O166 C159 1.226 . S
O167 Cd158 2.357 . S
O167 C165 1.282 1_554 S
C168 O169 1.306 . S
C168 O171 1.160 . S
O169 C168 1.306 . S
O169 Cd170 2.228 . S
Cd170 O169 2.228 . S
Cd170 O174 2.273 . S
Cd170 O178 2.277 . S
O171 C168 1.160 . S
O171 Cd172 2.203 . S
Cd172 O171 2.203 . S
Cd172 O174 2.411 . S
Cd172 O175 2.333 . S
Cd172 O176 2.352 1_556 S
Cd172 O180 2.277 . S
Cd172 O181 2.356 1_556 S
C173 O178 1.209 . S
C173 O180 1.226 . S
O174 Cd170 2.273 . S
O174 Cd172 2.411 . S
O174 C177 1.320 . S
O175 Cd172 2.333 . S
O175 C177 1.214 . S
O176 Cd172 2.352 1_554 S
O176 C179 1.258 . S
C177 O174 1.320 . S
C177 O175 1.214 . S
O178 Cd170 2.277 . S
O178 C173 1.209 . S
C179 O176 1.258 . S
C179 O181 1.282 . S
O180 Cd172 2.277 . S
O180 C173 1.226 . S
O181 Cd172 2.356 1_554 S
O181 C179 1.282 . S
C182 O183 1.306 . S
C182 O185 1.160 . S
O183 C182 1.306 . S
O183 Cd184 2.228 1_556 S
Cd184 O183 2.228 1_554 S
Cd184 O188 2.273 1_554 S
Cd184 O192 2.277 1_554 S
O185 C182 1.160 . S
O185 Cd186 2.203 . S
Cd186 O185 2.203 . S
Cd186 O188 2.411 . S
Cd186 O189 2.333 . S
Cd186 O190 2.352 . S
Cd186 O194 2.277 . S
Cd186 O195 2.356 . S
C187 O192 1.209 . S
C187 O194 1.226 . S
O188 Cd184 2.273 1_556 S
O188 Cd186 2.411 . S
O188 C191 1.320 . S
O189 Cd186 2.333 . S
O189 C191 1.214 . S
O190 Cd186 2.352 . S
O190 C193 1.258 . S
C191 O188 1.320 . S
C191 O189 1.214 . S
O192 Cd184 2.277 1_556 S
O192 C187 1.209 . S
C193 O190 1.258 . S
C193 O195 1.282 . S
O194 Cd186 2.277 . S
O194 C187 1.226 . S
O195 Cd186 2.356 . S
O195 C193 1.282 . S
C196 O197 1.306 . S
C196 O199 1.160 . S
O197 C196 1.306 . S
O197 Cd198 2.228 . S
Cd198 O197 2.228 . S
Cd198 O202 2.273 . S
Cd198 O206 2.277 . S
O199 C196 1.160 . S
O199 Cd200 2.203 . S
Cd200 O199 2.203 . S
Cd200 O202 2.411 . S
Cd200 O203 2.333 . S
Cd200 O204 2.352 . S
Cd200 O208 2.277 . S
Cd200 O209 2.356 . S
C201 O206 1.209 . S
C201 O208 1.226 . S
O202 Cd198 2.273 . S
O202 Cd200 2.411 . S
O202 C205 1.320 . S
O203 Cd200 2.333 . S
O203 C205 1.214 . S
O204 Cd200 2.352 . S
O204 C207 1.260 . S
C205 O202 1.320 . S
C205 O203 1.214 . S
O206 Cd198 2.277 . S
O206 C201 1.209 . S
C207 O204 1.260 . S
C207 O209 1.284 . S
O208 Cd200 2.277 . S
O208 C201 1.226 . S
O209 Cd200 2.356 . S
O209 C207 1.284 . S
C210 O211 1.306 . S
C210 O213 1.160 . S
O211 C210 1.306 . S
O211 Cd212 2.228 . S
Cd212 O211 2.228 . S
Cd212 O216 2.273 . S
Cd212 O220 2.277 . S
O213 C210 1.160 . S
O213 Cd214 2.203 . S
Cd214 O213 2.203 . S
Cd214 O216 2.411 . S
Cd214 O217 2.333 . S
Cd214 O218 2.352 . S
Cd214 O222 2.277 . S
Cd214 O223 2.356 . S
C215 O220 1.209 . S
C215 O222 1.226 . S
O216 Cd212 2.273 . S
O216 Cd214 2.411 . S
O216 C219 1.320 . S
O217 Cd214 2.333 . S
O217 C219 1.214 . S
O218 Cd214 2.352 . S
O218 C221 1.258 . S
C219 O216 1.320 . S
C219 O217 1.214 . S
O220 Cd212 2.277 . S
O220 C215 1.209 . S
C221 O218 1.258 . S
C221 O223 1.282 . S
O222 Cd214 2.277 . S
O222 C215 1.226 . S
O223 Cd214 2.356 . S
O223 C221 1.282 . S
C224 O225 1.291 1_655 S
C224 O227 1.213 . S
O225 C224 1.291 1_455 S
O225 Cd226 2.228 1_455 S
Cd226 O225 2.228 1_655 S
Cd226 O230 2.273 . S
Cd226 O234 2.277 . S
O227 C224 1.213 . S
O227 Cd228 2.203 . S
Cd228 O227 2.203 . S
Cd228 O230 2.411 . S
Cd228 O231 2.333 . S
Cd228 O232 2.352 . S
Cd228 O236 2.277 . S
Cd228 O237 2.356 . S
C229 O234 1.209 . S
C229 O236 1.226 . S
O230 Cd226 2.273 . S
O230 Cd228 2.411 . S
O230 C233 1.320 . S
O231 Cd228 2.333 . S
O231 C233 1.214 . S
O232 Cd228 2.352 . S
O232 C235 1.258 . S
C233 O230 1.320 . S
C233 O231 1.214 . S
O234 Cd226 2.277 . S
O234 C229 1.209 . S
C235 O232 1.258 . S
C235 O237 1.282 . S
O236 Cd228 2.277 . S
O236 C229 1.226 . S
O237 Cd228 2.356 . S
O237 C235 1.282 . S
C238 O239 1.306 . S
C238 O241 1.160 . S
O239 C238 1.306 . S
O239 Cd240 2.228 . S
Cd240 O239 2.228 . S
Cd240 O244 2.273 . S
Cd240 O248 2.277 . S
O241 C238 1.160 . S
O241 Cd242 2.203 . S
Cd242 O241 2.203 . S
Cd242 O244 2.411 . S
Cd242 O245 2.333 . S
Cd242 O246 2.352 . S
Cd242 O250 2.277 . S
Cd242 O251 2.356 . S
C243 O248 1.209 . S
C243 O250 1.226 . S
O244 Cd240 2.273 . S
O244 Cd242 2.411 . S
O244 C247 1.320 . S
O245 Cd242 2.333 . S
O245 C247 1.214 . S
O246 Cd242 2.352 . S
O246 C249 1.258 . S
C247 O244 1.320 . S
C247 O245 1.214 . S
O248 Cd240 2.277 . S
O248 C243 1.209 . S
C249 O246 1.258 . S
C249 O251 1.282 . S
O250 Cd242 2.277 . S
O250 C243 1.226 . S
O251 Cd242 2.356 . S
O251 C249 1.282 . S
H252 C260 0.950 . S
H253 C265 0.950 . S
H254 C262 0.950 . S
H255 C264 0.950 1_554 S
H256 C266 0.950 . S
H257 C268 0.950 . S
H258 C270 0.950 . S
H259 C271 0.950 . S
C260 H252 0.950 . S
C260 C261 1.386 . S
C260 C262 1.391 . S
C261 C260 1.386 . S
C261 C265 1.393 . S
C262 H254 0.950 . S
C262 C260 1.391 . S
C262 C263 1.400 . S
C263 C262 1.400 . S
C263 C264 1.398 . S
C263 C269 1.491 1_556 S
C264 H255 0.950 1_556 S
C264 C263 1.398 . S
C264 C265 1.391 . S
C265 H253 0.950 . S
C265 C261 1.393 . S
C265 C264 1.391 . S
C266 H256 0.950 . S
C266 C267 1.386 . S
C266 C268 1.391 . S
C267 C266 1.386 . S
C267 C271 1.393 . S
C268 H257 0.950 . S
C268 C266 1.391 . S
C268 C269 1.400 . S
C269 C263 1.491 1_554 S
C269 C268 1.400 . S
C269 C270 1.398 . S
C270 H258 0.950 . S
C270 C269 1.398 . S
C270 C271 1.391 . S
C271 H259 0.950 . S
C271 C267 1.393 . S
C271 C270 1.391 . S
H272 C280 0.950 . S
H273 C285 0.950 . S
H274 C282 0.950 . S
H275 C284 0.950 . S
H276 C286 0.950 . S
H277 C288 0.958 . S
H278 C290 0.950 . S
H279 C291 0.950 . S
C280 H272 0.950 . S
C280 C281 1.386 . S
C280 C282 1.391 . S
C281 C280 1.386 . S
C281 C285 1.393 . S
C282 H274 0.950 . S
C282 C280 1.391 . S
C282 C283 1.400 . S
C283 C282 1.400 . S
C283 C284 1.398 . S
C283 C289 1.491 1_556 S
C284 H275 0.950 . S
C284 C283 1.398 . S
C284 C285 1.391 . S
C285 H273 0.950 . S
C285 C281 1.393 . S
C285 C284 1.391 . S
C286 H276 0.950 . S
C286 C287 1.386 . S
C286 C288 1.391 . S
C287 C286 1.386 . S
C287 C291 1.393 . S
C288 H277 0.958 . S
C288 C286 1.391 . S
C288 C289 1.400 . S
C289 C283 1.491 1_554 S
C289 C288 1.400 . S
C289 C290 1.398 . S
C290 H278 0.950 . S
C290 C289 1.398 . S
C290 C291 1.391 . S
C291 H279 0.950 . S
C291 C287 1.393 . S
C291 C290 1.391 . S
H292 C300 0.950 . S
H293 C305 0.950 . S
H294 C302 0.950 . S
H295 C304 0.950 . S
H296 C306 0.950 . S
H297 C308 0.950 . S
H298 C310 0.950 1_554 S
H299 C311 0.950 . S
C300 H292 0.950 . S
C300 C301 1.386 . S
C300 C302 1.391 . S
C301 C300 1.386 . S
C301 C305 1.393 . S
C302 H294 0.950 . S
C302 C300 1.391 . S
C302 C303 1.400 . S
C303 C302 1.400 . S
C303 C304 1.398 . S
C303 C309 1.491 1_554 S
C304 H295 0.950 . S
C304 C303 1.398 . S
C304 C305 1.391 . S
C305 H293 0.950 . S
C305 C301 1.393 . S
C305 C304 1.391 . S
C306 H296 0.950 . S
C306 C307 1.386 . S
C306 C308 1.391 . S
C307 C306 1.386 . S
C307 C311 1.393 . S
C308 H297 0.950 . S
C308 C306 1.391 . S
C308 C309 1.400 . S
C309 C303 1.491 1_556 S
C309 C308 1.400 . S
C309 C310 1.398 . S
C310 H298 0.950 1_556 S
C310 C309 1.398 . S
C310 C311 1.391 . S
C311 H299 0.950 . S
C311 C307 1.393 . S
C311 C310 1.391 . S
H312 C320 0.950 . S
H313 C325 0.950 . S
H314 C322 0.950 . S
H315 C324 0.950 . S
H316 C326 0.950 . S
H317 C328 0.950 . S
H318 C330 0.950 . S
H319 C331 0.950 . S
C320 H312 0.950 . S
C320 C321 1.386 . S
C320 C322 1.391 . S
C321 C320 1.386 . S
C321 C325 1.393 . S
C322 H314 0.950 . S
C322 C320 1.391 . S
C322 C323 1.400 . S
C323 C322 1.400 . S
C323 C324 1.398 . S
C323 C329 1.491 . S
C324 H315 0.950 . S
C324 C323 1.398 . S
C324 C325 1.391 . S
C325 H313 0.950 . S
C325 C321 1.393 . S
C325 C324 1.391 . S
C326 H316 0.950 . S
C326 C327 1.386 . S
C326 C328 1.391 . S
C327 C326 1.386 . S
C327 C331 1.393 . S
C328 H317 0.950 . S
C328 C326 1.391 . S
C328 C329 1.400 . S
C329 C323 1.491 . S
C329 C328 1.400 . S
C329 C330 1.398 . S
C330 H318 0.950 . S
C330 C329 1.398 . S
C330 C331 1.391 . S
C331 H319 0.950 . S
C331 C327 1.393 . S
C331 C330 1.391 . S
H332 C340 0.950 . S
H333 C345 0.950 . S
H334 C342 0.950 . S
H335 C344 0.950 . S
H336 C346 0.950 . S
H337 C348 0.950 . S
H338 C350 0.950 . S
H339 C351 0.950 . S
C340 H332 0.950 . S
C340 C341 1.386 . S
C340 C342 1.391 . S
C341 C340 1.386 . S
C341 C345 1.393 . S
C342 H334 0.950 . S
C342 C340 1.391 . S
C342 C343 1.400 . S
C343 C342 1.400 . S
C343 C344 1.398 . S
C343 C349 1.491 . S
C344 H335 0.950 . S
C344 C343 1.398 . S
C344 C345 1.391 . S
C345 H333 0.950 . S
C345 C341 1.393 . S
C345 C344 1.391 . S
C346 H336 0.950 . S
C346 C347 1.386 . S
C346 C348 1.391 . S
C347 C346 1.386 . S
C347 C351 1.393 . S
C348 H337 0.950 . S
C348 C346 1.391 . S
C348 C349 1.400 . S
C349 C343 1.491 . S
C349 C348 1.400 . S
C349 C350 1.398 . S
C350 H338 0.950 . S
C350 C349 1.398 . S
C350 C351 1.391 . S
C351 H339 0.950 . S
C351 C347 1.393 . S
C351 C350 1.391 . S
H352 C360 0.950 . S
H353 C365 0.950 . S
H354 C362 0.950 . S
H355 C364 0.950 . S
H356 C366 0.950 . S
H357 C368 0.950 . S
H358 C370 0.950 . S
H359 C371 0.950 . S
C360 H352 0.950 . S
C360 C361 1.386 . S
C360 C362 1.391 . S
C361 C360 1.386 . S
C361 C365 1.393 . S
C362 H354 0.950 . S
C362 C360 1.391 . S
C362 C363 1.400 . S
C363 C362 1.400 . S
C363 C364 1.398 . S
C363 C369 1.491 . S
C364 H355 0.950 . S
C364 C363 1.398 . S
C364 C365 1.391 . S
C365 H353 0.950 . S
C365 C361 1.393 . S
C365 C364 1.391 . S
C366 H356 0.950 . S
C366 C367 1.386 . S
C366 C368 1.391 . S
C367 C366 1.386 . S
C367 C371 1.393 . S
C368 H357 0.950 . S
C368 C366 1.391 . S
C368 C369 1.400 . S
C369 C363 1.491 . S
C369 C368 1.400 . S
C369 C370 1.398 . S
C370 H358 0.950 . S
C370 C369 1.398 . S
C370 C371 1.391 . S
C371 H359 0.950 . S
C371 C367 1.393 . S
C371 C370 1.391 . S
H372 C380 0.950 . S
H373 C385 0.950 . S
H374 C382 0.950 . S
H375 C384 0.950 . S
H376 C386 0.950 . S
H377 C388 0.950 . S
H378 C390 0.950 . S
H379 C391 0.950 . S
C380 H372 0.950 . S
C380 C381 1.386 . S
C380 C382 1.391 . S
C381 C380 1.386 . S
C381 C385 1.393 . S
C382 H374 0.950 . S
C382 C380 1.391 . S
C382 C383 1.400 . S
C383 C382 1.400 . S
C383 C384 1.398 . S
C383 C389 1.491 . S
C384 H375 0.950 . S
C384 C383 1.398 . S
C384 C385 1.391 . S
C385 H373 0.950 . S
C385 C381 1.393 . S
C385 C384 1.391 . S
C386 H376 0.950 . S
C386 C387 1.386 . S
C386 C388 1.391 . S
C387 C386 1.386 . S
C387 C391 1.393 . S
C388 H377 0.950 . S
C388 C386 1.391 . S
C388 C389 1.400 . S
C389 C383 1.491 . S
C389 C388 1.400 . S
C389 C390 1.398 . S
C390 H378 0.950 . S
C390 C389 1.398 . S
C390 C391 1.391 . S
C391 H379 0.950 . S
C391 C387 1.393 . S
C391 C390 1.391 . S
H392 C400 0.950 . S
H393 C405 0.950 . S
H394 C402 0.950 . S
H395 C404 0.950 . S
H396 C406 0.950 . S
H397 C408 0.950 . S
H398 C410 0.950 . S
H399 C411 0.950 . S
C400 H392 0.950 . S
C400 C401 1.386 . S
C400 C402 1.391 . S
C401 C400 1.386 . S
C401 C405 1.393 . S
C402 H394 0.950 . S
C402 C400 1.391 . S
C402 C403 1.400 . S
C403 C402 1.400 . S
C403 C404 1.398 . S
C403 C409 1.491 . S
C404 H395 0.950 . S
C404 C403 1.398 . S
C404 C405 1.391 . S
C405 H393 0.950 . S
C405 C401 1.393 . S
C405 C404 1.391 . S
C406 H396 0.950 . S
C406 C407 1.386 . S
C406 C408 1.391 . S
C407 C406 1.386 . S
C407 C411 1.393 . S
C408 H397 0.950 . S
C408 C406 1.391 . S
C408 C409 1.400 . S
C409 C403 1.491 . S
C409 C408 1.400 . S
C409 C410 1.398 . S
C410 H398 0.950 . S
C410 C409 1.398 . S
C410 C411 1.391 . S
C411 H399 0.950 . S
C411 C407 1.393 . S
C411 C410 1.391 . S
H412 C420 0.950 . S
H413 C425 0.950 . S
H414 C422 0.950 . S
H415 C424 0.950 . S
H416 C426 0.950 . S
H417 C428 0.950 . S
H418 C430 0.950 . S
H419 C431 0.950 . S
C420 H412 0.950 . S
C420 C421 1.386 . S
C420 C422 1.391 . S
C421 C420 1.386 . S
C421 C425 1.393 . S
C422 H414 0.950 . S
C422 C420 1.391 . S
C422 C423 1.400 . S
C423 C422 1.400 . S
C423 C424 1.398 . S
C423 C429 1.491 . S
C424 H415 0.950 . S
C424 C423 1.398 . S
C424 C425 1.391 . S
C425 H413 0.950 . S
C425 C421 1.393 . S
C425 C424 1.391 . S
C426 H416 0.950 . S
C426 C427 1.386 . S
C426 C428 1.391 . S
C427 C426 1.386 . S
C427 C431 1.393 . S
C428 H417 0.950 . S
C428 C426 1.391 . S
C428 C429 1.400 . S
C429 C423 1.491 . S
C429 C428 1.400 . S
C429 C430 1.398 . S
C430 H418 0.950 . S
C430 C429 1.398 . S
C430 C431 1.391 . S
C431 H419 0.950 . S
C431 C427 1.393 . S
C431 C430 1.391 . S
H432 C440 0.950 . S
H433 C445 0.950 . S
H434 C442 0.950 . S
H435 C444 0.950 . S
H436 C446 0.950 . S
H437 C448 0.950 . S
H438 C450 0.950 . S
H439 C451 0.950 . S
C440 H432 0.950 . S
C440 C441 1.386 . S
C440 C442 1.391 . S
C441 C440 1.386 . S
C441 C445 1.393 . S
C442 H434 0.950 . S
C442 C440 1.391 . S
C442 C443 1.400 . S
C443 C442 1.400 . S
C443 C444 1.398 . S
C443 C449 1.491 . S
C444 H435 0.950 . S
C444 C443 1.398 . S
C444 C445 1.391 . S
C445 H433 0.950 . S
C445 C441 1.393 . S
C445 C444 1.391 . S
C446 H436 0.950 . S
C446 C447 1.386 . S
C446 C448 1.391 . S
C447 C446 1.386 . S
C447 C451 1.393 . S
C448 H437 0.950 . S
C448 C446 1.391 . S
C448 C449 1.400 . S
C449 C443 1.491 . S
C449 C448 1.400 . S
C449 C450 1.398 . S
C450 H438 0.950 . S
C450 C449 1.398 . S
C450 C451 1.391 . S
C451 H439 0.950 . S
C451 C447 1.393 . S
C451 C450 1.391 . S
H452 C460 0.950 . S
H453 C465 0.950 . S
H454 C462 0.950 . S
H455 C464 0.950 . S
H456 C466 0.950 . S
H457 C468 0.950 . S
H458 C470 0.950 . S
H459 C471 0.950 . S
C460 H452 0.950 . S
C460 C461 1.386 . S
C460 C462 1.391 . S
C461 C460 1.386 . S
C461 C465 1.393 . S
C462 H454 0.950 . S
C462 C460 1.391 . S
C462 C463 1.400 . S
C463 C462 1.400 . S
C463 C464 1.398 . S
C463 C469 1.491 . S
C464 H455 0.950 . S
C464 C463 1.398 . S
C464 C465 1.391 . S
C465 H453 0.950 . S
C465 C461 1.393 . S
C465 C464 1.391 . S
C466 H456 0.950 . S
C466 C467 1.386 . S
C466 C468 1.391 . S
C467 C466 1.386 . S
C467 C471 1.393 . S
C468 H457 0.950 . S
C468 C466 1.391 . S
C468 C469 1.400 . S
C469 C463 1.491 . S
C469 C468 1.400 . S
C469 C470 1.398 . S
C470 H458 0.950 . S
C470 C469 1.398 . S
C470 C471 1.391 . S
C471 H459 0.950 . S
C471 C467 1.393 . S
C471 C470 1.391 . S
H472 C480 0.950 . S
H473 C485 0.950 . S
H474 C482 0.950 . S
H475 C484 0.950 . S
H476 C486 0.950 . S
H477 C488 0.950 . S
H478 C490 0.950 . S
H479 C491 0.950 . S
C480 H472 0.950 . S
C480 C481 1.386 . S
C480 C482 1.391 . S
C481 C480 1.386 . S
C481 C485 1.393 . S
C482 H474 0.950 . S
C482 C480 1.391 . S
C482 C483 1.400 . S
C483 C482 1.400 . S
C483 C484 1.398 . S
C483 C489 1.491 . S
C484 H475 0.950 . S
C484 C483 1.398 . S
C484 C485 1.391 . S
C485 H473 0.950 . S
C485 C481 1.393 . S
C485 C484 1.391 . S
C486 H476 0.950 . S
C486 C487 1.386 . S
C486 C488 1.391 . S
C487 C486 1.386 . S
C487 C491 1.393 . S
C488 H477 0.950 . S
C488 C486 1.391 . S
C488 C489 1.400 . S
C489 C483 1.491 . S
C489 C488 1.400 . S
C489 C490 1.398 . S
C490 H478 0.950 . S
C490 C489 1.398 . S
C490 C491 1.391 . S
C491 H479 0.950 . S
C491 C487 1.393 . S
C491 C490 1.391 . S
H492 C500 0.950 . S
H493 C505 0.950 . S
H494 C502 0.950 . S
H495 C504 0.950 . S
H496 C506 0.950 . S
H497 C508 0.950 . S
H498 C510 0.950 . S
H499 C511 0.950 . S
C500 H492 0.950 . S
C500 C501 1.386 . S
C500 C502 1.391 . S
C501 C500 1.386 . S
C501 C505 1.393 . S
C502 H494 0.950 . S
C502 C500 1.391 . S
C502 C503 1.400 . S
C503 C502 1.400 . S
C503 C504 1.398 . S
C503 C509 1.491 . S
C504 H495 0.950 . S
C504 C503 1.398 . S
C504 C505 1.391 . S
C505 H493 0.950 . S
C505 C501 1.393 . S
C505 C504 1.391 . S
C506 H496 0.950 . S
C506 C507 1.386 . S
C506 C508 1.391 . S
C507 C506 1.386 . S
C507 C511 1.393 . S
C508 H497 0.950 . S
C508 C506 1.391 . S
C508 C509 1.400 . S
C509 C503 1.491 . S
C509 C508 1.400 . S
C509 C510 1.398 . S
C510 H498 0.950 . S
C510 C509 1.398 . S
C510 C511 1.391 . S
C511 H499 0.950 . S
C511 C507 1.393 . S
C511 C510 1.391 . S
H512 C520 0.950 . S
H513 C525 0.950 . S
H514 C522 0.950 . S
H515 C524 0.950 . S
H516 C526 0.950 . S
H517 C528 0.950 . S
H518 C530 0.950 . S
H519 C531 0.950 . S
C520 H512 0.950 . S
C520 C521 1.386 . S
C520 C522 1.391 . S
C521 C520 1.386 . S
C521 C525 1.393 . S
C522 H514 0.950 . S
C522 C520 1.391 . S
C522 C523 1.400 . S
C523 C522 1.400 . S
C523 C524 1.398 . S
C523 C529 1.491 . S
C524 H515 0.950 . S
C524 C523 1.398 . S
C524 C525 1.391 . S
C525 H513 0.950 . S
C525 C521 1.393 . S
C525 C524 1.391 . S
C526 H516 0.950 . S
C526 C527 1.386 . S
C526 C528 1.391 . S
C527 C526 1.386 . S
C527 C531 1.393 . S
C528 H517 0.950 . S
C528 C526 1.391 . S
C528 C529 1.400 . S
C529 C523 1.491 . S
C529 C528 1.400 . S
C529 C530 1.398 . S
C530 H518 0.950 . S
C530 C529 1.398 . S
C530 C531 1.391 . S
C531 H519 0.950 . S
C531 C527 1.393 . S
C531 C530 1.391 . S
H532 C540 0.950 . S
H533 C545 0.950 . S
H534 C542 0.950 . S
H535 C544 0.950 . S
H536 C546 0.950 . S
H537 C548 0.950 . S
H538 C550 0.950 . S
H539 C551 0.950 . S
C540 H532 0.950 . S
C540 C541 1.386 . S
C540 C542 1.391 . S
C541 C540 1.386 . S
C541 C545 1.393 . S
C542 H534 0.950 . S
C542 C540 1.391 . S
C542 C543 1.400 . S
C543 C542 1.400 . S
C543 C544 1.398 . S
C543 C549 1.491 . S
C544 H535 0.950 . S
C544 C543 1.398 . S
C544 C545 1.391 . S
C545 H533 0.950 . S
C545 C541 1.393 . S
C545 C544 1.391 . S
C546 H536 0.950 . S
C546 C547 1.386 . S
C546 C548 1.391 . S
C547 C546 1.386 . S
C547 C551 1.393 . S
C548 H537 0.950 . S
C548 C546 1.391 . S
C548 C549 1.400 . S
C549 C543 1.491 . S
C549 C548 1.400 . S
C549 C550 1.398 . S
C550 H538 0.950 . S
C550 C549 1.398 . S
C550 C551 1.391 . S
C551 H539 0.950 . S
C551 C547 1.393 . S
C551 C550 1.391 . S
H552 C560 0.950 . S
H553 C565 0.950 . S
H554 C562 0.950 . S
H555 C564 0.950 . S
H556 C566 0.950 . S
H557 C568 0.950 . S
H558 C570 0.950 . S
H559 C571 0.950 . S
C560 H552 0.950 . S
C560 C561 1.386 . S
C560 C562 1.391 . S
C561 C560 1.386 . S
C561 C565 1.393 . S
C562 H554 0.950 . S
C562 C560 1.391 . S
C562 C563 1.400 . S
C563 C562 1.400 . S
C563 C564 1.398 . S
C563 C569 1.491 . S
C564 H555 0.950 . S
C564 C563 1.398 . S
C564 C565 1.391 . S
C565 H553 0.950 . S
C565 C561 1.393 . S
C565 C564 1.391 . S
C566 H556 0.950 . S
C566 C567 1.386 . S
C566 C568 1.391 . S
C567 C566 1.386 . S
C567 C571 1.393 . S
C568 H557 0.950 . S
C568 C566 1.391 . S
C568 C569 1.400 . S
C569 C563 1.491 . S
C569 C568 1.400 . S
C569 C570 1.398 . S
C570 H558 0.950 . S
C570 C569 1.398 . S
C570 C571 1.391 . S
C571 H559 0.950 . S
C571 C567 1.393 . S
C571 C570 1.391 . S
H572 C580 0.950 . S
H573 C585 0.950 . S
H574 C582 0.950 . S
H575 C584 0.950 . S
H576 C586 0.950 . S
H577 C588 0.950 . S
H578 C590 0.950 . S
H579 C591 0.950 . S
C580 H572 0.950 . S
C580 C581 1.386 . S
C580 C582 1.391 . S
C581 C580 1.386 . S
C581 C585 1.393 . S
C582 H574 0.950 . S
C582 C580 1.391 . S
C582 C583 1.400 . S
C583 C582 1.400 . S
C583 C584 1.398 . S
C583 C589 1.491 . S
C584 H575 0.950 . S
C584 C583 1.398 . S
C584 C585 1.391 . S
C585 H573 0.950 . S
C585 C581 1.393 . S
C585 C584 1.391 . S
C586 H576 0.950 . S
C586 C587 1.386 . S
C586 C588 1.391 . S
C587 C586 1.386 . S
C587 C591 1.393 . S
C588 H577 0.950 . S
C588 C586 1.391 . S
C588 C589 1.400 . S
C589 C583 1.491 . S
C589 C588 1.400 . S
C589 C590 1.398 . S
C590 H578 0.950 . S
C590 C589 1.398 . S
C590 C591 1.391 . S
C591 H579 0.950 . S
C591 C587 1.393 . S
C591 C590 1.391 . S
H592 C600 0.950 . S
H593 C605 0.950 . S
H594 C602 0.950 . S
H595 C604 0.950 . S
H596 C606 0.950 . S
H597 C608 0.950 . S
H598 C610 0.950 . S
H599 C611 0.950 1_556 S
C600 H592 0.950 . S
C600 C601 1.386 . S
C600 C602 1.391 . S
C601 C600 1.386 . S
C601 C605 1.393 . S
C602 H594 0.950 . S
C602 C600 1.391 . S
C602 C603 1.400 . S
C603 C602 1.400 . S
C603 C604 1.398 . S
C603 C609 1.491 . S
C604 H595 0.950 . S
C604 C603 1.398 . S
C604 C605 1.391 . S
C605 H593 0.950 . S
C605 C601 1.393 . S
C605 C604 1.391 . S
C606 H596 0.950 . S
C606 C607 1.386 . S
C606 C608 1.391 . S
C607 C606 1.386 . S
C607 C611 1.393 . S
C608 H597 0.950 . S
C608 C606 1.391 . S
C608 C609 1.400 . S
C609 C603 1.491 . S
C609 C608 1.400 . S
C609 C610 1.398 . S
C610 H598 0.950 . S
C610 C609 1.398 . S
C610 C611 1.391 . S
C611 H599 0.950 1_554 S
C611 C607 1.393 . S
C611 C610 1.391 . S
H612 C620 0.950 . S
H613 C625 0.950 . S
H614 C622 0.950 . S
H615 C624 0.950 . S
H616 C626 0.950 . S
H617 C628 0.950 . S
H618 C630 0.950 . S
H619 C631 0.950 . S
C620 H612 0.950 . S
C620 C621 1.386 . S
C620 C622 1.391 . S
C621 C620 1.386 . S
C621 C625 1.393 . S
C622 H614 0.950 . S
C622 C620 1.391 . S
C622 C623 1.400 . S
C623 C622 1.400 . S
C623 C624 1.398 . S
C623 C629 1.491 . S
C624 H615 0.950 . S
C624 C623 1.398 . S
C624 C625 1.391 . S
C625 H613 0.950 . S
C625 C621 1.393 . S
C625 C624 1.391 . S
C626 H616 0.950 . S
C626 C627 1.386 . S
C626 C628 1.391 . S
C627 C626 1.386 . S
C627 C631 1.393 . S
C628 H617 0.950 . S
C628 C626 1.391 . S
C628 C629 1.400 . S
C629 C623 1.491 . S
C629 C628 1.400 . S
C629 C630 1.398 . S
C630 H618 0.950 . S
C630 C629 1.398 . S
C630 C631 1.391 . S
C631 H619 0.950 . S
C631 C627 1.393 . S
C631 C630 1.391 . S
H632 C640 0.950 . S
H633 C645 0.950 . S
H634 C642 0.950 . S
H635 C644 0.950 . S
H636 C646 0.950 . S
H637 C648 0.950 . S
H638 C650 0.950 . S
H639 C651 0.950 . S
C640 H632 0.950 . S
C640 C641 1.386 . S
C640 C642 1.391 . S
C641 C640 1.386 . S
C641 C645 1.393 . S
C642 H634 0.950 . S
C642 C640 1.391 . S
C642 C643 1.400 . S
C643 C642 1.400 . S
C643 C644 1.398 . S
C643 C649 1.491 . S
C644 H635 0.950 . S
C644 C643 1.398 . S
C644 C645 1.391 . S
C645 H633 0.950 . S
C645 C641 1.393 . S
C645 C644 1.391 . S
C646 H636 0.950 . S
C646 C647 1.386 . S
C646 C648 1.391 . S
C647 C646 1.386 . S
C647 C651 1.393 . S
C648 H637 0.950 . S
C648 C646 1.391 . S
C648 C649 1.400 . S
C649 C643 1.491 . S
C649 C648 1.400 . S
C649 C650 1.398 . S
C650 H638 0.950 . S
C650 C649 1.398 . S
C650 C651 1.391 . S
C651 H639 0.950 . S
C651 C647 1.393 . S
C651 C650 1.391 . S
H652 C660 0.960 . S
H653 C665 0.950 . S
H654 C662 0.950 . S
H655 C664 0.950 . S
H656 C666 0.950 1_565 S
H657 C668 0.950 . S
H658 C670 0.950 . S
H659 C671 0.950 . S
C660 H652 0.960 . S
C660 C661 1.386 . S
C660 C662 1.391 1_565 S
C661 C660 1.386 . S
C661 C665 1.393 . S
C662 H654 0.950 . S
C662 C660 1.391 1_545 S
C662 C663 1.400 1_545 S
C663 C662 1.400 1_565 S
C663 C664 1.398 . S
C663 C669 1.491 1_565 S
C664 H655 0.950 . S
C664 C663 1.398 . S
C664 C665 1.391 . S
C665 H653 0.950 . S
C665 C661 1.393 . S
C665 C664 1.391 . S
C666 H656 0.950 1_545 S
C666 C667 1.386 . S
C666 C668 1.391 1_545 S
C667 C666 1.386 . S
C667 C671 1.393 . S
C668 H657 0.950 . S
C668 C666 1.391 1_565 S
C668 C669 1.400 1_565 S
C669 C663 1.491 1_545 S
C669 C668 1.400 1_545 S
C669 C670 1.398 . S
C670 H658 0.950 . S
C670 C669 1.398 . S
C670 C671 1.391 . S
C671 H659 0.950 . S
C671 C667 1.393 . S
C671 C670 1.391 . S
H672 C680 0.950 . S
H673 C685 0.950 . S
H674 C682 0.950 . S
H675 C684 0.950 . S
H676 C686 0.950 . S
H677 C688 0.950 . S
H678 C690 0.950 1_556 S
H679 C691 0.950 . S
C680 H672 0.950 . S
C680 C681 1.386 . S
C680 C682 1.391 . S
C681 C680 1.386 . S
C681 C685 1.393 . S
C682 H674 0.950 . S
C682 C680 1.391 . S
C682 C683 1.400 . S
C683 C682 1.400 . S
C683 C684 1.398 . S
C683 C689 1.491 . S
C684 H675 0.950 . S
C684 C683 1.398 . S
C684 C685 1.391 . S
C685 H673 0.950 . S
C685 C681 1.393 . S
C685 C684 1.391 . S
C686 H676 0.950 . S
C686 C687 1.386 1_554 S
C686 C688 1.391 . S
C687 C686 1.386 1_556 S
C687 C691 1.393 . S
C688 H677 0.950 . S
C688 C686 1.391 . S
C688 C689 1.400 . S
C689 C683 1.491 . S
C689 C688 1.400 . S
C689 C690 1.398 . S
C690 H678 0.950 1_554 S
C690 C689 1.398 . S
C690 C691 1.391 1_554 S
C691 H679 0.950 . S
C691 C687 1.393 . S
C691 C690 1.391 1_556 S
H692 C700 0.949 1_455 S
H693 C705 0.950 . S
H694 C702 0.950 . S
H695 C704 0.950 . S
H696 C706 0.950 1_655 S
H697 C708 0.950 . S
H698 C710 0.950 . S
H699 C711 0.950 . S
C700 H692 0.949 1_655 S
C700 C701 1.386 1_554 S
C700 C702 1.391 1_655 S
C701 C700 1.386 1_556 S
C701 C705 1.393 . S
C702 H694 0.950 . S
C702 C700 1.391 1_455 S
C702 C703 1.400 1_455 S
C703 C702 1.400 1_655 S
C703 C704 1.398 . S
C703 C709 1.491 1_655 S
C704 H695 0.950 . S
C704 C703 1.398 . S
C704 C705 1.391 1_554 S
C705 H693 0.950 . S
C705 C701 1.393 . S
C705 C704 1.391 1_556 S
C706 H696 0.950 1_455 S
C706 C707 1.386 . S
C706 C708 1.391 1_455 S
C707 C706 1.386 . S
C707 C711 1.393 . S
C708 H697 0.950 . S
C708 C706 1.391 1_655 S
C708 C709 1.400 1_655 S
C709 C703 1.491 1_455 S
C709 C708 1.400 1_455 S
C709 C710 1.398 . S
C710 H698 0.950 . S
C710 C709 1.398 . S
C710 C711 1.391 . S
C711 H699 0.950 . S
C711 C707 1.393 . S
C711 C710 1.391 . S
H712 C720 0.950 . S
H713 C725 0.950 . S
H714 C722 0.950 . S
H715 C724 0.950 . S
H716 C726 0.950 . S
H717 C728 0.950 . S
H718 C730 0.950 . S
H719 C731 0.950 . S
C720 H712 0.950 . S
C720 C721 1.386 1_556 S
C720 C722 1.391 1_556 S
C721 C720 1.386 1_554 S
C721 C725 1.393 . S
C722 H714 0.950 . S
C722 C720 1.391 1_554 S
C722 C723 1.400 . S
C723 C722 1.400 . S
C723 C724 1.398 . S
C723 C729 1.491 . S
C724 H715 0.950 . S
C724 C723 1.398 . S
C724 C725 1.391 . S
C725 H713 0.950 . S
C725 C721 1.393 . S
C725 C724 1.391 . S
C726 H716 0.950 . S
C726 C727 1.386 . S
C726 C728 1.391 . S
C727 C726 1.386 . S
C727 C731 1.393 . S
C728 H717 0.950 . S
C728 C726 1.391 . S
C728 C729 1.400 . S
C729 C723 1.491 . S
C729 C728 1.400 . S
C729 C730 1.398 . S
C730 H718 0.950 . S
C730 C729 1.398 . S
C730 C731 1.391 . S
C731 H719 0.950 . S
C731 C727 1.393 . S
C731 C730 1.391 . S
H732 C740 0.944 . S
H733 C745 0.950 . S
H734 C742 0.950 . S
H735 C744 0.950 . S
H736 C746 0.950 1_655 S
H737 C748 0.950 . S
H738 C750 0.950 . S
H739 C751 0.950 . S
C740 H732 0.944 . S
C740 C741 1.391 1_455 S
C740 C742 1.392 . S
C741 C740 1.391 1_655 S
C741 C745 1.393 . S
C742 H734 0.950 . S
C742 C740 1.392 . S
C742 C743 1.400 1_455 S
C743 C742 1.400 1_655 S
C743 C744 1.398 . S
C743 C749 1.491 1_655 S
C744 H735 0.950 . S
C744 C743 1.398 . S
C744 C745 1.391 . S
C745 H733 0.950 . S
C745 C741 1.393 . S
C745 C744 1.391 . S
C746 H736 0.950 1_455 S
C746 C747 1.386 . S
C746 C748 1.391 1_455 S
C747 C746 1.386 . S
C747 C751 1.393 . S
C748 H737 0.950 . S
C748 C746 1.391 1_655 S
C748 C749 1.400 1_655 S
C749 C743 1.491 1_455 S
C749 C748 1.400 1_455 S
C749 C750 1.398 . S
C750 H738 0.950 . S
C750 C749 1.398 . S
C750 C751 1.391 . S
C751 H739 0.950 . S
C751 C747 1.393 . S
C751 C750 1.391 . S
H752 C760 0.950 . S
H753 C765 0.950 . S
H754 C762 0.950 . S
H755 C764 0.950 . S
H756 C766 0.950 . S
H757 C768 0.950 . S
H758 C770 0.950 . S
H759 C771 0.950 . S
C760 H752 0.950 . S
C760 C761 1.386 . S
C760 C762 1.391 . S
C761 C760 1.386 . S
C761 C765 1.393 . S
C762 H754 0.950 . S
C762 C760 1.391 . S
C762 C763 1.400 . S
C763 C762 1.400 . S
C763 C764 1.398 . S
C763 C769 1.491 . S
C764 H755 0.950 . S
C764 C763 1.398 . S
C764 C765 1.391 . S
C765 H753 0.950 . S
C765 C761 1.393 . S
C765 C764 1.391 . S
C766 H756 0.950 . S
C766 C767 1.386 . S
C766 C768 1.391 . S
C767 C766 1.386 . S
C767 C771 1.393 . S
C768 H757 0.950 . S
C768 C766 1.391 . S
C768 C769 1.400 . S
C769 C763 1.491 . S
C769 C768 1.400 . S
C769 C770 1.398 . S
C770 H758 0.950 . S
C770 C769 1.398 . S
C770 C771 1.391 . S
C771 H759 0.950 . S
C771 C767 1.393 . S
C771 C770 1.391 . S
H772 C780 0.950 . S
H773 C785 0.950 . S
H774 C782 0.950 . S
H775 C784 0.950 . S
H776 C786 0.950 . S
H777 C788 0.950 . S
H778 C790 0.950 . S
H779 C791 0.950 . S
C780 H772 0.950 . S
C780 C781 1.386 . S
C780 C782 1.391 . S
C781 C780 1.386 . S
C781 C785 1.393 . S
C782 H774 0.950 . S
C782 C780 1.391 . S
C782 C783 1.400 . S
C783 C782 1.400 . S
C783 C784 1.398 . S
C783 C789 1.491 . S
C784 H775 0.950 . S
C784 C783 1.398 . S
C784 C785 1.391 . S
C785 H773 0.950 . S
C785 C781 1.393 . S
C785 C784 1.391 . S
C786 H776 0.950 . S
C786 C787 1.386 . S
C786 C788 1.391 . S
C787 C786 1.386 . S
C787 C791 1.393 . S
C788 H777 0.950 . S
C788 C786 1.391 . S
C788 C789 1.400 . S
C789 C783 1.491 . S
C789 C788 1.400 . S
C789 C790 1.398 . S
C790 H778 0.950 . S
C790 C789 1.398 . S
C790 C791 1.391 . S
C791 H779 0.950 . S
C791 C787 1.393 . S
C791 C790 1.391 . S
H792 C800 0.950 . S
H793 C805 0.950 . S
H794 C802 0.950 . S
H795 C804 0.940 . S
H796 C806 0.950 . S
H797 C808 0.950 . S
H798 C810 0.950 . S
H799 C811 0.950 . S
C800 H792 0.950 . S
C800 C801 1.386 1_556 S
C800 C802 1.391 . S
C801 C800 1.386 1_554 S
C801 C805 1.393 . S
C802 H794 0.950 . S
C802 C800 1.391 . S
C802 C803 1.403 1_565 S
C803 C802 1.403 1_545 S
C803 C804 1.396 1_546 S
C803 C809 1.490 . S
C804 H795 0.940 . S
C804 C803 1.396 1_564 S
C804 C805 1.391 . S
C805 H793 0.950 . S
C805 C801 1.393 . S
C805 C804 1.391 . S
C806 H796 0.950 . S
C806 C807 1.386 . S
C806 C808 1.391 . S
C807 C806 1.386 . S
C807 C811 1.393 . S
C808 H797 0.950 . S
C808 C806 1.391 . S
C808 C809 1.400 . S
C809 C803 1.490 . S
C809 C808 1.400 . S
C809 C810 1.398 . S
C810 H798 0.950 . S
C810 C809 1.398 . S
C810 C811 1.391 . S
C811 H799 0.950 . S
C811 C807 1.393 . S
C811 C810 1.391 . S
H812 C820 0.950 . S
H813 C825 0.950 . S
H814 C822 0.950 . S
H815 C824 0.950 . S
H816 C826 0.950 . S
H817 C828 0.944 1_554 S
H818 C830 0.950 . S
H819 C831 0.950 . S
C820 H812 0.950 . S
C820 C821 1.386 . S
C820 C822 1.391 . S
C821 C820 1.386 . S
C821 C825 1.393 . S
C822 H814 0.950 . S
C822 C820 1.391 . S
C822 C823 1.400 . S
C823 C822 1.400 . S
C823 C824 1.398 . S
C823 C829 1.491 . S
C824 H815 0.950 . S
C824 C823 1.398 . S
C824 C825 1.391 . S
C825 H813 0.950 . S
C825 C821 1.393 . S
C825 C824 1.391 . S
C826 H816 0.950 . S
C826 C827 1.386 1_554 S
C826 C828 1.391 1_554 S
C827 C826 1.386 1_556 S
C827 C831 1.393 . S
C828 H817 0.944 1_556 S
C828 C826 1.391 1_556 S
C828 C829 1.400 . S
C829 C823 1.491 . S
C829 C828 1.400 . S
C829 C830 1.398 . S
C830 H818 0.950 . S
C830 C829 1.398 . S
C830 C831 1.391 . S
C831 H819 0.950 . S
C831 C827 1.393 . S
C831 C830 1.391 . S
H832 C840 0.950 . S
H833 C845 0.950 . S
H834 C842 0.950 . S
H835 C844 0.950 . S
H836 C846 0.950 . S
H837 C848 0.950 . S
H838 C850 0.950 . S
H839 C851 0.950 . S
C840 H832 0.950 . S
C840 C841 1.386 . S
C840 C842 1.391 . S
C841 C840 1.386 . S
C841 C845 1.393 . S
C842 H834 0.950 . S
C842 C840 1.391 . S
C842 C843 1.400 . S
C843 C842 1.400 . S
C843 C844 1.398 . S
C843 C849 1.491 . S
C844 H835 0.950 . S
C844 C843 1.398 . S
C844 C845 1.391 . S
C845 H833 0.950 . S
C845 C841 1.393 . S
C845 C844 1.391 . S
C846 H836 0.950 . S
C846 C847 1.386 . S
C846 C848 1.391 . S
C847 C846 1.386 . S
C847 C851 1.393 1_556 S
C848 H837 0.950 . S
C848 C846 1.391 . S
C848 C849 1.400 . S
C849 C843 1.491 . S
C849 C848 1.400 . S
C849 C850 1.398 . S
C850 H838 0.950 . S
C850 C849 1.398 . S
C850 C851 1.391 1_556 S
C851 H839 0.950 . S
C851 C847 1.393 1_554 S
C851 C850 1.391 1_554 S
H852 C860 0.950 . S
H853 C865 0.950 1_565 S
H854 C862 0.950 . S
H855 C864 0.950 . S
H856 C866 0.950 . S
H857 C868 0.950 . S
H858 C870 0.950 . S
H859 C871 0.950 . S
C860 H852 0.950 . S
C860 C861 1.386 . S
C860 C862 1.391 . S
C861 C860 1.386 . S
C861 C865 1.393 . S
C862 H854 0.950 . S
C862 C860 1.391 . S
C862 C863 1.400 . S
C863 C862 1.400 . S
C863 C864 1.398 . S
C863 C869 1.491 . S
C864 H855 0.950 . S
C864 C863 1.398 . S
C864 C865 1.391 . S
C865 H853 0.950 1_545 S
C865 C861 1.393 . S
C865 C864 1.391 . S
C866 H856 0.950 . S
C866 C867 1.386 . S
C866 C868 1.391 . S
C867 C866 1.386 . S
C867 C871 1.393 . S
C868 H857 0.950 . S
C868 C866 1.391 . S
C868 C869 1.400 . S
C869 C863 1.491 . S
C869 C868 1.400 . S
C869 C870 1.398 . S
C870 H858 0.950 . S
C870 C869 1.398 . S
C870 C871 1.391 . S
C871 H859 0.950 . S
C871 C867 1.393 . S
C871 C870 1.391 . S
H872 C880 0.950 . S
H873 C885 0.950 . S
H874 C882 0.950 . S
H875 C884 0.950 . S
H876 C886 0.950 . S
H877 C888 0.950 . S
H878 C890 0.950 . S
H879 C891 0.950 1_655 S
C880 H872 0.950 . S
C880 C881 1.386 . S
C880 C882 1.391 . S
C881 C880 1.386 . S
C881 C885 1.393 . S
C882 H874 0.950 . S
C882 C880 1.391 . S
C882 C883 1.400 . S
C883 C882 1.400 . S
C883 C884 1.398 . S
C883 C889 1.491 . S
C884 H875 0.950 . S
C884 C883 1.398 . S
C884 C885 1.391 . S
C885 H873 0.950 . S
C885 C881 1.393 . S
C885 C884 1.391 . S
C886 H876 0.950 . S
C886 C887 1.386 . S
C886 C888 1.391 . S
C887 C886 1.386 . S
C887 C891 1.393 . S
C888 H877 0.950 . S
C888 C886 1.391 . S
C888 C889 1.400 . S
C889 C883 1.491 . S
C889 C888 1.400 . S
C889 C890 1.398 . S
C890 H878 0.950 . S
C890 C889 1.398 . S
C890 C891 1.391 . S
C891 H879 0.950 1_455 S
C891 C887 1.393 . S
C891 C890 1.391 . S
H892 C900 0.950 . S
H893 C905 0.950 . S
H894 C902 0.950 . S
H895 C904 0.950 . S
H896 C906 0.950 . S
H897 C908 0.950 . S
H898 C910 0.950 . S
H899 C911 0.950 . S
C900 H892 0.950 . S
C900 C901 1.386 . S
C900 C902 1.391 . S
C901 C900 1.386 . S
C901 C905 1.393 . S
C902 H894 0.950 . S
C902 C900 1.391 . S
C902 C903 1.400 . S
C903 C902 1.400 . S
C903 C904 1.398 . S
C903 C909 1.491 . S
C904 H895 0.950 . S
C904 C903 1.398 . S
C904 C905 1.391 . S
C905 H893 0.950 . S
C905 C901 1.393 . S
C905 C904 1.391 . S
C906 H896 0.950 . S
C906 C907 1.386 . S
C906 C908 1.391 . S
C907 C906 1.386 . S
C907 C911 1.393 . S
C908 H897 0.950 . S
C908 C906 1.391 . S
C908 C909 1.400 . S
C909 C903 1.491 . S
C909 C908 1.400 . S
C909 C910 1.398 . S
C910 H898 0.950 . S
C910 C909 1.398 . S
C910 C911 1.391 . S
C911 H899 0.950 . S
C911 C907 1.393 . S
C911 C910 1.391 . S
H912 C920 0.950 . S
H913 C925 0.945 . S
H914 C922 0.950 . S
H915 C924 0.950 . S
H916 C926 0.950 . S
H917 C928 0.950 . S
H918 C930 0.950 . S
H919 C931 0.950 . S
C920 H912 0.950 . S
C920 C921 1.386 . S
C920 C922 1.391 . S
C921 C920 1.386 . S
C921 C925 1.393 . S
C922 H914 0.950 . S
C922 C920 1.391 . S
C922 C923 1.400 . S
C923 C922 1.400 . S
C923 C924 1.398 . S
C923 C929 1.491 . S
C924 H915 0.950 . S
C924 C923 1.398 . S
C924 C925 1.391 . S
C925 H913 0.945 . S
C925 C921 1.393 . S
C925 C924 1.391 . S
C926 H916 0.950 . S
C926 C927 1.386 . S
C926 C928 1.391 . S
C927 C926 1.386 . S
C927 C931 1.393 . S
C928 H917 0.950 . S
C928 C926 1.391 . S
C928 C929 1.400 . S
C929 C923 1.491 . S
C929 C928 1.400 . S
C929 C930 1.398 . S
C930 H918 0.950 . S
C930 C929 1.398 . S
C930 C931 1.391 . S
C931 H919 0.950 . S
C931 C927 1.393 . S
C931 C930 1.391 . S
H932 C940 0.950 . S
H933 C945 0.950 . S
H934 C942 0.950 . S
H935 C944 0.950 . S
H936 C946 0.950 . S
H937 C948 0.950 . S
H938 C950 0.950 . S
H939 C951 0.950 . S
C940 H932 0.950 . S
C940 C941 1.386 . S
C940 C942 1.391 . S
C941 C940 1.386 . S
C941 C945 1.393 . S
C942 H934 0.950 . S
C942 C940 1.391 . S
C942 C943 1.400 . S
C943 C942 1.400 . S
C943 C944 1.398 . S
C943 C949 1.491 . S
C944 H935 0.950 . S
C944 C943 1.398 . S
C944 C945 1.391 . S
C945 H933 0.950 . S
C945 C941 1.393 . S
C945 C944 1.391 . S
C946 H936 0.950 . S
C946 C947 1.386 . S
C946 C948 1.391 . S
C947 C946 1.386 . S
C947 C951 1.393 . S
C948 H937 0.950 . S
C948 C946 1.391 . S
C948 C949 1.400 . S
C949 C943 1.491 . S
C949 C948 1.400 . S
C949 C950 1.398 . S
C950 H938 0.950 . S
C950 C949 1.398 . S
C950 C951 1.391 . S
C951 H939 0.950 . S
C951 C947 1.393 . S
C951 C950 1.391 . S
H952 C960 0.950 . S
H953 C965 0.950 . S
H954 C962 0.950 . S
H955 C964 0.950 . S
H956 C966 0.950 . S
H957 C968 0.950 . S
H958 C970 0.950 . S
H959 C971 0.950 . S
C960 H952 0.950 . S
C960 C961 1.386 . S
C960 C962 1.391 . S
C961 C960 1.386 . S
C961 C965 1.393 . S
C962 H954 0.950 . S
C962 C960 1.391 . S
C962 C963 1.400 . S
C963 C962 1.400 . S
C963 C964 1.398 . S
C963 C969 1.491 . S
C964 H955 0.950 . S
C964 C963 1.398 . S
C964 C965 1.391 . S
C965 H953 0.950 . S
C965 C961 1.393 . S
C965 C964 1.391 . S
C966 H956 0.950 . S
C966 C967 1.386 . S
C966 C968 1.391 . S
C967 C966 1.386 . S
C967 C971 1.393 . S
C968 H957 0.950 . S
C968 C966 1.391 . S
C968 C969 1.400 . S
C969 C963 1.491 . S
C969 C968 1.400 . S
C969 C970 1.398 . S
C970 H958 0.950 . S
C970 C969 1.398 . S
C970 C971 1.391 . S
C971 H959 0.950 . S
C971 C967 1.393 . S
C971 C970 1.391 . S
C261 C53 1.371 . S
C267 C9 1.350 . S
C281 C65 1.335 . S
C287 C25 1.368 . S
C301 C37 1.346 . S
C307 C79 1.345 . S
C321 C39 1.295 . S
C327 C81 1.296 . S
C341 C11 1.302 . S
C347 C51 1.284 . S
C361 C67 1.303 . S
C367 C23 1.280 . S
C381 C137 1.252 . S
C387 C95 1.253 . S
C401 C109 1.273 . S
C407 C149 1.244 . S
C421 C123 1.270 . S
C427 C163 1.244 . S
C441 C165 1.405 . S
C447 C121 1.370 . S
C461 C135 1.377 . S
C467 C93 1.376 . S
C481 C151 1.417 . S
C487 C107 1.397 . S
C501 C177 1.353 . S
C507 C221 1.375 . S
C521 C193 1.393 . S
C527 C233 1.370 . S
C541 C205 1.342 . S
C547 C247 1.344 . S
C561 C249 1.299 . S
C567 C207 1.295 1_554 S
C581 C219 1.291 . S
C587 C179 1.309 . S
C601 C235 1.313 . S
C607 C191 1.283 1_554 S
C621 C0 1.251 . S
C627 C98 1.248 . S
C641 C19 1.293 . S
C647 C112 1.286 . S
C661 C84 1.239 . S
C667 C28 1.251 . S
C681 C33 1.307 . S
C687 C187 1.295 . S
C701 C196 1.260 . S
C707 C5 1.251 . S
C721 C168 1.207 1_554 S
C727 C14 1.217 . S
C741 C229 1.303 . S
C747 C47 1.299 . S
C761 C56 1.255 . S
C767 C243 1.267 . S
C781 C210 1.221 . S
C787 C70 1.207 . S
C801 C140 1.224 . S
C807 C75 1.237 . S
C821 C42 1.189 . S
C827 C154 1.176 1_556 S
C841 C61 1.266 . S
C847 C131 1.275 1_556 S
C861 C89 1.225 1_545 S
C867 C182 1.235 . S
C881 C103 1.258 . S
C887 C201 1.274 1_455 S
C901 C117 1.272 . S
C907 C173 1.256 . S
C921 C224 1.253 1_455 S
C927 C159 1.279 . S
C941 C238 1.251 . S
C947 C126 1.239 . S
C961 C145 1.323 1_545 S
C967 C215 1.320 . S
