# Generated by pormake.
# Topology bcs, (6)-cn, num edge types: 1
# Building blocks:
#     Node 0, Type 0, BuildingBlock: FUNLAD_clean_sbu_0, # of connection points: 6
#     Node 1, Type 0, BuildingBlock: FUNLAD_clean_sbu_0, # of connection points: 6
#     Node 2, Type 0, BuildingBlock: FUNLAD_clean_sbu_0, # of connection points: 6
#     Node 3, Type 0, BuildingBlock: FUNLAD_clean_sbu_0, # of connection points: 6
#     Node 4, Type 0, BuildingBlock: FUNLAD_clean_sbu_0, # of connection points: 6
#     Node 5, Type 0, BuildingBlock: FUNLAD_clean_sbu_0, # of connection points: 6
#     Node 6, Type 0, BuildingBlock: FUNLAD_clean_sbu_0, # of connection points: 6
#     Node 7, Type 0, BuildingBlock: FUNLAD_clean_sbu_0, # of connection points: 6
#     Node 8, Type 0, BuildingBlock: FUNLAD_clean_sbu_0, # of connection points: 6
#     Node 9, Type 0, BuildingBlock: FUNLAD_clean_sbu_0, # of connection points: 6
#     Node 10, Type 0, BuildingBlock: FUNLAD_clean_sbu_0, # of connection points: 6
#     Node 11, Type 0, BuildingBlock: FUNLAD_clean_sbu_0, # of connection points: 6
#     Node 12, Type 0, BuildingBlock: FUNLAD_clean_sbu_0, # of connection points: 6
#     Node 13, Type 0, BuildingBlock: FUNLAD_clean_sbu_0, # of connection points: 6
#     Node 14, Type 0, BuildingBlock: FUNLAD_clean_sbu_0, # of connection points: 6
#     Node 15, Type 0, BuildingBlock: FUNLAD_clean_sbu_0, # of connection points: 6
#     Edge 16, Type (0, 0), BuildingBlock: OJICUG_clean_linker_0, # of connection points: 2
#     Edge 17, Type (0, 0), BuildingBlock: OJICUG_clean_linker_0, # of connection points: 2
#     Edge 18, Type (0, 0), BuildingBlock: OJICUG_clean_linker_0, # of connection points: 2
#     Edge 19, Type (0, 0), BuildingBlock: OJICUG_clean_linker_0, # of connection points: 2
#     Edge 20, Type (0, 0), BuildingBlock: OJICUG_clean_linker_0, # of connection points: 2
#     Edge 21, Type (0, 0), BuildingBlock: OJICUG_clean_linker_0, # of connection points: 2
#     Edge 22, Type (0, 0), BuildingBlock: OJICUG_clean_linker_0, # of connection points: 2
#     Edge 23, Type (0, 0), BuildingBlock: OJICUG_clean_linker_0, # of connection points: 2
#     Edge 24, Type (0, 0), BuildingBlock: OJICUG_clean_linker_0, # of connection points: 2
#     Edge 25, Type (0, 0), BuildingBlock: OJICUG_clean_linker_0, # of connection points: 2
#     Edge 26, Type (0, 0), BuildingBlock: OJICUG_clean_linker_0, # of connection points: 2
#     Edge 27, Type (0, 0), BuildingBlock: OJICUG_clean_linker_0, # of connection points: 2
#     Edge 28, Type (0, 0), BuildingBlock: OJICUG_clean_linker_0, # of connection points: 2
#     Edge 29, Type (0, 0), BuildingBlock: OJICUG_clean_linker_0, # of connection points: 2
#     Edge 30, Type (0, 0), BuildingBlock: OJICUG_clean_linker_0, # of connection points: 2
#     Edge 31, Type (0, 0), BuildingBlock: OJICUG_clean_linker_0, # of connection points: 2
#     Edge 32, Type (0, 0), BuildingBlock: OJICUG_clean_linker_0, # of connection points: 2
#     Edge 33, Type (0, 0), BuildingBlock: OJICUG_clean_linker_0, # of connection points: 2
#     Edge 34, Type (0, 0), BuildingBlock: OJICUG_clean_linker_0, # of connection points: 2
#     Edge 35, Type (0, 0), BuildingBlock: OJICUG_clean_linker_0, # of connection points: 2
#     Edge 36, Type (0, 0), BuildingBlock: OJICUG_clean_linker_0, # of connection points: 2
#     Edge 37, Type (0, 0), BuildingBlock: OJICUG_clean_linker_0, # of connection points: 2
#     Edge 38, Type (0, 0), BuildingBlock: OJICUG_clean_linker_0, # of connection points: 2
#     Edge 39, Type (0, 0), BuildingBlock: OJICUG_clean_linker_0, # of connection points: 2
#     Edge 40, Type (0, 0), BuildingBlock: OJICUG_clean_linker_0, # of connection points: 2
#     Edge 41, Type (0, 0), BuildingBlock: OJICUG_clean_linker_0, # of connection points: 2
#     Edge 42, Type (0, 0), BuildingBlock: OJICUG_clean_linker_0, # of connection points: 2
#     Edge 43, Type (0, 0), BuildingBlock: OJICUG_clean_linker_0, # of connection points: 2
#     Edge 44, Type (0, 0), BuildingBlock: OJICUG_clean_linker_0, # of connection points: 2
#     Edge 45, Type (0, 0), BuildingBlock: OJICUG_clean_linker_0, # of connection points: 2
#     Edge 46, Type (0, 0), BuildingBlock: OJICUG_clean_linker_0, # of connection points: 2
#     Edge 47, Type (0, 0), BuildingBlock: OJICUG_clean_linker_0, # of connection points: 2
#     Edge 48, Type (0, 0), BuildingBlock: OJICUG_clean_linker_0, # of connection points: 2
#     Edge 49, Type (0, 0), BuildingBlock: OJICUG_clean_linker_0, # of connection points: 2
#     Edge 50, Type (0, 0), BuildingBlock: OJICUG_clean_linker_0, # of connection points: 2
#     Edge 51, Type (0, 0), BuildingBlock: OJICUG_clean_linker_0, # of connection points: 2
#     Edge 52, Type (0, 0), BuildingBlock: OJICUG_clean_linker_0, # of connection points: 2
#     Edge 53, Type (0, 0), BuildingBlock: OJICUG_clean_linker_0, # of connection points: 2
#     Edge 54, Type (0, 0), BuildingBlock: OJICUG_clean_linker_0, # of connection points: 2
#     Edge 55, Type (0, 0), BuildingBlock: OJICUG_clean_linker_0, # of connection points: 2
#     Edge 56, Type (0, 0), BuildingBlock: OJICUG_clean_linker_0, # of connection points: 2
#     Edge 57, Type (0, 0), BuildingBlock: OJICUG_clean_linker_0, # of connection points: 2
#     Edge 58, Type (0, 0), BuildingBlock: OJICUG_clean_linker_0, # of connection points: 2
#     Edge 59, Type (0, 0), BuildingBlock: OJICUG_clean_linker_0, # of connection points: 2
#     Edge 60, Type (0, 0), BuildingBlock: OJICUG_clean_linker_0, # of connection points: 2
#     Edge 61, Type (0, 0), BuildingBlock: OJICUG_clean_linker_0, # of connection points: 2
#     Edge 62, Type (0, 0), BuildingBlock: OJICUG_clean_linker_0, # of connection points: 2
#     Edge 63, Type (0, 0), BuildingBlock: OJICUG_clean_linker_0, # of connection points: 2
# Relax obj value: 0.656
# Max RMSD: 0.317
# Mean RMSD: 0.250
data_MOF--net-bcs--node1-FUNLAD_clean_sbu_0--edge1-OJICUG_clean_linker_0
_symmetry_space_group_name_H-M    P1
_symmetry_Int_Tables_number       1
_symmetry_cell_setting            triclinic
loop_
_symmetry_equiv_pos_as_xyz
'x, y, z'
_cell_length_a     29.458407
_cell_length_b     29.120643
_cell_length_c     29.380681
_cell_angle_alpha  74.602907
_cell_angle_beta   74.75629
_cell_angle_gamma 69.065045
loop_
_atom_site_label
_atom_site_type_symbol
_atom_site_fract_x
_atom_site_fract_y
_atom_site_fract_z
_atom_type_partial_charge
C0 C 0.95383 0.06189 0.07273 0.0
N1 N 0.9256 0.94359 0.04366 0.0
C2 C 0.89298 0.94556 0.0859 0.0
C3 C 0.84954 0.93448 0.09142 0.0
C4 C 0.83992 0.92089 0.05319 0.0
C5 C 0.87375 0.92003 1.00977 0.0
C6 C 0.91661 0.93173 1.00571 0.0
Zn7 Zn 0.98392 0.96796 0.03227 0.0
C8 C 0.97671 0.047 0.9385 0.0
N9 N 0.09673 0.03244 1.00109 0.0
C10 C 0.10466 0.04534 0.039 0.0
C11 C 0.12986 0.03032 0.95918 0.0
C12 C 0.17246 0.04293 0.95375 0.0
C13 C 0.18055 0.05824 0.99172 0.0
C14 C 0.14656 0.05862 0.03501 0.0
Zn15 Zn 0.0386 0.00792 1.01217 0.0
O16 O 0.94044 0.02552 0.0712 0.0
C17 C 0.04598 0.92898 0.10581 0.0
O18 O 0.99545 0.06532 0.04927 0.0
H19 H 0.12298 0.01936 0.92986 0.0
H20 H 0.90077 0.95558 0.1153 0.0
H21 H 0.07835 0.04557 0.07249 0.0
O22 O 0.00997 0.92016 0.09716 0.0
O23 O 0.06276 0.96243 0.07667 0.0
H24 H 0.94263 0.93148 0.97203 0.0
O25 O 0.08254 0.94978 0.97438 0.0
O26 O 0.02675 0.91102 0.99438 0.0
O27 O 0.01337 0.05494 0.94679 0.0
O28 O 0.95914 0.01428 0.96807 0.0
C29 C 0.06901 0.91373 0.97225 0.0
H30 H 0.82512 0.93382 0.12619 0.0
H31 H 0.86793 0.90866 0.98006 0.0
H32 H 0.19715 0.04377 0.91914 0.0
H33 H 0.15128 0.07123 0.06451 0.0
C34 C 0.17973 0.8087 0.23555 0.0
N35 N 0.27898 0.67956 0.19014 0.0
C36 C 0.23548 0.67264 0.19058 0.0
C37 C 0.2298 0.65474 0.1538 0.0
C38 C 0.26882 0.64415 0.11526 0.0
C39 C 0.3139 0.65064 0.11514 0.0
C40 C 0.31823 0.66863 0.15342 0.0
Zn41 Zn 0.27331 0.71686 0.24373 0.0
C42 C 0.32583 0.80025 0.20658 0.0
N43 N 0.24681 0.80212 0.3525 0.0
C44 C 0.20706 0.8142 0.3885 0.0
C45 C 0.29043 0.80852 0.35249 0.0
C46 C 0.29576 0.82693 0.38909 0.0
C47 C 0.2562 0.83873 0.42692 0.0
C48 C 0.21099 0.83285 0.42651 0.0
Zn49 Zn 0.25269 0.76464 0.29904 0.0
O50 O 0.20924 0.77046 0.21882 0.0
C51 C 0.2002 0.6813 0.3362 0.0
O52 O 0.1881 0.81894 0.27164 0.0
H53 H 0.32237 0.79733 0.32505 0.0
H54 H 0.20379 0.68319 0.21844 0.0
H55 H 0.17293 0.80805 0.38856 0.0
O56 O 0.22497 0.6721 0.29499 0.0
O57 O 0.20444 0.71804 0.34938 0.0
H58 H 0.35221 0.6753 0.15293 0.0
O59 O 0.31671 0.71088 0.32408 0.0
O60 O 0.33798 0.66256 0.27108 0.0
O61 O 0.30119 0.80934 0.24787 0.0
O62 O 0.32146 0.7636 0.19334 0.0
C63 C 0.34625 0.67267 0.3073 0.0
H64 H 0.19448 0.65034 0.15489 0.0
H65 H 0.34483 0.64271 0.08571 0.0
H66 H 0.33116 0.83093 0.38838 0.0
H67 H 0.17963 0.84176 0.45537 0.0
C68 C 0.55787 0.9164 0.59063 0.0
N69 N 0.58409 0.04955 0.51614 0.0
C70 C 0.58989 0.04868 0.56087 0.0
C71 C 0.62749 0.06355 0.56695 0.0
C72 C 0.65952 0.08029 0.52675 0.0
C73 C 0.65166 0.08344 0.48072 0.0
C74 C 0.61369 0.06718 0.47619 0.0
Zn75 Zn 0.53493 0.01365 0.51533 0.0
C76 C 0.57538 0.94207 0.45102 0.0
N77 N 0.43779 0.92801 0.53048 0.0
C78 C 0.40733 0.91129 0.5702 0.0
C79 C 0.43252 0.92869 0.48561 0.0
C80 C 0.39459 0.91465 0.47911 0.0
C81 C 0.3616 0.89905 0.51902 0.0
C82 C 0.36892 0.89597 0.56524 0.0
Zn83 Zn 0.48699 0.96372 0.5315 0.0
O84 O 0.56817 0.95564 0.56637 0.0
C85 C 0.4466 0.03494 0.59601 0.0
O86 O 0.52202 0.90615 0.58362 0.0
H87 H 0.45643 0.94241 0.45431 0.0
H88 H 0.56652 0.03442 0.59235 0.0
H89 H 0.41163 0.91151 0.60559 0.0
O90 O 0.48389 0.04825 0.57134 0.0
O91 O 0.43709 -0.00033 0.58649 0.0
H92 H 0.60895 0.06718 0.44091 0.0
O93 O 0.45384 0.02182 0.48008 0.0
O94 O 0.49991 0.07127 0.46355 0.0
O95 O 0.53819 0.92877 0.47595 0.0
O96 O 0.58469 0.97774 0.46006 0.0
C97 C 0.46418 0.06116 0.45615 0.0
H98 H 0.63189 0.0614 0.60301 0.0
H99 H 0.67554 0.0966 0.44889 0.0
H100 H 0.39057 0.91674 0.44292 0.0
H101 H 0.34424 0.8837 0.59684 0.0
C102 C 0.20661 0.32167 0.8129 0.0
N103 N 0.36003 0.25315 0.78639 0.0
C104 C 0.36439 0.29913 0.78198 0.0
C105 C 0.39876 0.30418 0.80368 0.0
C106 C 0.42793 0.26157 0.83046 0.0
C107 C 0.42603 0.21429 0.83041 0.0
C108 C 0.39187 0.21088 0.80757 0.0
Zn109 Zn 0.29723 0.24596 0.77674 0.0
C110 C 0.25823 0.18272 0.86207 0.0
N111 N 0.16722 0.22593 0.75888 0.0
C112 C 0.13513 0.26838 0.73825 0.0
C113 C 0.16254 0.18007 0.7634 0.0
C114 C 0.12735 0.17536 0.74253 0.0
C115 C 0.09764 0.2182 0.71647 0.0
C116 C 0.10008 0.26532 0.71633 0.0
Zn117 Zn 0.23018 0.233 0.7684 0.0
O118 O 0.25334 0.30991 0.80747 0.0
C119 C 0.26916 0.29632 0.68311 0.0
O120 O 0.18801 0.29588 0.79895 0.0
H121 H 0.18867 0.1469 0.77963 0.0
H122 H 0.33845 0.33216 0.76532 0.0
H123 H 0.13959 0.3045 0.73477 0.0
O124 O 0.3011 0.28998 0.70793 0.0
O125 O 0.23447 0.27728 0.7 0.0
H126 H 0.38766 0.17468 0.81092 0.0
O127 O 0.27406 0.16917 0.73752 0.0
O128 O 0.33944 0.18297 0.74627 0.0
O129 O 0.22638 0.18888 0.8372 0.0
O130 O 0.29283 0.20186 0.84519 0.0
C131 C 0.3208 0.15733 0.73213 0.0
H132 H 0.39914 0.34131 0.80345 0.0
H133 H 0.44806 0.18077 0.85082 0.0
H134 H 0.12661 0.13834 0.7429 0.0
H135 H 0.07767 0.29903 0.69649 0.0
C136 C 0.92939 0.05196 0.48275 0.0
N137 N 0.99388 0.89661 0.51181 0.0
C138 C 0.94787 0.89397 0.51546 0.0
C139 C 0.94162 0.86075 0.49277 0.0
C140 C 0.98309 0.83095 0.46582 0.0
C141 C 0.03035 0.8308 0.46679 0.0
C142 C 0.03497 0.86381 0.49067 0.0
Zn143 Zn 1.00262 0.95944 0.52131 0.0
C144 C 0.06717 -0.00304 0.43638 0.0
N145 N 0.02438 0.09049 0.53778 0.0
C146 C 0.98311 0.12368 0.55821 0.0
C147 C 0.07023 0.0939 0.53334 0.0
C148 C 0.07613 0.12875 0.55421 0.0
C149 C 0.03448 0.1594 0.58022 0.0
C150 C 0.98738 0.15838 0.58023 0.0
Zn151 Zn 0.01592 0.02742 0.52865 0.0
O152 O 0.94075 0.00465 0.48908 0.0
C153 C 0.95135 -0.00993 0.61348 0.0
O154 O 0.95471 0.07108 0.49662 0.0
H155 H 0.10245 0.06691 0.51727 0.0
H156 H 0.91578 0.92067 0.53209 0.0
H157 H 0.94697 0.12027 0.5615 0.0
O158 O 0.95774 0.95718 0.58936 0.0
O159 O 0.97099 0.02455 0.59638 0.0
H160 H 0.07123 0.86663 0.488 0.0
O161 O 0.07798 0.98196 0.56101 0.0
O162 O 0.06366 0.91576 0.55327 0.0
O163 O 0.06072 0.02983 0.46053 0.0
O164 O 0.04764 0.9624 0.45351 0.0
C165 C 0.0891 0.93463 0.56728 0.0
H166 H 0.90456 0.8619 0.49234 0.0
H167 H 0.06301 0.80821 0.44629 0.0
H168 H 0.1131 0.12838 0.55396 0.0
H169 H 0.95459 0.18156 0.60004 0.0
C170 C 0.31245 0.67577 0.84146 0.0
N171 N 0.32161 0.81717 0.76358 0.0
C172 C 0.32158 0.82202 0.80841 0.0
C173 C 0.33555 0.86032 0.8149 0.0
C174 C 0.35043 0.89413 0.775 0.0
C175 C 0.35273 0.88726 0.72879 0.0
C176 C 0.33748 0.84846 0.72386 0.0
Zn177 Zn 0.28738 0.76648 0.76264 0.0
C178 C 0.3346 0.69661 0.70201 0.0
N179 N 0.20562 0.66542 0.77805 0.0
C180 C 0.18933 0.63447 0.81783 0.0
C181 C 0.20584 0.66035 0.73324 0.0
C182 C 0.19165 0.62214 0.72684 0.0
C183 C 0.17627 0.58872 0.76682 0.0
C184 C 0.17381 0.59582 0.81299 0.0
Zn185 Zn 0.23986 0.71612 0.779 0.0
O186 O 0.32401 0.71442 0.8169 0.0
C187 C 0.1926 0.7859 0.83969 0.0
O188 O 0.2775 0.66544 0.83287 0.0
H189 H 0.21896 0.68485 0.7019 0.0
H190 H 0.30871 0.79732 0.83971 0.0
H191 H 0.18978 0.63872 0.85316 0.0
O192 O 0.23053 0.79786 0.81527 0.0
O193 O 0.18341 0.74938 0.83209 0.0
H194 H 0.33685 0.84439 0.68852 0.0
O195 O 0.20337 0.76811 0.72454 0.0
O196 O 0.24967 0.81725 0.70893 0.0
O197 O 0.29672 0.68466 0.72658 0.0
O198 O 0.34378 0.73324 0.70939 0.0
C199 C 0.21488 0.80685 0.70013 0.0
H200 H 0.33416 0.86387 0.85108 0.0
H201 H 0.36446 0.9125 0.69718 0.0
H202 H 0.19318 0.61842 0.69069 0.0
H203 H 0.16166 0.57089 0.84467 0.0
C204 C 0.44517 0.07469 0.05612 0.0
N205 N 0.57272 0.97504 0.10301 0.0
C206 C 0.57849 0.01949 0.10286 0.0
C207 C 0.59636 0.02536 0.1395 0.0
C208 C 0.60836 0.98547 0.1775 0.0
C209 C 0.60304 0.93943 0.1773 0.0
C210 C 0.58485 0.935 0.13928 0.0
Zn211 Zn 0.53634 0.98042 0.04899 0.0
C212 C 0.45396 0.92723 0.08527 0.0
N213 N 0.45318 0.00678 0.93904 0.0
C214 C 0.4393 0.04771 0.90408 0.0
C215 C 0.44801 0.96232 0.93837 0.0
C216 C 0.42904 0.9573 0.90209 0.0
C217 C 0.41511 -0.00182 0.86543 0.0
C218 C 0.41982 0.04421 0.86653 0.0
Zn219 Zn 0.4899 0.00086 0.99284 0.0
O220 O 0.48289 0.04516 0.07329 0.0
C221 C 0.57215 0.05417 0.95654 0.0
O222 O 0.43568 0.06608 0.01976 0.0
H223 H 0.46011 0.92966 0.96531 0.0
H224 H 0.56736 0.05166 0.07516 0.0
H225 H 0.44425 0.08261 0.90466 0.0
O226 O 0.58074 0.02934 0.99807 0.0
O227 O 0.53611 0.04979 0.94289 0.0
H228 H 0.57924 0.9002 0.13948 0.0
O229 O 0.54358 0.93614 0.96832 0.0
O230 O 0.59047 0.91493 0.02222 0.0
O231 O 0.44564 0.95172 0.04356 0.0
O232 O 0.48985 0.93181 0.09904 0.0
C233 C 0.58114 0.90642 0.9857 0.0
H234 H 0.59999 0.06138 0.13856 0.0
H235 H 0.6122 0.90775 0.20625 0.0
H236 H 0.42579 0.9213 0.90235 0.0
H237 H 0.4091 0.07661 0.83867 0.0
C238 C 0.20592 0.27607 0.35421 0.0
N239 N 0.22208 0.15373 0.29254 0.0
C240 C 0.22363 0.1213 0.33524 0.0
C241 C 0.21038 0.0784 0.34216 0.0
C242 C 0.19487 0.06932 0.3049 0.0
C243 C 0.1954 0.10238 0.26066 0.0
C244 C 0.20942 0.1446 0.25516 0.0
Zn245 Zn 0.24562 0.21316 0.2806 0.0
C246 C 0.19138 0.29863 0.22008 0.0
N247 N 0.30733 0.32903 0.24912 0.0
C248 C 0.31924 0.33868 0.28667 0.0
C249 C 0.30573 0.36137 0.20637 0.0
C250 C 0.31774 0.40495 0.19972 0.0
C251 C 0.33196 0.41493 0.23733 0.0
C252 C 0.3319 0.38166 0.28147 0.0
Zn253 Zn 0.28391 0.2695 0.26109 0.0
O254 O 0.19859 0.23891 0.34552 0.0
C255 C 0.33809 0.18396 0.32161 0.0
O256 O 0.23816 0.29428 0.32509 0.0
H257 H 0.29566 0.35308 0.17731 0.0
H258 H 0.23433 0.12917 0.36415 0.0
H259 H 0.31921 0.31286 0.32075 0.0
O260 O 0.30297 0.16969 0.31912 0.0
O261 O 0.34047 0.22681 0.2992 0.0
H262 H 0.20957 0.17042 0.22108 0.0
O263 O 0.33118 0.24346 0.19628 0.0
O264 O 0.29104 0.18858 0.21651 0.0
O265 O 0.22664 0.31289 0.22222 0.0
O266 O 0.18891 0.25593 0.24285 0.0
C267 C 0.32351 0.20653 0.18749 0.0
H268 H 0.20897 0.0545 0.37741 0.0
H269 H 0.18274 0.09691 0.23163 0.0
H270 H 0.31891 0.42891 0.16449 0.0
H271 H 0.3436 0.38779 0.31079 0.0
C272 C 0.43758 0.54782 0.97502 0.0
N273 N 0.49807 0.39177 1.0092 0.0
C274 C 0.4519 0.38965 1.01269 0.0
C275 C 0.44564 0.35448 0.99251 0.0
C276 C 0.4873 0.32214 0.96822 0.0
C277 C 0.53453 0.32185 0.96944 0.0
C278 C 0.53913 0.35698 0.99065 0.0
Zn279 Zn 0.50822 0.45483 1.0163 0.0
C280 C 0.57525 0.48783 0.93112 0.0
N281 N 0.53451 0.58491 0.02922 0.0
C282 C 0.49377 0.61919 0.04889 0.0
C283 C 0.5809 0.58621 0.02624 0.0
C284 C 0.58772 0.61952 0.04841 0.0
C285 C 0.5464 0.65081 0.07409 0.0
C286 C 0.49893 0.65238 0.07218 0.0
Zn287 Zn 0.52399 0.52215 0.02176 0.0
O288 O 0.4473 0.50056 0.98258 0.0
C289 C 0.457 0.48897 0.10704 0.0
O290 O 0.46378 0.56626 0.98848 0.0
H291 H 0.61268 0.55836 1.01078 0.0
H292 H 0.41987 0.41788 0.02729 0.0
H293 H 0.4572 0.61738 0.05111 0.0
O294 O 0.46245 0.4556 0.08387 0.0
O295 O 0.47822 0.52217 0.08927 0.0
H296 H 0.57553 0.35942 0.98798 0.0
O297 O 0.5849 0.47658 0.05522 0.0
O298 O 0.56841 0.41079 0.04972 0.0
O299 O 0.5697 0.52135 0.95417 0.0
O300 O 0.55407 0.45461 0.94895 0.0
C301 C 0.5947 0.42935 0.06289 0.0
H302 H 0.40859 0.35586 0.99179 0.0
H303 H 0.56734 0.29737 0.95095 0.0
H304 H 0.62492 0.61727 0.04959 0.0
H305 H 0.46639 0.67612 0.09172 0.0
C306 C 0.80753 0.17584 0.34582 0.0
N307 N 0.82347 0.31344 0.26363 0.0
C308 C 0.82199 0.31965 0.30839 0.0
C309 C 0.83723 0.35727 0.31448 0.0
C310 C 0.8549 0.38898 0.2743 0.0
C311 C 0.85855 0.38073 0.22827 0.0
C312 C 0.84195 0.3427 0.2237 0.0
Zn313 Zn 0.78744 0.26405 0.26316 0.0
C314 C 0.83444 0.19036 0.2066 0.0
N315 N 0.702 0.16599 0.28044 0.0
C316 C 0.68404 0.13622 0.32025 0.0
C317 C 0.70317 0.16022 0.2356 0.0
C318 C 0.6882 0.12253 0.22928 0.0
C319 C 0.67117 0.09024 0.26931 0.0
C320 C 0.66776 0.09805 0.31545 0.0
Zn321 Zn 0.738 0.21539 0.281 0.0
O322 O 0.82079 0.21314 0.32003 0.0
C323 C 0.69102 0.28918 0.33745 0.0
O324 O 0.77258 0.1657 0.33703 0.0
H325 H 0.71783 0.18356 0.2042 0.0
H326 H 0.807 0.29665 0.33987 0.0
H327 H 0.68383 0.14091 0.35563 0.0
O328 O 0.72989 0.29915 0.31295 0.0
O329 O 0.68104 0.25222 0.33178 0.0
H330 H 0.84242 0.33764 0.18839 0.0
O331 O 0.70444 0.26648 0.22438 0.0
O332 O 0.75291 0.31369 0.20705 0.0
O333 O 0.79553 0.18037 0.23096 0.0
O334 O 0.84445 0.22717 0.21253 0.0
C335 C 0.71769 0.30376 0.19853 0.0
H336 H 0.83464 0.36194 0.35056 0.0
H337 H 0.87243 0.40436 0.19645 0.0
H338 H 0.69061 0.11819 0.19312 0.0
H339 H 0.65441 0.07394 0.34716 0.0
C340 C 0.94457 0.5738 0.55678 0.0
N341 N 0.07305 0.47503 0.60361 0.0
C342 C 0.07704 0.51995 0.60454 0.0
C343 C 0.09563 0.52547 0.64084 0.0
C344 C 0.11056 0.48458 0.67716 0.0
C345 C 0.10718 0.43805 0.67572 0.0
C346 C 0.08789 0.4341 0.63825 0.0
Zn347 Zn 0.03678 0.4802 0.54971 0.0
C348 C 0.95534 0.42595 0.58571 0.0
N349 N 0.95474 0.50469 0.43928 0.0
C350 C 0.94151 0.54485 0.40343 0.0
C351 C 0.95017 0.45978 0.43914 0.0
C352 C 0.93258 0.45349 0.40253 0.0
C353 C 0.91942 0.49353 0.36494 0.0
C354 C 0.9234 0.54006 0.36552 0.0
Zn355 Zn 0.99066 0.50004 0.4934 0.0
O356 O 0.98227 0.54453 0.57416 0.0
C357 C 0.07223 0.5542 0.4574 0.0
O358 O 0.93566 0.56513 0.52012 0.0
H359 H 0.96193 0.42763 0.46666 0.0
H360 H 0.06438 0.55253 0.57773 0.0
H361 H 0.94608 0.58007 0.40351 0.0
O362 O 0.08049 0.52989 0.49916 0.0
O363 O 0.03661 0.54923 0.44351 0.0
H364 H 0.08393 0.39881 0.63743 0.0
O365 O 0.04495 0.43569 0.46914 0.0
O366 O 0.09184 0.41535 0.52285 0.0
O367 O 0.94683 0.45057 0.5441 0.0
O368 O 0.9911 0.43073 0.5995 0.0
C369 C 0.08278 0.40657 0.48635 0.0
H370 H 0.09797 0.56181 0.64077 0.0
H371 H 0.11874 0.40561 0.70328 0.0
H372 H 0.92986 0.41714 0.40325 0.0
H373 H 0.91328 0.57186 0.33694 0.0
C374 C 0.70313 0.81971 0.31501 0.0
N375 N 0.85744 0.76198 0.28132 0.0
C376 C 0.85794 0.80912 0.27874 0.0
C377 C 0.89137 0.81629 0.30014 0.0
C378 C 0.92367 0.7745 0.32466 0.0
C379 C 0.92575 0.72641 0.32243 0.0
C380 C 0.89232 0.72095 0.30005 0.0
Zn381 Zn 0.79606 0.74985 0.274 0.0
C382 C 0.76503 0.68119 0.35949 0.0
N383 N 0.66948 0.71941 0.2611 0.0
C384 C 0.63478 0.76046 0.24212 0.0
C385 C 0.66912 0.67228 0.26343 0.0
C386 C 0.63615 0.66514 0.24142 0.0
C387 C 0.6042 0.70694 0.21657 0.0
C388 C 0.60186 0.75502 0.21909 0.0
Zn389 Zn 0.73081 0.73153 0.26851 0.0
O390 O 0.74963 0.81116 0.30734 0.0
C391 C 0.76188 0.8001 0.18297 0.0
O392 O 0.68591 0.79226 0.30167 0.0
H393 H 0.69729 0.64027 0.27831 0.0
H394 H 0.82964 0.84112 0.26404 0.0
H395 H 0.63588 0.79763 0.24025 0.0
O396 O 0.79443 0.79593 0.2062 0.0
O397 O 0.72997 0.77754 0.20082 0.0
H398 H 0.89113 0.68377 0.30212 0.0
O399 O 0.77717 0.67021 0.23527 0.0
O400 O 0.84095 0.68911 0.24079 0.0
O401 O 0.73243 0.68548 0.33627 0.0
O402 O 0.79697 0.70374 0.34168 0.0
C403 C 0.82368 0.66162 0.22757 0.0
H404 H 0.88869 0.85398 0.30158 0.0
H405 H 0.95027 0.69348 0.34105 0.0
H406 H 0.639 0.62746 0.23975 0.0
H407 H 0.5776 0.78796 0.2002 0.0
C408 C 0.68108 0.31046 0.73586 0.0
N409 N 0.77721 0.18056 0.68923 0.0
C410 C 0.73273 0.17587 0.68949 0.0
C411 C 0.72611 0.158 0.65317 0.0
C412 C 0.76528 0.1449 0.61537 0.0
C413 C 0.81127 0.14933 0.61535 0.0
C414 C 0.81648 0.16752 0.65307 0.0
Zn415 Zn 0.77332 0.21671 0.7431 0.0
C416 C 0.82752 0.29861 0.7065 0.0
N417 N 0.75058 0.29951 0.85304 0.0
C418 C 0.71171 0.31173 0.88977 0.0
C419 C 0.79503 0.30451 0.85242 0.0
C420 C 0.80204 0.32181 0.88892 0.0
C421 C 0.76333 0.33397 0.92733 0.0
C422 C 0.71734 0.32927 0.92772 0.0
Zn423 Zn 0.75419 0.26353 0.79907 0.0
O424 O 0.70977 0.27214 0.71878 0.0
C425 C 0.69999 0.18156 0.83567 0.0
O426 O 0.6899 0.3196 0.77233 0.0
H427 H 0.82634 0.2931 0.82447 0.0
H428 H 0.7012 0.18776 0.71709 0.0
H429 H 0.67691 0.30663 0.89041 0.0
O430 O 0.72409 0.17285 0.79412 0.0
O431 O 0.70518 0.21757 0.84929 0.0
H432 H 0.85134 0.17231 0.65277 0.0
O433 O 0.81775 0.20824 0.82327 0.0
O434 O 0.83753 0.16063 0.7699 0.0
O435 O 0.8033 0.30744 0.74797 0.0
O436 O 0.82243 0.26252 0.69293 0.0
C437 C 0.84641 0.16989 0.80626 0.0
H438 H 0.69015 0.15507 0.65427 0.0
H439 H 0.84237 0.13935 0.58653 0.0
H440 H 0.838 0.32491 0.88753 0.0
H441 H 0.68659 0.33847 0.95704 0.0
C442 C 0.68763 0.79509 0.72213 0.0
N443 N 0.8022 0.82825 0.75073 0.0
C444 C 0.79983 0.86159 0.70862 0.0
C445 C 0.81115 0.90537 0.70307 0.0
C446 C 0.82532 0.91451 0.74119 0.0
C447 C 0.82558 0.88042 0.78479 0.0
C448 C 0.81382 0.83723 0.78881 0.0
Zn449 Zn 0.78048 0.76782 0.7618 0.0
C450 C 0.70294 0.77281 0.85576 0.0
N451 N 0.72196 0.64976 0.79337 0.0
C452 C 0.71084 0.64015 0.75535 0.0
C453 C 0.72423 0.61678 0.8357 0.0
C454 C 0.71357 0.5726 0.84145 0.0
C455 C 0.7002 0.56261 0.8033 0.0
C456 C 0.69977 0.5965 0.75955 0.0
Zn457 Zn 0.74363 0.71029 0.78206 0.0
O458 O 0.72237 0.81033 0.72394 0.0
C459 C 0.82123 0.70541 0.68807 0.0
O460 O 0.68639 0.75192 0.74458 0.0
H461 H 0.73379 0.62502 0.8651 0.0
H462 H 0.78982 0.85386 0.67919 0.0
H463 H 0.71033 0.66649 0.72158 0.0
O464 O 0.82778 0.7432 0.69637 0.0
O465 O 0.7897 0.68653 0.71764 0.0
H466 H 0.81435 0.81067 0.82243 0.0
O467 O 0.80159 0.66791 0.82037 0.0
O468 O 0.83791 0.72607 0.79885 0.0
O469 O 0.69598 0.7353 0.84734 0.0
O470 O 0.73478 0.79132 0.82633 0.0
C471 C 0.8365 0.68312 0.82179 0.0
H472 H 0.81198 0.93009 0.66824 0.0
H473 H 0.83715 0.88595 0.81449 0.0
H474 H 0.71279 0.54812 0.87641 0.0
H475 H 0.68879 0.59037 0.7298 0.0
C476 C 0.45778 0.56746 0.57053 0.0
N477 N 0.42931 0.44873 0.54257 0.0
C478 C 0.39656 0.4507 0.58473 0.0
C479 C 0.35409 0.43768 0.59072 0.0
C480 C 0.34574 0.42209 0.55307 0.0
C481 C 0.37927 0.42196 0.50948 0.0
C482 C 0.42105 0.43568 0.50492 0.0
Zn483 Zn 0.48756 0.47319 0.53092 0.0
C484 C 0.47989 0.55199 0.43722 0.0
N485 N 0.60096 0.53714 0.49858 0.0
C486 C 0.61019 0.54899 0.53641 0.0
C487 C 0.63339 0.53517 0.45624 0.0
C488 C 0.67687 0.54629 0.45046 0.0
C489 C 0.68673 0.55986 0.48857 0.0
C490 C 0.6531 0.56068 0.53212 0.0
Zn491 Zn 0.5425 0.51288 0.51043 0.0
O492 O 0.44401 0.53147 0.56867 0.0
C493 C 0.55008 0.43391 0.60423 0.0
O494 O 0.50007 0.56996 0.54823 0.0
H495 H 0.62543 0.52514 0.42695 0.0
H496 H 0.4037 0.46179 0.61383 0.0
H497 H 0.58431 0.54924 0.57019 0.0
O498 O 0.5132 0.42614 0.5962 0.0
O499 O 0.56764 0.46658 0.57453 0.0
H500 H 0.44706 0.43555 0.47124 0.0
O501 O 0.58558 0.45518 0.47159 0.0
O502 O 0.53031 0.41567 0.49387 0.0
O503 O 0.51612 0.56062 0.44563 0.0
O504 O 0.46303 0.51866 0.46651 0.0
C505 C 0.57196 0.41889 0.47028 0.0
H506 H 0.32975 0.43668 0.62554 0.0
H507 H 0.37434 0.40918 0.4802 0.0
H508 H 0.70114 0.54696 0.41561 0.0
H509 H 0.65911 0.57199 0.56176 0.0
C510 C 0.0635 0.42033 0.0867 0.0
N511 N 0.08768 0.55425 1.01168 0.0
C512 C 0.09283 0.55407 0.05646 0.0
C513 C 0.13039 0.56883 0.06273 0.0
C514 C 0.16316 0.58457 0.02269 0.0
C515 C 0.15598 0.58709 0.97656 0.0
C516 C 0.11791 0.57111 0.97183 0.0
Zn517 Zn 0.03924 0.51741 1.01118 0.0
C518 C 0.08021 0.4459 0.94721 0.0
N519 N 0.9435 0.42973 0.02775 0.0
C520 C 0.91406 0.41188 0.06772 0.0
C521 C 0.93797 0.43019 0.98303 0.0
C522 C 0.9008 0.41467 0.97697 0.0
C523 C 0.86894 0.39769 1.01717 0.0
C524 C 0.87651 0.39499 0.0632 0.0
Zn525 Zn 0.99194 0.46669 0.02824 0.0
O526 O 0.07324 0.45988 0.06249 0.0
C527 C 0.95102 0.53849 0.0921 0.0
O528 O 0.02783 0.40967 0.07986 0.0
H529 H 0.96111 0.44472 0.95153 0.0
H530 H 0.06919 0.54014 0.08788 0.0
H531 H 0.91857 0.41224 0.10299 0.0
O532 O 0.98787 0.55213 0.06673 0.0
O533 O 0.942 0.50239 0.08357 0.0
H534 H 0.11375 0.57044 0.93653 0.0
O535 O 0.95783 0.52413 0.97739 0.0
O536 O 1.00335 0.57435 0.95913 0.0
O537 O 0.04319 0.43231 0.97222 0.0
O538 O 0.08937 0.48164 0.95623 0.0
C539 C 0.96752 0.56354 0.95277 0.0
H540 H 0.13439 0.56706 0.09884 0.0
H541 H 0.18054 0.59939 0.94487 0.0
H542 H 0.89654 0.41657 0.94092 0.0
H543 H 0.85271 0.38171 0.09503 0.0
C544 C 0.28175 0.10169 0.91582 0.0
C545 C 0.25493 0.15263 0.90989 0.0
H546 H 0.27887 0.02828 0.95141 0.0
C547 C 0.21505 0.17091 0.94528 0.0
H548 H 0.31313 0.08767 0.88873 0.0
C549 C 0.1962 0.13735 0.98166 0.0
C550 C 0.21619 0.08594 0.98075 0.0
H551 H 0.19454 0.21051 0.94112 0.0
H552 H 0.16096 0.15208 1.00431 0.0
C553 C 0.26243 0.06796 0.95178 0.0
C554 C 0.09386 0.92196 0.16796 0.0
C555 C 0.0716 0.89934 0.14677 0.0
H556 H 0.14419 0.91136 0.21407 0.0
C557 C 0.08042 0.84737 0.1603 0.0
H558 H 0.08791 0.96198 0.15812 0.0
C559 C 0.11367 0.81835 0.19135 0.0
C560 C 0.13772 0.84073 0.21076 0.0
H561 H 0.06434 0.82875 0.14434 0.0
H562 H 0.12209 0.77799 0.19878 0.0
C563 C 0.12598 0.89308 0.20016 0.0
C564 C 0.31989 0.83669 0.522 0.0
C565 C 0.32036 0.8865 0.51049 0.0
H566 H 0.29698 0.78226 0.50451 0.0
C567 C 0.28827 0.92219 0.48096 0.0
H568 H 0.34462 0.80846 0.54433 0.0
C569 C 0.2607 0.90736 0.4587 0.0
C570 C 0.26483 0.85661 0.46556 0.0
H571 H 0.28814 0.96082 0.47148 0.0
H572 H 0.24064 0.93471 0.43211 0.0
C573 C 0.29243 0.82178 0.49942 0.0
C574 C 0.4045 0.11383 0.6908 0.0
C575 C 0.35374 0.11894 0.70389 0.0
H576 H 0.47332 0.08369 0.64597 0.0
C577 C 0.33467 0.09154 0.68505 0.0
H578 H 0.42058 0.13392 0.70504 0.0
C579 C 0.36535 0.06212 0.65133 0.0
C580 C 0.41515 0.06049 0.63555 0.0
H581 H 0.29577 0.09443 0.69481 0.0
H582 H 0.34958 0.04269 0.63595 0.0
C583 C 0.43474 0.08531 0.65668 0.0
C584 C 0.13221 0.85001 0.60908 0.0
C585 C 0.1272 0.90136 0.59552 0.0
H586 H 0.16356 0.78017 0.65309 0.0
C587 C 0.15521 0.92066 0.61318 0.0
H588 H 0.11156 0.83377 0.5958 0.0
C589 C 0.18559 0.88952 0.64591 0.0
C590 C 0.18766 0.83898 0.66186 0.0
H591 H 0.15234 0.96004 0.60305 0.0
H592 H 0.20567 0.90544 0.66027 0.0
C593 C 0.1618 0.81927 0.64217 0.0
C594 C 0.41232 0.93686 0.77002 0.0
C595 C 0.36336 0.93553 0.78354 0.0
H596 H 0.46738 0.95994 0.78543 0.0
C597 C 0.32933 0.96665 0.81477 0.0
H598 H 0.43929 0.91294 0.74629 0.0
C599 C 0.34522 -0.00624 0.83672 0.0
C600 C 0.39538 -0.00968 0.82772 0.0
H601 H 0.29135 0.96618 0.82577 0.0
H602 H 0.31937 0.01267 0.86468 0.0
C603 C 0.4283 0.96394 0.79223 0.0
C604 C 0.36104 0.12652 0.09226 0.0
C605 C 0.41254 0.11661 0.08108 0.0
H606 H 0.29258 0.16249 0.13524 0.0
C607 C 0.43362 0.14189 0.10052 0.0
H608 H 0.34378 0.10726 0.07837 0.0
C609 C 0.40423 0.17452 0.13216 0.0
C610 C 0.35323 0.18141 0.14626 0.0
H611 H 0.47332 0.13481 0.09269 0.0
H612 H 0.42191 0.19159 0.14807 0.0
C613 C 0.33183 0.15798 0.12503 0.0
C614 C 0.0813 0.03849 0.35243 0.0
C615 C 0.09811 -0.00106 0.38916 0.0
H616 H 0.1019 0.09078 0.29177 0.0
C617 C 0.14816 0.9708 0.38469 0.0
H618 H 0.04242 0.06004 0.3555 0.0
C619 C 0.18244 0.98829 0.34818 0.0
C620 C 0.16605 0.03435 0.31743 0.0
H621 H 0.16114 0.93985 0.41296 0.0
H622 H 0.22148 0.97082 0.34919 0.0
C623 C 0.11544 0.05564 0.31571 0.0
C624 C 0.84889 0.12275 0.1633 0.0
C625 C 0.86546 0.1594 0.17082 0.0
H626 H 0.86334 0.06402 0.12616 0.0
C627 C 0.91049 0.16572 0.1438 0.0
H628 H 0.81407 0.11711 0.18309 0.0
C629 C 0.93902 0.13482 0.11068 0.0
C630 C 0.92264 0.0975 0.10421 0.0
H631 H 0.92388 0.19392 0.14865 0.0
H632 H 0.97418 0.13956 0.09087 0.0
C633 C 0.87706 0.09228 0.13039 0.0
C634 C 0.11328 0.59679 0.3752 0.0
C635 C 0.10393 0.58784 0.42609 0.0
H636 H 0.15071 0.63079 0.30804 0.0
C637 C 0.12642 0.61103 0.44683 0.0
H638 H 0.09734 0.58009 0.35709 0.0
C639 C 0.15609 0.64182 0.41837 0.0
C640 C 0.16649 0.6497 0.36751 0.0
H641 H 0.12064 0.60579 0.48558 0.0
H642 H 0.17186 0.65869 0.43648 0.0
C643 C 0.14438 0.62612 0.34678 0.0
C644 C 0.58604 0.83675 0.64974 0.0
C645 C 0.58773 0.88518 0.62718 0.0
H646 H 0.61686 0.76962 0.6981 0.0
C647 C 0.61976 0.90451 0.63889 0.0
H648 H 0.56145 0.82117 0.64155 0.0
C649 C 0.65092 0.87558 0.67087 0.0
C650 C 0.6509 0.82652 0.69206 0.0
H651 H 0.62149 0.94204 0.62282 0.0
H652 H 0.67572 0.89152 0.67822 0.0
C653 C 0.6176 0.80747 0.68204 0.0
C654 C 0.45034 0.26636 0.94885 0.0
C655 C 0.48097 0.29699 0.93406 0.0
H656 H 0.41069 0.22977 0.92672 0.0
C657 C 0.49983 0.30996 0.88487 0.0
H658 H 0.43533 0.25617 0.9866 0.0
C659 C 0.48505 0.29584 0.85067 0.0
C660 C 0.45219 0.26759 0.86538 0.0
H661 H 0.52314 0.33407 0.87271 0.0
H662 H 0.49733 0.30892 0.81283 0.0
C663 C 0.4365 0.25123 0.91468 0.0
C664 C 0.93428 0.76127 0.40872 0.0
C665 C 0.94727 0.78122 0.35977 0.0
H666 H 0.93537 0.76188 0.48131 0.0
C667 C 0.97717 0.81253 0.34596 0.0
H668 H 0.91071 0.73745 0.42011 0.0
C669 C 0.99205 0.82553 0.38086 0.0
C670 C 0.97618 0.80833 0.42993 0.0
H671 H 0.98731 0.82842 0.30842 0.0
H672 H 0.01327 0.85161 0.36962 0.0
C673 C 0.94815 0.77524 0.44365 0.0
C674 C 0.44317 0.63889 0.61052 0.0
C675 C 0.42565 0.60427 0.60039 0.0
H676 H 0.42784 0.69589 0.65116 0.0
C677 C 0.37748 0.60305 0.62122 0.0
H678 H 0.48028 0.64062 0.59469 0.0
C679 C 0.34799 0.6342 0.65311 0.0
C680 C 0.36592 0.66736 0.66508 0.0
H681 H 0.36272 0.57724 0.61371 0.0
H682 H 0.31123 0.63146 0.66902 0.0
C683 C 0.41336 0.6704 0.64275 0.0
C684 C 0.61228 0.09787 0.87445 0.0
C685 C 0.60382 0.08789 0.92533 0.0
H686 H 0.64894 0.13278 0.80733 0.0
C687 C 0.62704 0.11026 0.94616 0.0
H688 H 0.59571 0.08188 0.85625 0.0
C689 C 0.65662 0.14119 0.9178 0.0
C690 C 0.66616 0.15006 0.86692 0.0
H691 H 0.62193 0.10425 0.98492 0.0
H692 H 0.67302 0.15735 0.93599 0.0
C693 C 0.64327 0.12734 0.84608 0.0
C694 C 0.08946 0.34202 0.14788 0.0
C695 C 0.09373 0.38902 0.12295 0.0
H696 H 0.11734 0.27608 0.1988 0.0
C697 C 0.12811 0.40689 0.13251 0.0
H698 H 0.06304 0.32757 0.1414 0.0
C699 C 0.15863 0.37796 0.16511 0.0
C700 C 0.15566 0.33037 0.189 0.0
H701 H 0.13201 0.44326 0.11443 0.0
H702 H 0.1852 0.39272 0.17089 0.0
C703 C 0.12036 0.31277 0.18073 0.0
C704 C 0.59047 0.52472 0.84595 0.0
C705 C 0.60709 0.48756 0.88439 0.0
H706 H 0.61051 0.57685 0.78487 0.0
C707 C 0.65752 0.46176 0.88206 0.0
H708 H 0.55133 0.54444 0.84734 0.0
C709 C 0.69168 0.47995 0.84606 0.0
C710 C 0.67462 0.5249 0.81415 0.0
H711 H 0.67035 0.43281 0.91174 0.0
H712 H 0.73044 0.46473 0.84881 0.0
C713 C 0.62455 0.54287 0.80996 0.0
C714 C 0.66491 0.31508 0.14069 0.0
C715 C 0.69166 0.33491 0.15919 0.0
H716 H 0.61439 0.32909 0.09475 0.0
C717 C 0.69117 0.38482 0.14133 0.0
H718 H 0.66546 0.27639 0.15311 0.0
C719 C 0.66136 0.41543 0.10796 0.0
C720 C 0.63232 0.39618 0.09164 0.0
H721 H 0.71195 0.40079 0.15475 0.0
H722 H 0.65967 0.45447 0.09637 0.0
C723 C 0.63585 0.34527 0.10701 0.0
C724 C 0.93497 0.45502 0.29389 0.0
C725 C 0.90123 0.48432 0.32685 0.0
H726 H 0.94626 0.40206 0.24993 0.0
C727 C 0.8507 0.49035 0.3332 0.0
H728 H 0.97427 0.44898 0.28922 0.0
C729 C 0.8348 0.46333 0.31112 0.0
C730 C 0.86918 0.4297 0.28242 0.0
H731 H 0.82411 0.51144 0.35928 0.0
H732 H 0.79617 0.46508 0.32016 0.0
C733 C 0.919 0.42804 0.27155 0.0
C734 C 0.76961 0.56588 0.44741 0.0
C735 C 0.72473 0.58476 0.47791 0.0
H736 H 0.81865 0.58501 0.38271 0.0
C737 C 0.70785 0.63575 0.48062 0.0
H738 H 0.78391 0.52639 0.44582 0.0
C739 C 0.72739 0.66894 0.44435 0.0
C740 C 0.76468 0.65052 0.40709 0.0
H741 H 0.6739 0.6511 0.50462 0.0
H742 H 0.70854 0.70881 0.44157 0.0
C743 C 0.78932 0.59919 0.41127 0.0
C744 C 0.76721 0.4028 0.9595 0.0
C745 C 0.77336 0.35167 0.96536 0.0
H746 H 0.79273 0.45764 0.97245 0.0
C747 C 0.80326 0.31707 0.99749 0.0
H748 H 0.74542 0.43006 0.93416 0.0
C749 C 0.83051 0.33285 0.01951 0.0
C750 C 0.82857 0.38335 1.00914 0.0
H751 H 0.80939 0.27732 1.00174 0.0
H752 H 0.85675 0.30502 0.04055 0.0
C753 C 0.79465 0.4185 0.98115 0.0
C754 C 0.73745 0.88168 0.13047 0.0
C755 C 0.76242 0.83038 0.13519 0.0
H756 H 0.7424 0.95444 0.09522 0.0
C757 C 0.79989 0.81171 0.09815 0.0
H758 H 0.70792 0.896 0.15883 0.0
C759 C 0.81919 0.84479 0.06151 0.0
C760 C 0.802 0.89592 0.06371 0.0
H761 H 0.81895 0.77185 0.10134 0.0
H762 H 0.85326 0.82935 0.03769 0.0
C763 C 0.75697 0.91487 0.09398 0.0
C764 C 0.89621 0.0846 0.84413 0.0
C765 C 0.8878 0.13653 0.83133 0.0
H766 H 0.93064 0.0157 0.8886 0.0
C767 C 0.91395 0.15768 0.84954 0.0
H768 H 0.87619 0.06733 0.83127 0.0
C769 C 0.94608 0.12802 0.88149 0.0
C770 C 0.95159 0.07673 0.89717 0.0
H771 H 0.90798 0.19772 0.84051 0.0
H772 H 0.96392 0.14586 0.89636 0.0
C773 C 0.9272 0.05517 0.87721 0.0
C774 C 0.72694 0.16039 0.54447 0.0
C775 C 0.75574 0.12626 0.57773 0.0
H776 H 0.67408 0.17206 0.50085 0.0
C777 C 0.7608 0.07522 0.58504 0.0
H778 H 0.72167 0.2001 0.53906 0.0
C779 C 0.73321 0.05934 0.56377 0.0
C780 C 0.70019 0.09423 0.53472 0.0
H781 H 0.78176 0.04836 0.61123 0.0
H782 H 0.73425 0.02043 0.57355 0.0
C783 C 0.69953 0.14442 0.52282 0.0
C784 C 0.58885 0.88752 0.3935 0.0
C785 C 0.60711 0.91576 0.41199 0.0
H786 H 0.60452 0.83618 0.34741 0.0
C787 C 0.65595 0.9169 0.39408 0.0
H788 H 0.55104 0.88674 0.40594 0.0
C789 C 0.68701 0.8874 0.36057 0.0
C790 C 0.66933 0.857 0.34411 0.0
H791 H 0.67072 0.93885 0.40742 0.0
H792 H 0.72517 0.88708 0.34888 0.0
C793 C 0.61949 0.85876 0.35969 0.0
C794 C 0.83419 0.09497 0.40319 0.0
C795 C 0.83302 0.1451 0.38563 0.0
H796 H 0.86602 0.02556 0.44827 0.0
C797 C 0.85844 0.16562 0.40501 0.0
H798 H 0.81435 0.07851 0.38914 0.0
C799 C 0.88706 0.13586 0.43919 0.0
C800 C 0.89152 0.08471 0.45412 0.0
H801 H 0.85725 0.2045 0.39286 0.0
H802 H 0.90763 0.15254 0.45204 0.0
C803 C 0.86361 0.0648 0.43702 0.0
C804 C 0.69224 0.01628 0.23167 0.0
C805 C 0.65757 0.04922 0.26089 0.0
H806 H 0.70352 0.9688 0.18275 0.0
C807 C 0.60798 0.05001 0.27195 0.0
H808 H 0.73068 0.01521 0.22247 0.0
C809 C 0.59246 0.0229 0.24933 0.0
C810 C 0.62642 -0.0056 0.21584 0.0
H811 H 0.58051 0.07545 0.29399 0.0
H812 H 0.55326 0.02833 0.25418 0.0
C813 C 0.67679 -0.01079 0.20925 0.0
C814 C 0.62186 0.80594 0.91022 0.0
C815 C 0.67304 0.79813 0.89685 0.0
H816 H 0.55267 0.84688 0.94858 0.0
C817 C 0.6945 0.82134 0.91827 0.0
H818 H 0.60412 0.78916 0.89406 0.0
C819 C 0.66525 0.85338 0.95055 0.0
C820 C 0.61363 0.86417 0.961 0.0
H821 H 0.73388 0.81623 0.90855 0.0
H822 H 0.68263 0.87236 0.96462 0.0
C823 C 0.59244 0.83917 0.94133 0.0
C824 C 0.93654 0.94996 0.69778 0.0
C825 C 0.91981 0.98859 0.66037 0.0
H826 H 0.91631 0.89704 0.75793 0.0
C827 C 0.86949 0.01526 0.66357 0.0
H828 H 0.97562 0.92955 0.6957 0.0
C829 C 0.83526 -0.00316 0.69927 0.0
C830 C 0.85211 0.95113 0.73028 0.0
H831 H 0.8566 0.04539 0.6347 0.0
H832 H 0.79639 0.01297 0.69708 0.0
C833 C 0.90243 0.93177 0.73363 0.0
C834 C 0.11395 0.8114 0.89926 0.0
C835 C 0.16121 0.81492 0.87677 0.0
H836 H 0.0471 0.84042 0.94773 0.0
C837 C 0.17889 0.84819 0.88888 0.0
H838 H 0.09967 0.78581 0.89077 0.0
C839 C 0.14932 0.87895 0.92111 0.0
C840 C 0.10133 0.87723 0.94212 0.0
H841 H 0.21551 0.85128 0.87285 0.0
H842 H 0.16388 0.90486 0.92873 0.0
C843 C 0.08407 0.84252 0.9318 0.0
C844 C 0.90086 0.36948 0.59605 0.0
C845 C 0.92379 0.39212 0.6169 0.0
H846 H 0.85508 0.3222 0.60621 0.0
C847 C 0.91504 0.38245 0.66778 0.0
H848 H 0.9062 0.37526 0.55729 0.0
C849 C 0.88402 0.353 0.69612 0.0
C850 C 0.8614 0.33004 0.67528 0.0
H851 H 0.93137 0.39868 0.68598 0.0
H852 H 0.87811 0.34781 0.73488 0.0
C853 C 0.87126 0.33858 0.6244 0.0
C854 C 0.43869 0.1401 0.39548 0.0
C855 C 0.43467 0.09275 0.41942 0.0
H856 H 0.41091 0.20665 0.34509 0.0
C857 C 0.40116 0.07478 0.40845 0.0
H858 H 0.46447 0.15462 0.40305 0.0
C859 C 0.3711 0.10398 0.37555 0.0
C860 C 0.37365 0.15197 0.35275 0.0
H861 H 0.39754 0.03812 0.42568 0.0
H862 H 0.34515 0.08912 0.36872 0.0
C863 C 0.40822 0.16965 0.36231 0.0
C864 C 0.58228 0.70546 0.0967 0.0
C865 C 0.55328 0.67332 0.11006 0.0
H866 H 0.61996 0.7425 0.12094 0.0
C867 C 0.53616 0.65693 0.15903 0.0
H868 H 0.59604 0.71815 0.05914 0.0
C869 C 0.55062 0.66983 0.19426 0.0
C870 C 0.58134 0.70026 0.18088 0.0
H871 H 0.51419 0.63155 0.16999 0.0
H872 H 0.53944 0.65457 0.23178 0.0
C873 C 0.59573 0.71937 0.13196 0.0
C874 C 0.08568 0.23051 0.63303 0.0
C875 C 0.07204 0.21265 0.68239 0.0
H876 H 0.08439 0.22723 0.5613 0.0
C877 C 0.04 0.18348 0.69764 0.0
H878 H 0.11081 0.25272 0.62051 0.0
C879 C 0.02419 0.16983 0.66383 0.0
C880 C 0.04121 0.18424 0.61444 0.0
H881 H 0.02921 0.16929 0.73553 0.0
H882 H 1.00167 0.14494 0.67631 0.0
C883 C 0.07081 0.21591 0.59921 0.0
C884 C 0.61493 0.31436 0.40008 0.0
C885 C 0.66005 0.32041 0.37301 0.0
H886 H 0.55123 0.34109 0.4528 0.0
C887 C 0.67673 0.35715 0.38017 0.0
H888 H 0.60145 0.28612 0.39549 0.0
C889 C 0.64862 0.38796 0.41278 0.0
C890 C 0.60298 0.38302 0.43903 0.0
H891 H 0.71161 0.36262 0.36032 0.0
H892 H 0.66245 0.41626 0.41674 0.0
C893 C 0.58645 0.34562 0.43292 0.0
C894 C 0.41301 0.88454 0.1675 0.0
C895 C 0.42212 0.89372 0.11661 0.0
H896 H 0.37577 0.85036 0.23469 0.0
C897 C 0.39934 0.87078 0.09589 0.0
H898 H 0.42917 0.90102 0.18561 0.0
C899 C 0.36966 0.84 0.12438 0.0
C900 C 0.35953 0.83187 0.17525 0.0
H901 H 0.40493 0.8762 0.05715 0.0
H902 H 0.35369 0.82333 0.10627 0.0
C903 C 0.38189 0.85522 0.19596 0.0
C904 C 0.93927 0.64221 0.89261 0.0
C905 C 0.93695 0.59435 0.91666 0.0
H906 H 0.90884 0.70841 0.84311 0.0
C907 C 0.9038 0.57513 0.90671 0.0
H908 H 0.9647 0.65771 0.89941 0.0
C909 C 0.87237 0.60359 0.87483 0.0
C910 C 0.87322 0.65206 0.852 0.0
H911 H 0.90145 0.53804 0.92403 0.0
H912 H 0.84676 0.58777 0.86881 0.0
C913 C 0.90745 0.67101 0.86042 0.0
C914 C 0.37545 0.51515 0.15754 0.0
C915 C 0.42583 0.48864 0.15415 0.0
H916 H 0.30254 0.513 0.19212 0.0
C917 C 0.44287 0.45071 0.19195 0.0
H918 H 0.36228 0.54482 0.12844 0.0
C919 C 0.40901 0.4328 0.22845 0.0
C920 C 0.35862 0.45181 0.22549 0.0
H921 H 0.48198 0.43042 0.18972 0.0
H922 H 0.4231 0.39845 0.25311 0.0
C923 C 0.34149 0.49709 0.194 0.0
C924 C 0.37095 0.56237 0.92955 0.0
C925 C 0.40002 0.58127 0.94624 0.0
H926 H 0.31973 0.57788 0.88318 0.0
C927 C 0.39636 0.63226 0.93147 0.0
H928 H 0.37278 0.52328 0.94062 0.0
C929 C 0.36687 0.663 0.89831 0.0
C930 C 0.3398 0.64366 0.87967 0.0
H931 H 0.41787 0.64818 0.94396 0.0
H932 H 0.36607 0.7018 0.88655 0.0
C933 C 0.34072 0.59352 0.89669 0.0
C934 C 0.18053 0.48867 0.70605 0.0
C935 C 0.13021 0.49286 0.7147 0.0
H936 H 0.23486 0.51565 0.71699 0.0
C937 C 0.0973 0.5201 0.7496 0.0
H938 H 0.20638 0.46905 0.67857 0.0
C939 C 0.11356 0.54711 0.77161 0.0
C940 C 0.16279 0.5476 0.75844 0.0
H941 H 0.05812 0.52467 0.7561 0.0
H942 H 0.08667 0.57158 0.79489 0.0
C943 C 0.19669 0.51581 0.72774 0.0
C944 C 0.31214 0.30874 0.59987 0.0
C945 C 0.2723 0.32673 0.63543 0.0
H946 H 0.36588 0.32804 0.54072 0.0
C947 C 0.24534 0.37764 0.62983 0.0
H948 H 0.33278 0.26919 0.60382 0.0
C949 C 0.26435 0.41159 0.59386 0.0
C950 C 0.31046 0.39391 0.56459 0.0
H951 H 0.21407 0.39147 0.65711 0.0
H952 H 0.24773 0.45124 0.59434 0.0
C953 C 0.3307 0.34254 0.56354 0.0
C954 C 0.23122 0.66224 0.0434 0.0
C955 C 0.25974 0.62701 0.07635 0.0
H956 H 0.17836 0.67592 0.99911 0.0
C957 C 0.26465 0.57619 0.08213 0.0
H958 H 0.22604 0.70179 0.0392 0.0
C959 C 0.23713 0.56153 0.05967 0.0
C960 C 0.20426 0.59745 0.03105 0.0
H961 H 0.28536 0.54849 0.10807 0.0
H962 H 0.23792 0.52271 0.06836 0.0
C963 C 0.20377 0.64751 0.02066 0.0
C964 C 0.63117 0.39586 0.6982 0.0
C965 C 0.63967 0.34391 0.71081 0.0
H966 H 0.59647 0.46493 0.65406 0.0
C967 C 0.61348 0.32286 0.69254 0.0
H968 H 0.65121 0.41307 0.7111 0.0
C969 C 0.58116 0.35265 0.66079 0.0
C970 C 0.57549 0.404 0.64534 0.0
H971 H 0.61952 0.28281 0.7014 0.0
H972 H 0.56326 0.33489 0.6459 0.0
C973 C 0.6 0.42542 0.6653 0.0
C974 C 0.90719 0.62245 0.1828 0.0
C975 C 0.85738 0.62418 0.19861 0.0
H976 H 0.97552 0.59426 0.13651 0.0
C977 C 0.83964 0.59353 0.18257 0.0
H978 H 0.9222 0.64522 0.19476 0.0
C979 C 0.87061 0.56379 0.14921 0.0
C980 C 0.91941 0.56495 0.13106 0.0
H981 H 0.80149 0.59383 0.19446 0.0
H982 H 0.85579 0.54166 0.13617 0.0
C983 C 0.93773 0.59345 0.14915 0.0
C984 C 0.85998 0.62472 0.59317 0.0
C985 C 0.91138 0.61559 0.58175 0.0
H986 H 0.79126 0.66002 0.63628 0.0
C987 C 0.93192 0.64155 0.601 0.0
H988 H 0.84313 0.6049 0.57948 0.0
C989 C 0.90211 0.67417 0.63256 0.0
C990 C 0.85125 0.68035 0.64684 0.0
H991 H 0.97153 0.63506 0.59305 0.0
H992 H 0.91942 0.69179 0.64829 0.0
C993 C 0.83038 0.65614 0.62589 0.0
C994 C 0.44557 0.63363 0.38266 0.0
C995 C 0.45415 0.5817 0.39632 0.0
H996 H 0.40417 0.70309 0.34402 0.0
C997 C 0.43165 0.55921 0.37524 0.0
H998 H 0.46182 0.65217 0.39852 0.0
C999 C 0.39961 0.58818 0.34298 0.0
C1000 C 0.38816 0.64051 0.3322 0.0
H1001 H 0.4374 0.51923 0.38518 0.0
H1002 H 0.38125 0.56999 0.32913 0.0
C1003 C 0.41238 0.66275 0.35156 0.0
C1004 C 0.19259 0.38806 0.85933 0.0
C1005 C 0.17361 0.36038 0.84075 0.0
H1006 H 0.17741 0.43768 0.90777 0.0
C1007 C 0.1228 0.36571 0.85355 0.0
H1008 H 0.23153 0.38499 0.84978 0.0
C1009 C 0.09238 0.3948 0.88715 0.0
C1010 C 0.11184 0.41995 0.90802 0.0
H1011 H 0.1068 0.34541 0.83949 0.0
H1012 H 0.05375 0.39657 0.89768 0.0
C1013 C 0.16173 0.41805 0.89253 0.0
C1014 C 0.12528 0.30671 0.41019 0.0
C1015 C 0.17601 0.30107 0.39548 0.0
H1016 H 0.05596 0.34505 0.45038 0.0
C1017 C 0.19688 0.32535 0.41634 0.0
H1018 H 0.108 0.28895 0.39459 0.0
C1019 C 0.16734 0.35639 0.44938 0.0
C1020 C 0.11602 0.365 0.46122 0.0
H1021 H 0.23592 0.32179 0.40569 0.0
H1022 H 0.18412 0.37634 0.46298 0.0
C1023 C 0.09552 0.33893 0.4421 0.0
loop_
_geom_bond_atom_site_label_1
_geom_bond_atom_site_label_2
_geom_bond_distance
_geom_bond_site_symmetry_2
_ccdc_geom_bond_type
C0 O16 1.251 . S
C0 O18 1.254 . S
N1 C2 1.333 . S
N1 C6 1.307 . S
N1 Zn7 2.020 . S
C2 N1 1.333 . S
C2 C3 1.379 . S
C2 H20 0.952 . S
C3 C2 1.379 . S
C3 C4 1.390 . S
C3 H30 0.949 . S
C4 C3 1.390 . S
C4 C5 1.357 . S
C5 C4 1.357 . S
C5 C6 1.370 . S
C5 H31 0.950 . S
C6 N1 1.307 . S
C6 C5 1.370 . S
C6 H24 0.948 . S
Zn7 N1 2.020 . S
Zn7 O16 2.039 1_565 S
Zn7 O22 2.034 1_655 S
Zn7 O26 2.025 1_654 S
Zn7 O28 2.024 1_564 S
C8 O27 1.246 . S
C8 O28 1.249 . S
N9 C10 1.307 . S
N9 C11 1.333 . S
N9 Zn15 2.020 . S
C10 N9 1.307 . S
C10 C14 1.370 . S
C10 H21 0.948 1_556 S
C11 N9 1.333 . S
C11 C12 1.379 . S
C11 H19 0.952 . S
C12 C11 1.379 . S
C12 C13 1.390 . S
C12 H32 0.949 . S
C13 C12 1.390 . S
C13 C14 1.357 . S
C14 C10 1.370 . S
C14 C13 1.357 . S
C14 H33 0.950 . S
Zn15 N9 2.020 . S
Zn15 O18 2.025 1_456 S
Zn15 O23 2.024 1_546 S
Zn15 O25 2.039 1_545 S
Zn15 O27 2.034 1_455 S
O16 C0 1.251 . S
O16 Zn7 2.039 1_545 S
C17 O22 1.246 . S
C17 O23 1.249 . S
O18 C0 1.254 . S
O18 Zn15 2.025 1_654 S
H19 C11 0.952 . S
H20 C2 0.952 . S
H21 C10 0.948 1_554 S
O22 Zn7 2.034 1_455 S
O22 C17 1.246 . S
O23 Zn15 2.024 1_564 S
O23 C17 1.249 . S
H24 C6 0.948 . S
O25 Zn15 2.039 1_565 S
O25 C29 1.251 . S
O26 Zn7 2.025 1_456 S
O26 C29 1.254 . S
O27 C8 1.246 . S
O27 Zn15 2.034 1_655 S
O28 Zn7 2.024 1_546 S
O28 C8 1.249 . S
C29 O25 1.251 . S
C29 O26 1.254 . S
H30 C3 0.949 . S
H31 C5 0.950 . S
H32 C12 0.949 . S
H33 C14 0.950 . S
C34 O50 1.251 . S
C34 O52 1.254 . S
N35 C36 1.333 . S
N35 C40 1.307 . S
N35 Zn41 2.020 . S
C36 N35 1.333 . S
C36 C37 1.379 . S
C36 H54 0.952 . S
C37 C36 1.379 . S
C37 C38 1.390 . S
C37 H64 0.949 . S
C38 C37 1.390 . S
C38 C39 1.357 . S
C39 C38 1.357 . S
C39 C40 1.370 . S
C39 H65 0.950 . S
C40 N35 1.307 . S
C40 C39 1.370 . S
C40 H58 0.948 . S
Zn41 N35 2.020 . S
Zn41 O50 2.039 . S
Zn41 O56 2.034 . S
Zn41 O60 2.025 . S
Zn41 O62 2.024 . S
C42 O61 1.246 . S
C42 O62 1.249 . S
N43 C44 1.307 . S
N43 C45 1.333 . S
N43 Zn49 2.020 . S
C44 N43 1.307 . S
C44 C48 1.370 . S
C44 H55 0.948 . S
C45 N43 1.333 . S
C45 C46 1.379 . S
C45 H53 0.952 . S
C46 C45 1.379 . S
C46 C47 1.390 . S
C46 H66 0.949 . S
C47 C46 1.390 . S
C47 C48 1.357 . S
C48 C44 1.370 . S
C48 C47 1.357 . S
C48 H67 0.950 . S
Zn49 N43 2.020 . S
Zn49 O52 2.025 . S
Zn49 O57 2.024 . S
Zn49 O59 2.039 . S
Zn49 O61 2.034 . S
O50 C34 1.251 . S
O50 Zn41 2.039 . S
C51 O56 1.246 . S
C51 O57 1.249 . S
O52 C34 1.254 . S
O52 Zn49 2.025 . S
H53 C45 0.952 . S
H54 C36 0.952 . S
H55 C44 0.948 . S
O56 Zn41 2.034 . S
O56 C51 1.246 . S
O57 Zn49 2.024 . S
O57 C51 1.249 . S
H58 C40 0.948 . S
O59 Zn49 2.039 . S
O59 C63 1.251 . S
O60 Zn41 2.025 . S
O60 C63 1.254 . S
O61 C42 1.246 . S
O61 Zn49 2.034 . S
O62 Zn41 2.024 . S
O62 C42 1.249 . S
C63 O59 1.251 . S
C63 O60 1.254 . S
H64 C37 0.949 . S
H65 C39 0.950 . S
H66 C46 0.949 . S
H67 C48 0.950 . S
C68 O84 1.251 . S
C68 O86 1.254 . S
N69 C70 1.333 . S
N69 C74 1.307 . S
N69 Zn75 2.020 . S
C70 N69 1.333 . S
C70 C71 1.379 . S
C70 H88 0.952 . S
C71 C70 1.379 . S
C71 C72 1.390 . S
C71 H98 0.949 . S
C72 C71 1.390 . S
C72 C73 1.357 . S
C73 C72 1.357 . S
C73 C74 1.370 . S
C73 H99 0.950 . S
C74 N69 1.307 . S
C74 C73 1.370 . S
C74 H92 0.948 . S
Zn75 N69 2.020 . S
Zn75 O84 2.039 1_545 S
Zn75 O90 2.034 . S
Zn75 O94 2.025 . S
Zn75 O96 2.024 1_545 S
C76 O95 1.246 . S
C76 O96 1.249 . S
N77 C78 1.307 . S
N77 C79 1.333 . S
N77 Zn83 2.020 . S
C78 N77 1.307 . S
C78 C82 1.370 . S
C78 H89 0.948 . S
C79 N77 1.333 . S
C79 C80 1.379 . S
C79 H87 0.952 . S
C80 C79 1.379 . S
C80 C81 1.390 . S
C80 H100 0.949 . S
C81 C80 1.390 . S
C81 C82 1.357 . S
C82 C78 1.370 . S
C82 C81 1.357 . S
C82 H101 0.950 . S
Zn83 N77 2.020 . S
Zn83 O86 2.025 . S
Zn83 O91 2.024 1_565 S
Zn83 O93 2.039 1_565 S
Zn83 O95 2.034 . S
O84 C68 1.251 . S
O84 Zn75 2.039 1_565 S
C85 O90 1.246 . S
C85 O91 1.249 . S
O86 C68 1.254 . S
O86 Zn83 2.025 . S
H87 C79 0.952 . S
H88 C70 0.952 . S
H89 C78 0.948 . S
O90 Zn75 2.034 . S
O90 C85 1.246 . S
O91 Zn83 2.024 1_545 S
O91 C85 1.249 . S
H92 C74 0.948 . S
O93 Zn83 2.039 1_545 S
O93 C97 1.251 . S
O94 Zn75 2.025 . S
O94 C97 1.254 . S
O95 C76 1.246 . S
O95 Zn83 2.034 . S
O96 Zn75 2.024 1_565 S
O96 C76 1.249 . S
C97 O93 1.251 . S
C97 O94 1.254 . S
H98 C71 0.949 . S
H99 C73 0.950 . S
H100 C80 0.949 . S
H101 C82 0.950 . S
C102 O118 1.251 . S
C102 O120 1.254 . S
N103 C104 1.333 . S
N103 C108 1.307 . S
N103 Zn109 2.020 . S
C104 N103 1.333 . S
C104 C105 1.379 . S
C104 H122 0.952 . S
C105 C104 1.379 . S
C105 C106 1.390 . S
C105 H132 0.949 . S
C106 C105 1.390 . S
C106 C107 1.357 . S
C107 C106 1.357 . S
C107 C108 1.370 . S
C107 H133 0.950 . S
C108 N103 1.307 . S
C108 C107 1.370 . S
C108 H126 0.948 . S
Zn109 N103 2.020 . S
Zn109 O118 2.039 . S
Zn109 O124 2.034 . S
Zn109 O128 2.025 . S
Zn109 O130 2.024 . S
C110 O129 1.246 . S
C110 O130 1.249 . S
N111 C112 1.307 . S
N111 C113 1.333 . S
N111 Zn117 2.020 . S
C112 N111 1.307 . S
C112 C116 1.370 . S
C112 H123 0.948 . S
C113 N111 1.333 . S
C113 C114 1.379 . S
C113 H121 0.952 . S
C114 C113 1.379 . S
C114 C115 1.390 . S
C114 H134 0.949 . S
C115 C114 1.390 . S
C115 C116 1.357 . S
C116 C112 1.370 . S
C116 C115 1.357 . S
C116 H135 0.950 . S
Zn117 N111 2.020 . S
Zn117 O120 2.025 . S
Zn117 O125 2.024 . S
Zn117 O127 2.039 . S
Zn117 O129 2.034 . S
O118 C102 1.251 . S
O118 Zn109 2.039 . S
C119 O124 1.246 . S
C119 O125 1.249 . S
O120 C102 1.254 . S
O120 Zn117 2.025 . S
H121 C113 0.952 . S
H122 C104 0.952 . S
H123 C112 0.948 . S
O124 Zn109 2.034 . S
O124 C119 1.246 . S
O125 Zn117 2.024 . S
O125 C119 1.249 . S
H126 C108 0.948 . S
O127 Zn117 2.039 . S
O127 C131 1.251 . S
O128 Zn109 2.025 . S
O128 C131 1.254 . S
O129 C110 1.246 . S
O129 Zn117 2.034 . S
O130 Zn109 2.024 . S
O130 C110 1.249 . S
C131 O127 1.251 . S
C131 O128 1.254 . S
H132 C105 0.949 . S
H133 C107 0.950 . S
H134 C114 0.949 . S
H135 C116 0.950 . S
C136 O152 1.251 . S
C136 O154 1.254 . S
N137 C138 1.333 . S
N137 C142 1.307 1_655 S
N137 Zn143 2.020 1_655 S
C138 N137 1.333 . S
C138 C139 1.379 . S
C138 H156 0.952 . S
C139 C138 1.379 . S
C139 C140 1.390 . S
C139 H166 0.949 . S
C140 C139 1.390 . S
C140 C141 1.357 1_655 S
C141 C140 1.357 1_455 S
C141 C142 1.370 . S
C141 H167 0.950 . S
C142 N137 1.307 1_455 S
C142 C141 1.370 . S
C142 H160 0.948 . S
Zn143 N137 2.020 1_455 S
Zn143 O152 2.039 1_465 S
Zn143 O158 2.034 1_455 S
Zn143 O162 2.025 . S
Zn143 O164 2.024 . S
C144 O163 1.246 . S
C144 O164 1.249 1_545 S
N145 C146 1.307 1_455 S
N145 C147 1.333 . S
N145 Zn151 2.020 1_455 S
C146 N145 1.307 1_655 S
C146 C150 1.370 . S
C146 H157 0.948 . S
C147 N145 1.333 . S
C147 C148 1.379 . S
C147 H155 0.952 . S
C148 C147 1.379 . S
C148 C149 1.390 . S
C148 H168 0.949 . S
C149 C148 1.390 . S
C149 C150 1.357 1_455 S
C150 C146 1.370 . S
C150 C149 1.357 1_655 S
C150 H169 0.950 . S
Zn151 N145 2.020 1_655 S
Zn151 O154 2.025 . S
Zn151 O159 2.024 . S
Zn151 O161 2.039 1_645 S
Zn151 O163 2.034 1_655 S
O152 C136 1.251 . S
O152 Zn143 2.039 1_645 S
C153 O158 1.246 . S
C153 O159 1.249 1_565 S
O154 C136 1.254 . S
O154 Zn151 2.025 . S
H155 C147 0.952 . S
H156 C138 0.952 . S
H157 C146 0.948 . S
O158 Zn143 2.034 1_655 S
O158 C153 1.246 . S
O159 Zn151 2.024 . S
O159 C153 1.249 1_545 S
H160 C142 0.948 . S
O161 Zn151 2.039 1_465 S
O161 C165 1.251 . S
O162 Zn143 2.025 . S
O162 C165 1.254 . S
O163 C144 1.246 . S
O163 Zn151 2.034 1_455 S
O164 Zn143 2.024 . S
O164 C144 1.249 1_565 S
C165 O161 1.251 . S
C165 O162 1.254 . S
H166 C139 0.949 . S
H167 C141 0.950 . S
H168 C148 0.949 . S
H169 C150 0.950 . S
C170 O186 1.251 . S
C170 O188 1.254 . S
N171 C172 1.333 . S
N171 C176 1.307 . S
N171 Zn177 2.020 . S
C172 N171 1.333 . S
C172 C173 1.379 . S
C172 H190 0.952 . S
C173 C172 1.379 . S
C173 C174 1.390 . S
C173 H200 0.949 . S
C174 C173 1.390 . S
C174 C175 1.357 . S
C175 C174 1.357 . S
C175 C176 1.370 . S
C175 H201 0.950 . S
C176 N171 1.307 . S
C176 C175 1.370 . S
C176 H194 0.948 . S
Zn177 N171 2.020 . S
Zn177 O186 2.039 . S
Zn177 O192 2.034 . S
Zn177 O196 2.025 . S
Zn177 O198 2.024 . S
C178 O197 1.246 . S
C178 O198 1.249 . S
N179 C180 1.307 . S
N179 C181 1.333 . S
N179 Zn185 2.020 . S
C180 N179 1.307 . S
C180 C184 1.370 . S
C180 H191 0.948 . S
C181 N179 1.333 . S
C181 C182 1.379 . S
C181 H189 0.952 . S
C182 C181 1.379 . S
C182 C183 1.390 . S
C182 H202 0.949 . S
C183 C182 1.390 . S
C183 C184 1.357 . S
C184 C180 1.370 . S
C184 C183 1.357 . S
C184 H203 0.950 . S
Zn185 N179 2.020 . S
Zn185 O188 2.025 . S
Zn185 O193 2.024 . S
Zn185 O195 2.039 . S
Zn185 O197 2.034 . S
O186 C170 1.251 . S
O186 Zn177 2.039 . S
C187 O192 1.246 . S
C187 O193 1.249 . S
O188 C170 1.254 . S
O188 Zn185 2.025 . S
H189 C181 0.952 . S
H190 C172 0.952 . S
H191 C180 0.948 . S
O192 Zn177 2.034 . S
O192 C187 1.246 . S
O193 Zn185 2.024 . S
O193 C187 1.249 . S
H194 C176 0.948 . S
O195 Zn185 2.039 . S
O195 C199 1.251 . S
O196 Zn177 2.025 . S
O196 C199 1.254 . S
O197 C178 1.246 . S
O197 Zn185 2.034 . S
O198 Zn177 2.024 . S
O198 C178 1.249 . S
C199 O195 1.251 . S
C199 O196 1.254 . S
H200 C173 0.949 . S
H201 C175 0.950 . S
H202 C182 0.949 . S
H203 C184 0.950 . S
C204 O220 1.251 . S
C204 O222 1.254 . S
N205 C206 1.333 . S
N205 C210 1.307 1_545 S
N205 Zn211 2.032 . S
C206 N205 1.333 . S
C206 C207 1.379 . S
C206 H224 0.952 . S
C207 C206 1.379 . S
C207 C208 1.390 . S
C207 H234 0.949 . S
C208 C207 1.390 . S
C208 C209 1.357 1_545 S
C209 C208 1.357 1_565 S
C209 C210 1.370 . S
C209 H235 0.950 . S
C210 N205 1.307 1_565 S
C210 C209 1.370 . S
C210 H228 0.948 . S
Zn211 N205 2.032 . S
Zn211 O220 2.051 . S
Zn211 O226 2.049 1_554 S
Zn211 O230 2.010 1_544 S
Zn211 O232 2.006 1_545 S
C212 O231 1.246 . S
C212 O232 1.249 . S
N213 C214 1.310 . S
N213 C215 1.327 1_545 S
N213 Zn219 2.023 . S
C214 N213 1.310 . S
C214 C218 1.370 . S
C214 H225 0.948 . S
C215 N213 1.327 1_565 S
C215 C216 1.379 . S
C215 H223 0.952 . S
C216 C215 1.379 . S
C216 C217 1.390 . S
C216 H236 0.949 . S
C217 C216 1.390 . S
C217 C218 1.357 1_565 S
C218 C214 1.370 . S
C218 C217 1.357 1_545 S
C218 H237 0.950 . S
Zn219 N213 2.023 . S
Zn219 O222 2.025 1_556 S
Zn219 O227 2.024 . S
Zn219 O229 2.039 1_545 S
Zn219 O231 2.034 1_546 S
O220 C204 1.251 . S
O220 Zn211 2.051 . S
C221 O226 1.246 . S
C221 O227 1.249 . S
O222 C204 1.254 . S
O222 Zn219 2.025 1_554 S
H223 C215 0.952 . S
H224 C206 0.952 . S
H225 C214 0.948 . S
O226 Zn211 2.049 1_556 S
O226 C221 1.246 . S
O227 Zn219 2.024 . S
O227 C221 1.249 . S
H228 C210 0.948 . S
O229 Zn219 2.039 1_565 S
O229 C233 1.251 . S
O230 Zn211 2.010 1_566 S
O230 C233 1.254 . S
O231 C212 1.246 . S
O231 Zn219 2.034 1_564 S
O232 Zn211 2.006 1_565 S
O232 C212 1.249 . S
C233 O229 1.251 . S
C233 O230 1.254 . S
H234 C207 0.949 . S
H235 C209 0.950 . S
H236 C216 0.949 . S
H237 C218 0.950 . S
C238 O254 1.251 . S
C238 O256 1.254 . S
N239 C240 1.333 . S
N239 C244 1.307 . S
N239 Zn245 2.020 . S
C240 N239 1.333 . S
C240 C241 1.379 . S
C240 H258 0.952 . S
C241 C240 1.379 . S
C241 C242 1.390 . S
C241 H268 0.949 . S
C242 C241 1.390 . S
C242 C243 1.357 . S
C243 C242 1.357 . S
C243 C244 1.370 . S
C243 H269 0.950 . S
C244 N239 1.307 . S
C244 C243 1.370 . S
C244 H262 0.948 . S
Zn245 N239 2.020 . S
Zn245 O254 2.039 . S
Zn245 O260 2.034 . S
Zn245 O264 2.025 . S
Zn245 O266 2.024 . S
C246 O265 1.246 . S
C246 O266 1.249 . S
N247 C248 1.307 . S
N247 C249 1.333 . S
N247 Zn253 2.020 . S
C248 N247 1.307 . S
C248 C252 1.370 . S
C248 H259 0.948 . S
C249 N247 1.333 . S
C249 C250 1.379 . S
C249 H257 0.952 . S
C250 C249 1.379 . S
C250 C251 1.390 . S
C250 H270 0.949 . S
C251 C250 1.390 . S
C251 C252 1.357 . S
C252 C248 1.370 . S
C252 C251 1.357 . S
C252 H271 0.950 . S
Zn253 N247 2.020 . S
Zn253 O256 2.025 . S
Zn253 O261 2.024 . S
Zn253 O263 2.039 . S
Zn253 O265 2.034 . S
O254 C238 1.251 . S
O254 Zn245 2.039 . S
C255 O260 1.246 . S
C255 O261 1.249 . S
O256 C238 1.254 . S
O256 Zn253 2.025 . S
H257 C249 0.952 . S
H258 C240 0.952 . S
H259 C248 0.948 . S
O260 Zn245 2.034 . S
O260 C255 1.246 . S
O261 Zn253 2.024 . S
O261 C255 1.249 . S
H262 C244 0.948 . S
O263 Zn253 2.039 . S
O263 C267 1.251 . S
O264 Zn245 2.025 . S
O264 C267 1.254 . S
O265 C246 1.246 . S
O265 Zn253 2.034 . S
O266 Zn245 2.024 . S
O266 C246 1.249 . S
C267 O263 1.251 . S
C267 O264 1.254 . S
H268 C241 0.949 . S
H269 C243 0.950 . S
H270 C250 0.949 . S
H271 C252 0.950 . S
C272 O288 1.251 . S
C272 O290 1.254 . S
N273 C274 1.333 . S
N273 C278 1.307 . S
N273 Zn279 2.020 . S
C274 N273 1.333 . S
C274 C275 1.379 . S
C274 H292 0.952 . S
C275 C274 1.379 . S
C275 C276 1.390 . S
C275 H302 0.949 . S
C276 C275 1.390 . S
C276 C277 1.357 . S
C277 C276 1.357 . S
C277 C278 1.370 . S
C277 H303 0.950 . S
C278 N273 1.307 . S
C278 C277 1.370 . S
C278 H296 0.948 . S
Zn279 N273 2.020 . S
Zn279 O288 2.039 . S
Zn279 O294 2.034 1_556 S
Zn279 O298 2.025 1_556 S
Zn279 O300 2.024 . S
C280 O299 1.246 . S
C280 O300 1.249 . S
N281 C282 1.307 . S
N281 C283 1.333 . S
N281 Zn287 2.020 . S
C282 N281 1.307 . S
C282 C286 1.370 . S
C282 H293 0.948 . S
C283 N281 1.333 . S
C283 C284 1.379 . S
C283 H291 0.952 . S
C284 C283 1.379 . S
C284 C285 1.390 . S
C284 H304 0.949 . S
C285 C284 1.390 . S
C285 C286 1.357 . S
C286 C282 1.370 . S
C286 C285 1.357 . S
C286 H305 0.950 . S
Zn287 N281 2.020 . S
Zn287 O290 2.025 1_554 S
Zn287 O295 2.024 . S
Zn287 O297 2.039 . S
Zn287 O299 2.034 1_554 S
O288 C272 1.251 . S
O288 Zn279 2.039 . S
C289 O294 1.246 . S
C289 O295 1.249 . S
O290 C272 1.254 . S
O290 Zn287 2.025 1_556 S
H291 C283 0.952 . S
H292 C274 0.952 . S
H293 C282 0.948 . S
O294 Zn279 2.034 1_554 S
O294 C289 1.246 . S
O295 Zn287 2.024 . S
O295 C289 1.249 . S
H296 C278 0.948 . S
O297 Zn287 2.039 . S
O297 C301 1.251 . S
O298 Zn279 2.025 1_554 S
O298 C301 1.254 . S
O299 C280 1.246 . S
O299 Zn287 2.034 1_556 S
O300 Zn279 2.024 . S
O300 C280 1.249 . S
C301 O297 1.251 . S
C301 O298 1.254 . S
H302 C275 0.949 . S
H303 C277 0.950 . S
H304 C284 0.949 . S
H305 C286 0.950 . S
C306 O322 1.251 . S
C306 O324 1.254 . S
N307 C308 1.333 . S
N307 C312 1.307 . S
N307 Zn313 2.020 . S
C308 N307 1.333 . S
C308 C309 1.379 . S
C308 H326 0.952 . S
C309 C308 1.379 . S
C309 C310 1.390 . S
C309 H336 0.949 . S
C310 C309 1.390 . S
C310 C311 1.357 . S
C311 C310 1.357 . S
C311 C312 1.370 . S
C311 H337 0.950 . S
C312 N307 1.307 . S
C312 C311 1.370 . S
C312 H330 0.948 . S
Zn313 N307 2.020 . S
Zn313 O322 2.039 . S
Zn313 O328 2.034 . S
Zn313 O332 2.025 . S
Zn313 O334 2.024 . S
C314 O333 1.246 . S
C314 O334 1.249 . S
N315 C316 1.307 . S
N315 C317 1.333 . S
N315 Zn321 2.020 . S
C316 N315 1.307 . S
C316 C320 1.370 . S
C316 H327 0.948 . S
C317 N315 1.333 . S
C317 C318 1.379 . S
C317 H325 0.952 . S
C318 C317 1.379 . S
C318 C319 1.390 . S
C318 H338 0.949 . S
C319 C318 1.390 . S
C319 C320 1.357 . S
C320 C316 1.370 . S
C320 C319 1.357 . S
C320 H339 0.950 . S
Zn321 N315 2.020 . S
Zn321 O324 2.025 . S
Zn321 O329 2.024 . S
Zn321 O331 2.039 . S
Zn321 O333 2.034 . S
O322 C306 1.251 . S
O322 Zn313 2.039 . S
C323 O328 1.246 . S
C323 O329 1.249 . S
O324 C306 1.254 . S
O324 Zn321 2.025 . S
H325 C317 0.952 . S
H326 C308 0.952 . S
H327 C316 0.948 . S
O328 Zn313 2.034 . S
O328 C323 1.246 . S
O329 Zn321 2.024 . S
O329 C323 1.249 . S
H330 C312 0.948 . S
O331 Zn321 2.039 . S
O331 C335 1.251 . S
O332 Zn313 2.025 . S
O332 C335 1.254 . S
O333 C314 1.246 . S
O333 Zn321 2.034 . S
O334 Zn313 2.024 . S
O334 C314 1.249 . S
C335 O331 1.251 . S
C335 O332 1.254 . S
H336 C309 0.949 . S
H337 C311 0.950 . S
H338 C318 0.949 . S
H339 C320 0.950 . S
C340 O356 1.251 . S
C340 O358 1.254 . S
N341 C342 1.333 . S
N341 C346 1.307 . S
N341 Zn347 2.020 . S
C342 N341 1.333 . S
C342 C343 1.379 . S
C342 H360 0.952 . S
C343 C342 1.379 . S
C343 C344 1.390 . S
C343 H370 0.949 . S
C344 C343 1.390 . S
C344 C345 1.357 . S
C345 C344 1.357 . S
C345 C346 1.370 . S
C345 H371 0.950 . S
C346 N341 1.307 . S
C346 C345 1.370 . S
C346 H364 0.948 . S
Zn347 N341 2.020 . S
Zn347 O356 2.039 1_455 S
Zn347 O362 2.034 . S
Zn347 O366 2.025 . S
Zn347 O368 2.024 . S
C348 O367 1.246 . S
C348 O368 1.249 1_655 S
N349 C350 1.307 . S
N349 C351 1.333 . S
N349 Zn355 2.020 . S
C350 N349 1.307 . S
C350 C354 1.370 . S
C350 H361 0.948 . S
C351 N349 1.333 . S
C351 C352 1.379 . S
C351 H359 0.952 . S
C352 C351 1.379 . S
C352 C353 1.390 . S
C352 H372 0.949 . S
C353 C352 1.390 . S
C353 C354 1.357 . S
C354 C350 1.370 . S
C354 C353 1.357 . S
C354 H373 0.950 . S
Zn355 N349 2.020 . S
Zn355 O358 2.025 . S
Zn355 O363 2.024 . S
Zn355 O365 2.039 1_655 S
Zn355 O367 2.034 . S
O356 C340 1.251 . S
O356 Zn347 2.039 1_655 S
C357 O362 1.246 . S
C357 O363 1.249 1_455 S
O358 C340 1.254 . S
O358 Zn355 2.025 . S
H359 C351 0.952 . S
H360 C342 0.952 . S
H361 C350 0.948 . S
O362 Zn347 2.034 . S
O362 C357 1.246 . S
O363 Zn355 2.024 . S
O363 C357 1.249 1_655 S
H364 C346 0.948 . S
O365 Zn355 2.039 1_455 S
O365 C369 1.251 . S
O366 Zn347 2.025 . S
O366 C369 1.254 . S
O367 C348 1.246 . S
O367 Zn355 2.034 . S
O368 Zn347 2.024 . S
O368 C348 1.249 1_455 S
C369 O365 1.251 . S
C369 O366 1.254 . S
H370 C343 0.949 . S
H371 C345 0.950 . S
H372 C352 0.949 . S
H373 C354 0.950 . S
C374 O390 1.251 . S
C374 O392 1.254 . S
N375 C376 1.333 . S
N375 C380 1.307 . S
N375 Zn381 2.020 . S
C376 N375 1.333 . S
C376 C377 1.379 . S
C376 H394 0.952 . S
C377 C376 1.379 . S
C377 C378 1.390 . S
C377 H404 0.949 . S
C378 C377 1.390 . S
C378 C379 1.357 . S
C379 C378 1.357 . S
C379 C380 1.370 . S
C379 H405 0.950 . S
C380 N375 1.307 . S
C380 C379 1.370 . S
C380 H398 0.948 . S
Zn381 N375 2.020 . S
Zn381 O390 2.039 . S
Zn381 O396 2.034 . S
Zn381 O400 2.025 . S
Zn381 O402 2.024 . S
C382 O401 1.246 . S
C382 O402 1.249 . S
N383 C384 1.307 . S
N383 C385 1.333 . S
N383 Zn389 2.020 . S
C384 N383 1.307 . S
C384 C388 1.370 . S
C384 H395 0.948 . S
C385 N383 1.333 . S
C385 C386 1.379 . S
C385 H393 0.952 . S
C386 C385 1.379 . S
C386 C387 1.390 . S
C386 H406 0.949 . S
C387 C386 1.390 . S
C387 C388 1.357 . S
C388 C384 1.370 . S
C388 C387 1.357 . S
C388 H407 0.950 . S
Zn389 N383 2.020 . S
Zn389 O392 2.025 . S
Zn389 O397 2.024 . S
Zn389 O399 2.039 . S
Zn389 O401 2.034 . S
O390 C374 1.251 . S
O390 Zn381 2.039 . S
C391 O396 1.246 . S
C391 O397 1.249 . S
O392 C374 1.254 . S
O392 Zn389 2.025 . S
H393 C385 0.952 . S
H394 C376 0.952 . S
H395 C384 0.948 . S
O396 Zn381 2.034 . S
O396 C391 1.246 . S
O397 Zn389 2.024 . S
O397 C391 1.249 . S
H398 C380 0.948 . S
O399 Zn389 2.039 . S
O399 C403 1.251 . S
O400 Zn381 2.025 . S
O400 C403 1.254 . S
O401 C382 1.246 . S
O401 Zn389 2.034 . S
O402 Zn381 2.024 . S
O402 C382 1.249 . S
C403 O399 1.251 . S
C403 O400 1.254 . S
H404 C377 0.949 . S
H405 C379 0.950 . S
H406 C386 0.949 . S
H407 C388 0.950 . S
C408 O424 1.251 . S
C408 O426 1.254 . S
N409 C410 1.333 . S
N409 C414 1.307 . S
N409 Zn415 2.020 . S
C410 N409 1.333 . S
C410 C411 1.379 . S
C410 H428 0.952 . S
C411 C410 1.379 . S
C411 C412 1.390 . S
C411 H438 0.949 . S
C412 C411 1.390 . S
C412 C413 1.357 . S
C413 C412 1.357 . S
C413 C414 1.370 . S
C413 H439 0.950 . S
C414 N409 1.307 . S
C414 C413 1.370 . S
C414 H432 0.948 . S
Zn415 N409 2.020 . S
Zn415 O424 2.039 . S
Zn415 O430 2.034 . S
Zn415 O434 2.025 . S
Zn415 O436 2.024 . S
C416 O435 1.246 . S
C416 O436 1.249 . S
N417 C418 1.307 . S
N417 C419 1.333 . S
N417 Zn423 2.020 . S
C418 N417 1.307 . S
C418 C422 1.370 . S
C418 H429 0.948 . S
C419 N417 1.333 . S
C419 C420 1.379 . S
C419 H427 0.952 . S
C420 C419 1.379 . S
C420 C421 1.390 . S
C420 H440 0.949 . S
C421 C420 1.390 . S
C421 C422 1.357 . S
C422 C418 1.370 . S
C422 C421 1.357 . S
C422 H441 0.950 . S
Zn423 N417 2.020 . S
Zn423 O426 2.025 . S
Zn423 O431 2.024 . S
Zn423 O433 2.039 . S
Zn423 O435 2.034 . S
O424 C408 1.251 . S
O424 Zn415 2.039 . S
C425 O430 1.246 . S
C425 O431 1.249 . S
O426 C408 1.254 . S
O426 Zn423 2.025 . S
H427 C419 0.952 . S
H428 C410 0.952 . S
H429 C418 0.948 . S
O430 Zn415 2.034 . S
O430 C425 1.246 . S
O431 Zn423 2.024 . S
O431 C425 1.249 . S
H432 C414 0.948 . S
O433 Zn423 2.039 . S
O433 C437 1.251 . S
O434 Zn415 2.025 . S
O434 C437 1.254 . S
O435 C416 1.246 . S
O435 Zn423 2.034 . S
O436 Zn415 2.024 . S
O436 C416 1.249 . S
C437 O433 1.251 . S
C437 O434 1.254 . S
H438 C411 0.949 . S
H439 C413 0.950 . S
H440 C420 0.949 . S
H441 C422 0.950 . S
C442 O458 1.251 . S
C442 O460 1.254 . S
N443 C444 1.333 . S
N443 C448 1.307 . S
N443 Zn449 2.020 . S
C444 N443 1.333 . S
C444 C445 1.379 . S
C444 H462 0.952 . S
C445 C444 1.379 . S
C445 C446 1.390 . S
C445 H472 0.949 . S
C446 C445 1.390 . S
C446 C447 1.357 . S
C447 C446 1.357 . S
C447 C448 1.370 . S
C447 H473 0.950 . S
C448 N443 1.307 . S
C448 C447 1.370 . S
C448 H466 0.948 . S
Zn449 N443 2.020 . S
Zn449 O458 2.039 . S
Zn449 O464 2.034 . S
Zn449 O468 2.025 . S
Zn449 O470 2.024 . S
C450 O469 1.246 . S
C450 O470 1.249 . S
N451 C452 1.307 . S
N451 C453 1.333 . S
N451 Zn457 2.020 . S
C452 N451 1.307 . S
C452 C456 1.370 . S
C452 H463 0.948 . S
C453 N451 1.333 . S
C453 C454 1.379 . S
C453 H461 0.952 . S
C454 C453 1.379 . S
C454 C455 1.390 . S
C454 H474 0.949 . S
C455 C454 1.390 . S
C455 C456 1.357 . S
C456 C452 1.370 . S
C456 C455 1.357 . S
C456 H475 0.950 . S
Zn457 N451 2.020 . S
Zn457 O460 2.025 . S
Zn457 O465 2.024 . S
Zn457 O467 2.039 . S
Zn457 O469 2.034 . S
O458 C442 1.251 . S
O458 Zn449 2.039 . S
C459 O464 1.246 . S
C459 O465 1.249 . S
O460 C442 1.254 . S
O460 Zn457 2.025 . S
H461 C453 0.952 . S
H462 C444 0.952 . S
H463 C452 0.948 . S
O464 Zn449 2.034 . S
O464 C459 1.246 . S
O465 Zn457 2.024 . S
O465 C459 1.249 . S
H466 C448 0.948 . S
O467 Zn457 2.039 . S
O467 C471 1.251 . S
O468 Zn449 2.025 . S
O468 C471 1.254 . S
O469 C450 1.246 . S
O469 Zn457 2.034 . S
O470 Zn449 2.024 . S
O470 C450 1.249 . S
C471 O467 1.251 . S
C471 O468 1.254 . S
H472 C445 0.949 . S
H473 C447 0.950 . S
H474 C454 0.949 . S
H475 C456 0.950 . S
C476 O492 1.251 . S
C476 O494 1.254 . S
N477 C478 1.333 . S
N477 C482 1.307 . S
N477 Zn483 2.020 . S
C478 N477 1.333 . S
C478 C479 1.379 . S
C478 H496 0.952 . S
C479 C478 1.379 . S
C479 C480 1.390 . S
C479 H506 0.949 . S
C480 C479 1.390 . S
C480 C481 1.357 . S
C481 C480 1.357 . S
C481 C482 1.370 . S
C481 H507 0.950 . S
C482 N477 1.307 . S
C482 C481 1.370 . S
C482 H500 0.948 . S
Zn483 N477 2.020 . S
Zn483 O492 2.039 . S
Zn483 O498 2.034 . S
Zn483 O502 2.025 . S
Zn483 O504 2.024 . S
C484 O503 1.246 . S
C484 O504 1.249 . S
N485 C486 1.307 . S
N485 C487 1.333 . S
N485 Zn491 2.020 . S
C486 N485 1.307 . S
C486 C490 1.370 . S
C486 H497 0.948 . S
C487 N485 1.333 . S
C487 C488 1.379 . S
C487 H495 0.952 . S
C488 C487 1.379 . S
C488 C489 1.390 . S
C488 H508 0.949 . S
C489 C488 1.390 . S
C489 C490 1.357 . S
C490 C486 1.370 . S
C490 C489 1.357 . S
C490 H509 0.950 . S
Zn491 N485 2.020 . S
Zn491 O494 2.025 . S
Zn491 O499 2.024 . S
Zn491 O501 2.039 . S
Zn491 O503 2.034 . S
O492 C476 1.251 . S
O492 Zn483 2.039 . S
C493 O498 1.246 . S
C493 O499 1.249 . S
O494 C476 1.254 . S
O494 Zn491 2.025 . S
H495 C487 0.952 . S
H496 C478 0.952 . S
H497 C486 0.948 . S
O498 Zn483 2.034 . S
O498 C493 1.246 . S
O499 Zn491 2.024 . S
O499 C493 1.249 . S
H500 C482 0.948 . S
O501 Zn491 2.039 . S
O501 C505 1.251 . S
O502 Zn483 2.025 . S
O502 C505 1.254 . S
O503 C484 1.246 . S
O503 Zn491 2.034 . S
O504 Zn483 2.024 . S
O504 C484 1.249 . S
C505 O501 1.251 . S
C505 O502 1.254 . S
H506 C479 0.949 . S
H507 C481 0.950 . S
H508 C488 0.949 . S
H509 C490 0.950 . S
C510 O526 1.251 . S
C510 O528 1.254 . S
N511 C512 1.333 . S
N511 C516 1.307 1_554 S
N511 Zn517 2.020 . S
C512 N511 1.333 . S
C512 C513 1.379 . S
C512 H530 0.952 . S
C513 C512 1.379 . S
C513 C514 1.390 . S
C513 H540 0.949 . S
C514 C513 1.390 . S
C514 C515 1.357 1_554 S
C515 C514 1.357 1_556 S
C515 C516 1.370 . S
C515 H541 0.950 . S
C516 N511 1.307 1_556 S
C516 C515 1.370 . S
C516 H534 0.948 . S
Zn517 N511 2.020 . S
Zn517 O526 2.039 . S
Zn517 O532 2.034 1_455 S
Zn517 O536 2.025 1_454 S
Zn517 O538 2.024 1_554 S
C518 O537 1.246 . S
C518 O538 1.249 . S
N519 C520 1.307 1_556 S
N519 C521 1.333 . S
N519 Zn525 2.020 1_556 S
C520 N519 1.307 1_554 S
C520 C524 1.370 . S
C520 H531 0.948 . S
C521 N519 1.333 . S
C521 C522 1.379 . S
C521 H529 0.952 . S
C522 C521 1.379 . S
C522 C523 1.390 . S
C522 H542 0.949 . S
C523 C522 1.390 . S
C523 C524 1.357 1_556 S
C524 C520 1.370 . S
C524 C523 1.357 1_554 S
C524 H543 0.950 . S
Zn525 N519 2.020 1_554 S
Zn525 O528 2.025 1_655 S
Zn525 O533 2.024 . S
Zn525 O535 2.039 1_554 S
Zn525 O537 2.034 1_654 S
O526 C510 1.251 . S
O526 Zn517 2.039 . S
C527 O532 1.246 . S
C527 O533 1.249 . S
O528 C510 1.254 . S
O528 Zn525 2.025 1_455 S
H529 C521 0.952 . S
H530 C512 0.952 . S
H531 C520 0.948 . S
O532 Zn517 2.034 1_655 S
O532 C527 1.246 . S
O533 Zn525 2.024 . S
O533 C527 1.249 . S
H534 C516 0.948 . S
O535 Zn525 2.039 1_556 S
O535 C539 1.251 . S
O536 Zn517 2.025 1_656 S
O536 C539 1.254 . S
O537 C518 1.246 . S
O537 Zn525 2.034 1_456 S
O538 Zn517 2.024 1_556 S
O538 C518 1.249 . S
C539 O535 1.251 . S
C539 O536 1.254 . S
H540 C513 0.949 . S
H541 C515 0.950 . S
H542 C522 0.949 . S
H543 C524 0.950 . S
C544 C545 1.387 . S
C544 H548 0.950 . S
C544 C553 1.390 . S
C545 C544 1.387 . S
C545 C547 1.387 . S
H546 C553 0.950 . S
C547 C545 1.387 . S
C547 C549 1.390 . S
C547 H551 0.950 . S
H548 C544 0.950 . S
C549 C547 1.390 . S
C549 C550 1.387 . S
C549 H552 0.950 . S
C550 C549 1.387 . S
C550 C553 1.387 . S
H551 C547 0.950 . S
H552 C549 0.950 . S
C553 C544 1.390 . S
C553 H546 0.950 . S
C553 C550 1.387 . S
C554 C555 1.387 . S
C554 H558 0.950 . S
C554 C563 1.390 . S
C555 C554 1.387 . S
C555 C557 1.387 . S
H556 C563 0.950 . S
C557 C555 1.387 . S
C557 C559 1.390 . S
C557 H561 0.950 . S
H558 C554 0.950 . S
C559 C557 1.390 . S
C559 C560 1.387 . S
C559 H562 0.950 . S
C560 C559 1.387 . S
C560 C563 1.387 . S
H561 C557 0.950 . S
H562 C559 0.950 . S
C563 C554 1.390 . S
C563 H556 0.950 . S
C563 C560 1.387 . S
C564 C565 1.387 . S
C564 H568 0.950 . S
C564 C573 1.390 . S
C565 C564 1.387 . S
C565 C567 1.387 . S
H566 C573 0.950 . S
C567 C565 1.387 . S
C567 C569 1.390 . S
C567 H571 0.950 . S
H568 C564 0.950 . S
C569 C567 1.390 . S
C569 C570 1.387 . S
C569 H572 0.950 . S
C570 C569 1.387 . S
C570 C573 1.387 . S
H571 C567 0.950 . S
H572 C569 0.950 . S
C573 C564 1.390 . S
C573 H566 0.950 . S
C573 C570 1.387 . S
C574 C575 1.387 . S
C574 H578 0.950 . S
C574 C583 1.390 . S
C575 C574 1.387 . S
C575 C577 1.387 . S
H576 C583 0.950 . S
C577 C575 1.387 . S
C577 C579 1.390 . S
C577 H581 0.950 . S
H578 C574 0.950 . S
C579 C577 1.390 . S
C579 C580 1.387 . S
C579 H582 0.950 . S
C580 C579 1.387 . S
C580 C583 1.387 . S
H581 C577 0.950 . S
H582 C579 0.950 . S
C583 C574 1.390 . S
C583 H576 0.950 . S
C583 C580 1.387 . S
C584 C585 1.387 . S
C584 H588 0.950 . S
C584 C593 1.390 . S
C585 C584 1.387 . S
C585 C587 1.387 . S
H586 C593 0.950 . S
C587 C585 1.387 . S
C587 C589 1.390 . S
C587 H591 0.950 . S
H588 C584 0.950 . S
C589 C587 1.390 . S
C589 C590 1.387 . S
C589 H592 0.950 . S
C590 C589 1.387 . S
C590 C593 1.387 . S
H591 C587 0.950 . S
H592 C589 0.950 . S
C593 C584 1.390 . S
C593 H586 0.950 . S
C593 C590 1.387 . S
C594 C595 1.387 . S
C594 H598 0.950 . S
C594 C603 1.390 . S
C595 C594 1.387 . S
C595 C597 1.387 . S
H596 C603 0.950 . S
C597 C595 1.387 . S
C597 C599 1.390 . S
C597 H601 0.950 . S
H598 C594 0.950 . S
C599 C597 1.390 . S
C599 C600 1.387 . S
C599 H602 0.950 . S
C600 C599 1.387 . S
C600 C603 1.387 . S
H601 C597 0.950 . S
H602 C599 0.950 . S
C603 C594 1.390 . S
C603 H596 0.950 . S
C603 C600 1.387 . S
C604 C605 1.387 . S
C604 H608 0.950 . S
C604 C613 1.390 . S
C605 C604 1.387 . S
C605 C607 1.387 . S
H606 C613 0.950 . S
C607 C605 1.387 . S
C607 C609 1.390 . S
C607 H611 0.950 . S
H608 C604 0.950 . S
C609 C607 1.390 . S
C609 C610 1.387 . S
C609 H612 0.950 . S
C610 C609 1.387 . S
C610 C613 1.387 . S
H611 C607 0.950 . S
H612 C609 0.950 . S
C613 C604 1.390 . S
C613 H606 0.950 . S
C613 C610 1.387 . S
C614 C615 1.387 . S
C614 H618 0.950 . S
C614 C623 1.390 . S
C615 C614 1.387 . S
C615 C617 1.387 . S
H616 C623 0.950 . S
C617 C615 1.387 . S
C617 C619 1.390 . S
C617 H621 0.950 1_545 S
H618 C614 0.950 . S
C619 C617 1.390 . S
C619 C620 1.387 . S
C619 H622 0.950 . S
C620 C619 1.387 . S
C620 C623 1.387 . S
H621 C617 0.950 1_565 S
H622 C619 0.950 . S
C623 C614 1.390 . S
C623 H616 0.950 . S
C623 C620 1.387 . S
C624 C625 1.387 . S
C624 H628 0.950 . S
C624 C633 1.390 . S
C625 C624 1.387 . S
C625 C627 1.387 . S
H626 C633 0.950 . S
C627 C625 1.387 . S
C627 C629 1.390 . S
C627 H631 0.950 . S
H628 C624 0.950 . S
C629 C627 1.390 . S
C629 C630 1.387 . S
C629 H632 0.950 . S
C630 C629 1.387 . S
C630 C633 1.387 . S
H631 C627 0.950 . S
H632 C629 0.950 . S
C633 C624 1.390 . S
C633 H626 0.950 . S
C633 C630 1.387 . S
C634 C635 1.387 . S
C634 H638 0.950 . S
C634 C643 1.390 . S
C635 C634 1.387 . S
C635 C637 1.387 . S
H636 C643 0.950 . S
C637 C635 1.387 . S
C637 C639 1.390 . S
C637 H641 0.950 . S
H638 C634 0.950 . S
C639 C637 1.390 . S
C639 C640 1.387 . S
C639 H642 0.950 . S
C640 C639 1.387 . S
C640 C643 1.387 . S
H641 C637 0.950 . S
H642 C639 0.950 . S
C643 C634 1.390 . S
C643 H636 0.950 . S
C643 C640 1.387 . S
C644 C645 1.387 . S
C644 H648 0.950 . S
C644 C653 1.390 . S
C645 C644 1.387 . S
C645 C647 1.387 . S
H646 C653 0.950 . S
C647 C645 1.387 . S
C647 C649 1.390 . S
C647 H651 0.950 . S
H648 C644 0.950 . S
C649 C647 1.390 . S
C649 C650 1.387 . S
C649 H652 0.950 . S
C650 C649 1.387 . S
C650 C653 1.387 . S
H651 C647 0.950 . S
H652 C649 0.950 . S
C653 C644 1.390 . S
C653 H646 0.950 . S
C653 C650 1.387 . S
C654 C655 1.387 . S
C654 H658 0.950 . S
C654 C663 1.390 . S
C655 C654 1.387 . S
C655 C657 1.387 . S
H656 C663 0.950 . S
C657 C655 1.387 . S
C657 C659 1.390 . S
C657 H661 0.950 . S
H658 C654 0.950 . S
C659 C657 1.390 . S
C659 C660 1.387 . S
C659 H662 0.950 . S
C660 C659 1.387 . S
C660 C663 1.387 . S
H661 C657 0.950 . S
H662 C659 0.950 . S
C663 C654 1.390 . S
C663 H656 0.950 . S
C663 C660 1.387 . S
C664 C665 1.387 . S
C664 H668 0.950 . S
C664 C673 1.390 . S
C665 C664 1.387 . S
C665 C667 1.387 . S
H666 C673 0.950 . S
C667 C665 1.387 . S
C667 C669 1.390 . S
C667 H671 0.950 . S
H668 C664 0.950 . S
C669 C667 1.390 . S
C669 C670 1.387 . S
C669 H672 0.950 . S
C670 C669 1.387 . S
C670 C673 1.387 . S
H671 C667 0.950 . S
H672 C669 0.950 . S
C673 C664 1.390 . S
C673 H666 0.950 . S
C673 C670 1.387 . S
C674 C675 1.387 . S
C674 H678 0.950 . S
C674 C683 1.390 . S
C675 C674 1.387 . S
C675 C677 1.387 . S
H676 C683 0.950 . S
C677 C675 1.387 . S
C677 C679 1.390 . S
C677 H681 0.950 . S
H678 C674 0.950 . S
C679 C677 1.390 . S
C679 C680 1.387 . S
C679 H682 0.950 . S
C680 C679 1.387 . S
C680 C683 1.387 . S
H681 C677 0.950 . S
H682 C679 0.950 . S
C683 C674 1.390 . S
C683 H676 0.950 . S
C683 C680 1.387 . S
C684 C685 1.387 . S
C684 H688 0.950 . S
C684 C693 1.390 . S
C685 C684 1.387 . S
C685 C687 1.387 . S
H686 C693 0.950 . S
C687 C685 1.387 . S
C687 C689 1.390 . S
C687 H691 0.950 . S
H688 C684 0.950 . S
C689 C687 1.390 . S
C689 C690 1.387 . S
C689 H692 0.950 . S
C690 C689 1.387 . S
C690 C693 1.387 . S
H691 C687 0.950 . S
H692 C689 0.950 . S
C693 C684 1.390 . S
C693 H686 0.950 . S
C693 C690 1.387 . S
C694 C695 1.387 . S
C694 H698 0.950 . S
C694 C703 1.390 . S
C695 C694 1.387 . S
C695 C697 1.387 . S
H696 C703 0.950 . S
C697 C695 1.387 . S
C697 C699 1.390 . S
C697 H701 0.950 . S
H698 C694 0.950 . S
C699 C697 1.390 . S
C699 C700 1.387 . S
C699 H702 0.950 . S
C700 C699 1.387 . S
C700 C703 1.387 . S
H701 C697 0.950 . S
H702 C699 0.950 . S
C703 C694 1.390 . S
C703 H696 0.950 . S
C703 C700 1.387 . S
C704 C705 1.387 . S
C704 H708 0.950 . S
C704 C713 1.390 . S
C705 C704 1.387 . S
C705 C707 1.387 . S
H706 C713 0.950 . S
C707 C705 1.387 . S
C707 C709 1.390 . S
C707 H711 0.950 . S
H708 C704 0.950 . S
C709 C707 1.390 . S
C709 C710 1.387 . S
C709 H712 0.950 . S
C710 C709 1.387 . S
C710 C713 1.387 . S
H711 C707 0.950 . S
H712 C709 0.950 . S
C713 C704 1.390 . S
C713 H706 0.950 . S
C713 C710 1.387 . S
C714 C715 1.387 . S
C714 H718 0.950 . S
C714 C723 1.390 . S
C715 C714 1.387 . S
C715 C717 1.387 . S
H716 C723 0.950 . S
C717 C715 1.387 . S
C717 C719 1.390 . S
C717 H721 0.950 . S
H718 C714 0.950 . S
C719 C717 1.390 . S
C719 C720 1.387 . S
C719 H722 0.950 . S
C720 C719 1.387 . S
C720 C723 1.387 . S
H721 C717 0.950 . S
H722 C719 0.950 . S
C723 C714 1.390 . S
C723 H716 0.950 . S
C723 C720 1.387 . S
C724 C725 1.387 . S
C724 H728 0.950 . S
C724 C733 1.390 . S
C725 C724 1.387 . S
C725 C727 1.387 . S
H726 C733 0.950 . S
C727 C725 1.387 . S
C727 C729 1.390 . S
C727 H731 0.950 . S
H728 C724 0.950 . S
C729 C727 1.390 . S
C729 C730 1.387 . S
C729 H732 0.950 . S
C730 C729 1.387 . S
C730 C733 1.387 . S
H731 C727 0.950 . S
H732 C729 0.950 . S
C733 C724 1.390 . S
C733 H726 0.950 . S
C733 C730 1.387 . S
C734 C735 1.387 . S
C734 H738 0.950 . S
C734 C743 1.390 . S
C735 C734 1.387 . S
C735 C737 1.387 . S
H736 C743 0.950 . S
C737 C735 1.387 . S
C737 C739 1.390 . S
C737 H741 0.950 . S
H738 C734 0.950 . S
C739 C737 1.390 . S
C739 C740 1.387 . S
C739 H742 0.950 . S
C740 C739 1.387 . S
C740 C743 1.387 . S
H741 C737 0.950 . S
H742 C739 0.950 . S
C743 C734 1.390 . S
C743 H736 0.950 . S
C743 C740 1.387 . S
C744 C745 1.387 . S
C744 H748 0.950 . S
C744 C753 1.390 . S
C745 C744 1.387 . S
C745 C747 1.387 . S
H746 C753 0.950 . S
C747 C745 1.387 . S
C747 C749 1.390 . S
C747 H751 0.950 . S
H748 C744 0.950 . S
C749 C747 1.390 . S
C749 C750 1.387 . S
C749 H752 0.950 . S
C750 C749 1.387 . S
C750 C753 1.387 . S
H751 C747 0.950 . S
H752 C749 0.950 . S
C753 C744 1.390 . S
C753 H746 0.950 . S
C753 C750 1.387 . S
C754 C755 1.387 . S
C754 H758 0.950 . S
C754 C763 1.390 . S
C755 C754 1.387 . S
C755 C757 1.387 . S
H756 C763 0.950 . S
C757 C755 1.387 . S
C757 C759 1.390 . S
C757 H761 0.950 . S
H758 C754 0.950 . S
C759 C757 1.390 . S
C759 C760 1.387 . S
C759 H762 0.950 . S
C760 C759 1.387 . S
C760 C763 1.387 . S
H761 C757 0.950 . S
H762 C759 0.950 . S
C763 C754 1.390 . S
C763 H756 0.950 . S
C763 C760 1.387 . S
C764 C765 1.387 . S
C764 H768 0.950 . S
C764 C773 1.390 . S
C765 C764 1.387 . S
C765 C767 1.387 . S
H766 C773 0.950 . S
C767 C765 1.387 . S
C767 C769 1.390 . S
C767 H771 0.950 . S
H768 C764 0.950 . S
C769 C767 1.390 . S
C769 C770 1.387 . S
C769 H772 0.950 . S
C770 C769 1.387 . S
C770 C773 1.387 . S
H771 C767 0.950 . S
H772 C769 0.950 . S
C773 C764 1.390 . S
C773 H766 0.950 . S
C773 C770 1.387 . S
C774 C775 1.387 . S
C774 H778 0.950 . S
C774 C783 1.390 . S
C775 C774 1.387 . S
C775 C777 1.387 . S
H776 C783 0.950 . S
C777 C775 1.387 . S
C777 C779 1.390 . S
C777 H781 0.950 . S
H778 C774 0.950 . S
C779 C777 1.390 . S
C779 C780 1.387 . S
C779 H782 0.950 . S
C780 C779 1.387 . S
C780 C783 1.387 . S
H781 C777 0.950 . S
H782 C779 0.950 . S
C783 C774 1.390 . S
C783 H776 0.950 . S
C783 C780 1.387 . S
C784 C785 1.387 . S
C784 H788 0.950 . S
C784 C793 1.390 . S
C785 C784 1.387 . S
C785 C787 1.387 . S
H786 C793 0.950 . S
C787 C785 1.387 . S
C787 C789 1.390 . S
C787 H791 0.950 . S
H788 C784 0.950 . S
C789 C787 1.390 . S
C789 C790 1.387 . S
C789 H792 0.950 . S
C790 C789 1.387 . S
C790 C793 1.387 . S
H791 C787 0.950 . S
H792 C789 0.950 . S
C793 C784 1.390 . S
C793 H786 0.950 . S
C793 C790 1.387 . S
C794 C795 1.387 . S
C794 H798 0.950 . S
C794 C803 1.390 . S
C795 C794 1.387 . S
C795 C797 1.387 . S
H796 C803 0.950 . S
C797 C795 1.387 . S
C797 C799 1.390 . S
C797 H801 0.950 . S
H798 C794 0.950 . S
C799 C797 1.390 . S
C799 C800 1.387 . S
C799 H802 0.950 . S
C800 C799 1.387 . S
C800 C803 1.387 . S
H801 C797 0.950 . S
H802 C799 0.950 . S
C803 C794 1.390 . S
C803 H796 0.950 . S
C803 C800 1.387 . S
C804 C805 1.387 . S
C804 H808 0.950 . S
C804 C813 1.390 . S
C805 C804 1.387 . S
C805 C807 1.387 . S
H806 C813 0.950 . S
C807 C805 1.387 . S
C807 C809 1.390 . S
C807 H811 0.950 . S
H808 C804 0.950 . S
C809 C807 1.390 . S
C809 C810 1.387 . S
C809 H812 0.950 . S
C810 C809 1.387 . S
C810 C813 1.387 . S
H811 C807 0.950 . S
H812 C809 0.950 . S
C813 C804 1.390 . S
C813 H806 0.950 . S
C813 C810 1.387 . S
C814 C815 1.387 . S
C814 H818 0.950 . S
C814 C823 1.390 . S
C815 C814 1.387 . S
C815 C817 1.387 . S
H816 C823 0.950 . S
C817 C815 1.387 . S
C817 C819 1.390 . S
C817 H821 0.950 . S
H818 C814 0.950 . S
C819 C817 1.390 . S
C819 C820 1.387 . S
C819 H822 0.950 . S
C820 C819 1.387 . S
C820 C823 1.387 . S
H821 C817 0.950 . S
H822 C819 0.950 . S
C823 C814 1.390 . S
C823 H816 0.950 . S
C823 C820 1.387 . S
C824 C825 1.387 . S
C824 H828 0.950 . S
C824 C833 1.390 . S
C825 C824 1.387 . S
C825 C827 1.387 . S
H826 C833 0.950 . S
C827 C825 1.387 . S
C827 C829 1.390 . S
C827 H831 0.950 1_565 S
H828 C824 0.950 . S
C829 C827 1.390 . S
C829 C830 1.387 . S
C829 H832 0.950 . S
C830 C829 1.387 . S
C830 C833 1.387 . S
H831 C827 0.950 1_545 S
H832 C829 0.950 . S
C833 C824 1.390 . S
C833 H826 0.950 . S
C833 C830 1.387 . S
C834 C835 1.387 . S
C834 H838 0.950 . S
C834 C843 1.390 . S
C835 C834 1.387 . S
C835 C837 1.387 . S
H836 C843 0.950 . S
C837 C835 1.387 . S
C837 C839 1.390 . S
C837 H841 0.950 . S
H838 C834 0.950 . S
C839 C837 1.390 . S
C839 C840 1.387 . S
C839 H842 0.950 . S
C840 C839 1.387 . S
C840 C843 1.387 . S
H841 C837 0.950 . S
H842 C839 0.950 . S
C843 C834 1.390 . S
C843 H836 0.950 . S
C843 C840 1.387 . S
C844 C845 1.387 . S
C844 H848 0.950 . S
C844 C853 1.390 . S
C845 C844 1.387 . S
C845 C847 1.387 . S
H846 C853 0.950 . S
C847 C845 1.387 . S
C847 C849 1.390 . S
C847 H851 0.950 . S
H848 C844 0.950 . S
C849 C847 1.390 . S
C849 C850 1.387 . S
C849 H852 0.950 . S
C850 C849 1.387 . S
C850 C853 1.387 . S
H851 C847 0.950 . S
H852 C849 0.950 . S
C853 C844 1.390 . S
C853 H846 0.950 . S
C853 C850 1.387 . S
C854 C855 1.387 . S
C854 H858 0.950 . S
C854 C863 1.390 . S
C855 C854 1.387 . S
C855 C857 1.387 . S
H856 C863 0.950 . S
C857 C855 1.387 . S
C857 C859 1.390 . S
C857 H861 0.950 . S
H858 C854 0.950 . S
C859 C857 1.390 . S
C859 C860 1.387 . S
C859 H862 0.950 . S
C860 C859 1.387 . S
C860 C863 1.387 . S
H861 C857 0.950 . S
H862 C859 0.950 . S
C863 C854 1.390 . S
C863 H856 0.950 . S
C863 C860 1.387 . S
C864 C865 1.387 . S
C864 H868 0.950 . S
C864 C873 1.390 . S
C865 C864 1.387 . S
C865 C867 1.387 . S
H866 C873 0.950 . S
C867 C865 1.387 . S
C867 C869 1.390 . S
C867 H871 0.950 . S
H868 C864 0.950 . S
C869 C867 1.390 . S
C869 C870 1.387 . S
C869 H872 0.950 . S
C870 C869 1.387 . S
C870 C873 1.387 . S
H871 C867 0.950 . S
H872 C869 0.950 . S
C873 C864 1.390 . S
C873 H866 0.950 . S
C873 C870 1.387 . S
C874 C875 1.387 . S
C874 H878 0.950 . S
C874 C883 1.390 . S
C875 C874 1.387 . S
C875 C877 1.387 . S
H876 C883 0.950 . S
C877 C875 1.387 . S
C877 C879 1.390 . S
C877 H881 0.950 . S
H878 C874 0.950 . S
C879 C877 1.390 . S
C879 C880 1.387 . S
C879 H882 0.950 . S
C880 C879 1.387 . S
C880 C883 1.387 . S
H881 C877 0.950 . S
H882 C879 0.950 . S
C883 C874 1.390 . S
C883 H876 0.950 . S
C883 C880 1.387 . S
C884 C885 1.387 . S
C884 H888 0.950 . S
C884 C893 1.390 . S
C885 C884 1.387 . S
C885 C887 1.387 . S
H886 C893 0.950 . S
C887 C885 1.387 . S
C887 C889 1.390 . S
C887 H891 0.950 . S
H888 C884 0.950 . S
C889 C887 1.390 . S
C889 C890 1.387 . S
C889 H892 0.950 . S
C890 C889 1.387 . S
C890 C893 1.387 . S
H891 C887 0.950 . S
H892 C889 0.950 . S
C893 C884 1.390 . S
C893 H886 0.950 . S
C893 C890 1.387 . S
C894 C895 1.387 . S
C894 H898 0.950 . S
C894 C903 1.390 . S
C895 C894 1.387 . S
C895 C897 1.387 . S
H896 C903 0.950 . S
C897 C895 1.387 . S
C897 C899 1.390 . S
C897 H901 0.950 . S
H898 C894 0.950 . S
C899 C897 1.390 . S
C899 C900 1.387 . S
C899 H902 0.950 . S
C900 C899 1.387 . S
C900 C903 1.387 . S
H901 C897 0.950 . S
H902 C899 0.950 . S
C903 C894 1.390 . S
C903 H896 0.950 . S
C903 C900 1.387 . S
C904 C905 1.387 . S
C904 H908 0.950 . S
C904 C913 1.390 . S
C905 C904 1.387 . S
C905 C907 1.387 . S
H906 C913 0.950 . S
C907 C905 1.387 . S
C907 C909 1.390 . S
C907 H911 0.950 . S
H908 C904 0.950 . S
C909 C907 1.390 . S
C909 C910 1.387 . S
C909 H912 0.950 . S
C910 C909 1.387 . S
C910 C913 1.387 . S
H911 C907 0.950 . S
H912 C909 0.950 . S
C913 C904 1.390 . S
C913 H906 0.950 . S
C913 C910 1.387 . S
C914 C915 1.387 . S
C914 H918 0.950 . S
C914 C923 1.390 . S
C915 C914 1.387 . S
C915 C917 1.387 . S
H916 C923 0.950 . S
C917 C915 1.387 . S
C917 C919 1.390 . S
C917 H921 0.950 . S
H918 C914 0.950 . S
C919 C917 1.390 . S
C919 C920 1.387 . S
C919 H922 0.950 . S
C920 C919 1.387 . S
C920 C923 1.387 . S
H921 C917 0.950 . S
H922 C919 0.950 . S
C923 C914 1.390 . S
C923 H916 0.950 . S
C923 C920 1.387 . S
C924 C925 1.387 . S
C924 H928 0.950 . S
C924 C933 1.390 . S
C925 C924 1.387 . S
C925 C927 1.387 . S
H926 C933 0.950 . S
C927 C925 1.387 . S
C927 C929 1.390 . S
C927 H931 0.950 . S
H928 C924 0.950 . S
C929 C927 1.390 . S
C929 C930 1.387 . S
C929 H932 0.950 . S
C930 C929 1.387 . S
C930 C933 1.387 . S
H931 C927 0.950 . S
H932 C929 0.950 . S
C933 C924 1.390 . S
C933 H926 0.950 . S
C933 C930 1.387 . S
C934 C935 1.387 . S
C934 H938 0.950 . S
C934 C943 1.390 . S
C935 C934 1.387 . S
C935 C937 1.387 . S
H936 C943 0.950 . S
C937 C935 1.387 . S
C937 C939 1.390 . S
C937 H941 0.950 . S
H938 C934 0.950 . S
C939 C937 1.390 . S
C939 C940 1.387 . S
C939 H942 0.950 . S
C940 C939 1.387 . S
C940 C943 1.387 . S
H941 C937 0.950 . S
H942 C939 0.950 . S
C943 C934 1.390 . S
C943 H936 0.950 . S
C943 C940 1.387 . S
C944 C945 1.387 . S
C944 H948 0.950 . S
C944 C953 1.390 . S
C945 C944 1.387 . S
C945 C947 1.387 . S
H946 C953 0.950 . S
C947 C945 1.387 . S
C947 C949 1.390 . S
C947 H951 0.950 . S
H948 C944 0.950 . S
C949 C947 1.390 . S
C949 C950 1.387 . S
C949 H952 0.950 . S
C950 C949 1.387 . S
C950 C953 1.387 . S
H951 C947 0.950 . S
H952 C949 0.950 . S
C953 C944 1.390 . S
C953 H946 0.950 . S
C953 C950 1.387 . S
C954 C955 1.387 . S
C954 H958 0.950 . S
C954 C963 1.390 . S
C955 C954 1.387 . S
C955 C957 1.387 . S
H956 C963 0.950 . S
C957 C955 1.387 . S
C957 C959 1.390 . S
C957 H961 0.950 . S
H958 C954 0.950 . S
C959 C957 1.390 . S
C959 C960 1.387 . S
C959 H962 0.950 . S
C960 C959 1.387 . S
C960 C963 1.387 . S
H961 C957 0.950 . S
H962 C959 0.950 . S
C963 C954 1.390 . S
C963 H956 0.950 . S
C963 C960 1.387 . S
C964 C965 1.387 . S
C964 H968 0.950 . S
C964 C973 1.390 . S
C965 C964 1.387 . S
C965 C967 1.387 . S
H966 C973 0.950 . S
C967 C965 1.387 . S
C967 C969 1.390 . S
C967 H971 0.950 . S
H968 C964 0.950 . S
C969 C967 1.390 . S
C969 C970 1.387 . S
C969 H972 0.950 . S
C970 C969 1.387 . S
C970 C973 1.387 . S
H971 C967 0.950 . S
H972 C969 0.950 . S
C973 C964 1.390 . S
C973 H966 0.950 . S
C973 C970 1.387 . S
C974 C975 1.387 . S
C974 H978 0.950 . S
C974 C983 1.390 . S
C975 C974 1.387 . S
C975 C977 1.387 . S
H976 C983 0.950 . S
C977 C975 1.387 . S
C977 C979 1.390 . S
C977 H981 0.950 . S
H978 C974 0.950 . S
C979 C977 1.390 . S
C979 C980 1.387 . S
C979 H982 0.950 . S
C980 C979 1.387 . S
C980 C983 1.387 . S
H981 C977 0.950 . S
H982 C979 0.950 . S
C983 C974 1.390 . S
C983 H976 0.950 . S
C983 C980 1.387 . S
C984 C985 1.387 . S
C984 H988 0.950 . S
C984 C993 1.390 . S
C985 C984 1.387 . S
C985 C987 1.387 . S
H986 C993 0.950 . S
C987 C985 1.387 . S
C987 C989 1.390 . S
C987 H991 0.950 . S
H988 C984 0.950 . S
C989 C987 1.390 . S
C989 C990 1.387 . S
C989 H992 0.950 . S
C990 C989 1.387 . S
C990 C993 1.387 . S
H991 C987 0.950 . S
H992 C989 0.950 . S
C993 C984 1.390 . S
C993 H986 0.950 . S
C993 C990 1.387 . S
C994 C995 1.387 . S
C994 H998 0.950 . S
C994 C1003 1.390 . S
C995 C994 1.387 . S
C995 C997 1.387 . S
H996 C1003 0.950 . S
C997 C995 1.387 . S
C997 C999 1.390 . S
C997 H1001 0.950 . S
H998 C994 0.950 . S
C999 C997 1.390 . S
C999 C1000 1.387 . S
C999 H1002 0.950 . S
C1000 C999 1.387 . S
C1000 C1003 1.387 . S
H1001 C997 0.950 . S
H1002 C999 0.950 . S
C1003 C994 1.390 . S
C1003 H996 0.950 . S
C1003 C1000 1.387 . S
C1004 C1005 1.387 . S
C1004 H1008 0.950 . S
C1004 C1013 1.390 . S
C1005 C1004 1.387 . S
C1005 C1007 1.387 . S
H1006 C1013 0.950 . S
C1007 C1005 1.387 . S
C1007 C1009 1.390 . S
C1007 H1011 0.950 . S
H1008 C1004 0.950 . S
C1009 C1007 1.390 . S
C1009 C1010 1.387 . S
C1009 H1012 0.950 . S
C1010 C1009 1.387 . S
C1010 C1013 1.387 . S
H1011 C1007 0.950 . S
H1012 C1009 0.950 . S
C1013 C1004 1.390 . S
C1013 H1006 0.950 . S
C1013 C1010 1.387 . S
C1014 C1015 1.387 . S
C1014 H1018 0.950 . S
C1014 C1023 1.390 . S
C1015 C1014 1.387 . S
C1015 C1017 1.387 . S
H1016 C1023 0.950 . S
C1017 C1015 1.387 . S
C1017 C1019 1.390 . S
C1017 H1021 0.950 . S
H1018 C1014 0.950 . S
C1019 C1017 1.390 . S
C1019 C1020 1.387 . S
C1019 H1022 0.950 . S
C1020 C1019 1.387 . S
C1020 C1023 1.387 . S
H1021 C1017 0.950 . S
H1022 C1019 0.950 . S
C1023 C1014 1.390 . S
C1023 H1016 0.950 . S
C1023 C1020 1.387 . S
C545 C110 0.707 . S
C550 C13 0.705 . S
C555 C17 1.637 . S
C560 C34 1.618 . S
C565 C81 1.250 . S
C570 C47 1.230 . S
C575 C131 1.701 . S
C580 C85 1.704 . S
C585 C165 1.725 . S
C590 C199 1.731 . S
C595 C174 1.227 . S
C600 C217 1.241 . S
C605 C204 1.593 . S
C610 C267 1.620 . S
C615 C144 0.715 . S
C620 C242 0.711 . S
C625 C314 1.591 . S
C630 C0 1.611 . S
C635 C357 2.593 . S
C640 C51 2.592 . S
C645 C68 1.590 . S
C650 C442 1.610 . S
C655 C276 1.309 . S
C660 C106 1.315 . S
C665 C378 1.303 . S
C670 C140 1.310 . S
C675 C476 1.588 . S
C680 C178 1.566 . S
C685 C221 2.577 . S
C690 C425 2.578 . S
C695 C510 1.592 . S
C700 C246 1.607 . S
C705 C280 0.695 . S
C710 C455 0.691 . S
C715 C335 1.670 . S
C720 C301 1.659 . S
C725 C353 1.238 . S
C730 C310 1.221 . S
C735 C489 0.708 . S
C740 C382 0.708 . S
C745 C421 1.230 . S
C750 C523 1.249 . S
C755 C391 0.712 . S
C760 C4 0.710 . S
C765 C437 1.644 . S
C770 C8 1.662 . S
C775 C412 1.230 . S
C780 C72 1.249 . S
C785 C76 1.673 . S
C790 C374 1.669 . S
C795 C306 1.670 . S
C800 C136 1.661 . S
C805 C319 1.221 . S
C810 C208 1.238 . S
C815 C450 1.633 . S
C820 C233 1.617 . S
C825 C153 0.697 . S
C830 C446 0.695 . S
C835 C187 1.567 . S
C840 C29 1.589 . S
C845 C348 2.577 . S
C850 C416 2.578 . S
C855 C97 1.591 . S
C860 C255 1.607 . S
C865 C285 1.308 . S
C870 C387 1.306 . S
C875 C115 1.315 . S
C880 C149 1.304 . S
C885 C323 1.592 . S
C890 C505 1.612 . S
C895 C212 2.594 . S
C900 C42 2.593 . S
C905 C539 1.589 . S
C910 C471 1.610 . S
C915 C289 0.717 . S
C920 C251 0.718 . S
C925 C272 1.726 . S
C930 C170 1.732 . S
C935 C344 1.241 . S
C940 C183 1.227 . S
C945 C119 0.709 . S
C950 C480 0.707 . S
C955 C38 1.228 . S
C960 C514 1.252 . S
C965 C408 1.645 . S
C970 C493 1.664 . S
C975 C403 1.667 . S
C980 C527 1.671 . S
C985 C340 1.616 . S
C990 C459 1.633 . S
C995 C484 1.636 . S
C1000 C63 1.617 . S
C1005 C102 1.702 . S
C1010 C518 1.704 . S
C1015 C238 1.621 . S
C1020 C369 1.594 . S
