# Generated by pormake.
# Topology irl, (4)-cn, num edge types: 1
# Building blocks:
#     Node 0, Type 0, BuildingBlock: CEKHIL_clean_sbu_0, # of connection points: 4
#     Node 1, Type 0, BuildingBlock: CEKHIL_clean_sbu_0, # of connection points: 4
#     Node 2, Type 0, BuildingBlock: CEKHIL_clean_sbu_0, # of connection points: 4
#     Node 3, Type 0, BuildingBlock: CEKHIL_clean_sbu_0, # of connection points: 4
#     Node 4, Type 0, BuildingBlock: CEKHIL_clean_sbu_0, # of connection points: 4
#     Node 5, Type 0, BuildingBlock: CEKHIL_clean_sbu_0, # of connection points: 4
#     Node 6, Type 0, BuildingBlock: CEKHIL_clean_sbu_0, # of connection points: 4
#     Node 7, Type 0, BuildingBlock: CEKHIL_clean_sbu_0, # of connection points: 4
#     Edge 8, Type (0, 0), BuildingBlock: OJICUG_clean_linker_0, # of connection points: 2
#     Edge 9, Type (0, 0), BuildingBlock: OJICUG_clean_linker_0, # of connection points: 2
#     Edge 10, Type (0, 0), BuildingBlock: OJICUG_clean_linker_0, # of connection points: 2
#     Edge 11, Type (0, 0), BuildingBlock: OJICUG_clean_linker_0, # of connection points: 2
#     Edge 12, Type (0, 0), BuildingBlock: OJICUG_clean_linker_0, # of connection points: 2
#     Edge 13, Type (0, 0), BuildingBlock: OJICUG_clean_linker_0, # of connection points: 2
#     Edge 14, Type (0, 0), BuildingBlock: OJICUG_clean_linker_0, # of connection points: 2
#     Edge 15, Type (0, 0), BuildingBlock: OJICUG_clean_linker_0, # of connection points: 2
#     Edge 16, Type (0, 0), BuildingBlock: OJICUG_clean_linker_0, # of connection points: 2
#     Edge 17, Type (0, 0), BuildingBlock: OJICUG_clean_linker_0, # of connection points: 2
#     Edge 18, Type (0, 0), BuildingBlock: OJICUG_clean_linker_0, # of connection points: 2
#     Edge 19, Type (0, 0), BuildingBlock: OJICUG_clean_linker_0, # of connection points: 2
#     Edge 20, Type (0, 0), BuildingBlock: OJICUG_clean_linker_0, # of connection points: 2
#     Edge 21, Type (0, 0), BuildingBlock: OJICUG_clean_linker_0, # of connection points: 2
#     Edge 22, Type (0, 0), BuildingBlock: OJICUG_clean_linker_0, # of connection points: 2
#     Edge 23, Type (0, 0), BuildingBlock: OJICUG_clean_linker_0, # of connection points: 2
# Relax obj value: 0.064
# Max RMSD: 0.128
# Mean RMSD: 0.128
data_MOF--net-irl--node1-CEKHIL_clean_sbu_0--edge1-OJICUG_clean_linker_0
_symmetry_space_group_name_H-M    P1
_symmetry_Int_Tables_number       1
_symmetry_cell_setting            triclinic
loop_
_symmetry_equiv_pos_as_xyz
'x, y, z'
_cell_length_a     24.01322
_cell_length_b     33.404686
_cell_length_c     20.096879
_cell_angle_alpha  89.999869
_cell_angle_beta   89.999863
_cell_angle_gamma 90.000478
loop_
_atom_site_label
_atom_site_type_symbol
_atom_site_fract_x
_atom_site_fract_y
_atom_site_fract_z
_atom_type_partial_charge
Co0 Co 0.07722 0.17297 0.98975 0.0
O1 O 0.11094 0.22478 0.98981 0.0
O2 O 0.15282 0.16957 0.02443 0.0
C3 C 0.04408 0.17663 0.88579 0.0
O4 O 0.05167 0.11414 0.99408 0.0
Co5 Co 0.94906 0.17207 0.98232 0.0
O6 O 0.95954 0.11363 0.97206 0.0
C7 C 0.00239 0.19176 0.109 0.0
C8 C 0.15491 0.20816 0.01438 0.0
C9 C 0.00521 0.09542 0.98341 0.0
O10 O 0.04905 0.18297 0.0819 0.0
O11 O 0.95649 0.19211 0.07658 0.0
O12 O 0.09512 0.16591 0.89676 0.0
O13 O 0.01658 0.18924 0.9373 0.0
Co14 Co 0.92209 0.84377 0.99057 0.0
O15 O 0.88838 0.79197 0.99072 0.0
O16 O 0.84642 0.84721 0.0251 0.0
C17 C 0.95539 0.83994 0.88668 0.0
O18 O 0.94764 0.90262 0.99475 0.0
Co19 Co 0.05023 0.84463 0.98344 0.0
O20 O 0.03986 0.90308 0.9732 0.0
C21 C 0.99668 0.82472 0.10986 0.0
C22 C 0.84438 0.8086 0.01521 0.0
C23 C 0.99414 0.92131 0.98424 0.0
O24 O 0.95012 0.83382 0.08282 0.0
O25 O 0.04258 0.82422 0.07745 0.0
O26 O 0.90436 0.85074 0.8975 0.0
O27 O 0.98278 0.82741 0.93831 0.0
Co28 Co 0.07276 0.84136 0.51485 0.0
O29 O 0.10544 0.78915 0.51404 0.0
O30 O 0.14798 0.84404 0.47909 0.0
C31 C 0.04023 0.83794 0.61909 0.0
O32 O 0.04868 0.90053 0.51109 0.0
Co33 Co 0.9447 0.84409 0.52365 0.0
O34 O 0.95675 0.90237 0.53403 0.0
C35 C 0.9965 0.82381 0.39635 0.0
C36 C 0.14943 0.80541 0.48876 0.0
C37 C 0.00285 0.91992 0.5223 0.0
O38 O 0.04358 0.83187 0.42301 0.0
O39 O 0.95081 0.82413 0.42919 0.0
O40 O 0.09149 0.84799 0.60775 0.0
O41 O 0.01211 0.8258 0.56776 0.0
Co42 Co 0.92676 0.17262 0.51395 0.0
O43 O 0.89393 0.22476 0.51306 0.0
O44 O 0.8515 0.16978 0.4783 0.0
C45 C 0.95939 0.17627 0.61812 0.0
O46 O 0.95102 0.11349 0.51034 0.0
Co47 Co 0.05478 0.17012 0.52242 0.0
O48 O 0.04306 0.11179 0.53267 0.0
C49 C 0.00271 0.19067 0.39546 0.0
C50 C 0.84998 0.20843 0.48782 0.0
C51 C 0.99693 0.09417 0.5213 0.0
O52 O 0.95577 0.18214 0.42205 0.0
O53 O 0.04841 0.19057 0.42828 0.0
O54 O 0.90818 0.16604 0.60689 0.0
O55 O 0.98741 0.18838 0.56669 0.0
Co56 Co 0.57297 0.67364 0.98531 0.0
O57 O 0.60551 0.72589 0.98633 0.0
O58 O 0.64826 0.671 0.0209 0.0
C59 C 0.5403 0.67721 0.88116 0.0
O60 O 0.54902 0.61444 0.98874 0.0
Co61 Co 0.4449 0.67087 0.97684 0.0
O62 O 0.457 0.61261 0.9663 0.0
C63 C 0.4969 0.69114 0.10399 0.0
C64 C 0.64958 0.70966 0.01143 0.0
C65 C 0.50317 0.59506 0.97765 0.0
O66 O 0.54391 0.68294 0.07726 0.0
O67 O 0.45118 0.69095 0.07122 0.0
O68 O 0.5916 0.66721 0.89235 0.0
O69 O 0.51221 0.68923 0.93259 0.0
Co70 Co 0.42697 0.34238 0.98346 0.0
O71 O 0.39401 0.29028 0.98426 0.0
O72 O 0.35175 0.34529 0.01917 0.0
C73 C 0.45955 0.33878 0.87925 0.0
O74 O 0.45136 0.40148 0.98725 0.0
Co75 Co 0.55501 0.34485 0.97478 0.0
O76 O 0.54331 0.40318 0.96451 0.0
C77 C 0.50303 0.32437 0.10188 0.0
C78 C 0.35012 0.30665 0.00956 0.0
C79 C 0.49725 0.42081 0.97616 0.0
O80 O 0.45604 0.33277 0.0753 0.0
O81 O 0.54872 0.32455 0.06903 0.0
O82 O 0.40836 0.34905 0.89053 0.0
O83 O 0.48758 0.32662 0.93064 0.0
Co84 Co 0.57751 0.34252 0.50769 0.0
O85 O 0.61107 0.29066 0.50748 0.0
O86 O 0.65315 0.34585 0.47309 0.0
C87 C 0.5443 0.33878 0.61162 0.0
O88 O 0.55211 0.4014 0.50361 0.0
Co89 Co 0.44936 0.34349 0.51496 0.0
O90 O 0.45991 0.40191 0.52531 0.0
C91 C 0.50277 0.3238 0.38835 0.0
C92 C 0.65511 0.30725 0.483 0.0
C93 C 0.50564 0.42011 0.51422 0.0
O94 O 0.54938 0.33266 0.41547 0.0
O95 O 0.45685 0.32337 0.42075 0.0
O96 O 0.59537 0.34945 0.60072 0.0
O97 O 0.51682 0.32626 0.56004 0.0
Co98 Co 0.42231 0.67169 0.50959 0.0
O99 O 0.38842 0.72343 0.5096 0.0
O100 O 0.34671 0.66817 0.4749 0.0
C101 C 0.45546 0.67543 0.61357 0.0
O102 O 0.44804 0.6129 0.50514 0.0
Co103 Co 0.55044 0.67093 0.51707 0.0
O104 O 0.54018 0.61246 0.52712 0.0
C105 C 0.49708 0.69082 0.39048 0.0
C106 C 0.34451 0.70676 0.48495 0.0
C107 C 0.49454 0.59421 0.51573 0.0
O108 O 0.45045 0.68183 0.41745 0.0
O109 O 0.54295 0.69123 0.42297 0.0
O110 O 0.40449 0.66454 0.60261 0.0
O111 O 0.48288 0.68807 0.56203 0.0
C112 C 0.04837 0.98579 0.9865 0.0
C113 C 0.99644 0.96589 0.98565 0.0
H114 H 0.09214 0.0418 0.98687 0.0
C115 C 0.94777 0.98907 0.98536 0.0
H116 H 0.08696 0.96901 0.98718 0.0
C117 C 0.95095 0.03094 0.98482 0.0
C118 C 0.00289 0.05084 0.98513 0.0
H119 H 0.90718 0.97492 0.98474 0.0
H120 H 0.91235 0.04771 0.98418 0.0
C121 C 0.05155 0.02766 0.98651 0.0
C122 C 0.05119 0.98696 0.51909 0.0
C123 C 0.00186 0.96453 0.52066 0.0
H124 H 0.08834 0.04507 0.51823 0.0
C125 C 0.95053 0.98522 0.52116 0.0
H126 H 0.09135 0.9722 0.5186 0.0
C127 C 0.9486 0.02713 0.52055 0.0
C128 C 0.99795 0.04957 0.52003 0.0
H129 H 0.91145 0.96905 0.52196 0.0
H130 H 0.90845 0.0419 0.5213 0.0
C131 C 0.04927 0.02888 0.51907 0.0
C132 C 0.55158 0.52802 0.97795 0.0
C133 C 0.50223 0.55045 0.97877 0.0
H134 H 0.58872 0.46992 0.97616 0.0
C135 C 0.45091 0.52976 0.97987 0.0
H136 H 0.59173 0.5428 0.97708 0.0
C137 C 0.44899 0.48785 0.97971 0.0
C138 C 0.49832 0.46541 0.97786 0.0
H139 H 0.41185 0.54594 0.98096 0.0
H140 H 0.40883 0.47309 0.98033 0.0
C141 C 0.54965 0.48611 0.9772 0.0
C142 C 0.55204 0.48787 0.51359 0.0
C143 C 0.50338 0.46469 0.51293 0.0
H144 H 0.58744 0.54652 0.51526 0.0
C145 C 0.45145 0.48458 0.51191 0.0
H146 H 0.59262 0.47372 0.51437 0.0
C147 C 0.44826 0.52645 0.51209 0.0
C148 C 0.4969 0.54964 0.51385 0.0
H149 H 0.41286 0.46781 0.51093 0.0
H150 H 0.40767 0.54058 0.51158 0.0
C151 C 0.54885 0.52974 0.51432 0.0
C152 C 0.95217 0.20004 0.21765 0.0
C153 C 0.00231 0.19817 0.18199 0.0
H154 H 0.91302 0.19969 0.31298 0.0
C155 C 0.05298 0.1988 0.21747 0.0
H156 H 0.91248 0.19993 0.19207 0.0
C157 C 0.05342 0.1985 0.28699 0.0
C158 C 0.00322 0.19758 0.3226 0.0
H159 H 0.09255 0.19793 0.19163 0.0
H160 H 0.09308 0.19718 0.31259 0.0
C161 C 0.95262 0.19976 0.28715 0.0
C162 C 0.94559 0.81729 0.28779 0.0
C163 C 0.99583 0.81737 0.32338 0.0
H164 H 0.90645 0.81907 0.19249 0.0
C165 C 0.04636 0.81495 0.28785 0.0
H166 H 0.90599 0.81885 0.31344 0.0
C167 C 0.04677 0.81523 0.21835 0.0
C168 C 0.99667 0.81793 0.18276 0.0
H169 H 0.08596 0.81439 0.31365 0.0
H170 H 0.08646 0.8151 0.19274 0.0
C171 C 0.94601 0.81756 0.21827 0.0
C172 C 0.96071 0.8379 0.69904 0.0
C173 C 0.01815 0.83773 0.68731 0.0
H174 H 0.89594 0.8393 0.77191 0.0
C175 C 0.05515 0.83779 0.74167 0.0
H176 H 0.93145 0.83797 0.65801 0.0
C177 C 0.03499 0.83789 0.80683 0.0
C178 C 0.97756 0.83876 0.81853 0.0
H179 H 0.09979 0.8375 0.73389 0.0
H180 H 0.06424 0.83792 0.84788 0.0
C181 C 0.94058 0.83883 0.76416 0.0
C182 C 0.96447 0.1773 0.80589 0.0
C183 C 0.0219 0.17734 0.81764 0.0
H184 H 0.89973 0.17633 0.7329 0.0
C185 C 0.05892 0.17751 0.76331 0.0
H186 H 0.9352 0.17704 0.84692 0.0
C187 C 0.03881 0.17777 0.69816 0.0
C188 C 0.98139 0.17702 0.68638 0.0
H189 H 0.10355 0.17773 0.77112 0.0
H190 H 0.06811 0.17793 0.65717 0.0
C191 C 0.94436 0.17673 0.74071 0.0
C192 C 0.54693 0.69972 0.21246 0.0
C193 C 0.49636 0.69768 0.17694 0.0
H194 H 0.58703 0.69943 0.30758 0.0
C195 C 0.44613 0.69834 0.21254 0.0
H196 H 0.58654 0.69982 0.18666 0.0
C197 C 0.44654 0.69827 0.28206 0.0
C198 C 0.49719 0.69753 0.31757 0.0
H199 H 0.40649 0.69711 0.1869 0.0
H200 H 0.40696 0.69722 0.30786 0.0
C201 C 0.54734 0.69963 0.28196 0.0
C202 C 0.5534 0.31684 0.27988 0.0
C203 C 0.50272 0.31731 0.31537 0.0
H204 H 0.59347 0.31844 0.18475 0.0
C205 C 0.4526 0.31512 0.27973 0.0
H206 H 0.59296 0.31796 0.30571 0.0
C207 C 0.45304 0.31525 0.21023 0.0
C208 C 0.50361 0.31758 0.17476 0.0
H209 H 0.41291 0.31509 0.30532 0.0
H210 H 0.41344 0.31507 0.1844 0.0
C211 C 0.55383 0.31698 0.21037 0.0
C212 C 0.53898 0.33768 0.79924 0.0
C213 C 0.48156 0.3381 0.811 0.0
H214 H 0.60374 0.33808 0.72633 0.0
C215 C 0.44453 0.33818 0.75666 0.0
H216 H 0.56827 0.3377 0.84025 0.0
C217 C 0.46466 0.33771 0.69149 0.0
C218 C 0.5221 0.338 0.67976 0.0
H219 H 0.3999 0.33832 0.76447 0.0
H220 H 0.43541 0.3378 0.65045 0.0
C221 C 0.5591 0.33804 0.7341 0.0
C222 C 0.55516 0.67798 0.75861 0.0
C223 C 0.51817 0.67751 0.81297 0.0
H224 H 0.56425 0.6783 0.65242 0.0
C225 C 0.46074 0.67683 0.80126 0.0
H226 H 0.59979 0.67868 0.76639 0.0
C227 C 0.44062 0.67593 0.73612 0.0
C228 C 0.47759 0.67653 0.68175 0.0
H229 H 0.4315 0.67633 0.8423 0.0
H230 H 0.39599 0.67505 0.72837 0.0
C231 C 0.535 0.6779 0.69346 0.0
C232 C 0.3055 0.23976 0.0242 0.0
C233 C 0.30051 0.28181 0.02283 0.0
H234 H 0.26314 0.18319 0.02385 0.0
C235 C 0.24756 0.29907 0.02766 0.0
H236 H 0.346 0.22559 0.02127 0.0
C237 C 0.20024 0.27472 0.02868 0.0
C238 C 0.20511 0.23271 0.02572 0.0
H239 H 0.2425 0.3313 0.02695 0.0
H240 H 0.15967 0.2889 0.02914 0.0
C241 C 0.25818 0.21539 0.02605 0.0
C242 C 0.75212 0.71754 0.02935 0.0
C243 C 0.69908 0.73467 0.02447 0.0
H244 H 0.83995 0.72791 0.03062 0.0
C245 C 0.69391 0.77671 0.02551 0.0
H246 H 0.75732 0.68533 0.02889 0.0
C247 C 0.74113 0.80119 0.02707 0.0
C248 C 0.79428 0.78399 0.02679 0.0
H249 H 0.65334 0.79078 0.02253 0.0
H250 H 0.73604 0.83338 0.02462 0.0
C251 C 0.79932 0.742 0.0301 0.0
C252 C 0.19394 0.7384 0.4748 0.0
C253 C 0.19899 0.78046 0.47572 0.0
H254 H 0.23624 0.6818 0.47576 0.0
C255 C 0.25197 0.79766 0.47071 0.0
H256 H 0.15342 0.72428 0.47789 0.0
C257 C 0.29925 0.77327 0.46996 0.0
C258 C 0.29433 0.73128 0.47337 0.0
H259 H 0.25709 0.82988 0.47108 0.0
H260 H 0.33984 0.78742 0.46934 0.0
C261 C 0.24123 0.714 0.47322 0.0
C262 C 0.75836 0.29984 0.47128 0.0
C263 C 0.70523 0.28262 0.47161 0.0
H264 H 0.84614 0.2895 0.47605 0.0
C265 C 0.70022 0.24061 0.46863 0.0
H266 H 0.76341 0.33204 0.47348 0.0
C267 C 0.74745 0.21617 0.46966 0.0
C268 C 0.80046 0.23335 0.4745 0.0
H269 H 0.6596 0.2265 0.46816 0.0
H270 H 0.74228 0.18396 0.47037 0.0
C271 C 0.80559 0.27539 0.47311 0.0
loop_
_geom_bond_atom_site_label_1
_geom_bond_atom_site_label_2
_geom_bond_distance
_geom_bond_site_symmetry_2
_ccdc_geom_bond_type
Co0 O1 2.216 . S
Co0 O2 2.091 1_556 S
Co0 O4 2.004 . S
Co0 O10 2.021 1_556 S
Co0 O12 2.137 . S
Co0 O13 2.244 1_455 S
O1 Co0 2.216 . S
O1 C8 1.247 1_556 S
O2 Co0 2.091 1_554 S
O2 C8 1.261 . S
C3 O12 1.247 . S
C3 O13 1.272 1_455 S
O4 Co0 2.004 . S
O4 C9 1.258 1_556 S
Co5 O6 2.061 . S
Co5 O11 2.052 . S
Co5 O13 2.135 1_554 S
O6 Co5 2.061 . S
O6 C9 1.236 1_655 S
C7 O10 1.238 1_655 S
C7 O11 1.241 . S
C8 O1 1.247 1_554 S
C8 O2 1.261 . S
C9 O4 1.258 1_554 S
C9 O6 1.236 1_455 S
O10 Co0 2.021 1_554 S
O10 C7 1.238 1_455 S
O11 Co5 2.052 . S
O11 C7 1.241 . S
O12 Co0 2.137 . S
O12 C3 1.247 . S
O13 Co0 2.244 1_655 S
O13 C3 1.272 1_655 S
O13 Co5 2.135 1_556 S
Co14 O15 2.216 . S
Co14 O16 2.091 1_556 S
Co14 O18 2.004 . S
Co14 O24 2.021 1_556 S
Co14 O26 2.137 . S
Co14 O27 2.244 1_655 S
O15 Co14 2.216 . S
O15 C22 1.247 1_556 S
O16 Co14 2.091 1_554 S
O16 C22 1.261 . S
C17 O26 1.247 . S
C17 O27 1.272 1_655 S
O18 Co14 2.004 . S
O18 C23 1.258 1_556 S
Co19 O20 2.061 . S
Co19 O25 2.052 . S
Co19 O27 2.135 1_554 S
O20 Co19 2.061 . S
O20 C23 1.236 1_455 S
C21 O24 1.238 1_455 S
C21 O25 1.241 . S
C22 O15 1.247 1_554 S
C22 O16 1.261 . S
C23 O18 1.258 1_554 S
C23 O20 1.236 1_655 S
O24 Co14 2.021 1_554 S
O24 C21 1.238 1_655 S
O25 Co19 2.052 . S
O25 C21 1.241 . S
O26 Co14 2.137 . S
O26 C17 1.247 . S
O27 Co14 2.244 1_455 S
O27 C17 1.272 1_455 S
O27 Co19 2.135 1_556 S
Co28 O29 2.216 . S
Co28 O30 2.091 . S
Co28 O32 2.004 . S
Co28 O38 2.021 . S
Co28 O40 2.137 . S
Co28 O41 2.244 1_455 S
O29 Co28 2.216 . S
O29 C36 1.247 . S
O30 Co28 2.091 . S
O30 C36 1.261 . S
C31 O40 1.247 . S
C31 O41 1.272 1_455 S
O32 Co28 2.004 . S
O32 C37 1.259 . S
Co33 O34 2.061 . S
Co33 O39 2.052 . S
Co33 O41 2.135 . S
O34 Co33 2.061 . S
O34 C37 1.235 1_655 S
C35 O38 1.238 1_655 S
C35 O39 1.241 . S
C36 O29 1.247 . S
C36 O30 1.261 . S
C37 O32 1.259 . S
C37 O34 1.235 1_455 S
O38 Co28 2.021 . S
O38 C35 1.238 1_455 S
O39 Co33 2.052 . S
O39 C35 1.241 . S
O40 Co28 2.137 . S
O40 C31 1.247 . S
O41 Co28 2.244 1_655 S
O41 C31 1.272 1_655 S
O41 Co33 2.135 . S
Co42 O43 2.216 . S
Co42 O44 2.091 . S
Co42 O46 2.004 . S
Co42 O52 2.021 . S
Co42 O54 2.137 . S
Co42 O55 2.244 1_655 S
O43 Co42 2.216 . S
O43 C50 1.247 . S
O44 Co42 2.091 . S
O44 C50 1.261 . S
C45 O54 1.247 . S
C45 O55 1.272 1_655 S
O46 Co42 2.004 . S
O46 C51 1.259 . S
Co47 O48 2.061 . S
Co47 O53 2.052 . S
Co47 O55 2.135 . S
O48 Co47 2.061 . S
O48 C51 1.235 1_455 S
C49 O52 1.238 1_455 S
C49 O53 1.241 . S
C50 O43 1.247 . S
C50 O44 1.261 . S
C51 O46 1.259 . S
C51 O48 1.235 1_655 S
O52 Co42 2.021 . S
O52 C49 1.238 1_655 S
O53 Co47 2.052 . S
O53 C49 1.241 . S
O54 Co42 2.137 . S
O54 C45 1.247 . S
O55 Co42 2.244 1_455 S
O55 C45 1.272 1_455 S
O55 Co47 2.135 . S
Co56 O57 2.216 . S
Co56 O58 2.091 1_556 S
Co56 O60 2.004 . S
Co56 O66 2.021 1_556 S
Co56 O68 2.137 . S
Co56 O69 2.244 . S
O57 Co56 2.216 . S
O57 C64 1.247 1_556 S
O58 Co56 2.091 1_554 S
O58 C64 1.261 . S
C59 O68 1.247 . S
C59 O69 1.272 . S
O60 Co56 2.004 . S
O60 C65 1.258 1_556 S
Co61 O62 2.061 . S
Co61 O67 2.052 . S
Co61 O69 2.135 1_554 S
O62 Co61 2.061 . S
O62 C65 1.236 . S
C63 O66 1.238 . S
C63 O67 1.241 . S
C64 O57 1.247 1_554 S
C64 O58 1.261 . S
C65 O60 1.258 1_554 S
C65 O62 1.236 . S
O66 Co56 2.021 1_554 S
O66 C63 1.238 . S
O67 Co61 2.052 . S
O67 C63 1.241 . S
O68 Co56 2.137 . S
O68 C59 1.247 . S
O69 Co56 2.244 . S
O69 C59 1.272 . S
O69 Co61 2.135 1_556 S
Co70 O71 2.216 . S
Co70 O72 2.091 1_556 S
Co70 O74 2.004 . S
Co70 O80 2.021 1_556 S
Co70 O82 2.137 . S
Co70 O83 2.244 . S
O71 Co70 2.216 . S
O71 C78 1.247 1_556 S
O72 Co70 2.091 1_554 S
O72 C78 1.261 . S
C73 O82 1.247 . S
C73 O83 1.272 . S
O74 Co70 2.004 . S
O74 C79 1.258 1_556 S
Co75 O76 2.061 . S
Co75 O81 2.052 . S
Co75 O83 2.135 1_554 S
O76 Co75 2.061 . S
O76 C79 1.236 . S
C77 O80 1.238 . S
C77 O81 1.241 . S
C78 O71 1.247 1_554 S
C78 O72 1.261 . S
C79 O74 1.258 1_554 S
C79 O76 1.236 . S
O80 Co70 2.021 1_554 S
O80 C77 1.238 . S
O81 Co75 2.052 . S
O81 C77 1.241 . S
O82 Co70 2.137 . S
O82 C73 1.247 . S
O83 Co70 2.244 . S
O83 C73 1.272 . S
O83 Co75 2.135 1_556 S
Co84 O85 2.216 . S
Co84 O86 2.091 . S
Co84 O88 2.004 . S
Co84 O94 2.021 . S
Co84 O96 2.137 . S
Co84 O97 2.244 . S
O85 Co84 2.216 . S
O85 C92 1.247 . S
O86 Co84 2.091 . S
O86 C92 1.261 . S
C87 O96 1.247 . S
C87 O97 1.272 . S
O88 Co84 2.004 . S
O88 C93 1.259 . S
Co89 O90 2.061 . S
Co89 O95 2.052 . S
Co89 O97 2.135 . S
O90 Co89 2.061 . S
O90 C93 1.235 . S
C91 O94 1.238 . S
C91 O95 1.241 . S
C92 O85 1.247 . S
C92 O86 1.261 . S
C93 O88 1.259 . S
C93 O90 1.235 . S
O94 Co84 2.021 . S
O94 C91 1.238 . S
O95 Co89 2.052 . S
O95 C91 1.241 . S
O96 Co84 2.137 . S
O96 C87 1.247 . S
O97 Co84 2.244 . S
O97 C87 1.272 . S
O97 Co89 2.135 . S
Co98 O99 2.216 . S
Co98 O100 2.091 . S
Co98 O102 2.004 . S
Co98 O108 2.021 . S
Co98 O110 2.137 . S
Co98 O111 2.244 . S
O99 Co98 2.216 . S
O99 C106 1.247 . S
O100 Co98 2.091 . S
O100 C106 1.261 . S
C101 O110 1.247 . S
C101 O111 1.272 . S
O102 Co98 2.004 . S
O102 C107 1.259 . S
Co103 O104 2.061 . S
Co103 O109 2.052 . S
Co103 O111 2.135 . S
O104 Co103 2.061 . S
O104 C107 1.235 . S
C105 O108 1.238 . S
C105 O109 1.241 . S
C106 O99 1.247 . S
C106 O100 1.261 . S
C107 O102 1.259 . S
C107 O104 1.235 . S
O108 Co98 2.021 . S
O108 C105 1.238 . S
O109 Co103 2.052 . S
O109 C105 1.241 . S
O110 Co98 2.137 . S
O110 C101 1.247 . S
O111 Co98 2.244 . S
O111 C101 1.272 . S
O111 Co103 2.135 . S
C112 C113 1.387 . S
C112 H116 0.950 . S
C112 C121 1.390 1_665 S
C113 C112 1.387 . S
C113 C115 1.387 1_554 S
H114 C121 0.950 . S
C115 C113 1.387 1_556 S
C115 C117 1.390 1_665 S
C115 H119 0.950 . S
H116 C112 0.950 . S
C117 C115 1.390 1_445 S
C117 C118 1.387 1_556 S
C117 H120 0.950 . S
C118 C117 1.387 1_554 S
C118 C121 1.387 . S
H119 C115 0.950 . S
H120 C117 0.950 . S
C121 C112 1.390 1_445 S
C121 H114 0.950 . S
C121 C118 1.387 . S
C122 C123 1.387 . S
C122 H126 0.950 . S
C122 C131 1.390 1_465 S
C123 C122 1.387 . S
C123 C125 1.387 . S
H124 C131 0.950 . S
C125 C123 1.387 . S
C125 C127 1.390 1_465 S
C125 H129 0.950 . S
H126 C122 0.950 . S
C127 C125 1.390 1_645 S
C127 C128 1.387 . S
C127 H130 0.950 . S
C128 C127 1.387 . S
C128 C131 1.387 . S
H129 C125 0.950 . S
H130 C127 0.950 . S
C131 C122 1.390 1_645 S
C131 H124 0.950 . S
C131 C128 1.387 . S
C132 C133 1.387 1_556 S
C132 H136 0.950 . S
C132 C141 1.390 . S
C133 C132 1.387 1_554 S
C133 C135 1.387 . S
H134 C141 0.950 . S
C135 C133 1.387 . S
C135 C137 1.390 . S
C135 H139 0.950 . S
H136 C132 0.950 . S
C137 C135 1.390 . S
C137 C138 1.387 . S
C137 H140 0.950 . S
C138 C137 1.387 . S
C138 C141 1.387 1_554 S
H139 C135 0.950 . S
H140 C137 0.950 . S
C141 C132 1.390 . S
C141 H134 0.950 . S
C141 C138 1.387 1_556 S
C142 C143 1.387 . S
C142 H146 0.950 . S
C142 C151 1.390 . S
C143 C142 1.387 . S
C143 C145 1.387 . S
H144 C151 0.950 . S
C145 C143 1.387 . S
C145 C147 1.390 . S
C145 H149 0.950 . S
H146 C142 0.950 . S
C147 C145 1.390 . S
C147 C148 1.387 . S
C147 H150 0.950 . S
C148 C147 1.387 . S
C148 C151 1.387 . S
H149 C145 0.950 . S
H150 C147 0.950 . S
C151 C142 1.390 . S
C151 H144 0.950 . S
C151 C148 1.387 . S
C152 C153 1.388 . S
C152 H156 0.950 . S
C152 C161 1.390 1_655 S
C153 C152 1.388 . S
C153 C155 1.388 . S
H154 C161 0.950 . S
C155 C153 1.388 . S
C155 C157 1.390 1_655 S
C155 H159 0.950 . S
H156 C152 0.950 . S
C157 C155 1.390 1_455 S
C157 C158 1.388 . S
C157 H160 0.950 . S
C158 C157 1.388 . S
C158 C161 1.388 . S
H159 C155 0.950 . S
H160 C157 0.950 . S
C161 C152 1.390 1_455 S
C161 H154 0.950 . S
C161 C158 1.388 . S
C162 C163 1.388 . S
C162 H166 0.950 . S
C162 C171 1.390 1_655 S
C163 C162 1.388 . S
C163 C165 1.388 . S
H164 C171 0.950 . S
C165 C163 1.388 . S
C165 C167 1.390 1_655 S
C165 H169 0.950 . S
H166 C162 0.950 . S
C167 C165 1.390 1_455 S
C167 C168 1.388 . S
C167 H170 0.950 . S
C168 C167 1.388 . S
C168 C171 1.388 . S
H169 C165 0.950 . S
H170 C167 0.950 . S
C171 C162 1.390 1_455 S
C171 H164 0.950 . S
C171 C168 1.388 . S
C172 C173 1.387 . S
C172 H176 0.950 . S
C172 C181 1.390 1_655 S
C173 C172 1.387 . S
C173 C175 1.387 . S
H174 C181 0.950 . S
C175 C173 1.387 . S
C175 C177 1.390 1_655 S
C175 H179 0.950 . S
H176 C172 0.950 . S
C177 C175 1.390 1_455 S
C177 C178 1.387 . S
C177 H180 0.950 . S
C178 C177 1.387 . S
C178 C181 1.387 . S
H179 C175 0.950 . S
H180 C177 0.950 . S
C181 C172 1.390 1_455 S
C181 H174 0.950 . S
C181 C178 1.387 . S
C182 C183 1.387 . S
C182 H186 0.950 . S
C182 C191 1.390 1_655 S
C183 C182 1.387 . S
C183 C185 1.387 . S
H184 C191 0.950 . S
C185 C183 1.387 . S
C185 C187 1.390 1_655 S
C185 H189 0.950 . S
H186 C182 0.950 . S
C187 C185 1.390 1_455 S
C187 C188 1.387 . S
C187 H190 0.950 . S
C188 C187 1.387 . S
C188 C191 1.387 . S
H189 C185 0.950 . S
H190 C187 0.950 . S
C191 C182 1.390 1_455 S
C191 H184 0.950 . S
C191 C188 1.387 . S
C192 C193 1.387 . S
C192 H196 0.950 . S
C192 C201 1.390 . S
C193 C192 1.387 . S
C193 C195 1.387 . S
H194 C201 0.950 . S
C195 C193 1.387 . S
C195 C197 1.390 . S
C195 H199 0.950 . S
H196 C192 0.950 . S
C197 C195 1.390 . S
C197 C198 1.387 . S
C197 H200 0.950 . S
C198 C197 1.387 . S
C198 C201 1.387 . S
H199 C195 0.950 . S
H200 C197 0.950 . S
C201 C192 1.390 . S
C201 H194 0.950 . S
C201 C198 1.387 . S
C202 C203 1.387 . S
C202 H206 0.950 . S
C202 C211 1.390 . S
C203 C202 1.387 . S
C203 C205 1.387 . S
H204 C211 0.950 . S
C205 C203 1.387 . S
C205 C207 1.390 . S
C205 H209 0.950 . S
H206 C202 0.950 . S
C207 C205 1.390 . S
C207 C208 1.387 . S
C207 H210 0.950 . S
C208 C207 1.387 . S
C208 C211 1.387 . S
H209 C205 0.950 . S
H210 C207 0.950 . S
C211 C202 1.390 . S
C211 H204 0.950 . S
C211 C208 1.387 . S
C212 C213 1.387 . S
C212 H216 0.950 . S
C212 C221 1.390 . S
C213 C212 1.387 . S
C213 C215 1.387 . S
H214 C221 0.950 . S
C215 C213 1.387 . S
C215 C217 1.390 . S
C215 H219 0.950 . S
H216 C212 0.950 . S
C217 C215 1.390 . S
C217 C218 1.387 . S
C217 H220 0.950 . S
C218 C217 1.387 . S
C218 C221 1.387 . S
H219 C215 0.950 . S
H220 C217 0.950 . S
C221 C212 1.390 . S
C221 H214 0.950 . S
C221 C218 1.387 . S
C222 C223 1.387 . S
C222 H226 0.950 . S
C222 C231 1.390 . S
C223 C222 1.387 . S
C223 C225 1.387 . S
H224 C231 0.950 . S
C225 C223 1.387 . S
C225 C227 1.390 . S
C225 H229 0.950 . S
H226 C222 0.950 . S
C227 C225 1.390 . S
C227 C228 1.387 . S
C227 H230 0.950 . S
C228 C227 1.387 . S
C228 C231 1.387 . S
H229 C225 0.950 . S
H230 C227 0.950 . S
C231 C222 1.390 . S
C231 H224 0.950 . S
C231 C228 1.387 . S
C232 C233 1.387 1_556 S
C232 H236 0.950 . S
C232 C241 1.390 . S
C233 C232 1.387 1_554 S
C233 C235 1.387 . S
H234 C241 0.950 . S
C235 C233 1.387 . S
C235 C237 1.390 . S
C235 H239 0.950 . S
H236 C232 0.950 . S
C237 C235 1.390 . S
C237 C238 1.387 . S
C237 H240 0.950 . S
C238 C237 1.387 . S
C238 C241 1.387 1_554 S
H239 C235 0.950 . S
H240 C237 0.950 . S
C241 C232 1.390 . S
C241 H234 0.950 . S
C241 C238 1.387 1_556 S
C242 C243 1.387 . S
C242 H246 0.950 . S
C242 C251 1.390 . S
C243 C242 1.387 . S
C243 C245 1.387 1_554 S
H244 C251 0.950 . S
C245 C243 1.387 1_556 S
C245 C247 1.390 . S
C245 H249 0.950 . S
H246 C242 0.950 . S
C247 C245 1.390 . S
C247 C248 1.387 1_556 S
C247 H250 0.950 . S
C248 C247 1.387 1_554 S
C248 C251 1.387 . S
H249 C245 0.950 . S
H250 C247 0.950 . S
C251 C242 1.390 . S
C251 H244 0.950 . S
C251 C248 1.387 . S
C252 C253 1.387 . S
C252 H256 0.950 . S
C252 C261 1.390 . S
C253 C252 1.387 . S
C253 C255 1.387 . S
H254 C261 0.950 . S
C255 C253 1.387 . S
C255 C257 1.390 . S
C255 H259 0.950 . S
H256 C252 0.950 . S
C257 C255 1.390 . S
C257 C258 1.387 . S
C257 H260 0.950 . S
C258 C257 1.387 . S
C258 C261 1.387 . S
H259 C255 0.950 . S
H260 C257 0.950 . S
C261 C252 1.390 . S
C261 H254 0.950 . S
C261 C258 1.387 . S
C262 C263 1.387 . S
C262 H266 0.950 . S
C262 C271 1.390 . S
C263 C262 1.387 . S
C263 C265 1.387 . S
H264 C271 0.950 . S
C265 C263 1.387 . S
C265 C267 1.390 . S
C265 H269 0.950 . S
H266 C262 0.950 . S
C267 C265 1.390 . S
C267 C268 1.387 . S
C267 H270 0.950 . S
C268 C267 1.387 . S
C268 C271 1.387 . S
H269 C265 0.950 . S
H270 C267 0.950 . S
C271 C262 1.390 . S
C271 H264 0.950 . S
C271 C268 1.387 . S
C113 C23 1.482 . S
C118 C9 1.482 . S
C123 C37 1.482 . S
C128 C51 1.482 . S
C133 C65 1.480 . S
C138 C79 1.480 . S
C143 C93 1.480 . S
C148 C107 1.480 . S
C153 C7 1.403 . S
C158 C49 1.403 . S
C163 C35 1.403 . S
C168 C21 1.403 . S
C173 C31 1.374 1_655 S
C178 C17 1.374 1_455 S
C183 C3 1.370 1_655 S
C188 C45 1.370 1_455 S
C193 C63 1.403 . S
C198 C105 1.403 . S
C203 C91 1.403 . S
C208 C77 1.403 . S
C213 C73 1.374 . S
C218 C87 1.374 . S
C223 C59 1.374 . S
C228 C101 1.374 . S
C233 C78 1.505 . S
C238 C8 1.505 . S
C243 C64 1.506 . S
C248 C22 1.506 . S
C253 C36 1.506 . S
C258 C106 1.506 . S
C263 C92 1.506 . S
C268 C50 1.506 . S
