# Generated by pormake.
# Topology sst, (4)-cn, num edge types: 1
# Building blocks:
#     Node 0, Type 0, BuildingBlock: NAWXER_clean_sbu_0, # of connection points: 4
#     Node 1, Type 0, BuildingBlock: NAWXER_clean_sbu_0, # of connection points: 4
#     Node 2, Type 0, BuildingBlock: NAWXER_clean_sbu_0, # of connection points: 4
#     Node 3, Type 0, BuildingBlock: NAWXER_clean_sbu_0, # of connection points: 4
#     Node 4, Type 0, BuildingBlock: NAWXER_clean_sbu_0, # of connection points: 4
#     Node 5, Type 0, BuildingBlock: NAWXER_clean_sbu_0, # of connection points: 4
#     Node 6, Type 0, BuildingBlock: NAWXER_clean_sbu_0, # of connection points: 4
#     Node 7, Type 0, BuildingBlock: NAWXER_clean_sbu_0, # of connection points: 4
#     Node 8, Type 0, BuildingBlock: NAWXER_clean_sbu_0, # of connection points: 4
#     Node 9, Type 0, BuildingBlock: NAWXER_clean_sbu_0, # of connection points: 4
#     Node 10, Type 0, BuildingBlock: NAWXER_clean_sbu_0, # of connection points: 4
#     Node 11, Type 0, BuildingBlock: NAWXER_clean_sbu_0, # of connection points: 4
#     Node 12, Type 0, BuildingBlock: NAWXER_clean_sbu_0, # of connection points: 4
#     Node 13, Type 0, BuildingBlock: NAWXER_clean_sbu_0, # of connection points: 4
#     Node 14, Type 0, BuildingBlock: NAWXER_clean_sbu_0, # of connection points: 4
#     Node 15, Type 0, BuildingBlock: NAWXER_clean_sbu_0, # of connection points: 4
#     Node 16, Type 0, BuildingBlock: NAWXER_clean_sbu_0, # of connection points: 4
#     Node 17, Type 0, BuildingBlock: NAWXER_clean_sbu_0, # of connection points: 4
#     Node 18, Type 0, BuildingBlock: NAWXER_clean_sbu_0, # of connection points: 4
#     Node 19, Type 0, BuildingBlock: NAWXER_clean_sbu_0, # of connection points: 4
#     Node 20, Type 0, BuildingBlock: NAWXER_clean_sbu_0, # of connection points: 4
#     Node 21, Type 0, BuildingBlock: NAWXER_clean_sbu_0, # of connection points: 4
#     Node 22, Type 0, BuildingBlock: NAWXER_clean_sbu_0, # of connection points: 4
#     Node 23, Type 0, BuildingBlock: NAWXER_clean_sbu_0, # of connection points: 4
#     Node 24, Type 0, BuildingBlock: NAWXER_clean_sbu_0, # of connection points: 4
#     Node 25, Type 0, BuildingBlock: NAWXER_clean_sbu_0, # of connection points: 4
#     Node 26, Type 0, BuildingBlock: NAWXER_clean_sbu_0, # of connection points: 4
#     Node 27, Type 0, BuildingBlock: NAWXER_clean_sbu_0, # of connection points: 4
#     Node 28, Type 0, BuildingBlock: NAWXER_clean_sbu_0, # of connection points: 4
#     Node 29, Type 0, BuildingBlock: NAWXER_clean_sbu_0, # of connection points: 4
#     Node 30, Type 0, BuildingBlock: NAWXER_clean_sbu_0, # of connection points: 4
#     Node 31, Type 0, BuildingBlock: NAWXER_clean_sbu_0, # of connection points: 4
#     Node 32, Type 0, BuildingBlock: NAWXER_clean_sbu_0, # of connection points: 4
#     Node 33, Type 0, BuildingBlock: NAWXER_clean_sbu_0, # of connection points: 4
#     Node 34, Type 0, BuildingBlock: NAWXER_clean_sbu_0, # of connection points: 4
#     Node 35, Type 0, BuildingBlock: NAWXER_clean_sbu_0, # of connection points: 4
#     Node 36, Type 0, BuildingBlock: NAWXER_clean_sbu_0, # of connection points: 4
#     Node 37, Type 0, BuildingBlock: NAWXER_clean_sbu_0, # of connection points: 4
#     Node 38, Type 0, BuildingBlock: NAWXER_clean_sbu_0, # of connection points: 4
#     Node 39, Type 0, BuildingBlock: NAWXER_clean_sbu_0, # of connection points: 4
#     Node 40, Type 0, BuildingBlock: NAWXER_clean_sbu_0, # of connection points: 4
#     Node 41, Type 0, BuildingBlock: NAWXER_clean_sbu_0, # of connection points: 4
#     Node 42, Type 0, BuildingBlock: NAWXER_clean_sbu_0, # of connection points: 4
#     Node 43, Type 0, BuildingBlock: NAWXER_clean_sbu_0, # of connection points: 4
#     Node 44, Type 0, BuildingBlock: NAWXER_clean_sbu_0, # of connection points: 4
#     Node 45, Type 0, BuildingBlock: NAWXER_clean_sbu_0, # of connection points: 4
#     Node 46, Type 0, BuildingBlock: NAWXER_clean_sbu_0, # of connection points: 4
#     Node 47, Type 0, BuildingBlock: NAWXER_clean_sbu_0, # of connection points: 4
#     Edge 48, Type (0, 0), BuildingBlock: KIFKEQ_clean_linker_1, # of connection points: 2
#     Edge 49, Type (0, 0), BuildingBlock: KIFKEQ_clean_linker_1, # of connection points: 2
#     Edge 50, Type (0, 0), BuildingBlock: KIFKEQ_clean_linker_1, # of connection points: 2
#     Edge 51, Type (0, 0), BuildingBlock: KIFKEQ_clean_linker_1, # of connection points: 2
#     Edge 52, Type (0, 0), BuildingBlock: KIFKEQ_clean_linker_1, # of connection points: 2
#     Edge 53, Type (0, 0), BuildingBlock: KIFKEQ_clean_linker_1, # of connection points: 2
#     Edge 54, Type (0, 0), BuildingBlock: KIFKEQ_clean_linker_1, # of connection points: 2
#     Edge 55, Type (0, 0), BuildingBlock: KIFKEQ_clean_linker_1, # of connection points: 2
#     Edge 56, Type (0, 0), BuildingBlock: KIFKEQ_clean_linker_1, # of connection points: 2
#     Edge 57, Type (0, 0), BuildingBlock: KIFKEQ_clean_linker_1, # of connection points: 2
#     Edge 58, Type (0, 0), BuildingBlock: KIFKEQ_clean_linker_1, # of connection points: 2
#     Edge 59, Type (0, 0), BuildingBlock: KIFKEQ_clean_linker_1, # of connection points: 2
#     Edge 60, Type (0, 0), BuildingBlock: KIFKEQ_clean_linker_1, # of connection points: 2
#     Edge 61, Type (0, 0), BuildingBlock: KIFKEQ_clean_linker_1, # of connection points: 2
#     Edge 62, Type (0, 0), BuildingBlock: KIFKEQ_clean_linker_1, # of connection points: 2
#     Edge 63, Type (0, 0), BuildingBlock: KIFKEQ_clean_linker_1, # of connection points: 2
#     Edge 64, Type (0, 0), BuildingBlock: KIFKEQ_clean_linker_1, # of connection points: 2
#     Edge 65, Type (0, 0), BuildingBlock: KIFKEQ_clean_linker_1, # of connection points: 2
#     Edge 66, Type (0, 0), BuildingBlock: KIFKEQ_clean_linker_1, # of connection points: 2
#     Edge 67, Type (0, 0), BuildingBlock: KIFKEQ_clean_linker_1, # of connection points: 2
#     Edge 68, Type (0, 0), BuildingBlock: KIFKEQ_clean_linker_1, # of connection points: 2
#     Edge 69, Type (0, 0), BuildingBlock: KIFKEQ_clean_linker_1, # of connection points: 2
#     Edge 70, Type (0, 0), BuildingBlock: KIFKEQ_clean_linker_1, # of connection points: 2
#     Edge 71, Type (0, 0), BuildingBlock: KIFKEQ_clean_linker_1, # of connection points: 2
#     Edge 72, Type (0, 0), BuildingBlock: KIFKEQ_clean_linker_1, # of connection points: 2
#     Edge 73, Type (0, 0), BuildingBlock: KIFKEQ_clean_linker_1, # of connection points: 2
#     Edge 74, Type (0, 0), BuildingBlock: KIFKEQ_clean_linker_1, # of connection points: 2
#     Edge 75, Type (0, 0), BuildingBlock: KIFKEQ_clean_linker_1, # of connection points: 2
#     Edge 76, Type (0, 0), BuildingBlock: KIFKEQ_clean_linker_1, # of connection points: 2
#     Edge 77, Type (0, 0), BuildingBlock: KIFKEQ_clean_linker_1, # of connection points: 2
#     Edge 78, Type (0, 0), BuildingBlock: KIFKEQ_clean_linker_1, # of connection points: 2
#     Edge 79, Type (0, 0), BuildingBlock: KIFKEQ_clean_linker_1, # of connection points: 2
#     Edge 80, Type (0, 0), BuildingBlock: KIFKEQ_clean_linker_1, # of connection points: 2
#     Edge 81, Type (0, 0), BuildingBlock: KIFKEQ_clean_linker_1, # of connection points: 2
#     Edge 82, Type (0, 0), BuildingBlock: KIFKEQ_clean_linker_1, # of connection points: 2
#     Edge 83, Type (0, 0), BuildingBlock: KIFKEQ_clean_linker_1, # of connection points: 2
#     Edge 84, Type (0, 0), BuildingBlock: KIFKEQ_clean_linker_1, # of connection points: 2
#     Edge 85, Type (0, 0), BuildingBlock: KIFKEQ_clean_linker_1, # of connection points: 2
#     Edge 86, Type (0, 0), BuildingBlock: KIFKEQ_clean_linker_1, # of connection points: 2
#     Edge 87, Type (0, 0), BuildingBlock: KIFKEQ_clean_linker_1, # of connection points: 2
#     Edge 88, Type (0, 0), BuildingBlock: KIFKEQ_clean_linker_1, # of connection points: 2
#     Edge 89, Type (0, 0), BuildingBlock: KIFKEQ_clean_linker_1, # of connection points: 2
#     Edge 90, Type (0, 0), BuildingBlock: KIFKEQ_clean_linker_1, # of connection points: 2
#     Edge 91, Type (0, 0), BuildingBlock: KIFKEQ_clean_linker_1, # of connection points: 2
#     Edge 92, Type (0, 0), BuildingBlock: KIFKEQ_clean_linker_1, # of connection points: 2
#     Edge 93, Type (0, 0), BuildingBlock: KIFKEQ_clean_linker_1, # of connection points: 2
#     Edge 94, Type (0, 0), BuildingBlock: KIFKEQ_clean_linker_1, # of connection points: 2
#     Edge 95, Type (0, 0), BuildingBlock: KIFKEQ_clean_linker_1, # of connection points: 2
#     Edge 96, Type (0, 0), BuildingBlock: KIFKEQ_clean_linker_1, # of connection points: 2
#     Edge 97, Type (0, 0), BuildingBlock: KIFKEQ_clean_linker_1, # of connection points: 2
#     Edge 98, Type (0, 0), BuildingBlock: KIFKEQ_clean_linker_1, # of connection points: 2
#     Edge 99, Type (0, 0), BuildingBlock: KIFKEQ_clean_linker_1, # of connection points: 2
#     Edge 100, Type (0, 0), BuildingBlock: KIFKEQ_clean_linker_1, # of connection points: 2
#     Edge 101, Type (0, 0), BuildingBlock: KIFKEQ_clean_linker_1, # of connection points: 2
#     Edge 102, Type (0, 0), BuildingBlock: KIFKEQ_clean_linker_1, # of connection points: 2
#     Edge 103, Type (0, 0), BuildingBlock: KIFKEQ_clean_linker_1, # of connection points: 2
#     Edge 104, Type (0, 0), BuildingBlock: KIFKEQ_clean_linker_1, # of connection points: 2
#     Edge 105, Type (0, 0), BuildingBlock: KIFKEQ_clean_linker_1, # of connection points: 2
#     Edge 106, Type (0, 0), BuildingBlock: KIFKEQ_clean_linker_1, # of connection points: 2
#     Edge 107, Type (0, 0), BuildingBlock: KIFKEQ_clean_linker_1, # of connection points: 2
#     Edge 108, Type (0, 0), BuildingBlock: KIFKEQ_clean_linker_1, # of connection points: 2
#     Edge 109, Type (0, 0), BuildingBlock: KIFKEQ_clean_linker_1, # of connection points: 2
#     Edge 110, Type (0, 0), BuildingBlock: KIFKEQ_clean_linker_1, # of connection points: 2
#     Edge 111, Type (0, 0), BuildingBlock: KIFKEQ_clean_linker_1, # of connection points: 2
#     Edge 112, Type (0, 0), BuildingBlock: KIFKEQ_clean_linker_1, # of connection points: 2
#     Edge 113, Type (0, 0), BuildingBlock: KIFKEQ_clean_linker_1, # of connection points: 2
#     Edge 114, Type (0, 0), BuildingBlock: KIFKEQ_clean_linker_1, # of connection points: 2
#     Edge 115, Type (0, 0), BuildingBlock: KIFKEQ_clean_linker_1, # of connection points: 2
#     Edge 116, Type (0, 0), BuildingBlock: KIFKEQ_clean_linker_1, # of connection points: 2
#     Edge 117, Type (0, 0), BuildingBlock: KIFKEQ_clean_linker_1, # of connection points: 2
#     Edge 118, Type (0, 0), BuildingBlock: KIFKEQ_clean_linker_1, # of connection points: 2
#     Edge 119, Type (0, 0), BuildingBlock: KIFKEQ_clean_linker_1, # of connection points: 2
#     Edge 120, Type (0, 0), BuildingBlock: KIFKEQ_clean_linker_1, # of connection points: 2
#     Edge 121, Type (0, 0), BuildingBlock: KIFKEQ_clean_linker_1, # of connection points: 2
#     Edge 122, Type (0, 0), BuildingBlock: KIFKEQ_clean_linker_1, # of connection points: 2
#     Edge 123, Type (0, 0), BuildingBlock: KIFKEQ_clean_linker_1, # of connection points: 2
#     Edge 124, Type (0, 0), BuildingBlock: KIFKEQ_clean_linker_1, # of connection points: 2
#     Edge 125, Type (0, 0), BuildingBlock: KIFKEQ_clean_linker_1, # of connection points: 2
#     Edge 126, Type (0, 0), BuildingBlock: KIFKEQ_clean_linker_1, # of connection points: 2
#     Edge 127, Type (0, 0), BuildingBlock: KIFKEQ_clean_linker_1, # of connection points: 2
#     Edge 128, Type (0, 0), BuildingBlock: KIFKEQ_clean_linker_1, # of connection points: 2
#     Edge 129, Type (0, 0), BuildingBlock: KIFKEQ_clean_linker_1, # of connection points: 2
#     Edge 130, Type (0, 0), BuildingBlock: KIFKEQ_clean_linker_1, # of connection points: 2
#     Edge 131, Type (0, 0), BuildingBlock: KIFKEQ_clean_linker_1, # of connection points: 2
#     Edge 132, Type (0, 0), BuildingBlock: KIFKEQ_clean_linker_1, # of connection points: 2
#     Edge 133, Type (0, 0), BuildingBlock: KIFKEQ_clean_linker_1, # of connection points: 2
#     Edge 134, Type (0, 0), BuildingBlock: KIFKEQ_clean_linker_1, # of connection points: 2
#     Edge 135, Type (0, 0), BuildingBlock: KIFKEQ_clean_linker_1, # of connection points: 2
#     Edge 136, Type (0, 0), BuildingBlock: KIFKEQ_clean_linker_1, # of connection points: 2
#     Edge 137, Type (0, 0), BuildingBlock: KIFKEQ_clean_linker_1, # of connection points: 2
#     Edge 138, Type (0, 0), BuildingBlock: KIFKEQ_clean_linker_1, # of connection points: 2
#     Edge 139, Type (0, 0), BuildingBlock: KIFKEQ_clean_linker_1, # of connection points: 2
#     Edge 140, Type (0, 0), BuildingBlock: KIFKEQ_clean_linker_1, # of connection points: 2
#     Edge 141, Type (0, 0), BuildingBlock: KIFKEQ_clean_linker_1, # of connection points: 2
#     Edge 142, Type (0, 0), BuildingBlock: KIFKEQ_clean_linker_1, # of connection points: 2
#     Edge 143, Type (0, 0), BuildingBlock: KIFKEQ_clean_linker_1, # of connection points: 2
# Relax obj value: 0.000
# Max RMSD: 0.000
# Mean RMSD: 0.000
data_MOF--net-sst--node1-NAWXER_clean_sbu_0--edge1-KIFKEQ_clean_linker_1
_symmetry_space_group_name_H-M    P1
_symmetry_Int_Tables_number       1
_symmetry_cell_setting            triclinic
loop_
_symmetry_equiv_pos_as_xyz
'x, y, z'
_cell_length_a     59.328602
_cell_length_b     59.225614
_cell_length_c     59.385041
_cell_angle_alpha  97.150408
_cell_angle_beta   97.096792
_cell_angle_gamma 97.09235
loop_
_atom_site_label
_atom_site_type_symbol
_atom_site_fract_x
_atom_site_fract_y
_atom_site_fract_z
_atom_type_partial_charge
C0 C 0.17302 0.16598 0.40363 0.0
C1 C 0.15005 0.08228 0.39191 0.0
O2 O 0.16526 0.15727 0.38289 0.0
Zn3 Zn 0.15064 0.12515 0.36339 0.0
O4 O 0.17268 0.15329 0.41942 0.0
Zn5 Zn 0.1599 0.12439 0.39954 0.0
O6 O 0.18636 0.11966 0.3787 0.0
O7 O 0.17362 0.12181 0.34253 0.0
O8 O 0.15708 0.09497 0.41106 0.0
O9 O 0.1468 0.09162 0.37364 0.0
O10 O 0.11914 0.13011 0.35305 0.0
O11 O 0.12516 0.12908 0.39021 0.0
C12 C 0.18976 0.11894 0.35775 0.0
C13 C 0.11164 0.13119 0.37228 0.0
C14 C 0.89262 0.18 0.36007 0.0
C15 C 0.89547 0.09847 0.36873 0.0
O16 O 0.88974 0.16355 0.34352 0.0
Zn17 Zn 0.89579 0.13886 0.36207 0.0
O18 O 0.89901 0.17621 0.38045 0.0
Zn19 Zn 0.90646 0.14889 0.39868 0.0
O20 O 0.93983 0.15529 0.40897 0.0
O21 O 0.93178 0.1446 0.37171 0.0
O22 O 0.90115 0.11273 0.38724 0.0
O23 O 0.89117 0.106 0.34967 0.0
O24 O 0.86893 0.13966 0.38294 0.0
O25 O 0.88317 0.15107 0.4194 0.0
C26 C 0.94666 0.15052 0.38966 0.0
C27 C 0.8659 0.14455 0.40388 0.0
C28 C 0.897 0.93168 0.39144 0.0
C29 C 0.89631 0.85441 0.41361 0.0
O30 O 0.89399 0.91566 0.37425 0.0
Zn31 Zn 0.89206 0.87896 0.36811 0.0
O32 O 0.8999 0.92646 0.41165 0.0
Zn33 Zn 0.89735 0.8933 0.40396 0.0
O34 O 0.92778 0.88871 0.38998 0.0
O35 O 0.91941 0.87345 0.35366 0.0
O36 O 0.89983 0.87305 0.42758 0.0
O37 O 0.89316 0.8549 0.39198 0.0
O38 O 0.86062 0.86926 0.35232 0.0
O39 O 0.86234 0.88337 0.38878 0.0
C40 C 0.93433 0.88081 0.37121 0.0
C41 C 0.85043 0.87432 0.36956 0.0
C42 C 0.14603 0.90952 0.37498 0.0
C43 C 0.15189 0.82653 0.36718 0.0
O44 O 0.14819 0.89712 0.35641 0.0
Zn45 Zn 0.14735 0.86775 0.36864 0.0
O46 O 0.14446 0.90018 0.39316 0.0
Zn47 Zn 0.14406 0.86752 0.40469 0.0
O48 O 0.17176 0.87281 0.42747 0.0
O49 O 0.17853 0.87458 0.39184 0.0
O50 O 0.14907 0.83571 0.3871 0.0
O51 O 0.15108 0.83838 0.35068 0.0
O52 O 0.11298 0.86269 0.37556 0.0
O53 O 0.11298 0.86221 0.41261 0.0
C54 C 0.18587 0.87591 0.41322 0.0
C55 C 0.10191 0.86112 0.39262 0.0
C56 C 0.14818 0.92954 0.64648 0.0
C57 C 0.13735 0.84562 0.65227 0.0
O58 O 0.14569 0.91569 0.62774 0.0
Zn59 Zn 0.14147 0.88032 0.61483 0.0
O60 O 0.14938 0.92139 0.66546 0.0
Zn61 Zn 0.14526 0.88814 0.6525 0.0
O62 O 0.17618 0.88522 0.63918 0.0
O63 O 0.17015 0.87681 0.60156 0.0
O64 O 0.14239 0.86132 0.66962 0.0
O65 O 0.13689 0.85119 0.6321 0.0
O66 O 0.11042 0.87782 0.59745 0.0
O67 O 0.11144 0.88441 0.63512 0.0
C68 C 0.18403 0.88096 0.62024 0.0
C69 C 0.10005 0.88072 0.61498 0.0
C70 C 0.132 0.17477 0.60668 0.0
C71 C 0.14144 0.09692 0.6258 0.0
O72 O 0.13247 0.15735 0.59183 0.0
Zn73 Zn 0.1371 0.13573 0.61419 0.0
O74 O 0.13403 0.17276 0.62801 0.0
Zn75 Zn 0.13762 0.14742 0.65037 0.0
O76 O 0.1673 0.16045 0.66874 0.0
O77 O 0.16983 0.15085 0.63209 0.0
O78 O 0.14042 0.1118 0.64311 0.0
O79 O 0.14047 0.10319 0.60599 0.0
O80 O 0.10448 0.13443 0.62523 0.0
O81 O 0.10808 0.14726 0.66215 0.0
C82 C 0.17929 0.15975 0.65233 0.0
C83 C 0.09527 0.13956 0.6432 0.0
C84 C 0.90393 0.2022 0.66193 0.0
C85 C 0.88553 0.11752 0.65072 0.0
O86 O 0.8984 0.19244 0.64118 0.0
Zn87 Zn 0.88684 0.15977 0.62174 0.0
O88 O 0.90197 0.19038 0.67831 0.0
Zn89 Zn 0.8925 0.16013 0.65896 0.0
O90 O 0.92185 0.15817 0.64205 0.0
O91 O 0.91285 0.15665 0.60451 0.0
O92 O 0.89036 0.13003 0.67026 0.0
O93 O 0.88365 0.12712 0.63259 0.0
O94 O 0.85542 0.16196 0.60791 0.0
O95 O 0.85803 0.16122 0.64515 0.0
C96 C 0.92778 0.15691 0.62201 0.0
C97 C 0.84582 0.16183 0.62594 0.0
C98 C 0.89276 0.94666 0.62563 0.0
C99 C 0.88556 0.86211 0.61826 0.0
O100 O 0.8851 0.93289 0.60727 0.0
Zn101 Zn 0.88923 0.9041 0.61952 0.0
O102 O 0.89985 0.93865 0.64382 0.0
Zn103 Zn 0.90276 0.90694 0.6558 0.0
O104 O 0.93601 0.90789 0.66361 0.0
O105 O 0.92523 0.90543 0.6264 0.0
O106 O 0.8932 0.87289 0.63831 0.0
O107 O 0.88117 0.87328 0.60159 0.0
O108 O 0.86438 0.9034 0.64229 0.0
O109 O 0.88107 0.90791 0.67834 0.0
C110 C 0.94113 0.9065 0.6433 0.0
C111 C 0.86294 0.90518 0.66374 0.0
C112 C 0.36287 0.19633 0.14475 0.0
C113 C 0.38336 0.1188 0.15017 0.0
O114 O 0.38415 0.19464 0.14462 0.0
Zn115 Zn 0.40683 0.16936 0.14534 0.0
O116 O 0.3486 0.17869 0.14586 0.0
Zn117 Zn 0.37109 0.15711 0.1469 0.0
O118 O 0.39145 0.17063 0.1789 0.0
O119 O 0.42734 0.18133 0.17392 0.0
O120 O 0.36327 0.12443 0.14947 0.0
O121 O 0.40023 0.134 0.14873 0.0
O122 O 0.41649 0.16896 0.11494 0.0
O123 O 0.37971 0.15637 0.11342 0.0
C124 C 0.4121 0.17932 0.18718 0.0
C125 C 0.39699 0.16133 0.10315 0.0
C126 C 0.92222 0.37172 0.13811 0.0
C127 C 0.84201 0.37878 0.14867 0.0
O128 O 0.90674 0.35485 0.13852 0.0
Zn129 Zn 0.88219 0.37367 0.14331 0.0
O130 O 0.91747 0.39229 0.14112 0.0
Zn131 Zn 0.88946 0.41055 0.14705 0.0
O132 O 0.90056 0.42769 0.17752 0.0
O133 O 0.89491 0.39014 0.17724 0.0
O134 O 0.85464 0.39804 0.14905 0.0
O135 O 0.85081 0.36027 0.14591 0.0
O136 O 0.87933 0.3881 0.1117 0.0
O137 O 0.88766 0.42585 0.12004 0.0
C138 C 0.90148 0.41039 0.18816 0.0
C139 C 0.88233 0.40796 0.10513 0.0
C140 C 0.58309 0.91425 0.11755 0.0
C141 C 0.6039 0.83806 0.12613 0.0
O142 O 0.60477 0.91388 0.12126 0.0
Zn143 Zn 0.62817 0.88999 0.12801 0.0
O144 O 0.56914 0.89609 0.11737 0.0
Zn145 Zn 0.5926 0.87621 0.1225 0.0
O146 O 0.60657 0.88834 0.15743 0.0
O147 O 0.64316 0.90171 0.15906 0.0
O148 O 0.58383 0.84356 0.12287 0.0
O149 O 0.62134 0.85365 0.12813 0.0
O150 O 0.64522 0.89204 0.10248 0.0
O151 O 0.60886 0.87719 0.09192 0.0
C152 C 0.62575 0.89767 0.16921 0.0
C153 C 0.62873 0.88379 0.08665 0.0
C154 C 0.1734 0.63125 0.12202 0.0
C155 C 0.09015 0.62559 0.12396 0.0
O156 O 0.16378 0.6105 0.1215 0.0
Zn157 Zn 0.12952 0.59255 0.12069 0.0
O158 O 0.16117 0.64744 0.12284 0.0
Zn159 Zn 0.13171 0.62886 0.12279 0.0
O160 O 0.13547 0.61593 0.1551 0.0
O161 O 0.13204 0.57806 0.14817 0.0
O162 O 0.10434 0.64361 0.12424 0.0
O163 O 0.09737 0.60596 0.12252 0.0
O164 O 0.12454 0.57337 0.09091 0.0
O165 O 0.12561 0.61041 0.08886 0.0
C166 C 0.13496 0.59641 0.16243 0.0
C167 C 0.12338 0.58962 0.0789 0.0
C168 C 0.38245 0.93757 0.8967 0.0
C169 C 0.38528 0.85457 0.8934 0.0
O170 O 0.40244 0.93169 0.90063 0.0
Zn171 Zn 0.41909 0.90212 0.90118 0.0
O172 O 0.36482 0.92225 0.89131 0.0
Zn173 Zn 0.38155 0.89582 0.89295 0.0
O174 O 0.39459 0.9009 0.92838 0.0
O175 O 0.43251 0.90642 0.93379 0.0
O176 O 0.36711 0.86348 0.88854 0.0
O177 O 0.40468 0.86745 0.89765 0.0
O178 O 0.43642 0.90424 0.87478 0.0
O179 O 0.39895 0.89923 0.86447 0.0
C180 C 0.41355 0.9046 0.94198 0.0
C181 C 0.41922 0.90276 0.85923 0.0
C182 C 0.19406 0.40493 0.89343 0.0
C183 C 0.11288 0.41541 0.89251 0.0
O184 O 0.18031 0.38595 0.88918 0.0
Zn185 Zn 0.14402 0.37466 0.88486 0.0
O186 O 0.18592 0.42375 0.89685 0.0
Zn187 Zn 0.15355 0.41085 0.89332 0.0
O188 O 0.15139 0.3923 0.92222 0.0
O189 O 0.14084 0.35555 0.90907 0.0
O190 O 0.13022 0.43101 0.8972 0.0
O191 O 0.11597 0.39437 0.88766 0.0
O192 O 0.13821 0.36065 0.85286 0.0
O193 O 0.14641 0.39843 0.85717 0.0
C194 C 0.14625 0.37153 0.926 0.0
C195 C 0.141 0.37912 0.84403 0.0
C196 C 0.67428 0.1824 0.88368 0.0
C197 C 0.67874 0.09955 0.88442 0.0
O198 O 0.69239 0.17287 0.88484 0.0
Zn199 Zn 0.67782 0.14094 0.88413 0.0
O200 O 0.65481 0.16997 0.88253 0.0
Zn201 Zn 0.6412 0.13478 0.88106 0.0
O202 O 0.62609 0.13515 0.90806 0.0
O203 O 0.6639 0.14095 0.9161 0.0
O204 O 0.65836 0.10494 0.88282 0.0
O205 O 0.69574 0.11521 0.88523 0.0
O206 O 0.66035 0.1331 0.84976 0.0
O207 O 0.62303 0.12828 0.85086 0.0
C208 C 0.64408 0.13841 0.9228 0.0
C209 C 0.63973 0.12876 0.83932 0.0
C210 C 0.93605 0.64731 0.88946 0.0
C211 C 0.85443 0.63941 0.89487 0.0
O212 O 0.92219 0.62912 0.88925 0.0
Zn213 Zn 0.89489 0.64303 0.8916 0.0
O214 O 0.92866 0.66683 0.89119 0.0
Zn215 Zn 0.89647 0.67942 0.89404 0.0
O216 O 0.90196 0.69831 0.92442 0.0
O217 O 0.90084 0.66118 0.92577 0.0
O218 O 0.86338 0.6604 0.89555 0.0
O219 O 0.8667 0.6234 0.8922 0.0
O220 O 0.88822 0.65531 0.85939 0.0
O221 O 0.89107 0.69307 0.86571 0.0
C222 C 0.90291 0.68179 0.93618 0.0
C223 C 0.88723 0.67449 0.85168 0.0
C224 C 0.176 0.38964 0.14653 0.0
C225 C 0.09211 0.37442 0.13624 0.0
O226 O 0.1679 0.36832 0.14052 0.0
Zn227 Zn 0.1351 0.3468 0.13243 0.0
O228 O 0.16236 0.40454 0.14834 0.0
Zn229 Zn 0.13422 0.38302 0.14036 0.0
O230 O 0.13716 0.36489 0.16906 0.0
O231 O 0.1368 0.32792 0.1575 0.0
O232 O 0.10485 0.39376 0.14126 0.0
O233 O 0.10134 0.3561 0.13246 0.0
O234 O 0.13539 0.33389 0.1004 0.0
O235 O 0.1343 0.37122 0.10487 0.0
C236 C 0.13812 0.34449 0.17371 0.0
C237 C 0.13484 0.35246 0.09173 0.0
C238 C 0.18371 0.62772 0.88443 0.0
C239 C 0.10172 0.63261 0.87648 0.0
O240 O 0.17118 0.60805 0.87908 0.0
Zn241 Zn 0.13538 0.59428 0.87182 0.0
O242 O 0.17436 0.64589 0.88731 0.0
Zn243 Zn 0.14306 0.63094 0.88072 0.0
O244 O 0.14003 0.61212 0.90877 0.0
O245 O 0.1316 0.57504 0.89592 0.0
O246 O 0.11813 0.64911 0.88195 0.0
O247 O 0.10615 0.61199 0.87226 0.0
O248 O 0.13277 0.58079 0.83976 0.0
O249 O 0.14147 0.61858 0.84533 0.0
C250 C 0.13562 0.59133 0.91264 0.0
C251 C 0.13778 0.5995 0.83183 0.0
C252 C 0.41449 0.19174 0.90266 0.0
C253 C 0.40275 0.10712 0.88841 0.0
O254 O 0.43065 0.17952 0.90135 0.0
Zn255 Zn 0.41117 0.14941 0.89399 0.0
O256 O 0.3936 0.18217 0.89822 0.0
Zn257 Zn 0.37371 0.14947 0.88929 0.0
O258 O 0.35793 0.14878 0.9167 0.0
O259 O 0.39532 0.14826 0.92372 0.0
O260 O 0.38459 0.11676 0.88703 0.0
O261 O 0.4224 0.1195 0.89221 0.0
O262 O 0.39628 0.14906 0.86002 0.0
O263 O 0.35895 0.14934 0.85747 0.0
C264 C 0.37582 0.14799 0.9308 0.0
C265 C 0.37693 0.14884 0.84778 0.0
C266 C 0.94747 0.43812 0.90077 0.0
C267 C 0.86612 0.44744 0.90108 0.0
O268 O 0.93378 0.41923 0.89857 0.0
Zn269 Zn 0.89813 0.40741 0.89608 0.0
O270 O 0.9393 0.45706 0.90221 0.0
Zn271 Zn 0.90675 0.44448 0.9003 0.0
O272 O 0.90478 0.42989 0.93136 0.0
O273 O 0.89651 0.39211 0.92331 0.0
O274 O 0.88234 0.46394 0.90194 0.0
O275 O 0.87023 0.42663 0.89887 0.0
O276 O 0.89012 0.39085 0.86465 0.0
O277 O 0.89805 0.42835 0.86585 0.0
C278 C 0.90043 0.41024 0.93803 0.0
C279 C 0.89188 0.40838 0.85421 0.0
C280 C 0.68032 0.92853 0.88233 0.0
C281 C 0.67805 0.84452 0.8786 0.0
O282 O 0.69758 0.91794 0.88563 0.0
Zn283 Zn 0.68077 0.8866 0.88277 0.0
O284 O 0.66011 0.91713 0.87912 0.0
Zn285 Zn 0.64377 0.88277 0.87705 0.0
O286 O 0.62764 0.88311 0.90369 0.0
O287 O 0.66513 0.8866 0.91317 0.0
O288 O 0.65843 0.85154 0.87659 0.0
O289 O 0.69626 0.85912 0.88324 0.0
O290 O 0.66486 0.88011 0.84772 0.0
O291 O 0.62714 0.8773 0.846 0.0
C292 C 0.645 0.8851 0.91905 0.0
C293 C 0.64482 0.87639 0.83591 0.0
C294 C 0.92278 0.63696 0.13689 0.0
C295 C 0.83992 0.63946 0.12025 0.0
O296 O 0.907 0.62012 0.12958 0.0
Zn297 Zn 0.88114 0.63715 0.12991 0.0
O298 O 0.91729 0.65704 0.14234 0.0
Zn299 Zn 0.88639 0.6732 0.14183 0.0
O300 O 0.88468 0.68336 0.17421 0.0
O301 O 0.87929 0.64563 0.16587 0.0
O302 O 0.85159 0.65888 0.12913 0.0
O303 O 0.85018 0.62191 0.1174 0.0
O304 O 0.88875 0.65903 0.10482 0.0
O305 O 0.89199 0.69537 0.12036 0.0
C306 C 0.88067 0.66371 0.18061 0.0
C307 C 0.89247 0.68047 0.10307 0.0
C308 C 0.41385 0.95539 0.15964 0.0
C309 C 0.42442 0.87384 0.15982 0.0
O310 O 0.43327 0.94841 0.16358 0.0
Zn311 Zn 0.42171 0.91527 0.15932 0.0
O312 O 0.39561 0.94074 0.15427 0.0
Zn313 Zn 0.38478 0.90469 0.14896 0.0
O314 O 0.36491 0.90207 0.173 0.0
O315 O 0.40151 0.91375 0.18646 0.0
O316 O 0.40381 0.87755 0.15447 0.0
O317 O 0.44076 0.89056 0.16363 0.0
O318 O 0.41149 0.90938 0.12374 0.0
O319 O 0.37421 0.89853 0.11556 0.0
C320 C 0.38073 0.90874 0.18999 0.0
C321 C 0.39362 0.90327 0.10884 0.0
C322 C 0.60167 0.16563 0.13294 0.0
C323 C 0.58986 0.08158 0.11927 0.0
O324 O 0.62047 0.15695 0.13411 0.0
Zn325 Zn 0.63129 0.12368 0.13019 0.0
O326 O 0.58262 0.1524 0.1289 0.0
Zn327 Zn 0.59513 0.12354 0.12649 0.0
O328 O 0.61129 0.12262 0.16093 0.0
O329 O 0.64826 0.12213 0.15986 0.0
O330 O 0.57442 0.09465 0.12021 0.0
O331 O 0.61104 0.09044 0.1225 0.0
O332 O 0.64756 0.12511 0.10398 0.0
O333 O 0.61018 0.12428 0.09526 0.0
C334 C 0.63146 0.12186 0.17124 0.0
C335 C 0.63021 0.12507 0.08908 0.0
C336 C 0.65655 0.67222 0.85488 0.0
C337 C 0.63519 0.58831 0.84304 0.0
O338 O 0.65171 0.65911 0.83576 0.0
Zn339 Zn 0.64417 0.63023 0.84778 0.0
O340 O 0.65462 0.6637 0.87343 0.0
Zn341 Zn 0.64525 0.63116 0.88394 0.0
O342 O 0.67302 0.62811 0.90332 0.0
O343 O 0.67646 0.62613 0.86649 0.0
O344 O 0.63729 0.5976 0.86404 0.0
O345 O 0.6376 0.601 0.82746 0.0
O346 O 0.61199 0.63362 0.86005 0.0
O347 O 0.61804 0.63524 0.89767 0.0
C348 C 0.68518 0.62553 0.88724 0.0
C349 C 0.60447 0.63553 0.87945 0.0
C350 C 0.39623 0.69045 0.91682 0.0
C351 C 0.40146 0.61063 0.92941 0.0
O352 O 0.39416 0.67622 0.89839 0.0
Zn353 Zn 0.39521 0.64093 0.88796 0.0
O354 O 0.40092 0.68354 0.93609 0.0
Zn355 Zn 0.40051 0.65097 0.92453 0.0
O356 O 0.43115 0.65012 0.90924 0.0
O357 O 0.42175 0.64074 0.87182 0.0
O358 O 0.40381 0.62784 0.94511 0.0
O359 O 0.39829 0.61372 0.90831 0.0
O360 O 0.36456 0.63215 0.8714 0.0
O361 O 0.36555 0.64114 0.90887 0.0
C362 C 0.43709 0.64593 0.88928 0.0
C363 C 0.35413 0.63459 0.88885 0.0
C364 C 0.41516 0.44532 0.93713 0.0
C365 C 0.41025 0.36126 0.92705 0.0
O366 O 0.4122 0.43577 0.91622 0.0
Zn367 Zn 0.40649 0.40248 0.89674 0.0
O368 O 0.41523 0.43289 0.95313 0.0
Zn369 Zn 0.41082 0.40312 0.93332 0.0
O370 O 0.4417 0.40404 0.91759 0.0
O371 O 0.433 0.40364 0.88026 0.0
O372 O 0.41166 0.37436 0.94604 0.0
O373 O 0.40774 0.36976 0.90822 0.0
O374 O 0.37529 0.40087 0.88079 0.0
O375 O 0.37595 0.40048 0.91791 0.0
C376 C 0.44798 0.40381 0.89766 0.0
C377 C 0.36459 0.40009 0.89802 0.0
C378 C 0.6459 0.42294 0.84272 0.0
C379 C 0.66074 0.34792 0.8641 0.0
O380 O 0.64804 0.40533 0.82893 0.0
Zn381 Zn 0.65381 0.38586 0.85271 0.0
O382 O 0.64862 0.4224 0.86439 0.0
Zn383 Zn 0.65643 0.39858 0.88793 0.0
O384 O 0.68552 0.41336 0.90485 0.0
O385 O 0.68754 0.40219 0.86845 0.0
O386 O 0.66044 0.36295 0.88154 0.0
O387 O 0.65773 0.35374 0.84419 0.0
O388 O 0.62139 0.38467 0.86664 0.0
O389 O 0.62996 0.39834 0.90344 0.0
C390 C 0.69722 0.41213 0.88833 0.0
C391 C 0.61493 0.39047 0.88617 0.0
C392 C 0.62858 0.42135 0.14068 0.0
C393 C 0.61988 0.33841 0.14296 0.0
O394 O 0.62325 0.40542 0.12369 0.0
Zn395 Zn 0.62523 0.37969 0.14079 0.0
O396 O 0.6336 0.41617 0.16087 0.0
Zn397 Zn 0.63568 0.38599 0.1772 0.0
O398 O 0.66848 0.38771 0.18857 0.0
O399 O 0.66128 0.38165 0.15086 0.0
O400 O 0.62683 0.35051 0.16262 0.0
O401 O 0.61671 0.34839 0.12529 0.0
O402 O 0.59821 0.3827 0.1613 0.0
O403 O 0.61257 0.38958 0.198 0.0
C404 C 0.67569 0.38458 0.16926 0.0
C405 C 0.59525 0.38642 0.18239 0.0
C406 C 0.62614 0.67172 0.12415 0.0
C407 C 0.62388 0.58872 0.12322 0.0
O408 O 0.62626 0.66084 0.1041 0.0
Zn409 Zn 0.62494 0.62599 0.088 0.0
O410 O 0.62585 0.66071 0.14121 0.0
Zn411 Zn 0.62556 0.63039 0.12442 0.0
O412 O 0.65849 0.63232 0.11337 0.0
O413 O 0.65411 0.62652 0.07559 0.0
O414 O 0.62522 0.60401 0.14056 0.0
O415 O 0.62336 0.59469 0.10313 0.0
O416 O 0.59541 0.6222 0.06791 0.0
O417 O 0.59227 0.62515 0.10479 0.0
C418 C 0.66727 0.63039 0.09469 0.0
C419 C 0.58288 0.62261 0.08385 0.0
C420 C 0.40242 0.70207 0.14076 0.0
C421 C 0.39109 0.61833 0.13689 0.0
O422 O 0.39523 0.69193 0.12026 0.0
Zn423 Zn 0.38409 0.65696 0.10353 0.0
O424 O 0.40394 0.69013 0.15708 0.0
Zn425 Zn 0.39469 0.66005 0.1393 0.0
O426 O 0.42126 0.65719 0.11798 0.0
O427 O 0.40605 0.65354 0.08164 0.0
O428 O 0.39741 0.63339 0.15451 0.0
O429 O 0.38538 0.62479 0.11738 0.0
O430 O 0.3514 0.65604 0.09265 0.0
O431 O 0.35827 0.65762 0.13012 0.0
C432 C 0.42358 0.65456 0.09666 0.0
C433 C 0.34392 0.65621 0.11182 0.0
C434 C 0.39397 0.44921 0.14729 0.0
C435 C 0.378 0.36555 0.14633 0.0
O436 O 0.39204 0.43402 0.12971 0.0
Zn437 Zn 0.38797 0.40713 0.14552 0.0
O438 O 0.39343 0.4429 0.16713 0.0
Zn439 Zn 0.38908 0.41209 0.18249 0.0
O440 O 0.41905 0.41229 0.20124 0.0
O441 O 0.42088 0.40785 0.16416 0.0
O442 O 0.38067 0.37732 0.16633 0.0
O443 O 0.38124 0.37571 0.12908 0.0
O444 O 0.35634 0.41119 0.15778 0.0
O445 O 0.36065 0.41588 0.19562 0.0
C446 C 0.43086 0.40979 0.18483 0.0
C447 C 0.34776 0.41441 0.17648 0.0
C448 C 0.88955 0.69498 0.63056 0.0
C449 C 0.9008 0.61583 0.64112 0.0
O450 O 0.90848 0.68686 0.63211 0.0
Zn451 Zn 0.89613 0.6558 0.63639 0.0
O452 O 0.87106 0.68203 0.63235 0.0
Zn453 Zn 0.86007 0.6472 0.63667 0.0
O454 O 0.84799 0.65069 0.66577 0.0
O455 O 0.88543 0.66095 0.66982 0.0
O456 O 0.87985 0.61947 0.6403 0.0
O457 O 0.91619 0.63221 0.63929 0.0
O458 O 0.87605 0.64393 0.60351 0.0
O459 O 0.83955 0.63671 0.60773 0.0
C460 C 0.86681 0.65832 0.67873 0.0
C461 C 0.85504 0.63752 0.5947 0.0
C462 C 0.44091 0.89452 0.64238 0.0
C463 C 0.35724 0.89139 0.63908 0.0
O464 O 0.42617 0.87647 0.63705 0.0
Zn465 Zn 0.39921 0.89136 0.64189 0.0
O466 O 0.43426 0.91393 0.64807 0.0
Zn467 Zn 0.40337 0.92817 0.65141 0.0
O468 O 0.40801 0.94029 0.68406 0.0
O469 O 0.40534 0.9025 0.6781 0.0
O470 O 0.36851 0.91162 0.64502 0.0
O471 O 0.36814 0.87431 0.63599 0.0
O472 O 0.39836 0.91104 0.61432 0.0
O473 O 0.40417 0.9482 0.62728 0.0
C474 C 0.40857 0.92134 0.69203 0.0
C475 C 0.40052 0.93193 0.6105 0.0
C476 C 0.09447 0.42041 0.6302 0.0
C477 C 0.10542 0.3386 0.61641 0.0
O478 O 0.11534 0.41664 0.63405 0.0
Zn479 Zn 0.13475 0.38842 0.63341 0.0
O480 O 0.07851 0.40339 0.62477 0.0
Zn481 Zn 0.09826 0.37902 0.62518 0.0
O482 O 0.11125 0.38087 0.66095 0.0
O483 O 0.14889 0.38963 0.66482 0.0
O484 O 0.08614 0.34604 0.61586 0.0
O485 O 0.12386 0.35278 0.62281 0.0
O486 O 0.15352 0.39485 0.60979 0.0
O487 O 0.11645 0.38603 0.59707 0.0
C488 C 0.13081 0.38481 0.67374 0.0
C489 C 0.13705 0.39178 0.5933 0.0
C490 C 0.67486 0.15496 0.6294 0.0
C491 C 0.59271 0.15969 0.6278 0.0
O492 O 0.66289 0.13519 0.6285 0.0
Zn493 Zn 0.62716 0.12136 0.62704 0.0
O494 O 0.66488 0.17277 0.63025 0.0
Zn495 Zn 0.63374 0.1574 0.62877 0.0
O496 O 0.63325 0.14497 0.66147 0.0
O497 O 0.62702 0.1071 0.65444 0.0
O498 O 0.60903 0.17595 0.62859 0.0
O499 O 0.59714 0.13893 0.62693 0.0
O500 O 0.62148 0.10134 0.59807 0.0
O501 O 0.62823 0.13815 0.59472 0.0
C502 C 0.6304 0.12542 0.66872 0.0
C503 C 0.62401 0.11702 0.58545 0.0
C504 C 0.88306 0.43166 0.39316 0.0
C505 C 0.88207 0.34796 0.37444 0.0
O506 O 0.90267 0.42472 0.39608 0.0
Zn507 Zn 0.91763 0.39372 0.39371 0.0
O508 O 0.86499 0.41693 0.38782 0.0
Zn509 Zn 0.88066 0.38952 0.38564 0.0
O510 O 0.89266 0.38786 0.42055 0.0
O511 O 0.93047 0.39299 0.42559 0.0
O512 O 0.86456 0.35841 0.3745 0.0
O513 O 0.90207 0.35931 0.38128 0.0
O514 O 0.93686 0.39962 0.36989 0.0
O515 O 0.89956 0.39669 0.35836 0.0
C516 C 0.91171 0.38951 0.43379 0.0
C517 C 0.92029 0.40051 0.3543 0.0
C518 C 0.67909 0.85997 0.37023 0.0
C519 C 0.59577 0.85833 0.37154 0.0
O520 O 0.66429 0.8419 0.36585 0.0
Zn521 Zn 0.63725 0.85719 0.37099 0.0
O522 O 0.67249 0.87946 0.37562 0.0
Zn523 Zn 0.64227 0.8943 0.37985 0.0
O524 O 0.64757 0.90723 0.41225 0.0
O525 O 0.64398 0.86934 0.40678 0.0
O526 O 0.60761 0.87835 0.37571 0.0
O527 O 0.60585 0.84066 0.3682 0.0
O528 O 0.63482 0.87635 0.34281 0.0
O529 O 0.64168 0.91361 0.35547 0.0
C530 C 0.64742 0.88834 0.42043 0.0
C531 C 0.63694 0.89724 0.33882 0.0
C532 C 0.17458 0.66224 0.3742 0.0
C533 C 0.18456 0.58251 0.38403 0.0
O534 O 0.19353 0.65475 0.37921 0.0
Zn535 Zn 0.18088 0.6229 0.38035 0.0
O536 O 0.15571 0.64864 0.37252 0.0
Zn537 Zn 0.14425 0.61345 0.37506 0.0
O538 O 0.12782 0.61524 0.40147 0.0
O539 O 0.16513 0.62558 0.41097 0.0
O540 O 0.16365 0.58616 0.38062 0.0
O541 O 0.20064 0.59909 0.38488 0.0
O542 O 0.16544 0.61228 0.34555 0.0
O543 O 0.1281 0.60272 0.34422 0.0
C544 C 0.14504 0.62216 0.41685 0.0
C545 C 0.14564 0.60509 0.3339 0.0
C546 C 0.44224 0.13748 0.39094 0.0
C547 C 0.35884 0.12933 0.36831 0.0
O548 O 0.42868 0.11878 0.3843 0.0
Zn549 Zn 0.40037 0.13218 0.38119 0.0
O550 O 0.43395 0.15645 0.39405 0.0
Zn551 Zn 0.40106 0.16834 0.3903 0.0
O552 O 0.39681 0.17971 0.42149 0.0
O553 O 0.39597 0.14213 0.41605 0.0
O554 O 0.36807 0.15 0.37601 0.0
O555 O 0.37122 0.11325 0.36832 0.0
O556 O 0.40675 0.15296 0.35479 0.0
O557 O 0.40594 0.18937 0.36804 0.0
C558 C 0.39477 0.16063 0.42929 0.0
C559 C 0.40869 0.17416 0.35184 0.0
C560 C 0.69444 0.90264 0.64842 0.0
C561 C 0.61056 0.89924 0.63331 0.0
O562 O 0.68345 0.8826 0.64067 0.0
Zn563 Zn 0.64915 0.86632 0.62841 0.0
O564 O 0.68368 0.91999 0.64954 0.0
Zn565 Zn 0.65292 0.90304 0.63887 0.0
O566 O 0.64977 0.88191 0.66533 0.0
O567 O 0.64499 0.84506 0.65063 0.0
O568 O 0.62488 0.91751 0.6394 0.0
O569 O 0.61794 0.88005 0.62869 0.0
O570 O 0.64931 0.85551 0.59612 0.0
O571 O 0.65374 0.89333 0.60333 0.0
C572 C 0.64673 0.86064 0.66785 0.0
C573 C 0.65214 0.87493 0.58905 0.0
C574 C 0.6959 0.13938 0.39712 0.0
C575 C 0.61243 0.13962 0.38708 0.0
O576 O 0.68408 0.11947 0.39071 0.0
Zn577 Zn 0.649 0.10421 0.38123 0.0
O578 O 0.68569 0.15708 0.39873 0.0
Zn579 Zn 0.65434 0.14103 0.39074 0.0
O580 O 0.65192 0.12121 0.41809 0.0
O581 O 0.64513 0.08408 0.40476 0.0
O582 O 0.62773 0.15712 0.39321 0.0
O583 O 0.61847 0.11979 0.38202 0.0
O584 O 0.64732 0.09196 0.34889 0.0
O585 O 0.65142 0.12984 0.3548 0.0
C586 C 0.64833 0.10025 0.4216 0.0
C587 C 0.64887 0.111 0.34096 0.0
C588 C 0.89052 0.68627 0.40361 0.0
C589 C 0.8846 0.60232 0.38845 0.0
O590 O 0.90735 0.67485 0.40376 0.0
Zn591 Zn 0.88908 0.64463 0.39393 0.0
O592 O 0.87007 0.67593 0.39688 0.0
Zn593 Zn 0.85237 0.64199 0.3851 0.0
O594 O 0.83242 0.639 0.40932 0.0
O595 O 0.86953 0.64247 0.42162 0.0
O596 O 0.86534 0.60974 0.38416 0.0
O597 O 0.90287 0.61662 0.3944 0.0
O598 O 0.87833 0.64527 0.35848 0.0
O599 O 0.84076 0.64372 0.35281 0.0
C600 C 0.84877 0.64049 0.4258 0.0
C601 C 0.85979 0.64512 0.34486 0.0
C602 C 0.43271 0.87523 0.39459 0.0
C603 C 0.35323 0.88122 0.40684 0.0
O604 O 0.41684 0.85899 0.39544 0.0
Zn605 Zn 0.39245 0.87765 0.39963 0.0
O606 O 0.42826 0.896 0.39652 0.0
Zn607 Zn 0.39926 0.91384 0.401 0.0
O608 O 0.40911 0.93398 0.42977 0.0
O609 O 0.40315 0.89716 0.43342 0.0
O610 O 0.36511 0.90063 0.40598 0.0
O611 O 0.36222 0.86288 0.40344 0.0
O612 O 0.38596 0.88968 0.36693 0.0
O613 O 0.39412 0.92742 0.37319 0.0
C614 C 0.40856 0.91828 0.44256 0.0
C615 C 0.38723 0.90906 0.35928 0.0
C616 C 0.19264 0.41375 0.3853 0.0
C617 C 0.19253 0.33376 0.39951 0.0
O618 O 0.21016 0.40389 0.39007 0.0
Zn619 Zn 0.19357 0.37354 0.39133 0.0
O620 O 0.17254 0.40221 0.38318 0.0
Zn621 Zn 0.15696 0.36815 0.38572 0.0
O622 O 0.13963 0.37357 0.41085 0.0
O623 O 0.17715 0.38038 0.42137 0.0
O624 O 0.17246 0.33931 0.39485 0.0
O625 O 0.21009 0.34823 0.39883 0.0
O626 O 0.17837 0.36202 0.3563 0.0
O627 O 0.14079 0.35715 0.35519 0.0
C628 C 0.15673 0.37967 0.42653 0.0
C629 C 0.15823 0.35628 0.34483 0.0
C630 C 0.42891 0.18098 0.64549 0.0
C631 C 0.34684 0.18639 0.64741 0.0
O632 O 0.41563 0.16172 0.64153 0.0
Zn633 Zn 0.37996 0.14855 0.63727 0.0
O634 O 0.42034 0.19965 0.64852 0.0
Zn635 Zn 0.38808 0.18573 0.64503 0.0
O636 O 0.38772 0.16745 0.67388 0.0
O637 O 0.37844 0.13009 0.66238 0.0
O638 O 0.36248 0.20356 0.64911 0.0
O639 O 0.35168 0.16604 0.6427 0.0
O640 O 0.37371 0.13529 0.60463 0.0
O641 O 0.38247 0.17296 0.60964 0.0
C642 C 0.38354 0.14694 0.67859 0.0
C643 C 0.37741 0.1539 0.59616 0.0
C644 C 0.92433 0.45068 0.65112 0.0
C645 C 0.93303 0.36961 0.65605 0.0
O646 O 0.94312 0.44319 0.65694 0.0
Zn647 Zn 0.93044 0.41048 0.65393 0.0
O648 O 0.90571 0.43649 0.64618 0.0
Zn649 Zn 0.89389 0.40066 0.64364 0.0
O650 O 0.87392 0.3988 0.6676 0.0
O651 O 0.91042 0.41029 0.68119 0.0
O652 O 0.91264 0.37312 0.64915 0.0
O653 O 0.94919 0.38645 0.66112 0.0
O654 O 0.91984 0.40189 0.61759 0.0
O655 O 0.88211 0.3932 0.61112 0.0
C656 C 0.88962 0.40535 0.68464 0.0
C657 C 0.90126 0.39582 0.60347 0.0
C658 C 0.10938 0.67262 0.63622 0.0
C659 C 0.09438 0.58765 0.61735 0.0
O660 O 0.12753 0.66304 0.63535 0.0
Zn661 Zn 0.13659 0.62937 0.62786 0.0
O662 O 0.08987 0.66015 0.63139 0.0
Zn663 Zn 0.1003 0.63 0.62513 0.0
O664 O 0.11692 0.62525 0.65794 0.0
O665 O 0.15402 0.62555 0.65677 0.0
O666 O 0.07901 0.60085 0.61868 0.0
O667 O 0.11554 0.59649 0.62002 0.0
O668 O 0.15144 0.63072 0.60073 0.0
O669 O 0.11418 0.63135 0.59348 0.0
C670 C 0.13695 0.62343 0.66778 0.0
C671 C 0.1338 0.63144 0.58646 0.0
H672 H 0.13555 0.93782 0.41066 0.0
H673 H 0.15489 0.93824 0.34289 0.0
H674 H 0.13531 0.97896 0.4146 0.0
H675 H 0.15519 0.97997 0.34711 0.0
H676 H 0.13221 0.05117 0.35413 0.0
H677 H 0.13059 1.00958 0.34949 0.0
H678 H 0.16124 1.01402 0.42007 0.0
H679 H 0.16237 0.05569 0.42487 0.0
C680 C 0.13987 0.9467 0.39656 0.0
C681 C 0.14535 0.93465 0.37644 0.0
C682 C 0.13986 0.97043 0.39893 0.0
C683 C 0.14544 0.98292 0.3813 0.0
C684 C 0.15062 0.97088 0.36098 0.0
C685 C 0.15054 0.94697 0.35856 0.0
C686 C 0.13844 0.04329 0.36876 0.0
C687 C 0.14738 0.05682 0.38993 0.0
C688 C 0.1377 0.01941 0.366 0.0
C689 C 0.14591 1.00838 0.38432 0.0
C690 C 0.15451 0.02188 0.40562 0.0
C691 C 0.15519 0.0458 0.40841 0.0
H692 H 0.07977 0.14444 0.3406 0.0
H693 H 0.08921 0.12708 0.40932 0.0
H694 H 0.04086 0.15171 0.34524 0.0
H695 H 0.05022 0.13342 0.41368 0.0
H696 H 0.98465 0.16345 0.42283 0.0
H697 H 0.02476 0.16069 0.41854 0.0
H698 H 1.00422 0.13279 0.34713 0.0
H699 H 0.96471 0.13639 0.35119 0.0
C700 C 0.07349 0.14199 0.35662 0.0
C701 C 0.08765 0.13512 0.37453 0.0
C702 C 0.05111 0.14609 0.3593 0.0
C703 C 0.04219 0.14318 0.37989 0.0
C704 C 0.05646 0.13631 0.39775 0.0
C705 C 0.07885 0.13244 0.39514 0.0
C706 C 0.98878 0.15696 0.40619 0.0
C707 C 0.97137 0.15018 0.38741 0.0
C708 C 1.01179 0.15519 0.40373 0.0
C709 C 0.01792 0.14644 0.38245 0.0
C710 C 1.00043 0.14 0.36367 0.0
C711 C 0.97759 0.14193 0.36609 0.0
H712 H 0.88158 0.94751 0.35181 0.0
H713 H 0.91186 0.97082 0.42206 0.0
H714 H 0.88014 0.98717 0.3454 0.0
H715 H 0.91147 1.01052 0.41546 0.0
H716 H 0.88733 0.07784 0.40569 0.0
H717 H 0.88705 0.03778 0.41043 0.0
H718 H 0.90101 0.02241 0.34082 0.0
H719 H 0.90018 0.06277 0.33581 0.0
C720 C 0.88815 0.96114 0.36586 0.0
C721 C 0.89672 0.95595 0.38751 0.0
C722 C 0.88746 0.98396 0.36213 0.0
C723 C 0.89557 1.00226 0.37989 0.0
C724 C 0.90453 0.99699 0.40144 0.0
C725 C 0.90492 0.97417 0.40525 0.0
C726 C 0.89024 0.06591 0.39131 0.0
C727 C 0.89393 0.07354 0.3704 0.0
C728 C 0.89029 0.04287 0.39411 0.0
C729 C 0.89442 0.0267 0.37619 0.0
C730 C 0.8976 0.03424 0.35501 0.0
C731 C 0.89719 0.05739 0.3521 0.0
H732 H 0.96989 0.90356 0.40206 0.0
H733 H 0.95455 0.85253 0.34164 0.0
H734 H 1.00951 0.8966 0.40669 0.0
H735 H 0.99453 0.84518 0.34653 0.0
H736 H 0.07416 0.8575 0.35172 0.0
H737 H 0.03375 0.86179 0.34523 0.0
H738 H 0.03151 0.86732 0.41812 0.0
H739 H 0.07226 0.8636 0.42471 0.0
C740 C 0.97502 0.8909 0.38963 0.0
C741 C 0.95899 0.87855 0.37149 0.0
C742 C 0.99775 0.88671 0.39248 0.0
C743 C 1.00518 0.86998 0.37731 0.0
C744 C 0.9894 0.85821 0.35856 0.0
C745 C 0.96652 0.86247 0.35566 0.0
C746 C 0.06504 0.85938 0.36641 0.0
C747 C 0.07658 0.86041 0.3888 0.0
C748 C 0.04177 0.86174 0.36262 0.0
C749 C 0.02937 0.8652 0.38113 0.0
C750 C 0.04064 0.86517 0.40347 0.0
C751 C 0.06397 0.86281 0.40727 0.0
H752 H 0.16104 0.96739 0.68046 0.0
H753 H 0.13481 0.94839 0.60857 0.0
H754 H 0.16105 1.00806 0.67599 0.0
H755 H 0.13391 0.98823 0.60432 0.0
H756 H 0.15234 0.0621 0.59565 0.0
H757 H 0.1559 0.0227 0.60183 0.0
H758 H 0.13807 0.03723 0.67004 0.0
H759 H 0.13556 0.07683 0.66414 0.0
C760 C 0.1552 0.97183 0.66379 0.0
C761 C 0.14816 0.95452 0.64489 0.0
C762 C 0.15508 0.99517 0.66118 0.0
C763 C 0.1477 1.00171 0.63966 0.0
C764 C 0.14036 0.98422 0.621 0.0
C765 C 0.14072 0.96114 0.62353 0.0
C766 C 0.14922 0.0569 0.61196 0.0
C767 C 0.14356 0.0727 0.6293 0.0
C768 C 0.15114 0.03418 0.61554 0.0
C769 C 0.1471 0.02645 0.63645 0.0
C770 C 0.14165 0.04241 0.65384 0.0
C771 C 0.14001 0.06518 0.65036 0.0
H772 H 0.96342 0.18619 0.64562 0.0
H773 H 0.94681 0.12444 0.5966 0.0
H774 H 1.0036 0.18063 0.65075 0.0
H775 H 0.98702 0.11805 0.60235 0.0
H776 H 0.06505 0.12533 0.6042 0.0
H777 H 0.02502 0.13011 0.59718 0.0
H778 H 0.02742 0.15708 0.66864 0.0
H779 H 0.06817 0.15329 0.67548 0.0
C780 C 0.96857 0.17161 0.63561 0.0
C781 C 0.9522 0.15592 0.62046 0.0
C782 C 0.99151 0.16815 0.63887 0.0
C783 C 0.99861 0.14861 0.62739 0.0
C784 C 0.98228 0.13338 0.61142 0.0
C785 C 0.95927 0.13707 0.60792 0.0
C786 C 0.05708 0.1321 0.61857 0.0
C787 C 0.06998 0.13912 0.64044 0.0
C788 C 0.03395 0.13474 0.61449 0.0
C789 C 0.0229 0.14426 0.6322 0.0
C790 C 0.03549 0.15022 0.65439 0.0
C791 C 0.0588 0.14778 0.65844 0.0
H792 H 0.87536 0.08825 0.61072 0.0
H793 H 0.89221 0.08894 0.68374 0.0
H794 H 0.87697 0.0475 0.60421 0.0
H795 H 0.8928 0.04737 0.67722 0.0
H796 H 0.91945 0.98018 0.65613 0.0
H797 H 0.91597 0.02082 0.66273 0.0
H798 H 0.85987 1.01039 0.60693 0.0
H799 H 0.86408 0.96968 0.59981 0.0
C800 C 0.87906 0.07963 0.62553 0.0
C801 C 0.88384 0.09204 0.64782 0.0
C802 C 0.8798 0.05605 0.62173 0.0
C803 C 0.88513 0.04397 0.6401 0.0
C804 C 0.88907 0.05616 0.66256 0.0
C805 C 0.88851 0.07997 0.66638 0.0
C806 C 0.90653 0.98662 0.64508 0.0
C807 C 0.89211 0.97173 0.62735 0.0
C808 C 0.90432 1.00993 0.64909 0.0
C809 C 0.88742 0.019 0.63564 0.0
C810 C 0.87325 1.00414 0.61755 0.0
C811 C 0.87567 0.98079 0.61336 0.0
H812 H 0.07233 0.90423 0.58878 0.0
H813 H 0.07207 0.85793 0.63935 0.0
H814 H 0.03363 0.9116 0.59523 0.0
H815 H 0.0335 0.86466 0.64543 0.0
H816 H 0.97941 0.90315 0.67339 0.0
H817 H 1.01703 0.89583 0.66394 0.0
H818 H 0.99347 0.89639 0.59223 0.0
H819 H 0.95628 0.9043 0.60167 0.0
C820 C 0.06363 0.895 0.6006 0.0
C821 C 0.07504 0.88043 0.61347 0.0
C822 C 0.04158 0.89934 0.6045 0.0
C823 C 0.03065 0.88913 0.62129 0.0
C824 C 0.04162 0.87336 0.63291 0.0
C825 C 0.06356 0.86919 0.62914 0.0
C826 C 0.98236 0.90198 0.65567 0.0
C827 C 0.96476 0.90423 0.63834 0.0
C828 C 1.00385 0.89754 0.65017 0.0
C829 C 1.00821 0.89518 0.62723 0.0
C830 C 0.99082 0.89819 0.61005 0.0
C831 C 0.96941 0.90265 0.61553 0.0
H832 H 0.42896 0.16851 0.07396 0.0
H833 H 0.35644 0.14891 0.07479 0.0
H834 H 0.42195 0.16475 0.03211 0.0
H835 H 0.3496 0.14496 0.03321 0.0
H836 H 0.34575 0.16446 0.95878 0.0
H837 H 0.35042 0.16793 1.00088 0.0
H838 H 0.41026 0.1332 1.00022 0.0
H839 H 0.40573 0.12987 0.95879 0.0
C840 C 0.41159 0.16334 0.06527 0.0
C841 C 0.39335 0.15889 0.07776 0.0
C842 C 0.40755 0.16113 0.0413 0.0
C843 C 0.38518 0.1545 0.02935 0.0
C844 C 0.36695 0.15031 0.04188 0.0
C845 C 0.37098 0.1524 0.06576 0.0
C846 C 0.35959 0.15724 0.9677 0.0
C847 C 0.37547 0.14712 0.95553 0.0
C848 C 0.36237 0.15931 0.99175 0.0
C849 C 0.38105 0.15128 1.00388 0.0
C850 C 0.39612 0.14015 0.99149 0.0
C851 C 0.39336 0.13809 0.96769 0.0
H852 H 0.89536 0.44595 0.96947 0.0
H853 H 0.89908 0.37308 0.96192 0.0
H854 H 0.88915 0.44561 1.0089 0.0
H855 H 0.89394 0.37288 1.00216 0.0
H856 H 0.86358 0.37527 0.06886 0.0
H857 H 0.8675 0.3756 0.02854 0.0
H858 H 0.90693 0.44341 0.04541 0.0
H859 H 0.90202 0.4434 0.08547 0.0
C860 C 0.89525 0.42985 0.97636 0.0
C861 C 0.89791 0.40954 0.96251 0.0
C862 C 0.89176 0.42969 0.99914 0.0
C863 C 0.89115 0.40928 1.00899 0.0
C864 C 0.89395 0.3889 0.99516 0.0
C865 C 0.89712 0.38901 0.97213 0.0
C866 C 0.87277 0.39039 0.06386 0.0
C867 C 0.88236 0.40938 0.08037 0.0
C868 C 0.87529 0.39047 0.04074 0.0
C869 C 0.88772 0.40943 0.03355 0.0
C870 C 0.89692 0.4286 0.05009 0.0
C871 C 0.89412 0.42864 0.07316 0.0
H872 H 0.6783 0.88271 0.95428 0.0
H873 H 0.60597 0.8872 0.93941 0.0
H874 H 0.67455 0.88163 0.99437 0.0
H875 H 0.60233 0.88693 0.97991 0.0
H876 H 0.59884 0.86234 0.04926 0.0
H877 H 0.6027 0.86255 1.00896 0.0
H878 H 0.66886 0.90459 0.02821 0.0
H879 H 0.6653 0.90371 0.06855 0.0
C880 C 0.66158 0.88369 0.9596 0.0
C881 C 0.64242 0.88506 0.94358 0.0
C882 C 0.65947 0.8832 0.9827 0.0
C883 C 0.63816 0.88425 0.99051 0.0
C884 C 0.61896 0.88574 0.9745 0.0
C885 C 0.62105 0.88606 0.95128 0.0
C886 C 0.61429 0.87151 0.0449 0.0
C887 C 0.63179 0.88296 0.06216 0.0
C888 C 0.61641 0.87181 0.02175 0.0
C889 C 0.63603 0.8837 0.01523 0.0
C890 C 0.65364 0.89498 0.03253 0.0
C891 C 0.65158 0.89454 0.0557 0.0
H892 H 0.15179 0.62136 0.95103 0.0
H893 H 0.11708 0.55217 0.9286 0.0
H894 H 0.14665 0.61744 0.99021 0.0
H895 H 0.11181 0.54831 0.96852 0.0
H896 H 0.13291 0.55212 0.05111 0.0
H897 H 0.13517 0.54927 1.00978 0.0
H898 H 0.11062 0.61482 1.00865 0.0
H899 H 0.10863 0.61782 0.04947 0.0
C900 C 0.14311 0.60522 0.95445 0.0
C901 C 0.13452 0.58719 0.9366 0.0
C902 C 0.1401 0.60302 0.97696 0.0
C903 C 0.12837 0.58277 0.98233 0.0
C904 C 0.1208 0.56416 0.96478 0.0
C905 C 0.12382 0.56638 0.942 0.0
C906 C 0.12757 0.56565 0.04186 0.0
C907 C 0.12099 0.58539 0.05358 0.0
C908 C 0.12886 0.564 0.01826 0.0
C909 C 0.12354 0.58206 1.00617 0.0
C910 C 0.11535 0.60089 0.01765 0.0
C911 C 0.11416 0.60257 0.04104 0.0
H912 H 0.43259 0.91676 0.09143 0.0
H913 H 0.3613 0.88848 0.07046 0.0
H914 H 0.43803 0.91734 0.0518 0.0
H915 H 0.367 0.88836 0.03031 0.0
H916 H 0.37795 0.91537 0.96366 0.0
H917 H 0.3732 0.91426 1.00348 0.0
H918 H 0.44088 0.89467 0.01666 0.0
H919 H 0.44588 0.89648 0.97654 0.0
C920 C 0.41803 0.91042 0.07833 0.0
C921 C 0.3964 0.90262 0.08423 0.0
C922 C 0.42127 0.91061 0.05547 0.0
C923 C 0.40303 0.9029 0.03771 0.0
C924 C 0.38141 0.89477 0.04354 0.0
C925 C 0.37811 0.89471 0.06655 0.0
C926 C 0.39194 0.91094 0.97506 0.0
C927 C 0.41232 0.90597 0.9669 0.0
C928 C 0.38908 0.91007 0.99791 0.0
C929 C 0.40646 0.90403 0.01334 0.0
C930 C 0.42714 0.89954 1.00533 0.0
C931 C 0.43008 0.90061 0.98235 0.0
H932 H 0.12936 0.33145 0.94116 0.0
H933 H 0.16229 0.40091 0.96534 0.0
H934 H 0.12624 0.32531 0.98078 0.0
H935 H 0.15973 0.39465 1.0046 0.0
H936 H 0.14352 0.31862 0.05869 0.0
H937 H 0.14699 0.32177 0.01839 0.0
H938 H 0.13033 0.39096 0.02835 0.0
H939 H 0.12744 0.38805 0.06823 0.0
C940 C 0.13616 0.34531 0.9549 0.0
C941 C 0.14586 0.36676 0.94999 0.0
C942 C 0.13444 0.34176 0.97764 0.0
C943 C 0.14241 0.35958 0.99595 0.0
C944 C 0.15285 0.38069 0.99097 0.0
C945 C 0.15446 0.38425 0.96838 0.0
C946 C 0.14051 0.33444 0.05218 0.0
C947 C 0.13543 0.35315 0.06682 0.0
C948 C 0.14244 0.33623 0.02907 0.0
C949 C 0.1393 0.35676 0.02012 0.0
C950 C 0.13349 0.3751 0.03468 0.0
C951 C 0.13167 0.37335 0.05763 0.0
H952 H 0.59749 0.11267 0.05167 0.0
H953 H 0.66873 0.14122 0.07168 0.0
H954 H 0.60111 0.11612 1.01188 0.0
H955 H 0.67218 0.14594 0.032 0.0
H956 H 0.67729 0.13092 0.95593 0.0
H957 H 0.67418 0.12725 0.99575 0.0
H958 H 0.60424 0.14177 0.98553 0.0
H959 H 0.60709 0.14416 0.94528 0.0
C960 C 0.61393 0.11985 0.04755 0.0
C961 C 0.63284 0.12662 0.06481 0.0
C962 C 0.61597 0.12206 0.0247 0.0
C963 C 0.63691 0.13151 0.01852 0.0
C964 C 0.65586 0.13824 0.03589 0.0
C965 C 0.6539 0.13563 0.05872 0.0
C966 C 0.66127 0.13344 0.96222 0.0
C967 C 0.64242 0.13781 0.94742 0.0
C968 C 0.65951 0.13145 0.98518 0.0
C969 C 0.63893 0.13415 0.99408 0.0
C970 C 0.62023 0.13905 0.97931 0.0
C971 C 0.62188 0.14064 0.95622 0.0
H972 H 0.90176 0.7217 0.9657 0.0
H973 H 0.9081 0.64969 0.96452 0.0
H974 H 0.9024 0.72563 1.0075 0.0
H975 H 0.90803 0.65338 1.00538 0.0
H976 H 0.92434 0.66418 0.07963 0.0
H977 H 0.93052 0.66858 0.04061 0.0
H978 H 0.87909 0.71422 0.03685 0.0
H979 H 0.87387 0.71061 0.07678 0.0
C980 C 0.90349 0.7068 0.97431 0.0
C981 C 0.90497 0.68541 0.96167 0.0
C982 C 0.90367 0.70901 0.99823 0.0
C983 C 0.90548 0.68989 1.00998 0.0
C984 C 0.90719 0.66867 0.99721 0.0
C985 C 0.90704 0.6665 0.97355 0.0
C986 C 0.91473 0.67557 0.07063 0.0
C987 C 0.89854 0.68694 0.0811 0.0
C988 C 0.9181 0.67796 0.04816 0.0
C989 C 0.90486 0.69127 0.03524 0.0
C990 C 0.88962 0.70385 0.04624 0.0
C991 C 0.88657 0.70179 0.06908 0.0
H992 H 0.06684 0.4092 0.14558 0.0
H993 H 0.06014 0.33582 0.1249 0.0
H994 H 0.02548 0.40637 0.14467 0.0
H995 H 0.01858 0.33309 0.12348 0.0
H996 H 0.94705 0.33716 0.14914 0.0
H997 H 0.98824 0.33667 0.14786 0.0
H998 H 0.99148 0.39909 0.11695 0.0
H999 H 0.95098 0.39983 0.11877 0.0
C1000 C 0.05654 0.39248 0.14067 0.0
C1001 C 0.06684 0.37278 0.13522 0.0
C1002 C 0.03277 0.39085 0.14003 0.0
C1003 C 0.01864 0.3695 0.13382 0.0
C1004 C 0.02894 0.34975 0.1285 0.0
C1005 C 0.05277 0.35138 0.12918 0.0
C1006 C 0.95659 0.35051 0.14178 0.0
C1007 C 0.94591 0.36868 0.13435 0.0
C1008 C 0.98015 0.35028 0.14105 0.0
C1009 C 0.99328 0.36814 0.13275 0.0
C1010 C 0.98211 0.38546 0.1241 0.0
C1011 C 0.95882 0.38578 0.125 0.0
H1012 H 0.08521 0.67074 0.89562 0.0
H1013 H 0.06356 0.60319 0.85687 0.0
H1014 H 0.04519 0.67495 0.89863 0.0
H1015 H 0.02373 0.60765 0.85917 0.0
H1016 H 0.95862 0.60994 0.89124 0.0
H1017 H 0.99863 0.60763 0.88739 0.0
H1018 H 1.0087 0.6793 0.8783 0.0
H1019 H 0.96876 0.68178 0.88293 0.0
C1020 C 0.0719 0.65697 0.88742 0.0
C1021 C 0.07755 0.63656 0.87619 0.0
C1022 C 0.04895 0.65939 0.88909 0.0
C1023 C 0.03122 0.6415 0.8794 0.0
C1024 C 0.03694 0.62152 0.86735 0.0
C1025 C 0.0598 0.61904 0.86588 0.0
C1026 C 0.96936 0.62522 0.88845 0.0
C1027 C 0.96048 0.64602 0.88736 0.0
C1028 C 0.9923 0.62387 0.88608 0.0
C1029 C 1.0069 0.64324 0.88233 0.0
C1030 C 0.99804 0.66411 0.8814 0.0
C1031 C 0.9751 0.66549 0.88394 0.0
H1032 H 0.40781 0.97207 0.92644 0.0
H1033 H 0.35566 0.95859 0.86712 0.0
H1034 H 0.41276 1.0128 0.92297 0.0
H1035 H 0.36106 0.9995 0.86306 0.0
H1036 H 0.36292 0.07773 0.87705 0.0
H1037 H 0.35636 0.03706 0.8795 0.0
H1038 H 0.42916 0.0377 0.89865 0.0
H1039 H 0.4357 0.07906 0.89705 0.0
C1040 C 0.39714 0.97797 0.91283 0.0
C1041 C 0.38124 0.96228 0.89712 0.0
C1042 C 0.40025 1.00125 0.9106 0.0
C1043 C 0.38772 1.0094 0.89244 0.0
C1044 C 0.37097 0.99382 0.87731 0.0
C1045 C 0.3677 0.97044 0.8797 0.0
C1046 C 0.37765 0.06927 0.88167 0.0
C1047 C 0.39988 0.08176 0.88711 0.0
C1048 C 0.37383 0.0458 0.88291 0.0
C1049 C 0.39214 0.03408 0.8895 0.0
C1050 C 0.41456 0.04633 0.89399 0.0
C1051 C 0.4184 0.06997 0.89285 0.0
H1052 H 0.07302 0.38737 0.87554 0.0
H1053 H 0.09878 0.45588 0.91023 0.0
H1054 H 0.03402 0.39474 0.87769 0.0
H1055 H 0.05931 0.46312 0.91303 0.0
H1056 H 0.98174 0.472 0.89451 0.0
H1057 H 0.02218 0.46817 0.89218 0.0
H1058 H 1.00984 0.3983 0.9065 0.0
H1059 H 0.96986 0.40188 0.90814 0.0
C1060 C 0.07038 0.40404 0.88373 0.0
C1061 C 0.08912 0.42094 0.89292 0.0
C1062 C 0.04791 0.40824 0.8851 0.0
C1063 C 0.0434 0.42939 0.89594 0.0
C1064 C 0.0621 0.44664 0.90453 0.0
C1065 C 0.08473 0.44247 0.903 0.0
C1066 C 0.98778 0.4559 0.89727 0.0
C1067 C 0.97246 0.43716 0.90121 0.0
C1068 C 1.01097 0.45371 0.89599 0.0
C1069 C 0.01927 0.43277 0.89872 0.0
C1070 C 1.00403 0.41447 0.90361 0.0
C1071 C 0.98102 0.41658 0.9047 0.0
H1072 H 0.64777 0.06617 0.89466 0.0
H1073 H 0.71638 0.07752 0.87713 0.0
H1074 H 0.65047 0.02575 0.89465 0.0
H1075 H 0.71889 0.03628 0.87646 0.0
H1076 H 0.7182 0.96163 0.89792 0.0
H1077 H 0.71997 1.00351 0.89914 0.0
H1078 H 0.64979 0.99378 0.86592 0.0
H1079 H 0.64785 0.95269 0.8653 0.0
C1080 C 0.66347 0.06001 0.89067 0.0
C1081 C 0.68173 0.07511 0.88556 0.0
C1082 C 0.66498 0.0367 0.89055 0.0
C1083 C 0.6847 0.02754 0.88505 0.0
C1084 C 0.70342 0.04273 0.88075 0.0
C1085 C 0.70197 0.06633 0.88105 0.0
C1086 C 0.70324 0.96853 0.89083 0.0
C1087 C 0.68277 0.95379 0.88186 0.0
C1088 C 0.70426 0.99251 0.89145 0.0
C1089 C 0.68487 1.00212 0.88304 0.0
C1090 C 0.66486 0.98716 0.87321 0.0
C1091 C 0.66379 0.96346 0.87275 0.0
H1092 H 0.05722 0.59116 0.13002 0.0
H1093 H 0.06741 0.66322 0.12276 0.0
H1094 H 1.01736 0.59341 0.13463 0.0
H1095 H 0.02723 0.66534 0.12657 0.0
H1096 H 0.9604 0.6681 0.15566 0.0
H1097 H 1.00059 0.66509 0.15315 0.0
H1098 H 0.98113 0.59698 0.11493 0.0
H1099 H 0.94097 0.59974 0.11816 0.0
C1100 C 0.05091 0.60748 0.12919 0.0
C1101 C 0.0656 0.62702 0.12601 0.0
C1102 C 0.02793 0.60874 0.13173 0.0
C1103 C 0.01889 0.62956 0.131 0.0
C1104 C 0.03358 0.64908 0.12765 0.0
C1105 C 0.05664 0.64785 0.12527 0.0
C1106 C 0.9647 0.65236 0.14693 0.0
C1107 C 0.94739 0.63415 0.13714 0.0
C1108 C 0.9878 0.65072 0.14528 0.0
C1109 C 0.99427 0.63088 0.13363 0.0
C1110 C 0.97695 0.61245 0.12427 0.0
C1111 C 0.95384 0.61404 0.12608 0.0
H1112 H 0.42439 0.1051 0.16397 0.0
H1113 H 0.3528 0.07883 0.14231 0.0
H1114 H 0.43266 0.06654 0.16801 0.0
H1115 H 0.36118 0.0399 0.14525 0.0
H1116 H 0.37753 0.97516 0.17152 0.0
H1117 H 0.37059 1.01455 0.17056 0.0
H1118 H 0.43675 0.03083 0.14847 0.0
H1119 H 0.44406 0.9913 0.15061 0.0
C1120 C 0.41039 0.09101 0.15989 0.0
C1121 C 0.38788 0.09507 0.15283 0.0
C1122 C 0.41519 0.06878 0.16205 0.0
C1123 C 0.39769 0.04986 0.15693 0.0
C1124 C 0.37513 0.05398 0.14981 0.0
C1125 C 0.37026 0.07632 0.14797 0.0
C1126 C 0.39072 0.98722 0.16666 0.0
C1127 C 0.41134 0.98011 0.16107 0.0
C1128 C 0.38662 1.00983 0.16586 0.0
C1129 C 0.40287 0.02601 0.15904 0.0
C1130 C 0.42385 0.01902 0.15402 0.0
C1131 C 0.42811 0.99634 0.1552 0.0
H1132 H 0.54881 0.05501 0.12166 0.0
H1133 H 0.61801 0.05077 0.10755 0.0
H1134 H 0.54115 1.01282 0.11725 0.0
H1135 H 0.61055 1.00931 0.10349 0.0
H1136 H 0.59246 0.93637 0.08236 0.0
H1137 H 0.58876 0.9763 0.07861 0.0
H1138 H 0.55444 0.98158 0.13875 0.0
H1139 H 0.55746 0.94104 0.14185 0.0
C1140 C 0.56225 0.04511 0.11738 0.0
C1141 C 0.58403 0.05623 0.11501 0.0
C1142 C 0.55791 0.02101 0.11497 0.0
C1143 C 0.57517 1.0077 0.10983 0.0
C1144 C 0.59669 0.01895 0.10698 0.0
C1145 C 0.60105 0.04282 0.10954 0.0
C1146 C 0.58339 0.94588 0.09425 0.0
C1147 C 0.57523 0.93582 0.11236 0.0
C1148 C 0.58143 0.96877 0.09225 0.0
C1149 C 0.57178 0.98226 0.10869 0.0
C1150 C 0.5619 0.97162 0.12578 0.0
C1151 C 0.56359 0.94847 0.12757 0.0
H1152 H 0.60888 0.44258 0.85141 0.0
H1153 H 0.66853 0.45102 0.81694 0.0
H1154 H 0.60166 0.4813 0.84607 0.0
H1155 H 0.6621 0.49049 0.81248 0.0
H1156 H 0.64092 0.56098 0.80352 0.0
H1157 H 0.63957 0.51902 0.79778 0.0
H1158 H 0.62132 0.51679 0.86578 0.0
H1159 H 0.62212 0.55798 0.87119 0.0
C1160 C 0.62017 0.45268 0.84224 0.0
C1161 C 0.63923 0.44397 0.83459 0.0
C1162 C 0.6162 0.47493 0.83936 0.0
C1163 C 0.63161 0.48928 0.82934 0.0
C1164 C 0.64983 0.47993 0.82019 0.0
C1165 C 0.65356 0.45736 0.82272 0.0
C1166 C 0.63617 0.55138 0.817 0.0
C1167 C 0.63168 0.56285 0.83784 0.0
C1168 C 0.63557 0.52738 0.81378 0.0
C1169 C 0.63027 0.51443 0.83127 0.0
C1170 C 0.62503 0.52599 0.85172 0.0
C1171 C 0.62569 0.54977 0.85492 0.0
H1172 H 0.56823 0.62235 0.84539 0.0
H1173 H 0.58582 0.65467 0.9157 0.0
H1174 H 0.52794 0.62549 0.84731 0.0
H1175 H 0.54584 0.65918 0.91735 0.0
H1176 H 0.47087 0.64088 0.92264 0.0
H1177 H 0.51089 0.63866 0.91977 0.0
H1178 H 0.49944 0.64921 0.84869 0.0
H1179 H 0.45876 0.65005 0.85137 0.0
C1180 C 0.56347 0.6304 0.86119 0.0
C1181 C 0.58013 0.63809 0.88046 0.0
C1182 C 0.54037 0.63239 0.86226 0.0
C1183 C 0.53342 0.64252 0.88252 0.0
C1184 C 0.55031 0.65073 0.90161 0.0
C1185 C 0.57331 0.64829 0.90067 0.0
C1186 C 0.47689 0.64284 0.9064 0.0
C1187 C 0.46166 0.64572 0.88723 0.0
C1188 C 0.49998 0.64173 0.90477 0.0
C1189 C 0.50867 0.64393 0.88404 0.0
C1190 C 0.49341 0.64708 0.86487 0.0
C1191 C 0.4701 0.64774 0.8664 0.0
H1192 H 0.4338 0.47498 0.91138 0.0
H1193 H 0.40174 0.47293 0.97267 0.0
H1194 H 0.43149 0.51579 0.91334 0.0
H1195 H 0.3991 0.51433 0.97446 0.0
H1196 H 0.41717 0.59629 0.9705 0.0
H1197 H 0.4228 0.5568 0.97657 0.0
H1198 H 0.39425 0.53248 0.90605 0.0
H1199 H 0.38875 0.57116 0.89996 0.0
C1200 C 0.42655 0.48337 0.92551 0.0
C1201 C 0.41761 0.4707 0.94166 0.0
C1202 C 0.42518 0.50675 0.9266 0.0
C1203 C 0.41465 0.51811 0.94375 0.0
C1204 C 0.40725 0.50594 0.96102 0.0
C1205 C 0.40877 0.48232 0.96001 0.0
C1206 C 0.4119 0.5824 0.95643 0.0
C1207 C 0.40287 0.58695 0.93465 0.0
C1208 C 0.4151 0.55987 0.95992 0.0
C1209 C 0.4094 0.5417 0.94164 0.0
C1210 C 0.39933 0.54621 0.92031 0.0
C1211 C 0.39614 0.56845 0.91686 0.0
H1212 H 0.48103 0.39575 0.93041 0.0
H1213 H 0.47012 0.40721 0.85969 0.0
H1214 H 0.52045 0.39097 0.9272 0.0
H1215 H 0.5103 0.40329 0.85667 0.0
H1216 H 0.57792 0.37347 0.85335 0.0
H1217 H 0.53753 0.37647 0.85555 0.0
H1218 H 0.55593 0.41203 0.92474 0.0
H1219 H 0.59593 0.40825 0.92284 0.0
C1220 C 0.48713 0.39758 0.91419 0.0
C1221 C 0.47237 0.40205 0.89533 0.0
C1222 C 0.50989 0.39492 0.91238 0.0
C1223 C 0.51877 0.39691 0.89173 0.0
C1224 C 0.50403 0.40138 0.87279 0.0
C1225 C 0.48104 0.40384 0.87454 0.0
C1226 C 0.57327 0.38165 0.86914 0.0
C1227 C 0.59019 0.39045 0.88799 0.0
C1228 C 0.55012 0.38362 0.8703 0.0
C1229 C 0.54335 0.39454 0.8903 0.0
C1230 C 0.56033 0.40314 0.90918 0.0
C1231 C 0.58337 0.40101 0.90808 0.0
H1232 H 0.63986 0.57087 0.16136 0.0
H1233 H 0.60788 0.55121 0.09116 0.0
H1234 H 0.64181 0.5307 0.16514 0.0
H1235 H 0.60849 0.51088 0.09519 0.0
H1236 H 0.63208 0.44152 0.10183 0.0
H1237 H 0.63129 0.48193 0.0977 0.0
H1238 H 0.62112 0.49613 0.16871 0.0
H1239 H 0.62331 0.45625 0.17299 0.0
C1240 C 0.63289 0.55789 0.14685 0.0
C1241 C 0.62372 0.5642 0.12599 0.0
C1242 C 0.63388 0.53476 0.149 0.0
C1243 C 0.62528 0.51729 0.13048 0.0
C1244 C 0.61575 0.52372 0.10972 0.0
C1245 C 0.61519 0.54688 0.10744 0.0
C1246 C 0.62979 0.45338 0.11652 0.0
C1247 C 0.62794 0.44574 0.13775 0.0
C1248 C 0.62915 0.47656 0.11416 0.0
C1249 C 0.62617 0.49254 0.13288 0.0
C1250 C 0.62401 0.48465 0.15401 0.0
C1251 C 0.62512 0.46165 0.15646 0.0
H1252 H 0.55167 0.60579 0.1091 0.0
H1253 H 0.5574 0.63926 0.04908 0.0
H1254 H 0.51216 0.61303 0.10825 0.0
H1255 H 0.51738 0.64676 0.04836 0.0
H1256 H 0.43513 0.6377 0.05455 0.0
H1257 H 0.47278 0.62744 0.04691 0.0
H1258 H 0.50105 0.65352 0.11713 0.0
H1259 H 0.46414 0.66369 0.12474 0.0
C1260 C 0.54429 0.61428 0.09539 0.0
C1261 C 0.55771 0.62221 0.07933 0.0
C1262 C 0.52168 0.6185 0.09496 0.0
C1263 C 0.51188 0.63091 0.07855 0.0
C1264 C 0.52457 0.63721 0.06123 0.0
C1265 C 0.5474 0.63286 0.06161 0.0
C1266 C 0.44953 0.64155 0.06819 0.0
C1267 C 0.44653 0.65122 0.09035 0.0
C1268 C 0.47101 0.63566 0.06381 0.0
C1269 C 0.48966 0.63923 0.08157 0.0
C1270 C 0.48685 0.65006 0.10324 0.0
C1271 C 0.46565 0.65596 0.10757 0.0
H1272 H 0.39187 0.48406 0.18106 0.0
H1273 H 0.39829 0.47073 0.1091 0.0
H1274 H 0.39112 0.52433 0.17821 0.0
H1275 H 0.39847 0.51166 0.10639 0.0
H1276 H 0.37264 0.58152 0.10455 0.0
H1277 H 0.37429 0.5409 0.10661 0.0
H1278 H 0.41347 0.55865 0.17427 0.0
H1279 H 0.41098 0.5991 0.17252 0.0
C1280 C 0.39348 0.48977 0.16463 0.0
C1281 C 0.39518 0.47407 0.14529 0.0
C1282 C 0.39318 0.51304 0.16303 0.0
C1283 C 0.39482 0.52144 0.1421 0.0
C1284 C 0.39685 0.5058 0.12275 0.0
C1285 C 0.39695 0.48235 0.12431 0.0
C1286 C 0.38149 0.57672 0.11992 0.0
C1287 C 0.39151 0.59357 0.13845 0.0
C1288 C 0.38264 0.5534 0.12101 0.0
C1289 C 0.39403 0.54634 0.1406 0.0
C1290 C 0.40418 0.56329 0.15906 0.0
C1291 C 0.40281 0.58656 0.15805 0.0
H1292 H 0.58073 0.40945 0.22035 0.0
H1293 H 0.55601 0.36604 0.15588 0.0
H1294 H 0.54104 0.41583 0.22444 0.0
H1295 H 0.51699 0.37212 0.16007 0.0
H1296 H 0.46054 0.41508 0.15419 0.0
H1297 H 0.50029 0.40893 0.15739 0.0
H1298 H 0.49855 0.39535 0.22693 0.0
H1299 H 0.45802 0.40174 0.2238 0.0
C1300 C 0.56685 0.4009 0.20736 0.0
C1301 C 0.57154 0.38757 0.1876 0.0
C1302 C 0.54417 0.40454 0.2097 0.0
C1303 C 0.52598 0.39486 0.19233 0.0
C1304 C 0.53067 0.38027 0.17349 0.0
C1305 C 0.55308 0.37675 0.17112 0.0
C1306 C 0.46849 0.4109 0.17029 0.0
C1307 C 0.4559 0.40853 0.18862 0.0
C1308 C 0.49135 0.40732 0.17208 0.0
C1309 C 0.50243 0.40117 0.19223 0.0
C1310 C 0.49039 0.39998 0.21115 0.0
C1311 C 0.46723 0.40362 0.20935 0.0
H1312 H 0.81099 0.62087 0.44369 0.0
H1313 H 0.8784 0.66029 0.463 0.0
H1314 H 0.80896 0.61727 0.48445 0.0
H1315 H 0.8763 0.65689 0.50286 0.0
H1316 H 0.88287 0.62334 0.56466 0.0
H1317 H 0.87761 0.62267 0.52337 0.0
H1318 H 0.8098 0.64143 0.5255 0.0
H1319 H 0.81497 0.64172 0.56735 0.0
C1320 C 0.82514 0.62903 0.45658 0.0
C1321 C 0.84502 0.6405 0.45008 0.0
C1322 C 0.82401 0.62694 0.47984 0.0
C1323 C 0.84274 0.63629 0.49679 0.0
C1324 C 0.86187 0.64889 0.49022 0.0
C1325 C 0.86301 0.6509 0.46729 0.0
C1326 C 0.86665 0.62694 0.55636 0.0
C1327 C 0.84948 0.6329 0.56934 0.0
C1328 C 0.86365 0.62663 0.53267 0.0
C1329 C 0.8435 0.63253 0.52122 0.0
C1330 C 0.82554 0.63687 0.53386 0.0
C1331 C 0.8285 0.63703 0.55779 0.0
H1332 H 0.42563 0.96589 0.59225 0.0
H1333 H 0.37379 0.90629 0.57418 0.0
H1334 H 0.42969 0.96565 0.55137 0.0
H1335 H 0.37765 0.90615 0.53394 0.0
H1336 H 0.41346 0.88883 0.47387 0.0
H1337 H 0.41153 0.89616 0.51468 0.0
H1338 H 0.4077 0.96775 0.50998 0.0
H1339 H 0.40976 0.96046 0.46867 0.0
C1340 C 0.41467 0.95323 0.57953 0.0
C1341 C 0.39958 0.93596 0.58635 0.0
C1342 C 0.41706 0.953 0.55622 0.0
C1343 C 0.40441 0.9355 0.53959 0.0
C1344 C 0.38808 0.91947 0.54641 0.0
C1345 C 0.38575 0.91966 0.56946 0.0
C1346 C 0.41253 0.90624 0.48147 0.0
C1347 C 0.41145 0.92398 0.4679 0.0
C1348 C 0.41131 0.91041 0.50488 0.0
C1349 C 0.40895 0.93243 0.51541 0.0
C1350 C 0.40942 0.9506 0.50227 0.0
C1351 C 0.41062 0.9464 0.47865 0.0
H1352 H 0.18834 0.40167 0.46224 0.0
H1353 H 0.11798 0.36896 0.44587 0.0
H1354 H 0.18412 0.40771 0.50271 0.0
H1355 H 0.11397 0.3741 0.48642 0.0
H1356 H 0.10655 0.40043 0.55857 0.0
H1357 H 0.11143 0.40059 0.51857 0.0
H1358 H 0.18121 0.38695 0.53399 0.0
H1359 H 0.17651 0.38782 0.57436 0.0
C1360 C 0.17194 0.39577 0.4673 0.0
C1361 C 0.15349 0.38479 0.45085 0.0
C1362 C 0.16958 0.39909 0.49056 0.0
C1363 C 0.14877 0.39128 0.49797 0.0
C1364 C 0.13017 0.38069 0.4814 0.0
C1365 C 0.13246 0.37763 0.4581 0.0
C1366 C 0.12302 0.39768 0.55345 0.0
C1367 C 0.14112 0.39395 0.56956 0.0
C1368 C 0.12577 0.39761 0.53045 0.0
C1369 C 0.1466 0.39345 0.52287 0.0
C1370 C 0.16498 0.39045 0.53918 0.0
C1371 C 0.16231 0.39086 0.56233 0.0
H1372 H 0.62712 0.14666 0.55414 0.0
H1373 H 0.62212 0.07429 0.56026 0.0
H1374 H 0.63331 0.13831 0.5145 0.0
H1375 H 0.62848 0.06598 0.52015 0.0
H1376 H 0.61853 0.06854 0.43757 0.0
H1377 H 0.61101 0.06962 0.47757 0.0
H1378 H 0.66769 0.12433 0.49874 0.0
H1379 H 0.67493 0.12342 0.45927 0.0
C1380 C 0.6271 0.12892 0.54699 0.0
C1381 C 0.62441 0.11119 0.5605 0.0
C1382 C 0.63078 0.12415 0.52427 0.0
C1383 C 0.63186 0.10155 0.51442 0.0
C1384 C 0.62783 0.08356 0.52739 0.0
C1385 C 0.6242 0.08835 0.55031 0.0
C1386 C 0.62975 0.08023 0.45096 0.0
C1387 C 0.64715 0.09606 0.4454 0.0
C1388 C 0.62539 0.08094 0.47376 0.0
C1389 C 0.63842 0.09748 0.4911 0.0
C1390 C 0.65701 0.11182 0.48564 0.0
C1391 C 0.66126 0.11118 0.46308 0.0
H1392 H 0.94568 0.40582 0.47004 0.0
H1393 H 0.87649 0.37015 0.45351 0.0
H1394 H 0.94304 0.40647 0.51081 0.0
H1395 H 0.87412 0.36974 0.494 0.0
H1396 H 0.86685 0.39559 0.56797 0.0
H1397 H 0.86998 0.39326 0.52723 0.0
H1398 H 0.9417 0.38571 0.54167 0.0
H1399 H 0.93871 0.38916 0.58239 0.0
C1400 C 0.93006 0.39776 0.47511 0.0
C1401 C 0.91128 0.38807 0.45853 0.0
C1402 C 0.92852 0.39803 0.49853 0.0
C1403 C 0.90825 0.38831 0.50593 0.0
C1404 C 0.88979 0.37794 0.48917 0.0
C1405 C 0.89122 0.37798 0.46586 0.0
C1406 C 0.88323 0.3933 0.5624 0.0
C1407 C 0.90252 0.39265 0.57846 0.0
C1408 C 0.88506 0.39184 0.53896 0.0
C1409 C 0.90616 0.38933 0.53093 0.0
C1410 C 0.92529 0.38813 0.54707 0.0
C1411 C 0.92352 0.38992 0.57049 0.0
H1412 H 0.667 0.91298 0.57053 0.0
H1413 H 0.63937 0.84118 0.55202 0.0
H1414 H 0.66759 0.91679 0.53031 0.0
H1415 H 0.63903 0.84514 0.51161 0.0
H1416 H 0.6597 0.85313 0.44229 0.0
H1417 H 0.66236 0.85013 0.4829 0.0
H1418 H 0.64361 0.91834 0.4959 0.0
H1419 H 0.64189 0.92163 0.45513 0.0
C1420 C 0.66095 0.89799 0.55783 0.0
C1421 C 0.65313 0.87675 0.5645 0.0
C1422 C 0.66113 0.90023 0.5347 0.0
C1423 C 0.65327 0.88134 0.51755 0.0
C1424 C 0.64558 0.86002 0.52428 0.0
C1425 C 0.64565 0.85773 0.54747 0.0
C1426 C 0.65628 0.86758 0.45383 0.0
C1427 C 0.6505 0.88761 0.44547 0.0
C1428 C 0.65763 0.86578 0.47716 0.0
C1429 C 0.65294 0.88385 0.4928 0.0
C1430 C 0.6476 0.90413 0.48447 0.0
C1431 C 0.64653 0.90604 0.46107 0.0
H1432 H 0.17091 0.62542 0.56422 0.0
H1433 H 0.10042 0.63773 0.55263 0.0
H1434 H 0.17297 0.62394 0.52336 0.0
H1435 H 0.10268 0.637 0.51188 0.0
H1436 H 0.10735 0.60852 0.43708 0.0
H1437 H 0.10461 0.61149 0.47801 0.0
H1438 H 0.17414 0.64676 0.49335 0.0
H1439 H 0.17708 0.64312 0.45264 0.0
C1440 C 0.15592 0.62807 0.553 0.0
C1441 C 0.1355 0.63166 0.56174 0.0
C1442 C 0.15712 0.62734 0.52953 0.0
C1443 C 0.13798 0.63036 0.51419 0.0
C1444 C 0.11765 0.63424 0.52304 0.0
C1445 C 0.11641 0.63481 0.54648 0.0
C1446 C 0.12198 0.61703 0.44921 0.0
C1447 C 0.14246 0.62545 0.44156 0.0
C1448 C 0.1204 0.61883 0.47271 0.0
C1449 C 0.13922 0.62923 0.48911 0.0
C1450 C 0.15946 0.63819 0.48133 0.0
C1451 C 0.16108 0.63624 0.45791 0.0
H1452 H 0.39145 0.1904 0.5753 0.0
H1453 H 0.36437 0.1182 0.56038 0.0
H1454 H 0.39458 0.19151 0.5353 0.0
H1455 H 0.36657 0.11951 0.51963 0.0
H1456 H 0.3987 0.12457 0.45339 0.0
H1457 H 0.39288 0.12239 0.49295 0.0
H1458 H 0.37477 0.19118 0.4989 0.0
H1459 H 0.38165 0.19366 0.45961 0.0
C1460 C 0.38578 0.17475 0.5634 0.0
C1461 C 0.37762 0.15417 0.57117 0.0
C1462 C 0.38743 0.17545 0.54026 0.0
C1463 C 0.38073 0.15566 0.52398 0.0
C1464 C 0.3722 0.13507 0.53165 0.0
C1465 C 0.37076 0.13431 0.555 0.0
C1466 C 0.3935 0.13925 0.46316 0.0
C1467 C 0.39084 0.15938 0.45337 0.0
C1468 C 0.38994 0.13792 0.48586 0.0
C1469 C 0.38337 0.15659 0.49934 0.0
C1470 C 0.38028 0.17657 0.48932 0.0
C1471 C 0.38413 0.17801 0.4667 0.0
H1472 H 0.4764 0.9256 0.66504 0.0
H1473 H 0.46128 0.86282 0.61713 0.0
H1474 H 0.51695 0.92704 0.6619 0.0
H1475 H 0.50193 0.86472 0.61308 0.0
H1476 H 0.57825 0.86181 0.62973 0.0
H1477 H 0.53772 0.86039 0.63188 0.0
H1478 H 0.54484 0.93452 0.63788 0.0
H1479 H 0.58608 0.93597 0.63679 0.0
C1480 C 0.48178 0.9121 0.65374 0.0
C1481 C 0.46565 0.89403 0.64138 0.0
C1482 C 0.50506 0.91307 0.65173 0.0
C1483 C 0.51286 0.89616 0.63705 0.0
C1484 C 0.49668 0.87793 0.6248 0.0
C1485 C 0.47335 0.87679 0.62708 0.0
C1486 C 0.57125 0.87789 0.63137 0.0
C1487 C 0.5855 0.89907 0.6331 0.0
C1488 C 0.54783 0.87702 0.63245 0.0
C1489 C 0.53781 0.89729 0.63503 0.0
C1490 C 0.55198 0.91853 0.63629 0.0
C1491 C 0.57561 0.91941 0.63549 0.0
H1492 H 0.47469 0.17527 0.39605 0.0
H1493 H 0.467 0.10118 0.38973 0.0
H1494 H 0.51557 0.17666 0.39498 0.0
H1495 H 0.50827 0.10257 0.3897 0.0
H1496 H 0.57656 0.10972 0.36328 0.0
H1497 H 0.53595 0.10955 0.36543 0.0
H1498 H 0.55157 0.17204 0.41396 0.0
H1499 H 0.59237 0.17263 0.41097 0.0
C1500 C 0.48179 0.15924 0.39486 0.0
C1501 C 0.46749 0.13807 0.39287 0.0
C1502 C 0.50536 0.16007 0.39435 0.0
C1503 C 0.51537 0.13975 0.39207 0.0
C1504 C 0.50116 0.11858 0.39093 0.0
C1505 C 0.47749 0.11775 0.39117 0.0
C1506 C 0.57132 0.12356 0.37427 0.0
C1507 C 0.58769 0.1412 0.38696 0.0
C1508 C 0.54799 0.12332 0.37572 0.0
C1509 C 0.54034 0.14056 0.39016 0.0
C1510 C 0.55672 0.15854 0.4025 0.0
C1511 C 0.58014 0.15893 0.4008 0.0
H1512 H 0.85164 0.56721 0.36738 0.0
H1513 H 0.91774 0.58089 0.40973 0.0
H1514 H 0.85066 0.52623 0.36914 0.0
H1515 H 0.91636 0.54012 0.41252 0.0
H1516 H 0.91929 0.4646 0.39393 0.0
H1517 H 0.91947 0.50505 0.39211 0.0
H1518 H 0.84607 0.49691 0.39238 0.0
H1519 H 0.84578 0.45558 0.39304 0.0
C1520 C 0.86598 0.56144 0.37709 0.0
C1521 C 0.88488 0.57729 0.38825 0.0
C1522 C 0.8653 0.53792 0.37833 0.0
C1523 C 0.88337 0.52966 0.39103 0.0
C1524 C 0.90228 0.54563 0.40218 0.0
C1525 C 0.90311 0.5691 0.40063 0.0
C1526 C 0.90311 0.47133 0.39379 0.0
C1527 C 0.88249 0.45674 0.39377 0.0
C1528 C 0.90326 0.49474 0.39287 0.0
C1529 C 0.88284 0.50452 0.39226 0.0
C1530 C 0.86214 0.49 0.39252 0.0
C1531 C 0.86195 0.46633 0.39311 0.0
H1532 H 0.47132 0.90636 0.39915 0.0
H1533 H 0.4474 0.83361 0.38214 0.0
H1534 H 0.50952 0.89973 0.39223 0.0
H1535 H 0.48589 0.82695 0.37442 0.0
H1536 H 0.56601 0.82524 0.38598 0.0
H1537 H 0.52583 0.82756 0.39118 0.0
H1538 H 0.52894 0.89026 0.36072 0.0
H1539 H 0.56882 0.88833 0.35646 0.0
C1540 C 0.47417 0.88891 0.39378 0.0
C1541 C 0.45618 0.87056 0.39104 0.0
C1542 C 0.49613 0.88509 0.38963 0.0
C1543 C 0.50081 0.86282 0.38231 0.0
C1544 C 0.48296 0.84431 0.38006 0.0
C1545 C 0.46088 0.84814 0.38441 0.0
C1546 C 0.55787 0.83925 0.38009 0.0
C1547 C 0.57059 0.85675 0.37108 0.0
C1548 C 0.53488 0.84063 0.38308 0.0
C1549 C 0.52424 0.85943 0.37691 0.0
C1550 C 0.53669 0.87596 0.36643 0.0
C1551 C 0.55955 0.87475 0.36377 0.0
H1552 H 0.15538 0.54829 0.39528 0.0
H1553 H 0.22379 0.56286 0.378 0.0
H1554 H 0.15994 0.50824 0.39525 0.0
H1555 H 0.22825 0.52202 0.37751 0.0
H1556 H 0.22956 0.4477 0.40074 0.0
H1557 H 0.23013 0.48933 0.40118 0.0
H1558 H 0.16102 0.47711 0.36503 0.0
H1559 H 0.16026 0.43611 0.36504 0.0
C1560 C 0.17147 0.54293 0.39147 0.0
C1561 C 0.1891 0.55875 0.38632 0.0
C1562 C 0.17404 0.51986 0.39133 0.0
C1563 C 0.19424 0.51176 0.38582 0.0
C1564 C 0.21243 0.52771 0.38174 0.0
C1565 C 0.20989 0.55106 0.38201 0.0
C1566 C 0.21463 0.45398 0.39267 0.0
C1567 C 0.19474 0.43861 0.38317 0.0
C1568 C 0.21498 0.4778 0.3929 0.0
C1569 C 0.19544 0.48659 0.38359 0.0
C1570 C 0.17613 0.47102 0.37295 0.0
C1571 C 0.17574 0.44743 0.37285 0.0
H1572 H 0.453 0.14696 0.65626 0.0
H1573 H 0.46116 0.21397 0.63446 0.0
H1574 H 0.49262 0.14337 0.65223 0.0
H1575 H 0.501 0.21005 0.62944 0.0
H1576 H 0.57819 0.20104 0.641 0.0
H1577 H 0.53934 0.20792 0.64663 0.0
H1578 H 0.51451 0.13618 0.6226 0.0
H1579 H 0.55326 0.12925 0.61791 0.0
C1580 C 0.46334 0.16099 0.6506 0.0
C1581 C 0.45389 0.18069 0.64553 0.0
C1582 C 0.48607 0.15883 0.64805 0.0
C1583 C 0.50002 0.17615 0.63994 0.0
C1584 C 0.49085 0.19635 0.63574 0.0
C1585 C 0.46802 0.19864 0.63862 0.0
C1586 C 0.56437 0.18679 0.6368 0.0
C1587 C 0.56889 0.16454 0.62919 0.0
C1588 C 0.54205 0.19075 0.63998 0.0
C1589 C 0.5237 0.17257 0.63545 0.0
C1590 C 0.52821 0.15053 0.62696 0.0
C1591 C 0.55047 0.14654 0.62405 0.0
H1592 H 0.88822 0.46907 0.632 0.0
H1593 H 0.95777 0.48837 0.66633 0.0
H1594 H 0.88461 0.50901 0.63012 0.0
H1595 H 0.95389 0.52905 0.66489 0.0
H1596 H 0.9413 0.59829 0.6363 0.0
H1597 H 0.94888 0.55882 0.63912 0.0
H1598 H 0.88084 0.54176 0.65646 0.0
H1599 H 0.87315 0.58051 0.65309 0.0
C1600 C 0.90279 0.48187 0.63931 0.0
C1601 C 0.92322 0.47542 0.64959 0.0
C1602 C 0.90064 0.5049 0.63832 0.0
C1603 C 0.91878 0.52238 0.64774 0.0
C1604 C 0.93956 0.51603 0.65747 0.0
C1605 C 0.94177 0.49275 0.65838 0.0
C1606 C 0.92804 0.58607 0.64078 0.0
C1607 C 0.90649 0.59251 0.64413 0.0
C1608 C 0.93242 0.56349 0.64251 0.0
C1609 C 0.91535 0.54696 0.64766 0.0
C1610 C 0.8942 0.55379 0.65186 0.0
C1611 C 0.88981 0.57614 0.65001 0.0
H1612 H 0.12063 0.55659 0.60168 0.0
H1613 H 0.05658 0.56103 0.62836 0.0
H1614 H 0.11708 0.51592 0.60501 0.0
H1615 H 0.05302 0.51969 0.63169 0.0
H1616 H 0.05505 0.43681 0.61272 0.0
H1617 H 0.05114 0.47694 0.60785 0.0
H1618 H 0.12017 0.49849 0.64249 0.0
H1619 H 0.1241 0.45908 0.64741 0.0
C1620 C 0.10554 0.54879 0.60792 0.0
C1621 C 0.08903 0.56218 0.61502 0.0
C1622 C 0.10357 0.52545 0.60991 0.0
C1623 C 0.08503 0.5147 0.61907 0.0
C1624 C 0.06754 0.52756 0.62464 0.0
C1625 C 0.06954 0.55118 0.62266 0.0
C1626 C 0.06919 0.45022 0.61966 0.0
C1627 C 0.09 0.44463 0.6302 0.0
C1628 C 0.06695 0.47316 0.61684 0.0
C1629 C 0.08552 0.49078 0.62437 0.0
C1630 C 0.10572 0.48525 0.63605 0.0
C1631 C 0.10792 0.46259 0.63894 0.0
H1632 H 0.19463 0.19095 0.37552 0.0
H1633 H 0.17158 0.1969 0.44189 0.0
H1634 H 0.20416 0.23252 0.37941 0.0
H1635 H 0.18102 0.23894 0.44576 0.0
H1636 H 0.22817 0.30853 0.39552 0.0
H1637 H 0.22854 0.26827 0.40149 0.0
H1638 H 0.16167 0.26666 0.42335 0.0
H1639 H 0.16123 0.30648 0.41732 0.0
C1640 C 0.19199 0.20119 0.39117 0.0
C1641 C 0.18214 0.19074 0.40832 0.0
C1642 C 0.19765 0.22501 0.39347 0.0
C1643 C 0.19328 0.23903 0.41284 0.0
C1644 C 0.18449 0.22853 0.43059 0.0
C1645 C 0.17918 0.20453 0.42844 0.0
C1646 C 0.21377 0.29964 0.40197 0.0
C1647 C 0.19455 0.31054 0.40564 0.0
C1648 C 0.21396 0.27663 0.40536 0.0
C1649 C 0.19512 0.2643 0.41288 0.0
C1650 C 0.17655 0.27571 0.4178 0.0
C1651 C 0.17621 0.29848 0.41409 0.0
H1652 H 0.84679 0.17286 0.4345 0.0
H1653 H 0.8309 0.11253 0.38342 0.0
H1654 H 0.80552 0.17247 0.43677 0.0
H1655 H 0.79032 0.11215 0.3855 0.0
H1656 H 0.72044 0.10448 0.40404 0.0
H1657 H 0.76176 0.10578 0.4109 0.0
H1658 H 0.77052 0.17913 0.41016 0.0
H1659 H 0.72866 0.17795 0.40371 0.0
C1660 C 0.83455 0.15925 0.42422 0.0
C1661 C 0.84199 0.14266 0.40887 0.0
C1662 C 0.81098 0.15918 0.42529 0.0
C1663 C 0.79462 0.14228 0.41131 0.0
C1664 C 0.80236 0.12524 0.39673 0.0
C1665 C 0.82567 0.12549 0.39548 0.0
C1666 C 0.73107 0.12098 0.40544 0.0
C1667 C 0.7212 0.14107 0.40288 0.0
C1668 C 0.75482 0.1217 0.40942 0.0
C1669 C 0.76947 0.14249 0.41078 0.0
C1670 C 0.75969 0.16284 0.40931 0.0
C1671 C 0.73574 0.16214 0.40544 0.0
H1672 H 0.92996 0.83643 0.43857 0.0
H1673 H 0.86054 0.82093 0.4037 0.0
H1674 H 0.93036 0.79538 0.44165 0.0
H1675 H 0.86076 0.78043 0.40655 0.0
H1676 H 0.85972 0.71028 0.42196 0.0
H1677 H 0.86208 0.75163 0.43166 0.0
H1678 H 0.9305 0.76048 0.41323 0.0
H1679 H 0.92836 0.7186 0.40416 0.0
C1680 C 0.91455 0.82433 0.43238 0.0
C1681 C 0.89507 0.8317 0.42126 0.0
C1682 C 0.91486 0.80087 0.43381 0.0
C1683 C 0.89561 0.7846 0.42433 0.0
C1684 C 0.87577 0.79242 0.41439 0.0
C1685 C 0.87558 0.81564 0.41277 0.0
C1686 C 0.87539 0.721 0.42018 0.0
C1687 C 0.89368 0.71125 0.41181 0.0
C1688 C 0.87675 0.74472 0.42578 0.0
C1689 C 0.8963 0.75942 0.42284 0.0
C1690 C 0.91522 0.74963 0.4158 0.0
C1691 C 0.91396 0.72569 0.41044 0.0
H1692 H 0.21536 0.90813 0.40009 0.0
H1693 H 0.21255 0.85212 0.44009 0.0
H1694 H 0.25671 0.90973 0.40249 0.0
H1695 H 0.25446 0.85364 0.44262 0.0
H1696 H 0.32053 0.8437 0.40633 0.0
H1697 H 0.28077 0.84402 0.4136 0.0
H1698 H 0.29299 0.91813 0.42796 0.0
H1699 H 0.33223 0.9179 0.42035 0.0
C1700 C 0.2238 0.89663 0.41005 0.0
C1701 C 0.21089 0.88019 0.42012 0.0
C1702 C 0.2475 0.89751 0.41142 0.0
C1703 C 0.2589 0.88174 0.42267 0.0
C1704 C 0.24611 0.86591 0.43371 0.0
C1705 C 0.22224 0.86525 0.43258 0.0
C1706 C 0.31472 0.86002 0.41117 0.0
C1707 C 0.32946 0.88077 0.41234 0.0
C1708 C 0.29203 0.8602 0.41555 0.0
C1709 C 0.28369 0.88112 0.42123 0.0
C1710 C 0.29876 0.90174 0.4233 0.0
C1711 C 0.32129 0.90158 0.41888 0.0
H1712 H 0.1077 0.8146 0.62209 0.0
H1713 H 0.1522 0.82064 0.68641 0.0
H1714 H 0.09936 0.77337 0.62154 0.0
H1715 H 0.14379 0.77876 0.68586 0.0
H1716 H 0.14826 0.70233 0.65415 0.0
H1717 H 0.15307 0.74416 0.66177 0.0
H1718 H 0.08065 0.7428 0.64028 0.0
H1719 H 0.07579 0.70077 0.63254 0.0
C1720 C 0.11555 0.8071 0.63631 0.0
C1721 C 0.13078 0.82093 0.65423 0.0
C1722 C 0.11059 0.7834 0.63607 0.0
C1723 C 0.12088 0.77263 0.65362 0.0
C1724 C 0.13566 0.78649 0.67198 0.0
C1725 C 0.14039 0.81047 0.67241 0.0
C1726 C 0.13326 0.71088 0.65121 0.0
C1727 C 0.11164 0.69809 0.64247 0.0
C1728 C 0.13603 0.73493 0.65581 0.0
C1729 C 0.11729 0.74694 0.6516 0.0
C1730 C 0.09551 0.73413 0.64353 0.0
C1731 C 0.09269 0.71001 0.63913 0.0
H1732 H 0.21108 0.16547 0.69136 0.0
H1733 H 0.20302 0.17652 0.62048 0.0
H1734 H 0.25259 0.17771 0.69431 0.0
H1735 H 0.24405 0.18871 0.62341 0.0
H1736 H 0.31892 0.21867 0.6365 0.0
H1737 H 0.27822 0.21762 0.64161 0.0
H1738 H 0.28215 0.15793 0.67616 0.0
H1739 H 0.32221 0.15891 0.67093 0.0
C1740 C 0.21809 0.17088 0.67659 0.0
C1741 C 0.20387 0.16966 0.65562 0.0
C1742 C 0.24181 0.17786 0.67823 0.0
C1743 C 0.25162 0.18415 0.65906 0.0
C1744 C 0.23709 0.18423 0.63856 0.0
C1745 C 0.21357 0.17696 0.63683 0.0
C1746 C 0.3111 0.20569 0.64556 0.0
C1747 C 0.32356 0.18871 0.65304 0.0
C1748 C 0.28785 0.205 0.64844 0.0
C1749 C 0.27695 0.18764 0.65927 0.0
C1750 C 0.29 0.17166 0.66798 0.0
C1751 C 0.31292 0.17209 0.66476 0.0
H1752 H 0.93104 0.2225 0.6351 0.0
H1753 H 0.90068 0.23704 0.69679 0.0
H1754 H 0.94381 0.26317 0.63599 0.0
H1755 H 0.91338 0.27843 0.69751 0.0
H1756 H 0.95094 0.35236 0.6941 0.0
H1757 H 0.94806 0.31139 0.69905 0.0
H1758 H 0.91843 0.29271 0.62798 0.0
H1759 H 0.92106 0.33314 0.6233 0.0
C1760 C 0.92727 0.23445 0.64903 0.0
C1761 C 0.9144 0.22664 0.66561 0.0
C1762 C 0.93465 0.25777 0.64955 0.0
C1763 C 0.92926 0.27404 0.66656 0.0
C1764 C 0.91782 0.26623 0.68419 0.0
C1765 C 0.91048 0.24261 0.68377 0.0
C1766 C 0.94452 0.33935 0.67946 0.0
C1767 C 0.93662 0.34575 0.65819 0.0
C1768 C 0.94255 0.316 0.68237 0.0
C1769 C 0.93305 0.29883 0.66391 0.0
C1770 C 0.92611 0.30545 0.64247 0.0
C1771 C 0.92769 0.32859 0.63972 0.0
H1772 H 0.71709 0.86937 0.66371 0.0
H1773 H 0.72795 0.94029 0.65246 0.0
H1774 H 0.75806 0.87028 0.67421 0.0
H1775 H 0.76951 0.94103 0.66237 0.0
H1776 H 0.84429 0.93753 0.6899 0.0
H1777 H 0.80303 0.93821 0.69111 0.0
H1778 H 0.78837 0.87062 0.65111 0.0
H1779 H 0.82909 0.87008 0.65019 0.0
C1780 C 0.72828 0.88522 0.66348 0.0
C1781 C 0.71932 0.90463 0.65677 0.0
C1782 C 0.75182 0.88574 0.66954 0.0
C1783 C 0.76717 0.90558 0.66877 0.0
C1784 C 0.75816 0.92548 0.66326 0.0
C1785 C 0.7344 0.92504 0.65742 0.0
C1786 C 0.83217 0.92254 0.68222 0.0
C1787 C 0.83975 0.90356 0.67032 0.0
C1788 C 0.80858 0.92306 0.68256 0.0
C1789 C 0.79234 0.9045 0.67116 0.0
C1790 C 0.80028 0.88508 0.6604 0.0
C1791 C 0.82365 0.88469 0.65989 0.0
H1792 H 0.38427 0.19788 0.21467 0.0
H1793 H 0.45116 0.17612 0.21607 0.0
H1794 H 0.38829 0.20202 0.25627 0.0
H1795 H 0.4553 0.18028 0.25813 0.0
H1796 H 0.40252 0.21351 0.33294 0.0
H1797 H 0.40872 0.22099 0.29428 0.0
H1798 H 0.43413 0.15592 0.28218 0.0
H1799 H 0.42805 0.14854 0.32044 0.0
C1800 C 0.40012 0.19452 0.224 0.0
C1801 C 0.41731 0.18642 0.2122 0.0
C1802 C 0.4025 0.19707 0.24786 0.0
C1803 C 0.42202 0.1913 0.26051 0.0
C1804 C 0.43996 0.18468 0.24879 0.0
C1805 C 0.43769 0.18243 0.22478 0.0
C1806 C 0.40975 0.20103 0.3221 0.0
C1807 C 0.41443 0.18029 0.32959 0.0
C1808 C 0.4133 0.20529 0.3 0.0
C1809 C 0.42192 0.18904 0.28516 0.0
C1810 C 0.42776 0.16893 0.29322 0.0
C1811 C 0.42397 0.16457 0.31509 0.0
H1812 H 0.95371 0.39003 0.32789 0.0
H1813 H 0.89479 0.42595 0.32983 0.0
H1814 H 0.95479 0.39651 0.28787 0.0
H1815 H 0.89582 0.43238 0.29037 0.0
H1816 H 0.90605 0.44872 0.22068 0.0
H1817 H 0.91676 0.45072 0.2622 0.0
H1818 H 0.92737 0.37951 0.25275 0.0
H1819 H 0.91686 0.37754 0.21165 0.0
C1820 C 0.94138 0.39972 0.31994 0.0
C1821 C 0.92398 0.40719 0.33176 0.0
C1822 C 0.94191 0.40336 0.29708 0.0
C1823 C 0.92531 0.41489 0.28593 0.0
C1824 C 0.90898 0.42367 0.29844 0.0
C1825 C 0.90825 0.41975 0.321 0.0
C1826 C 0.91102 0.43365 0.2275 0.0
C1827 C 0.91022 0.41289 0.21294 0.0
C1828 C 0.91715 0.43477 0.25123 0.0
C1829 C 0.92287 0.41524 0.26076 0.0
C1830 C 0.92333 0.39493 0.246 0.0
C1831 C 0.91699 0.39374 0.22242 0.0
H1832 H 0.59056 0.89458 0.19448 0.0
H1833 H 0.66422 0.91226 0.20128 0.0
H1834 H 0.59266 0.89864 0.2359 0.0
H1835 H 0.66624 0.91618 0.24315 0.0
H1836 H 0.65588 0.93432 0.32019 0.0
H1837 H 0.65324 0.93835 0.27918 0.0
H1838 H 0.60898 0.87326 0.26248 0.0
H1839 H 0.61164 0.86923 0.30284 0.0
C1840 C 0.60723 0.89953 0.2048 0.0
C1841 C 0.62728 0.90272 0.19451 0.0
C1842 C 0.60839 0.90187 0.22857 0.0
C1843 C 0.62963 0.90747 0.24274 0.0
C1844 C 0.64963 0.91195 0.23262 0.0
C1845 C 0.64848 0.90956 0.20867 0.0
C1846 C 0.64536 0.9211 0.30769 0.0
C1847 C 0.63397 0.90147 0.31468 0.0
C1848 C 0.64401 0.92332 0.28429 0.0
C1849 C 0.63085 0.90615 0.26767 0.0
C1850 C 0.61903 0.88691 0.27486 0.0
C1851 C 0.62066 0.88455 0.29801 0.0
H1852 H 0.12139 0.56015 0.1847 0.0
H1853 H 0.15266 0.63124 0.19659 0.0
H1854 H 0.12315 0.56026 0.22628 0.0
H1855 H 0.15458 0.63118 0.23776 0.0
H1856 H 0.17949 0.61406 0.30806 0.0
H1857 H 0.17672 0.60997 0.26662 0.0
H1858 H 0.10504 0.58253 0.26028 0.0
H1859 H 0.10764 0.58676 0.30228 0.0
C1860 C 0.12879 0.57569 0.19616 0.0
C1861 C 0.13698 0.59566 0.1874 0.0
C1862 C 0.1296 0.57578 0.21987 0.0
C1863 C 0.13901 0.59571 0.23516 0.0
C1864 C 0.14738 0.61554 0.22636 0.0
C1865 C 0.14624 0.61556 0.20277 0.0
C1866 C 0.1631 0.60699 0.29797 0.0
C1867 C 0.14371 0.60089 0.30855 0.0
C1868 C 0.16155 0.60472 0.27419 0.0
C1869 C 0.14066 0.59609 0.2603 0.0
C1870 C 0.12138 0.58916 0.27068 0.0
C1871 C 0.12285 0.59168 0.29466 0.0
H1872 H 0.45302 0.89349 0.83237 0.0
H1873 H 0.39027 0.9234 0.83276 0.0
H1874 H 0.45355 0.89983 0.79213 0.0
H1875 H 0.39094 0.92988 0.7933 0.0
H1876 H 0.4074 0.95543 0.72768 0.0
H1877 H 0.4137 0.95299 0.76881 0.0
H1878 H 0.42748 0.88321 0.75417 0.0
H1879 H 0.42109 0.88552 0.71319 0.0
C1880 C 0.43957 0.90162 0.824 0.0
C1881 C 0.4215 0.9077 0.83564 0.0
C1882 C 0.43979 0.90518 0.801 0.0
C1883 C 0.42229 0.91542 0.78955 0.0
C1884 C 0.40479 0.9222 0.80161 0.0
C1885 C 0.40432 0.91825 0.82422 0.0
C1886 C 0.41193 0.93964 0.73324 0.0
C1887 C 0.41344 0.9206 0.7171 0.0
C1888 C 0.41554 0.93823 0.75679 0.0
C1889 C 0.42111 0.91789 0.76476 0.0
C1890 C 0.42346 0.89918 0.74864 0.0
C1891 C 0.41954 0.90047 0.72512 0.0
H1892 H 0.12885 0.41305 0.82008 0.0
H1893 H 0.14745 0.3446 0.81108 0.0
H1894 H 0.1259 0.41357 0.77872 0.0
H1895 H 0.14511 0.34547 0.76958 0.0
H1896 H 0.1672 0.37625 0.70304 0.0
H1897 H 0.16883 0.37342 0.74408 0.0
H1898 H 0.09919 0.38796 0.74176 0.0
H1899 H 0.09725 0.39017 0.70069 0.0
C1900 C 0.1323 0.39811 0.80926 0.0
C1901 C 0.13835 0.37876 0.81882 0.0
C1902 C 0.13055 0.39841 0.7856 0.0
C1903 C 0.13534 0.3796 0.77102 0.0
C1904 C 0.14143 0.36023 0.78051 0.0
C1905 C 0.14263 0.35969 0.80418 0.0
C1906 C 0.15224 0.37881 0.71129 0.0
C1907 C 0.13211 0.38347 0.69864 0.0
C1908 C 0.15314 0.37703 0.7347 0.0
C1909 C 0.13412 0.38043 0.74602 0.0
C1910 C 0.11408 0.38529 0.73343 0.0
C1911 C 0.11299 0.38652 0.70995 0.0
H1912 H 0.6232 0.15931 0.70145 0.0
H1913 H 0.63714 0.08911 0.69189 0.0
H1914 H 0.62298 0.15774 0.74236 0.0
H1915 H 0.6373 0.08776 0.73298 0.0
H1916 H 0.66849 0.11284 0.81087 0.0
H1917 H 0.66439 0.11021 0.76918 0.0
H1918 H 0.59877 0.13464 0.76872 0.0
H1919 H 0.60265 0.13689 0.81062 0.0
C1920 C 0.62626 0.14357 0.70809 0.0
C1921 C 0.63032 0.12437 0.69348 0.0
C1922 C 0.62591 0.14262 0.73145 0.0
C1923 C 0.63003 0.12261 0.74075 0.0
C1924 C 0.63409 0.1034 0.72619 0.0
C1925 C 0.63399 0.10418 0.70272 0.0
C1926 C 0.65305 0.11739 0.80186 0.0
C1927 C 0.63591 0.12514 0.81398 0.0
C1928 C 0.65068 0.11577 0.77801 0.0
C1929 C 0.63132 0.12229 0.76579 0.0
C1930 C 0.61392 0.12961 0.77781 0.0
C1931 C 0.61607 0.13077 0.8017 0.0
H1932 H 0.89533 0.7101 0.82658 0.0
H1933 H 0.86706 0.6384 0.8197 0.0
H1934 H 0.88861 0.70832 0.78472 0.0
H1935 H 0.8603 0.63671 0.77822 0.0
H1936 H 0.8337 0.64576 0.7051 0.0
H1937 H 0.83671 0.65178 0.74696 0.0
H1938 H 0.90504 0.68842 0.75151 0.0
H1939 H 0.90211 0.68238 0.70979 0.0
C1940 C 0.88747 0.69406 0.8162 0.0
C1941 C 0.88184 0.67438 0.82651 0.0
C1942 C 0.88373 0.693 0.79223 0.0
C1943 C 0.87389 0.67236 0.77812 0.0
C1944 C 0.86767 0.65293 0.78855 0.0
C1945 C 0.87171 0.65389 0.81237 0.0
C1946 C 0.84927 0.6553 0.71501 0.0
C1947 C 0.8677 0.66345 0.70404 0.0
C1948 C 0.85103 0.65867 0.739 0.0
C1949 C 0.87115 0.67054 0.7526 0.0
C1950 C 0.88924 0.67939 0.74158 0.0
C1951 C 0.8876 0.67577 0.71764 0.0
H1952 H 0.20014 0.42809 0.17396 0.0
H1953 H 0.20869 0.36553 0.13199 0.0
H1954 H 0.24212 0.43709 0.18422 0.0
H1955 H 0.25017 0.37474 0.14192 0.0
H1956 H 0.31903 0.41717 0.1381 0.0
H1957 H 0.27756 0.41381 0.13287 0.0
H1958 H 0.27748 0.411 0.20506 0.0
H1959 H 0.31971 0.41404 0.21057 0.0
C1960 C 0.21094 0.4164 0.16683 0.0
C1961 C 0.20115 0.39618 0.15206 0.0
C1962 C 0.23484 0.42143 0.17289 0.0
C1963 C 0.24919 0.40651 0.16391 0.0
C1964 C 0.23939 0.38645 0.14909 0.0
C1965 C 0.21566 0.38125 0.14337 0.0
C1966 C 0.3104 0.41605 0.15305 0.0
C1967 C 0.32276 0.41548 0.17475 0.0
C1968 C 0.2866 0.41422 0.14997 0.0
C1969 C 0.27445 0.41204 0.16851 0.0
C1970 C 0.28662 0.41278 0.19053 0.0
C1971 C 0.3107 0.41444 0.19365 0.0
H1972 H 0.21477 0.66376 0.87815 0.0
H1973 H 0.20916 0.59398 0.89338 0.0
H1974 H 0.25609 0.66408 0.87759 0.0
H1975 H 0.25034 0.59451 0.89316 0.0
H1976 H 0.3281 0.62067 0.92024 0.0
H1977 H 0.28664 0.61886 0.91889 0.0
H1978 H 0.28174 0.63999 0.85168 0.0
H1979 H 0.32345 0.64141 0.8528 0.0
C1980 C 0.2224 0.64864 0.88162 0.0
C1981 C 0.20882 0.62888 0.88588 0.0
C1982 C 0.24592 0.64874 0.88104 0.0
C1983 C 0.25623 0.62926 0.88518 0.0
C1984 C 0.24273 0.60972 0.88991 0.0
C1985 C 0.21922 0.60945 0.89005 0.0
C1986 C 0.31815 0.62465 0.90504 0.0
C1987 C 0.3289 0.63112 0.88658 0.0
C1988 C 0.29447 0.6236 0.9043 0.0
C1989 C 0.28114 0.62943 0.88526 0.0
C1990 C 0.29178 0.63559 0.8666 0.0
C1991 C 0.31551 0.63617 0.86715 0.0
H1992 H 0.44873 0.22404 0.89384 0.0
H1993 H 0.38943 0.21581 0.92905 0.0
H1994 H 0.45104 0.26606 0.90266 0.0
H1995 H 0.39177 0.25729 0.9379 0.0
H1996 H 0.40968 0.33419 0.9616 0.0
H1997 H 0.41522 0.29362 0.95909 0.0
H1998 H 0.42435 0.2928 0.88801 0.0
H1999 H 0.41879 0.33292 0.89038 0.0
C2000 C 0.43656 0.23119 0.90385 0.0
C2001 C 0.41877 0.21675 0.91053 0.0
C2002 C 0.43777 0.25517 0.9088 0.0
C2003 C 0.4215 0.26496 0.9209 0.0
C2004 C 0.40465 0.25035 0.92874 0.0
C2005 C 0.40322 0.22657 0.92348 0.0
C2006 C 0.4129 0.32532 0.94548 0.0
C2007 C 0.41346 0.33673 0.92614 0.0
C2008 C 0.41615 0.30215 0.94406 0.0
C2009 C 0.42039 0.29007 0.92338 0.0
C2010 C 0.42149 0.30168 0.90426 0.0
C2011 C 0.41796 0.32464 0.90559 0.0
H2012 H 0.84123 0.43166 0.93197 0.0
H2013 H 0.83755 0.46993 0.87476 0.0
H2014 H 0.79974 0.42797 0.93046 0.0
H2015 H 0.7956 0.46628 0.87308 0.0
H2016 H 0.72546 0.41655 0.85564 0.0
H2017 H 0.76614 0.43166 0.86116 0.0
H2018 H 0.76524 0.44647 0.93408 0.0
H2019 H 0.72447 0.43112 0.92862 0.0
C2020 C 0.83148 0.43999 0.91956 0.0
C2021 C 0.84246 0.4512 0.90358 0.0
C2022 C 0.80772 0.43789 0.91869 0.0
C2023 C 0.79432 0.44666 0.90153 0.0
C2024 C 0.80547 0.45917 0.88638 0.0
C2025 C 0.82944 0.46153 0.88748 0.0
C2026 C 0.73387 0.42315 0.87286 0.0
C2027 C 0.72175 0.42233 0.89173 0.0
C2028 C 0.75715 0.43208 0.87598 0.0
C2029 C 0.76894 0.44033 0.89805 0.0
C2030 C 0.75667 0.44013 0.91687 0.0
C2031 C 0.73332 0.43131 0.91373 0.0
H2032 H 0.67725 0.70186 0.89259 0.0
H2033 H 0.65301 0.69928 0.82053 0.0
H2034 H 0.68628 0.74351 0.89644 0.0
H2035 H 0.66217 0.74119 0.82445 0.0
H2036 H 0.64512 0.81319 0.85257 0.0
H2037 H 0.64381 0.77187 0.84484 0.0
H2038 H 0.7107 0.77715 0.88472 0.0
H2039 H 0.71211 0.81917 0.89252 0.0
C2040 C 0.67407 0.71017 0.87748 0.0
C2041 C 0.66409 0.69726 0.85628 0.0
C2042 C 0.67949 0.73405 0.87968 0.0
C2043 C 0.67487 0.74567 0.8608 0.0
C2044 C 0.66576 0.73271 0.83936 0.0
C2045 C 0.66056 0.70872 0.83709 0.0
C2046 C 0.65967 0.80566 0.85969 0.0
C2047 C 0.67864 0.81947 0.87344 0.0
C2048 C 0.659 0.78193 0.85499 0.0
C2049 C 0.67716 0.77121 0.86407 0.0
C2050 C 0.69641 0.78497 0.87752 0.0
C2051 C 0.69725 0.80897 0.88197 0.0
H2052 H 0.80883 0.60215 0.09862 0.0
H2053 H 0.81374 0.67359 0.12743 0.0
H2054 H 0.76699 0.60021 0.09007 0.0
H2055 H 0.7724 0.67157 0.11889 0.0
H2056 H 0.69882 0.6494 0.13124 0.0
H2057 H 0.74022 0.65113 0.1353 0.0
H2058 H 0.73512 0.61721 0.06581 0.0
H2059 H 0.69312 0.61547 0.06162 0.0
C2060 C 0.80106 0.61743 0.10301 0.0
C2061 C 0.81468 0.63796 0.11392 0.0
C2062 C 0.77714 0.61635 0.09796 0.0
C2063 C 0.76641 0.63571 0.10395 0.0
C2064 C 0.78012 0.65629 0.11432 0.0
C2065 C 0.80388 0.65742 0.11917 0.0
C2066 C 0.70642 0.64237 0.11671 0.0
C2067 C 0.69262 0.63234 0.09607 0.0
C2068 C 0.73021 0.64346 0.11904 0.0
C2069 C 0.74097 0.63436 0.10087 0.0
C2070 C 0.72727 0.62426 0.08014 0.0
C2071 C 0.70329 0.62344 0.07769 0.0
H2072 H 0.41225 0.72985 0.18225 0.0
H2073 H 0.40847 0.73176 0.10941 0.0
H2074 H 0.42261 0.7716 0.18947 0.0
H2075 H 0.41886 0.7735 0.1167 0.0
H2076 H 0.45271 0.84785 0.13799 0.0
H2077 H 0.45078 0.80577 0.13467 0.0
H2078 H 0.40089 0.80399 0.1818 0.0
H2079 H 0.40268 0.8456 0.18479 0.0
C2080 C 0.41374 0.73913 0.16778 0.0
C2081 C 0.40929 0.72743 0.14523 0.0
C2082 C 0.4197 0.76307 0.17193 0.0
C2083 C 0.42163 0.77589 0.15367 0.0
C2084 C 0.41781 0.76412 0.13116 0.0
C2085 C 0.4116 0.74021 0.12698 0.0
C2086 C 0.44195 0.83844 0.14815 0.0
C2087 C 0.42802 0.8499 0.16182 0.0
C2088 C 0.4406 0.81438 0.14606 0.0
C2089 C 0.42559 0.80152 0.1579 0.0
C2090 C 0.41278 0.81331 0.17263 0.0
C2091 C 0.41382 0.83716 0.17437 0.0
H2092 H 0.63093 0.31267 0.1765 0.0
H2093 H 0.59937 0.30664 0.106 0.0
H2094 H 0.62483 0.27109 0.17444 0.0
H2095 H 0.59328 0.26466 0.10402 0.0
H2096 H 0.5676 0.19084 0.11988 0.0
H2097 H 0.57078 0.2328 0.12197 0.0
H2098 H 0.64136 0.23921 0.15322 0.0
H2099 H 0.63829 0.19766 0.15115 0.0
C2100 C 0.62264 0.30249 0.16054 0.0
C2101 C 0.61576 0.31302 0.14135 0.0
C2102 C 0.61921 0.27863 0.15937 0.0
C2103 C 0.60865 0.26464 0.13906 0.0
C2104 C 0.60132 0.27507 0.11995 0.0
C2105 C 0.60496 0.29906 0.12104 0.0
C2106 C 0.5837 0.20127 0.12737 0.0
C2107 C 0.60267 0.19094 0.1354 0.0
C2108 C 0.58557 0.22523 0.12837 0.0
C2109 C 0.60632 0.23924 0.13776 0.0
C2110 C 0.6251 0.22888 0.14608 0.0
C2111 C 0.62334 0.20504 0.14482 0.0
H2112 H 0.85241 0.71768 0.63121 0.0
H2113 H 0.92331 0.72661 0.61977 0.0
H2114 H 0.8494 0.75689 0.62446 0.0
H2115 H 0.92018 0.76625 0.61302 0.0
H2116 H 0.89806 0.83165 0.5847 0.0
H2117 H 0.89862 0.79017 0.58535 0.0
H2118 H 0.86712 0.79476 0.64724 0.0
H2119 H 0.86681 0.83573 0.64666 0.0
C2120 C 0.86739 0.72797 0.6272 0.0
C2121 C 0.88819 0.719 0.62627 0.0
C2122 C 0.86562 0.75048 0.62331 0.0
C2123 C 0.88453 0.76466 0.61822 0.0
C2124 C 0.90524 0.75563 0.6167 0.0
C2125 C 0.90709 0.73303 0.6208 0.0
C2126 C 0.89078 0.82355 0.59805 0.0
C2127 C 0.88223 0.83676 0.61553 0.0
C2128 C 0.89137 0.79996 0.59861 0.0
C2129 C 0.88298 0.78925 0.6164 0.0
C2130 C 0.87354 0.80242 0.63322 0.0
C2131 C 0.87334 0.82588 0.63288 0.0
H2132 H 0.20894 0.86542 0.58615 0.0
H2133 H 0.21655 0.89759 0.65662 0.0
H2134 H 0.25094 0.86662 0.5894 0.0
H2135 H 0.25768 0.89867 0.65971 0.0
H2136 H 0.33003 0.92384 0.64946 0.0
H2137 H 0.28849 0.9205 0.64269 0.0
H2138 H 0.28441 0.84968 0.61259 0.0
H2139 H 0.32652 0.85299 0.61934 0.0
C2140 C 0.21946 0.87274 0.60223 0.0
C2141 C 0.20929 0.88147 0.62106 0.0
C2142 C 0.24345 0.87328 0.60414 0.0
C2143 C 0.25763 0.88287 0.62479 0.0
C2144 C 0.24733 0.89143 0.64349 0.0
C2145 C 0.22362 0.8907 0.64169 0.0
C2146 C 0.32042 0.90748 0.64141 0.0
C2147 C 0.33171 0.88862 0.63516 0.0
C2148 C 0.29653 0.90559 0.63753 0.0
C2149 C 0.28313 0.88481 0.62717 0.0
C2150 C 0.2943 0.86596 0.62047 0.0
C2151 C 0.31837 0.8678 0.62455 0.0
H2152 H 0.143 0.32156 0.60383 0.0
H2153 H 0.07283 0.29999 0.61282 0.0
H2154 H 0.14898 0.28179 0.59585 0.0
H2155 H 0.07908 0.25959 0.60519 0.0
H2156 H 0.09669 0.18763 0.57884 0.0
H2157 H 0.08862 0.22729 0.57712 0.0
H2158 H 0.15256 0.25293 0.62114 0.0
H2159 H 0.16035 0.21379 0.62271 0.0
C2160 C 0.12876 0.30829 0.60407 0.0
C2161 C 0.10753 0.31402 0.60942 0.0
C2162 C 0.13223 0.28541 0.59946 0.0
C2163 C 0.11466 0.26744 0.60022 0.0
C2164 C 0.09297 0.27303 0.60438 0.0
C2165 C 0.08941 0.29615 0.60888 0.0
C2166 C 0.10928 0.20188 0.58741 0.0
C2167 C 0.12937 0.19777 0.60052 0.0
C2168 C 0.10452 0.22452 0.58676 0.0
C2169 C 0.11993 0.24333 0.59899 0.0
C2170 C 0.14044 0.23899 0.61122 0.0
C2171 C 0.14499 0.21654 0.61208 0.0
H2172 H 0.70394 0.19108 0.61943 0.0
H2173 H 0.70252 0.12236 0.63703 0.0
H2174 H 0.74512 0.19294 0.61707 0.0
H2175 H 0.74349 0.12438 0.6349 0.0
H2176 H 0.82025 0.1496 0.65848 0.0
H2177 H 0.77919 0.14845 0.65851 0.0
H2178 H 0.77272 0.17207 0.59246 0.0
H2179 H 0.81429 0.17302 0.59223 0.0
C2180 C 0.7124 0.17644 0.62289 0.0
C2181 C 0.69995 0.15662 0.62856 0.0
C2182 C 0.73592 0.17744 0.62133 0.0
C2183 C 0.74752 0.15881 0.6258 0.0
C2184 C 0.73506 0.13907 0.6315 0.0
C2185 C 0.71156 0.13792 0.6327 0.0
C2186 C 0.81019 0.1546 0.6439 0.0
C2187 C 0.82063 0.16141 0.62532 0.0
C2188 C 0.78659 0.15381 0.64391 0.0
C2189 C 0.77271 0.1601 0.62549 0.0
C2190 C 0.78305 0.16722 0.60695 0.0
C2191 C 0.80678 0.16766 0.60676 0.0
H2192 H 0.9147 0.32433 0.35855 0.0
H2193 H 0.84501 0.31473 0.37341 0.0
H2194 H 0.9136 0.28282 0.35021 0.0
H2195 H 0.84402 0.27293 0.36524 0.0
H2196 H 0.87212 0.20694 0.38877 0.0
H2197 H 0.86601 0.24665 0.38755 0.0
H2198 H 0.89434 0.24582 0.32394 0.0
H2199 H 0.90015 0.20544 0.325 0.0
C2200 C 0.89902 0.31334 0.35977 0.0
C2201 C 0.88001 0.32283 0.3669 0.0
C2202 C 0.89834 0.28954 0.35476 0.0
C2203 C 0.87876 0.27457 0.35709 0.0
C2204 C 0.85939 0.28405 0.36336 0.0
C2205 C 0.85993 0.30796 0.368 0.0
C2206 C 0.87676 0.21509 0.37431 0.0
C2207 C 0.8868 0.20317 0.35706 0.0
C2208 C 0.87305 0.23781 0.37353 0.0
C2209 C 0.87967 0.24941 0.35567 0.0
C2210 C 0.8891 0.2373 0.33795 0.0
C2211 C 0.89236 0.21423 0.33848 0.0
H2212 H 0.82567 0.88142 0.40462 0.0
H2213 H 0.81761 0.85592 0.33222 0.0
H2214 H 0.78451 0.87503 0.40382 0.0
H2215 H 0.77567 0.84967 0.3315 0.0
H2216 H 0.7009 0.82498 0.35093 0.0
H2217 H 0.74238 0.82621 0.34924 0.0
H2218 H 0.7543 0.89542 0.38538 0.0
H2219 H 0.71372 0.89427 0.38721 0.0
C2220 C 0.81514 0.87444 0.38844 0.0
C2221 C 0.82506 0.86953 0.36838 0.0
C2222 C 0.79145 0.87076 0.38803 0.0
C2223 C 0.77682 0.86206 0.36757 0.0
C2224 C 0.78657 0.85632 0.34754 0.0
C2225 C 0.81053 0.86008 0.34793 0.0
C2226 C 0.71247 0.84035 0.35858 0.0
C2227 C 0.70395 0.85945 0.3693 0.0
C2228 C 0.73613 0.84113 0.35744 0.0
C2229 C 0.75158 0.86088 0.3673 0.0
C2230 C 0.74292 0.87985 0.37787 0.0
C2231 C 0.71954 0.87917 0.37884 0.0
H2232 H 0.13853 0.67955 0.35291 0.0
H2233 H 0.20865 0.6994 0.38544 0.0
H2234 H 0.13566 0.71932 0.3478 0.0
H2235 H 0.20569 0.73942 0.38033 0.0
H2236 H 0.17478 0.80701 0.39997 0.0
H2237 H 0.18276 0.76769 0.39859 0.0
H2238 H 0.15086 0.75274 0.328 0.0
H2239 H 0.14293 0.79273 0.32933 0.0
C2240 C 0.15342 0.69239 0.35884 0.0
C2241 C 0.17376 0.68632 0.36987 0.0
C2242 C 0.15182 0.71516 0.35566 0.0
C2243 C 0.17042 0.73252 0.36366 0.0
C2244 C 0.19101 0.7264 0.37409 0.0
C2245 C 0.19272 0.70351 0.37701 0.0
C2246 C 0.16958 0.79544 0.38404 0.0
C2247 C 0.15797 0.8029 0.3648 0.0
C2248 C 0.17439 0.77292 0.38321 0.0
C2249 C 0.16748 0.75708 0.36321 0.0
C2250 C 0.15633 0.76459 0.3437 0.0
C2251 C 0.15185 0.78743 0.3444 0.0
H2252 H 0.33048 0.08792 0.3611 0.0
H2253 H 0.33043 0.16032 0.35753 0.0
H2254 H 0.28853 0.08165 0.35238 0.0
H2255 H 0.2888 0.15409 0.349 0.0
H2256 H 0.21316 0.13636 0.325 0.0
H2257 H 0.25402 0.13577 0.32187 0.0
H2258 H 0.25909 0.09325 0.37583 0.0
H2259 H 0.2187 0.09386 0.37888 0.0
C2260 C 0.32158 0.10241 0.3581 0.0
C2261 C 0.33378 0.12465 0.36032 0.0
C2262 C 0.29757 0.09884 0.35316 0.0
C2263 C 0.2853 0.11739 0.35007 0.0
C2264 C 0.29766 0.13938 0.35102 0.0
C2265 C 0.32156 0.14298 0.35617 0.0
C2266 C 0.22293 0.12643 0.33571 0.0
C2267 C 0.21284 0.11533 0.35231 0.0
C2268 C 0.24632 0.1262 0.33406 0.0
C2269 C 0.25985 0.11456 0.34871 0.0
C2270 C 0.24921 0.10219 0.36414 0.0
C2271 C 0.22606 0.10269 0.366 0.0
H2272 H 0.61196 0.83733 0.68578 0.0
H2273 H 0.68069 0.8739 0.70262 0.0
H2274 H 0.6096 0.83711 0.72691 0.0
H2275 H 0.67852 0.87383 0.7432 0.0
H2276 H 0.6768 0.85847 0.81335 0.0
H2277 H 0.67607 0.84861 0.77243 0.0
H2278 H 0.60827 0.86805 0.76045 0.0
H2279 H 0.60873 0.8775 0.80203 0.0
C2280 C 0.62677 0.84459 0.69828 0.0
C2281 C 0.64666 0.85527 0.69126 0.0
C2282 C 0.62533 0.84478 0.72172 0.0
C2283 C 0.64387 0.85545 0.73828 0.0
C2284 C 0.66406 0.86516 0.73094 0.0
C2285 C 0.66537 0.86517 0.70772 0.0
C2286 C 0.66164 0.86063 0.80208 0.0
C2287 C 0.64302 0.86932 0.8109 0.0
C2288 C 0.66122 0.85487 0.77859 0.0
C2289 C 0.64227 0.85786 0.76319 0.0
C2290 C 0.62308 0.86546 0.77194 0.0
C2291 C 0.62341 0.87107 0.79568 0.0
H2292 H 0.16138 0.63332 0.81377 0.0
H2293 H 0.12009 0.56668 0.79481 0.0
H2294 H 0.16365 0.63619 0.77363 0.0
H2295 H 0.12237 0.56965 0.75426 0.0
H2296 H 0.10298 0.60515 0.68949 0.0
H2297 H 0.10565 0.59611 0.72842 0.0
H2298 H 0.17869 0.61853 0.73846 0.0
H2299 H 0.17608 0.62763 0.69908 0.0
C2300 C 0.15289 0.61918 0.801 0.0
C2301 C 0.14027 0.59988 0.80742 0.0
C2302 C 0.15444 0.62075 0.77801 0.0
C2303 C 0.14319 0.60317 0.76084 0.0
C2304 C 0.13112 0.5835 0.76721 0.0
C2305 C 0.12983 0.58178 0.79035 0.0
C2306 C 0.11968 0.60813 0.69992 0.0
C2307 C 0.13932 0.61742 0.69131 0.0
C2308 C 0.12121 0.60264 0.72215 0.0
C2309 C 0.14236 0.60653 0.73644 0.0
C2310 C 0.16214 0.61543 0.72777 0.0
C2311 C 0.16066 0.62064 0.7053 0.0
H2312 H 0.33954 0.14152 0.81325 0.0
H2313 H 0.41372 0.15218 0.82499 0.0
H2314 H 0.3407 0.13842 0.77162 0.0
H2315 H 0.41471 0.14881 0.78422 0.0
H2316 H 0.40778 0.17471 0.71528 0.0
H2317 H 0.40439 0.17407 0.75548 0.0
H2318 H 0.35471 0.11269 0.73786 0.0
H2319 H 0.35804 0.11342 0.69697 0.0
C2320 C 0.35599 0.14322 0.80704 0.0
C2321 C 0.3765 0.14732 0.82254 0.0
C2322 C 0.35666 0.1412 0.78326 0.0
C2323 C 0.37782 0.14346 0.7747 0.0
C2324 C 0.39815 0.14725 0.79025 0.0
C2325 C 0.39751 0.14917 0.81373 0.0
C2326 C 0.3963 0.16088 0.7199 0.0
C2327 C 0.38332 0.144 0.70296 0.0
C2328 C 0.39434 0.16053 0.74298 0.0
C2329 C 0.37925 0.14335 0.74985 0.0
C2330 C 0.36635 0.12623 0.73301 0.0
C2331 C 0.3685 0.12645 0.7097 0.0
H2332 H 0.91258 0.43459 0.72092 0.0
H2333 H 0.8571 0.37829 0.70271 0.0
H2334 H 0.90968 0.43402 0.76125 0.0
H2335 H 0.85418 0.37765 0.74371 0.0
H2336 H 0.88538 0.36963 0.82142 0.0
H2337 H 0.88064 0.36863 0.77952 0.0
H2338 H 0.8818 0.44222 0.78823 0.0
H2339 H 0.88668 0.44334 0.82947 0.0
C2340 C 0.8995 0.42227 0.72557 0.0
C2341 C 0.88498 0.40658 0.70865 0.0
C2342 C 0.89781 0.42196 0.74871 0.0
C2343 C 0.8817 0.40579 0.75569 0.0
C2344 C 0.86682 0.39023 0.73881 0.0
C2345 C 0.8683 0.39078 0.71541 0.0
C2346 C 0.88437 0.38551 0.81432 0.0
C2347 C 0.88687 0.4066 0.82885 0.0
C2348 C 0.88152 0.38493 0.79036 0.0
C2349 C 0.88113 0.40541 0.78062 0.0
C2350 C 0.88243 0.42621 0.7952 0.0
C2351 C 0.88528 0.42681 0.81891 0.0
H2352 H 0.65398 0.07719 0.30638 0.0
H2353 H 0.63957 0.14706 0.3189 0.0
H2354 H 0.65062 0.07956 0.2651 0.0
H2355 H 0.63596 0.1492 0.27797 0.0
H2356 H 0.60265 0.13215 0.2022 0.0
H2357 H 0.6074 0.12879 0.24299 0.0
H2358 H 0.6721 0.10384 0.2375 0.0
H2359 H 0.66756 0.10749 0.19653 0.0
C2360 C 0.65009 0.09299 0.30036 0.0
C2361 C 0.64704 0.11192 0.31594 0.0
C2362 C 0.64829 0.09438 0.27678 0.0
C2363 C 0.64297 0.11455 0.26836 0.0
C2364 C 0.63991 0.13339 0.28395 0.0
C2365 C 0.64209 0.13215 0.30743 0.0
C2366 C 0.61793 0.12598 0.20965 0.0
C2367 C 0.63478 0.12018 0.19612 0.0
C2368 C 0.62066 0.12411 0.23302 0.0
C2369 C 0.6401 0.11603 0.24339 0.0
C2370 C 0.65687 0.10997 0.22989 0.0
C2371 C 0.65435 0.11223 0.20651 0.0
H2372 H 0.82948 0.66106 0.31345 0.0
H2373 H 0.89375 0.63373 0.32065 0.0
H2374 H 0.83402 0.66614 0.27366 0.0
H2375 H 0.898 0.63841 0.28113 0.0
H2376 H 0.88343 0.62581 0.20211 0.0
H2377 H 0.87713 0.6211 0.24119 0.0
H2378 H 0.86296 0.69098 0.25284 0.0
H2379 H 0.86965 0.69592 0.21362 0.0
C2380 C 0.84442 0.65593 0.30651 0.0
C2381 C 0.86122 0.64696 0.32025 0.0
C2382 C 0.84711 0.659 0.28381 0.0
C2383 C 0.86639 0.65268 0.27424 0.0
C2384 C 0.8829 0.64332 0.2879 0.0
C2385 C 0.88046 0.6407 0.3106 0.0
C2386 C 0.87902 0.64024 0.21296 0.0
C2387 C 0.87717 0.6613 0.20469 0.0
C2388 C 0.87543 0.63752 0.2354 0.0
C2389 C 0.86949 0.65564 0.25013 0.0
C2390 C 0.86734 0.67664 0.24185 0.0
C2391 C 0.87136 0.67952 0.21945 0.0
H2392 H 0.40476 0.93825 0.22551 0.0
H2393 H 0.3471 0.88408 0.20905 0.0
H2394 H 0.4023 0.93907 0.26598 0.0
H2395 H 0.34438 0.88504 0.25019 0.0
H2396 H 0.37442 0.87286 0.32464 0.0
H2397 H 0.36818 0.87415 0.28346 0.0
H2398 H 0.37992 0.94834 0.29625 0.0
H2399 H 0.38663 0.94708 0.33737 0.0
C2400 C 0.39125 0.92672 0.23057 0.0
C2401 C 0.3762 0.91099 0.21408 0.0
C2402 C 0.38973 0.92732 0.25385 0.0
C2403 C 0.37316 0.91211 0.26143 0.0
C2404 C 0.35746 0.89688 0.24491 0.0
C2405 C 0.35885 0.89644 0.22138 0.0
C2406 C 0.37547 0.88947 0.3187 0.0
C2407 C 0.38138 0.90987 0.33435 0.0
C2408 C 0.37167 0.8902 0.29505 0.0
C2409 C 0.3737 0.91134 0.2865 0.0
C2410 C 0.37857 0.93174 0.30222 0.0
C2411 C 0.38239 0.93102 0.32583 0.0
H2412 H 0.11845 0.34194 0.31466 0.0
H2413 H 0.19212 0.35546 0.31773 0.0
H2414 H 0.11448 0.33456 0.27272 0.0
H2415 H 0.18805 0.34809 0.27608 0.0
H2416 H 0.16584 0.37352 0.20687 0.0
H2417 H 0.17105 0.37228 0.24787 0.0
H2418 H 0.12521 0.30818 0.2374 0.0
H2419 H 0.12017 0.3093 0.19567 0.0
C2420 C 0.13379 0.34305 0.30646 0.0
C2421 C 0.15559 0.34961 0.31958 0.0
C2422 C 0.1315 0.33863 0.28246 0.0
C2423 C 0.15095 0.34086 0.27115 0.0
C2424 C 0.17275 0.34642 0.28433 0.0
C2425 C 0.17505 0.35067 0.30822 0.0
C2426 C 0.15706 0.35897 0.21323 0.0
C2427 C 0.14258 0.3415 0.19812 0.0
C2428 C 0.16015 0.35822 0.23673 0.0
C2429 C 0.14858 0.34012 0.24585 0.0
C2430 C 0.1343 0.32234 0.23078 0.0
C2431 C 0.13155 0.32288 0.20698 0.0
H2432 H 0.71069 0.60564 0.85768 0.0
H2433 H 0.71467 0.63913 0.92726 0.0
H2434 H 0.75201 0.60556 0.86312 0.0
H2435 H 0.75632 0.63912 0.93268 0.0
H2436 H 0.82735 0.66914 0.91206 0.0
H2437 H 0.78641 0.6618 0.91399 0.0
H2438 H 0.78511 0.59082 0.88556 0.0
H2439 H 0.82634 0.59813 0.88367 0.0
C2440 C 0.72039 0.61267 0.87427 0.0
C2441 C 0.70956 0.62265 0.89197 0.0
C2442 C 0.74402 0.61243 0.87743 0.0
C2443 C 0.75733 0.62242 0.89828 0.0
C2444 C 0.74639 0.63142 0.9164 0.0
C2445 C 0.72262 0.63136 0.91333 0.0
C2446 C 0.81841 0.6519 0.9064 0.0
C2447 C 0.82998 0.63426 0.89744 0.0
C2448 C 0.79502 0.64765 0.90776 0.0
C2449 C 0.78264 0.62574 0.89997 0.0
C2450 C 0.7943 0.60789 0.89164 0.0
C2451 C 0.81784 0.61207 0.89055 0.0
H2452 H 0.70982 0.37521 0.20132 0.0
H2453 H 0.69738 0.39225 0.13267 0.0
H2454 H 0.7501 0.37266 0.19661 0.0
H2455 H 0.73736 0.39007 0.12821 0.0
H2456 H 0.81578 0.41245 0.14158 0.0
H2457 H 0.77602 0.41362 0.14755 0.0
H2458 H 0.77281 0.34666 0.16943 0.0
H2459 H 0.81284 0.34524 0.16306 0.0
C2460 C 0.71569 0.37857 0.18534 0.0
C2461 C 0.70039 0.384 0.1674 0.0
C2462 C 0.73866 0.37692 0.18258 0.0
C2463 C 0.74686 0.38115 0.16202 0.0
C2464 C 0.73159 0.38682 0.14427 0.0
C2465 C 0.70866 0.38803 0.14685 0.0
C2466 C 0.80665 0.3979 0.1476 0.0
C2467 C 0.8175 0.37869 0.15175 0.0
C2468 C 0.78384 0.39859 0.15099 0.0
C2469 C 0.77131 0.38027 0.159 0.0
C2470 C 0.78212 0.3611 0.16339 0.0
C2471 C 0.80494 0.3602 0.15956 0.0
H2472 H 0.60954 0.69797 0.15806 0.0
H2473 H 0.63939 0.70181 0.09565 0.0
H2474 H 0.60421 0.73857 0.15978 0.0
H2475 H 0.63435 0.74222 0.09758 0.0
H2476 H 0.64342 0.81966 0.12275 0.0
H2477 H 0.64976 0.77995 0.12412 0.0
H2478 H 0.57931 0.76187 0.13401 0.0
H2479 H 0.57276 0.80178 0.13241 0.0
C2480 C 0.61525 0.70755 0.14493 0.0
C2481 C 0.62491 0.69672 0.12674 0.0
C2482 C 0.61202 0.73068 0.14581 0.0
C2483 C 0.61882 0.74349 0.12878 0.0
C2484 C 0.62907 0.73281 0.111 0.0
C2485 C 0.63191 0.70966 0.10989 0.0
C2486 C 0.62924 0.80729 0.12529 0.0
C2487 C 0.60753 0.81388 0.12737 0.0
C2488 C 0.6329 0.78453 0.12601 0.0
C2489 C 0.61504 0.76785 0.12917 0.0
C2490 C 0.59342 0.77445 0.13173 0.0
C2491 C 0.58964 0.79722 0.13065 0.0
H2492 H 0.1977 0.66929 0.10969 0.0
H2493 H 0.20589 0.60368 0.13186 0.0
H2494 H 0.23882 0.67602 0.10681 0.0
H2495 H 0.24688 0.61061 0.12933 0.0
H2496 H 0.32247 0.64445 0.14761 0.0
H2497 H 0.28148 0.63921 0.15012 0.0
H2498 H 0.26734 0.65742 0.08219 0.0
H2499 H 0.30857 0.66238 0.07944 0.0
C2500 C 0.20827 0.65639 0.1141 0.0
C2501 C 0.19848 0.63596 0.12105 0.0
C2502 C 0.23177 0.66018 0.11229 0.0
C2503 C 0.24609 0.64385 0.11785 0.0
C2504 C 0.23634 0.62359 0.12507 0.0
C2505 C 0.21282 0.6196 0.12645 0.0
C2506 C 0.3107 0.64744 0.13319 0.0
C2507 C 0.31887 0.65382 0.11329 0.0
C2508 C 0.28717 0.64431 0.13461 0.0
C2509 C 0.27116 0.64785 0.11635 0.0
C2510 C 0.27928 0.65469 0.0966 0.0
C2511 C 0.30287 0.65742 0.09499 0.0
H2512 H 0.34464 0.21535 0.10846 0.0
H2513 H 0.36889 0.22952 0.18089 0.0
H2514 H 0.34411 0.25658 0.1072 0.0
H2515 H 0.36895 0.27046 0.17984 0.0
H2516 H 0.35731 0.34229 0.17649 0.0
H2517 H 0.34752 0.3011 0.17501 0.0
H2518 H 0.37272 0.29022 0.10984 0.0
H2519 H 0.38183 0.33189 0.11099 0.0
C2520 C 0.34901 0.22727 0.12424 0.0
C2521 C 0.35616 0.21938 0.14491 0.0
C2522 C 0.34913 0.25088 0.12349 0.0
C2523 C 0.35657 0.26695 0.14339 0.0
C2524 C 0.3627 0.2587 0.16423 0.0
C2525 C 0.36258 0.23521 0.16493 0.0
C2526 C 0.36066 0.33117 0.16173 0.0
C2527 C 0.3707 0.34038 0.14401 0.0
C2528 C 0.35506 0.30747 0.16091 0.0
C2529 C 0.35961 0.29221 0.14249 0.0
C2530 C 0.36879 0.30144 0.12423 0.0
C2531 C 0.37418 0.32531 0.12494 0.0
H2532 H 0.336 0.38491 0.9271 0.0
H2533 H 0.33606 0.41476 0.86437 0.0
H2534 H 0.29491 0.38628 0.92541 0.0
H2535 H 0.29474 0.41647 0.86292 0.0
H2536 H 0.22744 0.44004 0.88888 0.0
H2537 H 0.26855 0.43834 0.88851 0.0
H2538 H 0.25826 0.36713 0.89868 0.0
H2539 H 0.21736 0.36864 0.89871 0.0
C2540 C 0.32722 0.39169 0.91288 0.0
C2541 C 0.33931 0.39966 0.89582 0.0
C2542 C 0.30366 0.39243 0.91191 0.0
C2543 C 0.29162 0.40155 0.89408 0.0
C2544 C 0.30363 0.4095 0.87695 0.0
C2545 C 0.32721 0.40834 0.87767 0.0
C2546 C 0.23399 0.42405 0.89108 0.0
C2547 C 0.21912 0.4045 0.89389 0.0
C2548 C 0.25746 0.42304 0.89068 0.0
C2549 C 0.2666 0.40259 0.89354 0.0
C2550 C 0.25175 0.38315 0.89653 0.0
C2551 C 0.2283 0.38403 0.89651 0.0
H2552 H 0.64276 0.20919 0.89644 0.0
H2553 H 0.70661 0.21217 0.86834 0.0
H2554 H 0.64112 0.24935 0.89215 0.0
H2555 H 0.70475 0.25264 0.86371 0.0
H2556 H 0.67191 0.31394 0.8331 0.0
H2557 H 0.67752 0.27463 0.83902 0.0
H2558 H 0.66344 0.28864 0.90856 0.0
H2559 H 0.6581 0.32781 0.90284 0.0
C2560 C 0.65657 0.21849 0.88949 0.0
C2561 C 0.67486 0.20746 0.88279 0.0
C2562 C 0.65564 0.24155 0.88709 0.0
C2563 C 0.67277 0.25419 0.87755 0.0
C2564 C 0.69123 0.2433 0.871 0.0
C2565 C 0.6924 0.22021 0.87383 0.0
C2566 C 0.67009 0.30865 0.84967 0.0
C2567 C 0.66445 0.32405 0.86745 0.0
C2568 C 0.67348 0.28619 0.8531 0.0
C2569 C 0.67091 0.27851 0.87426 0.0
C2570 C 0.66541 0.29397 0.89203 0.0
C2571 C 0.66239 0.31646 0.88873 0.0
H2572 H 0.40831 0.72888 0.94934 0.0
H2573 H 0.3746 0.7061 0.88004 0.0
H2574 H 0.40307 0.76855 0.9446 0.0
H2575 H 0.36939 0.74545 0.87543 0.0
H2576 H 0.34908 0.81895 0.88252 0.0
H2577 H 0.34936 0.77901 0.88991 0.0
H2578 H 0.4205 0.79557 0.91985 0.0
H2579 H 0.42041 0.83482 0.91249 0.0
C2580 C 0.39965 0.73229 0.93322 0.0
C2581 C 0.39218 0.7144 0.915 0.0
C2582 C 0.39666 0.75496 0.93048 0.0
C2583 C 0.38584 0.76008 0.9096 0.0
C2584 C 0.37759 0.74205 0.89175 0.0
C2585 C 0.38083 0.71952 0.89437 0.0
C2586 C 0.36474 0.81398 0.8906 0.0
C2587 C 0.38472 0.83008 0.89672 0.0
C2588 C 0.3649 0.79118 0.89487 0.0
C2589 C 0.38491 0.78427 0.9057 0.0
C2590 C 0.40473 0.80043 0.91187 0.0
C2591 C 0.40468 0.82294 0.90735 0.0
loop_
_geom_bond_atom_site_label_1
_geom_bond_atom_site_label_2
_geom_bond_distance
_geom_bond_site_symmetry_2
_ccdc_geom_bond_type
C0 O2 1.247 . S
C0 O4 1.258 . S
C1 O8 1.247 . S
C1 O9 1.258 . S
O2 C0 1.247 . S
O2 Zn3 2.028 . S
Zn3 O2 2.028 . S
Zn3 O7 2.035 . S
Zn3 O9 2.035 . S
Zn3 O10 2.028 . S
O4 C0 1.258 . S
O4 Zn5 2.035 . S
Zn5 O4 2.035 . S
Zn5 O6 2.028 . S
Zn5 O8 2.028 . S
Zn5 O11 2.035 . S
O6 Zn5 2.028 . S
O6 C12 1.247 . S
O7 Zn3 2.035 . S
O7 C12 1.258 . S
O8 C1 1.247 . S
O8 Zn5 2.028 . S
O9 C1 1.258 . S
O9 Zn3 2.035 . S
O10 Zn3 2.028 . S
O10 C13 1.247 . S
O11 Zn5 2.035 . S
O11 C13 1.258 . S
C12 O6 1.247 . S
C12 O7 1.258 . S
C13 O10 1.247 . S
C13 O11 1.258 . S
C14 O16 1.247 . S
C14 O18 1.258 . S
C15 O22 1.247 . S
C15 O23 1.258 . S
O16 C14 1.247 . S
O16 Zn17 2.028 . S
Zn17 O16 2.028 . S
Zn17 O21 2.035 . S
Zn17 O23 2.035 . S
Zn17 O24 2.028 . S
O18 C14 1.258 . S
O18 Zn19 2.035 . S
Zn19 O18 2.035 . S
Zn19 O20 2.028 . S
Zn19 O22 2.028 . S
Zn19 O25 2.035 . S
O20 Zn19 2.028 . S
O20 C26 1.247 . S
O21 Zn17 2.035 . S
O21 C26 1.258 . S
O22 C15 1.247 . S
O22 Zn19 2.028 . S
O23 C15 1.258 . S
O23 Zn17 2.035 . S
O24 Zn17 2.028 . S
O24 C27 1.247 . S
O25 Zn19 2.035 . S
O25 C27 1.258 . S
C26 O20 1.247 . S
C26 O21 1.258 . S
C27 O24 1.247 . S
C27 O25 1.258 . S
C28 O30 1.247 . S
C28 O32 1.258 . S
C29 O36 1.247 . S
C29 O37 1.258 . S
O30 C28 1.247 . S
O30 Zn31 2.028 . S
Zn31 O30 2.028 . S
Zn31 O35 2.035 . S
Zn31 O37 2.035 . S
Zn31 O38 2.028 . S
O32 C28 1.258 . S
O32 Zn33 2.035 . S
Zn33 O32 2.035 . S
Zn33 O34 2.028 . S
Zn33 O36 2.028 . S
Zn33 O39 2.035 . S
O34 Zn33 2.028 . S
O34 C40 1.247 . S
O35 Zn31 2.035 . S
O35 C40 1.258 . S
O36 C29 1.247 . S
O36 Zn33 2.028 . S
O37 C29 1.258 . S
O37 Zn31 2.035 . S
O38 Zn31 2.028 . S
O38 C41 1.247 . S
O39 Zn33 2.035 . S
O39 C41 1.258 . S
C40 O34 1.247 . S
C40 O35 1.258 . S
C41 O38 1.247 . S
C41 O39 1.258 . S
C42 O44 1.247 . S
C42 O46 1.258 . S
C43 O50 1.247 . S
C43 O51 1.258 . S
O44 C42 1.247 . S
O44 Zn45 2.028 . S
Zn45 O44 2.028 . S
Zn45 O49 2.035 . S
Zn45 O51 2.035 . S
Zn45 O52 2.028 . S
O46 C42 1.258 . S
O46 Zn47 2.035 . S
Zn47 O46 2.035 . S
Zn47 O48 2.028 . S
Zn47 O50 2.028 . S
Zn47 O53 2.035 . S
O48 Zn47 2.028 . S
O48 C54 1.247 . S
O49 Zn45 2.035 . S
O49 C54 1.258 . S
O50 C43 1.247 . S
O50 Zn47 2.028 . S
O51 C43 1.258 . S
O51 Zn45 2.035 . S
O52 Zn45 2.028 . S
O52 C55 1.247 . S
O53 Zn47 2.035 . S
O53 C55 1.258 . S
C54 O48 1.247 . S
C54 O49 1.258 . S
C55 O52 1.247 . S
C55 O53 1.258 . S
C56 O58 1.247 . S
C56 O60 1.258 . S
C57 O64 1.247 . S
C57 O65 1.258 . S
O58 C56 1.247 . S
O58 Zn59 2.028 . S
Zn59 O58 2.028 . S
Zn59 O63 2.035 . S
Zn59 O65 2.035 . S
Zn59 O66 2.028 . S
O60 C56 1.258 . S
O60 Zn61 2.035 . S
Zn61 O60 2.035 . S
Zn61 O62 2.028 . S
Zn61 O64 2.028 . S
Zn61 O67 2.035 . S
O62 Zn61 2.028 . S
O62 C68 1.247 . S
O63 Zn59 2.035 . S
O63 C68 1.258 . S
O64 C57 1.247 . S
O64 Zn61 2.028 . S
O65 C57 1.258 . S
O65 Zn59 2.035 . S
O66 Zn59 2.028 . S
O66 C69 1.247 . S
O67 Zn61 2.035 . S
O67 C69 1.258 . S
C68 O62 1.247 . S
C68 O63 1.258 . S
C69 O66 1.247 . S
C69 O67 1.258 . S
C70 O72 1.247 . S
C70 O74 1.258 . S
C71 O78 1.247 . S
C71 O79 1.258 . S
O72 C70 1.247 . S
O72 Zn73 2.028 . S
Zn73 O72 2.028 . S
Zn73 O77 2.035 . S
Zn73 O79 2.035 . S
Zn73 O80 2.028 . S
O74 C70 1.258 . S
O74 Zn75 2.035 . S
Zn75 O74 2.035 . S
Zn75 O76 2.028 . S
Zn75 O78 2.028 . S
Zn75 O81 2.035 . S
O76 Zn75 2.028 . S
O76 C82 1.247 . S
O77 Zn73 2.035 . S
O77 C82 1.258 . S
O78 C71 1.247 . S
O78 Zn75 2.028 . S
O79 C71 1.258 . S
O79 Zn73 2.035 . S
O80 Zn73 2.028 . S
O80 C83 1.247 . S
O81 Zn75 2.035 . S
O81 C83 1.258 . S
C82 O76 1.247 . S
C82 O77 1.258 . S
C83 O80 1.247 . S
C83 O81 1.258 . S
C84 O86 1.247 . S
C84 O88 1.258 . S
C85 O92 1.247 . S
C85 O93 1.258 . S
O86 C84 1.247 . S
O86 Zn87 2.028 . S
Zn87 O86 2.028 . S
Zn87 O91 2.035 . S
Zn87 O93 2.035 . S
Zn87 O94 2.028 . S
O88 C84 1.258 . S
O88 Zn89 2.035 . S
Zn89 O88 2.035 . S
Zn89 O90 2.028 . S
Zn89 O92 2.028 . S
Zn89 O95 2.035 . S
O90 Zn89 2.028 . S
O90 C96 1.247 . S
O91 Zn87 2.035 . S
O91 C96 1.258 . S
O92 C85 1.247 . S
O92 Zn89 2.028 . S
O93 C85 1.258 . S
O93 Zn87 2.035 . S
O94 Zn87 2.028 . S
O94 C97 1.247 . S
O95 Zn89 2.035 . S
O95 C97 1.258 . S
C96 O90 1.247 . S
C96 O91 1.258 . S
C97 O94 1.247 . S
C97 O95 1.258 . S
C98 O100 1.247 . S
C98 O102 1.258 . S
C99 O106 1.247 . S
C99 O107 1.258 . S
O100 C98 1.247 . S
O100 Zn101 2.028 . S
Zn101 O100 2.028 . S
Zn101 O105 2.035 . S
Zn101 O107 2.035 . S
Zn101 O108 2.028 . S
O102 C98 1.258 . S
O102 Zn103 2.035 . S
Zn103 O102 2.035 . S
Zn103 O104 2.028 . S
Zn103 O106 2.028 . S
Zn103 O109 2.035 . S
O104 Zn103 2.028 . S
O104 C110 1.247 . S
O105 Zn101 2.035 . S
O105 C110 1.258 . S
O106 C99 1.247 . S
O106 Zn103 2.028 . S
O107 C99 1.258 . S
O107 Zn101 2.035 . S
O108 Zn101 2.028 . S
O108 C111 1.247 . S
O109 Zn103 2.035 . S
O109 C111 1.258 . S
C110 O104 1.247 . S
C110 O105 1.258 . S
C111 O108 1.247 . S
C111 O109 1.258 . S
C112 O114 1.247 . S
C112 O116 1.258 . S
C113 O120 1.247 . S
C113 O121 1.258 . S
O114 C112 1.247 . S
O114 Zn115 2.028 . S
Zn115 O114 2.028 . S
Zn115 O119 2.035 . S
Zn115 O121 2.035 . S
Zn115 O122 2.028 . S
O116 C112 1.258 . S
O116 Zn117 2.035 . S
Zn117 O116 2.035 . S
Zn117 O118 2.028 . S
Zn117 O120 2.028 . S
Zn117 O123 2.035 . S
O118 Zn117 2.028 . S
O118 C124 1.247 . S
O119 Zn115 2.035 . S
O119 C124 1.258 . S
O120 C113 1.247 . S
O120 Zn117 2.028 . S
O121 C113 1.258 . S
O121 Zn115 2.035 . S
O122 Zn115 2.028 . S
O122 C125 1.247 . S
O123 Zn117 2.035 . S
O123 C125 1.258 . S
C124 O118 1.247 . S
C124 O119 1.258 . S
C125 O122 1.247 . S
C125 O123 1.258 . S
C126 O128 1.247 . S
C126 O130 1.258 . S
C127 O134 1.247 . S
C127 O135 1.258 . S
O128 C126 1.247 . S
O128 Zn129 2.028 . S
Zn129 O128 2.028 . S
Zn129 O133 2.035 . S
Zn129 O135 2.035 . S
Zn129 O136 2.028 . S
O130 C126 1.258 . S
O130 Zn131 2.035 . S
Zn131 O130 2.035 . S
Zn131 O132 2.028 . S
Zn131 O134 2.028 . S
Zn131 O137 2.035 . S
O132 Zn131 2.028 . S
O132 C138 1.247 . S
O133 Zn129 2.035 . S
O133 C138 1.258 . S
O134 C127 1.247 . S
O134 Zn131 2.028 . S
O135 C127 1.258 . S
O135 Zn129 2.035 . S
O136 Zn129 2.028 . S
O136 C139 1.247 . S
O137 Zn131 2.035 . S
O137 C139 1.258 . S
C138 O132 1.247 . S
C138 O133 1.258 . S
C139 O136 1.247 . S
C139 O137 1.258 . S
C140 O142 1.247 . S
C140 O144 1.258 . S
C141 O148 1.247 . S
C141 O149 1.258 . S
O142 C140 1.247 . S
O142 Zn143 2.028 . S
Zn143 O142 2.028 . S
Zn143 O147 2.035 . S
Zn143 O149 2.035 . S
Zn143 O150 2.028 . S
O144 C140 1.258 . S
O144 Zn145 2.035 . S
Zn145 O144 2.035 . S
Zn145 O146 2.028 . S
Zn145 O148 2.028 . S
Zn145 O151 2.035 . S
O146 Zn145 2.028 . S
O146 C152 1.247 . S
O147 Zn143 2.035 . S
O147 C152 1.258 . S
O148 C141 1.247 . S
O148 Zn145 2.028 . S
O149 C141 1.258 . S
O149 Zn143 2.035 . S
O150 Zn143 2.028 . S
O150 C153 1.247 . S
O151 Zn145 2.035 . S
O151 C153 1.258 . S
C152 O146 1.247 . S
C152 O147 1.258 . S
C153 O150 1.247 . S
C153 O151 1.258 . S
C154 O156 1.247 . S
C154 O158 1.258 . S
C155 O162 1.247 . S
C155 O163 1.258 . S
O156 C154 1.247 . S
O156 Zn157 2.028 . S
Zn157 O156 2.028 . S
Zn157 O161 2.035 . S
Zn157 O163 2.035 . S
Zn157 O164 2.028 . S
O158 C154 1.258 . S
O158 Zn159 2.035 . S
Zn159 O158 2.035 . S
Zn159 O160 2.028 . S
Zn159 O162 2.028 . S
Zn159 O165 2.035 . S
O160 Zn159 2.028 . S
O160 C166 1.247 . S
O161 Zn157 2.035 . S
O161 C166 1.258 . S
O162 C155 1.247 . S
O162 Zn159 2.028 . S
O163 C155 1.258 . S
O163 Zn157 2.035 . S
O164 Zn157 2.028 . S
O164 C167 1.247 . S
O165 Zn159 2.035 . S
O165 C167 1.258 . S
C166 O160 1.247 . S
C166 O161 1.258 . S
C167 O164 1.247 . S
C167 O165 1.258 . S
C168 O170 1.247 . S
C168 O172 1.258 . S
C169 O176 1.247 . S
C169 O177 1.258 . S
O170 C168 1.247 . S
O170 Zn171 2.028 . S
Zn171 O170 2.028 . S
Zn171 O175 2.035 . S
Zn171 O177 2.035 . S
Zn171 O178 2.028 . S
O172 C168 1.258 . S
O172 Zn173 2.035 . S
Zn173 O172 2.035 . S
Zn173 O174 2.028 . S
Zn173 O176 2.028 . S
Zn173 O179 2.035 . S
O174 Zn173 2.028 . S
O174 C180 1.247 . S
O175 Zn171 2.035 . S
O175 C180 1.258 . S
O176 C169 1.247 . S
O176 Zn173 2.028 . S
O177 C169 1.258 . S
O177 Zn171 2.035 . S
O178 Zn171 2.028 . S
O178 C181 1.247 . S
O179 Zn173 2.035 . S
O179 C181 1.258 . S
C180 O174 1.247 . S
C180 O175 1.258 . S
C181 O178 1.247 . S
C181 O179 1.258 . S
C182 O184 1.247 . S
C182 O186 1.258 . S
C183 O190 1.247 . S
C183 O191 1.258 . S
O184 C182 1.247 . S
O184 Zn185 2.028 . S
Zn185 O184 2.028 . S
Zn185 O189 2.035 . S
Zn185 O191 2.035 . S
Zn185 O192 2.028 . S
O186 C182 1.258 . S
O186 Zn187 2.035 . S
Zn187 O186 2.035 . S
Zn187 O188 2.028 . S
Zn187 O190 2.028 . S
Zn187 O193 2.035 . S
O188 Zn187 2.028 . S
O188 C194 1.247 . S
O189 Zn185 2.035 . S
O189 C194 1.258 . S
O190 C183 1.247 . S
O190 Zn187 2.028 . S
O191 C183 1.258 . S
O191 Zn185 2.035 . S
O192 Zn185 2.028 . S
O192 C195 1.247 . S
O193 Zn187 2.035 . S
O193 C195 1.258 . S
C194 O188 1.247 . S
C194 O189 1.258 . S
C195 O192 1.247 . S
C195 O193 1.258 . S
C196 O198 1.247 . S
C196 O200 1.258 . S
C197 O204 1.247 . S
C197 O205 1.258 . S
O198 C196 1.247 . S
O198 Zn199 2.028 . S
Zn199 O198 2.028 . S
Zn199 O203 2.035 . S
Zn199 O205 2.035 . S
Zn199 O206 2.028 . S
O200 C196 1.258 . S
O200 Zn201 2.035 . S
Zn201 O200 2.035 . S
Zn201 O202 2.028 . S
Zn201 O204 2.028 . S
Zn201 O207 2.035 . S
O202 Zn201 2.028 . S
O202 C208 1.247 . S
O203 Zn199 2.035 . S
O203 C208 1.258 . S
O204 C197 1.247 . S
O204 Zn201 2.028 . S
O205 C197 1.258 . S
O205 Zn199 2.035 . S
O206 Zn199 2.028 . S
O206 C209 1.247 . S
O207 Zn201 2.035 . S
O207 C209 1.258 . S
C208 O202 1.247 . S
C208 O203 1.258 . S
C209 O206 1.247 . S
C209 O207 1.258 . S
C210 O212 1.247 . S
C210 O214 1.258 . S
C211 O218 1.247 . S
C211 O219 1.258 . S
O212 C210 1.247 . S
O212 Zn213 2.028 . S
Zn213 O212 2.028 . S
Zn213 O217 2.035 . S
Zn213 O219 2.035 . S
Zn213 O220 2.028 . S
O214 C210 1.258 . S
O214 Zn215 2.035 . S
Zn215 O214 2.035 . S
Zn215 O216 2.028 . S
Zn215 O218 2.028 . S
Zn215 O221 2.035 . S
O216 Zn215 2.028 . S
O216 C222 1.247 . S
O217 Zn213 2.035 . S
O217 C222 1.258 . S
O218 C211 1.247 . S
O218 Zn215 2.028 . S
O219 C211 1.258 . S
O219 Zn213 2.035 . S
O220 Zn213 2.028 . S
O220 C223 1.247 . S
O221 Zn215 2.035 . S
O221 C223 1.258 . S
C222 O216 1.247 . S
C222 O217 1.258 . S
C223 O220 1.247 . S
C223 O221 1.258 . S
C224 O226 1.247 . S
C224 O228 1.258 . S
C225 O232 1.247 . S
C225 O233 1.258 . S
O226 C224 1.247 . S
O226 Zn227 2.028 . S
Zn227 O226 2.028 . S
Zn227 O231 2.035 . S
Zn227 O233 2.035 . S
Zn227 O234 2.028 . S
O228 C224 1.258 . S
O228 Zn229 2.035 . S
Zn229 O228 2.035 . S
Zn229 O230 2.028 . S
Zn229 O232 2.028 . S
Zn229 O235 2.035 . S
O230 Zn229 2.028 . S
O230 C236 1.247 . S
O231 Zn227 2.035 . S
O231 C236 1.258 . S
O232 C225 1.247 . S
O232 Zn229 2.028 . S
O233 C225 1.258 . S
O233 Zn227 2.035 . S
O234 Zn227 2.028 . S
O234 C237 1.247 . S
O235 Zn229 2.035 . S
O235 C237 1.258 . S
C236 O230 1.247 . S
C236 O231 1.258 . S
C237 O234 1.247 . S
C237 O235 1.258 . S
C238 O240 1.247 . S
C238 O242 1.258 . S
C239 O246 1.247 . S
C239 O247 1.258 . S
O240 C238 1.247 . S
O240 Zn241 2.028 . S
Zn241 O240 2.028 . S
Zn241 O245 2.035 . S
Zn241 O247 2.035 . S
Zn241 O248 2.028 . S
O242 C238 1.258 . S
O242 Zn243 2.035 . S
Zn243 O242 2.035 . S
Zn243 O244 2.028 . S
Zn243 O246 2.028 . S
Zn243 O249 2.035 . S
O244 Zn243 2.028 . S
O244 C250 1.247 . S
O245 Zn241 2.035 . S
O245 C250 1.258 . S
O246 C239 1.247 . S
O246 Zn243 2.028 . S
O247 C239 1.258 . S
O247 Zn241 2.035 . S
O248 Zn241 2.028 . S
O248 C251 1.247 . S
O249 Zn243 2.035 . S
O249 C251 1.258 . S
C250 O244 1.247 . S
C250 O245 1.258 . S
C251 O248 1.247 . S
C251 O249 1.258 . S
C252 O254 1.247 . S
C252 O256 1.258 . S
C253 O260 1.247 . S
C253 O261 1.258 . S
O254 C252 1.247 . S
O254 Zn255 2.028 . S
Zn255 O254 2.028 . S
Zn255 O259 2.035 . S
Zn255 O261 2.035 . S
Zn255 O262 2.028 . S
O256 C252 1.258 . S
O256 Zn257 2.035 . S
Zn257 O256 2.035 . S
Zn257 O258 2.028 . S
Zn257 O260 2.028 . S
Zn257 O263 2.035 . S
O258 Zn257 2.028 . S
O258 C264 1.247 . S
O259 Zn255 2.035 . S
O259 C264 1.258 . S
O260 C253 1.247 . S
O260 Zn257 2.028 . S
O261 C253 1.258 . S
O261 Zn255 2.035 . S
O262 Zn255 2.028 . S
O262 C265 1.247 . S
O263 Zn257 2.035 . S
O263 C265 1.258 . S
C264 O258 1.247 . S
C264 O259 1.258 . S
C265 O262 1.247 . S
C265 O263 1.258 . S
C266 O268 1.247 . S
C266 O270 1.258 . S
C267 O274 1.247 . S
C267 O275 1.258 . S
O268 C266 1.247 . S
O268 Zn269 2.028 . S
Zn269 O268 2.028 . S
Zn269 O273 2.035 . S
Zn269 O275 2.035 . S
Zn269 O276 2.028 . S
O270 C266 1.258 . S
O270 Zn271 2.035 . S
Zn271 O270 2.035 . S
Zn271 O272 2.028 . S
Zn271 O274 2.028 . S
Zn271 O277 2.035 . S
O272 Zn271 2.028 . S
O272 C278 1.247 . S
O273 Zn269 2.035 . S
O273 C278 1.258 . S
O274 C267 1.247 . S
O274 Zn271 2.028 . S
O275 C267 1.258 . S
O275 Zn269 2.035 . S
O276 Zn269 2.028 . S
O276 C279 1.247 . S
O277 Zn271 2.035 . S
O277 C279 1.258 . S
C278 O272 1.247 . S
C278 O273 1.258 . S
C279 O276 1.247 . S
C279 O277 1.258 . S
C280 O282 1.247 . S
C280 O284 1.258 . S
C281 O288 1.247 . S
C281 O289 1.258 . S
O282 C280 1.247 . S
O282 Zn283 2.028 . S
Zn283 O282 2.028 . S
Zn283 O287 2.035 . S
Zn283 O289 2.035 . S
Zn283 O290 2.028 . S
O284 C280 1.258 . S
O284 Zn285 2.035 . S
Zn285 O284 2.035 . S
Zn285 O286 2.028 . S
Zn285 O288 2.028 . S
Zn285 O291 2.035 . S
O286 Zn285 2.028 . S
O286 C292 1.247 . S
O287 Zn283 2.035 . S
O287 C292 1.258 . S
O288 C281 1.247 . S
O288 Zn285 2.028 . S
O289 C281 1.258 . S
O289 Zn283 2.035 . S
O290 Zn283 2.028 . S
O290 C293 1.247 . S
O291 Zn285 2.035 . S
O291 C293 1.258 . S
C292 O286 1.247 . S
C292 O287 1.258 . S
C293 O290 1.247 . S
C293 O291 1.258 . S
C294 O296 1.247 . S
C294 O298 1.258 . S
C295 O302 1.247 . S
C295 O303 1.258 . S
O296 C294 1.247 . S
O296 Zn297 2.028 . S
Zn297 O296 2.028 . S
Zn297 O301 2.035 . S
Zn297 O303 2.035 . S
Zn297 O304 2.028 . S
O298 C294 1.258 . S
O298 Zn299 2.035 . S
Zn299 O298 2.035 . S
Zn299 O300 2.028 . S
Zn299 O302 2.028 . S
Zn299 O305 2.035 . S
O300 Zn299 2.028 . S
O300 C306 1.247 . S
O301 Zn297 2.035 . S
O301 C306 1.258 . S
O302 C295 1.247 . S
O302 Zn299 2.028 . S
O303 C295 1.258 . S
O303 Zn297 2.035 . S
O304 Zn297 2.028 . S
O304 C307 1.247 . S
O305 Zn299 2.035 . S
O305 C307 1.258 . S
C306 O300 1.247 . S
C306 O301 1.258 . S
C307 O304 1.247 . S
C307 O305 1.258 . S
C308 O310 1.247 . S
C308 O312 1.258 . S
C309 O316 1.247 . S
C309 O317 1.258 . S
O310 C308 1.247 . S
O310 Zn311 2.028 . S
Zn311 O310 2.028 . S
Zn311 O315 2.035 . S
Zn311 O317 2.035 . S
Zn311 O318 2.028 . S
O312 C308 1.258 . S
O312 Zn313 2.035 . S
Zn313 O312 2.035 . S
Zn313 O314 2.028 . S
Zn313 O316 2.028 . S
Zn313 O319 2.035 . S
O314 Zn313 2.028 . S
O314 C320 1.247 . S
O315 Zn311 2.035 . S
O315 C320 1.258 . S
O316 C309 1.247 . S
O316 Zn313 2.028 . S
O317 C309 1.258 . S
O317 Zn311 2.035 . S
O318 Zn311 2.028 . S
O318 C321 1.247 . S
O319 Zn313 2.035 . S
O319 C321 1.258 . S
C320 O314 1.247 . S
C320 O315 1.258 . S
C321 O318 1.247 . S
C321 O319 1.258 . S
C322 O324 1.247 . S
C322 O326 1.258 . S
C323 O330 1.247 . S
C323 O331 1.258 . S
O324 C322 1.247 . S
O324 Zn325 2.028 . S
Zn325 O324 2.028 . S
Zn325 O329 2.035 . S
Zn325 O331 2.035 . S
Zn325 O332 2.028 . S
O326 C322 1.258 . S
O326 Zn327 2.035 . S
Zn327 O326 2.035 . S
Zn327 O328 2.028 . S
Zn327 O330 2.028 . S
Zn327 O333 2.035 . S
O328 Zn327 2.028 . S
O328 C334 1.247 . S
O329 Zn325 2.035 . S
O329 C334 1.258 . S
O330 C323 1.247 . S
O330 Zn327 2.028 . S
O331 C323 1.258 . S
O331 Zn325 2.035 . S
O332 Zn325 2.028 . S
O332 C335 1.247 . S
O333 Zn327 2.035 . S
O333 C335 1.258 . S
C334 O328 1.247 . S
C334 O329 1.258 . S
C335 O332 1.247 . S
C335 O333 1.258 . S
C336 O338 1.247 . S
C336 O340 1.258 . S
C337 O344 1.247 . S
C337 O345 1.258 . S
O338 C336 1.247 . S
O338 Zn339 2.028 . S
Zn339 O338 2.028 . S
Zn339 O343 2.035 . S
Zn339 O345 2.035 . S
Zn339 O346 2.028 . S
O340 C336 1.258 . S
O340 Zn341 2.035 . S
Zn341 O340 2.035 . S
Zn341 O342 2.028 . S
Zn341 O344 2.028 . S
Zn341 O347 2.035 . S
O342 Zn341 2.028 . S
O342 C348 1.247 . S
O343 Zn339 2.035 . S
O343 C348 1.258 . S
O344 C337 1.247 . S
O344 Zn341 2.028 . S
O345 C337 1.258 . S
O345 Zn339 2.035 . S
O346 Zn339 2.028 . S
O346 C349 1.247 . S
O347 Zn341 2.035 . S
O347 C349 1.258 . S
C348 O342 1.247 . S
C348 O343 1.258 . S
C349 O346 1.247 . S
C349 O347 1.258 . S
C350 O352 1.247 . S
C350 O354 1.258 . S
C351 O358 1.247 . S
C351 O359 1.258 . S
O352 C350 1.247 . S
O352 Zn353 2.028 . S
Zn353 O352 2.028 . S
Zn353 O357 2.035 . S
Zn353 O359 2.035 . S
Zn353 O360 2.028 . S
O354 C350 1.258 . S
O354 Zn355 2.035 . S
Zn355 O354 2.035 . S
Zn355 O356 2.028 . S
Zn355 O358 2.028 . S
Zn355 O361 2.035 . S
O356 Zn355 2.028 . S
O356 C362 1.247 . S
O357 Zn353 2.035 . S
O357 C362 1.258 . S
O358 C351 1.247 . S
O358 Zn355 2.028 . S
O359 C351 1.258 . S
O359 Zn353 2.035 . S
O360 Zn353 2.028 . S
O360 C363 1.247 . S
O361 Zn355 2.035 . S
O361 C363 1.258 . S
C362 O356 1.247 . S
C362 O357 1.258 . S
C363 O360 1.247 . S
C363 O361 1.258 . S
C364 O366 1.247 . S
C364 O368 1.258 . S
C365 O372 1.247 . S
C365 O373 1.258 . S
O366 C364 1.247 . S
O366 Zn367 2.028 . S
Zn367 O366 2.028 . S
Zn367 O371 2.035 . S
Zn367 O373 2.035 . S
Zn367 O374 2.028 . S
O368 C364 1.258 . S
O368 Zn369 2.035 . S
Zn369 O368 2.035 . S
Zn369 O370 2.028 . S
Zn369 O372 2.028 . S
Zn369 O375 2.035 . S
O370 Zn369 2.028 . S
O370 C376 1.247 . S
O371 Zn367 2.035 . S
O371 C376 1.258 . S
O372 C365 1.247 . S
O372 Zn369 2.028 . S
O373 C365 1.258 . S
O373 Zn367 2.035 . S
O374 Zn367 2.028 . S
O374 C377 1.247 . S
O375 Zn369 2.035 . S
O375 C377 1.258 . S
C376 O370 1.247 . S
C376 O371 1.258 . S
C377 O374 1.247 . S
C377 O375 1.258 . S
C378 O380 1.247 . S
C378 O382 1.258 . S
C379 O386 1.247 . S
C379 O387 1.258 . S
O380 C378 1.247 . S
O380 Zn381 2.028 . S
Zn381 O380 2.028 . S
Zn381 O385 2.035 . S
Zn381 O387 2.035 . S
Zn381 O388 2.028 . S
O382 C378 1.258 . S
O382 Zn383 2.035 . S
Zn383 O382 2.035 . S
Zn383 O384 2.028 . S
Zn383 O386 2.028 . S
Zn383 O389 2.035 . S
O384 Zn383 2.028 . S
O384 C390 1.247 . S
O385 Zn381 2.035 . S
O385 C390 1.258 . S
O386 C379 1.247 . S
O386 Zn383 2.028 . S
O387 C379 1.258 . S
O387 Zn381 2.035 . S
O388 Zn381 2.028 . S
O388 C391 1.247 . S
O389 Zn383 2.035 . S
O389 C391 1.258 . S
C390 O384 1.247 . S
C390 O385 1.258 . S
C391 O388 1.247 . S
C391 O389 1.258 . S
C392 O394 1.247 . S
C392 O396 1.258 . S
C393 O400 1.247 . S
C393 O401 1.258 . S
O394 C392 1.247 . S
O394 Zn395 2.028 . S
Zn395 O394 2.028 . S
Zn395 O399 2.035 . S
Zn395 O401 2.035 . S
Zn395 O402 2.028 . S
O396 C392 1.258 . S
O396 Zn397 2.035 . S
Zn397 O396 2.035 . S
Zn397 O398 2.028 . S
Zn397 O400 2.028 . S
Zn397 O403 2.035 . S
O398 Zn397 2.028 . S
O398 C404 1.247 . S
O399 Zn395 2.035 . S
O399 C404 1.258 . S
O400 C393 1.247 . S
O400 Zn397 2.028 . S
O401 C393 1.258 . S
O401 Zn395 2.035 . S
O402 Zn395 2.028 . S
O402 C405 1.247 . S
O403 Zn397 2.035 . S
O403 C405 1.258 . S
C404 O398 1.247 . S
C404 O399 1.258 . S
C405 O402 1.247 . S
C405 O403 1.258 . S
C406 O408 1.247 . S
C406 O410 1.258 . S
C407 O414 1.247 . S
C407 O415 1.258 . S
O408 C406 1.247 . S
O408 Zn409 2.028 . S
Zn409 O408 2.028 . S
Zn409 O413 2.035 . S
Zn409 O415 2.035 . S
Zn409 O416 2.028 . S
O410 C406 1.258 . S
O410 Zn411 2.035 . S
Zn411 O410 2.035 . S
Zn411 O412 2.028 . S
Zn411 O414 2.028 . S
Zn411 O417 2.035 . S
O412 Zn411 2.028 . S
O412 C418 1.247 . S
O413 Zn409 2.035 . S
O413 C418 1.258 . S
O414 C407 1.247 . S
O414 Zn411 2.028 . S
O415 C407 1.258 . S
O415 Zn409 2.035 . S
O416 Zn409 2.028 . S
O416 C419 1.247 . S
O417 Zn411 2.035 . S
O417 C419 1.258 . S
C418 O412 1.247 . S
C418 O413 1.258 . S
C419 O416 1.247 . S
C419 O417 1.258 . S
C420 O422 1.247 . S
C420 O424 1.258 . S
C421 O428 1.247 . S
C421 O429 1.258 . S
O422 C420 1.247 . S
O422 Zn423 2.028 . S
Zn423 O422 2.028 . S
Zn423 O427 2.035 . S
Zn423 O429 2.035 . S
Zn423 O430 2.028 . S
O424 C420 1.258 . S
O424 Zn425 2.035 . S
Zn425 O424 2.035 . S
Zn425 O426 2.028 . S
Zn425 O428 2.028 . S
Zn425 O431 2.035 . S
O426 Zn425 2.028 . S
O426 C432 1.247 . S
O427 Zn423 2.035 . S
O427 C432 1.258 . S
O428 C421 1.247 . S
O428 Zn425 2.028 . S
O429 C421 1.258 . S
O429 Zn423 2.035 . S
O430 Zn423 2.028 . S
O430 C433 1.247 . S
O431 Zn425 2.035 . S
O431 C433 1.258 . S
C432 O426 1.247 . S
C432 O427 1.258 . S
C433 O430 1.247 . S
C433 O431 1.258 . S
C434 O436 1.247 . S
C434 O438 1.258 . S
C435 O442 1.247 . S
C435 O443 1.258 . S
O436 C434 1.247 . S
O436 Zn437 2.028 . S
Zn437 O436 2.028 . S
Zn437 O441 2.035 . S
Zn437 O443 2.035 . S
Zn437 O444 2.028 . S
O438 C434 1.258 . S
O438 Zn439 2.035 . S
Zn439 O438 2.035 . S
Zn439 O440 2.028 . S
Zn439 O442 2.028 . S
Zn439 O445 2.035 . S
O440 Zn439 2.028 . S
O440 C446 1.247 . S
O441 Zn437 2.035 . S
O441 C446 1.258 . S
O442 C435 1.247 . S
O442 Zn439 2.028 . S
O443 C435 1.258 . S
O443 Zn437 2.035 . S
O444 Zn437 2.028 . S
O444 C447 1.247 . S
O445 Zn439 2.035 . S
O445 C447 1.258 . S
C446 O440 1.247 . S
C446 O441 1.258 . S
C447 O444 1.247 . S
C447 O445 1.258 . S
C448 O450 1.247 . S
C448 O452 1.258 . S
C449 O456 1.247 . S
C449 O457 1.258 . S
O450 C448 1.247 . S
O450 Zn451 2.028 . S
Zn451 O450 2.028 . S
Zn451 O455 2.035 . S
Zn451 O457 2.035 . S
Zn451 O458 2.028 . S
O452 C448 1.258 . S
O452 Zn453 2.035 . S
Zn453 O452 2.035 . S
Zn453 O454 2.028 . S
Zn453 O456 2.028 . S
Zn453 O459 2.035 . S
O454 Zn453 2.028 . S
O454 C460 1.247 . S
O455 Zn451 2.035 . S
O455 C460 1.258 . S
O456 C449 1.247 . S
O456 Zn453 2.028 . S
O457 C449 1.258 . S
O457 Zn451 2.035 . S
O458 Zn451 2.028 . S
O458 C461 1.247 . S
O459 Zn453 2.035 . S
O459 C461 1.258 . S
C460 O454 1.247 . S
C460 O455 1.258 . S
C461 O458 1.247 . S
C461 O459 1.258 . S
C462 O464 1.247 . S
C462 O466 1.258 . S
C463 O470 1.247 . S
C463 O471 1.258 . S
O464 C462 1.247 . S
O464 Zn465 2.028 . S
Zn465 O464 2.028 . S
Zn465 O469 2.035 . S
Zn465 O471 2.035 . S
Zn465 O472 2.028 . S
O466 C462 1.258 . S
O466 Zn467 2.035 . S
Zn467 O466 2.035 . S
Zn467 O468 2.028 . S
Zn467 O470 2.028 . S
Zn467 O473 2.035 . S
O468 Zn467 2.028 . S
O468 C474 1.247 . S
O469 Zn465 2.035 . S
O469 C474 1.258 . S
O470 C463 1.247 . S
O470 Zn467 2.028 . S
O471 C463 1.258 . S
O471 Zn465 2.035 . S
O472 Zn465 2.028 . S
O472 C475 1.247 . S
O473 Zn467 2.035 . S
O473 C475 1.258 . S
C474 O468 1.247 . S
C474 O469 1.258 . S
C475 O472 1.247 . S
C475 O473 1.258 . S
C476 O478 1.247 . S
C476 O480 1.258 . S
C477 O484 1.247 . S
C477 O485 1.258 . S
O478 C476 1.247 . S
O478 Zn479 2.028 . S
Zn479 O478 2.028 . S
Zn479 O483 2.035 . S
Zn479 O485 2.035 . S
Zn479 O486 2.028 . S
O480 C476 1.258 . S
O480 Zn481 2.035 . S
Zn481 O480 2.035 . S
Zn481 O482 2.028 . S
Zn481 O484 2.028 . S
Zn481 O487 2.035 . S
O482 Zn481 2.028 . S
O482 C488 1.247 . S
O483 Zn479 2.035 . S
O483 C488 1.258 . S
O484 C477 1.247 . S
O484 Zn481 2.028 . S
O485 C477 1.258 . S
O485 Zn479 2.035 . S
O486 Zn479 2.028 . S
O486 C489 1.247 . S
O487 Zn481 2.035 . S
O487 C489 1.258 . S
C488 O482 1.247 . S
C488 O483 1.258 . S
C489 O486 1.247 . S
C489 O487 1.258 . S
C490 O492 1.247 . S
C490 O494 1.258 . S
C491 O498 1.247 . S
C491 O499 1.258 . S
O492 C490 1.247 . S
O492 Zn493 2.028 . S
Zn493 O492 2.028 . S
Zn493 O497 2.035 . S
Zn493 O499 2.035 . S
Zn493 O500 2.028 . S
O494 C490 1.258 . S
O494 Zn495 2.035 . S
Zn495 O494 2.035 . S
Zn495 O496 2.028 . S
Zn495 O498 2.028 . S
Zn495 O501 2.035 . S
O496 Zn495 2.028 . S
O496 C502 1.247 . S
O497 Zn493 2.035 . S
O497 C502 1.258 . S
O498 C491 1.247 . S
O498 Zn495 2.028 . S
O499 C491 1.258 . S
O499 Zn493 2.035 . S
O500 Zn493 2.028 . S
O500 C503 1.247 . S
O501 Zn495 2.035 . S
O501 C503 1.258 . S
C502 O496 1.247 . S
C502 O497 1.258 . S
C503 O500 1.247 . S
C503 O501 1.258 . S
C504 O506 1.247 . S
C504 O508 1.258 . S
C505 O512 1.247 . S
C505 O513 1.258 . S
O506 C504 1.247 . S
O506 Zn507 2.028 . S
Zn507 O506 2.028 . S
Zn507 O511 2.035 . S
Zn507 O513 2.035 . S
Zn507 O514 2.028 . S
O508 C504 1.258 . S
O508 Zn509 2.035 . S
Zn509 O508 2.035 . S
Zn509 O510 2.028 . S
Zn509 O512 2.028 . S
Zn509 O515 2.035 . S
O510 Zn509 2.028 . S
O510 C516 1.247 . S
O511 Zn507 2.035 . S
O511 C516 1.258 . S
O512 C505 1.247 . S
O512 Zn509 2.028 . S
O513 C505 1.258 . S
O513 Zn507 2.035 . S
O514 Zn507 2.028 . S
O514 C517 1.247 . S
O515 Zn509 2.035 . S
O515 C517 1.258 . S
C516 O510 1.247 . S
C516 O511 1.258 . S
C517 O514 1.247 . S
C517 O515 1.258 . S
C518 O520 1.247 . S
C518 O522 1.258 . S
C519 O526 1.247 . S
C519 O527 1.258 . S
O520 C518 1.247 . S
O520 Zn521 2.028 . S
Zn521 O520 2.028 . S
Zn521 O525 2.035 . S
Zn521 O527 2.035 . S
Zn521 O528 2.028 . S
O522 C518 1.258 . S
O522 Zn523 2.035 . S
Zn523 O522 2.035 . S
Zn523 O524 2.028 . S
Zn523 O526 2.028 . S
Zn523 O529 2.035 . S
O524 Zn523 2.028 . S
O524 C530 1.247 . S
O525 Zn521 2.035 . S
O525 C530 1.258 . S
O526 C519 1.247 . S
O526 Zn523 2.028 . S
O527 C519 1.258 . S
O527 Zn521 2.035 . S
O528 Zn521 2.028 . S
O528 C531 1.247 . S
O529 Zn523 2.035 . S
O529 C531 1.258 . S
C530 O524 1.247 . S
C530 O525 1.258 . S
C531 O528 1.247 . S
C531 O529 1.258 . S
C532 O534 1.247 . S
C532 O536 1.258 . S
C533 O540 1.247 . S
C533 O541 1.258 . S
O534 C532 1.247 . S
O534 Zn535 2.028 . S
Zn535 O534 2.028 . S
Zn535 O539 2.035 . S
Zn535 O541 2.035 . S
Zn535 O542 2.028 . S
O536 C532 1.258 . S
O536 Zn537 2.035 . S
Zn537 O536 2.035 . S
Zn537 O538 2.028 . S
Zn537 O540 2.028 . S
Zn537 O543 2.035 . S
O538 Zn537 2.028 . S
O538 C544 1.247 . S
O539 Zn535 2.035 . S
O539 C544 1.258 . S
O540 C533 1.247 . S
O540 Zn537 2.028 . S
O541 C533 1.258 . S
O541 Zn535 2.035 . S
O542 Zn535 2.028 . S
O542 C545 1.247 . S
O543 Zn537 2.035 . S
O543 C545 1.258 . S
C544 O538 1.247 . S
C544 O539 1.258 . S
C545 O542 1.247 . S
C545 O543 1.258 . S
C546 O548 1.247 . S
C546 O550 1.258 . S
C547 O554 1.247 . S
C547 O555 1.258 . S
O548 C546 1.247 . S
O548 Zn549 2.028 . S
Zn549 O548 2.028 . S
Zn549 O553 2.035 . S
Zn549 O555 2.035 . S
Zn549 O556 2.028 . S
O550 C546 1.258 . S
O550 Zn551 2.035 . S
Zn551 O550 2.035 . S
Zn551 O552 2.028 . S
Zn551 O554 2.028 . S
Zn551 O557 2.035 . S
O552 Zn551 2.028 . S
O552 C558 1.247 . S
O553 Zn549 2.035 . S
O553 C558 1.258 . S
O554 C547 1.247 . S
O554 Zn551 2.028 . S
O555 C547 1.258 . S
O555 Zn549 2.035 . S
O556 Zn549 2.028 . S
O556 C559 1.247 . S
O557 Zn551 2.035 . S
O557 C559 1.258 . S
C558 O552 1.247 . S
C558 O553 1.258 . S
C559 O556 1.247 . S
C559 O557 1.258 . S
C560 O562 1.247 . S
C560 O564 1.258 . S
C561 O568 1.247 . S
C561 O569 1.258 . S
O562 C560 1.247 . S
O562 Zn563 2.028 . S
Zn563 O562 2.028 . S
Zn563 O567 2.035 . S
Zn563 O569 2.035 . S
Zn563 O570 2.028 . S
O564 C560 1.258 . S
O564 Zn565 2.035 . S
Zn565 O564 2.035 . S
Zn565 O566 2.028 . S
Zn565 O568 2.028 . S
Zn565 O571 2.035 . S
O566 Zn565 2.028 . S
O566 C572 1.247 . S
O567 Zn563 2.035 . S
O567 C572 1.258 . S
O568 C561 1.247 . S
O568 Zn565 2.028 . S
O569 C561 1.258 . S
O569 Zn563 2.035 . S
O570 Zn563 2.028 . S
O570 C573 1.247 . S
O571 Zn565 2.035 . S
O571 C573 1.258 . S
C572 O566 1.247 . S
C572 O567 1.258 . S
C573 O570 1.247 . S
C573 O571 1.258 . S
C574 O576 1.247 . S
C574 O578 1.258 . S
C575 O582 1.247 . S
C575 O583 1.258 . S
O576 C574 1.247 . S
O576 Zn577 2.028 . S
Zn577 O576 2.028 . S
Zn577 O581 2.035 . S
Zn577 O583 2.035 . S
Zn577 O584 2.028 . S
O578 C574 1.258 . S
O578 Zn579 2.035 . S
Zn579 O578 2.035 . S
Zn579 O580 2.028 . S
Zn579 O582 2.028 . S
Zn579 O585 2.035 . S
O580 Zn579 2.028 . S
O580 C586 1.247 . S
O581 Zn577 2.035 . S
O581 C586 1.258 . S
O582 C575 1.247 . S
O582 Zn579 2.028 . S
O583 C575 1.258 . S
O583 Zn577 2.035 . S
O584 Zn577 2.028 . S
O584 C587 1.247 . S
O585 Zn579 2.035 . S
O585 C587 1.258 . S
C586 O580 1.247 . S
C586 O581 1.258 . S
C587 O584 1.247 . S
C587 O585 1.258 . S
C588 O590 1.247 . S
C588 O592 1.258 . S
C589 O596 1.247 . S
C589 O597 1.258 . S
O590 C588 1.247 . S
O590 Zn591 2.028 . S
Zn591 O590 2.028 . S
Zn591 O595 2.035 . S
Zn591 O597 2.035 . S
Zn591 O598 2.028 . S
O592 C588 1.258 . S
O592 Zn593 2.035 . S
Zn593 O592 2.035 . S
Zn593 O594 2.028 . S
Zn593 O596 2.028 . S
Zn593 O599 2.035 . S
O594 Zn593 2.028 . S
O594 C600 1.247 . S
O595 Zn591 2.035 . S
O595 C600 1.258 . S
O596 C589 1.247 . S
O596 Zn593 2.028 . S
O597 C589 1.258 . S
O597 Zn591 2.035 . S
O598 Zn591 2.028 . S
O598 C601 1.247 . S
O599 Zn593 2.035 . S
O599 C601 1.258 . S
C600 O594 1.247 . S
C600 O595 1.258 . S
C601 O598 1.247 . S
C601 O599 1.258 . S
C602 O604 1.247 . S
C602 O606 1.258 . S
C603 O610 1.247 . S
C603 O611 1.258 . S
O604 C602 1.247 . S
O604 Zn605 2.028 . S
Zn605 O604 2.028 . S
Zn605 O609 2.035 . S
Zn605 O611 2.035 . S
Zn605 O612 2.028 . S
O606 C602 1.258 . S
O606 Zn607 2.035 . S
Zn607 O606 2.035 . S
Zn607 O608 2.028 . S
Zn607 O610 2.028 . S
Zn607 O613 2.035 . S
O608 Zn607 2.028 . S
O608 C614 1.247 . S
O609 Zn605 2.035 . S
O609 C614 1.258 . S
O610 C603 1.247 . S
O610 Zn607 2.028 . S
O611 C603 1.258 . S
O611 Zn605 2.035 . S
O612 Zn605 2.028 . S
O612 C615 1.247 . S
O613 Zn607 2.035 . S
O613 C615 1.258 . S
C614 O608 1.247 . S
C614 O609 1.258 . S
C615 O612 1.247 . S
C615 O613 1.258 . S
C616 O618 1.247 . S
C616 O620 1.258 . S
C617 O624 1.247 . S
C617 O625 1.258 . S
O618 C616 1.247 . S
O618 Zn619 2.028 . S
Zn619 O618 2.028 . S
Zn619 O623 2.035 . S
Zn619 O625 2.035 . S
Zn619 O626 2.028 . S
O620 C616 1.258 . S
O620 Zn621 2.035 . S
Zn621 O620 2.035 . S
Zn621 O622 2.028 . S
Zn621 O624 2.028 . S
Zn621 O627 2.035 . S
O622 Zn621 2.028 . S
O622 C628 1.247 . S
O623 Zn619 2.035 . S
O623 C628 1.258 . S
O624 C617 1.247 . S
O624 Zn621 2.028 . S
O625 C617 1.258 . S
O625 Zn619 2.035 . S
O626 Zn619 2.028 . S
O626 C629 1.247 . S
O627 Zn621 2.035 . S
O627 C629 1.258 . S
C628 O622 1.247 . S
C628 O623 1.258 . S
C629 O626 1.247 . S
C629 O627 1.258 . S
C630 O632 1.247 . S
C630 O634 1.258 . S
C631 O638 1.247 . S
C631 O639 1.258 . S
O632 C630 1.247 . S
O632 Zn633 2.028 . S
Zn633 O632 2.028 . S
Zn633 O637 2.035 . S
Zn633 O639 2.035 . S
Zn633 O640 2.028 . S
O634 C630 1.258 . S
O634 Zn635 2.035 . S
Zn635 O634 2.035 . S
Zn635 O636 2.028 . S
Zn635 O638 2.028 . S
Zn635 O641 2.035 . S
O636 Zn635 2.028 . S
O636 C642 1.247 . S
O637 Zn633 2.035 . S
O637 C642 1.258 . S
O638 C631 1.247 . S
O638 Zn635 2.028 . S
O639 C631 1.258 . S
O639 Zn633 2.035 . S
O640 Zn633 2.028 . S
O640 C643 1.247 . S
O641 Zn635 2.035 . S
O641 C643 1.258 . S
C642 O636 1.247 . S
C642 O637 1.258 . S
C643 O640 1.247 . S
C643 O641 1.258 . S
C644 O646 1.247 . S
C644 O648 1.258 . S
C645 O652 1.247 . S
C645 O653 1.258 . S
O646 C644 1.247 . S
O646 Zn647 2.028 . S
Zn647 O646 2.028 . S
Zn647 O651 2.035 . S
Zn647 O653 2.035 . S
Zn647 O654 2.028 . S
O648 C644 1.258 . S
O648 Zn649 2.035 . S
Zn649 O648 2.035 . S
Zn649 O650 2.028 . S
Zn649 O652 2.028 . S
Zn649 O655 2.035 . S
O650 Zn649 2.028 . S
O650 C656 1.247 . S
O651 Zn647 2.035 . S
O651 C656 1.258 . S
O652 C645 1.247 . S
O652 Zn649 2.028 . S
O653 C645 1.258 . S
O653 Zn647 2.035 . S
O654 Zn647 2.028 . S
O654 C657 1.247 . S
O655 Zn649 2.035 . S
O655 C657 1.258 . S
C656 O650 1.247 . S
C656 O651 1.258 . S
C657 O654 1.247 . S
C657 O655 1.258 . S
C658 O660 1.247 . S
C658 O662 1.258 . S
C659 O666 1.247 . S
C659 O667 1.258 . S
O660 C658 1.247 . S
O660 Zn661 2.028 . S
Zn661 O660 2.028 . S
Zn661 O665 2.035 . S
Zn661 O667 2.035 . S
Zn661 O668 2.028 . S
O662 C658 1.258 . S
O662 Zn663 2.035 . S
Zn663 O662 2.035 . S
Zn663 O664 2.028 . S
Zn663 O666 2.028 . S
Zn663 O669 2.035 . S
O664 Zn663 2.028 . S
O664 C670 1.247 . S
O665 Zn661 2.035 . S
O665 C670 1.258 . S
O666 C659 1.247 . S
O666 Zn663 2.028 . S
O667 C659 1.258 . S
O667 Zn661 2.035 . S
O668 Zn661 2.028 . S
O668 C671 1.247 . S
O669 Zn663 2.035 . S
O669 C671 1.258 . S
C670 O664 1.247 . S
C670 O665 1.258 . S
C671 O668 1.247 . S
C671 O669 1.258 . S
H672 C680 0.950 . S
H673 C685 0.950 . S
H674 C682 0.950 . S
H675 C684 0.950 . S
H676 C686 0.950 . S
H677 C688 0.950 . S
H678 C690 0.950 . S
H679 C691 0.950 . S
C680 H672 0.950 . S
C680 C681 1.386 . S
C680 C682 1.391 . S
C681 C680 1.386 . S
C681 C685 1.393 . S
C682 H674 0.950 . S
C682 C680 1.391 . S
C682 C683 1.400 . S
C683 C682 1.400 . S
C683 C684 1.398 . S
C683 C689 1.491 1_565 S
C684 H675 0.950 . S
C684 C683 1.398 . S
C684 C685 1.391 . S
C685 H673 0.950 . S
C685 C681 1.393 . S
C685 C684 1.391 . S
C686 H676 0.950 . S
C686 C687 1.386 . S
C686 C688 1.391 . S
C687 C686 1.386 . S
C687 C691 1.393 . S
C688 H677 0.950 . S
C688 C686 1.391 . S
C688 C689 1.400 . S
C689 C683 1.491 1_545 S
C689 C688 1.400 . S
C689 C690 1.398 . S
C690 H678 0.950 . S
C690 C689 1.398 . S
C690 C691 1.391 . S
C691 H679 0.950 . S
C691 C687 1.393 . S
C691 C690 1.391 . S
H692 C700 0.950 . S
H693 C705 0.950 . S
H694 C702 0.950 . S
H695 C704 0.950 . S
H696 C706 0.950 . S
H697 C708 0.950 . S
H698 C710 0.950 . S
H699 C711 0.950 . S
C700 H692 0.950 . S
C700 C701 1.386 . S
C700 C702 1.391 . S
C701 C700 1.386 . S
C701 C705 1.393 . S
C702 H694 0.950 . S
C702 C700 1.391 . S
C702 C703 1.400 . S
C703 C702 1.400 . S
C703 C704 1.398 . S
C703 C709 1.491 1_455 S
C704 H695 0.950 . S
C704 C703 1.398 . S
C704 C705 1.391 . S
C705 H693 0.950 . S
C705 C701 1.393 . S
C705 C704 1.391 . S
C706 H696 0.950 . S
C706 C707 1.386 . S
C706 C708 1.391 . S
C707 C706 1.386 . S
C707 C711 1.393 . S
C708 H697 0.950 . S
C708 C706 1.391 . S
C708 C709 1.400 . S
C709 C703 1.491 1_655 S
C709 C708 1.400 . S
C709 C710 1.398 . S
C710 H698 0.950 . S
C710 C709 1.398 . S
C710 C711 1.391 . S
C711 H699 0.950 . S
C711 C707 1.393 . S
C711 C710 1.391 . S
H712 C720 0.950 . S
H713 C725 0.950 . S
H714 C722 0.950 . S
H715 C724 0.950 . S
H716 C726 0.950 . S
H717 C728 0.950 . S
H718 C730 0.950 . S
H719 C731 0.950 . S
C720 H712 0.950 . S
C720 C721 1.386 . S
C720 C722 1.391 . S
C721 C720 1.386 . S
C721 C725 1.393 . S
C722 H714 0.950 . S
C722 C720 1.391 . S
C722 C723 1.400 . S
C723 C722 1.400 . S
C723 C724 1.398 . S
C723 C729 1.491 1_565 S
C724 H715 0.950 . S
C724 C723 1.398 . S
C724 C725 1.391 . S
C725 H713 0.950 . S
C725 C721 1.393 . S
C725 C724 1.391 . S
C726 H716 0.950 . S
C726 C727 1.386 . S
C726 C728 1.391 . S
C727 C726 1.386 . S
C727 C731 1.393 . S
C728 H717 0.950 . S
C728 C726 1.391 . S
C728 C729 1.400 . S
C729 C723 1.491 1_545 S
C729 C728 1.400 . S
C729 C730 1.398 . S
C730 H718 0.950 . S
C730 C729 1.398 . S
C730 C731 1.391 . S
C731 H719 0.950 . S
C731 C727 1.393 . S
C731 C730 1.391 . S
H732 C740 0.950 . S
H733 C745 0.950 . S
H734 C742 0.950 . S
H735 C744 0.950 . S
H736 C746 0.950 . S
H737 C748 0.950 . S
H738 C750 0.950 . S
H739 C751 0.950 . S
C740 H732 0.950 . S
C740 C741 1.386 . S
C740 C742 1.391 . S
C741 C740 1.386 . S
C741 C745 1.393 . S
C742 H734 0.950 . S
C742 C740 1.391 . S
C742 C743 1.400 . S
C743 C742 1.400 . S
C743 C744 1.398 . S
C743 C749 1.491 1_655 S
C744 H735 0.950 . S
C744 C743 1.398 . S
C744 C745 1.391 . S
C745 H733 0.950 . S
C745 C741 1.393 . S
C745 C744 1.391 . S
C746 H736 0.950 . S
C746 C747 1.386 . S
C746 C748 1.391 . S
C747 C746 1.386 . S
C747 C751 1.393 . S
C748 H737 0.950 . S
C748 C746 1.391 . S
C748 C749 1.400 . S
C749 C743 1.491 1_455 S
C749 C748 1.400 . S
C749 C750 1.398 . S
C750 H738 0.950 . S
C750 C749 1.398 . S
C750 C751 1.391 . S
C751 H739 0.950 . S
C751 C747 1.393 . S
C751 C750 1.391 . S
H752 C760 0.950 . S
H753 C765 0.950 . S
H754 C762 0.950 . S
H755 C764 0.950 . S
H756 C766 0.950 . S
H757 C768 0.950 . S
H758 C770 0.950 . S
H759 C771 0.950 . S
C760 H752 0.950 . S
C760 C761 1.386 . S
C760 C762 1.391 . S
C761 C760 1.386 . S
C761 C765 1.393 . S
C762 H754 0.950 . S
C762 C760 1.391 . S
C762 C763 1.400 . S
C763 C762 1.400 . S
C763 C764 1.398 . S
C763 C769 1.491 1_565 S
C764 H755 0.950 . S
C764 C763 1.398 . S
C764 C765 1.391 . S
C765 H753 0.950 . S
C765 C761 1.393 . S
C765 C764 1.391 . S
C766 H756 0.950 . S
C766 C767 1.386 . S
C766 C768 1.391 . S
C767 C766 1.386 . S
C767 C771 1.393 . S
C768 H757 0.950 . S
C768 C766 1.391 . S
C768 C769 1.400 . S
C769 C763 1.491 1_545 S
C769 C768 1.400 . S
C769 C770 1.398 . S
C770 H758 0.950 . S
C770 C769 1.398 . S
C770 C771 1.391 . S
C771 H759 0.950 . S
C771 C767 1.393 . S
C771 C770 1.391 . S
H772 C780 0.950 . S
H773 C785 0.950 . S
H774 C782 0.950 . S
H775 C784 0.950 . S
H776 C786 0.950 . S
H777 C788 0.950 . S
H778 C790 0.950 . S
H779 C791 0.950 . S
C780 H772 0.950 . S
C780 C781 1.386 . S
C780 C782 1.391 . S
C781 C780 1.386 . S
C781 C785 1.393 . S
C782 H774 0.950 . S
C782 C780 1.391 . S
C782 C783 1.400 . S
C783 C782 1.400 . S
C783 C784 1.398 . S
C783 C789 1.491 1_655 S
C784 H775 0.950 . S
C784 C783 1.398 . S
C784 C785 1.391 . S
C785 H773 0.950 . S
C785 C781 1.393 . S
C785 C784 1.391 . S
C786 H776 0.950 . S
C786 C787 1.386 . S
C786 C788 1.391 . S
C787 C786 1.386 . S
C787 C791 1.393 . S
C788 H777 0.950 . S
C788 C786 1.391 . S
C788 C789 1.400 . S
C789 C783 1.491 1_455 S
C789 C788 1.400 . S
C789 C790 1.398 . S
C790 H778 0.950 . S
C790 C789 1.398 . S
C790 C791 1.391 . S
C791 H779 0.950 . S
C791 C787 1.393 . S
C791 C790 1.391 . S
H792 C800 0.950 . S
H793 C805 0.950 . S
H794 C802 0.950 . S
H795 C804 0.950 . S
H796 C806 0.950 . S
H797 C808 0.950 . S
H798 C810 0.950 . S
H799 C811 0.950 . S
C800 H792 0.950 . S
C800 C801 1.386 . S
C800 C802 1.391 . S
C801 C800 1.386 . S
C801 C805 1.393 . S
C802 H794 0.950 . S
C802 C800 1.391 . S
C802 C803 1.400 . S
C803 C802 1.400 . S
C803 C804 1.398 . S
C803 C809 1.491 1_545 S
C804 H795 0.950 . S
C804 C803 1.398 . S
C804 C805 1.391 . S
C805 H793 0.950 . S
C805 C801 1.393 . S
C805 C804 1.391 . S
C806 H796 0.950 . S
C806 C807 1.386 . S
C806 C808 1.391 . S
C807 C806 1.386 . S
C807 C811 1.393 . S
C808 H797 0.950 . S
C808 C806 1.391 . S
C808 C809 1.400 . S
C809 C803 1.491 1_565 S
C809 C808 1.400 . S
C809 C810 1.398 . S
C810 H798 0.950 . S
C810 C809 1.398 . S
C810 C811 1.391 . S
C811 H799 0.950 . S
C811 C807 1.393 . S
C811 C810 1.391 . S
H812 C820 0.950 . S
H813 C825 0.950 . S
H814 C822 0.950 . S
H815 C824 0.950 . S
H816 C826 0.950 . S
H817 C828 0.950 . S
H818 C830 0.950 . S
H819 C831 0.950 . S
C820 H812 0.950 . S
C820 C821 1.386 . S
C820 C822 1.391 . S
C821 C820 1.386 . S
C821 C825 1.393 . S
C822 H814 0.950 . S
C822 C820 1.391 . S
C822 C823 1.400 . S
C823 C822 1.400 . S
C823 C824 1.398 . S
C823 C829 1.491 1_455 S
C824 H815 0.950 . S
C824 C823 1.398 . S
C824 C825 1.391 . S
C825 H813 0.950 . S
C825 C821 1.393 . S
C825 C824 1.391 . S
C826 H816 0.950 . S
C826 C827 1.386 . S
C826 C828 1.391 . S
C827 C826 1.386 . S
C827 C831 1.393 . S
C828 H817 0.950 . S
C828 C826 1.391 . S
C828 C829 1.400 . S
C829 C823 1.491 1_655 S
C829 C828 1.400 . S
C829 C830 1.398 . S
C830 H818 0.950 . S
C830 C829 1.398 . S
C830 C831 1.391 . S
C831 H819 0.950 . S
C831 C827 1.393 . S
C831 C830 1.391 . S
H832 C840 0.950 . S
H833 C845 0.950 . S
H834 C842 0.950 . S
H835 C844 0.950 . S
H836 C846 0.950 . S
H837 C848 0.950 . S
H838 C850 0.950 . S
H839 C851 0.950 . S
C840 H832 0.950 . S
C840 C841 1.386 . S
C840 C842 1.391 . S
C841 C840 1.386 . S
C841 C845 1.393 . S
C842 H834 0.950 . S
C842 C840 1.391 . S
C842 C843 1.400 . S
C843 C842 1.400 . S
C843 C844 1.398 . S
C843 C849 1.491 1_554 S
C844 H835 0.950 . S
C844 C843 1.398 . S
C844 C845 1.391 . S
C845 H833 0.950 . S
C845 C841 1.393 . S
C845 C844 1.391 . S
C846 H836 0.950 . S
C846 C847 1.386 . S
C846 C848 1.391 . S
C847 C846 1.386 . S
C847 C851 1.393 . S
C848 H837 0.950 . S
C848 C846 1.391 . S
C848 C849 1.400 . S
C849 C843 1.491 1_556 S
C849 C848 1.400 . S
C849 C850 1.398 . S
C850 H838 0.950 . S
C850 C849 1.398 . S
C850 C851 1.391 . S
C851 H839 0.950 . S
C851 C847 1.393 . S
C851 C850 1.391 . S
H852 C860 0.950 . S
H853 C865 0.950 . S
H854 C862 0.950 . S
H855 C864 0.950 . S
H856 C866 0.950 . S
H857 C868 0.950 . S
H858 C870 0.950 . S
H859 C871 0.950 . S
C860 H852 0.950 . S
C860 C861 1.386 . S
C860 C862 1.391 . S
C861 C860 1.386 . S
C861 C865 1.393 . S
C862 H854 0.950 . S
C862 C860 1.391 . S
C862 C863 1.400 . S
C863 C862 1.400 . S
C863 C864 1.398 . S
C863 C869 1.491 1_556 S
C864 H855 0.950 . S
C864 C863 1.398 . S
C864 C865 1.391 . S
C865 H853 0.950 . S
C865 C861 1.393 . S
C865 C864 1.391 . S
C866 H856 0.950 . S
C866 C867 1.386 . S
C866 C868 1.391 . S
C867 C866 1.386 . S
C867 C871 1.393 . S
C868 H857 0.950 . S
C868 C866 1.391 . S
C868 C869 1.400 . S
C869 C863 1.491 1_554 S
C869 C868 1.400 . S
C869 C870 1.398 . S
C870 H858 0.950 . S
C870 C869 1.398 . S
C870 C871 1.391 . S
C871 H859 0.950 . S
C871 C867 1.393 . S
C871 C870 1.391 . S
H872 C880 0.950 . S
H873 C885 0.950 . S
H874 C882 0.950 . S
H875 C884 0.950 . S
H876 C886 0.950 . S
H877 C888 0.950 . S
H878 C890 0.950 . S
H879 C891 0.950 . S
C880 H872 0.950 . S
C880 C881 1.386 . S
C880 C882 1.391 . S
C881 C880 1.386 . S
C881 C885 1.393 . S
C882 H874 0.950 . S
C882 C880 1.391 . S
C882 C883 1.400 . S
C883 C882 1.400 . S
C883 C884 1.398 . S
C883 C889 1.491 1_556 S
C884 H875 0.950 . S
C884 C883 1.398 . S
C884 C885 1.391 . S
C885 H873 0.950 . S
C885 C881 1.393 . S
C885 C884 1.391 . S
C886 H876 0.950 . S
C886 C887 1.386 . S
C886 C888 1.391 . S
C887 C886 1.386 . S
C887 C891 1.393 . S
C888 H877 0.950 . S
C888 C886 1.391 . S
C888 C889 1.400 . S
C889 C883 1.491 1_554 S
C889 C888 1.400 . S
C889 C890 1.398 . S
C890 H878 0.950 . S
C890 C889 1.398 . S
C890 C891 1.391 . S
C891 H879 0.950 . S
C891 C887 1.393 . S
C891 C890 1.391 . S
H892 C900 0.950 . S
H893 C905 0.950 . S
H894 C902 0.950 . S
H895 C904 0.950 . S
H896 C906 0.950 . S
H897 C908 0.950 . S
H898 C910 0.950 . S
H899 C911 0.950 . S
C900 H892 0.950 . S
C900 C901 1.386 . S
C900 C902 1.391 . S
C901 C900 1.386 . S
C901 C905 1.393 . S
C902 H894 0.950 . S
C902 C900 1.391 . S
C902 C903 1.400 . S
C903 C902 1.400 . S
C903 C904 1.398 . S
C903 C909 1.491 1_556 S
C904 H895 0.950 . S
C904 C903 1.398 . S
C904 C905 1.391 . S
C905 H893 0.950 . S
C905 C901 1.393 . S
C905 C904 1.391 . S
C906 H896 0.950 . S
C906 C907 1.386 . S
C906 C908 1.391 . S
C907 C906 1.386 . S
C907 C911 1.393 . S
C908 H897 0.950 . S
C908 C906 1.391 . S
C908 C909 1.400 . S
C909 C903 1.491 1_554 S
C909 C908 1.400 . S
C909 C910 1.398 . S
C910 H898 0.950 . S
C910 C909 1.398 . S
C910 C911 1.391 . S
C911 H899 0.950 . S
C911 C907 1.393 . S
C911 C910 1.391 . S
H912 C920 0.950 . S
H913 C925 0.950 . S
H914 C922 0.950 . S
H915 C924 0.950 . S
H916 C926 0.950 . S
H917 C928 0.950 . S
H918 C930 0.950 . S
H919 C931 0.950 . S
C920 H912 0.950 . S
C920 C921 1.386 . S
C920 C922 1.391 . S
C921 C920 1.386 . S
C921 C925 1.393 . S
C922 H914 0.950 . S
C922 C920 1.391 . S
C922 C923 1.400 . S
C923 C922 1.400 . S
C923 C924 1.398 . S
C923 C929 1.491 1_554 S
C924 H915 0.950 . S
C924 C923 1.398 . S
C924 C925 1.391 . S
C925 H913 0.950 . S
C925 C921 1.393 . S
C925 C924 1.391 . S
C926 H916 0.950 . S
C926 C927 1.386 . S
C926 C928 1.391 . S
C927 C926 1.386 . S
C927 C931 1.393 . S
C928 H917 0.950 . S
C928 C926 1.391 . S
C928 C929 1.400 . S
C929 C923 1.491 1_556 S
C929 C928 1.400 . S
C929 C930 1.398 . S
C930 H918 0.950 . S
C930 C929 1.398 . S
C930 C931 1.391 . S
C931 H919 0.950 . S
C931 C927 1.393 . S
C931 C930 1.391 . S
H932 C940 0.950 . S
H933 C945 0.950 . S
H934 C942 0.950 . S
H935 C944 0.950 . S
H936 C946 0.950 . S
H937 C948 0.950 . S
H938 C950 0.950 . S
H939 C951 0.950 . S
C940 H932 0.950 . S
C940 C941 1.386 . S
C940 C942 1.391 . S
C941 C940 1.386 . S
C941 C945 1.393 . S
C942 H934 0.950 . S
C942 C940 1.391 . S
C942 C943 1.400 . S
C943 C942 1.400 . S
C943 C944 1.398 . S
C943 C949 1.491 1_556 S
C944 H935 0.950 . S
C944 C943 1.398 . S
C944 C945 1.391 . S
C945 H933 0.950 . S
C945 C941 1.393 . S
C945 C944 1.391 . S
C946 H936 0.950 . S
C946 C947 1.386 . S
C946 C948 1.391 . S
C947 C946 1.386 . S
C947 C951 1.393 . S
C948 H937 0.950 . S
C948 C946 1.391 . S
C948 C949 1.400 . S
C949 C943 1.491 1_554 S
C949 C948 1.400 . S
C949 C950 1.398 . S
C950 H938 0.950 . S
C950 C949 1.398 . S
C950 C951 1.391 . S
C951 H939 0.950 . S
C951 C947 1.393 . S
C951 C950 1.391 . S
H952 C960 0.950 . S
H953 C965 0.950 . S
H954 C962 0.950 . S
H955 C964 0.950 . S
H956 C966 0.950 . S
H957 C968 0.950 . S
H958 C970 0.950 . S
H959 C971 0.950 . S
C960 H952 0.950 . S
C960 C961 1.386 . S
C960 C962 1.391 . S
C961 C960 1.386 . S
C961 C965 1.393 . S
C962 H954 0.950 . S
C962 C960 1.391 . S
C962 C963 1.400 . S
C963 C962 1.400 . S
C963 C964 1.398 . S
C963 C969 1.491 1_554 S
C964 H955 0.950 . S
C964 C963 1.398 . S
C964 C965 1.391 . S
C965 H953 0.950 . S
C965 C961 1.393 . S
C965 C964 1.391 . S
C966 H956 0.950 . S
C966 C967 1.386 . S
C966 C968 1.391 . S
C967 C966 1.386 . S
C967 C971 1.393 . S
C968 H957 0.950 . S
C968 C966 1.391 . S
C968 C969 1.400 . S
C969 C963 1.491 1_556 S
C969 C968 1.400 . S
C969 C970 1.398 . S
C970 H958 0.950 . S
C970 C969 1.398 . S
C970 C971 1.391 . S
C971 H959 0.950 . S
C971 C967 1.393 . S
C971 C970 1.391 . S
H972 C980 0.950 . S
H973 C985 0.950 . S
H974 C982 0.950 . S
H975 C984 0.950 . S
H976 C986 0.950 . S
H977 C988 0.950 . S
H978 C990 0.950 . S
H979 C991 0.950 . S
C980 H972 0.950 . S
C980 C981 1.386 . S
C980 C982 1.391 . S
C981 C980 1.386 . S
C981 C985 1.393 . S
C982 H974 0.950 . S
C982 C980 1.391 . S
C982 C983 1.400 . S
C983 C982 1.400 . S
C983 C984 1.398 . S
C983 C989 1.491 1_556 S
C984 H975 0.950 . S
C984 C983 1.398 . S
C984 C985 1.391 . S
C985 H973 0.950 . S
C985 C981 1.393 . S
C985 C984 1.391 . S
C986 H976 0.950 . S
C986 C987 1.386 . S
C986 C988 1.391 . S
C987 C986 1.386 . S
C987 C991 1.393 . S
C988 H977 0.950 . S
C988 C986 1.391 . S
C988 C989 1.400 . S
C989 C983 1.491 1_554 S
C989 C988 1.400 . S
C989 C990 1.398 . S
C990 H978 0.950 . S
C990 C989 1.398 . S
C990 C991 1.391 . S
C991 H979 0.950 . S
C991 C987 1.393 . S
C991 C990 1.391 . S
H992 C1000 0.950 . S
H993 C1005 0.950 . S
H994 C1002 0.950 . S
H995 C1004 0.950 . S
H996 C1006 0.950 . S
H997 C1008 0.950 . S
H998 C1010 0.950 . S
H999 C1011 0.950 . S
C1000 H992 0.950 . S
C1000 C1001 1.386 . S
C1000 C1002 1.391 . S
C1001 C1000 1.386 . S
C1001 C1005 1.393 . S
C1002 H994 0.950 . S
C1002 C1000 1.391 . S
C1002 C1003 1.400 . S
C1003 C1002 1.400 . S
C1003 C1004 1.398 . S
C1003 C1009 1.491 1_455 S
C1004 H995 0.950 . S
C1004 C1003 1.398 . S
C1004 C1005 1.391 . S
C1005 H993 0.950 . S
C1005 C1001 1.393 . S
C1005 C1004 1.391 . S
C1006 H996 0.950 . S
C1006 C1007 1.386 . S
C1006 C1008 1.391 . S
C1007 C1006 1.386 . S
C1007 C1011 1.393 . S
C1008 H997 0.950 . S
C1008 C1006 1.391 . S
C1008 C1009 1.400 . S
C1009 C1003 1.491 1_655 S
C1009 C1008 1.400 . S
C1009 C1010 1.398 . S
C1010 H998 0.950 . S
C1010 C1009 1.398 . S
C1010 C1011 1.391 . S
C1011 H999 0.950 . S
C1011 C1007 1.393 . S
C1011 C1010 1.391 . S
H1012 C1020 0.950 . S
H1013 C1025 0.950 . S
H1014 C1022 0.950 . S
H1015 C1024 0.950 . S
H1016 C1026 0.950 . S
H1017 C1028 0.950 . S
H1018 C1030 0.950 . S
H1019 C1031 0.950 . S
C1020 H1012 0.950 . S
C1020 C1021 1.386 . S
C1020 C1022 1.391 . S
C1021 C1020 1.386 . S
C1021 C1025 1.393 . S
C1022 H1014 0.950 . S
C1022 C1020 1.391 . S
C1022 C1023 1.400 . S
C1023 C1022 1.400 . S
C1023 C1024 1.398 . S
C1023 C1029 1.491 1_455 S
C1024 H1015 0.950 . S
C1024 C1023 1.398 . S
C1024 C1025 1.391 . S
C1025 H1013 0.950 . S
C1025 C1021 1.393 . S
C1025 C1024 1.391 . S
C1026 H1016 0.950 . S
C1026 C1027 1.386 . S
C1026 C1028 1.391 . S
C1027 C1026 1.386 . S
C1027 C1031 1.393 . S
C1028 H1017 0.950 . S
C1028 C1026 1.391 . S
C1028 C1029 1.400 . S
C1029 C1023 1.491 1_655 S
C1029 C1028 1.400 . S
C1029 C1030 1.398 . S
C1030 H1018 0.950 . S
C1030 C1029 1.398 . S
C1030 C1031 1.391 . S
C1031 H1019 0.950 . S
C1031 C1027 1.393 . S
C1031 C1030 1.391 . S
H1032 C1040 0.950 . S
H1033 C1045 0.950 . S
H1034 C1042 0.950 . S
H1035 C1044 0.950 . S
H1036 C1046 0.950 . S
H1037 C1048 0.950 . S
H1038 C1050 0.950 . S
H1039 C1051 0.950 . S
C1040 H1032 0.950 . S
C1040 C1041 1.386 . S
C1040 C1042 1.391 . S
C1041 C1040 1.386 . S
C1041 C1045 1.393 . S
C1042 H1034 0.950 . S
C1042 C1040 1.391 . S
C1042 C1043 1.400 . S
C1043 C1042 1.400 . S
C1043 C1044 1.398 . S
C1043 C1049 1.491 1_565 S
C1044 H1035 0.950 . S
C1044 C1043 1.398 . S
C1044 C1045 1.391 . S
C1045 H1033 0.950 . S
C1045 C1041 1.393 . S
C1045 C1044 1.391 . S
C1046 H1036 0.950 . S
C1046 C1047 1.386 . S
C1046 C1048 1.391 . S
C1047 C1046 1.386 . S
C1047 C1051 1.393 . S
C1048 H1037 0.950 . S
C1048 C1046 1.391 . S
C1048 C1049 1.400 . S
C1049 C1043 1.491 1_545 S
C1049 C1048 1.400 . S
C1049 C1050 1.398 . S
C1050 H1038 0.950 . S
C1050 C1049 1.398 . S
C1050 C1051 1.391 . S
C1051 H1039 0.950 . S
C1051 C1047 1.393 . S
C1051 C1050 1.391 . S
H1052 C1060 0.950 . S
H1053 C1065 0.950 . S
H1054 C1062 0.950 . S
H1055 C1064 0.950 . S
H1056 C1066 0.950 . S
H1057 C1068 0.950 . S
H1058 C1070 0.950 . S
H1059 C1071 0.950 . S
C1060 H1052 0.950 . S
C1060 C1061 1.386 . S
C1060 C1062 1.391 . S
C1061 C1060 1.386 . S
C1061 C1065 1.393 . S
C1062 H1054 0.950 . S
C1062 C1060 1.391 . S
C1062 C1063 1.400 . S
C1063 C1062 1.400 . S
C1063 C1064 1.398 . S
C1063 C1069 1.491 1_455 S
C1064 H1055 0.950 . S
C1064 C1063 1.398 . S
C1064 C1065 1.391 . S
C1065 H1053 0.950 . S
C1065 C1061 1.393 . S
C1065 C1064 1.391 . S
C1066 H1056 0.950 . S
C1066 C1067 1.386 . S
C1066 C1068 1.391 . S
C1067 C1066 1.386 . S
C1067 C1071 1.393 . S
C1068 H1057 0.950 . S
C1068 C1066 1.391 . S
C1068 C1069 1.400 . S
C1069 C1063 1.491 1_655 S
C1069 C1068 1.400 . S
C1069 C1070 1.398 . S
C1070 H1058 0.950 . S
C1070 C1069 1.398 . S
C1070 C1071 1.391 . S
C1071 H1059 0.950 . S
C1071 C1067 1.393 . S
C1071 C1070 1.391 . S
H1072 C1080 0.950 . S
H1073 C1085 0.950 . S
H1074 C1082 0.950 . S
H1075 C1084 0.950 . S
H1076 C1086 0.950 . S
H1077 C1088 0.950 . S
H1078 C1090 0.950 . S
H1079 C1091 0.950 . S
C1080 H1072 0.950 . S
C1080 C1081 1.386 . S
C1080 C1082 1.391 . S
C1081 C1080 1.386 . S
C1081 C1085 1.393 . S
C1082 H1074 0.950 . S
C1082 C1080 1.391 . S
C1082 C1083 1.400 . S
C1083 C1082 1.400 . S
C1083 C1084 1.398 . S
C1083 C1089 1.491 1_545 S
C1084 H1075 0.950 . S
C1084 C1083 1.398 . S
C1084 C1085 1.391 . S
C1085 H1073 0.950 . S
C1085 C1081 1.393 . S
C1085 C1084 1.391 . S
C1086 H1076 0.950 . S
C1086 C1087 1.386 . S
C1086 C1088 1.391 . S
C1087 C1086 1.386 . S
C1087 C1091 1.393 . S
C1088 H1077 0.950 . S
C1088 C1086 1.391 . S
C1088 C1089 1.400 . S
C1089 C1083 1.491 1_565 S
C1089 C1088 1.400 . S
C1089 C1090 1.398 . S
C1090 H1078 0.950 . S
C1090 C1089 1.398 . S
C1090 C1091 1.391 . S
C1091 H1079 0.950 . S
C1091 C1087 1.393 . S
C1091 C1090 1.391 . S
H1092 C1100 0.950 . S
H1093 C1105 0.950 . S
H1094 C1102 0.950 . S
H1095 C1104 0.950 . S
H1096 C1106 0.950 . S
H1097 C1108 0.950 . S
H1098 C1110 0.950 . S
H1099 C1111 0.950 . S
C1100 H1092 0.950 . S
C1100 C1101 1.386 . S
C1100 C1102 1.391 . S
C1101 C1100 1.386 . S
C1101 C1105 1.393 . S
C1102 H1094 0.950 . S
C1102 C1100 1.391 . S
C1102 C1103 1.400 . S
C1103 C1102 1.400 . S
C1103 C1104 1.398 . S
C1103 C1109 1.491 1_455 S
C1104 H1095 0.950 . S
C1104 C1103 1.398 . S
C1104 C1105 1.391 . S
C1105 H1093 0.950 . S
C1105 C1101 1.393 . S
C1105 C1104 1.391 . S
C1106 H1096 0.950 . S
C1106 C1107 1.386 . S
C1106 C1108 1.391 . S
C1107 C1106 1.386 . S
C1107 C1111 1.393 . S
C1108 H1097 0.950 . S
C1108 C1106 1.391 . S
C1108 C1109 1.400 . S
C1109 C1103 1.491 1_655 S
C1109 C1108 1.400 . S
C1109 C1110 1.398 . S
C1110 H1098 0.950 . S
C1110 C1109 1.398 . S
C1110 C1111 1.391 . S
C1111 H1099 0.950 . S
C1111 C1107 1.393 . S
C1111 C1110 1.391 . S
H1112 C1120 0.950 . S
H1113 C1125 0.950 . S
H1114 C1122 0.950 . S
H1115 C1124 0.950 . S
H1116 C1126 0.950 . S
H1117 C1128 0.950 . S
H1118 C1130 0.950 . S
H1119 C1131 0.950 . S
C1120 H1112 0.950 . S
C1120 C1121 1.386 . S
C1120 C1122 1.391 . S
C1121 C1120 1.386 . S
C1121 C1125 1.393 . S
C1122 H1114 0.950 . S
C1122 C1120 1.391 . S
C1122 C1123 1.400 . S
C1123 C1122 1.400 . S
C1123 C1124 1.398 . S
C1123 C1129 1.491 1_545 S
C1124 H1115 0.950 . S
C1124 C1123 1.398 . S
C1124 C1125 1.391 . S
C1125 H1113 0.950 . S
C1125 C1121 1.393 . S
C1125 C1124 1.391 . S
C1126 H1116 0.950 . S
C1126 C1127 1.386 . S
C1126 C1128 1.391 . S
C1127 C1126 1.386 . S
C1127 C1131 1.393 . S
C1128 H1117 0.950 . S
C1128 C1126 1.391 . S
C1128 C1129 1.400 . S
C1129 C1123 1.491 1_565 S
C1129 C1128 1.400 . S
C1129 C1130 1.398 . S
C1130 H1118 0.950 . S
C1130 C1129 1.398 . S
C1130 C1131 1.391 . S
C1131 H1119 0.950 . S
C1131 C1127 1.393 . S
C1131 C1130 1.391 . S
H1132 C1140 0.950 . S
H1133 C1145 0.950 . S
H1134 C1142 0.950 . S
H1135 C1144 0.950 . S
H1136 C1146 0.950 . S
H1137 C1148 0.950 . S
H1138 C1150 0.950 . S
H1139 C1151 0.950 . S
C1140 H1132 0.950 . S
C1140 C1141 1.386 . S
C1140 C1142 1.391 . S
C1141 C1140 1.386 . S
C1141 C1145 1.393 . S
C1142 H1134 0.950 . S
C1142 C1140 1.391 . S
C1142 C1143 1.400 . S
C1143 C1142 1.400 . S
C1143 C1144 1.398 . S
C1143 C1149 1.491 1_545 S
C1144 H1135 0.950 . S
C1144 C1143 1.398 . S
C1144 C1145 1.391 . S
C1145 H1133 0.950 . S
C1145 C1141 1.393 . S
C1145 C1144 1.391 . S
C1146 H1136 0.950 . S
C1146 C1147 1.386 . S
C1146 C1148 1.391 . S
C1147 C1146 1.386 . S
C1147 C1151 1.393 . S
C1148 H1137 0.950 . S
C1148 C1146 1.391 . S
C1148 C1149 1.400 . S
C1149 C1143 1.491 1_565 S
C1149 C1148 1.400 . S
C1149 C1150 1.398 . S
C1150 H1138 0.950 . S
C1150 C1149 1.398 . S
C1150 C1151 1.391 . S
C1151 H1139 0.950 . S
C1151 C1147 1.393 . S
C1151 C1150 1.391 . S
H1152 C1160 0.950 . S
H1153 C1165 0.950 . S
H1154 C1162 0.950 . S
H1155 C1164 0.950 . S
H1156 C1166 0.950 . S
H1157 C1168 0.950 . S
H1158 C1170 0.950 . S
H1159 C1171 0.950 . S
C1160 H1152 0.950 . S
C1160 C1161 1.386 . S
C1160 C1162 1.391 . S
C1161 C1160 1.386 . S
C1161 C1165 1.393 . S
C1162 H1154 0.950 . S
C1162 C1160 1.391 . S
C1162 C1163 1.400 . S
C1163 C1162 1.400 . S
C1163 C1164 1.398 . S
C1163 C1169 1.491 . S
C1164 H1155 0.950 . S
C1164 C1163 1.398 . S
C1164 C1165 1.391 . S
C1165 H1153 0.950 . S
C1165 C1161 1.393 . S
C1165 C1164 1.391 . S
C1166 H1156 0.950 . S
C1166 C1167 1.386 . S
C1166 C1168 1.391 . S
C1167 C1166 1.386 . S
C1167 C1171 1.393 . S
C1168 H1157 0.950 . S
C1168 C1166 1.391 . S
C1168 C1169 1.400 . S
C1169 C1163 1.491 . S
C1169 C1168 1.400 . S
C1169 C1170 1.398 . S
C1170 H1158 0.950 . S
C1170 C1169 1.398 . S
C1170 C1171 1.391 . S
C1171 H1159 0.950 . S
C1171 C1167 1.393 . S
C1171 C1170 1.391 . S
H1172 C1180 0.950 . S
H1173 C1185 0.950 . S
H1174 C1182 0.950 . S
H1175 C1184 0.950 . S
H1176 C1186 0.950 . S
H1177 C1188 0.950 . S
H1178 C1190 0.950 . S
H1179 C1191 0.950 . S
C1180 H1172 0.950 . S
C1180 C1181 1.386 . S
C1180 C1182 1.391 . S
C1181 C1180 1.386 . S
C1181 C1185 1.393 . S
C1182 H1174 0.950 . S
C1182 C1180 1.391 . S
C1182 C1183 1.400 . S
C1183 C1182 1.400 . S
C1183 C1184 1.398 . S
C1183 C1189 1.491 . S
C1184 H1175 0.950 . S
C1184 C1183 1.398 . S
C1184 C1185 1.391 . S
C1185 H1173 0.950 . S
C1185 C1181 1.393 . S
C1185 C1184 1.391 . S
C1186 H1176 0.950 . S
C1186 C1187 1.386 . S
C1186 C1188 1.391 . S
C1187 C1186 1.386 . S
C1187 C1191 1.393 . S
C1188 H1177 0.950 . S
C1188 C1186 1.391 . S
C1188 C1189 1.400 . S
C1189 C1183 1.491 . S
C1189 C1188 1.400 . S
C1189 C1190 1.398 . S
C1190 H1178 0.950 . S
C1190 C1189 1.398 . S
C1190 C1191 1.391 . S
C1191 H1179 0.950 . S
C1191 C1187 1.393 . S
C1191 C1190 1.391 . S
H1192 C1200 0.950 . S
H1193 C1205 0.950 . S
H1194 C1202 0.950 . S
H1195 C1204 0.950 . S
H1196 C1206 0.950 . S
H1197 C1208 0.950 . S
H1198 C1210 0.950 . S
H1199 C1211 0.950 . S
C1200 H1192 0.950 . S
C1200 C1201 1.386 . S
C1200 C1202 1.391 . S
C1201 C1200 1.386 . S
C1201 C1205 1.393 . S
C1202 H1194 0.950 . S
C1202 C1200 1.391 . S
C1202 C1203 1.400 . S
C1203 C1202 1.400 . S
C1203 C1204 1.398 . S
C1203 C1209 1.491 . S
C1204 H1195 0.950 . S
C1204 C1203 1.398 . S
C1204 C1205 1.391 . S
C1205 H1193 0.950 . S
C1205 C1201 1.393 . S
C1205 C1204 1.391 . S
C1206 H1196 0.950 . S
C1206 C1207 1.386 . S
C1206 C1208 1.391 . S
C1207 C1206 1.386 . S
C1207 C1211 1.393 . S
C1208 H1197 0.950 . S
C1208 C1206 1.391 . S
C1208 C1209 1.400 . S
C1209 C1203 1.491 . S
C1209 C1208 1.400 . S
C1209 C1210 1.398 . S
C1210 H1198 0.950 . S
C1210 C1209 1.398 . S
C1210 C1211 1.391 . S
C1211 H1199 0.950 . S
C1211 C1207 1.393 . S
C1211 C1210 1.391 . S
H1212 C1220 0.950 . S
H1213 C1225 0.950 . S
H1214 C1222 0.950 . S
H1215 C1224 0.950 . S
H1216 C1226 0.950 . S
H1217 C1228 0.950 . S
H1218 C1230 0.950 . S
H1219 C1231 0.950 . S
C1220 H1212 0.950 . S
C1220 C1221 1.386 . S
C1220 C1222 1.391 . S
C1221 C1220 1.386 . S
C1221 C1225 1.393 . S
C1222 H1214 0.950 . S
C1222 C1220 1.391 . S
C1222 C1223 1.400 . S
C1223 C1222 1.400 . S
C1223 C1224 1.398 . S
C1223 C1229 1.491 . S
C1224 H1215 0.950 . S
C1224 C1223 1.398 . S
C1224 C1225 1.391 . S
C1225 H1213 0.950 . S
C1225 C1221 1.393 . S
C1225 C1224 1.391 . S
C1226 H1216 0.950 . S
C1226 C1227 1.386 . S
C1226 C1228 1.391 . S
C1227 C1226 1.386 . S
C1227 C1231 1.393 . S
C1228 H1217 0.950 . S
C1228 C1226 1.391 . S
C1228 C1229 1.400 . S
C1229 C1223 1.491 . S
C1229 C1228 1.400 . S
C1229 C1230 1.398 . S
C1230 H1218 0.950 . S
C1230 C1229 1.398 . S
C1230 C1231 1.391 . S
C1231 H1219 0.950 . S
C1231 C1227 1.393 . S
C1231 C1230 1.391 . S
H1232 C1240 0.950 . S
H1233 C1245 0.950 . S
H1234 C1242 0.950 . S
H1235 C1244 0.950 . S
H1236 C1246 0.950 . S
H1237 C1248 0.950 . S
H1238 C1250 0.950 . S
H1239 C1251 0.950 . S
C1240 H1232 0.950 . S
C1240 C1241 1.386 . S
C1240 C1242 1.391 . S
C1241 C1240 1.386 . S
C1241 C1245 1.393 . S
C1242 H1234 0.950 . S
C1242 C1240 1.391 . S
C1242 C1243 1.400 . S
C1243 C1242 1.400 . S
C1243 C1244 1.398 . S
C1243 C1249 1.491 . S
C1244 H1235 0.950 . S
C1244 C1243 1.398 . S
C1244 C1245 1.391 . S
C1245 H1233 0.950 . S
C1245 C1241 1.393 . S
C1245 C1244 1.391 . S
C1246 H1236 0.950 . S
C1246 C1247 1.386 . S
C1246 C1248 1.391 . S
C1247 C1246 1.386 . S
C1247 C1251 1.393 . S
C1248 H1237 0.950 . S
C1248 C1246 1.391 . S
C1248 C1249 1.400 . S
C1249 C1243 1.491 . S
C1249 C1248 1.400 . S
C1249 C1250 1.398 . S
C1250 H1238 0.950 . S
C1250 C1249 1.398 . S
C1250 C1251 1.391 . S
C1251 H1239 0.950 . S
C1251 C1247 1.393 . S
C1251 C1250 1.391 . S
H1252 C1260 0.950 . S
H1253 C1265 0.950 . S
H1254 C1262 0.950 . S
H1255 C1264 0.950 . S
H1256 C1266 0.950 . S
H1257 C1268 0.950 . S
H1258 C1270 0.950 . S
H1259 C1271 0.950 . S
C1260 H1252 0.950 . S
C1260 C1261 1.386 . S
C1260 C1262 1.391 . S
C1261 C1260 1.386 . S
C1261 C1265 1.393 . S
C1262 H1254 0.950 . S
C1262 C1260 1.391 . S
C1262 C1263 1.400 . S
C1263 C1262 1.400 . S
C1263 C1264 1.398 . S
C1263 C1269 1.491 . S
C1264 H1255 0.950 . S
C1264 C1263 1.398 . S
C1264 C1265 1.391 . S
C1265 H1253 0.950 . S
C1265 C1261 1.393 . S
C1265 C1264 1.391 . S
C1266 H1256 0.950 . S
C1266 C1267 1.386 . S
C1266 C1268 1.391 . S
C1267 C1266 1.386 . S
C1267 C1271 1.393 . S
C1268 H1257 0.950 . S
C1268 C1266 1.391 . S
C1268 C1269 1.400 . S
C1269 C1263 1.491 . S
C1269 C1268 1.400 . S
C1269 C1270 1.398 . S
C1270 H1258 0.950 . S
C1270 C1269 1.398 . S
C1270 C1271 1.391 . S
C1271 H1259 0.950 . S
C1271 C1267 1.393 . S
C1271 C1270 1.391 . S
H1272 C1280 0.950 . S
H1273 C1285 0.950 . S
H1274 C1282 0.950 . S
H1275 C1284 0.950 . S
H1276 C1286 0.950 . S
H1277 C1288 0.950 . S
H1278 C1290 0.950 . S
H1279 C1291 0.950 . S
C1280 H1272 0.950 . S
C1280 C1281 1.386 . S
C1280 C1282 1.391 . S
C1281 C1280 1.386 . S
C1281 C1285 1.393 . S
C1282 H1274 0.950 . S
C1282 C1280 1.391 . S
C1282 C1283 1.400 . S
C1283 C1282 1.400 . S
C1283 C1284 1.398 . S
C1283 C1289 1.491 . S
C1284 H1275 0.950 . S
C1284 C1283 1.398 . S
C1284 C1285 1.391 . S
C1285 H1273 0.950 . S
C1285 C1281 1.393 . S
C1285 C1284 1.391 . S
C1286 H1276 0.950 . S
C1286 C1287 1.386 . S
C1286 C1288 1.391 . S
C1287 C1286 1.386 . S
C1287 C1291 1.393 . S
C1288 H1277 0.950 . S
C1288 C1286 1.391 . S
C1288 C1289 1.400 . S
C1289 C1283 1.491 . S
C1289 C1288 1.400 . S
C1289 C1290 1.398 . S
C1290 H1278 0.950 . S
C1290 C1289 1.398 . S
C1290 C1291 1.391 . S
C1291 H1279 0.950 . S
C1291 C1287 1.393 . S
C1291 C1290 1.391 . S
H1292 C1300 0.950 . S
H1293 C1305 0.950 . S
H1294 C1302 0.950 . S
H1295 C1304 0.950 . S
H1296 C1306 0.950 . S
H1297 C1308 0.950 . S
H1298 C1310 0.950 . S
H1299 C1311 0.950 . S
C1300 H1292 0.950 . S
C1300 C1301 1.386 . S
C1300 C1302 1.391 . S
C1301 C1300 1.386 . S
C1301 C1305 1.393 . S
C1302 H1294 0.950 . S
C1302 C1300 1.391 . S
C1302 C1303 1.400 . S
C1303 C1302 1.400 . S
C1303 C1304 1.398 . S
C1303 C1309 1.491 . S
C1304 H1295 0.950 . S
C1304 C1303 1.398 . S
C1304 C1305 1.391 . S
C1305 H1293 0.950 . S
C1305 C1301 1.393 . S
C1305 C1304 1.391 . S
C1306 H1296 0.950 . S
C1306 C1307 1.386 . S
C1306 C1308 1.391 . S
C1307 C1306 1.386 . S
C1307 C1311 1.393 . S
C1308 H1297 0.950 . S
C1308 C1306 1.391 . S
C1308 C1309 1.400 . S
C1309 C1303 1.491 . S
C1309 C1308 1.400 . S
C1309 C1310 1.398 . S
C1310 H1298 0.950 . S
C1310 C1309 1.398 . S
C1310 C1311 1.391 . S
C1311 H1299 0.950 . S
C1311 C1307 1.393 . S
C1311 C1310 1.391 . S
H1312 C1320 0.950 . S
H1313 C1325 0.950 . S
H1314 C1322 0.950 . S
H1315 C1324 0.950 . S
H1316 C1326 0.950 . S
H1317 C1328 0.950 . S
H1318 C1330 0.950 . S
H1319 C1331 0.950 . S
C1320 H1312 0.950 . S
C1320 C1321 1.386 . S
C1320 C1322 1.391 . S
C1321 C1320 1.386 . S
C1321 C1325 1.393 . S
C1322 H1314 0.950 . S
C1322 C1320 1.391 . S
C1322 C1323 1.400 . S
C1323 C1322 1.400 . S
C1323 C1324 1.398 . S
C1323 C1329 1.491 . S
C1324 H1315 0.950 . S
C1324 C1323 1.398 . S
C1324 C1325 1.391 . S
C1325 H1313 0.950 . S
C1325 C1321 1.393 . S
C1325 C1324 1.391 . S
C1326 H1316 0.950 . S
C1326 C1327 1.386 . S
C1326 C1328 1.391 . S
C1327 C1326 1.386 . S
C1327 C1331 1.393 . S
C1328 H1317 0.950 . S
C1328 C1326 1.391 . S
C1328 C1329 1.400 . S
C1329 C1323 1.491 . S
C1329 C1328 1.400 . S
C1329 C1330 1.398 . S
C1330 H1318 0.950 . S
C1330 C1329 1.398 . S
C1330 C1331 1.391 . S
C1331 H1319 0.950 . S
C1331 C1327 1.393 . S
C1331 C1330 1.391 . S
H1332 C1340 0.950 . S
H1333 C1345 0.950 . S
H1334 C1342 0.950 . S
H1335 C1344 0.950 . S
H1336 C1346 0.950 . S
H1337 C1348 0.950 . S
H1338 C1350 0.950 . S
H1339 C1351 0.950 . S
C1340 H1332 0.950 . S
C1340 C1341 1.386 . S
C1340 C1342 1.391 . S
C1341 C1340 1.386 . S
C1341 C1345 1.393 . S
C1342 H1334 0.950 . S
C1342 C1340 1.391 . S
C1342 C1343 1.400 . S
C1343 C1342 1.400 . S
C1343 C1344 1.398 . S
C1343 C1349 1.491 . S
C1344 H1335 0.950 . S
C1344 C1343 1.398 . S
C1344 C1345 1.391 . S
C1345 H1333 0.950 . S
C1345 C1341 1.393 . S
C1345 C1344 1.391 . S
C1346 H1336 0.950 . S
C1346 C1347 1.386 . S
C1346 C1348 1.391 . S
C1347 C1346 1.386 . S
C1347 C1351 1.393 . S
C1348 H1337 0.950 . S
C1348 C1346 1.391 . S
C1348 C1349 1.400 . S
C1349 C1343 1.491 . S
C1349 C1348 1.400 . S
C1349 C1350 1.398 . S
C1350 H1338 0.950 . S
C1350 C1349 1.398 . S
C1350 C1351 1.391 . S
C1351 H1339 0.950 . S
C1351 C1347 1.393 . S
C1351 C1350 1.391 . S
H1352 C1360 0.950 . S
H1353 C1365 0.950 . S
H1354 C1362 0.950 . S
H1355 C1364 0.950 . S
H1356 C1366 0.950 . S
H1357 C1368 0.950 . S
H1358 C1370 0.950 . S
H1359 C1371 0.950 . S
C1360 H1352 0.950 . S
C1360 C1361 1.386 . S
C1360 C1362 1.391 . S
C1361 C1360 1.386 . S
C1361 C1365 1.393 . S
C1362 H1354 0.950 . S
C1362 C1360 1.391 . S
C1362 C1363 1.400 . S
C1363 C1362 1.400 . S
C1363 C1364 1.398 . S
C1363 C1369 1.491 . S
C1364 H1355 0.950 . S
C1364 C1363 1.398 . S
C1364 C1365 1.391 . S
C1365 H1353 0.950 . S
C1365 C1361 1.393 . S
C1365 C1364 1.391 . S
C1366 H1356 0.950 . S
C1366 C1367 1.386 . S
C1366 C1368 1.391 . S
C1367 C1366 1.386 . S
C1367 C1371 1.393 . S
C1368 H1357 0.950 . S
C1368 C1366 1.391 . S
C1368 C1369 1.400 . S
C1369 C1363 1.491 . S
C1369 C1368 1.400 . S
C1369 C1370 1.398 . S
C1370 H1358 0.950 . S
C1370 C1369 1.398 . S
C1370 C1371 1.391 . S
C1371 H1359 0.950 . S
C1371 C1367 1.393 . S
C1371 C1370 1.391 . S
H1372 C1380 0.950 . S
H1373 C1385 0.950 . S
H1374 C1382 0.950 . S
H1375 C1384 0.950 . S
H1376 C1386 0.950 . S
H1377 C1388 0.950 . S
H1378 C1390 0.950 . S
H1379 C1391 0.950 . S
C1380 H1372 0.950 . S
C1380 C1381 1.386 . S
C1380 C1382 1.391 . S
C1381 C1380 1.386 . S
C1381 C1385 1.393 . S
C1382 H1374 0.950 . S
C1382 C1380 1.391 . S
C1382 C1383 1.400 . S
C1383 C1382 1.400 . S
C1383 C1384 1.398 . S
C1383 C1389 1.491 . S
C1384 H1375 0.950 . S
C1384 C1383 1.398 . S
C1384 C1385 1.391 . S
C1385 H1373 0.950 . S
C1385 C1381 1.393 . S
C1385 C1384 1.391 . S
C1386 H1376 0.950 . S
C1386 C1387 1.386 . S
C1386 C1388 1.391 . S
C1387 C1386 1.386 . S
C1387 C1391 1.393 . S
C1388 H1377 0.950 . S
C1388 C1386 1.391 . S
C1388 C1389 1.400 . S
C1389 C1383 1.491 . S
C1389 C1388 1.400 . S
C1389 C1390 1.398 . S
C1390 H1378 0.950 . S
C1390 C1389 1.398 . S
C1390 C1391 1.391 . S
C1391 H1379 0.950 . S
C1391 C1387 1.393 . S
C1391 C1390 1.391 . S
H1392 C1400 0.950 . S
H1393 C1405 0.950 . S
H1394 C1402 0.950 . S
H1395 C1404 0.950 . S
H1396 C1406 0.950 . S
H1397 C1408 0.950 . S
H1398 C1410 0.950 . S
H1399 C1411 0.950 . S
C1400 H1392 0.950 . S
C1400 C1401 1.386 . S
C1400 C1402 1.391 . S
C1401 C1400 1.386 . S
C1401 C1405 1.393 . S
C1402 H1394 0.950 . S
C1402 C1400 1.391 . S
C1402 C1403 1.400 . S
C1403 C1402 1.400 . S
C1403 C1404 1.398 . S
C1403 C1409 1.491 . S
C1404 H1395 0.950 . S
C1404 C1403 1.398 . S
C1404 C1405 1.391 . S
C1405 H1393 0.950 . S
C1405 C1401 1.393 . S
C1405 C1404 1.391 . S
C1406 H1396 0.950 . S
C1406 C1407 1.386 . S
C1406 C1408 1.391 . S
C1407 C1406 1.386 . S
C1407 C1411 1.393 . S
C1408 H1397 0.950 . S
C1408 C1406 1.391 . S
C1408 C1409 1.400 . S
C1409 C1403 1.491 . S
C1409 C1408 1.400 . S
C1409 C1410 1.398 . S
C1410 H1398 0.950 . S
C1410 C1409 1.398 . S
C1410 C1411 1.391 . S
C1411 H1399 0.950 . S
C1411 C1407 1.393 . S
C1411 C1410 1.391 . S
H1412 C1420 0.950 . S
H1413 C1425 0.950 . S
H1414 C1422 0.950 . S
H1415 C1424 0.950 . S
H1416 C1426 0.950 . S
H1417 C1428 0.950 . S
H1418 C1430 0.950 . S
H1419 C1431 0.950 . S
C1420 H1412 0.950 . S
C1420 C1421 1.386 . S
C1420 C1422 1.391 . S
C1421 C1420 1.386 . S
C1421 C1425 1.393 . S
C1422 H1414 0.950 . S
C1422 C1420 1.391 . S
C1422 C1423 1.400 . S
C1423 C1422 1.400 . S
C1423 C1424 1.398 . S
C1423 C1429 1.491 . S
C1424 H1415 0.950 . S
C1424 C1423 1.398 . S
C1424 C1425 1.391 . S
C1425 H1413 0.950 . S
C1425 C1421 1.393 . S
C1425 C1424 1.391 . S
C1426 H1416 0.950 . S
C1426 C1427 1.386 . S
C1426 C1428 1.391 . S
C1427 C1426 1.386 . S
C1427 C1431 1.393 . S
C1428 H1417 0.950 . S
C1428 C1426 1.391 . S
C1428 C1429 1.400 . S
C1429 C1423 1.491 . S
C1429 C1428 1.400 . S
C1429 C1430 1.398 . S
C1430 H1418 0.950 . S
C1430 C1429 1.398 . S
C1430 C1431 1.391 . S
C1431 H1419 0.950 . S
C1431 C1427 1.393 . S
C1431 C1430 1.391 . S
H1432 C1440 0.950 . S
H1433 C1445 0.950 . S
H1434 C1442 0.950 . S
H1435 C1444 0.950 . S
H1436 C1446 0.950 . S
H1437 C1448 0.950 . S
H1438 C1450 0.950 . S
H1439 C1451 0.950 . S
C1440 H1432 0.950 . S
C1440 C1441 1.386 . S
C1440 C1442 1.391 . S
C1441 C1440 1.386 . S
C1441 C1445 1.393 . S
C1442 H1434 0.950 . S
C1442 C1440 1.391 . S
C1442 C1443 1.400 . S
C1443 C1442 1.400 . S
C1443 C1444 1.398 . S
C1443 C1449 1.491 . S
C1444 H1435 0.950 . S
C1444 C1443 1.398 . S
C1444 C1445 1.391 . S
C1445 H1433 0.950 . S
C1445 C1441 1.393 . S
C1445 C1444 1.391 . S
C1446 H1436 0.950 . S
C1446 C1447 1.386 . S
C1446 C1448 1.391 . S
C1447 C1446 1.386 . S
C1447 C1451 1.393 . S
C1448 H1437 0.950 . S
C1448 C1446 1.391 . S
C1448 C1449 1.400 . S
C1449 C1443 1.491 . S
C1449 C1448 1.400 . S
C1449 C1450 1.398 . S
C1450 H1438 0.950 . S
C1450 C1449 1.398 . S
C1450 C1451 1.391 . S
C1451 H1439 0.950 . S
C1451 C1447 1.393 . S
C1451 C1450 1.391 . S
H1452 C1460 0.950 . S
H1453 C1465 0.950 . S
H1454 C1462 0.950 . S
H1455 C1464 0.950 . S
H1456 C1466 0.950 . S
H1457 C1468 0.950 . S
H1458 C1470 0.950 . S
H1459 C1471 0.950 . S
C1460 H1452 0.950 . S
C1460 C1461 1.386 . S
C1460 C1462 1.391 . S
C1461 C1460 1.386 . S
C1461 C1465 1.393 . S
C1462 H1454 0.950 . S
C1462 C1460 1.391 . S
C1462 C1463 1.400 . S
C1463 C1462 1.400 . S
C1463 C1464 1.398 . S
C1463 C1469 1.491 . S
C1464 H1455 0.950 . S
C1464 C1463 1.398 . S
C1464 C1465 1.391 . S
C1465 H1453 0.950 . S
C1465 C1461 1.393 . S
C1465 C1464 1.391 . S
C1466 H1456 0.950 . S
C1466 C1467 1.386 . S
C1466 C1468 1.391 . S
C1467 C1466 1.386 . S
C1467 C1471 1.393 . S
C1468 H1457 0.950 . S
C1468 C1466 1.391 . S
C1468 C1469 1.400 . S
C1469 C1463 1.491 . S
C1469 C1468 1.400 . S
C1469 C1470 1.398 . S
C1470 H1458 0.950 . S
C1470 C1469 1.398 . S
C1470 C1471 1.391 . S
C1471 H1459 0.950 . S
C1471 C1467 1.393 . S
C1471 C1470 1.391 . S
H1472 C1480 0.950 . S
H1473 C1485 0.950 . S
H1474 C1482 0.950 . S
H1475 C1484 0.950 . S
H1476 C1486 0.950 . S
H1477 C1488 0.950 . S
H1478 C1490 0.950 . S
H1479 C1491 0.950 . S
C1480 H1472 0.950 . S
C1480 C1481 1.386 . S
C1480 C1482 1.391 . S
C1481 C1480 1.386 . S
C1481 C1485 1.393 . S
C1482 H1474 0.950 . S
C1482 C1480 1.391 . S
C1482 C1483 1.400 . S
C1483 C1482 1.400 . S
C1483 C1484 1.398 . S
C1483 C1489 1.491 . S
C1484 H1475 0.950 . S
C1484 C1483 1.398 . S
C1484 C1485 1.391 . S
C1485 H1473 0.950 . S
C1485 C1481 1.393 . S
C1485 C1484 1.391 . S
C1486 H1476 0.950 . S
C1486 C1487 1.386 . S
C1486 C1488 1.391 . S
C1487 C1486 1.386 . S
C1487 C1491 1.393 . S
C1488 H1477 0.950 . S
C1488 C1486 1.391 . S
C1488 C1489 1.400 . S
C1489 C1483 1.491 . S
C1489 C1488 1.400 . S
C1489 C1490 1.398 . S
C1490 H1478 0.950 . S
C1490 C1489 1.398 . S
C1490 C1491 1.391 . S
C1491 H1479 0.950 . S
C1491 C1487 1.393 . S
C1491 C1490 1.391 . S
H1492 C1500 0.950 . S
H1493 C1505 0.950 . S
H1494 C1502 0.950 . S
H1495 C1504 0.950 . S
H1496 C1506 0.950 . S
H1497 C1508 0.950 . S
H1498 C1510 0.950 . S
H1499 C1511 0.950 . S
C1500 H1492 0.950 . S
C1500 C1501 1.386 . S
C1500 C1502 1.391 . S
C1501 C1500 1.386 . S
C1501 C1505 1.393 . S
C1502 H1494 0.950 . S
C1502 C1500 1.391 . S
C1502 C1503 1.400 . S
C1503 C1502 1.400 . S
C1503 C1504 1.398 . S
C1503 C1509 1.491 . S
C1504 H1495 0.950 . S
C1504 C1503 1.398 . S
C1504 C1505 1.391 . S
C1505 H1493 0.950 . S
C1505 C1501 1.393 . S
C1505 C1504 1.391 . S
C1506 H1496 0.950 . S
C1506 C1507 1.386 . S
C1506 C1508 1.391 . S
C1507 C1506 1.386 . S
C1507 C1511 1.393 . S
C1508 H1497 0.950 . S
C1508 C1506 1.391 . S
C1508 C1509 1.400 . S
C1509 C1503 1.491 . S
C1509 C1508 1.400 . S
C1509 C1510 1.398 . S
C1510 H1498 0.950 . S
C1510 C1509 1.398 . S
C1510 C1511 1.391 . S
C1511 H1499 0.950 . S
C1511 C1507 1.393 . S
C1511 C1510 1.391 . S
H1512 C1520 0.950 . S
H1513 C1525 0.950 . S
H1514 C1522 0.950 . S
H1515 C1524 0.950 . S
H1516 C1526 0.950 . S
H1517 C1528 0.950 . S
H1518 C1530 0.950 . S
H1519 C1531 0.950 . S
C1520 H1512 0.950 . S
C1520 C1521 1.386 . S
C1520 C1522 1.391 . S
C1521 C1520 1.386 . S
C1521 C1525 1.393 . S
C1522 H1514 0.950 . S
C1522 C1520 1.391 . S
C1522 C1523 1.400 . S
C1523 C1522 1.400 . S
C1523 C1524 1.398 . S
C1523 C1529 1.491 . S
C1524 H1515 0.950 . S
C1524 C1523 1.398 . S
C1524 C1525 1.391 . S
C1525 H1513 0.950 . S
C1525 C1521 1.393 . S
C1525 C1524 1.391 . S
C1526 H1516 0.950 . S
C1526 C1527 1.386 . S
C1526 C1528 1.391 . S
C1527 C1526 1.386 . S
C1527 C1531 1.393 . S
C1528 H1517 0.950 . S
C1528 C1526 1.391 . S
C1528 C1529 1.400 . S
C1529 C1523 1.491 . S
C1529 C1528 1.400 . S
C1529 C1530 1.398 . S
C1530 H1518 0.950 . S
C1530 C1529 1.398 . S
C1530 C1531 1.391 . S
C1531 H1519 0.950 . S
C1531 C1527 1.393 . S
C1531 C1530 1.391 . S
H1532 C1540 0.950 . S
H1533 C1545 0.950 . S
H1534 C1542 0.950 . S
H1535 C1544 0.950 . S
H1536 C1546 0.950 . S
H1537 C1548 0.950 . S
H1538 C1550 0.950 . S
H1539 C1551 0.950 . S
C1540 H1532 0.950 . S
C1540 C1541 1.386 . S
C1540 C1542 1.391 . S
C1541 C1540 1.386 . S
C1541 C1545 1.393 . S
C1542 H1534 0.950 . S
C1542 C1540 1.391 . S
C1542 C1543 1.400 . S
C1543 C1542 1.400 . S
C1543 C1544 1.398 . S
C1543 C1549 1.491 . S
C1544 H1535 0.950 . S
C1544 C1543 1.398 . S
C1544 C1545 1.391 . S
C1545 H1533 0.950 . S
C1545 C1541 1.393 . S
C1545 C1544 1.391 . S
C1546 H1536 0.950 . S
C1546 C1547 1.386 . S
C1546 C1548 1.391 . S
C1547 C1546 1.386 . S
C1547 C1551 1.393 . S
C1548 H1537 0.950 . S
C1548 C1546 1.391 . S
C1548 C1549 1.400 . S
C1549 C1543 1.491 . S
C1549 C1548 1.400 . S
C1549 C1550 1.398 . S
C1550 H1538 0.950 . S
C1550 C1549 1.398 . S
C1550 C1551 1.391 . S
C1551 H1539 0.950 . S
C1551 C1547 1.393 . S
C1551 C1550 1.391 . S
H1552 C1560 0.950 . S
H1553 C1565 0.950 . S
H1554 C1562 0.950 . S
H1555 C1564 0.950 . S
H1556 C1566 0.950 . S
H1557 C1568 0.950 . S
H1558 C1570 0.950 . S
H1559 C1571 0.950 . S
C1560 H1552 0.950 . S
C1560 C1561 1.386 . S
C1560 C1562 1.391 . S
C1561 C1560 1.386 . S
C1561 C1565 1.393 . S
C1562 H1554 0.950 . S
C1562 C1560 1.391 . S
C1562 C1563 1.400 . S
C1563 C1562 1.400 . S
C1563 C1564 1.398 . S
C1563 C1569 1.491 . S
C1564 H1555 0.950 . S
C1564 C1563 1.398 . S
C1564 C1565 1.391 . S
C1565 H1553 0.950 . S
C1565 C1561 1.393 . S
C1565 C1564 1.391 . S
C1566 H1556 0.950 . S
C1566 C1567 1.386 . S
C1566 C1568 1.391 . S
C1567 C1566 1.386 . S
C1567 C1571 1.393 . S
C1568 H1557 0.950 . S
C1568 C1566 1.391 . S
C1568 C1569 1.400 . S
C1569 C1563 1.491 . S
C1569 C1568 1.400 . S
C1569 C1570 1.398 . S
C1570 H1558 0.950 . S
C1570 C1569 1.398 . S
C1570 C1571 1.391 . S
C1571 H1559 0.950 . S
C1571 C1567 1.393 . S
C1571 C1570 1.391 . S
H1572 C1580 0.950 . S
H1573 C1585 0.950 . S
H1574 C1582 0.950 . S
H1575 C1584 0.950 . S
H1576 C1586 0.950 . S
H1577 C1588 0.950 . S
H1578 C1590 0.950 . S
H1579 C1591 0.950 . S
C1580 H1572 0.950 . S
C1580 C1581 1.386 . S
C1580 C1582 1.391 . S
C1581 C1580 1.386 . S
C1581 C1585 1.393 . S
C1582 H1574 0.950 . S
C1582 C1580 1.391 . S
C1582 C1583 1.400 . S
C1583 C1582 1.400 . S
C1583 C1584 1.398 . S
C1583 C1589 1.491 . S
C1584 H1575 0.950 . S
C1584 C1583 1.398 . S
C1584 C1585 1.391 . S
C1585 H1573 0.950 . S
C1585 C1581 1.393 . S
C1585 C1584 1.391 . S
C1586 H1576 0.950 . S
C1586 C1587 1.386 . S
C1586 C1588 1.391 . S
C1587 C1586 1.386 . S
C1587 C1591 1.393 . S
C1588 H1577 0.950 . S
C1588 C1586 1.391 . S
C1588 C1589 1.400 . S
C1589 C1583 1.491 . S
C1589 C1588 1.400 . S
C1589 C1590 1.398 . S
C1590 H1578 0.950 . S
C1590 C1589 1.398 . S
C1590 C1591 1.391 . S
C1591 H1579 0.950 . S
C1591 C1587 1.393 . S
C1591 C1590 1.391 . S
H1592 C1600 0.950 . S
H1593 C1605 0.950 . S
H1594 C1602 0.950 . S
H1595 C1604 0.950 . S
H1596 C1606 0.950 . S
H1597 C1608 0.950 . S
H1598 C1610 0.950 . S
H1599 C1611 0.950 . S
C1600 H1592 0.950 . S
C1600 C1601 1.386 . S
C1600 C1602 1.391 . S
C1601 C1600 1.386 . S
C1601 C1605 1.393 . S
C1602 H1594 0.950 . S
C1602 C1600 1.391 . S
C1602 C1603 1.400 . S
C1603 C1602 1.400 . S
C1603 C1604 1.398 . S
C1603 C1609 1.491 . S
C1604 H1595 0.950 . S
C1604 C1603 1.398 . S
C1604 C1605 1.391 . S
C1605 H1593 0.950 . S
C1605 C1601 1.393 . S
C1605 C1604 1.391 . S
C1606 H1596 0.950 . S
C1606 C1607 1.386 . S
C1606 C1608 1.391 . S
C1607 C1606 1.386 . S
C1607 C1611 1.393 . S
C1608 H1597 0.950 . S
C1608 C1606 1.391 . S
C1608 C1609 1.400 . S
C1609 C1603 1.491 . S
C1609 C1608 1.400 . S
C1609 C1610 1.398 . S
C1610 H1598 0.950 . S
C1610 C1609 1.398 . S
C1610 C1611 1.391 . S
C1611 H1599 0.950 . S
C1611 C1607 1.393 . S
C1611 C1610 1.391 . S
H1612 C1620 0.950 . S
H1613 C1625 0.950 . S
H1614 C1622 0.950 . S
H1615 C1624 0.950 . S
H1616 C1626 0.950 . S
H1617 C1628 0.950 . S
H1618 C1630 0.950 . S
H1619 C1631 0.950 . S
C1620 H1612 0.950 . S
C1620 C1621 1.386 . S
C1620 C1622 1.391 . S
C1621 C1620 1.386 . S
C1621 C1625 1.393 . S
C1622 H1614 0.950 . S
C1622 C1620 1.391 . S
C1622 C1623 1.400 . S
C1623 C1622 1.400 . S
C1623 C1624 1.398 . S
C1623 C1629 1.491 . S
C1624 H1615 0.950 . S
C1624 C1623 1.398 . S
C1624 C1625 1.391 . S
C1625 H1613 0.950 . S
C1625 C1621 1.393 . S
C1625 C1624 1.391 . S
C1626 H1616 0.950 . S
C1626 C1627 1.386 . S
C1626 C1628 1.391 . S
C1627 C1626 1.386 . S
C1627 C1631 1.393 . S
C1628 H1617 0.950 . S
C1628 C1626 1.391 . S
C1628 C1629 1.400 . S
C1629 C1623 1.491 . S
C1629 C1628 1.400 . S
C1629 C1630 1.398 . S
C1630 H1618 0.950 . S
C1630 C1629 1.398 . S
C1630 C1631 1.391 . S
C1631 H1619 0.950 . S
C1631 C1627 1.393 . S
C1631 C1630 1.391 . S
H1632 C1640 0.950 . S
H1633 C1645 0.950 . S
H1634 C1642 0.950 . S
H1635 C1644 0.950 . S
H1636 C1646 0.950 . S
H1637 C1648 0.950 . S
H1638 C1650 0.950 . S
H1639 C1651 0.950 . S
C1640 H1632 0.950 . S
C1640 C1641 1.386 . S
C1640 C1642 1.391 . S
C1641 C1640 1.386 . S
C1641 C1645 1.393 . S
C1642 H1634 0.950 . S
C1642 C1640 1.391 . S
C1642 C1643 1.400 . S
C1643 C1642 1.400 . S
C1643 C1644 1.398 . S
C1643 C1649 1.491 . S
C1644 H1635 0.950 . S
C1644 C1643 1.398 . S
C1644 C1645 1.391 . S
C1645 H1633 0.950 . S
C1645 C1641 1.393 . S
C1645 C1644 1.391 . S
C1646 H1636 0.950 . S
C1646 C1647 1.386 . S
C1646 C1648 1.391 . S
C1647 C1646 1.386 . S
C1647 C1651 1.393 . S
C1648 H1637 0.950 . S
C1648 C1646 1.391 . S
C1648 C1649 1.400 . S
C1649 C1643 1.491 . S
C1649 C1648 1.400 . S
C1649 C1650 1.398 . S
C1650 H1638 0.950 . S
C1650 C1649 1.398 . S
C1650 C1651 1.391 . S
C1651 H1639 0.950 . S
C1651 C1647 1.393 . S
C1651 C1650 1.391 . S
H1652 C1660 0.950 . S
H1653 C1665 0.950 . S
H1654 C1662 0.950 . S
H1655 C1664 0.950 . S
H1656 C1666 0.950 . S
H1657 C1668 0.950 . S
H1658 C1670 0.950 . S
H1659 C1671 0.950 . S
C1660 H1652 0.950 . S
C1660 C1661 1.386 . S
C1660 C1662 1.391 . S
C1661 C1660 1.386 . S
C1661 C1665 1.393 . S
C1662 H1654 0.950 . S
C1662 C1660 1.391 . S
C1662 C1663 1.400 . S
C1663 C1662 1.400 . S
C1663 C1664 1.398 . S
C1663 C1669 1.491 . S
C1664 H1655 0.950 . S
C1664 C1663 1.398 . S
C1664 C1665 1.391 . S
C1665 H1653 0.950 . S
C1665 C1661 1.393 . S
C1665 C1664 1.391 . S
C1666 H1656 0.950 . S
C1666 C1667 1.386 . S
C1666 C1668 1.391 . S
C1667 C1666 1.386 . S
C1667 C1671 1.393 . S
C1668 H1657 0.950 . S
C1668 C1666 1.391 . S
C1668 C1669 1.400 . S
C1669 C1663 1.491 . S
C1669 C1668 1.400 . S
C1669 C1670 1.398 . S
C1670 H1658 0.950 . S
C1670 C1669 1.398 . S
C1670 C1671 1.391 . S
C1671 H1659 0.950 . S
C1671 C1667 1.393 . S
C1671 C1670 1.391 . S
H1672 C1680 0.950 . S
H1673 C1685 0.950 . S
H1674 C1682 0.950 . S
H1675 C1684 0.950 . S
H1676 C1686 0.950 . S
H1677 C1688 0.950 . S
H1678 C1690 0.950 . S
H1679 C1691 0.950 . S
C1680 H1672 0.950 . S
C1680 C1681 1.386 . S
C1680 C1682 1.391 . S
C1681 C1680 1.386 . S
C1681 C1685 1.393 . S
C1682 H1674 0.950 . S
C1682 C1680 1.391 . S
C1682 C1683 1.400 . S
C1683 C1682 1.400 . S
C1683 C1684 1.398 . S
C1683 C1689 1.491 . S
C1684 H1675 0.950 . S
C1684 C1683 1.398 . S
C1684 C1685 1.391 . S
C1685 H1673 0.950 . S
C1685 C1681 1.393 . S
C1685 C1684 1.391 . S
C1686 H1676 0.950 . S
C1686 C1687 1.386 . S
C1686 C1688 1.391 . S
C1687 C1686 1.386 . S
C1687 C1691 1.393 . S
C1688 H1677 0.950 . S
C1688 C1686 1.391 . S
C1688 C1689 1.400 . S
C1689 C1683 1.491 . S
C1689 C1688 1.400 . S
C1689 C1690 1.398 . S
C1690 H1678 0.950 . S
C1690 C1689 1.398 . S
C1690 C1691 1.391 . S
C1691 H1679 0.950 . S
C1691 C1687 1.393 . S
C1691 C1690 1.391 . S
H1692 C1700 0.950 . S
H1693 C1705 0.950 . S
H1694 C1702 0.950 . S
H1695 C1704 0.950 . S
H1696 C1706 0.950 . S
H1697 C1708 0.950 . S
H1698 C1710 0.950 . S
H1699 C1711 0.950 . S
C1700 H1692 0.950 . S
C1700 C1701 1.386 . S
C1700 C1702 1.391 . S
C1701 C1700 1.386 . S
C1701 C1705 1.393 . S
C1702 H1694 0.950 . S
C1702 C1700 1.391 . S
C1702 C1703 1.400 . S
C1703 C1702 1.400 . S
C1703 C1704 1.398 . S
C1703 C1709 1.491 . S
C1704 H1695 0.950 . S
C1704 C1703 1.398 . S
C1704 C1705 1.391 . S
C1705 H1693 0.950 . S
C1705 C1701 1.393 . S
C1705 C1704 1.391 . S
C1706 H1696 0.950 . S
C1706 C1707 1.386 . S
C1706 C1708 1.391 . S
C1707 C1706 1.386 . S
C1707 C1711 1.393 . S
C1708 H1697 0.950 . S
C1708 C1706 1.391 . S
C1708 C1709 1.400 . S
C1709 C1703 1.491 . S
C1709 C1708 1.400 . S
C1709 C1710 1.398 . S
C1710 H1698 0.950 . S
C1710 C1709 1.398 . S
C1710 C1711 1.391 . S
C1711 H1699 0.950 . S
C1711 C1707 1.393 . S
C1711 C1710 1.391 . S
H1712 C1720 0.950 . S
H1713 C1725 0.950 . S
H1714 C1722 0.950 . S
H1715 C1724 0.950 . S
H1716 C1726 0.950 . S
H1717 C1728 0.950 . S
H1718 C1730 0.950 . S
H1719 C1731 0.950 . S
C1720 H1712 0.950 . S
C1720 C1721 1.386 . S
C1720 C1722 1.391 . S
C1721 C1720 1.386 . S
C1721 C1725 1.393 . S
C1722 H1714 0.950 . S
C1722 C1720 1.391 . S
C1722 C1723 1.400 . S
C1723 C1722 1.400 . S
C1723 C1724 1.398 . S
C1723 C1729 1.491 . S
C1724 H1715 0.950 . S
C1724 C1723 1.398 . S
C1724 C1725 1.391 . S
C1725 H1713 0.950 . S
C1725 C1721 1.393 . S
C1725 C1724 1.391 . S
C1726 H1716 0.950 . S
C1726 C1727 1.386 . S
C1726 C1728 1.391 . S
C1727 C1726 1.386 . S
C1727 C1731 1.393 . S
C1728 H1717 0.950 . S
C1728 C1726 1.391 . S
C1728 C1729 1.400 . S
C1729 C1723 1.491 . S
C1729 C1728 1.400 . S
C1729 C1730 1.398 . S
C1730 H1718 0.950 . S
C1730 C1729 1.398 . S
C1730 C1731 1.391 . S
C1731 H1719 0.950 . S
C1731 C1727 1.393 . S
C1731 C1730 1.391 . S
H1732 C1740 0.950 . S
H1733 C1745 0.950 . S
H1734 C1742 0.950 . S
H1735 C1744 0.950 . S
H1736 C1746 0.950 . S
H1737 C1748 0.950 . S
H1738 C1750 0.950 . S
H1739 C1751 0.950 . S
C1740 H1732 0.950 . S
C1740 C1741 1.386 . S
C1740 C1742 1.391 . S
C1741 C1740 1.386 . S
C1741 C1745 1.393 . S
C1742 H1734 0.950 . S
C1742 C1740 1.391 . S
C1742 C1743 1.400 . S
C1743 C1742 1.400 . S
C1743 C1744 1.398 . S
C1743 C1749 1.491 . S
C1744 H1735 0.950 . S
C1744 C1743 1.398 . S
C1744 C1745 1.391 . S
C1745 H1733 0.950 . S
C1745 C1741 1.393 . S
C1745 C1744 1.391 . S
C1746 H1736 0.950 . S
C1746 C1747 1.386 . S
C1746 C1748 1.391 . S
C1747 C1746 1.386 . S
C1747 C1751 1.393 . S
C1748 H1737 0.950 . S
C1748 C1746 1.391 . S
C1748 C1749 1.400 . S
C1749 C1743 1.491 . S
C1749 C1748 1.400 . S
C1749 C1750 1.398 . S
C1750 H1738 0.950 . S
C1750 C1749 1.398 . S
C1750 C1751 1.391 . S
C1751 H1739 0.950 . S
C1751 C1747 1.393 . S
C1751 C1750 1.391 . S
H1752 C1760 0.950 . S
H1753 C1765 0.950 . S
H1754 C1762 0.950 . S
H1755 C1764 0.950 . S
H1756 C1766 0.950 . S
H1757 C1768 0.950 . S
H1758 C1770 0.950 . S
H1759 C1771 0.950 . S
C1760 H1752 0.950 . S
C1760 C1761 1.386 . S
C1760 C1762 1.391 . S
C1761 C1760 1.386 . S
C1761 C1765 1.393 . S
C1762 H1754 0.950 . S
C1762 C1760 1.391 . S
C1762 C1763 1.400 . S
C1763 C1762 1.400 . S
C1763 C1764 1.398 . S
C1763 C1769 1.491 . S
C1764 H1755 0.950 . S
C1764 C1763 1.398 . S
C1764 C1765 1.391 . S
C1765 H1753 0.950 . S
C1765 C1761 1.393 . S
C1765 C1764 1.391 . S
C1766 H1756 0.950 . S
C1766 C1767 1.386 . S
C1766 C1768 1.391 . S
C1767 C1766 1.386 . S
C1767 C1771 1.393 . S
C1768 H1757 0.950 . S
C1768 C1766 1.391 . S
C1768 C1769 1.400 . S
C1769 C1763 1.491 . S
C1769 C1768 1.400 . S
C1769 C1770 1.398 . S
C1770 H1758 0.950 . S
C1770 C1769 1.398 . S
C1770 C1771 1.391 . S
C1771 H1759 0.950 . S
C1771 C1767 1.393 . S
C1771 C1770 1.391 . S
H1772 C1780 0.950 . S
H1773 C1785 0.950 . S
H1774 C1782 0.950 . S
H1775 C1784 0.950 . S
H1776 C1786 0.950 . S
H1777 C1788 0.950 . S
H1778 C1790 0.950 . S
H1779 C1791 0.950 . S
C1780 H1772 0.950 . S
C1780 C1781 1.386 . S
C1780 C1782 1.391 . S
C1781 C1780 1.386 . S
C1781 C1785 1.393 . S
C1782 H1774 0.950 . S
C1782 C1780 1.391 . S
C1782 C1783 1.400 . S
C1783 C1782 1.400 . S
C1783 C1784 1.398 . S
C1783 C1789 1.491 . S
C1784 H1775 0.950 . S
C1784 C1783 1.398 . S
C1784 C1785 1.391 . S
C1785 H1773 0.950 . S
C1785 C1781 1.393 . S
C1785 C1784 1.391 . S
C1786 H1776 0.950 . S
C1786 C1787 1.386 . S
C1786 C1788 1.391 . S
C1787 C1786 1.386 . S
C1787 C1791 1.393 . S
C1788 H1777 0.950 . S
C1788 C1786 1.391 . S
C1788 C1789 1.400 . S
C1789 C1783 1.491 . S
C1789 C1788 1.400 . S
C1789 C1790 1.398 . S
C1790 H1778 0.950 . S
C1790 C1789 1.398 . S
C1790 C1791 1.391 . S
C1791 H1779 0.950 . S
C1791 C1787 1.393 . S
C1791 C1790 1.391 . S
H1792 C1800 0.950 . S
H1793 C1805 0.950 . S
H1794 C1802 0.950 . S
H1795 C1804 0.950 . S
H1796 C1806 0.950 . S
H1797 C1808 0.950 . S
H1798 C1810 0.950 . S
H1799 C1811 0.950 . S
C1800 H1792 0.950 . S
C1800 C1801 1.386 . S
C1800 C1802 1.391 . S
C1801 C1800 1.386 . S
C1801 C1805 1.393 . S
C1802 H1794 0.950 . S
C1802 C1800 1.391 . S
C1802 C1803 1.400 . S
C1803 C1802 1.400 . S
C1803 C1804 1.398 . S
C1803 C1809 1.491 . S
C1804 H1795 0.950 . S
C1804 C1803 1.398 . S
C1804 C1805 1.391 . S
C1805 H1793 0.950 . S
C1805 C1801 1.393 . S
C1805 C1804 1.391 . S
C1806 H1796 0.950 . S
C1806 C1807 1.386 . S
C1806 C1808 1.391 . S
C1807 C1806 1.386 . S
C1807 C1811 1.393 . S
C1808 H1797 0.950 . S
C1808 C1806 1.391 . S
C1808 C1809 1.400 . S
C1809 C1803 1.491 . S
C1809 C1808 1.400 . S
C1809 C1810 1.398 . S
C1810 H1798 0.950 . S
C1810 C1809 1.398 . S
C1810 C1811 1.391 . S
C1811 H1799 0.950 . S
C1811 C1807 1.393 . S
C1811 C1810 1.391 . S
H1812 C1820 0.950 . S
H1813 C1825 0.950 . S
H1814 C1822 0.950 . S
H1815 C1824 0.950 . S
H1816 C1826 0.950 . S
H1817 C1828 0.950 . S
H1818 C1830 0.950 . S
H1819 C1831 0.950 . S
C1820 H1812 0.950 . S
C1820 C1821 1.386 . S
C1820 C1822 1.391 . S
C1821 C1820 1.386 . S
C1821 C1825 1.393 . S
C1822 H1814 0.950 . S
C1822 C1820 1.391 . S
C1822 C1823 1.400 . S
C1823 C1822 1.400 . S
C1823 C1824 1.398 . S
C1823 C1829 1.491 . S
C1824 H1815 0.950 . S
C1824 C1823 1.398 . S
C1824 C1825 1.391 . S
C1825 H1813 0.950 . S
C1825 C1821 1.393 . S
C1825 C1824 1.391 . S
C1826 H1816 0.950 . S
C1826 C1827 1.386 . S
C1826 C1828 1.391 . S
C1827 C1826 1.386 . S
C1827 C1831 1.393 . S
C1828 H1817 0.950 . S
C1828 C1826 1.391 . S
C1828 C1829 1.400 . S
C1829 C1823 1.491 . S
C1829 C1828 1.400 . S
C1829 C1830 1.398 . S
C1830 H1818 0.950 . S
C1830 C1829 1.398 . S
C1830 C1831 1.391 . S
C1831 H1819 0.950 . S
C1831 C1827 1.393 . S
C1831 C1830 1.391 . S
H1832 C1840 0.950 . S
H1833 C1845 0.950 . S
H1834 C1842 0.950 . S
H1835 C1844 0.950 . S
H1836 C1846 0.950 . S
H1837 C1848 0.950 . S
H1838 C1850 0.950 . S
H1839 C1851 0.950 . S
C1840 H1832 0.950 . S
C1840 C1841 1.386 . S
C1840 C1842 1.391 . S
C1841 C1840 1.386 . S
C1841 C1845 1.393 . S
C1842 H1834 0.950 . S
C1842 C1840 1.391 . S
C1842 C1843 1.400 . S
C1843 C1842 1.400 . S
C1843 C1844 1.398 . S
C1843 C1849 1.491 . S
C1844 H1835 0.950 . S
C1844 C1843 1.398 . S
C1844 C1845 1.391 . S
C1845 H1833 0.950 . S
C1845 C1841 1.393 . S
C1845 C1844 1.391 . S
C1846 H1836 0.950 . S
C1846 C1847 1.386 . S
C1846 C1848 1.391 . S
C1847 C1846 1.386 . S
C1847 C1851 1.393 . S
C1848 H1837 0.950 . S
C1848 C1846 1.391 . S
C1848 C1849 1.400 . S
C1849 C1843 1.491 . S
C1849 C1848 1.400 . S
C1849 C1850 1.398 . S
C1850 H1838 0.950 . S
C1850 C1849 1.398 . S
C1850 C1851 1.391 . S
C1851 H1839 0.950 . S
C1851 C1847 1.393 . S
C1851 C1850 1.391 . S
H1852 C1860 0.950 . S
H1853 C1865 0.950 . S
H1854 C1862 0.950 . S
H1855 C1864 0.950 . S
H1856 C1866 0.950 . S
H1857 C1868 0.950 . S
H1858 C1870 0.950 . S
H1859 C1871 0.950 . S
C1860 H1852 0.950 . S
C1860 C1861 1.386 . S
C1860 C1862 1.391 . S
C1861 C1860 1.386 . S
C1861 C1865 1.393 . S
C1862 H1854 0.950 . S
C1862 C1860 1.391 . S
C1862 C1863 1.400 . S
C1863 C1862 1.400 . S
C1863 C1864 1.398 . S
C1863 C1869 1.491 . S
C1864 H1855 0.950 . S
C1864 C1863 1.398 . S
C1864 C1865 1.391 . S
C1865 H1853 0.950 . S
C1865 C1861 1.393 . S
C1865 C1864 1.391 . S
C1866 H1856 0.950 . S
C1866 C1867 1.386 . S
C1866 C1868 1.391 . S
C1867 C1866 1.386 . S
C1867 C1871 1.393 . S
C1868 H1857 0.950 . S
C1868 C1866 1.391 . S
C1868 C1869 1.400 . S
C1869 C1863 1.491 . S
C1869 C1868 1.400 . S
C1869 C1870 1.398 . S
C1870 H1858 0.950 . S
C1870 C1869 1.398 . S
C1870 C1871 1.391 . S
C1871 H1859 0.950 . S
C1871 C1867 1.393 . S
C1871 C1870 1.391 . S
H1872 C1880 0.950 . S
H1873 C1885 0.950 . S
H1874 C1882 0.950 . S
H1875 C1884 0.950 . S
H1876 C1886 0.950 . S
H1877 C1888 0.950 . S
H1878 C1890 0.950 . S
H1879 C1891 0.950 . S
C1880 H1872 0.950 . S
C1880 C1881 1.386 . S
C1880 C1882 1.391 . S
C1881 C1880 1.386 . S
C1881 C1885 1.393 . S
C1882 H1874 0.950 . S
C1882 C1880 1.391 . S
C1882 C1883 1.400 . S
C1883 C1882 1.400 . S
C1883 C1884 1.398 . S
C1883 C1889 1.491 . S
C1884 H1875 0.950 . S
C1884 C1883 1.398 . S
C1884 C1885 1.391 . S
C1885 H1873 0.950 . S
C1885 C1881 1.393 . S
C1885 C1884 1.391 . S
C1886 H1876 0.950 . S
C1886 C1887 1.386 . S
C1886 C1888 1.391 . S
C1887 C1886 1.386 . S
C1887 C1891 1.393 . S
C1888 H1877 0.950 . S
C1888 C1886 1.391 . S
C1888 C1889 1.400 . S
C1889 C1883 1.491 . S
C1889 C1888 1.400 . S
C1889 C1890 1.398 . S
C1890 H1878 0.950 . S
C1890 C1889 1.398 . S
C1890 C1891 1.391 . S
C1891 H1879 0.950 . S
C1891 C1887 1.393 . S
C1891 C1890 1.391 . S
H1892 C1900 0.950 . S
H1893 C1905 0.950 . S
H1894 C1902 0.950 . S
H1895 C1904 0.950 . S
H1896 C1906 0.950 . S
H1897 C1908 0.950 . S
H1898 C1910 0.950 . S
H1899 C1911 0.950 . S
C1900 H1892 0.950 . S
C1900 C1901 1.386 . S
C1900 C1902 1.391 . S
C1901 C1900 1.386 . S
C1901 C1905 1.393 . S
C1902 H1894 0.950 . S
C1902 C1900 1.391 . S
C1902 C1903 1.400 . S
C1903 C1902 1.400 . S
C1903 C1904 1.398 . S
C1903 C1909 1.491 . S
C1904 H1895 0.950 . S
C1904 C1903 1.398 . S
C1904 C1905 1.391 . S
C1905 H1893 0.950 . S
C1905 C1901 1.393 . S
C1905 C1904 1.391 . S
C1906 H1896 0.950 . S
C1906 C1907 1.386 . S
C1906 C1908 1.391 . S
C1907 C1906 1.386 . S
C1907 C1911 1.393 . S
C1908 H1897 0.950 . S
C1908 C1906 1.391 . S
C1908 C1909 1.400 . S
C1909 C1903 1.491 . S
C1909 C1908 1.400 . S
C1909 C1910 1.398 . S
C1910 H1898 0.950 . S
C1910 C1909 1.398 . S
C1910 C1911 1.391 . S
C1911 H1899 0.950 . S
C1911 C1907 1.393 . S
C1911 C1910 1.391 . S
H1912 C1920 0.950 . S
H1913 C1925 0.950 . S
H1914 C1922 0.950 . S
H1915 C1924 0.950 . S
H1916 C1926 0.950 . S
H1917 C1928 0.950 . S
H1918 C1930 0.950 . S
H1919 C1931 0.950 . S
C1920 H1912 0.950 . S
C1920 C1921 1.386 . S
C1920 C1922 1.391 . S
C1921 C1920 1.386 . S
C1921 C1925 1.393 . S
C1922 H1914 0.950 . S
C1922 C1920 1.391 . S
C1922 C1923 1.400 . S
C1923 C1922 1.400 . S
C1923 C1924 1.398 . S
C1923 C1929 1.491 . S
C1924 H1915 0.950 . S
C1924 C1923 1.398 . S
C1924 C1925 1.391 . S
C1925 H1913 0.950 . S
C1925 C1921 1.393 . S
C1925 C1924 1.391 . S
C1926 H1916 0.950 . S
C1926 C1927 1.386 . S
C1926 C1928 1.391 . S
C1927 C1926 1.386 . S
C1927 C1931 1.393 . S
C1928 H1917 0.950 . S
C1928 C1926 1.391 . S
C1928 C1929 1.400 . S
C1929 C1923 1.491 . S
C1929 C1928 1.400 . S
C1929 C1930 1.398 . S
C1930 H1918 0.950 . S
C1930 C1929 1.398 . S
C1930 C1931 1.391 . S
C1931 H1919 0.950 . S
C1931 C1927 1.393 . S
C1931 C1930 1.391 . S
H1932 C1940 0.950 . S
H1933 C1945 0.950 . S
H1934 C1942 0.950 . S
H1935 C1944 0.950 . S
H1936 C1946 0.950 . S
H1937 C1948 0.950 . S
H1938 C1950 0.950 . S
H1939 C1951 0.950 . S
C1940 H1932 0.950 . S
C1940 C1941 1.386 . S
C1940 C1942 1.391 . S
C1941 C1940 1.386 . S
C1941 C1945 1.393 . S
C1942 H1934 0.950 . S
C1942 C1940 1.391 . S
C1942 C1943 1.400 . S
C1943 C1942 1.400 . S
C1943 C1944 1.398 . S
C1943 C1949 1.491 . S
C1944 H1935 0.950 . S
C1944 C1943 1.398 . S
C1944 C1945 1.391 . S
C1945 H1933 0.950 . S
C1945 C1941 1.393 . S
C1945 C1944 1.391 . S
C1946 H1936 0.950 . S
C1946 C1947 1.386 . S
C1946 C1948 1.391 . S
C1947 C1946 1.386 . S
C1947 C1951 1.393 . S
C1948 H1937 0.950 . S
C1948 C1946 1.391 . S
C1948 C1949 1.400 . S
C1949 C1943 1.491 . S
C1949 C1948 1.400 . S
C1949 C1950 1.398 . S
C1950 H1938 0.950 . S
C1950 C1949 1.398 . S
C1950 C1951 1.391 . S
C1951 H1939 0.950 . S
C1951 C1947 1.393 . S
C1951 C1950 1.391 . S
H1952 C1960 0.950 . S
H1953 C1965 0.950 . S
H1954 C1962 0.950 . S
H1955 C1964 0.950 . S
H1956 C1966 0.950 . S
H1957 C1968 0.950 . S
H1958 C1970 0.950 . S
H1959 C1971 0.950 . S
C1960 H1952 0.950 . S
C1960 C1961 1.386 . S
C1960 C1962 1.391 . S
C1961 C1960 1.386 . S
C1961 C1965 1.393 . S
C1962 H1954 0.950 . S
C1962 C1960 1.391 . S
C1962 C1963 1.400 . S
C1963 C1962 1.400 . S
C1963 C1964 1.398 . S
C1963 C1969 1.491 . S
C1964 H1955 0.950 . S
C1964 C1963 1.398 . S
C1964 C1965 1.391 . S
C1965 H1953 0.950 . S
C1965 C1961 1.393 . S
C1965 C1964 1.391 . S
C1966 H1956 0.950 . S
C1966 C1967 1.386 . S
C1966 C1968 1.391 . S
C1967 C1966 1.386 . S
C1967 C1971 1.393 . S
C1968 H1957 0.950 . S
C1968 C1966 1.391 . S
C1968 C1969 1.400 . S
C1969 C1963 1.491 . S
C1969 C1968 1.400 . S
C1969 C1970 1.398 . S
C1970 H1958 0.950 . S
C1970 C1969 1.398 . S
C1970 C1971 1.391 . S
C1971 H1959 0.950 . S
C1971 C1967 1.393 . S
C1971 C1970 1.391 . S
H1972 C1980 0.950 . S
H1973 C1985 0.950 . S
H1974 C1982 0.950 . S
H1975 C1984 0.950 . S
H1976 C1986 0.950 . S
H1977 C1988 0.950 . S
H1978 C1990 0.950 . S
H1979 C1991 0.950 . S
C1980 H1972 0.950 . S
C1980 C1981 1.386 . S
C1980 C1982 1.391 . S
C1981 C1980 1.386 . S
C1981 C1985 1.393 . S
C1982 H1974 0.950 . S
C1982 C1980 1.391 . S
C1982 C1983 1.400 . S
C1983 C1982 1.400 . S
C1983 C1984 1.398 . S
C1983 C1989 1.491 . S
C1984 H1975 0.950 . S
C1984 C1983 1.398 . S
C1984 C1985 1.391 . S
C1985 H1973 0.950 . S
C1985 C1981 1.393 . S
C1985 C1984 1.391 . S
C1986 H1976 0.950 . S
C1986 C1987 1.386 . S
C1986 C1988 1.391 . S
C1987 C1986 1.386 . S
C1987 C1991 1.393 . S
C1988 H1977 0.950 . S
C1988 C1986 1.391 . S
C1988 C1989 1.400 . S
C1989 C1983 1.491 . S
C1989 C1988 1.400 . S
C1989 C1990 1.398 . S
C1990 H1978 0.950 . S
C1990 C1989 1.398 . S
C1990 C1991 1.391 . S
C1991 H1979 0.950 . S
C1991 C1987 1.393 . S
C1991 C1990 1.391 . S
H1992 C2000 0.950 . S
H1993 C2005 0.950 . S
H1994 C2002 0.950 . S
H1995 C2004 0.950 . S
H1996 C2006 0.950 . S
H1997 C2008 0.950 . S
H1998 C2010 0.950 . S
H1999 C2011 0.950 . S
C2000 H1992 0.950 . S
C2000 C2001 1.386 . S
C2000 C2002 1.391 . S
C2001 C2000 1.386 . S
C2001 C2005 1.393 . S
C2002 H1994 0.950 . S
C2002 C2000 1.391 . S
C2002 C2003 1.400 . S
C2003 C2002 1.400 . S
C2003 C2004 1.398 . S
C2003 C2009 1.491 . S
C2004 H1995 0.950 . S
C2004 C2003 1.398 . S
C2004 C2005 1.391 . S
C2005 H1993 0.950 . S
C2005 C2001 1.393 . S
C2005 C2004 1.391 . S
C2006 H1996 0.950 . S
C2006 C2007 1.386 . S
C2006 C2008 1.391 . S
C2007 C2006 1.386 . S
C2007 C2011 1.393 . S
C2008 H1997 0.950 . S
C2008 C2006 1.391 . S
C2008 C2009 1.400 . S
C2009 C2003 1.491 . S
C2009 C2008 1.400 . S
C2009 C2010 1.398 . S
C2010 H1998 0.950 . S
C2010 C2009 1.398 . S
C2010 C2011 1.391 . S
C2011 H1999 0.950 . S
C2011 C2007 1.393 . S
C2011 C2010 1.391 . S
H2012 C2020 0.950 . S
H2013 C2025 0.950 . S
H2014 C2022 0.950 . S
H2015 C2024 0.950 . S
H2016 C2026 0.950 . S
H2017 C2028 0.950 . S
H2018 C2030 0.950 . S
H2019 C2031 0.950 . S
C2020 H2012 0.950 . S
C2020 C2021 1.386 . S
C2020 C2022 1.391 . S
C2021 C2020 1.386 . S
C2021 C2025 1.393 . S
C2022 H2014 0.950 . S
C2022 C2020 1.391 . S
C2022 C2023 1.400 . S
C2023 C2022 1.400 . S
C2023 C2024 1.398 . S
C2023 C2029 1.491 . S
C2024 H2015 0.950 . S
C2024 C2023 1.398 . S
C2024 C2025 1.391 . S
C2025 H2013 0.950 . S
C2025 C2021 1.393 . S
C2025 C2024 1.391 . S
C2026 H2016 0.950 . S
C2026 C2027 1.386 . S
C2026 C2028 1.391 . S
C2027 C2026 1.386 . S
C2027 C2031 1.393 . S
C2028 H2017 0.950 . S
C2028 C2026 1.391 . S
C2028 C2029 1.400 . S
C2029 C2023 1.491 . S
C2029 C2028 1.400 . S
C2029 C2030 1.398 . S
C2030 H2018 0.950 . S
C2030 C2029 1.398 . S
C2030 C2031 1.391 . S
C2031 H2019 0.950 . S
C2031 C2027 1.393 . S
C2031 C2030 1.391 . S
H2032 C2040 0.950 . S
H2033 C2045 0.950 . S
H2034 C2042 0.950 . S
H2035 C2044 0.950 . S
H2036 C2046 0.950 . S
H2037 C2048 0.950 . S
H2038 C2050 0.950 . S
H2039 C2051 0.950 . S
C2040 H2032 0.950 . S
C2040 C2041 1.386 . S
C2040 C2042 1.391 . S
C2041 C2040 1.386 . S
C2041 C2045 1.393 . S
C2042 H2034 0.950 . S
C2042 C2040 1.391 . S
C2042 C2043 1.400 . S
C2043 C2042 1.400 . S
C2043 C2044 1.398 . S
C2043 C2049 1.491 . S
C2044 H2035 0.950 . S
C2044 C2043 1.398 . S
C2044 C2045 1.391 . S
C2045 H2033 0.950 . S
C2045 C2041 1.393 . S
C2045 C2044 1.391 . S
C2046 H2036 0.950 . S
C2046 C2047 1.386 . S
C2046 C2048 1.391 . S
C2047 C2046 1.386 . S
C2047 C2051 1.393 . S
C2048 H2037 0.950 . S
C2048 C2046 1.391 . S
C2048 C2049 1.400 . S
C2049 C2043 1.491 . S
C2049 C2048 1.400 . S
C2049 C2050 1.398 . S
C2050 H2038 0.950 . S
C2050 C2049 1.398 . S
C2050 C2051 1.391 . S
C2051 H2039 0.950 . S
C2051 C2047 1.393 . S
C2051 C2050 1.391 . S
H2052 C2060 0.950 . S
H2053 C2065 0.950 . S
H2054 C2062 0.950 . S
H2055 C2064 0.950 . S
H2056 C2066 0.950 . S
H2057 C2068 0.950 . S
H2058 C2070 0.950 . S
H2059 C2071 0.950 . S
C2060 H2052 0.950 . S
C2060 C2061 1.386 . S
C2060 C2062 1.391 . S
C2061 C2060 1.386 . S
C2061 C2065 1.393 . S
C2062 H2054 0.950 . S
C2062 C2060 1.391 . S
C2062 C2063 1.400 . S
C2063 C2062 1.400 . S
C2063 C2064 1.398 . S
C2063 C2069 1.491 . S
C2064 H2055 0.950 . S
C2064 C2063 1.398 . S
C2064 C2065 1.391 . S
C2065 H2053 0.950 . S
C2065 C2061 1.393 . S
C2065 C2064 1.391 . S
C2066 H2056 0.950 . S
C2066 C2067 1.386 . S
C2066 C2068 1.391 . S
C2067 C2066 1.386 . S
C2067 C2071 1.393 . S
C2068 H2057 0.950 . S
C2068 C2066 1.391 . S
C2068 C2069 1.400 . S
C2069 C2063 1.491 . S
C2069 C2068 1.400 . S
C2069 C2070 1.398 . S
C2070 H2058 0.950 . S
C2070 C2069 1.398 . S
C2070 C2071 1.391 . S
C2071 H2059 0.950 . S
C2071 C2067 1.393 . S
C2071 C2070 1.391 . S
H2072 C2080 0.950 . S
H2073 C2085 0.950 . S
H2074 C2082 0.950 . S
H2075 C2084 0.950 . S
H2076 C2086 0.950 . S
H2077 C2088 0.950 . S
H2078 C2090 0.950 . S
H2079 C2091 0.950 . S
C2080 H2072 0.950 . S
C2080 C2081 1.386 . S
C2080 C2082 1.391 . S
C2081 C2080 1.386 . S
C2081 C2085 1.393 . S
C2082 H2074 0.950 . S
C2082 C2080 1.391 . S
C2082 C2083 1.400 . S
C2083 C2082 1.400 . S
C2083 C2084 1.398 . S
C2083 C2089 1.491 . S
C2084 H2075 0.950 . S
C2084 C2083 1.398 . S
C2084 C2085 1.391 . S
C2085 H2073 0.950 . S
C2085 C2081 1.393 . S
C2085 C2084 1.391 . S
C2086 H2076 0.950 . S
C2086 C2087 1.386 . S
C2086 C2088 1.391 . S
C2087 C2086 1.386 . S
C2087 C2091 1.393 . S
C2088 H2077 0.950 . S
C2088 C2086 1.391 . S
C2088 C2089 1.400 . S
C2089 C2083 1.491 . S
C2089 C2088 1.400 . S
C2089 C2090 1.398 . S
C2090 H2078 0.950 . S
C2090 C2089 1.398 . S
C2090 C2091 1.391 . S
C2091 H2079 0.950 . S
C2091 C2087 1.393 . S
C2091 C2090 1.391 . S
H2092 C2100 0.950 . S
H2093 C2105 0.950 . S
H2094 C2102 0.950 . S
H2095 C2104 0.950 . S
H2096 C2106 0.950 . S
H2097 C2108 0.950 . S
H2098 C2110 0.950 . S
H2099 C2111 0.950 . S
C2100 H2092 0.950 . S
C2100 C2101 1.386 . S
C2100 C2102 1.391 . S
C2101 C2100 1.386 . S
C2101 C2105 1.393 . S
C2102 H2094 0.950 . S
C2102 C2100 1.391 . S
C2102 C2103 1.400 . S
C2103 C2102 1.400 . S
C2103 C2104 1.398 . S
C2103 C2109 1.491 . S
C2104 H2095 0.950 . S
C2104 C2103 1.398 . S
C2104 C2105 1.391 . S
C2105 H2093 0.950 . S
C2105 C2101 1.393 . S
C2105 C2104 1.391 . S
C2106 H2096 0.950 . S
C2106 C2107 1.386 . S
C2106 C2108 1.391 . S
C2107 C2106 1.386 . S
C2107 C2111 1.393 . S
C2108 H2097 0.950 . S
C2108 C2106 1.391 . S
C2108 C2109 1.400 . S
C2109 C2103 1.491 . S
C2109 C2108 1.400 . S
C2109 C2110 1.398 . S
C2110 H2098 0.950 . S
C2110 C2109 1.398 . S
C2110 C2111 1.391 . S
C2111 H2099 0.950 . S
C2111 C2107 1.393 . S
C2111 C2110 1.391 . S
H2112 C2120 0.950 . S
H2113 C2125 0.950 . S
H2114 C2122 0.950 . S
H2115 C2124 0.950 . S
H2116 C2126 0.950 . S
H2117 C2128 0.950 . S
H2118 C2130 0.950 . S
H2119 C2131 0.950 . S
C2120 H2112 0.950 . S
C2120 C2121 1.386 . S
C2120 C2122 1.391 . S
C2121 C2120 1.386 . S
C2121 C2125 1.393 . S
C2122 H2114 0.950 . S
C2122 C2120 1.391 . S
C2122 C2123 1.400 . S
C2123 C2122 1.400 . S
C2123 C2124 1.398 . S
C2123 C2129 1.491 . S
C2124 H2115 0.950 . S
C2124 C2123 1.398 . S
C2124 C2125 1.391 . S
C2125 H2113 0.950 . S
C2125 C2121 1.393 . S
C2125 C2124 1.391 . S
C2126 H2116 0.950 . S
C2126 C2127 1.386 . S
C2126 C2128 1.391 . S
C2127 C2126 1.386 . S
C2127 C2131 1.393 . S
C2128 H2117 0.950 . S
C2128 C2126 1.391 . S
C2128 C2129 1.400 . S
C2129 C2123 1.491 . S
C2129 C2128 1.400 . S
C2129 C2130 1.398 . S
C2130 H2118 0.950 . S
C2130 C2129 1.398 . S
C2130 C2131 1.391 . S
C2131 H2119 0.950 . S
C2131 C2127 1.393 . S
C2131 C2130 1.391 . S
H2132 C2140 0.950 . S
H2133 C2145 0.950 . S
H2134 C2142 0.950 . S
H2135 C2144 0.950 . S
H2136 C2146 0.950 . S
H2137 C2148 0.950 . S
H2138 C2150 0.950 . S
H2139 C2151 0.950 . S
C2140 H2132 0.950 . S
C2140 C2141 1.386 . S
C2140 C2142 1.391 . S
C2141 C2140 1.386 . S
C2141 C2145 1.393 . S
C2142 H2134 0.950 . S
C2142 C2140 1.391 . S
C2142 C2143 1.400 . S
C2143 C2142 1.400 . S
C2143 C2144 1.398 . S
C2143 C2149 1.491 . S
C2144 H2135 0.950 . S
C2144 C2143 1.398 . S
C2144 C2145 1.391 . S
C2145 H2133 0.950 . S
C2145 C2141 1.393 . S
C2145 C2144 1.391 . S
C2146 H2136 0.950 . S
C2146 C2147 1.386 . S
C2146 C2148 1.391 . S
C2147 C2146 1.386 . S
C2147 C2151 1.393 . S
C2148 H2137 0.950 . S
C2148 C2146 1.391 . S
C2148 C2149 1.400 . S
C2149 C2143 1.491 . S
C2149 C2148 1.400 . S
C2149 C2150 1.398 . S
C2150 H2138 0.950 . S
C2150 C2149 1.398 . S
C2150 C2151 1.391 . S
C2151 H2139 0.950 . S
C2151 C2147 1.393 . S
C2151 C2150 1.391 . S
H2152 C2160 0.950 . S
H2153 C2165 0.950 . S
H2154 C2162 0.950 . S
H2155 C2164 0.950 . S
H2156 C2166 0.950 . S
H2157 C2168 0.950 . S
H2158 C2170 0.950 . S
H2159 C2171 0.950 . S
C2160 H2152 0.950 . S
C2160 C2161 1.386 . S
C2160 C2162 1.391 . S
C2161 C2160 1.386 . S
C2161 C2165 1.393 . S
C2162 H2154 0.950 . S
C2162 C2160 1.391 . S
C2162 C2163 1.400 . S
C2163 C2162 1.400 . S
C2163 C2164 1.398 . S
C2163 C2169 1.491 . S
C2164 H2155 0.950 . S
C2164 C2163 1.398 . S
C2164 C2165 1.391 . S
C2165 H2153 0.950 . S
C2165 C2161 1.393 . S
C2165 C2164 1.391 . S
C2166 H2156 0.950 . S
C2166 C2167 1.386 . S
C2166 C2168 1.391 . S
C2167 C2166 1.386 . S
C2167 C2171 1.393 . S
C2168 H2157 0.950 . S
C2168 C2166 1.391 . S
C2168 C2169 1.400 . S
C2169 C2163 1.491 . S
C2169 C2168 1.400 . S
C2169 C2170 1.398 . S
C2170 H2158 0.950 . S
C2170 C2169 1.398 . S
C2170 C2171 1.391 . S
C2171 H2159 0.950 . S
C2171 C2167 1.393 . S
C2171 C2170 1.391 . S
H2172 C2180 0.950 . S
H2173 C2185 0.950 . S
H2174 C2182 0.950 . S
H2175 C2184 0.950 . S
H2176 C2186 0.950 . S
H2177 C2188 0.950 . S
H2178 C2190 0.950 . S
H2179 C2191 0.950 . S
C2180 H2172 0.950 . S
C2180 C2181 1.386 . S
C2180 C2182 1.391 . S
C2181 C2180 1.386 . S
C2181 C2185 1.393 . S
C2182 H2174 0.950 . S
C2182 C2180 1.391 . S
C2182 C2183 1.400 . S
C2183 C2182 1.400 . S
C2183 C2184 1.398 . S
C2183 C2189 1.491 . S
C2184 H2175 0.950 . S
C2184 C2183 1.398 . S
C2184 C2185 1.391 . S
C2185 H2173 0.950 . S
C2185 C2181 1.393 . S
C2185 C2184 1.391 . S
C2186 H2176 0.950 . S
C2186 C2187 1.386 . S
C2186 C2188 1.391 . S
C2187 C2186 1.386 . S
C2187 C2191 1.393 . S
C2188 H2177 0.950 . S
C2188 C2186 1.391 . S
C2188 C2189 1.400 . S
C2189 C2183 1.491 . S
C2189 C2188 1.400 . S
C2189 C2190 1.398 . S
C2190 H2178 0.950 . S
C2190 C2189 1.398 . S
C2190 C2191 1.391 . S
C2191 H2179 0.950 . S
C2191 C2187 1.393 . S
C2191 C2190 1.391 . S
H2192 C2200 0.950 . S
H2193 C2205 0.950 . S
H2194 C2202 0.950 . S
H2195 C2204 0.950 . S
H2196 C2206 0.950 . S
H2197 C2208 0.950 . S
H2198 C2210 0.950 . S
H2199 C2211 0.950 . S
C2200 H2192 0.950 . S
C2200 C2201 1.386 . S
C2200 C2202 1.391 . S
C2201 C2200 1.386 . S
C2201 C2205 1.393 . S
C2202 H2194 0.950 . S
C2202 C2200 1.391 . S
C2202 C2203 1.400 . S
C2203 C2202 1.400 . S
C2203 C2204 1.398 . S
C2203 C2209 1.491 . S
C2204 H2195 0.950 . S
C2204 C2203 1.398 . S
C2204 C2205 1.391 . S
C2205 H2193 0.950 . S
C2205 C2201 1.393 . S
C2205 C2204 1.391 . S
C2206 H2196 0.950 . S
C2206 C2207 1.386 . S
C2206 C2208 1.391 . S
C2207 C2206 1.386 . S
C2207 C2211 1.393 . S
C2208 H2197 0.950 . S
C2208 C2206 1.391 . S
C2208 C2209 1.400 . S
C2209 C2203 1.491 . S
C2209 C2208 1.400 . S
C2209 C2210 1.398 . S
C2210 H2198 0.950 . S
C2210 C2209 1.398 . S
C2210 C2211 1.391 . S
C2211 H2199 0.950 . S
C2211 C2207 1.393 . S
C2211 C2210 1.391 . S
H2212 C2220 0.950 . S
H2213 C2225 0.950 . S
H2214 C2222 0.950 . S
H2215 C2224 0.950 . S
H2216 C2226 0.950 . S
H2217 C2228 0.950 . S
H2218 C2230 0.950 . S
H2219 C2231 0.950 . S
C2220 H2212 0.950 . S
C2220 C2221 1.386 . S
C2220 C2222 1.391 . S
C2221 C2220 1.386 . S
C2221 C2225 1.393 . S
C2222 H2214 0.950 . S
C2222 C2220 1.391 . S
C2222 C2223 1.400 . S
C2223 C2222 1.400 . S
C2223 C2224 1.398 . S
C2223 C2229 1.491 . S
C2224 H2215 0.950 . S
C2224 C2223 1.398 . S
C2224 C2225 1.391 . S
C2225 H2213 0.950 . S
C2225 C2221 1.393 . S
C2225 C2224 1.391 . S
C2226 H2216 0.950 . S
C2226 C2227 1.386 . S
C2226 C2228 1.391 . S
C2227 C2226 1.386 . S
C2227 C2231 1.393 . S
C2228 H2217 0.950 . S
C2228 C2226 1.391 . S
C2228 C2229 1.400 . S
C2229 C2223 1.491 . S
C2229 C2228 1.400 . S
C2229 C2230 1.398 . S
C2230 H2218 0.950 . S
C2230 C2229 1.398 . S
C2230 C2231 1.391 . S
C2231 H2219 0.950 . S
C2231 C2227 1.393 . S
C2231 C2230 1.391 . S
H2232 C2240 0.950 . S
H2233 C2245 0.950 . S
H2234 C2242 0.950 . S
H2235 C2244 0.950 . S
H2236 C2246 0.950 . S
H2237 C2248 0.950 . S
H2238 C2250 0.950 . S
H2239 C2251 0.950 . S
C2240 H2232 0.950 . S
C2240 C2241 1.386 . S
C2240 C2242 1.391 . S
C2241 C2240 1.386 . S
C2241 C2245 1.393 . S
C2242 H2234 0.950 . S
C2242 C2240 1.391 . S
C2242 C2243 1.400 . S
C2243 C2242 1.400 . S
C2243 C2244 1.398 . S
C2243 C2249 1.491 . S
C2244 H2235 0.950 . S
C2244 C2243 1.398 . S
C2244 C2245 1.391 . S
C2245 H2233 0.950 . S
C2245 C2241 1.393 . S
C2245 C2244 1.391 . S
C2246 H2236 0.950 . S
C2246 C2247 1.386 . S
C2246 C2248 1.391 . S
C2247 C2246 1.386 . S
C2247 C2251 1.393 . S
C2248 H2237 0.950 . S
C2248 C2246 1.391 . S
C2248 C2249 1.400 . S
C2249 C2243 1.491 . S
C2249 C2248 1.400 . S
C2249 C2250 1.398 . S
C2250 H2238 0.950 . S
C2250 C2249 1.398 . S
C2250 C2251 1.391 . S
C2251 H2239 0.950 . S
C2251 C2247 1.393 . S
C2251 C2250 1.391 . S
H2252 C2260 0.950 . S
H2253 C2265 0.950 . S
H2254 C2262 0.950 . S
H2255 C2264 0.950 . S
H2256 C2266 0.950 . S
H2257 C2268 0.950 . S
H2258 C2270 0.950 . S
H2259 C2271 0.950 . S
C2260 H2252 0.950 . S
C2260 C2261 1.386 . S
C2260 C2262 1.391 . S
C2261 C2260 1.386 . S
C2261 C2265 1.393 . S
C2262 H2254 0.950 . S
C2262 C2260 1.391 . S
C2262 C2263 1.400 . S
C2263 C2262 1.400 . S
C2263 C2264 1.398 . S
C2263 C2269 1.491 . S
C2264 H2255 0.950 . S
C2264 C2263 1.398 . S
C2264 C2265 1.391 . S
C2265 H2253 0.950 . S
C2265 C2261 1.393 . S
C2265 C2264 1.391 . S
C2266 H2256 0.950 . S
C2266 C2267 1.386 . S
C2266 C2268 1.391 . S
C2267 C2266 1.386 . S
C2267 C2271 1.393 . S
C2268 H2257 0.950 . S
C2268 C2266 1.391 . S
C2268 C2269 1.400 . S
C2269 C2263 1.491 . S
C2269 C2268 1.400 . S
C2269 C2270 1.398 . S
C2270 H2258 0.950 . S
C2270 C2269 1.398 . S
C2270 C2271 1.391 . S
C2271 H2259 0.950 . S
C2271 C2267 1.393 . S
C2271 C2270 1.391 . S
H2272 C2280 0.950 . S
H2273 C2285 0.950 . S
H2274 C2282 0.950 . S
H2275 C2284 0.950 . S
H2276 C2286 0.950 . S
H2277 C2288 0.950 . S
H2278 C2290 0.950 . S
H2279 C2291 0.950 . S
C2280 H2272 0.950 . S
C2280 C2281 1.386 . S
C2280 C2282 1.391 . S
C2281 C2280 1.386 . S
C2281 C2285 1.393 . S
C2282 H2274 0.950 . S
C2282 C2280 1.391 . S
C2282 C2283 1.400 . S
C2283 C2282 1.400 . S
C2283 C2284 1.398 . S
C2283 C2289 1.491 . S
C2284 H2275 0.950 . S
C2284 C2283 1.398 . S
C2284 C2285 1.391 . S
C2285 H2273 0.950 . S
C2285 C2281 1.393 . S
C2285 C2284 1.391 . S
C2286 H2276 0.950 . S
C2286 C2287 1.386 . S
C2286 C2288 1.391 . S
C2287 C2286 1.386 . S
C2287 C2291 1.393 . S
C2288 H2277 0.950 . S
C2288 C2286 1.391 . S
C2288 C2289 1.400 . S
C2289 C2283 1.491 . S
C2289 C2288 1.400 . S
C2289 C2290 1.398 . S
C2290 H2278 0.950 . S
C2290 C2289 1.398 . S
C2290 C2291 1.391 . S
C2291 H2279 0.950 . S
C2291 C2287 1.393 . S
C2291 C2290 1.391 . S
H2292 C2300 0.950 . S
H2293 C2305 0.950 . S
H2294 C2302 0.950 . S
H2295 C2304 0.950 . S
H2296 C2306 0.950 . S
H2297 C2308 0.950 . S
H2298 C2310 0.950 . S
H2299 C2311 0.950 . S
C2300 H2292 0.950 . S
C2300 C2301 1.386 . S
C2300 C2302 1.391 . S
C2301 C2300 1.386 . S
C2301 C2305 1.393 . S
C2302 H2294 0.950 . S
C2302 C2300 1.391 . S
C2302 C2303 1.400 . S
C2303 C2302 1.400 . S
C2303 C2304 1.398 . S
C2303 C2309 1.491 . S
C2304 H2295 0.950 . S
C2304 C2303 1.398 . S
C2304 C2305 1.391 . S
C2305 H2293 0.950 . S
C2305 C2301 1.393 . S
C2305 C2304 1.391 . S
C2306 H2296 0.950 . S
C2306 C2307 1.386 . S
C2306 C2308 1.391 . S
C2307 C2306 1.386 . S
C2307 C2311 1.393 . S
C2308 H2297 0.950 . S
C2308 C2306 1.391 . S
C2308 C2309 1.400 . S
C2309 C2303 1.491 . S
C2309 C2308 1.400 . S
C2309 C2310 1.398 . S
C2310 H2298 0.950 . S
C2310 C2309 1.398 . S
C2310 C2311 1.391 . S
C2311 H2299 0.950 . S
C2311 C2307 1.393 . S
C2311 C2310 1.391 . S
H2312 C2320 0.950 . S
H2313 C2325 0.950 . S
H2314 C2322 0.950 . S
H2315 C2324 0.950 . S
H2316 C2326 0.950 . S
H2317 C2328 0.950 . S
H2318 C2330 0.950 . S
H2319 C2331 0.950 . S
C2320 H2312 0.950 . S
C2320 C2321 1.386 . S
C2320 C2322 1.391 . S
C2321 C2320 1.386 . S
C2321 C2325 1.393 . S
C2322 H2314 0.950 . S
C2322 C2320 1.391 . S
C2322 C2323 1.400 . S
C2323 C2322 1.400 . S
C2323 C2324 1.398 . S
C2323 C2329 1.491 . S
C2324 H2315 0.950 . S
C2324 C2323 1.398 . S
C2324 C2325 1.391 . S
C2325 H2313 0.950 . S
C2325 C2321 1.393 . S
C2325 C2324 1.391 . S
C2326 H2316 0.950 . S
C2326 C2327 1.386 . S
C2326 C2328 1.391 . S
C2327 C2326 1.386 . S
C2327 C2331 1.393 . S
C2328 H2317 0.950 . S
C2328 C2326 1.391 . S
C2328 C2329 1.400 . S
C2329 C2323 1.491 . S
C2329 C2328 1.400 . S
C2329 C2330 1.398 . S
C2330 H2318 0.950 . S
C2330 C2329 1.398 . S
C2330 C2331 1.391 . S
C2331 H2319 0.950 . S
C2331 C2327 1.393 . S
C2331 C2330 1.391 . S
H2332 C2340 0.950 . S
H2333 C2345 0.950 . S
H2334 C2342 0.950 . S
H2335 C2344 0.950 . S
H2336 C2346 0.950 . S
H2337 C2348 0.950 . S
H2338 C2350 0.950 . S
H2339 C2351 0.950 . S
C2340 H2332 0.950 . S
C2340 C2341 1.386 . S
C2340 C2342 1.391 . S
C2341 C2340 1.386 . S
C2341 C2345 1.393 . S
C2342 H2334 0.950 . S
C2342 C2340 1.391 . S
C2342 C2343 1.400 . S
C2343 C2342 1.400 . S
C2343 C2344 1.398 . S
C2343 C2349 1.491 . S
C2344 H2335 0.950 . S
C2344 C2343 1.398 . S
C2344 C2345 1.391 . S
C2345 H2333 0.950 . S
C2345 C2341 1.393 . S
C2345 C2344 1.391 . S
C2346 H2336 0.950 . S
C2346 C2347 1.386 . S
C2346 C2348 1.391 . S
C2347 C2346 1.386 . S
C2347 C2351 1.393 . S
C2348 H2337 0.950 . S
C2348 C2346 1.391 . S
C2348 C2349 1.400 . S
C2349 C2343 1.491 . S
C2349 C2348 1.400 . S
C2349 C2350 1.398 . S
C2350 H2338 0.950 . S
C2350 C2349 1.398 . S
C2350 C2351 1.391 . S
C2351 H2339 0.950 . S
C2351 C2347 1.393 . S
C2351 C2350 1.391 . S
H2352 C2360 0.950 . S
H2353 C2365 0.950 . S
H2354 C2362 0.950 . S
H2355 C2364 0.950 . S
H2356 C2366 0.950 . S
H2357 C2368 0.950 . S
H2358 C2370 0.950 . S
H2359 C2371 0.950 . S
C2360 H2352 0.950 . S
C2360 C2361 1.386 . S
C2360 C2362 1.391 . S
C2361 C2360 1.386 . S
C2361 C2365 1.393 . S
C2362 H2354 0.950 . S
C2362 C2360 1.391 . S
C2362 C2363 1.400 . S
C2363 C2362 1.400 . S
C2363 C2364 1.398 . S
C2363 C2369 1.491 . S
C2364 H2355 0.950 . S
C2364 C2363 1.398 . S
C2364 C2365 1.391 . S
C2365 H2353 0.950 . S
C2365 C2361 1.393 . S
C2365 C2364 1.391 . S
C2366 H2356 0.950 . S
C2366 C2367 1.386 . S
C2366 C2368 1.391 . S
C2367 C2366 1.386 . S
C2367 C2371 1.393 . S
C2368 H2357 0.950 . S
C2368 C2366 1.391 . S
C2368 C2369 1.400 . S
C2369 C2363 1.491 . S
C2369 C2368 1.400 . S
C2369 C2370 1.398 . S
C2370 H2358 0.950 . S
C2370 C2369 1.398 . S
C2370 C2371 1.391 . S
C2371 H2359 0.950 . S
C2371 C2367 1.393 . S
C2371 C2370 1.391 . S
H2372 C2380 0.950 . S
H2373 C2385 0.950 . S
H2374 C2382 0.950 . S
H2375 C2384 0.950 . S
H2376 C2386 0.950 . S
H2377 C2388 0.950 . S
H2378 C2390 0.950 . S
H2379 C2391 0.950 . S
C2380 H2372 0.950 . S
C2380 C2381 1.386 . S
C2380 C2382 1.391 . S
C2381 C2380 1.386 . S
C2381 C2385 1.393 . S
C2382 H2374 0.950 . S
C2382 C2380 1.391 . S
C2382 C2383 1.400 . S
C2383 C2382 1.400 . S
C2383 C2384 1.398 . S
C2383 C2389 1.491 . S
C2384 H2375 0.950 . S
C2384 C2383 1.398 . S
C2384 C2385 1.391 . S
C2385 H2373 0.950 . S
C2385 C2381 1.393 . S
C2385 C2384 1.391 . S
C2386 H2376 0.950 . S
C2386 C2387 1.386 . S
C2386 C2388 1.391 . S
C2387 C2386 1.386 . S
C2387 C2391 1.393 . S
C2388 H2377 0.950 . S
C2388 C2386 1.391 . S
C2388 C2389 1.400 . S
C2389 C2383 1.491 . S
C2389 C2388 1.400 . S
C2389 C2390 1.398 . S
C2390 H2378 0.950 . S
C2390 C2389 1.398 . S
C2390 C2391 1.391 . S
C2391 H2379 0.950 . S
C2391 C2387 1.393 . S
C2391 C2390 1.391 . S
H2392 C2400 0.950 . S
H2393 C2405 0.950 . S
H2394 C2402 0.950 . S
H2395 C2404 0.950 . S
H2396 C2406 0.950 . S
H2397 C2408 0.950 . S
H2398 C2410 0.950 . S
H2399 C2411 0.950 . S
C2400 H2392 0.950 . S
C2400 C2401 1.386 . S
C2400 C2402 1.391 . S
C2401 C2400 1.386 . S
C2401 C2405 1.393 . S
C2402 H2394 0.950 . S
C2402 C2400 1.391 . S
C2402 C2403 1.400 . S
C2403 C2402 1.400 . S
C2403 C2404 1.398 . S
C2403 C2409 1.491 . S
C2404 H2395 0.950 . S
C2404 C2403 1.398 . S
C2404 C2405 1.391 . S
C2405 H2393 0.950 . S
C2405 C2401 1.393 . S
C2405 C2404 1.391 . S
C2406 H2396 0.950 . S
C2406 C2407 1.386 . S
C2406 C2408 1.391 . S
C2407 C2406 1.386 . S
C2407 C2411 1.393 . S
C2408 H2397 0.950 . S
C2408 C2406 1.391 . S
C2408 C2409 1.400 . S
C2409 C2403 1.491 . S
C2409 C2408 1.400 . S
C2409 C2410 1.398 . S
C2410 H2398 0.950 . S
C2410 C2409 1.398 . S
C2410 C2411 1.391 . S
C2411 H2399 0.950 . S
C2411 C2407 1.393 . S
C2411 C2410 1.391 . S
H2412 C2420 0.950 . S
H2413 C2425 0.950 . S
H2414 C2422 0.950 . S
H2415 C2424 0.950 . S
H2416 C2426 0.950 . S
H2417 C2428 0.950 . S
H2418 C2430 0.950 . S
H2419 C2431 0.950 . S
C2420 H2412 0.950 . S
C2420 C2421 1.386 . S
C2420 C2422 1.391 . S
C2421 C2420 1.386 . S
C2421 C2425 1.393 . S
C2422 H2414 0.950 . S
C2422 C2420 1.391 . S
C2422 C2423 1.400 . S
C2423 C2422 1.400 . S
C2423 C2424 1.398 . S
C2423 C2429 1.491 . S
C2424 H2415 0.950 . S
C2424 C2423 1.398 . S
C2424 C2425 1.391 . S
C2425 H2413 0.950 . S
C2425 C2421 1.393 . S
C2425 C2424 1.391 . S
C2426 H2416 0.950 . S
C2426 C2427 1.386 . S
C2426 C2428 1.391 . S
C2427 C2426 1.386 . S
C2427 C2431 1.393 . S
C2428 H2417 0.950 . S
C2428 C2426 1.391 . S
C2428 C2429 1.400 . S
C2429 C2423 1.491 . S
C2429 C2428 1.400 . S
C2429 C2430 1.398 . S
C2430 H2418 0.950 . S
C2430 C2429 1.398 . S
C2430 C2431 1.391 . S
C2431 H2419 0.950 . S
C2431 C2427 1.393 . S
C2431 C2430 1.391 . S
H2432 C2440 0.950 . S
H2433 C2445 0.950 . S
H2434 C2442 0.950 . S
H2435 C2444 0.950 . S
H2436 C2446 0.950 . S
H2437 C2448 0.950 . S
H2438 C2450 0.950 . S
H2439 C2451 0.950 . S
C2440 H2432 0.950 . S
C2440 C2441 1.386 . S
C2440 C2442 1.391 . S
C2441 C2440 1.386 . S
C2441 C2445 1.393 . S
C2442 H2434 0.950 . S
C2442 C2440 1.391 . S
C2442 C2443 1.400 . S
C2443 C2442 1.400 . S
C2443 C2444 1.398 . S
C2443 C2449 1.491 . S
C2444 H2435 0.950 . S
C2444 C2443 1.398 . S
C2444 C2445 1.391 . S
C2445 H2433 0.950 . S
C2445 C2441 1.393 . S
C2445 C2444 1.391 . S
C2446 H2436 0.950 . S
C2446 C2447 1.386 . S
C2446 C2448 1.391 . S
C2447 C2446 1.386 . S
C2447 C2451 1.393 . S
C2448 H2437 0.950 . S
C2448 C2446 1.391 . S
C2448 C2449 1.400 . S
C2449 C2443 1.491 . S
C2449 C2448 1.400 . S
C2449 C2450 1.398 . S
C2450 H2438 0.950 . S
C2450 C2449 1.398 . S
C2450 C2451 1.391 . S
C2451 H2439 0.950 . S
C2451 C2447 1.393 . S
C2451 C2450 1.391 . S
H2452 C2460 0.950 . S
H2453 C2465 0.950 . S
H2454 C2462 0.950 . S
H2455 C2464 0.950 . S
H2456 C2466 0.950 . S
H2457 C2468 0.950 . S
H2458 C2470 0.950 . S
H2459 C2471 0.950 . S
C2460 H2452 0.950 . S
C2460 C2461 1.386 . S
C2460 C2462 1.391 . S
C2461 C2460 1.386 . S
C2461 C2465 1.393 . S
C2462 H2454 0.950 . S
C2462 C2460 1.391 . S
C2462 C2463 1.400 . S
C2463 C2462 1.400 . S
C2463 C2464 1.398 . S
C2463 C2469 1.491 . S
C2464 H2455 0.950 . S
C2464 C2463 1.398 . S
C2464 C2465 1.391 . S
C2465 H2453 0.950 . S
C2465 C2461 1.393 . S
C2465 C2464 1.391 . S
C2466 H2456 0.950 . S
C2466 C2467 1.386 . S
C2466 C2468 1.391 . S
C2467 C2466 1.386 . S
C2467 C2471 1.393 . S
C2468 H2457 0.950 . S
C2468 C2466 1.391 . S
C2468 C2469 1.400 . S
C2469 C2463 1.491 . S
C2469 C2468 1.400 . S
C2469 C2470 1.398 . S
C2470 H2458 0.950 . S
C2470 C2469 1.398 . S
C2470 C2471 1.391 . S
C2471 H2459 0.950 . S
C2471 C2467 1.393 . S
C2471 C2470 1.391 . S
H2472 C2480 0.950 . S
H2473 C2485 0.950 . S
H2474 C2482 0.950 . S
H2475 C2484 0.950 . S
H2476 C2486 0.950 . S
H2477 C2488 0.950 . S
H2478 C2490 0.950 . S
H2479 C2491 0.950 . S
C2480 H2472 0.950 . S
C2480 C2481 1.386 . S
C2480 C2482 1.391 . S
C2481 C2480 1.386 . S
C2481 C2485 1.393 . S
C2482 H2474 0.950 . S
C2482 C2480 1.391 . S
C2482 C2483 1.400 . S
C2483 C2482 1.400 . S
C2483 C2484 1.398 . S
C2483 C2489 1.491 . S
C2484 H2475 0.950 . S
C2484 C2483 1.398 . S
C2484 C2485 1.391 . S
C2485 H2473 0.950 . S
C2485 C2481 1.393 . S
C2485 C2484 1.391 . S
C2486 H2476 0.950 . S
C2486 C2487 1.386 . S
C2486 C2488 1.391 . S
C2487 C2486 1.386 . S
C2487 C2491 1.393 . S
C2488 H2477 0.950 . S
C2488 C2486 1.391 . S
C2488 C2489 1.400 . S
C2489 C2483 1.491 . S
C2489 C2488 1.400 . S
C2489 C2490 1.398 . S
C2490 H2478 0.950 . S
C2490 C2489 1.398 . S
C2490 C2491 1.391 . S
C2491 H2479 0.950 . S
C2491 C2487 1.393 . S
C2491 C2490 1.391 . S
H2492 C2500 0.950 . S
H2493 C2505 0.950 . S
H2494 C2502 0.950 . S
H2495 C2504 0.950 . S
H2496 C2506 0.950 . S
H2497 C2508 0.950 . S
H2498 C2510 0.950 . S
H2499 C2511 0.950 . S
C2500 H2492 0.950 . S
C2500 C2501 1.386 . S
C2500 C2502 1.391 . S
C2501 C2500 1.386 . S
C2501 C2505 1.393 . S
C2502 H2494 0.950 . S
C2502 C2500 1.391 . S
C2502 C2503 1.400 . S
C2503 C2502 1.400 . S
C2503 C2504 1.398 . S
C2503 C2509 1.491 . S
C2504 H2495 0.950 . S
C2504 C2503 1.398 . S
C2504 C2505 1.391 . S
C2505 H2493 0.950 . S
C2505 C2501 1.393 . S
C2505 C2504 1.391 . S
C2506 H2496 0.950 . S
C2506 C2507 1.386 . S
C2506 C2508 1.391 . S
C2507 C2506 1.386 . S
C2507 C2511 1.393 . S
C2508 H2497 0.950 . S
C2508 C2506 1.391 . S
C2508 C2509 1.400 . S
C2509 C2503 1.491 . S
C2509 C2508 1.400 . S
C2509 C2510 1.398 . S
C2510 H2498 0.950 . S
C2510 C2509 1.398 . S
C2510 C2511 1.391 . S
C2511 H2499 0.950 . S
C2511 C2507 1.393 . S
C2511 C2510 1.391 . S
H2512 C2520 0.950 . S
H2513 C2525 0.950 . S
H2514 C2522 0.950 . S
H2515 C2524 0.950 . S
H2516 C2526 0.950 . S
H2517 C2528 0.950 . S
H2518 C2530 0.950 . S
H2519 C2531 0.950 . S
C2520 H2512 0.950 . S
C2520 C2521 1.386 . S
C2520 C2522 1.391 . S
C2521 C2520 1.386 . S
C2521 C2525 1.393 . S
C2522 H2514 0.950 . S
C2522 C2520 1.391 . S
C2522 C2523 1.400 . S
C2523 C2522 1.400 . S
C2523 C2524 1.398 . S
C2523 C2529 1.491 . S
C2524 H2515 0.950 . S
C2524 C2523 1.398 . S
C2524 C2525 1.391 . S
C2525 H2513 0.950 . S
C2525 C2521 1.393 . S
C2525 C2524 1.391 . S
C2526 H2516 0.950 . S
C2526 C2527 1.386 . S
C2526 C2528 1.391 . S
C2527 C2526 1.386 . S
C2527 C2531 1.393 . S
C2528 H2517 0.950 . S
C2528 C2526 1.391 . S
C2528 C2529 1.400 . S
C2529 C2523 1.491 . S
C2529 C2528 1.400 . S
C2529 C2530 1.398 . S
C2530 H2518 0.950 . S
C2530 C2529 1.398 . S
C2530 C2531 1.391 . S
C2531 H2519 0.950 . S
C2531 C2527 1.393 . S
C2531 C2530 1.391 . S
H2532 C2540 0.950 . S
H2533 C2545 0.950 . S
H2534 C2542 0.950 . S
H2535 C2544 0.950 . S
H2536 C2546 0.950 . S
H2537 C2548 0.950 . S
H2538 C2550 0.950 . S
H2539 C2551 0.950 . S
C2540 H2532 0.950 . S
C2540 C2541 1.386 . S
C2540 C2542 1.391 . S
C2541 C2540 1.386 . S
C2541 C2545 1.393 . S
C2542 H2534 0.950 . S
C2542 C2540 1.391 . S
C2542 C2543 1.400 . S
C2543 C2542 1.400 . S
C2543 C2544 1.398 . S
C2543 C2549 1.491 . S
C2544 H2535 0.950 . S
C2544 C2543 1.398 . S
C2544 C2545 1.391 . S
C2545 H2533 0.950 . S
C2545 C2541 1.393 . S
C2545 C2544 1.391 . S
C2546 H2536 0.950 . S
C2546 C2547 1.386 . S
C2546 C2548 1.391 . S
C2547 C2546 1.386 . S
C2547 C2551 1.393 . S
C2548 H2537 0.950 . S
C2548 C2546 1.391 . S
C2548 C2549 1.400 . S
C2549 C2543 1.491 . S
C2549 C2548 1.400 . S
C2549 C2550 1.398 . S
C2550 H2538 0.950 . S
C2550 C2549 1.398 . S
C2550 C2551 1.391 . S
C2551 H2539 0.950 . S
C2551 C2547 1.393 . S
C2551 C2550 1.391 . S
H2552 C2560 0.950 . S
H2553 C2565 0.950 . S
H2554 C2562 0.950 . S
H2555 C2564 0.950 . S
H2556 C2566 0.950 . S
H2557 C2568 0.950 . S
H2558 C2570 0.950 . S
H2559 C2571 0.950 . S
C2560 H2552 0.950 . S
C2560 C2561 1.386 . S
C2560 C2562 1.391 . S
C2561 C2560 1.386 . S
C2561 C2565 1.393 . S
C2562 H2554 0.950 . S
C2562 C2560 1.391 . S
C2562 C2563 1.400 . S
C2563 C2562 1.400 . S
C2563 C2564 1.398 . S
C2563 C2569 1.491 . S
C2564 H2555 0.950 . S
C2564 C2563 1.398 . S
C2564 C2565 1.391 . S
C2565 H2553 0.950 . S
C2565 C2561 1.393 . S
C2565 C2564 1.391 . S
C2566 H2556 0.950 . S
C2566 C2567 1.386 . S
C2566 C2568 1.391 . S
C2567 C2566 1.386 . S
C2567 C2571 1.393 . S
C2568 H2557 0.950 . S
C2568 C2566 1.391 . S
C2568 C2569 1.400 . S
C2569 C2563 1.491 . S
C2569 C2568 1.400 . S
C2569 C2570 1.398 . S
C2570 H2558 0.950 . S
C2570 C2569 1.398 . S
C2570 C2571 1.391 . S
C2571 H2559 0.950 . S
C2571 C2567 1.393 . S
C2571 C2570 1.391 . S
H2572 C2580 0.950 . S
H2573 C2585 0.950 . S
H2574 C2582 0.950 . S
H2575 C2584 0.950 . S
H2576 C2586 0.950 . S
H2577 C2588 0.950 . S
H2578 C2590 0.950 . S
H2579 C2591 0.950 . S
C2580 H2572 0.950 . S
C2580 C2581 1.386 . S
C2580 C2582 1.391 . S
C2581 C2580 1.386 . S
C2581 C2585 1.393 . S
C2582 H2574 0.950 . S
C2582 C2580 1.391 . S
C2582 C2583 1.400 . S
C2583 C2582 1.400 . S
C2583 C2584 1.398 . S
C2583 C2589 1.491 . S
C2584 H2575 0.950 . S
C2584 C2583 1.398 . S
C2584 C2585 1.391 . S
C2585 H2573 0.950 . S
C2585 C2581 1.393 . S
C2585 C2584 1.391 . S
C2586 H2576 0.950 . S
C2586 C2587 1.386 . S
C2586 C2588 1.391 . S
C2587 C2586 1.386 . S
C2587 C2591 1.393 . S
C2588 H2577 0.950 . S
C2588 C2586 1.391 . S
C2588 C2589 1.400 . S
C2589 C2583 1.491 . S
C2589 C2588 1.400 . S
C2589 C2590 1.398 . S
C2590 H2578 0.950 . S
C2590 C2589 1.398 . S
C2590 C2591 1.391 . S
C2591 H2579 0.950 . S
C2591 C2587 1.393 . S
C2591 C2590 1.391 . S
C681 C42 1.498 . S
C687 C1 1.498 . S
C701 C13 1.496 . S
C707 C26 1.496 . S
C721 C28 1.499 . S
C727 C15 1.499 . S
C741 C40 1.498 . S
C747 C55 1.498 . S
C761 C56 1.496 . S
C767 C71 1.496 . S
C781 C96 1.499 . S
C787 C83 1.499 . S
C801 C85 1.498 . S
C807 C98 1.498 . S
C821 C69 1.497 . S
C827 C110 1.497 . S
C841 C125 1.495 . S
C847 C264 1.495 . S
C861 C278 1.499 . S
C867 C139 1.499 . S
C881 C292 1.497 . S
C887 C153 1.497 . S
C901 C250 1.500 . S
C907 C167 1.500 . S
C921 C321 1.496 . S
C927 C180 1.496 . S
C941 C194 1.498 . S
C947 C237 1.498 . S
C961 C335 1.500 . S
C967 C208 1.500 . S
C981 C222 1.499 . S
C987 C307 1.499 . S
C1001 C225 1.496 . S
C1007 C126 1.496 . S
C1021 C239 1.496 . S
C1027 C210 1.496 . S
C1041 C168 1.498 . S
C1047 C253 1.498 . S
C1061 C183 1.500 . S
C1067 C266 1.500 . S
C1081 C197 1.495 . S
C1087 C280 1.495 . S
C1101 C155 1.500 . S
C1107 C294 1.500 . S
C1121 C113 1.499 . S
C1127 C308 1.499 . S
C1141 C323 1.496 . S
C1147 C140 1.496 . S
C1161 C378 1.495 . S
C1167 C337 1.495 . S
C1181 C349 1.495 . S
C1187 C362 1.495 . S
C1201 C364 1.499 . S
C1207 C351 1.499 . S
C1221 C376 1.500 . S
C1227 C391 1.500 . S
C1241 C407 1.496 . S
C1247 C392 1.496 . S
C1261 C419 1.498 . S
C1267 C432 1.498 . S
C1281 C434 1.497 . S
C1287 C421 1.497 . S
C1301 C405 1.499 . S
C1307 C446 1.499 . S
C1321 C600 1.499 . S
C1327 C461 1.499 . S
C1341 C475 1.498 . S
C1347 C614 1.498 . S
C1361 C628 1.496 . S
C1367 C489 1.496 . S
C1381 C503 1.500 . S
C1387 C586 1.500 . S
C1401 C516 1.497 . S
C1407 C657 1.497 . S
C1421 C573 1.500 . S
C1427 C530 1.500 . S
C1441 C671 1.497 . S
C1447 C544 1.497 . S
C1461 C643 1.500 . S
C1467 C558 1.500 . S
C1481 C462 1.497 . S
C1487 C561 1.497 . S
C1501 C546 1.498 . S
C1507 C575 1.498 . S
C1521 C589 1.496 . S
C1527 C504 1.496 . S
C1541 C602 1.497 . S
C1547 C519 1.497 . S
C1561 C533 1.496 . S
C1567 C616 1.496 . S
C1581 C630 1.498 . S
C1587 C491 1.498 . S
C1601 C644 1.496 . S
C1607 C449 1.496 . S
C1621 C659 1.500 . S
C1627 C476 1.500 . S
C1641 C0 1.499 . S
C1647 C617 1.496 . S
C1661 C27 1.500 . S
C1667 C574 1.496 . S
C1681 C29 1.495 . S
C1687 C588 1.498 . S
C1701 C54 1.497 . S
C1707 C603 1.496 . S
C1721 C57 1.499 . S
C1727 C658 1.496 . S
C1741 C82 1.498 . S
C1747 C631 1.500 . S
C1761 C84 1.500 . S
C1767 C645 1.497 . S
C1781 C560 1.499 . S
C1787 C111 1.496 . S
C1801 C124 1.498 . S
C1807 C559 1.495 . S
C1821 C517 1.496 . S
C1827 C138 1.497 . S
C1841 C152 1.500 . S
C1847 C531 1.497 . S
C1861 C166 1.496 . S
C1867 C545 1.499 . S
C1881 C181 1.496 . S
C1887 C474 1.496 . S
C1901 C195 1.499 . S
C1907 C488 1.499 . S
C1921 C502 1.499 . S
C1927 C209 1.500 . S
C1941 C223 1.500 . S
C1947 C460 1.496 . S
C1961 C224 1.495 . S
C1967 C447 1.498 . S
C1981 C238 1.495 . S
C1987 C363 1.498 . S
C2001 C252 1.500 . S
C2007 C365 1.498 . S
C2021 C267 1.498 . S
C2027 C390 1.500 . S
C2041 C336 1.496 . S
C2047 C281 1.499 . S
C2061 C295 1.500 . S
C2067 C418 1.498 . S
C2081 C420 1.497 . S
C2087 C309 1.496 . S
C2101 C393 1.495 . S
C2107 C322 1.498 . S
C2121 C448 1.496 . S
C2127 C99 1.497 . S
C2141 C68 1.496 . S
C2147 C463 1.499 . S
C2161 C477 1.499 . S
C2167 C70 1.496 . S
C2181 C490 1.496 . S
C2187 C97 1.497 . S
C2201 C505 1.499 . S
C2207 C14 1.500 . S
C2221 C41 1.499 . S
C2227 C518 1.495 . S
C2241 C532 1.496 . S
C2247 C43 1.499 . S
C2261 C547 1.499 . S
C2267 C12 1.499 . S
C2281 C572 1.496 . S
C2287 C293 1.500 . S
C2301 C251 1.498 . S
C2307 C670 1.495 . S
C2321 C265 1.498 . S
C2327 C642 1.495 . S
C2341 C656 1.495 . S
C2347 C279 1.499 . S
C2361 C587 1.497 . S
C2367 C334 1.496 . S
C2381 C601 1.498 . S
C2387 C306 1.500 . S
C2401 C320 1.496 . S
C2407 C615 1.500 . S
C2421 C629 1.500 . S
C2427 C236 1.497 . S
C2441 C348 1.496 . S
C2447 C211 1.499 . S
C2461 C404 1.499 . S
C2467 C127 1.499 . S
C2481 C406 1.496 . S
C2487 C141 1.497 . S
C2501 C154 1.497 . S
C2507 C433 1.496 . S
C2521 C112 1.496 . S
C2527 C435 1.499 . S
C2541 C377 1.499 . S
C2547 C182 1.499 . S
C2561 C196 1.498 . S
C2567 C379 1.496 . S
C2581 C350 1.495 . S
C2587 C169 1.498 . S
