# Generated by pormake.
# Topology vby, (6)-cn, num edge types: 1
# Building blocks:
#     Node 0, Type 0, BuildingBlock: BETDIP_clean_sbu_0, # of connection points: 6
#     Node 1, Type 0, BuildingBlock: BETDIP_clean_sbu_0, # of connection points: 6
#     Node 2, Type 0, BuildingBlock: BETDIP_clean_sbu_0, # of connection points: 6
#     Node 3, Type 0, BuildingBlock: BETDIP_clean_sbu_0, # of connection points: 6
#     Node 4, Type 0, BuildingBlock: BETDIP_clean_sbu_0, # of connection points: 6
#     Node 5, Type 0, BuildingBlock: BETDIP_clean_sbu_0, # of connection points: 6
#     Node 6, Type 0, BuildingBlock: BETDIP_clean_sbu_0, # of connection points: 6
#     Node 7, Type 0, BuildingBlock: BETDIP_clean_sbu_0, # of connection points: 6
#     Edge 8, Type (0, 0), BuildingBlock: UVAHIK_clean_linker_0, # of connection points: 2
#     Edge 9, Type (0, 0), BuildingBlock: UVAHIK_clean_linker_0, # of connection points: 2
#     Edge 10, Type (0, 0), BuildingBlock: UVAHIK_clean_linker_0, # of connection points: 2
#     Edge 11, Type (0, 0), BuildingBlock: UVAHIK_clean_linker_0, # of connection points: 2
#     Edge 12, Type (0, 0), BuildingBlock: UVAHIK_clean_linker_0, # of connection points: 2
#     Edge 13, Type (0, 0), BuildingBlock: UVAHIK_clean_linker_0, # of connection points: 2
#     Edge 14, Type (0, 0), BuildingBlock: UVAHIK_clean_linker_0, # of connection points: 2
#     Edge 15, Type (0, 0), BuildingBlock: UVAHIK_clean_linker_0, # of connection points: 2
#     Edge 16, Type (0, 0), BuildingBlock: UVAHIK_clean_linker_0, # of connection points: 2
#     Edge 17, Type (0, 0), BuildingBlock: UVAHIK_clean_linker_0, # of connection points: 2
#     Edge 18, Type (0, 0), BuildingBlock: UVAHIK_clean_linker_0, # of connection points: 2
#     Edge 19, Type (0, 0), BuildingBlock: UVAHIK_clean_linker_0, # of connection points: 2
#     Edge 20, Type (0, 0), BuildingBlock: UVAHIK_clean_linker_0, # of connection points: 2
#     Edge 21, Type (0, 0), BuildingBlock: UVAHIK_clean_linker_0, # of connection points: 2
#     Edge 22, Type (0, 0), BuildingBlock: UVAHIK_clean_linker_0, # of connection points: 2
#     Edge 23, Type (0, 0), BuildingBlock: UVAHIK_clean_linker_0, # of connection points: 2
#     Edge 24, Type (0, 0), BuildingBlock: UVAHIK_clean_linker_0, # of connection points: 2
#     Edge 25, Type (0, 0), BuildingBlock: UVAHIK_clean_linker_0, # of connection points: 2
#     Edge 26, Type (0, 0), BuildingBlock: UVAHIK_clean_linker_0, # of connection points: 2
#     Edge 27, Type (0, 0), BuildingBlock: UVAHIK_clean_linker_0, # of connection points: 2
#     Edge 28, Type (0, 0), BuildingBlock: UVAHIK_clean_linker_0, # of connection points: 2
#     Edge 29, Type (0, 0), BuildingBlock: UVAHIK_clean_linker_0, # of connection points: 2
#     Edge 30, Type (0, 0), BuildingBlock: UVAHIK_clean_linker_0, # of connection points: 2
#     Edge 31, Type (0, 0), BuildingBlock: UVAHIK_clean_linker_0, # of connection points: 2
# Relax obj value: 0.481
# Max RMSD: 0.244
# Mean RMSD: 0.207
data_MOF--net-vby--node1-BETDIP_clean_sbu_0--edge1-UVAHIK_clean_linker_0
_symmetry_space_group_name_H-M    P1
_symmetry_Int_Tables_number       1
_symmetry_cell_setting            triclinic
loop_
_symmetry_equiv_pos_as_xyz
'x, y, z'
_cell_length_a     21.790141
_cell_length_b     88.852001
_cell_length_c     38.715025
_cell_angle_alpha  85.796625
_cell_angle_beta   92.861431
_cell_angle_gamma 78.567438
loop_
_atom_site_label
_atom_site_type_symbol
_atom_site_fract_x
_atom_site_fract_y
_atom_site_fract_z
_atom_type_partial_charge
Tb0 Tb 0.11804 0.44699 -0.00632 0.0
Tb1 Tb 0.24046 0.44994 0.9869 0.0
C2 C 1.0116 0.4442 0.01123 0.0
C3 C 0.98524 0.43017 0.01051 0.0
C4 C 0.94659 0.42637 0.03626 0.0
C5 C 0.92594 0.41238 0.03675 0.0
C6 C 0.94395 0.40199 0.01155 0.0
C7 C 0.98348 0.40578 0.98621 0.0
C8 C 1.00378 0.41969 0.98568 0.0
C9 C 0.15064 0.44493 0.92856 0.0
C10 C 0.14591 0.48296 0.98887 0.0
C11 C 0.34957 0.44533 0.96701 0.0
C12 C 0.39269 0.43027 0.96557 0.0
C13 C 0.40096 0.42362 0.93383 0.0
C14 C 0.43546 0.4086 0.9329 0.0
C15 C 0.46239 0.39993 0.96372 0.0
C16 C 0.45457 0.40668 -0.00464 0.0
C17 C 0.42024 0.42164 -0.00371 0.0
C18 C 0.21094 0.45037 0.05255 0.0
C19 C 0.21323 0.414 -0.00713 0.0
O20 O 1.02117 0.45059 0.98098 0.0
O21 O 0.0596 0.44311 0.03358 0.0
O22 O 0.16332 0.45466 0.94885 0.0
O23 O 0.11825 0.43632 0.94468 0.0
O24 O 0.1064 0.47345 -0.00285 0.0
O25 O 0.20309 0.47592 0.98062 0.0
O26 O 0.29964 0.44784 0.94558 0.0
O27 O 0.33612 0.44948 -0.0021 0.0
O28 O 0.19636 0.4414 0.0309 0.0
O29 O 0.24391 0.45926 0.03749 0.0
O30 O 0.25386 0.42339 0.98724 0.0
O31 O 0.15487 0.42107 -0.00178 0.0
H32 H 0.93263 0.43416 0.056 0.0
H33 H 0.89484 0.40986 0.05636 0.0
H34 H 0.99879 0.39796 0.96671 0.0
H35 H 1.03444 0.42216 0.96588 0.0
H36 H 0.37978 0.42993 0.90976 0.0
H37 H 0.44089 0.40375 0.90811 0.0
H38 H 0.47619 0.40053 0.01949 0.0
H39 H 0.41474 0.42632 0.02126 0.0
Tb40 Tb 0.86777 0.69751 -0.00753 0.0
Tb41 Tb 0.99019 0.70032 -0.00551 0.0
C42 C 0.75524 0.70137 0.00658 0.0
C43 C 0.71793 0.71488 0.02084 0.0
C44 C 0.74579 0.72295 0.04516 0.0
C45 C 0.71258 0.73675 0.05579 0.0
C46 C 0.65098 0.74278 0.04219 0.0
C47 C 0.62308 0.73457 0.01813 0.0
C48 C 0.65636 0.72078 0.00749 0.0
C49 C 0.91056 0.69605 0.92951 0.0
C50 C 0.89533 0.73341 0.99092 0.0
C51 C 0.10361 0.70178 -0.00714 0.0
C52 C 0.13392 0.71345 0.00804 0.0
C53 C 0.17656 0.72025 0.98967 0.0
C54 C 0.19991 0.73244 0.0028 0.0
C55 C 0.17968 0.73834 0.03416 0.0
C56 C 0.1369 0.73141 0.05232 0.0
C57 C 0.11542 0.71897 0.0398 0.0
C58 C 0.9413 0.70356 0.05581 0.0
C59 C 0.96207 0.6645 -0.00768 0.0
O60 O 0.80116 0.69326 0.02722 0.0
O61 O 0.77253 0.70394 0.97526 0.0
O62 O 0.9218 0.70517 0.95159 0.0
O63 O 0.87371 0.68763 0.9425 0.0
O64 O 0.85463 0.72395 -0.00448 0.0
O65 O 0.95437 0.72629 0.98706 0.0
O66 O 0.0828 0.69254 0.01516 0.0
O67 O 0.0626 0.70696 0.96675 0.0
O68 O 0.93559 0.69329 0.03566 0.0
O69 O 0.97448 0.71236 0.04148 0.0
O70 O 1.00277 0.67406 0.98755 0.0
O71 O 0.90318 0.67151 -0.00273 0.0
H72 H 0.79375 0.71875 0.05548 0.0
H73 H 0.73537 0.74279 0.07427 0.0
H74 H 0.57506 0.73869 0.00782 0.0
H75 H 0.63431 0.71482 0.98849 0.0
H76 H 0.19144 0.71621 0.96509 0.0
H77 H 0.23416 0.7371 0.9884 0.0
H78 H 0.11914 0.73562 0.07616 0.0
H79 H 0.08358 0.71384 0.05503 0.0
Tb80 Tb 0.91805 0.73173 0.48901 0.0
Tb81 Tb 0.94682 0.70032 0.49067 0.0
C82 C 0.91959 0.75914 0.50076 0.0
C83 C 0.96827 0.7683 0.49572 0.0
C84 C 0.97376 0.77999 0.51739 0.0
C85 C 1.02308 0.78788 0.5144 0.0
C86 C 0.06793 0.78413 0.4898 0.0
C87 C 0.06161 0.77254 0.46784 0.0
C88 C 1.01231 0.7647 0.47077 0.0
C89 C 0.91401 0.7222 0.42556 0.0
C90 C 0.07 0.71552 0.48726 0.0
C91 C 0.94943 0.67245 0.48191 0.0
C92 C 0.91641 0.66139 0.49877 0.0
C93 C 0.92882 0.64607 0.49062 0.0
C94 C 0.90546 0.63496 0.51045 0.0
C95 C 0.86944 0.63904 0.53884 0.0
C96 C 0.85461 0.6546 0.54581 0.0
C97 C 0.87795 0.66569 0.52591 0.0
C98 C 0.94949 0.70952 0.55443 0.0
C99 C 0.79411 0.71683 0.49107 0.0
O100 O 0.93445 0.74754 0.52444 0.0
O101 O 0.89347 0.75529 0.47253 0.0
O102 O 0.95552 0.71684 0.44975 0.0
O103 O 0.87489 0.73353 0.43632 0.0
O104 O 1.02653 0.72796 0.49301 0.0
O105 O 1.04707 0.70295 0.48138 0.0
O106 O 0.91485 0.68382 0.46204 0.0
O107 O 0.98927 0.67716 0.50265 0.0
O108 O 0.90832 0.71494 0.53006 0.0
O109 O 0.98937 0.69855 0.54326 0.0
O110 O 0.83803 0.70412 0.48736 0.0
O111 O 0.81642 0.72965 0.49521 0.0
H112 H 0.94059 0.78281 0.53702 0.0
H113 H 1.027 0.79665 0.53194 0.0
H114 H 0.09481 0.76951 0.44833 0.0
H115 H 1.00912 0.75568 0.45381 0.0
H116 H 0.95892 0.64256 0.46997 0.0
H117 H 0.91869 0.62305 0.50472 0.0
H118 H 0.82669 0.6581 0.56732 0.0
H119 H 0.86833 0.67751 0.53268 0.0
Tb120 Tb 0.19018 0.44978 0.49669 0.0
Tb121 Tb 0.21735 0.41823 0.49344 0.0
C122 C 0.18837 0.47528 0.52096 0.0
C123 C 0.15351 0.48407 0.54704 0.0
C124 C 0.0877 0.48713 0.54604 0.0
C125 C 0.05615 0.49614 0.57032 0.0
C126 C 0.08989 0.50214 0.59612 0.0
C127 C 0.1558 0.49828 0.59814 0.0
C128 C 0.18724 0.4894 0.57372 0.0
C129 C 0.18598 0.44307 0.43106 0.0
C130 C 0.34206 0.43311 0.49296 0.0
C131 C 0.21581 0.39133 0.47754 0.0
C132 C 0.16807 0.38179 0.4808 0.0
C133 C 0.16595 0.37016 0.45847 0.0
C134 C 0.11821 0.3617 0.46008 0.0
C135 C 0.07158 0.36483 0.48394 0.0
C136 C 0.07441 0.37641 0.50653 0.0
C137 C 0.12221 0.38479 0.50499 0.0
C138 C 0.21823 0.42635 0.55839 0.0
C139 C 0.06556 0.43476 0.49563 0.0
O140 O 0.15769 0.47377 0.49187 0.0
O141 O 0.22595 0.46249 0.53336 0.0
O142 O 0.22637 0.43626 0.45494 0.0
O143 O 0.14974 0.45445 0.4436 0.0
O144 O 0.29868 0.44583 0.49733 0.0
O145 O 0.31933 0.42038 0.4883 0.0
O146 O 0.20012 0.40355 0.45556 0.0
O147 O 0.24181 0.39439 0.50664 0.0
O148 O 0.17842 0.43204 0.53369 0.0
O149 O 0.25855 0.41536 0.54716 0.0
O150 O 0.10882 0.42231 0.48952 0.0
O151 O 0.08857 0.44725 0.50242 0.0
H152 H 0.06058 0.48291 0.52606 0.0
H153 H 1.00537 0.49902 0.56777 0.0
H154 H 0.18314 0.50251 0.61799 0.0
H155 H 0.2381 0.48692 0.57529 0.0
H156 H 0.20067 0.36777 0.43946 0.0
H157 H 0.11697 0.35297 0.4421 0.0
H158 H 1.03976 0.37897 0.5255 0.0
H159 H 0.12296 0.39372 0.52251 0.0
Tb160 Tb 0.61173 0.94714 -0.00502 0.0
Tb161 Tb 0.73474 0.95 0.98929 0.0
C162 C 0.50436 0.94455 0.01112 0.0
C163 C 0.47653 0.93082 0.00833 0.0
C164 C 0.44083 0.92606 0.0346 0.0
C165 C 0.41964 0.9122 0.03326 0.0
C166 C 0.43422 0.90288 0.0057 0.0
C167 C 0.47064 0.90763 0.97975 0.0
C168 C 0.49139 0.92144 0.98102 0.0
C169 C 0.64584 0.94498 0.93024 0.0
C170 C 0.64066 0.98303 0.99111 0.0
C171 C 0.84444 0.94549 0.97033 0.0
C172 C 0.88636 0.93045 0.96684 0.0
C173 C 0.88985 0.92407 0.9346 0.0
C174 C 0.92322 0.90906 0.93213 0.0
C175 C 0.95367 0.90013 0.96185 0.0
C176 C 0.95077 0.90661 -0.00607 0.0
C177 C 0.91772 0.92157 -0.0036 0.0
C178 C 0.70243 0.95074 0.0544 0.0
C179 C 0.7072 0.91409 -0.00594 0.0
O180 O 0.51489 0.95155 0.98174 0.0
O181 O 0.55219 0.9427 0.03388 0.0
O182 O 0.6585 0.95468 0.95061 0.0
O183 O 0.61262 0.9365 0.94607 0.0
O184 O 0.6007 0.97357 -0.0011 0.0
O185 O 0.69801 0.97597 0.98324 0.0
O186 O 0.795 0.94903 0.9485 0.0
O187 O 0.83059 0.94859 0.00185 0.0
O188 O 0.68879 0.94167 0.03276 0.0
O189 O 0.73639 0.9595 0.03976 0.0
O190 O 0.7479 0.92349 0.98883 0.0
O191 O 0.64861 0.92117 -0.0008 0.0
H192 H 0.42977 0.93299 0.05621 0.0
H193 H 0.39094 0.90893 0.05343 0.0
H194 H 0.48333 0.90065 0.95842 0.0
H195 H 0.51967 0.92464 0.96067 0.0
H196 H 0.86587 0.93058 0.91137 0.0
H197 H 0.92508 0.90442 0.90701 0.0
H198 H 0.97532 0.90022 0.01715 0.0
H199 H 0.91615 0.92607 0.02166 0.0
Tb200 Tb 0.36799 0.19745 -0.00217 0.0
Tb201 Tb 0.49145 0.20039 -0.00788 0.0
C202 C 0.25905 0.202 0.01794 0.0
C203 C 0.21609 0.21701 0.0202 0.0
C204 C 0.20833 0.22331 0.05237 0.0
C205 C 0.17374 0.23825 0.05419 0.0
C206 C 0.14609 0.2472 0.02385 0.0
C207 C 0.15346 0.24082 -0.00823 0.0
C208 C 0.18797 0.22594 0.98995 0.0
C209 C 0.39891 0.19753 0.93248 0.0
C210 C 0.39585 0.23337 -0.00722 0.0
C211 C 0.59864 0.20325 0.97631 0.0
C212 C 0.6246 0.21731 0.97804 0.0
C213 C 0.66209 0.22167 0.95225 0.0
C214 C 0.68204 0.23572 0.95268 0.0
C215 C 0.66448 0.24563 0.97886 0.0
C216 C 0.62612 0.2413 0.00425 0.0
C217 C 0.60649 0.22732 0.00386 0.0
C218 C 0.45643 0.20191 0.05662 0.0
C219 C 0.46242 0.16449 -0.00463 0.0
O220 O 0.30916 0.19928 0.03927 0.0
O221 O 0.27214 0.19815 0.98677 0.0
O222 O 0.41367 0.20618 0.95479 0.0
O223 O 0.36423 0.18879 0.94652 0.0
O224 O 0.35504 0.22399 -0.00195 0.0
O225 O 0.4544 0.22631 0.9877 0.0
O226 O 0.58788 0.19667 0.00613 0.0
O227 O 0.55166 0.2044 0.95324 0.0
O228 O 0.44522 0.19229 0.03578 0.0
O229 O 0.48824 0.21092 0.04141 0.0
O230 O 0.5024 0.17398 0.98775 0.0
O231 O 0.40501 0.17149 0.00331 0.0
H232 H 0.22995 0.21677 0.07611 0.0
H233 H 0.16874 0.24282 0.07931 0.0
H234 H 0.13134 0.2472 0.96797 0.0
H235 H 0.19308 0.22153 0.96468 0.0
H236 H 0.67565 0.21425 0.93175 0.0
H237 H 0.71225 0.23867 0.93298 0.0
H238 H 0.61119 0.24874 0.02451 0.0
H239 H 0.57663 0.22444 0.02372 0.0
Tb240 Tb 0.42022 0.22826 0.49059 0.0
Tb241 Tb 0.44945 0.19703 0.49376 0.0
C242 C 0.41929 0.25592 0.50143 0.0
C243 C 0.46731 0.26538 0.4981 0.0
C244 C 0.46873 0.27723 0.51991 0.0
C245 C 0.51696 0.28553 0.51863 0.0
C246 C 0.56477 0.28206 0.49559 0.0
C247 C 0.5626 0.27028 0.47346 0.0
C248 C 0.51438 0.26203 0.47471 0.0
C249 C 0.41435 0.21828 0.42739 0.0
C250 C 0.57202 0.21244 0.48909 0.0
C251 C 0.45872 0.16852 0.48925 0.0
C252 C 0.45136 0.15637 0.51543 0.0
C253 C 0.48462 0.14135 0.51312 0.0
C254 C 0.49067 0.13044 0.54152 0.0
C255 C 0.46353 0.13442 0.57266 0.0
C256 C 0.42686 0.14921 0.57421 0.0
C257 C 0.42124 0.16018 0.54582 0.0
C258 C 0.45153 0.20668 0.55752 0.0
C259 C 0.2967 0.21329 0.4919 0.0
O260 O 0.43233 0.24454 0.5257 0.0
O261 O 0.3971 0.25167 0.47258 0.0
O262 O 0.45646 0.21304 0.45136 0.0
O263 O 0.37568 0.22968 0.43824 0.0
O264 O 0.5285 0.22484 0.4948 0.0
O265 O 0.54905 0.19987 0.48345 0.0
O266 O 0.40858 0.17875 0.47843 0.0
O267 O 0.50581 0.17493 0.49666 0.0
O268 O 0.41103 0.21192 0.53282 0.0
O269 O 0.49067 0.19549 0.5468 0.0
O270 O 0.34078 0.20075 0.48708 0.0
O271 O 0.31896 0.22601 0.49721 0.0
H272 H 0.43316 0.27987 0.53836 0.0
H273 H 0.51763 0.29442 0.53629 0.0
H274 H 0.59816 0.26745 0.4551 0.0
H275 H 0.51433 0.25289 0.45766 0.0
H276 H 0.50881 0.13829 0.49006 0.0
H277 H 0.51846 0.11902 0.53958 0.0
H278 H 0.40564 0.15253 0.59796 0.0
H279 H 0.39634 0.17185 0.54825 0.0
Tb280 Tb 0.67307 0.95303 0.49775 0.0
Tb281 Tb 0.69416 0.9216 0.49316 0.0
C282 C 0.63781 0.97876 0.5214 0.0
C283 C 0.64966 0.98575 0.55387 0.0
C284 C 0.63762 0.979 0.58623 0.0
C285 C 0.64077 0.98675 0.61616 0.0
C286 C 0.655 1.00152 0.61427 0.0
C287 C 0.67027 1.00786 0.58215 0.0
C288 C 0.66767 1.00003 0.55229 0.0
C289 C 0.68333 0.94695 0.43186 0.0
C290 C 0.82082 0.93722 0.49689 0.0
C291 C 0.71478 0.89403 0.47859 0.0
C292 C 0.67189 0.88314 0.48025 0.0
C293 C 0.67393 0.87193 0.45641 0.0
C294 C 0.62816 0.86285 0.45558 0.0
C295 C 0.57941 0.86497 0.47841 0.0
C296 C 0.57875 0.87594 0.50283 0.0
C297 C 0.62432 0.88493 0.50367 0.0
C298 C 0.68127 0.92945 0.55806 0.0
C299 C 0.54592 0.93694 0.49361 0.0
O300 O 0.60764 0.96749 0.52415 0.0
O301 O 0.68359 0.97604 0.50075 0.0
O302 O 0.6556 0.94003 0.4542 0.0
O303 O 0.69996 0.95844 0.44565 0.0
O304 O 0.77972 0.94926 0.50666 0.0
O305 O 0.79545 0.92535 0.48739 0.0
O306 O 0.69768 0.90572 0.45528 0.0
O307 O 0.7328 0.89834 0.50835 0.0
O308 O 0.71295 0.93492 0.53571 0.0
O309 O 0.65583 0.91917 0.54428 0.0
O310 O 0.58788 0.92408 0.48966 0.0
O311 O 0.57015 0.94959 0.49752 0.0
H312 H 0.62304 0.96804 0.58828 0.0
H313 H 0.62936 0.98147 0.64048 0.0
H314 H 0.68033 1.01933 0.57949 0.0
H315 H 0.67677 1.0055 0.52765 0.0
H316 H 0.7098 0.8705 0.43785 0.0
H317 H 0.62966 0.85456 0.43632 0.0
H318 H 0.54252 0.87769 0.52114 0.0
H319 H 0.62138 0.89356 0.52218 0.0
C320 C 0.50611 0.37304 0.99017 0.0
C321 C 0.50444 0.38462 0.96312 0.0
C322 C 0.55813 0.36089 -0.00394 0.0
C323 C 0.72064 0.34752 0.96708 0.0
H324 H 0.76399 0.3621 0.05507 0.0
C325 C 0.89479 0.38407 0.9778 0.0
C326 C 0.91778 0.38784 0.00987 0.0
C327 C 0.86151 0.37225 0.97621 0.0
C328 C 0.75402 0.35731 0.031 0.0
H329 H 0.5506 0.39112 0.91768 0.0
H330 H 0.64068 0.37022 0.92788 0.0
H331 H 0.6577 0.36009 0.04119 0.0
H332 H 0.93009 0.38106 0.06507 0.0
H333 H 0.87206 0.36022 0.06239 0.0
H334 H 0.81684 0.34594 0.95602 0.0
C335 C 0.60247 0.37036 0.94478 0.0
C336 C 0.69221 0.35613 0.02294 0.0
C337 C 0.55066 0.3825 0.93896 0.0
C338 C 0.91148 0.37864 0.04007 0.0
C339 C 0.87856 0.36666 0.03846 0.0
C340 C 0.78288 0.34851 0.97535 0.0
C341 C 0.60924 0.3602 0.97505 0.0
C342 C 0.67372 0.35294 0.98938 0.0
C343 C 0.85032 0.36383 0.0067 0.0
C344 C 0.79839 0.35514 0.00572 0.0
H345 H 0.46988 0.37409 0.00853 0.0
H346 H 0.5613 0.35303 0.01914 0.0
H347 H 0.70814 0.34444 0.94149 0.0
H348 H 0.89857 0.39096 0.95403 0.0
H349 H 0.84001 0.37072 0.95125 0.0
C350 C 0.22496 0.76229 0.02668 0.0
C351 C 0.20518 0.75114 0.04868 0.0
C352 C 0.25861 0.77259 0.04025 0.0
C353 C 0.36919 0.77026 0.11497 0.0
H354 H 0.418 0.80199 0.05479 0.0
C355 C 0.61337 0.75905 0.09021 0.0
C356 C 0.61359 0.75695 0.05458 0.0
C357 C 0.56508 0.76965 0.10276 0.0
C358 C 0.40485 0.79333 0.07248 0.0
H359 H 0.19882 0.74358 0.10295 0.0
H360 H 0.25297 0.76215 0.12633 0.0
H361 H 0.30893 0.79917 0.05255 0.0
H362 H 0.57156 0.76635 0.00372 0.0
H363 H 0.48599 0.78401 0.02528 0.0
H364 H 0.46478 0.76349 0.13293 0.0
C365 C 0.24532 0.76245 0.09841 0.0
C366 C 0.34229 0.79164 0.07105 0.0
C367 C 0.21337 0.75183 0.08483 0.0
C368 C 0.57086 0.76727 0.03145 0.0
C369 C 0.52224 0.77768 0.04398 0.0
C370 C 0.43133 0.77199 0.11647 0.0
C371 C 0.27229 0.77223 0.0763 0.0
C372 C 0.32553 0.77897 0.08948 0.0
C373 C 0.51548 0.77793 0.07995 0.0
C374 C 0.45112 0.78231 0.09223 0.0
H375 H 0.21721 0.76264 -0.00124 0.0
H376 H 0.27809 0.77992 0.02209 0.0
H377 H 0.35851 0.76059 0.13047 0.0
H378 H 0.64659 0.75151 0.10872 0.0
H379 H 0.56276 0.77 0.13057 0.0
C380 C 0.69347 0.70325 0.48679 0.0
C381 C 0.71963 0.71666 0.49084 0.0
C382 C 0.6264 0.70316 0.48636 0.0
C383 C 0.45464 0.72965 0.4935 0.0
H384 H 0.39556 0.69212 0.48071 0.0
C385 C 0.17056 0.72907 0.49278 0.0
C386 C 0.14437 0.71577 0.48726 0.0
C387 C 0.23754 0.72923 0.49309 0.0
C388 C 0.40915 0.70298 0.48437 0.0
H389 H 0.68595 0.7408 0.49764 0.0
H390 H 0.57342 0.74072 0.49696 0.0
H391 H 0.50736 0.69227 0.48143 0.0
H392 H 0.17789 0.69194 0.47767 0.0
H393 H 0.2903 0.69213 0.47818 0.0
H394 H 0.35636 0.74036 0.4964 0.0
C395 C 0.60464 0.72988 0.49402 0.0
C396 C 0.4762 0.70306 0.48483 0.0
C397 C 0.67169 0.72996 0.49444 0.0
C398 C 0.1922 0.70267 0.48207 0.0
C399 C 0.25916 0.70282 0.48243 0.0
C400 C 0.38757 0.72956 0.49306 0.0
C401 C 0.57805 0.71648 0.48993 0.0
C402 C 0.5029 0.7164 0.48942 0.0
C403 C 0.28578 0.7161 0.48799 0.0
C404 C 0.36089 0.71622 0.48847 0.0
H405 H 0.72536 0.69248 0.48385 0.0
H406 H 0.61285 0.69226 0.48313 0.0
H407 H 0.46826 0.7405 0.49719 0.0
H408 H 0.13876 0.73968 0.49706 0.0
H409 H 0.25114 0.74002 0.49757 0.0
C410 C 0.965 0.42131 0.48915 0.0
C411 C 0.9912 0.43452 0.49546 0.0
C412 C 0.89807 0.42111 0.4889 0.0
C413 C 0.72671 0.44705 0.49962 0.0
H414 H 0.66761 0.40974 0.48436 0.0
C415 C 0.44282 0.44657 0.49795 0.0
C416 C 0.41652 0.43326 0.49294 0.0
C417 C 0.50981 0.4467 0.49821 0.0
C418 C 0.68124 0.42052 0.48876 0.0
H419 H 0.95784 0.45816 0.50658 0.0
H420 H 0.84547 0.45791 0.50615 0.0
H421 H 0.77941 0.40997 0.48491 0.0
H422 H 0.44992 0.40931 0.48425 0.0
H423 H 0.56244 0.40944 0.48463 0.0
H424 H 0.62861 0.4576 0.50349 0.0
C425 C 0.87655 0.44732 0.5012 0.0
C426 C 0.74825 0.42066 0.48907 0.0
C427 C 0.94348 0.44751 0.5015 0.0
C428 C 0.4643 0.42007 0.48822 0.0
C429 C 0.53131 0.42018 0.48847 0.0
C430 C 0.65973 0.44691 0.49929 0.0
C431 C 0.84992 0.43411 0.49487 0.0
C432 C 0.7749 0.43393 0.49452 0.0
C433 C 0.55799 0.4335 0.4935 0.0
C434 C 0.63305 0.43364 0.49385 0.0
H435 H 0.99674 0.41078 0.48424 0.0
H436 H 0.88446 0.41039 0.48379 0.0
H437 H 0.7403 0.45784 0.50399 0.0
H438 H 0.41107 0.45725 0.50184 0.0
H439 H 0.52343 0.45752 0.50226 0.0
C440 C 1.03845 0.88304 0.93392 0.0
C441 C 0.9946 0.88484 0.95939 0.0
C442 C 0.09055 0.87093 0.93811 0.0
C443 C 0.18544 0.85586 0.01463 0.0
H444 H 0.30599 0.84809 0.94467 0.0
C445 C 0.40451 0.87868 0.03162 0.0
C446 C 0.40786 0.88883 0.0025 0.0
C447 C 0.37179 0.86671 0.02893 0.0
C448 C 0.27324 0.84994 0.96483 0.0
H449 H 0.9639 0.87382 0.00538 0.0
H450 H 0.05541 0.8527 0.0129 0.0
H451 H 0.19748 0.84609 0.93146 0.0
H452 H 0.38335 0.89372 0.94727 0.0
H453 H 0.32546 0.87342 0.94269 0.0
H454 H 0.25831 0.8615 0.04659 0.0
C455 C 1.05049 0.86081 0.99016 0.0
C456 C 0.21109 0.8487 0.95729 0.0
C457 C 0.99834 0.87297 0.986 0.0
C458 C 0.38199 0.88607 0.97021 0.0
C459 C 0.3491 0.87423 0.96755 0.0
C460 C 0.24724 0.85722 0.02204 0.0
C461 C 0.09985 0.86048 0.968 0.0
C462 C 0.16533 0.85331 0.98084 0.0
C463 C 0.34107 0.86481 -0.00285 0.0
C464 C 0.28995 0.85591 -0.00414 0.0
H465 H 1.0366 0.89189 0.91291 0.0
H466 H 0.12717 0.87107 0.92026 0.0
H467 H 0.15201 0.85918 0.03385 0.0
H468 H 0.42534 0.88032 0.05671 0.0
H469 H 0.36751 0.85952 0.05214 0.0
C470 C 0.10123 0.2743 -0.00103 0.0
C471 C 0.10382 0.26242 0.02545 0.0
C472 C 1.04919 0.28648 -0.00581 0.0
C473 C 0.88824 0.2995 0.02563 0.0
H474 H 0.84097 0.28648 0.93661 0.0
C475 C 0.71406 0.26313 0.01368 0.0
C476 C 0.69001 0.25983 0.98142 0.0
C477 C 0.74704 0.27498 0.01588 0.0
C478 C 0.85203 0.29084 0.96105 0.0
H479 H 0.05919 0.25535 0.07099 0.0
H480 H 0.96909 0.2763 0.06269 0.0
H481 H 0.94782 0.28818 0.94979 0.0
H482 H 0.6753 0.26748 0.92667 0.0
H483 H 0.73279 0.28838 0.93044 0.0
H484 H 0.7926 0.30093 0.03768 0.0
C485 C 1.00663 0.27638 0.04542 0.0
C486 C 0.91419 0.29184 0.9687 0.0
C487 C 0.05846 0.26421 0.05013 0.0
C488 C 0.69478 0.26953 0.95177 0.0
C489 C 0.72739 0.28155 0.95401 0.0
C490 C 0.82567 0.29869 0.01779 0.0
C491 C 0.99893 0.28691 0.01575 0.0
C492 C 0.93411 0.29444 0.00246 0.0
C493 C 0.75686 0.2839 0.98583 0.0
C494 C 0.80879 0.29258 0.98696 0.0
H495 H 0.1368 0.2735 0.98023 0.0
H496 H 1.04533 0.29463 0.97156 0.0
H497 H 0.90185 0.30215 0.05144 0.0
H498 H 0.71141 0.25584 0.03702 0.0
H499 H 0.76947 0.27614 0.04085 0.0
C500 C 0.17452 0.22629 0.49651 0.0
C501 C 0.22217 0.21312 0.4915 0.0
C502 C 0.10746 0.22625 0.49619 0.0
C503 C 0.97822 0.19975 0.48517 0.0
H504 H 0.85927 0.23688 0.49911 0.0
C505 C 0.69406 0.19953 0.48367 0.0
C506 C 0.64643 0.21266 0.48894 0.0
C507 C 0.76108 0.19961 0.48391 0.0
C508 C 0.89021 0.22613 0.49507 0.0
H509 H 0.22726 0.1892 0.48207 0.0
H510 H 0.11467 0.18904 0.48148 0.0
H511 H 0.97121 0.23693 0.49965 0.0
H512 H 0.64126 0.23654 0.49878 0.0
H513 H 0.75372 0.23678 0.49911 0.0
H514 H 0.89724 0.18895 0.4806 0.0
C515 C 0.12852 0.19981 0.48581 0.0
C516 C 0.95732 0.22616 0.49539 0.0
C517 C 0.19564 0.19987 0.48614 0.0
C518 C 0.67288 0.22591 0.49445 0.0
C519 C 0.73993 0.22601 0.49466 0.0
C520 C 0.91112 0.19972 0.48485 0.0
C521 C 0.08049 0.213 0.49082 0.0
C522 C 1.00529 0.21297 0.49046 0.0
C523 C 0.78797 0.21285 0.48945 0.0
C524 C 0.86315 0.21291 0.48979 0.0
H525 H 0.18906 0.237 0.50083 0.0
H526 H 0.07652 0.23698 0.50031 0.0
H527 H 1.00913 0.189 0.48112 0.0
H528 H 0.67956 0.18882 0.47929 0.0
H529 H 0.79203 0.18891 0.47963 0.0
C530 C 0.92365 0.94964 0.50591 0.0
C531 C 0.89557 0.93707 0.49666 0.0
C532 C 0.99071 0.94963 0.50555 0.0
C533 C 0.15966 0.92404 0.48844 0.0
H534 H 0.2217 0.96058 0.50749 0.0
C535 C 0.44436 0.92377 0.4895 0.0
C536 C 0.47122 0.93706 0.49375 0.0
C537 C 0.37731 0.92376 0.48979 0.0
C538 C 0.20722 0.95002 0.50192 0.0
H539 H 0.92596 0.91429 0.47947 0.0
H540 H 1.03867 0.91418 0.47888 0.0
H541 H 0.10981 0.96058 0.50798 0.0
H542 H 0.43875 0.9611 0.50195 0.0
H543 H 0.32608 0.96117 0.50246 0.0
H544 H 0.2571 0.91348 0.48234 0.0
C545 C 1.00887 0.92442 0.48674 0.0
C546 C 0.14017 0.95 0.5023 0.0
C547 C 0.94173 0.92446 0.48704 0.0
C548 C 0.42393 0.95036 0.49841 0.0
C549 C 0.35684 0.95035 0.49877 0.0
C550 C 0.22675 0.92404 0.48814 0.0
C551 C 1.03727 0.93701 0.49595 0.0
C552 C 0.11243 0.93701 0.49556 0.0
C553 C 0.32961 0.93705 0.49446 0.0
C554 C 0.25447 0.93704 0.49484 0.0
H555 H 0.89325 0.95984 0.51365 0.0
H556 H 1.00574 0.95985 0.51317 0.0
H557 H 0.14519 0.91346 0.48298 0.0
H558 H 0.47572 0.913 0.48588 0.0
H559 H 0.36328 0.91293 0.48637 0.0
C560 C 1.04339 0.63747 0.98604 0.0
C561 C 0.98176 0.64583 -0.00831 0.0
C562 C 0.06038 0.62068 0.98567 0.0
C563 C 0.99435 0.58122 -0.00275 0.0
H564 H 0.16176 0.56141 0.97779 0.0
C565 C 0.06632 0.50995 -0.00254 0.0
C566 C 0.12649 0.50164 0.98913 0.0
C567 C 1.0494 0.52674 -0.00228 0.0
C568 C 0.11416 0.56627 0.98339 0.0
H569 H 0.89098 0.64059 0.00148 0.0
H570 H 0.91916 0.6125 0.00091 0.0
H571 H 0.13382 0.5894 0.97823 0.0
H572 H 0.21481 0.50701 0.97442 0.0
H573 H 0.18675 0.53512 0.97482 0.0
H574 H 0.97467 0.5581 0.00241 0.0
C575 C 0.95601 0.61883 -0.00338 0.0
C576 C 0.09743 0.58305 0.9837 0.0
C577 C 0.93907 0.6356 -0.00306 0.0
C578 C 0.16786 0.51195 0.98112 0.0
C579 C 0.15104 0.52872 0.98141 0.0
C580 C 1.0111 0.56444 -0.003 0.0
C581 C 1.01767 0.61036 0.99097 0.0
C582 C 1.03652 0.59154 0.99063 0.0
C583 C 0.09079 0.53713 0.98972 0.0
C584 C 0.072 0.55595 0.99004 0.0
H585 H 0.07978 0.64398 0.98177 0.0
H586 H 0.10853 0.61582 0.98115 0.0
H587 H 0.94678 0.58607 0.00292 0.0
H588 H 1.03103 0.50338 0.00401 0.0
H589 H 1.00244 0.53153 0.0045 0.0
C590 C 0.99774 0.51315 0.62972 0.0
C591 C 0.05674 0.51401 0.61747 0.0
C592 C 0.96103 0.52593 0.64297 0.0
C593 C 0.87829 0.5576 0.6303 0.0
H594 H 0.95203 0.59145 0.65789 0.0
C595 C 0.83746 0.61369 0.5502 0.0
C596 C 0.85404 0.62679 0.56305 0.0
C597 C 0.83802 0.60058 0.57239 0.0
C598 C 0.92922 0.58222 0.65101 0.0
H599 H 0.12553 0.52853 0.61231 0.0
H600 H 0.06227 0.55058 0.63458 0.0
H601 H 1.00587 0.56523 0.6749 0.0
H602 H 0.87706 0.63706 0.60993 0.0
H603 H 0.87609 0.61431 0.64888 0.0
H604 H 0.8022 0.57459 0.60584 0.0
C605 C 1.04402 0.5401 0.63479 0.0
C606 C 0.96076 0.5671 0.66044 0.0
C607 C 0.08058 0.52737 0.62174 0.0
C608 C 0.86433 0.62711 0.59913 0.0
C609 C 0.86438 0.614 0.62147 0.0
C610 C 0.84603 0.57272 0.62153 0.0
C611 C 0.98252 0.53983 0.64397 0.0
C612 C 0.93848 0.55468 0.64741 0.0
C613 C 0.85473 0.60029 0.60811 0.0
C614 C 0.87395 0.58518 0.62905 0.0
H615 H 0.97868 0.50287 0.62746 0.0
H616 H 0.91441 0.52521 0.65048 0.0
H617 H 0.85884 0.54837 0.62022 0.0
H618 H 0.82796 0.61322 0.5226 0.0
H619 H 0.83057 0.5903 0.56085 0.0
C620 C 0.66341 1.01192 0.98361 0.0
C621 C 0.62166 1.0017 -0.00847 0.0
C622 C 0.64706 1.02869 0.984 0.0
C623 C 0.50878 1.0645 0.00108 0.0
H624 H 0.63047 0.08933 0.97885 0.0
C625 C 0.43971 0.1356 0.00273 0.0
C626 C 0.48148 0.14582 -0.00512 0.0
C627 C 0.45609 0.11883 0.00233 0.0
C628 C 0.59441 0.08302 0.9853 0.0
H629 H 0.52614 1.00357 0.00638 0.0
H630 H 0.49834 1.03173 0.00706 0.0
H631 H 0.65752 1.06136 0.97822 0.0
H632 H 0.57707 0.14396 0.98015 0.0
H633 H 0.6049 0.11581 0.97944 0.0
H634 H 0.44567 0.08617 0.00816 0.0
C635 C 0.54523 1.02686 0.00029 0.0
C636 C 0.61061 1.06624 0.98492 0.0
C637 C 0.56166 1.01008 -0.0001 0.0
C638 C 0.54153 0.13745 0.98656 0.0
C639 C 0.55797 0.12067 0.98616 0.0
C640 C 0.49258 0.08128 0.00146 0.0
C641 C 0.58699 1.03716 -0.00764 0.0
C642 C 0.56877 1.05598 -0.00721 0.0
C643 C 0.51619 0.11036 -0.00598 0.0
C644 C 0.53442 0.09155 -0.00641 0.0
H645 H 0.71027 1.00691 0.9769 0.0
H646 H 0.68304 1.03501 0.9775 0.0
H647 H 0.47272 1.0582 0.00753 0.0
H648 H 0.39282 0.1406 0.0094 0.0
H649 H 0.42009 0.11251 0.00877 0.0
C650 C 0.42935 0.11941 0.62316 0.0
C651 C 0.4775 0.12336 0.60381 0.0
C652 C 0.44304 0.1073 0.64942 0.0
C653 C 0.57648 0.0785 0.69615 0.0
H654 H 0.47845 1.04943 0.66598 0.0
C655 C 0.68155 1.0223 0.64926 0.0
C656 C 0.64448 1.01134 0.64376 0.0
C657 C 0.66013 1.03471 0.6686 0.0
C658 C 0.50572 1.05728 0.67601 0.0
H659 H 0.57791 0.11908 0.59899 0.0
H660 H 0.6018 0.09793 0.64392 0.0
H661 H 0.43686 0.07661 0.65458 0.0
H662 H 0.56089 1.00342 0.65912 0.0
H663 H 0.52474 1.02477 0.69367 0.0
H664 H 0.64783 1.05896 0.71479 0.0
C665 C 0.55355 0.10405 0.63934 0.0
C666 C 0.48156 1.07303 0.66937 0.0
C667 C 0.53983 0.116 0.61309 0.0
C668 C 0.59043 1.01175 0.6624 0.0
C669 C 0.56933 1.02408 0.68208 0.0
C670 C 0.60074 1.0627 0.70282 0.0
C671 C 0.50513 0.09909 0.65684 0.0
C672 C 0.51886 0.08374 0.67675 0.0
C673 C 0.60135 1.03633 0.68303 0.0
C674 C 0.56768 1.05195 0.69017 0.0
H675 H 0.38093 0.12505 0.61665 0.0
H676 H 0.40478 0.10382 0.66261 0.0
H677 H 0.60552 0.08653 0.70313 0.0
H678 H 0.72446 1.02203 0.63613 0.0
H679 H 0.68659 1.04381 0.66887 0.0
C680 C 0.29446 0.38709 0.9877 0.0
C681 C 0.23276 0.39543 -0.00699 0.0
C682 C 0.31136 0.37034 0.98768 0.0
C683 C 0.24355 0.33126 -0.00255 0.0
H684 H 0.41384 0.31116 0.98454 0.0
C685 C 0.31449 0.26028 -0.00222 0.0
C686 C 0.37629 0.25194 -0.00731 0.0
C687 C 0.29756 0.27702 -0.00219 0.0
C688 C 0.36543 0.31611 0.98825 0.0
H689 H 0.14153 0.39039 0.0024 0.0
H690 H 0.16957 0.36231 0.00242 0.0
H691 H 0.38611 0.33911 0.98459 0.0
H692 H 0.46767 0.25697 0.9837 0.0
H693 H 0.43959 0.28505 0.98369 0.0
H694 H 0.22287 0.30826 0.00111 0.0
C695 C 0.20651 0.36859 -0.00183 0.0
C696 C 0.34883 0.33286 0.98828 0.0
C697 C 0.18969 0.38532 -0.00178 0.0
C698 C 0.41943 0.26204 0.98771 0.0
C699 C 0.40258 0.27877 0.98775 0.0
C700 C 0.26015 0.31451 -0.00258 0.0
C701 C 0.26831 0.36014 -0.00709 0.0
C702 C 0.28693 0.3414 -0.00712 0.0
C703 C 0.34069 0.28723 -0.00721 0.0
C704 C 0.32205 0.30597 -0.00718 0.0
H705 H 0.3309 0.39359 0.9834 0.0
H706 H 0.35962 0.36544 0.98335 0.0
H707 H 0.19514 0.3362 0.00115 0.0
H708 H 0.27798 0.25377 0.0019 0.0
H709 H 0.24922 0.28193 0.00195 0.0
C710 C 0.78897 0.88729 0.98854 0.0
C711 C 0.72707 0.89551 -0.0061 0.0
C712 C 0.80641 0.87055 0.98824 0.0
C713 C 0.74026 0.83118 -0.00251 0.0
H714 H 0.91071 0.8115 0.98373 0.0
C715 C 0.81326 0.76023 -0.00406 0.0
C716 C 0.87539 0.75199 0.99116 0.0
C717 C 0.79586 0.77697 -0.00369 0.0
C718 C 0.86229 0.81632 0.9877 0.0
H719 H 0.63611 0.89024 0.00304 0.0
H720 H 0.66505 0.86216 0.00262 0.0
H721 H 0.88203 0.83942 0.98425 0.0
H722 H 0.96678 0.75722 0.98316 0.0
H723 H 0.93789 0.78529 0.98366 0.0
H724 H 0.72053 0.80808 0.00097 0.0
C725 C 0.70178 0.86855 -0.00146 0.0
C726 C 0.8451 0.83306 0.98799 0.0
C727 C 0.68441 0.88528 -0.00116 0.0
C728 C 0.91829 0.7622 0.98687 0.0
C729 C 0.90095 0.77892 0.98721 0.0
C730 C 0.75744 0.81444 -0.0028 0.0
C731 C 0.76377 0.86021 -0.00677 0.0
C732 C 0.78308 0.84147 -0.0071 0.0
C733 C 0.83873 0.78729 -0.00807 0.0
C734 C 0.81946 0.80603 -0.00772 0.0
H735 H 0.82516 0.89387 0.98443 0.0
H736 H 0.85471 0.86576 0.98389 0.0
H737 H 0.69183 0.83601 0.00145 0.0
H738 H 0.77684 0.75367 -0.00049 0.0
H739 H 0.74735 0.78177 0.00016 0.0
C740 C 0.11273 0.80811 0.48936 0.0
C741 C 0.12159 0.79211 0.48727 0.0
C742 C 0.16316 0.81561 0.48665 0.0
C743 C 0.33625 0.80873 0.49578 0.0
H744 H 0.31175 0.84847 0.44283 0.0
C745 C 0.54072 0.84035 0.47213 0.0
C746 C 0.52803 0.85623 0.47631 0.0
C747 C 0.49208 0.83216 0.47148 0.0
C748 C 0.31925 0.83743 0.45794 0.0
H749 H 0.19073 0.77139 0.48133 0.0
H750 H 0.2785 0.78451 0.47606 0.0
H751 H 0.22506 0.83491 0.44606 0.0
H752 H 0.45404 0.87604 0.48185 0.0
H753 H 0.36972 0.86175 0.48135 0.0
H754 H 0.43035 0.81133 0.5079 0.0
C755 C 0.23261 0.79126 0.47998 0.0
C756 C 0.26953 0.82967 0.45983 0.0
C757 C 0.18215 0.78376 0.48262 0.0
C758 C 0.46556 0.86377 0.47911 0.0
C759 C 0.41707 0.85561 0.47839 0.0
C760 C 0.38602 0.81651 0.49391 0.0
C761 C 0.22368 0.80728 0.48187 0.0
C762 C 0.27724 0.81529 0.47901 0.0
C763 C 0.42971 0.83969 0.47478 0.0
C764 C 0.37794 0.83102 0.47522 0.0
H765 H 0.06661 0.81489 0.49267 0.0
H766 H 0.15481 0.82793 0.48866 0.0
H767 H 0.34357 0.79776 0.51112 0.0
H768 H 0.58838 0.83421 0.47005 0.0
H769 H 0.50328 0.81993 0.46832 0.0
C770 C 1.03146 0.34022 0.48247 0.0
C771 C 1.01967 0.35622 0.48506 0.0
C772 C 0.98259 0.33214 0.4838 0.0
C773 C 0.82155 0.33485 0.51253 0.0
H774 H 0.81512 0.30262 0.45091 0.0
C775 C 0.60582 0.30654 0.49718 0.0
C776 C 0.61718 0.29052 0.49488 0.0
C777 C 0.65513 0.31449 0.49628 0.0
C778 C 0.81661 0.31147 0.46857 0.0
H779 H 0.94696 0.37633 0.49031 0.0
H780 H 0.86176 0.36225 0.49252 0.0
H781 H 0.90067 0.3166 0.44861 0.0
H782 H 0.68964 0.27024 0.49062 0.0
H783 H 0.77557 0.28411 0.48899 0.0
H784 H 0.73737 0.32974 0.5324 0.0
C785 C 0.90897 0.35589 0.49012 0.0
C786 C 0.86567 0.31948 0.46725 0.0
C787 C 0.95782 0.36396 0.48883 0.0
C788 C 0.67908 0.28263 0.49183 0.0
C789 C 0.72837 0.29057 0.49091 0.0
C790 C 0.77246 0.32684 0.51381 0.0
C791 C 0.92075 0.33987 0.48769 0.0
C792 C 0.86872 0.33128 0.48919 0.0
C793 C 0.71698 0.3066 0.49307 0.0
C794 C 0.76937 0.31507 0.49183 0.0
H795 H 0.07869 0.33389 0.48 0.0
H796 H 0.99346 0.31977 0.48235 0.0
H797 H 0.823 0.34369 0.53019 0.0
H798 H 0.5586 0.313 0.49908 0.0
H799 H 0.64462 0.32687 0.49751 0.0
C800 C 0.18431 0.4364 0.10822 0.0
C801 C 0.20675 0.44863 0.09129 0.0
C802 C 0.18291 0.43488 0.14483 0.0
C803 C 0.18508 0.45775 0.22273 0.0
H804 H 0.22616 0.41796 0.27585 0.0
C805 C 0.14494 0.45205 0.36962 0.0
C806 C 0.18967 0.44201 0.39252 0.0
C807 C 0.14766 0.45202 0.33345 0.0
C808 C 0.2149 0.4292 0.26153 0.0
H809 H 0.24506 0.46883 0.1001 0.0
H810 H 0.24254 0.46626 0.16301 0.0
H811 H 0.22886 0.41952 0.2124 0.0
H812 H 0.27189 0.42366 0.39457 0.0
H813 H 0.27682 0.42354 0.33108 0.0
H814 H 0.17164 0.4675 0.27146 0.0
C815 C 0.22547 0.45784 0.14835 0.0
C816 C 0.21575 0.43009 0.22492 0.0
C817 C 0.22724 0.45928 0.11202 0.0
C818 C 0.23671 0.4316 0.37787 0.0
C819 C 0.2393 0.43151 0.34136 0.0
C820 C 0.18377 0.45686 0.25912 0.0
C821 C 0.20328 0.44563 0.16559 0.0
C822 C 0.20105 0.44441 0.20481 0.0
C823 C 0.19518 0.4419 0.31847 0.0
C824 C 0.1985 0.44259 0.27932 0.0
H825 H 0.16819 0.42795 0.09322 0.0
H826 H 0.16495 0.42539 0.15681 0.0
H827 H 0.17273 0.46902 0.20858 0.0
H828 H 0.10752 0.46014 0.37967 0.0
H829 H 0.11188 0.45997 0.31716 0.0
C830 C 0.9111 0.71818 0.10694 0.0
C831 C 0.9281 0.70385 0.09323 0.0
C832 C 0.90711 0.71923 0.14274 0.0
C833 C 0.91208 0.69575 0.22929 0.0
H834 H 0.94639 0.73329 0.26398 0.0
C835 C 0.95365 0.70535 0.37775 0.0
C836 C 0.91748 0.71902 0.38818 0.0
C837 C 0.95507 0.70256 0.34232 0.0
C838 C 0.9365 0.72274 0.25478 0.0
H839 H 0.95368 0.67927 0.10656 0.0
H840 H 0.94958 0.681 0.16938 0.0
H841 H 0.94849 0.73011 0.20232 0.0
H842 H 0.8547 0.74045 0.36928 0.0
H843 H 0.85903 0.73586 0.30794 0.0
H844 H 0.90295 0.68829 0.28271 0.0
C845 C 0.93721 0.69154 0.15247 0.0
C846 C 0.93698 0.72092 0.21906 0.0
C847 C 0.9396 0.69048 0.11629 0.0
C848 C 0.88321 0.72981 0.3623 0.0
C849 C 0.88577 0.7272 0.32703 0.0
C850 C 0.91294 0.69747 0.26526 0.0
C851 C 0.92213 0.706 0.1665 0.0
C852 C 0.92367 0.70751 0.20535 0.0
C853 C 0.92156 0.71353 0.31643 0.0
C854 C 0.92429 0.71109 0.27845 0.0
H855 H 0.90161 0.7287 0.08981 0.0
H856 H 0.8928 0.73058 0.15164 0.0
H857 H 0.90101 0.68529 0.22034 0.0
H858 H 0.98035 0.69676 0.39699 0.0
H859 H 0.98331 0.69194 0.3351 0.0
C860 C 0.89055 0.68946 0.86832 0.0
C861 C 0.91676 0.69845 0.89121 0.0
C862 C 0.89279 0.69204 0.8322 0.0
C863 C 0.97688 0.70996 0.76364 0.0
H864 H 0.8349 0.70549 0.70356 0.0
C865 C 0.99497 0.7044 0.61584 0.0
C866 C 0.94352 0.71102 0.59245 0.0
C867 C 0.99031 0.70441 0.65184 0.0
C868 C 0.87482 0.70695 0.71983 0.0
H869 H 0.96683 0.71712 0.89366 0.0
H870 H 0.97111 0.72162 0.83061 0.0
H871 H 0.82978 0.70254 0.7665 0.0
H872 H 0.84658 0.72308 0.58898 0.0
H873 H 0.83809 0.72312 0.65215 0.0
H874 H 1.02188 0.71439 0.71699 0.0
C875 C 0.94883 0.7125 0.84062 0.0
C876 C 0.87222 0.70506 0.75613 0.0
C877 C 0.94628 0.70996 0.87687 0.0
C878 C 0.88721 0.71793 0.6062 0.0
C879 C 0.8823 0.71782 0.64247 0.0
C880 C 0.97962 0.71176 0.72736 0.0
C881 C 0.92161 0.70366 0.81761 0.0
C882 C 0.92344 0.70637 0.77871 0.0
C883 C 0.9338 0.71097 0.66592 0.0
C884 C 0.9289 0.71013 0.70477 0.0
H885 H 0.86765 0.68045 0.87832 0.0
H886 H 0.87233 0.68476 0.81568 0.0
H887 H 1.0175 0.711 0.77986 0.0
H888 H 1.03909 0.69894 0.60627 0.0
H889 H 1.03083 0.69883 0.66868 0.0
C890 C 0.2557 0.42054 0.62166 0.0
C891 C 0.21344 0.42954 0.59591 0.0
C892 C 0.25115 0.42306 0.65701 0.0
C893 C 0.18037 0.45159 0.71879 0.0
H894 H 0.21549 0.41556 0.78486 0.0
C895 C 0.18709 0.45531 0.8711 0.0
C896 C 0.16153 0.44429 0.89054 0.0
C897 C 0.19496 0.45426 0.83515 0.0
C898 C 0.20512 0.42582 0.76696 0.0
H899 H 0.13388 0.44865 0.58757 0.0
H900 H 0.12561 0.45305 0.64922 0.0
H901 H 0.22392 0.4125 0.72334 0.0
H902 H 0.12466 0.42349 0.88689 0.0
H903 H 0.13805 0.42168 0.82539 0.0
H904 H 0.16045 0.46485 0.7628 0.0
C905 C 0.16265 0.44399 0.64212 0.0
C906 C 0.21074 0.42406 0.73135 0.0
C907 C 0.16707 0.4414 0.60663 0.0
C908 C 0.14461 0.43221 0.87304 0.0
C909 C 0.15276 0.4311 0.8375 0.0
C910 C 0.17506 0.45336 0.75461 0.0
C911 C 0.20423 0.43473 0.66808 0.0
C912 C 0.19831 0.43688 0.70644 0.0
C913 C 0.17815 0.44205 0.81772 0.0
C914 C 0.18681 0.44048 0.77938 0.0
H915 H 0.29239 0.4114 0.61453 0.0
H916 H 0.28504 0.41584 0.67571 0.0
H917 H 0.17089 0.46181 0.70079 0.0
H918 H 0.2007 0.46478 0.88358 0.0
H919 H 0.21507 0.4629 0.82113 0.0
C920 C 0.66653 0.93805 0.10905 0.0
C921 C 0.69464 0.94944 0.0928 0.0
C922 C 0.66107 0.937 0.14538 0.0
C923 C 0.6666 0.96015 0.22295 0.0
H924 H 0.69051 0.92075 0.27714 0.0
C925 C 0.65287 0.93499 0.37679 0.0
C926 C 0.68105 0.94578 0.39327 0.0
C927 C 0.65109 0.93465 0.3402 0.0
C928 C 0.68294 0.93188 0.26245 0.0
H929 H 0.73904 0.96861 0.1025 0.0
H930 H 0.73031 0.96675 0.16494 0.0
H931 H 0.69346 0.92166 0.2138 0.0
H932 H 0.73079 0.96436 0.38373 0.0
H933 H 0.72788 0.96377 0.32117 0.0
H934 H 0.6565 0.97041 0.27124 0.0
C935 C 0.71138 0.95871 0.14996 0.0
C936 C 0.68462 0.93241 0.22591 0.0
C937 C 0.71687 0.95972 0.11389 0.0
C938 C 0.70797 0.95599 0.3722 0.0
C939 C 0.70597 0.95571 0.33598 0.0
C940 C 0.66504 0.95961 0.25926 0.0
C941 C 0.68325 0.94737 0.16653 0.0
C942 C 0.67752 0.94658 0.2055 0.0
C943 C 0.67704 0.94517 0.31911 0.0
C944 C 0.67423 0.94548 0.27986 0.0
H945 H 0.64887 0.92992 0.09372 0.0
H946 H 0.63867 0.92817 0.1568 0.0
H947 H 0.65905 0.97134 0.20851 0.0
H948 H 0.63183 0.9269 0.39209 0.0
H949 H 0.62825 0.92636 0.3284 0.0
C950 C 0.43646 0.21611 0.1098 0.0
C951 C 0.4442 0.20206 0.09431 0.0
C952 C 0.42976 0.21667 0.1456 0.0
C953 C 0.4756 0.19558 0.22976 0.0
H954 H 0.33422 0.22299 0.26324 0.0
C955 C 0.45274 0.20156 0.37909 0.0
C956 C 0.41825 0.21535 0.38981 0.0
C957 C 0.45422 0.19893 0.34354 0.0
C958 C 0.37502 0.21549 0.25476 0.0
H959 H 0.45129 0.1775 0.10472 0.0
H960 H 0.44204 0.17838 0.16792 0.0
H961 H 0.33997 0.22041 0.20137 0.0
H962 H 0.35966 0.23734 0.37116 0.0
H963 H 0.3651 0.23335 0.31011 0.0
H964 H 0.51294 0.19125 0.28261 0.0
C965 C 0.44002 0.18902 0.15195 0.0
C966 C 0.3777 0.21388 0.21896 0.0
C967 C 0.44486 0.18851 0.11574 0.0
C968 C 0.38627 0.2265 0.36402 0.0
C969 C 0.3889 0.22407 0.32862 0.0
C970 C 0.47382 0.19747 0.26561 0.0
C971 C 0.43244 0.20313 0.16735 0.0
C972 C 0.42806 0.20396 0.20587 0.0
C973 C 0.42227 0.21016 0.31743 0.0
C974 C 0.42365 0.20758 0.27896 0.0
H975 H 0.43587 0.22675 0.09411 0.0
H976 H 0.42416 0.22771 0.15649 0.0
H977 H 0.51544 0.18795 0.22057 0.0
H978 H 0.47765 0.19266 0.39824 0.0
H979 H 0.47982 0.18794 0.33678 0.0
C980 C 0.37688 0.1909 0.87149 0.0
C981 C 0.40471 0.19973 0.89406 0.0
C982 C 0.3804 0.19298 0.83533 0.0
C983 C 0.47132 0.20863 0.76676 0.0
H984 H 0.32943 0.20506 0.70557 0.0
C985 C 0.494 0.20131 0.6196 0.0
C986 C 0.44416 0.20829 0.59547 0.0
C987 C 0.48795 0.20163 0.65549 0.0
C988 C 0.36942 0.20625 0.72214 0.0
H989 H 0.45859 0.2177 0.89581 0.0
H990 H 0.46518 0.22132 0.83274 0.0
H991 H 0.32132 0.20311 0.76838 0.0
H992 H 0.34856 0.22127 0.59065 0.0
H993 H 0.33764 0.22184 0.65355 0.0
H994 H 0.51942 0.21177 0.72055 0.0
C995 C 0.44064 0.21268 0.84304 0.0
C996 C 0.36505 0.20494 0.75839 0.0
C997 C 0.43674 0.21066 0.87932 0.0
C998 C 0.388 0.21582 0.60841 0.0
C999 C 0.38167 0.21602 0.64456 0.0
C1000 C 0.47584 0.20983 0.73053 0.0
C1001 C 0.41222 0.20392 0.82035 0.0
C1002 C 0.4161 0.20597 0.78142 0.0
C1003 C 0.43159 0.20887 0.66875 0.0
C1004 C 0.42518 0.20852 0.70752 0.0
H1005 H 0.35201 0.18233 0.88178 0.0
H1006 H 0.35878 0.1858 0.81912 0.0
H1007 H 0.51191 0.20941 0.78331 0.0
H1008 H 0.53794 0.19537 0.6107 0.0
H1009 H 0.52726 0.19579 0.6729 0.0
C1010 C 0.64677 0.92439 0.61823 0.0
C1011 C 0.68167 0.93212 0.59594 0.0
C1012 C 0.64698 0.92649 0.65388 0.0
C1013 C 0.67929 0.95273 0.72073 0.0
H1014 H 0.68547 0.91652 0.78398 0.0
C1015 C 0.68745 0.95456 0.87356 0.0
C1016 C 0.65499 0.94469 0.89203 0.0
C1017 C 0.69462 0.95365 0.83752 0.0
C1018 C 0.68276 0.92687 0.76691 0.0
H1019 H 0.74403 0.9483 0.59412 0.0
H1020 H 0.74378 0.95217 0.6564 0.0
H1021 H 0.68919 0.91399 0.72208 0.0
H1022 H 0.6042 0.92626 0.88649 0.0
H1023 H 0.61513 0.92493 0.82488 0.0
H1024 H 0.67181 0.96564 0.76583 0.0
C1025 C 0.71616 0.94442 0.64621 0.0
C1026 C 0.6851 0.92538 0.73109 0.0
C1027 C 0.71657 0.94214 0.61045 0.0
C1028 C 0.62985 0.93403 0.87344 0.0
C1029 C 0.6367 0.93316 0.83779 0.0
C1030 C 0.67644 0.95425 0.75677 0.0
C1031 C 0.6818 0.93649 0.66863 0.0
C1032 C 0.68255 0.93827 0.70723 0.0
C1033 C 0.66961 0.94283 0.819 0.0
C1034 C 0.67712 0.94136 0.78053 0.0
H1035 H 0.61913 0.91662 0.60812 0.0
H1036 H 0.61911 0.92033 0.6699 0.0
H1037 H 0.67698 0.96297 0.70335 0.0
H1038 H 0.7075 0.96292 0.88692 0.0
H1039 H 0.72061 0.96128 0.82433 0.0
loop_
_geom_bond_atom_site_label_1
_geom_bond_atom_site_label_2
_geom_bond_distance
_geom_bond_site_symmetry_2
_ccdc_geom_bond_type
Tb0 C2 2.809 1_455 S
Tb0 O20 2.484 1_455 S
Tb0 O21 2.440 1_454 S
Tb0 O22 2.658 1_554 S
Tb0 O23 2.409 1_554 S
Tb0 O24 2.378 1_454 S
Tb0 O28 2.325 . S
Tb0 O31 2.341 . S
Tb1 C11 2.809 . S
Tb1 O22 2.325 1_554 S
Tb1 O25 2.341 . S
Tb1 O26 2.484 1_554 S
Tb1 O27 2.440 . S
Tb1 O28 2.658 . S
Tb1 O29 2.409 . S
Tb1 O30 2.378 . S
C2 Tb0 2.809 1_655 S
C2 C3 1.514 . S
C2 O20 1.248 . S
C2 O21 1.266 1_554 S
C3 C2 1.514 . S
C3 C4 1.359 . S
C3 C8 1.348 1_554 S
C4 C3 1.359 . S
C4 C5 1.380 . S
C4 H32 0.929 . S
C5 C4 1.380 . S
C5 C6 1.347 . S
C5 H33 0.931 . S
C6 C5 1.347 . S
C6 C7 1.369 1_554 S
C7 C6 1.369 1_556 S
C7 C8 1.408 . S
C7 H34 0.930 . S
C8 C3 1.348 1_556 S
C8 C7 1.408 . S
C8 H35 0.930 . S
C9 O22 1.281 . S
C9 O23 1.254 . S
C10 O24 1.236 1_454 S
C10 O25 1.266 . S
C11 Tb1 2.809 . S
C11 C12 1.514 . S
C11 O26 1.248 1_554 S
C11 O27 1.266 . S
C12 C11 1.514 . S
C12 C13 1.359 1_554 S
C12 C17 1.348 . S
C13 C12 1.359 1_556 S
C13 C14 1.380 . S
C13 H36 0.929 . S
C14 C13 1.380 . S
C14 C15 1.347 1_556 S
C14 H37 0.931 . S
C15 C14 1.347 1_554 S
C15 C16 1.369 . S
C16 C15 1.369 . S
C16 C17 1.408 . S
C16 H38 0.930 . S
C17 C12 1.348 . S
C17 C16 1.408 . S
C17 H39 0.930 . S
C18 O28 1.281 . S
C18 O29 1.254 . S
C19 O30 1.236 . S
C19 O31 1.266 . S
O20 Tb0 2.484 1_655 S
O20 C2 1.248 . S
O21 Tb0 2.440 1_656 S
O21 C2 1.266 1_556 S
O22 Tb0 2.658 1_556 S
O22 Tb1 2.325 1_556 S
O22 C9 1.281 . S
O23 Tb0 2.409 1_556 S
O23 C9 1.254 . S
O24 Tb0 2.378 1_656 S
O24 C10 1.236 1_656 S
O25 Tb1 2.341 . S
O25 C10 1.266 . S
O26 Tb1 2.484 1_556 S
O26 C11 1.248 1_556 S
O27 Tb1 2.440 . S
O27 C11 1.266 . S
O28 Tb0 2.325 . S
O28 Tb1 2.658 . S
O28 C18 1.281 . S
O29 Tb1 2.409 . S
O29 C18 1.254 . S
O30 Tb1 2.378 . S
O30 C19 1.236 . S
O31 Tb0 2.341 . S
O31 C19 1.266 . S
H32 C4 0.929 . S
H33 C5 0.931 . S
H34 C7 0.930 . S
H35 C8 0.930 . S
H36 C13 0.929 . S
H37 C14 0.931 . S
H38 C16 0.930 . S
H39 C17 0.930 . S
Tb40 C42 2.809 . S
Tb40 O60 2.484 . S
Tb40 O61 2.440 1_554 S
Tb40 O62 2.658 1_554 S
Tb40 O63 2.409 1_554 S
Tb40 O64 2.378 1_554 S
Tb40 O68 2.325 . S
Tb40 O71 2.341 . S
Tb41 C51 2.809 1_655 S
Tb41 O62 2.325 1_554 S
Tb41 O65 2.341 . S
Tb41 O66 2.484 1_654 S
Tb41 O67 2.440 1_655 S
Tb41 O68 2.658 . S
Tb41 O69 2.409 . S
Tb41 O70 2.378 1_655 S
C42 Tb40 2.809 . S
C42 C43 1.514 . S
C42 O60 1.248 . S
C42 O61 1.266 1_554 S
C43 C42 1.514 . S
C43 C44 1.359 . S
C43 C48 1.348 1_554 S
C44 C43 1.359 . S
C44 C45 1.380 . S
C44 H72 0.929 . S
C45 C44 1.380 . S
C45 C46 1.347 . S
C45 H73 0.931 . S
C46 C45 1.347 . S
C46 C47 1.369 1_554 S
C47 C46 1.369 1_556 S
C47 C48 1.408 . S
C47 H74 0.930 . S
C48 C43 1.348 1_556 S
C48 C47 1.408 . S
C48 H75 0.930 . S
C49 O62 1.281 . S
C49 O63 1.254 . S
C50 O64 1.236 1_554 S
C50 O65 1.266 . S
C51 Tb41 2.809 1_455 S
C51 C52 1.514 . S
C51 O66 1.248 1_554 S
C51 O67 1.266 . S
C52 C51 1.514 . S
C52 C53 1.359 1_554 S
C52 C57 1.348 . S
C53 C52 1.359 1_556 S
C53 C54 1.380 . S
C53 H76 0.929 . S
C54 C53 1.380 . S
C54 C55 1.347 1_556 S
C54 H77 0.931 . S
C55 C54 1.347 1_554 S
C55 C56 1.369 . S
C56 C55 1.369 . S
C56 C57 1.408 . S
C56 H78 0.930 . S
C57 C52 1.348 . S
C57 C56 1.408 . S
C57 H79 0.930 . S
C58 O68 1.281 . S
C58 O69 1.254 . S
C59 O70 1.236 1_655 S
C59 O71 1.266 . S
O60 Tb40 2.484 . S
O60 C42 1.248 . S
O61 Tb40 2.440 1_556 S
O61 C42 1.266 1_556 S
O62 Tb40 2.658 1_556 S
O62 Tb41 2.325 1_556 S
O62 C49 1.281 . S
O63 Tb40 2.409 1_556 S
O63 C49 1.254 . S
O64 Tb40 2.378 1_556 S
O64 C50 1.236 1_556 S
O65 Tb41 2.341 . S
O65 C50 1.266 . S
O66 Tb41 2.484 1_456 S
O66 C51 1.248 1_556 S
O67 Tb41 2.440 1_455 S
O67 C51 1.266 . S
O68 Tb40 2.325 . S
O68 Tb41 2.658 . S
O68 C58 1.281 . S
O69 Tb41 2.409 . S
O69 C58 1.254 . S
O70 Tb41 2.378 1_455 S
O70 C59 1.236 1_455 S
O71 Tb40 2.341 . S
O71 C59 1.266 . S
H72 C44 0.929 . S
H73 C45 0.931 . S
H74 C47 0.930 . S
H75 C48 0.930 . S
H76 C53 0.929 . S
H77 C54 0.931 . S
H78 C56 0.930 . S
H79 C57 0.930 . S
Tb80 C82 2.809 . S
Tb80 O100 2.484 . S
Tb80 O101 2.440 . S
Tb80 O102 2.658 . S
Tb80 O103 2.409 . S
Tb80 O104 2.378 . S
Tb80 O108 2.325 . S
Tb80 O111 2.341 1_455 S
Tb81 C91 2.809 . S
Tb81 O102 2.325 . S
Tb81 O105 2.341 . S
Tb81 O106 2.484 . S
Tb81 O107 2.440 . S
Tb81 O108 2.658 . S
Tb81 O109 2.409 . S
Tb81 O110 2.378 1_455 S
C82 Tb80 2.809 . S
C82 C83 1.514 . S
C82 O100 1.248 . S
C82 O101 1.266 . S
C83 C82 1.514 . S
C83 C84 1.359 . S
C83 C88 1.348 . S
C84 C83 1.359 . S
C84 C85 1.380 . S
C84 H112 0.929 . S
C85 C84 1.380 . S
C85 C86 1.347 . S
C85 H113 0.931 . S
C86 C85 1.347 . S
C86 C87 1.369 . S
C87 C86 1.369 . S
C87 C88 1.408 . S
C87 H114 0.930 . S
C88 C83 1.348 . S
C88 C87 1.408 . S
C88 H115 0.930 . S
C89 O102 1.281 . S
C89 O103 1.254 . S
C90 O104 1.236 . S
C90 O105 1.266 . S
C91 Tb81 2.809 . S
C91 C92 1.514 1_455 S
C91 O106 1.248 . S
C91 O107 1.266 . S
C92 C91 1.514 1_655 S
C92 C93 1.359 . S
C92 C97 1.348 . S
C93 C92 1.359 . S
C93 C94 1.380 . S
C93 H116 0.929 . S
C94 C93 1.380 . S
C94 C95 1.347 . S
C94 H117 0.931 . S
C95 C94 1.347 . S
C95 C96 1.369 . S
C96 C95 1.369 . S
C96 C97 1.408 . S
C96 H118 0.930 . S
C97 C92 1.348 . S
C97 C96 1.408 . S
C97 H119 0.930 . S
C98 O108 1.281 . S
C98 O109 1.254 . S
C99 O110 1.236 . S
C99 O111 1.266 . S
O100 Tb80 2.484 . S
O100 C82 1.248 . S
O101 Tb80 2.440 . S
O101 C82 1.266 . S
O102 Tb80 2.658 . S
O102 Tb81 2.325 . S
O102 C89 1.281 . S
O103 Tb80 2.409 . S
O103 C89 1.254 . S
O104 Tb80 2.378 . S
O104 C90 1.236 . S
O105 Tb81 2.341 . S
O105 C90 1.266 . S
O106 Tb81 2.484 . S
O106 C91 1.248 . S
O107 Tb81 2.440 . S
O107 C91 1.266 . S
O108 Tb80 2.325 . S
O108 Tb81 2.658 . S
O108 C98 1.281 . S
O109 Tb81 2.409 . S
O109 C98 1.254 . S
O110 Tb81 2.378 1_655 S
O110 C99 1.236 . S
O111 Tb80 2.341 1_655 S
O111 C99 1.266 . S
H112 C84 0.929 . S
H113 C85 0.931 . S
H114 C87 0.930 . S
H115 C88 0.930 . S
H116 C93 0.929 . S
H117 C94 0.931 . S
H118 C96 0.930 . S
H119 C97 0.930 . S
Tb120 C122 2.809 . S
Tb120 O140 2.484 . S
Tb120 O141 2.440 . S
Tb120 O142 2.658 . S
Tb120 O143 2.409 . S
Tb120 O144 2.378 1_655 S
Tb120 O148 2.325 . S
Tb120 O151 2.341 . S
Tb121 C131 2.809 . S
Tb121 O142 2.325 . S
Tb121 O145 2.341 1_655 S
Tb121 O146 2.484 . S
Tb121 O147 2.440 . S
Tb121 O148 2.658 . S
Tb121 O149 2.409 . S
Tb121 O150 2.378 . S
C122 Tb120 2.809 . S
C122 C123 1.514 1_655 S
C122 O140 1.248 . S
C122 O141 1.266 . S
C123 C122 1.514 1_455 S
C123 C124 1.359 . S
C123 C128 1.348 . S
C124 C123 1.359 . S
C124 C125 1.380 . S
C124 H152 0.929 . S
C125 C124 1.380 . S
C125 C126 1.347 . S
C125 H153 0.931 . S
C126 C125 1.347 . S
C126 C127 1.369 . S
C127 C126 1.369 . S
C127 C128 1.408 . S
C127 H154 0.930 . S
C128 C123 1.348 . S
C128 C127 1.408 . S
C128 H155 0.930 . S
C129 O142 1.281 . S
C129 O143 1.254 . S
C130 O144 1.236 . S
C130 O145 1.266 . S
C131 Tb121 2.809 . S
C131 C132 1.514 . S
C131 O146 1.248 . S
C131 O147 1.266 . S
C132 C131 1.514 . S
C132 C133 1.359 . S
C132 C137 1.348 . S
C133 C132 1.359 . S
C133 C134 1.380 . S
C133 H156 0.929 . S
C134 C133 1.380 . S
C134 C135 1.347 . S
C134 H157 0.931 . S
C135 C134 1.347 . S
C135 C136 1.369 . S
C136 C135 1.369 . S
C136 C137 1.408 . S
C136 H158 0.930 . S
C137 C132 1.348 . S
C137 C136 1.408 . S
C137 H159 0.930 . S
C138 O148 1.281 . S
C138 O149 1.254 . S
C139 O150 1.236 . S
C139 O151 1.266 . S
O140 Tb120 2.484 . S
O140 C122 1.248 . S
O141 Tb120 2.440 . S
O141 C122 1.266 . S
O142 Tb120 2.658 . S
O142 Tb121 2.325 . S
O142 C129 1.281 . S
O143 Tb120 2.409 . S
O143 C129 1.254 . S
O144 Tb120 2.378 1_455 S
O144 C130 1.236 . S
O145 Tb121 2.341 1_455 S
O145 C130 1.266 . S
O146 Tb121 2.484 . S
O146 C131 1.248 . S
O147 Tb121 2.440 . S
O147 C131 1.266 . S
O148 Tb120 2.325 . S
O148 Tb121 2.658 . S
O148 C138 1.281 . S
O149 Tb121 2.409 . S
O149 C138 1.254 . S
O150 Tb121 2.378 . S
O150 C139 1.236 . S
O151 Tb120 2.341 . S
O151 C139 1.266 . S
H152 C124 0.929 . S
H153 C125 0.931 . S
H154 C127 0.930 . S
H155 C128 0.930 . S
H156 C133 0.929 . S
H157 C134 0.931 . S
H158 C136 0.930 . S
H159 C137 0.930 . S
Tb160 C162 2.809 . S
Tb160 O180 2.484 . S
Tb160 O181 2.440 1_554 S
Tb160 O182 2.658 1_554 S
Tb160 O183 2.409 1_554 S
Tb160 O184 2.378 1_554 S
Tb160 O188 2.325 . S
Tb160 O191 2.341 . S
Tb161 C171 2.809 . S
Tb161 O182 2.325 1_554 S
Tb161 O185 2.341 . S
Tb161 O186 2.484 1_554 S
Tb161 O187 2.440 . S
Tb161 O188 2.658 . S
Tb161 O189 2.409 . S
Tb161 O190 2.378 . S
C162 Tb160 2.809 . S
C162 C163 1.514 . S
C162 O180 1.248 . S
C162 O181 1.266 1_554 S
C163 C162 1.514 . S
C163 C164 1.359 . S
C163 C168 1.348 1_554 S
C164 C163 1.359 . S
C164 C165 1.380 . S
C164 H192 0.929 . S
C165 C164 1.380 . S
C165 C166 1.347 . S
C165 H193 0.931 . S
C166 C165 1.347 . S
C166 C167 1.369 1_554 S
C167 C166 1.369 1_556 S
C167 C168 1.408 . S
C167 H194 0.930 . S
C168 C163 1.348 1_556 S
C168 C167 1.408 . S
C168 H195 0.930 . S
C169 O182 1.281 . S
C169 O183 1.254 . S
C170 O184 1.236 1_554 S
C170 O185 1.266 . S
C171 Tb161 2.809 . S
C171 C172 1.514 . S
C171 O186 1.248 1_554 S
C171 O187 1.266 . S
C172 C171 1.514 . S
C172 C173 1.359 1_554 S
C172 C177 1.348 . S
C173 C172 1.359 1_556 S
C173 C174 1.380 . S
C173 H196 0.929 . S
C174 C173 1.380 . S
C174 C175 1.347 1_556 S
C174 H197 0.931 . S
C175 C174 1.347 1_554 S
C175 C176 1.369 . S
C176 C175 1.369 . S
C176 C177 1.408 . S
C176 H198 0.930 . S
C177 C172 1.348 . S
C177 C176 1.408 . S
C177 H199 0.930 . S
C178 O188 1.281 . S
C178 O189 1.254 . S
C179 O190 1.236 . S
C179 O191 1.266 . S
O180 Tb160 2.484 . S
O180 C162 1.248 . S
O181 Tb160 2.440 1_556 S
O181 C162 1.266 1_556 S
O182 Tb160 2.658 1_556 S
O182 Tb161 2.325 1_556 S
O182 C169 1.281 . S
O183 Tb160 2.409 1_556 S
O183 C169 1.254 . S
O184 Tb160 2.378 1_556 S
O184 C170 1.236 1_556 S
O185 Tb161 2.341 . S
O185 C170 1.266 . S
O186 Tb161 2.484 1_556 S
O186 C171 1.248 1_556 S
O187 Tb161 2.440 . S
O187 C171 1.266 . S
O188 Tb160 2.325 . S
O188 Tb161 2.658 . S
O188 C178 1.281 . S
O189 Tb161 2.409 . S
O189 C178 1.254 . S
O190 Tb161 2.378 . S
O190 C179 1.236 . S
O191 Tb160 2.341 . S
O191 C179 1.266 . S
H192 C164 0.929 . S
H193 C165 0.931 . S
H194 C167 0.930 . S
H195 C168 0.930 . S
H196 C173 0.929 . S
H197 C174 0.931 . S
H198 C176 0.930 . S
H199 C177 0.930 . S
Tb200 C202 2.809 . S
Tb200 O220 2.484 . S
Tb200 O221 2.440 1_554 S
Tb200 O222 2.658 1_554 S
Tb200 O223 2.409 1_554 S
Tb200 O224 2.378 1_554 S
Tb200 O228 2.325 . S
Tb200 O231 2.341 . S
Tb201 C211 2.809 . S
Tb201 O222 2.325 1_554 S
Tb201 O225 2.341 . S
Tb201 O226 2.484 1_554 S
Tb201 O227 2.440 . S
Tb201 O228 2.658 . S
Tb201 O229 2.409 . S
Tb201 O230 2.378 . S
C202 Tb200 2.809 . S
C202 C203 1.514 . S
C202 O220 1.248 . S
C202 O221 1.266 1_554 S
C203 C202 1.514 . S
C203 C204 1.359 . S
C203 C208 1.348 1_554 S
C204 C203 1.359 . S
C204 C205 1.380 . S
C204 H232 0.929 . S
C205 C204 1.380 . S
C205 C206 1.347 . S
C205 H233 0.931 . S
C206 C205 1.347 . S
C206 C207 1.369 1_554 S
C207 C206 1.369 1_556 S
C207 C208 1.408 . S
C207 H234 0.930 . S
C208 C203 1.348 1_556 S
C208 C207 1.408 . S
C208 H235 0.930 . S
C209 O222 1.281 . S
C209 O223 1.254 . S
C210 O224 1.236 1_554 S
C210 O225 1.266 . S
C211 Tb201 2.809 . S
C211 C212 1.514 . S
C211 O226 1.248 1_554 S
C211 O227 1.266 . S
C212 C211 1.514 . S
C212 C213 1.359 1_554 S
C212 C217 1.348 . S
C213 C212 1.359 1_556 S
C213 C214 1.380 . S
C213 H236 0.929 . S
C214 C213 1.380 . S
C214 C215 1.347 1_556 S
C214 H237 0.931 . S
C215 C214 1.347 1_554 S
C215 C216 1.369 . S
C216 C215 1.369 . S
C216 C217 1.408 . S
C216 H238 0.930 . S
C217 C212 1.348 . S
C217 C216 1.408 . S
C217 H239 0.930 . S
C218 O228 1.281 . S
C218 O229 1.254 . S
C219 O230 1.236 . S
C219 O231 1.266 . S
O220 Tb200 2.484 . S
O220 C202 1.248 . S
O221 Tb200 2.440 1_556 S
O221 C202 1.266 1_556 S
O222 Tb200 2.658 1_556 S
O222 Tb201 2.325 1_556 S
O222 C209 1.281 . S
O223 Tb200 2.409 1_556 S
O223 C209 1.254 . S
O224 Tb200 2.378 1_556 S
O224 C210 1.236 1_556 S
O225 Tb201 2.341 . S
O225 C210 1.266 . S
O226 Tb201 2.484 1_556 S
O226 C211 1.248 1_556 S
O227 Tb201 2.440 . S
O227 C211 1.266 . S
O228 Tb200 2.325 . S
O228 Tb201 2.658 . S
O228 C218 1.281 . S
O229 Tb201 2.409 . S
O229 C218 1.254 . S
O230 Tb201 2.378 . S
O230 C219 1.236 . S
O231 Tb200 2.341 . S
O231 C219 1.266 . S
H232 C204 0.929 . S
H233 C205 0.931 . S
H234 C207 0.930 . S
H235 C208 0.930 . S
H236 C213 0.929 . S
H237 C214 0.931 . S
H238 C216 0.930 . S
H239 C217 0.930 . S
Tb240 C242 2.809 . S
Tb240 O260 2.484 . S
Tb240 O261 2.440 . S
Tb240 O262 2.658 . S
Tb240 O263 2.409 . S
Tb240 O264 2.378 . S
Tb240 O268 2.325 . S
Tb240 O271 2.341 . S
Tb241 C251 2.809 . S
Tb241 O262 2.325 . S
Tb241 O265 2.341 . S
Tb241 O266 2.484 . S
Tb241 O267 2.440 . S
Tb241 O268 2.658 . S
Tb241 O269 2.409 . S
Tb241 O270 2.378 . S
C242 Tb240 2.809 . S
C242 C243 1.514 . S
C242 O260 1.248 . S
C242 O261 1.266 . S
C243 C242 1.514 . S
C243 C244 1.359 . S
C243 C248 1.348 . S
C244 C243 1.359 . S
C244 C245 1.380 . S
C244 H272 0.929 . S
C245 C244 1.380 . S
C245 C246 1.347 . S
C245 H273 0.931 . S
C246 C245 1.347 . S
C246 C247 1.369 . S
C247 C246 1.369 . S
C247 C248 1.408 . S
C247 H274 0.930 . S
C248 C243 1.348 . S
C248 C247 1.408 . S
C248 H275 0.930 . S
C249 O262 1.281 . S
C249 O263 1.254 . S
C250 O264 1.236 . S
C250 O265 1.266 . S
C251 Tb241 2.809 . S
C251 C252 1.514 . S
C251 O266 1.248 . S
C251 O267 1.266 . S
C252 C251 1.514 . S
C252 C253 1.359 . S
C252 C257 1.348 . S
C253 C252 1.359 . S
C253 C254 1.380 . S
C253 H276 0.929 . S
C254 C253 1.380 . S
C254 C255 1.347 . S
C254 H277 0.931 . S
C255 C254 1.347 . S
C255 C256 1.369 . S
C256 C255 1.369 . S
C256 C257 1.408 . S
C256 H278 0.930 . S
C257 C252 1.348 . S
C257 C256 1.408 . S
C257 H279 0.930 . S
C258 O268 1.281 . S
C258 O269 1.254 . S
C259 O270 1.236 . S
C259 O271 1.266 . S
O260 Tb240 2.484 . S
O260 C242 1.248 . S
O261 Tb240 2.440 . S
O261 C242 1.266 . S
O262 Tb240 2.658 . S
O262 Tb241 2.325 . S
O262 C249 1.281 . S
O263 Tb240 2.409 . S
O263 C249 1.254 . S
O264 Tb240 2.378 . S
O264 C250 1.236 . S
O265 Tb241 2.341 . S
O265 C250 1.266 . S
O266 Tb241 2.484 . S
O266 C251 1.248 . S
O267 Tb241 2.440 . S
O267 C251 1.266 . S
O268 Tb240 2.325 . S
O268 Tb241 2.658 . S
O268 C258 1.281 . S
O269 Tb241 2.409 . S
O269 C258 1.254 . S
O270 Tb241 2.378 . S
O270 C259 1.236 . S
O271 Tb240 2.341 . S
O271 C259 1.266 . S
H272 C244 0.929 . S
H273 C245 0.931 . S
H274 C247 0.930 . S
H275 C248 0.930 . S
H276 C253 0.929 . S
H277 C254 0.931 . S
H278 C256 0.930 . S
H279 C257 0.930 . S
Tb280 C282 2.809 . S
Tb280 O300 2.484 . S
Tb280 O301 2.440 . S
Tb280 O302 2.658 . S
Tb280 O303 2.409 . S
Tb280 O304 2.378 . S
Tb280 O308 2.325 . S
Tb280 O311 2.341 . S
Tb281 C291 2.809 . S
Tb281 O302 2.325 . S
Tb281 O305 2.341 . S
Tb281 O306 2.484 . S
Tb281 O307 2.440 . S
Tb281 O308 2.658 . S
Tb281 O309 2.409 . S
Tb281 O310 2.378 . S
C282 Tb280 2.809 . S
C282 C283 1.514 . S
C282 O300 1.248 . S
C282 O301 1.266 . S
C283 C282 1.514 . S
C283 C284 1.359 . S
C283 C288 1.348 . S
C284 C283 1.359 . S
C284 C285 1.380 . S
C284 H312 0.929 . S
C285 C284 1.380 . S
C285 C286 1.347 . S
C285 H313 0.931 . S
C286 C285 1.347 . S
C286 C287 1.369 . S
C287 C286 1.369 . S
C287 C288 1.408 . S
C287 H314 0.930 . S
C288 C283 1.348 . S
C288 C287 1.408 . S
C288 H315 0.930 . S
C289 O302 1.281 . S
C289 O303 1.254 . S
C290 O304 1.236 . S
C290 O305 1.266 . S
C291 Tb281 2.809 . S
C291 C292 1.514 . S
C291 O306 1.248 . S
C291 O307 1.266 . S
C292 C291 1.514 . S
C292 C293 1.359 . S
C292 C297 1.348 . S
C293 C292 1.359 . S
C293 C294 1.380 . S
C293 H316 0.929 . S
C294 C293 1.380 . S
C294 C295 1.347 . S
C294 H317 0.931 . S
C295 C294 1.347 . S
C295 C296 1.369 . S
C296 C295 1.369 . S
C296 C297 1.408 . S
C296 H318 0.930 . S
C297 C292 1.348 . S
C297 C296 1.408 . S
C297 H319 0.930 . S
C298 O308 1.281 . S
C298 O309 1.254 . S
C299 O310 1.236 . S
C299 O311 1.266 . S
O300 Tb280 2.484 . S
O300 C282 1.248 . S
O301 Tb280 2.440 . S
O301 C282 1.266 . S
O302 Tb280 2.658 . S
O302 Tb281 2.325 . S
O302 C289 1.281 . S
O303 Tb280 2.409 . S
O303 C289 1.254 . S
O304 Tb280 2.378 . S
O304 C290 1.236 . S
O305 Tb281 2.341 . S
O305 C290 1.266 . S
O306 Tb281 2.484 . S
O306 C291 1.248 . S
O307 Tb281 2.440 . S
O307 C291 1.266 . S
O308 Tb280 2.325 . S
O308 Tb281 2.658 . S
O308 C298 1.281 . S
O309 Tb281 2.409 . S
O309 C298 1.254 . S
O310 Tb281 2.378 . S
O310 C299 1.236 . S
O311 Tb280 2.341 . S
O311 C299 1.266 . S
H312 C284 0.929 . S
H313 C285 0.931 . S
H314 C287 0.930 . S
H315 C288 0.930 . S
H316 C293 0.929 . S
H317 C294 0.931 . S
H318 C296 0.930 . S
H319 C297 0.930 . S
C320 C321 1.349 . S
C320 C322 1.327 . S
C320 H345 0.950 . S
C321 C320 1.349 . S
C321 C337 1.349 1_554 S
C322 C320 1.327 . S
C322 C341 1.429 . S
C322 H346 0.950 . S
C323 C340 1.574 . S
C323 C342 1.368 1_556 S
C323 H347 0.949 . S
H324 C328 0.949 . S
C325 C326 1.349 1_556 S
C325 C327 1.327 . S
C325 H348 0.950 . S
C326 C325 1.349 1_554 S
C326 C338 1.349 . S
C327 C325 1.327 . S
C327 C343 1.429 1_556 S
C327 H349 0.950 . S
C328 H324 0.949 . S
C328 C336 1.574 . S
C328 C344 1.368 . S
H329 C337 0.950 . S
H330 C335 0.950 . S
H331 C336 0.949 . S
H332 C338 0.950 . S
H333 C339 0.950 . S
H334 C340 0.949 . S
C335 H330 0.950 . S
C335 C337 1.327 . S
C335 C341 1.429 1_556 S
C336 C328 1.574 . S
C336 H331 0.949 . S
C336 C342 1.368 . S
C337 C321 1.349 1_556 S
C337 H329 0.950 . S
C337 C335 1.327 . S
C338 C326 1.349 . S
C338 H332 0.950 . S
C338 C339 1.327 . S
C339 H333 0.950 . S
C339 C338 1.327 . S
C339 C343 1.429 . S
C340 C323 1.574 . S
C340 H334 0.949 . S
C340 C344 1.368 1_556 S
C341 C322 1.429 . S
C341 C335 1.429 1_554 S
C341 C342 1.523 . S
C342 C323 1.368 1_554 S
C342 C336 1.368 . S
C342 C341 1.523 . S
C343 C327 1.429 1_554 S
C343 C339 1.429 . S
C343 C344 1.523 . S
C344 C328 1.368 . S
C344 C340 1.368 1_554 S
C344 C343 1.523 . S
H345 C320 0.950 . S
H346 C322 0.950 . S
H347 C323 0.949 . S
H348 C325 0.950 . S
H349 C327 0.950 . S
C350 C351 1.349 1_556 S
C350 C352 1.327 . S
C350 H375 0.950 . S
C351 C350 1.349 1_554 S
C351 C367 1.349 . S
C352 C350 1.327 . S
C352 C371 1.429 1_556 S
C352 H376 0.950 . S
C353 C370 1.574 . S
C353 C372 1.368 . S
C353 H377 0.949 . S
H354 C358 0.949 . S
C355 C356 1.349 . S
C355 C357 1.327 . S
C355 H378 0.950 . S
C356 C355 1.349 . S
C356 C368 1.349 1_554 S
C357 C355 1.327 . S
C357 C373 1.429 . S
C357 H379 0.950 . S
C358 H354 0.949 . S
C358 C366 1.574 . S
C358 C374 1.368 1_556 S
H359 C367 0.950 . S
H360 C365 0.950 . S
H361 C366 0.949 . S
H362 C368 0.950 . S
H363 C369 0.950 . S
H364 C370 0.949 . S
C365 H360 0.950 . S
C365 C367 1.327 . S
C365 C371 1.429 . S
C366 C358 1.574 . S
C366 H361 0.949 . S
C366 C372 1.368 1_556 S
C367 C351 1.349 . S
C367 H359 0.950 . S
C367 C365 1.327 . S
C368 C356 1.349 1_556 S
C368 H362 0.950 . S
C368 C369 1.327 . S
C369 H363 0.950 . S
C369 C368 1.327 . S
C369 C373 1.429 1_556 S
C370 C353 1.574 . S
C370 H364 0.949 . S
C370 C374 1.368 . S
C371 C352 1.429 1_554 S
C371 C365 1.429 . S
C371 C372 1.523 . S
C372 C353 1.368 . S
C372 C366 1.368 1_554 S
C372 C371 1.523 . S
C373 C357 1.429 . S
C373 C369 1.429 1_554 S
C373 C374 1.523 . S
C374 C358 1.368 1_554 S
C374 C370 1.368 . S
C374 C373 1.523 . S
H375 C350 0.950 . S
H376 C352 0.950 . S
H377 C353 0.949 . S
H378 C355 0.950 . S
H379 C357 0.950 . S
C380 C381 1.349 . S
C380 C382 1.327 . S
C380 H405 0.950 . S
C381 C380 1.349 . S
C381 C397 1.349 . S
C382 C380 1.327 . S
C382 C401 1.429 . S
C382 H406 0.950 . S
C383 C400 1.574 . S
C383 C402 1.368 . S
C383 H407 0.949 . S
H384 C388 0.949 . S
C385 C386 1.349 . S
C385 C387 1.327 . S
C385 H408 0.950 . S
C386 C385 1.349 . S
C386 C398 1.349 . S
C387 C385 1.327 . S
C387 C403 1.429 . S
C387 H409 0.950 . S
C388 H384 0.949 . S
C388 C396 1.574 . S
C388 C404 1.368 . S
H389 C397 0.950 . S
H390 C395 0.950 . S
H391 C396 0.949 . S
H392 C398 0.950 . S
H393 C399 0.950 . S
H394 C400 0.949 . S
C395 H390 0.950 . S
C395 C397 1.327 . S
C395 C401 1.429 . S
C396 C388 1.574 . S
C396 H391 0.949 . S
C396 C402 1.368 . S
C397 C381 1.349 . S
C397 H389 0.950 . S
C397 C395 1.327 . S
C398 C386 1.349 . S
C398 H392 0.950 . S
C398 C399 1.327 . S
C399 H393 0.950 . S
C399 C398 1.327 . S
C399 C403 1.429 . S
C400 C383 1.574 . S
C400 H394 0.949 . S
C400 C404 1.368 . S
C401 C382 1.429 . S
C401 C395 1.429 . S
C401 C402 1.523 . S
C402 C383 1.368 . S
C402 C396 1.368 . S
C402 C401 1.523 . S
C403 C387 1.429 . S
C403 C399 1.429 . S
C403 C404 1.523 . S
C404 C388 1.368 . S
C404 C400 1.368 . S
C404 C403 1.523 . S
H405 C380 0.950 . S
H406 C382 0.950 . S
H407 C383 0.949 . S
H408 C385 0.950 . S
H409 C387 0.950 . S
C410 C411 1.349 . S
C410 C412 1.327 . S
C410 H435 0.950 . S
C411 C410 1.349 . S
C411 C427 1.349 . S
C412 C410 1.327 . S
C412 C431 1.429 . S
C412 H436 0.950 . S
C413 C430 1.574 . S
C413 C432 1.368 . S
C413 H437 0.949 . S
H414 C418 0.949 . S
C415 C416 1.349 . S
C415 C417 1.327 . S
C415 H438 0.950 . S
C416 C415 1.349 . S
C416 C428 1.349 . S
C417 C415 1.327 . S
C417 C433 1.429 . S
C417 H439 0.950 . S
C418 H414 0.949 . S
C418 C426 1.574 . S
C418 C434 1.368 . S
H419 C427 0.950 . S
H420 C425 0.950 . S
H421 C426 0.949 . S
H422 C428 0.950 . S
H423 C429 0.950 . S
H424 C430 0.949 . S
C425 H420 0.950 . S
C425 C427 1.327 . S
C425 C431 1.429 . S
C426 C418 1.574 . S
C426 H421 0.949 . S
C426 C432 1.368 . S
C427 C411 1.349 . S
C427 H419 0.950 . S
C427 C425 1.327 . S
C428 C416 1.349 . S
C428 H422 0.950 . S
C428 C429 1.327 . S
C429 H423 0.950 . S
C429 C428 1.327 . S
C429 C433 1.429 . S
C430 C413 1.574 . S
C430 H424 0.949 . S
C430 C434 1.368 . S
C431 C412 1.429 . S
C431 C425 1.429 . S
C431 C432 1.523 . S
C432 C413 1.368 . S
C432 C426 1.368 . S
C432 C431 1.523 . S
C433 C417 1.429 . S
C433 C429 1.429 . S
C433 C434 1.523 . S
C434 C418 1.368 . S
C434 C430 1.368 . S
C434 C433 1.523 . S
H435 C410 0.950 . S
H436 C412 0.950 . S
H437 C413 0.949 . S
H438 C415 0.950 . S
H439 C417 0.950 . S
C440 C441 1.349 1_556 S
C440 C442 1.327 . S
C440 H465 0.950 . S
C441 C440 1.349 1_554 S
C441 C457 1.349 . S
C442 C440 1.327 . S
C442 C461 1.429 1_556 S
C442 H466 0.950 . S
C443 C460 1.574 . S
C443 C462 1.368 . S
C443 H467 0.949 . S
H444 C448 0.949 . S
C445 C446 1.349 . S
C445 C447 1.327 . S
C445 H468 0.950 . S
C446 C445 1.349 . S
C446 C458 1.349 1_554 S
C447 C445 1.327 . S
C447 C463 1.429 . S
C447 H469 0.950 . S
C448 H444 0.949 . S
C448 C456 1.574 . S
C448 C464 1.368 1_556 S
H449 C457 0.950 . S
H450 C455 0.950 . S
H451 C456 0.949 . S
H452 C458 0.950 . S
H453 C459 0.950 . S
H454 C460 0.949 . S
C455 H450 0.950 . S
C455 C457 1.327 . S
C455 C461 1.429 . S
C456 C448 1.574 . S
C456 H451 0.949 . S
C456 C462 1.368 1_556 S
C457 C441 1.349 . S
C457 H449 0.950 . S
C457 C455 1.327 . S
C458 C446 1.349 1_556 S
C458 H452 0.950 . S
C458 C459 1.327 . S
C459 H453 0.950 . S
C459 C458 1.327 . S
C459 C463 1.429 1_556 S
C460 C443 1.574 . S
C460 H454 0.949 . S
C460 C464 1.368 . S
C461 C442 1.429 1_554 S
C461 C455 1.429 . S
C461 C462 1.523 1_655 S
C462 C443 1.368 . S
C462 C456 1.368 1_554 S
C462 C461 1.523 1_455 S
C463 C447 1.429 . S
C463 C459 1.429 1_554 S
C463 C464 1.523 . S
C464 C448 1.368 1_554 S
C464 C460 1.368 . S
C464 C463 1.523 . S
H465 C440 0.950 . S
H466 C442 0.950 . S
H467 C443 0.949 . S
H468 C445 0.950 . S
H469 C447 0.950 . S
C470 C471 1.349 1_556 S
C470 C472 1.327 . S
C470 H495 0.950 . S
C471 C470 1.349 1_554 S
C471 C487 1.349 . S
C472 C470 1.327 . S
C472 C491 1.429 1_556 S
C472 H496 0.950 . S
C473 C490 1.574 . S
C473 C492 1.368 . S
C473 H497 0.949 . S
H474 C478 0.949 . S
C475 C476 1.349 . S
C475 C477 1.327 . S
C475 H498 0.950 . S
C476 C475 1.349 . S
C476 C488 1.349 1_554 S
C477 C475 1.327 . S
C477 C493 1.429 . S
C477 H499 0.950 . S
C478 H474 0.949 . S
C478 C486 1.574 . S
C478 C494 1.368 1_556 S
H479 C487 0.950 . S
H480 C485 0.950 . S
H481 C486 0.949 . S
H482 C488 0.950 . S
H483 C489 0.950 . S
H484 C490 0.949 . S
C485 H480 0.950 . S
C485 C487 1.327 . S
C485 C491 1.429 . S
C486 C478 1.574 . S
C486 H481 0.949 . S
C486 C492 1.368 1_556 S
C487 C471 1.349 . S
C487 H479 0.950 . S
C487 C485 1.327 . S
C488 C476 1.349 1_556 S
C488 H482 0.950 . S
C488 C489 1.327 . S
C489 H483 0.950 . S
C489 C488 1.327 . S
C489 C493 1.429 1_556 S
C490 C473 1.574 . S
C490 H484 0.949 . S
C490 C494 1.368 . S
C491 C472 1.429 1_554 S
C491 C485 1.429 . S
C491 C492 1.523 1_455 S
C492 C473 1.368 . S
C492 C486 1.368 1_554 S
C492 C491 1.523 1_655 S
C493 C477 1.429 . S
C493 C489 1.429 1_554 S
C493 C494 1.523 . S
C494 C478 1.368 1_554 S
C494 C490 1.368 . S
C494 C493 1.523 . S
H495 C470 0.950 . S
H496 C472 0.950 . S
H497 C473 0.949 . S
H498 C475 0.950 . S
H499 C477 0.950 . S
C500 C501 1.349 . S
C500 C502 1.327 . S
C500 H525 0.950 . S
C501 C500 1.349 . S
C501 C517 1.349 . S
C502 C500 1.327 . S
C502 C521 1.429 . S
C502 H526 0.950 . S
C503 C520 1.574 . S
C503 C522 1.368 . S
C503 H527 0.949 . S
H504 C508 0.949 1_655 S
C505 C506 1.349 . S
C505 C507 1.327 . S
C505 H528 0.950 . S
C506 C505 1.349 . S
C506 C518 1.349 . S
C507 C505 1.327 . S
C507 C523 1.429 . S
C507 H529 0.950 . S
C508 H504 0.949 1_455 S
C508 C516 1.574 . S
C508 C524 1.368 1_455 S
H509 C517 0.950 . S
H510 C515 0.950 . S
H511 C516 0.949 . S
H512 C518 0.950 . S
H513 C519 0.950 . S
H514 C520 0.949 . S
C515 H510 0.950 . S
C515 C517 1.327 . S
C515 C521 1.429 . S
C516 C508 1.574 . S
C516 H511 0.949 . S
C516 C522 1.368 . S
C517 C501 1.349 . S
C517 H509 0.950 . S
C517 C515 1.327 . S
C518 C506 1.349 . S
C518 H512 0.950 . S
C518 C519 1.327 . S
C519 H513 0.950 . S
C519 C518 1.327 . S
C519 C523 1.429 . S
C520 C503 1.574 . S
C520 H514 0.949 . S
C520 C524 1.368 1_455 S
C521 C502 1.429 . S
C521 C515 1.429 . S
C521 C522 1.523 . S
C522 C503 1.368 . S
C522 C516 1.368 . S
C522 C521 1.523 . S
C523 C507 1.429 . S
C523 C519 1.429 . S
C523 C524 1.523 . S
C524 C508 1.368 1_655 S
C524 C520 1.368 1_655 S
C524 C523 1.523 . S
H525 C500 0.950 . S
H526 C502 0.950 . S
H527 C503 0.949 . S
H528 C505 0.950 . S
H529 C507 0.950 . S
C530 C531 1.349 . S
C530 C532 1.327 . S
C530 H555 0.950 . S
C531 C530 1.349 . S
C531 C547 1.349 . S
C532 C530 1.327 . S
C532 C551 1.429 . S
C532 H556 0.950 . S
C533 C550 1.574 . S
C533 C552 1.368 . S
C533 H557 0.949 . S
H534 C538 0.949 . S
C535 C536 1.349 . S
C535 C537 1.327 . S
C535 H558 0.950 . S
C536 C535 1.349 . S
C536 C548 1.349 . S
C537 C535 1.327 . S
C537 C553 1.429 . S
C537 H559 0.950 . S
C538 H534 0.949 . S
C538 C546 1.574 . S
C538 C554 1.368 1_655 S
H539 C547 0.950 . S
H540 C545 0.950 . S
H541 C546 0.949 . S
H542 C548 0.950 . S
H543 C549 0.950 . S
H544 C550 0.949 1_455 S
C545 H540 0.950 . S
C545 C547 1.327 . S
C545 C551 1.429 . S
C546 C538 1.574 . S
C546 H541 0.949 . S
C546 C552 1.368 . S
C547 C531 1.349 . S
C547 H539 0.950 . S
C547 C545 1.327 . S
C548 C536 1.349 . S
C548 H542 0.950 . S
C548 C549 1.327 . S
C549 H543 0.950 . S
C549 C548 1.327 . S
C549 C553 1.429 . S
C550 C533 1.574 . S
C550 H544 0.949 1_655 S
C550 C554 1.368 1_655 S
C551 C532 1.429 . S
C551 C545 1.429 . S
C551 C552 1.523 . S
C552 C533 1.368 . S
C552 C546 1.368 . S
C552 C551 1.523 . S
C553 C537 1.429 . S
C553 C549 1.429 . S
C553 C554 1.523 . S
C554 C538 1.368 1_455 S
C554 C550 1.368 1_455 S
C554 C553 1.523 . S
H555 C530 0.950 . S
H556 C532 0.950 . S
H557 C533 0.949 . S
H558 C535 0.950 . S
H559 C537 0.950 . S
C560 C561 1.349 1_456 S
C560 C562 1.327 . S
C560 H585 0.950 . S
C561 C560 1.349 1_654 S
C561 C577 1.349 . S
C562 C560 1.327 . S
C562 C581 1.429 1_456 S
C562 H586 0.950 . S
C563 C580 1.574 . S
C563 C582 1.376 . S
C563 H587 0.949 . S
H564 C568 0.949 . S
C565 C566 1.349 1_655 S
C565 C567 1.327 . S
C565 H588 0.950 . S
C566 C565 1.349 1_455 S
C566 C578 1.349 1_554 S
C567 C565 1.327 . S
C567 C583 1.429 1_655 S
C567 H589 0.950 . S
C568 H564 0.949 . S
C568 C576 1.574 . S
C568 C584 1.379 1_556 S
H569 C577 0.950 . S
H570 C575 0.950 . S
H571 C576 0.949 . S
H572 C578 0.950 . S
H573 C579 0.950 . S
H574 C580 0.949 . S
C575 H570 0.950 . S
C575 C577 1.327 . S
C575 C581 1.429 . S
C576 C568 1.574 . S
C576 H571 0.949 . S
C576 C582 1.362 1_456 S
C577 C561 1.349 . S
C577 H569 0.950 . S
C577 C575 1.327 . S
C578 C566 1.349 1_556 S
C578 H572 0.950 . S
C578 C579 1.327 . S
C579 H573 0.950 . S
C579 C578 1.327 . S
C579 C583 1.429 1_556 S
C580 C563 1.574 . S
C580 H574 0.949 . S
C580 C584 1.360 1_655 S
C581 C562 1.429 1_654 S
C581 C575 1.429 . S
C581 C582 1.521 . S
C582 C563 1.376 . S
C582 C576 1.362 1_654 S
C582 C581 1.521 . S
C583 C567 1.429 1_455 S
C583 C579 1.429 1_554 S
C583 C584 1.521 . S
C584 C568 1.379 1_554 S
C584 C580 1.360 1_455 S
C584 C583 1.521 . S
H585 C560 0.950 . S
H586 C562 0.950 . S
H587 C563 0.949 . S
H588 C565 0.950 . S
H589 C567 0.950 . S
C590 C591 1.349 . S
C590 C592 1.327 . S
C590 H615 0.950 . S
C591 C590 1.349 . S
C591 C607 1.349 . S
C592 C590 1.327 . S
C592 C611 1.429 . S
C592 H616 0.950 . S
C593 C610 1.574 . S
C593 C612 1.368 1_655 S
C593 H617 0.949 . S
H594 C598 0.949 . S
C595 C596 1.349 . S
C595 C597 1.327 . S
C595 H618 0.950 . S
C596 C595 1.349 . S
C596 C608 1.349 . S
C597 C595 1.327 . S
C597 C613 1.429 . S
C597 H619 0.950 . S
C598 H594 0.949 . S
C598 C606 1.574 . S
C598 C614 1.368 1_455 S
H599 C607 0.950 . S
H600 C605 0.950 . S
H601 C606 0.949 . S
H602 C608 0.950 . S
H603 C609 0.950 . S
H604 C610 0.949 . S
C605 H600 0.950 . S
C605 C607 1.327 . S
C605 C611 1.429 . S
C606 C598 1.574 . S
C606 H601 0.949 . S
C606 C612 1.368 . S
C607 C591 1.349 . S
C607 H599 0.950 . S
C607 C605 1.327 . S
C608 C596 1.349 . S
C608 H602 0.950 . S
C608 C609 1.327 . S
C609 H603 0.950 . S
C609 C608 1.327 . S
C609 C613 1.429 . S
C610 C593 1.574 . S
C610 H604 0.949 . S
C610 C614 1.368 . S
C611 C592 1.429 . S
C611 C605 1.429 . S
C611 C612 1.523 . S
C612 C593 1.368 1_455 S
C612 C606 1.368 . S
C612 C611 1.523 . S
C613 C597 1.429 . S
C613 C609 1.429 . S
C613 C614 1.523 . S
C614 C598 1.368 1_655 S
C614 C610 1.368 . S
C614 C613 1.523 . S
H615 C590 0.950 . S
H616 C592 0.950 . S
H617 C593 0.949 . S
H618 C595 0.950 . S
H619 C597 0.950 . S
C620 C621 1.349 . S
C620 C622 1.327 . S
C620 H645 0.950 . S
C621 C620 1.349 . S
C621 C637 1.349 1_554 S
C622 C620 1.327 . S
C622 C641 1.429 . S
C622 H646 0.950 . S
C623 C640 1.574 1_565 S
C623 C642 1.368 1_556 S
C623 H647 0.949 . S
H624 C628 0.949 . S
C625 C626 1.349 1_556 S
C625 C627 1.327 . S
C625 H648 0.950 . S
C626 C625 1.349 1_554 S
C626 C638 1.349 . S
C627 C625 1.327 . S
C627 C643 1.429 1_556 S
C627 H649 0.950 . S
C628 H624 0.949 . S
C628 C636 1.574 1_545 S
C628 C644 1.368 . S
H629 C637 0.950 . S
H630 C635 0.950 . S
H631 C636 0.949 . S
H632 C638 0.950 . S
H633 C639 0.950 . S
H634 C640 0.949 . S
C635 H630 0.950 . S
C635 C637 1.327 . S
C635 C641 1.429 1_556 S
C636 C628 1.574 1_565 S
C636 H631 0.949 . S
C636 C642 1.368 . S
C637 C621 1.349 1_556 S
C637 H629 0.950 . S
C637 C635 1.327 . S
C638 C626 1.349 . S
C638 H632 0.950 . S
C638 C639 1.327 . S
C639 H633 0.950 . S
C639 C638 1.327 . S
C639 C643 1.429 . S
C640 C623 1.574 1_545 S
C640 H634 0.949 . S
C640 C644 1.368 1_556 S
C641 C622 1.429 . S
C641 C635 1.429 1_554 S
C641 C642 1.523 . S
C642 C623 1.368 1_554 S
C642 C636 1.368 . S
C642 C641 1.523 . S
C643 C627 1.429 1_554 S
C643 C639 1.429 . S
C643 C644 1.523 . S
C644 C628 1.368 . S
C644 C640 1.368 1_554 S
C644 C643 1.523 . S
H645 C620 0.950 . S
H646 C622 0.950 . S
H647 C623 0.949 . S
H648 C625 0.950 . S
H649 C627 0.950 . S
C650 C651 1.349 . S
C650 C652 1.327 . S
C650 H675 0.950 . S
C651 C650 1.349 . S
C651 C667 1.349 . S
C652 C650 1.327 . S
C652 C671 1.429 . S
C652 H676 0.950 . S
C653 C670 1.574 1_545 S
C653 C672 1.368 . S
C653 H677 0.949 . S
H654 C658 0.949 . S
C655 C656 1.349 . S
C655 C657 1.327 . S
C655 H678 0.950 . S
C656 C655 1.349 . S
C656 C668 1.349 . S
C657 C655 1.327 . S
C657 C673 1.429 . S
C657 H679 0.950 . S
C658 H654 0.949 . S
C658 C666 1.574 1_565 S
C658 C674 1.368 . S
H659 C667 0.950 . S
H660 C665 0.950 . S
H661 C666 0.949 . S
H662 C668 0.950 . S
H663 C669 0.950 . S
H664 C670 0.949 . S
C665 H660 0.950 . S
C665 C667 1.327 . S
C665 C671 1.429 . S
C666 C658 1.574 1_545 S
C666 H661 0.949 . S
C666 C672 1.368 . S
C667 C651 1.349 . S
C667 H659 0.950 . S
C667 C665 1.327 . S
C668 C656 1.349 . S
C668 H662 0.950 . S
C668 C669 1.327 . S
C669 H663 0.950 . S
C669 C668 1.327 . S
C669 C673 1.429 . S
C670 C653 1.574 1_565 S
C670 H664 0.949 . S
C670 C674 1.368 . S
C671 C652 1.429 . S
C671 C665 1.429 . S
C671 C672 1.523 . S
C672 C653 1.368 . S
C672 C666 1.368 . S
C672 C671 1.523 . S
C673 C657 1.429 . S
C673 C669 1.429 . S
C673 C674 1.523 . S
C674 C658 1.368 . S
C674 C670 1.368 . S
C674 C673 1.523 . S
H675 C650 0.950 . S
H676 C652 0.950 . S
H677 C653 0.949 . S
H678 C655 0.950 . S
H679 C657 0.950 . S
C680 C681 1.349 1_556 S
C680 C682 1.327 . S
C680 H705 0.950 . S
C681 C680 1.349 1_554 S
C681 C697 1.349 . S
C682 C680 1.327 . S
C682 C701 1.429 1_556 S
C682 H706 0.950 . S
C683 C700 1.574 . S
C683 C702 1.368 . S
C683 H707 0.949 . S
H684 C688 0.949 . S
C685 C686 1.349 . S
C685 C687 1.327 . S
C685 H708 0.950 . S
C686 C685 1.349 . S
C686 C698 1.349 1_554 S
C687 C685 1.327 . S
C687 C703 1.429 . S
C687 H709 0.950 . S
C688 H684 0.949 . S
C688 C696 1.574 . S
C688 C704 1.368 1_556 S
H689 C697 0.950 . S
H690 C695 0.950 . S
H691 C696 0.949 . S
H692 C698 0.950 . S
H693 C699 0.950 . S
H694 C700 0.949 . S
C695 H690 0.950 . S
C695 C697 1.327 . S
C695 C701 1.429 . S
C696 C688 1.574 . S
C696 H691 0.949 . S
C696 C702 1.368 1_556 S
C697 C681 1.349 . S
C697 H689 0.950 . S
C697 C695 1.327 . S
C698 C686 1.349 1_556 S
C698 H692 0.950 . S
C698 C699 1.327 . S
C699 H693 0.950 . S
C699 C698 1.327 . S
C699 C703 1.429 1_556 S
C700 C683 1.574 . S
C700 H694 0.949 . S
C700 C704 1.368 . S
C701 C682 1.429 1_554 S
C701 C695 1.429 . S
C701 C702 1.523 . S
C702 C683 1.368 . S
C702 C696 1.368 1_554 S
C702 C701 1.523 . S
C703 C687 1.429 . S
C703 C699 1.429 1_554 S
C703 C704 1.523 . S
C704 C688 1.368 1_554 S
C704 C700 1.368 . S
C704 C703 1.523 . S
H705 C680 0.950 . S
H706 C682 0.950 . S
H707 C683 0.949 . S
H708 C685 0.950 . S
H709 C687 0.950 . S
C710 C711 1.349 1_556 S
C710 C712 1.327 . S
C710 H735 0.950 . S
C711 C710 1.349 1_554 S
C711 C727 1.349 . S
C712 C710 1.327 . S
C712 C731 1.429 1_556 S
C712 H736 0.950 . S
C713 C730 1.574 . S
C713 C732 1.368 . S
C713 H737 0.949 . S
H714 C718 0.949 . S
C715 C716 1.349 . S
C715 C717 1.327 . S
C715 H738 0.950 . S
C716 C715 1.349 . S
C716 C728 1.349 1_554 S
C717 C715 1.327 . S
C717 C733 1.429 . S
C717 H739 0.950 . S
C718 H714 0.949 . S
C718 C726 1.574 . S
C718 C734 1.368 1_556 S
H719 C727 0.950 . S
H720 C725 0.950 . S
H721 C726 0.949 . S
H722 C728 0.950 . S
H723 C729 0.950 . S
H724 C730 0.949 . S
C725 H720 0.950 . S
C725 C727 1.327 . S
C725 C731 1.429 . S
C726 C718 1.574 . S
C726 H721 0.949 . S
C726 C732 1.368 1_556 S
C727 C711 1.349 . S
C727 H719 0.950 . S
C727 C725 1.327 . S
C728 C716 1.349 1_556 S
C728 H722 0.950 . S
C728 C729 1.327 . S
C729 H723 0.950 . S
C729 C728 1.327 . S
C729 C733 1.429 1_556 S
C730 C713 1.574 . S
C730 H724 0.949 . S
C730 C734 1.368 . S
C731 C712 1.429 1_554 S
C731 C725 1.429 . S
C731 C732 1.523 . S
C732 C713 1.368 . S
C732 C726 1.368 1_554 S
C732 C731 1.523 . S
C733 C717 1.429 . S
C733 C729 1.429 1_554 S
C733 C734 1.523 . S
C734 C718 1.368 1_554 S
C734 C730 1.368 . S
C734 C733 1.523 . S
H735 C710 0.950 . S
H736 C712 0.950 . S
H737 C713 0.949 . S
H738 C715 0.950 . S
H739 C717 0.950 . S
C740 C741 1.349 . S
C740 C742 1.327 . S
C740 H765 0.950 . S
C741 C740 1.349 . S
C741 C757 1.349 . S
C742 C740 1.327 . S
C742 C761 1.429 . S
C742 H766 0.950 . S
C743 C760 1.574 . S
C743 C762 1.368 . S
C743 H767 0.949 . S
H744 C748 0.949 . S
C745 C746 1.349 . S
C745 C747 1.327 . S
C745 H768 0.950 . S
C746 C745 1.349 . S
C746 C758 1.349 . S
C747 C745 1.327 . S
C747 C763 1.429 . S
C747 H769 0.950 . S
C748 H744 0.949 . S
C748 C756 1.574 . S
C748 C764 1.368 . S
H749 C757 0.950 . S
H750 C755 0.950 . S
H751 C756 0.949 . S
H752 C758 0.950 . S
H753 C759 0.950 . S
H754 C760 0.949 . S
C755 H750 0.950 . S
C755 C757 1.327 . S
C755 C761 1.429 . S
C756 C748 1.574 . S
C756 H751 0.949 . S
C756 C762 1.368 . S
C757 C741 1.349 . S
C757 H749 0.950 . S
C757 C755 1.327 . S
C758 C746 1.349 . S
C758 H752 0.950 . S
C758 C759 1.327 . S
C759 H753 0.950 . S
C759 C758 1.327 . S
C759 C763 1.429 . S
C760 C743 1.574 . S
C760 H754 0.949 . S
C760 C764 1.368 . S
C761 C742 1.429 . S
C761 C755 1.429 . S
C761 C762 1.523 . S
C762 C743 1.368 . S
C762 C756 1.368 . S
C762 C761 1.523 . S
C763 C747 1.429 . S
C763 C759 1.429 . S
C763 C764 1.523 . S
C764 C748 1.368 . S
C764 C760 1.368 . S
C764 C763 1.523 . S
H765 C740 0.950 . S
H766 C742 0.950 . S
H767 C743 0.949 . S
H768 C745 0.950 . S
H769 C747 0.950 . S
C770 C771 1.349 . S
C770 C772 1.327 . S
C770 H795 0.950 . S
C771 C770 1.349 . S
C771 C787 1.349 . S
C772 C770 1.327 . S
C772 C791 1.429 . S
C772 H796 0.950 . S
C773 C790 1.574 . S
C773 C792 1.368 . S
C773 H797 0.949 . S
H774 C778 0.949 . S
C775 C776 1.349 . S
C775 C777 1.327 . S
C775 H798 0.950 . S
C776 C775 1.349 . S
C776 C788 1.349 . S
C777 C775 1.327 . S
C777 C793 1.429 . S
C777 H799 0.950 . S
C778 H774 0.949 . S
C778 C786 1.574 . S
C778 C794 1.368 . S
H779 C787 0.950 . S
H780 C785 0.950 . S
H781 C786 0.949 . S
H782 C788 0.950 . S
H783 C789 0.950 . S
H784 C790 0.949 . S
C785 H780 0.950 . S
C785 C787 1.327 . S
C785 C791 1.429 . S
C786 C778 1.574 . S
C786 H781 0.949 . S
C786 C792 1.368 . S
C787 C771 1.349 . S
C787 H779 0.950 . S
C787 C785 1.327 . S
C788 C776 1.349 . S
C788 H782 0.950 . S
C788 C789 1.327 . S
C789 H783 0.950 . S
C789 C788 1.327 . S
C789 C793 1.429 . S
C790 C773 1.574 . S
C790 H784 0.949 . S
C790 C794 1.368 . S
C791 C772 1.429 . S
C791 C785 1.429 . S
C791 C792 1.523 . S
C792 C773 1.368 . S
C792 C786 1.368 . S
C792 C791 1.523 . S
C793 C777 1.429 . S
C793 C789 1.429 . S
C793 C794 1.523 . S
C794 C778 1.368 . S
C794 C790 1.368 . S
C794 C793 1.523 . S
H795 C770 0.950 . S
H796 C772 0.950 . S
H797 C773 0.949 . S
H798 C775 0.950 . S
H799 C777 0.950 . S
C800 C801 1.349 . S
C800 C802 1.327 . S
C800 H825 0.950 . S
C801 C800 1.349 . S
C801 C817 1.349 . S
C802 C800 1.327 . S
C802 C821 1.429 . S
C802 H826 0.950 . S
C803 C820 1.574 . S
C803 C822 1.368 1_655 S
C803 H827 0.949 . S
H804 C808 0.949 . S
C805 C806 1.349 . S
C805 C807 1.327 . S
C805 H828 0.950 . S
C806 C805 1.349 . S
C806 C818 1.349 . S
C807 C805 1.327 . S
C807 C823 1.429 . S
C807 H829 0.950 . S
C808 H804 0.949 . S
C808 C816 1.574 . S
C808 C824 1.368 1_455 S
H809 C817 0.950 . S
H810 C815 0.950 1_655 S
H811 C816 0.949 . S
H812 C818 0.950 1_455 S
H813 C819 0.950 . S
H814 C820 0.949 . S
C815 H810 0.950 1_455 S
C815 C817 1.327 . S
C815 C821 1.429 . S
C816 C808 1.574 . S
C816 H811 0.949 . S
C816 C822 1.368 . S
C817 C801 1.349 . S
C817 H809 0.950 . S
C817 C815 1.327 . S
C818 C806 1.349 . S
C818 H812 0.950 1_655 S
C818 C819 1.327 1_655 S
C819 H813 0.950 . S
C819 C818 1.327 1_455 S
C819 C823 1.429 1_455 S
C820 C803 1.574 . S
C820 H814 0.949 . S
C820 C824 1.368 . S
C821 C802 1.429 . S
C821 C815 1.429 . S
C821 C822 1.523 . S
C822 C803 1.368 1_455 S
C822 C816 1.368 . S
C822 C821 1.523 . S
C823 C807 1.429 . S
C823 C819 1.429 1_655 S
C823 C824 1.523 . S
C824 C808 1.368 1_655 S
C824 C820 1.368 . S
C824 C823 1.523 . S
H825 C800 0.950 . S
H826 C802 0.950 . S
H827 C803 0.949 . S
H828 C805 0.950 . S
H829 C807 0.950 . S
C830 C831 1.349 . S
C830 C832 1.327 . S
C830 H855 0.950 . S
C831 C830 1.349 . S
C831 C847 1.349 . S
C832 C830 1.327 . S
C832 C851 1.429 . S
C832 H856 0.950 . S
C833 C850 1.574 . S
C833 C852 1.368 1_455 S
C833 H857 0.949 . S
H834 C838 0.949 . S
C835 C836 1.349 . S
C835 C837 1.327 . S
C835 H858 0.950 . S
C836 C835 1.349 . S
C836 C848 1.349 . S
C837 C835 1.327 . S
C837 C853 1.429 . S
C837 H859 0.950 . S
C838 H834 0.949 . S
C838 C846 1.574 . S
C838 C854 1.368 . S
H839 C847 0.950 . S
H840 C845 0.950 1_455 S
H841 C846 0.949 . S
H842 C848 0.950 1_655 S
H843 C849 0.950 . S
H844 C850 0.949 . S
C845 H840 0.950 1_655 S
C845 C847 1.327 . S
C845 C851 1.429 . S
C846 C838 1.574 . S
C846 H841 0.949 . S
C846 C852 1.368 . S
C847 C831 1.349 . S
C847 H839 0.950 . S
C847 C845 1.327 . S
C848 C836 1.349 . S
C848 H842 0.950 1_455 S
C848 C849 1.327 1_455 S
C849 H843 0.950 . S
C849 C848 1.327 1_655 S
C849 C853 1.429 1_655 S
C850 C833 1.574 . S
C850 H844 0.949 . S
C850 C854 1.368 1_455 S
C851 C832 1.429 . S
C851 C845 1.429 . S
C851 C852 1.523 . S
C852 C833 1.368 1_655 S
C852 C846 1.368 . S
C852 C851 1.523 . S
C853 C837 1.429 . S
C853 C849 1.429 1_455 S
C853 C854 1.523 1_455 S
C854 C838 1.368 . S
C854 C850 1.368 1_655 S
C854 C853 1.523 1_655 S
H855 C830 0.950 . S
H856 C832 0.950 . S
H857 C833 0.949 . S
H858 C835 0.950 . S
H859 C837 0.950 . S
C860 C861 1.349 . S
C860 C862 1.327 . S
C860 H885 0.950 . S
C861 C860 1.349 . S
C861 C877 1.349 . S
C862 C860 1.327 . S
C862 C881 1.429 . S
C862 H886 0.950 . S
C863 C880 1.574 . S
C863 C882 1.368 1_455 S
C863 H887 0.949 . S
H864 C868 0.949 . S
C865 C866 1.349 . S
C865 C867 1.327 . S
C865 H888 0.950 . S
C866 C865 1.349 . S
C866 C878 1.349 . S
C867 C865 1.327 . S
C867 C883 1.429 . S
C867 H889 0.950 . S
C868 H864 0.949 . S
C868 C876 1.574 . S
C868 C884 1.368 1_655 S
H869 C877 0.950 . S
H870 C875 0.950 1_455 S
H871 C876 0.949 . S
H872 C878 0.942 1_655 S
H873 C879 0.965 . S
H874 C880 0.949 . S
C875 H870 0.950 1_655 S
C875 C877 1.327 . S
C875 C881 1.429 . S
C876 C868 1.574 . S
C876 H871 0.949 . S
C876 C882 1.368 . S
C877 C861 1.349 . S
C877 H869 0.950 . S
C877 C875 1.327 . S
C878 C866 1.349 . S
C878 H872 0.942 1_455 S
C878 C879 1.321 1_455 S
C879 H873 0.965 . S
C879 C878 1.321 1_655 S
C879 C883 1.420 1_655 S
C880 C863 1.574 . S
C880 H874 0.949 . S
C880 C884 1.368 . S
C881 C862 1.429 . S
C881 C875 1.429 . S
C881 C882 1.523 . S
C882 C863 1.368 1_655 S
C882 C876 1.368 . S
C882 C881 1.523 . S
C883 C867 1.429 . S
C883 C879 1.420 1_455 S
C883 C884 1.523 . S
C884 C868 1.368 1_455 S
C884 C880 1.368 . S
C884 C883 1.523 . S
H885 C860 0.950 . S
H886 C862 0.950 . S
H887 C863 0.949 . S
H888 C865 0.950 . S
H889 C867 0.950 . S
C890 C891 1.349 . S
C890 C892 1.327 1_655 S
C890 H915 0.950 1_655 S
C891 C890 1.349 . S
C891 C907 1.349 . S
C892 C890 1.327 1_455 S
C892 C911 1.429 1_455 S
C892 H916 0.950 . S
C893 C910 1.574 . S
C893 C912 1.368 1_655 S
C893 H917 0.949 . S
H894 C898 0.949 . S
C895 C896 1.349 . S
C895 C897 1.327 . S
C895 H918 0.950 . S
C896 C895 1.349 . S
C896 C908 1.349 . S
C897 C895 1.327 . S
C897 C913 1.429 . S
C897 H919 0.950 1_455 S
C898 H894 0.949 . S
C898 C906 1.574 . S
C898 C914 1.368 . S
H899 C907 0.950 . S
H900 C905 0.950 . S
H901 C906 0.949 . S
H902 C908 0.950 . S
H903 C909 0.950 . S
H904 C910 0.949 . S
C905 H900 0.950 . S
C905 C907 1.327 . S
C905 C911 1.429 . S
C906 C898 1.574 . S
C906 H901 0.949 . S
C906 C912 1.368 . S
C907 C891 1.349 . S
C907 H899 0.950 . S
C907 C905 1.327 . S
C908 C896 1.349 . S
C908 H902 0.950 . S
C908 C909 1.327 . S
C909 H903 0.950 . S
C909 C908 1.327 . S
C909 C913 1.429 . S
C910 C893 1.574 . S
C910 H904 0.949 . S
C910 C914 1.368 1_655 S
C911 C892 1.429 1_655 S
C911 C905 1.429 . S
C911 C912 1.523 1_655 S
C912 C893 1.368 1_455 S
C912 C906 1.368 . S
C912 C911 1.523 1_455 S
C913 C897 1.429 . S
C913 C909 1.429 . S
C913 C914 1.523 . S
C914 C898 1.368 . S
C914 C910 1.368 1_455 S
C914 C913 1.523 . S
H915 C890 0.950 1_455 S
H916 C892 0.950 . S
H917 C893 0.949 . S
H918 C895 0.950 . S
H919 C897 0.950 1_655 S
C920 C921 1.349 . S
C920 C922 1.327 . S
C920 H945 0.950 . S
C921 C920 1.349 . S
C921 C937 1.349 . S
C922 C920 1.327 . S
C922 C941 1.429 . S
C922 H946 0.950 . S
C923 C940 1.574 . S
C923 C942 1.368 . S
C923 H947 0.949 . S
H924 C928 0.949 . S
C925 C926 1.349 . S
C925 C927 1.327 . S
C925 H948 0.950 . S
C926 C925 1.349 . S
C926 C938 1.349 . S
C927 C925 1.327 . S
C927 C943 1.429 . S
C927 H949 0.950 . S
C928 H924 0.949 . S
C928 C936 1.574 . S
C928 C944 1.368 . S
H929 C937 0.950 . S
H930 C935 0.950 . S
H931 C936 0.949 . S
H932 C938 0.950 . S
H933 C939 0.950 . S
H934 C940 0.949 . S
C935 H930 0.950 . S
C935 C937 1.327 . S
C935 C941 1.429 . S
C936 C928 1.574 . S
C936 H931 0.949 . S
C936 C942 1.368 . S
C937 C921 1.349 . S
C937 H929 0.950 . S
C937 C935 1.327 . S
C938 C926 1.349 . S
C938 H932 0.950 . S
C938 C939 1.327 . S
C939 H933 0.950 . S
C939 C938 1.327 . S
C939 C943 1.429 . S
C940 C923 1.574 . S
C940 H934 0.949 . S
C940 C944 1.368 . S
C941 C922 1.429 . S
C941 C935 1.429 . S
C941 C942 1.523 . S
C942 C923 1.368 . S
C942 C936 1.368 . S
C942 C941 1.523 . S
C943 C927 1.429 . S
C943 C939 1.429 . S
C943 C944 1.523 . S
C944 C928 1.368 . S
C944 C940 1.368 . S
C944 C943 1.523 . S
H945 C920 0.950 . S
H946 C922 0.950 . S
H947 C923 0.949 . S
H948 C925 0.950 . S
H949 C927 0.950 . S
C950 C951 1.349 . S
C950 C952 1.327 . S
C950 H975 0.950 . S
C951 C950 1.349 . S
C951 C967 1.349 . S
C952 C950 1.327 . S
C952 C971 1.429 . S
C952 H976 0.950 . S
C953 C970 1.574 . S
C953 C972 1.368 . S
C953 H977 0.949 . S
H954 C958 0.949 . S
C955 C956 1.349 . S
C955 C957 1.327 . S
C955 H978 0.950 . S
C956 C955 1.349 . S
C956 C968 1.349 . S
C957 C955 1.327 . S
C957 C973 1.429 . S
C957 H979 0.950 . S
C958 H954 0.949 . S
C958 C966 1.574 . S
C958 C974 1.368 . S
H959 C967 0.950 . S
H960 C965 0.950 . S
H961 C966 0.949 . S
H962 C968 0.950 . S
H963 C969 0.950 . S
H964 C970 0.949 . S
C965 H960 0.950 . S
C965 C967 1.327 . S
C965 C971 1.429 . S
C966 C958 1.574 . S
C966 H961 0.949 . S
C966 C972 1.368 . S
C967 C951 1.349 . S
C967 H959 0.950 . S
C967 C965 1.327 . S
C968 C956 1.349 . S
C968 H962 0.950 . S
C968 C969 1.327 . S
C969 H963 0.950 . S
C969 C968 1.327 . S
C969 C973 1.429 . S
C970 C953 1.574 . S
C970 H964 0.949 . S
C970 C974 1.368 . S
C971 C952 1.429 . S
C971 C965 1.429 . S
C971 C972 1.523 . S
C972 C953 1.368 . S
C972 C966 1.368 . S
C972 C971 1.523 . S
C973 C957 1.429 . S
C973 C969 1.429 . S
C973 C974 1.523 . S
C974 C958 1.368 . S
C974 C970 1.368 . S
C974 C973 1.523 . S
H975 C950 0.950 . S
H976 C952 0.950 . S
H977 C953 0.949 . S
H978 C955 0.950 . S
H979 C957 0.950 . S
C980 C981 1.349 . S
C980 C982 1.327 . S
C980 H1005 0.950 . S
C981 C980 1.349 . S
C981 C997 1.349 . S
C982 C980 1.327 . S
C982 C1001 1.429 . S
C982 H1006 0.950 . S
C983 C1000 1.574 . S
C983 C1002 1.368 . S
C983 H1007 0.949 . S
H984 C988 0.949 . S
C985 C986 1.349 . S
C985 C987 1.327 . S
C985 H1008 0.950 . S
C986 C985 1.349 . S
C986 C998 1.349 . S
C987 C985 1.327 . S
C987 C1003 1.429 . S
C987 H1009 0.950 . S
C988 H984 0.949 . S
C988 C996 1.574 . S
C988 C1004 1.368 . S
H989 C997 0.950 . S
H990 C995 0.950 . S
H991 C996 0.949 . S
H992 C998 0.950 . S
H993 C999 0.950 . S
H994 C1000 0.949 . S
C995 H990 0.950 . S
C995 C997 1.327 . S
C995 C1001 1.429 . S
C996 C988 1.574 . S
C996 H991 0.949 . S
C996 C1002 1.368 . S
C997 C981 1.349 . S
C997 H989 0.950 . S
C997 C995 1.327 . S
C998 C986 1.349 . S
C998 H992 0.950 . S
C998 C999 1.327 . S
C999 H993 0.950 . S
C999 C998 1.327 . S
C999 C1003 1.429 . S
C1000 C983 1.574 . S
C1000 H994 0.949 . S
C1000 C1004 1.368 . S
C1001 C982 1.429 . S
C1001 C995 1.429 . S
C1001 C1002 1.523 . S
C1002 C983 1.368 . S
C1002 C996 1.368 . S
C1002 C1001 1.523 . S
C1003 C987 1.429 . S
C1003 C999 1.429 . S
C1003 C1004 1.523 . S
C1004 C988 1.368 . S
C1004 C1000 1.368 . S
C1004 C1003 1.523 . S
H1005 C980 0.950 . S
H1006 C982 0.950 . S
H1007 C983 0.949 . S
H1008 C985 0.950 . S
H1009 C987 0.950 . S
C1010 C1011 1.349 . S
C1010 C1012 1.327 . S
C1010 H1035 0.950 . S
C1011 C1010 1.349 . S
C1011 C1027 1.349 . S
C1012 C1010 1.327 . S
C1012 C1031 1.429 . S
C1012 H1036 0.950 . S
C1013 C1030 1.574 . S
C1013 C1032 1.368 . S
C1013 H1037 0.949 . S
H1014 C1018 0.949 . S
C1015 C1016 1.349 . S
C1015 C1017 1.327 . S
C1015 H1038 0.950 . S
C1016 C1015 1.349 . S
C1016 C1028 1.349 . S
C1017 C1015 1.327 . S
C1017 C1033 1.429 . S
C1017 H1039 0.950 . S
C1018 H1014 0.949 . S
C1018 C1026 1.574 . S
C1018 C1034 1.368 . S
H1019 C1027 0.950 . S
H1020 C1025 0.950 . S
H1021 C1026 0.949 . S
H1022 C1028 0.950 . S
H1023 C1029 0.950 . S
H1024 C1030 0.949 . S
C1025 H1020 0.950 . S
C1025 C1027 1.327 . S
C1025 C1031 1.429 . S
C1026 C1018 1.574 . S
C1026 H1021 0.949 . S
C1026 C1032 1.368 . S
C1027 C1011 1.349 . S
C1027 H1019 0.950 . S
C1027 C1025 1.327 . S
C1028 C1016 1.349 . S
C1028 H1022 0.950 . S
C1028 C1029 1.327 . S
C1029 H1023 0.950 . S
C1029 C1028 1.327 . S
C1029 C1033 1.429 . S
C1030 C1013 1.574 . S
C1030 H1024 0.949 . S
C1030 C1034 1.368 . S
C1031 C1012 1.429 . S
C1031 C1025 1.429 . S
C1031 C1032 1.523 . S
C1032 C1013 1.368 . S
C1032 C1026 1.368 . S
C1032 C1031 1.523 . S
C1033 C1017 1.429 . S
C1033 C1029 1.429 . S
C1033 C1034 1.523 . S
C1034 C1018 1.368 . S
C1034 C1030 1.368 . S
C1034 C1033 1.523 . S
H1035 C1010 0.950 . S
H1036 C1012 0.950 . S
H1037 C1013 0.949 . S
H1038 C1015 0.950 . S
H1039 C1017 0.950 . S
C321 C15 0.567 . S
C326 C6 0.567 . S
C351 C55 0.567 . S
C356 C46 0.567 . S
C381 C99 5.076 . S
C386 C90 5.076 . S
C411 C139 5.076 . S
C416 C130 5.076 . S
C441 C175 0.567 . S
C446 C166 0.567 . S
C471 C206 0.567 . S
C476 C215 0.567 . S
C501 C259 5.076 . S
C506 C250 5.076 . S
C531 C290 5.076 . S
C536 C299 5.076 . S
C561 C59 4.748 . S
C566 C10 4.748 . S
C591 C126 0.578 . S
C596 C95 0.578 . S
C621 C170 4.748 . S
C626 C219 4.748 . S
C651 C255 0.578 . S
C656 C286 0.578 . S
C681 C19 4.263 . S
C686 C210 4.263 . S
C711 C179 4.263 . S
C716 C50 4.263 . S
C741 C86 0.433 . S
C746 C295 0.433 . S
C771 C135 0.433 . S
C776 C246 0.433 . S
C801 C18 1.682 . S
C806 C129 1.643 . S
C831 C58 1.486 . S
C836 C89 1.539 . S
C861 C49 1.682 . S
C866 C98 1.643 . S
C891 C138 1.539 . S
C896 C9 1.486 . S
C921 C178 1.682 . S
C926 C289 1.643 . S
C951 C218 1.485 . S
C956 C249 1.539 . S
C981 C209 1.682 . S
C986 C258 1.643 . S
C1011 C298 1.539 . S
C1016 C169 1.486 . S
