# Generated by pormake.
# Topology wjd, (6)-cn, num edge types: 1
# Building blocks:
#     Node 0, Type 0, BuildingBlock: HISSIN_clean_sbu_0, # of connection points: 6
#     Node 1, Type 0, BuildingBlock: HISSIN_clean_sbu_0, # of connection points: 6
#     Node 2, Type 0, BuildingBlock: HISSIN_clean_sbu_0, # of connection points: 6
#     Node 3, Type 0, BuildingBlock: HISSIN_clean_sbu_0, # of connection points: 6
#     Node 4, Type 0, BuildingBlock: HISSIN_clean_sbu_0, # of connection points: 6
#     Node 5, Type 0, BuildingBlock: HISSIN_clean_sbu_0, # of connection points: 6
#     Node 6, Type 0, BuildingBlock: HISSIN_clean_sbu_0, # of connection points: 6
#     Node 7, Type 0, BuildingBlock: HISSIN_clean_sbu_0, # of connection points: 6
#     Node 8, Type 0, BuildingBlock: HISSIN_clean_sbu_0, # of connection points: 6
#     Node 9, Type 0, BuildingBlock: HISSIN_clean_sbu_0, # of connection points: 6
#     Node 10, Type 0, BuildingBlock: HISSIN_clean_sbu_0, # of connection points: 6
#     Node 11, Type 0, BuildingBlock: HISSIN_clean_sbu_0, # of connection points: 6
#     Edge 12, Type (0, 0), BuildingBlock: KIFKEQ_clean_linker_1, # of connection points: 2
#     Edge 13, Type (0, 0), BuildingBlock: KIFKEQ_clean_linker_1, # of connection points: 2
#     Edge 14, Type (0, 0), BuildingBlock: KIFKEQ_clean_linker_1, # of connection points: 2
#     Edge 15, Type (0, 0), BuildingBlock: KIFKEQ_clean_linker_1, # of connection points: 2
#     Edge 16, Type (0, 0), BuildingBlock: KIFKEQ_clean_linker_1, # of connection points: 2
#     Edge 17, Type (0, 0), BuildingBlock: KIFKEQ_clean_linker_1, # of connection points: 2
#     Edge 18, Type (0, 0), BuildingBlock: KIFKEQ_clean_linker_1, # of connection points: 2
#     Edge 19, Type (0, 0), BuildingBlock: KIFKEQ_clean_linker_1, # of connection points: 2
#     Edge 20, Type (0, 0), BuildingBlock: KIFKEQ_clean_linker_1, # of connection points: 2
#     Edge 21, Type (0, 0), BuildingBlock: KIFKEQ_clean_linker_1, # of connection points: 2
#     Edge 22, Type (0, 0), BuildingBlock: KIFKEQ_clean_linker_1, # of connection points: 2
#     Edge 23, Type (0, 0), BuildingBlock: KIFKEQ_clean_linker_1, # of connection points: 2
#     Edge 24, Type (0, 0), BuildingBlock: KIFKEQ_clean_linker_1, # of connection points: 2
#     Edge 25, Type (0, 0), BuildingBlock: KIFKEQ_clean_linker_1, # of connection points: 2
#     Edge 26, Type (0, 0), BuildingBlock: KIFKEQ_clean_linker_1, # of connection points: 2
#     Edge 27, Type (0, 0), BuildingBlock: KIFKEQ_clean_linker_1, # of connection points: 2
#     Edge 28, Type (0, 0), BuildingBlock: KIFKEQ_clean_linker_1, # of connection points: 2
#     Edge 29, Type (0, 0), BuildingBlock: KIFKEQ_clean_linker_1, # of connection points: 2
#     Edge 30, Type (0, 0), BuildingBlock: KIFKEQ_clean_linker_1, # of connection points: 2
#     Edge 31, Type (0, 0), BuildingBlock: KIFKEQ_clean_linker_1, # of connection points: 2
#     Edge 32, Type (0, 0), BuildingBlock: KIFKEQ_clean_linker_1, # of connection points: 2
#     Edge 33, Type (0, 0), BuildingBlock: KIFKEQ_clean_linker_1, # of connection points: 2
#     Edge 34, Type (0, 0), BuildingBlock: KIFKEQ_clean_linker_1, # of connection points: 2
#     Edge 35, Type (0, 0), BuildingBlock: KIFKEQ_clean_linker_1, # of connection points: 2
#     Edge 36, Type (0, 0), BuildingBlock: KIFKEQ_clean_linker_1, # of connection points: 2
#     Edge 37, Type (0, 0), BuildingBlock: KIFKEQ_clean_linker_1, # of connection points: 2
#     Edge 38, Type (0, 0), BuildingBlock: KIFKEQ_clean_linker_1, # of connection points: 2
#     Edge 39, Type (0, 0), BuildingBlock: KIFKEQ_clean_linker_1, # of connection points: 2
#     Edge 40, Type (0, 0), BuildingBlock: KIFKEQ_clean_linker_1, # of connection points: 2
#     Edge 41, Type (0, 0), BuildingBlock: KIFKEQ_clean_linker_1, # of connection points: 2
#     Edge 42, Type (0, 0), BuildingBlock: KIFKEQ_clean_linker_1, # of connection points: 2
#     Edge 43, Type (0, 0), BuildingBlock: KIFKEQ_clean_linker_1, # of connection points: 2
#     Edge 44, Type (0, 0), BuildingBlock: KIFKEQ_clean_linker_1, # of connection points: 2
#     Edge 45, Type (0, 0), BuildingBlock: KIFKEQ_clean_linker_1, # of connection points: 2
#     Edge 46, Type (0, 0), BuildingBlock: KIFKEQ_clean_linker_1, # of connection points: 2
#     Edge 47, Type (0, 0), BuildingBlock: KIFKEQ_clean_linker_1, # of connection points: 2
# Relax obj value: 0.092
# Max RMSD: 0.205
# Mean RMSD: 0.205
data_MOF--net-wjd--node1-HISSIN_clean_sbu_0--edge1-KIFKEQ_clean_linker_1
_symmetry_space_group_name_H-M    P1
_symmetry_Int_Tables_number       1
_symmetry_cell_setting            triclinic
loop_
_symmetry_equiv_pos_as_xyz
'x, y, z'
_cell_length_a     40.618903
_cell_length_b     40.572237
_cell_length_c     54.920058
_cell_angle_alpha  90.012044
_cell_angle_beta   89.889801
_cell_angle_gamma 119.81038
loop_
_atom_site_label
_atom_site_type_symbol
_atom_site_fract_x
_atom_site_fract_y
_atom_site_fract_z
_atom_type_partial_charge
Eu0 Eu 0.38239 0.18811 0.11734 0.0
Eu1 Eu 0.33474 0.09988 0.13883 0.0
C2 C 0.36874 0.17117 0.17479 0.0
C3 C 0.45484 0.2941 0.10396 0.0
C4 C 0.47047 0.30553 0.12732 0.0
C5 C 0.50296 0.35529 0.08799 0.0
C6 C 0.50188 0.34177 0.13101 0.0
C7 C 0.47154 0.31913 0.08435 0.0
C8 C 0.51837 0.36732 0.11142 0.0
C9 C 0.41981 0.25743 0.09988 0.0
O10 O 0.28983 0.11414 0.12635 0.0
O11 O 0.32503 0.17934 0.12665 0.0
C12 C 0.29232 0.14779 0.12618 0.0
O13 O 0.34882 0.14713 0.08652 0.0
O14 O 0.30897 0.05616 0.16718 0.0
O15 O 0.30253 0.04008 0.12919 0.0
O16 O 0.35813 0.10097 0.10188 0.0
C17 C 0.34856 0.11482 0.0836 0.0
O18 O 0.42576 0.16947 0.12089 0.0
O19 O 0.39641 0.1169 0.14608 0.0
O20 O 0.33905 0.13837 0.16933 0.0
O21 O 0.42328 0.22929 0.09132 0.0
O22 O 0.39374 0.24646 0.11669 0.0
O23 O 0.39383 0.19217 0.15811 0.0
C24 C 0.25086 1.00294 0.15461 0.0
C25 C 0.22496 1.01499 0.14854 0.0
C26 C 0.19819 0.93903 0.16094 0.0
C27 C 0.18595 0.98909 0.14821 0.0
C28 C 0.2372 0.96498 0.1612 0.0
C29 C 0.17209 0.95055 0.15391 0.0
C30 C 0.29194 0.02862 0.15146 0.0
C31 C 0.42684 0.14371 0.13487 0.0
H32 H 0.45798 0.28672 0.14277 0.0
H33 H 0.51526 0.37377 0.07239 0.0
H34 H 0.51267 0.35004 0.14933 0.0
H35 H 0.45992 0.3109 0.06619 0.0
H36 H 0.235 0.04414 0.14317 0.0
H37 H 0.18854 0.90977 0.16584 0.0
H38 H 0.16685 0.99897 0.14247 0.0
H39 H 0.25677 0.95511 0.16584 0.0
Eu40 Eu 0.81834 0.7158 0.37846 0.0
Eu41 Eu 0.85357 0.66654 0.40488 0.0
C42 C 0.81648 0.70711 0.43611 0.0
C43 C 0.80984 0.80177 0.36265 0.0
C44 C 0.83125 0.82133 0.38316 0.0
C45 C 0.81489 0.86048 0.34772 0.0
C46 C 0.84399 0.86009 0.38609 0.0
C47 C 0.80202 0.82165 0.34488 0.0
C48 C 0.83579 0.88019 0.36848 0.0
C49 C 0.79628 0.7609 0.35959 0.0
O50 O 0.79078 0.62756 0.40323 0.0
O51 O 0.77286 0.65397 0.3724 0.0
C52 C 0.76628 0.62514 0.38675 0.0
O53 O 0.85134 0.70448 0.35014 0.0
O54 O 0.8496 0.62153 0.42891 0.0
O55 O 0.90173 0.65736 0.40957 0.0
O56 O 0.8439 0.64861 0.36514 0.0
C57 C 0.85091 0.6723 0.34697 0.0
O58 O 0.87497 0.7591 0.39443 0.0
O59 O 0.90268 0.72203 0.39282 0.0
O60 O 0.84543 0.70087 0.43509 0.0
O61 O 0.81961 0.75239 0.34876 0.0
O62 O 0.78056 0.73963 0.37864 0.0
O63 O 0.79652 0.70366 0.41666 0.0
C64 C 0.88685 0.59414 0.41653 0.0
C65 C 0.87148 0.57445 0.3947 0.0
C66 C 0.91258 0.55244 0.42488 0.0
C67 C 0.87664 0.54394 0.38801 0.0
C68 C 0.90737 0.58288 0.43154 0.0
C69 C 0.89738 0.53255 0.40299 0.0
C70 C 0.88336 0.6275 0.42332 0.0
C71 C 0.90538 0.75551 0.39405 0.0
H72 H 0.83786 0.80654 0.39704 0.0
H73 H 0.80859 0.87508 0.33357 0.0
H74 H 0.85955 0.87407 0.40243 0.0
H75 H 0.78592 0.80714 0.32879 0.0
H76 H 0.8558 0.58292 0.38274 0.0
H77 H 0.92811 0.54418 0.43709 0.0
H78 H 0.86482 0.52962 0.37093 0.0
H79 H 0.91956 0.59778 0.44842 0.0
Eu80 Eu 0.86249 0.21043 0.11376 0.0
Eu81 Eu 0.94651 0.24395 0.13927 0.0
C82 C 0.87494 0.22386 0.17218 0.0
C83 C 0.75692 0.1775 0.10262 0.0
C84 C 0.75132 0.18899 0.12564 0.0
C85 C 0.69043 0.15424 0.09321 0.0
C86 C 0.71545 0.18314 0.13239 0.0
C87 C 0.72625 0.16013 0.0865 0.0
C88 C 0.68444 0.1656 0.11627 0.0
C89 C 0.79408 0.18224 0.09541 0.0
O90 O 0.91409 0.18009 0.14482 0.0
O91 O 0.87763 0.16426 0.11062 0.0
C92 C 0.89263 0.1548 0.12851 0.0
O93 O 0.90726 0.23865 0.08372 0.0
O94 O 0.98287 0.24278 0.16817 0.0
O95 O 1.00808 0.27947 0.13693 0.0
O96 O 0.94979 0.22549 0.10149 0.0
C97 C 0.93877 0.23685 0.08255 0.0
O98 O 0.87704 0.26778 0.12818 0.0
O99 O 0.94201 0.29585 0.12776 0.0
O100 O 0.9107 0.24902 0.16837 0.0
O101 O 0.82149 0.21679 0.09128 0.0
O102 O 0.80566 0.16248 0.10773 0.0
O103 O 0.8534 0.20086 0.15476 0.0
C104 C 0.03934 0.24802 0.15247 0.0
C105 C 0.0337 0.22376 0.13272 0.0
C106 C 0.09226 0.24027 0.16568 0.0
C107 C 0.05749 0.20836 0.12926 0.0
C108 C 0.06863 0.25597 0.169 0.0
C109 C 0.08714 0.21647 0.14566 0.0
C110 C 1.01408 0.2641 0.15608 0.0
C111 C 0.91074 0.29832 0.12795 0.0
H112 H 0.77461 0.20223 0.13843 0.0
H113 H 0.66754 0.14127 0.08014 0.0
H114 H 0.71192 0.19194 0.15036 0.0
H115 H 0.72998 0.15102 0.06866 0.0
H116 H 1.01084 0.21667 0.11997 0.0
H117 H 0.11502 0.24735 0.17853 0.0
H118 H 0.05243 0.18978 0.11385 0.0
H119 H 0.07328 0.2744 0.18444 0.0
Eu120 Eu 0.34461 0.10739 0.38872 0.0
Eu121 Eu 0.39353 0.1938 0.41204 0.0
C122 C 0.36014 0.11879 0.44447 0.0
C123 C 0.25725 1.01431 0.37247 0.0
C124 C 0.23384 1.01975 0.38893 0.0
C125 C 0.20129 0.96013 0.35549 0.0
C126 C 0.19462 0.99497 0.38912 0.0
C127 C 0.24061 0.98477 0.35547 0.0
C128 C 0.17781 0.96432 0.37271 0.0
C129 C 0.29896 0.038 0.37392 0.0
O130 O 0.43588 0.17422 0.40706 0.0
O131 O 0.40584 0.12317 0.38077 0.0
C132 C 0.43647 0.14905 0.39223 0.0
O133 O 0.35012 0.14866 0.35958 0.0
O134 O 0.43709 0.235 0.43667 0.0
O135 O 0.40345 0.25155 0.41481 0.0
O136 O 0.40645 0.19971 0.37152 0.0
C137 C 0.38081 0.18097 0.35474 0.0
O138 O 0.30117 0.1217 0.40395 0.0
O139 O 0.33694 0.18651 0.40203 0.0
O140 O 0.3609 0.15155 0.44265 0.0
O141 O 0.31531 0.0669 0.3591 0.0
O142 O 0.31277 0.04668 0.39587 0.0
O143 O 0.36718 0.10438 0.42528 0.0
C144 C 0.46627 0.29935 0.42339 0.0
C145 C 0.47993 0.30797 0.39936 0.0
C146 C 0.5156 0.36219 0.43595 0.0
C147 C 0.51111 0.34359 0.39366 0.0
C148 C 0.4844 0.3267 0.4416 0.0
C149 C 0.52938 0.37119 0.4119 0.0
C150 C 0.43211 0.26293 0.42959 0.0
C151 C 0.30395 0.15541 0.40343 0.0
H152 H 0.24601 0.04249 0.40218 0.0
H153 H 0.18939 0.93745 0.3422 0.0
H154 H 0.17776 0.99903 0.40281 0.0
H155 H 0.25811 0.98026 0.34249 0.0
H156 H 0.46633 0.28727 0.38499 0.0
H157 H 0.52861 0.38282 0.45042 0.0
H158 H 0.52122 0.34934 0.37504 0.0
H159 H 0.47413 0.32076 0.4602 0.0
Eu160 Eu 0.84375 0.66923 0.11086 0.0
Eu161 Eu 0.8058 0.71542 0.13789 0.0
C162 C 0.83006 0.66569 0.16948 0.0
C163 C 0.88024 0.59921 0.09688 0.0
C164 C 0.85235 0.56658 0.10885 0.0
C165 C 0.9203 0.5702 0.09473 0.0
C166 C 0.85832 0.53593 0.11357 0.0
C167 C 0.91424 0.60073 0.08997 0.0
C168 C 0.89239 0.53722 0.10652 0.0
C169 C 0.87471 0.63193 0.09138 0.0
O170 O 0.86942 0.74897 0.14378 0.0
O171 O 0.88758 0.7312 0.10911 0.0
C172 C 0.89555 0.75444 0.12758 0.0
O173 O 0.81541 0.68649 0.08128 0.0
O174 O 0.80389 0.7504 0.16751 0.0
O175 O 0.76677 0.73773 0.13646 0.0
O176 O 0.8237 0.73974 0.10052 0.0
C177 C 0.81535 0.719 0.08087 0.0
O178 O 0.78735 0.62419 0.12481 0.0
O179 O 0.75618 0.65834 0.12596 0.0
O180 O 0.8035 0.67468 0.16624 0.0
O181 O 0.84033 0.62488 0.08658 0.0
O182 O 0.89311 0.66198 0.10499 0.0
O183 O 0.85338 0.66869 0.15175 0.0
C184 C 0.79306 0.79904 0.15338 0.0
C185 C 0.82275 0.82183 0.13736 0.0
C186 C 0.78744 0.85415 0.16425 0.0
C187 C 0.83462 0.86048 0.13474 0.0
C188 C 0.77554 0.81544 0.16682 0.0
C189 C 0.81712 0.87719 0.14812 0.0
C190 C 0.78055 0.75831 0.15605 0.0
C191 C 0.75578 0.62559 0.12528 0.0
H192 H 0.82587 0.56467 0.11446 0.0
H193 H 0.94711 0.5727 0.08937 0.0
H194 H 0.83591 0.51095 0.1224 0.0
H195 H 0.93627 0.62567 0.08084 0.0
H196 H 0.83678 0.80971 0.1269 0.0
H197 H 0.773 0.8659 0.17462 0.0
H198 H 0.85786 0.87736 0.12242 0.0
H199 H 0.75255 0.79829 0.17925 0.0
Eu200 Eu 0.95173 0.23958 0.37943 0.0
Eu201 Eu 0.86929 0.20841 0.40757 0.0
C202 C 0.94793 0.24277 0.43712 0.0
C203 C 0.04489 0.24453 0.3661 0.0
C204 C 0.04402 0.22876 0.38902 0.0
C205 C 0.09572 0.23279 0.35382 0.0
C206 C 0.069 0.2154 0.39437 0.0
C207 C 0.07082 0.24636 0.34853 0.0
C208 C 0.09516 0.21719 0.37683 0.0
C209 C 1.01741 0.25706 0.36014 0.0
O210 O 0.89544 0.27164 0.40506 0.0
O211 O 0.93717 0.28645 0.37296 0.0
C212 C 0.91657 0.29482 0.38768 0.0
O213 O 0.90665 0.21058 0.35104 0.0
O214 O 0.83065 0.21626 0.43173 0.0
O215 O 0.81264 0.16142 0.41554 0.0
O216 O 0.85845 0.21691 0.36815 0.0
C217 C 0.87444 0.2105 0.34926 0.0
O218 O 0.93565 0.18244 0.39612 0.0
O219 O 0.87177 0.15789 0.39349 0.0
O220 O 0.91238 0.21481 0.43669 0.0
O221 O 0.98507 0.23081 0.35153 0.0
O222 O 1.01292 0.2779 0.37642 0.0
O223 O 0.96426 0.26208 0.4174 0.0
C224 C 0.76516 0.17791 0.42249 0.0
C225 C 0.75415 0.17852 0.39832 0.0
C226 C 0.70378 0.16743 0.43634 0.0
C227 C 0.71809 0.17349 0.39321 0.0
C228 C 0.7397 0.1723 0.4414 0.0
C229 C 0.69246 0.168 0.41219 0.0
C230 C 0.8025 0.18195 0.42832 0.0
C231 C 0.90123 0.15306 0.39488 0.0
H232 H 1.0238 0.22652 0.40274 0.0
H233 H 0.11575 0.23497 0.33999 0.0
H234 H 0.06746 0.20314 0.41215 0.0
H235 H 0.07169 0.25812 0.33067 0.0
H236 H 0.77341 0.18284 0.38341 0.0
H237 H 0.68469 0.1628 0.45139 0.0
H238 H 0.71052 0.17454 0.37445 0.0
H239 H 0.74753 0.17148 0.46015 0.0
Eu240 Eu 0.11925 0.32078 0.64393 0.0
Eu241 Eu 0.19923 0.37837 0.6143 0.0
C242 C 0.12083 0.32256 0.58472 0.0
C243 C 1.02554 0.23287 0.6606 0.0
C244 C 1.01893 0.21812 0.63684 0.0
C245 C 0.97602 0.17145 0.67542 0.0
C246 C 0.99092 0.18038 0.63239 0.0
C247 C 1.00385 0.20925 0.67982 0.0
C248 C 0.96921 0.15646 0.65166 0.0
C249 C 0.05599 0.27213 0.66572 0.0
O250 O 0.15744 0.39868 0.60962 0.0
O251 O 0.13008 0.38169 0.64706 0.0
C252 C 0.14085 0.40478 0.62814 0.0
O253 O 0.16554 0.34009 0.67151 0.0
O254 O 0.23938 0.43656 0.60368 0.0
O255 O 0.25095 0.39164 0.59381 0.0
O256 O 0.20874 0.39674 0.65406 0.0
C257 C 0.19555 0.37386 0.67296 0.0
O258 O 0.14177 0.28448 0.62787 0.0
O259 O 0.20481 0.32912 0.62837 0.0
O260 O 0.15844 0.34194 0.584 0.0
O261 O 0.08904 0.27612 0.67099 0.0
O262 O 0.05884 0.29869 0.651 0.0
O263 O 0.1018 0.3163 0.60512 0.0
C264 C 0.30412 0.45408 0.59963 0.0
C265 C 0.3172 0.46328 0.62373 0.0
C266 C 0.36723 0.50025 0.58519 0.0
C267 C 0.35502 0.49117 0.62849 0.0
C268 C 0.32964 0.4724 0.58048 0.0
C269 C 0.38037 0.51062 0.60924 0.0
C270 C 0.26356 0.4282 0.59388 0.0
C271 C 0.17765 0.29342 0.62834 0.0
H272 H 0.03571 0.23567 0.62175 0.0
H273 H 0.95961 0.15403 0.69065 0.0
H274 H 0.98679 0.16971 0.61392 0.0
H275 H 1.00861 0.21998 0.6983 0.0
H276 H 0.29793 0.44965 0.63883 0.0
H277 H 0.38598 0.514 0.56988 0.0
H278 H 0.364 0.49846 0.64722 0.0
H279 H 0.32022 0.46585 0.56176 0.0
Eu280 Eu 0.22302 0.86344 0.90673 0.0
Eu281 Eu 0.25263 0.94663 0.87905 0.0
C282 C 0.23642 0.87226 0.84768 0.0
C283 C 0.18581 0.75739 0.92135 0.0
C284 C 0.18794 0.7462 0.89744 0.0
C285 C 0.16171 0.69228 0.93484 0.0
C286 C 0.17779 0.70839 0.89239 0.0
C287 C 0.17181 0.72997 0.93984 0.0
C288 C 0.16551 0.68116 0.91118 0.0
C289 C 0.20159 0.79781 0.92784 0.0
O290 O 0.19144 0.92287 0.8912 0.0
O291 O 0.17242 0.86002 0.88791 0.0
C292 C 0.16438 0.88751 0.8882 0.0
O293 O 0.22553 0.90454 0.93642 0.0
O294 O 0.24128 0.97872 0.85169 0.0
O295 O 0.28935 1.00811 0.87581 0.0
O296 O 0.26805 0.96063 0.91794 0.0
C297 C 0.24908 0.94166 0.93716 0.0
O298 O 0.28618 0.89859 0.91113 0.0
O299 O 0.30271 0.9358 0.87697 0.0
O300 O 0.24146 0.90678 0.84822 0.0
O301 O 0.23597 0.82079 0.92022 0.0
O302 O 0.1796 0.81261 0.92573 0.0
O303 O 0.23145 0.85168 0.86736 0.0
C304 C 0.25464 0.03887 0.86557 0.0
C305 C 0.23938 0.03867 0.88858 0.0
C306 C 0.24129 0.08836 0.85261 0.0
C307 C 0.22554 0.0634 0.89365 0.0
C308 C 0.25542 0.06381 0.84763 0.0
C309 C 0.2262 0.08849 0.8757 0.0
C310 C 0.26753 1.01157 0.85978 0.0
C311 C 0.31076 0.91782 0.89392 0.0
H312 H 0.1988 0.76698 0.88288 0.0
H313 H 0.15177 0.67199 0.94967 0.0
H314 H 0.18132 0.70095 0.87401 0.0
H315 H 0.16993 0.73798 0.9584 0.0
H316 H 0.2378 1.01908 0.90254 0.0
H317 H 0.2426 0.10757 0.83847 0.0
H318 H 0.21372 0.06243 0.9115 0.0
H319 H 0.26673 0.06413 0.82969 0.0
Eu320 Eu 0.7303 0.7959 0.64328 0.0
Eu321 Eu 0.67664 0.82168 0.61225 0.0
C322 C 0.7321 0.79684 0.58405 0.0
C323 C 0.81609 0.78885 0.66199 0.0
C324 C 0.83749 0.81494 0.64368 0.0
C325 C 0.87156 0.78416 0.67312 0.0
C326 C 0.87569 0.82571 0.64017 0.0
C327 C 0.83333 0.77347 0.67664 0.0
C328 C 0.89334 0.81054 0.65487 0.0
C329 C 0.7762 0.77855 0.66617 0.0
O330 O 0.65392 0.759 0.6082 0.0
O331 O 0.66862 0.74792 0.64606 0.0
C332 C 0.64615 0.73632 0.62691 0.0
O333 O 0.71267 0.82571 0.66999 0.0
O334 O 0.61964 0.80546 0.59991 0.0
O335 O 0.66607 0.86134 0.59095 0.0
O336 O 0.65761 0.81567 0.65191 0.0
C337 C 0.67994 0.82456 0.67103 0.0
O338 O 0.76948 0.85459 0.6281 0.0
O339 O 0.72673 0.87572 0.62606 0.0
O340 O 0.71387 0.81627 0.58288 0.0
O341 O 0.77081 0.80649 0.67242 0.0
O342 O 0.7518 0.75676 0.64983 0.0
O343 O 0.73651 0.78305 0.60459 0.0
C344 C 0.60389 0.85373 0.59423 0.0
C345 C 0.59554 0.86092 0.61783 0.0
C346 C 0.55678 0.8682 0.57802 0.0
C347 C 0.56756 0.87122 0.62149 0.0
C348 C 0.58476 0.85814 0.57439 0.0
C349 C 0.54718 0.87412 0.60163 0.0
C350 C 0.62951 0.83819 0.58987 0.0
C351 C 0.76188 0.88255 0.6274 0.0
H352 H 0.82472 0.82727 0.63222 0.0
H353 H 0.88393 0.77144 0.68455 0.0
H354 H 0.89155 0.84645 0.62618 0.0
H355 H 0.81726 0.75327 0.69086 0.0
H356 H 0.6098 0.85742 0.63343 0.0
H357 H 0.54212 0.87069 0.56228 0.0
H358 H 0.56075 0.87531 0.63992 0.0
H359 H 0.59067 0.85265 0.55605 0.0
Eu360 Eu 0.19857 0.38483 0.90819 0.0
Eu361 Eu 0.11073 0.33514 0.88688 0.0
C362 C 0.18266 0.37347 0.8508 0.0
C363 C 0.30541 0.45554 0.91767 0.0
C364 C 0.30848 0.48113 0.8994 0.0
C365 C 0.37413 0.49012 0.92202 0.0
C366 C 0.34421 0.51121 0.8926 0.0
C367 C 0.33848 0.46024 0.92885 0.0
C368 C 0.37755 0.51608 0.90382 0.0
C369 C 0.2684 0.42288 0.92468 0.0
O370 O 0.12661 0.2922 0.90097 0.0
O371 O 0.19092 0.32867 0.89647 0.0
C372 C 0.16039 0.29545 0.89901 0.0
O373 O 0.15823 0.3521 0.93957 0.0
O374 O 0.06847 0.30391 0.85848 0.0
O375 O 0.05044 0.30467 0.89543 0.0
O376 O 0.1101 0.35812 0.92377 0.0
C377 C 0.12561 0.35124 0.94239 0.0
O378 O 0.17804 0.42672 0.9046 0.0
O379 O 0.12557 0.39629 0.87954 0.0
O380 O 0.14997 0.34317 0.85577 0.0
O381 O 0.24148 0.42977 0.93117 0.0
O382 O 0.25578 0.39304 0.9108 0.0
O383 O 0.20306 0.39804 0.86779 0.0
C384 C 1.01488 0.24773 0.8734 0.0
C385 C 1.01662 0.22444 0.89171 0.0
C386 C 0.9616 0.19197 0.85536 0.0
C387 C 0.99054 0.18544 0.89216 0.0
C388 C 0.98751 0.23108 0.85506 0.0
C389 C 0.96229 0.16864 0.87416 0.0
C390 C 0.04029 0.28941 0.87391 0.0
C391 C 0.15182 0.42705 0.89072 0.0
H392 H 0.28331 0.47773 0.89033 0.0
H393 H 0.39901 0.49327 0.93133 0.0
H394 H 0.34576 0.53042 0.87839 0.0
H395 H 0.33673 0.4407 0.94291 0.0
H396 H 0.03763 0.23652 0.90604 0.0
H397 H 0.94091 0.1801 0.84086 0.0
H398 H 0.99188 0.16874 0.90709 0.0
H399 H 0.9858 0.24843 0.84067 0.0
Eu400 Eu 0.25885 0.93399 0.63837 0.0
Eu401 Eu 0.22192 0.84908 0.61277 0.0
C402 C 0.24773 0.92581 0.58188 0.0
C403 C 0.27264 0.03253 0.65146 0.0
C404 C 0.27304 0.0477 0.62834 0.0
C405 C 0.25047 0.07342 0.66881 0.0
C406 C 0.26224 0.07532 0.6255 0.0
C407 C 0.26134 0.0458 0.67164 0.0
C408 C 0.25078 0.08859 0.64569 0.0
C409 C 0.28366 1.00291 0.65475 0.0
O410 O 0.27924 0.86213 0.62597 0.0
O411 O 0.309 0.92722 0.6257 0.0
C412 C 0.31036 0.89533 0.6254 0.0
O413 O 0.26349 0.89741 0.66706 0.0
O414 O 0.22595 0.80787 0.58884 0.0
O415 O 0.17361 0.79204 0.60808 0.0
O416 O 0.21428 0.8402 0.6539 0.0
C417 C 0.23825 0.86166 0.67091 0.0
O418 O 0.19523 0.90325 0.64524 0.0
O419 O 0.17653 0.86534 0.61148 0.0
O420 O 0.24908 0.89397 0.58253 0.0
O421 O 0.25997 0.97244 0.66679 0.0
O422 O 0.29815 0.99494 0.63592 0.0
O423 O 0.23806 0.9373 0.6014 0.0
C424 C 0.1878 0.7428 0.60022 0.0
C425 C 0.18578 0.73037 0.62437 0.0
C426 C 0.17864 0.68191 0.58605 0.0
C427 C 0.17999 0.69385 0.6293 0.0
C428 C 0.18429 0.71826 0.58117 0.0
C429 C 0.17634 0.66907 0.61018 0.0
C430 C 0.19204 0.7804 0.59436 0.0
C431 C 0.16871 0.88132 0.62966 0.0
H432 H 0.2816 0.03821 0.61236 0.0
H433 H 0.24233 0.08327 0.68482 0.0
H434 H 0.26241 0.08593 0.60738 0.0
H435 H 0.26093 0.03479 0.68968 0.0
H436 H 0.18846 0.74881 0.63942 0.0
H437 H 0.17539 0.66358 0.57082 0.0
H438 H 0.17877 0.68519 0.64808 0.0
H439 H 0.18548 0.72706 0.56241 0.0
Eu440 Eu 0.6709 0.83279 0.90569 0.0
Eu441 Eu 0.72496 0.80542 0.8754 0.0
C442 C 0.67048 0.82847 0.84662 0.0
C443 C 0.59875 0.86653 0.91824 0.0
C444 C 0.57809 0.85388 0.89643 0.0
C445 C 0.56503 0.90082 0.92749 0.0
C446 C 0.55058 0.86385 0.89051 0.0
C447 C 0.59236 0.89059 0.9335 0.0
C448 C 0.54318 0.88696 0.90615 0.0
C449 C 0.6248 0.85273 0.92609 0.0
O450 O 0.76342 0.8643 0.8904 0.0
O451 O 0.72059 0.8852 0.89006 0.0
C452 C 0.75577 0.89217 0.88982 0.0
O453 O 0.70722 0.82644 0.93536 0.0
O454 O 0.76814 0.81751 0.84767 0.0
O455 O 0.74658 0.76631 0.86922 0.0
O456 O 0.72592 0.78941 0.91413 0.0
C457 C 0.72278 0.80442 0.93453 0.0
O458 O 0.64569 0.76981 0.90891 0.0
O459 O 0.66355 0.75726 0.87225 0.0
O460 O 0.70282 0.82868 0.84682 0.0
O461 O 0.61517 0.81805 0.91997 0.0
O462 O 0.66124 0.87573 0.92375 0.0
O463 O 0.65047 0.82406 0.86645 0.0
C464 C 0.8117 0.7975 0.85804 0.0
C465 C 0.82886 0.81038 0.88087 0.0
C466 C 0.87109 0.80477 0.84246 0.0
C467 C 0.86686 0.82029 0.88449 0.0
C468 C 0.8331 0.79479 0.8389 0.0
C469 C 0.8886 0.81771 0.86531 0.0
C470 C 0.77227 0.78868 0.8536 0.0
C471 C 0.63879 0.74725 0.89022 0.0
H472 H 0.58255 0.83548 0.88421 0.0
H473 H 0.55995 0.91836 0.94009 0.0
H474 H 0.53472 0.85305 0.87377 0.0
H475 H 0.6078 0.90063 0.95045 0.0
H476 H 0.81292 0.81298 0.89587 0.0
H477 H 0.88693 0.803 0.82713 0.0
H478 H 0.87909 0.82966 0.9024 0.0
H479 H 0.82055 0.78537 0.82106 0.0
H480 H 0.11366 0.18493 0.1791 0.0
H481 H 0.11968 0.21306 0.1028 0.0
H482 H 0.15919 0.16285 0.17242 0.0
H483 H 0.16477 0.1907 0.09613 0.0
H484 H 0.28499 0.20458 0.10588 0.0
H485 H 0.23209 0.21645 0.1094 0.0
H486 H 0.16876 0.11238 0.15015 0.0
H487 H 0.22218 0.10024 0.14644 0.0
C488 C 0.12454 0.18623 0.1609 0.0
C489 C 0.11319 0.20098 0.14152 0.0
C490 C 0.15027 0.17317 0.15703 0.0
C491 C 0.1656 0.17504 0.13375 0.0
C492 C 0.15362 0.18905 0.1143 0.0
C493 C 0.12762 0.20167 0.11811 0.0
C494 C 0.25959 0.18388 0.11531 0.0
C495 C 0.25777 0.15146 0.12589 0.0
C496 C 0.22918 0.19063 0.11722 0.0
C497 C 0.19623 0.16543 0.13009 0.0
C498 C 0.1939 0.13242 0.14023 0.0
C499 C 0.22428 0.12529 0.13793 0.0
H500 H 0.14393 0.88741 0.36593 0.0
H501 H 0.11781 0.97554 0.3842 0.0
H502 H 0.07782 0.83988 0.37113 0.0
H503 H 0.05158 0.92733 0.39096 0.0
H504 H 0.92747 0.82805 0.37812 0.0
H505 H 0.99272 0.88019 0.37231 0.0
H506 H 0.03507 0.81086 0.40377 0.0
H507 H 0.97062 0.75898 0.40869 0.0
C508 C 0.12411 0.89682 0.37088 0.0
C509 C 0.13654 0.93553 0.37465 0.0
C510 C 0.0861 0.86934 0.37431 0.0
C511 C 0.05929 0.87957 0.38193 0.0
C512 C 0.07136 0.91835 0.38509 0.0
C513 C 0.1095 0.94599 0.38147 0.0
C514 C 0.95082 0.82428 0.38401 0.0
C515 C 0.94394 0.78926 0.39357 0.0
C516 C 0.98821 0.85411 0.38069 0.0
C517 C 1.01931 0.84951 0.38706 0.0
C518 C 1.01202 0.81512 0.39788 0.0
C519 C 0.97495 0.78539 0.40091 0.0
H520 H 0.91615 0.12344 0.16397 0.0
H521 H 0.84879 0.095 0.09844 0.0
H522 H 0.89946 0.05706 0.16851 0.0
H523 H 0.83166 0.02871 0.10321 0.0
H524 H 0.83687 0.91913 0.10599 0.0
H525 H 0.8574 0.98634 0.1011 0.0
H526 H 0.84498 0.99567 0.17852 0.0
H527 H 0.82575 0.92873 0.18353 0.0
C528 C 0.89784 0.1031 0.1505 0.0
C529 C 0.88382 0.11468 0.13084 0.0
C530 C 0.88806 0.06494 0.1532 0.0
C531 C 0.8641 0.0374 0.13627 0.0
C532 C 0.85053 0.04913 0.11645 0.0
C533 C 0.86023 0.08723 0.11378 0.0
C534 C 0.83892 0.93557 0.12203 0.0
C535 C 0.82962 0.91838 0.14517 0.0
C536 C 0.85031 0.97409 0.11918 0.0
C537 C 0.85281 0.99653 0.1394 0.0
C538 C 0.84377 0.97941 0.16256 0.0
C539 C 0.83228 0.94085 0.1654 0.0
H540 H 0.23143 0.10328 0.38893 0.0
H541 H 0.2991 0.2172 0.41688 0.0
H542 H 0.17749 0.11426 0.38415 0.0
H543 H 0.24581 0.22804 0.41212 0.0
H544 H 0.13546 0.22811 0.41884 0.0
H545 H 0.18172 0.20815 0.4279 0.0
H546 H 0.16299 0.15583 0.35702 0.0
H547 H 0.11602 0.17516 0.34811 0.0
C548 C 0.2346 0.13036 0.39441 0.0
C549 C 0.26957 0.1594 0.4032 0.0
C550 C 0.20387 0.13676 0.39149 0.0
C551 C 0.20739 0.17207 0.39771 0.0
C552 C 0.24194 0.20042 0.40738 0.0
C553 C 0.27262 0.19423 0.40998 0.0
C554 C 0.14075 0.21186 0.40531 0.0
C555 C 0.12216 0.20345 0.38268 0.0
C556 C 0.16746 0.20064 0.41044 0.0
C557 C 0.17615 0.1805 0.39315 0.0
C558 C 0.15673 0.17103 0.37081 0.0
C559 C 0.13017 0.18252 0.36559 0.0
H560 H 0.11034 0.95834 0.16561 0.0
H561 H 0.14048 0.87848 0.1355 0.0
H562 H 0.04333 0.91286 0.15872 0.0
H563 H 0.07372 0.83263 0.12962 0.0
H564 H 0.95609 0.77492 0.09719 0.0
H565 H 1.02196 0.823 0.10382 0.0
H566 H 0.99146 0.85222 0.17263 0.0
H567 H 0.92516 0.80452 0.16574 0.0
C568 C 0.10272 0.93107 0.15761 0.0
C569 C 0.13095 0.92217 0.15112 0.0
C570 C 0.06424 0.90484 0.15388 0.0
C571 C 0.05303 0.86909 0.14349 0.0
C572 C 0.08126 0.86007 0.13732 0.0
C573 C 0.11963 0.88623 0.14104 0.0
C574 C 0.96328 0.79172 0.11368 0.0
C575 C 0.93523 0.78565 0.13097 0.0
C576 C 1.0012 0.81916 0.11758 0.0
C577 C 1.01221 0.84127 0.1389 0.0
C578 C 0.98401 0.83592 0.15592 0.0
C579 C 0.94598 0.80844 0.152 0.0
H580 H 0.79626 0.9166 0.35735 0.0
H581 H 0.90258 0.93677 0.38803 0.0
H582 H 0.8147 0.98267 0.36406 0.0
H583 H 0.92024 1.00278 0.39597 0.0
H584 H 0.95229 0.12931 0.38349 0.0
H585 H 0.93831 0.06379 0.37702 0.0
H586 H 0.82151 0.0229 0.39744 0.0
H587 H 0.83513 0.08772 0.40317 0.0
C588 C 0.82369 0.93513 0.36543 0.0
C589 C 0.84785 0.92114 0.37215 0.0
C590 C 0.83407 0.97303 0.36963 0.0
C591 C 0.86879 0.99809 0.38087 0.0
C592 C 0.89335 0.98438 0.38721 0.0
C593 C 0.883 0.94637 0.38291 0.0
C594 C 0.92376 0.10622 0.3868 0.0
C595 C 0.89475 0.11376 0.39357 0.0
C596 C 0.91573 0.06867 0.38312 0.0
C597 C 0.87858 0.038 0.38628 0.0
C598 C 0.85016 0.04573 0.39413 0.0
C599 C 0.85807 0.08301 0.3976 0.0
H600 H 0.19238 0.0928 0.66807 0.0
H601 H 0.28346 0.15172 0.61631 0.0
H602 H 0.17461 0.14176 0.66346 0.0
H603 H 0.26487 0.19987 0.61105 0.0
H604 H 0.24863 0.3013 0.62898 0.0
H605 H 0.26559 0.25184 0.63294 0.0
H606 H 0.14682 0.16658 0.63474 0.0
H607 H 0.12977 0.21623 0.6312 0.0
C608 C 0.20866 0.11619 0.65572 0.0
C609 C 0.23945 0.11824 0.64262 0.0
C610 C 0.19816 0.14407 0.65285 0.0
C611 C 0.21825 0.17487 0.63686 0.0
C612 C 0.24896 0.17684 0.62372 0.0
C613 C 0.25938 0.14893 0.62653 0.0
C614 C 0.22605 0.27202 0.63013 0.0
C615 C 0.18778 0.26287 0.62975 0.0
C616 C 0.23582 0.24356 0.63228 0.0
C617 C 0.20762 0.20509 0.63416 0.0
C618 C 0.16932 0.1959 0.63364 0.0
C619 C 0.15953 0.2244 0.63142 0.0
H620 H 0.13603 0.93642 0.88438 0.0
H621 H 0.10128 0.81705 0.88584 0.0
H622 H 0.06996 0.92023 0.87888 0.0
H623 H 0.03551 0.80093 0.88102 0.0
H624 H 0.92668 0.78335 0.84644 0.0
H625 H 0.99297 0.80141 0.85163 0.0
H626 H 1.00913 0.89358 0.8987 0.0
H627 H 0.94309 0.87662 0.89251 0.0
C628 C 0.11433 0.90674 0.88369 0.0
C629 C 0.12413 0.87809 0.88546 0.0
C630 C 0.07634 0.89742 0.88066 0.0
C631 C 0.04717 0.8592 0.87937 0.0
C632 C 0.05709 0.83065 0.88144 0.0
C633 C 0.09496 0.83995 0.88438 0.0
C634 C 0.94438 0.80776 0.85768 0.0
C635 C 0.92927 0.82848 0.869 0.0
C636 C 0.98244 0.81787 0.86093 0.0
C637 C 1.00663 0.84893 0.8757 0.0
C638 C 0.99158 0.86973 0.88701 0.0
C639 C 0.95346 0.85965 0.88371 0.0
H640 H 0.8369 0.90843 0.63797 0.0
H641 H 0.75823 0.94765 0.62114 0.0
H642 H 0.88764 0.9742 0.64283 0.0
H643 H 0.80884 1.01322 0.62613 0.0
H644 H 0.9172 0.12786 0.61455 0.0
H645 H 0.86858 0.06185 0.60735 0.0
H646 H 0.90537 0.02751 0.6714 0.0
H647 H 0.95443 0.09336 0.67832 0.0
C648 C 0.83042 0.93102 0.63517 0.0
C649 C 0.79337 0.92261 0.62917 0.0
C650 C 0.85949 0.96876 0.63812 0.0
C651 C 0.85237 0.99909 0.63494 0.0
C652 C 0.81548 0.99066 0.62849 0.0
C653 C 0.78637 0.95296 0.62575 0.0
C654 C 0.91515 0.1062 0.62697 0.0
C655 C 0.93973 0.11604 0.64706 0.0
C656 C 0.88704 0.06837 0.62297 0.0
C657 C 0.88296 0.03929 0.63881 0.0
C658 C 0.90787 0.04907 0.65871 0.0
C659 C 0.93576 0.08693 0.66283 0.0
H660 H 0.22389 0.29298 0.91081 0.0
H661 H 0.10843 0.22153 0.88669 0.0
H662 H 0.23565 0.24011 0.90692 0.0
H663 H 0.12041 0.168 0.88272 0.0
H664 H 0.18172 0.10602 0.84702 0.0
H665 H 0.16145 0.1526 0.85509 0.0
H666 H 0.21738 0.17725 0.9249 0.0
H667 H 0.23811 0.13124 0.91672 0.0
C668 C 0.20082 0.26579 0.90488 0.0
C669 C 0.16523 0.26152 0.89896 0.0
C670 C 0.20755 0.23537 0.90281 0.0
C671 C 0.17901 0.19982 0.8945 0.0
C672 C 0.14304 0.19515 0.88904 0.0
C673 C 0.13609 0.22566 0.89147 0.0
C674 C 0.18963 0.12136 0.86411 0.0
C675 C 0.21181 0.11511 0.88114 0.0
C676 C 0.17762 0.1477 0.86885 0.0
C677 C 0.18786 0.16869 0.89061 0.0
C678 C 0.20923 0.16174 0.90788 0.0
C679 C 0.22092 0.13519 0.90325 0.0
H680 H 0.14032 0.90871 0.66488 0.0
H681 H 0.10666 0.83482 0.60214 0.0
H682 H 0.07452 0.8932 0.67082 0.0
H683 H 0.04111 0.8187 0.6084 0.0
H684 H 0.93229 0.82392 0.61173 0.0
H685 H 0.9989 0.84355 0.60561 0.0
H686 H 1.01358 0.84169 0.68339 0.0
H687 H 0.94729 0.82378 0.68957 0.0
C688 C 0.11896 0.8892 0.65234 0.0
C689 C 0.12895 0.87311 0.63301 0.0
C690 C 0.08113 0.88007 0.65585 0.0
C691 C 0.05232 0.85462 0.64011 0.0
C692 C 0.06247 0.83883 0.62069 0.0
C693 C 0.1002 0.84797 0.61717 0.0
C694 C 0.94976 0.82815 0.62758 0.0
C695 C 0.9342 0.82221 0.65116 0.0
C696 C 0.98798 0.83899 0.62405 0.0
C697 C 1.01179 0.84413 0.64399 0.0
C698 C 0.99631 0.83841 0.66759 0.0
C699 C 0.95806 0.8276 0.67112 0.0
H700 H 0.97057 0.10855 0.88987 0.0
H701 H 0.8869 0.13478 0.86178 0.0
H702 H 0.92165 0.04231 0.89454 0.0
H703 H 0.83874 0.06832 0.86482 0.0
H704 H 0.75151 0.95645 0.89733 0.0
H705 H 0.8017 0.02215 0.89371 0.0
H706 H 0.88105 0.98477 0.87415 0.0
H707 H 0.83084 0.91876 0.87876 0.0
C708 C 0.94182 0.10029 0.88458 0.0
C709 C 0.9329 0.1274 0.87554 0.0
C710 C 0.91376 0.06203 0.88696 0.0
C711 C 0.87597 0.04968 0.8802 0.0
C712 C 0.86726 0.07666 0.87068 0.0
C713 C 0.8952 0.1149 0.86852 0.0
C714 C 0.77968 0.96218 0.89232 0.0
C715 C 0.78706 0.93224 0.88828 0.0
C716 C 0.80853 1.0 0.89004 0.0
C717 C 0.84558 1.00909 0.88334 0.0
C718 C 0.85306 0.97906 0.87958 0.0
C719 C 0.8242 0.94112 0.88212 0.0
H720 H 0.33027 0.18978 0.32794 0.0
H721 H 0.44185 0.20205 0.32464 0.0
H722 H 0.33117 0.19858 0.28404 0.0
H723 H 0.44217 0.20874 0.2802 0.0
H724 H 0.43291 0.22628 0.19829 0.0
H725 H 0.44035 0.2398 0.24222 0.0
H726 H 0.32284 0.15468 0.25333 0.0
H727 H 0.31532 0.14223 0.21025 0.0
C728 C 0.35533 0.19511 0.31775 0.0
C729 C 0.38589 0.19507 0.32952 0.0
C730 C 0.35577 0.19979 0.29257 0.0
C731 C 0.38628 0.20328 0.27841 0.0
C732 C 0.41823 0.20619 0.29047 0.0
C733 C 0.4181 0.20233 0.3159 0.0
C734 C 0.40861 0.21108 0.21017 0.0
C735 C 0.37358 0.18307 0.20072 0.0
C736 C 0.41292 0.21861 0.23534 0.0
C737 C 0.38216 0.19853 0.25141 0.0
C738 C 0.34704 0.1714 0.24165 0.0
C739 C 0.3428 0.16391 0.21678 0.0
H740 H 0.9003 0.71938 0.31316 0.0
H741 H 0.81057 0.60384 0.32384 0.0
H742 H 0.89852 0.70865 0.2694 0.0
H743 H 0.8082 0.59313 0.27966 0.0
H744 H 0.89594 0.67762 0.19096 0.0
H745 H 0.90581 0.67099 0.23433 0.0
H746 H 0.78591 0.62395 0.24751 0.0
H747 H 0.77616 0.631 0.20446 0.0
C748 C 0.88093 0.69131 0.30614 0.0
C749 C 0.85554 0.66244 0.32181 0.0
C750 C 0.88001 0.68511 0.28108 0.0
C751 C 0.8531 0.65011 0.27107 0.0
C752 C 0.82919 0.62042 0.2869 0.0
C753 C 0.83069 0.62642 0.31215 0.0
C754 C 0.87161 0.66497 0.20304 0.0
C755 C 0.83535 0.65519 0.1944 0.0
C756 C 0.87728 0.66129 0.22785 0.0
C757 C 0.84664 0.64702 0.24432 0.0
C758 C 0.81001 0.63467 0.23527 0.0
C759 C 0.80448 0.63901 0.21064 0.0
H760 H 0.82175 0.15913 0.19514 0.0
H761 H 0.89615 0.27933 0.20613 0.0
H762 H 0.8081 0.15109 0.23898 0.0
H763 H 0.88218 0.27144 0.24962 0.0
H764 H 0.84445 0.25027 0.32737 0.0
H765 H 0.83194 0.25074 0.28362 0.0
H766 H 0.85593 0.15945 0.27229 0.0
H767 H 0.86904 0.15958 0.31558 0.0
C768 C 0.83423 0.18395 0.20679 0.0
C769 C 0.86032 0.21977 0.19733 0.0
C770 C 0.82652 0.17934 0.23185 0.0
C771 C 0.84416 0.21063 0.24772 0.0
C772 C 0.86786 0.24686 0.23786 0.0
C773 C 0.8761 0.25133 0.21298 0.0
C774 C 0.84577 0.22955 0.31558 0.0
C775 C 0.85783 0.205 0.32471 0.0
C776 C 0.83884 0.22994 0.29058 0.0
C777 C 0.84305 0.20518 0.27454 0.0
C778 C 0.85205 0.17857 0.28417 0.0
C779 C 0.85974 0.17877 0.30894 0.0
H780 H 0.20435 0.43437 0.69982 0.0
H781 H 0.22217 0.33816 0.70114 0.0
H782 H 0.21177 0.44003 0.74425 0.0
H783 H 0.23092 0.34441 0.74515 0.0
H784 H 0.2322 0.44021 0.82726 0.0
H785 H 0.24833 0.44823 0.78361 0.0
H786 H 0.17847 0.32707 0.7735 0.0
H787 H 0.16274 0.3192 0.81638 0.0
C788 C 0.21174 0.4157 0.70951 0.0
C789 C 0.21265 0.3858 0.69724 0.0
C790 C 0.21589 0.41882 0.73493 0.0
C791 C 0.22112 0.39213 0.74827 0.0
C792 C 0.22612 0.3649 0.73547 0.0
C793 C 0.22148 0.36151 0.71027 0.0
C794 C 0.22088 0.41536 0.81567 0.0
C795 C 0.19605 0.3791 0.82522 0.0
C796 C 0.22996 0.41997 0.79072 0.0
C797 C 0.21495 0.38828 0.7751 0.0
C798 C 0.19116 0.35206 0.785 0.0
C799 C 0.18179 0.34756 0.80963 0.0
H800 H 0.18735 0.8041 0.82564 0.0
H801 H 0.29105 0.9102 0.8148 0.0
H802 H 0.18709 0.78909 0.7821 0.0
H803 H 0.29089 0.89599 0.77204 0.0
H804 H 0.29675 0.86835 0.69781 0.0
H805 H 0.29706 0.85817 0.74152 0.0
H806 H 0.17598 0.81452 0.74407 0.0
H807 H 0.17567 0.82291 0.69988 0.0
C808 C 0.21057 0.82358 0.81409 0.0
C809 C 0.23923 0.85828 0.82342 0.0
C810 C 0.21029 0.81525 0.78919 0.0
C811 C 0.23897 0.84129 0.77348 0.0
C812 C 0.26867 0.87483 0.78346 0.0
C813 C 0.2687 0.8832 0.80802 0.0
C814 C 0.27006 0.8554 0.70765 0.0
C815 C 0.23627 0.84675 0.69566 0.0
C816 C 0.2702 0.84977 0.7327 0.0
C817 C 0.23671 0.83649 0.74648 0.0
C818 C 0.20228 0.8247 0.73408 0.0
C819 C 0.20205 0.82958 0.70878 0.0
H820 H 0.60952 0.78907 0.69293 0.0
H821 H 0.72578 0.87673 0.70361 0.0
H822 H 0.59621 0.79367 0.73616 0.0
H823 H 0.713 0.88123 0.74619 0.0
H824 H 0.68948 0.89266 0.82125 0.0
H825 H 0.68186 0.89689 0.77739 0.0
H826 H 0.6156 0.77443 0.77352 0.0
H827 H 0.6224 0.7707 0.81751 0.0
C828 C 0.63184 0.81007 0.70433 0.0
C829 C 0.66871 0.8324 0.69502 0.0
C830 C 0.62438 0.8125 0.72909 0.0
C831 C 0.65355 0.83772 0.74477 0.0
C832 C 0.68962 0.86186 0.73478 0.0
C833 C 0.69709 0.8591 0.71032 0.0
C834 C 0.67188 0.86687 0.8111 0.0
C835 C 0.65617 0.83142 0.82262 0.0
C836 C 0.66782 0.86916 0.78596 0.0
C837 C 0.64865 0.83596 0.77178 0.0
C838 C 0.63025 0.8006 0.78379 0.0
C839 C 0.6341 0.79838 0.809 0.0
H840 H 0.24129 0.91883 0.9855 0.0
H841 H 0.27346 1.01689 0.93984 0.0
H842 H 0.26185 0.96037 0.02148 0.0
H843 H 0.29449 0.05785 0.9751 0.0
H844 H 0.30879 0.12262 0.04542 0.0
H845 H 0.27829 0.07843 0.01158 0.0
H846 H 0.32173 1.00751 0.03865 0.0
H847 H 0.35137 0.05094 0.07238 0.0
C848 C 0.25217 0.94901 0.98316 0.0
C849 C 0.25603 0.96445 0.95975 0.0
C850 C 0.26432 0.97293 1.0037 0.0
C851 C 0.28024 1.01268 1.00123 0.0
C852 C 0.28217 0.02756 0.97789 0.0
C853 C 0.27031 1.00388 0.95754 0.0
C854 C 0.31205 0.09777 0.04399 0.0
C855 C 0.33272 0.09057 0.06159 0.0
C856 C 0.29444 0.07228 0.02465 0.0
C857 C 0.29716 0.03902 0.02244 0.0
C858 C 0.31818 0.0322 0.03997 0.0
C859 C 0.33565 0.05753 0.05921 0.0
H860 H 0.74979 0.70513 0.44543 0.0
H861 H 0.8587 0.73867 0.4779 0.0
H862 H 0.73247 0.73018 0.4801 0.0
H863 H 0.84154 0.76482 0.5128 0.0
H864 H 0.77972 0.76766 0.58242 0.0
H865 H 0.80133 0.74748 0.54745 0.0
H866 H 0.74375 0.78712 0.49983 0.0
H867 H 0.72073 0.80642 0.53533 0.0
C868 C 0.77021 0.71794 0.46002 0.0
C869 C 0.80576 0.71977 0.4588 0.0
C870 C 0.76032 0.73277 0.47988 0.0
C871 C 0.78565 0.75014 0.49927 0.0
C872 C 0.82108 0.75147 0.49832 0.0
C873 C 0.83099 0.73638 0.47834 0.0
C874 C 0.77154 0.77229 0.56453 0.0
C875 C 0.74789 0.78836 0.56184 0.0
C876 C 0.78442 0.76094 0.54434 0.0
C877 C 0.77427 0.76532 0.52065 0.0
C878 C 0.75167 0.78262 0.51781 0.0
C879 C 0.73866 0.79402 0.53815 0.0
H880 H 0.07521 0.37121 0.95928 0.0
H881 H 0.1226 0.29946 0.9759 0.0
H882 H 1.03006 0.34292 0.99251 0.0
H883 H 0.07614 0.26952 1.00863 0.0
H884 H 1.00978 0.24608 0.07928 0.0
H885 H 0.05592 0.27488 0.04705 0.0
H886 H 0.97427 0.28877 1.0044 0.0
H887 H 0.92822 0.26133 0.03765 0.0
C888 C 0.07612 0.34947 0.97024 0.0
C889 C 0.10272 0.3378 0.96508 0.0
C890 C 0.04974 0.33275 0.98912 0.0
C891 C 0.04867 0.3033 1.00325 0.0
C892 C 0.0761 0.29234 0.99846 0.0
C893 C 0.10297 0.30958 0.97972 0.0
C894 C 1.0013 0.25495 0.063 0.0
C895 C 0.96499 0.25125 0.06118 0.0
C896 C 1.028 0.27144 0.0443 0.0
C897 C 1.01929 0.28446 0.0229 0.0
C898 C 0.98255 0.27988 0.02075 0.0
C899 C 0.95583 0.26372 0.03972 0.0
H900 H 0.30599 0.11171 0.47739 0.0
H901 H 0.38184 0.06925 0.46057 0.0
H902 H 0.27598 0.06328 0.50893 0.0
H903 H 0.35371 0.0223 0.49288 0.0
H904 H 0.27565 0.91815 0.53732 0.0
H905 H 0.30219 0.96519 0.50455 0.0
H906 H 0.27895 0.04146 0.54665 0.0
H907 H 0.25045 0.994 0.57805 0.0
C908 C 0.31701 0.09275 0.48097 0.0
C909 C 0.34646 0.09453 0.46661 0.0
C910 C 0.29974 0.06472 0.49907 0.0
C911 C 0.31196 0.03815 0.5036 0.0
C912 C 0.34253 0.0412 0.48972 0.0
C913 C 0.3592 0.06866 0.47138 0.0
C914 C 0.27568 0.94472 0.5393 0.0
C915 C 0.26093 0.95206 0.56047 0.0
C916 C 0.29141 0.97209 0.52063 0.0
C917 C 0.29331 1.00778 0.52278 0.0
C918 C 0.27776 1.01449 0.54382 0.0
C919 C 0.26157 0.98706 0.56213 0.0
H920 H 0.78823 0.6825 0.03683 0.0
H921 H 0.81432 0.78545 0.07542 0.0
H922 H 0.76486 0.70345 1.0025 0.0
H923 H 0.79159 0.80643 0.0412 0.0
H924 H 0.71285 0.81532 0.98354 0.0
H925 H 0.73475 0.79438 0.01893 0.0
H926 H 0.78784 0.75039 0.97075 0.0
H927 H 0.76613 0.77057 0.93599 0.0
C928 C 0.78939 0.70971 0.03793 0.0
C929 C 0.80343 0.73221 0.05893 0.0
C930 C 0.77596 0.72181 0.01824 0.0
C931 C 0.77615 0.75672 0.01901 0.0
C932 C 0.79036 0.77919 0.04 0.0
C933 C 0.80382 0.76719 0.05959 0.0
C934 C 0.72931 0.80134 0.98058 0.0
C935 C 0.73726 0.79447 0.95678 0.0
C936 C 0.74193 0.78931 1.00085 0.0
C937 C 0.76271 0.77012 0.99777 0.0
C938 C 0.77117 0.7641 0.97397 0.0
C939 C 0.75876 0.77605 0.95392 0.0
H940 H 0.04463 0.27443 0.58237 0.0
H941 H 0.14282 0.33637 0.53609 0.0
H942 H 1.00374 0.25416 0.54733 0.0
H943 H 0.10125 0.31446 0.50031 0.0
H944 H 1.01305 0.30889 0.4461 0.0
H945 H 0.05569 0.32529 0.48047 0.0
H946 H 0.98148 0.21554 0.51268 0.0
H947 H 0.93787 0.19956 0.47829 0.0
C948 C 0.05777 0.28349 0.56463 0.0
C949 C 0.09733 0.30759 0.56224 0.0
C950 C 0.03401 0.27135 0.54435 0.0
C951 C 0.04883 0.28259 0.5208 0.0
C952 C 0.0886 0.30567 0.51819 0.0
C953 C 0.11259 0.31803 0.53868 0.0
C954 C 1.00559 0.28818 0.46056 0.0
C955 C 0.97178 0.25287 0.45944 0.0
C956 C 1.03045 0.29751 0.48022 0.0
C957 C 1.02254 0.27175 0.49941 0.0
C958 C 0.9885 0.23641 0.49841 0.0
C959 C 0.96334 0.22716 0.47872 0.0
H960 H 0.61412 0.10422 0.10654 0.0
H961 H 0.66795 0.21403 0.14155 0.0
H962 H 0.55194 0.09749 0.11466 0.0
H963 H 0.60585 0.20666 0.15043 0.0
H964 H 0.49634 0.20521 0.12732 0.0
H965 H 0.55747 0.20842 0.12599 0.0
H966 H 0.50441 0.08985 0.14578 0.0
H967 H 0.44229 0.08648 0.14682 0.0
C968 C 0.61275 0.12684 0.11611 0.0
C969 C 0.64625 0.1599 0.12311 0.0
C970 C 0.57699 0.12272 0.12106 0.0
C971 C 0.57376 0.1516 0.13308 0.0
C972 C 0.60721 0.18402 0.14086 0.0
C973 C 0.64291 0.18811 0.13595 0.0
C974 C 0.49753 0.17976 0.13161 0.0
C975 C 0.46422 0.14547 0.13703 0.0
C976 C 0.53282 0.18172 0.13104 0.0
C977 C 0.53606 0.14943 0.13577 0.0
C978 C 0.50291 0.11522 0.14184 0.0
C979 C 0.46736 0.11333 0.14264 0.0
H980 H 0.75869 0.55648 0.39606 0.0
H981 H 0.69378 0.60923 0.37386 0.0
H982 H 0.70093 0.49575 0.39988 0.0
H983 H 0.63495 0.54753 0.37806 0.0
H984 H 0.54098 0.41771 0.37235 0.0
H985 H 0.59719 0.47918 0.3631 0.0
H986 H 0.64955 0.47159 0.4296 0.0
H987 H 0.59437 0.41028 0.43844 0.0
C988 C 0.73195 0.55505 0.39185 0.0
C989 C 0.7308 0.58787 0.38503 0.0
C990 C 0.69875 0.52015 0.39416 0.0
C991 C 0.66318 0.51687 0.38988 0.0
C992 C 0.66193 0.54915 0.38159 0.0
C993 C 0.69555 0.58444 0.37914 0.0
C994 C 0.56465 0.42912 0.38488 0.0
C995 C 0.56313 0.40891 0.40613 0.0
C996 C 0.59667 0.46451 0.37969 0.0
C997 C 0.62802 0.48023 0.39549 0.0
C998 C 0.62619 0.46013 0.41681 0.0
C999 C 0.59429 0.42506 0.42204 0.0
H1000 H 0.96987 0.36854 0.11406 0.0
H1001 H 0.85445 0.3129 0.14058 0.0
H1002 H 0.9686 0.42826 0.11027 0.0
H1003 H 0.8531 0.37174 0.13663 0.0
H1004 H 0.87072 0.49002 0.1465 0.0
H1005 H 0.87875 0.43513 0.1535 0.0
H1006 H 0.93697 0.45484 0.08463 0.0
H1007 H 0.92855 0.50953 0.07741 0.0
C1008 C 0.94445 0.3691 0.11933 0.0
C1009 C 0.91228 0.33582 0.12756 0.0
C1010 C 0.94358 0.40322 0.11698 0.0
C1011 C 0.9107 0.40491 0.12312 0.0
C1012 C 0.87906 0.3718 0.13199 0.0
C1013 C 0.87979 0.33785 0.1341 0.0
C1014 C 0.88501 0.48261 0.13272 0.0
C1015 C 0.89866 0.5043 0.11127 0.0
C1016 C 0.88977 0.45112 0.1368 0.0
C1017 C 0.90843 0.44035 0.11961 0.0
C1018 C 0.92292 0.46252 0.09843 0.0
C1019 C 0.91802 0.49396 0.09429 0.0
H1020 H 0.50581 0.21141 0.39609 0.0
H1021 H 0.45155 0.09079 0.38258 0.0
H1022 H 0.56703 0.21486 0.39854 0.0
H1023 H 0.51368 0.09418 0.38538 0.0
H1024 H 0.64183 0.12686 0.37576 0.0
H1025 H 0.57978 0.12108 0.36759 0.0
H1026 H 0.59501 0.19324 0.4293 0.0
H1027 H 0.65685 0.1998 0.437 0.0
C1028 C 0.507 0.18555 0.39346 0.0
C1029 C 0.47366 0.15069 0.38948 0.0
C1030 C 0.54219 0.18753 0.39499 0.0
C1031 C 0.54525 0.15468 0.39276 0.0
C1032 C 0.51228 0.12003 0.38726 0.0
C1033 C 0.47672 0.11805 0.38561 0.0
C1034 C 0.63198 0.1417 0.38744 0.0
C1035 C 0.65445 0.16385 0.40704 0.0
C1036 C 0.59627 0.13806 0.38289 0.0
C1037 C 0.58247 0.15689 0.39766 0.0
C1038 C 0.60491 0.17877 0.4173 0.0
C1039 C 0.6403 0.18221 0.42191 0.0
H1040 H 0.57919 0.38879 0.14193 0.0
H1041 H 0.53274 0.43441 0.08984 0.0
H1042 H 0.63392 0.45179 0.14746 0.0
H1043 H 0.58848 0.49721 0.09454 0.0
H1044 H 0.68226 0.61283 0.12329 0.0
H1045 H 0.62342 0.5513 0.12172 0.0
H1046 H 0.68884 0.49391 0.1244 0.0
H1047 H 0.7468 0.55446 0.12646 0.0
C1048 C 0.58047 0.41224 0.13173 0.0
C1049 C 0.55149 0.40625 0.1153 0.0
C1050 C 0.61216 0.44841 0.1347 0.0
C1051 C 0.61592 0.47968 0.12128 0.0
C1052 C 0.58652 0.47393 0.1053 0.0
C1053 C 0.55475 0.43772 0.10235 0.0
C1054 C 0.68397 0.58703 0.12372 0.0
C1055 C 0.71939 0.5888 0.12503 0.0
C1056 C 0.65027 0.55175 0.12267 0.0
C1057 C 0.65127 0.5175 0.12304 0.0
C1058 C 0.68674 0.5195 0.12453 0.0
C1059 C 0.72018 0.55449 0.12553 0.0
H1060 H 0.84546 0.46509 0.38202 0.0
H1061 H 0.9607 0.52498 0.40857 0.0
H1062 H 0.85196 0.40967 0.37358 0.0
H1063 H 0.9667 0.46885 0.40088 0.0
H1064 H 0.9713 0.365 0.36981 0.0
H1065 H 0.9684 0.42427 0.36977 0.0
H1066 H 0.85531 0.3636 0.40003 0.0
H1067 H 0.85807 0.3054 0.39989 0.0
C1068 C 0.87237 0.46669 0.3858 0.0
C1069 C 0.9024 0.49956 0.39622 0.0
C1070 C 0.876 0.43471 0.38114 0.0
C1071 C 0.90976 0.43459 0.38675 0.0
C1072 C 0.94038 0.46796 0.39621 0.0
C1073 C 0.93672 0.49999 0.40093 0.0
C1074 C 0.94574 0.36443 0.3761 0.0
C1075 C 0.91507 0.33054 0.38501 0.0
C1076 C 0.94413 0.39835 0.37626 0.0
C1077 C 0.91156 0.39874 0.38488 0.0
C1078 C 0.88064 0.36446 0.39296 0.0
C1079 C 0.88241 0.33101 0.39308 0.0
H1080 H 0.20777 0.6321 0.58631 0.0
H1081 H 0.13124 0.61738 0.64532 0.0
H1082 H 0.19544 0.56763 0.59226 0.0
H1083 H 0.11884 0.55231 0.65135 0.0
H1084 H 0.13944 0.44837 0.66653 0.0
H1085 H 0.14681 0.51226 0.66386 0.0
H1086 H 0.14373 0.50426 0.5854 0.0
H1087 H 0.1371 0.44157 0.58808 0.0
C1088 C 0.18805 0.61504 0.60048 0.0
C1089 C 0.17016 0.63002 0.61508 0.0
C1090 C 0.18093 0.57789 0.60391 0.0
C1091 C 0.15559 0.55432 0.62204 0.0
C1092 C 0.13856 0.56959 0.63724 0.0
C1093 C 0.14572 0.60696 0.63379 0.0
C1094 C 0.13957 0.46007 0.64878 0.0
C1095 C 0.13802 0.43998 0.62753 0.0
C1096 C 0.14393 0.49674 0.64722 0.0
C1097 C 0.14679 0.51391 0.62437 0.0
C1098 C 0.14283 0.4926 0.60329 0.0
C1099 C 0.13867 0.45637 0.60484 0.0
H1100 H 0.37984 0.96656 0.87154 0.0
H1101 H 0.32333 0.86527 0.91577 0.0
H1102 H 0.43809 0.96172 0.87228 0.0
H1103 H 0.38035 0.86036 0.91613 0.0
H1104 H 0.4719 0.83667 0.88986 0.0
H1105 H 0.41801 0.84678 0.8844 0.0
H1106 H 0.48718 0.96394 0.90577 0.0
H1107 H 0.5416 0.95393 0.9112 0.0
C1108 C 0.37975 0.94336 0.88134 0.0
C1109 C 0.34686 0.91649 0.8937 0.0
C1110 C 0.41308 0.94064 0.88183 0.0
C1111 C 0.41375 0.91047 0.89416 0.0
C1112 C 0.38077 0.88369 0.90627 0.0
C1113 C 0.34804 0.88677 0.90618 0.0
C1114 C 0.47597 0.86481 0.89302 0.0
C1115 C 0.51121 0.89442 0.90106 0.0
C1116 C 0.44494 0.87053 0.89002 0.0
C1117 C 0.44823 0.90614 0.89472 0.0
C1118 C 0.48377 0.93625 0.90186 0.0
C1119 C 0.51483 0.93038 0.90518 0.0
H1120 H 0.6081 0.69753 0.58667 0.0
H1121 H 0.60227 0.69096 0.66512 0.0
H1122 H 0.54537 0.64215 0.58395 0.0
H1123 H 0.53824 0.63521 0.66241 0.0
H1124 H 0.43215 0.51614 0.64405 0.0
H1125 H 0.49746 0.56812 0.64984 0.0
H1126 H 0.48236 0.62997 0.59104 0.0
H1127 H 0.41791 0.57846 0.58522 0.0
C1128 C 0.59347 0.68407 0.60343 0.0
C1129 C 0.61024 0.69901 0.62613 0.0
C1130 C 0.55718 0.65234 0.60185 0.0
C1131 C 0.53609 0.63452 0.62294 0.0
C1132 C 0.55354 0.64816 0.64576 0.0
C1133 C 0.59029 0.68009 0.64734 0.0
C1134 C 0.44278 0.54097 0.63247 0.0
C1135 C 0.41981 0.54268 0.61386 0.0
C1136 C 0.48026 0.57082 0.63581 0.0
C1137 C 0.49565 0.60313 0.62065 0.0
C1138 C 0.47211 0.60518 0.60263 0.0
C1139 C 0.43495 0.57551 0.59927 0.0
H1140 H 0.18829 0.64143 0.93988 0.0
H1141 H 0.13055 0.63304 0.87224 0.0
H1142 H 0.18236 0.57971 0.93243 0.0
H1143 H 0.12523 0.57089 0.86453 0.0
H1144 H 0.09353 0.44088 0.8784 0.0
H1145 H 0.09438 0.50188 0.88166 0.0
H1146 H 0.21235 0.557 0.9024 0.0
H1147 H 0.21163 0.49711 0.89926 0.0
C1148 C 0.17389 0.62623 0.92352 0.0
C1149 C 0.15983 0.64231 0.90671 0.0
C1150 C 0.17085 0.59093 0.91911 0.0
C1151 C 0.15364 0.57049 0.89776 0.0
C1152 C 0.13858 0.58591 0.88116 0.0
C1153 C 0.14191 0.62161 0.8855 0.0
C1154 C 0.11972 0.46619 0.88327 0.0
C1155 C 0.15229 0.4639 0.88897 0.0
C1156 C 0.12021 0.50108 0.88516 0.0
C1157 C 0.15324 0.53412 0.89281 0.0
C1158 C 0.18618 0.53197 0.89709 0.0
C1159 C 0.18573 0.4975 0.8952 0.0
H1160 H 0.32058 0.83391 0.62527 0.0
H1161 H 0.38377 0.95658 0.62204 0.0
H1162 H 0.37866 0.8318 0.62024 0.0
H1163 H 0.4428 0.95419 0.61693 0.0
H1164 H 0.54149 0.92492 0.63251 0.0
H1165 H 0.48608 0.93313 0.6391 0.0
H1166 H 0.42346 0.84604 0.58578 0.0
H1167 H 0.47806 0.83756 0.57944 0.0
C1168 C 0.34688 0.86061 0.62355 0.0
C1169 C 0.34718 0.89549 0.62385 0.0
C1170 C 0.38032 0.85929 0.62055 0.0
C1171 C 0.41538 0.89275 0.61785 0.0
C1172 C 0.4162 0.92787 0.61898 0.0
C1173 C 0.38239 0.92923 0.62183 0.0
C1174 C 0.51584 0.90758 0.62222 0.0
C1175 C 0.51432 0.8806 0.60541 0.0
C1176 C 0.48425 0.91252 0.62585 0.0
C1177 C 0.45026 0.89013 0.61305 0.0
C1178 C 0.44903 0.86354 0.59611 0.0
C1179 C 0.48053 0.8589 0.59232 0.0
H1180 H 0.61469 0.68285 0.86152 0.0
H1181 H 0.57683 0.73193 0.91711 0.0
H1182 H 0.55115 0.62569 0.86139 0.0
H1183 H 0.51455 0.676 0.91677 0.0
H1184 H 0.39651 0.58994 0.89514 0.0
H1185 H 0.45947 0.64447 0.88829 0.0
H1186 H 0.50836 0.5714 0.8915 0.0
H1187 H 0.44508 0.51646 0.89794 0.0
C1188 C 0.59299 0.68153 0.87363 0.0
C1189 C 0.60108 0.71194 0.88942 0.0
C1190 C 0.5567 0.64886 0.87359 0.0
C1191 C 0.5277 0.64648 0.88894 0.0
C1192 C 0.53595 0.67705 0.90448 0.0
C1193 C 0.57199 0.70909 0.9048 0.0
C1194 C 0.42049 0.58526 0.89393 0.0
C1195 C 0.41564 0.54876 0.89734 0.0
C1196 C 0.45667 0.6166 0.89016 0.0
C1197 C 0.48899 0.61233 0.88955 0.0
C1198 C 0.48405 0.57563 0.89178 0.0
C1199 C 0.44782 0.54424 0.89575 0.0
loop_
_geom_bond_atom_site_label_1
_geom_bond_atom_site_label_2
_geom_bond_distance
_geom_bond_site_symmetry_2
_ccdc_geom_bond_type
Eu0 C9 2.828 . S
Eu0 O11 2.392 . S
Eu0 O13 2.418 . S
Eu0 O18 2.373 . S
Eu0 O21 2.488 . S
Eu0 O22 2.471 . S
Eu0 O23 2.349 . S
Eu1 O10 2.373 . S
Eu1 O14 2.488 . S
Eu1 O15 2.471 . S
Eu1 O16 2.349 . S
Eu1 O19 2.392 . S
Eu1 O20 2.418 . S
Eu1 C30 2.828 . S
C2 O20 1.244 . S
C2 O23 1.265 . S
C3 C4 1.379 . S
C3 C7 1.373 . S
C3 C9 1.505 . S
C4 C3 1.379 . S
C4 C6 1.369 . S
C4 H32 0.930 . S
C5 C7 1.383 . S
C5 C8 1.382 . S
C5 H33 0.930 . S
C6 C4 1.369 . S
C6 C8 1.392 . S
C6 H34 0.930 . S
C7 C3 1.373 . S
C7 C5 1.383 . S
C7 H35 0.931 . S
C8 C5 1.382 . S
C8 C6 1.392 . S
C9 Eu0 2.828 . S
C9 C3 1.505 . S
C9 O21 1.249 . S
C9 O22 1.244 . S
O10 Eu1 2.373 . S
O10 C12 1.258 . S
O11 Eu0 2.392 . S
O11 C12 1.242 . S
C12 O10 1.258 . S
C12 O11 1.242 . S
O13 Eu0 2.418 . S
O13 C17 1.244 . S
O14 Eu1 2.488 . S
O14 C30 1.249 . S
O15 Eu1 2.471 . S
O15 C30 1.244 . S
O16 Eu1 2.349 . S
O16 C17 1.265 . S
C17 O13 1.244 . S
C17 O16 1.265 . S
O18 Eu0 2.373 . S
O18 C31 1.258 . S
O19 Eu1 2.392 . S
O19 C31 1.242 . S
O20 Eu1 2.418 . S
O20 C2 1.244 . S
O21 Eu0 2.488 . S
O21 C9 1.249 . S
O22 Eu0 2.471 . S
O22 C9 1.244 . S
O23 Eu0 2.349 . S
O23 C2 1.265 . S
C24 C25 1.379 . S
C24 C28 1.373 . S
C24 C30 1.505 1_565 S
C25 C24 1.379 . S
C25 C27 1.369 . S
C25 H36 0.930 1_565 S
C26 C28 1.383 . S
C26 C29 1.382 . S
C26 H37 0.930 . S
C27 C25 1.369 . S
C27 C29 1.392 . S
C27 H38 0.930 . S
C28 C24 1.373 . S
C28 C26 1.383 . S
C28 H39 0.931 . S
C29 C26 1.382 . S
C29 C27 1.392 . S
C30 Eu1 2.828 . S
C30 O14 1.249 . S
C30 O15 1.244 . S
C30 C24 1.505 1_545 S
C31 O18 1.258 . S
C31 O19 1.242 . S
H32 C4 0.930 . S
H33 C5 0.930 . S
H34 C6 0.930 . S
H35 C7 0.931 . S
H36 C25 0.930 1_545 S
H37 C26 0.930 . S
H38 C27 0.930 . S
H39 C28 0.931 . S
Eu40 C49 2.828 . S
Eu40 O51 2.392 . S
Eu40 O53 2.418 . S
Eu40 O58 2.373 . S
Eu40 O61 2.488 . S
Eu40 O62 2.471 . S
Eu40 O63 2.349 . S
Eu41 O50 2.373 . S
Eu41 O54 2.488 . S
Eu41 O55 2.471 . S
Eu41 O56 2.349 . S
Eu41 O59 2.392 . S
Eu41 O60 2.418 . S
Eu41 C70 2.828 . S
C42 O60 1.244 . S
C42 O63 1.265 . S
C43 C44 1.379 . S
C43 C47 1.373 . S
C43 C49 1.505 . S
C44 C43 1.379 . S
C44 C46 1.369 . S
C44 H72 0.930 . S
C45 C47 1.383 . S
C45 C48 1.382 . S
C45 H73 0.930 . S
C46 C44 1.369 . S
C46 C48 1.392 . S
C46 H74 0.930 . S
C47 C43 1.373 . S
C47 C45 1.383 . S
C47 H75 0.931 . S
C48 C45 1.382 . S
C48 C46 1.392 . S
C49 Eu40 2.828 . S
C49 C43 1.505 . S
C49 O61 1.249 . S
C49 O62 1.244 . S
O50 Eu41 2.373 . S
O50 C52 1.258 . S
O51 Eu40 2.392 . S
O51 C52 1.242 . S
C52 O50 1.258 . S
C52 O51 1.242 . S
O53 Eu40 2.418 . S
O53 C57 1.244 . S
O54 Eu41 2.488 . S
O54 C70 1.249 . S
O55 Eu41 2.471 . S
O55 C70 1.244 . S
O56 Eu41 2.349 . S
O56 C57 1.265 . S
C57 O53 1.244 . S
C57 O56 1.265 . S
O58 Eu40 2.373 . S
O58 C71 1.258 . S
O59 Eu41 2.392 . S
O59 C71 1.242 . S
O60 Eu41 2.418 . S
O60 C42 1.244 . S
O61 Eu40 2.488 . S
O61 C49 1.249 . S
O62 Eu40 2.471 . S
O62 C49 1.244 . S
O63 Eu40 2.349 . S
O63 C42 1.265 . S
C64 C65 1.379 . S
C64 C68 1.373 . S
C64 C70 1.505 . S
C65 C64 1.379 . S
C65 C67 1.369 . S
C65 H76 0.930 . S
C66 C68 1.383 . S
C66 C69 1.382 . S
C66 H77 0.930 . S
C67 C65 1.369 . S
C67 C69 1.392 . S
C67 H78 0.930 . S
C68 C64 1.373 . S
C68 C66 1.383 . S
C68 H79 0.931 . S
C69 C66 1.382 . S
C69 C67 1.392 . S
C70 Eu41 2.828 . S
C70 O54 1.249 . S
C70 O55 1.244 . S
C70 C64 1.505 . S
C71 O58 1.258 . S
C71 O59 1.242 . S
H72 C44 0.930 . S
H73 C45 0.930 . S
H74 C46 0.930 . S
H75 C47 0.931 . S
H76 C65 0.930 . S
H77 C66 0.930 . S
H78 C67 0.930 . S
H79 C68 0.931 . S
Eu80 C89 2.828 . S
Eu80 O91 2.392 . S
Eu80 O93 2.418 . S
Eu80 O98 2.373 . S
Eu80 O101 2.488 . S
Eu80 O102 2.471 . S
Eu80 O103 2.349 . S
Eu81 O90 2.373 . S
Eu81 O94 2.488 . S
Eu81 O95 2.471 . S
Eu81 O96 2.349 . S
Eu81 O99 2.392 . S
Eu81 O100 2.418 . S
Eu81 C110 2.828 . S
C82 O100 1.244 . S
C82 O103 1.265 . S
C83 C84 1.379 . S
C83 C87 1.373 . S
C83 C89 1.505 . S
C84 C83 1.379 . S
C84 C86 1.369 . S
C84 H112 0.930 . S
C85 C87 1.383 . S
C85 C88 1.382 . S
C85 H113 0.930 . S
C86 C84 1.369 . S
C86 C88 1.392 . S
C86 H114 0.930 . S
C87 C83 1.373 . S
C87 C85 1.383 . S
C87 H115 0.931 . S
C88 C85 1.382 . S
C88 C86 1.392 . S
C89 Eu80 2.828 . S
C89 C83 1.505 . S
C89 O101 1.249 . S
C89 O102 1.244 . S
O90 Eu81 2.373 . S
O90 C92 1.258 . S
O91 Eu80 2.392 . S
O91 C92 1.242 . S
C92 O90 1.258 . S
C92 O91 1.242 . S
O93 Eu80 2.418 . S
O93 C97 1.244 . S
O94 Eu81 2.488 . S
O94 C110 1.249 . S
O95 Eu81 2.471 . S
O95 C110 1.244 . S
O96 Eu81 2.349 . S
O96 C97 1.265 . S
C97 O93 1.244 . S
C97 O96 1.265 . S
O98 Eu80 2.373 . S
O98 C111 1.258 . S
O99 Eu81 2.392 . S
O99 C111 1.242 . S
O100 Eu81 2.418 . S
O100 C82 1.244 . S
O101 Eu80 2.488 . S
O101 C89 1.249 . S
O102 Eu80 2.471 . S
O102 C89 1.244 . S
O103 Eu80 2.349 . S
O103 C82 1.265 . S
C104 C105 1.379 . S
C104 C108 1.373 . S
C104 C110 1.505 1_455 S
C105 C104 1.379 . S
C105 C107 1.369 . S
C105 H116 0.930 1_455 S
C106 C108 1.383 . S
C106 C109 1.382 . S
C106 H117 0.930 . S
C107 C105 1.369 . S
C107 C109 1.392 . S
C107 H118 0.930 . S
C108 C104 1.373 . S
C108 C106 1.383 . S
C108 H119 0.931 . S
C109 C106 1.382 . S
C109 C107 1.392 . S
C110 Eu81 2.828 . S
C110 O94 1.249 . S
C110 O95 1.244 . S
C110 C104 1.505 1_655 S
C111 O98 1.258 . S
C111 O99 1.242 . S
H112 C84 0.930 . S
H113 C85 0.930 . S
H114 C86 0.930 . S
H115 C87 0.931 . S
H116 C105 0.930 1_655 S
H117 C106 0.930 . S
H118 C107 0.930 . S
H119 C108 0.931 . S
Eu120 C129 2.828 . S
Eu120 O131 2.392 . S
Eu120 O133 2.418 . S
Eu120 O138 2.373 . S
Eu120 O141 2.488 . S
Eu120 O142 2.471 . S
Eu120 O143 2.349 . S
Eu121 O130 2.373 . S
Eu121 O134 2.488 . S
Eu121 O135 2.471 . S
Eu121 O136 2.349 . S
Eu121 O139 2.392 . S
Eu121 O140 2.418 . S
Eu121 C150 2.828 . S
C122 O140 1.244 . S
C122 O143 1.265 . S
C123 C124 1.379 . S
C123 C127 1.373 . S
C123 C129 1.505 1_565 S
C124 C123 1.379 . S
C124 C126 1.369 . S
C124 H152 0.930 1_565 S
C125 C127 1.383 . S
C125 C128 1.382 . S
C125 H153 0.930 . S
C126 C124 1.369 . S
C126 C128 1.392 . S
C126 H154 0.930 . S
C127 C123 1.373 . S
C127 C125 1.383 . S
C127 H155 0.931 . S
C128 C125 1.382 . S
C128 C126 1.392 . S
C129 Eu120 2.828 . S
C129 C123 1.505 1_545 S
C129 O141 1.249 . S
C129 O142 1.244 . S
O130 Eu121 2.373 . S
O130 C132 1.258 . S
O131 Eu120 2.392 . S
O131 C132 1.242 . S
C132 O130 1.258 . S
C132 O131 1.242 . S
O133 Eu120 2.418 . S
O133 C137 1.244 . S
O134 Eu121 2.488 . S
O134 C150 1.249 . S
O135 Eu121 2.471 . S
O135 C150 1.244 . S
O136 Eu121 2.349 . S
O136 C137 1.265 . S
C137 O133 1.244 . S
C137 O136 1.265 . S
O138 Eu120 2.373 . S
O138 C151 1.258 . S
O139 Eu121 2.392 . S
O139 C151 1.242 . S
O140 Eu121 2.418 . S
O140 C122 1.244 . S
O141 Eu120 2.488 . S
O141 C129 1.249 . S
O142 Eu120 2.471 . S
O142 C129 1.244 . S
O143 Eu120 2.349 . S
O143 C122 1.265 . S
C144 C145 1.379 . S
C144 C148 1.373 . S
C144 C150 1.505 . S
C145 C144 1.379 . S
C145 C147 1.369 . S
C145 H156 0.930 . S
C146 C148 1.383 . S
C146 C149 1.382 . S
C146 H157 0.930 . S
C147 C145 1.369 . S
C147 C149 1.392 . S
C147 H158 0.930 . S
C148 C144 1.373 . S
C148 C146 1.383 . S
C148 H159 0.931 . S
C149 C146 1.382 . S
C149 C147 1.392 . S
C150 Eu121 2.828 . S
C150 O134 1.249 . S
C150 O135 1.244 . S
C150 C144 1.505 . S
C151 O138 1.258 . S
C151 O139 1.242 . S
H152 C124 0.930 1_545 S
H153 C125 0.930 . S
H154 C126 0.930 . S
H155 C127 0.931 . S
H156 C145 0.930 . S
H157 C146 0.930 . S
H158 C147 0.930 . S
H159 C148 0.931 . S
Eu160 C169 2.828 . S
Eu160 O171 2.392 . S
Eu160 O173 2.418 . S
Eu160 O178 2.373 . S
Eu160 O181 2.488 . S
Eu160 O182 2.471 . S
Eu160 O183 2.349 . S
Eu161 O170 2.373 . S
Eu161 O174 2.488 . S
Eu161 O175 2.471 . S
Eu161 O176 2.349 . S
Eu161 O179 2.392 . S
Eu161 O180 2.418 . S
Eu161 C190 2.828 . S
C162 O180 1.244 . S
C162 O183 1.265 . S
C163 C164 1.379 . S
C163 C167 1.373 . S
C163 C169 1.505 . S
C164 C163 1.379 . S
C164 C166 1.369 . S
C164 H192 0.930 . S
C165 C167 1.383 . S
C165 C168 1.382 . S
C165 H193 0.930 . S
C166 C164 1.369 . S
C166 C168 1.392 . S
C166 H194 0.930 . S
C167 C163 1.373 . S
C167 C165 1.383 . S
C167 H195 0.931 . S
C168 C165 1.382 . S
C168 C166 1.392 . S
C169 Eu160 2.828 . S
C169 C163 1.505 . S
C169 O181 1.249 . S
C169 O182 1.244 . S
O170 Eu161 2.373 . S
O170 C172 1.258 . S
O171 Eu160 2.392 . S
O171 C172 1.242 . S
C172 O170 1.258 . S
C172 O171 1.242 . S
O173 Eu160 2.418 . S
O173 C177 1.244 . S
O174 Eu161 2.488 . S
O174 C190 1.249 . S
O175 Eu161 2.471 . S
O175 C190 1.244 . S
O176 Eu161 2.349 . S
O176 C177 1.265 . S
C177 O173 1.244 . S
C177 O176 1.265 . S
O178 Eu160 2.373 . S
O178 C191 1.258 . S
O179 Eu161 2.392 . S
O179 C191 1.242 . S
O180 Eu161 2.418 . S
O180 C162 1.244 . S
O181 Eu160 2.488 . S
O181 C169 1.249 . S
O182 Eu160 2.471 . S
O182 C169 1.244 . S
O183 Eu160 2.349 . S
O183 C162 1.265 . S
C184 C185 1.379 . S
C184 C188 1.373 . S
C184 C190 1.505 . S
C185 C184 1.379 . S
C185 C187 1.369 . S
C185 H196 0.930 . S
C186 C188 1.383 . S
C186 C189 1.382 . S
C186 H197 0.930 . S
C187 C185 1.369 . S
C187 C189 1.392 . S
C187 H198 0.930 . S
C188 C184 1.373 . S
C188 C186 1.383 . S
C188 H199 0.931 . S
C189 C186 1.382 . S
C189 C187 1.392 . S
C190 Eu161 2.828 . S
C190 O174 1.249 . S
C190 O175 1.244 . S
C190 C184 1.505 . S
C191 O178 1.258 . S
C191 O179 1.242 . S
H192 C164 0.930 . S
H193 C165 0.930 . S
H194 C166 0.930 . S
H195 C167 0.931 . S
H196 C185 0.930 . S
H197 C186 0.930 . S
H198 C187 0.930 . S
H199 C188 0.931 . S
Eu200 C209 2.828 . S
Eu200 O211 2.392 . S
Eu200 O213 2.418 . S
Eu200 O218 2.373 . S
Eu200 O221 2.488 . S
Eu200 O222 2.471 . S
Eu200 O223 2.349 . S
Eu201 O210 2.373 . S
Eu201 O214 2.488 . S
Eu201 O215 2.471 . S
Eu201 O216 2.349 . S
Eu201 O219 2.392 . S
Eu201 O220 2.418 . S
Eu201 C230 2.828 . S
C202 O220 1.244 . S
C202 O223 1.265 . S
C203 C204 1.379 . S
C203 C207 1.373 . S
C203 C209 1.505 1_455 S
C204 C203 1.379 . S
C204 C206 1.369 . S
C204 H232 0.930 1_455 S
C205 C207 1.383 . S
C205 C208 1.382 . S
C205 H233 0.930 . S
C206 C204 1.369 . S
C206 C208 1.392 . S
C206 H234 0.930 . S
C207 C203 1.373 . S
C207 C205 1.383 . S
C207 H235 0.931 . S
C208 C205 1.382 . S
C208 C206 1.392 . S
C209 Eu200 2.828 . S
C209 C203 1.505 1_655 S
C209 O221 1.249 . S
C209 O222 1.244 . S
O210 Eu201 2.373 . S
O210 C212 1.258 . S
O211 Eu200 2.392 . S
O211 C212 1.242 . S
C212 O210 1.258 . S
C212 O211 1.242 . S
O213 Eu200 2.418 . S
O213 C217 1.244 . S
O214 Eu201 2.488 . S
O214 C230 1.249 . S
O215 Eu201 2.471 . S
O215 C230 1.244 . S
O216 Eu201 2.349 . S
O216 C217 1.265 . S
C217 O213 1.244 . S
C217 O216 1.265 . S
O218 Eu200 2.373 . S
O218 C231 1.258 . S
O219 Eu201 2.392 . S
O219 C231 1.242 . S
O220 Eu201 2.418 . S
O220 C202 1.244 . S
O221 Eu200 2.488 . S
O221 C209 1.249 . S
O222 Eu200 2.471 . S
O222 C209 1.244 . S
O223 Eu200 2.349 . S
O223 C202 1.265 . S
C224 C225 1.379 . S
C224 C228 1.373 . S
C224 C230 1.505 . S
C225 C224 1.379 . S
C225 C227 1.369 . S
C225 H236 0.930 . S
C226 C228 1.383 . S
C226 C229 1.382 . S
C226 H237 0.930 . S
C227 C225 1.369 . S
C227 C229 1.392 . S
C227 H238 0.930 . S
C228 C224 1.373 . S
C228 C226 1.383 . S
C228 H239 0.931 . S
C229 C226 1.382 . S
C229 C227 1.392 . S
C230 Eu201 2.828 . S
C230 O214 1.249 . S
C230 O215 1.244 . S
C230 C224 1.505 . S
C231 O218 1.258 . S
C231 O219 1.242 . S
H232 C204 0.930 1_655 S
H233 C205 0.930 . S
H234 C206 0.930 . S
H235 C207 0.931 . S
H236 C225 0.930 . S
H237 C226 0.930 . S
H238 C227 0.930 . S
H239 C228 0.931 . S
Eu240 C249 2.828 . S
Eu240 O251 2.392 . S
Eu240 O253 2.418 . S
Eu240 O258 2.373 . S
Eu240 O261 2.488 . S
Eu240 O262 2.471 . S
Eu240 O263 2.349 . S
Eu241 O250 2.373 . S
Eu241 O254 2.488 . S
Eu241 O255 2.471 . S
Eu241 O256 2.349 . S
Eu241 O259 2.392 . S
Eu241 O260 2.418 . S
Eu241 C270 2.828 . S
C242 O260 1.244 . S
C242 O263 1.265 . S
C243 C244 1.379 . S
C243 C247 1.373 . S
C243 C249 1.505 1_655 S
C244 C243 1.379 . S
C244 C246 1.369 . S
C244 H272 0.930 1_655 S
C245 C247 1.383 . S
C245 C248 1.382 . S
C245 H273 0.930 . S
C246 C244 1.369 . S
C246 C248 1.392 . S
C246 H274 0.930 . S
C247 C243 1.373 . S
C247 C245 1.383 . S
C247 H275 0.931 . S
C248 C245 1.382 . S
C248 C246 1.392 . S
C249 Eu240 2.828 . S
C249 C243 1.505 1_455 S
C249 O261 1.249 . S
C249 O262 1.244 . S
O250 Eu241 2.373 . S
O250 C252 1.258 . S
O251 Eu240 2.392 . S
O251 C252 1.242 . S
C252 O250 1.258 . S
C252 O251 1.242 . S
O253 Eu240 2.418 . S
O253 C257 1.244 . S
O254 Eu241 2.488 . S
O254 C270 1.249 . S
O255 Eu241 2.471 . S
O255 C270 1.244 . S
O256 Eu241 2.349 . S
O256 C257 1.265 . S
C257 O253 1.244 . S
C257 O256 1.265 . S
O258 Eu240 2.373 . S
O258 C271 1.258 . S
O259 Eu241 2.392 . S
O259 C271 1.242 . S
O260 Eu241 2.418 . S
O260 C242 1.244 . S
O261 Eu240 2.488 . S
O261 C249 1.249 . S
O262 Eu240 2.471 . S
O262 C249 1.244 . S
O263 Eu240 2.349 . S
O263 C242 1.265 . S
C264 C265 1.379 . S
C264 C268 1.373 . S
C264 C270 1.505 . S
C265 C264 1.379 . S
C265 C267 1.369 . S
C265 H276 0.930 . S
C266 C268 1.383 . S
C266 C269 1.382 . S
C266 H277 0.930 . S
C267 C265 1.369 . S
C267 C269 1.392 . S
C267 H278 0.930 . S
C268 C264 1.373 . S
C268 C266 1.383 . S
C268 H279 0.931 . S
C269 C266 1.382 . S
C269 C267 1.392 . S
C270 Eu241 2.828 . S
C270 O254 1.249 . S
C270 O255 1.244 . S
C270 C264 1.505 . S
C271 O258 1.258 . S
C271 O259 1.242 . S
H272 C244 0.930 1_455 S
H273 C245 0.930 . S
H274 C246 0.930 . S
H275 C247 0.931 . S
H276 C265 0.930 . S
H277 C266 0.930 . S
H278 C267 0.930 . S
H279 C268 0.931 . S
Eu280 C289 2.828 . S
Eu280 O291 2.392 . S
Eu280 O293 2.418 . S
Eu280 O298 2.373 . S
Eu280 O301 2.488 . S
Eu280 O302 2.471 . S
Eu280 O303 2.349 . S
Eu281 O290 2.373 . S
Eu281 O294 2.488 . S
Eu281 O295 2.471 . S
Eu281 O296 2.349 . S
Eu281 O299 2.392 . S
Eu281 O300 2.418 . S
Eu281 C310 2.828 . S
C282 O300 1.244 . S
C282 O303 1.265 . S
C283 C284 1.379 . S
C283 C287 1.373 . S
C283 C289 1.505 . S
C284 C283 1.379 . S
C284 C286 1.369 . S
C284 H312 0.930 . S
C285 C287 1.383 . S
C285 C288 1.382 . S
C285 H313 0.930 . S
C286 C284 1.369 . S
C286 C288 1.392 . S
C286 H314 0.930 . S
C287 C283 1.373 . S
C287 C285 1.383 . S
C287 H315 0.931 . S
C288 C285 1.382 . S
C288 C286 1.392 . S
C289 Eu280 2.828 . S
C289 C283 1.505 . S
C289 O301 1.249 . S
C289 O302 1.244 . S
O290 Eu281 2.373 . S
O290 C292 1.258 . S
O291 Eu280 2.392 . S
O291 C292 1.242 . S
C292 O290 1.258 . S
C292 O291 1.242 . S
O293 Eu280 2.418 . S
O293 C297 1.244 . S
O294 Eu281 2.488 . S
O294 C310 1.249 . S
O295 Eu281 2.471 . S
O295 C310 1.244 . S
O296 Eu281 2.349 . S
O296 C297 1.265 . S
C297 O293 1.244 . S
C297 O296 1.265 . S
O298 Eu280 2.373 . S
O298 C311 1.258 . S
O299 Eu281 2.392 . S
O299 C311 1.242 . S
O300 Eu281 2.418 . S
O300 C282 1.244 . S
O301 Eu280 2.488 . S
O301 C289 1.249 . S
O302 Eu280 2.471 . S
O302 C289 1.244 . S
O303 Eu280 2.349 . S
O303 C282 1.265 . S
C304 C305 1.379 . S
C304 C308 1.373 . S
C304 C310 1.505 1_545 S
C305 C304 1.379 . S
C305 C307 1.369 . S
C305 H316 0.930 1_545 S
C306 C308 1.383 . S
C306 C309 1.382 . S
C306 H317 0.930 . S
C307 C305 1.369 . S
C307 C309 1.392 . S
C307 H318 0.930 . S
C308 C304 1.373 . S
C308 C306 1.383 . S
C308 H319 0.931 . S
C309 C306 1.382 . S
C309 C307 1.392 . S
C310 Eu281 2.828 . S
C310 O294 1.249 . S
C310 O295 1.244 . S
C310 C304 1.505 1_565 S
C311 O298 1.258 . S
C311 O299 1.242 . S
H312 C284 0.930 . S
H313 C285 0.930 . S
H314 C286 0.930 . S
H315 C287 0.931 . S
H316 C305 0.930 1_565 S
H317 C306 0.930 . S
H318 C307 0.930 . S
H319 C308 0.931 . S
Eu320 C329 2.828 . S
Eu320 O331 2.392 . S
Eu320 O333 2.418 . S
Eu320 O338 2.373 . S
Eu320 O341 2.488 . S
Eu320 O342 2.471 . S
Eu320 O343 2.349 . S
Eu321 O330 2.373 . S
Eu321 O334 2.488 . S
Eu321 O335 2.471 . S
Eu321 O336 2.349 . S
Eu321 O339 2.392 . S
Eu321 O340 2.418 . S
Eu321 C350 2.828 . S
C322 O340 1.244 . S
C322 O343 1.265 . S
C323 C324 1.379 . S
C323 C327 1.373 . S
C323 C329 1.505 . S
C324 C323 1.379 . S
C324 C326 1.369 . S
C324 H352 0.930 . S
C325 C327 1.383 . S
C325 C328 1.382 . S
C325 H353 0.930 . S
C326 C324 1.369 . S
C326 C328 1.392 . S
C326 H354 0.930 . S
C327 C323 1.373 . S
C327 C325 1.383 . S
C327 H355 0.931 . S
C328 C325 1.382 . S
C328 C326 1.392 . S
C329 Eu320 2.828 . S
C329 C323 1.505 . S
C329 O341 1.249 . S
C329 O342 1.244 . S
O330 Eu321 2.373 . S
O330 C332 1.258 . S
O331 Eu320 2.392 . S
O331 C332 1.242 . S
C332 O330 1.258 . S
C332 O331 1.242 . S
O333 Eu320 2.418 . S
O333 C337 1.244 . S
O334 Eu321 2.488 . S
O334 C350 1.249 . S
O335 Eu321 2.471 . S
O335 C350 1.244 . S
O336 Eu321 2.349 . S
O336 C337 1.265 . S
C337 O333 1.244 . S
C337 O336 1.265 . S
O338 Eu320 2.373 . S
O338 C351 1.258 . S
O339 Eu321 2.392 . S
O339 C351 1.242 . S
O340 Eu321 2.418 . S
O340 C322 1.244 . S
O341 Eu320 2.488 . S
O341 C329 1.249 . S
O342 Eu320 2.471 . S
O342 C329 1.244 . S
O343 Eu320 2.349 . S
O343 C322 1.265 . S
C344 C345 1.379 . S
C344 C348 1.373 . S
C344 C350 1.505 . S
C345 C344 1.379 . S
C345 C347 1.369 . S
C345 H356 0.930 . S
C346 C348 1.383 . S
C346 C349 1.382 . S
C346 H357 0.930 . S
C347 C345 1.369 . S
C347 C349 1.392 . S
C347 H358 0.930 . S
C348 C344 1.373 . S
C348 C346 1.383 . S
C348 H359 0.931 . S
C349 C346 1.382 . S
C349 C347 1.392 . S
C350 Eu321 2.828 . S
C350 O334 1.249 . S
C350 O335 1.244 . S
C350 C344 1.505 . S
C351 O338 1.258 . S
C351 O339 1.242 . S
H352 C324 0.930 . S
H353 C325 0.930 . S
H354 C326 0.930 . S
H355 C327 0.931 . S
H356 C345 0.930 . S
H357 C346 0.930 . S
H358 C347 0.930 . S
H359 C348 0.931 . S
Eu360 C369 2.828 . S
Eu360 O371 2.392 . S
Eu360 O373 2.418 . S
Eu360 O378 2.373 . S
Eu360 O381 2.488 . S
Eu360 O382 2.471 . S
Eu360 O383 2.349 . S
Eu361 O370 2.373 . S
Eu361 O374 2.488 . S
Eu361 O375 2.471 . S
Eu361 O376 2.349 . S
Eu361 O379 2.392 . S
Eu361 O380 2.418 . S
Eu361 C390 2.828 . S
C362 O380 1.244 . S
C362 O383 1.265 . S
C363 C364 1.379 . S
C363 C367 1.373 . S
C363 C369 1.505 . S
C364 C363 1.379 . S
C364 C366 1.369 . S
C364 H392 0.930 . S
C365 C367 1.383 . S
C365 C368 1.382 . S
C365 H393 0.930 . S
C366 C364 1.369 . S
C366 C368 1.392 . S
C366 H394 0.930 . S
C367 C363 1.373 . S
C367 C365 1.383 . S
C367 H395 0.931 . S
C368 C365 1.382 . S
C368 C366 1.392 . S
C369 Eu360 2.828 . S
C369 C363 1.505 . S
C369 O381 1.249 . S
C369 O382 1.244 . S
O370 Eu361 2.373 . S
O370 C372 1.258 . S
O371 Eu360 2.392 . S
O371 C372 1.242 . S
C372 O370 1.258 . S
C372 O371 1.242 . S
O373 Eu360 2.418 . S
O373 C377 1.244 . S
O374 Eu361 2.488 . S
O374 C390 1.249 . S
O375 Eu361 2.471 . S
O375 C390 1.244 . S
O376 Eu361 2.349 . S
O376 C377 1.265 . S
C377 O373 1.244 . S
C377 O376 1.265 . S
O378 Eu360 2.373 . S
O378 C391 1.258 . S
O379 Eu361 2.392 . S
O379 C391 1.242 . S
O380 Eu361 2.418 . S
O380 C362 1.244 . S
O381 Eu360 2.488 . S
O381 C369 1.249 . S
O382 Eu360 2.471 . S
O382 C369 1.244 . S
O383 Eu360 2.349 . S
O383 C362 1.265 . S
C384 C385 1.379 . S
C384 C388 1.373 . S
C384 C390 1.505 1_655 S
C385 C384 1.379 . S
C385 C387 1.369 . S
C385 H396 0.930 1_655 S
C386 C388 1.383 . S
C386 C389 1.382 . S
C386 H397 0.930 . S
C387 C385 1.369 . S
C387 C389 1.392 . S
C387 H398 0.930 . S
C388 C384 1.373 . S
C388 C386 1.383 . S
C388 H399 0.931 . S
C389 C386 1.382 . S
C389 C387 1.392 . S
C390 Eu361 2.828 . S
C390 O374 1.249 . S
C390 O375 1.244 . S
C390 C384 1.505 1_455 S
C391 O378 1.258 . S
C391 O379 1.242 . S
H392 C364 0.930 . S
H393 C365 0.930 . S
H394 C366 0.930 . S
H395 C367 0.931 . S
H396 C385 0.930 1_455 S
H397 C386 0.930 . S
H398 C387 0.930 . S
H399 C388 0.931 . S
Eu400 C409 2.828 . S
Eu400 O411 2.392 . S
Eu400 O413 2.418 . S
Eu400 O418 2.373 . S
Eu400 O421 2.488 . S
Eu400 O422 2.471 . S
Eu400 O423 2.349 . S
Eu401 O410 2.373 . S
Eu401 O414 2.488 . S
Eu401 O415 2.471 . S
Eu401 O416 2.349 . S
Eu401 O419 2.392 . S
Eu401 O420 2.418 . S
Eu401 C430 2.828 . S
C402 O420 1.244 . S
C402 O423 1.265 . S
C403 C404 1.379 . S
C403 C407 1.373 . S
C403 C409 1.505 1_545 S
C404 C403 1.379 . S
C404 C406 1.369 . S
C404 H432 0.930 1_545 S
C405 C407 1.383 . S
C405 C408 1.382 . S
C405 H433 0.930 . S
C406 C404 1.369 . S
C406 C408 1.392 . S
C406 H434 0.930 . S
C407 C403 1.373 . S
C407 C405 1.383 . S
C407 H435 0.931 . S
C408 C405 1.382 . S
C408 C406 1.392 . S
C409 Eu400 2.828 . S
C409 C403 1.505 1_565 S
C409 O421 1.249 . S
C409 O422 1.244 . S
O410 Eu401 2.373 . S
O410 C412 1.258 . S
O411 Eu400 2.392 . S
O411 C412 1.242 . S
C412 O410 1.258 . S
C412 O411 1.242 . S
O413 Eu400 2.418 . S
O413 C417 1.244 . S
O414 Eu401 2.488 . S
O414 C430 1.249 . S
O415 Eu401 2.471 . S
O415 C430 1.244 . S
O416 Eu401 2.349 . S
O416 C417 1.265 . S
C417 O413 1.244 . S
C417 O416 1.265 . S
O418 Eu400 2.373 . S
O418 C431 1.258 . S
O419 Eu401 2.392 . S
O419 C431 1.242 . S
O420 Eu401 2.418 . S
O420 C402 1.244 . S
O421 Eu400 2.488 . S
O421 C409 1.249 . S
O422 Eu400 2.471 . S
O422 C409 1.244 . S
O423 Eu400 2.349 . S
O423 C402 1.265 . S
C424 C425 1.379 . S
C424 C428 1.373 . S
C424 C430 1.505 . S
C425 C424 1.379 . S
C425 C427 1.369 . S
C425 H436 0.930 . S
C426 C428 1.383 . S
C426 C429 1.382 . S
C426 H437 0.930 . S
C427 C425 1.369 . S
C427 C429 1.392 . S
C427 H438 0.930 . S
C428 C424 1.373 . S
C428 C426 1.383 . S
C428 H439 0.931 . S
C429 C426 1.382 . S
C429 C427 1.392 . S
C430 Eu401 2.828 . S
C430 O414 1.249 . S
C430 O415 1.244 . S
C430 C424 1.505 . S
C431 O418 1.258 . S
C431 O419 1.242 . S
H432 C404 0.930 1_565 S
H433 C405 0.930 . S
H434 C406 0.930 . S
H435 C407 0.931 . S
H436 C425 0.930 . S
H437 C426 0.930 . S
H438 C427 0.930 . S
H439 C428 0.931 . S
Eu440 C449 2.828 . S
Eu440 O451 2.392 . S
Eu440 O453 2.418 . S
Eu440 O458 2.373 . S
Eu440 O461 2.488 . S
Eu440 O462 2.471 . S
Eu440 O463 2.349 . S
Eu441 O450 2.373 . S
Eu441 O454 2.488 . S
Eu441 O455 2.471 . S
Eu441 O456 2.349 . S
Eu441 O459 2.392 . S
Eu441 O460 2.418 . S
Eu441 C470 2.828 . S
C442 O460 1.244 . S
C442 O463 1.265 . S
C443 C444 1.379 . S
C443 C447 1.373 . S
C443 C449 1.505 . S
C444 C443 1.379 . S
C444 C446 1.369 . S
C444 H472 0.930 . S
C445 C447 1.383 . S
C445 C448 1.382 . S
C445 H473 0.930 . S
C446 C444 1.369 . S
C446 C448 1.392 . S
C446 H474 0.930 . S
C447 C443 1.373 . S
C447 C445 1.383 . S
C447 H475 0.931 . S
C448 C445 1.382 . S
C448 C446 1.392 . S
C449 Eu440 2.828 . S
C449 C443 1.505 . S
C449 O461 1.249 . S
C449 O462 1.244 . S
O450 Eu441 2.373 . S
O450 C452 1.258 . S
O451 Eu440 2.392 . S
O451 C452 1.242 . S
C452 O450 1.258 . S
C452 O451 1.242 . S
O453 Eu440 2.418 . S
O453 C457 1.244 . S
O454 Eu441 2.488 . S
O454 C470 1.249 . S
O455 Eu441 2.471 . S
O455 C470 1.244 . S
O456 Eu441 2.349 . S
O456 C457 1.265 . S
C457 O453 1.244 . S
C457 O456 1.265 . S
O458 Eu440 2.373 . S
O458 C471 1.258 . S
O459 Eu441 2.392 . S
O459 C471 1.242 . S
O460 Eu441 2.418 . S
O460 C442 1.244 . S
O461 Eu440 2.488 . S
O461 C449 1.249 . S
O462 Eu440 2.471 . S
O462 C449 1.244 . S
O463 Eu440 2.349 . S
O463 C442 1.265 . S
C464 C465 1.379 . S
C464 C468 1.373 . S
C464 C470 1.505 . S
C465 C464 1.379 . S
C465 C467 1.369 . S
C465 H476 0.930 . S
C466 C468 1.383 . S
C466 C469 1.382 . S
C466 H477 0.930 . S
C467 C465 1.369 . S
C467 C469 1.392 . S
C467 H478 0.930 . S
C468 C464 1.373 . S
C468 C466 1.383 . S
C468 H479 0.931 . S
C469 C466 1.382 . S
C469 C467 1.392 . S
C470 Eu441 2.828 . S
C470 O454 1.249 . S
C470 O455 1.244 . S
C470 C464 1.505 . S
C471 O458 1.258 . S
C471 O459 1.242 . S
H472 C444 0.930 . S
H473 C445 0.930 . S
H474 C446 0.930 . S
H475 C447 0.931 . S
H476 C465 0.930 . S
H477 C466 0.930 . S
H478 C467 0.930 . S
H479 C468 0.931 . S
H480 C488 0.950 . S
H481 C493 0.950 . S
H482 C490 0.950 . S
H483 C492 0.950 . S
H484 C494 0.950 . S
H485 C496 0.950 . S
H486 C498 0.950 . S
H487 C499 0.950 . S
C488 H480 0.950 . S
C488 C489 1.386 . S
C488 C490 1.391 . S
C489 C488 1.386 . S
C489 C493 1.393 . S
C490 H482 0.950 . S
C490 C488 1.391 . S
C490 C491 1.400 . S
C491 C490 1.400 . S
C491 C492 1.398 . S
C491 C497 1.491 . S
C492 H483 0.950 . S
C492 C491 1.398 . S
C492 C493 1.391 . S
C493 H481 0.950 . S
C493 C489 1.393 . S
C493 C492 1.391 . S
C494 H484 0.950 . S
C494 C495 1.386 . S
C494 C496 1.391 . S
C495 C494 1.386 . S
C495 C499 1.393 . S
C496 H485 0.950 . S
C496 C494 1.391 . S
C496 C497 1.400 . S
C497 C491 1.491 . S
C497 C496 1.400 . S
C497 C498 1.398 . S
C498 H486 0.950 . S
C498 C497 1.398 . S
C498 C499 1.391 . S
C499 H487 0.950 . S
C499 C495 1.393 . S
C499 C498 1.391 . S
H500 C508 0.950 . S
H501 C513 0.950 . S
H502 C510 0.950 . S
H503 C512 0.950 . S
H504 C514 0.950 . S
H505 C516 0.950 . S
H506 C518 0.950 . S
H507 C519 0.950 . S
C508 H500 0.950 . S
C508 C509 1.386 . S
C508 C510 1.391 . S
C509 C508 1.386 . S
C509 C513 1.393 . S
C510 H502 0.950 . S
C510 C508 1.391 . S
C510 C511 1.400 . S
C511 C510 1.400 . S
C511 C512 1.398 . S
C511 C517 1.491 1_455 S
C512 H503 0.950 . S
C512 C511 1.398 . S
C512 C513 1.391 . S
C513 H501 0.950 . S
C513 C509 1.393 . S
C513 C512 1.391 . S
C514 H504 0.950 . S
C514 C515 1.386 . S
C514 C516 1.391 . S
C515 C514 1.386 . S
C515 C519 1.393 . S
C516 H505 0.950 . S
C516 C514 1.391 . S
C516 C517 1.400 . S
C517 C511 1.491 1_655 S
C517 C516 1.400 . S
C517 C518 1.398 . S
C518 H506 0.950 . S
C518 C517 1.398 . S
C518 C519 1.391 . S
C519 H507 0.950 . S
C519 C515 1.393 . S
C519 C518 1.391 . S
H520 C528 0.950 . S
H521 C533 0.950 . S
H522 C530 0.950 . S
H523 C532 0.950 . S
H524 C534 0.950 . S
H525 C536 0.950 . S
H526 C538 0.950 . S
H527 C539 0.950 . S
C528 H520 0.950 . S
C528 C529 1.386 . S
C528 C530 1.391 . S
C529 C528 1.386 . S
C529 C533 1.393 . S
C530 H522 0.950 . S
C530 C528 1.391 . S
C530 C531 1.400 . S
C531 C530 1.400 . S
C531 C532 1.398 . S
C531 C537 1.491 1_545 S
C532 H523 0.950 . S
C532 C531 1.398 . S
C532 C533 1.391 . S
C533 H521 0.950 . S
C533 C529 1.393 . S
C533 C532 1.391 . S
C534 H524 0.950 . S
C534 C535 1.386 . S
C534 C536 1.391 . S
C535 C534 1.386 . S
C535 C539 1.393 . S
C536 H525 0.950 . S
C536 C534 1.391 . S
C536 C537 1.400 . S
C537 C531 1.491 1_565 S
C537 C536 1.400 . S
C537 C538 1.398 . S
C538 H526 0.950 . S
C538 C537 1.398 . S
C538 C539 1.391 . S
C539 H527 0.950 . S
C539 C535 1.393 . S
C539 C538 1.391 . S
H540 C548 0.950 . S
H541 C553 0.950 . S
H542 C550 0.950 . S
H543 C552 0.950 . S
H544 C554 0.950 . S
H545 C556 0.950 . S
H546 C558 0.950 . S
H547 C559 0.950 . S
C548 H540 0.950 . S
C548 C549 1.386 . S
C548 C550 1.391 . S
C549 C548 1.386 . S
C549 C553 1.393 . S
C550 H542 0.950 . S
C550 C548 1.391 . S
C550 C551 1.400 . S
C551 C550 1.400 . S
C551 C552 1.398 . S
C551 C557 1.491 . S
C552 H543 0.950 . S
C552 C551 1.398 . S
C552 C553 1.391 . S
C553 H541 0.950 . S
C553 C549 1.393 . S
C553 C552 1.391 . S
C554 H544 0.950 . S
C554 C555 1.386 . S
C554 C556 1.391 . S
C555 C554 1.386 . S
C555 C559 1.393 . S
C556 H545 0.950 . S
C556 C554 1.391 . S
C556 C557 1.400 . S
C557 C551 1.491 . S
C557 C556 1.400 . S
C557 C558 1.398 . S
C558 H546 0.950 . S
C558 C557 1.398 . S
C558 C559 1.391 . S
C559 H547 0.950 . S
C559 C555 1.393 . S
C559 C558 1.391 . S
H560 C568 0.950 . S
H561 C573 0.950 . S
H562 C570 0.950 . S
H563 C572 0.950 . S
H564 C574 0.950 . S
H565 C576 0.950 . S
H566 C578 0.950 . S
H567 C579 0.950 . S
C568 H560 0.950 . S
C568 C569 1.386 . S
C568 C570 1.391 . S
C569 C568 1.386 . S
C569 C573 1.393 . S
C570 H562 0.950 . S
C570 C568 1.391 . S
C570 C571 1.400 . S
C571 C570 1.400 . S
C571 C572 1.398 . S
C571 C577 1.491 1_455 S
C572 H563 0.950 . S
C572 C571 1.398 . S
C572 C573 1.391 . S
C573 H561 0.950 . S
C573 C569 1.393 . S
C573 C572 1.391 . S
C574 H564 0.950 . S
C574 C575 1.386 . S
C574 C576 1.391 . S
C575 C574 1.386 . S
C575 C579 1.393 . S
C576 H565 0.950 . S
C576 C574 1.391 . S
C576 C577 1.400 . S
C577 C571 1.491 1_655 S
C577 C576 1.400 . S
C577 C578 1.398 . S
C578 H566 0.950 . S
C578 C577 1.398 . S
C578 C579 1.391 . S
C579 H567 0.950 . S
C579 C575 1.393 . S
C579 C578 1.391 . S
H580 C588 0.950 . S
H581 C593 0.950 . S
H582 C590 0.950 . S
H583 C592 0.950 . S
H584 C594 0.950 . S
H585 C596 0.950 . S
H586 C598 0.950 . S
H587 C599 0.950 . S
C588 H580 0.950 . S
C588 C589 1.386 . S
C588 C590 1.391 . S
C589 C588 1.386 . S
C589 C593 1.393 . S
C590 H582 0.950 . S
C590 C588 1.391 . S
C590 C591 1.400 . S
C591 C590 1.400 . S
C591 C592 1.398 . S
C591 C597 1.491 1_565 S
C592 H583 0.950 . S
C592 C591 1.398 . S
C592 C593 1.391 . S
C593 H581 0.950 . S
C593 C589 1.393 . S
C593 C592 1.391 . S
C594 H584 0.950 . S
C594 C595 1.386 . S
C594 C596 1.391 . S
C595 C594 1.386 . S
C595 C599 1.393 . S
C596 H585 0.950 . S
C596 C594 1.391 . S
C596 C597 1.400 . S
C597 C591 1.491 1_545 S
C597 C596 1.400 . S
C597 C598 1.398 . S
C598 H586 0.950 . S
C598 C597 1.398 . S
C598 C599 1.391 . S
C599 H587 0.950 . S
C599 C595 1.393 . S
C599 C598 1.391 . S
H600 C608 0.950 . S
H601 C613 0.950 . S
H602 C610 0.950 . S
H603 C612 0.950 . S
H604 C614 0.950 . S
H605 C616 0.950 . S
H606 C618 0.950 . S
H607 C619 0.950 . S
C608 H600 0.950 . S
C608 C609 1.386 . S
C608 C610 1.391 . S
C609 C608 1.386 . S
C609 C613 1.393 . S
C610 H602 0.950 . S
C610 C608 1.391 . S
C610 C611 1.400 . S
C611 C610 1.400 . S
C611 C612 1.398 . S
C611 C617 1.491 . S
C612 H603 0.950 . S
C612 C611 1.398 . S
C612 C613 1.391 . S
C613 H601 0.950 . S
C613 C609 1.393 . S
C613 C612 1.391 . S
C614 H604 0.950 . S
C614 C615 1.386 . S
C614 C616 1.391 . S
C615 C614 1.386 . S
C615 C619 1.393 . S
C616 H605 0.950 . S
C616 C614 1.391 . S
C616 C617 1.400 . S
C617 C611 1.491 . S
C617 C616 1.400 . S
C617 C618 1.398 . S
C618 H606 0.950 . S
C618 C617 1.398 . S
C618 C619 1.391 . S
C619 H607 0.950 . S
C619 C615 1.393 . S
C619 C618 1.391 . S
H620 C628 0.950 . S
H621 C633 0.950 . S
H622 C630 0.950 . S
H623 C632 0.950 . S
H624 C634 0.950 . S
H625 C636 0.950 . S
H626 C638 0.950 . S
H627 C639 0.950 . S
C628 H620 0.950 . S
C628 C629 1.386 . S
C628 C630 1.391 . S
C629 C628 1.386 . S
C629 C633 1.393 . S
C630 H622 0.950 . S
C630 C628 1.391 . S
C630 C631 1.400 . S
C631 C630 1.400 . S
C631 C632 1.398 . S
C631 C637 1.491 1_455 S
C632 H623 0.950 . S
C632 C631 1.398 . S
C632 C633 1.391 . S
C633 H621 0.950 . S
C633 C629 1.393 . S
C633 C632 1.391 . S
C634 H624 0.950 . S
C634 C635 1.386 . S
C634 C636 1.391 . S
C635 C634 1.386 . S
C635 C639 1.393 . S
C636 H625 0.950 . S
C636 C634 1.391 . S
C636 C637 1.400 . S
C637 C631 1.491 1_655 S
C637 C636 1.400 . S
C637 C638 1.398 . S
C638 H626 0.950 . S
C638 C637 1.398 . S
C638 C639 1.391 . S
C639 H627 0.950 . S
C639 C635 1.393 . S
C639 C638 1.391 . S
H640 C648 0.950 . S
H641 C653 0.950 . S
H642 C650 0.950 . S
H643 C652 0.950 . S
H644 C654 0.950 . S
H645 C656 0.950 . S
H646 C658 0.950 . S
H647 C659 0.950 . S
C648 H640 0.950 . S
C648 C649 1.386 . S
C648 C650 1.391 . S
C649 C648 1.386 . S
C649 C653 1.393 . S
C650 H642 0.950 . S
C650 C648 1.391 . S
C650 C651 1.400 . S
C651 C650 1.400 . S
C651 C652 1.398 . S
C651 C657 1.491 1_565 S
C652 H643 0.950 . S
C652 C651 1.398 . S
C652 C653 1.391 . S
C653 H641 0.950 . S
C653 C649 1.393 . S
C653 C652 1.391 . S
C654 H644 0.950 . S
C654 C655 1.386 . S
C654 C656 1.391 . S
C655 C654 1.386 . S
C655 C659 1.393 . S
C656 H645 0.950 . S
C656 C654 1.391 . S
C656 C657 1.400 . S
C657 C651 1.491 1_545 S
C657 C656 1.400 . S
C657 C658 1.398 . S
C658 H646 0.950 . S
C658 C657 1.398 . S
C658 C659 1.391 . S
C659 H647 0.950 . S
C659 C655 1.393 . S
C659 C658 1.391 . S
H660 C668 0.950 . S
H661 C673 0.950 . S
H662 C670 0.950 . S
H663 C672 0.950 . S
H664 C674 0.950 . S
H665 C676 0.950 . S
H666 C678 0.950 . S
H667 C679 0.950 . S
C668 H660 0.950 . S
C668 C669 1.386 . S
C668 C670 1.391 . S
C669 C668 1.386 . S
C669 C673 1.393 . S
C670 H662 0.950 . S
C670 C668 1.391 . S
C670 C671 1.400 . S
C671 C670 1.400 . S
C671 C672 1.398 . S
C671 C677 1.491 . S
C672 H663 0.950 . S
C672 C671 1.398 . S
C672 C673 1.391 . S
C673 H661 0.950 . S
C673 C669 1.393 . S
C673 C672 1.391 . S
C674 H664 0.950 . S
C674 C675 1.386 . S
C674 C676 1.391 . S
C675 C674 1.386 . S
C675 C679 1.393 . S
C676 H665 0.950 . S
C676 C674 1.391 . S
C676 C677 1.400 . S
C677 C671 1.491 . S
C677 C676 1.400 . S
C677 C678 1.398 . S
C678 H666 0.950 . S
C678 C677 1.398 . S
C678 C679 1.391 . S
C679 H667 0.950 . S
C679 C675 1.393 . S
C679 C678 1.391 . S
H680 C688 0.950 . S
H681 C693 0.950 . S
H682 C690 0.950 . S
H683 C692 0.950 . S
H684 C694 0.950 . S
H685 C696 0.950 . S
H686 C698 0.950 . S
H687 C699 0.950 . S
C688 H680 0.950 . S
C688 C689 1.386 . S
C688 C690 1.391 . S
C689 C688 1.386 . S
C689 C693 1.393 . S
C690 H682 0.950 . S
C690 C688 1.391 . S
C690 C691 1.400 . S
C691 C690 1.400 . S
C691 C692 1.398 . S
C691 C697 1.491 1_455 S
C692 H683 0.950 . S
C692 C691 1.398 . S
C692 C693 1.391 . S
C693 H681 0.950 . S
C693 C689 1.393 . S
C693 C692 1.391 . S
C694 H684 0.950 . S
C694 C695 1.386 . S
C694 C696 1.391 . S
C695 C694 1.386 . S
C695 C699 1.393 . S
C696 H685 0.950 . S
C696 C694 1.391 . S
C696 C697 1.400 . S
C697 C691 1.491 1_655 S
C697 C696 1.400 . S
C697 C698 1.398 . S
C698 H686 0.950 . S
C698 C697 1.398 . S
C698 C699 1.391 . S
C699 H687 0.950 . S
C699 C695 1.393 . S
C699 C698 1.391 . S
H700 C708 0.950 . S
H701 C713 0.950 . S
H702 C710 0.950 . S
H703 C712 0.950 . S
H704 C714 0.950 . S
H705 C716 0.950 . S
H706 C718 0.950 . S
H707 C719 0.950 . S
C708 H700 0.950 . S
C708 C709 1.386 . S
C708 C710 1.391 . S
C709 C708 1.386 . S
C709 C713 1.393 . S
C710 H702 0.950 . S
C710 C708 1.391 . S
C710 C711 1.400 . S
C711 C710 1.400 . S
C711 C712 1.398 . S
C711 C717 1.491 1_545 S
C712 H703 0.950 . S
C712 C711 1.398 . S
C712 C713 1.391 . S
C713 H701 0.950 . S
C713 C709 1.393 . S
C713 C712 1.391 . S
C714 H704 0.950 . S
C714 C715 1.386 . S
C714 C716 1.391 . S
C715 C714 1.386 . S
C715 C719 1.393 . S
C716 H705 0.950 . S
C716 C714 1.391 . S
C716 C717 1.400 . S
C717 C711 1.491 1_565 S
C717 C716 1.400 . S
C717 C718 1.398 . S
C718 H706 0.950 . S
C718 C717 1.398 . S
C718 C719 1.391 . S
C719 H707 0.950 . S
C719 C715 1.393 . S
C719 C718 1.391 . S
H720 C728 0.950 . S
H721 C733 0.950 . S
H722 C730 0.950 . S
H723 C732 0.950 . S
H724 C734 0.950 . S
H725 C736 0.950 . S
H726 C738 0.950 . S
H727 C739 0.950 . S
C728 H720 0.950 . S
C728 C729 1.386 . S
C728 C730 1.391 . S
C729 C728 1.386 . S
C729 C733 1.393 . S
C730 H722 0.950 . S
C730 C728 1.391 . S
C730 C731 1.400 . S
C731 C730 1.400 . S
C731 C732 1.398 . S
C731 C737 1.491 . S
C732 H723 0.950 . S
C732 C731 1.398 . S
C732 C733 1.391 . S
C733 H721 0.950 . S
C733 C729 1.393 . S
C733 C732 1.391 . S
C734 H724 0.950 . S
C734 C735 1.386 . S
C734 C736 1.391 . S
C735 C734 1.386 . S
C735 C739 1.393 . S
C736 H725 0.950 . S
C736 C734 1.391 . S
C736 C737 1.400 . S
C737 C731 1.491 . S
C737 C736 1.400 . S
C737 C738 1.398 . S
C738 H726 0.950 . S
C738 C737 1.398 . S
C738 C739 1.391 . S
C739 H727 0.950 . S
C739 C735 1.393 . S
C739 C738 1.391 . S
H740 C748 0.950 . S
H741 C753 0.950 . S
H742 C750 0.950 . S
H743 C752 0.950 . S
H744 C754 0.950 . S
H745 C756 0.950 . S
H746 C758 0.950 . S
H747 C759 0.950 . S
C748 H740 0.950 . S
C748 C749 1.386 . S
C748 C750 1.391 . S
C749 C748 1.386 . S
C749 C753 1.393 . S
C750 H742 0.950 . S
C750 C748 1.391 . S
C750 C751 1.400 . S
C751 C750 1.400 . S
C751 C752 1.398 . S
C751 C757 1.491 . S
C752 H743 0.950 . S
C752 C751 1.398 . S
C752 C753 1.391 . S
C753 H741 0.950 . S
C753 C749 1.393 . S
C753 C752 1.391 . S
C754 H744 0.950 . S
C754 C755 1.386 . S
C754 C756 1.391 . S
C755 C754 1.386 . S
C755 C759 1.393 . S
C756 H745 0.950 . S
C756 C754 1.391 . S
C756 C757 1.400 . S
C757 C751 1.491 . S
C757 C756 1.400 . S
C757 C758 1.398 . S
C758 H746 0.950 . S
C758 C757 1.398 . S
C758 C759 1.391 . S
C759 H747 0.950 . S
C759 C755 1.393 . S
C759 C758 1.391 . S
H760 C768 0.950 . S
H761 C773 0.950 . S
H762 C770 0.950 . S
H763 C772 0.950 . S
H764 C774 0.950 . S
H765 C776 0.950 . S
H766 C778 0.950 . S
H767 C779 0.950 . S
C768 H760 0.950 . S
C768 C769 1.386 . S
C768 C770 1.391 . S
C769 C768 1.386 . S
C769 C773 1.393 . S
C770 H762 0.950 . S
C770 C768 1.391 . S
C770 C771 1.400 . S
C771 C770 1.400 . S
C771 C772 1.398 . S
C771 C777 1.491 . S
C772 H763 0.950 . S
C772 C771 1.398 . S
C772 C773 1.391 . S
C773 H761 0.950 . S
C773 C769 1.393 . S
C773 C772 1.391 . S
C774 H764 0.950 . S
C774 C775 1.386 . S
C774 C776 1.391 . S
C775 C774 1.386 . S
C775 C779 1.393 . S
C776 H765 0.950 . S
C776 C774 1.391 . S
C776 C777 1.400 . S
C777 C771 1.491 . S
C777 C776 1.400 . S
C777 C778 1.398 . S
C778 H766 0.950 . S
C778 C777 1.398 . S
C778 C779 1.391 . S
C779 H767 0.950 . S
C779 C775 1.393 . S
C779 C778 1.391 . S
H780 C788 0.950 . S
H781 C793 0.950 . S
H782 C790 0.950 . S
H783 C792 0.950 . S
H784 C794 0.950 . S
H785 C796 0.950 . S
H786 C798 0.950 . S
H787 C799 0.950 . S
C788 H780 0.950 . S
C788 C789 1.386 . S
C788 C790 1.391 . S
C789 C788 1.386 . S
C789 C793 1.393 . S
C790 H782 0.950 . S
C790 C788 1.391 . S
C790 C791 1.400 . S
C791 C790 1.400 . S
C791 C792 1.398 . S
C791 C797 1.491 . S
C792 H783 0.950 . S
C792 C791 1.398 . S
C792 C793 1.391 . S
C793 H781 0.950 . S
C793 C789 1.393 . S
C793 C792 1.391 . S
C794 H784 0.950 . S
C794 C795 1.386 . S
C794 C796 1.391 . S
C795 C794 1.386 . S
C795 C799 1.393 . S
C796 H785 0.950 . S
C796 C794 1.391 . S
C796 C797 1.400 . S
C797 C791 1.491 . S
C797 C796 1.400 . S
C797 C798 1.398 . S
C798 H786 0.950 . S
C798 C797 1.398 . S
C798 C799 1.391 . S
C799 H787 0.950 . S
C799 C795 1.393 . S
C799 C798 1.391 . S
H800 C808 0.950 . S
H801 C813 0.950 . S
H802 C810 0.950 . S
H803 C812 0.950 . S
H804 C814 0.950 . S
H805 C816 0.950 . S
H806 C818 0.950 . S
H807 C819 0.950 . S
C808 H800 0.950 . S
C808 C809 1.386 . S
C808 C810 1.391 . S
C809 C808 1.386 . S
C809 C813 1.393 . S
C810 H802 0.950 . S
C810 C808 1.391 . S
C810 C811 1.400 . S
C811 C810 1.400 . S
C811 C812 1.398 . S
C811 C817 1.491 . S
C812 H803 0.950 . S
C812 C811 1.398 . S
C812 C813 1.391 . S
C813 H801 0.950 . S
C813 C809 1.393 . S
C813 C812 1.391 . S
C814 H804 0.950 . S
C814 C815 1.386 . S
C814 C816 1.391 . S
C815 C814 1.386 . S
C815 C819 1.393 . S
C816 H805 0.950 . S
C816 C814 1.391 . S
C816 C817 1.400 . S
C817 C811 1.491 . S
C817 C816 1.400 . S
C817 C818 1.398 . S
C818 H806 0.950 . S
C818 C817 1.398 . S
C818 C819 1.391 . S
C819 H807 0.950 . S
C819 C815 1.393 . S
C819 C818 1.391 . S
H820 C828 0.950 . S
H821 C833 0.950 . S
H822 C830 0.950 . S
H823 C832 0.950 . S
H824 C834 0.950 . S
H825 C836 0.950 . S
H826 C838 0.950 . S
H827 C839 0.950 . S
C828 H820 0.950 . S
C828 C829 1.386 . S
C828 C830 1.391 . S
C829 C828 1.386 . S
C829 C833 1.393 . S
C830 H822 0.950 . S
C830 C828 1.391 . S
C830 C831 1.400 . S
C831 C830 1.400 . S
C831 C832 1.398 . S
C831 C837 1.491 . S
C832 H823 0.950 . S
C832 C831 1.398 . S
C832 C833 1.391 . S
C833 H821 0.950 . S
C833 C829 1.393 . S
C833 C832 1.391 . S
C834 H824 0.950 . S
C834 C835 1.386 . S
C834 C836 1.391 . S
C835 C834 1.386 . S
C835 C839 1.393 . S
C836 H825 0.950 . S
C836 C834 1.391 . S
C836 C837 1.400 . S
C837 C831 1.491 . S
C837 C836 1.400 . S
C837 C838 1.398 . S
C838 H826 0.950 . S
C838 C837 1.398 . S
C838 C839 1.391 . S
C839 H827 0.950 . S
C839 C835 1.393 . S
C839 C838 1.391 . S
H840 C848 0.950 . S
H841 C853 0.950 . S
H842 C850 0.948 . S
H843 C852 0.950 . S
H844 C854 0.950 . S
H845 C856 0.948 . S
H846 C858 0.950 . S
H847 C859 0.950 . S
C848 H840 0.950 . S
C848 C849 1.386 . S
C848 C850 1.391 . S
C849 C848 1.386 . S
C849 C853 1.393 . S
C850 H842 0.948 . S
C850 C848 1.391 . S
C850 C851 1.400 . S
C851 C850 1.400 . S
C851 C852 1.398 . S
C851 C857 1.491 1_566 S
C852 H843 0.950 . S
C852 C851 1.398 . S
C852 C853 1.391 . S
C853 H841 0.950 . S
C853 C849 1.393 . S
C853 C852 1.391 . S
C854 H844 0.950 . S
C854 C855 1.386 . S
C854 C856 1.391 . S
C855 C854 1.386 . S
C855 C859 1.393 . S
C856 H845 0.948 . S
C856 C854 1.391 . S
C856 C857 1.400 . S
C857 C851 1.491 1_544 S
C857 C856 1.400 . S
C857 C858 1.398 . S
C858 H846 0.950 . S
C858 C857 1.398 . S
C858 C859 1.391 . S
C859 H847 0.950 . S
C859 C855 1.393 . S
C859 C858 1.391 . S
H860 C868 0.950 . S
H861 C873 0.950 . S
H862 C870 0.950 . S
H863 C872 0.950 . S
H864 C874 0.950 . S
H865 C876 0.950 . S
H866 C878 0.950 . S
H867 C879 0.950 . S
C868 H860 0.950 . S
C868 C869 1.386 . S
C868 C870 1.391 . S
C869 C868 1.386 . S
C869 C873 1.393 . S
C870 H862 0.950 . S
C870 C868 1.391 . S
C870 C871 1.400 . S
C871 C870 1.400 . S
C871 C872 1.398 . S
C871 C877 1.491 . S
C872 H863 0.950 . S
C872 C871 1.398 . S
C872 C873 1.391 . S
C873 H861 0.950 . S
C873 C869 1.393 . S
C873 C872 1.391 . S
C874 H864 0.950 . S
C874 C875 1.386 . S
C874 C876 1.391 . S
C875 C874 1.386 . S
C875 C879 1.393 . S
C876 H865 0.950 . S
C876 C874 1.391 . S
C876 C877 1.400 . S
C877 C871 1.491 . S
C877 C876 1.400 . S
C877 C878 1.398 . S
C878 H866 0.950 . S
C878 C877 1.398 . S
C878 C879 1.391 . S
C879 H867 0.950 . S
C879 C875 1.393 . S
C879 C878 1.391 . S
H880 C888 0.950 . S
H881 C893 0.950 . S
H882 C890 0.950 . S
H883 C892 0.950 . S
H884 C894 0.950 . S
H885 C896 0.950 . S
H886 C898 0.950 . S
H887 C899 0.950 . S
C888 H880 0.950 . S
C888 C889 1.386 . S
C888 C890 1.391 . S
C889 C888 1.386 . S
C889 C893 1.393 . S
C890 H882 0.950 . S
C890 C888 1.391 . S
C890 C891 1.400 . S
C891 C890 1.400 . S
C891 C892 1.398 . S
C891 C897 1.491 1_456 S
C892 H883 0.950 . S
C892 C891 1.398 . S
C892 C893 1.391 . S
C893 H881 0.950 . S
C893 C889 1.393 . S
C893 C892 1.391 . S
C894 H884 0.950 . S
C894 C895 1.386 . S
C894 C896 1.391 . S
C895 C894 1.386 . S
C895 C899 1.393 . S
C896 H885 0.950 . S
C896 C894 1.391 . S
C896 C897 1.400 . S
C897 C891 1.491 1_654 S
C897 C896 1.400 . S
C897 C898 1.398 . S
C898 H886 0.950 . S
C898 C897 1.398 . S
C898 C899 1.391 . S
C899 H887 0.950 . S
C899 C895 1.393 . S
C899 C898 1.391 . S
H900 C908 0.950 . S
H901 C913 0.950 . S
H902 C910 0.950 . S
H903 C912 0.950 . S
H904 C914 0.950 . S
H905 C916 0.950 . S
H906 C918 0.950 . S
H907 C919 0.950 . S
C908 H900 0.950 . S
C908 C909 1.386 . S
C908 C910 1.391 . S
C909 C908 1.386 . S
C909 C913 1.393 . S
C910 H902 0.950 . S
C910 C908 1.391 . S
C910 C911 1.400 . S
C911 C910 1.400 . S
C911 C912 1.398 . S
C911 C917 1.491 1_545 S
C912 H903 0.950 . S
C912 C911 1.398 . S
C912 C913 1.391 . S
C913 H901 0.950 . S
C913 C909 1.393 . S
C913 C912 1.391 . S
C914 H904 0.950 . S
C914 C915 1.386 . S
C914 C916 1.391 . S
C915 C914 1.386 . S
C915 C919 1.393 . S
C916 H905 0.950 . S
C916 C914 1.391 . S
C916 C917 1.400 . S
C917 C911 1.491 1_565 S
C917 C916 1.400 . S
C917 C918 1.398 . S
C918 H906 0.950 . S
C918 C917 1.398 . S
C918 C919 1.391 . S
C919 H907 0.950 . S
C919 C915 1.393 . S
C919 C918 1.391 . S
H920 C928 0.950 . S
H921 C933 0.950 . S
H922 C930 0.950 . S
H923 C932 0.950 1_556 S
H924 C934 0.950 . S
H925 C936 0.950 . S
H926 C938 0.950 1_554 S
H927 C939 0.950 . S
C928 H920 0.950 . S
C928 C929 1.386 . S
C928 C930 1.391 . S
C929 C928 1.386 . S
C929 C933 1.393 . S
C930 H922 0.950 . S
C930 C928 1.391 . S
C930 C931 1.400 . S
C931 C930 1.400 . S
C931 C932 1.398 . S
C931 C937 1.491 1_554 S
C932 H923 0.950 1_554 S
C932 C931 1.398 . S
C932 C933 1.391 . S
C933 H921 0.950 . S
C933 C929 1.393 . S
C933 C932 1.391 . S
C934 H924 0.950 . S
C934 C935 1.386 . S
C934 C936 1.391 . S
C935 C934 1.386 . S
C935 C939 1.393 . S
C936 H925 0.950 . S
C936 C934 1.391 . S
C936 C937 1.400 . S
C937 C931 1.491 1_556 S
C937 C936 1.400 . S
C937 C938 1.398 . S
C938 H926 0.950 1_556 S
C938 C937 1.398 . S
C938 C939 1.391 . S
C939 H927 0.950 . S
C939 C935 1.393 . S
C939 C938 1.391 . S
H940 C948 0.950 . S
H941 C953 0.950 . S
H942 C950 0.939 1_655 S
H943 C952 0.950 . S
H944 C954 0.950 . S
H945 C956 0.939 1_455 S
H946 C958 0.950 . S
H947 C959 0.950 . S
C948 H940 0.950 . S
C948 C949 1.386 . S
C948 C950 1.391 . S
C949 C948 1.386 . S
C949 C953 1.393 . S
C950 H942 0.939 1_455 S
C950 C948 1.391 . S
C950 C951 1.400 . S
C951 C950 1.400 . S
C951 C952 1.398 . S
C951 C957 1.491 1_455 S
C952 H943 0.950 . S
C952 C951 1.398 . S
C952 C953 1.391 . S
C953 H941 0.950 . S
C953 C949 1.393 . S
C953 C952 1.391 . S
C954 H944 0.950 . S
C954 C955 1.386 . S
C954 C956 1.391 . S
C955 C954 1.386 . S
C955 C959 1.393 . S
C956 H945 0.939 1_655 S
C956 C954 1.391 . S
C956 C957 1.400 . S
C957 C951 1.491 1_655 S
C957 C956 1.400 . S
C957 C958 1.398 . S
C958 H946 0.950 . S
C958 C957 1.398 . S
C958 C959 1.391 . S
C959 H947 0.950 . S
C959 C955 1.393 . S
C959 C958 1.391 . S
H960 C968 0.950 . S
H961 C973 0.950 . S
H962 C970 0.950 . S
H963 C972 0.950 . S
H964 C974 0.950 . S
H965 C976 0.950 . S
H966 C978 0.950 . S
H967 C979 0.950 . S
C968 H960 0.950 . S
C968 C969 1.386 . S
C968 C970 1.391 . S
C969 C968 1.386 . S
C969 C973 1.393 . S
C970 H962 0.950 . S
C970 C968 1.391 . S
C970 C971 1.400 . S
C971 C970 1.400 . S
C971 C972 1.398 . S
C971 C977 1.491 . S
C972 H963 0.950 . S
C972 C971 1.398 . S
C972 C973 1.391 . S
C973 H961 0.950 . S
C973 C969 1.393 . S
C973 C972 1.391 . S
C974 H964 0.950 . S
C974 C975 1.386 . S
C974 C976 1.391 . S
C975 C974 1.386 . S
C975 C979 1.393 . S
C976 H965 0.950 . S
C976 C974 1.391 . S
C976 C977 1.400 . S
C977 C971 1.491 . S
C977 C976 1.400 . S
C977 C978 1.398 . S
C978 H966 0.950 . S
C978 C977 1.398 . S
C978 C979 1.391 . S
C979 H967 0.950 . S
C979 C975 1.393 . S
C979 C978 1.391 . S
H980 C988 0.950 . S
H981 C993 0.950 . S
H982 C990 0.950 . S
H983 C992 0.950 . S
H984 C994 0.950 . S
H985 C996 0.950 . S
H986 C998 0.950 . S
H987 C999 0.950 . S
C988 H980 0.950 . S
C988 C989 1.386 . S
C988 C990 1.391 . S
C989 C988 1.386 . S
C989 C993 1.393 . S
C990 H982 0.950 . S
C990 C988 1.391 . S
C990 C991 1.400 . S
C991 C990 1.400 . S
C991 C992 1.398 . S
C991 C997 1.491 . S
C992 H983 0.950 . S
C992 C991 1.398 . S
C992 C993 1.391 . S
C993 H981 0.950 . S
C993 C989 1.393 . S
C993 C992 1.391 . S
C994 H984 0.950 . S
C994 C995 1.386 . S
C994 C996 1.391 . S
C995 C994 1.386 . S
C995 C999 1.393 . S
C996 H985 0.950 . S
C996 C994 1.391 . S
C996 C997 1.400 . S
C997 C991 1.491 . S
C997 C996 1.400 . S
C997 C998 1.398 . S
C998 H986 0.950 . S
C998 C997 1.398 . S
C998 C999 1.391 . S
C999 H987 0.950 . S
C999 C995 1.393 . S
C999 C998 1.391 . S
H1000 C1008 0.950 . S
H1001 C1013 0.950 . S
H1002 C1010 0.950 . S
H1003 C1012 0.950 . S
H1004 C1014 0.950 . S
H1005 C1016 0.950 . S
H1006 C1018 0.950 . S
H1007 C1019 0.950 . S
C1008 H1000 0.950 . S
C1008 C1009 1.386 . S
C1008 C1010 1.391 . S
C1009 C1008 1.386 . S
C1009 C1013 1.393 . S
C1010 H1002 0.950 . S
C1010 C1008 1.391 . S
C1010 C1011 1.400 . S
C1011 C1010 1.400 . S
C1011 C1012 1.398 . S
C1011 C1017 1.491 . S
C1012 H1003 0.950 . S
C1012 C1011 1.398 . S
C1012 C1013 1.391 . S
C1013 H1001 0.950 . S
C1013 C1009 1.393 . S
C1013 C1012 1.391 . S
C1014 H1004 0.950 . S
C1014 C1015 1.386 . S
C1014 C1016 1.391 . S
C1015 C1014 1.386 . S
C1015 C1019 1.393 . S
C1016 H1005 0.950 . S
C1016 C1014 1.391 . S
C1016 C1017 1.400 . S
C1017 C1011 1.491 . S
C1017 C1016 1.400 . S
C1017 C1018 1.398 . S
C1018 H1006 0.950 . S
C1018 C1017 1.398 . S
C1018 C1019 1.391 . S
C1019 H1007 0.950 . S
C1019 C1015 1.393 . S
C1019 C1018 1.391 . S
H1020 C1028 0.950 . S
H1021 C1033 0.950 . S
H1022 C1030 0.950 . S
H1023 C1032 0.950 . S
H1024 C1034 0.950 . S
H1025 C1036 0.950 . S
H1026 C1038 0.950 . S
H1027 C1039 0.950 . S
C1028 H1020 0.950 . S
C1028 C1029 1.386 . S
C1028 C1030 1.391 . S
C1029 C1028 1.386 . S
C1029 C1033 1.393 . S
C1030 H1022 0.950 . S
C1030 C1028 1.391 . S
C1030 C1031 1.400 . S
C1031 C1030 1.400 . S
C1031 C1032 1.398 . S
C1031 C1037 1.491 . S
C1032 H1023 0.950 . S
C1032 C1031 1.398 . S
C1032 C1033 1.391 . S
C1033 H1021 0.950 . S
C1033 C1029 1.393 . S
C1033 C1032 1.391 . S
C1034 H1024 0.950 . S
C1034 C1035 1.386 . S
C1034 C1036 1.391 . S
C1035 C1034 1.386 . S
C1035 C1039 1.393 . S
C1036 H1025 0.950 . S
C1036 C1034 1.391 . S
C1036 C1037 1.400 . S
C1037 C1031 1.491 . S
C1037 C1036 1.400 . S
C1037 C1038 1.398 . S
C1038 H1026 0.950 . S
C1038 C1037 1.398 . S
C1038 C1039 1.391 . S
C1039 H1027 0.950 . S
C1039 C1035 1.393 . S
C1039 C1038 1.391 . S
H1040 C1048 0.950 . S
H1041 C1053 0.950 . S
H1042 C1050 0.950 . S
H1043 C1052 0.950 . S
H1044 C1054 0.950 . S
H1045 C1056 0.950 . S
H1046 C1058 0.950 . S
H1047 C1059 0.950 . S
C1048 H1040 0.950 . S
C1048 C1049 1.386 . S
C1048 C1050 1.391 . S
C1049 C1048 1.386 . S
C1049 C1053 1.393 . S
C1050 H1042 0.950 . S
C1050 C1048 1.391 . S
C1050 C1051 1.400 . S
C1051 C1050 1.400 . S
C1051 C1052 1.398 . S
C1051 C1057 1.491 . S
C1052 H1043 0.950 . S
C1052 C1051 1.398 . S
C1052 C1053 1.391 . S
C1053 H1041 0.950 . S
C1053 C1049 1.393 . S
C1053 C1052 1.391 . S
C1054 H1044 0.950 . S
C1054 C1055 1.386 . S
C1054 C1056 1.391 . S
C1055 C1054 1.386 . S
C1055 C1059 1.393 . S
C1056 H1045 0.950 . S
C1056 C1054 1.391 . S
C1056 C1057 1.400 . S
C1057 C1051 1.491 . S
C1057 C1056 1.400 . S
C1057 C1058 1.398 . S
C1058 H1046 0.950 . S
C1058 C1057 1.398 . S
C1058 C1059 1.391 . S
C1059 H1047 0.950 . S
C1059 C1055 1.393 . S
C1059 C1058 1.391 . S
H1060 C1068 0.950 . S
H1061 C1073 0.950 . S
H1062 C1070 0.950 . S
H1063 C1072 0.950 . S
H1064 C1074 0.950 . S
H1065 C1076 0.950 . S
H1066 C1078 0.950 . S
H1067 C1079 0.950 . S
C1068 H1060 0.950 . S
C1068 C1069 1.386 . S
C1068 C1070 1.391 . S
C1069 C1068 1.386 . S
C1069 C1073 1.393 . S
C1070 H1062 0.950 . S
C1070 C1068 1.391 . S
C1070 C1071 1.400 . S
C1071 C1070 1.400 . S
C1071 C1072 1.398 . S
C1071 C1077 1.491 . S
C1072 H1063 0.950 . S
C1072 C1071 1.398 . S
C1072 C1073 1.391 . S
C1073 H1061 0.950 . S
C1073 C1069 1.393 . S
C1073 C1072 1.391 . S
C1074 H1064 0.950 . S
C1074 C1075 1.386 . S
C1074 C1076 1.391 . S
C1075 C1074 1.386 . S
C1075 C1079 1.393 . S
C1076 H1065 0.950 . S
C1076 C1074 1.391 . S
C1076 C1077 1.400 . S
C1077 C1071 1.491 . S
C1077 C1076 1.400 . S
C1077 C1078 1.398 . S
C1078 H1066 0.950 . S
C1078 C1077 1.398 . S
C1078 C1079 1.391 . S
C1079 H1067 0.950 . S
C1079 C1075 1.393 . S
C1079 C1078 1.391 . S
H1080 C1088 0.950 . S
H1081 C1093 0.950 . S
H1082 C1090 0.950 . S
H1083 C1092 0.950 . S
H1084 C1094 0.950 . S
H1085 C1096 0.950 . S
H1086 C1098 0.950 . S
H1087 C1099 0.950 . S
C1088 H1080 0.950 . S
C1088 C1089 1.386 . S
C1088 C1090 1.391 . S
C1089 C1088 1.386 . S
C1089 C1093 1.393 . S
C1090 H1082 0.950 . S
C1090 C1088 1.391 . S
C1090 C1091 1.400 . S
C1091 C1090 1.400 . S
C1091 C1092 1.398 . S
C1091 C1097 1.491 . S
C1092 H1083 0.950 . S
C1092 C1091 1.398 . S
C1092 C1093 1.391 . S
C1093 H1081 0.950 . S
C1093 C1089 1.393 . S
C1093 C1092 1.391 . S
C1094 H1084 0.950 . S
C1094 C1095 1.386 . S
C1094 C1096 1.391 . S
C1095 C1094 1.386 . S
C1095 C1099 1.393 . S
C1096 H1085 0.950 . S
C1096 C1094 1.391 . S
C1096 C1097 1.400 . S
C1097 C1091 1.491 . S
C1097 C1096 1.400 . S
C1097 C1098 1.398 . S
C1098 H1086 0.950 . S
C1098 C1097 1.398 . S
C1098 C1099 1.391 . S
C1099 H1087 0.950 . S
C1099 C1095 1.393 . S
C1099 C1098 1.391 . S
H1100 C1108 0.950 . S
H1101 C1113 0.950 . S
H1102 C1110 0.950 . S
H1103 C1112 0.950 . S
H1104 C1114 0.950 . S
H1105 C1116 0.950 . S
H1106 C1118 0.950 . S
H1107 C1119 0.950 . S
C1108 H1100 0.950 . S
C1108 C1109 1.386 . S
C1108 C1110 1.391 . S
C1109 C1108 1.386 . S
C1109 C1113 1.393 . S
C1110 H1102 0.950 . S
C1110 C1108 1.391 . S
C1110 C1111 1.400 . S
C1111 C1110 1.400 . S
C1111 C1112 1.398 . S
C1111 C1117 1.491 . S
C1112 H1103 0.950 . S
C1112 C1111 1.398 . S
C1112 C1113 1.391 . S
C1113 H1101 0.950 . S
C1113 C1109 1.393 . S
C1113 C1112 1.391 . S
C1114 H1104 0.950 . S
C1114 C1115 1.386 . S
C1114 C1116 1.391 . S
C1115 C1114 1.386 . S
C1115 C1119 1.393 . S
C1116 H1105 0.950 . S
C1116 C1114 1.391 . S
C1116 C1117 1.400 . S
C1117 C1111 1.491 . S
C1117 C1116 1.400 . S
C1117 C1118 1.398 . S
C1118 H1106 0.950 . S
C1118 C1117 1.398 . S
C1118 C1119 1.391 . S
C1119 H1107 0.950 . S
C1119 C1115 1.393 . S
C1119 C1118 1.391 . S
H1120 C1128 0.950 . S
H1121 C1133 0.950 . S
H1122 C1130 0.950 . S
H1123 C1132 0.950 . S
H1124 C1134 0.950 . S
H1125 C1136 0.950 . S
H1126 C1138 0.950 . S
H1127 C1139 0.950 . S
C1128 H1120 0.950 . S
C1128 C1129 1.386 . S
C1128 C1130 1.391 . S
C1129 C1128 1.386 . S
C1129 C1133 1.393 . S
C1130 H1122 0.950 . S
C1130 C1128 1.391 . S
C1130 C1131 1.400 . S
C1131 C1130 1.400 . S
C1131 C1132 1.398 . S
C1131 C1137 1.491 . S
C1132 H1123 0.950 . S
C1132 C1131 1.398 . S
C1132 C1133 1.391 . S
C1133 H1121 0.950 . S
C1133 C1129 1.393 . S
C1133 C1132 1.391 . S
C1134 H1124 0.950 . S
C1134 C1135 1.386 . S
C1134 C1136 1.391 . S
C1135 C1134 1.386 . S
C1135 C1139 1.393 . S
C1136 H1125 0.950 . S
C1136 C1134 1.391 . S
C1136 C1137 1.400 . S
C1137 C1131 1.491 . S
C1137 C1136 1.400 . S
C1137 C1138 1.398 . S
C1138 H1126 0.950 . S
C1138 C1137 1.398 . S
C1138 C1139 1.391 . S
C1139 H1127 0.950 . S
C1139 C1135 1.393 . S
C1139 C1138 1.391 . S
H1140 C1148 0.950 . S
H1141 C1153 0.950 . S
H1142 C1150 0.950 . S
H1143 C1152 0.950 . S
H1144 C1154 0.950 . S
H1145 C1156 0.950 . S
H1146 C1158 0.950 . S
H1147 C1159 0.950 . S
C1148 H1140 0.950 . S
C1148 C1149 1.386 . S
C1148 C1150 1.391 . S
C1149 C1148 1.386 . S
C1149 C1153 1.393 . S
C1150 H1142 0.950 . S
C1150 C1148 1.391 . S
C1150 C1151 1.400 . S
C1151 C1150 1.400 . S
C1151 C1152 1.398 . S
C1151 C1157 1.491 . S
C1152 H1143 0.950 . S
C1152 C1151 1.398 . S
C1152 C1153 1.391 . S
C1153 H1141 0.950 . S
C1153 C1149 1.393 . S
C1153 C1152 1.391 . S
C1154 H1144 0.950 . S
C1154 C1155 1.386 . S
C1154 C1156 1.391 . S
C1155 C1154 1.386 . S
C1155 C1159 1.393 . S
C1156 H1145 0.950 . S
C1156 C1154 1.391 . S
C1156 C1157 1.400 . S
C1157 C1151 1.491 . S
C1157 C1156 1.400 . S
C1157 C1158 1.398 . S
C1158 H1146 0.950 . S
C1158 C1157 1.398 . S
C1158 C1159 1.391 . S
C1159 H1147 0.950 . S
C1159 C1155 1.393 . S
C1159 C1158 1.391 . S
H1160 C1168 0.950 . S
H1161 C1173 0.950 . S
H1162 C1170 0.950 . S
H1163 C1172 0.950 . S
H1164 C1174 0.950 . S
H1165 C1176 0.950 . S
H1166 C1178 0.950 . S
H1167 C1179 0.950 . S
C1168 H1160 0.950 . S
C1168 C1169 1.386 . S
C1168 C1170 1.391 . S
C1169 C1168 1.386 . S
C1169 C1173 1.393 . S
C1170 H1162 0.950 . S
C1170 C1168 1.391 . S
C1170 C1171 1.400 . S
C1171 C1170 1.400 . S
C1171 C1172 1.398 . S
C1171 C1177 1.491 . S
C1172 H1163 0.950 . S
C1172 C1171 1.398 . S
C1172 C1173 1.391 . S
C1173 H1161 0.950 . S
C1173 C1169 1.393 . S
C1173 C1172 1.391 . S
C1174 H1164 0.950 . S
C1174 C1175 1.386 . S
C1174 C1176 1.391 . S
C1175 C1174 1.386 . S
C1175 C1179 1.393 . S
C1176 H1165 0.950 . S
C1176 C1174 1.391 . S
C1176 C1177 1.400 . S
C1177 C1171 1.491 . S
C1177 C1176 1.400 . S
C1177 C1178 1.398 . S
C1178 H1166 0.950 . S
C1178 C1177 1.398 . S
C1178 C1179 1.391 . S
C1179 H1167 0.950 . S
C1179 C1175 1.393 . S
C1179 C1178 1.391 . S
H1180 C1188 0.950 . S
H1181 C1193 0.950 . S
H1182 C1190 0.950 . S
H1183 C1192 0.950 . S
H1184 C1194 0.950 . S
H1185 C1196 0.950 . S
H1186 C1198 0.950 . S
H1187 C1199 0.950 . S
C1188 H1180 0.950 . S
C1188 C1189 1.386 . S
C1188 C1190 1.391 . S
C1189 C1188 1.386 . S
C1189 C1193 1.393 . S
C1190 H1182 0.950 . S
C1190 C1188 1.391 . S
C1190 C1191 1.400 . S
C1191 C1190 1.400 . S
C1191 C1192 1.398 . S
C1191 C1197 1.491 . S
C1192 H1183 0.950 . S
C1192 C1191 1.398 . S
C1192 C1193 1.391 . S
C1193 H1181 0.950 . S
C1193 C1189 1.393 . S
C1193 C1192 1.391 . S
C1194 H1184 0.950 . S
C1194 C1195 1.386 . S
C1194 C1196 1.391 . S
C1195 C1194 1.386 . S
C1195 C1199 1.393 . S
C1196 H1185 0.950 . S
C1196 C1194 1.391 . S
C1196 C1197 1.400 . S
C1197 C1191 1.491 . S
C1197 C1196 1.400 . S
C1197 C1198 1.398 . S
C1198 H1186 0.950 . S
C1198 C1197 1.398 . S
C1198 C1199 1.391 . S
C1199 H1187 0.950 . S
C1199 C1195 1.393 . S
C1199 C1198 1.391 . S
C489 C109 1.265 . S
C495 C12 1.251 . S
C509 C128 1.264 . S
C515 C71 1.257 . S
C529 C92 1.248 . S
C535 C189 1.266 . S
C549 C151 1.264 . S
C555 C208 1.266 . S
C569 C29 1.265 . S
C575 C172 1.260 . S
C589 C48 1.265 . S
C595 C231 1.252 . S
C609 C408 1.267 . S
C615 C271 1.263 . S
C629 C292 1.252 . S
C635 C469 1.265 . S
C649 C351 1.260 . S
C655 C248 1.268 . S
C669 C372 1.263 . S
C675 C309 1.267 . S
C689 C431 1.263 . S
C695 C328 1.267 . S
C709 C389 1.264 . S
C715 C452 1.257 . S
C729 C137 1.762 . S
C735 C2 1.741 . S
C749 C57 1.755 . S
C755 C162 1.748 . S
C769 C82 1.740 . S
C775 C217 1.763 . S
C789 C257 1.764 . S
C795 C362 1.739 . S
C809 C282 1.744 . S
C815 C417 1.760 . S
C829 C337 1.748 . S
C835 C442 1.755 . S
C849 C297 2.308 . S
C855 C17 2.308 . S
C869 C42 2.316 . S
C875 C322 2.316 . S
C889 C377 2.308 . S
C895 C97 2.308 . S
C909 C122 2.308 . S
C915 C402 2.308 . S
C929 C177 2.310 . S
C935 C457 2.310 . S
C949 C242 2.310 . S
C955 C202 2.310 . S
C969 C88 1.672 . S
C975 C31 1.713 . S
C989 C52 1.714 . S
C995 C149 1.676 . S
C1009 C111 1.711 . S
C1015 C168 1.663 . S
C1029 C132 1.717 . S
C1035 C229 1.681 . S
C1049 C8 1.680 . S
C1055 C191 1.718 . S
C1069 C69 1.665 . S
C1075 C212 1.710 . S
C1089 C429 1.682 . S
C1095 C252 1.717 . S
C1109 C311 1.710 . S
C1115 C448 1.664 . S
C1129 C332 1.719 . S
C1135 C269 1.684 . S
C1149 C288 1.665 . S
C1155 C391 1.712 . S
C1169 C412 1.718 . S
C1175 C349 1.682 . S
C1189 C471 1.710 . S
C1195 C368 1.663 . S
