# Generated by pormake.
# Topology wme, (6)-cn, num edge types: 1
# Building blocks:
#     Node 0, Type 0, BuildingBlock: JUFBIX_clean_sbu_0, # of connection points: 6
#     Node 1, Type 0, BuildingBlock: JUFBIX_clean_sbu_0, # of connection points: 6
#     Node 2, Type 0, BuildingBlock: JUFBIX_clean_sbu_0, # of connection points: 6
#     Node 3, Type 0, BuildingBlock: JUFBIX_clean_sbu_0, # of connection points: 6
#     Node 4, Type 0, BuildingBlock: JUFBIX_clean_sbu_0, # of connection points: 6
#     Node 5, Type 0, BuildingBlock: JUFBIX_clean_sbu_0, # of connection points: 6
#     Node 6, Type 0, BuildingBlock: JUFBIX_clean_sbu_0, # of connection points: 6
#     Node 7, Type 0, BuildingBlock: JUFBIX_clean_sbu_0, # of connection points: 6
#     Node 8, Type 0, BuildingBlock: JUFBIX_clean_sbu_0, # of connection points: 6
#     Node 9, Type 0, BuildingBlock: JUFBIX_clean_sbu_0, # of connection points: 6
#     Node 10, Type 0, BuildingBlock: JUFBIX_clean_sbu_0, # of connection points: 6
#     Node 11, Type 0, BuildingBlock: JUFBIX_clean_sbu_0, # of connection points: 6
#     Edge 12, Type (0, 0), BuildingBlock: CIFDUS_clean_linker_0, # of connection points: 2
#     Edge 13, Type (0, 0), BuildingBlock: CIFDUS_clean_linker_0, # of connection points: 2
#     Edge 14, Type (0, 0), BuildingBlock: CIFDUS_clean_linker_0, # of connection points: 2
#     Edge 15, Type (0, 0), BuildingBlock: CIFDUS_clean_linker_0, # of connection points: 2
#     Edge 16, Type (0, 0), BuildingBlock: CIFDUS_clean_linker_0, # of connection points: 2
#     Edge 17, Type (0, 0), BuildingBlock: CIFDUS_clean_linker_0, # of connection points: 2
#     Edge 18, Type (0, 0), BuildingBlock: CIFDUS_clean_linker_0, # of connection points: 2
#     Edge 19, Type (0, 0), BuildingBlock: CIFDUS_clean_linker_0, # of connection points: 2
#     Edge 20, Type (0, 0), BuildingBlock: CIFDUS_clean_linker_0, # of connection points: 2
#     Edge 21, Type (0, 0), BuildingBlock: CIFDUS_clean_linker_0, # of connection points: 2
#     Edge 22, Type (0, 0), BuildingBlock: CIFDUS_clean_linker_0, # of connection points: 2
#     Edge 23, Type (0, 0), BuildingBlock: CIFDUS_clean_linker_0, # of connection points: 2
#     Edge 24, Type (0, 0), BuildingBlock: CIFDUS_clean_linker_0, # of connection points: 2
#     Edge 25, Type (0, 0), BuildingBlock: CIFDUS_clean_linker_0, # of connection points: 2
#     Edge 26, Type (0, 0), BuildingBlock: CIFDUS_clean_linker_0, # of connection points: 2
#     Edge 27, Type (0, 0), BuildingBlock: CIFDUS_clean_linker_0, # of connection points: 2
#     Edge 28, Type (0, 0), BuildingBlock: CIFDUS_clean_linker_0, # of connection points: 2
#     Edge 29, Type (0, 0), BuildingBlock: CIFDUS_clean_linker_0, # of connection points: 2
#     Edge 30, Type (0, 0), BuildingBlock: CIFDUS_clean_linker_0, # of connection points: 2
#     Edge 31, Type (0, 0), BuildingBlock: CIFDUS_clean_linker_0, # of connection points: 2
#     Edge 32, Type (0, 0), BuildingBlock: CIFDUS_clean_linker_0, # of connection points: 2
#     Edge 33, Type (0, 0), BuildingBlock: CIFDUS_clean_linker_0, # of connection points: 2
#     Edge 34, Type (0, 0), BuildingBlock: CIFDUS_clean_linker_0, # of connection points: 2
#     Edge 35, Type (0, 0), BuildingBlock: CIFDUS_clean_linker_0, # of connection points: 2
#     Edge 36, Type (0, 0), BuildingBlock: CIFDUS_clean_linker_0, # of connection points: 2
#     Edge 37, Type (0, 0), BuildingBlock: CIFDUS_clean_linker_0, # of connection points: 2
#     Edge 38, Type (0, 0), BuildingBlock: CIFDUS_clean_linker_0, # of connection points: 2
#     Edge 39, Type (0, 0), BuildingBlock: CIFDUS_clean_linker_0, # of connection points: 2
#     Edge 40, Type (0, 0), BuildingBlock: CIFDUS_clean_linker_0, # of connection points: 2
#     Edge 41, Type (0, 0), BuildingBlock: CIFDUS_clean_linker_0, # of connection points: 2
#     Edge 42, Type (0, 0), BuildingBlock: CIFDUS_clean_linker_0, # of connection points: 2
#     Edge 43, Type (0, 0), BuildingBlock: CIFDUS_clean_linker_0, # of connection points: 2
#     Edge 44, Type (0, 0), BuildingBlock: CIFDUS_clean_linker_0, # of connection points: 2
#     Edge 45, Type (0, 0), BuildingBlock: CIFDUS_clean_linker_0, # of connection points: 2
#     Edge 46, Type (0, 0), BuildingBlock: CIFDUS_clean_linker_0, # of connection points: 2
#     Edge 47, Type (0, 0), BuildingBlock: CIFDUS_clean_linker_0, # of connection points: 2
# Relax obj value: 0.314
# Max RMSD: 0.234
# Mean RMSD: 0.234
data_MOF--net-wme--node1-JUFBIX_clean_sbu_0--edge1-CIFDUS_clean_linker_0
_symmetry_space_group_name_H-M    P1
_symmetry_Int_Tables_number       1
_symmetry_cell_setting            triclinic
loop_
_symmetry_equiv_pos_as_xyz
'x, y, z'
_cell_length_a     29.767706
_cell_length_b     29.747013
_cell_length_c     47.446157
_cell_angle_alpha  89.962376
_cell_angle_beta   90.094823
_cell_angle_gamma 119.94301
loop_
_atom_site_label
_atom_site_type_symbol
_atom_site_fract_x
_atom_site_fract_y
_atom_site_fract_z
_atom_type_partial_charge
Co0 Co 0.1887 0.35709 0.12933 0.0
C1 C 0.2133 0.30644 0.08793 0.0
Co2 Co 0.22067 0.30963 0.14615 0.0
C3 C 0.17476 0.44582 0.12551 0.0
C4 C 0.12324 0.38516 0.09774 0.0
N5 N 0.16247 0.39818 0.11613 0.0
N6 N 0.14443 0.46282 0.11401 0.0
C7 C 0.1119 0.42477 0.09649 0.0
H8 H 0.20408 0.46679 0.14137 0.0
H9 H 0.10318 0.3486 0.0866 0.0
C10 C 0.19742 0.35872 0.18801 0.0
N11 N 0.245 0.26717 0.15945 0.0
C12 C 0.22388 0.21624 0.15343 0.0
C13 C 0.28595 0.27834 0.17617 0.0
N14 N 0.24972 0.19498 0.16568 0.0
C15 C 0.28913 0.23395 0.17991 0.0
C16 C 0.29606 0.41115 0.13446 0.0
O17 O 0.18134 0.37454 0.16749 0.0
O18 O 0.21716 0.3303 0.18305 0.0
O19 O 0.29029 0.36766 0.14255 0.0
O20 O 0.25634 0.41433 0.12801 0.0
O21 O 0.22436 0.28882 0.10951 0.0
H22 H 0.31183 0.31622 0.18496 0.0
H23 H 0.19069 0.19526 0.13972 0.0
O24 O 0.19697 0.33852 0.09114 0.0
O25 O 0.12093 0.30012 0.131 0.0
O26 O 0.15091 0.253 0.1496 0.0
C27 C 0.11265 0.25752 0.14151 0.0
H28 H 0.08201 0.42547 0.0838 0.0
H29 H 0.31783 0.2305 0.1923 0.0
Co30 Co 0.85428 0.17004 0.63324 0.0
C31 C 0.84752 0.2097 0.68647 0.0
Co32 Co 0.88816 0.25426 0.6362 0.0
C33 C 0.83785 0.06463 0.63193 0.0
C34 C 0.77007 0.06901 0.64185 0.0
N35 N 0.82011 0.09831 0.63405 0.0
N36 N 0.80074 0.01554 0.63831 0.0
C37 C 0.75811 0.01849 0.64442 0.0
H38 H 0.8776 0.07633 0.62685 0.0
H39 H 0.74451 0.08381 0.64707 0.0
C40 C 0.89839 0.2173 0.58349 0.0
N41 N 0.91875 0.32566 0.63556 0.0
C42 C 0.8954 0.35372 0.64069 0.0
C43 C 0.96554 0.35983 0.62492 0.0
N44 N 0.92505 0.4038 0.63299 0.0
C45 C 0.96956 0.40789 0.62334 0.0
C46 C 0.956 0.21775 0.6483 0.0
O47 O 0.87809 0.17278 0.59517 0.0
O48 O 0.90217 0.25558 0.59729 0.0
O49 O 0.95346 0.25885 0.64451 0.0
O50 O 0.91522 0.17384 0.64621 0.0
O51 O 0.87514 0.25348 0.67488 0.0
H52 H 0.99351 0.34979 0.61709 0.0
H53 H 0.85644 0.33714 0.64888 0.0
O54 O 0.83212 0.16872 0.67183 0.0
O55 O 0.79342 0.16601 0.61958 0.0
O56 O 0.82198 0.24795 0.6281 0.0
C57 C 0.78573 0.204 0.62019 0.0
H58 H 0.72156 0.9871 0.65195 0.0
H59 H 0.00147 0.44225 0.6141 0.0
Co60 Co 0.65008 0.84066 0.12877 0.0
C61 C 0.69955 0.91441 0.08615 0.0
Co62 Co 0.69796 0.92071 0.14448 0.0
C63 C 0.56136 0.7375 0.12554 0.0
C64 C 0.6223 0.74649 0.09812 0.0
N65 N 0.60908 0.77279 0.1163 0.0
N66 N 0.5445 0.69015 0.1141 0.0
C67 C 0.58276 0.69562 0.09682 0.0
H68 H 0.54008 0.74601 0.14111 0.0
H69 H 0.65883 0.76296 0.08701 0.0
C70 C 0.65091 0.85006 0.18752 0.0
N71 N 0.73987 0.98785 0.15702 0.0
C72 C 0.79049 0.01788 0.15065 0.0
C73 C 0.72855 0.01774 0.17354 0.0
N74 N 0.81142 0.0652 0.1625 0.0
C75 C 0.77258 0.06562 0.17683 0.0
C76 C 0.59572 0.89355 0.13357 0.0
O77 O 0.63365 0.81736 0.16736 0.0
O78 O 0.67907 0.89791 0.18181 0.0
O79 O 0.63936 0.93153 0.14115 0.0
O80 O 0.59256 0.8506 0.12734 0.0
O81 O 0.71745 0.94411 0.10733 0.0
H82 H 0.69082 0.00555 0.18254 0.0
H83 H 0.81148 0.00559 0.13702 0.0
O84 O 0.66781 0.86614 0.09013 0.0
O85 O 0.70734 0.83019 0.13064 0.0
O86 O 0.75517 0.90831 0.14778 0.0
C87 C 0.7503 0.86499 0.1405 0.0
H88 H 0.58212 0.66509 0.08412 0.0
H89 H 0.77593 0.09791 0.18901 0.0
Co90 Co 0.83195 0.68958 0.64069 0.0
C91 C 0.78779 0.64185 0.69298 0.0
Co92 Co 0.74792 0.63696 0.64086 0.0
C93 C 0.93734 0.77904 0.6385 0.0
C94 C 0.93215 0.70969 0.65507 0.0
N95 N 0.90335 0.72857 0.64368 0.0
N96 N 0.98618 0.79206 0.64624 0.0
C97 C 0.98272 0.74831 0.65662 0.0
H98 H 0.92623 0.80573 0.62982 0.0
H99 H 0.91698 0.67058 0.66287 0.0
C100 C 0.78909 0.68675 0.58905 0.0
N101 N 0.67701 0.59564 0.63776 0.0
C102 C 0.64877 0.54394 0.64163 0.0
C103 C 0.64442 0.60874 0.62536 0.0
N104 N 0.60014 0.52376 0.63135 0.0
C105 C 0.59723 0.56475 0.62138 0.0
C106 C 0.78009 0.74072 0.65252 0.0
O107 O 0.83266 0.70987 0.60184 0.0
O108 O 0.75011 0.65144 0.60196 0.0
O109 O 0.74069 0.69608 0.64848 0.0
O110 O 0.82506 0.74602 0.65175 0.0
O111 O 0.74493 0.62313 0.67993 0.0
H112 H 0.65535 0.64714 0.61773 0.0
H113 H 0.66462 0.5214 0.65059 0.0
O114 O 0.8297 0.6698 0.6796 0.0
O115 O 0.83927 0.63346 0.62932 0.0
O116 O 0.75671 0.57818 0.6332 0.0
C117 C 0.80245 0.58712 0.62862 0.0
H118 H 0.01402 0.74482 0.66598 0.0
H119 H 0.5647 0.56301 0.61021 0.0
Co120 Co 0.16484 0.81645 0.13481 0.0
C121 C 0.09108 0.79185 0.09204 0.0
Co122 Co 0.08478 0.7843 0.15027 0.0
C123 C 0.26838 0.83128 0.13108 0.0
C124 C 0.25785 0.88249 0.1037 0.0
N125 N 0.23255 0.84339 0.12224 0.0
N126 N 0.31511 0.86162 0.11902 0.0
C127 C 0.30864 0.89393 0.10177 0.0
H128 H 0.26067 0.80171 0.14667 0.0
H129 H 0.24066 0.90205 0.09266 0.0
C130 C 0.15497 0.80653 0.19355 0.0
N131 N 0.01757 0.75935 0.16253 0.0
C132 C 0.98797 0.78023 0.15555 0.0
C133 C 0.9871 0.71839 0.17903 0.0
N134 N 0.94036 0.75433 0.167 0.0
C135 C 0.9393 0.71502 0.18171 0.0
C136 C 0.11189 0.70924 0.13899 0.0
O137 O 0.18807 0.82296 0.17358 0.0
O138 O 0.10727 0.7873 0.18759 0.0
O139 O 0.07379 0.71473 0.14658 0.0
O140 O 0.15499 0.74918 0.1333 0.0
O141 O 0.06162 0.78085 0.1132 0.0
H142 H 0.99879 0.69264 0.18839 0.0
H143 H 0.00075 0.81332 0.14169 0.0
O144 O 0.13934 0.80851 0.09606 0.0
O145 O 0.17524 0.88424 0.13661 0.0
O146 O 0.09731 0.85415 0.15377 0.0
C147 C 0.14049 0.89254 0.14639 0.0
H148 H 0.3384 0.92344 0.08858 0.0
H149 H 0.90658 0.6863 0.19368 0.0
Co150 Co 0.31578 0.14706 0.63602 0.0
C151 C 0.35681 0.15379 0.69012 0.0
Co152 Co 0.36803 0.11535 0.63996 0.0
C153 C 0.22325 0.15893 0.63426 0.0
C154 C 0.29469 0.23042 0.63789 0.0
N155 N 0.27525 0.17888 0.63462 0.0
N156 N 0.20996 0.19618 0.63713 0.0
C157 C 0.25522 0.24113 0.63895 0.0
H158 H 0.19581 0.11779 0.63328 0.0
H159 H 0.33503 0.25883 0.6409 0.0
C160 C 0.3256 0.10434 0.58643 0.0
N161 N 0.41134 0.08782 0.64198 0.0
C162 C 0.46065 0.11382 0.65134 0.0
C163 C 0.40684 0.04571 0.62871 0.0
N164 N 0.48797 0.09115 0.64338 0.0
C165 C 0.45418 0.04788 0.62935 0.0
C166 C 0.26389 0.04438 0.64954 0.0
O167 O 0.29951 0.12327 0.59743 0.0
O168 O 0.36002 0.10174 0.60098 0.0
O169 O 0.30851 0.04881 0.64667 0.0
O170 O 0.25919 0.08439 0.64759 0.0
O171 O 0.37542 0.12795 0.67893 0.0
H172 H 0.37292 0.01799 0.6171 0.0
H173 H 0.47781 0.15172 0.66111 0.0
O174 O 0.33163 0.16885 0.67486 0.0
O175 O 0.37287 0.20947 0.62396 0.0
O176 O 0.42706 0.18252 0.63309 0.0
C177 C 0.41905 0.21878 0.62563 0.0
H178 H 0.26007 0.27941 0.64152 0.0
H179 H 0.46393 0.02183 0.61857 0.0
Co180 Co 0.69526 0.82765 0.40884 0.0
C181 C 0.65634 0.81111 0.35389 0.0
Co182 Co 0.63614 0.74698 0.39985 0.0
C183 C 0.78408 0.92915 0.39933 0.0
C184 C 0.74446 0.92483 0.43778 0.0
N185 N 0.74411 0.89605 0.41573 0.0
N186 N 0.80863 0.97752 0.41013 0.0
C187 C 0.78392 0.97504 0.4343 0.0
H188 H 0.79406 0.91838 0.3795 0.0
H189 H 0.71715 0.9104 0.45506 0.0
C190 C 0.67808 0.76222 0.45411 0.0
N191 N 0.58602 0.67863 0.39346 0.0
C192 C 0.54012 0.6515 0.40687 0.0
C193 C 0.58745 0.64475 0.3751 0.0
N194 N 0.51309 0.60213 0.39772 0.0
C195 C 0.54271 0.59752 0.37781 0.0
C196 C 0.73617 0.76933 0.38869 0.0
O197 O 0.70632 0.80871 0.44572 0.0
O198 O 0.64197 0.73002 0.43808 0.0
O199 O 0.68959 0.73231 0.38999 0.0
O200 O 0.74662 0.8149 0.39518 0.0
O201 O 0.63143 0.76388 0.36159 0.0
H202 H 0.61894 0.65376 0.36068 0.0
H203 H 0.52704 0.6673 0.4234 0.0
O204 O 0.68495 0.84555 0.37175 0.0
O205 O 0.64333 0.84065 0.42239 0.0
O206 O 0.58338 0.763 0.40953 0.0
C207 C 0.59582 0.8074 0.41937 0.0
H208 H 0.79398 0.00722 0.44848 0.0
H209 H 0.53234 0.56273 0.36579 0.0
Co210 Co 0.85667 0.68563 0.90784 0.0
C211 C 0.85126 0.63689 0.85585 0.0
Co212 Co 0.89119 0.63496 0.90742 0.0
C213 C 0.83776 0.77409 0.90749 0.0
C214 C 0.772 0.70099 0.89673 0.0
N215 N 0.82185 0.72298 0.90532 0.0
N216 N 0.79948 0.78433 0.9007 0.0
C217 C 0.75819 0.7382 0.89404 0.0
H218 H 0.87692 0.80322 0.91308 0.0
H219 H 0.74764 0.66057 0.89122 0.0
C220 C 0.90223 0.68743 0.9585 0.0
N221 N 0.92142 0.59341 0.90932 0.0
C222 C 0.89765 0.54165 0.90489 0.0
C223 C 0.96891 0.60633 0.91908 0.0
N224 N 0.92795 0.52148 0.91194 0.0
C225 C 0.97309 0.5623 0.92064 0.0
C226 C 0.95928 0.73902 0.89395 0.0
O227 O 0.87765 0.70682 0.94614 0.0
O228 O 0.90806 0.65288 0.94597 0.0
O229 O 0.9562 0.69503 0.89768 0.0
O230 O 0.91865 0.74264 0.89584 0.0
O231 O 0.87636 0.61888 0.86865 0.0
H232 H 0.99774 0.64483 0.92587 0.0
H233 H 0.85829 0.51894 0.89724 0.0
O234 O 0.83748 0.66491 0.86935 0.0
O235 O 0.79533 0.62913 0.92027 0.0
O236 O 0.82477 0.57551 0.91727 0.0
C237 C 0.78735 0.58344 0.92206 0.0
H238 H 0.7214 0.732 0.88614 0.0
H239 H 0.00596 0.56026 0.92886 0.0
Co240 Co 0.15819 0.84545 0.41558 0.0
C241 C 0.18298 0.8277 0.36119 0.0
Co242 Co 0.24104 0.87386 0.40874 0.0
C243 C 0.05602 0.82474 0.40161 0.0
C244 C 0.05846 0.79169 0.44132 0.0
N245 N 0.08862 0.82097 0.41989 0.0
N246 N 0.00661 0.79839 0.41064 0.0
C247 C 0.00788 0.77761 0.43564 0.0
H248 H 0.06816 0.84562 0.38184 0.0
H249 H 0.07236 0.78084 0.45974 0.0
C250 C 0.21664 0.89662 0.46207 0.0
N251 N 0.31104 0.89668 0.40503 0.0
C252 C 0.33245 0.86698 0.39945 0.0
C253 C 0.35128 0.94353 0.41193 0.0
N254 N 0.38424 0.89282 0.40332 0.0
C255 C 0.39636 0.94127 0.41094 0.0
C256 C 0.21243 0.94623 0.39638 0.0
O257 O 0.17049 0.87247 0.45275 0.0
O258 O 0.25283 0.89834 0.44702 0.0
O259 O 0.25138 0.93952 0.39737 0.0
O260 O 0.16786 0.90898 0.40258 0.0
O261 O 0.22936 0.85133 0.37034 0.0
H262 H 0.34777 0.97629 0.41884 0.0
H263 H 0.31003 0.82605 0.39455 0.0
O264 O 0.14634 0.81969 0.37791 0.0
O265 O 0.14797 0.78193 0.42868 0.0
O266 O 0.22911 0.80675 0.42015 0.0
C267 C 0.18447 0.77197 0.42818 0.0
H268 H 0.97474 0.75476 0.44905 0.0
H269 H 0.4347 0.97231 0.41646 0.0
Co270 Co 0.31165 0.17491 0.90496 0.0
C271 C 0.35913 0.22165 0.85276 0.0
Co272 Co 0.36514 0.25967 0.90508 0.0
C273 C 0.221 0.0686 0.90581 0.0
C274 C 0.28968 0.07566 0.88728 0.0
N275 N 0.2712 0.10342 0.90032 0.0
N276 N 0.20798 0.02032 0.89677 0.0
C277 C 0.25133 0.02507 0.88511 0.0
H278 H 0.19456 0.07863 0.91585 0.0
H279 H 0.32848 0.09156 0.87894 0.0
C280 C 0.31387 0.21507 0.95645 0.0
N281 N 0.4085 0.33036 0.90932 0.0
C282 C 0.4605 0.35719 0.90623 0.0
C283 C 0.39653 0.36388 0.92156 0.0
N284 N 0.4818 0.40577 0.91673 0.0
C285 C 0.44137 0.41015 0.92613 0.0
C286 C 0.26232 0.23012 0.89456 0.0
O287 O 0.29349 0.1714 0.94387 0.0
O288 O 0.34771 0.25551 0.94376 0.0
O289 O 0.30767 0.26929 0.89672 0.0
O290 O 0.2556 0.18454 0.89631 0.0
O291 O 0.38092 0.26419 0.86621 0.0
H292 H 0.35812 0.35425 0.92843 0.0
H293 H 0.48243 0.34053 0.89746 0.0
O294 O 0.32932 0.17988 0.86581 0.0
O295 O 0.36757 0.16555 0.91421 0.0
O296 O 0.42241 0.24859 0.91348 0.0
C297 C 0.41369 0.20248 0.91625 0.0
H298 H 0.25474 0.99461 0.87464 0.0
H299 H 0.44394 0.4432 0.93712 0.0
Co300 Co 0.14724 0.30696 0.40699 0.0
C301 C 0.16239 0.35559 0.35393 0.0
Co302 Co 0.11384 0.35758 0.40192 0.0
C303 C 0.16079 0.2163 0.40937 0.0
C304 C 0.22983 0.28756 0.39986 0.0
N305 N 0.17969 0.26787 0.40721 0.0
N306 N 0.19734 0.20327 0.40347 0.0
C307 C 0.24074 0.24831 0.3976 0.0
H308 H 0.12062 0.18895 0.41403 0.0
H309 H 0.25613 0.32765 0.39449 0.0
C310 C 0.095 0.30551 0.45428 0.0
N311 N 0.08586 0.40056 0.40076 0.0
C312 C 0.11272 0.45128 0.39403 0.0
C313 C 0.0409 0.39316 0.4117 0.0
N314 N 0.08753 0.47654 0.40128 0.0
C315 C 0.04194 0.44003 0.4122 0.0
C316 C 0.04618 0.2555 0.38765 0.0
O317 O 0.12083 0.28569 0.44417 0.0
O318 O 0.09135 0.33992 0.44007 0.0
O319 O 0.04992 0.29987 0.39014 0.0
O320 O 0.08555 0.2507 0.39265 0.0
O321 O 0.13502 0.37385 0.36351 0.0
H322 H 0.01117 0.35705 0.42069 0.0
H323 H 0.15223 0.47034 0.38638 0.0
O324 O 0.17229 0.32731 0.36979 0.0
O325 O 0.20851 0.36295 0.42147 0.0
O326 O 0.17887 0.41549 0.4139 0.0
C327 C 0.2159 0.40861 0.42135 0.0
H328 H 0.27714 0.25269 0.39036 0.0
H329 H 0.01279 0.44716 0.42134 0.0
Co330 Co 0.82858 0.13792 0.89826 0.0
C331 C 0.77779 0.14261 0.84844 0.0
Co332 Co 0.74447 0.10783 0.90125 0.0
C333 C 0.94046 0.1797 0.90737 0.0
C334 C 0.91614 0.16142 0.86441 0.0
N335 N 0.89813 0.16124 0.89059 0.0
N336 N 0.9838 0.19239 0.89237 0.0
C337 C 0.96844 0.18089 0.86543 0.0
H338 H 0.93948 0.18293 0.93006 0.0
H339 H 0.8927 0.14662 0.84561 0.0
C340 C 0.79221 0.09789 0.95051 0.0
N341 N 0.67498 0.08434 0.90778 0.0
C342 C 0.64842 0.10985 0.90441 0.0
C343 C 0.64099 0.03874 0.91975 0.0
N344 N 0.59922 0.08201 0.91393 0.0
C345 C 0.5945 0.03716 0.9235 0.0
C346 C 0.76815 0.03257 0.8871 0.0
O347 O 0.83439 0.11898 0.93648 0.0
O348 O 0.7516 0.09424 0.9395 0.0
O349 O 0.72978 0.03886 0.89249 0.0
O350 O 0.81335 0.07173 0.88691 0.0
O351 O 0.7362 0.11927 0.86256 0.0
H352 H 0.64993 0.0092 0.92621 0.0
H353 H 0.66508 0.14831 0.89542 0.0
O354 O 0.8205 0.15523 0.86051 0.0
O355 O 0.84468 0.2045 0.9096 0.0
O356 O 0.76153 0.17834 0.91014 0.0
C357 C 0.80846 0.21484 0.91261 0.0
H358 H 0.99296 0.18355 0.84792 0.0
H359 H 0.56045 0.00603 0.93344 0.0
H360 H 0.23486 0.97874 0.15015 0.0
H361 H 0.07128 0.92727 0.15174 0.0
H362 H 0.09086 0.01707 0.15789 0.0
H363 H 0.15485 0.1103 0.16261 0.0
H364 H 0.31801 0.16052 0.16312 0.0
H365 H 0.2983 0.07088 0.15668 0.0
C366 C 0.20344 0.98716 0.15173 0.0
C367 C 0.15168 0.94651 0.15021 0.0
C368 C 0.21499 0.03855 0.15581 0.0
C369 C 0.11142 0.95792 0.15278 0.0
C370 C 0.12262 0.00922 0.15629 0.0
C371 C 0.186 0.1015 0.16121 0.0
C372 C 0.23785 0.14192 0.16317 0.0
C373 C 0.17427 0.04984 0.15778 0.0
C374 C 0.27788 0.13002 0.16186 0.0
C375 C 0.2666 0.07886 0.15802 0.0
H376 H 0.18588 0.26613 0.65824 0.0
H377 H 0.11763 0.11212 0.62255 0.0
H378 H 0.03197 0.10366 0.62572 0.0
H379 H 0.97758 0.1421 0.63569 0.0
H380 H 0.04738 0.29905 0.66701 0.0
H381 H 0.1322 0.30455 0.66802 0.0
C382 C 0.15276 0.23083 0.65069 0.0
C383 C 0.15887 0.19009 0.63976 0.0
C384 C 0.10394 0.22684 0.65178 0.0
C385 C 0.11451 0.14412 0.63112 0.0
C386 C 0.06543 0.13933 0.6328 0.0
C387 C 0.01123 0.17731 0.64312 0.0
C388 C 0.00633 0.22008 0.65147 0.0
C389 C 0.05987 0.1807 0.64276 0.0
C390 C 0.05031 0.26568 0.66056 0.0
C391 C 0.09869 0.26881 0.66107 0.0
H392 H 0.89605 0.05512 0.15991 0.0
H393 H 0.8452 0.16771 0.15889 0.0
H394 H 0.93457 0.23751 0.15166 0.0
H395 H 0.02658 0.26597 0.14482 0.0
H396 H 0.07843 0.15403 0.14793 0.0
H397 H 0.98896 0.08409 0.15489 0.0
C398 C 0.90466 0.09496 0.158 0.0
C399 C 0.86423 0.1064 0.15973 0.0
C400 C 0.95607 0.13472 0.15409 0.0
C401 C 0.87581 0.15817 0.1578 0.0
C402 C 0.92677 0.19793 0.1535 0.0
C403 C 0.01827 0.22622 0.14688 0.0
C404 C 0.05888 0.215 0.14557 0.0
C405 C 0.9671 0.18657 0.15144 0.0
C406 C 0.04773 0.16352 0.14879 0.0
C407 C 0.99666 0.1236 0.15276 0.0
H408 H 0.85721 0.84084 0.65639 0.0
H409 H 0.6907 0.74509 0.65012 0.0
H410 H 0.68293 0.82245 0.64437 0.0
H411 H 0.72359 0.91594 0.63814 0.0
H412 H 0.88985 0.01226 0.6456 0.0
H413 H 0.89756 0.93526 0.65272 0.0
C414 C 0.8191 0.83683 0.65418 0.0
C415 C 0.77457 0.78725 0.65367 0.0
C416 C 0.81495 0.88131 0.6504 0.0
C417 C 0.72556 0.7828 0.6507 0.0
C418 C 0.72111 0.82696 0.64717 0.0
C419 C 0.76155 0.92048 0.64174 0.0
C420 C 0.80599 0.97016 0.64138 0.0
C421 C 0.76562 0.87625 0.64651 0.0
C422 C 0.85493 0.9747 0.64536 0.0
C423 C 0.85938 0.93066 0.64975 0.0
H424 H 0.9512 0.84928 0.16262 0.0
H425 H 0.83775 0.68623 0.16312 0.0
H426 H 0.7687 0.70639 0.15415 0.0
H427 H 0.74112 0.77026 0.1454 0.0
H428 H 0.85391 0.93373 0.14685 0.0
H429 H 0.92314 0.91359 0.15548 0.0
C430 C 0.91135 0.81823 0.16066 0.0
C431 C 0.89948 0.76631 0.16334 0.0
C432 C 0.87201 0.83021 0.15568 0.0
C433 C 0.84765 0.72643 0.16133 0.0
C434 C 0.80832 0.73796 0.15602 0.0
C435 C 0.78091 0.80152 0.14743 0.0
C436 C 0.79255 0.85341 0.14518 0.0
C437 C 0.82013 0.78967 0.15298 0.0
C438 C 0.84409 0.8935 0.14838 0.0
C439 C 0.8836 0.88199 0.15334 0.0
H440 H 0.08482 0.81208 0.6452 0.0
H441 H 0.9915 0.88592 0.64704 0.0
H442 H 0.0699 0.97089 0.6496 0.0
H443 H 0.16442 0.02365 0.65184 0.0
H444 H 0.2576 0.9495 0.65084 0.0
H445 H 0.17906 0.86451 0.64865 0.0
C446 C 0.08142 0.84661 0.6465 0.0
C447 C 0.03219 0.84245 0.64608 0.0
C448 C 0.12648 0.89508 0.64856 0.0
C449 C 0.02878 0.88787 0.647 0.0
C450 C 0.07359 0.93645 0.64877 0.0
C451 C 0.16768 0.98894 0.65142 0.0
C452 C 0.21684 0.9929 0.65158 0.0
C453 C 0.12255 0.9404 0.64973 0.0
C454 C 0.22026 0.94751 0.65091 0.0
C455 C 0.17541 0.89896 0.64945 0.0
H456 H 0.91037 0.71673 0.4098 0.0
H457 H 0.00349 0.8752 0.38228 0.0
H458 H 0.92561 0.87654 0.36728 0.0
H459 H 0.83138 0.83739 0.36961 0.0
H460 H 0.73764 0.67981 0.39871 0.0
H461 H 0.81541 0.67262 0.4048 0.0
C462 C 0.91337 0.75118 0.40015 0.0
C463 C 0.96209 0.79612 0.39762 0.0
C464 C 0.86848 0.75175 0.39194 0.0
C465 C 0.96617 0.84029 0.38448 0.0
C466 C 0.92173 0.84112 0.37606 0.0
C467 C 0.82795 0.80104 0.37658 0.0
C468 C 0.7793 0.75953 0.38423 0.0
C469 C 0.87269 0.79776 0.38075 0.0
C470 C 0.77489 0.71232 0.39279 0.0
C471 C 0.81934 0.7084 0.39657 0.0
H472 H 0.97773 0.83803 0.8931 0.0
H473 H 0.0552 0.74804 0.89024 0.0
H474 H 0.13927 0.82784 0.89186 0.0
H475 H 0.19014 0.92224 0.89599 0.0
H476 H 0.11309 0.01249 0.89848 0.0
H477 H 0.02891 0.93282 0.89617 0.0
C478 C 0.01295 0.83573 0.89248 0.0
C479 C 0.01013 0.78701 0.89139 0.0
C480 C 0.06102 0.88161 0.89395 0.0
C481 C 0.05623 0.78494 0.89087 0.0
C482 C 0.10428 0.83053 0.89201 0.0
C483 C 0.15506 0.92473 0.8957 0.0
C484 C 0.15811 0.97349 0.89721 0.0
C485 C 0.10704 0.87895 0.89386 0.0
C486 C 0.11201 0.97562 0.89761 0.0
C487 C 0.06388 0.93008 0.896 0.0
H488 H 0.27341 0.17921 0.40361 0.0
H489 H 0.1072 0.11159 0.39697 0.0
H490 H 0.09786 0.02593 0.39145 0.0
H491 H 0.13669 0.97035 0.38987 0.0
H492 H 0.30306 0.03877 0.39524 0.0
H493 H 0.31262 0.12503 0.39823 0.0
C494 C 0.23509 0.14614 0.40045 0.0
C495 C 0.19115 0.15226 0.40075 0.0
C496 C 0.23008 0.09731 0.39656 0.0
C497 C 0.14176 0.10829 0.39732 0.0
C498 C 0.13638 0.05925 0.39383 0.0
C499 C 0.17515 0.00419 0.39127 0.0
C500 C 0.21912 0.99825 0.39252 0.0
C501 C 0.18028 0.05339 0.39355 0.0
C502 C 0.26864 0.04238 0.39415 0.0
C503 C 0.27409 0.09161 0.39616 0.0
H504 H 0.17835 0.18144 0.92722 0.0
H505 H 0.24591 0.29496 0.86092 0.0
H506 H 0.16584 0.29934 0.85739 0.0
H507 H 0.07358 0.26262 0.86962 0.0
H508 H 0.00689 0.15005 0.93629 0.0
H509 H 0.0905 0.15471 0.9442 0.0
C510 C 0.17541 0.20729 0.91212 0.0
C511 C 0.21683 0.23681 0.89376 0.0
C512 C 0.1299 0.21006 0.91062 0.0
C513 C 0.21386 0.27145 0.87489 0.0
C514 C 0.16829 0.27395 0.87295 0.0
C515 C 0.07801 0.24023 0.88633 0.0
C516 C 0.03448 0.20568 0.9022 0.0
C517 C 0.12568 0.2424 0.89022 0.0
C518 C 0.04014 0.17705 0.924 0.0
C519 C 0.08764 0.17921 0.92821 0.0
H520 H 0.02611 0.15803 0.37526 0.0
H521 H 0.95118 0.24707 0.39353 0.0
H522 H 0.86862 0.1672 0.39988 0.0
H523 H 0.82077 0.07257 0.40672 0.0
H524 H 0.89473 0.98327 0.38822 0.0
H525 H 0.97481 0.0627 0.37533 0.0
C526 C 0.99146 0.15996 0.37999 0.0
C527 C 0.99493 0.2084 0.38429 0.0
C528 C 0.94424 0.11387 0.38401 0.0
C529 C 0.94963 0.21031 0.39013 0.0
C530 C 0.90246 0.16464 0.39403 0.0
C531 C 0.85436 0.07074 0.3995 0.0
C532 C 0.85261 0.02273 0.39879 0.0
C533 C 0.89983 0.11635 0.3921 0.0
C534 C 0.89564 0.0201 0.38893 0.0
C535 C 0.9413 0.06541 0.38171 0.0
H536 H 0.72024 0.80338 0.90453 0.0
H537 H 0.885 0.87702 0.8896 0.0
H538 H 0.88837 0.95966 0.88137 0.0
H539 H 0.8449 0.01059 0.87874 0.0
H540 H 0.68031 0.93788 0.89435 0.0
H541 H 0.67606 0.85413 0.90061 0.0
C542 C 0.75684 0.83734 0.89921 0.0
C543 C 0.80232 0.83387 0.89764 0.0
C544 C 0.75831 0.88447 0.8941 0.0
C545 C 0.84958 0.87862 0.89133 0.0
C546 C 0.85141 0.92575 0.88631 0.0
C547 C 0.80781 0.97638 0.88315 0.0
C548 C 0.76288 0.9805 0.886 0.0
C549 C 0.80601 0.92899 0.88756 0.0
C550 C 0.71534 0.93572 0.89179 0.0
C551 C 0.71303 0.88799 0.89567 0.0
H552 H 0.19039 0.68862 0.13861 0.0
H553 H 0.02374 0.61399 0.13296 0.0
H554 H 0.01897 0.53031 0.12444 0.0
H555 H 0.06309 0.47914 0.11715 0.0
H556 H 0.22952 0.555 0.12429 0.0
H557 H 0.23357 0.63767 0.13368 0.0
C558 C 0.15289 0.65406 0.13559 0.0
C559 C 0.10746 0.65758 0.13617 0.0
C560 C 0.15055 0.60643 0.13085 0.0
C561 C 0.05924 0.61229 0.13263 0.0
C562 C 0.05657 0.56454 0.12762 0.0
C563 C 0.10015 0.5139 0.12064 0.0
C564 C 0.14603 0.51113 0.11984 0.0
C565 C 0.10206 0.56127 0.12638 0.0
C566 C 0.19376 0.55617 0.12493 0.0
C567 C 0.19607 0.60342 0.13022 0.0
H568 H 0.72924 0.22129 0.65804 0.0
H569 H 0.72281 0.1571 0.57581 0.0
H570 H 0.62815 0.11532 0.57576 0.0
H571 H 0.54739 0.09087 0.60101 0.0
H572 H 0.55312 0.15064 0.68442 0.0
H573 H 0.648 0.19981 0.68252 0.0
C574 C 0.70697 0.1997 0.63976 0.0
C575 C 0.73242 0.19305 0.61667 0.0
C576 C 0.65261 0.17365 0.64057 0.0
C577 C 0.7036 0.16345 0.59347 0.0
C578 C 0.64962 0.13897 0.59366 0.0
C579 C 0.56949 0.11408 0.61889 0.0
C580 C 0.54358 0.11649 0.64303 0.0
C581 C 0.62372 0.14241 0.61748 0.0
C582 C 0.57252 0.14797 0.66575 0.0
C583 C 0.62659 0.17626 0.66458 0.0
H584 H 0.52742 0.59218 0.11683 0.0
H585 H 0.45217 0.68356 0.12339 0.0
H586 H 0.36876 0.60493 0.13104 0.0
H587 H 0.31699 0.51049 0.13447 0.0
H588 H 0.39127 0.41789 0.12968 0.0
H589 H 0.47551 0.49674 0.12284 0.0
C590 C 0.49265 0.59468 0.11985 0.0
C591 C 0.49582 0.64356 0.11935 0.0
C592 C 0.44485 0.54922 0.12457 0.0
C593 C 0.45072 0.64646 0.12383 0.0
C594 C 0.40304 0.60151 0.12809 0.0
C595 C 0.35161 0.50744 0.13197 0.0
C596 C 0.34783 0.45833 0.1323 0.0
C597 C 0.39963 0.55274 0.12832 0.0
C598 C 0.39316 0.45521 0.12949 0.0
C599 C 0.44124 0.50026 0.12548 0.0
H600 H 0.89798 0.59865 0.6258 0.0
H601 H 0.73589 0.48137 0.62674 0.0
H602 H 0.75986 0.4135 0.62788 0.0
H603 H 0.82726 0.38847 0.63015 0.0
H604 H 0.98868 0.50771 0.63269 0.0
H605 H 0.9642 0.57423 0.6287 0.0
C606 C 0.86759 0.55827 0.62605 0.0
C607 C 0.81513 0.54512 0.62613 0.0
C608 C 0.88159 0.51995 0.62758 0.0
C609 C 0.77654 0.49253 0.62652 0.0
C610 C 0.79027 0.45381 0.62735 0.0
C611 C 0.85716 0.42894 0.63022 0.0
C612 C 0.90994 0.4429 0.63176 0.0
C613 C 0.84274 0.46718 0.62831 0.0
C614 C 0.94795 0.4957 0.63122 0.0
C615 C 0.93396 0.53381 0.62902 0.0
H616 H 0.49671 0.81486 0.13524 0.0
H617 H 0.58805 0.98155 0.12891 0.0
H618 H 0.50856 0.98647 0.12388 0.0
H619 H 0.41288 0.94262 0.12 0.0
H620 H 0.32272 0.77626 0.12814 0.0
H621 H 0.40207 0.77188 0.13391 0.0
C622 C 0.49933 0.85236 0.13277 0.0
C623 C 0.54826 0.89779 0.13214 0.0
C624 C 0.45367 0.85484 0.13022 0.0
C625 C 0.55088 0.94606 0.12941 0.0
C626 C 0.50546 0.94883 0.12645 0.0
C627 C 0.41078 0.90549 0.12296 0.0
C628 C 0.36205 0.85974 0.12344 0.0
C629 C 0.45665 0.90339 0.12657 0.0
C630 C 0.35971 0.81193 0.12784 0.0
C631 C 0.40506 0.80943 0.13102 0.0
H632 H 0.61554 0.44105 0.63472 0.0
H633 H 0.49773 0.48316 0.62022 0.0
H634 H 0.43367 0.39264 0.61287 0.0
H635 H 0.40999 0.30208 0.61258 0.0
H636 H 0.52379 0.2574 0.6327 0.0
H637 H 0.59113 0.34908 0.6352 0.0
C638 C 0.57588 0.43079 0.63032 0.0
C639 C 0.56192 0.46958 0.62806 0.0
C640 C 0.53863 0.37825 0.62683 0.0
C641 C 0.51015 0.45474 0.62176 0.0
C642 C 0.47327 0.4028 0.61762 0.0
C643 C 0.44945 0.31209 0.61755 0.0
C644 C 0.46168 0.2729 0.6228 0.0
C645 C 0.48704 0.36436 0.62029 0.0
C646 C 0.51333 0.28684 0.62859 0.0
C647 C 0.55169 0.3392 0.63026 0.0
H648 H 0.46965 0.92306 0.43521 0.0
H649 H 0.37289 0.81116 0.37262 0.0
H650 H 0.42649 0.77035 0.37473 0.0
H651 H 0.5032 0.76893 0.39282 0.0
H652 H 0.60261 0.88406 0.45338 0.0
H653 H 0.5453 0.92084 0.45386 0.0
C654 C 0.46061 0.89017 0.42177 0.0
C655 C 0.41745 0.87044 0.40366 0.0
C656 C 0.49175 0.8671 0.42299 0.0
C657 C 0.40569 0.82696 0.38687 0.0
C658 C 0.43634 0.80361 0.38805 0.0
C659 C 0.51168 0.80139 0.40654 0.0
C660 C 0.55679 0.82356 0.42319 0.0
C661 C 0.47954 0.82343 0.40598 0.0
C662 C 0.56792 0.86623 0.44048 0.0
C663 C 0.5354 0.88748 0.44061 0.0
H664 H 0.70494 0.59442 0.93326 0.0
H665 H 0.74744 0.47741 0.91807 0.0
H666 H 0.65522 0.41077 0.9161 0.0
H667 H 0.5631 0.38777 0.91546 0.0
H668 H 0.52432 0.50889 0.92577 0.0
H669 H 0.61513 0.57216 0.93263 0.0
C670 C 0.69439 0.55431 0.92969 0.0
C671 C 0.73315 0.54101 0.92564 0.0
C672 C 0.64195 0.5171 0.92734 0.0
C673 C 0.71842 0.4887 0.92136 0.0
C674 C 0.66572 0.45075 0.91996 0.0
C675 C 0.57429 0.42799 0.9189 0.0
C676 C 0.53625 0.44317 0.92006 0.0
C677 C 0.62717 0.46481 0.92222 0.0
C678 C 0.55211 0.49559 0.9251 0.0
C679 C 0.60424 0.53201 0.92895 0.0
H680 H 0.21449 0.71929 0.39449 0.0
H681 H 0.12124 0.7032 0.46728 0.0
H682 H 0.08217 0.60875 0.46539 0.0
H683 H 0.07007 0.53093 0.44081 0.0
H684 H 0.1584 0.54698 0.36577 0.0
H685 H 0.2035 0.64133 0.37043 0.0
C686 C 0.1868 0.69502 0.41041 0.0
C687 C 0.17132 0.71774 0.43132 0.0
C688 C 0.16264 0.64085 0.40826 0.0
C689 C 0.13418 0.68618 0.45131 0.0
C690 C 0.11142 0.63232 0.45 0.0
C691 C 0.09864 0.55507 0.42527 0.0
C692 C 0.11059 0.53202 0.40285 0.0
C693 C 0.12427 0.60921 0.42807 0.0
C694 C 0.14863 0.56387 0.38324 0.0
C695 C 0.17452 0.61776 0.38594 0.0
H696 H 0.61409 0.17973 0.91638 0.0
H697 H 0.49565 0.01805 0.9134 0.0
H698 H 0.42862 0.04175 0.91624 0.0
H699 H 0.40321 0.10726 0.91836 0.0
H700 H 0.51927 0.26979 0.91896 0.0
H701 H 0.58784 0.24678 0.91841 0.0
C702 C 0.57364 0.14975 0.9161 0.0
C703 C 0.56006 0.09705 0.91479 0.0
C704 C 0.53493 0.16372 0.91749 0.0
C705 C 0.50736 0.05874 0.91484 0.0
C706 C 0.46891 0.07227 0.91634 0.0
C707 C 0.44347 0.13793 0.91859 0.0
C708 C 0.45604 0.19022 0.91876 0.0
C709 C 0.48225 0.1245 0.91765 0.0
C710 C 0.5085 0.22921 0.91897 0.0
C711 C 0.54767 0.21605 0.91849 0.0
H712 H 0.30371 0.4036 0.42637 0.0
H713 H 0.24865 0.51295 0.42175 0.0
H714 H 0.33803 0.58432 0.41676 0.0
H715 H 0.43078 0.61391 0.40804 0.0
H716 H 0.48245 0.50203 0.4075 0.0
H717 H 0.39519 0.43296 0.41979 0.0
C718 C 0.31107 0.44306 0.4247 0.0
C719 C 0.26941 0.45282 0.42427 0.0
C720 C 0.36197 0.48328 0.42038 0.0
C721 C 0.27997 0.50433 0.42217 0.0
C722 C 0.33103 0.54509 0.41907 0.0
C723 C 0.4228 0.57446 0.41105 0.0
C724 C 0.4626 0.56271 0.40682 0.0
C725 C 0.37216 0.53478 0.41726 0.0
C726 C 0.45208 0.51156 0.41039 0.0
C727 C 0.40238 0.47227 0.4175 0.0
H728 H 0.83138 0.43799 0.9172 0.0
H729 H 0.99257 0.48249 0.90786 0.0
H730 H 0.96975 0.39162 0.9094 0.0
H731 H 0.90442 0.29984 0.912 0.0
H732 H 0.74253 0.25377 0.9195 0.0
H733 H 0.76535 0.34512 0.92011 0.0
C734 C 0.86152 0.4279 0.91521 0.0
C735 C 0.91377 0.46736 0.91233 0.0
C736 C 0.84804 0.3753 0.91593 0.0
C737 C 0.95223 0.45324 0.91036 0.0
C738 C 0.93917 0.40118 0.91114 0.0
C739 C 0.87397 0.30957 0.91404 0.0
C740 C 0.82176 0.26981 0.9158 0.0
C741 C 0.88726 0.36195 0.91386 0.0
C742 C 0.78302 0.28346 0.91825 0.0
C743 C 0.79605 0.33572 0.91846 0.0
H744 H 0.12804 0.38864 0.30907 0.0
H745 H 0.23785 0.34031 0.33245 0.0
H746 H 0.26126 0.34152 0.28331 0.0
H747 H 0.24537 0.34832 0.23368 0.0
H748 H 0.13507 0.3948 0.20878 0.0
H749 H 0.11756 0.40295 0.25846 0.0
C750 C 0.15764 0.37921 0.30339 0.0
C751 C 0.18067 0.36381 0.3244 0.0
C752 C 0.17058 0.37923 0.27482 0.0
C753 C 0.21901 0.35169 0.31671 0.0
C754 C 0.23249 0.35234 0.28858 0.0
C755 C 0.21776 0.36067 0.23905 0.0
C756 C 0.19108 0.37028 0.21759 0.0
C757 C 0.2076 0.36469 0.26746 0.0
C758 C 0.15603 0.38699 0.22494 0.0
C759 C 0.14586 0.39144 0.25334 0.0
H760 H 0.76462 0.13475 0.71566 0.0
H761 H 0.90865 0.27865 0.72602 0.0
H762 H 0.89808 0.27221 0.77706 0.0
H763 H 0.85125 0.22297 0.81888 0.0
H764 H 0.70453 0.08203 0.80953 0.0
H765 H 0.7122 0.09032 0.75805 0.0
C766 C 0.79336 0.16478 0.72916 0.0
C767 C 0.8376 0.20683 0.71713 0.0
C768 C 0.78651 0.16143 0.75863 0.0
C769 C 0.87425 0.24591 0.73477 0.0
C770 C 0.86834 0.24223 0.76397 0.0
C771 C 0.82059 0.19451 0.80554 0.0
C772 C 0.77757 0.15184 0.81786 0.0
C773 C 0.82509 0.19983 0.77614 0.0
C774 C 0.73787 0.1154 0.80045 0.0
C775 C 0.74248 0.11992 0.77105 0.0
H776 H 0.68325 0.91171 0.23375 0.0
H777 H 0.59813 0.75081 0.20873 0.0
H778 H 0.58963 0.72436 0.25825 0.0
H779 H 0.61083 0.74724 0.30854 0.0
H780 H 0.69811 0.90876 0.33247 0.0
H781 H 0.70109 0.93447 0.28346 0.0
C782 C 0.66247 0.87077 0.23903 0.0
C783 C 0.64157 0.83331 0.21746 0.0
C784 C 0.65831 0.85592 0.26741 0.0
C785 C 0.61466 0.78049 0.22485 0.0
C786 C 0.60991 0.76535 0.25318 0.0
C787 C 0.63009 0.78806 0.30306 0.0
C788 C 0.65438 0.82597 0.32424 0.0
C789 C 0.63223 0.80275 0.27463 0.0
C790 C 0.67925 0.8787 0.31669 0.0
C791 C 0.68103 0.8935 0.28862 0.0
H792 H 0.86114 0.63371 0.7231 0.0
H793 H 0.71702 0.63375 0.73174 0.0
H794 H 0.72275 0.63053 0.78308 0.0
H795 H 0.77171 0.63314 0.82568 0.0
H796 H 0.91219 0.62601 0.81698 0.0
H797 H 0.90474 0.62598 0.76563 0.0
C798 C 0.83083 0.63254 0.73628 0.0
C799 C 0.78899 0.63446 0.72374 0.0
C800 C 0.83378 0.62948 0.76577 0.0
C801 C 0.74956 0.63223 0.74095 0.0
C802 C 0.75293 0.6306 0.7703 0.0
C803 C 0.8003 0.63096 0.81249 0.0
C804 C 0.84262 0.62997 0.82505 0.0
C805 C 0.79525 0.62999 0.78297 0.0
C806 C 0.87914 0.62661 0.80778 0.0
C807 C 0.87508 0.6269 0.77842 0.0
H808 H 0.09187 0.7647 0.23858 0.0
H809 H 0.25334 0.85792 0.21629 0.0
H810 H 0.27703 0.86958 0.26638 0.0
H811 H 0.25081 0.85774 0.31671 0.0
H812 H 0.08842 0.76556 0.33769 0.0
H813 H 0.06639 0.74885 0.28793 0.0
C814 C 0.13238 0.78742 0.24456 0.0
C815 C 0.17072 0.81079 0.22362 0.0
C816 C 0.14557 0.79422 0.27326 0.0
C817 C 0.22299 0.83961 0.23191 0.0
C818 C 0.23652 0.84637 0.26058 0.0
C819 C 0.21069 0.83342 0.31039 0.0
C820 C 0.17133 0.81315 0.33102 0.0
C821 C 0.19803 0.82446 0.28149 0.0
C822 C 0.11953 0.78189 0.32238 0.0
C823 C 0.10681 0.77235 0.29387 0.0
H824 H 0.3585 0.14448 0.82266 0.0
H825 H 0.3731 0.29544 0.814 0.0
H826 H 0.37325 0.28817 0.76251 0.0
H827 H 0.36495 0.23635 0.71979 0.0
H828 H 0.3573 0.08847 0.72943 0.0
H829 H 0.35867 0.09694 0.78058 0.0
C830 C 0.36218 0.17596 0.80946 0.0
C831 C 0.36544 0.22023 0.82197 0.0
C832 C 0.36313 0.17186 0.78004 0.0
C833 C 0.37078 0.26105 0.80475 0.0
C834 C 0.37053 0.25675 0.77534 0.0
C835 C 0.36382 0.20623 0.73319 0.0
C836 C 0.36062 0.16169 0.72094 0.0
C837 C 0.366 0.21197 0.76272 0.0
C838 C 0.35988 0.12317 0.73841 0.0
C839 C 0.36052 0.12789 0.76766 0.0
H840 H 0.29586 0.29291 0.96798 0.0
H841 H 0.27911 0.15165 1.00309 0.0
H842 H 0.2427 0.166 0.04641 0.0
H843 H 0.21981 0.22121 0.07475 0.0
H844 H 0.23309 0.36036 0.03836 0.0
H845 H 0.26583 0.34374 0.99455 0.0
C846 C 0.2846 0.26542 0.98522 0.0
C847 C 0.29148 0.22199 0.98278 0.0
C848 C 0.2626 0.27331 1.00953 0.0
C849 C 0.27493 0.18569 1.00475 0.0
C850 C 0.25403 0.19389 0.0294 0.0
C851 C 0.22929 0.24763 0.0571 0.0
C852 C 0.22438 0.29227 0.05987 0.0
C853 C 0.24818 0.23784 0.03208 0.0
C854 C 0.23626 0.32572 0.03674 0.0
C855 C 0.25542 0.31644 1.01181 0.0
H856 H 0.01824 0.32199 0.47244 0.0
H857 H 0.09735 0.23808 0.49332 0.0
H858 H 0.03886 0.19767 0.53344 0.0
H859 H 0.96644 0.18862 0.56365 0.0
H860 H 0.88963 0.27429 0.54206 0.0
H861 H 0.94494 0.31034 0.50069 0.0
C862 C 0.02317 0.2952 0.48584 0.0
C863 C 0.06282 0.28381 0.48005 0.0
C864 C 0.9889 0.27148 0.50844 0.0
C865 C 0.06768 0.24815 0.49746 0.0
C866 C 0.03394 0.2247 0.52028 0.0
C867 C 0.96092 0.2139 0.54933 0.0
C868 C 0.92332 0.22802 0.55551 0.0
C869 C 0.99426 0.23599 0.52598 0.0
C870 C 0.91769 0.26224 0.53741 0.0
C871 C 0.94972 0.28333 0.51396 0.0
H872 H 0.78608 0.00407 0.07122 0.0
H873 H 0.64428 0.87872 0.03706 0.0
H874 H 0.66152 0.92485 0.99204 0.0
H875 H 0.71375 0.00322 0.96363 0.0
H876 H 0.85787 0.12679 0.99638 0.0
H877 H 0.84299 0.07893 0.04093 0.0
C878 C 0.75921 0.98653 0.0538 0.0
C879 C 0.71362 0.93804 0.05759 0.0
C880 C 0.76957 0.01325 0.02796 0.0
C881 C 0.6796 0.9157 0.03472 0.0
C882 C 0.6893 0.94231 1.00906 0.0
C883 C 0.74193 0.01973 0.98056 0.0
C884 C 0.78635 0.06904 0.97704 0.0
C885 C 0.73356 0.9915 1.00567 0.0
C886 C 0.82325 0.08924 0.99874 0.0
C887 C 0.81464 0.06184 0.02415 0.0
H888 H 0.69981 0.64377 0.5589 0.0
H889 H 0.85658 0.77274 0.55792 0.0
H890 H 0.8354 0.80907 0.51691 0.0
H891 H 0.77096 0.80533 0.48219 0.0
H892 H 0.61462 0.6756 0.48427 0.0
H893 H 0.63684 0.63922 0.52446 0.0
C894 C 0.72978 0.6796 0.54963 0.0
C895 C 0.77996 0.70527 0.56155 0.0
C896 C 0.717 0.70074 0.52656 0.0
C897 C 0.81787 0.75175 0.54911 0.0
C898 C 0.80556 0.77283 0.52581 0.0
C899 C 0.74159 0.76947 0.49171 0.0
C900 C 0.69088 0.7436 0.48039 0.0
C901 C 0.75498 0.74806 0.51462 0.0
C902 C 0.6537 0.69657 0.49262 0.0
C903 C 0.66649 0.67554 0.51552 0.0
H904 H 0.99699 0.70274 0.97202 0.0
H905 H 0.87408 0.72537 1.00377 0.0
H906 H 0.92376 0.76314 0.04723 0.0
H907 H 0.00062 0.78633 0.07674 0.0
H908 H 0.12561 0.76813 0.04379 0.0
H909 H 0.07712 0.73306 0.99983 0.0
C910 C 0.98092 0.71564 0.98856 0.0
C911 C 0.9313 0.71011 0.98503 0.0
C912 C 0.01039 0.73868 1.013 0.0
C913 C 0.91175 0.72855 1.00618 0.0
C914 C 0.94026 0.75027 0.03094 0.0
C915 C 0.01762 0.77535 0.05978 0.0
C916 C 0.06673 0.77969 0.06361 0.0
C917 C 0.98946 0.7552 0.03463 0.0
C918 C 0.08824 0.76563 0.04136 0.0
C919 C 0.06023 0.74506 1.01633 0.0
H920 H 0.31074 0.97608 0.4783 0.0
H921 H 0.14947 0.89372 0.50231 0.0
H922 H 0.16765 0.95519 0.54078 0.0
H923 H 0.22997 0.03192 0.56832 0.0
H924 H 0.39127 0.11208 0.54494 0.0
H925 H 0.37233 0.0531 0.50509 0.0
C926 C 0.27963 0.97108 0.49217 0.0
C927 C 0.2289 0.92978 0.48758 0.0
C928 C 0.29018 0.00715 0.51395 0.0
C929 C 0.18899 0.92472 0.50549 0.0
C930 C 0.19926 0.96019 0.52737 0.0
C931 C 0.26055 0.03734 0.55391 0.0
C932 C 0.31172 0.07713 0.55903 0.0
C933 C 0.24964 0.00183 0.53169 0.0
C934 C 0.35143 0.08247 0.54096 0.0
C935 C 0.34072 0.04831 0.51843 0.0
loop_
_geom_bond_atom_site_label_1
_geom_bond_atom_site_label_2
_geom_bond_distance
_geom_bond_site_symmetry_2
_ccdc_geom_bond_type
Co0 N5 2.057 . S
Co0 O17 2.021 . S
Co0 O20 2.062 . S
Co0 O24 2.117 . S
Co0 O25 2.020 . S
C1 O21 1.259 . S
C1 O24 1.258 . S
Co2 N11 2.057 . S
Co2 O18 2.117 . S
Co2 O19 2.020 . S
Co2 O21 2.021 . S
Co2 O26 2.062 . S
C3 N5 1.316 . S
C3 N6 1.347 . S
C3 H8 0.931 . S
C4 N5 1.375 . S
C4 C7 1.350 . S
C4 H9 0.930 . S
N5 Co0 2.057 . S
N5 C3 1.316 . S
N5 C4 1.375 . S
N6 C3 1.347 . S
N6 C7 1.373 . S
C7 C4 1.350 . S
C7 N6 1.373 . S
C7 H28 0.931 . S
H8 C3 0.931 . S
H9 C4 0.930 . S
C10 O17 1.259 . S
C10 O18 1.258 . S
N11 Co2 2.057 . S
N11 C12 1.316 . S
N11 C13 1.375 . S
C12 N11 1.316 . S
C12 N14 1.347 . S
C12 H23 0.931 . S
C13 N11 1.375 . S
C13 C15 1.350 . S
C13 H22 0.930 . S
N14 C12 1.347 . S
N14 C15 1.373 . S
C15 C13 1.350 . S
C15 N14 1.373 . S
C15 H29 0.931 . S
C16 O19 1.256 . S
C16 O20 1.255 . S
O17 Co0 2.021 . S
O17 C10 1.259 . S
O18 Co2 2.117 . S
O18 C10 1.258 . S
O19 Co2 2.020 . S
O19 C16 1.256 . S
O20 Co0 2.062 . S
O20 C16 1.255 . S
O21 C1 1.259 . S
O21 Co2 2.021 . S
H22 C13 0.930 . S
H23 C12 0.931 . S
O24 Co0 2.117 . S
O24 C1 1.258 . S
O25 Co0 2.020 . S
O25 C27 1.256 . S
O26 Co2 2.062 . S
O26 C27 1.255 . S
C27 O25 1.256 . S
C27 O26 1.255 . S
H28 C7 0.931 . S
H29 C15 0.931 . S
Co30 N35 2.057 . S
Co30 O47 2.021 . S
Co30 O50 2.062 . S
Co30 O54 2.117 . S
Co30 O55 2.020 . S
C31 O51 1.259 . S
C31 O54 1.258 . S
Co32 N41 2.057 . S
Co32 O48 2.117 . S
Co32 O49 2.020 . S
Co32 O51 2.021 . S
Co32 O56 2.062 . S
C33 N35 1.316 . S
C33 N36 1.347 1_545 S
C33 H38 0.931 . S
C34 N35 1.375 . S
C34 C37 1.350 1_545 S
C34 H39 0.930 . S
N35 Co30 2.057 . S
N35 C33 1.316 . S
N35 C34 1.375 . S
N36 C33 1.347 1_565 S
N36 C37 1.373 . S
C37 C34 1.350 1_565 S
C37 N36 1.373 . S
C37 H58 0.931 . S
H38 C33 0.931 . S
H39 C34 0.930 . S
C40 O47 1.259 . S
C40 O48 1.258 . S
N41 Co32 2.057 . S
N41 C42 1.316 . S
N41 C43 1.375 . S
C42 N41 1.316 . S
C42 N44 1.347 . S
C42 H53 0.931 . S
C43 N41 1.375 . S
C43 C45 1.350 . S
C43 H52 0.930 . S
N44 C42 1.347 . S
N44 C45 1.373 . S
C45 C43 1.350 . S
C45 N44 1.373 . S
C45 H59 0.931 . S
C46 O49 1.256 . S
C46 O50 1.255 . S
O47 Co30 2.021 . S
O47 C40 1.259 . S
O48 Co32 2.117 . S
O48 C40 1.258 . S
O49 Co32 2.020 . S
O49 C46 1.256 . S
O50 Co30 2.062 . S
O50 C46 1.255 . S
O51 C31 1.259 . S
O51 Co32 2.021 . S
H52 C43 0.930 . S
H53 C42 0.931 . S
O54 Co30 2.117 . S
O54 C31 1.258 . S
O55 Co30 2.020 . S
O55 C57 1.256 . S
O56 Co32 2.062 . S
O56 C57 1.255 . S
C57 O55 1.256 . S
C57 O56 1.255 . S
H58 C37 0.931 . S
H59 C45 0.931 . S
Co60 N65 2.057 . S
Co60 O77 2.021 . S
Co60 O80 2.062 . S
Co60 O84 2.117 . S
Co60 O85 2.020 . S
C61 O81 1.259 . S
C61 O84 1.258 . S
Co62 N71 2.057 . S
Co62 O78 2.117 . S
Co62 O79 2.020 . S
Co62 O81 2.021 . S
Co62 O86 2.062 . S
C63 N65 1.316 . S
C63 N66 1.347 . S
C63 H68 0.931 . S
C64 N65 1.375 . S
C64 C67 1.350 . S
C64 H69 0.930 . S
N65 Co60 2.057 . S
N65 C63 1.316 . S
N65 C64 1.375 . S
N66 C63 1.347 . S
N66 C67 1.373 . S
C67 C64 1.350 . S
C67 N66 1.373 . S
C67 H88 0.931 . S
H68 C63 0.931 . S
H69 C64 0.930 . S
C70 O77 1.259 . S
C70 O78 1.258 . S
N71 Co62 2.057 . S
N71 C72 1.316 1_565 S
N71 C73 1.375 1_565 S
C72 N71 1.316 1_545 S
C72 N74 1.347 . S
C72 H83 0.931 . S
C73 N71 1.375 1_545 S
C73 C75 1.350 . S
C73 H82 0.930 1_545 S
N74 C72 1.347 . S
N74 C75 1.373 . S
C75 C73 1.350 . S
C75 N74 1.373 . S
C75 H89 0.931 . S
C76 O79 1.256 . S
C76 O80 1.255 . S
O77 Co60 2.021 . S
O77 C70 1.259 . S
O78 Co62 2.117 . S
O78 C70 1.258 . S
O79 Co62 2.020 . S
O79 C76 1.256 . S
O80 Co60 2.062 . S
O80 C76 1.255 . S
O81 C61 1.259 . S
O81 Co62 2.021 . S
H82 C73 0.930 1_565 S
H83 C72 0.931 . S
O84 Co60 2.117 . S
O84 C61 1.258 . S
O85 Co60 2.020 . S
O85 C87 1.256 . S
O86 Co62 2.062 . S
O86 C87 1.255 . S
C87 O85 1.256 . S
C87 O86 1.255 . S
H88 C67 0.931 . S
H89 C75 0.931 . S
Co90 N95 2.057 . S
Co90 O107 2.021 . S
Co90 O110 2.062 . S
Co90 O114 2.117 . S
Co90 O115 2.020 . S
C91 O111 1.259 . S
C91 O114 1.258 . S
Co92 N101 2.057 . S
Co92 O108 2.117 . S
Co92 O109 2.020 . S
Co92 O111 2.021 . S
Co92 O116 2.062 . S
C93 N95 1.316 . S
C93 N96 1.347 1_655 S
C93 H98 0.931 . S
C94 N95 1.375 . S
C94 C97 1.350 1_655 S
C94 H99 0.930 . S
N95 Co90 2.057 . S
N95 C93 1.316 . S
N95 C94 1.375 . S
N96 C93 1.347 1_455 S
N96 C97 1.373 . S
C97 C94 1.350 1_455 S
C97 N96 1.373 . S
C97 H118 0.931 . S
H98 C93 0.931 . S
H99 C94 0.930 . S
C100 O107 1.259 . S
C100 O108 1.258 . S
N101 Co92 2.057 . S
N101 C102 1.316 . S
N101 C103 1.375 . S
C102 N101 1.316 . S
C102 N104 1.347 . S
C102 H113 0.931 . S
C103 N101 1.375 . S
C103 C105 1.350 . S
C103 H112 0.930 . S
N104 C102 1.347 . S
N104 C105 1.373 . S
C105 C103 1.350 . S
C105 N104 1.373 . S
C105 H119 0.931 . S
C106 O109 1.256 . S
C106 O110 1.255 . S
O107 Co90 2.021 . S
O107 C100 1.259 . S
O108 Co92 2.117 . S
O108 C100 1.258 . S
O109 Co92 2.020 . S
O109 C106 1.256 . S
O110 Co90 2.062 . S
O110 C106 1.255 . S
O111 C91 1.259 . S
O111 Co92 2.021 . S
H112 C103 0.930 . S
H113 C102 0.931 . S
O114 Co90 2.117 . S
O114 C91 1.258 . S
O115 Co90 2.020 . S
O115 C117 1.256 . S
O116 Co92 2.062 . S
O116 C117 1.255 . S
C117 O115 1.256 . S
C117 O116 1.255 . S
H118 C97 0.931 . S
H119 C105 0.931 . S
Co120 N125 2.057 . S
Co120 O137 2.021 . S
Co120 O140 2.062 . S
Co120 O144 2.117 . S
Co120 O145 2.020 . S
C121 O141 1.259 . S
C121 O144 1.258 . S
Co122 N131 2.057 . S
Co122 O138 2.117 . S
Co122 O139 2.020 . S
Co122 O141 2.021 . S
Co122 O146 2.062 . S
C123 N125 1.316 . S
C123 N126 1.347 . S
C123 H128 0.931 . S
C124 N125 1.375 . S
C124 C127 1.350 . S
C124 H129 0.930 . S
N125 Co120 2.057 . S
N125 C123 1.316 . S
N125 C124 1.375 . S
N126 C123 1.347 . S
N126 C127 1.373 . S
C127 C124 1.350 . S
C127 N126 1.373 . S
C127 H148 0.931 . S
H128 C123 0.931 . S
H129 C124 0.930 . S
C130 O137 1.259 . S
C130 O138 1.258 . S
N131 Co122 2.057 . S
N131 C132 1.316 1_455 S
N131 C133 1.375 1_455 S
C132 N131 1.316 1_655 S
C132 N134 1.347 . S
C132 H143 0.931 . S
C133 N131 1.375 1_655 S
C133 C135 1.350 . S
C133 H142 0.930 1_655 S
N134 C132 1.347 . S
N134 C135 1.373 . S
C135 C133 1.350 . S
C135 N134 1.373 . S
C135 H149 0.931 . S
C136 O139 1.256 . S
C136 O140 1.255 . S
O137 Co120 2.021 . S
O137 C130 1.259 . S
O138 Co122 2.117 . S
O138 C130 1.258 . S
O139 Co122 2.020 . S
O139 C136 1.256 . S
O140 Co120 2.062 . S
O140 C136 1.255 . S
O141 C121 1.259 . S
O141 Co122 2.021 . S
H142 C133 0.930 1_455 S
H143 C132 0.931 . S
O144 Co120 2.117 . S
O144 C121 1.258 . S
O145 Co120 2.020 . S
O145 C147 1.256 . S
O146 Co122 2.062 . S
O146 C147 1.255 . S
C147 O145 1.256 . S
C147 O146 1.255 . S
H148 C127 0.931 . S
H149 C135 0.931 . S
Co150 N155 2.057 . S
Co150 O167 2.021 . S
Co150 O170 2.062 . S
Co150 O174 2.117 . S
Co150 O175 2.020 . S
C151 O171 1.259 . S
C151 O174 1.258 . S
Co152 N161 2.057 . S
Co152 O168 2.117 . S
Co152 O169 2.020 . S
Co152 O171 2.021 . S
Co152 O176 2.062 . S
C153 N155 1.316 . S
C153 N156 1.347 . S
C153 H158 0.931 . S
C154 N155 1.375 . S
C154 C157 1.350 . S
C154 H159 0.930 . S
N155 Co150 2.057 . S
N155 C153 1.316 . S
N155 C154 1.375 . S
N156 C153 1.347 . S
N156 C157 1.373 . S
C157 C154 1.350 . S
C157 N156 1.373 . S
C157 H178 0.931 . S
H158 C153 0.931 . S
H159 C154 0.930 . S
C160 O167 1.259 . S
C160 O168 1.258 . S
N161 Co152 2.057 . S
N161 C162 1.316 . S
N161 C163 1.375 . S
C162 N161 1.316 . S
C162 N164 1.347 . S
C162 H173 0.931 . S
C163 N161 1.375 . S
C163 C165 1.350 . S
C163 H172 0.930 . S
N164 C162 1.347 . S
N164 C165 1.373 . S
C165 C163 1.350 . S
C165 N164 1.373 . S
C165 H179 0.931 . S
C166 O169 1.256 . S
C166 O170 1.255 . S
O167 Co150 2.021 . S
O167 C160 1.259 . S
O168 Co152 2.117 . S
O168 C160 1.258 . S
O169 Co152 2.020 . S
O169 C166 1.256 . S
O170 Co150 2.062 . S
O170 C166 1.255 . S
O171 C151 1.259 . S
O171 Co152 2.021 . S
H172 C163 0.930 . S
H173 C162 0.931 . S
O174 Co150 2.117 . S
O174 C151 1.258 . S
O175 Co150 2.020 . S
O175 C177 1.256 . S
O176 Co152 2.062 . S
O176 C177 1.255 . S
C177 O175 1.256 . S
C177 O176 1.255 . S
H178 C157 0.931 . S
H179 C165 0.931 . S
Co180 N185 2.057 . S
Co180 O197 2.021 . S
Co180 O200 2.062 . S
Co180 O204 2.117 . S
Co180 O205 2.020 . S
C181 O201 1.259 . S
C181 O204 1.258 . S
Co182 N191 2.057 . S
Co182 O198 2.117 . S
Co182 O199 2.020 . S
Co182 O201 2.021 . S
Co182 O206 2.062 . S
C183 N185 1.316 . S
C183 N186 1.347 1_565 S
C183 H188 0.931 . S
C184 N185 1.375 . S
C184 C187 1.350 1_565 S
C184 H189 0.930 . S
N185 Co180 2.057 . S
N185 C183 1.316 . S
N185 C184 1.375 . S
N186 C183 1.347 1_545 S
N186 C187 1.373 . S
C187 C184 1.350 1_545 S
C187 N186 1.373 . S
C187 H208 0.931 . S
H188 C183 0.931 . S
H189 C184 0.930 . S
C190 O197 1.259 . S
C190 O198 1.258 . S
N191 Co182 2.057 . S
N191 C192 1.316 . S
N191 C193 1.375 . S
C192 N191 1.316 . S
C192 N194 1.347 . S
C192 H203 0.931 . S
C193 N191 1.375 . S
C193 C195 1.350 . S
C193 H202 0.930 . S
N194 C192 1.347 . S
N194 C195 1.373 . S
C195 C193 1.350 . S
C195 N194 1.373 . S
C195 H209 0.931 . S
C196 O199 1.256 . S
C196 O200 1.255 . S
O197 Co180 2.021 . S
O197 C190 1.259 . S
O198 Co182 2.117 . S
O198 C190 1.258 . S
O199 Co182 2.020 . S
O199 C196 1.256 . S
O200 Co180 2.062 . S
O200 C196 1.255 . S
O201 C181 1.259 . S
O201 Co182 2.021 . S
H202 C193 0.930 . S
H203 C192 0.931 . S
O204 Co180 2.117 . S
O204 C181 1.258 . S
O205 Co180 2.020 . S
O205 C207 1.256 . S
O206 Co182 2.062 . S
O206 C207 1.255 . S
C207 O205 1.256 . S
C207 O206 1.255 . S
H208 C187 0.931 . S
H209 C195 0.931 . S
Co210 N215 2.057 . S
Co210 O227 2.021 . S
Co210 O230 2.062 . S
Co210 O234 2.117 . S
Co210 O235 2.020 . S
C211 O231 1.259 . S
C211 O234 1.258 . S
Co212 N221 2.057 . S
Co212 O228 2.117 . S
Co212 O229 2.020 . S
Co212 O231 2.021 . S
Co212 O236 2.062 . S
C213 N215 1.316 . S
C213 N216 1.347 . S
C213 H218 0.931 . S
C214 N215 1.375 . S
C214 C217 1.350 . S
C214 H219 0.930 . S
N215 Co210 2.057 . S
N215 C213 1.316 . S
N215 C214 1.375 . S
N216 C213 1.347 . S
N216 C217 1.373 . S
C217 C214 1.350 . S
C217 N216 1.373 . S
C217 H238 0.931 . S
H218 C213 0.931 . S
H219 C214 0.930 . S
C220 O227 1.259 . S
C220 O228 1.258 . S
N221 Co212 2.057 . S
N221 C222 1.316 . S
N221 C223 1.375 . S
C222 N221 1.316 . S
C222 N224 1.347 . S
C222 H233 0.931 . S
C223 N221 1.375 . S
C223 C225 1.350 . S
C223 H232 0.930 . S
N224 C222 1.347 . S
N224 C225 1.373 . S
C225 C223 1.350 . S
C225 N224 1.373 . S
C225 H239 0.931 . S
C226 O229 1.256 . S
C226 O230 1.255 . S
O227 Co210 2.021 . S
O227 C220 1.259 . S
O228 Co212 2.117 . S
O228 C220 1.258 . S
O229 Co212 2.020 . S
O229 C226 1.256 . S
O230 Co210 2.062 . S
O230 C226 1.255 . S
O231 C211 1.259 . S
O231 Co212 2.021 . S
H232 C223 0.930 . S
H233 C222 0.931 . S
O234 Co210 2.117 . S
O234 C211 1.258 . S
O235 Co210 2.020 . S
O235 C237 1.256 . S
O236 Co212 2.062 . S
O236 C237 1.255 . S
C237 O235 1.256 . S
C237 O236 1.255 . S
H238 C217 0.931 . S
H239 C225 0.931 . S
Co240 N245 2.057 . S
Co240 O257 2.021 . S
Co240 O260 2.062 . S
Co240 O264 2.117 . S
Co240 O265 2.020 . S
C241 O261 1.259 . S
C241 O264 1.258 . S
Co242 N251 2.057 . S
Co242 O258 2.117 . S
Co242 O259 2.020 . S
Co242 O261 2.021 . S
Co242 O266 2.062 . S
C243 N245 1.316 . S
C243 N246 1.347 1_455 S
C243 H248 0.931 . S
C244 N245 1.375 . S
C244 C247 1.350 1_455 S
C244 H249 0.930 . S
N245 Co240 2.057 . S
N245 C243 1.316 . S
N245 C244 1.375 . S
N246 C243 1.347 1_655 S
N246 C247 1.373 . S
C247 C244 1.350 1_655 S
C247 N246 1.373 . S
C247 H268 0.931 . S
H248 C243 0.931 . S
H249 C244 0.930 . S
C250 O257 1.259 . S
C250 O258 1.258 . S
N251 Co242 2.057 . S
N251 C252 1.316 . S
N251 C253 1.375 . S
C252 N251 1.316 . S
C252 N254 1.347 . S
C252 H263 0.931 . S
C253 N251 1.375 . S
C253 C255 1.350 . S
C253 H262 0.930 . S
N254 C252 1.347 . S
N254 C255 1.373 . S
C255 C253 1.350 . S
C255 N254 1.373 . S
C255 H269 0.931 . S
C256 O259 1.256 . S
C256 O260 1.255 . S
O257 Co240 2.021 . S
O257 C250 1.259 . S
O258 Co242 2.117 . S
O258 C250 1.258 . S
O259 Co242 2.020 . S
O259 C256 1.256 . S
O260 Co240 2.062 . S
O260 C256 1.255 . S
O261 C241 1.259 . S
O261 Co242 2.021 . S
H262 C253 0.930 . S
H263 C252 0.931 . S
O264 Co240 2.117 . S
O264 C241 1.258 . S
O265 Co240 2.020 . S
O265 C267 1.256 . S
O266 Co242 2.062 . S
O266 C267 1.255 . S
C267 O265 1.256 . S
C267 O266 1.255 . S
H268 C247 0.931 . S
H269 C255 0.931 . S
Co270 N275 2.057 . S
Co270 O287 2.021 . S
Co270 O290 2.062 . S
Co270 O294 2.117 . S
Co270 O295 2.020 . S
C271 O291 1.259 . S
C271 O294 1.258 . S
Co272 N281 2.057 . S
Co272 O288 2.117 . S
Co272 O289 2.020 . S
Co272 O291 2.021 . S
Co272 O296 2.062 . S
C273 N275 1.316 . S
C273 N276 1.347 1_545 S
C273 H278 0.931 . S
C274 N275 1.375 . S
C274 C277 1.350 1_545 S
C274 H279 0.930 . S
N275 Co270 2.057 . S
N275 C273 1.316 . S
N275 C274 1.375 . S
N276 C273 1.347 1_565 S
N276 C277 1.373 . S
C277 C274 1.350 1_565 S
C277 N276 1.373 . S
C277 H298 0.931 . S
H278 C273 0.931 . S
H279 C274 0.930 . S
C280 O287 1.259 . S
C280 O288 1.258 . S
N281 Co272 2.057 . S
N281 C282 1.316 . S
N281 C283 1.375 . S
C282 N281 1.316 . S
C282 N284 1.347 . S
C282 H293 0.931 . S
C283 N281 1.375 . S
C283 C285 1.350 . S
C283 H292 0.930 . S
N284 C282 1.347 . S
N284 C285 1.373 . S
C285 C283 1.350 . S
C285 N284 1.373 . S
C285 H299 0.931 . S
C286 O289 1.256 . S
C286 O290 1.255 . S
O287 Co270 2.021 . S
O287 C280 1.259 . S
O288 Co272 2.117 . S
O288 C280 1.258 . S
O289 Co272 2.020 . S
O289 C286 1.256 . S
O290 Co270 2.062 . S
O290 C286 1.255 . S
O291 C271 1.259 . S
O291 Co272 2.021 . S
H292 C283 0.930 . S
H293 C282 0.931 . S
O294 Co270 2.117 . S
O294 C271 1.258 . S
O295 Co270 2.020 . S
O295 C297 1.256 . S
O296 Co272 2.062 . S
O296 C297 1.255 . S
C297 O295 1.256 . S
C297 O296 1.255 . S
H298 C277 0.931 . S
H299 C285 0.931 . S
Co300 N305 2.057 . S
Co300 O317 2.021 . S
Co300 O320 2.062 . S
Co300 O324 2.117 . S
Co300 O325 2.020 . S
C301 O321 1.259 . S
C301 O324 1.258 . S
Co302 N311 2.057 . S
Co302 O318 2.117 . S
Co302 O319 2.020 . S
Co302 O321 2.021 . S
Co302 O326 2.062 . S
C303 N305 1.316 . S
C303 N306 1.347 . S
C303 H308 0.931 . S
C304 N305 1.375 . S
C304 C307 1.350 . S
C304 H309 0.930 . S
N305 Co300 2.057 . S
N305 C303 1.316 . S
N305 C304 1.375 . S
N306 C303 1.347 . S
N306 C307 1.373 . S
C307 C304 1.350 . S
C307 N306 1.373 . S
C307 H328 0.931 . S
H308 C303 0.931 . S
H309 C304 0.930 . S
C310 O317 1.259 . S
C310 O318 1.258 . S
N311 Co302 2.057 . S
N311 C312 1.316 . S
N311 C313 1.375 . S
C312 N311 1.316 . S
C312 N314 1.347 . S
C312 H323 0.931 . S
C313 N311 1.375 . S
C313 C315 1.350 . S
C313 H322 0.930 . S
N314 C312 1.347 . S
N314 C315 1.373 . S
C315 C313 1.350 . S
C315 N314 1.373 . S
C315 H329 0.931 . S
C316 O319 1.256 . S
C316 O320 1.255 . S
O317 Co300 2.021 . S
O317 C310 1.259 . S
O318 Co302 2.117 . S
O318 C310 1.258 . S
O319 Co302 2.020 . S
O319 C316 1.256 . S
O320 Co300 2.062 . S
O320 C316 1.255 . S
O321 C301 1.259 . S
O321 Co302 2.021 . S
H322 C313 0.930 . S
H323 C312 0.931 . S
O324 Co300 2.117 . S
O324 C301 1.258 . S
O325 Co300 2.020 . S
O325 C327 1.256 . S
O326 Co302 2.062 . S
O326 C327 1.255 . S
C327 O325 1.256 . S
C327 O326 1.255 . S
H328 C307 0.931 . S
H329 C315 0.931 . S
Co330 N335 2.057 . S
Co330 O347 2.021 . S
Co330 O350 2.062 . S
Co330 O354 2.117 . S
Co330 O355 2.020 . S
C331 O351 1.259 . S
C331 O354 1.258 . S
Co332 N341 2.057 . S
Co332 O348 2.117 . S
Co332 O349 2.020 . S
Co332 O351 2.021 . S
Co332 O356 2.062 . S
C333 N335 1.316 . S
C333 N336 1.347 1_655 S
C333 H338 0.931 . S
C334 N335 1.375 . S
C334 C337 1.350 1_655 S
C334 H339 0.930 . S
N335 Co330 2.057 . S
N335 C333 1.316 . S
N335 C334 1.375 . S
N336 C333 1.347 1_455 S
N336 C337 1.373 . S
C337 C334 1.350 1_455 S
C337 N336 1.373 . S
C337 H358 0.931 . S
H338 C333 0.931 . S
H339 C334 0.930 . S
C340 O347 1.259 . S
C340 O348 1.258 . S
N341 Co332 2.057 . S
N341 C342 1.316 . S
N341 C343 1.375 . S
C342 N341 1.316 . S
C342 N344 1.347 . S
C342 H353 0.931 . S
C343 N341 1.375 . S
C343 C345 1.350 . S
C343 H352 0.930 . S
N344 C342 1.347 . S
N344 C345 1.373 . S
C345 C343 1.350 . S
C345 N344 1.373 . S
C345 H359 0.931 . S
C346 O349 1.256 . S
C346 O350 1.255 . S
O347 Co330 2.021 . S
O347 C340 1.259 . S
O348 Co332 2.117 . S
O348 C340 1.258 . S
O349 Co332 2.020 . S
O349 C346 1.256 . S
O350 Co330 2.062 . S
O350 C346 1.255 . S
O351 C331 1.259 . S
O351 Co332 2.021 . S
H352 C343 0.930 . S
H353 C342 0.931 . S
O354 Co330 2.117 . S
O354 C331 1.258 . S
O355 Co330 2.020 . S
O355 C357 1.256 . S
O356 Co332 2.062 . S
O356 C357 1.255 . S
C357 O355 1.256 . S
C357 O356 1.255 . S
H358 C337 0.931 . S
H359 C345 0.931 . S
H360 C366 0.930 . S
H361 C369 0.930 . S
H362 C370 0.930 1_545 S
H363 C371 0.930 . S
H364 C374 0.930 . S
H365 C375 0.930 . S
C366 H360 0.930 . S
C366 C367 1.355 . S
C366 C368 1.415 1_565 S
C367 C366 1.355 . S
C367 C369 1.419 . S
C368 C366 1.415 1_545 S
C368 C373 1.425 . S
C368 C375 1.409 . S
C369 H361 0.930 . S
C369 C367 1.419 . S
C369 C370 1.363 . S
C370 H362 0.930 1_565 S
C370 C369 1.363 . S
C370 C373 1.409 1_565 S
C371 H363 0.930 . S
C371 C372 1.355 . S
C371 C373 1.415 . S
C372 C371 1.355 . S
C372 C374 1.419 . S
C373 C368 1.425 . S
C373 C370 1.409 1_545 S
C373 C371 1.415 . S
C374 H364 0.930 . S
C374 C372 1.419 . S
C374 C375 1.362 . S
C375 H365 0.930 . S
C375 C368 1.409 . S
C375 C374 1.362 . S
H376 C382 0.930 . S
H377 C385 0.930 . S
H378 C386 0.930 . S
H379 C387 0.930 . S
H380 C390 0.930 . S
H381 C391 0.933 1_655 S
C382 H376 0.930 . S
C382 C383 1.355 . S
C382 C384 1.415 . S
C383 C382 1.355 . S
C383 C385 1.419 . S
C384 C382 1.415 . S
C384 C389 1.425 . S
C384 C391 1.419 . S
C385 H377 0.930 . S
C385 C383 1.419 . S
C385 C386 1.362 . S
C386 H378 0.930 . S
C386 C385 1.362 . S
C386 C389 1.409 . S
C387 H379 0.930 . S
C387 C388 1.355 1_455 S
C387 C389 1.415 . S
C388 C387 1.355 1_655 S
C388 C390 1.419 . S
C389 C384 1.425 . S
C389 C386 1.409 . S
C389 C387 1.415 . S
C390 H380 0.930 . S
C390 C388 1.419 . S
C390 C391 1.350 1_655 S
C391 H381 0.933 1_455 S
C391 C384 1.419 . S
C391 C390 1.350 1_455 S
H392 C398 0.930 . S
H393 C401 0.930 . S
H394 C402 0.930 . S
H395 C403 0.930 . S
H396 C406 0.930 . S
H397 C407 0.926 . S
C398 H392 0.930 . S
C398 C399 1.355 . S
C398 C400 1.415 . S
C399 C398 1.355 . S
C399 C401 1.419 . S
C400 C398 1.415 . S
C400 C405 1.425 . S
C400 C407 1.420 . S
C401 H393 0.930 . S
C401 C399 1.419 . S
C401 C402 1.362 . S
C402 H394 0.930 . S
C402 C401 1.362 . S
C402 C405 1.409 . S
C403 H395 0.930 . S
C403 C404 1.355 . S
C403 C405 1.415 1_455 S
C404 C403 1.355 . S
C404 C406 1.419 . S
C405 C400 1.425 . S
C405 C402 1.409 . S
C405 C403 1.415 1_655 S
C406 H396 0.930 . S
C406 C404 1.419 . S
C406 C407 1.355 1_455 S
C407 H397 0.926 . S
C407 C400 1.420 . S
C407 C406 1.355 1_655 S
H408 C414 0.930 . S
H409 C417 0.930 . S
H410 C418 0.930 . S
H411 C419 0.930 . S
H412 C422 0.930 . S
H413 C423 0.930 . S
C414 H408 0.930 . S
C414 C415 1.355 . S
C414 C416 1.415 . S
C415 C414 1.355 . S
C415 C417 1.419 . S
C416 C414 1.415 . S
C416 C421 1.425 . S
C416 C423 1.409 . S
C417 H409 0.930 . S
C417 C415 1.419 . S
C417 C418 1.362 . S
C418 H410 0.930 . S
C418 C417 1.362 . S
C418 C421 1.409 . S
C419 H411 0.930 . S
C419 C420 1.355 . S
C419 C421 1.415 . S
C420 C419 1.355 . S
C420 C422 1.419 . S
C421 C416 1.425 . S
C421 C418 1.409 . S
C421 C419 1.415 . S
C422 H412 0.930 . S
C422 C420 1.419 . S
C422 C423 1.362 . S
C423 H413 0.930 . S
C423 C416 1.409 . S
C423 C422 1.362 . S
H424 C430 0.930 . S
H425 C433 0.930 . S
H426 C434 0.930 . S
H427 C435 0.930 . S
H428 C438 0.930 . S
H429 C439 0.930 . S
C430 H424 0.930 . S
C430 C431 1.355 . S
C430 C432 1.415 . S
C431 C430 1.355 . S
C431 C433 1.419 . S
C432 C430 1.415 . S
C432 C437 1.425 . S
C432 C439 1.409 . S
C433 H425 0.930 . S
C433 C431 1.419 . S
C433 C434 1.362 . S
C434 H426 0.930 . S
C434 C433 1.362 . S
C434 C437 1.409 . S
C435 H427 0.930 . S
C435 C436 1.355 . S
C435 C437 1.415 . S
C436 C435 1.355 . S
C436 C438 1.419 . S
C437 C432 1.425 . S
C437 C434 1.409 . S
C437 C435 1.415 . S
C438 H428 0.930 . S
C438 C436 1.419 . S
C438 C439 1.362 . S
C439 H429 0.930 . S
C439 C432 1.409 . S
C439 C438 1.362 . S
H440 C446 0.930 . S
H441 C449 0.930 . S
H442 C450 0.930 . S
H443 C451 0.930 . S
H444 C454 0.930 1_545 S
H445 C455 0.930 . S
C446 H440 0.930 . S
C446 C447 1.355 . S
C446 C448 1.415 . S
C447 C446 1.355 . S
C447 C449 1.419 . S
C448 C446 1.415 . S
C448 C453 1.425 . S
C448 C455 1.409 . S
C449 H441 0.930 . S
C449 C447 1.419 . S
C449 C450 1.362 . S
C450 H442 0.930 . S
C450 C449 1.362 . S
C450 C453 1.409 . S
C451 H443 0.930 . S
C451 C452 1.355 1_565 S
C451 C453 1.415 . S
C452 C451 1.355 1_545 S
C452 C454 1.419 1_545 S
C453 C448 1.425 . S
C453 C450 1.409 . S
C453 C451 1.415 . S
C454 H444 0.930 1_565 S
C454 C452 1.419 1_565 S
C454 C455 1.362 . S
C455 H445 0.930 . S
C455 C448 1.409 . S
C455 C454 1.362 . S
H456 C462 0.930 . S
H457 C465 0.930 . S
H458 C466 0.930 . S
H459 C467 0.930 . S
H460 C470 0.930 . S
H461 C471 0.930 . S
C462 H456 0.930 . S
C462 C463 1.355 . S
C462 C464 1.415 . S
C463 C462 1.355 . S
C463 C465 1.419 . S
C464 C462 1.415 . S
C464 C469 1.425 . S
C464 C471 1.409 . S
C465 H457 0.930 . S
C465 C463 1.419 . S
C465 C466 1.362 . S
C466 H458 0.930 . S
C466 C465 1.362 . S
C466 C469 1.409 . S
C467 H459 0.930 . S
C467 C468 1.355 . S
C467 C469 1.415 . S
C468 C467 1.355 . S
C468 C470 1.419 . S
C469 C464 1.425 . S
C469 C466 1.409 . S
C469 C467 1.415 . S
C470 H460 0.930 . S
C470 C468 1.419 . S
C470 C471 1.362 . S
C471 H461 0.930 . S
C471 C464 1.409 . S
C471 C470 1.362 . S
H472 C478 0.930 . S
H473 C481 0.930 . S
H474 C482 0.930 . S
H475 C483 0.930 . S
H476 C486 0.930 . S
H477 C487 0.930 . S
C478 H472 0.930 . S
C478 C479 1.355 . S
C478 C480 1.415 1_655 S
C479 C478 1.355 . S
C479 C481 1.419 1_655 S
C480 C478 1.415 1_455 S
C480 C485 1.425 . S
C480 C487 1.409 . S
C481 H473 0.930 . S
C481 C479 1.419 1_455 S
C481 C482 1.362 . S
C482 H474 0.930 . S
C482 C481 1.362 . S
C482 C485 1.409 . S
C483 H475 0.930 . S
C483 C484 1.355 . S
C483 C485 1.415 . S
C484 C483 1.355 . S
C484 C486 1.419 . S
C485 C480 1.425 . S
C485 C482 1.409 . S
C485 C483 1.415 . S
C486 H476 0.930 . S
C486 C484 1.419 . S
C486 C487 1.362 . S
C487 H477 0.930 . S
C487 C480 1.409 . S
C487 C486 1.362 . S
H488 C494 0.930 . S
H489 C497 0.930 . S
H490 C498 0.930 . S
H491 C499 0.930 . S
H492 C502 0.930 . S
H493 C503 0.930 . S
C494 H488 0.930 . S
C494 C495 1.355 . S
C494 C496 1.415 . S
C495 C494 1.355 . S
C495 C497 1.419 . S
C496 C494 1.415 . S
C496 C501 1.425 . S
C496 C503 1.409 . S
C497 H489 0.930 . S
C497 C495 1.419 . S
C497 C498 1.362 . S
C498 H490 0.930 . S
C498 C497 1.362 . S
C498 C501 1.409 . S
C499 H491 0.930 . S
C499 C500 1.355 . S
C499 C501 1.415 1_565 S
C500 C499 1.355 . S
C500 C502 1.419 1_565 S
C501 C496 1.425 . S
C501 C498 1.409 . S
C501 C499 1.415 1_545 S
C502 H492 0.930 . S
C502 C500 1.419 1_545 S
C502 C503 1.362 . S
C503 H493 0.930 . S
C503 C496 1.409 . S
C503 C502 1.362 . S
H504 C510 0.930 . S
H505 C513 0.930 . S
H506 C514 0.930 . S
H507 C515 0.930 . S
H508 C518 0.930 . S
H509 C519 0.930 . S
C510 H504 0.930 . S
C510 C511 1.355 . S
C510 C512 1.415 . S
C511 C510 1.355 . S
C511 C513 1.419 . S
C512 C510 1.415 . S
C512 C517 1.425 . S
C512 C519 1.409 . S
C513 H505 0.930 . S
C513 C511 1.419 . S
C513 C514 1.362 . S
C514 H506 0.930 . S
C514 C513 1.362 . S
C514 C517 1.409 . S
C515 H507 0.930 . S
C515 C516 1.355 . S
C515 C517 1.415 . S
C516 C515 1.355 . S
C516 C518 1.419 . S
C517 C512 1.425 . S
C517 C514 1.409 . S
C517 C515 1.415 . S
C518 H508 0.930 . S
C518 C516 1.419 . S
C518 C519 1.362 . S
C519 H509 0.930 . S
C519 C512 1.409 . S
C519 C518 1.362 . S
H520 C526 0.930 . S
H521 C529 0.930 . S
H522 C530 0.930 . S
H523 C531 0.930 . S
H524 C534 0.930 . S
H525 C535 0.930 . S
C526 H520 0.930 . S
C526 C527 1.355 1_655 S
C526 C528 1.415 . S
C527 C526 1.355 1_455 S
C527 C529 1.419 . S
C528 C526 1.415 . S
C528 C533 1.425 . S
C528 C535 1.409 . S
C529 H521 0.930 . S
C529 C527 1.419 . S
C529 C530 1.362 1_455 S
C530 H522 0.930 . S
C530 C529 1.362 1_655 S
C530 C533 1.409 . S
C531 H523 0.930 . S
C531 C532 1.355 . S
C531 C533 1.415 . S
C532 C531 1.355 . S
C532 C534 1.419 . S
C533 C528 1.425 . S
C533 C530 1.409 . S
C533 C531 1.415 . S
C534 H524 0.930 . S
C534 C532 1.419 . S
C534 C535 1.362 . S
C535 H525 0.930 . S
C535 C528 1.409 . S
C535 C534 1.362 . S
H536 C542 0.930 . S
H537 C545 0.930 . S
H538 C546 0.930 . S
H539 C547 0.930 . S
H540 C550 0.930 . S
H541 C551 0.930 . S
C542 H536 0.930 . S
C542 C543 1.355 . S
C542 C544 1.415 . S
C543 C542 1.355 . S
C543 C545 1.419 . S
C544 C542 1.415 . S
C544 C549 1.425 . S
C544 C551 1.409 . S
C545 H537 0.930 . S
C545 C543 1.419 . S
C545 C546 1.362 . S
C546 H538 0.930 . S
C546 C545 1.362 . S
C546 C549 1.409 . S
C547 H539 0.930 . S
C547 C548 1.355 . S
C547 C549 1.415 1_545 S
C548 C547 1.355 . S
C548 C550 1.419 1_545 S
C549 C544 1.425 . S
C549 C546 1.409 . S
C549 C547 1.415 1_565 S
C550 H540 0.930 . S
C550 C548 1.419 1_565 S
C550 C551 1.362 . S
C551 H541 0.930 . S
C551 C544 1.409 . S
C551 C550 1.362 . S
H552 C558 0.930 . S
H553 C561 0.930 . S
H554 C562 0.930 . S
H555 C563 0.930 . S
H556 C566 0.930 . S
H557 C567 0.930 . S
C558 H552 0.930 . S
C558 C559 1.355 . S
C558 C560 1.415 . S
C559 C558 1.355 . S
C559 C561 1.419 . S
C560 C558 1.415 . S
C560 C565 1.425 . S
C560 C567 1.409 . S
C561 H553 0.930 . S
C561 C559 1.419 . S
C561 C562 1.362 . S
C562 H554 0.930 . S
C562 C561 1.362 . S
C562 C565 1.409 . S
C563 H555 0.930 . S
C563 C564 1.355 . S
C563 C565 1.415 . S
C564 C563 1.355 . S
C564 C566 1.419 . S
C565 C560 1.425 . S
C565 C562 1.409 . S
C565 C563 1.415 . S
C566 H556 0.930 . S
C566 C564 1.419 . S
C566 C567 1.362 . S
C567 H557 0.930 . S
C567 C560 1.409 . S
C567 C566 1.362 . S
H568 C574 0.930 . S
H569 C577 0.930 . S
H570 C578 0.930 . S
H571 C579 0.930 . S
H572 C582 0.930 . S
H573 C583 0.930 . S
C574 H568 0.930 . S
C574 C575 1.355 . S
C574 C576 1.415 . S
C575 C574 1.355 . S
C575 C577 1.419 . S
C576 C574 1.415 . S
C576 C581 1.425 . S
C576 C583 1.409 . S
C577 H569 0.930 . S
C577 C575 1.419 . S
C577 C578 1.362 . S
C578 H570 0.930 . S
C578 C577 1.362 . S
C578 C581 1.409 . S
C579 H571 0.930 . S
C579 C580 1.355 . S
C579 C581 1.415 . S
C580 C579 1.355 . S
C580 C582 1.419 . S
C581 C576 1.425 . S
C581 C578 1.409 . S
C581 C579 1.415 . S
C582 H572 0.930 . S
C582 C580 1.419 . S
C582 C583 1.362 . S
C583 H573 0.930 . S
C583 C576 1.409 . S
C583 C582 1.362 . S
H584 C590 0.930 . S
H585 C593 0.930 . S
H586 C594 0.930 . S
H587 C595 0.930 . S
H588 C598 0.930 . S
H589 C599 0.930 . S
C590 H584 0.930 . S
C590 C591 1.355 . S
C590 C592 1.415 . S
C591 C590 1.355 . S
C591 C593 1.419 . S
C592 C590 1.415 . S
C592 C597 1.425 . S
C592 C599 1.409 . S
C593 H585 0.930 . S
C593 C591 1.419 . S
C593 C594 1.362 . S
C594 H586 0.930 . S
C594 C593 1.362 . S
C594 C597 1.409 . S
C595 H587 0.930 . S
C595 C596 1.355 . S
C595 C597 1.415 . S
C596 C595 1.355 . S
C596 C598 1.419 . S
C597 C592 1.425 . S
C597 C594 1.409 . S
C597 C595 1.415 . S
C598 H588 0.930 . S
C598 C596 1.419 . S
C598 C599 1.362 . S
C599 H589 0.930 . S
C599 C592 1.409 . S
C599 C598 1.362 . S
H600 C606 0.930 . S
H601 C609 0.930 . S
H602 C610 0.930 . S
H603 C611 0.930 . S
H604 C614 0.930 . S
H605 C615 0.930 . S
C606 H600 0.930 . S
C606 C607 1.355 . S
C606 C608 1.415 . S
C607 C606 1.355 . S
C607 C609 1.419 . S
C608 C606 1.415 . S
C608 C613 1.425 . S
C608 C615 1.409 . S
C609 H601 0.930 . S
C609 C607 1.419 . S
C609 C610 1.362 . S
C610 H602 0.930 . S
C610 C609 1.362 . S
C610 C613 1.409 . S
C611 H603 0.930 . S
C611 C612 1.355 . S
C611 C613 1.415 . S
C612 C611 1.355 . S
C612 C614 1.419 . S
C613 C608 1.425 . S
C613 C610 1.409 . S
C613 C611 1.415 . S
C614 H604 0.930 . S
C614 C612 1.419 . S
C614 C615 1.362 . S
C615 H605 0.930 . S
C615 C608 1.409 . S
C615 C614 1.362 . S
H616 C622 0.930 . S
H617 C625 0.930 . S
H618 C626 0.930 . S
H619 C627 0.930 . S
H620 C630 0.930 . S
H621 C631 0.930 . S
C622 H616 0.930 . S
C622 C623 1.355 . S
C622 C624 1.415 . S
C623 C622 1.355 . S
C623 C625 1.419 . S
C624 C622 1.415 . S
C624 C629 1.425 . S
C624 C631 1.409 . S
C625 H617 0.930 . S
C625 C623 1.419 . S
C625 C626 1.362 . S
C626 H618 0.930 . S
C626 C625 1.362 . S
C626 C629 1.409 . S
C627 H619 0.930 . S
C627 C628 1.355 . S
C627 C629 1.415 . S
C628 C627 1.355 . S
C628 C630 1.419 . S
C629 C624 1.425 . S
C629 C626 1.409 . S
C629 C627 1.415 . S
C630 H620 0.930 . S
C630 C628 1.419 . S
C630 C631 1.362 . S
C631 H621 0.930 . S
C631 C624 1.409 . S
C631 C630 1.362 . S
H632 C638 0.930 . S
H633 C641 0.930 . S
H634 C642 0.930 . S
H635 C643 0.930 . S
H636 C646 0.930 . S
H637 C647 0.930 . S
C638 H632 0.930 . S
C638 C639 1.355 . S
C638 C640 1.415 . S
C639 C638 1.355 . S
C639 C641 1.419 . S
C640 C638 1.415 . S
C640 C645 1.425 . S
C640 C647 1.409 . S
C641 H633 0.930 . S
C641 C639 1.419 . S
C641 C642 1.362 . S
C642 H634 0.930 . S
C642 C641 1.362 . S
C642 C645 1.409 . S
C643 H635 0.930 . S
C643 C644 1.355 . S
C643 C645 1.415 . S
C644 C643 1.355 . S
C644 C646 1.419 . S
C645 C640 1.425 . S
C645 C642 1.409 . S
C645 C643 1.415 . S
C646 H636 0.930 . S
C646 C644 1.419 . S
C646 C647 1.362 . S
C647 H637 0.930 . S
C647 C640 1.409 . S
C647 C646 1.362 . S
H648 C654 0.930 . S
H649 C657 0.930 . S
H650 C658 0.930 . S
H651 C659 0.930 . S
H652 C662 0.930 . S
H653 C663 0.930 . S
C654 H648 0.930 . S
C654 C655 1.355 . S
C654 C656 1.415 . S
C655 C654 1.355 . S
C655 C657 1.419 . S
C656 C654 1.415 . S
C656 C661 1.425 . S
C656 C663 1.409 . S
C657 H649 0.930 . S
C657 C655 1.419 . S
C657 C658 1.362 . S
C658 H650 0.930 . S
C658 C657 1.362 . S
C658 C661 1.409 . S
C659 H651 0.930 . S
C659 C660 1.355 . S
C659 C661 1.415 . S
C660 C659 1.355 . S
C660 C662 1.419 . S
C661 C656 1.425 . S
C661 C658 1.409 . S
C661 C659 1.415 . S
C662 H652 0.930 . S
C662 C660 1.419 . S
C662 C663 1.362 . S
C663 H653 0.930 . S
C663 C656 1.409 . S
C663 C662 1.362 . S
H664 C670 0.930 . S
H665 C673 0.930 . S
H666 C674 0.930 . S
H667 C675 0.930 . S
H668 C678 0.930 . S
H669 C679 0.930 . S
C670 H664 0.930 . S
C670 C671 1.355 . S
C670 C672 1.415 . S
C671 C670 1.355 . S
C671 C673 1.419 . S
C672 C670 1.415 . S
C672 C677 1.425 . S
C672 C679 1.409 . S
C673 H665 0.930 . S
C673 C671 1.419 . S
C673 C674 1.362 . S
C674 H666 0.930 . S
C674 C673 1.362 . S
C674 C677 1.409 . S
C675 H667 0.930 . S
C675 C676 1.355 . S
C675 C677 1.415 . S
C676 C675 1.355 . S
C676 C678 1.419 . S
C677 C672 1.425 . S
C677 C674 1.409 . S
C677 C675 1.415 . S
C678 H668 0.930 . S
C678 C676 1.419 . S
C678 C679 1.362 . S
C679 H669 0.930 . S
C679 C672 1.409 . S
C679 C678 1.362 . S
H680 C686 0.930 . S
H681 C689 0.930 . S
H682 C690 0.930 . S
H683 C691 0.930 . S
H684 C694 0.930 . S
H685 C695 0.930 . S
C686 H680 0.930 . S
C686 C687 1.355 . S
C686 C688 1.415 . S
C687 C686 1.355 . S
C687 C689 1.419 . S
C688 C686 1.415 . S
C688 C693 1.425 . S
C688 C695 1.409 . S
C689 H681 0.930 . S
C689 C687 1.419 . S
C689 C690 1.362 . S
C690 H682 0.930 . S
C690 C689 1.362 . S
C690 C693 1.409 . S
C691 H683 0.930 . S
C691 C692 1.355 . S
C691 C693 1.415 . S
C692 C691 1.355 . S
C692 C694 1.419 . S
C693 C688 1.425 . S
C693 C690 1.409 . S
C693 C691 1.415 . S
C694 H684 0.930 . S
C694 C692 1.419 . S
C694 C695 1.362 . S
C695 H685 0.930 . S
C695 C688 1.409 . S
C695 C694 1.362 . S
H696 C702 0.930 . S
H697 C705 0.930 . S
H698 C706 0.930 . S
H699 C707 0.930 . S
H700 C710 0.930 . S
H701 C711 0.930 . S
C702 H696 0.930 . S
C702 C703 1.355 . S
C702 C704 1.415 . S
C703 C702 1.355 . S
C703 C705 1.419 . S
C704 C702 1.415 . S
C704 C709 1.425 . S
C704 C711 1.409 . S
C705 H697 0.930 . S
C705 C703 1.419 . S
C705 C706 1.362 . S
C706 H698 0.930 . S
C706 C705 1.362 . S
C706 C709 1.409 . S
C707 H699 0.930 . S
C707 C708 1.355 . S
C707 C709 1.415 . S
C708 C707 1.355 . S
C708 C710 1.419 . S
C709 C704 1.425 . S
C709 C706 1.409 . S
C709 C707 1.415 . S
C710 H700 0.930 . S
C710 C708 1.419 . S
C710 C711 1.362 . S
C711 H701 0.930 . S
C711 C704 1.409 . S
C711 C710 1.362 . S
H712 C718 0.930 . S
H713 C721 0.930 . S
H714 C722 0.930 . S
H715 C723 0.930 . S
H716 C726 0.930 . S
H717 C727 0.930 . S
C718 H712 0.930 . S
C718 C719 1.355 . S
C718 C720 1.415 . S
C719 C718 1.355 . S
C719 C721 1.419 . S
C720 C718 1.415 . S
C720 C725 1.425 . S
C720 C727 1.409 . S
C721 H713 0.930 . S
C721 C719 1.419 . S
C721 C722 1.362 . S
C722 H714 0.930 . S
C722 C721 1.362 . S
C722 C725 1.409 . S
C723 H715 0.930 . S
C723 C724 1.355 . S
C723 C725 1.415 . S
C724 C723 1.355 . S
C724 C726 1.419 . S
C725 C720 1.425 . S
C725 C722 1.409 . S
C725 C723 1.415 . S
C726 H716 0.930 . S
C726 C724 1.419 . S
C726 C727 1.362 . S
C727 H717 0.930 . S
C727 C720 1.409 . S
C727 C726 1.362 . S
H728 C734 0.930 . S
H729 C737 0.930 . S
H730 C738 0.930 . S
H731 C739 0.930 . S
H732 C742 0.930 . S
H733 C743 0.930 . S
C734 H728 0.930 . S
C734 C735 1.355 . S
C734 C736 1.415 . S
C735 C734 1.355 . S
C735 C737 1.419 . S
C736 C734 1.415 . S
C736 C741 1.425 . S
C736 C743 1.409 . S
C737 H729 0.930 . S
C737 C735 1.419 . S
C737 C738 1.362 . S
C738 H730 0.930 . S
C738 C737 1.362 . S
C738 C741 1.409 . S
C739 H731 0.930 . S
C739 C740 1.355 . S
C739 C741 1.415 . S
C740 C739 1.355 . S
C740 C742 1.419 . S
C741 C736 1.425 . S
C741 C738 1.409 . S
C741 C739 1.415 . S
C742 H732 0.930 . S
C742 C740 1.419 . S
C742 C743 1.362 . S
C743 H733 0.930 . S
C743 C736 1.409 . S
C743 C742 1.362 . S
H744 C750 0.930 . S
H745 C753 0.930 . S
H746 C754 0.930 . S
H747 C755 0.930 . S
H748 C758 0.930 . S
H749 C759 0.930 . S
C750 H744 0.930 . S
C750 C751 1.355 . S
C750 C752 1.415 . S
C751 C750 1.355 . S
C751 C753 1.419 . S
C752 C750 1.415 . S
C752 C757 1.425 . S
C752 C759 1.409 . S
C753 H745 0.930 . S
C753 C751 1.419 . S
C753 C754 1.362 . S
C754 H746 0.930 . S
C754 C753 1.362 . S
C754 C757 1.409 . S
C755 H747 0.930 . S
C755 C756 1.355 . S
C755 C757 1.415 . S
C756 C755 1.355 . S
C756 C758 1.419 . S
C757 C752 1.425 . S
C757 C754 1.409 . S
C757 C755 1.415 . S
C758 H748 0.930 . S
C758 C756 1.419 . S
C758 C759 1.362 . S
C759 H749 0.930 . S
C759 C752 1.409 . S
C759 C758 1.362 . S
H760 C766 0.930 . S
H761 C769 0.930 . S
H762 C770 0.930 . S
H763 C771 0.930 . S
H764 C774 0.930 . S
H765 C775 0.930 . S
C766 H760 0.930 . S
C766 C767 1.355 . S
C766 C768 1.415 . S
C767 C766 1.355 . S
C767 C769 1.419 . S
C768 C766 1.415 . S
C768 C773 1.425 . S
C768 C775 1.409 . S
C769 H761 0.930 . S
C769 C767 1.419 . S
C769 C770 1.362 . S
C770 H762 0.930 . S
C770 C769 1.362 . S
C770 C773 1.409 . S
C771 H763 0.930 . S
C771 C772 1.355 . S
C771 C773 1.415 . S
C772 C771 1.355 . S
C772 C774 1.419 . S
C773 C768 1.425 . S
C773 C770 1.409 . S
C773 C771 1.415 . S
C774 H764 0.930 . S
C774 C772 1.419 . S
C774 C775 1.362 . S
C775 H765 0.930 . S
C775 C768 1.409 . S
C775 C774 1.362 . S
H776 C782 0.930 . S
H777 C785 0.930 . S
H778 C786 0.930 . S
H779 C787 0.930 . S
H780 C790 0.930 . S
H781 C791 0.930 . S
C782 H776 0.930 . S
C782 C783 1.355 . S
C782 C784 1.415 . S
C783 C782 1.355 . S
C783 C785 1.419 . S
C784 C782 1.415 . S
C784 C789 1.425 . S
C784 C791 1.409 . S
C785 H777 0.930 . S
C785 C783 1.419 . S
C785 C786 1.362 . S
C786 H778 0.930 . S
C786 C785 1.362 . S
C786 C789 1.409 . S
C787 H779 0.930 . S
C787 C788 1.355 . S
C787 C789 1.415 . S
C788 C787 1.355 . S
C788 C790 1.419 . S
C789 C784 1.425 . S
C789 C786 1.409 . S
C789 C787 1.415 . S
C790 H780 0.930 . S
C790 C788 1.419 . S
C790 C791 1.362 . S
C791 H781 0.930 . S
C791 C784 1.409 . S
C791 C790 1.362 . S
H792 C798 0.930 . S
H793 C801 0.930 . S
H794 C802 0.930 . S
H795 C803 0.930 . S
H796 C806 0.930 . S
H797 C807 0.930 . S
C798 H792 0.930 . S
C798 C799 1.355 . S
C798 C800 1.415 . S
C799 C798 1.355 . S
C799 C801 1.419 . S
C800 C798 1.415 . S
C800 C805 1.425 . S
C800 C807 1.409 . S
C801 H793 0.930 . S
C801 C799 1.419 . S
C801 C802 1.362 . S
C802 H794 0.930 . S
C802 C801 1.362 . S
C802 C805 1.409 . S
C803 H795 0.930 . S
C803 C804 1.355 . S
C803 C805 1.415 . S
C804 C803 1.355 . S
C804 C806 1.419 . S
C805 C800 1.425 . S
C805 C802 1.409 . S
C805 C803 1.415 . S
C806 H796 0.930 . S
C806 C804 1.419 . S
C806 C807 1.362 . S
C807 H797 0.930 . S
C807 C800 1.409 . S
C807 C806 1.362 . S
H808 C814 0.930 . S
H809 C817 0.930 . S
H810 C818 0.930 . S
H811 C819 0.930 . S
H812 C822 0.930 . S
H813 C823 0.930 . S
C814 H808 0.930 . S
C814 C815 1.355 . S
C814 C816 1.415 . S
C815 C814 1.355 . S
C815 C817 1.419 . S
C816 C814 1.415 . S
C816 C821 1.425 . S
C816 C823 1.409 . S
C817 H809 0.930 . S
C817 C815 1.419 . S
C817 C818 1.362 . S
C818 H810 0.930 . S
C818 C817 1.362 . S
C818 C821 1.409 . S
C819 H811 0.930 . S
C819 C820 1.355 . S
C819 C821 1.415 . S
C820 C819 1.355 . S
C820 C822 1.419 . S
C821 C816 1.425 . S
C821 C818 1.409 . S
C821 C819 1.415 . S
C822 H812 0.930 . S
C822 C820 1.419 . S
C822 C823 1.362 . S
C823 H813 0.930 . S
C823 C816 1.409 . S
C823 C822 1.362 . S
H824 C830 0.930 . S
H825 C833 0.930 . S
H826 C834 0.930 . S
H827 C835 0.930 . S
H828 C838 0.930 . S
H829 C839 0.930 . S
C830 H824 0.930 . S
C830 C831 1.355 . S
C830 C832 1.415 . S
C831 C830 1.355 . S
C831 C833 1.419 . S
C832 C830 1.415 . S
C832 C837 1.425 . S
C832 C839 1.409 . S
C833 H825 0.930 . S
C833 C831 1.419 . S
C833 C834 1.362 . S
C834 H826 0.930 . S
C834 C833 1.362 . S
C834 C837 1.409 . S
C835 H827 0.930 . S
C835 C836 1.355 . S
C835 C837 1.415 . S
C836 C835 1.355 . S
C836 C838 1.419 . S
C837 C832 1.425 . S
C837 C834 1.409 . S
C837 C835 1.415 . S
C838 H828 0.930 . S
C838 C836 1.419 . S
C838 C839 1.362 . S
C839 H829 0.930 . S
C839 C832 1.409 . S
C839 C838 1.362 . S
H840 C846 0.930 1_554 S
H841 C849 0.930 . S
H842 C850 0.930 . S
H843 C851 0.930 1_556 S
H844 C854 0.930 . S
H845 C855 0.930 . S
C846 H840 0.930 1_556 S
C846 C847 1.355 . S
C846 C848 1.415 1_556 S
C847 C846 1.355 . S
C847 C849 1.419 . S
C848 C846 1.415 1_554 S
C848 C853 1.425 1_554 S
C848 C855 1.409 . S
C849 H841 0.930 . S
C849 C847 1.419 . S
C849 C850 1.362 . S
C850 H842 0.930 . S
C850 C849 1.362 . S
C850 C853 1.409 . S
C851 H843 0.930 1_554 S
C851 C852 1.355 . S
C851 C853 1.415 1_554 S
C852 C851 1.355 . S
C852 C854 1.419 . S
C853 C848 1.425 1_556 S
C853 C850 1.409 . S
C853 C851 1.415 1_556 S
C854 H844 0.930 . S
C854 C852 1.419 . S
C854 C855 1.362 . S
C855 H845 0.930 . S
C855 C848 1.409 . S
C855 C854 1.362 . S
H856 C862 0.930 . S
H857 C865 0.930 . S
H858 C866 0.930 . S
H859 C867 0.930 . S
H860 C870 0.930 . S
H861 C871 0.930 . S
C862 H856 0.930 . S
C862 C863 1.355 . S
C862 C864 1.415 1_455 S
C863 C862 1.355 . S
C863 C865 1.419 . S
C864 C862 1.415 1_655 S
C864 C869 1.425 1_655 S
C864 C871 1.409 . S
C865 H857 0.930 . S
C865 C863 1.419 . S
C865 C866 1.362 . S
C866 H858 0.930 . S
C866 C865 1.362 . S
C866 C869 1.409 . S
C867 H859 0.930 . S
C867 C868 1.355 . S
C867 C869 1.415 1_655 S
C868 C867 1.355 . S
C868 C870 1.419 . S
C869 C864 1.425 1_455 S
C869 C866 1.409 . S
C869 C867 1.415 1_455 S
C870 H860 0.930 . S
C870 C868 1.419 . S
C870 C871 1.362 . S
C871 H861 0.930 . S
C871 C864 1.409 . S
C871 C870 1.362 . S
H872 C878 0.930 . S
H873 C881 0.930 . S
H874 C882 0.930 . S
H875 C883 0.930 . S
H876 C886 0.930 . S
H877 C887 0.930 . S
C878 H872 0.930 . S
C878 C879 1.355 . S
C878 C880 1.415 1_565 S
C879 C878 1.355 . S
C879 C881 1.419 . S
C880 C878 1.415 1_545 S
C880 C885 1.425 1_544 S
C880 C887 1.409 . S
C881 H873 0.930 . S
C881 C879 1.419 . S
C881 C882 1.362 1_554 S
C882 H874 0.930 . S
C882 C881 1.362 1_556 S
C882 C885 1.409 . S
C883 H875 0.930 . S
C883 C884 1.355 . S
C883 C885 1.415 1_545 S
C884 C883 1.355 . S
C884 C886 1.419 . S
C885 C880 1.425 1_566 S
C885 C882 1.409 . S
C885 C883 1.415 1_565 S
C886 H876 0.930 . S
C886 C884 1.419 . S
C886 C887 1.362 1_556 S
C887 H877 0.930 . S
C887 C880 1.409 . S
C887 C886 1.362 1_554 S
H888 C894 0.930 . S
H889 C897 0.930 . S
H890 C898 0.930 . S
H891 C899 0.930 . S
H892 C902 0.930 . S
H893 C903 0.930 . S
C894 H888 0.930 . S
C894 C895 1.355 . S
C894 C896 1.415 . S
C895 C894 1.355 . S
C895 C897 1.419 . S
C896 C894 1.415 . S
C896 C901 1.425 . S
C896 C903 1.409 . S
C897 H889 0.930 . S
C897 C895 1.419 . S
C897 C898 1.362 . S
C898 H890 0.930 . S
C898 C897 1.362 . S
C898 C901 1.409 . S
C899 H891 0.930 . S
C899 C900 1.355 . S
C899 C901 1.415 . S
C900 C899 1.355 . S
C900 C902 1.419 . S
C901 C896 1.425 . S
C901 C898 1.409 . S
C901 C899 1.415 . S
C902 H892 0.930 . S
C902 C900 1.419 . S
C902 C903 1.362 . S
C903 H893 0.930 . S
C903 C896 1.409 . S
C903 C902 1.362 . S
H904 C910 0.930 . S
H905 C913 0.930 . S
H906 C914 0.930 . S
H907 C915 0.930 . S
H908 C918 0.930 . S
H909 C919 0.930 . S
C910 H904 0.930 . S
C910 C911 1.355 . S
C910 C912 1.415 1_556 S
C911 C910 1.355 . S
C911 C913 1.419 . S
C912 C910 1.415 1_554 S
C912 C917 1.425 1_654 S
C912 C919 1.409 . S
C913 H905 0.930 . S
C913 C911 1.419 . S
C913 C914 1.362 1_655 S
C914 H906 0.930 . S
C914 C913 1.362 1_455 S
C914 C917 1.409 . S
C915 H907 0.930 . S
C915 C916 1.355 . S
C915 C917 1.415 1_554 S
C916 C915 1.355 . S
C916 C918 1.419 . S
C917 C912 1.425 1_456 S
C917 C914 1.409 . S
C917 C915 1.415 1_556 S
C918 H908 0.930 . S
C918 C916 1.419 . S
C918 C919 1.362 1_455 S
C919 H909 0.930 . S
C919 C912 1.409 . S
C919 C918 1.362 1_655 S
H920 C926 0.930 . S
H921 C929 0.930 . S
H922 C930 0.930 . S
H923 C931 0.930 . S
H924 C934 0.930 . S
H925 C935 0.930 . S
C926 H920 0.930 . S
C926 C927 1.355 . S
C926 C928 1.415 . S
C927 C926 1.355 . S
C927 C929 1.419 . S
C928 C926 1.415 . S
C928 C933 1.425 1_565 S
C928 C935 1.409 . S
C929 H921 0.930 . S
C929 C927 1.419 . S
C929 C930 1.362 1_565 S
C930 H922 0.930 . S
C930 C929 1.362 1_545 S
C930 C933 1.409 . S
C931 H923 0.930 . S
C931 C932 1.355 . S
C931 C933 1.415 . S
C932 C931 1.355 . S
C932 C934 1.419 . S
C933 C928 1.425 1_545 S
C933 C930 1.409 . S
C933 C931 1.415 . S
C934 H924 0.930 . S
C934 C932 1.419 . S
C934 C935 1.362 1_545 S
C935 H925 0.930 . S
C935 C928 1.409 . S
C935 C934 1.362 1_565 S
C367 C147 1.063 . S
C372 N14 1.083 . S
C383 N156 0.885 . S
C388 C46 0.884 . S
C399 N74 1.078 . S
C404 C27 1.079 . S
C415 C106 0.914 . S
C420 N36 0.883 . S
C431 N134 1.065 . S
C436 C87 1.083 . S
C447 N96 0.955 . S
C452 C166 0.946 . S
C463 N246 0.892 . S
C468 C196 0.888 . S
C479 C226 0.951 . S
C484 N276 0.946 . S
C495 N306 0.901 . S
C500 C256 0.926 . S
C511 C286 0.945 . S
C516 N336 0.955 . S
C527 C316 0.894 . S
C532 N186 0.900 . S
C543 N216 0.936 . S
C548 C346 0.946 . S
C559 C136 1.235 . S
C564 N6 1.242 . S
C575 C57 1.291 . S
C580 N164 1.244 . S
C591 N66 1.236 . S
C596 C16 1.242 . S
C607 C117 1.338 . S
C612 N44 1.317 . S
C623 C76 1.184 . S
C628 N126 1.233 . S
C639 N104 1.284 . S
C644 C177 1.321 . S
C655 N254 1.242 . S
C660 C207 1.290 . S
C671 C237 1.332 . S
C676 N284 1.303 . S
C687 C267 1.282 . S
C692 N314 1.226 . S
C703 N344 1.270 . S
C708 C297 1.313 . S
C719 C327 1.322 . S
C724 N194 1.285 . S
C735 N224 1.233 . S
C740 C357 1.289 . S
C751 C301 1.590 . S
C756 C10 1.620 . S
C767 C31 1.591 . S
C772 C331 1.588 . S
C783 C70 1.620 . S
C788 C181 1.596 . S
C799 C91 1.592 . S
C804 C211 1.596 . S
C815 C130 1.614 . S
C820 C241 1.612 . S
C831 C271 1.599 . S
C836 C151 1.594 . S
C847 C280 1.900 . S
C852 C1 1.818 . S
C863 C310 1.956 . S
C868 C40 1.954 . S
C879 C61 1.889 . S
C884 C340 1.950 . S
C895 C100 1.956 . S
C900 C190 1.955 . S
C911 C220 1.907 . S
C916 C121 1.820 . S
C927 C250 1.899 . S
C932 C160 1.902 . S
