# Generated by pormake.
# Topology wkx, (5)-cn, num edge types: 1
# Building blocks:
#     Node 0, Type 0, BuildingBlock: BEQFEK_clean_sbu_0, # of connection points: 5
#     Node 1, Type 0, BuildingBlock: BEQFEK_clean_sbu_0, # of connection points: 5
#     Node 2, Type 0, BuildingBlock: BEQFEK_clean_sbu_0, # of connection points: 5
#     Node 3, Type 0, BuildingBlock: BEQFEK_clean_sbu_0, # of connection points: 5
#     Node 4, Type 0, BuildingBlock: BEQFEK_clean_sbu_0, # of connection points: 5
#     Node 5, Type 0, BuildingBlock: BEQFEK_clean_sbu_0, # of connection points: 5
#     Node 6, Type 0, BuildingBlock: BEQFEK_clean_sbu_0, # of connection points: 5
#     Node 7, Type 0, BuildingBlock: BEQFEK_clean_sbu_0, # of connection points: 5
#     Node 8, Type 0, BuildingBlock: BEQFEK_clean_sbu_0, # of connection points: 5
#     Node 9, Type 0, BuildingBlock: BEQFEK_clean_sbu_0, # of connection points: 5
#     Node 10, Type 0, BuildingBlock: BEQFEK_clean_sbu_0, # of connection points: 5
#     Node 11, Type 0, BuildingBlock: BEQFEK_clean_sbu_0, # of connection points: 5
#     Edge 12, Type (0, 0), BuildingBlock: XIVTED_clean_linker_0, # of connection points: 2
#     Edge 13, Type (0, 0), BuildingBlock: XIVTED_clean_linker_0, # of connection points: 2
#     Edge 14, Type (0, 0), BuildingBlock: XIVTED_clean_linker_0, # of connection points: 2
#     Edge 15, Type (0, 0), BuildingBlock: XIVTED_clean_linker_0, # of connection points: 2
#     Edge 16, Type (0, 0), BuildingBlock: XIVTED_clean_linker_0, # of connection points: 2
#     Edge 17, Type (0, 0), BuildingBlock: XIVTED_clean_linker_0, # of connection points: 2
#     Edge 18, Type (0, 0), BuildingBlock: XIVTED_clean_linker_0, # of connection points: 2
#     Edge 19, Type (0, 0), BuildingBlock: XIVTED_clean_linker_0, # of connection points: 2
#     Edge 20, Type (0, 0), BuildingBlock: XIVTED_clean_linker_0, # of connection points: 2
#     Edge 21, Type (0, 0), BuildingBlock: XIVTED_clean_linker_0, # of connection points: 2
#     Edge 22, Type (0, 0), BuildingBlock: XIVTED_clean_linker_0, # of connection points: 2
#     Edge 23, Type (0, 0), BuildingBlock: XIVTED_clean_linker_0, # of connection points: 2
#     Edge 24, Type (0, 0), BuildingBlock: XIVTED_clean_linker_0, # of connection points: 2
#     Edge 25, Type (0, 0), BuildingBlock: XIVTED_clean_linker_0, # of connection points: 2
#     Edge 26, Type (0, 0), BuildingBlock: XIVTED_clean_linker_0, # of connection points: 2
#     Edge 27, Type (0, 0), BuildingBlock: XIVTED_clean_linker_0, # of connection points: 2
#     Edge 28, Type (0, 0), BuildingBlock: XIVTED_clean_linker_0, # of connection points: 2
#     Edge 29, Type (0, 0), BuildingBlock: XIVTED_clean_linker_0, # of connection points: 2
#     Edge 30, Type (0, 0), BuildingBlock: XIVTED_clean_linker_0, # of connection points: 2
#     Edge 31, Type (0, 0), BuildingBlock: XIVTED_clean_linker_0, # of connection points: 2
#     Edge 32, Type (0, 0), BuildingBlock: XIVTED_clean_linker_0, # of connection points: 2
#     Edge 33, Type (0, 0), BuildingBlock: XIVTED_clean_linker_0, # of connection points: 2
#     Edge 34, Type (0, 0), BuildingBlock: XIVTED_clean_linker_0, # of connection points: 2
#     Edge 35, Type (0, 0), BuildingBlock: XIVTED_clean_linker_0, # of connection points: 2
#     Edge 36, Type (0, 0), BuildingBlock: XIVTED_clean_linker_0, # of connection points: 2
#     Edge 37, Type (0, 0), BuildingBlock: XIVTED_clean_linker_0, # of connection points: 2
#     Edge 38, Type (0, 0), BuildingBlock: XIVTED_clean_linker_0, # of connection points: 2
#     Edge 39, Type (0, 0), BuildingBlock: XIVTED_clean_linker_0, # of connection points: 2
#     Edge 40, Type (0, 0), BuildingBlock: XIVTED_clean_linker_0, # of connection points: 2
#     Edge 41, Type (0, 0), BuildingBlock: XIVTED_clean_linker_0, # of connection points: 2
# Relax obj value: 0.426
# Max RMSD: 0.258
# Mean RMSD: 0.258
data_MOF--net-wkx--node1-BEQFEK_clean_sbu_0--edge1-XIVTED_clean_linker_0
_symmetry_space_group_name_H-M    P1
_symmetry_Int_Tables_number       1
_symmetry_cell_setting            triclinic
loop_
_symmetry_equiv_pos_as_xyz
'x, y, z'
_cell_length_a     35.619121
_cell_length_b     35.60062
_cell_length_c     76.50109
_cell_angle_alpha  89.933894
_cell_angle_beta   89.942833
_cell_angle_gamma 120.06295
loop_
_atom_site_label
_atom_site_type_symbol
_atom_site_fract_x
_atom_site_fract_y
_atom_site_fract_z
_atom_type_partial_charge
Co0 Co 0.21558 0.17308 0.43855 0.0
Co1 Co 0.31145 0.21083 0.45028 0.0
C2 C 0.25587 0.25026 0.46097 0.0
O3 O 0.22499 0.22485 0.45104 0.0
O4 O 0.29049 0.24803 0.46202 0.0
C5 C 0.12555 0.13548 0.43973 0.0
O6 O 0.13494 0.14903 0.45597 0.0
C7 C 0.40073 0.28029 0.44798 0.0
C8 C 0.43792 0.24799 0.45485 0.0
C9 C 0.44248 0.28705 0.44915 0.0
N10 N 0.37279 0.23922 0.45271 0.0
N11 N 0.39517 0.22019 0.45709 0.0
C12 C 0.38702 0.31018 0.44025 0.0
H13 H 0.35267 0.29172 0.43598 0.0
H14 H 0.4081 0.32824 0.42899 0.0
H15 H 0.39023 0.33407 0.45029 0.0
C16 C 0.2516 0.17039 0.40444 0.0
N17 N 0.25695 0.18448 0.42106 0.0
N18 N 0.29728 0.19887 0.4259 0.0
C19 C 0.31885 0.19369 0.41242 0.0
C20 C 0.29067 0.17553 0.39835 0.0
C21 C 0.20809 0.14514 0.39592 0.0
H22 H 0.19063 0.16356 0.39693 0.0
H23 H 0.21069 0.13824 0.38199 0.0
H24 H 0.18869 0.11394 0.40298 0.0
O25 O 0.21645 0.13206 0.45574 0.0
O26 O 0.28481 0.15513 0.46328 0.0
H27 H 0.36599 0.18163 0.42445 0.0
H28 H 0.37449 0.19299 0.40125 0.0
C29 C 0.36408 0.20132 0.41361 0.0
H30 H 0.38669 0.236 0.41649 0.0
H31 H 0.38118 0.18768 0.4608 0.0
O32 O 0.15629 0.14392 0.42914 0.0
C33 C 0.24447 0.12741 0.46433 0.0
Co34 Co 0.06729 0.22544 0.60682 0.0
Co35 Co 0.10729 0.32334 0.61552 0.0
C36 C 0.01902 0.25598 0.62898 0.0
O37 O 0.02194 0.22651 0.62084 0.0
O38 O 0.04942 0.29549 0.62814 0.0
C39 C 0.00673 0.13932 0.59401 0.0
O40 O 0.98066 0.15411 0.58996 0.0
C41 C 0.116 0.4079 0.60884 0.0
C42 C 0.18202 0.45283 0.61858 0.0
C43 C 0.14733 0.45166 0.60985 0.0
N44 N 0.13209 0.38463 0.61614 0.0
N45 N 0.17129 0.41164 0.62218 0.0
C46 C 0.07138 0.38779 0.60122 0.0
H47 H 0.0497 0.35617 0.60761 0.0
H48 H 0.07278 0.38157 0.5871 0.0
H49 H 0.05775 0.40962 0.60281 0.0
C50 C 0.0943 0.25827 0.57126 0.0
N51 N 0.08584 0.26409 0.58787 0.0
N52 N 0.10571 0.30583 0.59145 0.0
C53 C 0.12861 0.32792 0.57716 0.0
C54 C 0.12167 0.29854 0.56384 0.0
C55 C 0.08324 0.215 0.56387 0.0
H56 H 0.09727 0.19978 0.57231 0.0
H57 H 0.04751 0.19357 0.56387 0.0
H58 H 0.09558 0.21765 0.55035 0.0
O59 O 0.11795 0.23962 0.62163 0.0
O60 O 0.14592 0.30895 0.629 0.0
H61 H 0.18162 0.38417 0.58886 0.0
H62 H 0.18238 0.38474 0.56521 0.0
C63 C 0.16127 0.37542 0.57695 0.0
H64 H 0.14415 0.39417 0.57682 0.0
H65 H 0.19133 0.40189 0.62818 0.0
O66 O 0.04428 0.16481 0.60003 0.0
C67 C 0.14606 0.2733 0.62967 0.0
Co68 Co 0.84209 0.05578 0.77429 0.0
Co69 Co 0.78554 0.09794 0.78134 0.0
C70 C 0.76104 0.00967 0.79554 0.0
O71 O 0.79362 0.01163 0.78793 0.0
O72 O 0.75311 0.04073 0.79425 0.0
C73 C 0.86289 0.99252 0.76117 0.0
O74 O 0.82311 0.97135 0.75508 0.0
C75 C 0.71053 0.10828 0.7748 0.0
C76 C 0.73407 0.17559 0.78353 0.0
C77 C 0.69902 0.14024 0.77577 0.0
N78 N 0.75072 0.12451 0.78128 0.0
N79 N 0.76446 0.16456 0.78666 0.0
C80 C 0.68417 0.06287 0.76808 0.0
H81 H 0.69479 0.04153 0.77421 0.0
H82 H 0.68912 0.06267 0.75377 0.0
H83 H 0.64915 0.04987 0.77073 0.0
C84 C 0.84123 0.08405 0.73836 0.0
N85 N 0.82496 0.07535 0.75471 0.0
N86 N 0.80273 0.09517 0.75757 0.0
C87 C 0.80484 0.11783 0.74301 0.0
C88 C 0.82899 0.11124 0.73031 0.0
C89 C 0.87459 0.07348 0.73191 0.0
H90 H 0.90035 0.08299 0.74189 0.0
H91 H 0.85904 0.03795 0.7299 0.0
H92 H 0.88963 0.09019 0.71944 0.0
O93 O 0.87892 0.10628 0.78911 0.0
O94 O 0.83818 0.13577 0.79518 0.0
H95 H 0.80189 0.1724 0.75307 0.0
H96 H 0.79811 0.16775 0.72948 0.0
C97 C 0.78876 0.14939 0.74197 0.0
H98 H 0.75293 0.13152 0.7429 0.0
H99 H 0.795 0.18473 0.79207 0.0
O100 O 0.87698 0.0291 0.76851 0.0
C101 C 0.87344 0.13509 0.7966 0.0
Co102 Co 0.7792 0.84271 0.94319 0.0
Co103 Co 0.68062 0.7848 0.95039 0.0
C104 C 0.7455 0.76227 0.9648 0.0
O105 O 0.77581 0.79519 0.95719 0.0
O106 O 0.70622 0.75338 0.96341 0.0
C107 C 0.86388 0.86387 0.93101 0.0
O108 O 0.84609 0.82289 0.92647 0.0
C109 C 0.5958 0.70882 0.94397 0.0
C110 C 0.55127 0.73155 0.95251 0.0
C111 C 0.55217 0.69672 0.94485 0.0
N112 N 0.6193 0.74915 0.9504 0.0
N113 N 0.59253 0.7624 0.95568 0.0
C114 C 0.61546 0.68293 0.93738 0.0
H115 H 0.6473 0.69386 0.94365 0.0
H116 H 0.62103 0.68804 0.92309 0.0
H117 H 0.59361 0.64782 0.93995 0.0
C118 C 0.7499 0.8395 0.90719 0.0
N119 N 0.74245 0.82401 0.92366 0.0
N120 N 0.7004 0.80142 0.92656 0.0
C121 C 0.67969 0.80259 0.91192 0.0
C122 C 0.71037 0.82645 0.89912 0.0
C123 C 0.79378 0.8729 0.90063 0.0
H124 H 0.80889 0.90015 0.91006 0.0
H125 H 0.81475 0.85817 0.89974 0.0
H126 H 0.79225 0.8858 0.88762 0.0
O127 O 0.7647 0.87947 0.95765 0.0
O128 O 0.69466 0.83769 0.96394 0.0
H129 H 0.62182 0.79904 0.92192 0.0
H130 H 0.62286 0.79509 0.89835 0.0
C131 C 0.63196 0.78602 0.91086 0.0
H132 H 0.61423 0.75017 0.91184 0.0
H133 H 0.60248 0.79293 0.96101 0.0
O134 O 0.8406 0.87847 0.93716 0.0
C135 C 0.73021 0.87351 0.96514 0.0
Co136 Co 0.93529 0.77888 0.11122 0.0
Co137 Co 0.89008 0.67994 0.11851 0.0
C138 C 0.97874 0.74114 0.13256 0.0
O139 O 0.9778 0.77241 0.12504 0.0
O140 O 0.94696 0.70247 0.13129 0.0
C141 C 0.00068 0.86132 0.09717 0.0
O142 O 0.01948 0.84082 0.0906 0.0
C143 C 0.87726 0.59319 0.11403 0.0
C144 C 0.80715 0.55151 0.11935 0.0
C145 C 0.84387 0.55036 0.11418 0.0
N146 N 0.86097 0.61841 0.11882 0.0
N147 N 0.81921 0.59334 0.12225 0.0
C148 C 0.92256 0.61061 0.10742 0.0
H149 H 0.93695 0.64524 0.10364 0.0
H150 H 0.92293 0.59141 0.09607 0.0
H151 H 0.94264 0.6082 0.11796 0.0
C152 C 0.90744 0.74965 0.07523 0.0
N153 N 0.91497 0.74193 0.09173 0.0
N154 N 0.89453 0.69982 0.09463 0.0
C155 C 0.87299 0.67937 0.0799 0.0
C156 C 0.88066 0.71024 0.0671 0.0
C157 C 0.91883 0.79373 0.06859 0.0
H158 H 0.91186 0.81149 0.0788 0.0
H159 H 0.95402 0.81234 0.06561 0.0
H160 H 0.90058 0.79196 0.05659 0.0
O161 O 0.88505 0.76756 0.1258 0.0
O162 O 0.85366 0.6972 0.13208 0.0
H163 H 0.81606 0.62194 0.08857 0.0
H164 H 0.82715 0.62231 0.06546 0.0
C165 C 0.84199 0.63163 0.07863 0.0
H166 H 0.85947 0.61383 0.08131 0.0
H167 H 0.79861 0.60492 0.12589 0.0
O168 O 0.96472 0.84056 0.10518 0.0
C169 C 0.85544 0.73371 0.13332 0.0
Co170 Co 0.16689 0.95137 0.27216 0.0
Co171 Co 0.20521 0.89442 0.28429 0.0
C172 C 0.24055 0.98804 0.29628 0.0
O173 O 0.21627 0.9936 0.28577 0.0
O174 O 0.23886 0.95145 0.29732 0.0
C175 C 0.13316 0.0078 0.27208 0.0
O176 O 0.15029 0.01658 0.28779 0.0
C177 C 0.27605 0.8785 0.27952 0.0
C178 C 0.251 0.81204 0.28967 0.0
C179 C 0.28604 0.8456 0.281 0.0
N180 N 0.23665 0.86454 0.28645 0.0
N181 N 0.22196 0.82503 0.29275 0.0
C182 C 0.3027 0.92251 0.27145 0.0
H183 H 0.29505 0.94602 0.27763 0.0
H184 H 0.29463 0.92083 0.25737 0.0
H185 H 0.33786 0.9342 0.27284 0.0
C186 C 0.16908 0.91653 0.23787 0.0
N187 N 0.18195 0.92461 0.25466 0.0
N188 N 0.19566 0.89827 0.25972 0.0
C189 C 0.19087 0.87161 0.24626 0.0
C190 C 0.17405 0.88241 0.23192 0.0
C191 C 0.1443 0.93497 0.22909 0.0
H192 H 0.1119 0.92129 0.23532 0.0
H193 H 0.16163 0.97068 0.23088 0.0
H194 H 0.1399 0.92739 0.21493 0.0
O195 O 0.12384 0.90567 0.28787 0.0
O196 O 0.14792 0.86144 0.29588 0.0
H197 H 0.18069 0.81452 0.25983 0.0
H198 H 0.18367 0.81125 0.23627 0.0
C199 C 0.19677 0.83294 0.24777 0.0
H200 H 0.23185 0.84409 0.24867 0.0
H201 H 0.19151 0.80634 0.29852 0.0
O202 O 0.13785 0.98129 0.2625 0.0
C203 C 0.11874 0.8722 0.29607 0.0
Co204 Co 0.82695 0.7773 0.40397 0.0
Co205 Co 0.78425 0.67996 0.39391 0.0
C206 C 0.7472 0.73889 0.38393 0.0
O207 O 0.77377 0.76987 0.39357 0.0
O208 O 0.74877 0.70391 0.38273 0.0
C209 C 0.85378 0.86367 0.41876 0.0
O210 O 0.8144 0.84921 0.42486 0.0
C211 C 0.71258 0.59405 0.40142 0.0
C212 C 0.73349 0.55052 0.39003 0.0
C213 C 0.70086 0.55059 0.39995 0.0
N214 N 0.75065 0.61825 0.39321 0.0
N215 N 0.76283 0.5921 0.38624 0.0
C216 C 0.68854 0.61306 0.41039 0.0
H217 H 0.69722 0.64492 0.40457 0.0
H218 H 0.69792 0.61853 0.42438 0.0
H219 H 0.65297 0.5909 0.40943 0.0
C220 C 0.83274 0.744 0.43858 0.0
N221 N 0.8175 0.73788 0.42211 0.0
N222 N 0.80135 0.69691 0.41778 0.0
C223 C 0.80684 0.67577 0.43135 0.0
C224 C 0.82648 0.70479 0.44505 0.0
C225 C 0.85889 0.78775 0.44682 0.0
H226 H 0.88747 0.80831 0.43848 0.0
H227 H 0.83889 0.80355 0.44763 0.0
H228 H 0.87018 0.78571 0.46011 0.0
O229 O 0.8611 0.77034 0.38525 0.0
O230 O 0.8371 0.70096 0.37924 0.0
H231 H 0.80919 0.62401 0.41804 0.0
H232 H 0.81284 0.62216 0.4416 0.0
C233 C 0.79752 0.62985 0.43062 0.0
H234 H 0.76201 0.6076 0.43147 0.0
H235 H 0.79176 0.60268 0.37937 0.0
O236 O 0.86338 0.83821 0.41091 0.0
C237 C 0.86405 0.74111 0.37682 0.0
Co238 Co 0.04185 0.82597 0.57235 0.0
Co239 Co 0.10238 0.79206 0.55991 0.0
C240 C 0.00768 0.75165 0.54861 0.0
O241 O 0.00072 0.7751 0.55909 0.0
O242 O 0.04515 0.75535 0.54752 0.0
C243 C 0.98562 0.85947 0.57233 0.0
O244 O 0.97969 0.84515 0.55617 0.0
C245 C 0.12217 0.72303 0.56122 0.0
C246 C 0.19183 0.75539 0.55449 0.0
C247 C 0.15696 0.71606 0.55979 0.0
N248 N 0.13572 0.76442 0.55696 0.0
N249 N 0.17722 0.78356 0.55266 0.0
C250 C 0.07838 0.69295 0.56882 0.0
H251 H 0.06257 0.71132 0.57329 0.0
H252 H 0.08111 0.67435 0.57992 0.0
H253 H 0.05772 0.66955 0.55863 0.0
C254 C 0.0797 0.82689 0.6064 0.0
N255 N 0.07168 0.81393 0.58962 0.0
N256 N 0.09879 0.80127 0.58448 0.0
C257 C 0.12561 0.80644 0.59792 0.0
C258 C 0.11443 0.82284 0.61228 0.0
C259 C 0.06015 0.85056 0.61525 0.0
H260 H 0.02431 0.83143 0.61404 0.0
H261 H 0.06905 0.8566 0.62926 0.0
H262 H 0.0715 0.88216 0.60859 0.0
O263 O 0.08428 0.86952 0.55588 0.0
O264 O 0.13133 0.84902 0.54793 0.0
H265 H 0.18572 0.82168 0.58577 0.0
H266 H 0.18287 0.80865 0.60882 0.0
C267 C 0.16432 0.80069 0.59642 0.0
H268 H 0.15346 0.7665 0.59305 0.0
H269 H 0.19601 0.81629 0.54931 0.0
O270 O 0.01021 0.85283 0.58231 0.0
C271 C 0.11787 0.8761 0.5474 0.0
Co272 Co 0.21544 0.06504 0.73202 0.0
Co273 Co 0.31441 0.1099 0.72503 0.0
C274 C 0.25322 0.02121 0.71095 0.0
O275 O 0.22189 0.02234 0.71831 0.0
O276 O 0.29189 0.05293 0.7123 0.0
C277 C 0.13262 -0.00066 0.74541 0.0
O278 O 0.15291 0.98 0.75166 0.0
C279 C 0.40055 0.12177 0.72988 0.0
C280 C 0.44303 0.19183 0.72463 0.0
C281 C 0.44351 0.15479 0.72986 0.0
N282 N 0.37586 0.13856 0.72496 0.0
N283 N 0.4014 0.18029 0.72157 0.0
C284 C 0.38245 0.07635 0.73649 0.0
H285 H 0.34786 0.06241 0.74022 0.0
H286 H 0.40135 0.07562 0.74789 0.0
H287 H 0.38458 0.05606 0.72598 0.0
C288 C 0.24402 0.0922 0.76813 0.0
N289 N 0.25199 0.085 0.75162 0.0
N290 N 0.29413 0.10544 0.74883 0.0
C291 C 0.31434 0.12672 0.76364 0.0
C292 C 0.28329 0.11882 0.77637 0.0
C293 C 0.19983 0.08048 0.77471 0.0
H294 H 0.18248 0.08836 0.76463 0.0
H295 H 0.18101 0.04504 0.77721 0.0
H296 H 0.20134 0.09779 0.78696 0.0
O297 O 0.22738 0.11552 0.71745 0.0
O298 O 0.29777 0.14668 0.71135 0.0
H299 H 0.37199 0.18355 0.75506 0.0
H300 H 0.3711 0.17262 0.77821 0.0
C301 C 0.36205 0.15768 0.76505 0.0
H302 H 0.37982 0.14009 0.76254 0.0
H303 H 0.39028 0.20122 0.71784 0.0
O304 O 0.15366 0.03589 0.73784 0.0
C305 C 0.26139 0.1451 0.71001 0.0
Co306 Co 0.14751 0.21098 0.90089 0.0
Co307 Co 0.20133 0.30995 0.89371 0.0
C308 C 0.22896 0.24914 0.87948 0.0
O309 O 0.19657 0.21784 0.88694 0.0
O310 O 0.23606 0.28783 0.88093 0.0
C311 C 0.13138 0.1291 0.915 0.0
O312 O 0.17049 0.15031 0.92173 0.0
C313 C 0.27503 0.39667 0.89831 0.0
C314 C 0.24665 0.43831 0.89299 0.0
C315 C 0.28445 0.43946 0.89822 0.0
N316 N 0.23358 0.37145 0.89345 0.0
N317 N 0.21692 0.39649 0.89 0.0
C318 C 0.30279 0.37923 0.90499 0.0
H319 H 0.28246 0.34455 0.9087 0.0
H320 H 0.32211 0.3983 0.91641 0.0
H321 H 0.32553 0.38179 0.89451 0.0
C322 C 0.148 0.23994 0.93684 0.0
N323 N 0.16382 0.24779 0.92042 0.0
N324 N 0.18556 0.28992 0.91756 0.0
C325 C 0.18401 0.31025 0.93226 0.0
C326 C 0.16035 0.27927 0.94498 0.0
C327 C 0.11491 0.1958 0.94333 0.0
H328 H 0.13135 0.17723 0.94659 0.0
H329 H 0.09773 0.19748 0.95514 0.0
H330 H 0.09076 0.17806 0.93294 0.0
O331 O 0.10857 0.2221 0.88631 0.0
O332 O 0.1478 0.29246 0.88002 0.0
H333 H 0.1845 0.36763 0.92362 0.0
H334 H 0.19515 0.36726 0.94672 0.0
C335 C 0.20073 0.35798 0.93355 0.0
H336 H 0.23604 0.37583 0.93087 0.0
H337 H 0.18477 0.38489 0.8863 0.0
O338 O 0.11575 0.14924 0.90687 0.0
C339 C 0.11302 0.25595 0.87874 0.0
Co340 Co 0.9278 0.14306 0.06908 0.0
Co341 Co 0.88627 0.20031 0.06233 0.0
C342 C 0.97425 0.2244 0.04797 0.0
O343 O 0.97196 0.19153 0.05545 0.0
O344 O 0.94343 0.23265 0.04935 0.0
C345 C 0.99167 0.12289 0.08147 0.0
O346 O 0.01302 0.1631 0.0871 0.0
C347 C 0.87706 0.27594 0.06908 0.0
C348 C 0.81001 0.25342 0.06032 0.0
C349 C 0.84567 0.28819 0.06806 0.0
N350 N 0.86025 0.23564 0.06261 0.0
N351 N 0.82033 0.22248 0.05724 0.0
C352 C 0.92252 0.30173 0.07579 0.0
H353 H 0.92254 0.29724 0.09014 0.0
H354 H 0.93622 0.33678 0.07292 0.0
H355 H 0.94334 0.29024 0.06985 0.0
C356 C 0.90002 0.14367 0.10505 0.0
N357 N 0.90878 0.16031 0.08876 0.0
N358 N 0.88914 0.18276 0.08604 0.0
C359 C 0.86652 0.18044 0.10063 0.0
C360 C 0.87292 0.15587 0.11321 0.0
C361 C 0.91034 0.10995 0.11128 0.0
H362 H 0.89984 0.08398 0.10132 0.0
H363 H 0.94595 0.12506 0.11288 0.0
H364 H 0.89434 0.09526 0.12389 0.0
O365 O 0.87699 0.10655 0.05437 0.0
O366 O 0.84793 0.14778 0.04846 0.0
H367 H 0.81194 0.18355 0.09074 0.0
H368 H 0.81695 0.18738 0.11432 0.0
C369 C 0.83511 0.19666 0.10179 0.0
H370 H 0.85304 0.23251 0.10082 0.0
H371 H 0.79983 0.19205 0.05181 0.0
O372 O 0.95441 0.10801 0.07466 0.0
C373 C 0.84825 0.11232 0.04699 0.0
Co374 Co 0.76695 0.92165 0.2383 0.0
Co375 Co 0.66929 0.87797 0.22876 0.0
C376 C 0.73438 0.96721 0.21547 0.0
O377 O 0.76431 0.96567 0.22387 0.0
O378 O 0.69531 0.93579 0.21613 0.0
C379 C 0.85265 0.98537 0.25056 0.0
O380 O 0.83815 0.01261 0.25218 0.0
C381 C 0.58253 0.86573 0.23247 0.0
C382 C 0.54098 0.79614 0.22621 0.0
C383 C 0.53973 0.83236 0.23198 0.0
N384 N 0.60788 0.84986 0.22735 0.0
N385 N 0.58288 0.80846 0.22331 0.0
C386 C 0.59966 0.91023 0.23989 0.0
H387 H 0.6345 0.92478 0.24327 0.0
H388 H 0.58082 0.90902 0.25165 0.0
H389 H 0.59628 0.93114 0.22998 0.0
C390 C 0.73289 0.89496 0.2737 0.0
N391 N 0.72731 0.902 0.25687 0.0
N392 N 0.68573 0.88104 0.25304 0.0
C393 C 0.66347 0.85908 0.26747 0.0
C394 C 0.69259 0.86744 0.28106 0.0
C395 C 0.77626 0.90776 0.28145 0.0
H396 H 0.79196 0.89309 0.27368 0.0
H397 H 0.79722 0.94354 0.28072 0.0
H398 H 0.77374 0.89725 0.29526 0.0
O399 O 0.75608 0.87162 0.22373 0.0
O400 O 0.68702 0.84127 0.21573 0.0
H401 H 0.60807 0.80283 0.25712 0.0
H402 H 0.60558 0.80951 0.28047 0.0
C403 C 0.61594 0.82677 0.26775 0.0
H404 H 0.59752 0.8438 0.2655 0.0
H405 H 0.59455 0.78809 0.21942 0.0
O406 O 0.82712 0.94643 0.24595 0.0
C407 C 0.72342 0.84269 0.21545 0.0
H408 H 0.09526 0.09953 0.40763 0.0
H409 H 0.86197 0.92246 0.44397 0.0
H410 H 0.05285 0.10092 0.46041 0.0
H411 H 0.9223 0.90914 0.39726 0.0
H412 H 0.92373 0.99658 0.44758 0.0
H413 H 0.02324 0.03928 0.40091 0.0
C414 C 0.07062 0.08759 0.41775 0.0
C415 C 0.08032 0.10467 0.43471 0.0
C416 C 0.923 0.97747 0.43645 0.0
C417 C -0.00206 0.03539 0.42715 0.0
C418 C 0.88786 0.93536 0.43438 0.0
C419 C 0.88755 0.90959 0.42048 0.0
C420 C 0.95741 0.99372 0.42436 0.0
C421 C 0.9217 0.92769 0.40836 0.0
C422 C 0.02952 0.0531 0.41392 0.0
C423 C 0.04691 0.08827 0.44723 0.0
N424 N 0.95529 0.96851 0.41063 0.0
N425 N 0.00729 0.05403 0.44327 0.0
H426 H 0.94568 0.89343 0.55244 0.0
H427 H 0.03112 0.09419 0.6149 0.0
H428 H 0.99478 0.8968 0.60435 0.0
H429 H 0.94916 0.07895 0.57085 0.0
H430 H 0.01218 0.01879 0.6121 0.0
H431 H 0.93892 0.95666 0.55973 0.0
C432 C 0.95414 0.90685 0.56549 0.0
C433 C 0.97188 0.89055 0.57767 0.0
C434 C -0.00218 0.03156 0.60312 0.0
C435 C 0.9646 0.96288 0.58598 0.0
C436 C 0.00894 0.07475 0.60463 0.0
C437 C 0.99219 0.09282 0.59289 0.0
C438 C 0.9705 0.00634 0.58949 0.0
C439 C 0.96296 0.0661 0.58006 0.0
C440 C 0.95028 0.94295 0.56962 0.0
C441 C 0.98183 0.90887 0.59442 0.0
N442 N 0.9536 0.0242 0.57847 0.0
N443 N 0.97878 0.94453 0.59797 0.0
H444 H 0.91572 0.9918 0.78624 0.0
H445 H 0.0773 0.99483 0.72034 0.0
H446 H 0.8762 0.95369 0.73291 0.0
H447 H 0.08162 0.95981 0.77395 0.0
H448 H 0.0013 0.97425 0.72421 0.0
H449 H 0.97355 0.97459 0.7825 0.0
C450 C 0.91888 0.97899 0.77382 0.0
C451 C 0.89189 0.97465 0.75975 0.0
C452 C 0.01844 0.96996 0.73501 0.0
C453 C 0.95815 0.95581 0.75528 0.0
C454 C 0.06179 0.98198 0.73285 0.0
C455 C 0.08549 0.97948 0.74695 0.0
C456 C -0.00074 0.95681 0.75156 0.0
C457 C 0.0642 0.96232 0.76283 0.0
C458 C 0.9516 0.96889 0.77173 0.0
C459 C 0.89672 0.95761 0.74399 0.0
N460 N 0.02238 0.95267 0.76488 0.0
N461 N 0.93018 0.94985 0.742 0.0
H462 H 0.91963 0.86437 0.90613 0.0
H463 H 0.08706 0.07132 0.88958 0.0
H464 H 0.91454 0.92969 0.95277 0.0
H465 H 0.1134 0.0811 0.94485 0.0
H466 H 0.02979 0.99603 0.89363 0.0
H467 H -0.00392 0.92099 0.90219 0.0
C468 C 0.93486 0.89023 0.91565 0.0
C469 C 0.91083 0.8933 0.92951 0.0
C470 C 0.04911 0.01396 0.90479 0.0
C471 C -0.00277 0.95718 0.92524 0.0
C472 C 0.08145 0.05698 0.9025 0.0
C473 C 0.10443 0.08204 0.91695 0.0
C474 C 0.03901 0.99656 0.92174 0.0
C475 C 0.0962 0.06248 0.93344 0.0
C476 C 0.9782 0.92242 0.91338 0.0
C477 C 0.93186 0.92697 0.94164 0.0
N478 N 0.06308 0.02105 0.9355 0.0
N479 N 0.97386 0.95781 0.93916 0.0
H480 H 0.01056 0.91881 0.12222 0.0
H481 H 0.9878 0.06703 0.05675 0.0
H482 H 0.03246 0.90942 0.06739 0.0
H483 H 0.03819 0.11492 0.10821 0.0
H484 H 0.00941 0.01223 0.05979 0.0
H485 H 0.027 0.99348 0.1177 0.0
C486 C 0.01989 0.93304 0.10929 0.0
C487 C 0.01977 0.90824 0.09508 0.0
C488 C 0.01672 0.03531 0.07027 0.0
C489 C 0.0374 0.99274 0.08974 0.0
C490 C 0.00405 0.06626 0.06861 0.0
C491 C 0.01067 0.09476 0.08239 0.0
C492 C 0.03481 0.03203 0.08607 0.0
C493 C 0.03231 0.09311 0.09738 0.0
C494 C 0.02946 0.97562 0.10673 0.0
C495 C 0.03216 0.92778 0.07861 0.0
N496 N 0.04266 0.06133 0.09903 0.0
N497 N 0.03937 0.96873 0.07626 0.0
H498 H 0.10376 0.05245 0.2916 0.0
H499 H 0.91488 0.05577 0.26883 0.0
H500 H 0.09042 0.99318 0.24105 0.0
H501 H 0.89595 0.94837 0.23649 0.0
H502 H 0.99136 0.07602 0.27256 0.0
H503 H 0.04023 0.05921 0.28529 0.0
C504 C 0.0882 0.04196 0.27898 0.0
C505 C 0.10179 0.02134 0.26697 0.0
C506 C 0.97031 0.04798 0.26472 0.0
C507 C 0.02946 0.02932 0.25962 0.0
C508 C 0.92685 0.03658 0.26253 0.0
C509 C 0.899 -0.00014 0.25265 0.0
C510 C 0.98564 0.02262 0.25675 0.0
C511 C 0.91605 0.97637 0.24454 0.0
C512 C 0.05202 0.04608 0.27534 0.0
C513 C 0.0806 0.00856 0.25081 0.0
N514 N 0.95819 0.98816 0.24678 0.0
N515 N 0.04495 0.01194 0.24777 0.0
H516 H 0.65998 0.5441 0.43145 0.0
H517 H 0.50514 0.28804 0.42841 0.0
H518 H 0.6592 0.46756 0.38759 0.0
H519 H 0.47137 0.37244 0.45607 0.0
H520 H 0.56981 0.35212 0.41673 0.0
H521 H 0.59807 0.48 0.4438 0.0
C522 C 0.64624 0.51422 0.42413 0.0
C523 C 0.66371 0.51183 0.40798 0.0
C524 C 0.54822 0.35652 0.42538 0.0
C525 C 0.59421 0.43751 0.42271 0.0
C526 C 0.51162 0.32011 0.43212 0.0
C527 C 0.48288 0.32521 0.44305 0.0
C528 C 0.55645 0.39815 0.42993 0.0
C529 C 0.49248 0.36728 0.44746 0.0
C530 C 0.61121 0.47739 0.43138 0.0
C531 C 0.64627 0.47108 0.3999 0.0
N532 N 0.52858 0.40222 0.44092 0.0
N533 N 0.61241 0.43548 0.40733 0.0
H534 H 0.10743 0.45615 0.57957 0.0
H535 H 0.21815 0.71373 0.5803 0.0
H536 H 0.19123 0.53526 0.62128 0.0
H537 H 0.09953 0.63105 0.55257 0.0
H538 H 0.21674 0.64901 0.59221 0.0
H539 H 0.11082 0.52035 0.56677 0.0
C540 C 0.12556 0.48665 0.58636 0.0
C541 C 0.14766 0.48986 0.60197 0.0
C542 C 0.1911 0.6451 0.58348 0.0
C543 C 0.15369 0.5641 0.58672 0.0
C544 C 0.19209 0.68189 0.57659 0.0
C545 C 0.15863 0.67748 0.56563 0.0
C546 C 0.1568 0.60375 0.5791 0.0
C547 C 0.1255 0.63568 0.56123 0.0
C548 C 0.12805 0.52352 0.57884 0.0
C549 C 0.17314 0.53115 0.60938 0.0
N550 N 0.1254 0.60033 0.56798 0.0
N551 N 0.17548 0.56669 0.60169 0.0
H552 H 0.50825 0.21359 0.75054 0.0
H553 H 0.64889 0.09718 0.74703 0.0
H554 H 0.4656 0.09267 0.72348 0.0
H555 H 0.66197 0.18558 0.78829 0.0
H556 H 0.58614 0.09974 0.73606 0.0
H557 H 0.57038 0.20956 0.76194 0.0
C558 C 0.51211 0.18627 0.74698 0.0
C559 C 0.48163 0.15312 0.73627 0.0
C560 C 0.60244 0.11811 0.74765 0.0
C561 C 0.55241 0.14842 0.74911 0.0
C562 C 0.638 0.11617 0.75413 0.0
C563 C 0.65993 0.13996 0.76904 0.0
C564 C 0.58934 0.14486 0.75588 0.0
C565 C 0.64573 0.1663 0.77688 0.0
C566 C 0.54731 0.18384 0.75356 0.0
C567 C 0.48797 0.11841 0.732 0.0
N568 N 0.61137 0.16811 0.77019 0.0
N569 N 0.52281 0.11701 0.7384 0.0
H570 H 0.2892 0.50369 0.91888 0.0
H571 H 0.54635 0.64715 0.91609 0.0
H572 H 0.36908 0.46283 0.89195 0.0
H573 H 0.46942 0.65856 0.95715 0.0
H574 H 0.4816 0.58403 0.9049 0.0
H575 H 0.35479 0.56627 0.93045 0.0
C576 C 0.32062 0.50805 0.91538 0.0
C577 C 0.32392 0.47794 0.90466 0.0
C578 C 0.47905 0.60004 0.9165 0.0
C579 C 0.39875 0.54922 0.9177 0.0
C580 C 0.51623 0.6358 0.9231 0.0
C581 C 0.51374 0.65738 0.93802 0.0
C582 C 0.43891 0.58638 0.9246 0.0
C583 C 0.47293 0.6426 0.94574 0.0
C584 C 0.35793 0.54351 0.92206 0.0
C585 C 0.36524 0.48492 0.90047 0.0
N586 N 0.43708 0.60805 0.93893 0.0
N587 N 0.40117 0.51998 0.90697 0.0
H588 H 0.80199 0.32651 0.05507 0.0
H589 H 0.90508 0.52713 0.12068 0.0
H590 H 0.88965 0.33901 0.09652 0.0
H591 H 0.78455 0.48587 0.09356 0.0
H592 H 0.90657 0.46366 0.10918 0.0
H593 H 0.80132 0.39039 0.06638 0.0
C594 C 0.8215 0.34292 0.06641 0.0
C595 C 0.84696 0.32802 0.0745 0.0
C596 C 0.87982 0.46854 0.10576 0.0
C597 C 0.84623 0.40097 0.08752 0.0
C598 C 0.87913 0.50483 0.11221 0.0
C599 C 0.84488 0.51179 0.10789 0.0
C600 C 0.84625 0.43942 0.09478 0.0
C601 C 0.8115 0.4815 0.0972 0.0
C602 C 0.82101 0.37928 0.07287 0.0
C603 C 0.87118 0.35028 0.0893 0.0
N604 N 0.81317 0.44674 0.09088 0.0
N605 N 0.87038 0.38577 0.09528 0.0
H606 H 0.32902 0.88077 0.25006 0.0
H607 H 0.4767 0.7725 0.25314 0.0
H608 H 0.32536 0.80233 0.2938 0.0
H609 H 0.51527 0.89275 0.22605 0.0
H610 H 0.41391 0.77466 0.26518 0.0
H611 H 0.3908 0.87774 0.23824 0.0
C612 C 0.34185 0.8639 0.25748 0.0
C613 C 0.3232 0.84351 0.27343 0.0
C614 C 0.43621 0.80056 0.25662 0.0
C615 C 0.39249 0.83775 0.25931 0.0
C616 C 0.47175 0.79922 0.24969 0.0
C617 C 0.50121 0.83273 0.23875 0.0
C618 C 0.42973 0.83517 0.25225 0.0
C619 C 0.49359 0.86669 0.23466 0.0
C620 C 0.37679 0.86164 0.25053 0.0
C621 C 0.33933 0.81923 0.28164 0.0
N622 N 0.45841 0.86697 0.24136 0.0
N623 N 0.37315 0.81702 0.2745 0.0
H624 H 0.26202 0.07315 0.29469 0.0
H625 H 0.3094 0.11001 0.39719 0.0
H626 H 0.27267 0.98128 0.32816 0.0
H627 H 0.28347 0.19234 0.36412 0.0
H628 H 0.30979 0.0695 0.37129 0.0
H629 H 0.2849 0.12431 0.3189 0.0
C630 C 0.27006 0.06402 0.30705 0.0
C631 C 0.26483 0.02251 0.30942 0.0
C632 C 0.30464 0.0968 0.36965 0.0
C633 C 0.29037 0.08097 0.33742 0.0
C634 C 0.30462 0.12 0.38439 0.0
C635 C 0.29643 0.15447 0.38269 0.0
C636 C 0.29632 0.10818 0.35309 0.0
C637 C 0.28986 0.16588 0.36592 0.0
C638 C 0.2829 0.09325 0.32092 0.0
C639 C 0.27609 0.0128 0.32572 0.0
N640 N 0.28967 0.14264 0.35178 0.0
N641 N 0.28765 0.04153 0.33918 0.0
H642 H 0.29974 0.28858 0.49139 0.0
H643 H 0.09236 0.28783 0.53041 0.0
H644 H 0.19006 0.26876 0.46043 0.0
H645 H 0.20754 0.3242 0.56055 0.0
H646 H 0.13168 0.28975 0.5038 0.0
H647 H 0.27199 0.3122 0.51578 0.0
C648 C 0.27052 0.29033 0.48952 0.0
C649 C 0.24689 0.27595 0.47388 0.0
C650 C 0.14874 0.2981 0.51616 0.0
C651 C 0.21443 0.30209 0.5019 0.0
C652 C 0.12627 0.29708 0.5313 0.0
C653 C 0.14695 0.30616 0.54755 0.0
C654 C 0.19204 0.30748 0.51735 0.0
C655 C 0.19071 0.31739 0.54816 0.0
C656 C 0.25447 0.3035 0.50353 0.0
C657 C 0.20911 0.2789 0.4723 0.0
N658 N 0.21171 0.31724 0.5333 0.0
N659 N 0.19374 0.29089 0.4862 0.0
H660 H 0.81877 0.07938 0.69732 0.0
H661 H 0.01356 0.29889 0.65804 0.0
H662 H 0.88322 0.19875 0.7264 0.0
H663 H 0.94178 0.17995 0.62892 0.0
H664 H 0.9603 0.26681 0.68181 0.0
H665 H 0.85777 0.11877 0.67096 0.0
C666 C 0.84061 0.11412 0.69801 0.0
C667 C 0.84765 0.13598 0.71393 0.0
C668 C 0.95583 0.24804 0.67008 0.0
C669 C 0.89326 0.18135 0.68397 0.0
C670 C 0.98606 0.26651 0.65644 0.0
C671 C 0.98249 0.24193 0.64153 0.0
C672 C 0.92186 0.20474 0.66879 0.0
C673 C 0.94624 0.19997 0.64025 0.0
C674 C 0.863 0.13665 0.683 0.0
C675 C 0.87664 0.1809 0.71427 0.0
N676 N 0.91779 0.1826 0.65375 0.0
N677 N 0.89877 0.20207 0.69956 0.0
H678 H 0.75432 0.93002 0.79524 0.0
H679 H 0.67689 0.88024 0.89491 0.0
H680 H 0.71475 0.00746 0.82482 0.0
H681 H 0.73165 0.81517 0.86615 0.0
H682 H 0.67688 0.91807 0.86801 0.0
H683 H 0.7312 0.87822 0.81931 0.0
C684 C 0.73989 0.93568 0.80668 0.0
C685 C 0.73696 0.97347 0.80807 0.0
C686 C 0.68821 0.89498 0.8675 0.0
C687 C 0.71114 0.91445 0.83597 0.0
C688 C 0.68797 0.87325 0.8828 0.0
C689 C 0.70407 0.84446 0.88262 0.0
C690 C 0.70478 0.88787 0.85194 0.0
C691 C 0.71882 0.83702 0.86675 0.0
C692 C 0.7269 0.90614 0.82049 0.0
C693 C 0.71767 0.97883 0.82318 0.0
N694 N 0.71906 0.85877 0.85208 0.0
N695 N 0.70617 0.95003 0.83668 0.0
H696 H 0.69987 0.71198 0.99315 0.0
H697 H 0.91542 0.73397 0.03458 0.0
H698 H 0.82085 0.76007 0.96532 0.0
H699 H 0.79339 0.6754 0.06202 0.0
H700 H 0.87827 0.73482 0.0078 0.0
H701 H 0.72953 0.68851 0.01701 0.0
C702 C 0.7322 0.7166 0.99184 0.0
C703 C 0.75809 0.73856 0.9773 0.0
C704 C 0.85932 0.72107 0.01957 0.0
C705 C 0.79248 0.71248 1.00465 0.0
C706 C 0.88058 0.7205 0.03481 0.0
C707 C 0.85732 0.70439 0.0504 0.0
C708 C 0.81449 0.7061 0.01999 0.0
C709 C 0.81231 0.68771 0.05016 0.0
C710 C 0.74926 0.70349 0.00553 0.0
C711 C 0.79988 0.74384 0.97637 0.0
N712 N 0.79239 0.68948 0.03524 0.0
N713 N 0.81588 0.73148 0.98992 0.0
H714 H 0.97891 0.69746 0.16226 0.0
H715 H 0.19325 0.90624 0.19778 0.0
H716 H 0.06024 0.81139 0.13141 0.0
H717 H 0.10629 0.79908 0.23051 0.0
H718 H 0.1521 0.86551 0.17203 0.0
H719 H 0.03271 0.72695 0.18586 0.0
C720 C 0.00861 0.72804 0.16025 0.0
C721 C 0.01486 0.75221 0.14492 0.0
C722 C 0.14231 0.85052 0.1848 0.0
C723 C 0.07614 0.78646 0.17192 0.0
C724 C 0.16587 0.87376 0.19945 0.0
C725 C 0.15314 0.85584 0.21619 0.0
C726 C 0.10545 0.80915 0.18693 0.0
C727 C 0.11729 0.81379 0.21776 0.0
C728 C 0.03912 0.74509 0.17379 0.0
C729 C 0.05382 0.79186 0.14309 0.0
N730 N 0.09444 0.79199 0.20333 0.0
N731 N 0.08264 0.80793 0.15648 0.0
H732 H 0.01632 0.71753 0.51757 0.0
H733 H 0.8058 0.71127 0.4787 0.0
H734 H 0.92265 0.73092 0.54876 0.0
H735 H 0.89186 0.68614 0.44776 0.0
H736 H 0.84357 0.70951 0.50518 0.0
H737 H 0.96632 0.69523 0.49277 0.0
C738 C 0.98482 0.71466 0.51938 0.0
C739 C 0.97404 0.72682 0.53524 0.0
C740 C 0.85389 0.70369 0.49266 0.0
C741 C 0.917 0.70218 0.50677 0.0
C742 C 0.83229 0.70469 0.47759 0.0
C743 C 0.84573 0.69864 0.46116 0.0
C744 C 0.88969 0.69726 0.49125 0.0
C745 C 0.88042 0.6906 0.46028 0.0
C746 C 0.95639 0.70226 0.50514 0.0
C747 C 0.93271 0.72249 0.53673 0.0
N748 N 0.90153 0.69058 0.4751 0.0
N749 N 0.90609 0.71125 0.52263 0.0
H750 H 0.0898 0.80458 0.64639 0.0
H751 H 0.29765 0.02003 0.68165 0.0
H752 H 0.19822 0.88971 0.61382 0.0
H753 H 0.18276 0.93986 0.71216 0.0
H754 H 0.26893 0.96528 0.65836 0.0
H755 H 0.12992 0.8465 0.67209 0.0
C756 C 0.12241 0.83173 0.64475 0.0
C757 C 0.14079 0.84383 0.62806 0.0
C758 C 0.25041 0.95935 0.6703 0.0
C759 C 0.18682 0.89239 0.65726 0.0
C760 C 0.267 0.99042 0.68366 0.0
C761 C 0.24235 0.98474 0.69879 0.0
C762 C 0.20901 0.92236 0.67215 0.0
C763 C 0.20265 0.94585 0.70063 0.0
C764 C 0.14531 0.85573 0.65937 0.0
C765 C 0.18308 0.87928 0.62654 0.0
N766 N 0.18705 0.91649 0.68742 0.0
N767 N 0.20453 0.90263 0.64093 0.0
H768 H 0.27751 0.29598 0.851 0.0
H769 H 0.26026 0.08341 0.80882 0.0
H770 H 0.23535 0.17604 0.87897 0.0
H771 H 0.31705 0.20588 0.78171 0.0
H772 H 0.25936 0.11989 0.83579 0.0
H773 H 0.30179 0.2678 0.82687 0.0
C774 C 0.27444 0.26426 0.85229 0.0
C775 C 0.25382 0.23813 0.86694 0.0
C776 C 0.27274 0.1391 0.82406 0.0
C777 C 0.28072 0.20537 0.83929 0.0
C778 C 0.27331 0.11821 0.8087 0.0
C779 C 0.28895 0.14179 0.79315 0.0
C780 C 0.28718 0.18385 0.8238 0.0
C781 C 0.30509 0.18673 0.79354 0.0
C782 C 0.28799 0.24802 0.83845 0.0
C783 C 0.25049 0.19714 0.86783 0.0
N784 N 0.3033 0.20627 0.80857 0.0
N785 N 0.26315 0.18186 0.85413 0.0
H786 H 0.05347 0.2303 0.04836 0.0
H787 H 0.10867 0.31509 0.94966 0.0
H788 H 0.97768 0.27223 0.01898 0.0
H789 H 0.16908 0.25439 0.97764 0.0
H790 H 0.07005 0.31381 0.97651 0.0
H791 H 0.10603 0.25441 0.02458 0.0
C792 C 0.0483 0.24542 0.03702 0.0
C793 C 0.01075 0.24874 0.03559 0.0
C794 C 0.09231 0.30146 0.97687 0.0
C795 C 0.07072 0.27576 0.00802 0.0
C796 C 0.11453 0.30246 0.9616 0.0
C797 C 0.14218 0.28501 0.96155 0.0
C798 C 0.09787 0.28288 0.99217 0.0
C799 C 0.14812 0.26827 0.97721 0.0
C800 C 0.07829 0.25898 0.02338 0.0
C801 C 0.00609 0.26896 0.02063 0.0
N802 N 0.12598 0.26739 0.99184 0.0
N803 N 0.03535 0.28106 0.00728 0.0
H804 H 0.8077 0.0467 0.2163 0.0
H805 H 0.78537 0.10176 0.11674 0.0
H806 H 0.69245 0.97015 0.18562 0.0
H807 H 0.904 0.16454 0.14632 0.0
H808 H 0.74626 0.06204 0.14318 0.0
H809 H 0.8379 0.09922 0.19253 0.0
C810 C 0.78831 0.04132 0.20467 0.0
C811 C 0.74761 0.00359 0.2029 0.0
C812 C 0.7807 0.08502 0.14397 0.0
C813 C 0.7826 0.06358 0.17535 0.0
C814 C 0.80292 0.10784 0.12894 0.0
C815 C 0.84784 0.13658 0.12947 0.0
C816 C 0.80366 0.09101 0.15963 0.0
C817 C 0.86932 0.14279 0.14545 0.0
C818 C 0.80575 0.07131 0.19103 0.0
C819 C 0.72395 -0.00131 0.18755 0.0
N820 N 0.84711 0.12005 0.15985 0.0
N821 N 0.74207 0.02798 0.17425 0.0
H822 H 0.70379 0.69267 0.35463 0.0
H823 H 0.70583 0.89945 0.31415 0.0
H824 H 0.73165 0.8068 0.3843 0.0
H825 H 0.66444 0.78123 0.28541 0.0
H826 H 0.70526 0.8619 0.3411 0.0
H827 H 0.67796 0.71915 0.33056 0.0
C828 C 0.70342 0.72269 0.3563 0.0
C829 C 0.72067 0.74785 0.37145 0.0
C830 C 0.69549 0.8438 0.32899 0.0
C831 C 0.69191 0.7788 0.34377 0.0
C832 C 0.69571 0.86526 0.31365 0.0
C833 C 0.68502 0.84325 0.29766 0.0
C834 C 0.68522 0.80016 0.32827 0.0
C835 C 0.67259 0.79913 0.29757 0.0
C836 C 0.68894 0.73798 0.34248 0.0
C837 C 0.71931 0.78654 0.3728 0.0
N838 N 0.67358 0.77913 0.3126 0.0
N839 N 0.70598 0.80113 0.35906 0.0
H840 H 0.29124 0.09512 0.48096 0.0
H841 H 0.08969 0.93229 0.53932 0.0
H842 H 0.1617 0.0749 0.47543 0.0
H843 H 0.19562 0.90862 0.52965 0.0
H844 H 0.12278 0.9937 0.51945 0.0
H845 H 0.26286 0.03422 0.50185 0.0
C846 C 0.25697 0.07792 0.48409 0.0
C847 C 0.22881 0.09012 0.47643 0.0
C848 C 0.13886 0.97513 0.52167 0.0
C849 C 0.19662 0.02143 0.50033 0.0
C850 C 0.1201 0.9401 0.5331 0.0
C851 C 0.13974 0.91498 0.53609 0.0
C852 C 0.17784 0.98563 0.5132 0.0
C853 C 0.17924 0.92695 0.52762 0.0
C854 C 0.24087 0.04324 0.49594 0.0
C855 C 0.18467 0.06668 0.48093 0.0
N856 N 0.19711 0.96157 0.51652 0.0
N857 N 0.17009 0.03377 0.49264 0.0
H858 H 0.17305 0.30665 0.66231 0.0
H859 H 0.3014 0.17957 0.67885 0.0
H860 H 0.18866 0.22968 0.62258 0.0
H861 H 0.21225 0.18232 0.71632 0.0
H862 H 0.28524 0.22379 0.65883 0.0
H863 H 0.21342 0.28679 0.68283 0.0
C864 C 0.18609 0.28665 0.6578 0.0
C865 C 0.1773 0.26928 0.64088 0.0
C866 C 0.27007 0.2154 0.67161 0.0
C867 C 0.22359 0.24728 0.66397 0.0
C868 C 0.27927 0.19039 0.68299 0.0
C869 C 0.2576 0.17699 0.69907 0.0
C870 C 0.23996 0.22784 0.67664 0.0
C871 C 0.22911 0.1916 0.70389 0.0
C872 C 0.20884 0.27525 0.66948 0.0
C873 C 0.1945 0.24325 0.63563 0.0
N874 N 0.22095 0.2162 0.69267 0.0
N875 N 0.21672 0.23281 0.64718 0.0
H876 H 0.86527 0.16405 0.82857 0.0
H877 H 0.11972 0.29468 0.84721 0.0
H878 H 0.96017 0.17638 0.79048 0.0
H879 H 0.02635 0.20681 0.88469 0.0
H880 H 0.06018 0.27687 0.82657 0.0
H881 H 0.92433 0.20587 0.84941 0.0
C882 C 0.89858 0.17661 0.82447 0.0
C883 C 0.90815 0.16654 0.80796 0.0
C884 C 0.05288 0.26239 0.83949 0.0
C885 C 0.97507 0.21456 0.83135 0.0
C886 C 0.0866 0.27255 0.85123 0.0
C887 C 0.07769 0.25166 0.8675 0.0
C888 C 0.01017 0.23212 0.84433 0.0
C889 C 0.0344 0.22309 0.87213 0.0
C890 C 0.93205 0.20021 0.83633 0.0
C891 C 0.95167 0.18318 0.80322 0.0
N892 N 0.00212 0.21397 0.86055 0.0
N893 N 0.98367 0.20632 0.81492 0.0
H894 H 0.81858 0.12049 0.01516 0.0
H895 H 0.69105 0.86563 0.99667 0.0
H896 H 0.80669 0.02559 0.05319 0.0
H897 H 0.77611 0.96029 0.95893 0.0
H898 H 0.7073 0.92486 0.01728 0.0
H899 H 0.77638 0.06135 0.99439 0.0
C900 C 0.80602 0.08716 0.01927 0.0
C901 C 0.81638 0.07762 0.03573 0.0
C902 C 0.72144 0.9325 1.00431 0.0
C903 C 0.76796 0.01059 0.01241 0.0
C904 C 0.71215 0.89893 0.99258 0.0
C905 C 0.73282 0.90834 0.97626 0.0
C906 C 0.75064 0.97551 0.99941 0.0
C907 C 0.76006 0.95187 0.97153 0.0
C908 C 0.78219 0.05364 0.00746 0.0
C909 C 0.7997 0.03408 0.04048 0.0
N910 N 0.76841 0.98396 0.98311 0.0
N911 N 0.77641 0.00204 0.02882 0.0
H912 H 0.8188 0.78337 0.12699 0.0
H913 H 0.77089 0.80414 0.22272 0.0
H914 H 0.82109 0.69411 0.16456 0.0
H915 H 0.69119 0.81447 0.18277 0.0
H916 H 0.79166 0.76504 0.20212 0.0
H917 H 0.77381 0.79761 0.1471 0.0
C918 C 0.80927 0.76638 0.1394 0.0
C919 C 0.82376 0.73782 0.14426 0.0
C920 C 0.76883 0.77499 0.19801 0.0
C921 C 0.77336 0.75452 0.1673 0.0
C922 C 0.75717 0.79738 0.20969 0.0
C923 C 0.72955 0.81259 0.20432 0.0
C924 C 0.75392 0.76921 0.18072 0.0
C925 C 0.71253 0.80311 0.18736 0.0
C926 C 0.78345 0.77426 0.15077 0.0
C927 C 0.81047 0.71637 0.1604 0.0
N928 N 0.72588 0.78291 0.17595 0.0
N929 N 0.78679 0.72596 0.17159 0.0
H930 H 0.90041 0.81669 0.35902 0.0
H931 H 0.09421 0.79953 0.31666 0.0
H932 H 0.9062 0.69897 0.36432 0.0
H933 H 0.05098 0.88681 0.29886 0.0
H934 H 0.02891 0.76244 0.33512 0.0
H935 H 0.95953 0.84397 0.33818 0.0
C936 C 0.91419 0.79647 0.35576 0.0
C937 C 0.89854 0.75558 0.36349 0.0
C938 C 0.03374 0.78944 0.327 0.0
C939 C 0.96682 0.7869 0.3395 0.0
C940 C 0.07098 0.81069 0.31651 0.0
C941 C 0.07844 0.84673 0.30634 0.0
C942 C 0.00427 0.80473 0.32736 0.0
C943 C 0.04708 0.85958 0.30658 0.0
C944 C 0.94787 0.81202 0.34375 0.0
C945 C 0.91738 0.73067 0.3586 0.0
N946 N 0.01175 0.83889 0.31702 0.0
N947 N 0.95107 0.74697 0.347 0.0
loop_
_geom_bond_atom_site_label_1
_geom_bond_atom_site_label_2
_geom_bond_distance
_geom_bond_site_symmetry_2
_ccdc_geom_bond_type
Co0 O3 1.970 . S
Co0 N17 1.989 . S
Co0 O25 1.967 . S
Co0 O32 1.920 . S
Co1 O4 1.966 . S
Co1 N10 2.022 . S
Co1 N18 1.993 . S
Co1 O26 1.941 . S
C2 O3 1.258 . S
C2 O4 1.263 . S
O3 Co0 1.970 . S
O3 C2 1.258 . S
O4 Co1 1.966 . S
O4 C2 1.263 . S
C5 O6 1.235 . S
C5 O32 1.289 . S
O6 C5 1.235 . S
C7 C9 1.400 . S
C7 N10 1.351 . S
C7 C12 1.501 . S
C8 C9 1.387 . S
C8 N11 1.341 . S
C9 C7 1.400 . S
C9 C8 1.387 . S
N10 Co1 2.022 . S
N10 C7 1.351 . S
N10 N11 1.365 . S
N11 C8 1.341 . S
N11 N10 1.365 . S
N11 H31 0.862 . S
C12 C7 1.501 . S
C12 H13 0.961 . S
C12 H14 0.961 . S
C12 H15 0.960 . S
H13 C12 0.961 . S
H14 C12 0.961 . S
H15 C12 0.960 . S
C16 N17 1.342 . S
C16 C20 1.401 . S
C16 C21 1.499 . S
N17 Co0 1.989 . S
N17 C16 1.342 . S
N17 N18 1.388 . S
N18 Co1 1.993 . S
N18 N17 1.388 . S
N18 C19 1.346 . S
C19 N18 1.346 . S
C19 C20 1.396 . S
C19 C29 1.510 . S
C20 C16 1.401 . S
C20 C19 1.396 . S
C21 C16 1.499 . S
C21 H22 0.959 . S
C21 H23 0.960 . S
C21 H24 0.961 . S
H22 C21 0.959 . S
H23 C21 0.960 . S
H24 C21 0.961 . S
O25 Co0 1.967 . S
O25 C33 1.258 . S
O26 Co1 1.941 . S
O26 C33 1.266 . S
H27 C29 0.959 . S
H28 C29 0.961 . S
C29 C19 1.510 . S
C29 H27 0.959 . S
C29 H28 0.961 . S
C29 H30 0.960 . S
H30 C29 0.960 . S
H31 N11 0.862 . S
O32 Co0 1.920 . S
O32 C5 1.289 . S
C33 O25 1.258 . S
C33 O26 1.266 . S
Co34 O37 1.970 . S
Co34 N51 1.989 . S
Co34 O59 1.967 . S
Co34 O66 1.920 . S
Co35 O38 1.966 . S
Co35 N44 2.022 . S
Co35 N52 1.993 . S
Co35 O60 1.941 . S
C36 O37 1.258 . S
C36 O38 1.263 . S
O37 Co34 1.970 . S
O37 C36 1.258 . S
O38 Co35 1.966 . S
O38 C36 1.263 . S
C39 O40 1.235 . S
C39 O66 1.289 . S
O40 C39 1.235 . S
C41 C43 1.400 . S
C41 N44 1.351 . S
C41 C46 1.501 . S
C42 C43 1.387 . S
C42 N45 1.341 . S
C43 C41 1.400 . S
C43 C42 1.387 . S
N44 Co35 2.022 . S
N44 C41 1.351 . S
N44 N45 1.365 . S
N45 C42 1.341 . S
N45 N44 1.365 . S
N45 H65 0.862 . S
C46 C41 1.501 . S
C46 H47 0.961 . S
C46 H48 0.961 . S
C46 H49 0.960 . S
H47 C46 0.961 . S
H48 C46 0.961 . S
H49 C46 0.960 . S
C50 N51 1.342 . S
C50 C54 1.401 . S
C50 C55 1.499 . S
N51 Co34 1.989 . S
N51 C50 1.342 . S
N51 N52 1.388 . S
N52 Co35 1.993 . S
N52 N51 1.388 . S
N52 C53 1.346 . S
C53 N52 1.346 . S
C53 C54 1.396 . S
C53 C63 1.510 . S
C54 C50 1.401 . S
C54 C53 1.396 . S
C55 C50 1.499 . S
C55 H56 0.959 . S
C55 H57 0.960 . S
C55 H58 0.961 . S
H56 C55 0.959 . S
H57 C55 0.960 . S
H58 C55 0.961 . S
O59 Co34 1.967 . S
O59 C67 1.258 . S
O60 Co35 1.941 . S
O60 C67 1.266 . S
H61 C63 0.959 . S
H62 C63 0.961 . S
C63 C53 1.510 . S
C63 H61 0.959 . S
C63 H62 0.961 . S
C63 H64 0.960 . S
H64 C63 0.960 . S
H65 N45 0.862 . S
O66 Co34 1.920 . S
O66 C39 1.289 . S
C67 O59 1.258 . S
C67 O60 1.266 . S
Co68 O71 1.970 . S
Co68 N85 1.989 . S
Co68 O93 1.967 . S
Co68 O100 1.920 . S
Co69 O72 1.966 . S
Co69 N78 2.022 . S
Co69 N86 1.993 . S
Co69 O94 1.941 . S
C70 O71 1.258 . S
C70 O72 1.263 . S
O71 Co68 1.970 . S
O71 C70 1.258 . S
O72 Co69 1.966 . S
O72 C70 1.263 . S
C73 O74 1.235 . S
C73 O100 1.289 . S
O74 C73 1.235 . S
C75 C77 1.400 . S
C75 N78 1.351 . S
C75 C80 1.501 . S
C76 C77 1.387 . S
C76 N79 1.341 . S
C77 C75 1.400 . S
C77 C76 1.387 . S
N78 Co69 2.022 . S
N78 C75 1.351 . S
N78 N79 1.365 . S
N79 C76 1.341 . S
N79 N78 1.365 . S
N79 H99 0.862 . S
C80 C75 1.501 . S
C80 H81 0.961 . S
C80 H82 0.961 . S
C80 H83 0.960 . S
H81 C80 0.961 . S
H82 C80 0.961 . S
H83 C80 0.960 . S
C84 N85 1.342 . S
C84 C88 1.401 . S
C84 C89 1.499 . S
N85 Co68 1.989 . S
N85 C84 1.342 . S
N85 N86 1.388 . S
N86 Co69 1.993 . S
N86 N85 1.388 . S
N86 C87 1.346 . S
C87 N86 1.346 . S
C87 C88 1.396 . S
C87 C97 1.510 . S
C88 C84 1.401 . S
C88 C87 1.396 . S
C89 C84 1.499 . S
C89 H90 0.959 . S
C89 H91 0.960 . S
C89 H92 0.961 . S
H90 C89 0.959 . S
H91 C89 0.960 . S
H92 C89 0.961 . S
O93 Co68 1.967 . S
O93 C101 1.258 . S
O94 Co69 1.941 . S
O94 C101 1.266 . S
H95 C97 0.959 . S
H96 C97 0.961 . S
C97 C87 1.510 . S
C97 H95 0.959 . S
C97 H96 0.961 . S
C97 H98 0.960 . S
H98 C97 0.960 . S
H99 N79 0.862 . S
O100 Co68 1.920 . S
O100 C73 1.289 . S
C101 O93 1.258 . S
C101 O94 1.266 . S
Co102 O105 1.970 . S
Co102 N119 1.989 . S
Co102 O127 1.967 . S
Co102 O134 1.920 . S
Co103 O106 1.966 . S
Co103 N112 2.022 . S
Co103 N120 1.993 . S
Co103 O128 1.941 . S
C104 O105 1.258 . S
C104 O106 1.263 . S
O105 Co102 1.970 . S
O105 C104 1.258 . S
O106 Co103 1.966 . S
O106 C104 1.263 . S
C107 O108 1.235 . S
C107 O134 1.289 . S
O108 C107 1.235 . S
C109 C111 1.400 . S
C109 N112 1.351 . S
C109 C114 1.501 . S
C110 C111 1.387 . S
C110 N113 1.341 . S
C111 C109 1.400 . S
C111 C110 1.387 . S
N112 Co103 2.022 . S
N112 C109 1.351 . S
N112 N113 1.365 . S
N113 C110 1.341 . S
N113 N112 1.365 . S
N113 H133 0.862 . S
C114 C109 1.501 . S
C114 H115 0.961 . S
C114 H116 0.961 . S
C114 H117 0.960 . S
H115 C114 0.961 . S
H116 C114 0.961 . S
H117 C114 0.960 . S
C118 N119 1.342 . S
C118 C122 1.401 . S
C118 C123 1.499 . S
N119 Co102 1.989 . S
N119 C118 1.342 . S
N119 N120 1.388 . S
N120 Co103 1.993 . S
N120 N119 1.388 . S
N120 C121 1.346 . S
C121 N120 1.346 . S
C121 C122 1.396 . S
C121 C131 1.510 . S
C122 C118 1.401 . S
C122 C121 1.396 . S
C123 C118 1.499 . S
C123 H124 0.959 . S
C123 H125 0.960 . S
C123 H126 0.961 . S
H124 C123 0.959 . S
H125 C123 0.960 . S
H126 C123 0.961 . S
O127 Co102 1.967 . S
O127 C135 1.258 . S
O128 Co103 1.941 . S
O128 C135 1.266 . S
H129 C131 0.959 . S
H130 C131 0.961 . S
C131 C121 1.510 . S
C131 H129 0.959 . S
C131 H130 0.961 . S
C131 H132 0.960 . S
H132 C131 0.960 . S
H133 N113 0.862 . S
O134 Co102 1.920 . S
O134 C107 1.289 . S
C135 O127 1.258 . S
C135 O128 1.266 . S
Co136 O139 1.970 . S
Co136 N153 1.989 . S
Co136 O161 1.967 . S
Co136 O168 1.920 . S
Co137 O140 1.966 . S
Co137 N146 2.022 . S
Co137 N154 1.993 . S
Co137 O162 1.941 . S
C138 O139 1.258 . S
C138 O140 1.263 . S
O139 Co136 1.970 . S
O139 C138 1.258 . S
O140 Co137 1.966 . S
O140 C138 1.263 . S
C141 O142 1.235 . S
C141 O168 1.289 . S
O142 C141 1.235 . S
C143 C145 1.400 . S
C143 N146 1.351 . S
C143 C148 1.501 . S
C144 C145 1.387 . S
C144 N147 1.341 . S
C145 C143 1.400 . S
C145 C144 1.387 . S
N146 Co137 2.022 . S
N146 C143 1.351 . S
N146 N147 1.365 . S
N147 C144 1.341 . S
N147 N146 1.365 . S
N147 H167 0.862 . S
C148 C143 1.501 . S
C148 H149 0.961 . S
C148 H150 0.961 . S
C148 H151 0.960 . S
H149 C148 0.961 . S
H150 C148 0.961 . S
H151 C148 0.960 . S
C152 N153 1.342 . S
C152 C156 1.401 . S
C152 C157 1.499 . S
N153 Co136 1.989 . S
N153 C152 1.342 . S
N153 N154 1.388 . S
N154 Co137 1.993 . S
N154 N153 1.388 . S
N154 C155 1.346 . S
C155 N154 1.346 . S
C155 C156 1.396 . S
C155 C165 1.510 . S
C156 C152 1.401 . S
C156 C155 1.396 . S
C157 C152 1.499 . S
C157 H158 0.959 . S
C157 H159 0.960 . S
C157 H160 0.961 . S
H158 C157 0.959 . S
H159 C157 0.960 . S
H160 C157 0.961 . S
O161 Co136 1.967 . S
O161 C169 1.258 . S
O162 Co137 1.941 . S
O162 C169 1.266 . S
H163 C165 0.959 . S
H164 C165 0.961 . S
C165 C155 1.510 . S
C165 H163 0.959 . S
C165 H164 0.961 . S
C165 H166 0.960 . S
H166 C165 0.960 . S
H167 N147 0.862 . S
O168 Co136 1.920 . S
O168 C141 1.289 . S
C169 O161 1.258 . S
C169 O162 1.266 . S
Co170 O173 1.970 . S
Co170 N187 1.989 . S
Co170 O195 1.967 . S
Co170 O202 1.920 . S
Co171 O174 1.966 . S
Co171 N180 2.022 . S
Co171 N188 1.993 . S
Co171 O196 1.941 . S
C172 O173 1.258 . S
C172 O174 1.263 . S
O173 Co170 1.970 . S
O173 C172 1.258 . S
O174 Co171 1.966 . S
O174 C172 1.263 . S
C175 O176 1.235 . S
C175 O202 1.289 . S
O176 C175 1.235 . S
C177 C179 1.400 . S
C177 N180 1.351 . S
C177 C182 1.501 . S
C178 C179 1.387 . S
C178 N181 1.341 . S
C179 C177 1.400 . S
C179 C178 1.387 . S
N180 Co171 2.022 . S
N180 C177 1.351 . S
N180 N181 1.365 . S
N181 C178 1.341 . S
N181 N180 1.365 . S
N181 H201 0.862 . S
C182 C177 1.501 . S
C182 H183 0.961 . S
C182 H184 0.961 . S
C182 H185 0.960 . S
H183 C182 0.961 . S
H184 C182 0.961 . S
H185 C182 0.960 . S
C186 N187 1.342 . S
C186 C190 1.401 . S
C186 C191 1.499 . S
N187 Co170 1.989 . S
N187 C186 1.342 . S
N187 N188 1.388 . S
N188 Co171 1.993 . S
N188 N187 1.388 . S
N188 C189 1.346 . S
C189 N188 1.346 . S
C189 C190 1.396 . S
C189 C199 1.510 . S
C190 C186 1.401 . S
C190 C189 1.396 . S
C191 C186 1.499 . S
C191 H192 0.959 . S
C191 H193 0.960 . S
C191 H194 0.961 . S
H192 C191 0.959 . S
H193 C191 0.960 . S
H194 C191 0.961 . S
O195 Co170 1.967 . S
O195 C203 1.258 . S
O196 Co171 1.941 . S
O196 C203 1.266 . S
H197 C199 0.959 . S
H198 C199 0.961 . S
C199 C189 1.510 . S
C199 H197 0.959 . S
C199 H198 0.961 . S
C199 H200 0.960 . S
H200 C199 0.960 . S
H201 N181 0.862 . S
O202 Co170 1.920 . S
O202 C175 1.289 . S
C203 O195 1.258 . S
C203 O196 1.266 . S
Co204 O207 1.970 . S
Co204 N221 1.989 . S
Co204 O229 1.967 . S
Co204 O236 1.920 . S
Co205 O208 1.966 . S
Co205 N214 2.022 . S
Co205 N222 1.993 . S
Co205 O230 1.941 . S
C206 O207 1.258 . S
C206 O208 1.263 . S
O207 Co204 1.970 . S
O207 C206 1.258 . S
O208 Co205 1.966 . S
O208 C206 1.263 . S
C209 O210 1.235 . S
C209 O236 1.289 . S
O210 C209 1.235 . S
C211 C213 1.400 . S
C211 N214 1.351 . S
C211 C216 1.501 . S
C212 C213 1.387 . S
C212 N215 1.341 . S
C213 C211 1.400 . S
C213 C212 1.387 . S
N214 Co205 2.022 . S
N214 C211 1.351 . S
N214 N215 1.365 . S
N215 C212 1.341 . S
N215 N214 1.365 . S
N215 H235 0.862 . S
C216 C211 1.501 . S
C216 H217 0.961 . S
C216 H218 0.961 . S
C216 H219 0.960 . S
H217 C216 0.961 . S
H218 C216 0.961 . S
H219 C216 0.960 . S
C220 N221 1.342 . S
C220 C224 1.401 . S
C220 C225 1.499 . S
N221 Co204 1.989 . S
N221 C220 1.342 . S
N221 N222 1.388 . S
N222 Co205 1.993 . S
N222 N221 1.388 . S
N222 C223 1.346 . S
C223 N222 1.346 . S
C223 C224 1.396 . S
C223 C233 1.510 . S
C224 C220 1.401 . S
C224 C223 1.396 . S
C225 C220 1.499 . S
C225 H226 0.959 . S
C225 H227 0.960 . S
C225 H228 0.961 . S
H226 C225 0.959 . S
H227 C225 0.960 . S
H228 C225 0.961 . S
O229 Co204 1.967 . S
O229 C237 1.258 . S
O230 Co205 1.941 . S
O230 C237 1.266 . S
H231 C233 0.959 . S
H232 C233 0.961 . S
C233 C223 1.510 . S
C233 H231 0.959 . S
C233 H232 0.961 . S
C233 H234 0.960 . S
H234 C233 0.960 . S
H235 N215 0.862 . S
O236 Co204 1.920 . S
O236 C209 1.289 . S
C237 O229 1.258 . S
C237 O230 1.266 . S
Co238 O241 1.970 . S
Co238 N255 1.989 . S
Co238 O263 1.967 . S
Co238 O270 1.920 . S
Co239 O242 1.966 . S
Co239 N248 2.022 . S
Co239 N256 1.993 . S
Co239 O264 1.941 . S
C240 O241 1.258 . S
C240 O242 1.263 . S
O241 Co238 1.970 . S
O241 C240 1.258 . S
O242 Co239 1.966 . S
O242 C240 1.263 . S
C243 O244 1.235 . S
C243 O270 1.289 . S
O244 C243 1.235 . S
C245 C247 1.400 . S
C245 N248 1.351 . S
C245 C250 1.501 . S
C246 C247 1.387 . S
C246 N249 1.341 . S
C247 C245 1.400 . S
C247 C246 1.387 . S
N248 Co239 2.022 . S
N248 C245 1.351 . S
N248 N249 1.365 . S
N249 C246 1.341 . S
N249 N248 1.365 . S
N249 H269 0.862 . S
C250 C245 1.501 . S
C250 H251 0.961 . S
C250 H252 0.961 . S
C250 H253 0.960 . S
H251 C250 0.961 . S
H252 C250 0.961 . S
H253 C250 0.960 . S
C254 N255 1.342 . S
C254 C258 1.401 . S
C254 C259 1.499 . S
N255 Co238 1.989 . S
N255 C254 1.342 . S
N255 N256 1.388 . S
N256 Co239 1.993 . S
N256 N255 1.388 . S
N256 C257 1.346 . S
C257 N256 1.346 . S
C257 C258 1.396 . S
C257 C267 1.510 . S
C258 C254 1.401 . S
C258 C257 1.396 . S
C259 C254 1.499 . S
C259 H260 0.959 . S
C259 H261 0.960 . S
C259 H262 0.961 . S
H260 C259 0.959 . S
H261 C259 0.960 . S
H262 C259 0.961 . S
O263 Co238 1.967 . S
O263 C271 1.258 . S
O264 Co239 1.941 . S
O264 C271 1.266 . S
H265 C267 0.959 . S
H266 C267 0.961 . S
C267 C257 1.510 . S
C267 H265 0.959 . S
C267 H266 0.961 . S
C267 H268 0.960 . S
H268 C267 0.960 . S
H269 N249 0.862 . S
O270 Co238 1.920 . S
O270 C243 1.289 . S
C271 O263 1.258 . S
C271 O264 1.266 . S
Co272 O275 1.970 . S
Co272 N289 1.989 . S
Co272 O297 1.967 . S
Co272 O304 1.920 . S
Co273 O276 1.966 . S
Co273 N282 2.022 . S
Co273 N290 1.993 . S
Co273 O298 1.941 . S
C274 O275 1.258 . S
C274 O276 1.263 . S
O275 Co272 1.970 . S
O275 C274 1.258 . S
O276 Co273 1.966 . S
O276 C274 1.263 . S
C277 O278 1.235 . S
C277 O304 1.289 . S
O278 C277 1.235 . S
C279 C281 1.400 . S
C279 N282 1.351 . S
C279 C284 1.501 . S
C280 C281 1.387 . S
C280 N283 1.341 . S
C281 C279 1.400 . S
C281 C280 1.387 . S
N282 Co273 2.022 . S
N282 C279 1.351 . S
N282 N283 1.365 . S
N283 C280 1.341 . S
N283 N282 1.365 . S
N283 H303 0.862 . S
C284 C279 1.501 . S
C284 H285 0.961 . S
C284 H286 0.961 . S
C284 H287 0.960 . S
H285 C284 0.961 . S
H286 C284 0.961 . S
H287 C284 0.960 . S
C288 N289 1.342 . S
C288 C292 1.401 . S
C288 C293 1.499 . S
N289 Co272 1.989 . S
N289 C288 1.342 . S
N289 N290 1.388 . S
N290 Co273 1.993 . S
N290 N289 1.388 . S
N290 C291 1.346 . S
C291 N290 1.346 . S
C291 C292 1.396 . S
C291 C301 1.510 . S
C292 C288 1.401 . S
C292 C291 1.396 . S
C293 C288 1.499 . S
C293 H294 0.959 . S
C293 H295 0.960 . S
C293 H296 0.961 . S
H294 C293 0.959 . S
H295 C293 0.960 . S
H296 C293 0.961 . S
O297 Co272 1.967 . S
O297 C305 1.258 . S
O298 Co273 1.941 . S
O298 C305 1.266 . S
H299 C301 0.959 . S
H300 C301 0.961 . S
C301 C291 1.510 . S
C301 H299 0.959 . S
C301 H300 0.961 . S
C301 H302 0.960 . S
H302 C301 0.960 . S
H303 N283 0.862 . S
O304 Co272 1.920 . S
O304 C277 1.289 . S
C305 O297 1.258 . S
C305 O298 1.266 . S
Co306 O309 1.970 . S
Co306 N323 1.989 . S
Co306 O331 1.967 . S
Co306 O338 1.920 . S
Co307 O310 1.966 . S
Co307 N316 2.022 . S
Co307 N324 1.993 . S
Co307 O332 1.941 . S
C308 O309 1.258 . S
C308 O310 1.263 . S
O309 Co306 1.970 . S
O309 C308 1.258 . S
O310 Co307 1.966 . S
O310 C308 1.263 . S
C311 O312 1.235 . S
C311 O338 1.289 . S
O312 C311 1.235 . S
C313 C315 1.400 . S
C313 N316 1.351 . S
C313 C318 1.501 . S
C314 C315 1.387 . S
C314 N317 1.341 . S
C315 C313 1.400 . S
C315 C314 1.387 . S
N316 Co307 2.022 . S
N316 C313 1.351 . S
N316 N317 1.365 . S
N317 C314 1.341 . S
N317 N316 1.365 . S
N317 H337 0.862 . S
C318 C313 1.501 . S
C318 H319 0.961 . S
C318 H320 0.961 . S
C318 H321 0.960 . S
H319 C318 0.961 . S
H320 C318 0.961 . S
H321 C318 0.960 . S
C322 N323 1.342 . S
C322 C326 1.401 . S
C322 C327 1.499 . S
N323 Co306 1.989 . S
N323 C322 1.342 . S
N323 N324 1.388 . S
N324 Co307 1.993 . S
N324 N323 1.388 . S
N324 C325 1.346 . S
C325 N324 1.346 . S
C325 C326 1.396 . S
C325 C335 1.510 . S
C326 C322 1.401 . S
C326 C325 1.396 . S
C327 C322 1.499 . S
C327 H328 0.959 . S
C327 H329 0.960 . S
C327 H330 0.961 . S
H328 C327 0.959 . S
H329 C327 0.960 . S
H330 C327 0.961 . S
O331 Co306 1.967 . S
O331 C339 1.258 . S
O332 Co307 1.941 . S
O332 C339 1.266 . S
H333 C335 0.959 . S
H334 C335 0.961 . S
C335 C325 1.510 . S
C335 H333 0.959 . S
C335 H334 0.961 . S
C335 H336 0.960 . S
H336 C335 0.960 . S
H337 N317 0.862 . S
O338 Co306 1.920 . S
O338 C311 1.289 . S
C339 O331 1.258 . S
C339 O332 1.266 . S
Co340 O343 1.970 . S
Co340 N357 1.989 . S
Co340 O365 1.967 . S
Co340 O372 1.920 . S
Co341 O344 1.966 . S
Co341 N350 2.022 . S
Co341 N358 1.993 . S
Co341 O366 1.941 . S
C342 O343 1.258 . S
C342 O344 1.263 . S
O343 Co340 1.970 . S
O343 C342 1.258 . S
O344 Co341 1.966 . S
O344 C342 1.263 . S
C345 O346 1.235 . S
C345 O372 1.289 . S
O346 C345 1.235 . S
C347 C349 1.400 . S
C347 N350 1.351 . S
C347 C352 1.501 . S
C348 C349 1.387 . S
C348 N351 1.341 . S
C349 C347 1.400 . S
C349 C348 1.387 . S
N350 Co341 2.022 . S
N350 C347 1.351 . S
N350 N351 1.365 . S
N351 C348 1.341 . S
N351 N350 1.365 . S
N351 H371 0.862 . S
C352 C347 1.501 . S
C352 H353 0.961 . S
C352 H354 0.961 . S
C352 H355 0.960 . S
H353 C352 0.961 . S
H354 C352 0.961 . S
H355 C352 0.960 . S
C356 N357 1.342 . S
C356 C360 1.401 . S
C356 C361 1.499 . S
N357 Co340 1.989 . S
N357 C356 1.342 . S
N357 N358 1.388 . S
N358 Co341 1.993 . S
N358 N357 1.388 . S
N358 C359 1.346 . S
C359 N358 1.346 . S
C359 C360 1.396 . S
C359 C369 1.510 . S
C360 C356 1.401 . S
C360 C359 1.396 . S
C361 C356 1.499 . S
C361 H362 0.959 . S
C361 H363 0.960 . S
C361 H364 0.961 . S
H362 C361 0.959 . S
H363 C361 0.960 . S
H364 C361 0.961 . S
O365 Co340 1.967 . S
O365 C373 1.258 . S
O366 Co341 1.941 . S
O366 C373 1.266 . S
H367 C369 0.959 . S
H368 C369 0.961 . S
C369 C359 1.510 . S
C369 H367 0.959 . S
C369 H368 0.961 . S
C369 H370 0.960 . S
H370 C369 0.960 . S
H371 N351 0.862 . S
O372 Co340 1.920 . S
O372 C345 1.289 . S
C373 O365 1.258 . S
C373 O366 1.266 . S
Co374 O377 1.970 . S
Co374 N391 1.989 . S
Co374 O399 1.967 . S
Co374 O406 1.920 . S
Co375 O378 1.966 . S
Co375 N384 2.022 . S
Co375 N392 1.993 . S
Co375 O400 1.941 . S
C376 O377 1.258 . S
C376 O378 1.263 . S
O377 Co374 1.970 . S
O377 C376 1.258 . S
O378 Co375 1.966 . S
O378 C376 1.263 . S
C379 O380 1.235 . S
C379 O406 1.289 . S
O380 C379 1.235 . S
C381 C383 1.400 . S
C381 N384 1.351 . S
C381 C386 1.501 . S
C382 C383 1.387 . S
C382 N385 1.341 . S
C383 C381 1.400 . S
C383 C382 1.387 . S
N384 Co375 2.022 . S
N384 C381 1.351 . S
N384 N385 1.365 . S
N385 C382 1.341 . S
N385 N384 1.365 . S
N385 H405 0.862 . S
C386 C381 1.501 . S
C386 H387 0.961 . S
C386 H388 0.961 . S
C386 H389 0.960 . S
H387 C386 0.961 . S
H388 C386 0.961 . S
H389 C386 0.960 . S
C390 N391 1.342 . S
C390 C394 1.401 . S
C390 C395 1.499 . S
N391 Co374 1.989 . S
N391 C390 1.342 . S
N391 N392 1.388 . S
N392 Co375 1.993 . S
N392 N391 1.388 . S
N392 C393 1.346 . S
C393 N392 1.346 . S
C393 C394 1.396 . S
C393 C403 1.510 . S
C394 C390 1.401 . S
C394 C393 1.396 . S
C395 C390 1.499 . S
C395 H396 0.959 . S
C395 H397 0.960 . S
C395 H398 0.961 . S
H396 C395 0.959 . S
H397 C395 0.960 . S
H398 C395 0.961 . S
O399 Co374 1.967 . S
O399 C407 1.258 . S
O400 Co375 1.941 . S
O400 C407 1.266 . S
H401 C403 0.959 . S
H402 C403 0.961 . S
C403 C393 1.510 . S
C403 H401 0.959 . S
C403 H402 0.961 . S
C403 H404 0.960 . S
H404 C403 0.960 . S
H405 N385 0.862 . S
O406 Co374 1.920 . S
O406 C379 1.289 . S
C407 O399 1.258 . S
C407 O400 1.266 . S
H408 C414 0.930 . S
H409 C418 0.930 . S
H410 C423 0.929 . S
H411 C421 0.929 . S
H412 C416 0.929 . S
H413 C422 0.929 . S
C414 H408 0.930 . S
C414 C415 1.367 . S
C414 C422 1.378 1_545 S
C415 C414 1.367 . S
C415 C423 1.433 . S
C416 H412 0.929 . S
C416 C418 1.378 . S
C416 C420 1.350 1_655 S
C417 C420 1.463 . S
C417 C422 1.350 . S
C417 N425 1.427 1_565 S
C418 H409 0.930 . S
C418 C416 1.378 . S
C418 C419 1.367 . S
C419 C418 1.367 . S
C419 C421 1.433 . S
C420 C416 1.350 1_455 S
C420 C417 1.463 . S
C420 N424 1.427 . S
C421 H411 0.929 . S
C421 C419 1.433 . S
C421 N424 1.384 1_655 S
C422 H413 0.929 . S
C422 C414 1.378 1_565 S
C422 C417 1.350 . S
C423 H410 0.929 . S
C423 C415 1.433 . S
C423 N425 1.384 . S
N424 C420 1.427 . S
N424 C421 1.384 1_455 S
N425 C417 1.427 1_545 S
N425 C423 1.384 . S
H426 C432 0.930 . S
H427 C436 0.930 . S
H428 C441 0.929 . S
H429 C439 0.929 . S
H430 C434 0.929 . S
H431 C440 0.929 1_545 S
C432 H426 0.930 . S
C432 C433 1.367 . S
C432 C440 1.378 . S
C433 C432 1.367 . S
C433 C441 1.433 . S
C434 H430 0.929 . S
C434 C436 1.378 . S
C434 C438 1.350 . S
C435 C438 1.463 . S
C435 C440 1.350 1_545 S
C435 N443 1.427 1_545 S
C436 H427 0.930 . S
C436 C434 1.378 . S
C436 C437 1.367 . S
C437 C436 1.367 . S
C437 C439 1.433 . S
C438 C434 1.350 . S
C438 C435 1.463 . S
C438 N442 1.427 . S
C439 H429 0.929 . S
C439 C437 1.433 . S
C439 N442 1.384 . S
C440 H431 0.929 1_565 S
C440 C432 1.378 . S
C440 C435 1.350 1_565 S
C441 H428 0.929 . S
C441 C433 1.433 . S
C441 N443 1.384 . S
N442 C438 1.427 . S
N442 C439 1.384 . S
N443 C435 1.427 1_565 S
N443 C441 1.384 . S
H444 C450 0.930 . S
H445 C454 0.930 . S
H446 C459 0.929 . S
H447 C457 0.929 . S
H448 C452 0.929 . S
H449 C458 0.929 . S
C450 H444 0.930 . S
C450 C451 1.367 . S
C450 C458 1.378 1_655 S
C451 C450 1.367 . S
C451 C459 1.433 . S
C452 H448 0.929 . S
C452 C454 1.378 . S
C452 C456 1.350 . S
C453 C456 1.463 . S
C453 C458 1.350 . S
C453 N461 1.427 1_455 S
C454 H445 0.930 . S
C454 C452 1.378 . S
C454 C455 1.367 . S
C455 C454 1.367 . S
C455 C457 1.433 . S
C456 C452 1.350 . S
C456 C453 1.463 . S
C456 N460 1.427 . S
C457 H447 0.929 . S
C457 C455 1.433 . S
C457 N460 1.384 . S
C458 H449 0.929 . S
C458 C450 1.378 1_455 S
C458 C453 1.350 . S
C459 H446 0.929 . S
C459 C451 1.433 . S
C459 N461 1.384 . S
N460 C456 1.427 . S
N460 C457 1.384 . S
N461 C453 1.427 1_655 S
N461 C459 1.384 . S
H462 C468 0.930 . S
H463 C472 0.930 . S
H464 C477 0.929 . S
H465 C475 0.929 . S
H466 C470 0.929 . S
H467 C476 0.929 . S
C468 H462 0.930 . S
C468 C469 1.367 . S
C468 C476 1.378 . S
C469 C468 1.367 . S
C469 C477 1.433 . S
C470 H466 0.929 . S
C470 C472 1.378 1_655 S
C470 C474 1.350 . S
C471 C474 1.463 . S
C471 C476 1.350 1_545 S
C471 N479 1.427 . S
C472 H463 0.930 . S
C472 C470 1.378 1_455 S
C472 C473 1.367 . S
C473 C472 1.367 . S
C473 C475 1.433 . S
C474 C470 1.350 . S
C474 C471 1.463 . S
C474 N478 1.427 1_655 S
C475 H465 0.929 . S
C475 C473 1.433 . S
C475 N478 1.384 . S
C476 H467 0.929 . S
C476 C468 1.378 . S
C476 C471 1.350 1_565 S
C477 H464 0.929 . S
C477 C469 1.433 . S
C477 N479 1.384 1_565 S
N478 C474 1.427 1_455 S
N478 C475 1.384 . S
N479 C471 1.427 . S
N479 C477 1.384 1_545 S
H480 C486 0.930 . S
H481 C490 0.930 . S
H482 C495 0.929 . S
H483 C493 0.929 . S
H484 C488 0.929 . S
H485 C494 0.929 . S
C486 H480 0.930 . S
C486 C487 1.367 . S
C486 C494 1.378 . S
C487 C486 1.367 . S
C487 C495 1.433 . S
C488 H484 0.929 . S
C488 C490 1.378 1_565 S
C488 C492 1.350 . S
C489 C492 1.463 . S
C489 C494 1.350 . S
C489 N497 1.427 . S
C490 H481 0.930 . S
C490 C488 1.378 1_545 S
C490 C491 1.367 . S
C491 C490 1.367 . S
C491 C493 1.433 . S
C492 C488 1.350 . S
C492 C489 1.463 . S
C492 N496 1.427 1_565 S
C493 H483 0.929 . S
C493 C491 1.433 . S
C493 N496 1.384 . S
C494 H485 0.929 . S
C494 C486 1.378 . S
C494 C489 1.350 . S
C495 H482 0.929 . S
C495 C487 1.433 . S
C495 N497 1.384 . S
N496 C492 1.427 1_545 S
N496 C493 1.384 . S
N497 C489 1.427 . S
N497 C495 1.384 . S
H498 C504 0.930 . S
H499 C508 0.930 . S
H500 C513 0.929 . S
H501 C511 0.929 . S
H502 C506 0.929 . S
H503 C512 0.929 . S
C504 H498 0.930 . S
C504 C505 1.367 . S
C504 C512 1.378 1_455 S
C505 C504 1.367 . S
C505 C513 1.433 . S
C506 H502 0.929 . S
C506 C508 1.378 . S
C506 C510 1.350 . S
C507 C510 1.463 . S
C507 C512 1.350 . S
C507 N515 1.427 1_655 S
C508 H499 0.930 . S
C508 C506 1.378 . S
C508 C509 1.367 . S
C509 C508 1.367 . S
C509 C511 1.433 . S
C510 C506 1.350 . S
C510 C507 1.463 . S
C510 N514 1.427 . S
C511 H501 0.929 . S
C511 C509 1.433 . S
C511 N514 1.384 . S
C512 H503 0.929 . S
C512 C504 1.378 1_655 S
C512 C507 1.350 . S
C513 H500 0.929 . S
C513 C505 1.433 . S
C513 N515 1.384 . S
N514 C510 1.427 . S
N514 C511 1.384 . S
N515 C507 1.427 1_455 S
N515 C513 1.384 . S
H516 C522 0.930 . S
H517 C526 0.930 . S
H518 C531 0.929 . S
H519 C529 0.929 . S
H520 C524 0.929 . S
H521 C530 0.929 . S
C522 H516 0.930 . S
C522 C523 1.367 . S
C522 C530 1.378 . S
C523 C522 1.367 . S
C523 C531 1.433 . S
C524 H520 0.929 . S
C524 C526 1.378 . S
C524 C528 1.350 . S
C525 C528 1.463 . S
C525 C530 1.350 . S
C525 N533 1.427 . S
C526 H517 0.930 . S
C526 C524 1.378 . S
C526 C527 1.367 . S
C527 C526 1.367 . S
C527 C529 1.433 . S
C528 C524 1.350 . S
C528 C525 1.463 . S
C528 N532 1.427 . S
C529 H519 0.929 . S
C529 C527 1.433 . S
C529 N532 1.384 . S
C530 H521 0.929 . S
C530 C522 1.378 . S
C530 C525 1.350 . S
C531 H518 0.929 . S
C531 C523 1.433 . S
C531 N533 1.384 . S
N532 C528 1.427 . S
N532 C529 1.384 . S
N533 C525 1.427 . S
N533 C531 1.384 . S
H534 C540 0.930 . S
H535 C544 0.930 . S
H536 C549 0.929 . S
H537 C547 0.929 . S
H538 C542 0.929 . S
H539 C548 0.929 . S
C540 H534 0.930 . S
C540 C541 1.367 . S
C540 C548 1.378 . S
C541 C540 1.367 . S
C541 C549 1.433 . S
C542 H538 0.929 . S
C542 C544 1.378 . S
C542 C546 1.350 . S
C543 C546 1.463 . S
C543 C548 1.350 . S
C543 N551 1.427 . S
C544 H535 0.930 . S
C544 C542 1.378 . S
C544 C545 1.367 . S
C545 C544 1.367 . S
C545 C547 1.433 . S
C546 C542 1.350 . S
C546 C543 1.463 . S
C546 N550 1.427 . S
C547 H537 0.929 . S
C547 C545 1.433 . S
C547 N550 1.384 . S
C548 H539 0.929 . S
C548 C540 1.378 . S
C548 C543 1.350 . S
C549 H536 0.929 . S
C549 C541 1.433 . S
C549 N551 1.384 . S
N550 C546 1.427 . S
N550 C547 1.384 . S
N551 C543 1.427 . S
N551 C549 1.384 . S
H552 C558 0.930 . S
H553 C562 0.930 . S
H554 C567 0.929 . S
H555 C565 0.929 . S
H556 C560 0.929 . S
H557 C566 0.929 . S
C558 H552 0.930 . S
C558 C559 1.367 . S
C558 C566 1.378 . S
C559 C558 1.367 . S
C559 C567 1.433 . S
C560 H556 0.929 . S
C560 C562 1.378 . S
C560 C564 1.350 . S
C561 C564 1.463 . S
C561 C566 1.350 . S
C561 N569 1.427 . S
C562 H553 0.930 . S
C562 C560 1.378 . S
C562 C563 1.367 . S
C563 C562 1.367 . S
C563 C565 1.433 . S
C564 C560 1.350 . S
C564 C561 1.463 . S
C564 N568 1.427 . S
C565 H555 0.929 . S
C565 C563 1.433 . S
C565 N568 1.384 . S
C566 H557 0.929 . S
C566 C558 1.378 . S
C566 C561 1.350 . S
C567 H554 0.929 . S
C567 C559 1.433 . S
C567 N569 1.384 . S
N568 C564 1.427 . S
N568 C565 1.384 . S
N569 C561 1.427 . S
N569 C567 1.384 . S
H570 C576 0.930 . S
H571 C580 0.930 . S
H572 C585 0.929 . S
H573 C583 0.929 . S
H574 C578 0.929 . S
H575 C584 0.929 . S
C576 H570 0.930 . S
C576 C577 1.367 . S
C576 C584 1.378 . S
C577 C576 1.367 . S
C577 C585 1.433 . S
C578 H574 0.929 . S
C578 C580 1.378 . S
C578 C582 1.350 . S
C579 C582 1.463 . S
C579 C584 1.350 . S
C579 N587 1.427 . S
C580 H571 0.930 . S
C580 C578 1.378 . S
C580 C581 1.367 . S
C581 C580 1.367 . S
C581 C583 1.433 . S
C582 C578 1.350 . S
C582 C579 1.463 . S
C582 N586 1.427 . S
C583 H573 0.929 . S
C583 C581 1.433 . S
C583 N586 1.384 . S
C584 H575 0.929 . S
C584 C576 1.378 . S
C584 C579 1.350 . S
C585 H572 0.929 . S
C585 C577 1.433 . S
C585 N587 1.384 . S
N586 C582 1.427 . S
N586 C583 1.384 . S
N587 C579 1.427 . S
N587 C585 1.384 . S
H588 C594 0.930 . S
H589 C598 0.930 . S
H590 C603 0.929 . S
H591 C601 0.929 . S
H592 C596 0.929 . S
H593 C602 0.929 . S
C594 H588 0.930 . S
C594 C595 1.367 . S
C594 C602 1.378 . S
C595 C594 1.367 . S
C595 C603 1.433 . S
C596 H592 0.929 . S
C596 C598 1.378 . S
C596 C600 1.350 . S
C597 C600 1.463 . S
C597 C602 1.350 . S
C597 N605 1.427 . S
C598 H589 0.930 . S
C598 C596 1.378 . S
C598 C599 1.367 . S
C599 C598 1.367 . S
C599 C601 1.433 . S
C600 C596 1.350 . S
C600 C597 1.463 . S
C600 N604 1.427 . S
C601 H591 0.929 . S
C601 C599 1.433 . S
C601 N604 1.384 . S
C602 H593 0.929 . S
C602 C594 1.378 . S
C602 C597 1.350 . S
C603 H590 0.929 . S
C603 C595 1.433 . S
C603 N605 1.384 . S
N604 C600 1.427 . S
N604 C601 1.384 . S
N605 C597 1.427 . S
N605 C603 1.384 . S
H606 C612 0.930 . S
H607 C616 0.930 . S
H608 C621 0.929 . S
H609 C619 0.929 . S
H610 C614 0.929 . S
H611 C620 0.929 . S
C612 H606 0.930 . S
C612 C613 1.367 . S
C612 C620 1.378 . S
C613 C612 1.367 . S
C613 C621 1.433 . S
C614 H610 0.929 . S
C614 C616 1.378 . S
C614 C618 1.350 . S
C615 C618 1.463 . S
C615 C620 1.350 . S
C615 N623 1.427 . S
C616 H607 0.930 . S
C616 C614 1.378 . S
C616 C617 1.367 . S
C617 C616 1.367 . S
C617 C619 1.433 . S
C618 C614 1.350 . S
C618 C615 1.463 . S
C618 N622 1.427 . S
C619 H609 0.929 . S
C619 C617 1.433 . S
C619 N622 1.384 . S
C620 H611 0.929 . S
C620 C612 1.378 . S
C620 C615 1.350 . S
C621 H608 0.929 . S
C621 C613 1.433 . S
C621 N623 1.384 . S
N622 C618 1.427 . S
N622 C619 1.384 . S
N623 C615 1.427 . S
N623 C621 1.384 . S
H624 C630 0.930 . S
H625 C634 0.930 . S
H626 C639 0.929 . S
H627 C637 0.929 . S
H628 C632 0.929 . S
H629 C638 0.929 . S
C630 H624 0.930 . S
C630 C631 1.367 1_545 S
C630 C638 1.378 . S
C631 C630 1.367 1_565 S
C631 C639 1.433 . S
C632 H628 0.929 . S
C632 C634 1.378 . S
C632 C636 1.350 . S
C633 C636 1.463 . S
C633 C638 1.350 . S
C633 N641 1.427 1_545 S
C634 H625 0.930 . S
C634 C632 1.378 . S
C634 C635 1.367 . S
C635 C634 1.367 . S
C635 C637 1.433 . S
C636 C632 1.350 . S
C636 C633 1.463 . S
C636 N640 1.427 . S
C637 H627 0.929 . S
C637 C635 1.433 . S
C637 N640 1.384 . S
C638 H629 0.929 . S
C638 C630 1.378 . S
C638 C633 1.350 . S
C639 H626 0.929 . S
C639 C631 1.433 . S
C639 N641 1.384 . S
N640 C636 1.427 . S
N640 C637 1.384 . S
N641 C633 1.427 1_565 S
N641 C639 1.384 . S
H642 C648 0.930 . S
H643 C652 0.930 . S
H644 C657 0.929 . S
H645 C655 0.929 . S
H646 C650 0.929 . S
H647 C656 0.929 . S
C648 H642 0.930 . S
C648 C649 1.367 . S
C648 C656 1.378 . S
C649 C648 1.367 . S
C649 C657 1.433 . S
C650 H646 0.929 . S
C650 C652 1.378 . S
C650 C654 1.350 . S
C651 C654 1.463 . S
C651 C656 1.350 . S
C651 N659 1.427 . S
C652 H643 0.930 . S
C652 C650 1.378 . S
C652 C653 1.367 . S
C653 C652 1.367 . S
C653 C655 1.433 . S
C654 C650 1.350 . S
C654 C651 1.463 . S
C654 N658 1.427 . S
C655 H645 0.929 . S
C655 C653 1.433 . S
C655 N658 1.384 . S
C656 H647 0.929 . S
C656 C648 1.378 . S
C656 C651 1.350 . S
C657 H644 0.929 . S
C657 C649 1.433 . S
C657 N659 1.384 . S
N658 C654 1.427 . S
N658 C655 1.384 . S
N659 C651 1.427 . S
N659 C657 1.384 . S
H660 C666 0.930 . S
H661 C670 0.930 . S
H662 C675 0.929 . S
H663 C673 0.929 . S
H664 C668 0.929 . S
H665 C674 0.929 . S
C666 H660 0.930 . S
C666 C667 1.367 . S
C666 C674 1.378 . S
C667 C666 1.367 . S
C667 C675 1.433 . S
C668 H664 0.929 . S
C668 C670 1.378 . S
C668 C672 1.350 1_455 S
C669 C672 1.463 . S
C669 C674 1.350 . S
C669 N677 1.427 . S
C670 H661 0.930 . S
C670 C668 1.378 . S
C670 C671 1.367 . S
C671 C670 1.367 . S
C671 C673 1.433 1_455 S
C672 C668 1.350 1_655 S
C672 C669 1.463 . S
C672 N676 1.427 . S
C673 H663 0.929 . S
C673 C671 1.433 1_655 S
C673 N676 1.384 . S
C674 H665 0.929 . S
C674 C666 1.378 . S
C674 C669 1.350 . S
C675 H662 0.929 . S
C675 C667 1.433 . S
C675 N677 1.384 . S
N676 C672 1.427 . S
N676 C673 1.384 . S
N677 C669 1.427 . S
N677 C675 1.384 . S
H678 C684 0.930 . S
H679 C688 0.930 . S
H680 C693 0.929 . S
H681 C691 0.929 . S
H682 C686 0.929 . S
H683 C692 0.929 . S
C684 H678 0.930 . S
C684 C685 1.367 . S
C684 C692 1.378 1_545 S
C685 C684 1.367 . S
C685 C693 1.433 1_545 S
C686 H682 0.929 . S
C686 C688 1.378 . S
C686 C690 1.350 . S
C687 C690 1.463 . S
C687 C692 1.350 . S
C687 N695 1.427 . S
C688 H679 0.930 . S
C688 C686 1.378 . S
C688 C689 1.367 . S
C689 C688 1.367 . S
C689 C691 1.433 . S
C690 C686 1.350 . S
C690 C687 1.463 . S
C690 N694 1.427 . S
C691 H681 0.929 . S
C691 C689 1.433 . S
C691 N694 1.384 . S
C692 H683 0.929 . S
C692 C684 1.378 1_565 S
C692 C687 1.350 . S
C693 H680 0.929 . S
C693 C685 1.433 1_565 S
C693 N695 1.384 . S
N694 C690 1.427 . S
N694 C691 1.384 . S
N695 C687 1.427 . S
N695 C693 1.384 . S
H696 C702 0.930 . S
H697 C706 0.930 . S
H698 C711 0.929 . S
H699 C709 0.929 . S
H700 C704 0.929 . S
H701 C710 0.929 . S
C702 H696 0.930 . S
C702 C703 1.367 . S
C702 C710 1.378 . S
C703 C702 1.367 . S
C703 C711 1.433 . S
C704 H700 0.929 . S
C704 C706 1.378 . S
C704 C708 1.350 . S
C705 C708 1.463 1_556 S
C705 C710 1.350 . S
C705 N713 1.427 . S
C706 H697 0.930 . S
C706 C704 1.378 . S
C706 C707 1.367 . S
C707 C706 1.367 . S
C707 C709 1.433 . S
C708 C704 1.350 . S
C708 C705 1.463 1_554 S
C708 N712 1.427 . S
C709 H699 0.929 . S
C709 C707 1.433 . S
C709 N712 1.384 . S
C710 H701 0.929 . S
C710 C702 1.378 . S
C710 C705 1.350 . S
C711 H698 0.929 . S
C711 C703 1.433 . S
C711 N713 1.384 . S
N712 C708 1.427 . S
N712 C709 1.384 . S
N713 C705 1.427 . S
N713 C711 1.384 . S
H714 C720 0.930 . S
H715 C724 0.930 . S
H716 C729 0.929 . S
H717 C727 0.929 . S
H718 C722 0.929 . S
H719 C728 0.929 . S
C720 H714 0.930 . S
C720 C721 1.367 . S
C720 C728 1.378 1_655 S
C721 C720 1.367 . S
C721 C729 1.433 . S
C722 H718 0.929 . S
C722 C724 1.378 . S
C722 C726 1.350 . S
C723 C726 1.463 . S
C723 C728 1.350 . S
C723 N731 1.427 . S
C724 H715 0.930 . S
C724 C722 1.378 . S
C724 C725 1.367 . S
C725 C724 1.367 . S
C725 C727 1.433 . S
C726 C722 1.350 . S
C726 C723 1.463 . S
C726 N730 1.427 . S
C727 H717 0.929 . S
C727 C725 1.433 . S
C727 N730 1.384 . S
C728 H719 0.929 . S
C728 C720 1.378 1_455 S
C728 C723 1.350 . S
C729 H716 0.929 . S
C729 C721 1.433 . S
C729 N731 1.384 1_655 S
N730 C726 1.427 . S
N730 C727 1.384 . S
N731 C723 1.427 . S
N731 C729 1.384 1_455 S
H732 C738 0.930 . S
H733 C742 0.930 . S
H734 C747 0.929 . S
H735 C745 0.929 . S
H736 C740 0.929 . S
H737 C746 0.929 . S
C738 H732 0.930 . S
C738 C739 1.367 1_655 S
C738 C746 1.378 . S
C739 C738 1.367 1_455 S
C739 C747 1.433 . S
C740 H736 0.929 . S
C740 C742 1.378 . S
C740 C744 1.350 . S
C741 C744 1.463 . S
C741 C746 1.350 . S
C741 N749 1.422 1_655 S
C742 H733 0.930 . S
C742 C740 1.378 . S
C742 C743 1.367 . S
C743 C742 1.367 . S
C743 C745 1.433 . S
C744 C740 1.350 . S
C744 C741 1.463 . S
C744 N748 1.427 . S
C745 H735 0.929 . S
C745 C743 1.433 . S
C745 N748 1.384 . S
C746 H737 0.929 . S
C746 C738 1.378 . S
C746 C741 1.350 . S
C747 H734 0.929 . S
C747 C739 1.433 . S
C747 N749 1.393 . S
N748 C744 1.427 . S
N748 C745 1.384 . S
N749 C741 1.422 1_455 S
N749 C747 1.393 . S
H750 C756 0.930 . S
H751 C760 0.930 . S
H752 C765 0.929 . S
H753 C763 0.929 . S
H754 C758 0.929 . S
H755 C764 0.929 . S
C756 H750 0.930 . S
C756 C757 1.367 . S
C756 C764 1.378 . S
C757 C756 1.367 . S
C757 C765 1.433 . S
C758 H754 0.929 . S
C758 C760 1.378 . S
C758 C762 1.350 1_545 S
C759 C762 1.463 . S
C759 C764 1.350 . S
C759 N767 1.427 . S
C760 H751 0.930 . S
C760 C758 1.378 . S
C760 C761 1.367 . S
C761 C760 1.367 . S
C761 C763 1.433 1_545 S
C762 C758 1.350 1_565 S
C762 C759 1.463 . S
C762 N766 1.427 . S
C763 H753 0.929 . S
C763 C761 1.433 1_565 S
C763 N766 1.384 . S
C764 H755 0.929 . S
C764 C756 1.378 . S
C764 C759 1.350 . S
C765 H752 0.929 . S
C765 C757 1.433 . S
C765 N767 1.384 . S
N766 C762 1.427 . S
N766 C763 1.384 . S
N767 C759 1.427 . S
N767 C765 1.384 . S
H768 C774 0.930 . S
H769 C778 0.930 . S
H770 C783 0.929 . S
H771 C781 0.929 . S
H772 C776 0.929 . S
H773 C782 0.929 . S
C774 H768 0.930 . S
C774 C775 1.367 . S
C774 C782 1.378 . S
C775 C774 1.367 . S
C775 C783 1.433 . S
C776 H772 0.929 . S
C776 C778 1.378 . S
C776 C780 1.350 . S
C777 C780 1.463 . S
C777 C782 1.350 . S
C777 N785 1.427 . S
C778 H769 0.930 . S
C778 C776 1.378 . S
C778 C779 1.367 . S
C779 C778 1.367 . S
C779 C781 1.433 . S
C780 C776 1.350 . S
C780 C777 1.463 . S
C780 N784 1.427 . S
C781 H771 0.929 . S
C781 C779 1.433 . S
C781 N784 1.384 . S
C782 H773 0.929 . S
C782 C774 1.378 . S
C782 C777 1.350 . S
C783 H770 0.929 . S
C783 C775 1.433 . S
C783 N785 1.384 . S
N784 C780 1.427 . S
N784 C781 1.384 . S
N785 C777 1.427 . S
N785 C783 1.384 . S
H786 C792 0.930 . S
H787 C796 0.930 . S
H788 C801 0.929 . S
H789 C799 0.929 . S
H790 C794 0.929 . S
H791 C800 0.929 . S
C792 H786 0.930 . S
C792 C793 1.367 1_455 S
C792 C800 1.378 . S
C793 C792 1.367 1_655 S
C793 C801 1.433 . S
C794 H790 0.929 . S
C794 C796 1.378 . S
C794 C798 1.350 . S
C795 C798 1.463 1_554 S
C795 C800 1.350 . S
C795 N803 1.427 1_455 S
C796 H787 0.930 . S
C796 C794 1.378 . S
C796 C797 1.367 . S
C797 C796 1.367 . S
C797 C799 1.433 . S
C798 C794 1.350 . S
C798 C795 1.463 1_556 S
C798 N802 1.427 . S
C799 H789 0.929 . S
C799 C797 1.433 . S
C799 N802 1.384 . S
C800 H791 0.929 . S
C800 C792 1.378 . S
C800 C795 1.350 . S
C801 H788 0.929 . S
C801 C793 1.433 . S
C801 N803 1.384 . S
N802 C798 1.427 . S
N802 C799 1.384 . S
N803 C795 1.427 1_655 S
N803 C801 1.384 . S
H804 C810 0.930 . S
H805 C814 0.930 . S
H806 C819 0.929 . S
H807 C817 0.929 . S
H808 C812 0.929 . S
H809 C818 0.929 . S
C810 H804 0.930 . S
C810 C811 1.367 1_545 S
C810 C818 1.378 . S
C811 C810 1.367 1_565 S
C811 C819 1.433 . S
C812 H808 0.929 . S
C812 C814 1.378 . S
C812 C816 1.350 . S
C813 C816 1.463 . S
C813 C818 1.350 . S
C813 N821 1.427 1_545 S
C814 H805 0.930 . S
C814 C812 1.378 . S
C814 C815 1.367 . S
C815 C814 1.367 . S
C815 C817 1.433 . S
C816 C812 1.350 . S
C816 C813 1.463 . S
C816 N820 1.427 . S
C817 H807 0.929 . S
C817 C815 1.433 . S
C817 N820 1.384 . S
C818 H809 0.929 . S
C818 C810 1.378 . S
C818 C813 1.350 . S
C819 H806 0.929 . S
C819 C811 1.433 . S
C819 N821 1.384 . S
N820 C816 1.427 . S
N820 C817 1.384 . S
N821 C813 1.427 1_565 S
N821 C819 1.384 . S
H822 C828 0.930 . S
H823 C832 0.930 . S
H824 C837 0.929 . S
H825 C835 0.929 . S
H826 C830 0.929 . S
H827 C836 0.929 . S
C828 H822 0.930 . S
C828 C829 1.367 . S
C828 C836 1.378 . S
C829 C828 1.367 . S
C829 C837 1.433 . S
C830 H826 0.929 . S
C830 C832 1.378 . S
C830 C834 1.350 . S
C831 C834 1.463 . S
C831 C836 1.350 . S
C831 N839 1.427 . S
C832 H823 0.930 . S
C832 C830 1.378 . S
C832 C833 1.367 . S
C833 C832 1.367 . S
C833 C835 1.433 . S
C834 C830 1.350 . S
C834 C831 1.463 . S
C834 N838 1.427 . S
C835 H825 0.929 . S
C835 C833 1.433 . S
C835 N838 1.384 . S
C836 H827 0.929 . S
C836 C828 1.378 . S
C836 C831 1.350 . S
C837 H824 0.929 . S
C837 C829 1.433 . S
C837 N839 1.384 . S
N838 C834 1.427 . S
N838 C835 1.384 . S
N839 C831 1.427 . S
N839 C837 1.384 . S
H840 C846 0.930 . S
H841 C850 0.930 . S
H842 C855 0.929 . S
H843 C853 0.929 . S
H844 C848 0.929 1_545 S
H845 C854 0.929 1_565 S
C846 H840 0.930 . S
C846 C847 1.367 . S
C846 C854 1.378 . S
C847 C846 1.367 . S
C847 C855 1.433 . S
C848 H844 0.929 1_565 S
C848 C850 1.378 . S
C848 C852 1.350 . S
C849 C852 1.463 1_545 S
C849 C854 1.350 . S
C849 N857 1.427 . S
C850 H841 0.930 . S
C850 C848 1.378 . S
C850 C851 1.367 . S
C851 C850 1.367 . S
C851 C853 1.433 . S
C852 C848 1.350 . S
C852 C849 1.463 1_565 S
C852 N856 1.427 . S
C853 H843 0.929 . S
C853 C851 1.433 . S
C853 N856 1.384 . S
C854 H845 0.929 1_545 S
C854 C846 1.378 . S
C854 C849 1.350 . S
C855 H842 0.929 . S
C855 C847 1.433 . S
C855 N857 1.384 . S
N856 C852 1.427 . S
N856 C853 1.384 . S
N857 C849 1.427 . S
N857 C855 1.384 . S
H858 C864 0.930 . S
H859 C868 0.930 . S
H860 C873 0.929 . S
H861 C871 0.929 . S
H862 C866 0.929 . S
H863 C872 0.929 . S
C864 H858 0.930 . S
C864 C865 1.367 . S
C864 C872 1.378 . S
C865 C864 1.367 . S
C865 C873 1.433 . S
C866 H862 0.929 . S
C866 C868 1.378 . S
C866 C870 1.350 . S
C867 C870 1.463 . S
C867 C872 1.350 . S
C867 N875 1.427 . S
C868 H859 0.930 . S
C868 C866 1.378 . S
C868 C869 1.367 . S
C869 C868 1.367 . S
C869 C871 1.433 . S
C870 C866 1.350 . S
C870 C867 1.463 . S
C870 N874 1.427 . S
C871 H861 0.929 . S
C871 C869 1.433 . S
C871 N874 1.384 . S
C872 H863 0.929 . S
C872 C864 1.378 . S
C872 C867 1.350 . S
C873 H860 0.929 . S
C873 C865 1.433 . S
C873 N875 1.384 . S
N874 C870 1.427 . S
N874 C871 1.384 . S
N875 C867 1.427 . S
N875 C873 1.384 . S
H876 C882 0.930 . S
H877 C886 0.930 . S
H878 C891 0.929 . S
H879 C889 0.929 . S
H880 C884 0.929 . S
H881 C890 0.929 . S
C882 H876 0.930 . S
C882 C883 1.367 . S
C882 C890 1.378 . S
C883 C882 1.367 . S
C883 C891 1.433 . S
C884 H880 0.929 . S
C884 C886 1.378 . S
C884 C888 1.350 . S
C885 C888 1.463 1_655 S
C885 C890 1.350 . S
C885 N893 1.427 . S
C886 H877 0.930 . S
C886 C884 1.378 . S
C886 C887 1.367 . S
C887 C886 1.367 . S
C887 C889 1.433 . S
C888 C884 1.350 . S
C888 C885 1.463 1_455 S
C888 N892 1.427 . S
C889 H879 0.929 . S
C889 C887 1.433 . S
C889 N892 1.384 . S
C890 H881 0.929 . S
C890 C882 1.378 . S
C890 C885 1.350 . S
C891 H878 0.929 . S
C891 C883 1.433 . S
C891 N893 1.384 . S
N892 C888 1.427 . S
N892 C889 1.384 . S
N893 C885 1.427 . S
N893 C891 1.384 . S
H894 C900 0.930 . S
H895 C904 0.930 . S
H896 C909 0.929 . S
H897 C907 0.929 . S
H898 C902 0.929 1_554 S
H899 C908 0.929 1_556 S
C900 H894 0.930 . S
C900 C901 1.367 . S
C900 C908 1.378 . S
C901 C900 1.367 . S
C901 C909 1.433 . S
C902 H898 0.929 1_556 S
C902 C904 1.378 . S
C902 C906 1.350 . S
C903 C906 1.463 1_544 S
C903 C908 1.350 . S
C903 N911 1.427 . S
C904 H895 0.930 . S
C904 C902 1.378 . S
C904 C905 1.367 . S
C905 C904 1.367 . S
C905 C907 1.433 . S
C906 C902 1.350 . S
C906 C903 1.463 1_566 S
C906 N910 1.427 . S
C907 H897 0.929 . S
C907 C905 1.433 . S
C907 N910 1.384 . S
C908 H899 0.929 1_554 S
C908 C900 1.378 . S
C908 C903 1.350 . S
C909 H896 0.929 . S
C909 C901 1.433 . S
C909 N911 1.384 . S
N910 C906 1.427 . S
N910 C907 1.384 . S
N911 C903 1.427 . S
N911 C909 1.384 . S
H912 C918 0.930 . S
H913 C922 0.930 . S
H914 C927 0.929 . S
H915 C925 0.929 . S
H916 C920 0.929 . S
H917 C926 0.929 . S
C918 H912 0.930 . S
C918 C919 1.367 . S
C918 C926 1.378 . S
C919 C918 1.367 . S
C919 C927 1.433 . S
C920 H916 0.929 . S
C920 C922 1.378 . S
C920 C924 1.350 . S
C921 C924 1.463 . S
C921 C926 1.350 . S
C921 N929 1.427 . S
C922 H913 0.930 . S
C922 C920 1.378 . S
C922 C923 1.367 . S
C923 C922 1.367 . S
C923 C925 1.433 . S
C924 C920 1.350 . S
C924 C921 1.463 . S
C924 N928 1.427 . S
C925 H915 0.929 . S
C925 C923 1.433 . S
C925 N928 1.384 . S
C926 H917 0.929 . S
C926 C918 1.378 . S
C926 C921 1.350 . S
C927 H914 0.929 . S
C927 C919 1.433 . S
C927 N929 1.384 . S
N928 C924 1.427 . S
N928 C925 1.384 . S
N929 C921 1.427 . S
N929 C927 1.384 . S
H930 C936 0.930 . S
H931 C940 0.930 . S
H932 C945 0.929 . S
H933 C943 0.929 . S
H934 C938 0.929 . S
H935 C944 0.929 . S
C936 H930 0.930 . S
C936 C937 1.367 . S
C936 C944 1.378 . S
C937 C936 1.367 . S
C937 C945 1.433 . S
C938 H934 0.929 . S
C938 C940 1.378 . S
C938 C942 1.350 . S
C939 C942 1.463 1_655 S
C939 C944 1.350 . S
C939 N947 1.427 . S
C940 H931 0.930 . S
C940 C938 1.378 . S
C940 C941 1.367 . S
C941 C940 1.367 . S
C941 C943 1.433 . S
C942 C938 1.350 . S
C942 C939 1.463 1_455 S
C942 N946 1.427 . S
C943 H933 0.929 . S
C943 C941 1.433 . S
C943 N946 1.384 . S
C944 H935 0.929 . S
C944 C936 1.378 . S
C944 C939 1.350 . S
C945 H932 0.929 . S
C945 C937 1.433 . S
C945 N947 1.384 . S
N946 C942 1.427 . S
N946 C943 1.384 . S
N947 C939 1.427 . S
N947 C945 1.384 . S
C415 C5 0.104 . S
C419 C209 0.117 . S
C433 C243 0.139 . S
C437 C39 0.137 . S
C451 C73 0.132 . S
C455 C277 0.137 . S
C469 C107 0.127 . S
C473 C311 0.116 . S
C487 C141 0.139 . S
C491 C345 0.138 . S
C505 C175 0.097 . S
C509 C379 0.110 . S
C523 C213 1.266 . S
C527 C9 1.261 . S
C541 C43 1.266 . S
C545 C247 1.260 . S
C559 C281 1.255 . S
C563 C77 1.269 . S
C577 C315 1.254 . S
C581 C111 1.269 . S
C595 C349 1.254 . S
C599 C145 1.264 . S
C613 C179 1.264 . S
C617 C383 1.263 . S
C631 C172 1.517 . S
C635 C20 1.473 . S
C649 C2 1.508 . S
C653 C54 1.485 . S
C667 C88 1.478 . S
C671 C36 1.511 . S
C685 C70 1.508 . S
C689 C122 1.485 . S
C703 C104 1.517 . S
C707 C156 1.470 . S
C721 C138 1.514 . S
C725 C190 1.473 . S
C739 C240 1.517 . S
C743 C224 1.470 . S
C757 C258 1.485 . S
C761 C274 1.508 . S
C775 C308 1.515 . S
C779 C292 1.472 . S
C793 C342 1.518 . S
C797 C326 1.470 . S
C811 C376 1.515 . S
C815 C360 1.475 . S
C829 C206 1.517 . S
C833 C394 1.470 . S
C847 C33 1.414 . S
C851 C271 1.403 . S
C865 C67 1.415 . S
C869 C305 1.404 . S
C883 C101 1.407 . S
C887 C339 1.412 . S
C901 C373 1.405 . S
C905 C135 1.414 . S
C919 C169 1.403 . S
C923 C407 1.414 . S
C937 C237 1.403 . S
C941 C203 1.415 . S
