# Generated by pormake.
# Topology wni, (7)-cn, num edge types: 1
# Building blocks:
#     Node 0, Type 0, BuildingBlock: HICVOG_clean_sbu_0, # of connection points: 7
#     Node 1, Type 0, BuildingBlock: HICVOG_clean_sbu_0, # of connection points: 7
#     Node 2, Type 0, BuildingBlock: HICVOG_clean_sbu_0, # of connection points: 7
#     Node 3, Type 0, BuildingBlock: HICVOG_clean_sbu_0, # of connection points: 7
#     Node 4, Type 0, BuildingBlock: HICVOG_clean_sbu_0, # of connection points: 7
#     Node 5, Type 0, BuildingBlock: HICVOG_clean_sbu_0, # of connection points: 7
#     Edge 6, Type (0, 0), BuildingBlock: ZUJKAS_clean_linker_0, # of connection points: 2
#     Edge 7, Type (0, 0), BuildingBlock: ZUJKAS_clean_linker_0, # of connection points: 2
#     Edge 8, Type (0, 0), BuildingBlock: ZUJKAS_clean_linker_0, # of connection points: 2
#     Edge 9, Type (0, 0), BuildingBlock: ZUJKAS_clean_linker_0, # of connection points: 2
#     Edge 10, Type (0, 0), BuildingBlock: ZUJKAS_clean_linker_0, # of connection points: 2
#     Edge 11, Type (0, 0), BuildingBlock: ZUJKAS_clean_linker_0, # of connection points: 2
#     Edge 12, Type (0, 0), BuildingBlock: ZUJKAS_clean_linker_0, # of connection points: 2
#     Edge 13, Type (0, 0), BuildingBlock: ZUJKAS_clean_linker_0, # of connection points: 2
#     Edge 14, Type (0, 0), BuildingBlock: ZUJKAS_clean_linker_0, # of connection points: 2
#     Edge 15, Type (0, 0), BuildingBlock: ZUJKAS_clean_linker_0, # of connection points: 2
#     Edge 16, Type (0, 0), BuildingBlock: ZUJKAS_clean_linker_0, # of connection points: 2
#     Edge 17, Type (0, 0), BuildingBlock: ZUJKAS_clean_linker_0, # of connection points: 2
#     Edge 18, Type (0, 0), BuildingBlock: ZUJKAS_clean_linker_0, # of connection points: 2
#     Edge 19, Type (0, 0), BuildingBlock: ZUJKAS_clean_linker_0, # of connection points: 2
#     Edge 20, Type (0, 0), BuildingBlock: ZUJKAS_clean_linker_0, # of connection points: 2
#     Edge 21, Type (0, 0), BuildingBlock: ZUJKAS_clean_linker_0, # of connection points: 2
#     Edge 22, Type (0, 0), BuildingBlock: ZUJKAS_clean_linker_0, # of connection points: 2
#     Edge 23, Type (0, 0), BuildingBlock: ZUJKAS_clean_linker_0, # of connection points: 2
#     Edge 24, Type (0, 0), BuildingBlock: ZUJKAS_clean_linker_0, # of connection points: 2
#     Edge 25, Type (0, 0), BuildingBlock: ZUJKAS_clean_linker_0, # of connection points: 2
#     Edge 26, Type (0, 0), BuildingBlock: ZUJKAS_clean_linker_0, # of connection points: 2
# Relax obj value: 0.228
# Max RMSD: 0.178
# Mean RMSD: 0.178
data_MOF--net-wni--node1-HICVOG_clean_sbu_0--edge1-ZUJKAS_clean_linker_0
_symmetry_space_group_name_H-M    P1
_symmetry_Int_Tables_number       1
_symmetry_cell_setting            triclinic
loop_
_symmetry_equiv_pos_as_xyz
'x, y, z'
_cell_length_a     34.398885
_cell_length_b     34.521366
_cell_length_c     40.724258
_cell_angle_alpha  90.063591
_cell_angle_beta   89.771759
_cell_angle_gamma 119.87691
loop_
_atom_site_label
_atom_site_type_symbol
_atom_site_fract_x
_atom_site_fract_y
_atom_site_fract_z
_atom_type_partial_charge
Zn0 Zn 0.1271 0.47316 0.1351 0.0
C1 C 0.08905 0.46163 0.03938 0.0
N2 N 1.05777 0.47048 0.05155 0.0
C3 C 1.06574 0.47476 0.08402 0.0
N4 N 0.10156 0.46969 0.09153 0.0
N5 N 0.11612 0.46116 0.06363 0.0
C6 C 0.17286 0.37532 0.07316 0.0
O7 O 0.18225 0.39214 0.10293 0.0
O8 O 0.11634 0.51635 0.16145 0.0
Zn9 Zn 0.17197 0.45805 0.05874 0.0
N10 N 0.09608 0.41378 0.15326 0.0
C11 C 1.04734 0.33567 0.14666 0.0
C12 C 1.06736 0.37894 0.13416 0.0
C13 C 0.10591 0.40719 0.18427 0.0
N14 N 1.05723 0.32898 0.17762 0.0
C15 C 0.08631 0.36351 0.19693 0.0
O16 O 0.22214 0.48664 0.09379 0.0
C17 C 0.22776 0.49896 0.12377 0.0
O18 O 0.19489 0.4958 0.1405 0.0
H19 H 1.06033 0.38457 0.10934 0.0
H20 H 0.12857 0.43598 0.19863 0.0
C21 C 0.21456 0.47084 0.99784 0.0
C22 C 0.23129 0.49078 0.96729 0.0
C23 C 0.21773 0.54966 0.9819 0.0
C24 C 0.20049 0.52921 1.01212 0.0
N25 N 0.19905 0.49008 1.01923 0.0
N26 N 0.23278 0.53009 0.96025 0.0
H27 H 0.21402 0.44044 1.00488 0.0
C28 C 0.12609 0.55213 0.14607 0.0
O29 O 0.14342 0.55836 0.11644 0.0
O30 O 0.16215 0.39486 0.05143 0.0
H31 H 0.1877 0.54385 0.02953 0.0
H32 H 1.02433 0.30756 0.13183 0.0
H33 H 0.21901 0.58072 0.97563 0.0
Zn34 Zn 0.66355 0.72723 0.73352 0.0
C35 C 0.64922 0.60399 0.74918 0.0
N36 N 0.66053 0.60519 0.71739 0.0
C37 C 0.66788 0.64552 0.70694 0.0
N38 N 0.66114 0.66841 0.73154 0.0
N39 N 0.649 0.64196 0.75769 0.0
C40 C 0.56285 0.57478 0.80819 0.0
O41 O 0.55814 0.58428 0.77775 0.0
O42 O 0.71433 0.77788 0.70781 0.0
Zn43 Zn 0.63799 0.6593 0.80044 0.0
N44 N 0.60907 0.72037 0.71617 0.0
C45 C 0.5323 0.68051 0.70117 0.0
C46 C 0.57136 0.68067 0.71059 0.0
C47 C 0.60938 0.75961 0.71344 0.0
N48 N 0.53258 0.71993 0.69845 0.0
C49 C 0.57015 0.75977 0.70476 0.0
O50 O 0.60903 0.69917 0.80291 0.0
C51 C 0.63134 0.74113 0.79779 0.0
O52 O 0.66515 0.75653 0.77853 0.0
H53 H 0.57156 0.64966 0.71378 0.0
H54 H 0.64034 0.79026 0.71814 0.0
C55 C 0.69831 0.70824 0.85204 0.0
C56 C 0.74065 0.73579 0.86614 0.0
C57 C 0.77519 0.72896 0.81754 0.0
C58 C 0.73323 0.70205 0.80368 0.0
N59 N 0.69568 0.69217 0.82121 0.0
N60 N 0.77792 0.7451 0.84832 0.0
H61 H 0.66754 0.69914 0.86513 0.0
C62 C 0.75153 0.80346 0.72184 0.0
O63 O 0.75987 0.79141 0.75035 0.0
O64 O 0.59603 0.6032 0.82489 0.0
H65 H 0.73081 0.68966 0.77898 0.0
H66 H 0.50189 0.64934 0.69637 0.0
H67 H 0.80541 0.73716 0.80393 0.0
Zn68 Zn 0.45118 0.99332 0.46853 0.0
C69 C 0.48645 1.02852 0.37355 0.0
N70 N 0.52697 0.05783 0.38603 0.0
C71 C 0.52167 0.05031 0.41864 0.0
N72 N 0.47945 1.01689 0.42592 0.0
N73 N 0.45739 1.00293 0.3977 0.0
C74 C 0.31235 0.94203 0.40875 0.0
O75 O 0.31955 0.92943 0.43742 0.0
O76 O 0.49774 1.01526 0.50371 0.0
Zn77 Zn 0.39807 0.94771 0.39296 0.0
N78 N 0.41152 1.01594 0.47891 0.0
C79 C 0.36759 0.04919 0.4651 0.0
C80 C 0.39611 1.03319 0.45574 0.0
C81 C 0.39952 1.01379 0.51092 0.0
N82 N 0.35585 0.04739 0.49722 0.0
C83 C 0.37083 1.02979 0.52056 0.0
O84 O 0.37898 0.89768 0.42786 0.0
C85 C 0.38648 0.89189 0.45762 0.0
O86 O 0.41454 0.92498 0.47472 0.0
H87 H 0.40588 1.03455 0.43032 0.0
H88 H 0.41326 1.00061 0.52865 0.0
C89 C 0.36731 0.90545 0.33186 0.0
C90 C 0.37049 0.88917 0.30102 0.0
C91 C 0.44376 0.90378 0.31458 0.0
C92 C 0.44034 0.92008 0.34512 0.0
N93 N 0.40241 0.9211 0.35284 0.0
N94 N 0.40887 0.88869 0.29335 0.0
H95 H 0.33728 0.90543 0.33961 0.0
C96 C 0.52841 1.00503 0.50351 0.0
O97 O 0.53035 0.9812 0.47903 0.0
O98 O 0.34353 0.95668 0.38722 0.0
H99 H 0.46793 0.93272 0.36225 0.0
H100 H 0.35504 0.06311 0.44701 0.0
H101 H 0.47385 0.90313 0.30776 0.0
Zn102 Zn 0.47739 0.13386 0.99674 0.0
C103 C 0.50747 1.03583 0.9735 0.0
N104 N 0.50628 1.02946 1.00618 0.0
C105 C 0.49363 0.05784 1.01856 0.0
N106 N 0.48822 0.08194 0.99423 0.0
N107 N 0.49666 0.06782 0.96608 0.0
C108 C 0.55671 0.07995 0.88766 0.0
O109 O 0.58306 0.10489 0.91143 0.0
O110 O 0.41141 0.11833 1.00053 0.0
Zn111 Zn 0.49112 0.0904 0.9234 0.0
N112 N 0.50337 0.16645 0.03646 0.0
C113 C 0.55381 0.19303 0.08146 0.0
C114 C 0.53854 0.16795 0.05267 0.0
C115 C 0.48455 0.19076 0.04673 0.0
N116 N 0.53483 0.21736 0.09173 0.0
C117 C 0.50084 0.21744 0.07472 0.0
O118 O 0.5227 0.15863 0.91601 0.0
C119 C 0.52314 0.19044 0.93222 0.0
O120 O 0.50658 0.18345 0.96113 0.0
H121 H 0.55439 0.1498 0.04347 0.0
H122 H 0.45739 0.18967 0.03279 0.0
C123 C 0.42151 0.06628 0.87955 0.0
C124 C 0.37749 0.04737 0.86784 0.0
C125 C 0.35081 1.03112 0.92282 0.0
C126 C 0.39471 0.04862 0.93413 0.0
N127 N 0.42907 0.06608 0.91218 0.0
N128 N 0.34317 1.03071 0.89002 0.0
H129 H 0.44997 0.08129 0.86304 0.0
C130 C 0.39536 0.13445 0.97993 0.0
O131 O 0.41675 0.15054 0.95208 0.0
O132 O 0.51556 0.06839 0.88853 0.0
H133 H 0.40134 0.04836 0.96004 0.0
H134 H 0.58108 0.19387 0.09519 0.0
H135 H 0.32299 1.01749 0.93994 0.0
Zn136 Zn 0.98487 0.36016 0.66405 0.0
C137 C 0.09211 0.48063 0.63832 0.0
N138 N 0.09939 0.48675 0.67078 0.0
C139 C 1.06818 0.44749 0.68403 0.0
N140 N 1.04171 0.41836 0.66027 0.0
N141 N 1.05731 0.4392 0.63169 0.0
C142 C 1.04267 0.48692 0.56023 0.0
O143 O 1.01405 0.47772 0.5845 0.0
O144 O 0.9894 0.30568 0.67844 0.0
Zn145 Zn 1.03961 0.41226 0.58807 0.0
N146 N 0.9461 0.36616 0.69493 0.0
C147 C 0.91869 0.40317 0.72912 0.0
C148 C 0.95287 0.40429 0.70979 0.0
C149 C 0.90648 0.32767 0.6976 0.0
N150 N 0.87866 0.36459 0.73142 0.0
C151 C 0.87135 0.32681 0.71553 0.0
O152 O 0.97273 0.36967 0.57684 0.0
C153 C 0.93909 0.34114 0.59338 0.0
O154 O 0.94304 0.33717 0.62405 0.0
H155 H 0.98386 0.43529 0.70625 0.0
H156 H 0.90248 0.29822 0.68512 0.0
C157 C 0.08369 0.38021 0.54771 0.0
C158 C 0.10717 0.35797 0.53965 0.0
C159 C 0.10687 0.33986 0.59583 0.0
C160 C 0.08399 0.3626 0.60373 0.0
N161 N 0.07244 0.38178 0.57938 0.0
N162 N 0.11771 0.3378 0.56397 0.0
H163 H 0.07339 0.39539 0.52896 0.0
C164 C 0.98678 0.27732 0.6572 0.0
O165 O 0.98941 0.28746 0.6259 0.0
O166 O 1.05979 0.46219 0.55589 0.0
H167 H 0.07509 0.36452 0.62894 0.0
H168 H 0.92351 0.43297 0.74153 0.0
H169 H 0.11578 0.32385 0.61483 0.0
Zn170 Zn 0.70638 0.63232 0.25708 0.0
C171 C 0.67233 0.62753 0.35301 0.0
N172 N 0.63168 0.61644 0.34064 0.0
C173 C 0.63728 0.61556 0.308 0.0
N174 N 0.67974 0.62495 0.30061 0.0
N175 N 0.70185 0.63226 0.32875 0.0
C176 C 0.84759 0.72295 0.31754 0.0
O177 O 0.84193 0.70453 0.28844 0.0
O178 O 0.65568 0.59854 0.22597 0.0
Zn179 Zn 0.76363 0.64095 0.33167 0.0
N180 N 0.73519 0.69493 0.24712 0.0
C181 C 0.77904 0.77109 0.26303 0.0
C182 C 0.75837 0.7257 0.27069 0.0
C183 C 0.73083 0.7075 0.21649 0.0
N184 N 0.77517 0.78378 0.2322 0.0
C185 C 0.75104 0.75308 0.20872 0.0
O186 O 0.78438 0.61394 0.29497 0.0
C187 C 0.77879 0.60361 0.26464 0.0
O188 O 0.75038 0.60881 0.248 0.0
H189 H 0.76072 0.71502 0.29515 0.0
H190 H 0.7125 0.68201 0.19829 0.0
C191 C 0.81124 0.62531 0.37769 0.0
C192 C 0.82141 0.60534 0.40349 0.0
C193 C 0.74346 0.55726 0.41274 0.0
C194 C 0.73371 0.57622 0.38599 0.0
N195 N 0.76797 0.61057 0.36956 0.0
N196 N 0.78699 0.57202 0.42076 0.0
H197 H 0.83747 0.65215 0.36363 0.0
C198 C 0.6319 0.55736 0.23287 0.0
O199 O 0.64355 0.54129 0.25784 0.0
O200 O 0.81533 0.70554 0.33821 0.0
H201 H 0.69941 0.56365 0.37842 0.0
H202 H 0.79804 0.79602 0.2814 0.0
H203 H 0.71672 0.53042 0.42659 0.0
H204 H 0.634 0.66283 0.25381 0.0
H205 H 0.56848 0.64534 0.2193 0.0
H206 H 0.48831 0.52592 0.27596 0.0
H207 H 0.55351 0.54323 0.31008 0.0
H208 H 0.46948 0.5092 0.21083 0.0
H209 H 0.46304 0.66156 0.24445 0.0
H210 H 0.51539 0.67217 0.22681 0.0
H211 H 0.4979 0.6446 0.26593 0.0
C212 C 0.60251 0.63262 0.25862 0.0
C213 C 0.59935 0.60411 0.2845 0.0
C214 C 0.56472 0.6228 0.23907 0.0
C215 C 0.52258 0.58442 0.24503 0.0
C216 C 0.51992 0.55573 0.27056 0.0
H217 H 0.25333 0.52815 0.18758 0.0
H218 H 0.32432 0.54857 0.21495 0.0
C219 C 0.55741 0.56569 0.29017 0.0
C220 C 0.48109 0.57403 0.22532 0.0
H221 H 0.41053 0.61399 0.20519 0.0
C222 C 0.45695 0.5324 0.20942 0.0
C223 C 0.46351 0.60351 0.22373 0.0
C224 C 0.48595 0.6478 0.24135 0.0
C225 C 0.41668 0.51977 0.19207 0.0
C226 C 0.39936 0.5495 0.19013 0.0
C227 C 0.42338 0.59102 0.20621 0.0
C228 C 0.35587 0.53772 0.17261 0.0
C229 C 0.39239 0.4739 0.17681 0.0
C230 C 0.34921 0.52539 0.13919 0.0
C231 C 0.30835 0.51375 0.1233 0.0
C232 C 0.27259 0.51415 0.14019 0.0
C233 C 0.27967 0.52733 0.17348 0.0
C234 C 0.32057 0.53909 0.1893 0.0
H235 H 0.40258 0.45102 0.18805 0.0
H236 H 0.3555 0.45878 0.17942 0.0
H237 H 0.4007 0.47665 0.15025 0.0
H238 H 0.37575 0.52486 0.12518 0.0
H239 H 0.30469 0.50395 0.09773 0.0
H240 H 0.67075 0.83309 0.79258 0.0
H241 H 0.64947 0.88305 0.82015 0.0
H242 H 0.53944 0.76979 0.8676 0.0
H243 H 0.56118 0.71993 0.84079 0.0
H244 H 0.57832 0.89374 0.81936 0.0
H245 H 0.59345 0.84653 0.94631 0.0
H246 H 0.61303 0.82892 0.91135 0.0
H247 H 0.55455 0.79936 0.92256 0.0
C248 C 0.64221 0.81871 0.8091 0.0
C249 C 0.61821 0.77212 0.81458 0.0
C250 C 0.62986 0.8475 0.82487 0.0
C251 C 0.5932 0.83088 0.84685 0.0
C252 C 0.56864 0.78423 0.85175 0.0
H253 H 0.46369 0.98475 0.91847 0.0
H254 H 0.48358 0.93642 0.88638 0.0
C255 C 0.58102 0.75546 0.83607 0.0
C256 C 0.58053 0.86207 0.86424 0.0
H257 H 0.55901 0.89103 0.94015 0.0
C258 C 0.57408 0.89296 0.84579 0.0
C259 C 0.57562 0.86234 0.89892 0.0
C260 C 0.58497 0.83287 0.92099 0.0
C261 C 0.56254 0.92309 0.86071 0.0
C262 C 0.55615 0.92232 0.89526 0.0
C263 C 0.56308 0.89174 0.9137 0.0
C264 C 0.54458 0.9541 0.91309 0.0
C265 C 0.55953 0.95709 0.83942 0.0
C266 C 0.5714 0.98036 0.93929 0.0
C267 C 0.55996 1.00792 0.95759 0.0
C268 C 0.52145 1.0108 0.95033 0.0
C269 C 0.49441 0.9847 0.92411 0.0
C270 C 0.5059 0.95692 0.90568 0.0
H271 H 0.57457 0.95983 0.81473 0.0
H272 H 0.52386 0.94753 0.83611 0.0
H273 H 0.57711 0.99029 0.85139 0.0
H274 H 0.60122 0.97914 0.94599 0.0
H275 H 0.58114 1.0267 0.97798 0.0
H276 H 0.309 0.81892 0.43493 0.0
H277 H 0.25975 0.7485 0.46322 0.0
H278 H 0.35125 0.79059 0.54481 0.0
H279 H 0.39961 0.86183 0.51722 0.0
H280 H 0.26324 0.67926 0.48365 0.0
H281 H 0.24077 0.75734 0.59509 0.0
H282 H 0.26898 0.7895 0.55908 0.0
H283 H 0.29861 0.7745 0.58823 0.0
C284 C 0.31888 0.81327 0.45886 0.0
C285 C 0.35856 0.84671 0.47366 0.0
C286 C 0.29043 0.77268 0.47517 0.0
C287 C 0.30059 0.76386 0.50685 0.0
C288 C 0.34121 0.7965 0.52105 0.0
H289 H 0.15848 0.49039 0.59505 0.0
H290 H 0.20895 0.55699 0.56273 0.0
C291 C 0.36937 0.83736 0.50495 0.0
C292 C 0.26881 0.72086 0.52479 0.0
H293 H 0.21441 0.67951 0.59817 0.0
C294 C 0.25241 0.67949 0.50866 0.0
C295 C 0.25349 0.72024 0.55736 0.0
C296 C 0.26597 0.76277 0.57583 0.0
C297 C 0.22217 0.63828 0.52393 0.0
C298 C 0.20827 0.63751 0.55703 0.0
C299 C 0.22456 0.67904 0.573 0.0
C300 C 0.17627 0.59492 0.57554 0.0
C301 C 0.20491 0.59633 0.50371 0.0
C302 C 0.14121 0.59318 0.59479 0.0
C303 C 0.11339 0.55558 0.61417 0.0
C304 C 0.11841 0.51755 0.61425 0.0
C305 C 0.15278 0.51854 0.59478 0.0
C306 C 0.18161 0.55683 0.57604 0.0
H307 H 0.20405 0.60338 0.47718 0.0
H308 H 0.22782 0.58262 0.50659 0.0
H309 H 0.1708 0.57054 0.51138 0.0
H310 H 0.13555 0.62135 0.59525 0.0
H311 H 0.0878 0.55629 0.62933 0.0
H312 H 0.68075 0.59922 0.81099 0.0
H313 H 0.66279 0.53168 0.84283 0.0
H314 H 0.56877 0.45044 0.76814 0.0
H315 H 0.5893 0.51726 0.73556 0.0
H316 H 0.59924 0.46989 0.87327 0.0
H317 H 0.62791 0.38047 0.77272 0.0
H318 H 0.64129 0.43765 0.76835 0.0
H319 H 0.58498 0.39247 0.761 0.0
C320 C 0.65645 0.56686 0.80136 0.0
C321 C 0.63663 0.56383 0.77057 0.0
C322 C 0.64601 0.52795 0.81964 0.0
C323 C 0.6152 0.48477 0.80783 0.0
C324 C 0.59425 0.48235 0.77758 0.0
H325 H 0.49198 0.24918 0.94096 0.0
H326 H 0.5135 0.31883 0.91184 0.0
C327 C 0.60559 0.52095 0.75899 0.0
C328 C 0.60456 0.44263 0.82701 0.0
H329 H 0.58593 0.33567 0.81847 0.0
C330 C 0.59688 0.44081 0.86117 0.0
C331 C 0.60226 0.40419 0.8121 0.0
C332 C 0.61508 0.40398 0.77664 0.0
C333 C 0.58648 0.40242 0.88028 0.0
C334 C 0.58085 0.36281 0.86491 0.0
C335 C 0.58927 0.36499 0.83084 0.0
C336 C 0.56709 0.31924 0.8833 0.0
C337 C 0.58349 0.40593 0.91703 0.0
C338 C 0.58766 0.29339 0.87641 0.0
C339 C 0.57377 0.25204 0.89219 0.0
C340 C 0.53955 0.2354 0.91614 0.0
C341 C 0.51917 0.26119 0.92328 0.0
C342 C 0.53198 0.30173 0.9067 0.0
H343 H 0.60463 0.44098 0.92546 0.0
H344 H 0.54836 0.39529 0.92401 0.0
H345 H 0.59435 0.38483 0.93021 0.0
H346 H 0.61468 0.30509 0.85864 0.0
H347 H 0.59015 0.23318 0.88577 0.0
H348 H 0.52727 0.10019 0.47394 0.0
H349 H 0.59457 0.14761 0.50701 0.0
H350 H 0.67136 0.10685 0.44703 0.0
H351 H 0.60445 0.05944 0.41452 0.0
H352 H 0.69335 0.10954 0.51178 0.0
H353 H 0.6989 0.26804 0.47868 0.0
H354 H 0.6476 0.22704 0.49781 0.0
H355 H 0.66276 0.21605 0.45803 0.0
C356 C 0.55836 0.10082 0.46824 0.0
C357 C 0.56012 0.07524 0.4419 0.0
C358 C 0.59714 0.12847 0.48691 0.0
C359 C 0.63886 0.13173 0.47947 0.0
C360 C 0.64009 0.10536 0.45356 0.0
H361 H 0.91146 0.34511 0.53001 0.0
H362 H 0.83936 0.2945 0.50383 0.0
C363 C 0.6016 0.07807 0.43491 0.0
C364 C 0.68152 0.16284 0.49784 0.0
H365 H 0.75408 0.27328 0.5156 0.0
C366 C 0.70641 0.14532 0.51268 0.0
C367 C 0.69957 0.20987 0.49886 0.0
C368 C 0.67616 0.23161 0.48229 0.0
C369 C 0.74808 0.17295 0.52827 0.0
C370 C 0.76585 0.21998 0.52977 0.0
C371 C 0.74096 0.23749 0.51484 0.0
C372 C 0.81024 0.25146 0.54614 0.0
C373 C 0.77329 0.15129 0.54204 0.0
C374 C 0.81872 0.24524 0.57898 0.0
C375 C 0.86021 0.27408 0.59392 0.0
C376 C 0.89468 0.31081 0.57689 0.0
C377 C 0.88606 0.31742 0.54413 0.0
C378 C 0.84451 0.28837 0.52909 0.0
H379 H 0.76261 0.11838 0.5304 0.0
H380 H 0.81001 0.17284 0.53851 0.0
H381 H 0.76626 0.14552 0.56874 0.0
H382 H 0.79311 0.21802 0.5933 0.0
H383 H 0.8655 0.26721 0.61889 0.0
H384 H 1.02966 0.44158 0.14612 0.0
H385 H 0.98244 0.46147 0.18005 0.0
H386 H 0.99352 0.5559 0.10641 0.0
H387 H 1.03993 0.53597 0.07261 0.0
H388 H 1.00802 0.58713 0.17852 0.0
H389 H 0.8482 0.43054 0.1528 0.0
H390 H 0.89665 0.42641 0.16411 0.0
H391 H 0.89599 0.45095 0.12553 0.0
C392 C 1.02243 0.4669 0.13737 0.0
C393 C 1.03934 0.48761 0.10675 0.0
C394 C 0.99516 0.47814 0.15672 0.0
C395 C 0.98413 0.51035 0.14594 0.0
C396 C 1.00132 0.53109 0.11551 0.0
H397 H 0.77581 0.57487 0.20061 0.0
H398 H 0.82556 0.55253 0.17366 0.0
C399 C 1.02793 0.51953 0.09611 0.0
C400 C 0.95403 0.52207 0.16558 0.0
H401 H 0.84384 0.48423 0.18576 0.0
C402 C 0.97217 0.56443 0.18036 0.0
C403 C 0.90705 0.49301 0.16771 0.0
C404 C 0.88539 0.44768 0.15165 0.0
C405 C 0.94491 0.5783 0.19705 0.0
C406 C 0.89777 0.54913 0.19932 0.0
C407 C 0.87972 0.5068 0.18439 0.0
C408 C 0.86666 0.56218 0.21636 0.0
C409 C 0.9669 0.62479 0.21126 0.0
C410 C 0.87198 0.57449 0.24975 0.0
C411 C 0.84327 0.58713 0.26535 0.0
C412 C 0.80804 0.58788 0.24816 0.0
C413 C 0.80233 0.57487 0.21486 0.0
C414 C 0.83095 0.562 0.19932 0.0
H415 H 1.00032 0.64682 0.20002 0.0
H416 H 0.94566 0.64031 0.20769 0.0
H417 H 0.97176 0.62299 0.23802 0.0
H418 H 0.89838 0.5742 0.26394 0.0
H419 H 0.84905 0.59674 0.29097 0.0
H420 H 0.35164 0.16503 0.94123 0.0
H421 H 0.30546 0.19682 0.95887 0.0
H422 H 0.3139 0.16207 0.05919 0.0
H423 H 0.3609 0.1308 0.04179 0.0
H424 H 0.22469 0.16517 0.99217 0.0
H425 H 0.36472 0.29664 0.0648 0.0
H426 H 0.3725 0.2611 0.03619 0.0
H427 H 0.34903 0.24048 0.07617 0.0
C428 C 0.34315 0.16346 0.96702 0.0
C429 C 0.3603 0.14549 0.99007 0.0
C430 C 0.3167 0.18175 0.97708 0.0
C431 C 0.30689 0.1828 1.01046 0.0
C432 C 0.32176 0.16257 0.03337 0.0
H433 H 0.19111 0.32353 0.11392 0.0
H434 H 0.21894 0.27311 0.09891 0.0
C435 C 0.34823 0.14417 1.02331 0.0
C436 C 0.28303 0.20695 1.02116 0.0
H437 H 0.29595 0.296 0.0666 0.0
C438 C 0.24022 0.1937 1.00853 0.0
C439 C 0.30326 0.24439 0.0424 0.0
C440 C 0.35004 0.26188 0.05551 0.0
C441 C 0.21701 0.21645 1.01678 0.0
C442 C 0.23745 0.25412 0.03778 0.0
C443 C 0.28009 0.26709 0.05061 0.0
C444 C 0.21585 0.28119 0.04648 0.0
C445 C 0.17052 0.19945 1.0033 0.0
C446 C 0.20409 0.30227 1.02207 0.0
C447 C 0.1877 0.33095 0.03061 0.0
C448 C 0.18326 0.33968 0.0638 0.0
C449 C 0.19394 0.31758 0.08813 0.0
C450 C 0.21005 0.28878 0.07958 0.0
H451 H 0.15469 0.16373 0.99611 0.0
H452 H 0.14854 0.20325 1.02151 0.0
H453 H 0.17263 0.21897 0.98106 0.0
H454 H 0.20918 0.29796 0.99637 0.0
H455 H 0.18042 0.34779 1.0112 0.0
H456 H 1.00238 0.21688 0.62522 0.0
H457 H 0.96775 0.13667 0.636 0.0
H458 H 0.89804 0.15045 0.71954 0.0
H459 H 0.93466 0.23107 0.70987 0.0
H460 H 0.92103 0.09212 0.73367 0.0
H461 H 0.84388 0.04822 0.6106 0.0
H462 H 0.90379 0.07997 0.60786 0.0
H463 H 0.87318 0.10496 0.62527 0.0
C464 C 0.98026 0.20286 0.64622 0.0
C465 C 0.97129 0.23032 0.66669 0.0
C466 C 0.95992 0.15683 0.65211 0.0
C467 C 0.9289 0.13689 0.67794 0.0
C468 C 0.92148 0.16469 0.69928 0.0
H469 H 0.72648 0.8543 0.68595 0.0
H470 H 0.77028 0.93463 0.67548 0.0
C471 C 0.94264 0.21092 0.69384 0.0
C472 C 0.90378 0.08721 0.68249 0.0
H473 H 0.83936 0.98832 0.64237 0.0
C474 C 0.90306 0.06949 0.71369 0.0
C475 C 0.87926 0.05733 0.65672 0.0
C476 C 0.87459 0.07359 0.62337 0.0
C477 C 0.87911 1.02316 0.71977 0.0
C478 C 0.85668 0.99317 0.69355 0.0
C479 C 0.85707 1.01094 0.66242 0.0
C480 C 0.83109 0.94348 0.69812 0.0
C481 C 0.87684 1.00724 0.7546 0.0
C482 C 0.85076 0.92086 0.7133 0.0
C483 C 0.8254 0.87495 0.71989 0.0
C484 C 0.78021 0.85023 0.7104 0.0
C485 C 0.76133 0.87224 0.69331 0.0
C486 C 0.78638 0.91834 0.68744 0.0
H487 H 0.88273 1.03377 0.77265 0.0
H488 H 0.84378 0.97748 0.76006 0.0
H489 H 0.90335 0.99829 0.75824 0.0
H490 H 0.88557 0.93883 0.72066 0.0
H491 H 0.84096 0.85891 0.73293 0.0
H492 H 0.92159 0.77064 0.27892 0.0
H493 H 0.99973 0.81429 0.29628 0.0
H494 H 0.95759 0.79312 0.39765 0.0
H495 H 0.87913 0.74878 0.38046 0.0
H496 H 1.04762 0.89068 0.33412 0.0
H497 H 1.04402 0.74425 0.39371 0.0
H498 H 0.99992 0.73903 0.36702 0.0
H499 H 1.00257 0.75703 0.40877 0.0
C500 C 0.92878 0.77576 0.30494 0.0
C501 C 0.8939 0.75602 0.32826 0.0
C502 C 0.97361 0.80073 0.31484 0.0
C503 C 0.98481 0.80633 0.34829 0.0
C504 C 0.94996 0.78856 0.37168 0.0
H505 H 0.2409 0.91658 0.45006 0.0
H506 H 0.16234 0.88741 0.43551 0.0
C507 C 0.90499 0.76365 0.36179 0.0
C508 C 1.03295 0.8295 0.35841 0.0
H509 H 0.111 0.81353 0.39863 0.0
C510 C 1.06147 0.87383 0.34827 0.0
C511 C 1.05123 0.80752 0.37674 0.0
C512 C 1.02307 0.75923 0.38699 0.0
C513 C 0.10741 0.8969 0.35632 0.0
C514 C 0.12572 0.87487 0.37452 0.0
C515 C 0.09711 0.83059 0.38478 0.0
C516 C 0.17438 0.89678 0.38318 0.0
C517 C 0.13571 0.94496 0.34574 0.0
C518 C 0.20782 0.91256 0.3587 0.0
C519 C 0.25309 0.92969 0.367 0.0
C520 C 0.26587 0.93095 0.39997 0.0
C521 C 0.23243 0.91626 0.42443 0.0
C522 C 0.18733 0.89935 0.41613 0.0
H523 H 0.11484 0.9605 0.34046 0.0
H524 H 0.16062 0.96501 0.36486 0.0
H525 H 0.15415 0.9464 0.32294 0.0
H526 H 0.19881 0.91015 0.33303 0.0
H527 H 0.27776 0.94011 0.34748 0.0
H528 H 0.139 0.42352 0.4932 0.0
H529 H 0.14325 0.4142 0.43406 0.0
H530 H 0.10443 0.27587 0.44869 0.0
H531 H 0.09995 0.2849 0.50825 0.0
H532 H 0.17975 0.3381 0.39425 0.0
H533 H 1.01116 0.32351 0.39153 0.0
H534 H 1.05316 0.36814 0.41594 0.0
H535 H 1.03314 0.31122 0.4278 0.0
C536 C 0.13202 0.39128 0.48389 0.0
C537 C 0.1181 0.35458 0.5051 0.0
C538 C 0.13482 0.38614 0.45021 0.0
C539 C 0.12375 0.34432 0.43725 0.0
C540 C 0.11316 0.3084 0.45846 0.0
H541 H 1.03209 0.29194 0.23518 0.0
H542 H 1.043 0.27875 0.29235 0.0
C543 C 0.11058 0.31359 0.49234 0.0
C544 C 0.11734 0.33725 0.4016 0.0
H545 H 1.04801 0.33309 0.3406 0.0
C546 C 0.15074 0.33634 0.38238 0.0
C547 C 0.07914 0.3344 0.3865 0.0
C548 C 1.04182 0.33403 0.40641 0.0
C549 C 0.14769 0.33455 0.34795 0.0
C550 C 0.11067 0.33441 0.33276 0.0
C551 C 0.0764 0.33327 0.35225 0.0
C552 C 0.10776 0.33859 0.29683 0.0
C553 C 0.18419 0.33318 0.32825 0.0
C554 C 0.1409 0.37626 0.28023 0.0
C555 C 0.13494 0.38382 0.24745 0.0
C556 C 0.0952 0.35425 0.23083 0.0
C557 C 1.06294 0.31559 0.24721 0.0
C558 C 1.06911 0.30793 0.27991 0.0
H559 H 0.20089 0.31835 0.3427 0.0
H560 H 0.1708 0.31367 0.30529 0.0
H561 H 0.21003 0.36777 0.32158 0.0
H562 H 0.17065 0.4008 0.29295 0.0
H563 H 0.16132 0.41318 0.23548 0.0
H564 H 0.6819 0.75158 0.9031 0.0
H565 H 0.68837 0.77084 0.96113 0.0
H566 H 0.81898 0.78222 0.96388 0.0
H567 H 0.81209 0.76081 0.90633 0.0
H568 H 0.76145 0.72408 1.00889 0.0
H569 H 0.75981 0.88377 1.01551 0.0
H570 H 0.71462 0.84135 0.99191 0.0
H571 H 0.77144 0.86348 0.97793 0.0
C572 C 0.71196 0.75787 0.91593 0.0
C573 C 0.74588 0.7531 0.90016 0.0
C574 C 0.71599 0.76992 0.94902 0.0
C575 C 0.75427 0.77821 0.9667 0.0
C576 C 0.78921 0.77606 0.95058 0.0
H577 H 0.81761 0.82162 0.17419 0.0
H578 H 0.81823 0.83566 0.11507 0.0
C579 C 0.78513 0.76374 0.91765 0.0
C580 C 0.75532 0.78281 1.00278 0.0
H581 H 0.74674 0.84323 0.06607 0.0
C582 C 0.75878 0.75047 1.02133 0.0
C583 C 0.75171 0.81722 1.0189 0.0
C584 C 0.7496 0.8537 1.00006 0.0
C585 C 0.75784 0.75102 0.0556 0.0
C586 C 0.75279 0.78448 0.07171 0.0
C587 C 0.75026 0.8175 0.0534 0.0
C588 C 0.7493 0.78422 0.10771 0.0
C589 C 0.76167 0.71542 0.07447 0.0
C590 C 0.70979 0.75193 0.12295 0.0
C591 C 0.70943 0.74362 0.15644 0.0
C592 C 0.74868 0.7675 0.17507 0.0
C593 C 0.78703 0.8026 0.16029 0.0
C594 C 0.78742 0.81076 0.12665 0.0
H595 H 0.77214 0.69609 0.05851 0.0
H596 H 0.78622 0.73063 0.09474 0.0
H597 H 0.72865 0.69183 0.08556 0.0
H598 H 0.6801 0.73126 0.10854 0.0
H599 H 0.67903 0.71716 0.16743 0.0
H600 H 0.42486 1.03709 0.81743 0.0
H601 H 0.41217 1.03731 0.75879 0.0
H602 H 0.29527 0.04937 0.77769 0.0
H603 H 0.30824 0.05017 0.83709 0.0
H604 H 0.28513 0.98275 0.72855 0.0
H605 H 0.43327 0.1496 0.70578 0.0
H606 H 0.44557 0.1131 0.72937 0.0
H607 H 0.40886 0.13126 0.74611 0.0
C608 C 0.39688 1.0407 0.80936 0.0
C609 C 0.36831 1.04505 0.83207 0.0
C610 C 0.38954 1.04049 0.77572 0.0
C611 C 0.35342 1.04437 0.76397 0.0
C612 C 0.32366 0.04687 0.78639 0.0
H613 H 0.35611 0.09105 0.55213 0.0
H614 H 0.34291 0.09483 0.61094 0.0
C615 C 0.33107 0.04723 0.82023 0.0
C616 C 0.34718 1.04541 0.72814 0.0
H617 H 0.40216 0.10209 0.65894 0.0
C618 C 0.31023 1.00917 0.71328 0.0
C619 C 0.37966 0.08025 0.70838 0.0
C620 C 0.41888 0.121 0.72319 0.0
C621 C 0.30638 1.00557 0.67893 0.0
C622 C 0.34063 1.03885 0.65915 0.0
C623 C 0.37609 0.07641 0.67411 0.0
C624 C 0.34268 1.03374 0.62316 0.0
C625 C 0.26617 0.96579 0.66415 0.0
C626 C 0.34651 0.99796 0.61053 0.0
C627 C 0.3541 0.99575 0.57706 0.0
C628 C 0.35852 1.0296 0.55555 0.0
C629 C 0.35295 0.06452 0.56806 0.0
C630 C 0.34547 0.06677 0.60163 0.0
H631 H 0.23703 0.95194 0.68122 0.0
H632 H 0.25634 0.97468 0.64062 0.0
H633 H 0.27452 0.93914 0.65922 0.0
H634 H 0.34522 0.97248 0.62674 0.0
H635 H 0.35712 0.96778 0.5682 0.0
H636 H 0.20492 0.40172 0.95722 0.0
H637 H 0.2425 0.37212 0.9227 0.0
H638 H 0.33491 0.5056 0.88889 0.0
H639 H 0.29807 0.53541 0.92326 0.0
H640 H 0.30245 0.43839 0.83923 0.0
H641 H 0.36713 0.39086 0.94821 0.0
H642 H 0.30784 0.36856 0.94244 0.0
H643 H 0.34271 0.42617 0.95338 0.0
C644 C 0.23347 0.42482 0.9426 0.0
C645 C 0.24956 0.47124 0.94376 0.0
C646 C 0.25456 0.40769 0.92271 0.0
C647 C 0.2918 0.43674 0.90372 0.0
C648 C 0.30612 0.4826 0.90344 0.0
H649 H 0.53442 0.56182 0.87148 0.0
H650 H 0.46319 0.50141 0.89157 0.0
C651 C 0.2851 0.49966 0.92313 0.0
C652 C 0.31909 0.42157 0.88576 0.0
H653 H 0.41228 0.41398 0.90097 0.0
C654 C 0.32573 0.43131 0.85219 0.0
C655 C 0.34826 0.41095 0.90281 0.0
C656 C 0.34139 0.39841 0.9387 0.0
C657 C 0.36546 0.43941 0.83665 0.0
C658 C 0.39836 0.43582 0.85527 0.0
C659 C 0.38747 0.41763 0.88705 0.0
C660 C 0.44649 0.46283 0.84649 0.0
C661 C 0.37403 0.45777 0.80207 0.0
C662 C 0.46253 0.45975 0.81544 0.0
C663 C 0.50239 0.49544 0.80345 0.0
C664 C 0.52771 0.5333 0.82307 0.0
C665 C 0.51517 0.53316 0.85581 0.0
C666 C 0.47453 0.49837 0.86734 0.0
H667 H 0.34569 0.46103 0.79229 0.0
H668 H 0.40461 0.49127 0.80127 0.0
H669 H 0.37903 0.43513 0.78547 0.0
H670 H 0.44245 0.43179 0.79945 0.0
H671 H 0.51201 0.49453 0.77823 0.0
H672 H 0.53253 0.05306 0.55823 0.0
H673 H 0.56266 0.04938 0.61164 0.0
H674 H 0.61623 0.97133 0.56857 0.0
H675 H 0.58757 0.97603 0.51539 0.0
H676 H 0.52649 0.97342 0.63963 0.0
H677 H 0.70528 1.02926 0.63909 0.0
H678 H 0.68106 0.04899 0.60866 0.0
H679 H 0.68404 0.99877 0.60172 0.0
C680 C 0.55219 1.03652 0.55998 0.0
C681 C 0.55653 1.01358 0.53289 0.0
C682 C 0.56963 1.03469 0.59051 0.0
C683 C 0.59164 1.00997 0.59434 0.0
C684 C 0.60023 0.99141 0.56639 0.0
H685 H 0.51859 0.77618 0.66316 0.0
H686 H 0.52536 0.84803 0.65004 0.0
C687 C 0.58314 0.99351 0.53589 0.0
C688 C 0.59515 0.99345 0.62718 0.0
H689 H 0.65551 0.95166 0.66342 0.0
C690 C 0.55546 0.97026 0.6457 0.0
C691 C 0.63309 0.99032 0.63634 0.0
C692 C 0.67832 1.01875 0.6205 0.0
C693 C 0.55054 0.93842 0.66908 0.0
C694 C 0.58577 0.92915 0.67342 0.0
C695 C 0.6278 0.9576 0.65915 0.0
C696 C 0.57697 0.88535 0.68603 0.0
C697 C 0.50632 0.9123 0.68679 0.0
C698 C 0.60348 0.88234 0.71079 0.0
C699 C 0.59967 0.84109 0.71834 0.0
C700 C 0.56995 0.80235 0.70067 0.0
C701 C 0.5418 0.80524 0.67717 0.0
C702 C 0.54548 0.84635 0.66979 0.0
H703 H 0.49126 0.9337 0.69171 0.0
H704 H 0.48263 0.8842 0.67103 0.0
H705 H 0.5102 0.89854 0.71041 0.0
H706 H 0.62797 0.91204 0.72358 0.0
H707 H 0.6208 0.83992 0.73747 0.0
H708 H 0.13327 0.57545 0.21044 0.0
H709 H 0.14168 0.64493 0.23187 0.0
H710 H 0.10822 0.67536 0.13677 0.0
H711 H 0.10367 0.60748 0.11474 0.0
H712 H 0.18254 0.73692 0.14995 0.0
H713 H 0.09028 0.71639 0.26325 0.0
H714 H 0.11352 0.68068 0.26858 0.0
H715 H 0.07398 0.66969 0.23578 0.0
C716 C 0.12635 0.59633 0.19445 0.0
C717 C 0.11897 0.58692 0.16089 0.0
C718 C 0.1304 0.63589 0.20682 0.0
C719 C 0.12561 0.66582 0.18599 0.0
C720 C 0.11248 0.65321 0.15331 0.0
H721 H 0.29977 0.9064 0.29565 0.0
H722 H 0.23244 0.86527 0.26239 0.0
C723 C 0.11005 0.61449 0.14071 0.0
C724 C 0.14598 0.71344 0.1958 0.0
H725 H 0.17486 0.77407 0.26646 0.0
C726 C 0.1793 0.74546 0.17506 0.0
C727 C 0.14129 0.7262 0.22794 0.0
C728 C 0.10232 0.6963 0.24984 0.0
C729 C 0.21258 0.78641 0.18743 0.0
C730 C 0.21302 0.79483 0.22134 0.0
C731 C 0.17549 0.76668 0.24062 0.0
C732 C 0.25557 0.82467 0.23819 0.0
C733 C 0.24951 0.81827 0.16479 0.0
C734 C 0.29096 0.81563 0.23538 0.0
C735 C 0.32895 0.83814 0.25481 0.0
C736 C 0.33227 0.86992 0.27781 0.0
C737 C 0.29779 0.88081 0.27926 0.0
C738 C 0.25944 0.85787 0.2599 0.0
H739 H 0.23607 0.81769 0.13992 0.0
H740 H 0.26618 0.85301 0.17433 0.0
H741 H 0.27495 0.80762 0.1622 0.0
H742 H 0.28827 0.7894 0.21928 0.0
H743 H 0.35473 0.82895 0.25284 0.0
H744 H 0.49196 0.24163 0.13664 0.0
H745 H 0.4747 0.2996 0.1525 0.0
H746 H 0.45549 0.32044 0.05082 0.0
H747 H 0.47303 0.26292 0.03472 0.0
H748 H 0.51839 0.39365 0.07822 0.0
H749 H 0.37303 0.32644 0.16074 0.0
H750 H 0.40719 0.30289 0.17202 0.0
H751 H 0.3818 0.2916 0.13188 0.0
C752 C 0.48286 0.25772 0.11776 0.0
C753 C 0.48379 0.24755 0.08454 0.0
C754 C 0.47222 0.29033 0.12686 0.0
C755 C 0.46263 0.3136 0.10287 0.0
C756 C 0.46165 0.30214 0.06975 0.0
H757 H 0.59339 0.58019 0.18303 0.0
H758 H 0.5323 0.52875 0.14701 0.0
C759 C 0.47181 0.26921 0.06065 0.0
C760 C 0.4643 0.35585 0.11209 0.0
H761 H 0.43866 0.3996 0.17799 0.0
C762 C 0.49977 0.39539 0.09919 0.0
C763 C 0.43908 0.35819 0.13864 0.0
C764 C 0.3978 0.31738 0.15129 0.0
C765 C 0.51601 0.43597 0.11591 0.0
C766 C 0.4955 0.43666 0.14598 0.0
C767 C 0.45503 0.39881 0.15538 0.0
C768 C 0.52239 0.46904 0.17183 0.0
C769 C 0.55862 0.47591 0.10362 0.0
C770 C 0.53468 0.45271 0.19907 0.0
C771 C 0.56889 0.48178 0.21975 0.0
C772 C 0.59183 0.52782 0.21346 0.0
C773 C 0.57703 0.54465 0.18788 0.0
C774 C 0.54214 0.51537 0.16734 0.0
H775 H 0.57073 0.46894 0.08023 0.0
H776 H 0.55273 0.50429 0.09933 0.0
H777 H 0.58556 0.48631 0.12219 0.0
H778 H 0.51995 0.41708 0.20311 0.0
H779 H 0.57886 0.4678 0.23962 0.0
H780 H 0.8133 0.29719 0.76705 0.0
H781 H 0.74253 0.22661 0.77128 0.0
H782 H 0.75839 0.19319 0.67193 0.0
H783 H 0.82868 0.26418 0.66725 0.0
H784 H 0.66286 0.19096 0.72172 0.0
H785 H 0.74412 0.08743 0.73731 0.0
H786 H 0.77621 0.14611 0.74712 0.0
H787 H 0.76072 0.12904 0.70536 0.0
C788 C 0.80154 0.27507 0.74602 0.0
C789 C 0.82712 0.28569 0.71715 0.0
C790 C 0.76128 0.23483 0.74844 0.0
C791 C 0.74584 0.20476 0.72199 0.0
C792 C 0.77024 0.21582 0.69267 0.0
H793 H 0.51171 1.03515 0.8323 0.0
H794 H 0.54515 1.03914 0.77839 0.0
C795 C 0.81055 0.25617 0.69022 0.0
C796 C 0.7047 0.1615 0.72647 0.0
H797 H 0.6754 0.06378 0.76562 0.0
C798 C 0.6645 0.16195 0.73002 0.0
C799 C 0.70707 0.12353 0.7362 0.0
C800 C 0.74921 0.12102 0.73124 0.0
C801 C 0.62907 0.12894 0.74844 0.0
C802 C 0.63471 0.09501 0.76346 0.0
C803 C 0.67159 0.09027 0.75455 0.0
C804 C 0.61349 0.07697 0.79566 0.0
C805 C 0.58914 0.1347 0.75565 0.0
C806 C 0.64083 0.09315 0.8236 0.0
C807 C 0.62199 0.09059 0.85436 0.0
C808 C 0.57552 0.072 0.85759 0.0
C809 C 0.54784 0.05081 0.83033 0.0
C810 C 0.5668 0.05293 0.79951 0.0
H811 H 0.59021 0.1628 0.7416 0.0
H812 H 0.55775 0.10375 0.74914 0.0
H813 H 0.5879 0.14126 0.78222 0.0
H814 H 0.67703 0.11165 0.82125 0.0
H815 H 0.6441 0.10635 0.87501 0.0
H816 H 0.08943 0.50775 0.50227 0.0
H817 H 0.09762 0.56448 0.46249 0.0
H818 H 1.02868 0.60739 0.52929 0.0
H819 H 1.02226 0.55262 0.56916 0.0
H820 H 1.02751 0.55463 0.43517 0.0
H821 H 0.10441 0.72278 0.48529 0.0
H822 H 0.11569 0.6812 0.50267 0.0
H823 H 1.0695 0.68744 0.51762 0.0
C824 C 0.07737 0.53037 0.50877 0.0
C825 C 1.05425 0.52517 0.53843 0.0
C826 C 0.08241 0.563 0.48614 0.0
C827 C 1.06414 0.59062 0.49283 0.0
C828 C 1.0443 0.5876 0.52366 0.0
H829 H 0.85624 0.60392 0.46296 0.0
H830 H 0.93179 0.6179 0.47464 0.0
C831 C 1.03961 0.55538 0.54627 0.0
C832 C 1.05439 0.61327 0.46587 0.0
H833 H 1.02636 0.6947 0.4598 0.0
C834 C 1.02914 0.58641 0.43947 0.0
C835 C 1.05747 0.65529 0.47058 0.0
C836 C 0.0888 0.68837 0.49544 0.0
C837 C 1.0002 0.59631 0.42204 0.0
C838 C 0.99705 0.63414 0.43124 0.0
C839 C 1.02792 0.66493 0.45358 0.0
C840 C 0.95562 0.63533 0.42458 0.0
C841 C 0.96898 0.56317 0.39704 0.0
C842 C 0.9445 0.64127 0.39272 0.0
C843 C 0.90123 0.63282 0.38591 0.0
C844 C 0.86849 0.61852 0.411 0.0
C845 C 0.88055 0.61462 0.44316 0.0
C846 C 0.92382 0.62314 0.4499 0.0
H847 H 0.97576 0.53525 0.39293 0.0
H848 H 0.93366 0.54896 0.40531 0.0
H849 H 0.97266 0.58029 0.37324 0.0
H850 H 0.96855 0.65028 0.37287 0.0
H851 H 0.89307 0.63535 0.36066 0.0
H852 H 1.02297 0.36851 0.72107 0.0
H853 H 1.02471 0.36058 0.78114 0.0
H854 H 0.11196 0.50273 0.78992 0.0
H855 H 0.1097 0.5109 0.73087 0.0
H856 H 0.14204 0.45068 0.82557 0.0
H857 H 0.96455 0.4002 0.85359 0.0
H858 H 0.97482 0.36934 0.82239 0.0
H859 H 0.99104 0.42668 0.81528 0.0
C860 C 1.04191 0.39806 0.73579 0.0
C861 C 1.06579 0.44032 0.72068 0.0
C862 C 1.04306 0.39353 0.77027 0.0
C863 C 1.06851 0.43114 0.79039 0.0
C864 C 0.09221 0.4731 0.77525 0.0
H865 H 1.07031 0.50354 0.99122 0.0
H866 H 1.06623 0.49122 0.93213 0.0
C867 C 0.09073 0.47764 0.74117 0.0
C868 C 1.07136 0.42787 0.8271 0.0
H869 H 1.01186 0.41154 0.89842 0.0
C870 C 0.11338 0.44141 0.84149 0.0
C871 C 1.03424 0.41628 0.84811 0.0
C872 C 0.98854 0.4025 0.83431 0.0
C873 C 0.11943 0.44462 0.87594 0.0
C874 C 0.08253 0.43406 0.89698 0.0
C875 C 1.04027 0.41948 0.88257 0.0
C876 C 0.08765 0.44209 0.93355 0.0
C877 C 0.16574 0.4613 0.88953 0.0
C878 C 0.10171 0.41906 0.95473 0.0
C879 C 0.10397 0.42606 0.98911 0.0
C880 C 0.09269 0.45657 1.00302 0.0
C881 C 0.07948 0.47991 0.98159 0.0
C882 C 0.07697 0.47279 0.94758 0.0
H883 H 0.19194 0.47453 0.87006 0.0
H884 H 0.17378 0.48801 0.90787 0.0
H885 H 0.16684 0.43337 0.90205 0.0
H886 H 0.10968 0.39472 0.94484 0.0
H887 H 0.11314 0.40664 1.0048 0.0
H888 H 0.72416 0.63084 0.66966 0.0
H889 H 0.73447 0.63727 0.61033 0.0
H890 H 0.64781 0.69395 0.60419 0.0
H891 H 0.63881 0.68893 0.66427 0.0
H892 H 0.67399 0.59322 0.56713 0.0
H893 H 0.74118 0.77219 0.53875 0.0
H894 H 0.73926 0.75235 0.58005 0.0
H895 H 0.68986 0.74852 0.56184 0.0
C896 C 0.70827 0.64594 0.65585 0.0
C897 C 0.68083 0.65961 0.67197 0.0
C898 C 0.71398 0.64933 0.62169 0.0
C899 C 0.69206 0.6661 0.60218 0.0
C900 C 0.666 0.68167 0.61834 0.0
H901 H 0.61126 0.58609 0.40132 0.0
H902 H 0.61976 0.59744 0.46043 0.0
C903 C 0.66078 0.67883 0.65289 0.0
C904 C 0.69354 0.66299 0.56521 0.0
H905 H 0.71421 0.72176 0.49312 0.0
C906 C 0.68318 0.62163 0.55115 0.0
C907 C 0.70602 0.69983 0.54379 0.0
C908 C 0.72017 0.74584 0.55684 0.0
C909 C 0.684 0.61585 0.51691 0.0
C910 C 0.69444 0.65207 0.49545 0.0
C911 C 0.70592 0.69379 0.50934 0.0
C912 C 0.6905 0.64602 0.45875 0.0
C913 C 0.67389 0.57078 0.504 0.0
C914 C 0.72732 0.66999 0.4374 0.0
C915 C 0.72249 0.66351 0.40302 0.0
C916 C 0.68066 0.63307 0.3893 0.0
C917 C 0.64411 0.60952 0.41084 0.0
C918 C 0.64893 0.61587 0.44487 0.0
H919 H 0.68024 0.55138 0.52287 0.0
H920 H 0.63797 0.5513 0.49715 0.0
H921 H 0.69438 0.57423 0.48189 0.0
H922 H 0.7598 0.69366 0.44732 0.0
H923 H 0.75112 0.68289 0.38722 0.0
H924 H 0.43238 0.07285 0.05383 0.0
H925 H 0.42179 0.06923 0.11417 0.0
H926 H 0.53186 1.04439 0.12566 0.0
H927 H 0.54234 0.04769 0.06622 0.0
H928 H 0.41487 0.98507 0.15953 0.0
H929 H 0.55071 0.15731 0.1883 0.0
H930 H 0.51919 0.14382 0.1505 0.0
H931 H 0.5608 0.12761 0.156 0.0
C932 C 0.45463 0.06722 0.0693 0.0
C933 C 0.48846 0.06091 0.055 0.0
C934 C 0.44834 0.06479 0.10381 0.0
C935 C 0.47593 0.0563 0.12469 0.0
C936 C 0.51005 0.05087 0.11034 0.0
H937 H 0.54645 1.04495 0.32467 0.0
H938 H 0.53818 0.04997 0.26566 0.0
C939 C 0.51602 0.05287 0.07617 0.0
C940 C 0.46984 0.05254 0.16143 0.0
H941 H 0.52076 0.10663 0.23266 0.0
C942 C 0.43741 1.01192 0.17561 0.0
C943 C 0.49953 0.0872 0.18256 0.0
C944 C 0.5345 0.13166 0.16882 0.0
C945 C 0.43511 1.00456 0.21001 0.0
C946 C 0.46575 1.03892 0.23118 0.0
C947 C 0.49719 0.08001 0.21687 0.0
C948 C 0.46844 1.03234 0.26771 0.0
C949 C 0.40152 0.95917 0.22321 0.0
C950 C 0.43189 1.02008 0.28937 0.0
C951 C 0.43661 1.01699 0.32366 0.0
C952 C 0.47795 1.026 0.33716 0.0
C953 C 0.51401 1.03756 0.31535 0.0
C954 C 0.50935 1.04059 0.28137 0.0
H955 H 0.38677 0.93371 0.20345 0.0
H956 H 0.41749 0.94777 0.24151 0.0
H957 H 0.37382 0.96121 0.23559 0.0
H958 H 0.40007 1.01431 0.27996 0.0
H959 H 0.40839 1.00902 0.33965 0.0
loop_
_geom_bond_atom_site_label_1
_geom_bond_atom_site_label_2
_geom_bond_distance
_geom_bond_site_symmetry_2
_ccdc_geom_bond_type
Zn0 N4 2.020 . S
Zn0 O8 2.019 . S
Zn0 N10 2.119 . S
Zn0 O18 1.975 . S
C1 N2 1.334 . S
C1 N5 1.336 . S
N2 C1 1.334 . S
N2 C3 1.334 . S
C3 N2 1.334 . S
C3 N4 1.336 . S
N4 Zn0 2.020 . S
N4 C3 1.336 . S
N4 N5 1.354 . S
N5 C1 1.336 . S
N5 N4 1.354 . S
N5 Zn9 2.020 . S
C6 O7 1.244 . S
C6 O30 1.257 . S
O7 C6 1.244 . S
O8 Zn0 2.019 . S
O8 C28 1.257 . S
Zn9 N5 2.020 . S
Zn9 O16 1.975 . S
Zn9 N25 2.119 . S
Zn9 O30 2.019 . S
N10 Zn0 2.119 . S
N10 C12 1.334 . S
N10 C13 1.328 . S
C11 C12 1.391 . S
C11 N14 1.329 . S
C11 H32 0.930 . S
C12 N10 1.334 . S
C12 C11 1.391 . S
C12 H19 0.930 . S
C13 N10 1.328 . S
C13 C15 1.392 . S
C13 H20 0.930 . S
N14 C11 1.329 . S
N14 C15 1.331 . S
C15 C13 1.392 . S
C15 N14 1.331 . S
O16 Zn9 1.975 . S
O16 C17 1.252 . S
C17 O16 1.252 . S
C17 O18 1.252 . S
O18 Zn0 1.975 . S
O18 C17 1.252 . S
H19 C12 0.930 . S
H20 C13 0.930 . S
C21 C22 1.392 1_554 S
C21 N25 1.328 . S
C21 H27 0.930 1_554 S
C22 C21 1.392 1_556 S
C22 N26 1.331 1_556 S
C23 C24 1.391 . S
C23 N26 1.329 . S
C23 H33 0.930 . S
C24 C23 1.391 . S
C24 N25 1.334 . S
C24 H31 0.930 . S
N25 Zn9 2.119 . S
N25 C21 1.328 . S
N25 C24 1.334 . S
N26 C22 1.331 1_554 S
N26 C23 1.329 . S
H27 C21 0.930 1_556 S
C28 O8 1.257 . S
C28 O29 1.244 . S
O29 C28 1.244 . S
O30 C6 1.257 . S
O30 Zn9 2.019 . S
H31 C24 0.930 . S
H32 C11 0.930 . S
H33 C23 0.930 . S
Zn34 N38 2.020 . S
Zn34 O42 2.019 . S
Zn34 N44 2.119 . S
Zn34 O52 1.975 . S
C35 N36 1.334 . S
C35 N39 1.336 . S
N36 C35 1.334 . S
N36 C37 1.334 . S
C37 N36 1.334 . S
C37 N38 1.336 . S
N38 Zn34 2.020 . S
N38 C37 1.336 . S
N38 N39 1.354 . S
N39 C35 1.336 . S
N39 N38 1.354 . S
N39 Zn43 2.020 . S
C40 O41 1.244 . S
C40 O64 1.257 . S
O41 C40 1.244 . S
O42 Zn34 2.019 . S
O42 C62 1.257 . S
Zn43 N39 2.020 . S
Zn43 O50 1.975 . S
Zn43 N59 2.119 . S
Zn43 O64 2.019 . S
N44 Zn34 2.119 . S
N44 C46 1.334 . S
N44 C47 1.328 . S
C45 C46 1.391 . S
C45 N48 1.329 . S
C45 H66 0.930 . S
C46 N44 1.334 . S
C46 C45 1.391 . S
C46 H53 0.930 . S
C47 N44 1.328 . S
C47 C49 1.392 . S
C47 H54 0.930 . S
N48 C45 1.329 . S
N48 C49 1.331 . S
C49 C47 1.392 . S
C49 N48 1.331 . S
O50 Zn43 1.975 . S
O50 C51 1.252 . S
C51 O50 1.252 . S
C51 O52 1.252 . S
O52 Zn34 1.975 . S
O52 C51 1.252 . S
H53 C46 0.930 . S
H54 C47 0.930 . S
C55 C56 1.392 . S
C55 N59 1.328 . S
C55 H61 0.930 . S
C56 C55 1.392 . S
C56 N60 1.331 . S
C57 C58 1.391 . S
C57 N60 1.329 . S
C57 H67 0.930 . S
C58 C57 1.391 . S
C58 N59 1.334 . S
C58 H65 0.930 . S
N59 Zn43 2.119 . S
N59 C55 1.328 . S
N59 C58 1.334 . S
N60 C56 1.331 . S
N60 C57 1.329 . S
H61 C55 0.930 . S
C62 O42 1.257 . S
C62 O63 1.244 . S
O63 C62 1.244 . S
O64 C40 1.257 . S
O64 Zn43 2.019 . S
H65 C58 0.930 . S
H66 C45 0.930 . S
H67 C57 0.930 . S
Zn68 N72 2.020 . S
Zn68 O76 2.019 . S
Zn68 N78 2.119 . S
Zn68 O86 1.975 . S
C69 N70 1.334 . S
C69 N73 1.336 . S
N70 C69 1.334 . S
N70 C71 1.334 . S
C71 N70 1.334 . S
C71 N72 1.336 . S
N72 Zn68 2.020 . S
N72 C71 1.336 . S
N72 N73 1.354 . S
N73 C69 1.336 . S
N73 N72 1.354 . S
N73 Zn77 2.020 . S
C74 O75 1.244 . S
C74 O98 1.257 . S
O75 C74 1.244 . S
O76 Zn68 2.019 . S
O76 C96 1.257 . S
Zn77 N73 2.020 . S
Zn77 O84 1.975 . S
Zn77 N93 2.119 . S
Zn77 O98 2.019 . S
N78 Zn68 2.119 . S
N78 C80 1.334 . S
N78 C81 1.328 . S
C79 C80 1.391 . S
C79 N82 1.329 . S
C79 H100 0.930 . S
C80 N78 1.334 . S
C80 C79 1.391 . S
C80 H87 0.930 . S
C81 N78 1.328 . S
C81 C83 1.392 . S
C81 H88 0.930 . S
N82 C79 1.329 . S
N82 C83 1.331 . S
C83 C81 1.392 . S
C83 N82 1.331 . S
O84 Zn77 1.975 . S
O84 C85 1.252 . S
C85 O84 1.252 . S
C85 O86 1.252 . S
O86 Zn68 1.975 . S
O86 C85 1.252 . S
H87 C80 0.930 . S
H88 C81 0.930 . S
C89 C90 1.392 . S
C89 N93 1.328 . S
C89 H95 0.930 . S
C90 C89 1.392 . S
C90 N94 1.331 . S
C91 C92 1.391 . S
C91 N94 1.329 . S
C91 H101 0.930 . S
C92 C91 1.391 . S
C92 N93 1.334 . S
C92 H99 0.930 . S
N93 Zn77 2.119 . S
N93 C89 1.328 . S
N93 C92 1.334 . S
N94 C90 1.331 . S
N94 C91 1.329 . S
H95 C89 0.930 . S
C96 O76 1.257 . S
C96 O97 1.244 . S
O97 C96 1.244 . S
O98 C74 1.257 . S
O98 Zn77 2.019 . S
H99 C92 0.930 . S
H100 C79 0.930 . S
H101 C91 0.930 . S
Zn102 N106 2.020 . S
Zn102 O110 2.019 . S
Zn102 N112 2.119 . S
Zn102 O120 1.975 . S
C103 N104 1.334 . S
C103 N107 1.336 . S
N104 C103 1.334 . S
N104 C105 1.334 . S
C105 N104 1.334 . S
C105 N106 1.336 . S
N106 Zn102 2.020 . S
N106 C105 1.336 . S
N106 N107 1.354 . S
N107 C103 1.336 . S
N107 N106 1.354 . S
N107 Zn111 2.020 . S
C108 O109 1.244 . S
C108 O132 1.257 . S
O109 C108 1.244 . S
O110 Zn102 2.019 . S
O110 C130 1.257 . S
Zn111 N107 2.020 . S
Zn111 O118 1.975 . S
Zn111 N127 2.119 . S
Zn111 O132 2.019 . S
N112 Zn102 2.119 . S
N112 C114 1.334 . S
N112 C115 1.328 . S
C113 C114 1.391 . S
C113 N116 1.329 . S
C113 H134 0.930 . S
C114 N112 1.334 . S
C114 C113 1.391 . S
C114 H121 0.930 . S
C115 N112 1.328 . S
C115 C117 1.392 1_556 S
C115 H122 0.930 1_556 S
N116 C113 1.329 . S
N116 C117 1.331 1_556 S
C117 C115 1.392 1_554 S
C117 N116 1.331 1_554 S
O118 Zn111 1.975 . S
O118 C119 1.252 . S
C119 O118 1.252 . S
C119 O120 1.252 . S
O120 Zn102 1.975 . S
O120 C119 1.252 . S
H121 C114 0.930 . S
H122 C115 0.930 1_554 S
C123 C124 1.392 . S
C123 N127 1.328 . S
C123 H129 0.930 . S
C124 C123 1.392 . S
C124 N128 1.331 . S
C125 C126 1.391 . S
C125 N128 1.329 . S
C125 H135 0.930 . S
C126 C125 1.391 . S
C126 N127 1.334 . S
C126 H133 0.930 . S
N127 Zn111 2.119 . S
N127 C123 1.328 . S
N127 C126 1.334 . S
N128 C124 1.331 . S
N128 C125 1.329 . S
H129 C123 0.930 . S
C130 O110 1.257 . S
C130 O131 1.244 . S
O131 C130 1.244 . S
O132 C108 1.257 . S
O132 Zn111 2.019 . S
H133 C126 0.930 . S
H134 C113 0.930 . S
H135 C125 0.930 . S
Zn136 N140 2.020 . S
Zn136 O144 2.019 . S
Zn136 N146 2.119 . S
Zn136 O154 1.975 . S
C137 N138 1.334 . S
C137 N141 1.336 . S
N138 C137 1.334 . S
N138 C139 1.334 . S
C139 N138 1.334 . S
C139 N140 1.336 . S
N140 Zn136 2.020 . S
N140 C139 1.336 . S
N140 N141 1.354 . S
N141 C137 1.336 . S
N141 N140 1.354 . S
N141 Zn145 2.020 . S
C142 O143 1.244 . S
C142 O166 1.257 . S
O143 C142 1.244 . S
O144 Zn136 2.019 . S
O144 C164 1.257 . S
Zn145 N141 2.020 . S
Zn145 O152 1.975 . S
Zn145 N161 2.119 . S
Zn145 O166 2.019 . S
N146 Zn136 2.119 . S
N146 C148 1.334 . S
N146 C149 1.328 . S
C147 C148 1.391 . S
C147 N150 1.329 . S
C147 H168 0.930 . S
C148 N146 1.334 . S
C148 C147 1.391 . S
C148 H155 0.930 . S
C149 N146 1.328 . S
C149 C151 1.392 . S
C149 H156 0.930 . S
N150 C147 1.329 . S
N150 C151 1.331 . S
C151 C149 1.392 . S
C151 N150 1.331 . S
O152 Zn145 1.975 . S
O152 C153 1.252 . S
C153 O152 1.252 . S
C153 O154 1.252 . S
O154 Zn136 1.975 . S
O154 C153 1.252 . S
H155 C148 0.930 . S
H156 C149 0.930 . S
C157 C158 1.392 . S
C157 N161 1.328 . S
C157 H163 0.930 . S
C158 C157 1.392 . S
C158 N162 1.331 . S
C159 C160 1.391 . S
C159 N162 1.329 . S
C159 H169 0.930 . S
C160 C159 1.391 . S
C160 N161 1.334 . S
C160 H167 0.930 . S
N161 Zn145 2.119 . S
N161 C157 1.328 . S
N161 C160 1.334 . S
N162 C158 1.331 . S
N162 C159 1.329 . S
H163 C157 0.930 . S
C164 O144 1.257 . S
C164 O165 1.244 . S
O165 C164 1.244 . S
O166 C142 1.257 . S
O166 Zn145 2.019 . S
H167 C160 0.930 . S
H168 C147 0.930 . S
H169 C159 0.930 . S
Zn170 N174 2.020 . S
Zn170 O178 2.019 . S
Zn170 N180 2.119 . S
Zn170 O188 1.975 . S
C171 N172 1.334 . S
C171 N175 1.336 . S
N172 C171 1.334 . S
N172 C173 1.334 . S
C173 N172 1.334 . S
C173 N174 1.336 . S
N174 Zn170 2.020 . S
N174 C173 1.336 . S
N174 N175 1.354 . S
N175 C171 1.336 . S
N175 N174 1.354 . S
N175 Zn179 2.020 . S
C176 O177 1.244 . S
C176 O200 1.257 . S
O177 C176 1.244 . S
O178 Zn170 2.019 . S
O178 C198 1.257 . S
Zn179 N175 2.020 . S
Zn179 O186 1.975 . S
Zn179 N195 2.119 . S
Zn179 O200 2.019 . S
N180 Zn170 2.119 . S
N180 C182 1.334 . S
N180 C183 1.328 . S
C181 C182 1.391 . S
C181 N184 1.329 . S
C181 H202 0.930 . S
C182 N180 1.334 . S
C182 C181 1.391 . S
C182 H189 0.930 . S
C183 N180 1.328 . S
C183 C185 1.392 . S
C183 H190 0.930 . S
N184 C181 1.329 . S
N184 C185 1.331 . S
C185 C183 1.392 . S
C185 N184 1.331 . S
O186 Zn179 1.975 . S
O186 C187 1.252 . S
C187 O186 1.252 . S
C187 O188 1.252 . S
O188 Zn170 1.975 . S
O188 C187 1.252 . S
H189 C182 0.930 . S
H190 C183 0.930 . S
C191 C192 1.392 . S
C191 N195 1.328 . S
C191 H197 0.930 . S
C192 C191 1.392 . S
C192 N196 1.331 . S
C193 C194 1.391 . S
C193 N196 1.329 . S
C193 H203 0.930 . S
C194 C193 1.391 . S
C194 N195 1.334 . S
C194 H201 0.930 . S
N195 Zn179 2.119 . S
N195 C191 1.328 . S
N195 C194 1.334 . S
N196 C192 1.331 . S
N196 C193 1.329 . S
H197 C191 0.930 . S
C198 O178 1.257 . S
C198 O199 1.244 . S
O199 C198 1.244 . S
O200 C176 1.257 . S
O200 Zn179 2.019 . S
H201 C194 0.930 . S
H202 C181 0.930 . S
H203 C193 0.930 . S
H204 C212 0.929 . S
H205 C214 0.930 . S
H206 C216 0.930 . S
H207 C219 0.929 . S
H208 C222 0.930 . S
H209 C224 0.960 . S
H210 C224 0.960 . S
H211 C224 0.960 . S
C212 H204 0.929 . S
C212 C213 1.377 . S
C212 C214 1.384 . S
C213 C212 1.377 . S
C213 C219 1.390 . S
C214 H205 0.930 . S
C214 C212 1.384 . S
C214 C215 1.372 . S
C215 C214 1.372 . S
C215 C216 1.400 . S
C215 C220 1.490 . S
C216 H206 0.930 . S
C216 C215 1.400 . S
C216 C219 1.386 . S
H217 C233 0.930 . S
H218 C234 0.931 . S
C219 H207 0.929 . S
C219 C213 1.390 . S
C219 C216 1.386 . S
C220 C215 1.490 . S
C220 C222 1.395 . S
C220 C223 1.403 . S
H221 C227 0.930 . S
C222 H208 0.930 . S
C222 C220 1.395 . S
C222 C225 1.403 . S
C223 C220 1.403 . S
C223 C224 1.524 . S
C223 C227 1.400 . S
C224 H209 0.960 . S
C224 H210 0.960 . S
C224 H211 0.960 . S
C224 C223 1.524 . S
C225 C222 1.403 . S
C225 C226 1.392 . S
C225 C229 1.495 . S
C226 C225 1.392 . S
C226 C227 1.385 . S
C226 C228 1.478 . S
C227 H221 0.930 . S
C227 C223 1.400 . S
C227 C226 1.385 . S
C228 C226 1.478 . S
C228 C230 1.381 . S
C228 C234 1.383 . S
C229 C225 1.495 . S
C229 H235 0.959 . S
C229 H236 0.961 . S
C229 H237 0.960 . S
C230 C228 1.381 . S
C230 C231 1.394 . S
C230 H238 0.930 . S
C231 C230 1.394 . S
C231 C232 1.383 . S
C231 H239 0.929 . S
C232 C231 1.383 . S
C232 C233 1.377 . S
C233 H217 0.930 . S
C233 C232 1.377 . S
C233 C234 1.379 . S
C234 H218 0.931 . S
C234 C228 1.383 . S
C234 C233 1.379 . S
H235 C229 0.959 . S
H236 C229 0.961 . S
H237 C229 0.960 . S
H238 C230 0.930 . S
H239 C231 0.929 . S
H240 C248 0.929 . S
H241 C250 0.930 . S
H242 C252 0.930 . S
H243 C255 0.929 . S
H244 C258 0.930 . S
H245 C260 0.960 . S
H246 C260 0.960 . S
H247 C260 0.960 . S
C248 H240 0.929 . S
C248 C249 1.377 . S
C248 C250 1.384 . S
C249 C248 1.377 . S
C249 C255 1.390 . S
C250 H241 0.930 . S
C250 C248 1.384 . S
C250 C251 1.372 . S
C251 C250 1.372 . S
C251 C252 1.400 . S
C251 C256 1.490 . S
C252 H242 0.930 . S
C252 C251 1.400 . S
C252 C255 1.386 . S
H253 C269 0.919 . S
H254 C270 0.931 . S
C255 H243 0.929 . S
C255 C249 1.390 . S
C255 C252 1.386 . S
C256 C251 1.490 . S
C256 C258 1.395 . S
C256 C259 1.403 . S
H257 C263 0.930 . S
C258 H244 0.930 . S
C258 C256 1.395 . S
C258 C261 1.403 . S
C259 C256 1.403 . S
C259 C260 1.524 . S
C259 C263 1.400 . S
C260 H245 0.960 . S
C260 H246 0.960 . S
C260 H247 0.960 . S
C260 C259 1.524 . S
C261 C258 1.403 . S
C261 C262 1.392 . S
C261 C265 1.495 1_565 S
C262 C261 1.392 . S
C262 C263 1.385 . S
C262 C264 1.478 . S
C263 H257 0.930 . S
C263 C259 1.400 . S
C263 C262 1.385 . S
C264 C262 1.478 . S
C264 C266 1.381 1_565 S
C264 C270 1.383 . S
C265 C261 1.495 1_545 S
C265 H271 0.959 . S
C265 H272 0.961 . S
C265 H273 0.960 . S
C266 C264 1.381 1_545 S
C266 C267 1.394 . S
C266 H274 0.930 . S
C267 C266 1.394 . S
C267 C268 1.383 . S
C267 H275 0.929 . S
C268 C267 1.383 . S
C268 C269 1.377 . S
C269 H253 0.919 . S
C269 C268 1.377 . S
C269 C270 1.379 1_545 S
C270 H254 0.931 . S
C270 C264 1.383 . S
C270 C269 1.379 1_565 S
H271 C265 0.959 . S
H272 C265 0.961 . S
H273 C265 0.960 . S
H274 C266 0.930 . S
H275 C267 0.929 . S
H276 C284 0.929 . S
H277 C286 0.930 . S
H278 C288 0.930 . S
H279 C291 0.929 . S
H280 C294 0.930 . S
H281 C296 0.960 . S
H282 C296 0.960 . S
H283 C296 0.960 . S
C284 H276 0.929 . S
C284 C285 1.377 . S
C284 C286 1.384 . S
C285 C284 1.377 . S
C285 C291 1.390 . S
C286 H277 0.930 . S
C286 C284 1.384 . S
C286 C287 1.372 . S
C287 C286 1.372 . S
C287 C288 1.400 . S
C287 C292 1.490 . S
C288 H278 0.930 . S
C288 C287 1.400 . S
C288 C291 1.386 . S
H289 C305 0.930 . S
H290 C306 0.931 . S
C291 H279 0.929 . S
C291 C285 1.390 . S
C291 C288 1.386 . S
C292 C287 1.490 . S
C292 C294 1.395 . S
C292 C295 1.403 . S
H293 C299 0.930 . S
C294 H280 0.930 . S
C294 C292 1.395 . S
C294 C297 1.403 . S
C295 C292 1.403 . S
C295 C296 1.524 . S
C295 C299 1.400 . S
C296 H281 0.960 . S
C296 H282 0.960 . S
C296 H283 0.960 . S
C296 C295 1.524 . S
C297 C294 1.403 . S
C297 C298 1.392 . S
C297 C301 1.495 . S
C298 C297 1.392 . S
C298 C299 1.385 . S
C298 C300 1.478 . S
C299 H293 0.930 . S
C299 C295 1.400 . S
C299 C298 1.385 . S
C300 C298 1.478 . S
C300 C302 1.381 1_455 S
C300 C306 1.383 . S
C301 C297 1.495 . S
C301 H307 0.959 . S
C301 H308 0.961 . S
C301 H309 0.960 1_455 S
C302 C300 1.381 1_655 S
C302 C303 1.394 . S
C302 H310 0.930 . S
C303 C302 1.394 . S
C303 C304 1.383 . S
C303 H311 0.929 . S
C304 C303 1.383 . S
C304 C305 1.377 1_655 S
C305 H289 0.930 . S
C305 C304 1.377 1_455 S
C305 C306 1.379 . S
C306 H290 0.931 . S
C306 C300 1.383 . S
C306 C305 1.379 . S
H307 C301 0.959 . S
H308 C301 0.961 . S
H309 C301 0.960 1_655 S
H310 C302 0.930 . S
H311 C303 0.929 . S
H312 C320 0.929 . S
H313 C322 0.930 . S
H314 C324 0.930 . S
H315 C327 0.929 . S
H316 C330 0.930 . S
H317 C332 0.960 . S
H318 C332 0.960 . S
H319 C332 0.960 . S
C320 H312 0.929 . S
C320 C321 1.377 . S
C320 C322 1.384 . S
C321 C320 1.377 . S
C321 C327 1.390 . S
C322 H313 0.930 . S
C322 C320 1.384 . S
C322 C323 1.372 . S
C323 C322 1.372 . S
C323 C324 1.400 . S
C323 C328 1.490 . S
C324 H314 0.930 . S
C324 C323 1.400 . S
C324 C327 1.386 . S
H325 C341 0.930 . S
H326 C342 0.931 . S
C327 H315 0.929 . S
C327 C321 1.390 . S
C327 C324 1.386 . S
C328 C323 1.490 . S
C328 C330 1.395 . S
C328 C331 1.403 . S
H329 C335 0.930 . S
C330 H316 0.930 . S
C330 C328 1.395 . S
C330 C333 1.403 . S
C331 C328 1.403 . S
C331 C332 1.524 . S
C331 C335 1.400 . S
C332 H317 0.960 . S
C332 H318 0.960 . S
C332 H319 0.960 . S
C332 C331 1.524 . S
C333 C330 1.403 . S
C333 C334 1.392 . S
C333 C337 1.495 . S
C334 C333 1.392 . S
C334 C335 1.385 . S
C334 C336 1.478 . S
C335 H329 0.930 . S
C335 C331 1.400 . S
C335 C334 1.385 . S
C336 C334 1.478 . S
C336 C338 1.381 . S
C336 C342 1.383 . S
C337 C333 1.495 . S
C337 H343 0.959 . S
C337 H344 0.961 . S
C337 H345 0.960 . S
C338 C336 1.381 . S
C338 C339 1.394 . S
C338 H346 0.930 . S
C339 C338 1.394 . S
C339 C340 1.383 . S
C339 H347 0.929 . S
C340 C339 1.383 . S
C340 C341 1.377 . S
C341 H325 0.930 . S
C341 C340 1.377 . S
C341 C342 1.379 . S
C342 H326 0.931 . S
C342 C336 1.383 . S
C342 C341 1.379 . S
H343 C337 0.959 . S
H344 C337 0.961 . S
H345 C337 0.960 . S
H346 C338 0.930 . S
H347 C339 0.929 . S
H348 C356 0.929 . S
H349 C358 0.930 . S
H350 C360 0.930 . S
H351 C363 0.929 . S
H352 C366 0.935 . S
H353 C368 0.960 . S
H354 C368 0.960 . S
H355 C368 0.960 . S
C356 H348 0.929 . S
C356 C357 1.377 . S
C356 C358 1.384 . S
C357 C356 1.377 . S
C357 C363 1.390 1_565 S
C358 H349 0.930 . S
C358 C356 1.384 . S
C358 C359 1.372 1_565 S
C359 C358 1.372 1_545 S
C359 C360 1.400 . S
C359 C364 1.490 . S
C360 H350 0.930 . S
C360 C359 1.400 . S
C360 C363 1.386 . S
H361 C377 0.930 . S
H362 C378 0.931 . S
C363 H351 0.929 . S
C363 C357 1.390 1_545 S
C363 C360 1.386 . S
C364 C359 1.490 . S
C364 C366 1.395 . S
C364 C367 1.403 . S
H365 C371 0.930 . S
C366 H352 0.935 . S
C366 C364 1.395 . S
C366 C369 1.403 . S
C367 C364 1.403 . S
C367 C368 1.524 . S
C367 C371 1.400 . S
C368 H353 0.960 . S
C368 H354 0.960 . S
C368 H355 0.960 . S
C368 C367 1.524 . S
C369 C366 1.403 . S
C369 C370 1.392 . S
C369 C373 1.495 . S
C370 C369 1.392 . S
C370 C371 1.385 . S
C370 C372 1.478 . S
C371 H365 0.930 . S
C371 C367 1.400 . S
C371 C370 1.385 . S
C372 C370 1.478 . S
C372 C374 1.381 . S
C372 C378 1.383 . S
C373 C369 1.495 . S
C373 H379 0.959 1_545 S
C373 H380 0.961 . S
C373 H381 0.960 . S
C374 C372 1.381 . S
C374 C375 1.394 . S
C374 H382 0.930 . S
C375 C374 1.394 . S
C375 C376 1.383 . S
C375 H383 0.929 . S
C376 C375 1.383 . S
C376 C377 1.377 . S
C377 H361 0.930 . S
C377 C376 1.377 . S
C377 C378 1.379 . S
C378 H362 0.931 . S
C378 C372 1.383 . S
C378 C377 1.379 . S
H379 C373 0.959 1_565 S
H380 C373 0.961 . S
H381 C373 0.960 . S
H382 C374 0.930 . S
H383 C375 0.929 . S
H384 C392 0.929 . S
H385 C394 0.930 . S
H386 C396 0.930 . S
H387 C399 0.929 . S
H388 C402 0.930 . S
H389 C404 0.960 . S
H390 C404 0.960 . S
H391 C404 0.960 . S
C392 H384 0.929 . S
C392 C393 1.377 . S
C392 C394 1.384 1_455 S
C393 C392 1.377 . S
C393 C399 1.390 . S
C394 H385 0.930 . S
C394 C392 1.384 1_655 S
C394 C395 1.372 . S
C395 C394 1.372 . S
C395 C396 1.400 . S
C395 C400 1.490 . S
C396 H386 0.930 . S
C396 C395 1.400 . S
C396 C399 1.386 1_655 S
H397 C413 0.930 . S
H398 C414 0.931 . S
C399 H387 0.929 . S
C399 C393 1.390 . S
C399 C396 1.386 1_455 S
C400 C395 1.490 . S
C400 C402 1.395 . S
C400 C403 1.403 . S
H401 C407 0.930 . S
C402 H388 0.930 . S
C402 C400 1.395 . S
C402 C405 1.403 . S
C403 C400 1.403 . S
C403 C404 1.524 . S
C403 C407 1.400 . S
C404 H389 0.960 . S
C404 H390 0.960 . S
C404 H391 0.960 . S
C404 C403 1.524 . S
C405 C402 1.403 . S
C405 C406 1.392 . S
C405 C409 1.495 . S
C406 C405 1.392 . S
C406 C407 1.385 . S
C406 C408 1.478 . S
C407 H401 0.930 . S
C407 C403 1.400 . S
C407 C406 1.385 . S
C408 C406 1.478 . S
C408 C410 1.381 . S
C408 C414 1.383 . S
C409 C405 1.495 . S
C409 H415 0.959 . S
C409 H416 0.961 . S
C409 H417 0.960 . S
C410 C408 1.381 . S
C410 C411 1.394 . S
C410 H418 0.930 . S
C411 C410 1.394 . S
C411 C412 1.383 . S
C411 H419 0.929 . S
C412 C411 1.383 . S
C412 C413 1.377 . S
C413 H397 0.930 . S
C413 C412 1.377 . S
C413 C414 1.379 . S
C414 H398 0.931 . S
C414 C408 1.383 . S
C414 C413 1.379 . S
H415 C409 0.959 . S
H416 C409 0.961 . S
H417 C409 0.960 . S
H418 C410 0.930 . S
H419 C411 0.929 . S
H420 C428 0.929 . S
H421 C430 0.930 . S
H422 C432 0.930 . S
H423 C435 0.929 . S
H424 C438 0.930 . S
H425 C440 0.960 . S
H426 C440 0.960 . S
H427 C440 0.960 . S
C428 H420 0.929 . S
C428 C429 1.377 . S
C428 C430 1.384 . S
C429 C428 1.377 . S
C429 C435 1.390 1_556 S
C430 H421 0.930 . S
C430 C428 1.384 . S
C430 C431 1.372 . S
C431 C430 1.372 . S
C431 C432 1.400 1_556 S
C431 C436 1.490 . S
C432 H422 0.930 . S
C432 C431 1.400 1_554 S
C432 C435 1.386 . S
H433 C449 0.930 . S
H434 C450 0.931 . S
C435 H423 0.929 . S
C435 C429 1.390 1_554 S
C435 C432 1.386 . S
C436 C431 1.490 . S
C436 C438 1.395 . S
C436 C439 1.403 1_556 S
H437 C443 0.930 . S
C438 H424 0.930 . S
C438 C436 1.395 . S
C438 C441 1.403 . S
C439 C436 1.403 1_554 S
C439 C440 1.524 . S
C439 C443 1.400 . S
C440 H425 0.960 . S
C440 H426 0.960 . S
C440 H427 0.960 . S
C440 C439 1.524 . S
C441 C438 1.403 . S
C441 C442 1.375 1_556 S
C441 C445 1.495 . S
C442 C441 1.375 1_554 S
C442 C443 1.399 . S
C442 C444 1.482 . S
C443 H437 0.930 . S
C443 C439 1.400 . S
C443 C442 1.399 . S
C444 C442 1.482 . S
C444 C446 1.381 1_554 S
C444 C450 1.383 . S
C445 C441 1.495 . S
C445 H451 0.959 . S
C445 H452 0.961 . S
C445 H453 0.960 . S
C446 C444 1.381 1_556 S
C446 C447 1.394 . S
C446 H454 0.930 . S
C447 C446 1.394 . S
C447 C448 1.383 1_556 S
C447 H455 0.929 . S
C448 C447 1.383 1_554 S
C448 C449 1.377 . S
C449 H433 0.930 . S
C449 C448 1.377 . S
C449 C450 1.379 . S
C450 H434 0.931 . S
C450 C444 1.383 . S
C450 C449 1.379 . S
H451 C445 0.959 . S
H452 C445 0.961 . S
H453 C445 0.960 . S
H454 C446 0.930 . S
H455 C447 0.929 . S
H456 C464 0.929 . S
H457 C466 0.930 . S
H458 C468 0.930 . S
H459 C471 0.929 . S
H460 C474 0.930 . S
H461 C476 0.960 1_565 S
H462 C476 0.960 . S
H463 C476 0.960 . S
C464 H456 0.929 . S
C464 C465 1.377 . S
C464 C466 1.384 . S
C465 C464 1.377 . S
C465 C471 1.390 . S
C466 H457 0.930 . S
C466 C464 1.384 . S
C466 C467 1.372 . S
C467 C466 1.372 . S
C467 C468 1.400 . S
C467 C472 1.490 . S
C468 H458 0.930 . S
C468 C467 1.400 . S
C468 C471 1.386 . S
H469 C485 0.930 . S
H470 C486 0.931 . S
C471 H459 0.929 . S
C471 C465 1.390 . S
C471 C468 1.386 . S
C472 C467 1.490 . S
C472 C474 1.395 . S
C472 C475 1.403 . S
H473 C479 0.930 . S
C474 H460 0.930 . S
C474 C472 1.395 . S
C474 C477 1.403 1_545 S
C475 C472 1.403 . S
C475 C476 1.524 . S
C475 C479 1.400 1_545 S
C476 H461 0.960 1_545 S
C476 H462 0.960 . S
C476 H463 0.960 . S
C476 C475 1.524 . S
C477 C474 1.403 1_565 S
C477 C478 1.392 . S
C477 C481 1.495 . S
C478 C477 1.392 . S
C478 C479 1.385 . S
C478 C480 1.478 . S
C479 H473 0.930 . S
C479 C475 1.400 1_565 S
C479 C478 1.385 . S
C480 C478 1.478 . S
C480 C482 1.381 . S
C480 C486 1.383 . S
C481 C477 1.495 . S
C481 H487 0.959 1_565 S
C481 H488 0.961 . S
C481 H489 0.960 . S
C482 C480 1.381 . S
C482 C483 1.394 . S
C482 H490 0.930 . S
C483 C482 1.394 . S
C483 C484 1.383 . S
C483 H491 0.929 . S
C484 C483 1.383 . S
C484 C485 1.377 . S
C485 H469 0.930 . S
C485 C484 1.377 . S
C485 C486 1.379 . S
C486 H470 0.931 . S
C486 C480 1.383 . S
C486 C485 1.379 . S
H487 C481 0.959 1_545 S
H488 C481 0.961 . S
H489 C481 0.960 . S
H490 C482 0.930 . S
H491 C483 0.929 . S
H492 C500 0.929 . S
H493 C502 0.930 . S
H494 C504 0.930 . S
H495 C507 0.929 . S
H496 C510 0.930 . S
H497 C512 0.960 . S
H498 C512 0.960 . S
H499 C512 0.960 . S
C500 H492 0.929 . S
C500 C501 1.377 . S
C500 C502 1.384 . S
C501 C500 1.377 . S
C501 C507 1.390 . S
C502 H493 0.930 . S
C502 C500 1.384 . S
C502 C503 1.372 . S
C503 C502 1.372 . S
C503 C504 1.400 . S
C503 C508 1.490 . S
C504 H494 0.930 . S
C504 C503 1.400 . S
C504 C507 1.386 . S
H505 C521 0.930 . S
H506 C522 0.931 . S
C507 H495 0.929 . S
C507 C501 1.390 . S
C507 C504 1.386 . S
C508 C503 1.490 . S
C508 C510 1.395 . S
C508 C511 1.403 . S
H509 C515 0.930 . S
C510 H496 0.930 . S
C510 C508 1.395 . S
C510 C513 1.403 1_655 S
C511 C508 1.403 . S
C511 C512 1.524 . S
C511 C515 1.400 1_655 S
C512 H497 0.960 . S
C512 H498 0.960 . S
C512 H499 0.960 . S
C512 C511 1.524 . S
C513 C510 1.403 1_455 S
C513 C514 1.392 . S
C513 C517 1.495 . S
C514 C513 1.392 . S
C514 C515 1.385 . S
C514 C516 1.478 . S
C515 H509 0.930 . S
C515 C511 1.400 1_455 S
C515 C514 1.385 . S
C516 C514 1.478 . S
C516 C518 1.381 . S
C516 C522 1.383 . S
C517 C513 1.495 . S
C517 H523 0.959 . S
C517 H524 0.961 . S
C517 H525 0.960 . S
C518 C516 1.381 . S
C518 C519 1.394 . S
C518 H526 0.930 . S
C519 C518 1.394 . S
C519 C520 1.383 . S
C519 H527 0.929 . S
C520 C519 1.383 . S
C520 C521 1.377 . S
C521 H505 0.930 . S
C521 C520 1.377 . S
C521 C522 1.379 . S
C522 H506 0.931 . S
C522 C516 1.383 . S
C522 C521 1.379 . S
H523 C517 0.959 . S
H524 C517 0.961 . S
H525 C517 0.960 . S
H526 C518 0.930 . S
H527 C519 0.929 . S
H528 C536 0.929 . S
H529 C538 0.930 1_455 S
H530 C540 0.930 . S
H531 C543 0.929 . S
H532 C546 0.930 . S
H533 C548 0.960 . S
H534 C548 0.960 . S
H535 C548 0.960 . S
C536 H528 0.929 . S
C536 C537 1.377 . S
C536 C538 1.384 . S
C537 C536 1.377 . S
C537 C543 1.390 . S
C538 H529 0.930 1_655 S
C538 C536 1.384 . S
C538 C539 1.372 . S
C539 C538 1.372 . S
C539 C540 1.400 . S
C539 C544 1.490 . S
C540 H530 0.930 . S
C540 C539 1.400 . S
C540 C543 1.386 . S
H541 C557 0.930 . S
H542 C558 0.931 1_655 S
C543 H531 0.929 . S
C543 C537 1.390 . S
C543 C540 1.386 . S
C544 C539 1.490 . S
C544 C546 1.395 1_655 S
C544 C547 1.403 . S
H545 C551 0.930 . S
C546 H532 0.930 . S
C546 C544 1.395 1_455 S
C546 C549 1.403 . S
C547 C544 1.403 . S
C547 C548 1.524 . S
C547 C551 1.400 . S
C548 H533 0.960 . S
C548 H534 0.960 . S
C548 H535 0.960 . S
C548 C547 1.524 . S
C549 C546 1.403 . S
C549 C550 1.392 . S
C549 C553 1.495 . S
C550 C549 1.392 . S
C550 C551 1.385 1_455 S
C550 C552 1.478 . S
C551 H545 0.930 . S
C551 C547 1.400 . S
C551 C550 1.385 1_655 S
C552 C550 1.478 . S
C552 C554 1.381 . S
C552 C558 1.383 . S
C553 C549 1.495 . S
C553 H559 0.959 . S
C553 H560 0.961 . S
C553 H561 0.960 . S
C554 C552 1.381 . S
C554 C555 1.394 . S
C554 H562 0.930 . S
C555 C554 1.394 . S
C555 C556 1.383 . S
C555 H563 0.929 . S
C556 C555 1.383 . S
C556 C557 1.377 . S
C557 H541 0.930 . S
C557 C556 1.377 . S
C557 C558 1.379 . S
C558 H542 0.931 1_455 S
C558 C552 1.383 . S
C558 C557 1.379 . S
H559 C553 0.959 . S
H560 C553 0.961 . S
H561 C553 0.960 . S
H562 C554 0.930 . S
H563 C555 0.929 . S
H564 C572 0.929 . S
H565 C574 0.930 . S
H566 C576 0.930 . S
H567 C579 0.929 . S
H568 C582 0.930 . S
H569 C584 0.960 1_554 S
H570 C584 0.960 . S
H571 C584 0.960 . S
C572 H564 0.929 . S
C572 C573 1.377 . S
C572 C574 1.384 . S
C573 C572 1.377 . S
C573 C579 1.390 . S
C574 H565 0.930 . S
C574 C572 1.384 . S
C574 C575 1.372 . S
C575 C574 1.372 . S
C575 C576 1.400 . S
C575 C580 1.490 . S
C576 H566 0.930 . S
C576 C575 1.400 . S
C576 C579 1.386 . S
H577 C593 0.930 . S
H578 C594 0.931 . S
C579 H567 0.929 . S
C579 C573 1.390 . S
C579 C576 1.386 . S
C580 C575 1.490 . S
C580 C582 1.395 . S
C580 C583 1.403 . S
H581 C587 0.930 . S
C582 H568 0.930 . S
C582 C580 1.395 . S
C582 C585 1.403 1_556 S
C583 C580 1.403 . S
C583 C584 1.524 . S
C583 C587 1.400 1_556 S
C584 H569 0.960 1_556 S
C584 H570 0.960 . S
C584 H571 0.960 . S
C584 C583 1.524 . S
C585 C582 1.403 1_554 S
C585 C586 1.392 . S
C585 C589 1.495 . S
C586 C585 1.392 . S
C586 C587 1.385 . S
C586 C588 1.478 . S
C587 H581 0.930 . S
C587 C583 1.400 1_554 S
C587 C586 1.385 . S
C588 C586 1.478 . S
C588 C590 1.381 . S
C588 C594 1.383 . S
C589 C585 1.495 . S
C589 H595 0.959 1_554 S
C589 H596 0.961 . S
C589 H597 0.960 . S
C590 C588 1.381 . S
C590 C591 1.394 . S
C590 H598 0.930 . S
C591 C590 1.394 . S
C591 C592 1.383 . S
C591 H599 0.929 . S
C592 C591 1.383 . S
C592 C593 1.377 . S
C593 H577 0.930 . S
C593 C592 1.377 . S
C593 C594 1.379 . S
C594 H578 0.931 . S
C594 C588 1.383 . S
C594 C593 1.379 . S
H595 C589 0.959 1_556 S
H596 C589 0.961 . S
H597 C589 0.960 . S
H598 C590 0.930 . S
H599 C591 0.929 . S
H600 C608 0.929 . S
H601 C610 0.930 . S
H602 C612 0.930 . S
H603 C615 0.929 . S
H604 C618 0.930 . S
H605 C620 0.960 . S
H606 C620 0.960 . S
H607 C620 0.960 . S
C608 H600 0.929 . S
C608 C609 1.377 . S
C608 C610 1.384 . S
C609 C608 1.377 . S
C609 C615 1.390 . S
C610 H601 0.930 . S
C610 C608 1.384 . S
C610 C611 1.372 . S
C611 C610 1.372 . S
C611 C612 1.400 . S
C611 C616 1.490 . S
C612 H602 0.930 . S
C612 C611 1.400 . S
C612 C615 1.386 . S
H613 C629 0.930 . S
H614 C630 0.931 . S
C615 H603 0.929 . S
C615 C609 1.390 . S
C615 C612 1.386 . S
C616 C611 1.490 . S
C616 C618 1.395 1_545 S
C616 C619 1.403 . S
H617 C623 0.930 . S
C618 H604 0.930 . S
C618 C616 1.395 1_565 S
C618 C621 1.403 . S
C619 C616 1.403 . S
C619 C620 1.524 . S
C619 C623 1.400 . S
C620 H605 0.960 . S
C620 H606 0.960 . S
C620 H607 0.960 . S
C620 C619 1.524 . S
C621 C618 1.403 . S
C621 C622 1.392 . S
C621 C625 1.495 . S
C622 C621 1.392 . S
C622 C623 1.385 1_565 S
C622 C624 1.478 . S
C623 H617 0.930 . S
C623 C619 1.400 . S
C623 C622 1.385 1_545 S
C624 C622 1.478 . S
C624 C626 1.381 . S
C624 C630 1.383 . S
C625 C621 1.495 . S
C625 H631 0.959 . S
C625 H632 0.961 . S
C625 H633 0.960 . S
C626 C624 1.381 . S
C626 C627 1.394 . S
C626 H634 0.930 . S
C627 C626 1.394 . S
C627 C628 1.383 . S
C627 H635 0.929 . S
C628 C627 1.383 . S
C628 C629 1.377 . S
C629 H613 0.930 . S
C629 C628 1.377 . S
C629 C630 1.379 . S
C630 H614 0.931 . S
C630 C624 1.383 . S
C630 C629 1.379 . S
H631 C625 0.959 . S
H632 C625 0.961 . S
H633 C625 0.960 . S
H634 C626 0.930 . S
H635 C627 0.929 . S
H636 C644 0.929 . S
H637 C646 0.930 . S
H638 C648 0.930 . S
H639 C651 0.929 1_554 S
H640 C654 0.930 . S
H641 C656 0.960 . S
H642 C656 0.960 . S
H643 C656 0.960 . S
C644 H636 0.929 . S
C644 C645 1.377 . S
C644 C646 1.384 . S
C645 C644 1.377 . S
C645 C651 1.390 . S
C646 H637 0.930 . S
C646 C644 1.384 . S
C646 C647 1.372 . S
C647 C646 1.372 . S
C647 C648 1.400 . S
C647 C652 1.490 . S
C648 H638 0.930 . S
C648 C647 1.400 . S
C648 C651 1.386 . S
H649 C665 0.930 . S
H650 C666 0.931 . S
C651 H639 0.929 1_556 S
C651 C645 1.390 . S
C651 C648 1.386 . S
C652 C647 1.490 . S
C652 C654 1.395 . S
C652 C655 1.403 . S
H653 C659 0.930 . S
C654 H640 0.930 . S
C654 C652 1.395 . S
C654 C657 1.403 . S
C655 C652 1.403 . S
C655 C656 1.524 . S
C655 C659 1.400 . S
C656 H641 0.960 . S
C656 H642 0.960 . S
C656 H643 0.960 . S
C656 C655 1.524 . S
C657 C654 1.403 . S
C657 C658 1.392 . S
C657 C661 1.495 . S
C658 C657 1.392 . S
C658 C659 1.385 . S
C658 C660 1.478 . S
C659 H653 0.930 . S
C659 C655 1.400 . S
C659 C658 1.385 . S
C660 C658 1.478 . S
C660 C662 1.381 . S
C660 C666 1.383 . S
C661 C657 1.495 . S
C661 H667 0.959 . S
C661 H668 0.961 . S
C661 H669 0.960 . S
C662 C660 1.381 . S
C662 C663 1.394 . S
C662 H670 0.930 . S
C663 C662 1.394 . S
C663 C664 1.383 . S
C663 H671 0.929 . S
C664 C663 1.383 . S
C664 C665 1.377 . S
C665 H649 0.930 . S
C665 C664 1.377 . S
C665 C666 1.379 . S
C666 H650 0.931 . S
C666 C660 1.383 . S
C666 C665 1.379 . S
H667 C661 0.959 . S
H668 C661 0.961 . S
H669 C661 0.960 . S
H670 C662 0.930 . S
H671 C663 0.929 . S
H672 C680 0.929 . S
H673 C682 0.930 . S
H674 C684 0.930 . S
H675 C687 0.929 . S
H676 C690 0.930 . S
H677 C692 0.960 . S
H678 C692 0.960 . S
H679 C692 0.960 . S
C680 H672 0.929 . S
C680 C681 1.377 . S
C680 C682 1.384 . S
C681 C680 1.377 . S
C681 C687 1.390 . S
C682 H673 0.930 . S
C682 C680 1.384 . S
C682 C683 1.372 . S
C683 C682 1.372 . S
C683 C684 1.400 . S
C683 C688 1.490 . S
C684 H674 0.930 . S
C684 C683 1.400 . S
C684 C687 1.386 . S
H685 C701 0.930 . S
H686 C702 0.931 . S
C687 H675 0.929 . S
C687 C681 1.390 . S
C687 C684 1.386 . S
C688 C683 1.490 . S
C688 C690 1.395 . S
C688 C691 1.403 . S
H689 C695 0.930 . S
C690 H676 0.930 . S
C690 C688 1.395 . S
C690 C693 1.403 . S
C691 C688 1.403 . S
C691 C692 1.524 . S
C691 C695 1.400 . S
C692 H677 0.960 . S
C692 H678 0.960 . S
C692 H679 0.960 . S
C692 C691 1.524 . S
C693 C690 1.403 . S
C693 C694 1.392 . S
C693 C697 1.495 . S
C694 C693 1.392 . S
C694 C695 1.385 . S
C694 C696 1.478 . S
C695 H689 0.930 . S
C695 C691 1.400 . S
C695 C694 1.385 . S
C696 C694 1.478 . S
C696 C698 1.381 . S
C696 C702 1.383 . S
C697 C693 1.495 . S
C697 H703 0.959 . S
C697 H704 0.961 . S
C697 H705 0.960 . S
C698 C696 1.381 . S
C698 C699 1.394 . S
C698 H706 0.930 . S
C699 C698 1.394 . S
C699 C700 1.383 . S
C699 H707 0.929 . S
C700 C699 1.383 . S
C700 C701 1.377 . S
C701 H685 0.930 . S
C701 C700 1.377 . S
C701 C702 1.379 . S
C702 H686 0.931 . S
C702 C696 1.383 . S
C702 C701 1.379 . S
H703 C697 0.959 . S
H704 C697 0.961 . S
H705 C697 0.960 . S
H706 C698 0.930 . S
H707 C699 0.929 . S
H708 C716 0.929 . S
H709 C718 0.930 . S
H710 C720 0.930 . S
H711 C723 0.929 . S
H712 C726 0.930 . S
H713 C728 0.960 . S
H714 C728 0.960 . S
H715 C728 0.960 . S
C716 H708 0.929 . S
C716 C717 1.377 . S
C716 C718 1.384 . S
C717 C716 1.377 . S
C717 C723 1.390 . S
C718 H709 0.930 . S
C718 C716 1.384 . S
C718 C719 1.372 . S
C719 C718 1.372 . S
C719 C720 1.400 . S
C719 C724 1.490 . S
C720 H710 0.930 . S
C720 C719 1.400 . S
C720 C723 1.386 . S
H721 C737 0.930 . S
H722 C738 0.931 . S
C723 H711 0.929 . S
C723 C717 1.390 . S
C723 C720 1.386 . S
C724 C719 1.490 . S
C724 C726 1.395 . S
C724 C727 1.403 . S
H725 C731 0.930 . S
C726 H712 0.930 . S
C726 C724 1.395 . S
C726 C729 1.403 . S
C727 C724 1.403 . S
C727 C728 1.524 . S
C727 C731 1.400 . S
C728 H713 0.960 . S
C728 H714 0.960 . S
C728 H715 0.960 . S
C728 C727 1.524 . S
C729 C726 1.403 . S
C729 C730 1.392 . S
C729 C733 1.495 . S
C730 C729 1.392 . S
C730 C731 1.385 . S
C730 C732 1.478 . S
C731 H725 0.930 . S
C731 C727 1.400 . S
C731 C730 1.385 . S
C732 C730 1.478 . S
C732 C734 1.381 . S
C732 C738 1.383 . S
C733 C729 1.495 . S
C733 H739 0.959 . S
C733 H740 0.961 . S
C733 H741 0.960 . S
C734 C732 1.381 . S
C734 C735 1.394 . S
C734 H742 0.930 . S
C735 C734 1.394 . S
C735 C736 1.383 . S
C735 H743 0.929 . S
C736 C735 1.383 . S
C736 C737 1.377 . S
C737 H721 0.930 . S
C737 C736 1.377 . S
C737 C738 1.379 . S
C738 H722 0.931 . S
C738 C732 1.383 . S
C738 C737 1.379 . S
H739 C733 0.959 . S
H740 C733 0.961 . S
H741 C733 0.960 . S
H742 C734 0.930 . S
H743 C735 0.929 . S
H744 C752 0.929 . S
H745 C754 0.930 . S
H746 C756 0.930 . S
H747 C759 0.929 1_556 S
H748 C762 0.930 . S
H749 C764 0.960 . S
H750 C764 0.960 . S
H751 C764 0.960 . S
C752 H744 0.929 . S
C752 C753 1.377 . S
C752 C754 1.384 . S
C753 C752 1.377 . S
C753 C759 1.390 . S
C754 H745 0.930 . S
C754 C752 1.384 . S
C754 C755 1.372 . S
C755 C754 1.372 . S
C755 C756 1.400 . S
C755 C760 1.490 . S
C756 H746 0.930 . S
C756 C755 1.400 . S
C756 C759 1.386 . S
H757 C773 0.930 . S
H758 C774 0.931 . S
C759 H747 0.929 1_554 S
C759 C753 1.390 . S
C759 C756 1.386 . S
C760 C755 1.490 . S
C760 C762 1.395 . S
C760 C763 1.403 . S
H761 C767 0.930 . S
C762 H748 0.930 . S
C762 C760 1.395 . S
C762 C765 1.403 . S
C763 C760 1.403 . S
C763 C764 1.524 . S
C763 C767 1.400 . S
C764 H749 0.960 . S
C764 H750 0.960 . S
C764 H751 0.960 . S
C764 C763 1.524 . S
C765 C762 1.403 . S
C765 C766 1.392 . S
C765 C769 1.495 . S
C766 C765 1.392 . S
C766 C767 1.385 . S
C766 C768 1.478 . S
C767 H761 0.930 . S
C767 C763 1.400 . S
C767 C766 1.385 . S
C768 C766 1.478 . S
C768 C770 1.381 . S
C768 C774 1.383 . S
C769 C765 1.495 . S
C769 H775 0.959 . S
C769 H776 0.961 . S
C769 H777 0.960 . S
C770 C768 1.381 . S
C770 C771 1.394 . S
C770 H778 0.930 . S
C771 C770 1.394 . S
C771 C772 1.383 . S
C771 H779 0.929 . S
C772 C771 1.383 . S
C772 C773 1.377 . S
C773 H757 0.930 . S
C773 C772 1.377 . S
C773 C774 1.379 . S
C774 H758 0.931 . S
C774 C768 1.383 . S
C774 C773 1.379 . S
H775 C769 0.959 . S
H776 C769 0.961 . S
H777 C769 0.960 . S
H778 C770 0.930 . S
H779 C771 0.929 . S
H780 C788 0.929 . S
H781 C790 0.930 . S
H782 C792 0.930 . S
H783 C795 0.929 . S
H784 C798 0.930 . S
H785 C800 0.960 . S
H786 C800 0.960 . S
H787 C800 0.960 . S
C788 H780 0.929 . S
C788 C789 1.377 . S
C788 C790 1.384 . S
C789 C788 1.377 . S
C789 C795 1.390 . S
C790 H781 0.930 . S
C790 C788 1.384 . S
C790 C791 1.372 . S
C791 C790 1.372 . S
C791 C792 1.400 . S
C791 C796 1.490 . S
C792 H782 0.930 . S
C792 C791 1.400 . S
C792 C795 1.386 . S
H793 C809 0.930 . S
H794 C810 0.931 . S
C795 H783 0.929 . S
C795 C789 1.390 . S
C795 C792 1.386 . S
C796 C791 1.490 . S
C796 C798 1.395 . S
C796 C799 1.403 . S
H797 C803 0.930 . S
C798 H784 0.930 . S
C798 C796 1.395 . S
C798 C801 1.403 . S
C799 C796 1.403 . S
C799 C800 1.524 . S
C799 C803 1.400 . S
C800 H785 0.960 . S
C800 H786 0.960 . S
C800 H787 0.960 . S
C800 C799 1.524 . S
C801 C798 1.403 . S
C801 C802 1.392 . S
C801 C805 1.495 . S
C802 C801 1.392 . S
C802 C803 1.385 . S
C802 C804 1.478 . S
C803 H797 0.930 . S
C803 C799 1.400 . S
C803 C802 1.385 . S
C804 C802 1.478 . S
C804 C806 1.381 . S
C804 C810 1.383 . S
C805 C801 1.495 . S
C805 H811 0.959 . S
C805 H812 0.961 . S
C805 H813 0.960 . S
C806 C804 1.381 . S
C806 C807 1.394 . S
C806 H814 0.930 . S
C807 C806 1.394 . S
C807 C808 1.383 . S
C807 H815 0.929 . S
C808 C807 1.383 . S
C808 C809 1.377 . S
C809 H793 0.930 . S
C809 C808 1.377 . S
C809 C810 1.379 . S
C810 H794 0.931 . S
C810 C804 1.383 . S
C810 C809 1.379 . S
H811 C805 0.959 . S
H812 C805 0.961 . S
H813 C805 0.960 . S
H814 C806 0.930 . S
H815 C807 0.929 . S
H816 C824 0.929 . S
H817 C826 0.930 . S
H818 C828 0.930 . S
H819 C831 0.929 . S
H820 C834 0.930 . S
H821 C836 0.960 . S
H822 C836 0.960 . S
H823 C836 0.960 . S
C824 H816 0.929 . S
C824 C825 1.377 . S
C824 C826 1.384 . S
C825 C824 1.377 . S
C825 C831 1.390 . S
C826 H817 0.930 . S
C826 C824 1.384 . S
C826 C827 1.372 . S
C827 C826 1.372 . S
C827 C828 1.400 . S
C827 C832 1.490 . S
C828 H818 0.930 . S
C828 C827 1.400 . S
C828 C831 1.386 . S
H829 C845 0.930 . S
H830 C846 0.931 . S
C831 H819 0.929 . S
C831 C825 1.390 . S
C831 C828 1.386 . S
C832 C827 1.490 . S
C832 C834 1.395 . S
C832 C835 1.403 . S
H833 C839 0.930 . S
C834 H820 0.930 . S
C834 C832 1.395 . S
C834 C837 1.403 . S
C835 C832 1.403 . S
C835 C836 1.524 . S
C835 C839 1.400 . S
C836 H821 0.960 . S
C836 H822 0.960 . S
C836 H823 0.960 . S
C836 C835 1.524 . S
C837 C834 1.403 . S
C837 C838 1.392 . S
C837 C841 1.495 . S
C838 C837 1.392 . S
C838 C839 1.385 . S
C838 C840 1.478 . S
C839 H833 0.930 . S
C839 C835 1.400 . S
C839 C838 1.385 . S
C840 C838 1.478 . S
C840 C842 1.381 . S
C840 C846 1.383 . S
C841 C837 1.495 . S
C841 H847 0.959 . S
C841 H848 0.961 . S
C841 H849 0.960 . S
C842 C840 1.381 . S
C842 C843 1.394 . S
C842 H850 0.930 . S
C843 C842 1.394 . S
C843 C844 1.383 . S
C843 H851 0.929 . S
C844 C843 1.383 . S
C844 C845 1.377 . S
C845 H829 0.930 . S
C845 C844 1.377 . S
C845 C846 1.379 . S
C846 H830 0.931 . S
C846 C840 1.383 . S
C846 C845 1.379 . S
H847 C841 0.959 . S
H848 C841 0.961 . S
H849 C841 0.960 . S
H850 C842 0.930 . S
H851 C843 0.929 . S
H852 C860 0.929 . S
H853 C862 0.930 . S
H854 C864 0.930 1_455 S
H855 C867 0.929 1_455 S
H856 C870 0.930 . S
H857 C872 0.960 . S
H858 C872 0.960 . S
H859 C872 0.960 . S
C860 H852 0.929 . S
C860 C861 1.377 . S
C860 C862 1.384 . S
C861 C860 1.377 . S
C861 C867 1.390 . S
C862 H853 0.930 . S
C862 C860 1.384 . S
C862 C863 1.372 . S
C863 C862 1.372 . S
C863 C864 1.400 . S
C863 C868 1.490 . S
C864 H854 0.930 1_655 S
C864 C863 1.400 . S
C864 C867 1.386 . S
H865 C881 0.930 . S
H866 C882 0.931 . S
C867 H855 0.929 1_655 S
C867 C861 1.390 . S
C867 C864 1.386 . S
C868 C863 1.490 . S
C868 C870 1.395 . S
C868 C871 1.403 1_655 S
H869 C875 0.930 . S
C870 H856 0.930 . S
C870 C868 1.395 . S
C870 C873 1.403 . S
C871 C868 1.403 1_455 S
C871 C872 1.524 . S
C871 C875 1.400 . S
C872 H857 0.960 . S
C872 H858 0.960 . S
C872 H859 0.960 . S
C872 C871 1.524 . S
C873 C870 1.403 . S
C873 C874 1.392 1_655 S
C873 C877 1.495 . S
C874 C873 1.392 1_455 S
C874 C875 1.385 . S
C874 C876 1.478 . S
C875 H869 0.930 . S
C875 C871 1.400 . S
C875 C874 1.385 . S
C876 C874 1.478 . S
C876 C878 1.381 1_455 S
C876 C882 1.383 . S
C877 C873 1.495 . S
C877 H883 0.959 . S
C877 H884 0.961 . S
C877 H885 0.960 . S
C878 C876 1.381 1_655 S
C878 C879 1.394 1_655 S
C878 H886 0.930 . S
C879 C878 1.394 1_455 S
C879 C880 1.383 . S
C879 H887 0.929 1_455 S
C880 C879 1.383 . S
C880 C881 1.377 . S
C881 H865 0.930 . S
C881 C880 1.377 . S
C881 C882 1.379 . S
C882 H866 0.931 . S
C882 C876 1.383 . S
C882 C881 1.379 . S
H883 C877 0.959 . S
H884 C877 0.961 . S
H885 C877 0.960 . S
H886 C878 0.930 . S
H887 C879 0.929 1_655 S
H888 C896 0.929 . S
H889 C898 0.930 . S
H890 C900 0.930 . S
H891 C903 0.929 . S
H892 C906 0.930 . S
H893 C908 0.960 . S
H894 C908 0.960 . S
H895 C908 0.960 . S
C896 H888 0.929 . S
C896 C897 1.377 . S
C896 C898 1.384 . S
C897 C896 1.377 . S
C897 C903 1.390 . S
C898 H889 0.930 . S
C898 C896 1.384 . S
C898 C899 1.372 . S
C899 C898 1.372 . S
C899 C900 1.400 . S
C899 C904 1.490 . S
C900 H890 0.930 . S
C900 C899 1.400 . S
C900 C903 1.386 . S
H901 C917 0.930 . S
H902 C918 0.931 . S
C903 H891 0.929 . S
C903 C897 1.390 . S
C903 C900 1.386 . S
C904 C899 1.490 . S
C904 C906 1.395 . S
C904 C907 1.403 . S
H905 C911 0.930 . S
C906 H892 0.930 . S
C906 C904 1.395 . S
C906 C909 1.403 . S
C907 C904 1.403 . S
C907 C908 1.524 . S
C907 C911 1.400 . S
C908 H893 0.960 . S
C908 H894 0.960 . S
C908 H895 0.960 . S
C908 C907 1.524 . S
C909 C906 1.403 . S
C909 C910 1.392 . S
C909 C913 1.495 . S
C910 C909 1.392 . S
C910 C911 1.385 . S
C910 C912 1.478 . S
C911 H905 0.930 . S
C911 C907 1.400 . S
C911 C910 1.385 . S
C912 C910 1.478 . S
C912 C914 1.381 . S
C912 C918 1.383 . S
C913 C909 1.495 . S
C913 H919 0.959 . S
C913 H920 0.961 . S
C913 H921 0.960 . S
C914 C912 1.381 . S
C914 C915 1.394 . S
C914 H922 0.930 . S
C915 C914 1.394 . S
C915 C916 1.383 . S
C915 H923 0.929 . S
C916 C915 1.383 . S
C916 C917 1.377 . S
C917 H901 0.930 . S
C917 C916 1.377 . S
C917 C918 1.379 . S
C918 H902 0.931 . S
C918 C912 1.383 . S
C918 C917 1.379 . S
H919 C913 0.959 . S
H920 C913 0.961 . S
H921 C913 0.960 . S
H922 C914 0.930 . S
H923 C915 0.929 . S
H924 C932 0.929 . S
H925 C934 0.930 . S
H926 C936 0.930 1_565 S
H927 C939 0.929 . S
H928 C942 0.930 . S
H929 C944 0.960 . S
H930 C944 0.960 . S
H931 C944 0.960 . S
C932 H924 0.929 . S
C932 C933 1.377 . S
C932 C934 1.384 . S
C933 C932 1.377 . S
C933 C939 1.390 . S
C934 H925 0.930 . S
C934 C932 1.384 . S
C934 C935 1.372 . S
C935 C934 1.372 . S
C935 C936 1.400 . S
C935 C940 1.490 . S
C936 H926 0.930 1_545 S
C936 C935 1.400 . S
C936 C939 1.386 . S
H937 C953 0.930 . S
H938 C954 0.931 . S
C939 H927 0.929 . S
C939 C933 1.390 . S
C939 C936 1.386 . S
C940 C935 1.490 . S
C940 C942 1.395 1_545 S
C940 C943 1.403 . S
H941 C947 0.930 . S
C942 H928 0.930 . S
C942 C940 1.395 1_565 S
C942 C945 1.403 . S
C943 C940 1.403 . S
C943 C944 1.524 . S
C943 C947 1.400 . S
C944 H929 0.960 . S
C944 H930 0.960 . S
C944 H931 0.960 . S
C944 C943 1.524 . S
C945 C942 1.403 . S
C945 C946 1.392 . S
C945 C949 1.495 . S
C946 C945 1.392 . S
C946 C947 1.385 1_565 S
C946 C948 1.478 . S
C947 H941 0.930 . S
C947 C943 1.400 . S
C947 C946 1.385 1_545 S
C948 C946 1.478 . S
C948 C950 1.381 . S
C948 C954 1.383 . S
C949 C945 1.495 . S
C949 H955 0.959 . S
C949 H956 0.961 . S
C949 H957 0.960 . S
C950 C948 1.381 . S
C950 C951 1.394 . S
C950 H958 0.930 1_565 S
C951 C950 1.394 . S
C951 C952 1.383 . S
C951 H959 0.929 . S
C952 C951 1.383 . S
C952 C953 1.377 . S
C953 H937 0.930 . S
C953 C952 1.377 . S
C953 C954 1.379 . S
C954 H938 0.931 . S
C954 C948 1.383 . S
C954 C953 1.379 . S
H955 C949 0.959 . S
H956 C949 0.961 . S
H957 C949 0.960 . S
H958 C950 0.930 1_545 S
H959 C951 0.929 . S
C213 C173 2.423 . S
C232 C17 2.440 . S
C249 C51 2.439 . S
C268 C103 2.421 . S
C285 C85 2.440 . S
C304 C137 2.427 . S
C321 C35 2.420 . S
C340 C119 2.429 . S
C357 C71 2.423 . S
C376 C153 2.439 . S
C393 C3 2.422 . S
C412 C187 2.436 . S
C429 C130 0.360 . S
C448 C6 0.476 . S
C465 C164 0.393 . S
C484 C62 0.286 . S
C501 C176 0.357 . S
C520 C74 0.457 . S
C537 C158 0.530 . S
C556 C15 0.503 . S
C573 C56 0.524 . S
C592 C185 0.554 . S
C609 C124 0.530 . S
C628 C83 0.526 . S
C645 C22 0.467 . S
C664 C40 0.094 . S
C681 C96 0.173 . S
C700 C49 0.362 . S
C717 C28 0.144 . S
C736 C90 0.488 . S
C753 C117 0.466 . S
C772 C198 0.086 . S
C789 C151 0.451 . S
C808 C108 0.148 . S
C825 C142 0.160 . S
C844 C192 0.409 . S
C861 C139 3.567 . S
C880 C1 3.567 1_556 S
C897 C37 3.567 . S
C916 C171 3.553 . S
C933 C105 3.569 1_554 S
C952 C69 3.574 . S
