# Generated by pormake.
# Topology son, (6)-cn, num edge types: 1
# Building blocks:
#     Node 0, Type 0, BuildingBlock: KUMBOL_clean_sbu_0, # of connection points: 6
#     Node 1, Type 0, BuildingBlock: KUMBOL_clean_sbu_0, # of connection points: 6
#     Node 2, Type 0, BuildingBlock: KUMBOL_clean_sbu_0, # of connection points: 6
#     Node 3, Type 0, BuildingBlock: KUMBOL_clean_sbu_0, # of connection points: 6
#     Node 4, Type 0, BuildingBlock: KUMBOL_clean_sbu_0, # of connection points: 6
#     Node 5, Type 0, BuildingBlock: KUMBOL_clean_sbu_0, # of connection points: 6
#     Node 6, Type 0, BuildingBlock: KUMBOL_clean_sbu_0, # of connection points: 6
#     Node 7, Type 0, BuildingBlock: KUMBOL_clean_sbu_0, # of connection points: 6
#     Node 8, Type 0, BuildingBlock: KUMBOL_clean_sbu_0, # of connection points: 6
#     Node 9, Type 0, BuildingBlock: KUMBOL_clean_sbu_0, # of connection points: 6
#     Node 10, Type 0, BuildingBlock: KUMBOL_clean_sbu_0, # of connection points: 6
#     Node 11, Type 0, BuildingBlock: KUMBOL_clean_sbu_0, # of connection points: 6
#     Node 12, Type 0, BuildingBlock: KUMBOL_clean_sbu_0, # of connection points: 6
#     Node 13, Type 0, BuildingBlock: KUMBOL_clean_sbu_0, # of connection points: 6
#     Node 14, Type 0, BuildingBlock: KUMBOL_clean_sbu_0, # of connection points: 6
#     Node 15, Type 0, BuildingBlock: KUMBOL_clean_sbu_0, # of connection points: 6
#     Node 16, Type 0, BuildingBlock: KUMBOL_clean_sbu_0, # of connection points: 6
#     Node 17, Type 0, BuildingBlock: KUMBOL_clean_sbu_0, # of connection points: 6
#     Node 18, Type 0, BuildingBlock: KUMBOL_clean_sbu_0, # of connection points: 6
#     Node 19, Type 0, BuildingBlock: KUMBOL_clean_sbu_0, # of connection points: 6
#     Node 20, Type 0, BuildingBlock: KUMBOL_clean_sbu_0, # of connection points: 6
#     Node 21, Type 0, BuildingBlock: KUMBOL_clean_sbu_0, # of connection points: 6
#     Node 22, Type 0, BuildingBlock: KUMBOL_clean_sbu_0, # of connection points: 6
#     Node 23, Type 0, BuildingBlock: KUMBOL_clean_sbu_0, # of connection points: 6
#     Node 24, Type 0, BuildingBlock: KUMBOL_clean_sbu_0, # of connection points: 6
#     Node 25, Type 0, BuildingBlock: KUMBOL_clean_sbu_0, # of connection points: 6
#     Node 26, Type 0, BuildingBlock: KUMBOL_clean_sbu_0, # of connection points: 6
#     Node 27, Type 0, BuildingBlock: KUMBOL_clean_sbu_0, # of connection points: 6
#     Node 28, Type 0, BuildingBlock: KUMBOL_clean_sbu_0, # of connection points: 6
#     Node 29, Type 0, BuildingBlock: KUMBOL_clean_sbu_0, # of connection points: 6
#     Node 30, Type 0, BuildingBlock: KUMBOL_clean_sbu_0, # of connection points: 6
#     Node 31, Type 0, BuildingBlock: KUMBOL_clean_sbu_0, # of connection points: 6
#     Edge 32, Type (0, 0), BuildingBlock: OJICUG_clean_linker_0, # of connection points: 2
#     Edge 33, Type (0, 0), BuildingBlock: OJICUG_clean_linker_0, # of connection points: 2
#     Edge 34, Type (0, 0), BuildingBlock: OJICUG_clean_linker_0, # of connection points: 2
#     Edge 35, Type (0, 0), BuildingBlock: OJICUG_clean_linker_0, # of connection points: 2
#     Edge 36, Type (0, 0), BuildingBlock: OJICUG_clean_linker_0, # of connection points: 2
#     Edge 37, Type (0, 0), BuildingBlock: OJICUG_clean_linker_0, # of connection points: 2
#     Edge 38, Type (0, 0), BuildingBlock: OJICUG_clean_linker_0, # of connection points: 2
#     Edge 39, Type (0, 0), BuildingBlock: OJICUG_clean_linker_0, # of connection points: 2
#     Edge 40, Type (0, 0), BuildingBlock: OJICUG_clean_linker_0, # of connection points: 2
#     Edge 41, Type (0, 0), BuildingBlock: OJICUG_clean_linker_0, # of connection points: 2
#     Edge 42, Type (0, 0), BuildingBlock: OJICUG_clean_linker_0, # of connection points: 2
#     Edge 43, Type (0, 0), BuildingBlock: OJICUG_clean_linker_0, # of connection points: 2
#     Edge 44, Type (0, 0), BuildingBlock: OJICUG_clean_linker_0, # of connection points: 2
#     Edge 45, Type (0, 0), BuildingBlock: OJICUG_clean_linker_0, # of connection points: 2
#     Edge 46, Type (0, 0), BuildingBlock: OJICUG_clean_linker_0, # of connection points: 2
#     Edge 47, Type (0, 0), BuildingBlock: OJICUG_clean_linker_0, # of connection points: 2
#     Edge 48, Type (0, 0), BuildingBlock: OJICUG_clean_linker_0, # of connection points: 2
#     Edge 49, Type (0, 0), BuildingBlock: OJICUG_clean_linker_0, # of connection points: 2
#     Edge 50, Type (0, 0), BuildingBlock: OJICUG_clean_linker_0, # of connection points: 2
#     Edge 51, Type (0, 0), BuildingBlock: OJICUG_clean_linker_0, # of connection points: 2
#     Edge 52, Type (0, 0), BuildingBlock: OJICUG_clean_linker_0, # of connection points: 2
#     Edge 53, Type (0, 0), BuildingBlock: OJICUG_clean_linker_0, # of connection points: 2
#     Edge 54, Type (0, 0), BuildingBlock: OJICUG_clean_linker_0, # of connection points: 2
#     Edge 55, Type (0, 0), BuildingBlock: OJICUG_clean_linker_0, # of connection points: 2
#     Edge 56, Type (0, 0), BuildingBlock: OJICUG_clean_linker_0, # of connection points: 2
#     Edge 57, Type (0, 0), BuildingBlock: OJICUG_clean_linker_0, # of connection points: 2
#     Edge 58, Type (0, 0), BuildingBlock: OJICUG_clean_linker_0, # of connection points: 2
#     Edge 59, Type (0, 0), BuildingBlock: OJICUG_clean_linker_0, # of connection points: 2
#     Edge 60, Type (0, 0), BuildingBlock: OJICUG_clean_linker_0, # of connection points: 2
#     Edge 61, Type (0, 0), BuildingBlock: OJICUG_clean_linker_0, # of connection points: 2
#     Edge 62, Type (0, 0), BuildingBlock: OJICUG_clean_linker_0, # of connection points: 2
#     Edge 63, Type (0, 0), BuildingBlock: OJICUG_clean_linker_0, # of connection points: 2
#     Edge 64, Type (0, 0), BuildingBlock: OJICUG_clean_linker_0, # of connection points: 2
#     Edge 65, Type (0, 0), BuildingBlock: OJICUG_clean_linker_0, # of connection points: 2
#     Edge 66, Type (0, 0), BuildingBlock: OJICUG_clean_linker_0, # of connection points: 2
#     Edge 67, Type (0, 0), BuildingBlock: OJICUG_clean_linker_0, # of connection points: 2
#     Edge 68, Type (0, 0), BuildingBlock: OJICUG_clean_linker_0, # of connection points: 2
#     Edge 69, Type (0, 0), BuildingBlock: OJICUG_clean_linker_0, # of connection points: 2
#     Edge 70, Type (0, 0), BuildingBlock: OJICUG_clean_linker_0, # of connection points: 2
#     Edge 71, Type (0, 0), BuildingBlock: OJICUG_clean_linker_0, # of connection points: 2
#     Edge 72, Type (0, 0), BuildingBlock: OJICUG_clean_linker_0, # of connection points: 2
#     Edge 73, Type (0, 0), BuildingBlock: OJICUG_clean_linker_0, # of connection points: 2
#     Edge 74, Type (0, 0), BuildingBlock: OJICUG_clean_linker_0, # of connection points: 2
#     Edge 75, Type (0, 0), BuildingBlock: OJICUG_clean_linker_0, # of connection points: 2
#     Edge 76, Type (0, 0), BuildingBlock: OJICUG_clean_linker_0, # of connection points: 2
#     Edge 77, Type (0, 0), BuildingBlock: OJICUG_clean_linker_0, # of connection points: 2
#     Edge 78, Type (0, 0), BuildingBlock: OJICUG_clean_linker_0, # of connection points: 2
#     Edge 79, Type (0, 0), BuildingBlock: OJICUG_clean_linker_0, # of connection points: 2
#     Edge 80, Type (0, 0), BuildingBlock: OJICUG_clean_linker_0, # of connection points: 2
#     Edge 81, Type (0, 0), BuildingBlock: OJICUG_clean_linker_0, # of connection points: 2
#     Edge 82, Type (0, 0), BuildingBlock: OJICUG_clean_linker_0, # of connection points: 2
#     Edge 83, Type (0, 0), BuildingBlock: OJICUG_clean_linker_0, # of connection points: 2
#     Edge 84, Type (0, 0), BuildingBlock: OJICUG_clean_linker_0, # of connection points: 2
#     Edge 85, Type (0, 0), BuildingBlock: OJICUG_clean_linker_0, # of connection points: 2
#     Edge 86, Type (0, 0), BuildingBlock: OJICUG_clean_linker_0, # of connection points: 2
#     Edge 87, Type (0, 0), BuildingBlock: OJICUG_clean_linker_0, # of connection points: 2
#     Edge 88, Type (0, 0), BuildingBlock: OJICUG_clean_linker_0, # of connection points: 2
#     Edge 89, Type (0, 0), BuildingBlock: OJICUG_clean_linker_0, # of connection points: 2
#     Edge 90, Type (0, 0), BuildingBlock: OJICUG_clean_linker_0, # of connection points: 2
#     Edge 91, Type (0, 0), BuildingBlock: OJICUG_clean_linker_0, # of connection points: 2
#     Edge 92, Type (0, 0), BuildingBlock: OJICUG_clean_linker_0, # of connection points: 2
#     Edge 93, Type (0, 0), BuildingBlock: OJICUG_clean_linker_0, # of connection points: 2
#     Edge 94, Type (0, 0), BuildingBlock: OJICUG_clean_linker_0, # of connection points: 2
#     Edge 95, Type (0, 0), BuildingBlock: OJICUG_clean_linker_0, # of connection points: 2
#     Edge 96, Type (0, 0), BuildingBlock: OJICUG_clean_linker_0, # of connection points: 2
#     Edge 97, Type (0, 0), BuildingBlock: OJICUG_clean_linker_0, # of connection points: 2
#     Edge 98, Type (0, 0), BuildingBlock: OJICUG_clean_linker_0, # of connection points: 2
#     Edge 99, Type (0, 0), BuildingBlock: OJICUG_clean_linker_0, # of connection points: 2
#     Edge 100, Type (0, 0), BuildingBlock: OJICUG_clean_linker_0, # of connection points: 2
#     Edge 101, Type (0, 0), BuildingBlock: OJICUG_clean_linker_0, # of connection points: 2
#     Edge 102, Type (0, 0), BuildingBlock: OJICUG_clean_linker_0, # of connection points: 2
#     Edge 103, Type (0, 0), BuildingBlock: OJICUG_clean_linker_0, # of connection points: 2
#     Edge 104, Type (0, 0), BuildingBlock: OJICUG_clean_linker_0, # of connection points: 2
#     Edge 105, Type (0, 0), BuildingBlock: OJICUG_clean_linker_0, # of connection points: 2
#     Edge 106, Type (0, 0), BuildingBlock: OJICUG_clean_linker_0, # of connection points: 2
#     Edge 107, Type (0, 0), BuildingBlock: OJICUG_clean_linker_0, # of connection points: 2
#     Edge 108, Type (0, 0), BuildingBlock: OJICUG_clean_linker_0, # of connection points: 2
#     Edge 109, Type (0, 0), BuildingBlock: OJICUG_clean_linker_0, # of connection points: 2
#     Edge 110, Type (0, 0), BuildingBlock: OJICUG_clean_linker_0, # of connection points: 2
#     Edge 111, Type (0, 0), BuildingBlock: OJICUG_clean_linker_0, # of connection points: 2
#     Edge 112, Type (0, 0), BuildingBlock: OJICUG_clean_linker_0, # of connection points: 2
#     Edge 113, Type (0, 0), BuildingBlock: OJICUG_clean_linker_0, # of connection points: 2
#     Edge 114, Type (0, 0), BuildingBlock: OJICUG_clean_linker_0, # of connection points: 2
#     Edge 115, Type (0, 0), BuildingBlock: OJICUG_clean_linker_0, # of connection points: 2
#     Edge 116, Type (0, 0), BuildingBlock: OJICUG_clean_linker_0, # of connection points: 2
#     Edge 117, Type (0, 0), BuildingBlock: OJICUG_clean_linker_0, # of connection points: 2
#     Edge 118, Type (0, 0), BuildingBlock: OJICUG_clean_linker_0, # of connection points: 2
#     Edge 119, Type (0, 0), BuildingBlock: OJICUG_clean_linker_0, # of connection points: 2
#     Edge 120, Type (0, 0), BuildingBlock: OJICUG_clean_linker_0, # of connection points: 2
#     Edge 121, Type (0, 0), BuildingBlock: OJICUG_clean_linker_0, # of connection points: 2
#     Edge 122, Type (0, 0), BuildingBlock: OJICUG_clean_linker_0, # of connection points: 2
#     Edge 123, Type (0, 0), BuildingBlock: OJICUG_clean_linker_0, # of connection points: 2
#     Edge 124, Type (0, 0), BuildingBlock: OJICUG_clean_linker_0, # of connection points: 2
#     Edge 125, Type (0, 0), BuildingBlock: OJICUG_clean_linker_0, # of connection points: 2
#     Edge 126, Type (0, 0), BuildingBlock: OJICUG_clean_linker_0, # of connection points: 2
#     Edge 127, Type (0, 0), BuildingBlock: OJICUG_clean_linker_0, # of connection points: 2
# Relax obj value: 0.057
# Max RMSD: 0.160
# Mean RMSD: 0.160
data_MOF--net-son--node1-KUMBOL_clean_sbu_0--edge1-OJICUG_clean_linker_0
_symmetry_space_group_name_H-M    P1
_symmetry_Int_Tables_number       1
_symmetry_cell_setting            triclinic
loop_
_symmetry_equiv_pos_as_xyz
'x, y, z'
_cell_length_a     58.213216
_cell_length_b     39.568655
_cell_length_c     20.316977
_cell_angle_alpha  89.983718
_cell_angle_beta   90.073627
_cell_angle_gamma 89.996476
loop_
_atom_site_label
_atom_site_type_symbol
_atom_site_fract_x
_atom_site_fract_y
_atom_site_fract_z
_atom_type_partial_charge
Gd0 Gd 0.28589 0.23814 0.273 0.0
Gd1 Gd 0.32434 0.26601 0.15831 0.0
C2 C 0.39479 0.22498 0.22415 0.0
C3 C 0.41467 0.27739 0.24678 0.0
C4 C 0.37665 0.27829 0.19808 0.0
C5 C 0.37569 0.24339 0.19975 0.0
C6 C 0.39724 0.29494 0.21435 0.0
C7 C 0.41342 0.24224 0.25184 0.0
C8 C 0.39433 0.18981 0.22278 0.0
C9 C 0.37515 0.17365 0.19773 0.0
N10 N 0.35633 0.22753 0.17804 0.0
C11 C 0.35639 0.19265 0.17607 0.0
H12 H 0.34244 0.1778 0.15958 0.0
C13 C 0.36162 0.32806 0.15186 0.0
N14 N 0.35841 0.29601 0.17516 0.0
C15 C 0.38335 0.34261 0.15327 0.0
C16 C 0.40042 0.32785 0.19201 0.0
H17 H 0.34784 0.34231 0.12982 0.0
H18 H 0.4269 0.22842 0.27664 0.0
H19 H 0.24831 0.31381 0.19524 0.0
H20 H 0.40859 0.17496 0.24132 0.0
H21 H 0.37449 0.14629 0.19647 0.0
H22 H 0.42925 0.29092 0.26648 0.0
H23 H 0.29401 0.15133 0.31526 0.0
H24 H 0.18256 0.25514 0.27521 0.0
H25 H 0.20123 0.33168 0.20252 0.0
H26 H 0.18545 0.14194 0.3657 0.0
H27 H 0.3864 0.3659 0.12694 0.0
H28 H 0.41656 0.34077 0.20008 0.0
H29 H 0.15902 0.20068 0.33531 0.0
H30 H 0.27006 0.10391 0.34994 0.0
N31 N 0.2481 0.2577 0.23561 0.0
C32 C 0.18295 0.28 0.2545 0.0
C33 C 0.2059 0.30658 0.21884 0.0
C34 C 0.18989 0.23781 0.28497 0.0
C35 C 0.23489 0.22679 0.26563 0.0
C36 C 0.2367 0.29421 0.21162 0.0
N37 N 0.26666 0.18434 0.29088 0.0
C38 C 0.244 0.18841 0.2916 0.0
C39 C 0.26152 0.12707 0.33569 0.0
C40 C 0.23737 0.12869 0.34403 0.0
C41 C 0.27556 0.15444 0.3137 0.0
C42 C 0.22542 0.15785 0.32761 0.0
H43 H 0.22824 0.1073 0.36446 0.0
O44 O 0.29781 0.2275 0.37165 0.0
O45 O 0.32255 0.25764 0.26534 0.0
O46 O 0.31366 0.21225 0.13203 0.0
O47 O 0.28643 0.19345 0.20749 0.0
O48 O 0.31881 0.21004 0.30237 0.0
O49 O 0.26667 0.25524 0.35809 0.0
O50 O 0.32248 0.3038 0.08366 0.0
O51 O 0.2885 0.24767 0.16395 0.0
O52 O 0.28525 0.29582 0.27602 0.0
O53 O 0.32158 0.30818 0.23905 0.0
O54 O 0.29202 0.29045 0.11295 0.0
O55 O 0.34121 0.25616 0.06505 0.0
C56 C 0.33349 0.23411 0.29459 0.0
C57 C 0.19434 0.16296 0.34312 0.0
C58 C 0.17716 0.20059 0.32384 0.0
C59 C 0.28098 0.24242 0.40026 0.0
C60 C 0.2727 0.22488 0.45876 0.0
C61 C 0.26138 0.19393 0.45585 0.0
C62 C 0.27921 0.23774 0.51945 0.0
C63 C 0.27462 0.22018 0.57772 0.0
C64 C 0.25624 0.17608 0.51249 0.0
C65 C 0.26279 0.18897 0.57309 0.0
C66 C 0.29999 0.18837 0.15677 0.0
C67 C 0.27738 0.26665 0.12424 0.0
C68 C 0.33526 0.28615 0.04382 0.0
C69 C 0.33224 0.29241 0.97487 0.0
C70 C 0.34653 0.31763 0.95005 0.0
C71 C 0.31464 0.27801 0.936 0.0
C72 C 0.31266 0.28828 0.86997 0.0
C73 C 0.34452 0.3273 0.88546 0.0
C74 C 0.32914 0.31148 0.84537 0.0
C75 C 0.30331 0.31613 0.27603 0.0
H76 H 0.25607 0.18374 0.41065 0.0
H77 H 0.2877 0.26169 0.51995 0.0
H78 H 0.24693 0.15243 0.50945 0.0
H79 H 0.25719 0.17487 0.61535 0.0
H80 H 0.35919 0.33007 0.98091 0.0
H81 H 0.30274 0.25994 0.95694 0.0
H82 H 0.35491 0.34687 0.86448 0.0
H83 H 0.3304 0.31908 0.7947 0.0
Gd84 Gd 0.96525 -0.00313 0.27404 0.0
Gd85 Gd 0.92545 0.97275 0.1607 0.0
C86 C 0.85623 0.0196 0.22659 0.0
C87 C 0.83415 0.96891 0.24758 0.0
C88 C 0.87246 0.96486 0.20087 0.0
C89 C 0.87478 -0.00045 0.20342 0.0
C90 C 0.85153 0.94959 0.21891 0.0
C91 C 0.83628 0.00402 0.2503 0.0
C92 C 0.85889 0.05456 0.23047 0.0
C93 C 0.88037 0.06836 0.21903 0.0
N94 N 0.89556 0.0134 0.18878 0.0
C95 C 0.89865 0.04711 0.20287 0.0
H96 H 0.91526 0.05766 0.21035 0.0
C97 C 0.88622 0.91354 0.15833 0.0
N98 N 0.89026 0.94577 0.17915 0.0
C99 C 0.86437 0.89966 0.16367 0.0
C100 C 0.848 0.91584 0.20239 0.0
H101 H 0.8995 0.89847 0.1359 0.0
H102 H 0.82269 0.01895 0.27204 0.0
H103 H 0.003 0.92037 0.20044 0.0
H104 H 0.84507 0.07068 0.24753 0.0
H105 H 0.88339 0.09493 0.22854 0.0
H106 H 0.81892 0.95671 0.2664 0.0
H107 H 0.95599 0.08465 0.3081 0.0
H108 H 0.06815 0.98092 0.28019 0.0
H109 H 0.05031 0.90349 0.20922 0.0
H110 H 0.064 0.09596 0.36168 0.0
H111 H 0.86055 0.87644 0.13841 0.0
H112 H 0.83192 0.90339 0.21371 0.0
H113 H 0.09124 0.03664 0.33555 0.0
H114 H 0.97951 0.13214 0.34479 0.0
N115 N 0.0027 0.97662 0.23976 0.0
C116 C 0.06801 0.95592 0.26014 0.0
C117 C 0.04535 0.92857 0.22492 0.0
C118 C 0.06062 -0.00184 0.28954 0.0
C119 C 0.01545 0.00803 0.26955 0.0
C120 C 0.01443 0.94019 0.21693 0.0
N121 N 0.98357 0.0511 0.28964 0.0
C122 C 0.00607 0.04667 0.2938 0.0
C123 C 0.98822 0.10896 0.33158 0.0
C124 C 0.0123 0.10741 0.34203 0.0
C125 C 0.97444 0.08146 0.30892 0.0
C126 C 0.02433 0.07791 0.32863 0.0
H127 H 0.02128 0.12911 0.36182 0.0
O128 O 0.95495 0.01286 0.37052 0.0
O129 O 0.92872 0.97777 0.26754 0.0
O130 O 0.93632 0.02703 0.13427 0.0
O131 O 0.96708 0.03995 0.20349 0.0
O132 O 0.93312 0.02452 0.30819 0.0
O133 O 0.98341 0.97871 0.36104 0.0
O134 O 0.92467 0.93578 0.08406 0.0
O135 O 0.9619 0.98834 0.16565 0.0
O136 O 0.96476 0.93917 0.27736 0.0
O137 O 0.92822 0.92877 0.23874 0.0
O138 O 0.95666 0.94655 0.11307 0.0
O139 O 0.90852 0.98556 0.06874 0.0
C140 C 0.91857 0.00042 0.30044 0.0
C141 C 0.05539 0.0736 0.34422 0.0
C142 C 0.07297 0.03605 0.32664 0.0
C143 C 0.97011 -0.00472 0.40118 0.0
C144 C 0.97895 0.01227 0.45957 0.0
C145 C 0.98946 0.04382 0.45642 0.0
C146 C 0.97228 -0.00037 0.52028 0.0
C147 C 0.97606 0.01793 0.57822 0.0
C148 C 0.99431 0.06202 0.51276 0.0
C149 C 0.9877 0.04934 0.57331 0.0
C150 C 0.95267 0.04796 0.15589 0.0
C151 C 0.97215 0.96912 0.12474 0.0
C152 C 0.91286 0.95546 0.04534 0.0
C153 C 0.91577 0.9504 0.97567 0.0
C154 C 0.90003 0.92777 0.9487 0.0
C155 C 0.93418 0.96343 0.93778 0.0
C156 C 0.9361 0.95344 0.87136 0.0
C157 C 0.90188 0.91855 0.88389 0.0
C158 C 0.91885 0.93185 0.84561 0.0
C159 C 0.94638 0.91942 0.27547 0.0
H160 H 0.99385 0.05462 0.41103 0.0
H161 H 0.96403 0.97547 0.52092 0.0
H162 H 0.00314 0.08606 0.50942 0.0
H163 H 0.99302 0.06392 0.61533 0.0
H164 H 0.88647 0.91668 0.97828 0.0
H165 H 0.94671 0.98025 0.95968 0.0
H166 H 0.89054 0.90058 0.86176 0.0
H167 H 0.91799 0.92383 0.79521 0.0
Gd168 Gd 0.28716 0.00239 0.97493 0.0
Gd169 Gd 0.32566 0.97949 0.09362 0.0
C170 C 0.3955 0.02235 0.02904 0.0
C171 C 0.41469 0.97128 0.99351 0.0
C172 C 0.3773 0.96828 0.04529 0.0
C173 C 0.37639 0.00292 0.04917 0.0
C174 C 0.39756 0.95236 0.02368 0.0
C175 C 0.41394 0.00651 0.99718 0.0
C176 C 0.39543 0.05702 0.04101 0.0
C177 C 0.3775 0.07091 0.07723 0.0
N178 N 0.35762 0.01734 0.07707 0.0
C179 C 0.35916 0.05042 0.09705 0.0
H180 H 0.34687 0.06136 0.13031 0.0
C181 C 0.3639 0.91818 0.09243 0.0
N182 N 0.35981 0.95019 0.0711 0.0
C183 C 0.38523 0.90297 0.07979 0.0
C184 C 0.40115 0.91879 0.03995 0.0
H185 H 0.351 0.90538 0.12089 0.0
H186 H 0.42768 0.02135 0.97603 0.0
H187 H 0.26642 0.92864 0.045 0.0
H188 H 0.40966 0.07281 0.02566 0.0
H189 H 0.37799 0.09731 0.09112 0.0
H190 H 0.42878 0.95856 0.96953 0.0
H191 H 0.28322 0.08871 0.95764 0.0
H192 H 0.19502 0.92493 0.01928 0.0
H193 H 0.23028 0.90043 0.0507 0.0
H194 H 0.17985 0.08144 0.93675 0.0
H195 H 0.39055 0.88028 0.10259 0.0
H196 H 0.41732 0.90635 0.02927 0.0
H197 H 0.15989 0.01929 0.94455 0.0
H198 H 0.2554 0.1315 0.94758 0.0
N199 N 0.25358 0.97693 0.01722 0.0
C200 C 0.20964 0.9418 0.01856 0.0
C201 C 0.23034 0.92685 0.0367 0.0
C202 C 0.20864 0.97685 1.00057 0.0
C203 C 0.23483 -0.00354 0.00962 0.0
C204 C 0.25145 0.94356 0.03361 0.0
N205 N 0.26082 0.04832 0.98746 0.0
C206 C 0.23863 0.03838 0.99326 0.0
C207 C 0.24961 0.10633 0.95993 0.0
C208 C 0.22636 0.09949 0.95697 0.0
C209 C 0.26602 0.08114 0.97011 0.0
C210 C 0.21845 0.06697 0.96662 0.0
H211 H 0.21458 0.11949 0.94325 0.0
O212 O 0.26574 0.02086 0.89654 0.0
O213 O 0.32357 0.98491 0.98552 0.0
O214 O 0.31222 0.03231 0.10832 0.0
O215 O 0.30536 0.0489 1.00296 0.0
O216 O 0.31857 0.0284 0.93126 0.0
O217 O 0.28911 0.98113 0.87478 0.0
O218 O 0.32605 0.9471 0.17778 0.0
O219 O 0.28882 -0.00106 0.08969 0.0
O220 O 0.29103 0.94629 0.9606 0.0
O221 O 0.32295 0.93238 0.0235 0.0
O222 O 0.29434 0.95462 0.14022 0.0
O223 O 0.34179 -0.00178 0.18309 0.0
C224 C 0.33378 0.0064 0.94911 0.0
C225 C 0.19042 0.06011 0.94899 0.0
C226 C 0.17818 0.02123 0.9567 0.0
C227 C 0.27505 0.00346 0.85056 0.0
C228 C 0.28253 0.02332 0.79281 0.0
C229 C 0.28401 0.05884 0.79556 0.0
C230 C 0.28915 0.00675 0.7351 0.0
C231 C 0.29995 0.02479 0.68401 0.0
C232 C 0.29281 0.07707 0.74258 0.0
C233 C 0.30113 0.06016 0.68743 0.0
C234 C 0.30961 0.05595 0.06375 0.0
C235 C 0.27956 0.97891 0.13317 0.0
C236 C 0.33608 0.9704 0.21311 0.0
C237 C 0.34307 0.96294 0.27883 0.0
C238 C 0.35492 0.93298 0.28946 0.0
C239 C 0.33469 0.9822 0.33133 0.0
C240 C 0.33788 0.97033 0.39522 0.0
C241 C 0.35773 0.92131 0.35272 0.0
C242 C 0.34942 0.93971 0.40593 0.0
C243 C 0.30723 0.92465 0.97754 0.0
H244 H 0.27853 0.07267 0.83858 0.0
H245 H 0.28791 0.97946 0.73311 0.0
H246 H 0.29356 0.10436 0.74472 0.0
H247 H 0.30811 0.07485 0.64723 0.0
H248 H 0.3609 0.91768 0.24864 0.0
H249 H 0.32429 0.00451 0.32236 0.0
H250 H 0.36557 0.89725 0.35904 0.0
H251 H 0.351 0.9292 0.45496 0.0
Gd252 Gd 0.96528 0.23911 0.98925 0.0
Gd253 Gd 0.92477 0.26242 0.10169 0.0
C254 C 0.85651 0.21921 0.02211 0.0
C255 C 0.8362 0.27103 0.99783 0.0
C256 C 0.87237 0.27246 0.05654 0.0
C257 C 0.87447 0.23801 0.05144 0.0
C258 C 0.85178 0.28835 0.03713 0.0
C259 C 0.83868 0.2362 0.99029 0.0
C260 C 0.85812 0.18417 0.01931 0.0
C261 C 0.87875 0.16914 0.03616 0.0
N262 N 0.89453 0.22321 0.06994 0.0
C263 C 0.89715 0.1895 0.05544 0.0
H264 H 0.9136 0.17862 0.04792 0.0
C265 C 0.88365 0.31994 0.11577 0.0
N266 N 0.88931 0.29019 0.08607 0.0
C267 C 0.8613 0.33283 0.11011 0.0
C268 C 0.8464 0.31954 0.06385 0.0
H269 H 0.89566 0.33252 0.1474 0.0
H270 H 0.82681 0.22234 0.95969 0.0
H271 H 0.0025 0.31497 0.0687 0.0
H272 H 0.84447 0.16899 0.99828 0.0
H273 H 0.88136 0.14249 0.0267 0.0
H274 H 0.82184 0.28413 0.9756 0.0
H275 H 0.95748 0.15126 0.95276 0.0
H276 H 0.06837 0.25741 0.98623 0.0
H277 H 0.04958 0.33315 0.06164 0.0
H278 H 0.06577 0.14472 0.89346 0.0
H279 H 0.85492 0.35156 0.14337 0.0
H280 H 0.82971 0.33104 0.05603 0.0
H281 H 0.09208 0.2033 0.92567 0.0
H282 H 0.98162 0.10471 0.9146 0.0
N283 N 0.00285 0.25935 0.0261 0.0
C284 C 0.06792 0.28211 0.00766 0.0
C285 C 0.04492 0.30827 0.04417 0.0
C286 C 0.06107 0.24014 0.97595 0.0
C287 C 0.01607 0.2288 0.99499 0.0
C288 C 0.01415 0.29569 0.05117 0.0
N289 N 0.98461 0.1855 0.97206 0.0
C290 C 0.00709 0.19042 0.96832 0.0
C291 C 0.99001 0.12814 0.92802 0.0
C292 C 0.014 0.13058 0.91673 0.0
C293 C 0.97588 0.15502 0.95187 0.0
C294 C 0.02573 0.16017 0.93152 0.0
H295 H 0.0232 0.1094 0.89582 0.0
O296 O 0.95539 0.22443 0.89166 0.0
O297 O 0.92843 0.25792 0.99402 0.0
O298 O 0.9347 0.20744 0.12543 0.0
O299 O 0.96599 0.19514 0.05765 0.0
O300 O 0.93333 0.2117 0.95173 0.0
O301 O 0.98358 0.25888 0.90372 0.0
O302 O 0.92582 0.29855 0.17965 0.0
O303 O 0.9612 0.24604 0.09779 0.0
O304 O 0.96449 0.29685 0.9903 0.0
O305 O 0.92754 0.30681 0.02571 0.0
O306 O 0.95631 0.28779 0.15037 0.0
O307 O 0.90778 0.24986 0.19374 0.0
C308 C 0.9185 0.23552 0.95921 0.0
C309 C 0.05681 0.16558 0.91622 0.0
C310 C 0.07391 0.20315 0.93659 0.0
C311 C 0.97045 0.2427 0.86237 0.0
C312 C 0.97955 0.22641 0.8037 0.0
C313 C 0.99003 0.19481 0.80614 0.0
C314 C 0.97321 0.23972 0.74321 0.0
C315 C 0.977 0.2218 0.68476 0.0
C316 C 0.99511 0.17718 0.74942 0.0
C317 C 0.98869 0.19044 0.68914 0.0
C318 C 0.95092 0.18652 0.10304 0.0
C319 C 0.97166 0.26506 0.13862 0.0
C320 C 0.91341 0.27938 0.21784 0.0
C321 C 0.91529 0.28479 0.2876 0.0
C322 C 0.8983 0.3058 0.31303 0.0
C323 C 0.93429 0.27466 0.32626 0.0
C324 C 0.93562 0.28574 0.39206 0.0
C325 C 0.89973 0.31675 0.37692 0.0
C326 C 0.91757 0.30636 0.41635 0.0
C327 C 0.946 0.31641 0.99095 0.0
H328 H 0.9943 0.18363 0.85125 0.0
H329 H 0.96536 0.26414 0.74335 0.0
H330 H 0.00394 0.15315 0.75227 0.0
H331 H 0.99413 0.17624 0.64702 0.0
H332 H 0.88425 0.31479 0.28255 0.0
H333 H 0.94779 0.25924 0.30523 0.0
H334 H 0.88734 0.33405 0.39622 0.0
H335 H 0.91662 0.31521 0.46634 0.0
Gd336 Gd 0.67783 0.72329 0.85086 0.0
Gd337 Gd 0.71782 0.74541 0.7364 0.0
C338 C 0.8137 0.75203 0.73675 0.0
C339 C 0.80787 0.82671 0.67887 0.0
C340 C 0.75817 0.79773 0.72154 0.0
C341 C 0.76808 0.75968 0.7491 0.0
C342 C 0.77644 0.82957 0.68882 0.0
C343 C 0.82589 0.79027 0.70067 0.0
C344 C 0.82145 0.71022 0.76769 0.0
C345 C 0.79878 0.68185 0.79935 0.0
N346 N 0.75539 0.72763 0.77692 0.0
C347 C 0.76752 0.69193 0.802 0.0
H348 H 0.75622 0.67156 0.8163 0.0
C349 C 0.7261 0.82982 0.69373 0.0
N350 N 0.73537 0.8004 0.71788 0.0
C351 C 0.73974 0.85779 0.67299 0.0
C352 C 0.76402 0.85771 0.66915 0.0
H353 H 0.70765 0.83208 0.68954 0.0
H354 H 0.84422 0.79149 0.69312 0.0
H355 H 0.66266 0.80607 0.80439 0.0
H356 H 0.82141 0.73517 0.74742 0.0
H357 H 0.80396 0.65701 0.81593 0.0
H358 H 0.81632 0.84864 0.65862 0.0
H359 H 0.65594 0.64517 0.88739 0.0
H360 H 0.59317 0.8071 0.75249 0.0
H361 H 0.6285 0.83802 0.78087 0.0
H362 H 0.57318 0.69059 0.75101 0.0
H363 H 0.73086 0.88025 0.65636 0.0
H364 H 0.77293 0.87952 0.64963 0.0
H365 H 0.57785 0.75083 0.71863 0.0
H366 H 0.61756 0.6206 0.89721 0.0
N367 N 0.64599 0.759 0.82273 0.0
C368 C 0.6076 0.79361 0.77363 0.0
C369 C 0.62737 0.81113 0.79032 0.0
C370 C 0.6075 0.75849 0.77912 0.0
C371 C 0.62641 0.74192 0.80821 0.0
C372 C 0.64681 0.79307 0.80985 0.0
N373 N 0.64415 0.69081 0.84145 0.0
C374 C 0.6255 0.70732 0.81801 0.0
C375 C 0.61983 0.64426 0.87133 0.0
C376 C 0.60175 0.65848 0.83575 0.0
C377 C 0.64157 0.65902 0.86734 0.0
C378 C 0.60483 0.68991 0.80648 0.0
H379 H 0.58538 0.64562 0.83234 0.0
O380 O 0.6784 0.68857 0.92898 0.0
O381 O 0.7146 0.7393 0.84645 0.0
O382 O 0.71682 0.68803 0.74575 0.0
O383 O 0.67906 0.68072 0.77221 0.0
O384 O 0.70909 0.69725 0.8986 0.0
O385 O 0.6614 0.73822 0.94342 0.0
O386 O 0.74113 0.73893 0.65631 0.0
O387 O 0.68056 0.7307 0.74331 0.0
O388 O 0.68752 0.77777 0.8739 0.0
O389 O 0.71651 0.7917 0.79951 0.0
O390 O 0.68717 0.77566 0.69671 0.0
O391 O 0.70583 0.73224 0.63646 0.0
C392 C 0.72445 0.72024 0.88879 0.0
C393 C 0.58784 0.705 0.76796 0.0
C394 C 0.5899 0.73916 0.75183 0.0
C395 C 0.66592 0.70797 0.96643 0.0
C396 C 0.66739 0.7004 0.03485 0.0
C397 C 0.65475 0.67182 0.05169 0.0
C398 C 0.68485 0.71285 0.07614 0.0
C399 C 0.68846 0.69721 0.13747 0.0
C400 C 0.65926 0.65533 0.10936 0.0
C401 C 0.67437 0.66901 0.15379 0.0
C402 C 0.69763 0.67034 0.73961 0.0
C403 C 0.67114 0.75405 0.70934 0.0
C404 C 0.72598 0.73576 0.6112 0.0
C405 C 0.72809 0.75806 0.55362 0.0
C406 C 0.73878 0.78961 0.55669 0.0
C407 C 0.72039 0.7463 0.4933 0.0
C408 C 0.72172 0.76612 0.43594 0.0
C409 C 0.7403 0.81004 0.50162 0.0
C410 C 0.73182 0.79867 0.44177 0.0
C411 C 0.70268 0.79928 0.84863 0.0
H412 H 0.64246 0.66066 0.01786 0.0
H413 H 0.69558 0.73353 0.05969 0.0
H414 H 0.65091 0.63186 0.12017 0.0
H415 H 0.67413 0.65662 0.201 0.0
H416 H 0.74721 0.79782 0.59998 0.0
H417 H 0.71414 0.72095 0.49307 0.0
H418 H 0.74895 0.83423 0.50475 0.0
H419 H 0.73518 0.81512 0.4008 0.0
Gd420 Gd 0.07377 0.01785 0.85338 0.0
Gd421 Gd 0.03537 0.99145 0.73991 0.0
C422 C 0.93978 0.98979 0.72467 0.0
C423 C 0.94497 0.91462 0.66859 0.0
C424 C 0.99432 0.94128 0.72038 0.0
C425 C 0.9849 0.97979 0.74504 0.0
C426 C 0.97606 0.91014 0.68476 0.0
C427 C 0.92744 0.95207 0.68668 0.0
C428 C 0.93239 0.03196 0.75432 0.0
C429 C 0.95502 0.05918 0.78998 0.0
N430 N 0.99769 0.01112 0.77498 0.0
C431 C 0.98593 0.0475 0.7981 0.0
H432 H 0.99734 0.0673 0.81475 0.0
C433 C 0.02605 0.9069 0.70379 0.0
N434 N 0.01688 0.93714 0.72372 0.0
C435 C 0.0123 0.87942 0.68072 0.0
C436 C 0.98821 0.88086 0.67039 0.0
H437 H 0.04451 0.90382 0.70423 0.0
H438 H 0.90927 0.95165 0.67582 0.0
H439 H 0.09087 0.93574 0.80826 0.0
H440 H 0.93227 0.007 0.73405 0.0
H441 H 0.95007 0.08422 0.80588 0.0
H442 H 0.93628 0.89314 0.64708 0.0
H443 H 0.09298 0.09618 0.88973 0.0
H444 H 0.16033 0.93775 0.75783 0.0
H445 H 0.12565 0.90529 0.78515 0.0
H446 H 0.17988 0.05408 0.76897 0.0
H447 H 0.02107 0.85637 0.66701 0.0
H448 H 0.9793 0.85925 0.65001 0.0
H449 H 0.17564 -0.00473 0.72941 0.0
H450 H 0.13062 0.12313 0.90346 0.0
N451 N 0.10654 0.98339 0.82742 0.0
C452 C 0.14574 0.95055 0.77938 0.0
C453 C 0.12628 0.93214 0.79536 0.0
C454 C 0.14538 0.9856 0.78651 0.0
C455 C 0.1259 0.00129 0.8143 0.0
C456 C 0.10647 0.94928 0.81474 0.0
N457 N 0.10663 0.05161 0.84507 0.0
C458 C 0.12597 0.03587 0.82423 0.0
C459 C 0.12929 0.09927 0.8777 0.0
C460 C 0.14828 0.08562 0.84534 0.0
C461 C 0.10801 0.0834 0.87119 0.0
C462 C 0.14654 0.054 0.8163 0.0
H463 H 0.16441 0.09916 0.84408 0.0
O464 O 0.0718 0.05135 0.93526 0.0
O465 O 0.03786 -0.00049 0.84904 0.0
O466 O 0.03483 0.04903 0.73638 0.0
O467 O 0.07117 0.06091 0.77405 0.0
O468 O 0.04181 0.04302 0.89837 0.0
O469 O 0.09146 0.00351 0.9431 0.0
O470 O 0.04612 0.9761 0.64349 0.0
O471 O 0.07189 0.01119 0.74596 0.0
O472 O 0.06542 0.962 0.87587 0.0
O473 O 0.03434 0.94828 0.80886 0.0
O474 O 0.06795 0.96375 0.70831 0.0
O475 O 0.01713 0.00924 0.65294 0.0
C476 C 0.02724 0.0189 0.88889 0.0
C477 C 0.16477 0.03949 0.78164 0.0
C478 C 0.16325 0.00571 0.76281 0.0
C479 C 0.08541 0.03219 0.97003 0.0
C480 C 0.08429 0.03569 0.03973 0.0
C481 C 0.10073 0.05747 0.06572 0.0
C482 C 0.06587 0.02355 0.07791 0.0
C483 C 0.06437 0.03376 0.1438 0.0
C484 C 0.09931 0.06711 0.13034 0.0
C485 C 0.08195 0.05502 0.16907 0.0
C486 C 0.05294 0.06921 0.73694 0.0
C487 C 0.08243 0.98809 0.71466 0.0
C488 C 0.03077 0.99331 0.61283 0.0
C489 C 0.02213 0.97613 0.5546 0.0
C490 C 0.01111 0.94496 0.55804 0.0
C491 C 0.02915 0.98836 0.49394 0.0
C492 C 0.0247 0.97028 0.43623 0.0
C493 C 0.006 0.92675 0.50195 0.0
C494 C 0.01264 0.93922 0.44131 0.0
C495 C 0.04963 0.9403 0.85387 0.0
H496 H 0.11415 0.06818 0.03515 0.0
H497 H 0.05279 0.00756 0.05624 0.0
H498 H 0.11111 0.0849 0.15114 0.0
H499 H 0.0827 0.06381 0.21896 0.0
H500 H 0.00638 0.93459 0.60341 0.0
H501 H 0.0385 0.01175 0.49321 0.0
H502 H 0.99679 0.90303 0.5055 0.0
H503 H 0.00699 0.92483 0.39935 0.0
Gd504 Gd 0.67693 0.01329 0.9133 0.0
Gd505 Gd 0.71629 0.99212 0.03054 0.0
C506 C 0.81151 0.99033 0.03634 0.0
C507 C 0.80682 0.91586 0.09546 0.0
C508 C 0.75712 0.94161 0.047 0.0
C509 C 0.76635 0.98026 0.01929 0.0
C510 C 0.77573 0.9112 0.08259 0.0
C511 C 0.82416 0.95303 0.07449 0.0
C512 C 0.81877 0.03218 1.00479 0.0
C513 C 0.79595 0.05919 0.96972 0.0
N514 N 0.75333 0.01156 0.98931 0.0
C515 C 0.76499 0.04763 0.96402 0.0
H516 H 0.75352 0.06739 0.94747 0.0
C517 C 0.72565 0.90737 0.07038 0.0
N518 N 0.73444 0.93762 0.04864 0.0
C519 C 0.73979 0.88025 0.09264 0.0
C520 C 0.76392 0.88213 0.10028 0.0
H521 H 0.70722 0.90414 0.07248 0.0
H522 H 0.84251 0.9525 0.08213 0.0
H523 H 0.66216 0.93173 0.96872 0.0
H524 H 0.81899 0.00742 0.02588 0.0
H525 H 0.80084 0.08406 0.95265 0.0
H526 H 0.81565 0.89392 0.11422 0.0
H527 H 0.65634 0.0904 0.88108 0.0
H528 H 0.59127 0.92754 1.00066 0.0
H529 H 0.62811 0.89822 0.98468 0.0
H530 H 0.57112 0.04445 0.00688 0.0
H531 H 0.73135 0.85718 0.10794 0.0
H532 H 0.77321 0.86089 0.12077 0.0
H533 H 0.5733 0.98243 0.02655 0.0
H534 H 0.6188 0.11846 0.87953 0.0
N535 N 0.64509 0.97733 0.94189 0.0
C536 C 0.60606 0.94156 0.98318 0.0
C537 C 0.62668 0.92488 0.97327 0.0
C538 C 0.6055 0.97668 0.97716 0.0
C539 C 0.62506 0.99391 0.95309 0.0
C540 C 0.64623 0.94365 0.95781 0.0
N541 N 0.64345 0.04516 0.92443 0.0
C542 C 0.62448 0.02865 0.94587 0.0
C543 C 0.62057 0.09407 0.90289 0.0
C544 C 0.60247 0.07988 0.93843 0.0
C545 C 0.64167 0.07748 0.90155 0.0
C546 C 0.60414 0.0465 0.95933 0.0
H547 H 0.58687 0.09405 0.94679 0.0
O548 O 0.67888 0.04654 0.83149 0.0
O549 O 0.7136 -0.0036 0.91967 0.0
O550 O 0.71722 0.04904 0.01755 0.0
O551 O 0.67959 0.05747 0.98886 0.0
O552 O 0.70864 0.03861 0.86667 0.0
O553 O 0.66031 -0.00226 0.82112 0.0
O554 O 0.73774 0.98928 0.11612 0.0
O555 O 0.67934 0.00798 0.02145 0.0
O556 O 0.68596 0.95818 0.89287 0.0
O557 O 0.71454 0.94537 0.96893 0.0
O558 O 0.68497 0.96336 0.07017 0.0
O559 O 0.70548 0.01277 0.12721 0.0
C560 C 0.72375 0.0154 0.87777 0.0
C561 C 0.58587 0.03014 0.99046 0.0
C562 C 0.58671 -0.00482 0.99979 0.0
C563 C 0.6673 0.02594 0.79398 0.0
C564 C 0.66119 0.03685 0.72858 0.0
C565 C 0.65592 0.07106 0.71911 0.0
C566 C 0.66631 0.01602 0.67491 0.0
C567 C 0.66654 0.03003 0.61203 0.0
C568 C 0.65648 0.08475 0.65646 0.0
C569 C 0.6611 0.06425 0.60284 0.0
C570 C 0.69846 0.06784 0.02049 0.0
C571 C 0.66947 0.98567 0.05666 0.0
C572 C 0.72324 0.00053 0.15749 0.0
C573 C 0.71951 0.97907 0.21602 0.0
C574 C 0.72423 0.94428 0.21607 0.0
C575 C 0.711 0.99344 0.27325 0.0
C576 C 0.70257 0.97286 0.32404 0.0
C577 C 0.71663 0.92356 0.26723 0.0
C578 C 0.70507 0.93774 0.32053 0.0
C579 C 0.70085 0.93695 0.92013 0.0
H580 H 0.65265 0.08764 0.76042 0.0
H581 H 0.67249 0.99044 0.68267 0.0
H582 H 0.65315 0.11118 0.64928 0.0
H583 H 0.66176 0.07569 0.55443 0.0
H584 H 0.7345 0.93337 0.17823 0.0
H585 H 0.70957 0.02069 0.27634 0.0
H586 H 0.72004 0.89667 0.266 0.0
H587 H 0.69956 0.92166 0.36069 0.0
Gd588 Gd 0.0752 0.72612 0.90913 0.0
Gd589 Gd 0.03469 0.74916 0.02255 0.0
C590 C 0.93906 0.74851 0.03884 0.0
C591 C 0.94366 0.82311 0.09833 0.0
C592 C 0.99319 0.798 0.045 0.0
C593 C 0.98407 0.7596 0.01876 0.0
C594 C 0.97472 0.82838 0.08223 0.0
C595 C 0.92642 0.78559 0.07848 0.0
C596 C 0.93202 0.70659 0.00725 0.0
C597 C 0.95483 0.68028 0.97019 0.0
N598 N 0.99709 0.72897 0.98714 0.0
C599 C 0.98562 0.69266 0.96243 0.0
H600 H 0.99717 0.67334 0.94447 0.0
C601 C 0.0245 0.83332 0.06044 0.0
N602 N 0.01565 0.80288 0.04047 0.0
C603 C 0.01051 0.86025 0.08474 0.0
C604 C 0.98655 0.85793 0.09663 0.0
H605 H 0.0429 0.83704 0.05896 0.0
H606 H 0.90827 0.78555 0.08977 0.0
H607 H 0.08753 0.81024 0.9595 0.0
H608 H 0.93169 0.73128 0.02871 0.0
H609 H 0.95001 0.6555 0.95257 0.0
H610 H 0.93478 0.84409 0.12104 0.0
H611 H 0.10236 0.6555 0.86424 0.0
H612 H 0.15678 0.81789 0.00914 0.0
H613 H 0.12026 0.84529 0.98067 0.0
H614 H 0.18005 0.70298 0.02391 0.0
H615 H 0.01898 0.88365 0.09788 0.0
H616 H 0.97745 0.87919 0.11766 0.0
H617 H 0.17422 0.76396 0.04607 0.0
H618 H 0.14212 0.63396 0.8662 0.0
N619 N 0.10595 0.76473 0.9394 0.0
C620 C 0.14296 0.80298 0.98833 0.0
C621 C 0.1225 0.81853 0.97159 0.0
C622 C 0.14431 0.7679 0.98508 0.0
C623 C 0.126 0.74949 0.95679 0.0
C624 C 0.10381 0.79865 0.95279 0.0
N625 N 0.11021 0.69753 0.92432 0.0
C626 C 0.12775 0.71496 0.95159 0.0
C627 C 0.13694 0.65354 0.89908 0.0
C628 C 0.1528 0.66683 0.94285 0.0
C629 C 0.11493 0.66747 0.89489 0.0
C630 C 0.1485 0.69866 0.96852 0.0
H631 H 0.16926 0.65453 0.94982 0.0
O632 O 0.07389 0.69137 0.82902 0.0
O633 O 0.03867 0.74205 0.91396 0.0
O634 O 0.03601 0.69139 0.02078 0.0
O635 O 0.07297 0.6818 0.98503 0.0
O636 O 0.04377 0.70041 0.86093 0.0
O637 O 0.09262 0.73976 0.81848 0.0
O638 O 0.045 0.76277 0.12034 0.0
O639 O 0.07148 0.73117 0.0162 0.0
O640 O 0.06514 0.78087 0.88673 0.0
O641 O 0.03374 0.79311 0.95408 0.0
O642 O 0.06649 0.77747 0.05818 0.0
O643 O 0.01657 0.72897 0.10814 0.0
C644 C 0.02828 0.72289 0.87325 0.0
C645 C 0.16504 0.71591 1.00497 0.0
C646 C 0.1624 0.75053 0.01485 0.0
C647 C 0.08679 0.71073 0.7926 0.0
C648 C 0.08504 0.70663 0.72275 0.0
C649 C 0.1026 0.68727 0.69577 0.0
C650 C 0.06547 0.71566 0.6856 0.0
C651 C 0.06389 0.70461 0.62 0.0
C652 C 0.10095 0.67636 0.63193 0.0
C653 C 0.08222 0.68495 0.59447 0.0
C654 C 0.05466 0.67212 0.02023 0.0
C655 C 0.08143 0.75392 0.04971 0.0
C656 C 0.02988 0.74466 0.14969 0.0
C657 C 0.02082 0.7611 0.20841 0.0
C658 C 0.0101 0.79252 0.2055 0.0
C659 C 0.02733 0.74828 0.26927 0.0
C660 C 0.02256 0.766 0.32734 0.0
C661 C 0.00431 0.81002 0.2618 0.0
C662 C 0.01029 0.79687 0.32241 0.0
C663 C 0.04895 0.80175 0.90905 0.0
H664 H 0.1171 0.6791 0.72535 0.0
H665 H 0.05165 0.72999 0.70775 0.0
H666 H 0.11367 0.66003 0.61126 0.0
H667 H 0.08272 0.67524 0.54517 0.0
H668 H 0.00623 0.80379 0.16034 0.0
H669 H 0.03655 0.72484 0.26995 0.0
H670 H 0.9952 0.83383 0.25838 0.0
H671 H 0.00417 0.81075 0.36436 0.0
Gd672 Gd 0.28699 0.73565 0.7865 0.0
Gd673 Gd 0.32548 0.75958 0.66769 0.0
C674 C 0.39546 0.71227 0.72122 0.0
C675 C 0.41617 0.76077 0.76315 0.0
C676 C 0.3781 0.76774 0.71541 0.0
C677 C 0.37665 0.73337 0.7048 0.0
C678 C 0.39835 0.78185 0.74226 0.0
C679 C 0.41484 0.72599 0.75237 0.0
C680 C 0.39422 0.67794 0.70623 0.0
C681 C 0.37559 0.66605 0.67022 0.0
N682 N 0.35723 0.72067 0.6769 0.0
C683 C 0.35779 0.68815 0.6532 0.0
H684 H 0.3449 0.67871 0.61991 0.0
C685 C 0.36228 0.82186 0.70045 0.0
N686 N 0.35996 0.78749 0.69887 0.0
C687 C 0.38183 0.83683 0.7283 0.0
C688 C 0.39994 0.81676 0.74901 0.0
H689 H 0.34843 0.83769 0.68344 0.0
H690 H 0.42885 0.70991 0.76819 0.0
H691 H 0.2647 0.80771 0.71408 0.0
H692 H 0.40806 0.66084 0.71922 0.0
H693 H 0.37512 0.63995 0.65442 0.0
H694 H 0.43084 0.77131 0.7885 0.0
H695 H 0.28445 0.64925 0.80799 0.0
H696 H 0.19326 0.80888 0.73825 0.0
H697 H 0.22808 0.83431 0.70617 0.0
H698 H 0.18099 0.6538 0.83528 0.0
H699 H 0.38291 0.86372 0.73601 0.0
H700 H 0.41516 0.82842 0.76961 0.0
H701 H 0.1599 0.71481 0.82025 0.0
H702 H 0.25726 0.60555 0.82103 0.0
N703 N 0.25274 0.75914 0.74341 0.0
C704 C 0.20816 0.79259 0.74008 0.0
C705 C 0.2286 0.80809 0.72146 0.0
C706 C 0.20779 0.75782 0.76025 0.0
C707 C 0.23432 0.73905 0.75242 0.0
C708 C 0.24999 0.79226 0.72568 0.0
N709 N 0.26126 0.68857 0.77756 0.0
C710 C 0.23887 0.69761 0.77177 0.0
C711 C 0.25105 0.63053 0.80827 0.0
C712 C 0.22771 0.63672 0.81217 0.0
C713 C 0.26704 0.65615 0.79628 0.0
C714 C 0.21923 0.66879 0.80087 0.0
H715 H 0.2163 0.61652 0.82722 0.0
O716 O 0.26572 0.71834 0.86592 0.0
O717 O 0.32334 0.75417 0.77521 0.0
O718 O 0.31171 0.70605 0.65343 0.0
O719 O 0.30544 0.68937 0.759 0.0
O720 O 0.3191 0.71066 0.82933 0.0
O721 O 0.28991 0.7572 0.88628 0.0
O722 O 0.32744 0.79694 0.59084 0.0
O723 O 0.28886 0.7394 0.67127 0.0
O724 O 0.28874 0.79177 0.80122 0.0
O725 O 0.32111 0.80497 0.74154 0.0
O726 O 0.29379 0.78351 0.62001 0.0
O727 O 0.33972 0.74456 0.57385 0.0
C728 C 0.33404 0.73294 0.81092 0.0
C729 C 0.19108 0.67497 0.81853 0.0
C730 C 0.17816 0.71322 0.8077 0.0
C731 C 0.27546 0.73569 0.91128 0.0
C732 C 0.28266 0.71598 0.96945 0.0
C733 C 0.28408 0.68045 0.96712 0.0
C734 C 0.28916 0.73269 0.02714 0.0
C735 C 0.29964 0.71469 0.07889 0.0
C736 C 0.29274 0.66233 0.02046 0.0
C737 C 0.30089 0.67934 0.07572 0.0
C738 C 0.30931 0.68216 0.69813 0.0
C739 C 0.27917 0.75915 0.62793 0.0
C740 C 0.33549 0.77447 0.54977 0.0
C741 C 0.34119 0.78297 0.48282 0.0
C742 C 0.34725 0.81639 0.46979 0.0
C743 C 0.33543 0.76083 0.43123 0.0
C744 C 0.33607 0.77277 0.36655 0.0
C745 C 0.34698 0.82807 0.40588 0.0
C746 C 0.34271 0.80622 0.35418 0.0
C747 C 0.30522 0.81309 0.78621 0.0
H748 H 0.27867 0.66653 0.92419 0.0
H749 H 0.28784 0.75996 0.029 0.0
H750 H 0.29345 0.63504 0.01861 0.0
H751 H 0.3077 0.66472 0.11634 0.0
H752 H 0.35077 0.83406 0.50931 0.0
H753 H 0.32838 0.73601 0.44163 0.0
H754 H 0.34991 0.85426 0.39677 0.0
H755 H 0.34265 0.81644 0.30475 0.0
Gd756 Gd 0.96482 0.50125 0.78688 0.0
Gd757 Gd 0.9283 0.47591 0.66585 0.0
C758 C 0.85762 0.50942 0.73268 0.0
C759 C 0.83891 0.45541 0.74844 0.0
C760 C 0.87677 0.45806 0.70026 0.0
C761 C 0.87692 0.49276 0.70677 0.0
C762 C 0.85631 0.44019 0.71143 0.0
C763 C 0.84025 0.49012 0.76154 0.0
C764 C 0.85655 0.54467 0.72937 0.0
C765 C 0.87364 0.56197 0.69523 0.0
N766 N 0.89514 0.51027 0.68339 0.0
C767 C 0.89247 0.54409 0.67032 0.0
H768 H 0.90411 0.55761 0.63889 0.0
C769 C 0.89266 0.41226 0.64257 0.0
N770 N 0.89523 0.44266 0.67345 0.0
C771 C 0.87105 0.3968 0.64003 0.0
C772 C 0.85337 0.40923 0.67986 0.0
H773 H 0.90701 0.40027 0.61853 0.0
H774 H 0.8276 0.50225 0.79211 0.0
H775 H 0.98782 0.42801 0.72258 0.0
H776 H 0.84204 0.5584 0.74928 0.0
H777 H 0.87218 0.58893 0.68716 0.0
H778 H 0.82422 0.44093 0.76485 0.0
H779 H 0.96671 0.58775 0.8047 0.0
H780 H 0.05942 0.42933 0.74244 0.0
H781 H 0.02465 0.40205 0.7164 0.0
H782 H 0.07009 0.58597 0.8311 0.0
H783 H 0.86863 0.37401 0.61144 0.0
H784 H 0.8372 0.39585 0.6833 0.0
H785 H 0.09186 0.52529 0.81888 0.0
H786 H 0.99338 0.63203 0.8154 0.0
N787 N 0.99936 0.47753 0.74679 0.0
C788 C 0.04431 0.44523 0.74382 0.0
C789 C 0.02392 0.42869 0.72852 0.0
C790 C 0.04437 0.48037 0.76131 0.0
C791 C 0.0176 0.49833 0.75296 0.0
C792 C 0.00238 0.44406 0.73238 0.0
N793 N 0.99017 0.54862 0.7754 0.0
C794 C 0.01264 0.53996 0.77006 0.0
C795 C 0.99985 0.6072 0.80329 0.0
C796 C 0.02324 0.60162 0.80732 0.0
C797 C 0.98412 0.58115 0.79256 0.0
C798 C 0.03201 0.56961 0.79763 0.0
H799 H 0.03446 0.62224 0.82142 0.0
O800 O 0.98601 0.52056 0.86471 0.0
O801 O 0.92855 0.4823 0.77488 0.0
O802 O 0.94005 0.53004 0.65128 0.0
O803 O 0.94604 0.54684 0.7571 0.0
O804 O 0.93276 0.52637 0.82818 0.0
O805 O 0.96256 0.48125 0.88805 0.0
O806 O 0.93156 0.44575 0.57987 0.0
O807 O 0.96422 0.49741 0.67218 0.0
O808 O 0.96179 0.44502 0.80276 0.0
O809 O 0.93044 0.42966 0.73873 0.0
O810 O 0.96081 0.45183 0.6247 0.0
O811 O 0.91179 0.49378 0.57547 0.0
C812 C 0.91786 0.50387 0.81053 0.0
C813 C 0.06024 0.56435 0.81537 0.0
C814 C 0.07357 0.52632 0.80632 0.0
C815 C 0.9767 0.50374 0.91129 0.0
C816 C 0.96951 0.52424 0.96829 0.0
C817 C 0.96919 0.55986 0.96566 0.0
C818 C 0.96254 0.50814 0.02593 0.0
C819 C 0.95272 0.52683 0.07741 0.0
C820 C 0.96107 0.57864 0.01882 0.0
C821 C 0.95246 0.56223 0.07416 0.0
C822 C 0.94241 0.55382 0.69598 0.0
C823 C 0.97458 0.47737 0.6311 0.0
C824 C 0.91974 0.46726 0.54481 0.0
C825 C 0.91317 0.45794 0.47927 0.0
C826 C 0.90701 0.4244 0.46663 0.0
C827 C 0.91742 0.48054 0.42785 0.0
C828 C 0.91571 0.46907 0.36346 0.0
C829 C 0.90555 0.41315 0.4025 0.0
C830 C 0.90915 0.43551 0.35099 0.0
C831 C 0.94594 0.42277 0.78606 0.0
H832 H 0.9752 0.57336 0.92289 0.0
H833 H 0.96303 0.48079 0.02807 0.0
H834 H 0.96128 0.60595 0.01695 0.0
H835 H 0.94619 0.57726 0.11487 0.0
H836 H 0.90452 0.40642 0.50598 0.0
H837 H 0.92439 0.50548 0.43789 0.0
H838 H 0.90195 0.38699 0.3925 0.0
H839 H 0.90843 0.42575 0.30127 0.0
Gd840 Gd 0.28591 0.50074 0.4886 0.0
Gd841 Gd 0.32649 0.47292 0.60034 0.0
C842 C 0.39524 0.5256 0.54325 0.0
C843 C 0.41749 0.47805 0.50508 0.0
C844 C 0.37946 0.46911 0.55196 0.0
C845 C 0.37698 0.50357 0.56151 0.0
C846 C 0.40004 0.45618 0.52475 0.0
C847 C 0.41533 0.51263 0.51527 0.0
C848 C 0.39217 0.56037 0.54758 0.0
C849 C 0.37091 0.57278 0.56528 0.0
N850 N 0.35607 0.51583 0.5805 0.0
C851 C 0.35309 0.55044 0.57954 0.0
H852 H 0.33705 0.5625 0.58423 0.0
C853 C 0.36346 0.41448 0.5531 0.0
N854 N 0.36126 0.44844 0.56318 0.0
C855 C 0.38355 0.40082 0.52652 0.0
C856 C 0.402 0.42167 0.51311 0.0
H857 H 0.34924 0.39797 0.5629 0.0
H858 H 0.42875 0.52938 0.49801 0.0
H859 H 0.24943 0.42287 0.56236 0.0
H860 H 0.40564 0.57785 0.53348 0.0
H861 H 0.36778 0.59975 0.56454 0.0
H862 H 0.43207 0.46834 0.47836 0.0
H863 H 0.29342 0.58829 0.45389 0.0
H864 H 0.18327 0.48028 0.48066 0.0
H865 H 0.20258 0.40373 0.55224 0.0
H866 H 0.18516 0.59463 0.39487 0.0
H867 H 0.38469 0.37444 0.5139 0.0
H868 H 0.4175 0.41107 0.49216 0.0
H869 H 0.15923 0.53466 0.42246 0.0
H870 H 0.26927 0.63463 0.41571 0.0
N871 N 0.24866 0.47922 0.52316 0.0
C872 C 0.1839 0.45529 0.50074 0.0
C873 C 0.20703 0.42904 0.5367 0.0
C874 C 0.19043 0.49787 0.47155 0.0
C875 C 0.23527 0.50996 0.49291 0.0
C876 C 0.23765 0.44218 0.54562 0.0
N877 N 0.26635 0.55403 0.47303 0.0
C878 C 0.24392 0.54886 0.46874 0.0
C879 C 0.26083 0.61137 0.42959 0.0
C880 C 0.23678 0.60897 0.41882 0.0
C881 C 0.27502 0.58453 0.45316 0.0
C882 C 0.22514 0.57921 0.43302 0.0
H883 H 0.22754 0.63019 0.39806 0.0
O884 O 0.29681 0.51679 0.39207 0.0
O885 O 0.32249 0.48124 0.4947 0.0
O886 O 0.31323 0.525 0.63301 0.0
O887 O 0.28477 0.54345 0.56027 0.0
O888 O 0.31865 0.52903 0.45915 0.0
O889 O 0.2683 0.48279 0.40073 0.0
O890 O 0.33328 0.43247 0.66904 0.0
O891 O 0.29001 0.48815 0.59586 0.0
O892 O 0.28461 0.44349 0.47992 0.0
O893 O 0.3203 0.43075 0.52105 0.0
O894 O 0.2956 0.44669 0.64957 0.0
O895 O 0.34175 0.48497 0.69452 0.0
C896 C 0.33314 0.50466 0.46529 0.0
C897 C 0.19419 0.5734 0.41613 0.0
C898 C 0.17738 0.53512 0.43363 0.0
C899 C 0.28171 0.49924 0.3609 0.0
C900 C 0.27279 0.51574 0.30176 0.0
C901 C 0.26192 0.54702 0.30398 0.0
C902 C 0.27914 0.50241 0.24116 0.0
C903 C 0.27569 0.52035 0.18237 0.0
C904 C 0.2572 0.56479 0.24689 0.0
C905 C 0.26412 0.55186 0.1866 0.0
C906 C 0.29804 0.54806 0.61223 0.0
C907 C 0.27984 0.46883 0.63706 0.0
C908 C 0.34088 0.4535 0.71354 0.0
C909 C 0.33571 0.44606 0.78233 0.0
C910 C 0.35051 0.42232 0.81015 0.0
C911 C 0.3182 0.4616 0.82119 0.0
C912 C 0.3166 0.45318 0.88901 0.0
C913 C 0.34952 0.41567 0.87636 0.0
C914 C 0.33387 0.43184 0.9152 0.0
C915 C 0.30229 0.42269 0.48348 0.0
H916 H 0.25704 0.55776 0.34928 0.0
H917 H 0.28684 0.47792 0.24147 0.0
H918 H 0.24823 0.58874 0.2494 0.0
H919 H 0.25903 0.56636 0.14425 0.0
H920 H 0.36351 0.40966 0.78091 0.0
H921 H 0.30637 0.4795 0.79936 0.0
H922 H 0.36085 0.398 0.89946 0.0
H923 H 0.33564 0.42621 0.96672 0.0
Gd924 Gd 0.96328 0.73736 0.48952 0.0
Gd925 Gd 0.92346 0.76357 0.60372 0.0
C926 C 0.8559 0.71404 0.53025 0.0
C927 C 0.83519 0.7637 0.49454 0.0
C928 C 0.8714 0.76935 0.55228 0.0
C929 C 0.8737 0.73489 0.55539 0.0
C930 C 0.85094 0.78374 0.5279 0.0
C931 C 0.83728 0.72861 0.49696 0.0
C932 C 0.85761 0.6792 0.53722 0.0
C933 C 0.87633 0.66592 0.57034 0.0
N934 N 0.8929 0.72189 0.58421 0.0
C935 C 0.8935 0.68742 0.59404 0.0
H936 H 0.90656 0.67494 0.6205 0.0
C937 C 0.88099 0.81915 0.60634 0.0
N938 N 0.88757 0.7887 0.58146 0.0
C939 C 0.85961 0.83278 0.59015 0.0
C940 C 0.84559 0.81675 0.54491 0.0
H941 H 0.8914 0.83248 0.6414 0.0
H942 H 0.82439 0.71296 0.4735 0.0
H943 H 1.00007 0.81485 0.56357 0.0
H944 H 0.84445 0.66245 0.51817 0.0
H945 H 0.87765 0.63888 0.57777 0.0
H946 H 0.82103 0.77546 0.46926 0.0
H947 H 0.95572 0.65006 0.4505 0.0
H948 H 0.06618 0.75699 0.4833 0.0
H949 H 0.04699 0.83365 0.55443 0.0
H950 H 0.06406 0.64227 0.39955 0.0
H951 H 0.85308 0.85388 0.61625 0.0
H952 H 0.82923 0.82793 0.53154 0.0
H953 H 0.09016 0.70246 0.42641 0.0
H954 H 0.97999 0.60322 0.41528 0.0
N955 N 1.00071 0.75851 0.52435 0.0
C956 C 0.0656 0.78198 0.50336 0.0
C957 C 0.04249 0.80837 0.53881 0.0
C958 C 0.05897 0.73945 0.47405 0.0
C959 C 0.01406 0.72767 0.49446 0.0
C960 C 0.01181 0.79545 0.54705 0.0
N961 N 0.9828 0.68396 0.47253 0.0
C962 C 0.00532 0.68883 0.46998 0.0
C963 C 0.98837 0.62655 0.42908 0.0
C964 C 0.01247 0.62871 0.41996 0.0
C965 C 0.97413 0.65366 0.45111 0.0
C966 C 0.02411 0.65838 0.43477 0.0
H967 H 0.02177 0.60739 0.39992 0.0
O968 O 0.95205 0.72428 0.3914 0.0
O969 O 0.92652 0.75573 0.49679 0.0
O970 O 0.93577 0.71047 0.63054 0.0
O971 O 0.96399 0.69324 0.55675 0.0
O972 O 0.93109 0.70804 0.46054 0.0
O973 O 0.98174 0.75552 0.40353 0.0
O974 O 0.9237 0.80342 0.67465 0.0
O975 O 0.95988 0.74725 0.59803 0.0
O976 O 0.96285 0.79502 0.48695 0.0
O977 O 0.92625 0.80639 0.52374 0.0
O978 O 0.95523 0.78942 0.64972 0.0
O979 O 0.90795 0.75428 0.69913 0.0
C980 C 0.91619 0.7318 0.46734 0.0
C981 C 0.05507 0.66394 0.41883 0.0
C982 C 0.07196 0.70214 0.4365 0.0
C983 C 0.96812 0.7406 0.36209 0.0
C984 C 0.97705 0.72356 0.30365 0.0
C985 C 0.98785 0.6922 0.3063 0.0
C986 C 0.9712 0.73702 0.24288 0.0
C987 C 0.9753 0.7193 0.18441 0.0
C988 C 0.99308 0.67457 0.24946 0.0
C989 C 0.98681 0.6878 0.18888 0.0
C990 C 0.95017 0.68729 0.60658 0.0
C991 C 0.9706 0.76674 0.63771 0.0
C992 C 0.91268 0.78517 0.71771 0.0
C993 C 0.91679 0.79284 0.78607 0.0
C994 C 0.90318 0.81903 0.81032 0.0
C995 C 0.9339 0.77754 0.82579 0.0
C996 C 0.93581 0.78773 0.8921 0.0
C997 C 0.90493 0.82834 0.87517 0.0
C998 C 0.91949 0.81131 0.91616 0.0
C999 C 0.9446 0.815 0.4874 0.0
H1000 H 0.99256 0.68142 0.35151 0.0
H1001 H 0.96355 0.76158 0.24275 0.0
H1002 H 0.00205 0.65063 0.2524 0.0
H1003 H 0.99231 0.67357 0.14661 0.0
H1004 H 0.89091 0.83211 0.77912 0.0
H1005 H 0.94535 0.75868 0.80547 0.0
H1006 H 0.89488 0.84847 0.89549 0.0
H1007 H 0.91782 0.8182 0.96721 0.0
Gd1008 Gd 0.67419 0.22196 0.34922 0.0
Gd1009 Gd 0.71448 0.25106 0.23909 0.0
C1010 C 0.79454 0.23525 0.25059 0.0
C1011 C 0.80703 0.31991 0.19334 0.0
C1012 C 0.76068 0.29218 0.24143 0.0
C1013 C 0.76735 0.25128 0.26014 0.0
C1014 C 0.77865 0.32311 0.21219 0.0
C1015 C 0.82181 0.28293 0.20302 0.0
C1016 C 0.79579 0.20026 0.26952 0.0
C1017 C 0.77622 0.18265 0.289 0.0
N1018 N 0.7501 0.22955 0.27134 0.0
C1019 C 0.75423 0.19668 0.28797 0.0
H1020 H 0.74018 0.18001 0.30005 0.0
C1021 C 0.73001 0.33047 0.22108 0.0
N1022 N 0.73802 0.29925 0.23936 0.0
C1023 C 0.74452 0.35769 0.20629 0.0
C1024 C 0.76822 0.35407 0.20071 0.0
H1025 H 0.71166 0.33446 0.21745 0.0
H1026 H 0.84003 0.28307 0.18981 0.0
H1027 H 0.6641 0.30735 0.3037 0.0
H1028 H 0.81135 0.18533 0.26952 0.0
H1029 H 0.77797 0.1563 0.30274 0.0
H1030 H 0.81595 0.34194 0.17517 0.0
H1031 H 0.65287 0.14581 0.30821 0.0
H1032 H 0.59341 0.32337 0.2836 0.0
H1033 H 0.63239 0.34593 0.29704 0.0
H1034 H 0.56893 0.21301 0.22747 0.0
H1035 H 0.7369 0.38191 0.19447 0.0
H1036 H 0.7784 0.37542 0.18458 0.0
H1037 H 0.57137 0.27437 0.2477 0.0
H1038 H 0.61903 0.12166 0.25291 0.0
N1039 N 0.64432 0.263 0.32433 0.0
C1040 C 0.60737 0.30634 0.29578 0.0
C1041 C 0.62926 0.31917 0.3037 0.0
C1042 C 0.6045 0.27141 0.29395 0.0
C1043 C 0.62319 0.25 0.31093 0.0
C1044 C 0.64755 0.29695 0.31294 0.0
N1045 N 0.64006 0.19571 0.31072 0.0
C1046 C 0.62127 0.21547 0.30148 0.0
C1047 C 0.61927 0.14789 0.26783 0.0
C1048 C 0.60011 0.16777 0.25756 0.0
C1049 C 0.63871 0.16198 0.29737 0.0
C1050 C 0.60099 0.2019 0.27362 0.0
H1051 H 0.58493 0.15688 0.23543 0.0
O1052 O 0.66773 0.18247 0.42113 0.0
O1053 O 0.71065 0.23892 0.34769 0.0
O1054 O 0.71392 0.19564 0.21605 0.0
O1055 O 0.6821 0.17827 0.27379 0.0
O1056 O 0.70505 0.19784 0.4029 0.0
O1057 O 0.65775 0.235 0.44093 0.0
O1058 O 0.70747 0.27376 0.14566 0.0
O1059 O 0.67827 0.23086 0.24271 0.0
O1060 O 0.68369 0.27576 0.38304 0.0
O1061 O 0.71399 0.29171 0.31541 0.0
O1062 O 0.68226 0.27806 0.20241 0.0
O1063 O 0.7336 0.23422 0.15177 0.0
C1064 C 0.72061 0.22036 0.39127 0.0
C1065 C 0.5831 0.22318 0.25526 0.0
C1066 C 0.58463 0.25779 0.26637 0.0
C1067 C 0.65932 0.2042 0.46312 0.0
C1068 C 0.66333 0.19909 0.53372 0.0
C1069 C 0.64596 0.1805 0.56373 0.0
C1070 C 0.68181 0.21266 0.57222 0.0
C1071 C 0.68243 0.20626 0.64128 0.0
C1072 C 0.64594 0.17604 0.63062 0.0
C1073 C 0.6635 0.18871 0.66859 0.0
C1074 C 0.69833 0.17266 0.22859 0.0
C1075 C 0.66789 0.25352 0.20953 0.0
C1076 C 0.72154 0.25423 0.11387 0.0
C1077 C 0.73107 0.26856 0.054 0.0
C1078 C 0.74145 0.30031 0.05444 0.0
C1079 C 0.72482 0.25351 0.99433 0.0
C1080 C 0.72722 0.27087 0.9344 0.0
C1081 C 0.74631 0.3164 0.99563 0.0
C1082 C 0.73932 0.302 0.93639 0.0
C1083 C 0.69963 0.29785 0.36398 0.0
H1084 H 0.63185 0.17 0.53536 0.0
H1085 H 0.69514 0.22754 0.54917 0.0
H1086 H 0.63248 0.16195 0.65377 0.0
H1087 H 0.66173 0.18391 0.72032 0.0
H1088 H 0.74561 0.31278 0.09992 0.0
H1089 H 0.71736 0.22879 0.9964 0.0
H1090 H 0.75513 0.34044 0.9961 0.0
H1091 H 0.74446 0.31524 0.8929 0.0
Gd1092 Gd 0.07518 0.51147 0.3424 0.0
Gd1093 Gd 0.0367 0.4874 0.22336 0.0
C1094 C 0.95753 0.51178 0.24707 0.0
C1095 C 0.94013 0.42833 0.19362 0.0
C1096 C 0.98811 0.4509 0.23902 0.0
C1097 C 0.98393 0.49266 0.25588 0.0
C1098 C 0.96824 0.422 0.21152 0.0
C1099 C 0.92747 0.46688 0.20214 0.0
C1100 C 0.95824 0.54684 0.26489 0.0
C1101 C 0.97885 0.56225 0.2824 0.0
N1102 N 0.00255 0.51245 0.26405 0.0
C1103 C 1.00009 0.54583 0.28013 0.0
H1104 H 0.01489 0.56108 0.29176 0.0
C1105 C 0.0159 0.40835 0.21879 0.0
N1106 N 0.01041 0.44122 0.23494 0.0
C1107 C 0.99968 0.38299 0.2076 0.0
C1108 C 0.97643 0.38959 0.20256 0.0
H1109 H 0.03326 0.40084 0.20817 0.0
H1110 H 0.9092 0.46855 0.18961 0.0
H1111 H 0.09591 0.43038 0.38835 0.0
H1112 H 0.94348 0.56344 0.2655 0.0
H1113 H 0.97858 0.5888 0.2953 0.0
H1114 H 0.92981 0.40692 0.17965 0.0
H1115 H 0.1036 0.58046 0.37914 0.0
H1116 H 0.15803 0.41403 0.28248 0.0
H1117 H 0.1263 0.39238 0.35137 0.0
H1118 H 0.18005 0.52659 0.22285 0.0
H1119 H 0.00569 0.3578 0.19633 0.0
H1120 H 0.96486 0.3694 0.18847 0.0
H1121 H 0.17765 0.46422 0.23174 0.0
H1122 H 0.14335 0.60342 0.36479 0.0
N1123 N 0.10688 0.47239 0.32953 0.0
C1124 C 0.14403 0.43063 0.29627 0.0
C1125 C 0.1261 0.41836 0.33475 0.0
C1126 C 0.14461 0.46493 0.28096 0.0
C1127 C 0.12571 0.48533 0.29912 0.0
C1128 C 0.1082 0.43999 0.3535 0.0
N1129 N 0.11019 0.53837 0.31981 0.0
C1130 C 0.12721 0.51972 0.29319 0.0
C1131 C 0.1373 0.58289 0.33571 0.0
C1132 C 0.15246 0.5678 0.2921 0.0
C1133 C 0.11553 0.56879 0.34621 0.0
C1134 C 0.148 0.53475 0.27293 0.0
H1135 H 0.16899 0.57945 0.28274 0.0
O1136 O 0.07311 0.54734 0.4217 0.0
O1137 O 0.03866 0.49113 0.33769 0.0
O1138 O 0.03994 0.54372 0.20909 0.0
O1139 O 0.07249 0.55776 0.26928 0.0
O1140 O 0.04319 0.53592 0.38656 0.0
O1141 O 0.09074 0.49819 0.43614 0.0
O1142 O 0.01579 0.46821 0.14449 0.0
O1143 O 0.07294 0.50577 0.23434 0.0
O1144 O 0.06203 0.45818 0.35872 0.0
O1145 O 0.05503 0.44114 0.25346 0.0
O1146 O 0.06848 0.46177 0.18133 0.0
O1147 O 0.03901 0.50813 0.1228 0.0
C1148 C 0.02877 0.51126 0.37949 0.0
C1149 C 0.16512 0.51486 0.24463 0.0
C1150 C 0.16365 0.47968 0.24961 0.0
C1151 C 0.08386 0.52678 0.46136 0.0
C1152 C 0.0889 0.53637 0.5283 0.0
C1153 C 0.09371 0.57035 0.54144 0.0
C1154 C 0.08455 0.5136 0.57975 0.0
C1155 C 0.08528 0.52523 0.64446 0.0
C1156 C 0.09426 0.58169 0.60585 0.0
C1157 C 0.09102 0.55911 0.65713 0.0
C1158 C 0.05626 0.56549 0.22442 0.0
C1159 C 0.08345 0.48421 0.1988 0.0
C1160 C 0.02502 0.48571 0.09856 0.0
C1161 C 0.03246 0.46599 0.04068 0.0
C1162 C 0.03455 0.43052 0.04364 0.0
C1163 C 0.03853 0.48271 0.98261 0.0
C1164 C 0.04909 0.4649 0.93079 0.0
C1165 C 0.04332 0.41251 0.9903 0.0
C1166 C 0.05091 0.4296 0.93447 0.0
C1167 C 0.05922 0.43424 0.3145 0.0
H1168 H 0.09624 0.58835 0.5019 0.0
H1169 H 0.07844 0.48824 0.56931 0.0
H1170 H 0.09749 0.60789 0.6163 0.0
H1171 H 0.09123 0.56893 0.70685 0.0
H1172 H 0.02965 0.4166 0.08716 0.0
H1173 H 0.0368 0.50992 0.98052 0.0
H1174 H 0.04461 0.38527 0.99268 0.0
H1175 H 0.05786 0.41509 0.89397 0.0
Gd1176 Gd 0.67442 0.51556 0.40955 0.0
Gd1177 Gd 0.71434 0.48923 0.52109 0.0
C1178 C 0.79442 0.50826 0.51579 0.0
C1179 C 0.80857 0.42291 0.5664 0.0
C1180 C 0.76181 0.44974 0.51863 0.0
C1181 C 0.76769 0.49117 0.50347 0.0
C1182 C 0.78033 0.41898 0.54602 0.0
C1183 C 0.82264 0.46069 0.56085 0.0
C1184 C 0.795 0.54364 0.49992 0.0
C1185 C 0.77522 0.56064 0.48007 0.0
N1186 N 0.75 0.51226 0.49216 0.0
C1187 C 0.7536 0.54545 0.47716 0.0
H1188 H 0.7394 0.56152 0.46351 0.0
C1189 C 0.73182 0.41024 0.53812 0.0
N1190 N 0.73921 0.44193 0.52045 0.0
C1191 C 0.74676 0.38326 0.55075 0.0
C1192 C 0.77043 0.38749 0.55558 0.0
H1193 H 0.71356 0.40557 0.54261 0.0
H1194 H 0.84078 0.46104 0.5751 0.0
H1195 H 0.65751 0.43392 0.46177 0.0
H1196 H 0.81017 0.55934 0.50248 0.0
H1197 H 0.77649 0.58735 0.46914 0.0
H1198 H 0.81792 0.40082 0.58245 0.0
H1199 H 0.65201 0.59089 0.35708 0.0
H1200 H 0.58915 0.43771 0.52243 0.0
H1201 H 0.62303 0.40434 0.49084 0.0
H1202 H 0.57119 0.55463 0.51426 0.0
H1203 H 0.73954 0.35866 0.56162 0.0
H1204 H 0.78097 0.36623 0.57035 0.0
H1205 H 0.57547 0.49556 0.55307 0.0
H1206 H 0.61405 0.61744 0.35291 0.0
N1207 N 0.64192 0.48172 0.44235 0.0
C1208 C 0.60349 0.45002 0.49835 0.0
C1209 C 0.62242 0.43111 0.47984 0.0
C1210 C 0.60415 0.48499 0.49047 0.0
C1211 C 0.62298 0.49998 0.45799 0.0
C1212 C 0.64196 0.44774 0.45681 0.0
N1213 N 0.64091 0.54882 0.4154 0.0
C1214 C 0.62256 0.53416 0.44455 0.0
C1215 C 0.61658 0.59475 0.38168 0.0
C1216 C 0.59927 0.58305 0.42334 0.0
C1217 C 0.63807 0.57894 0.38306 0.0
C1218 C 0.60238 0.55271 0.45642 0.0
H1219 H 0.5833 0.5968 0.42825 0.0
O1220 O 0.67752 0.54827 0.32626 0.0
O1221 O 0.71073 0.49685 0.41172 0.0
O1222 O 0.71079 0.54577 0.53793 0.0
O1223 O 0.67713 0.56076 0.48444 0.0
O1224 O 0.70638 0.54068 0.3639 0.0
O1225 O 0.65742 0.50078 0.31855 0.0
O1226 O 0.70797 0.46543 0.61325 0.0
O1227 O 0.67795 0.50842 0.51788 0.0
O1228 O 0.68057 0.45925 0.38708 0.0
O1229 O 0.71339 0.44773 0.44724 0.0
O1230 O 0.68285 0.4617 0.56006 0.0
O1231 O 0.7334 0.50625 0.60849 0.0
C1232 C 0.72104 0.51647 0.37133 0.0
C1233 C 0.58563 0.53944 0.49821 0.0
C1234 C 0.58733 0.50575 0.51772 0.0
C1235 C 0.66446 0.52873 0.29068 0.0
C1236 C 0.66458 0.5331 0.22058 0.0
C1237 C 0.64701 0.55349 0.19646 0.0
C1238 C 0.68292 0.52278 0.18 0.0
C1239 C 0.68317 0.5332 0.11383 0.0
C1240 C 0.64733 0.56369 0.13188 0.0
C1241 C 0.66472 0.55337 0.09074 0.0
C1242 C 0.69418 0.56785 0.52701 0.0
C1243 C 0.66819 0.48586 0.55315 0.0
C1244 C 0.72191 0.48503 0.64527 0.0
C1245 C 0.73158 0.47044 0.70431 0.0
C1246 C 0.7418 0.43857 0.70372 0.0
C1247 C 0.72448 0.48481 0.76331 0.0
C1248 C 0.72567 0.46675 0.82252 0.0
C1249 C 0.74539 0.42152 0.76225 0.0
C1250 C 0.73735 0.43518 0.82099 0.0
C1251 C 0.6969 0.43818 0.40728 0.0
H1252 H 0.63341 0.56259 0.22836 0.0
H1253 H 0.69676 0.50758 0.19986 0.0
H1254 H 0.63442 0.58041 0.11342 0.0
H1255 H 0.66311 0.56158 0.04038 0.0
H1256 H 0.74655 0.42655 0.65835 0.0
H1257 H 0.71668 0.50926 0.76046 0.0
H1258 H 0.75391 0.39724 0.76182 0.0
H1259 H 0.74139 0.42091 0.86429 0.0
Gd1260 Gd 0.07658 0.22515 0.41143 0.0
Gd1261 Gd 0.03567 0.2516 0.52346 0.0
C1262 C 0.94008 0.24922 0.53898 0.0
C1263 C 0.94387 0.32427 0.59672 0.0
C1264 C 0.99362 0.30002 0.54379 0.0
C1265 C 0.98492 0.26137 0.51833 0.0
C1266 C 0.97484 0.33015 0.58025 0.0
C1267 C 0.92704 0.28621 0.57788 0.0
C1268 C 0.9335 0.20689 0.50855 0.0
C1269 C 0.95661 0.18088 0.47205 0.0
N1270 N 0.9983 0.23082 0.48742 0.0
C1271 C 0.98724 0.19401 0.46379 0.0
H1272 H 0.999 0.17478 0.4466 0.0
C1273 C 0.02479 0.33528 0.56187 0.0
N1274 N 0.01612 0.30498 0.54063 0.0
C1275 C 0.01057 0.36213 0.58523 0.0
C1276 C 0.98651 0.35975 0.59546 0.0
H1277 H 0.0432 0.33897 0.56185 0.0
H1278 H 0.90891 0.28578 0.58925 0.0
H1279 H 0.08838 0.3157 0.42126 0.0
H1280 H 0.9329 0.23172 0.52933 0.0
H1281 H 0.95214 0.1557 0.45576 0.0
H1282 H 0.9348 0.34511 0.61927 0.0
H1283 H 0.09989 0.15024 0.44387 0.0
H1284 H 0.15504 0.32994 0.48927 0.0
H1285 H 0.1182 0.35219 0.45012 0.0
H1286 H 0.18103 0.21988 0.54083 0.0
H1287 H 0.01895 0.38542 0.59926 0.0
H1288 H 0.97727 0.38088 0.61642 0.0
H1289 H 0.17772 0.28119 0.52497 0.0
H1290 H 0.1355 0.12627 0.49255 0.0
N1291 N 0.10635 0.26824 0.43229 0.0
C1292 C 0.14188 0.31261 0.47226 0.0
C1293 C 0.12118 0.32516 0.4504 0.0
C1294 C 0.14493 0.27783 0.47521 0.0
C1295 C 0.12702 0.25594 0.45344 0.0
C1296 C 0.10374 0.30298 0.4319 0.0
N1297 N 0.11165 0.20077 0.4471 0.0
C1298 C 0.12965 0.22142 0.46074 0.0
C1299 C 0.13416 0.1528 0.48129 0.0
C1300 C 0.15242 0.17359 0.49673 0.0
C1301 C 0.11402 0.16669 0.45521 0.0
C1302 C 0.15012 0.20825 0.4883 0.0
H1303 H 0.16792 0.16279 0.51743 0.0
O1304 O 0.08373 0.18427 0.34497 0.0
O1305 O 0.03997 0.24049 0.4153 0.0
O1306 O 0.03456 0.19421 0.52829 0.0
O1307 O 0.07079 0.1826 0.49038 0.0
O1308 O 0.04554 0.19913 0.36169 0.0
O1309 O 0.09007 0.23658 0.31423 0.0
O1310 O 0.04675 0.2658 0.62097 0.0
O1311 O 0.07229 0.23236 0.51715 0.0
O1312 O 0.06351 0.27779 0.3829 0.0
O1313 O 0.03474 0.29539 0.45512 0.0
O1314 O 0.06836 0.27975 0.5541 0.0
O1315 O 0.01778 0.23288 0.61019 0.0
C1316 C 0.02973 0.22113 0.37423 0.0
C1317 C 0.16695 0.22994 0.51241 0.0
C1318 C 0.16466 0.26463 0.50483 0.0
C1319 C 0.08983 0.20468 0.29775 0.0
C1320 C 0.08314 0.19471 0.23115 0.0
C1321 C 0.09528 0.16682 0.20769 0.0
C1322 C 0.06654 0.21114 0.19041 0.0
C1323 C 0.06395 0.20027 0.12417 0.0
C1324 C 0.09345 0.1575 0.14284 0.0
C1325 C 0.07967 0.17553 0.1011 0.0
C1326 C 0.05251 0.17386 0.52621 0.0
C1327 C 0.08296 0.25556 0.54716 0.0
C1328 C 0.0313 0.2485 0.65104 0.0
C1329 C 0.02236 0.26504 0.71 0.0
C1330 C 0.01168 0.29648 0.7078 0.0
C1331 C 0.02829 0.25135 0.77063 0.0
C1332 C 0.02469 0.26917 0.82941 0.0
C1333 C 0.00676 0.31409 0.76486 0.0
C1334 C 0.01329 0.3008 0.8252 0.0
C1335 C 0.04856 0.30085 0.40503 0.0
H1336 H 0.10725 0.15317 0.23891 0.0
H1337 H 0.0562 0.23162 0.20962 0.0
H1338 H 0.10354 0.13718 0.12299 0.0
H1339 H 0.08162 0.16878 0.05001 0.0
H1340 H 0.00688 0.30734 0.66265 0.0
H1341 H 0.03581 0.22675 0.7703 0.0
H1342 H 0.99789 0.33811 0.76226 0.0
H1343 H 0.00804 0.31514 0.86752 0.0
Gd1344 Gd 0.78288 0.24052 0.78188 0.0
Gd1345 Gd 0.82524 0.26293 0.66918 0.0
C1346 C 0.89511 0.21304 0.72291 0.0
C1347 C 0.91752 0.26183 0.75339 0.0
C1348 C 0.87899 0.26911 0.70897 0.0
C1349 C 0.87649 0.23446 0.70486 0.0
C1350 C 0.89971 0.28298 0.73329 0.0
C1351 C 0.91564 0.22699 0.74609 0.0
C1352 C 0.89165 0.17823 0.72621 0.0
C1353 C 0.86947 0.16595 0.72164 0.0
N1354 N 0.85502 0.22184 0.69505 0.0
C1355 C 0.85141 0.18852 0.71123 0.0
H1356 H 0.83482 0.17916 0.72351 0.0
C1357 C 0.86229 0.32329 0.70516 0.0
N1358 N 0.86043 0.28913 0.6977 0.0
C1359 C 0.88232 0.33773 0.73088 0.0
C1360 C 0.90127 0.31765 0.74329 0.0
H1361 H 0.84787 0.33934 0.69395 0.0
H1362 H 0.92932 0.21086 0.76409 0.0
H1363 H 0.74748 0.31672 0.69637 0.0
H1364 H 0.90544 0.16116 0.73977 0.0
H1365 H 0.86597 0.13963 0.73234 0.0
H1366 H 0.93195 0.27242 0.7794 0.0
H1367 H 0.78974 0.1516 0.81737 0.0
H1368 H 0.68097 0.26165 0.78032 0.0
H1369 H 0.70093 0.33695 0.70579 0.0
H1370 H 0.68144 0.14893 0.87261 0.0
H1371 H 0.88313 0.36416 0.74347 0.0
H1372 H 0.91679 0.32898 0.7628 0.0
H1373 H 0.65642 0.20888 0.84207 0.0
H1374 H 0.76483 0.10606 0.85479 0.0
N1375 N 0.7462 0.26074 0.73743 0.0
C1376 C 0.68181 0.28642 0.75933 0.0
C1377 C 0.70512 0.31166 0.72211 0.0
C1378 C 0.68792 0.24398 0.78982 0.0
C1379 C 0.73234 0.23033 0.76789 0.0
C1380 C 0.73552 0.29771 0.71334 0.0
N1381 N 0.76318 0.18645 0.79533 0.0
C1382 C 0.74054 0.19123 0.794 0.0
C1383 C 0.75677 0.12943 0.8396 0.0
C1384 C 0.73277 0.13265 0.84935 0.0
C1385 C 0.77136 0.15569 0.81588 0.0
C1386 C 0.72144 0.16217 0.83176 0.0
H1387 H 0.72324 0.11208 0.87143 0.0
O1388 O 0.76243 0.23299 0.86875 0.0
O1389 O 0.81994 0.25617 0.77471 0.0
O1390 O 0.8142 0.20932 0.64257 0.0
O1391 O 0.78527 0.19511 0.71691 0.0
O1392 O 0.81435 0.21158 0.82241 0.0
O1393 O 0.79286 0.26148 0.87917 0.0
O1394 O 0.82969 0.30153 0.5957 0.0
O1395 O 0.788 0.24826 0.67242 0.0
O1396 O 0.78206 0.29788 0.77567 0.0
O1397 O 0.81987 0.30574 0.74735 0.0
O1398 O 0.79467 0.28901 0.61749 0.0
O1399 O 0.8383 0.24819 0.5732 0.0
C1400 C 0.82984 0.23403 0.80956 0.0
C1401 C 0.69072 0.16925 0.84898 0.0
C1402 C 0.67448 0.20774 0.83001 0.0
C1403 C 0.77627 0.24641 0.90996 0.0
C1404 C 0.78166 0.22571 0.96903 0.0
C1405 C 0.77985 0.19034 0.96825 0.0
C1406 C 0.78902 0.24115 0.02712 0.0
C1407 C 0.79835 0.22162 0.07883 0.0
C1408 C 0.78802 0.17076 0.02037 0.0
C1409 C 0.79789 0.18632 0.07496 0.0
C1410 C 0.7986 0.18805 0.66643 0.0
C1411 C 0.77861 0.26718 0.62861 0.0
C1412 C 0.83552 0.27906 0.55155 0.0
C1413 C 0.84148 0.28881 0.48466 0.0
C1414 C 0.84665 0.32286 0.47391 0.0
C1415 C 0.83552 0.2678 0.4311 0.0
C1416 C 0.83458 0.2816 0.36753 0.0
C1417 C 0.84485 0.33643 0.41146 0.0
C1418 C 0.83974 0.31589 0.35817 0.0
C1419 C 0.80099 0.31648 0.77831 0.0
H1420 H 0.77177 0.17776 0.92825 0.0
H1421 H 0.78895 0.26848 0.03015 0.0
H1422 H 0.78663 0.14349 0.01839 0.0
H1423 H 0.80413 0.17088 0.11521 0.0
H1424 H 0.8504 0.3397 0.51457 0.0
H1425 H 0.82936 0.24229 0.43959 0.0
H1426 H 0.84721 0.36307 0.40497 0.0
H1427 H 0.83838 0.32743 0.30995 0.0
Gd1428 Gd 0.46819 0.9942 0.77887 0.0
Gd1429 Gd 0.427 0.97435 0.66524 0.0
C1430 C 0.35638 0.00888 0.73817 0.0
C1431 C 0.33653 0.95531 0.74507 0.0
C1432 C 0.37418 0.95865 0.69458 0.0
C1433 C 0.37517 0.9928 0.70744 0.0
C1434 C 0.35374 0.94067 0.70648 0.0
C1435 C 0.33856 0.98916 0.76337 0.0
C1436 C 0.35676 0.04384 0.74682 0.0
C1437 C 0.37656 0.06147 0.73095 0.0
N1438 N 0.39486 0.00981 0.69418 0.0
C1439 C 0.39585 0.04356 0.70984 0.0
H1440 H 0.4118 0.05594 0.71797 0.0
C1441 C 0.38985 0.91272 0.63682 0.0
N1442 N 0.39262 0.94321 0.66742 0.0
C1443 C 0.36838 0.89694 0.63615 0.0
C1444 C 0.35104 0.90916 0.67719 0.0
H1445 H 0.40392 0.9004 0.61214 0.0
H1446 H 0.32646 7e-05 0.79732 0.0
H1447 H 0.50561 0.91971 0.699 0.0
H1448 H 0.34256 0.05702 0.76974 0.0
H1449 H 0.37793 0.08806 0.743 0.0
H1450 H 0.3216 0.94094 0.76018 0.0
H1451 H 0.45875 0.08088 0.82816 0.0
H1452 H 0.57155 0.98226 0.76661 0.0
H1453 H 0.55329 0.90445 0.6981 0.0
H1454 H 0.56763 0.09646 0.85238 0.0
H1455 H 0.36593 0.87399 0.60813 0.0
H1456 H 0.33524 0.89505 0.68338 0.0
H1457 H 0.59502 0.03851 0.81959 0.0
H1458 H 0.4824 0.12855 0.86114 0.0
N1459 N 0.50535 0.97576 0.73857 0.0
C1460 C 0.57133 0.95734 0.74621 0.0
C1461 C 0.54833 0.92933 0.71495 0.0
C1462 C 0.564 -0.00078 0.77763 0.0
C1463 C 0.51833 0.00764 0.76647 0.0
C1464 C 0.51712 0.93986 0.71311 0.0
N1465 N 0.48611 0.04886 0.79842 0.0
C1466 C 0.50886 0.04584 0.7941 0.0
C1467 C 0.49107 0.10606 0.84372 0.0
C1468 C 0.51536 0.1057 0.84629 0.0
C1469 C 0.47715 0.07833 0.82333 0.0
C1470 C 0.5275 0.07738 0.82619 0.0
H1471 H 0.52451 0.12736 0.86555 0.0
O1472 O 0.49132 0.98662 0.85882 0.0
O1473 O 0.4311 0.98093 0.77137 0.0
O1474 O 0.43653 0.02973 0.64801 0.0
O1475 O 0.46752 0.04092 0.71724 0.0
O1476 O 0.43836 0.02524 0.81982 0.0
O1477 O 0.45592 0.97933 0.87732 0.0
O1478 O 0.43091 0.94197 0.58296 0.0
O1479 O 0.46392 0.98961 0.66965 0.0
O1480 O 0.46599 0.93686 0.7671 0.0
O1481 O 0.42791 0.93048 0.74207 0.0
O1482 O 0.45822 0.94662 0.62072 0.0
O1483 O 0.41369 0.99232 0.57182 0.0
C1484 C 0.42214 0.00428 0.80551 0.0
C1485 C 0.55892 0.07409 0.83524 0.0
C1486 C 0.57661 0.03733 0.81329 0.0
C1487 C 0.47594 0.98332 0.90323 0.0
C1488 C 0.47752 0.00612 0.95978 0.0
C1489 C 0.48936 0.03681 0.95696 0.0
C1490 C 0.46815 -0.00427 0.01895 0.0
C1491 C 0.47025 0.0154 0.07593 0.0
C1492 C 0.49081 0.05766 0.01127 0.0
C1493 C 0.4815 0.04717 0.0705 0.0
C1494 C 0.45255 0.05023 0.67219 0.0
C1495 C 0.4736 0.96992 0.62828 0.0
C1496 C 0.4222 0.96504 0.54444 0.0
C1497 C 0.41829 0.95671 0.4779 0.0
C1498 C 0.40415 0.92925 0.46502 0.0
C1499 C 0.43541 0.96654 0.43396 0.0
C1500 C 0.43806 0.94922 0.37489 0.0
C1501 C 0.40733 0.91118 0.40807 0.0
C1502 C 0.423 0.92183 0.36167 0.0
C1503 C 0.4466 0.91958 0.77407 0.0
H1504 H 0.49886 0.04386 0.9148 0.0
H1505 H 0.46019 0.97139 0.0194 0.0
H1506 H 0.5004 0.08108 0.00846 0.0
H1507 H 0.48542 0.06328 0.11164 0.0
H1508 H 0.39204 0.92011 0.5012 0.0
H1509 H 0.44758 0.98585 0.44863 0.0
H1510 H 0.39796 0.88842 0.40028 0.0
H1511 H 0.42266 0.90798 0.31598 0.0
Gd1512 Gd 0.78691 -0.00033 0.48861 0.0
Gd1513 Gd 0.82821 0.97464 0.60003 0.0
C1514 C 0.89622 0.02581 0.52868 0.0
C1515 C 0.91823 0.97668 0.49746 0.0
C1516 C 0.88145 0.97026 0.55234 0.0
C1517 C 0.87837 0.00455 0.55249 0.0
C1518 C 0.90202 0.95615 0.52785 0.0
C1519 C 0.91593 0.01166 0.50056 0.0
C1520 C 0.8927 0.06054 0.52649 0.0
C1521 C 0.87082 0.07276 0.53774 0.0
N1522 N 0.85727 0.01683 0.5686 0.0
C1523 C 0.85319 0.05016 0.55306 0.0
H1524 H 0.83633 0.05951 0.54431 0.0
C1525 C 0.86953 0.91785 0.59146 0.0
N1526 N 0.86447 0.9504 0.57602 0.0
C1527 C 0.89041 0.9033 0.57232 0.0
C1528 C 0.90605 0.9219 0.5363 0.0
H1529 H 0.85777 0.90395 0.6206 0.0
H1530 H 0.92882 0.02759 0.478 0.0
H1531 H 0.76046 0.92879 0.54872 0.0
H1532 H 0.90599 0.07758 0.50934 0.0
H1533 H 0.86697 0.09909 0.52822 0.0
H1534 H 0.93239 0.96542 0.47119 0.0
H1535 H 0.78989 0.08324 0.46698 0.0
H1536 H 0.68959 0.9345 0.51207 0.0
H1537 H 0.72267 0.90509 0.54645 0.0
H1538 H 0.68568 0.09257 0.42676 0.0
H1539 H 0.89509 0.87828 0.58579 0.0
H1540 H 0.92196 0.91029 0.52028 0.0
H1541 H 0.66127 0.03363 0.43673 0.0
H1542 H 0.76486 0.13116 0.44591 0.0
N1543 N 0.75099 0.97824 0.51805 0.0
C1544 C 0.70519 0.94932 0.5133 0.0
C1545 C 0.7246 0.9315 0.53355 0.0
C1546 C 0.70661 0.98442 0.49561 0.0
C1547 C 0.73386 0.00012 0.50615 0.0
C1548 C 0.74663 0.94546 0.53473 0.0
N1549 N 0.76341 0.04807 0.48809 0.0
C1550 C 0.74072 0.04114 0.48917 0.0
C1551 C 0.75715 0.10688 0.45674 0.0
C1552 C 0.73344 0.10358 0.45118 0.0
C1553 C 0.77153 0.07936 0.47041 0.0
C1554 C 0.7229 0.07257 0.46109 0.0
H1555 H 0.72334 0.12523 0.43609 0.0
O1556 O 0.79393 0.02223 0.39528 0.0
O1557 O 0.82308 0.98025 0.49326 0.0
O1558 O 0.81897 0.02889 0.62966 0.0
O1559 O 0.78719 0.04098 0.56417 0.0
O1560 O 0.81844 0.02648 0.44886 0.0
O1561 O 0.76804 0.98239 0.40068 0.0
O1562 O 0.82996 0.93543 0.67238 0.0
O1563 O 0.79134 0.99048 0.59724 0.0
O1564 O 0.7897 0.94288 0.47511 0.0
O1565 O 0.82425 0.92922 0.52531 0.0
O1566 O 0.79697 0.94923 0.65046 0.0
O1567 O 0.84336 0.9859 0.69577 0.0
C1568 C 0.83289 0.00222 0.45758 0.0
C1569 C 0.69453 0.06995 0.44197 0.0
C1570 C 0.67952 0.03305 0.44966 0.0
C1571 C 0.78 0.00271 0.36312 0.0
C1572 C 0.77057 0.01745 0.30327 0.0
C1573 C 0.76017 0.04927 0.3038 0.0
C1574 C 0.77726 0.00293 0.2436 0.0
C1575 C 0.77447 0.0202 0.18378 0.0
C1576 C 0.75538 0.06562 0.24504 0.0
C1577 C 0.76234 0.05136 0.18567 0.0
C1578 C 0.80232 0.04952 0.60949 0.0
C1579 C 0.78122 0.97143 0.63925 0.0
C1580 C 0.83955 0.95503 0.71584 0.0
C1581 C 0.83433 0.94775 0.78447 0.0
C1582 C 0.84803 0.92207 0.81021 0.0
C1583 C 0.81653 0.96254 0.82317 0.0
C1584 C 0.81393 0.95194 0.88961 0.0
C1585 C 0.84586 0.91279 0.87489 0.0
C1586 C 0.83026 0.92853 0.91433 0.0
C1587 C 0.80661 0.92121 0.48523 0.0
H1588 H 0.75602 0.06167 0.34934 0.0
H1589 H 0.78565 0.97885 0.24551 0.0
H1590 H 0.74652 0.08968 0.2455 0.0
H1591 H 0.75705 0.06465 0.14199 0.0
H1592 H 0.86087 0.90947 0.78028 0.0
H1593 H 0.80514 0.98131 0.80216 0.0
H1594 H 0.85661 0.89389 0.89667 0.0
H1595 H 0.83152 0.92104 0.96508 0.0
Gd1596 Gd 0.46764 0.24229 0.48317 0.0
Gd1597 Gd 0.42627 0.262 0.59659 0.0
C1598 C 0.35782 0.21422 0.52718 0.0
C1599 C 0.33528 0.2645 0.50685 0.0
C1600 C 0.37326 0.26916 0.55538 0.0
C1601 C 0.37611 0.23457 0.55111 0.0
C1602 C 0.35209 0.28392 0.53786 0.0
C1603 C 0.33773 0.22947 0.50347 0.0
C1604 C 0.36091 0.17938 0.52238 0.0
C1605 C 0.38257 0.16607 0.53346 0.0
N1606 N 0.39707 0.22116 0.56529 0.0
C1607 C 0.4006 0.18769 0.5502 0.0
H1608 H 0.41732 0.17759 0.54298 0.0
C1609 C 0.38626 0.32064 0.59921 0.0
N1610 N 0.39079 0.2886 0.57785 0.0
C1611 C 0.36412 0.33374 0.59484 0.0
C1612 C 0.34784 0.31721 0.55642 0.0
H1613 H 0.39934 0.33613 0.62166 0.0
H1614 H 0.32434 0.21439 0.48097 0.0
H1615 H 0.50617 0.31437 0.56815 0.0
H1616 H 0.34727 0.163 0.50493 0.0
H1617 H 0.3859 0.13964 0.52346 0.0
H1618 H 0.32042 0.27668 0.48583 0.0
H1619 H 0.45752 0.15635 0.43204 0.0
H1620 H 0.57141 0.25168 0.49657 0.0
H1621 H 0.55387 0.32878 0.56913 0.0
H1622 H 0.56653 0.14001 0.39996 0.0
H1623 H 0.35996 0.35657 0.62091 0.0
H1624 H 0.33135 0.32891 0.54693 0.0
H1625 H 0.59432 0.19601 0.43869 0.0
H1626 H 0.48063 0.10879 0.39517 0.0
N1627 N 0.50531 0.25897 0.52524 0.0
C1628 C 0.57142 0.27633 0.51822 0.0
C1629 C 0.5487 0.30422 0.55104 0.0
C1630 C 0.56373 0.23504 0.48483 0.0
C1631 C 0.51804 0.22733 0.49583 0.0
C1632 C 0.51745 0.29419 0.55264 0.0
N1633 N 0.48529 0.18746 0.46202 0.0
C1634 C 0.50812 0.18988 0.46588 0.0
C1635 C 0.48957 0.13083 0.41355 0.0
C1636 C 0.51387 0.13081 0.40978 0.0
C1637 C 0.47596 0.15845 0.43631 0.0
C1638 C 0.52639 0.15844 0.43149 0.0
H1639 H 0.52272 0.1093 0.38884 0.0
O1640 O 0.45577 0.25859 0.38454 0.0
O1641 O 0.43013 0.25678 0.48918 0.0
O1642 O 0.4383 0.20875 0.62193 0.0
O1643 O 0.46692 0.19536 0.54574 0.0
O1644 O 0.43706 0.21282 0.43986 0.0
O1645 O 0.49096 0.25018 0.40325 0.0
O1646 O 0.42396 0.29839 0.67343 0.0
O1647 O 0.46351 0.24837 0.59315 0.0
O1648 O 0.46692 0.29918 0.49812 0.0
O1649 O 0.42876 0.30591 0.52023 0.0
O1650 O 0.45654 0.28858 0.64873 0.0
O1651 O 0.40911 0.24766 0.68769 0.0
C1652 C 0.4209 0.23421 0.45301 0.0
C1653 C 0.55795 0.16124 0.42251 0.0
C1654 C 0.57599 0.1972 0.44698 0.0
C1655 C 0.47575 0.25471 0.35845 0.0
C1656 C 0.4772 0.23281 0.2998 0.0
C1657 C 0.48794 0.20128 0.30249 0.0
C1658 C 0.46889 0.24439 0.23946 0.0
C1659 C 0.47037 0.22443 0.182 0.0
C1660 C 0.4893 0.18077 0.2477 0.0
C1661 C 0.48071 0.19204 0.18808 0.0
C1662 C 0.45391 0.1878 0.59689 0.0
C1663 C 0.47281 0.26723 0.63699 0.0
C1664 C 0.41232 0.27808 0.71125 0.0
C1665 C 0.4147 0.28379 0.7809 0.0
C1666 C 0.39794 0.30502 0.80685 0.0
C1667 C 0.43421 0.27451 0.81836 0.0
C1668 C 0.43693 0.28821 0.88202 0.0
C1669 C 0.40076 0.31823 0.86868 0.0
C1670 C 0.41981 0.31072 0.90493 0.0
C1671 C 0.44784 0.31696 0.49072 0.0
H1672 H 0.49683 0.19327 0.34522 0.0
H1673 H 0.46204 0.26946 0.23883 0.0
H1674 H 0.49815 0.15673 0.2507 0.0
H1675 H 0.48436 0.17565 0.14729 0.0
H1676 H 0.38312 0.31271 0.77802 0.0
H1677 H 0.44694 0.25757 0.79799 0.0
H1678 H 0.38861 0.33501 0.88999 0.0
H1679 H 0.41995 0.32276 0.9523 0.0
Gd1680 Gd 0.17418 0.72554 0.34134 0.0
Gd1681 Gd 0.21546 0.75058 0.22791 0.0
C1682 C 0.29493 0.72929 0.24826 0.0
C1683 C 0.31069 0.81362 0.19627 0.0
C1684 C 0.26316 0.78895 0.2398 0.0
C1685 C 0.26818 0.74717 0.25674 0.0
C1686 C 0.28246 0.81871 0.21322 0.0
C1687 C 0.32411 0.77554 0.20465 0.0
C1688 C 0.29498 0.69414 0.26589 0.0
C1689 C 0.27482 0.67782 0.2842 0.0
N1690 N 0.25008 0.72633 0.26503 0.0
C1691 C 0.25328 0.69326 0.28246 0.0
H1692 H 0.23893 0.6774 0.29549 0.0
C1693 C 0.23434 0.82967 0.21438 0.0
N1694 N 0.24074 0.79758 0.2333 0.0
C1695 C 0.24993 0.8559 0.20344 0.0
C1696 C 0.27346 0.85057 0.20181 0.0
H1697 H 0.21637 0.83525 0.20594 0.0
H1698 H 0.34244 0.77466 0.19275 0.0
H1699 H 0.15997 0.8092 0.28929 0.0
H1700 H 0.31005 0.67816 0.26624 0.0
H1701 H 0.27571 0.65136 0.29762 0.0
H1702 H 0.3204 0.83558 0.1822 0.0
H1703 H 0.14769 0.6556 0.3905 0.0
H1704 H 0.08941 0.8154 0.25319 0.0
H1705 H 0.12642 0.84342 0.27403 0.0
H1706 H 0.06806 0.69936 0.23538 0.0
H1707 H 0.2434 0.88074 0.19107 0.0
H1708 H 0.28465 0.87126 0.18802 0.0
H1709 H 0.07 0.7618 0.22578 0.0
H1710 H 0.10878 0.63205 0.38787 0.0
N1711 N 0.14261 0.76294 0.31025 0.0
C1712 C 0.10401 0.80062 0.26965 0.0
C1713 C 0.12471 0.81651 0.2824 0.0
C1714 C 0.10315 0.76549 0.27173 0.0
C1715 C 0.12254 0.74729 0.29476 0.0
C1716 C 0.14401 0.79699 0.29747 0.0
N1717 N 0.13938 0.69624 0.32724 0.0
C1718 C 0.12148 0.71281 0.29956 0.0
C1719 C 0.11348 0.65153 0.354 0.0
C1720 C 0.09767 0.66338 0.30838 0.0
C1721 C 0.13507 0.66668 0.35876 0.0
C1722 C 0.10092 0.69571 0.2837 0.0
H1723 H 0.08169 0.64998 0.30043 0.0
O1724 O 0.17696 0.69125 0.42276 0.0
O1725 O 0.21131 0.7432 0.33876 0.0
O1726 O 0.21246 0.69364 0.21807 0.0
O1727 O 0.17713 0.681 0.26531 0.0
O1728 O 0.2059 0.70025 0.389 0.0
O1729 O 0.15804 0.73964 0.43416 0.0
O1730 O 0.2363 0.76744 0.14616 0.0
O1731 O 0.17908 0.73435 0.23479 0.0
O1732 O 0.18178 0.77925 0.37032 0.0
O1733 O 0.20853 0.79541 0.29213 0.0
O1734 O 0.18463 0.77946 0.18649 0.0
O1735 O 0.20991 0.73181 0.12685 0.0
C1736 C 0.22118 0.72364 0.38094 0.0
C1737 C 0.08307 0.71291 0.25244 0.0
C1738 C 0.084 0.74805 0.24785 0.0
C1739 C 0.16587 0.71194 0.46138 0.0
C1740 C 0.16095 0.70254 0.52876 0.0
C1741 C 0.15608 0.66857 0.54224 0.0
C1742 C 0.16618 0.72501 0.58019 0.0
C1743 C 0.16621 0.71309 0.64492 0.0
C1744 C 0.15621 0.65703 0.60655 0.0
C1745 C 0.16032 0.6793 0.65772 0.0
C1746 C 0.19468 0.67305 0.22512 0.0
C1747 C 0.16941 0.75655 0.19918 0.0
C1748 C 0.22516 0.75178 0.1011 0.0
C1749 C 0.21847 0.77226 0.04306 0.0
C1750 C 0.21626 0.80763 0.04698 0.0
C1751 C 0.21299 0.75614 0.98366 0.0
C1752 C 0.20294 0.77443 0.93134 0.0
C1753 C 0.20793 0.82616 0.99358 0.0
C1754 C 0.20097 0.80966 0.93633 0.0
C1755 C 0.19596 0.80147 0.34435 0.0
H1756 H 0.15305 0.6506 0.50308 0.0
H1757 H 0.1724 0.75028 0.5695 0.0
H1758 H 0.15292 0.63084 0.61699 0.0
H1759 H 0.16059 0.66932 0.70734 0.0
H1760 H 0.22066 0.82106 0.09126 0.0
H1761 H 0.21465 0.72893 0.98091 0.0
H1762 H 0.20638 0.85336 0.99709 0.0
H1763 H 0.19429 0.82456 0.89591 0.0
Gd1764 Gd 0.57207 0.01497 0.34484 0.0
Gd1765 Gd 0.53293 0.99219 0.22995 0.0
C1766 C 0.43682 0.98519 0.22798 0.0
C1767 C 0.44282 0.91045 0.17012 0.0
C1768 C 0.49257 0.93986 0.21265 0.0
C1769 C 0.48263 0.97783 0.23991 0.0
C1770 C 0.47435 0.90784 0.17997 0.0
C1771 C 0.42469 0.94672 0.19223 0.0
C1772 C 0.429 0.02694 0.25915 0.0
C1773 C 0.45164 0.05552 0.29072 0.0
N1774 N 0.49523 0.01004 0.26802 0.0
C1775 C 0.48298 0.04572 0.29319 0.0
H1776 H 0.49415 0.06609 0.30849 0.0
C1777 C 0.52474 0.90766 0.18685 0.0
N1778 N 0.51539 0.93718 0.21019 0.0
C1779 C 0.51114 0.87948 0.16692 0.0
C1780 C 0.48687 0.87953 0.16185 0.0
H1781 H 0.54321 0.9054 0.18359 0.0
H1782 H 0.40634 0.94526 0.18452 0.0
H1783 H 0.58929 0.93374 0.29575 0.0
H1784 H 0.42909 0.00199 0.23882 0.0
H1785 H 0.44636 0.08024 0.30766 0.0
H1786 H 0.43425 0.88858 0.14972 0.0
H1787 H 0.59161 0.09274 0.38744 0.0
H1788 H 0.65918 0.93659 0.24817 0.0
H1789 H 0.62447 0.90355 0.27402 0.0
H1790 H 0.67698 0.05365 0.25602 0.0
H1791 H 0.52007 0.85673 0.15244 0.0
H1792 H 0.47804 0.85745 0.14319 0.0
H1793 H 0.67317 0.99433 0.21632 0.0
H1794 H 0.62947 0.11911 0.40191 0.0
N1795 N 0.60472 0.98131 0.31593 0.0
C1796 C 0.64425 0.94915 0.26855 0.0
C1797 C 0.62485 0.93042 0.28399 0.0
C1798 C 0.64344 0.98422 0.27489 0.0
C1799 C 0.62393 -0.00048 0.30314 0.0
C1800 C 0.60484 0.94731 0.3027 0.0
N1801 N 0.60479 0.04927 0.33789 0.0
C1802 C 0.62396 0.03396 0.31482 0.0
C1803 C 0.62788 0.09587 0.37416 0.0
C1804 C 0.64668 0.08275 0.34003 0.0
C1805 C 0.60646 0.0804 0.3669 0.0
C1806 C 0.64446 0.05218 0.30723 0.0
H1807 H 0.66295 0.0958 0.33986 0.0
O1808 O 0.57087 0.04645 0.42944 0.0
O1809 O 0.5356 -0.00251 0.34101 0.0
O1810 O 0.5319 0.04915 0.24258 0.0
O1811 O 0.56947 0.05873 0.26869 0.0
O1812 O 0.54064 0.04054 0.39168 0.0
O1813 O 0.5904 -0.00177 0.43211 0.0
O1814 O 0.54523 0.0055 0.1303 0.0
O1815 O 0.56994 0.00877 0.23695 0.0
O1816 O 0.56345 0.95955 0.36514 0.0
O1817 O 0.5343 0.94556 0.29159 0.0
O1818 O 0.56433 0.96323 0.19143 0.0
O1819 O 0.50988 -0.00137 0.14892 0.0
C1820 C 0.52567 0.01686 0.38276 0.0
C1821 C 0.66225 0.03849 0.26967 0.0
C1822 C 0.66085 0.00474 0.25013 0.0
C1823 C 0.58476 0.02646 0.46145 0.0
C1824 C 0.58492 0.02932 0.53108 0.0
C1825 C 0.60321 0.04799 0.55585 0.0
C1826 C 0.56559 0.02166 0.56954 0.0
C1827 C 0.56451 0.0342 0.6338 0.0
C1828 C 0.60188 0.06092 0.61824 0.0
C1829 C 0.5829 0.05473 0.65646 0.0
C1830 C 0.55037 0.06831 0.23741 0.0
C1831 C 0.57985 0.98581 0.20323 0.0
C1832 C 0.52522 0.00156 0.10441 0.0
C1833 C 0.52343 0.97881 0.04753 0.0
C1834 C 0.51194 0.94786 0.05047 0.0
C1835 C 0.53225 0.98958 0.98783 0.0
C1836 C 0.53054 0.96972 0.93079 0.0
C1837 C 0.51045 0.92709 0.996 0.0
C1838 C 0.51959 0.93771 0.93658 0.0
C1839 C 0.5486 0.93773 0.33934 0.0
H1840 H 0.61774 0.05478 0.52514 0.0
H1841 H 0.55147 0.00723 0.54906 0.0
H1842 H 0.61503 0.07712 0.63662 0.0
H1843 H 0.58343 0.06644 0.7041 0.0
H1844 H 0.50288 0.94037 0.09302 0.0
H1845 H 0.53994 0.0141 0.98774 0.0
H1846 H 0.50114 0.90343 0.99903 0.0
H1847 H 0.51585 0.92135 0.89572 0.0
Gd1848 Gd 0.17554 0.01392 0.4198 0.0
Gd1849 Gd 0.21669 0.9889 0.5331 0.0
C1850 C 0.29617 0.01056 0.51474 0.0
C1851 C 0.31227 0.92618 0.56551 0.0
C1852 C 0.26467 0.95065 0.52117 0.0
C1853 C 0.26957 0.99246 0.505 0.0
C1854 C 0.28406 0.92092 0.54771 0.0
C1855 C 0.32548 0.96446 0.55848 0.0
C1856 C 0.29613 0.04577 0.49756 0.0
C1857 C 0.27605 0.06188 0.47806 0.0
N1858 N 0.25141 0.01317 0.49617 0.0
C1859 C 0.2546 0.04618 0.47825 0.0
H1860 H 0.24031 0.06194 0.46409 0.0
C1861 C 0.23593 0.90995 0.54701 0.0
N1862 N 0.24224 0.94201 0.52777 0.0
C1863 C 0.25156 0.88381 0.55832 0.0
C1864 C 0.27509 0.88909 0.55941 0.0
H1865 H 0.21798 0.90429 0.55553 0.0
H1866 H 0.34379 0.96543 0.57077 0.0
H1867 H 0.16059 0.93123 0.47236 0.0
H1868 H 0.3111 0.06195 0.49825 0.0
H1869 H 0.2769 0.08838 0.46494 0.0
H1870 H 0.32222 0.90425 0.5785 0.0
H1871 H 0.15222 0.08801 0.37398 0.0
H1872 H 0.09031 0.92852 0.51527 0.0
H1873 H 0.12662 0.89873 0.49336 0.0
H1874 H 0.06952 0.04502 0.51757 0.0
H1875 H 0.24502 0.85913 0.5715 0.0
H1876 H 0.2863 0.86846 0.57355 0.0
H1877 H 0.07178 0.98339 0.53839 0.0
H1878 H 0.11415 0.11374 0.37153 0.0
N1879 N 0.14378 0.97812 0.45251 0.0
C1880 C 0.10499 0.94249 0.49698 0.0
C1881 C 0.12529 0.92559 0.48379 0.0
C1882 C 0.10453 0.97761 0.49156 0.0
C1883 C 0.12396 -0.00525 0.46622 0.0
C1884 C 0.14474 0.9441 0.46612 0.0
N1885 N 0.14149 0.04515 0.42993 0.0
C1886 C 0.12313 0.02923 0.45683 0.0
C1887 C 0.11698 0.09129 0.40069 0.0
C1888 C 0.10016 0.07921 0.4436 0.0
C1889 C 0.13841 0.07563 0.3997 0.0
C1890 C 0.10268 0.047 0.46999 0.0
H1891 H 0.08464 0.09356 0.45214 0.0
O1892 O 0.17733 0.04631 0.3353 0.0
O1893 O 0.2127 -0.00356 0.42189 0.0
O1894 O 0.21408 0.04566 0.54124 0.0
O1895 O 0.17877 0.0587 0.49412 0.0
O1896 O 0.20674 0.03998 0.37284 0.0
O1897 O 0.15931 -0.00315 0.32928 0.0
O1898 O 0.23759 0.97256 0.61535 0.0
O1899 O 0.18022 0.00545 0.52694 0.0
O1900 O 0.18304 0.96012 0.39195 0.0
O1901 O 0.20971 0.94386 0.47012 0.0
O1902 O 0.18574 0.9604 0.57521 0.0
O1903 O 0.21076 0.00758 0.63403 0.0
C1904 C 0.22203 0.01646 0.37943 0.0
C1905 C 0.08465 0.03097 0.50304 0.0
C1906 C 0.08562 -0.00388 0.51352 0.0
C1907 C 0.16636 0.02423 0.29937 0.0
C1908 C 0.1609 0.03151 0.23167 0.0
C1909 C 0.1543 0.06446 0.21544 0.0
C1910 C 0.16699 0.00838 0.18232 0.0
C1911 C 0.16577 0.01847 0.11662 0.0
C1912 C 0.15341 0.07417 0.1501 0.0
C1913 C 0.15792 0.051 0.10094 0.0
C1914 C 0.19654 0.06651 0.53347 0.0
C1915 C 0.17055 0.98351 0.56332 0.0
C1916 C 0.22597 0.98767 0.66018 0.0
C1917 C 0.21897 0.96662 0.71721 0.0
C1918 C 0.21704 0.93128 0.71194 0.0
C1919 C 0.21361 0.98196 0.77747 0.0
C1920 C 0.20374 0.9629 0.82895 0.0
C1921 C 0.20919 0.91197 0.76475 0.0
C1922 C 0.20231 0.92767 0.82278 0.0
C1923 C 0.19715 0.93787 0.41795 0.0
H1924 H 0.1507 0.08303 0.2532 0.0
H1925 H 0.17465 0.98424 0.19508 0.0
H1926 H 0.14912 0.09965 0.13699 0.0
H1927 H 0.15722 0.05974 0.05055 0.0
H1928 H 0.22149 0.9184 0.66725 0.0
H1929 H 0.21501 0.00917 0.78141 0.0
H1930 H 0.20801 0.88477 0.76024 0.0
H1931 H 0.19602 0.91214 0.86277 0.0
Gd1932 Gd 0.57546 0.72679 0.42539 0.0
Gd1933 Gd 0.53405 0.74878 0.5388 0.0
C1934 C 0.4389 0.74615 0.54934 0.0
C1935 C 0.44235 0.82064 0.60951 0.0
C1936 C 0.49218 0.79765 0.55612 0.0
C1937 C 0.48367 0.75871 0.52915 0.0
C1938 C 0.47325 0.82704 0.59359 0.0
C1939 C 0.42572 0.78268 0.58922 0.0
C1940 C 0.43239 0.70403 0.51784 0.0
C1941 C 0.45551 0.67832 0.48082 0.0
N1942 N 0.49718 0.72815 0.49788 0.0
C1943 C 0.48613 0.6915 0.47301 0.0
H1944 H 0.49783 0.67237 0.45515 0.0
C1945 C 0.52305 0.83363 0.57438 0.0
N1946 N 0.51476 0.80269 0.55534 0.0
C1947 C 0.50856 0.86001 0.598 0.0
C1948 C 0.48465 0.85675 0.60951 0.0
H1949 H 0.5414 0.83793 0.57395 0.0
H1950 H 0.40756 0.78208 0.60004 0.0
H1951 H 0.58654 0.81086 0.47425 0.0
H1952 H 0.43177 0.72871 0.53924 0.0
H1953 H 0.45105 0.65327 0.46376 0.0
H1954 H 0.43315 0.84125 0.63243 0.0
H1955 H 0.59646 0.64934 0.44642 0.0
H1956 H 0.65758 0.82458 0.49483 0.0
H1957 H 0.61883 0.84849 0.48335 0.0
H1958 H 0.68151 0.7116 0.53443 0.0
H1959 H 0.51665 0.8837 0.61087 0.0
H1960 H 0.47518 0.8776 0.63075 0.0
H1961 H 0.67963 0.77375 0.52332 0.0
H1962 H 0.63174 0.62197 0.49067 0.0
N1963 N 0.60583 0.76647 0.45094 0.0
C1964 C 0.64339 0.80821 0.48139 0.0
C1965 C 0.62162 0.82181 0.47457 0.0
C1966 C 0.64595 0.7732 0.47944 0.0
C1967 C 0.62694 0.75274 0.46123 0.0
C1968 C 0.603 0.80027 0.46416 0.0
N1969 N 0.60989 0.69874 0.45294 0.0
C1970 C 0.62878 0.71792 0.46451 0.0
C1971 C 0.6312 0.64877 0.48106 0.0
C1972 C 0.65049 0.66805 0.49399 0.0
C1973 C 0.61122 0.66444 0.45801 0.0
C1974 C 0.64931 0.70296 0.48724 0.0
H1975 H 0.66608 0.65594 0.51076 0.0
O1976 O 0.58148 0.69051 0.3482 0.0
O1977 O 0.53827 0.74103 0.42864 0.0
O1978 O 0.5321 0.69208 0.528 0.0
O1979 O 0.56983 0.68359 0.50172 0.0
O1980 O 0.54527 0.69968 0.37472 0.0
O1981 O 0.58882 0.74512 0.33271 0.0
O1982 O 0.51354 0.75304 0.62624 0.0
O1983 O 0.57117 0.7336 0.53138 0.0
O1984 O 0.56404 0.78034 0.40058 0.0
O1985 O 0.53483 0.79438 0.47377 0.0
O1986 O 0.56544 0.77849 0.57787 0.0
O1987 O 0.54519 0.72742 0.63472 0.0
C1988 C 0.52912 0.72145 0.3855 0.0
C1989 C 0.66733 0.72318 0.50891 0.0
C1990 C 0.66597 0.75822 0.50356 0.0
C1991 C 0.58771 0.71467 0.30808 0.0
C1992 C 0.59472 0.70767 0.24151 0.0
C1993 C 0.60758 0.67856 0.23072 0.0
C1994 C 0.58507 0.72558 0.18853 0.0
C1995 C 0.58812 0.71335 0.1246 0.0
C1996 C 0.61013 0.66635 0.16764 0.0
C1997 C 0.60073 0.68368 0.11431 0.0
C1998 C 0.55064 0.67295 0.53061 0.0
C1999 C 0.58106 0.75619 0.56527 0.0
C2000 C 0.52809 0.74062 0.66646 0.0
C2001 C 0.53291 0.76152 0.7253 0.0
C2002 C 0.53047 0.79679 0.72435 0.0
C2003 C 0.54055 0.74635 0.78315 0.0
C2004 C 0.55001 0.76617 0.83393 0.0
C2005 C 0.53863 0.8167 0.77594 0.0
C2006 C 0.54908 0.80146 0.83 0.0
C2007 C 0.54843 0.80161 0.42407 0.0
H2008 H 0.61448 0.6641 0.27152 0.0
H2009 H 0.57398 0.74716 0.19727 0.0
H2010 H 0.61824 0.64225 0.1615 0.0
H2011 H 0.60232 0.67301 0.06542 0.0
H2012 H 0.52183 0.80896 0.6848 0.0
H2013 H 0.54082 0.71905 0.7863 0.0
H2014 H 0.53681 0.84391 0.77395 0.0
H2015 H 0.55535 0.81712 0.86988 0.0
Gd2016 Gd 0.78368 0.74174 0.28053 0.0
Gd2017 Gd 0.82583 0.76324 0.16752 0.0
C2018 C 0.89396 0.70928 0.22263 0.0
C2019 C 0.91697 0.75648 0.25842 0.0
C2020 C 0.87912 0.76631 0.21182 0.0
C2021 C 0.87594 0.73179 0.20481 0.0
C2022 C 0.89999 0.7788 0.23775 0.0
C2023 C 0.91449 0.72189 0.24857 0.0
C2024 C 0.88984 0.6746 0.22287 0.0
C2025 C 0.86755 0.66324 0.21487 0.0
N2026 N 0.85435 0.72018 0.192 0.0
C2027 C 0.85 0.68658 0.20399 0.0
H2028 H 0.83312 0.67734 0.21263 0.0
C2029 C 0.86364 0.82129 0.21207 0.0
N2030 N 0.86103 0.78737 0.20207 0.0
C2031 C 0.88417 0.83459 0.23647 0.0
C2032 C 0.90251 0.81332 0.24867 0.0
H2033 H 0.84943 0.83809 0.20388 0.0
H2034 H 0.92766 0.70488 0.26657 0.0
H2035 H 0.74499 0.81528 0.19995 0.0
H2036 H 0.90319 0.65674 0.23619 0.0
H2037 H 0.86353 0.63681 0.22256 0.0
H2038 H 0.93112 0.76594 0.28713 0.0
H2039 H 0.79407 0.65453 0.32382 0.0
H2040 H 0.68008 0.75225 0.27342 0.0
H2041 H 0.69731 0.82984 0.20196 0.0
H2042 H 0.68523 0.63951 0.36561 0.0
H2043 H 0.8857 0.86103 0.24838 0.0
H2044 H 0.91832 0.82357 0.2685 0.0
H2045 H 0.6574 0.69609 0.33036 0.0
H2046 H 0.77095 0.60656 0.35863 0.0
N2047 N 0.74603 0.75954 0.24167 0.0
C2048 C 0.67999 0.77706 0.25242 0.0
C2049 C 0.70256 0.80516 0.21927 0.0
C2050 C 0.68781 0.73549 0.28444 0.0
C2051 C 0.73348 0.72773 0.2712 0.0
C2052 C 0.7338 0.79507 0.21591 0.0
N2053 N 0.76622 0.68687 0.30011 0.0
C2054 C 0.74344 0.68988 0.29928 0.0
C2055 C 0.76202 0.62936 0.34425 0.0
C2056 C 0.73782 0.62983 0.35135 0.0
C2057 C 0.77561 0.65719 0.32232 0.0
C2058 C 0.7253 0.65819 0.33345 0.0
H2059 H 0.72902 0.60797 0.37102 0.0
O2060 O 0.79662 0.7549 0.37917 0.0
O2061 O 0.82115 0.75561 0.27297 0.0
O2062 O 0.81217 0.71111 0.13946 0.0
O2063 O 0.78311 0.69665 0.21383 0.0
O2064 O 0.81437 0.71098 0.31969 0.0
O2065 O 0.7611 0.74964 0.36252 0.0
O2066 O 0.8354 0.80195 0.09866 0.0
O2067 O 0.78852 0.75123 0.17161 0.0
O2068 O 0.78325 0.79872 0.27147 0.0
O2069 O 0.82113 0.80481 0.24744 0.0
O2070 O 0.79602 0.79073 0.11482 0.0
O2071 O 0.83966 0.74837 0.07279 0.0
C2072 C 0.83055 0.73222 0.30606 0.0
C2073 C 0.69381 0.6611 0.34412 0.0
C2074 C 0.67571 0.69735 0.32163 0.0
C2075 C 0.77676 0.75249 0.40649 0.0
C2076 C 0.77492 0.73042 0.46481 0.0
C2077 C 0.76399 0.69904 0.4617 0.0
C2078 C 0.783 0.74188 0.52546 0.0
C2079 C 0.78068 0.72228 0.58309 0.0
C2080 C 0.76182 0.67885 0.51681 0.0
C2081 C 0.76994 0.69021 0.57697 0.0
C2082 C 0.79613 0.69007 0.16227 0.0
C2083 C 0.77934 0.77016 0.1277 0.0
C2084 C 0.8413 0.77985 0.05402 0.0
C2085 C 0.83615 0.78881 0.98606 0.0
C2086 C 0.85126 0.8126 0.96003 0.0
C2087 C 0.8176 0.77601 0.9475 0.0
C2088 C 0.81447 0.78836 0.88248 0.0
C2089 C 0.84851 0.82367 0.89667 0.0
C2090 C 0.8309 0.81187 0.85878 0.0
C2091 C 0.80241 0.8162 0.27739 0.0
H2092 H 0.75577 0.69078 0.41817 0.0
H2093 H 0.79018 0.76679 0.52647 0.0
H2094 H 0.75278 0.65498 0.5135 0.0
H2095 H 0.7657 0.67425 0.61805 0.0
H2096 H 0.86543 0.82259 0.98883 0.0
H2097 H 0.80609 0.75719 0.96761 0.0
H2098 H 0.85997 0.84146 0.87493 0.0
H2099 H 0.83122 0.82187 0.80966 0.0
Gd2100 Gd 0.46447 0.49962 0.2722 0.0
Gd2101 Gd 0.42345 0.47191 0.16212 0.0
C2102 C 0.35459 0.52386 0.21951 0.0
C2103 C 0.33259 0.47646 0.25906 0.0
C2104 C 0.37044 0.46738 0.21151 0.0
C2105 C 0.37288 0.50177 0.20201 0.0
C2106 C 0.35003 0.45455 0.23995 0.0
C2107 C 0.33448 0.51093 0.24704 0.0
C2108 C 0.35815 0.55865 0.21849 0.0
C2109 C 0.38029 0.57056 0.21102 0.0
N2110 N 0.39421 0.51394 0.18828 0.0
C2111 C 0.39811 0.54764 0.20088 0.0
H2112 H 0.41491 0.55722 0.21017 0.0
C2113 C 0.38722 0.41343 0.21712 0.0
N2114 N 0.38894 0.44702 0.20222 0.0
C2115 C 0.36738 0.3999 0.24529 0.0
C2116 C 0.34854 0.42041 0.25541 0.0
H2117 H 0.40124 0.39661 0.20808 0.0
H2118 H 0.32133 0.52788 0.26507 0.0
H2119 H 0.49086 0.42889 0.21341 0.0
H2120 H 0.34456 0.5762 0.2312 0.0
H2121 H 0.38398 0.59711 0.21854 0.0
H2122 H 0.31852 0.46691 0.28818 0.0
H2123 H 0.46061 0.58298 0.29292 0.0
H2124 H 0.56201 0.43618 0.24442 0.0
H2125 H 0.52893 0.40593 0.213 0.0
H2126 H 0.56502 0.59416 0.32984 0.0
H2127 H 0.36671 0.3737 0.26011 0.0
H2128 H 0.33314 0.41 0.2772 0.0
H2129 H 0.58976 0.53566 0.31878 0.0
H2130 H 0.48532 0.63132 0.31408 0.0
N2131 N 0.50025 0.47875 0.2412 0.0
C2132 C 0.54628 0.45071 0.24391 0.0
C2133 C 0.52688 0.43239 0.2253 0.0
C2134 C 0.54466 0.48584 0.26145 0.0
C2135 C 0.51723 0.501 0.25196 0.0
C2136 C 0.50473 0.44592 0.22537 0.0
N2137 N 0.48737 0.54838 0.27157 0.0
C2138 C 0.51009 0.54189 0.26933 0.0
C2139 C 0.49319 0.6072 0.30287 0.0
C2140 C 0.51697 0.60434 0.3076 0.0
C2141 C 0.479 0.57947 0.2893 0.0
C2142 C 0.52776 0.5736 0.29684 0.0
H2143 H 0.52694 0.62613 0.32265 0.0
O2144 O 0.45742 0.52244 0.36519 0.0
O2145 O 0.42809 0.48007 0.26861 0.0
O2146 O 0.43335 0.52584 0.12945 0.0
O2147 O 0.46499 0.53945 0.19413 0.0
O2148 O 0.43269 0.52722 0.3089 0.0
O2149 O 0.48362 0.48291 0.35982 0.0
O2150 O 0.41322 0.43256 0.09457 0.0
O2151 O 0.46014 0.48736 0.16424 0.0
O2152 O 0.46354 0.44408 0.29467 0.0
O2153 O 0.43184 0.42734 0.23526 0.0
O2154 O 0.45405 0.44683 0.10879 0.0
O2155 O 0.41068 0.48558 0.06514 0.0
C2156 C 0.41813 0.50294 0.30204 0.0
C2157 C 0.55624 0.57143 0.31481 0.0
C2158 C 0.57147 0.53477 0.30641 0.0
C2159 C 0.47144 0.50294 0.39729 0.0
C2160 C 0.48062 0.51735 0.45746 0.0
C2161 C 0.49073 0.54929 0.45738 0.0
C2162 C 0.47389 0.5024 0.51676 0.0
C2163 C 0.47578 0.51984 0.57673 0.0
C2164 C 0.49488 0.56566 0.51635 0.0
C2165 C 0.48753 0.55126 0.57523 0.0
C2166 C 0.45018 0.54682 0.14721 0.0
C2167 C 0.46997 0.46881 0.12059 0.0
C2168 C 0.40906 0.45405 0.04726 0.0
C2169 C 0.41598 0.44407 0.98029 0.0
C2170 C 0.404 0.41609 0.95651 0.0
C2171 C 0.43204 0.46126 0.93849 0.0
C2172 C 0.43441 0.45065 0.8717 0.0
C2173 C 0.40543 0.40742 0.89121 0.0
C2174 C 0.4187 0.42594 0.84908 0.0
C2175 C 0.4479 0.42131 0.2809 0.0
H2176 H 0.49504 0.56183 0.412 0.0
H2177 H 0.46626 0.47777 0.51419 0.0
H2178 H 0.50339 0.58994 0.51626 0.0
H2179 H 0.49205 0.56481 0.61885 0.0
H2180 H 0.39229 0.40202 0.98772 0.0
H2181 H 0.44206 0.48219 0.95726 0.0
H2182 H 0.3954 0.38724 0.87109 0.0
H2183 H 0.41632 0.41966 0.79786 0.0
Gd2184 Gd 0.78178 0.4969 0.97788 0.0
Gd2185 Gd 0.82332 0.47777 0.09375 0.0
C2186 C 0.89474 0.50934 0.01839 0.0
C2187 C 0.91388 0.45519 0.01237 0.0
C2188 C 0.87549 0.45962 0.05822 0.0
C2189 C 0.87529 0.49371 0.04656 0.0
C2190 C 0.8959 0.44106 0.0486 0.0
C2191 C 0.9127 0.48924 0.99503 0.0
C2192 C 0.89502 0.54436 0.0112 0.0
C2193 C 0.87526 0.5625 0.02561 0.0
N2194 N 0.8559 0.51133 0.06006 0.0
C2195 C 0.85551 0.54511 0.04509 0.0
H2196 H 0.83972 0.55775 0.03635 0.0
C2197 C 0.85951 0.4163 0.12099 0.0
N2198 N 0.8568 0.44523 0.0862 0.0
C2199 C 0.88132 0.40157 0.12614 0.0
C2200 C 0.89843 0.41074 0.08207 0.0
H2201 H 0.84539 0.40644 0.14945 0.0
H2202 H 0.92555 0.5 0.96336 0.0
H2203 H 0.74537 0.42109 0.06041 0.0
H2204 H 0.90976 0.55725 0.99054 0.0
H2205 H 0.87442 0.58921 0.01429 0.0
H2206 H 0.92897 0.44052 0.99983 0.0
H2207 H 0.78954 0.58554 0.9376 0.0
H2208 H 0.67935 0.47802 0.9768 0.0
H2209 H 0.69842 0.4024 0.05229 0.0
H2210 H 0.6811 0.59046 0.88314 0.0
H2211 H 0.88496 0.3837 0.16464 0.0
H2212 H 0.91435 0.39663 0.0799 0.0
H2213 H 0.65525 0.53169 0.91666 0.0
H2214 H 0.76496 0.63155 0.90083 0.0
N2215 N 0.74481 0.47682 0.01791 0.0
C2216 C 0.6799 0.45334 0.99826 0.0
C2217 C 0.70296 0.42742 0.03525 0.0
C2218 C 0.68655 0.49539 0.96662 0.0
C2219 C 0.73138 0.50754 0.9866 0.0
C2220 C 0.73366 0.44031 0.04285 0.0
N2221 N 0.76271 0.55099 0.9592 0.0
C2222 C 0.74006 0.54633 0.95926 0.0
C2223 C 0.75674 0.60815 0.91496 0.0
C2224 C 0.73272 0.60533 0.90491 0.0
C2225 C 0.77116 0.58157 0.93824 0.0
C2226 C 0.72118 0.57589 0.92188 0.0
H2227 H 0.72331 0.62621 0.88349 0.0
O2228 O 0.76077 0.49887 0.89178 0.0
O2229 O 0.81883 0.48326 0.98693 0.0
O2230 O 0.81413 0.53345 0.10567 0.0
O2231 O 0.78221 0.54323 0.03985 0.0
O2232 O 0.81218 0.52707 0.93655 0.0
O2233 O 0.79326 0.47592 0.88193 0.0
O2234 O 0.82076 0.45214 0.18582 0.0
O2235 O 0.78614 0.49239 0.08811 0.0
O2236 O 0.78281 0.43983 0.9918 0.0
O2237 O 0.82065 0.43174 0.02175 0.0
O2238 O 0.79259 0.44989 0.13983 0.0
O2239 O 0.83892 0.50094 0.18049 0.0
C2240 C 0.82808 0.50554 0.95082 0.0
C2241 C 0.69023 0.56981 0.90621 0.0
C2242 C 0.67346 0.53203 0.92678 0.0
C2243 C 0.77564 0.48814 0.85099 0.0
C2244 C 0.77966 0.51024 0.79365 0.0
C2245 C 0.77389 0.54471 0.79393 0.0
C2246 C 0.78932 0.49684 0.73715 0.0
C2247 C 0.79748 0.51831 0.68749 0.0
C2248 C 0.78155 0.56631 0.74426 0.0
C2249 C 0.79404 0.55324 0.69169 0.0
C2250 C 0.79774 0.55336 0.08229 0.0
C2251 C 0.77678 0.47244 0.13004 0.0
C2252 C 0.83086 0.47668 0.21746 0.0
C2253 C 0.84127 0.46829 0.27959 0.0
C2254 C 0.85444 0.43901 0.28579 0.0
C2255 C 0.83246 0.48418 0.33534 0.0
C2256 C 0.83616 0.46973 0.39672 0.0
C2257 C 0.85729 0.42413 0.34672 0.0
C2258 C 0.84852 0.43956 0.40274 0.0
C2259 C 0.80188 0.42143 0.9889 0.0
H2260 H 0.76271 0.55465 0.83066 0.0
H2261 H 0.79152 0.46974 0.73338 0.0
H2262 H 0.77735 0.59296 0.74585 0.0
H2263 H 0.79946 0.56992 0.65238 0.0
H2264 H 0.86139 0.42631 0.24386 0.0
H2265 H 0.82105 0.50578 0.3305 0.0
H2266 H 0.86601 0.40022 0.34931 0.0
H2267 H 0.85059 0.42733 0.45013 0.0
Gd2268 Gd 0.46654 0.73872 0.99643 0.0
Gd2269 Gd 0.42541 0.76377 0.10651 0.0
C2270 C 0.35673 0.7248 0.02152 0.0
C2271 C 0.33619 0.77744 0.00722 0.0
C2272 C 0.37282 0.77626 0.06438 0.0
C2273 C 0.37473 0.74214 0.05384 0.0
C2274 C 0.35226 0.79321 0.04789 0.0
C2275 C 0.33887 0.74321 0.99282 0.0
C2276 C 0.35791 0.68983 0.01493 0.0
C2277 C 0.3779 0.67346 0.03347 0.0
N2278 N 0.39445 0.72625 0.07192 0.0
C2279 C 0.39641 0.69247 0.05674 0.0
H2280 H 0.41268 0.68056 0.05189 0.0
C2281 C 0.38435 0.82053 0.1322 0.0
N2282 N 0.38984 0.79224 0.09719 0.0
C2283 C 0.3626 0.8351 0.12668 0.0
C2284 C 0.34765 0.824 0.07787 0.0
H2285 H 0.39637 0.83261 0.16478 0.0
H2286 H 0.32708 0.7309 0.9597 0.0
H2287 H 0.49235 0.81019 0.05305 0.0
H2288 H 0.34425 0.67569 0.99135 0.0
H2289 H 0.38002 0.64683 0.02284 0.0
H2290 H 0.32128 0.79097 0.98915 0.0
H2291 H 0.46435 0.65552 0.97286 0.0
H2292 H 0.56336 0.80533 0.01894 0.0
H2293 H 0.52993 0.8347 0.04928 0.0
H2294 H 0.56877 0.64689 0.93802 0.0
H2295 H 0.35798 0.85565 0.15882 0.0
H2296 H 0.33162 0.83719 0.06913 0.0
H2297 H 0.59251 0.70622 0.94686 0.0
H2298 H 0.48955 0.60775 0.95329 0.0
N2299 N 0.50239 0.76047 0.02626 0.0
C2300 C 0.54791 0.79019 0.02077 0.0
C2301 C 0.52828 0.80798 0.03896 0.0
C2302 C 0.54684 0.75482 1.00502 0.0
C2303 C 0.51977 0.7387 0.01621 0.0
C2304 C 0.50639 0.79359 0.04071 0.0
N2305 N 0.49056 0.69062 0.99708 0.0
C2306 C 0.51327 0.69753 1.00042 0.0
C2307 C 0.49717 0.63195 0.96533 0.0
C2308 C 0.52093 0.63523 0.96214 0.0
C2309 C 0.48266 0.65941 0.97809 0.0
C2310 C 0.53136 0.66621 0.97331 0.0
H2311 H 0.53115 0.61368 0.94725 0.0
O2312 O 0.45983 0.71564 0.90375 0.0
O2313 O 0.43019 0.75746 0.99927 0.0
O2314 O 0.43287 0.70825 0.13207 0.0
O2315 O 0.46574 0.69719 0.07139 0.0
O2316 O 0.43549 0.71087 0.95662 0.0
O2317 O 0.48544 0.75608 0.90899 0.0
O2318 O 0.42784 0.79928 0.18549 0.0
O2319 O 0.46208 0.74669 0.10485 0.0
O2320 O 0.46267 0.79569 0.98106 0.0
O2321 O 0.42789 0.80882 0.03014 0.0
O2322 O 0.45693 0.78949 0.15432 0.0
O2323 O 0.40942 0.75071 0.19983 0.0
C2324 C 0.42081 0.73497 0.96348 0.0
C2325 C 0.55971 0.66923 0.95409 0.0
C2326 C 0.57433 0.7065 0.96057 0.0
C2327 C 0.47351 0.73553 0.87175 0.0
C2328 C 0.48273 0.72113 0.81207 0.0
C2329 C 0.49369 0.68976 0.81241 0.0
C2330 C 0.47496 0.7351 0.75315 0.0
C2331 C 0.47778 0.718 0.69346 0.0
C2332 C 0.49822 0.67348 0.75361 0.0
C2333 C 0.4905 0.68743 0.69475 0.0
C2334 C 0.44967 0.68769 0.11304 0.0
C2335 C 0.47218 0.7662 0.14588 0.0
C2336 C 0.41588 0.7798 0.22432 0.0
C2337 C 0.41708 0.78573 0.29407 0.0
C2338 C 0.40084 0.80859 0.31733 0.0
C2339 C 0.43479 0.77355 0.33527 0.0
C2340 C 0.43553 0.78443 0.40129 0.0
C2341 C 0.4014 0.8186 0.38192 0.0
C2342 C 0.4178 0.80603 0.4238 0.0
C2343 C 0.44526 0.81689 0.98915 0.0
H2344 H 0.49837 0.67755 0.85778 0.0
H2345 H 0.46568 0.75852 0.75567 0.0
H2346 H 0.50748 0.64979 0.75378 0.0
H2347 H 0.49556 0.67445 0.65094 0.0
H2348 H 0.38779 0.81914 0.28518 0.0
H2349 H 0.44768 0.75649 0.3161 0.0
H2350 H 0.38917 0.83625 0.4004 0.0
H2351 H 0.41598 0.81381 0.47437 0.0
Gd2352 Gd 0.17392 0.22318 0.85024 0.0
Gd2353 Gd 0.2146 0.24893 0.73796 0.0
C2354 C 0.30994 0.2499 0.72467 0.0
C2355 C 0.30487 0.32455 0.66592 0.0
C2356 C 0.25537 0.29821 0.71629 0.0
C2357 C 0.26474 0.25987 0.74278 0.0
C2358 C 0.27371 0.32906 0.68036 0.0
C2359 C 0.32239 0.28732 0.68625 0.0
C2360 C 0.31732 0.20811 0.75637 0.0
C2361 C 0.29464 0.18118 0.79233 0.0
N2362 N 0.25196 0.2289 0.77401 0.0
C2363 C 0.26371 0.19279 0.79895 0.0
H2364 H 0.25232 0.17319 0.81657 0.0
C2365 C 0.22388 0.33327 0.70144 0.0
N2366 N 0.23293 0.30289 0.72081 0.0
C2367 C 0.23773 0.3605 0.6778 0.0
C2368 C 0.26174 0.35855 0.6664 0.0
H2369 H 0.20546 0.33671 0.70299 0.0
H2370 H 0.34069 0.28777 0.67799 0.0
H2371 H 0.16375 0.30791 0.80304 0.0
H2372 H 0.31746 0.23283 0.73508 0.0
H2373 H 0.29964 0.15646 0.80991 0.0
H2374 H 0.31365 0.34626 0.6458 0.0
H2375 H 0.15256 0.14736 0.8064 0.0
H2376 H 0.09297 0.32486 0.78856 0.0
H2377 H 0.13218 0.34704 0.79873 0.0
H2378 H 0.06827 0.21494 0.73027 0.0
H2379 H 0.22916 0.38388 0.66502 0.0
H2380 H 0.27077 0.3801 0.64625 0.0
H2381 H 0.07034 0.27596 0.75453 0.0
H2382 H 0.11837 0.1232 0.7541 0.0
N2383 N 0.14391 0.26419 0.82698 0.0
C2384 C 0.10695 0.30771 0.79997 0.0
C2385 C 0.12897 0.32036 0.80619 0.0
C2386 C 0.10394 0.27281 0.79818 0.0
C2387 C 0.1227 0.2513 0.81405 0.0
C2388 C 0.14723 0.29797 0.81451 0.0
N2389 N 0.1396 0.19714 0.81191 0.0
C2390 C 0.12076 0.21689 0.80369 0.0
C2391 C 0.11865 0.14946 0.76883 0.0
C2392 C 0.09945 0.16939 0.75948 0.0
C2393 C 0.13825 0.16353 0.79736 0.0
C2394 C 0.10042 0.20348 0.77586 0.0
H2395 H 0.08411 0.15858 0.73811 0.0
O2396 O 0.16652 0.18325 0.91962 0.0
O2397 O 0.21032 0.23857 0.84619 0.0
O2398 O 0.21724 0.19219 0.73589 0.0
O2399 O 0.18098 0.18124 0.77237 0.0
O2400 O 0.20486 0.19832 0.90267 0.0
O2401 O 0.15937 0.23621 0.94477 0.0
O2402 O 0.20359 0.26229 0.64011 0.0
O2403 O 0.17788 0.22972 0.74408 0.0
O2404 O 0.18544 0.27746 0.87649 0.0
O2405 O 0.21651 0.29136 0.80864 0.0
O2406 O 0.18214 0.27675 0.70518 0.0
O2407 O 0.23287 0.2301 0.65177 0.0
C2408 C 0.22066 0.22005 0.88847 0.0
C2409 C 0.08243 0.22485 0.75858 0.0
C2410 C 0.08385 0.25932 0.77143 0.0
C2411 C 0.15963 0.20478 0.96413 0.0
C2412 C 0.16478 0.19722 0.03301 0.0
C2413 C 0.14865 0.17595 0.06199 0.0
C2414 C 0.18365 0.21007 0.07061 0.0
C2415 C 0.18575 0.20073 0.13798 0.0
C2416 C 0.15033 0.16802 0.12748 0.0
C2417 C 0.16805 0.18035 0.16469 0.0
C2418 C 0.19931 0.17215 0.7378 0.0
C2419 C 0.16741 0.25283 0.71296 0.0
C2420 C 0.21918 0.24511 0.61049 0.0
C2421 C 0.22793 0.2617 0.55147 0.0
C2422 C 0.23844 0.29328 0.55402 0.0
C2423 C 0.22169 0.24835 0.49071 0.0
C2424 C 0.22592 0.26609 0.43219 0.0
C2425 C 0.24381 0.31076 0.49724 0.0
C2426 C 0.2377 0.29739 0.43675 0.0
C2427 C 0.20183 0.2987 0.85571 0.0
H2428 H 0.13433 0.1658 0.03402 0.0
H2429 H 0.19621 0.22655 0.04811 0.0
H2430 H 0.138 0.15203 0.15088 0.0
H2431 H 0.16716 0.17298 0.21543 0.0
H2432 H 0.24244 0.30466 0.59929 0.0
H2433 H 0.21339 0.22416 0.49045 0.0
H2434 H 0.25267 0.33478 0.50016 0.0
H2435 H 0.24344 0.31143 0.39455 0.0
Gd2436 Gd 0.57405 0.51262 0.84184 0.0
Gd2437 Gd 0.5322 0.48996 0.72885 0.0
C2438 C 0.43712 0.49096 0.72187 0.0
C2439 C 0.44086 0.41667 0.66121 0.0
C2440 C 0.49065 0.44019 0.71405 0.0
C2441 C 0.48194 0.47896 0.74157 0.0
C2442 C 0.47183 0.41066 0.67645 0.0
C2443 C 0.42406 0.45435 0.68198 0.0
C2444 C 0.43043 0.53294 0.75359 0.0
C2445 C 0.45348 0.55885 0.79048 0.0
N2446 N 0.49537 0.50963 0.77252 0.0
C2447 C 0.48416 0.54604 0.79781 0.0
H2448 H 0.49584 0.56534 0.81522 0.0
C2449 C 0.52175 0.40506 0.69318 0.0
N2450 N 0.51328 0.4357 0.7133 0.0
C2451 C 0.5074 0.37851 0.66948 0.0
C2452 C 0.4834 0.3813 0.65926 0.0
H2453 H 0.54015 0.40122 0.69248 0.0
H2454 H 0.40588 0.45474 0.67128 0.0
H2455 H 0.58608 0.42985 0.7899 0.0
H2456 H 0.42991 0.50829 0.73209 0.0
H2457 H 0.44892 0.58385 0.8076 0.0
H2458 H 0.43174 0.39603 0.63806 0.0
H2459 H 0.5945 0.59074 0.80899 0.0
H2460 H 0.65751 0.41562 0.78286 0.0
H2461 H 0.61854 0.39184 0.78629 0.0
H2462 H 0.68234 0.52794 0.74328 0.0
H2463 H 0.51564 0.35514 0.65517 0.0
H2464 H 0.47401 0.36043 0.63772 0.0
H2465 H 0.68043 0.46625 0.76 0.0
H2466 H 0.62854 0.61624 0.75618 0.0
N2467 N 0.605 0.47367 0.81809 0.0
C2468 C 0.64306 0.43203 0.79334 0.0
C2469 C 0.62117 0.41849 0.79585 0.0
C2470 C 0.64553 0.46706 0.7947 0.0
C2471 C 0.62611 0.48754 0.80892 0.0
C2472 C 0.60239 0.44005 0.8034 0.0
N2473 N 0.6083 0.54105 0.81014 0.0
C2474 C 0.62755 0.52215 0.80164 0.0
C2475 C 0.62866 0.59005 0.77118 0.0
C2476 C 0.64844 0.57115 0.76307 0.0
C2477 C 0.60918 0.57508 0.79884 0.0
C2478 C 0.64808 0.53688 0.77792 0.0
H2479 H 0.66378 0.58297 0.74391 0.0
O2480 O 0.57863 0.55134 0.91443 0.0
O2481 O 0.53692 0.49714 0.839 0.0
O2482 O 0.52994 0.5469 0.7367 0.0
O2483 O 0.56764 0.55476 0.7639 0.0
O2484 O 0.54345 0.53826 0.89359 0.0
O2485 O 0.58729 0.49813 0.93804 0.0
O2486 O 0.51187 0.48332 0.64106 0.0
O2487 O 0.56919 0.50594 0.7363 0.0
O2488 O 0.56355 0.45811 0.86666 0.0
O2489 O 0.53411 0.44436 0.79351 0.0
O2490 O 0.56394 0.46115 0.68943 0.0
O2491 O 0.54239 0.51185 0.63276 0.0
C2492 C 0.52757 0.51611 0.88282 0.0
C2493 C 0.66717 0.51672 0.76453 0.0
C2494 C 0.66606 0.48191 0.77407 0.0
C2495 C 0.58456 0.52912 0.95901 0.0
C2496 C 0.59065 0.53948 0.02538 0.0
C2497 C 0.59468 0.57394 0.03517 0.0
C2498 C 0.58532 0.51845 0.07944 0.0
C2499 C 0.58379 0.53267 0.14252 0.0
C2500 C 0.5921 0.58786 0.09696 0.0
C2501 C 0.58778 0.56739 0.15085 0.0
C2502 C 0.54864 0.56577 0.73451 0.0
C2503 C 0.57934 0.48372 0.70234 0.0
C2504 C 0.52594 0.49699 0.60084 0.0
C2505 C 0.53174 0.47661 0.54172 0.0
C2506 C 0.53026 0.44122 0.54203 0.0
C2507 C 0.53919 0.49243 0.48411 0.0
C2508 C 0.549 0.47332 0.43265 0.0
C2509 C 0.53873 0.42202 0.48985 0.0
C2510 C 0.54867 0.43799 0.43586 0.0
C2511 C 0.54792 0.4368 0.84266 0.0
H2512 H 0.59783 0.59079 0.99411 0.0
H2513 H 0.57992 0.49252 0.07159 0.0
H2514 H 0.59287 0.61472 0.10228 0.0
H2515 H 0.5859 0.57925 0.19858 0.0
H2516 H 0.52216 0.42834 0.58161 0.0
H2517 H 0.539 0.51977 0.48168 0.0
H2518 H 0.53753 0.39472 0.49135 0.0
H2519 H 0.55511 0.42281 0.39556 0.0
Gd2520 Gd 0.17604 0.51206 0.90821 0.0
Gd2521 Gd 0.21709 0.49021 0.02109 0.0
C2522 C 0.31264 0.49202 0.03652 0.0
C2523 C 0.30869 0.41733 0.09584 0.0
C2524 C 0.259 0.44158 0.04216 0.0
C2525 C 0.26781 0.4801 0.016 0.0
C2526 C 0.27771 0.41154 0.07946 0.0
C2527 C 0.3256 0.45519 0.0763 0.0
C2528 C 0.31933 0.53412 1.00529 0.0
C2529 C 0.2963 0.56006 0.96822 0.0
N2530 N 0.25449 0.51059 0.98467 0.0
C2531 C 0.26563 0.54712 0.96017 0.0
H2532 H 0.25391 0.56627 0.94238 0.0
C2533 C 0.22776 0.40651 0.06087 0.0
N2534 N 0.23648 0.43672 0.03915 0.0
C2535 C 0.2419 0.37983 0.08549 0.0
C2536 C 0.26596 0.38216 0.09568 0.0
H2537 H 0.20935 0.40287 0.06076 0.0
H2538 H 0.34372 0.45559 0.08789 0.0
H2539 H 0.16441 0.42863 0.96132 0.0
H2540 H 0.31985 0.5094 0.0266 0.0
H2541 H 0.30089 0.58498 0.95084 0.0
H2542 H 0.31771 0.39657 0.11898 0.0
H2543 H 0.14812 0.58156 0.85922 0.0
H2544 H 0.09544 0.42066 0.01551 0.0
H2545 H 0.13206 0.3934 0.98706 0.0
H2546 H 0.07121 0.53542 0.02287 0.0
H2547 H 0.23346 0.35673 0.10058 0.0
H2548 H 0.27516 0.36117 0.11746 0.0
H2549 H 0.07723 0.47479 0.04793 0.0
H2550 H 0.10861 0.60308 0.86133 0.0
N2551 N 0.14548 0.4735 0.94042 0.0
C2552 C 0.10907 0.43545 0.9934 0.0
C2553 C 0.12956 0.41998 0.97661 0.0
C2554 C 0.10737 0.47042 0.98781 0.0
C2555 C 0.12541 0.48867 0.95774 0.0
C2556 C 0.14794 0.43981 0.95527 0.0
N2557 N 0.14079 0.54029 0.92204 0.0
C2558 C 0.12341 0.52306 0.95053 0.0
C2559 C 0.11376 0.58365 0.89481 0.0
C2560 C 0.09809 0.57079 0.9396 0.0
C2561 C 0.13579 0.56981 0.8909 0.0
C2562 C 0.10261 0.53934 0.96689 0.0
H2563 H 0.08161 0.58305 0.94635 0.0
O2564 O 0.17694 0.54602 0.82703 0.0
O2565 O 0.21282 0.497 0.91233 0.0
O2566 O 0.21542 0.548 0.01932 0.0
O2567 O 0.17832 0.55691 0.98334 0.0
O2568 O 0.20686 0.53886 0.8598 0.0
O2569 O 0.15865 0.49711 0.81809 0.0
O2570 O 0.20649 0.47648 0.11863 0.0
O2571 O 0.18029 0.50791 0.01478 0.0
O2572 O 0.18663 0.45726 0.88681 0.0
O2573 O 0.21843 0.44607 0.95344 0.0
O2574 O 0.18543 0.46176 0.05704 0.0
O2575 O 0.23504 0.51005 0.10721 0.0
C2576 C 0.22258 0.51654 0.87092 0.0
C2577 C 0.08627 0.5224 1.00455 0.0
C2578 C 0.08912 0.48795 0.01646 0.0
C2579 C 0.16407 0.52615 0.79151 0.0
C2580 C 0.16511 0.53039 0.72173 0.0
C2581 C 0.14777 0.55077 0.69636 0.0
C2582 C 0.18424 0.52102 0.68345 0.0
C2583 C 0.18564 0.53274 0.61833 0.0
C2584 C 0.14916 0.56213 0.63272 0.0
C2585 C 0.1674 0.55298 0.59392 0.0
C2586 C 0.19666 0.56709 0.01824 0.0
C2587 C 0.17047 0.48531 0.04864 0.0
C2588 C 0.22148 0.49459 0.14839 0.0
C2589 C 0.23011 0.47793 0.20725 0.0
C2590 C 0.24172 0.44722 0.20416 0.0
C2591 C 0.22242 0.48964 0.26774 0.0
C2592 C 0.22719 0.47177 0.32563 0.0
C2593 C 0.24687 0.42909 0.2603 0.0
C2594 C 0.23984 0.44129 0.32072 0.0
C2595 C 0.20328 0.43694 0.9086 0.0
H2596 H 0.13371 0.55938 0.72706 0.0
H2597 H 0.19784 0.5058 0.70449 0.0
H2598 H 0.13664 0.57918 0.61328 0.0
H2599 H 0.16664 0.56259 0.54446 0.0
H2600 H 0.24695 0.4372 0.15897 0.0
H2601 H 0.2126 0.51258 0.26846 0.0
H2602 H 0.25655 0.40578 0.25697 0.0
H2603 H 0.24563 0.42722 0.36273 0.0
Gd2604 Gd 0.57496 0.22402 0.91813 0.0
Gd2605 Gd 0.53279 0.24635 0.02916 0.0
C2606 C 0.43724 0.25388 0.0276 0.0
C2607 C 0.44339 0.32886 0.08347 0.0
C2608 C 0.49298 0.29898 0.04271 0.0
C2609 C 0.48294 0.26081 0.01595 0.0
C2610 C 0.47484 0.33124 0.07414 0.0
C2611 C 0.42522 0.29252 0.06234 0.0
C2612 C 0.42924 0.21206 0.99729 0.0
C2613 C 0.45174 0.18316 0.96651 0.0
N2614 N 0.49543 0.22839 0.98865 0.0
C2615 C 0.48307 0.1927 0.96405 0.0
H2616 H 0.49416 0.17213 0.94933 0.0
C2617 C 0.52521 0.33136 0.06749 0.0
N2618 N 0.51576 0.30167 0.04546 0.0
C2619 C 0.51165 0.35961 0.08729 0.0
C2620 C 0.48738 0.35961 0.09199 0.0
H2621 H 0.54368 0.33355 0.07073 0.0
H2622 H 0.40684 0.29417 0.06875 0.0
H2623 H 0.58328 0.30859 0.97076 0.0
H2624 H 0.42944 0.23711 0.01707 0.0
H2625 H 0.44637 0.15839 0.95007 0.0
H2626 H 0.4349 0.35132 0.10134 0.0
H2627 H 0.59792 0.14873 0.96089 0.0
H2628 H 0.654 0.32879 0.98157 0.0
H2629 H 0.61411 0.34899 0.97744 0.0
H2630 H 0.68286 0.21925 0.02465 0.0
H2631 H 0.52061 0.38231 0.1023 0.0
H2632 H 0.47856 0.38174 0.11038 0.0
H2633 H 0.67926 0.28019 1.00358 0.0
H2634 H 0.63305 0.12629 0.01177 0.0
N2635 N 0.60405 0.26616 0.94407 0.0
C2636 C 0.64029 0.31111 0.97062 0.0
C2637 C 0.61787 0.32263 0.96796 0.0
C2638 C 0.64424 0.2764 0.96882 0.0
C2639 C 0.6257 0.25421 0.95419 0.0
C2640 C 0.60004 0.2995 0.9592 0.0
N2641 N 0.60992 0.19935 0.9555 0.0
C2642 C 0.62849 0.21981 0.96259 0.0
C2643 C 0.63213 0.15243 0.99656 0.0
C2644 C 0.65117 0.17296 1.00375 0.0
C2645 C 0.61195 0.1657 0.96977 0.0
C2646 C 0.6495 0.20702 0.98733 0.0
H2647 H 0.6669 0.16256 0.02383 0.0
O2648 O 0.58702 0.18534 0.85322 0.0
O2649 O 0.53776 0.2376 0.92004 0.0
O2650 O 0.53031 0.18976 0.01985 0.0
O2651 O 0.56789 0.18122 0.99441 0.0
O2652 O 0.54497 0.19719 0.86499 0.0
O2653 O 0.58586 0.23764 0.81892 0.0
O2654 O 0.50972 0.24303 0.11055 0.0
O2655 O 0.56999 0.23063 0.02401 0.0
O2656 O 0.56329 0.2776 0.89053 0.0
O2657 O 0.53329 0.29128 0.96208 0.0
O2658 O 0.56382 0.27562 0.07024 0.0
O2659 O 0.54443 0.23122 0.12875 0.0
C2660 C 0.52861 0.21856 0.87619 0.0
C2661 C 0.66767 0.22888 1.00089 0.0
C2662 C 0.66535 0.26342 0.98989 0.0
C2663 C 0.58938 0.20603 0.80374 0.0
C2664 C 0.58163 0.19278 0.74008 0.0
C2665 C 0.59205 0.16237 0.72249 0.0
C2666 C 0.56588 0.20882 0.69618 0.0
C2667 C 0.56195 0.19452 0.63293 0.0
C2668 C 0.5891 0.14937 0.66061 0.0
C2669 C 0.57563 0.16606 0.61559 0.0
C2670 C 0.5488 0.17082 0.02398 0.0
C2671 C 0.5796 0.2535 0.05816 0.0
C2672 C 0.52472 0.23744 0.15503 0.0
C2673 C 0.52395 0.25972 0.21318 0.0
C2674 C 0.51449 0.29214 0.21039 0.0
C2675 C 0.53106 0.24706 0.27375 0.0
C2676 C 0.53065 0.2669 0.3316 0.0
C2677 C 0.51378 0.31246 0.26576 0.0
C2678 C 0.52187 0.3003 0.32558 0.0
C2679 C 0.54703 0.29854 0.91249 0.0
H2680 H 0.60386 0.14954 0.75548 0.0
H2681 H 0.55734 0.23191 0.71078 0.0
H2682 H 0.59878 0.12761 0.64561 0.0
H2683 H 0.57713 0.15618 0.56636 0.0
H2684 H 0.50641 0.30125 0.16685 0.0
H2685 H 0.53621 0.22114 0.27349 0.0
H2686 H 0.50615 0.33739 0.26281 0.0
H2687 H 0.51941 0.31725 0.36624 0.0
C2688 C 0.23148 0.26356 0.98176 0.0
C2689 C 0.23614 0.23337 0.94606 0.0
H2690 H 0.23996 0.29734 0.06222 0.0
C2691 C 0.25424 0.21366 0.97269 0.0
H2692 H 0.21712 0.27909 0.96816 0.0
C2693 C 0.26695 0.22359 0.03004 0.0
C2694 C 0.26232 0.25383 0.06547 0.0
H2695 H 0.25881 0.19025 0.94868 0.0
H2696 H 0.281 0.2077 0.04485 0.0
C2697 C 0.24439 0.27374 0.03854 0.0
C2698 C 0.00307 0.97327 0.95237 0.0
C2699 C 0.01241 0.00628 0.94818 0.0
H2700 H 0.98429 0.93588 0.00863 0.0
C2701 C 0.00876 0.02668 1.0049 0.0
H2702 H 0.00488 0.95644 0.91099 0.0
C2703 C 0.99684 0.01474 0.06214 0.0
C2704 C 0.98735 0.98176 0.06618 0.0
H2705 H 0.01554 0.05216 1.00571 0.0
H2706 H 0.99521 0.03161 0.10351 0.0
C2707 C 0.99108 0.96136 0.00949 0.0
C2708 C 0.23794 0.02724 0.25941 0.0
C2709 C 0.23711 0.00638 0.31711 0.0
H2710 H 0.25009 0.03596 0.15929 0.0
C2711 C 0.25017 0.97617 0.3111 0.0
H2712 H 0.22829 0.05063 0.25915 0.0
C2713 C 0.26315 0.96784 0.25254 0.0
C2714 C 0.26414 0.98884 0.19499 0.0
H2715 H 0.25049 0.95866 0.35205 0.0
H2716 H 0.27272 0.94438 0.25278 0.0
C2717 C 0.25079 0.01879 0.20069 0.0
C2718 C 0.99774 0.21136 0.28584 0.0
C2719 C 0.014 0.23319 0.31592 0.0
H2720 H 0.97198 0.20324 0.21126 0.0
C2721 C 0.01669 0.26473 0.28318 0.0
H2722 H 0.99498 0.18658 0.30682 0.0
C2723 C 0.00359 0.27425 0.22639 0.0
C2724 C 0.98721 0.25264 0.19675 0.0
H2725 H 0.02961 0.2821 0.2991 0.0
H2726 H 0.00664 0.29881 0.20484 0.0
C2727 C 0.98464 0.22086 0.22875 0.0
C2728 C 0.74942 0.76547 0.95251 0.0
C2729 C 0.73894 0.73312 0.94924 0.0
H2730 H 0.76922 0.8021 0.00809 0.0
C2731 C 0.7413 0.71355 0.00788 0.0
H2732 H 0.74841 0.78197 0.91016 0.0
C2733 C 0.75325 0.72539 0.06551 0.0
C2734 C 0.76403 0.75758 0.06849 0.0
H2735 H 0.73355 0.68869 0.00976 0.0
H2736 H 0.75397 0.70901 0.10798 0.0
C2737 C 0.76146 0.77724 0.01002 0.0
C2738 C 0.76358 0.01697 0.72068 0.0
C2739 C 0.76547 0.98304 0.69844 0.0
H2740 H 0.75031 0.05329 0.79094 0.0
C2741 C 0.7538 0.95938 0.73939 0.0
H2742 H 0.77226 0.03652 0.69469 0.0
C2743 C 0.74106 0.96912 0.79725 0.0
C2744 C 0.73923 0.00322 0.81891 0.0
H2745 H 0.75447 0.93284 0.72662 0.0
H2746 H 0.7323 0.94963 0.8243 0.0
C2747 C 0.75091 0.02674 0.7782 0.0
C2748 C 0.98254 0.72393 0.73069 0.0
C2749 C 0.98616 0.7547 0.69611 0.0
H2750 H 0.99174 0.69059 0.81105 0.0
C2751 C 0.00324 0.77587 0.72414 0.0
H2752 H 0.96903 0.70721 0.7157 0.0
C2753 C 0.01627 0.7664 0.78132 0.0
C2754 C 0.01275 0.73538 0.81531 0.0
H2755 H 0.00675 0.80004 0.7014 0.0
H2756 H 0.02962 0.78333 0.79735 0.0
C2757 C 0.99552 0.71448 0.78773 0.0
C2758 C 0.25127 0.71006 0.47466 0.0
C2759 C 0.23689 0.734 0.44198 0.0
H2760 H 0.27609 0.69859 0.55134 0.0
C2761 C 0.23639 0.76607 0.47401 0.0
H2762 H 0.2527 0.68505 0.45383 0.0
C2763 C 0.24916 0.77329 0.53373 0.0
C2764 C 0.26341 0.74914 0.56673 0.0
H2765 H 0.22568 0.7858 0.45375 0.0
H2766 H 0.24782 0.79839 0.55442 0.0
C2767 C 0.26437 0.71752 0.53349 0.0
C2768 C 0.98423 0.51578 0.52763 0.0
C2769 C 0.98934 0.48769 0.56892 0.0
H2770 H 0.99164 0.54479 0.43919 0.0
C2771 C 0.00696 0.46633 0.54359 0.0
H2772 H 0.97021 0.53226 0.54095 0.0
C2773 C 0.01904 0.47302 0.48292 0.0
C2774 C 0.01394 0.50109 0.4416 0.0
H2775 H 0.01168 0.44408 0.57141 0.0
H2776 H 0.03303 0.45647 0.46954 0.0
C2777 C 0.99633 0.52251 0.46697 0.0
C2778 C 0.25354 0.51332 0.69814 0.0
C2779 C 0.26417 0.48105 0.69517 0.0
H2780 H 0.23339 0.54961 0.75326 0.0
C2781 C 0.2611 0.46089 0.75264 0.0
H2782 H 0.25468 0.53009 0.65631 0.0
C2783 C 0.24858 0.47223 0.80932 0.0
C2784 C 0.23805 0.50451 0.81237 0.0
H2785 H 0.26878 0.43598 0.75443 0.0
H2786 H 0.24724 0.45542 0.85103 0.0
C2787 C 0.24109 0.52471 0.75496 0.0
C2788 C 0.75237 0.22293 0.56482 0.0
C2789 C 0.76321 0.25504 0.56882 0.0
H2790 H 0.73181 0.18724 0.50907 0.0
C2791 C 0.7603 0.2753 0.51106 0.0
H2792 H 0.75369 0.20583 0.60619 0.0
C2793 C 0.74745 0.26448 0.45398 0.0
C2794 C 0.73645 0.23247 0.4502 0.0
H2795 H 0.76822 0.30005 0.50958 0.0
H2796 H 0.74621 0.28151 0.41255 0.0
C2797 C 0.73963 0.21206 0.50763 0.0
C2798 C 0.74481 0.47188 0.30231 0.0
C2799 C 0.73596 0.50503 0.31067 0.0
H2800 H 0.76349 0.43591 0.24212 0.0
C2801 C 0.74043 0.52716 0.25672 0.0
H2802 H 0.74227 0.45359 0.34099 0.0
C2803 C 0.75269 0.51684 0.19857 0.0
C2804 C 0.76157 0.4837 0.19024 0.0
H2805 H 0.73418 0.5529 0.25901 0.0
H2806 H 0.75532 0.53514 0.15994 0.0
C2807 C 0.75715 0.46161 0.24428 0.0
C2808 C 0.49457 0.01591 0.55591 0.0
C2809 C 0.48765 0.98194 0.56644 0.0
H2810 H 0.51074 0.05323 0.49291 0.0
C2811 C 0.49298 0.95969 0.51344 0.0
H2812 H 0.49119 0.0344 0.59361 0.0
C2813 C 0.5044 0.97065 0.45434 0.0
C2814 C 0.51134 0.00462 0.44389 0.0
H2815 H 0.48816 0.93334 0.5174 0.0
H2816 H 0.50788 0.95221 0.41662 0.0
C2817 C 0.50592 0.02687 0.49679 0.0
C2818 C 0.4985 0.22237 0.70059 0.0
C2819 C 0.488 0.25473 0.69666 0.0
H2820 H 0.51835 0.18598 0.75687 0.0
C2821 C 0.49088 0.2748 0.75448 0.0
H2822 H 0.49731 0.20554 0.65883 0.0
C2823 C 0.50301 0.26331 0.81217 0.0
C2824 C 0.51352 0.23097 0.81618 0.0
H2825 H 0.48329 0.29978 0.75582 0.0
H2826 H 0.50407 0.28008 0.854 0.0
C2827 C 0.51073 0.21094 0.75821 0.0
C2828 C 0.49023 0.77546 0.26307 0.0
C2829 C 0.48746 0.75472 0.20606 0.0
H2830 H 0.50382 0.78216 0.36198 0.0
C2831 C 0.49853 0.72282 0.21067 0.0
H2832 H 0.48226 0.80019 0.26371 0.0
C2833 C 0.51121 0.7124 0.26816 0.0
C2834 C 0.51377 0.73299 0.32547 0.0
H2835 H 0.4975 0.7056 0.16948 0.0
H2836 H 0.51928 0.68776 0.2673 0.0
C2837 C 0.50276 0.76494 0.32078 0.0
C2838 C 0.51067 0.52314 1.00242 0.0
C2839 C 0.51229 0.50397 0.94284 0.0
H2840 H 0.49774 0.52825 0.10239 0.0
C2841 C 0.50014 0.47287 0.9449 0.0
H2842 H 0.5196 0.54709 1.00547 0.0
C2843 C 0.48742 0.46184 1.00195 0.0
C2844 C 0.48559 0.4811 0.06132 0.0
H2845 H 0.50039 0.45674 0.90196 0.0
H2846 H 0.4786 0.43781 0.99894 0.0
C2847 C 0.49787 0.51215 0.05944 0.0
C2848 C 0.38792 0.20584 0.39037 0.0
C2849 C 0.39813 0.23588 0.41396 0.0
H2850 H 0.35973 0.18176 0.34018 0.0
C2851 C 0.38661 0.26634 0.39723 0.0
H2852 H 0.39606 0.18179 0.40046 0.0
C2853 C 0.36606 0.26645 0.35822 0.0
C2854 C 0.35573 0.23604 0.33595 0.0
H2855 H 0.3937 0.29021 0.4133 0.0
H2856 H 0.3582 0.29038 0.34581 0.0
C2857 C 0.36689 0.20585 0.355 0.0
C2858 C 0.8652 0.9687 0.39849 0.0
C2859 C 0.85495 -0.00046 0.41798 0.0
H2860 H 0.89267 0.94426 0.34441 0.0
C2861 C 0.86556 0.02949 0.39634 0.0
H2862 H 0.85745 0.94502 0.413 0.0
C2863 C 0.88634 0.02903 0.36127 0.0
C2864 C 0.89641 -0.00139 0.3399 0.0
H2865 H 0.85808 0.05377 0.40825 0.0
H2866 H 0.8943 0.05298 0.34934 0.0
C2867 C 0.88545 0.96825 0.35906 0.0
C2868 C 0.38738 0.97298 0.85626 0.0
C2869 C 0.39957 0.00319 0.84309 0.0
H2870 H 0.35763 0.94976 0.90164 0.0
C2871 C 0.39019 0.03344 0.86795 0.0
H2872 H 0.39402 0.94911 0.83878 0.0
C2873 C 0.36885 0.03398 0.90061 0.0
C2874 C 0.35683 0.00399 0.91504 0.0
H2875 H 0.39908 0.05715 0.86019 0.0
H2876 H 0.362 0.05809 0.91647 0.0
C2877 C 0.3665 0.97332 0.8926 0.0
C2878 C 0.86423 0.2669 0.8616 0.0
C2879 C 0.85348 0.23606 0.84334 0.0
H2880 H 0.89217 0.2916 0.91391 0.0
C2881 C 0.86504 0.20624 0.86195 0.0
H2882 H 0.85605 0.29059 0.84922 0.0
C2883 C 0.88651 0.20693 0.89466 0.0
C2884 C 0.89647 0.23731 0.91747 0.0
H2885 H 0.8574 0.18192 0.85126 0.0
H2886 H 0.89472 0.18304 0.90566 0.0
C2887 C 0.88508 0.26752 0.89908 0.0
C2888 C 0.61637 0.78416 0.61754 0.0
C2889 C 0.60462 0.75433 0.59971 0.0
H2890 H 0.6466 0.80728 0.65898 0.0
C2891 C 0.61541 0.72351 0.61777 0.0
H2892 H 0.60877 0.80847 0.60652 0.0
C2893 C 0.6366 0.72289 0.6536 0.0
C2894 C 0.64839 0.75302 0.67049 0.0
H2895 H 0.60712 0.69978 0.60601 0.0
H2896 H 0.64376 0.69877 0.66794 0.0
C2897 C 0.63819 0.78345 0.6487 0.0
C2898 C 0.115 0.95845 0.65501 0.0
C2899 C 0.10498 0.98921 0.6754 0.0
H2900 H 0.14385 0.93263 0.61226 0.0
C2901 C 0.11661 0.01908 0.6562 0.0
H2902 H 0.10666 0.93476 0.66683 0.0
C2903 C 0.13739 0.0178 0.61858 0.0
C2904 C 0.14784 0.9866 0.60134 0.0
H2905 H 0.10959 0.0434 0.66974 0.0
H2906 H 0.14552 0.04123 0.60423 0.0
C2907 C 0.13647 0.95717 0.62266 0.0
C2908 C 0.63483 0.01804 0.10958 0.0
C2909 C 0.64617 0.98751 0.09256 0.0
H2910 H 0.60622 0.04208 0.15983 0.0
C2911 C 0.6352 0.95745 0.1128 0.0
H2912 H 0.64249 0.0419 0.09601 0.0
C2913 C 0.61342 0.95752 0.14396 0.0
C2914 C 0.60262 0.98766 0.16451 0.0
H2915 H 0.64325 0.93333 0.1028 0.0
H2916 H 0.60551 0.93342 0.15508 0.0
C2917 C 0.6138 0.01813 0.1463 0.0
C2918 C 0.11361 0.78293 0.1113 0.0
C2919 C 0.10361 0.75239 0.08991 0.0
H2920 H 0.14266 0.80816 0.15416 0.0
C2921 C 0.11501 0.72223 0.10832 0.0
H2922 H 0.10529 0.80674 0.10023 0.0
C2923 C 0.13584 0.72303 0.14548 0.0
C2924 C 0.14643 0.75403 0.16311 0.0
H2925 H 0.10784 0.69809 0.09419 0.0
H2926 H 0.14399 0.69943 0.15881 0.0
C2927 C 0.1351 0.78378 0.14338 0.0
C2928 C 0.36957 0.70615 0.85843 0.0
C2929 C 0.35733 0.73591 0.84413 0.0
H2930 H 0.39906 0.68302 0.9027 0.0
C2931 C 0.36663 0.76663 0.86809 0.0
H2932 H 0.36306 0.682 0.84157 0.0
C2933 C 0.38716 0.7671 0.90656 0.0
C2934 C 0.39915 0.73691 0.92132 0.0
H2935 H 0.35762 0.79008 0.85908 0.0
H2936 H 0.39342 0.79095 0.92537 0.0
C2937 C 0.39034 0.70678 0.89403 0.0
C2938 C 0.88297 0.53252 0.85862 0.0
C2939 C 0.89437 0.50203 0.84351 0.0
H2940 H 0.85298 0.55716 0.89749 0.0
C2941 C 0.88365 0.47179 0.86464 0.0
H2942 H 0.89054 0.5564 0.84414 0.0
C2943 C 0.86249 0.47245 0.90024 0.0
C2944 C 0.85091 0.50327 0.91371 0.0
H2945 H 0.8919 0.44778 0.85529 0.0
H2946 H 0.8551 0.44884 0.91671 0.0
C2947 C 0.86128 0.533 0.88977 0.0
C2948 C 0.36556 0.53233 0.40186 0.0
C2949 C 0.35485 0.50234 0.42321 0.0
H2950 H 0.39342 0.55582 0.35007 0.0
C2951 C 0.36485 0.47158 0.40199 0.0
H2952 H 0.35855 0.55658 0.4162 0.0
C2953 C 0.38513 0.47113 0.3625 0.0
C2954 C 0.39585 0.50142 0.3418 0.0
H2955 H 0.35711 0.44783 0.41617 0.0
H2956 H 0.3925 0.44706 0.34876 0.0
C2957 C 0.38573 0.53187 0.36338 0.0
C2958 C 0.86441 0.76401 0.36185 0.0
C2959 C 0.85343 0.73348 0.3433 0.0
H2960 H 0.8923 0.78804 0.41508 0.0
C2961 C 0.86398 0.70327 0.36429 0.0
H2962 H 0.8569 0.78793 0.34771 0.0
C2963 C 0.88458 0.70333 0.40126 0.0
C2964 C 0.89501 0.73361 0.42272 0.0
H2965 H 0.85617 0.67922 0.35232 0.0
H2966 H 0.89182 0.67926 0.41593 0.0
C2967 C 0.88479 0.7641 0.40099 0.0
C2968 C 0.63464 0.22128 0.15022 0.0
C2969 C 0.64517 0.2517 0.17113 0.0
H2970 H 0.60603 0.19748 0.0998 0.0
C2971 C 0.63415 0.28196 0.15196 0.0
H2972 H 0.64259 0.19733 0.16218 0.0
C2973 C 0.61311 0.28204 0.117 0.0
C2974 C 0.60251 0.25192 0.09566 0.0
H2975 H 0.64163 0.30605 0.16531 0.0
H2976 H 0.60521 0.30614 0.1058 0.0
C2977 C 0.61366 0.22139 0.11349 0.0
C2978 C 0.11839 0.45681 0.14978 0.0
C2979 C 0.10651 0.48682 0.16467 0.0
H2980 H 0.148 0.43335 0.10698 0.0
C2981 C 0.1162 0.51747 0.14191 0.0
H2982 H 0.11159 0.43271 0.16593 0.0
C2983 C 0.13687 0.51769 0.1044 0.0
C2984 C 0.14866 0.48734 0.08972 0.0
H2985 H 0.10746 0.54108 0.1514 0.0
H2986 H 0.14348 0.54148 0.08645 0.0
C2987 C 0.13938 0.4572 0.11549 0.0
C2988 C 0.63645 0.45719 0.61897 0.0
C2989 C 0.64608 0.48756 0.59473 0.0
H2990 H 0.60773 0.43193 0.66383 0.0
C2991 C 0.63434 0.51767 0.61193 0.0
H2992 H 0.64489 0.43337 0.60883 0.0
C2993 C 0.61343 0.51691 0.64914 0.0
C2994 C 0.60299 0.48601 0.66855 0.0
H2995 H 0.64112 0.54178 0.59609 0.0
H2996 H 0.60493 0.54052 0.6602 0.0
C2997 C 0.61499 0.45632 0.6517 0.0
C2998 C 0.13464 0.22118 0.65079 0.0
C2999 C 0.14512 0.25136 0.67315 0.0
H3000 H 0.10703 0.19821 0.59467 0.0
C3001 C 0.13479 0.28192 0.65309 0.0
H3002 H 0.14215 0.19707 0.66352 0.0
C3003 C 0.11474 0.28261 0.61404 0.0
C3004 C 0.10438 0.25279 0.59048 0.0
H3005 H 0.14228 0.30579 0.6678 0.0
H3006 H 0.10761 0.30695 0.60076 0.0
C3007 C 0.1145 0.22187 0.61055 0.0
C3008 C 0.28507 0.2732 0.65406 0.0
C3009 C 0.28084 0.23524 0.64269 0.0
H3010 H 0.29404 0.32334 0.77645 0.0
C3011 C 0.2815 0.21375 0.7047 0.0
H3012 H 0.28277 0.28632 0.60742 0.0
C3013 C 0.28912 0.23821 0.81429 0.0
C3014 C 0.29479 0.27579 0.82308 0.0
H3015 H 0.27907 0.18731 0.69098 0.0
H3016 H 0.29071 0.22605 0.86276 0.0
C3017 C 0.29262 0.29672 0.76097 0.0
C3018 C 0.96491 0.96576 0.65596 0.0
C3019 C 0.9693 0.0035 0.64329 0.0
H3020 H 0.9548 0.91682 0.7796 0.0
C3021 C 0.96838 0.02557 0.70428 0.0
H3022 H 0.96718 0.95221 0.60989 0.0
C3023 C 0.96032 0.00239 0.81458 0.0
C3024 C 0.95449 0.96489 0.82482 0.0
H3025 H 0.9708 0.05184 0.68956 0.0
H3026 H 0.95861 0.01507 0.86249 0.0
C3027 C 0.95681 0.94325 0.76337 0.0
C3028 C 0.33758 0.01345 0.49976 0.0
C3029 C 0.325 0.98446 0.44956 0.0
H3030 H 0.34006 0.04364 0.60137 0.0
C3031 C 0.30232 0.96066 0.47523 0.0
H3032 H 0.35262 0.02607 0.48055 0.0
C3033 C 0.29163 0.97551 0.59597 0.0
C3034 C 0.30849 0.00699 0.62534 0.0
H3035 H 0.2957 0.9416 0.44103 0.0
H3036 H 0.27863 0.96532 0.62901 0.0
C3037 C 0.33012 0.02359 0.57903 0.0
C3038 C 0.96067 0.23802 0.44864 0.0
C3039 C 0.95406 0.27528 0.43922 0.0
H3040 H 0.97245 0.18842 0.57228 0.0
C3041 C 0.95602 0.29673 0.50109 0.0
H3042 H 0.95915 0.22549 0.40052 0.0
C3043 C 0.96485 0.27396 0.60796 0.0
C3044 C 0.97005 0.23638 0.61979 0.0
H3045 H 0.95322 0.32309 0.48553 0.0
H3046 H 0.96699 0.28733 0.65428 0.0
C3047 C 0.96947 0.21464 0.55826 0.0
C3048 C 0.7096 0.74846 0.19746 0.0
C3049 C 0.70484 0.71047 0.18797 0.0
H3050 H 0.71702 0.7993 0.32184 0.0
C3051 C 0.70671 0.68953 0.25039 0.0
H3052 H 0.70876 0.76078 0.14911 0.0
C3053 C 0.71224 0.71341 0.35766 0.0
C3054 C 0.71536 0.75142 0.37002 0.0
H3055 H 0.70705 0.66297 0.23483 0.0
H3056 H 0.71429 0.70025 0.40398 0.0
C3057 C 0.71519 0.77288 0.30791 0.0
C3058 C 0.03998 0.98531 0.19997 0.0
C3059 C 0.04576 0.02276 0.18942 0.0
H3060 H 0.02967 0.93611 0.32543 0.0
C3061 C 0.04348 0.04452 0.25028 0.0
H3062 H 0.04166 0.97252 0.15216 0.0
C3063 C 0.03557 0.02241 0.35819 0.0
C3064 C 0.03125 0.98462 0.37119 0.0
H3065 H 0.04552 0.07087 0.23354 0.0
H3066 H 0.03338 0.03606 0.40432 0.0
C3067 C 0.03207 0.96237 0.31043 0.0
C3068 C 0.70248 0.03512 0.53355 0.0
C3069 C 0.67869 0.01366 0.55885 0.0
H3070 H 0.72696 0.02643 0.38198 0.0
C3071 C 0.66512 0.98551 0.50881 0.0
H3072 H 0.70991 0.05351 0.56777 0.0
C3073 C 0.67253 0.97424 0.42998 0.0
C3074 C 0.69492 0.98889 0.38448 0.0
H3075 H 0.64947 0.97443 0.52767 0.0
H3076 H 0.662 0.95497 0.40732 0.0
C3077 C 0.71302 0.01854 0.41399 0.0
C3078 C 0.03426 0.71429 0.40548 0.0
C3079 C 0.0292 0.75181 0.39259 0.0
H3080 H 0.04567 0.66612 0.52973 0.0
C3081 C 0.02969 0.77402 0.45344 0.0
H3082 H 0.03224 0.70065 0.35925 0.0
C3083 C 0.03826 0.75143 0.56378 0.0
C3084 C 0.04482 0.71424 0.57435 0.0
H3085 H 0.02681 0.80017 0.43852 0.0
H3086 H 0.03978 0.76431 0.61155 0.0
C3087 C 0.04284 0.69234 0.51324 0.0
C3088 C 0.32919 0.71638 0.18558 0.0
C3089 C 0.30763 0.73252 0.13807 0.0
H3090 H 0.35147 0.715 0.28482 0.0
C3091 C 0.29044 0.7639 0.16625 0.0
H3092 H 0.33938 0.69645 0.16384 0.0
C3093 C 0.30063 0.77947 0.28695 0.0
C3094 C 0.32337 0.75623 0.31408 0.0
H3095 H 0.27747 0.77375 0.13262 0.0
H3096 H 0.29378 0.79865 0.32051 0.0
C3097 C 0.3363 0.72708 0.26501 0.0
C3098 C 0.95073 0.46174 0.28492 0.0
C3099 C 0.92846 0.48565 0.31174 0.0
H3100 H 0.97431 0.46704 0.1314 0.0
C3101 C 0.91615 0.51555 0.2632 0.0
H3102 H 0.95718 0.44225 0.31854 0.0
C3103 C 0.92353 0.52633 0.1842 0.0
C3104 C 0.94478 0.50949 0.13679 0.0
H3105 H 0.90117 0.52809 0.28301 0.0
H3106 H 0.91369 0.54669 0.16254 0.0
C3107 C 0.96144 0.47727 0.16479 0.0
C3108 C 0.29655 0.44443 0.99958 0.0
C3109 C 0.29862 0.46547 0.93698 0.0
H3110 H 0.28585 0.45471 0.1526 0.0
C3111 C 0.29209 0.50286 0.94576 0.0
H3112 H 0.29899 0.41789 0.98469 0.0
C3113 C 0.28339 0.52691 0.0552 0.0
C3114 C 0.28275 0.50549 0.11728 0.0
H3115 H 0.29364 0.51508 0.89735 0.0
H3116 H 0.28035 0.5532 0.06872 0.0
C3117 C 0.28785 0.46782 0.10601 0.0
C3118 C 0.95956 0.73746 0.94827 0.0
C3119 C 0.95341 0.77496 0.93993 0.0
H3120 H 0.97083 0.68667 0.07084 0.0
C3121 C 0.95564 0.79582 1.00231 0.0
H3122 H 0.95791 0.72535 0.8998 0.0
C3123 C 0.96408 0.77222 0.10849 0.0
C3124 C 0.96879 0.7344 0.11951 0.0
H3125 H 0.95389 0.82245 0.98727 0.0
H3126 H 0.96641 0.78531 0.15497 0.0
C3127 C 0.96802 0.71305 0.05742 0.0
C3128 C 0.70287 0.19581 0.75213 0.0
C3129 C 0.70101 0.2172 0.68941 0.0
H3130 H 0.71468 0.20572 0.90551 0.0
C3131 C 0.7083 0.25441 0.69864 0.0
H3132 H 0.69916 0.16956 0.73744 0.0
C3133 C 0.71781 0.27768 0.80827 0.0
C3134 C 0.71852 0.25625 0.87006 0.0
H3135 H 0.70674 0.2669 0.65047 0.0
H3136 H 0.72105 0.30386 0.8221 0.0
C3137 C 0.71257 0.21884 0.85869 0.0
C3138 C 0.03983 0.51456 0.8439 0.0
C3139 C 0.057 0.48294 0.87168 0.0
H3140 H 0.0433 0.55007 0.69039 0.0
C3141 C 0.07861 0.46707 0.82397 0.0
H3142 H 0.02691 0.52435 0.87752 0.0
C3143 C 0.08575 0.47832 0.74478 0.0
C3144 C 0.07284 0.50786 0.69641 0.0
H3145 H 0.08884 0.44706 0.84536 0.0
H3146 H 0.10095 0.46643 0.72483 0.0
C3147 C 0.05014 0.53076 0.72377 0.0
C3148 C 0.7026 0.54318 1.00276 0.0
C3149 C 0.70087 0.52214 0.06542 0.0
H3150 H 0.71333 0.53231 0.84966 0.0
C3151 C 0.70729 0.48468 0.05708 0.0
H3152 H 0.69971 0.56966 0.01733 0.0
C3153 C 0.7158 0.46051 0.94804 0.0
C3154 C 0.71651 0.4816 0.88581 0.0
H3155 H 0.70583 0.47249 0.10554 0.0
H3156 H 0.71855 0.43417 0.93468 0.0
C3157 C 0.71122 0.51938 0.89653 0.0
C3158 C 0.03208 0.27544 0.95661 0.0
C3159 C 0.0315 0.25413 0.89443 0.0
H3160 H 0.04176 0.2632 0.11461 0.0
C3161 C 0.03632 0.21637 0.9056 0.0
H3162 H 0.02928 0.3018 0.94316 0.0
C3163 C 0.04453 0.19272 0.0121 0.0
C3164 C 0.04667 0.21357 0.07477 0.0
H3165 H 0.03412 0.20332 0.859 0.0
H3166 H 0.04607 0.16608 0.02707 0.0
C3167 C 0.04032 0.25107 0.06611 0.0
C3168 C 0.82851 0.22394 0.18564 0.0
C3169 C 0.80612 0.23834 0.13914 0.0
H3170 H 0.85155 0.22491 0.28387 0.0
C3171 C 0.78824 0.26849 0.16744 0.0
H3172 H 0.83901 0.20439 0.16377 0.0
C3173 C 0.79884 0.28631 0.28653 0.0
C3174 C 0.82252 0.26492 0.31337 0.0
H3175 H 0.77428 0.27615 0.13512 0.0
H3176 H 0.79142 0.30509 0.31991 0.0
C3177 C 0.83598 0.23601 0.26439 0.0
C3178 C 0.45603 0.93961 0.26269 0.0
C3179 C 0.45452 0.96108 0.32431 0.0
H3180 H 0.46281 0.94942 0.10829 0.0
C3181 C 0.45907 -0.00097 0.31365 0.0
H3182 H 0.45585 0.91313 0.27896 0.0
C3183 C 0.46396 0.02262 0.20271 0.0
C3184 C 0.46393 0.00083 0.14142 0.0
H3185 H 0.45865 0.01184 0.36143 0.0
H3186 H 0.46539 0.04899 0.18787 0.0
C3187 C 0.46099 0.9628 0.15459 0.0
C3188 C 0.79035 0.00221 0.94729 0.0
C3189 C 0.79616 0.96454 0.93791 0.0
H3190 H 0.78095 0.05286 0.07147 0.0
C3191 C 0.79413 0.94344 1.00053 0.0
H3192 H 0.79173 0.01448 0.89888 0.0
C3193 C 0.78698 0.96718 0.10789 0.0
C3194 C 0.78259 0.00512 0.11949 0.0
H3195 H 0.79543 0.91681 0.98519 0.0
H3196 H 0.78483 0.95424 0.15493 0.0
C3197 C 0.78318 0.02643 0.05744 0.0
C3198 C 0.45658 0.29908 0.99173 0.0
C3199 C 0.4549 0.27718 0.9302 0.0
H3200 H 0.46313 0.29012 0.14714 0.0
C3201 C 0.45936 0.23941 0.94217 0.0
H3202 H 0.45597 0.3255 0.97464 0.0
C3203 C 0.46419 0.21636 0.05411 0.0
C3204 C 0.46421 0.23861 0.11526 0.0
H3205 H 0.45845 0.22653 0.89429 0.0
H3206 H 0.46544 0.19008 0.06939 0.0
C3207 C 0.46142 0.27652 0.1009 0.0
C3208 C 0.21211 0.72458 0.84446 0.0
C3209 C 0.19537 0.7569 0.87101 0.0
H3210 H 0.20793 0.68724 0.69275 0.0
C3211 C 0.17388 0.77279 0.82264 0.0
H3212 H 0.2249 0.71477 0.87855 0.0
C3213 C 0.16641 0.76076 0.74402 0.0
C3214 C 0.17888 0.73031 0.69686 0.0
H3215 H 0.16384 0.79317 0.84331 0.0
H3216 H 0.15133 0.77283 0.72362 0.0
C3217 C 0.20136 0.70712 0.72521 0.0
C3218 C 0.54149 0.98597 0.69212 0.0
C3219 C 0.54644 0.02373 0.68125 0.0
H3220 H 0.53492 0.93606 0.81811 0.0
C3221 C 0.54524 0.04522 0.74302 0.0
H3222 H 0.54211 0.97337 0.64392 0.0
C3223 C 0.54026 0.02213 0.85152 0.0
C3224 C 0.53692 0.98417 0.86485 0.0
H3225 H 0.54665 0.07169 0.72655 0.0
H3226 H 0.53901 0.03554 0.89794 0.0
C3227 C 0.53656 0.96239 0.80337 0.0
C3228 C 0.21221 0.01183 0.91883 0.0
C3229 C 0.19597 0.97941 0.8901 0.0
H3230 H 0.20757 0.04611 0.07334 0.0
C3231 C 0.17487 0.96185 0.93739 0.0
H3232 H 0.22472 0.0228 0.88531 0.0
C3233 C 0.16734 0.97203 0.01672 0.0
C3234 C 0.17933 0.00191 0.06609 0.0
H3235 H 0.16514 0.94149 0.91543 0.0
H3236 H 0.15241 0.95917 0.03607 0.0
C3237 C 0.20139 0.0265 0.03958 0.0
C3238 C 0.54065 0.71996 0.92446 0.0
C3239 C 0.5583 0.74976 0.89377 0.0
H3240 H 0.5444 0.68633 0.07961 0.0
C3241 C 0.58066 0.76522 0.93849 0.0
H3242 H 0.5267 0.71166 0.89293 0.0
C3243 C 0.58835 0.75491 0.01761 0.0
C3244 C 0.57525 0.72699 0.06916 0.0
H3245 H 0.59092 0.78459 0.91515 0.0
H3246 H 0.60384 0.76675 0.03593 0.0
C3247 C 0.55159 0.70458 0.04476 0.0
C3248 C 0.78645 0.71481 0.71131 0.0
C3249 C 0.78652 0.73669 0.64979 0.0
H3250 H 0.79262 0.72571 0.87102 0.0
C3251 C 0.7895 0.77454 0.66333 0.0
H3252 H 0.78487 0.68848 0.69643 0.0
C3253 C 0.79474 0.79773 0.77174 0.0
C3254 C 0.79658 0.77621 0.83397 0.0
H3255 H 0.78769 0.78788 0.61689 0.0
H3256 H 0.7953 0.82427 0.78803 0.0
C3257 C 0.79169 0.73835 0.82289 0.0
C3258 C 0.45328 0.4432 0.75777 0.0
C3259 C 0.45126 0.46409 0.82092 0.0
H3260 H 0.46403 0.45434 0.60446 0.0
C3261 C 0.45784 0.50159 0.81241 0.0
H3262 H 0.45157 0.41653 0.77225 0.0
C3263 C 0.46628 0.52594 0.70302 0.0
C3264 C 0.46705 0.50486 0.64068 0.0
H3265 H 0.4564 0.51371 0.86092 0.0
H3266 H 0.46901 0.55232 0.68967 0.0
C3267 C 0.46178 0.46716 0.65146 0.0
C3268 C 0.80019 0.4583 0.47591 0.0
C3269 C 0.82351 0.48165 0.45284 0.0
H3270 H 0.77477 0.46387 0.62689 0.0
C3271 C 0.83599 0.50984 0.50466 0.0
H3272 H 0.7934 0.44 0.44047 0.0
C3273 C 0.82791 0.51967 0.58326 0.0
C3274 C 0.8058 0.50322 0.62712 0.0
H3275 H 0.85119 0.52253 0.48659 0.0
H3276 H 0.83751 0.53975 0.6063 0.0
C3277 C 0.78863 0.4729 0.59573 0.0
C3278 C 0.46358 0.77044 0.61924 0.0
C3279 C 0.46899 0.73275 0.62997 0.0
H3280 H 0.45204 0.82056 0.4983 0.0
C3281 C 0.46834 0.71156 0.56788 0.0
H3282 H 0.46592 0.78339 0.66615 0.0
C3283 C 0.45956 0.73561 0.4588 0.0
C3284 C 0.45296 0.77298 0.45039 0.0
H3285 H 0.47126 0.68521 0.58143 0.0
H3286 H 0.45813 0.72339 0.41037 0.0
C3287 C 0.4547 0.79405 0.513 0.0
C3288 C 0.20649 0.19071 0.24764 0.0
C3289 C 0.20436 0.21212 0.18532 0.0
H3290 H 0.21678 0.20052 0.40139 0.0
C3291 C 0.21065 0.24958 0.19521 0.0
H3292 H 0.20406 0.16426 0.23215 0.0
C3293 C 0.21879 0.27308 0.30538 0.0
C3294 C 0.21938 0.25138 0.36688 0.0
H3295 H 0.20907 0.26211 0.14711 0.0
H3296 H 0.22144 0.29936 0.31968 0.0
C3297 C 0.2147 0.21376 0.35482 0.0
C3298 C 0.57904 0.47617 0.32589 0.0
C3299 C 0.55664 0.49035 0.37244 0.0
H3300 H 0.6017 0.47688 0.22711 0.0
C3301 C 0.53825 0.51973 0.34347 0.0
H3302 H 0.58984 0.45706 0.34813 0.0
C3303 C 0.54813 0.53662 0.22337 0.0
C3304 C 0.57201 0.5157 0.1968 0.0
H3305 H 0.52431 0.52727 0.37585 0.0
H3306 H 0.54032 0.55485 0.18948 0.0
C3307 C 0.58603 0.48766 0.2465 0.0
C3308 C 0.21519 0.52323 0.40351 0.0
C3309 C 0.22036 0.48574 0.39076 0.0
H3310 H 0.20344 0.57131 0.52736 0.0
C3311 C 0.21987 0.4635 0.45159 0.0
H3312 H 0.2174 0.53691 0.3574 0.0
C3313 C 0.21103 0.486 0.56171 0.0
C3314 C 0.20439 0.52314 0.57208 0.0
H3315 H 0.2229 0.43738 0.43673 0.0
H3316 H 0.20956 0.4731 0.60948 0.0
C3317 C 0.20633 0.5451 0.51099 0.0
C3318 C 0.53971 0.21373 0.40974 0.0
C3319 C 0.53667 0.25174 0.39804 0.0
H3320 H 0.54421 0.16212 0.53112 0.0
C3321 C 0.53654 0.27267 0.46091 0.0
H3322 H 0.53819 0.20103 0.36283 0.0
C3323 C 0.54153 0.24739 0.57129 0.0
C3324 C 0.54636 0.20927 0.58021 0.0
H3325 H 0.53464 0.29914 0.44778 0.0
H3326 H 0.54213 0.25931 0.62007 0.0
C3327 C 0.54462 0.18885 0.51667 0.0
C3328 C 0.28289 0.38102 0.40549 0.0
C3329 C 0.30326 0.39338 0.4344 0.0
H3330 H 0.26694 0.34915 0.33294 0.0
C3331 C 0.32414 0.37992 0.40986 0.0
H3332 H 0.26646 0.38976 0.42345 0.0
C3333 C 0.32442 0.35581 0.35763 0.0
C3334 C 0.30389 0.34432 0.32759 0.0
H3335 H 0.34035 0.38853 0.42986 0.0
H3336 H 0.34079 0.34612 0.34099 0.0
C3337 C 0.28319 0.35732 0.35338 0.0
C3338 C 0.96488 0.85569 0.40948 0.0
C3339 C 0.9441 0.84359 0.43651 0.0
H3340 H 0.98187 0.88705 0.33817 0.0
C3341 C 0.9236 0.85624 0.40803 0.0
H3342 H 0.98111 0.84715 0.42952 0.0
C3343 C 0.92406 0.8796 0.35444 0.0
C3344 C 0.94501 0.89128 0.32714 0.0
H3345 H 0.90714 0.84765 0.42628 0.0
H3346 H 0.90794 0.88875 0.33489 0.0
C3347 C 0.96532 0.87881 0.3564 0.0
C3348 C 0.28746 0.88048 0.90999 0.0
C3349 C 0.3083 0.89351 0.93449 0.0
H3350 H 0.27028 0.84688 0.84381 0.0
C3351 C 0.32883 0.88105 0.90617 0.0
H3352 H 0.27125 0.88963 0.92912 0.0
C3353 C 0.32823 0.85653 0.85477 0.0
C3354 C 0.30711 0.84358 0.83092 0.0
H3355 H 0.34525 0.89089 0.92228 0.0
H3356 H 0.34427 0.84726 0.83487 0.0
C3357 C 0.28688 0.85616 0.85981 0.0
C3358 C 0.92397 0.3803 0.85918 0.0
C3359 C 0.9447 0.39232 0.83145 0.0
H3360 H 0.90781 0.3482 0.93207 0.0
C3361 C 0.96531 0.37986 0.85892 0.0
H3362 H 0.9077 0.38978 0.84114 0.0
C3363 C 0.96541 0.35663 0.91145 0.0
C3364 C 0.9449 0.34455 0.93976 0.0
H3365 H 0.98169 0.38884 0.84064 0.0
H3366 H 0.98183 0.34827 0.93049 0.0
C3367 C 0.92407 0.35684 0.91252 0.0
C3368 C 0.71594 0.63255 0.65306 0.0
C3369 C 0.69592 0.64428 0.68451 0.0
H3370 H 0.73099 0.60101 0.57885 0.0
C3371 C 0.67467 0.63289 0.65851 0.0
H3372 H 0.73266 0.64071 0.67022 0.0
C3373 C 0.67366 0.60961 0.60508 0.0
C3374 C 0.69387 0.59757 0.57455 0.0
H3375 H 0.65874 0.64157 0.68006 0.0
H3376 H 0.65707 0.60046 0.58888 0.0
C3377 C 0.71494 0.6098 0.59967 0.0
C3378 C 0.07439 0.1077 0.65406 0.0
C3379 C 0.05379 0.09688 0.68449 0.0
H3380 H 0.09051 0.13951 0.58065 0.0
C3381 C 0.03316 0.1097 0.65779 0.0
H3382 H 0.0907 0.09795 0.67122 0.0
C3383 C 0.03301 0.13282 0.60477 0.0
C3384 C 0.05344 0.1448 0.57583 0.0
H3385 H 0.01685 0.10178 0.6781 0.0
H3386 H 0.01662 0.14146 0.58617 0.0
C3387 C 0.07425 0.13132 0.60095 0.0
C3388 C 0.67695 0.10532 0.10409 0.0
C3389 C 0.69757 0.09543 0.07257 0.0
H3390 H 0.66074 0.13625 0.17849 0.0
C3391 C 0.7181 0.10962 0.0968 0.0
H3392 H 0.66072 0.09507 0.08759 0.0
C3393 C 0.71814 0.13287 0.14938 0.0
C3394 C 0.69767 0.14299 0.18103 0.0
H3395 H 0.73436 0.1029 0.07455 0.0
H3396 H 0.73445 0.14349 0.16471 0.0
C3397 C 0.67699 0.12861 0.15749 0.0
C3398 C 0.07714 0.63205 0.09789 0.0
C3399 C 0.05611 0.64417 0.07168 0.0
H3400 H 0.09408 0.59936 0.16859 0.0
C3401 C 0.03581 0.63208 0.10119 0.0
H3402 H 0.09324 0.64075 0.07743 0.0
C3403 C 0.03632 0.60874 0.1535 0.0
C3404 C 0.05715 0.59623 0.17962 0.0
H3405 H 0.01925 0.64048 0.08325 0.0
H3406 H 0.02007 0.5997 0.17263 0.0
C3407 C 0.07766 0.60864 0.15128 0.0
C3408 C 0.7821 0.38158 0.90862 0.0
C3409 C 0.8027 0.3931 0.93759 0.0
H3410 H 0.76553 0.35126 0.83484 0.0
C3411 C 0.82334 0.38008 0.91071 0.0
H3412 H 0.76582 0.39053 0.92723 0.0
C3413 C 0.8231 0.3565 0.85748 0.0
C3414 C 0.80222 0.34494 0.82921 0.0
H3415 H 0.83972 0.38842 0.93013 0.0
H3416 H 0.83932 0.34703 0.83916 0.0
C3417 C 0.78189 0.35851 0.85561 0.0
C3418 C 0.46559 0.88068 0.85809 0.0
C3419 C 0.44525 0.89302 0.8289 0.0
H3420 H 0.48149 0.84882 0.93045 0.0
C3421 C 0.42431 0.88196 0.85748 0.0
H3422 H 0.48213 0.8885 0.83911 0.0
C3423 C 0.42391 0.85906 0.91194 0.0
C3424 C 0.44445 0.84624 0.9399 0.0
H3425 H 0.40814 0.89087 0.83766 0.0
H3426 H 0.40748 0.85065 0.93072 0.0
C3427 C 0.4652 0.85789 0.91165 0.0
C3428 C 0.78428 0.85551 0.36172 0.0
C3429 C 0.80421 0.8431 0.33087 0.0
H3430 H 0.76948 0.88828 0.43425 0.0
C3431 C 0.82557 0.8547 0.35602 0.0
H3432 H 0.76751 0.84735 0.34497 0.0
C3433 C 0.82677 0.87804 0.40928 0.0
C3434 C 0.80665 0.89099 0.4388 0.0
H3435 H 0.84145 0.84572 0.33469 0.0
H3436 H 0.84345 0.88677 0.42567 0.0
C3437 C 0.78547 0.87894 0.41396 0.0
C3438 C 0.46764 0.35558 0.40808 0.0
C3439 C 0.44706 0.34366 0.43647 0.0
H3440 H 0.48397 0.38794 0.33724 0.0
C3441 C 0.42631 0.35536 0.40793 0.0
H3442 H 0.48404 0.34713 0.42713 0.0
C3443 C 0.42627 0.37864 0.35439 0.0
C3444 C 0.44701 0.39116 0.32748 0.0
H3445 H 0.41001 0.34673 0.42721 0.0
H3446 H 0.40997 0.38787 0.33614 0.0
C3447 C 0.4676 0.37888 0.35542 0.0
C3448 C 0.17412 0.6073 0.09551 0.0
C3449 C 0.19516 0.59541 0.06906 0.0
H3450 H 0.15711 0.6395 0.16675 0.0
C3451 C 0.21543 0.60804 0.09801 0.0
H3452 H 0.15802 0.59828 0.07546 0.0
C3453 C 0.21491 0.63145 0.15029 0.0
C3454 C 0.19406 0.64345 0.17711 0.0
H3455 H 0.23201 0.59985 0.07992 0.0
H3456 H 0.23115 0.64061 0.16929 0.0
C3457 C 0.17358 0.6307 0.14891 0.0
C3458 C 0.52971 0.10831 0.15899 0.0
C3459 C 0.55055 0.09557 0.18454 0.0
H3460 H 0.51275 0.14063 0.08904 0.0
C3461 C 0.57098 0.10655 0.15372 0.0
H3462 H 0.51352 0.10032 0.18008 0.0
C3463 C 0.57052 0.12983 0.10048 0.0
C3464 C 0.54959 0.14292 0.07567 0.0
H3465 H 0.58742 0.09715 0.17066 0.0
H3466 H 0.58669 0.13804 0.07981 0.0
C3467 C 0.52924 0.13148 0.10606 0.0
C3468 C 0.17594 0.10926 0.60799 0.0
C3469 C 0.19631 0.09614 0.58048 0.0
H3470 H 0.16069 0.14261 0.67948 0.0
C3471 C 0.21731 0.10753 0.60744 0.0
H3472 H 0.1594 0.10078 0.59 0.0
C3473 C 0.21805 0.13083 0.65966 0.0
C3474 C 0.19785 0.14405 0.68738 0.0
H3475 H 0.23346 0.09784 0.5889 0.0
H3476 H 0.23463 0.13836 0.67884 0.0
C3477 C 0.17671 0.13285 0.66059 0.0
C3478 C 0.57091 0.60656 0.6587 0.0
C3479 C 0.54987 0.5944 0.68454 0.0
H3480 H 0.58795 0.63997 0.59005 0.0
C3481 C 0.52964 0.60767 0.6569 0.0
H3482 H 0.58703 0.59706 0.67762 0.0
C3483 C 0.53017 0.63118 0.60476 0.0
C3484 C 0.55095 0.64383 0.57946 0.0
H3485 H 0.51318 0.60001 0.67625 0.0
H3486 H 0.51406 0.63967 0.58409 0.0
C3487 C 0.57145 0.63093 0.60726 0.0
C3488 C 0.31439 0.14902 0.07223 0.0
C3489 C 0.29942 0.15566 0.12479 0.0
H3490 H 0.3299 0.11077 0.01279 0.0
C3491 C 0.28603 0.12969 0.1516 0.0
H3492 H 0.32438 0.16887 0.04932 0.0
C3493 C 0.28979 0.09678 0.13225 0.0
C3494 C 0.30615 0.09006 0.08403 0.0
H3495 H 0.27331 0.13442 0.18906 0.0
H3496 H 0.28003 0.07663 0.15489 0.0
C3497 C 0.31775 0.11608 0.05185 0.0
C3498 C 0.97336 0.1358 0.13032 0.0
C3499 C 0.95204 0.15214 0.12622 0.0
H3500 H 0.99038 0.08857 0.14561 0.0
C3501 C 0.93179 0.13343 0.12799 0.0
H3502 H 0.98928 0.15 0.1289 0.0
C3503 C 0.93274 0.0989 0.1222 0.0
C3504 C 0.95354 0.08234 0.13235 0.0
H3505 H 0.91512 0.14502 0.13056 0.0
H3506 H 0.91686 0.08538 0.11492 0.0
C3507 C 0.97404 0.1009 0.13683 0.0
C3508 C 0.7234 0.88614 0.89036 0.0
C3509 C 0.70211 0.90245 0.89697 0.0
H3510 H 0.74029 0.83978 0.86474 0.0
C3511 C 0.6818 0.88411 0.89099 0.0
H3512 H 0.73938 0.89994 0.89573 0.0
C3513 C 0.68258 0.84955 0.88672 0.0
C3514 C 0.70336 0.83349 0.87346 0.0
H3515 H 0.66514 0.8957 0.89174 0.0
H3516 H 0.66661 0.83602 0.89088 0.0
C3517 C 0.72396 0.85188 0.87476 0.0
C3518 C 0.02781 0.88876 0.8792 0.0
C3519 C 0.04894 0.9059 0.87715 0.0
H3520 H 0.01122 0.84106 0.89292 0.0
C3521 C 0.06944 0.88784 0.8805 0.0
H3522 H 0.01165 0.90208 0.87461 0.0
C3523 C 0.06897 0.85318 0.87684 0.0
C3524 C 0.04825 0.83614 0.88586 0.0
H3525 H 0.08596 0.89993 0.88271 0.0
H3526 H 0.08505 0.84012 0.87062 0.0
C3527 C 0.0275 0.85398 0.88675 0.0
C3528 C 0.28656 0.6394 0.64011 0.0
C3529 C 0.30552 0.64756 0.67913 0.0
H3530 H 0.26848 0.60039 0.58978 0.0
C3531 C 0.31886 0.62214 0.7076 0.0
H3532 H 0.27459 0.65857 0.62433 0.0
C3533 C 0.3148 0.58871 0.69097 0.0
C3534 C 0.29759 0.58079 0.64498 0.0
H3535 H 0.33272 0.62824 0.74125 0.0
H3536 H 0.32617 0.5695 0.71057 0.0
C3537 C 0.28264 0.60607 0.62257 0.0
C3538 C 0.96579 0.62941 0.61266 0.0
C3539 C 0.95172 0.65467 0.63924 0.0
H3540 H 0.97337 0.5768 0.61028 0.0
C3541 C 0.93708 0.64712 0.69207 0.0
H3542 H 0.97876 0.63496 0.57632 0.0
C3543 C 0.93361 0.61377 0.7099 0.0
C3544 C 0.94547 0.58831 0.67664 0.0
H3545 H 0.92716 0.66657 0.71651 0.0
H3546 H 0.92137 0.60777 0.74834 0.0
C3547 C 0.96251 0.59618 0.63106 0.0
C3548 C 0.71872 0.38632 0.38478 0.0
C3549 C 0.69734 0.40266 0.3886 0.0
H3550 H 0.73635 0.33935 0.37566 0.0
C3551 C 0.67727 0.38333 0.39252 0.0
H3552 H 0.73461 0.40048 0.38363 0.0
C3553 C 0.67869 0.34854 0.39882 0.0
C3554 C 0.69969 0.33225 0.38889 0.0
H3555 H 0.66045 0.39456 0.39263 0.0
H3556 H 0.66306 0.33446 0.40662 0.0
C3557 C 0.71984 0.35137 0.38327 0.0
C3558 C 0.03405 0.35954 0.3979 0.0
C3559 C 0.04799 0.33374 0.37278 0.0
H3560 H 0.02711 0.41246 0.39857 0.0
C3561 C 0.06394 0.3409 0.32281 0.0
H3562 H 0.02071 0.35445 0.43348 0.0
C3563 C 0.06784 0.37406 0.30425 0.0
C3564 C 0.05558 0.39994 0.33484 0.0
H3565 H 0.07444 0.32126 0.30109 0.0
H3566 H 0.08077 0.37959 0.26746 0.0
C3567 C 0.03796 0.39267 0.37915 0.0
C3568 C 0.77921 0.09962 0.63882 0.0
C3569 C 0.80077 0.0838 0.63382 0.0
H3570 H 0.76158 0.14624 0.65658 0.0
C3571 C 0.82072 0.10316 0.63496 0.0
H3572 H 0.7634 0.08526 0.63604 0.0
C3573 C 0.81917 0.13775 0.6308 0.0
C3574 C 0.79822 0.15357 0.6431 0.0
H3575 H 0.83755 0.092 0.63502 0.0
H3576 H 0.83469 0.15186 0.62214 0.0
C3577 C 0.77805 0.13439 0.64736 0.0
C3578 C 0.47553 0.13531 0.6236 0.0
C3579 C 0.45494 0.15371 0.62251 0.0
H3580 H 0.49104 0.08756 0.64625 0.0
C3581 C 0.43426 0.13783 0.63772 0.0
H3582 H 0.49178 0.14729 0.61222 0.0
C3583 C 0.43345 0.10334 0.64347 0.0
C3584 C 0.45376 0.08491 0.64919 0.0
H3585 H 0.41831 0.15152 0.64149 0.0
H3586 H 0.41675 0.09193 0.64482 0.0
C3587 C 0.47502 0.10121 0.64093 0.0
C3588 C 0.17661 0.88743 0.38309 0.0
C3589 C 0.19747 0.90395 0.39292 0.0
H3590 H 0.15976 0.84053 0.37866 0.0
C3591 C 0.21824 0.88616 0.38971 0.0
H3592 H 0.16045 0.90067 0.38192 0.0
C3593 C 0.2179 0.8519 0.37544 0.0
C3594 C 0.19675 0.83524 0.37016 0.0
H3595 H 0.23455 0.89878 0.39749 0.0
H3596 H 0.23395 0.83841 0.36908 0.0
C3597 C 0.17622 0.85285 0.37842 0.0
C3598 C 0.52654 0.85316 0.39344 0.0
C3599 C 0.54732 0.83534 0.39676 0.0
H3600 H 0.51054 0.89988 0.36628 0.0
C3601 C 0.56789 0.85141 0.38103 0.0
H3602 H 0.51036 0.841 0.40504 0.0
C3603 C 0.56831 0.88573 0.37183 0.0
C3604 C 0.54778 0.90347 0.36438 0.0
H3605 H 0.58397 0.83809 0.3785 0.0
H3606 H 0.58488 0.89751 0.36896 0.0
C3607 C 0.5267 0.88684 0.37338 0.0
C3608 C 0.77456 0.63747 0.13587 0.0
C3609 C 0.79478 0.65668 0.13347 0.0
H3610 H 0.75943 0.58919 0.11581 0.0
C3611 C 0.8152 0.64199 0.1122 0.0
H3612 H 0.75847 0.64859 0.15158 0.0
C3613 C 0.81649 0.60767 0.10432 0.0
C3614 C 0.79651 0.58824 0.10396 0.0
H3615 H 0.83078 0.65643 0.10608 0.0
H3616 H 0.83331 0.59733 0.09804 0.0
C3617 C 0.77524 0.60354 0.11746 0.0
C3618 C 0.43006 0.59914 0.1185 0.0
C3619 C 0.45078 0.58162 0.12412 0.0
H3620 H 0.41298 0.64568 0.13359 0.0
C3621 C 0.47143 0.59975 0.12913 0.0
H3622 H 0.41403 0.58609 0.1107 0.0
C3623 C 0.47105 0.63481 0.13091 0.0
C3624 C 0.44999 0.65207 0.13116 0.0
H3625 H 0.48776 0.58684 0.1338 0.0
H3626 H 0.48721 0.6484 0.1314 0.0
C3627 C 0.42951 0.63365 0.12947 0.0
C3628 C 0.18287 0.35043 0.88847 0.0
C3629 C 0.20323 0.33237 0.88227 0.0
H3630 H 0.16708 0.39772 0.87523 0.0
C3631 C 0.22441 0.34926 0.88325 0.0
H3632 H 0.16649 0.33822 0.89362 0.0
C3633 C 0.22478 0.38418 0.88945 0.0
C3634 C 0.204 0.40215 0.8877 0.0
H3635 H 0.24045 0.33553 0.87859 0.0
H3636 H 0.2411 0.39707 0.89481 0.0
C3637 C 0.18324 0.38491 0.88167 0.0
C3638 C 0.52526 0.35095 0.88601 0.0
C3639 C 0.54599 0.33278 0.88687 0.0
H3640 H 0.50953 0.39901 0.86671 0.0
C3641 C 0.56663 0.34951 0.87523 0.0
H3642 H 0.509 0.3385 0.89519 0.0
C3643 C 0.56714 0.38421 0.87363 0.0
C3644 C 0.54676 0.40237 0.86724 0.0
H3645 H 0.58269 0.33625 0.87104 0.0
H3646 H 0.58364 0.3962 0.87494 0.0
C3647 C 0.5256 0.3855 0.87227 0.0
loop_
_geom_bond_atom_site_label_1
_geom_bond_atom_site_label_2
_geom_bond_distance
_geom_bond_site_symmetry_2
_ccdc_geom_bond_type
Gd0 N31 2.661 . S
Gd0 N37 2.601 . S
Gd0 O44 2.545 . S
Gd0 O45 2.606 . S
Gd0 O47 2.429 . S
Gd0 O48 2.545 . S
Gd0 O49 2.412 . S
Gd0 O51 2.362 . S
Gd0 O52 2.324 . S
Gd0 C59 2.828 . S
Gd1 N10 2.661 . S
Gd1 N14 2.601 . S
Gd1 O45 2.362 . S
Gd1 O46 2.324 . S
Gd1 O50 2.545 . S
Gd1 O51 2.606 . S
Gd1 O53 2.429 . S
Gd1 O54 2.545 . S
Gd1 O55 2.412 . S
Gd1 C68 2.828 . S
C2 C5 1.417 . S
C2 C7 1.431 . S
C2 C8 1.412 . S
C3 C6 1.437 . S
C3 C7 1.317 . S
C3 H22 0.929 . S
C4 C5 1.426 . S
C4 C6 1.413 . S
C4 N14 1.359 . S
C5 C2 1.417 . S
C5 C4 1.426 . S
C5 N10 1.350 . S
C6 C3 1.437 . S
C6 C4 1.413 . S
C6 C16 1.391 . S
C7 C2 1.431 . S
C7 C3 1.317 . S
C7 H18 0.930 . S
C8 C2 1.412 . S
C8 C9 1.355 . S
C8 H20 0.930 . S
C9 C8 1.355 . S
C9 C11 1.402 . S
C9 H21 0.930 . S
N10 Gd1 2.661 . S
N10 C5 1.350 . S
N10 C11 1.307 . S
C11 C9 1.402 . S
C11 N10 1.307 . S
C11 H12 0.930 . S
H12 C11 0.930 . S
C13 N14 1.334 . S
C13 C15 1.394 . S
C13 H17 0.930 . S
N14 Gd1 2.601 . S
N14 C4 1.359 . S
N14 C13 1.334 . S
C15 C13 1.394 . S
C15 C16 1.359 . S
C15 H27 0.930 . S
C16 C6 1.391 . S
C16 C15 1.359 . S
C16 H28 0.929 . S
H17 C13 0.930 . S
H18 C7 0.930 . S
H19 C36 0.930 . S
H20 C8 0.930 . S
H21 C9 0.930 . S
H22 C3 0.929 . S
H23 C41 0.930 . S
H24 C32 0.930 . S
H25 C33 0.930 . S
H26 C57 0.929 . S
H27 C15 0.930 . S
H28 C16 0.929 . S
H29 C58 0.930 . S
H30 C39 0.930 . S
N31 Gd0 2.661 . S
N31 C35 1.350 . S
N31 C36 1.307 . S
C32 H24 0.930 . S
C32 C33 1.355 . S
C32 C34 1.412 . S
C33 H25 0.930 . S
C33 C32 1.355 . S
C33 C36 1.402 . S
C34 C32 1.412 . S
C34 C35 1.417 . S
C34 C58 1.431 . S
C35 N31 1.350 . S
C35 C34 1.417 . S
C35 C38 1.426 . S
C36 H19 0.930 . S
C36 N31 1.307 . S
C36 C33 1.402 . S
N37 Gd0 2.601 . S
N37 C38 1.359 . S
N37 C41 1.334 . S
C38 C35 1.426 . S
C38 N37 1.359 . S
C38 C42 1.413 . S
C39 H30 0.930 . S
C39 C40 1.359 . S
C39 C41 1.394 . S
C40 C39 1.359 . S
C40 C42 1.391 . S
C40 H43 0.929 . S
C41 H23 0.930 . S
C41 N37 1.334 . S
C41 C39 1.394 . S
C42 C38 1.413 . S
C42 C40 1.391 . S
C42 C57 1.437 . S
H43 C40 0.929 . S
O44 Gd0 2.545 . S
O44 C59 1.258 . S
O45 Gd0 2.606 . S
O45 Gd1 2.362 . S
O45 C56 1.284 . S
O46 Gd1 2.324 . S
O46 C66 1.254 . S
O47 Gd0 2.429 . S
O47 C66 1.268 . S
O48 Gd0 2.545 . S
O48 C56 1.250 . S
O49 Gd0 2.412 . S
O49 C59 1.252 . S
O50 Gd1 2.545 . S
O50 C68 1.258 . S
O51 Gd0 2.362 . S
O51 Gd1 2.606 . S
O51 C67 1.284 . S
O52 Gd0 2.324 . S
O52 C75 1.254 . S
O53 Gd1 2.429 . S
O53 C75 1.268 . S
O54 Gd1 2.545 . S
O54 C67 1.250 . S
O55 Gd1 2.412 . S
O55 C68 1.252 . S
C56 O45 1.284 . S
C56 O48 1.250 . S
C57 H26 0.929 . S
C57 C42 1.437 . S
C57 C58 1.317 . S
C58 H29 0.930 . S
C58 C34 1.431 . S
C58 C57 1.317 . S
C59 Gd0 2.828 . S
C59 O44 1.258 . S
C59 O49 1.252 . S
C59 C60 1.497 . S
C60 C59 1.497 . S
C60 C61 1.395 . S
C60 C62 1.380 . S
C61 C60 1.395 . S
C61 C64 1.398 . S
C61 H76 0.930 . S
C62 C60 1.380 . S
C62 C63 1.391 . S
C62 H77 0.930 . S
C63 C62 1.391 . S
C63 C65 1.387 . S
C64 C61 1.398 . S
C64 C65 1.380 . S
C64 H78 0.930 . S
C65 C63 1.387 . S
C65 C64 1.380 . S
C65 H79 0.930 . S
C66 O46 1.254 . S
C66 O47 1.268 . S
C67 O51 1.284 . S
C67 O54 1.250 . S
C68 Gd1 2.828 . S
C68 O50 1.258 . S
C68 O55 1.252 . S
C68 C69 1.497 1_554 S
C69 C68 1.497 1_556 S
C69 C70 1.395 . S
C69 C71 1.380 . S
C70 C69 1.395 . S
C70 C73 1.398 . S
C70 H80 0.930 . S
C71 C69 1.380 . S
C71 C72 1.391 . S
C71 H81 0.930 . S
C72 C71 1.391 . S
C72 C74 1.387 . S
C73 C70 1.398 . S
C73 C74 1.380 . S
C73 H82 0.930 . S
C74 C72 1.387 . S
C74 C73 1.380 . S
C74 H83 0.930 . S
C75 O52 1.254 . S
C75 O53 1.268 . S
H76 C61 0.930 . S
H77 C62 0.930 . S
H78 C64 0.930 . S
H79 C65 0.930 . S
H80 C70 0.930 . S
H81 C71 0.930 . S
H82 C73 0.930 . S
H83 C74 0.930 . S
Gd84 N115 2.661 1_645 S
Gd84 N121 2.574 1_655 S
Gd84 O128 2.545 . S
Gd84 O129 2.606 1_545 S
Gd84 O131 2.429 . S
Gd84 O132 2.545 . S
Gd84 O133 2.420 . S
Gd84 O135 2.357 1_545 S
Gd84 O136 2.324 1_545 S
Gd84 C143 2.828 . S
Gd85 N94 2.661 1_565 S
Gd85 N98 2.601 . S
Gd85 O129 2.362 . S
Gd85 O130 2.324 1_565 S
Gd85 O134 2.545 . S
Gd85 O135 2.612 . S
Gd85 O137 2.429 . S
Gd85 O138 2.545 . S
Gd85 O139 2.412 . S
Gd85 C152 2.828 . S
C86 C89 1.417 . S
C86 C91 1.431 . S
C86 C92 1.412 1_565 S
C87 C90 1.437 . S
C87 C91 1.317 . S
C87 H106 0.929 . S
C88 C89 1.426 . S
C88 C90 1.413 . S
C88 N98 1.359 . S
C89 C86 1.417 . S
C89 C88 1.426 . S
C89 N94 1.350 1_565 S
C90 C87 1.437 . S
C90 C88 1.413 . S
C90 C100 1.391 . S
C91 C86 1.431 . S
C91 C87 1.317 . S
C91 H102 0.930 . S
C92 C86 1.412 1_545 S
C92 C93 1.355 . S
C92 H104 0.930 . S
C93 C92 1.355 . S
C93 C95 1.402 . S
C93 H105 0.930 . S
N94 Gd85 2.661 1_545 S
N94 C89 1.350 1_545 S
N94 C95 1.307 . S
C95 C93 1.402 . S
C95 N94 1.307 . S
C95 H96 0.930 . S
H96 C95 0.930 . S
C97 N98 1.334 . S
C97 C99 1.394 . S
C97 H101 0.930 . S
N98 Gd85 2.601 . S
N98 C88 1.359 . S
N98 C97 1.334 . S
C99 C97 1.394 . S
C99 C100 1.359 . S
C99 H111 0.930 . S
C100 C90 1.391 . S
C100 C99 1.359 . S
C100 H112 0.929 . S
H101 C97 0.930 . S
H102 C91 0.930 . S
H103 C120 0.930 . S
H104 C92 0.930 . S
H105 C93 0.930 . S
H106 C87 0.929 . S
H107 C125 0.930 . S
H108 C116 0.930 . S
H109 C117 0.930 . S
H110 C141 0.929 . S
H111 C99 0.930 . S
H112 C100 0.929 . S
H113 C142 0.930 . S
H114 C123 0.930 . S
N115 Gd84 2.661 1_465 S
N115 C119 1.350 1_565 S
N115 C120 1.307 . S
C116 H108 0.930 . S
C116 C117 1.355 . S
C116 C118 1.412 1_565 S
C117 H109 0.930 . S
C117 C116 1.355 . S
C117 C120 1.402 . S
C118 C116 1.412 1_545 S
C118 C119 1.417 . S
C118 C142 1.431 . S
C119 N115 1.350 1_545 S
C119 C118 1.417 . S
C119 C122 1.426 . S
C120 H103 0.930 . S
C120 N115 1.307 . S
C120 C117 1.402 . S
N121 Gd84 2.574 1_455 S
N121 C122 1.395 . S
N121 C125 1.327 1_455 S
C122 C119 1.426 . S
C122 N121 1.395 . S
C122 C126 1.413 . S
C123 H114 0.930 . S
C123 C124 1.359 . S
C123 C125 1.394 1_455 S
C124 C123 1.359 . S
C124 C126 1.391 . S
C124 H127 0.929 . S
C125 H107 0.930 . S
C125 N121 1.327 1_655 S
C125 C123 1.394 1_655 S
C126 C122 1.413 . S
C126 C124 1.391 . S
C126 C141 1.437 . S
H127 C124 0.929 . S
O128 Gd84 2.545 . S
O128 C143 1.258 . S
O129 Gd84 2.606 1_565 S
O129 Gd85 2.362 . S
O129 C140 1.284 1_565 S
O130 Gd85 2.324 1_545 S
O130 C150 1.254 . S
O131 Gd84 2.429 . S
O131 C150 1.268 . S
O132 Gd84 2.545 . S
O132 C140 1.250 . S
O133 Gd84 2.420 . S
O133 C143 1.281 . S
O134 Gd85 2.545 . S
O134 C152 1.258 . S
O135 Gd84 2.357 1_565 S
O135 Gd85 2.612 . S
O135 C151 1.288 . S
O136 Gd84 2.324 1_565 S
O136 C159 1.254 . S
O137 Gd85 2.429 . S
O137 C159 1.268 . S
O138 Gd85 2.545 . S
O138 C151 1.250 . S
O139 Gd85 2.412 . S
O139 C152 1.252 . S
C140 O129 1.284 1_545 S
C140 O132 1.250 . S
C141 H110 0.929 . S
C141 C126 1.437 . S
C141 C142 1.317 . S
C142 H113 0.930 . S
C142 C118 1.431 . S
C142 C141 1.317 . S
C143 Gd84 2.828 . S
C143 O128 1.258 . S
C143 O133 1.281 . S
C143 C144 1.497 . S
C144 C143 1.497 . S
C144 C145 1.395 . S
C144 C146 1.380 . S
C145 C144 1.395 . S
C145 C148 1.398 . S
C145 H160 0.930 . S
C146 C144 1.380 . S
C146 C147 1.391 . S
C146 H161 0.930 1_545 S
C147 C146 1.391 . S
C147 C149 1.387 . S
C148 C145 1.398 . S
C148 C149 1.380 . S
C148 H162 0.930 . S
C149 C147 1.387 . S
C149 C148 1.380 . S
C149 H163 0.930 . S
C150 O130 1.254 . S
C150 O131 1.268 . S
C151 O135 1.288 . S
C151 O138 1.250 . S
C152 Gd85 2.828 . S
C152 O134 1.258 . S
C152 O139 1.252 . S
C152 C153 1.497 1_554 S
C153 C152 1.497 1_556 S
C153 C154 1.395 . S
C153 C155 1.380 . S
C154 C153 1.395 . S
C154 C157 1.398 . S
C154 H164 0.930 . S
C155 C153 1.380 . S
C155 C156 1.391 . S
C155 H165 0.930 1_565 S
C156 C155 1.391 . S
C156 C158 1.387 . S
C157 C154 1.398 . S
C157 C158 1.380 . S
C157 H166 0.930 . S
C158 C156 1.387 . S
C158 C157 1.380 . S
C158 H167 0.930 . S
C159 O136 1.254 . S
C159 O137 1.268 . S
H160 C145 0.930 . S
H161 C146 0.930 1_565 S
H162 C148 0.930 . S
H163 C149 0.930 . S
H164 C154 0.930 . S
H165 C155 0.930 1_545 S
H166 C157 0.930 . S
H167 C158 0.930 . S
Gd168 N199 2.661 1_545 S
Gd168 N205 2.601 . S
Gd168 O212 2.545 . S
Gd168 O213 2.606 1_545 S
Gd168 O215 2.429 1_556 S
Gd168 O216 2.545 . S
Gd168 O217 2.420 . S
Gd168 O219 2.357 1_546 S
Gd168 O220 2.324 1_545 S
Gd168 C227 2.828 . S
Gd169 N178 2.661 1_565 S
Gd169 N182 2.601 . S
Gd169 O213 2.362 1_554 S
Gd169 O214 2.324 1_565 S
Gd169 O218 2.545 . S
Gd169 O219 2.612 . S
Gd169 O221 2.429 . S
Gd169 O222 2.545 . S
Gd169 O223 2.412 . S
Gd169 C236 2.828 . S
C170 C173 1.417 . S
C170 C175 1.431 . S
C170 C176 1.412 1_565 S
C171 C174 1.437 . S
C171 C175 1.317 . S
C171 H190 0.929 . S
C172 C173 1.426 . S
C172 C174 1.413 . S
C172 N182 1.359 . S
C173 C170 1.417 . S
C173 C172 1.426 . S
C173 N178 1.350 1_565 S
C174 C171 1.437 . S
C174 C172 1.413 . S
C174 C184 1.391 . S
C175 C170 1.431 . S
C175 C171 1.317 . S
C175 H186 0.930 . S
C176 C170 1.412 1_545 S
C176 C177 1.355 . S
C176 H188 0.930 . S
C177 C176 1.355 . S
C177 C179 1.402 . S
C177 H189 0.930 . S
N178 Gd169 2.661 1_545 S
N178 C173 1.350 1_545 S
N178 C179 1.307 . S
C179 C177 1.402 . S
C179 N178 1.307 . S
C179 H180 0.930 . S
H180 C179 0.930 . S
C181 N182 1.334 . S
C181 C183 1.394 . S
C181 H185 0.930 . S
N182 Gd169 2.601 . S
N182 C172 1.359 . S
N182 C181 1.334 . S
C183 C181 1.394 . S
C183 C184 1.359 . S
C183 H195 0.930 . S
C184 C174 1.391 . S
C184 C183 1.359 . S
C184 H196 0.929 . S
H185 C181 0.930 . S
H186 C175 0.930 . S
H187 C204 0.930 . S
H188 C176 0.930 . S
H189 C177 0.930 . S
H190 C171 0.929 . S
H191 C209 0.930 . S
H192 C200 0.930 . S
H193 C201 0.930 . S
H194 C225 0.929 . S
H195 C183 0.930 . S
H196 C184 0.929 . S
H197 C226 0.930 . S
H198 C207 0.930 . S
N199 Gd168 2.661 1_565 S
N199 C203 1.350 1_565 S
N199 C204 1.307 . S
C200 H192 0.930 . S
C200 C201 1.355 . S
C200 C202 1.412 1_565 S
C201 H193 0.930 . S
C201 C200 1.355 . S
C201 C204 1.402 . S
C202 C200 1.412 1_545 S
C202 C203 1.417 . S
C202 C226 1.431 . S
C203 N199 1.350 1_545 S
C203 C202 1.417 . S
C203 C206 1.426 . S
C204 H187 0.930 . S
C204 N199 1.307 . S
C204 C201 1.402 . S
N205 Gd168 2.601 . S
N205 C206 1.359 . S
N205 C209 1.334 . S
C206 C203 1.426 . S
C206 N205 1.359 . S
C206 C210 1.413 . S
C207 H198 0.930 . S
C207 C208 1.359 . S
C207 C209 1.394 . S
C208 C207 1.359 . S
C208 C210 1.391 . S
C208 H211 0.929 . S
C209 H191 0.930 . S
C209 N205 1.334 . S
C209 C207 1.394 . S
C210 C206 1.413 . S
C210 C208 1.391 . S
C210 C225 1.437 . S
H211 C208 0.929 . S
O212 Gd168 2.545 . S
O212 C227 1.258 . S
O213 Gd168 2.606 1_565 S
O213 Gd169 2.362 1_556 S
O213 C224 1.284 1_565 S
O214 Gd169 2.324 1_545 S
O214 C234 1.254 . S
O215 Gd168 2.429 1_554 S
O215 C234 1.268 . S
O216 Gd168 2.545 . S
O216 C224 1.250 . S
O217 Gd168 2.420 . S
O217 C227 1.281 . S
O218 Gd169 2.545 . S
O218 C236 1.258 . S
O219 Gd168 2.357 1_564 S
O219 Gd169 2.612 . S
O219 C235 1.288 . S
O220 Gd168 2.324 1_565 S
O220 C243 1.254 . S
O221 Gd169 2.429 . S
O221 C243 1.268 1_554 S
O222 Gd169 2.545 . S
O222 C235 1.250 . S
O223 Gd169 2.412 . S
O223 C236 1.252 . S
C224 O213 1.284 1_545 S
C224 O216 1.250 . S
C225 H194 0.929 . S
C225 C210 1.437 . S
C225 C226 1.317 . S
C226 H197 0.930 . S
C226 C202 1.431 . S
C226 C225 1.317 . S
C227 Gd168 2.828 . S
C227 O212 1.258 . S
C227 O217 1.281 . S
C227 C228 1.497 . S
C228 C227 1.497 . S
C228 C229 1.395 . S
C228 C230 1.380 . S
C229 C228 1.395 . S
C229 C232 1.398 . S
C229 H244 0.930 . S
C230 C228 1.380 . S
C230 C231 1.391 . S
C230 H245 0.930 1_545 S
C231 C230 1.391 . S
C231 C233 1.387 . S
C232 C229 1.398 . S
C232 C233 1.380 . S
C232 H246 0.930 . S
C233 C231 1.387 . S
C233 C232 1.380 . S
C233 H247 0.930 . S
C234 O214 1.254 . S
C234 O215 1.268 . S
C235 O219 1.288 . S
C235 O222 1.250 . S
C236 Gd169 2.828 . S
C236 O218 1.258 . S
C236 O223 1.252 . S
C236 C237 1.497 . S
C237 C236 1.497 . S
C237 C238 1.395 . S
C237 C239 1.380 . S
C238 C237 1.395 . S
C238 C241 1.398 . S
C238 H248 0.930 . S
C239 C237 1.380 . S
C239 C240 1.391 . S
C239 H249 0.930 1_565 S
C240 C239 1.391 . S
C240 C242 1.387 . S
C241 C238 1.398 . S
C241 C242 1.380 . S
C241 H250 0.930 . S
C242 C240 1.387 . S
C242 C241 1.380 . S
C242 H251 0.930 . S
C243 O220 1.254 . S
C243 O221 1.268 1_556 S
H244 C229 0.930 . S
H245 C230 0.930 1_565 S
H246 C232 0.930 . S
H247 C233 0.930 . S
H248 C238 0.930 . S
H249 C239 0.930 1_545 S
H250 C241 0.930 . S
H251 C242 0.930 . S
Gd252 N283 2.661 1_655 S
Gd252 N289 2.574 1_655 S
Gd252 O296 2.545 . S
Gd252 O297 2.606 . S
Gd252 O299 2.429 1_556 S
Gd252 O300 2.545 . S
Gd252 O301 2.412 . S
Gd252 O303 2.362 1_556 S
Gd252 O304 2.324 . S
Gd252 C311 2.828 . S
Gd253 N262 2.661 . S
Gd253 N266 2.601 . S
Gd253 O297 2.362 1_554 S
Gd253 O298 2.324 . S
Gd253 O302 2.545 . S
Gd253 O303 2.606 . S
Gd253 O305 2.429 . S
Gd253 O306 2.545 . S
Gd253 O307 2.412 . S
Gd253 C320 2.828 . S
C254 C257 1.417 . S
C254 C259 1.431 . S
C254 C260 1.412 . S
C255 C258 1.437 . S
C255 C259 1.317 . S
C255 H274 0.929 . S
C256 C257 1.426 . S
C256 C258 1.413 . S
C256 N266 1.359 . S
C257 C254 1.417 . S
C257 C256 1.426 . S
C257 N262 1.350 . S
C258 C255 1.437 . S
C258 C256 1.413 . S
C258 C268 1.391 . S
C259 C254 1.431 . S
C259 C255 1.317 . S
C259 H270 0.930 . S
C260 C254 1.412 . S
C260 C261 1.355 . S
C260 H272 0.930 . S
C261 C260 1.355 . S
C261 C263 1.402 . S
C261 H273 0.930 . S
N262 Gd253 2.661 . S
N262 C257 1.350 . S
N262 C263 1.307 . S
C263 C261 1.402 . S
C263 N262 1.307 . S
C263 H264 0.930 . S
H264 C263 0.930 . S
C265 N266 1.334 . S
C265 C267 1.394 . S
C265 H269 0.930 . S
N266 Gd253 2.601 . S
N266 C256 1.359 . S
N266 C265 1.334 . S
C267 C265 1.394 . S
C267 C268 1.359 . S
C267 H279 0.930 . S
C268 C258 1.391 . S
C268 C267 1.359 . S
C268 H280 0.929 . S
H269 C265 0.930 . S
H270 C259 0.930 . S
H271 C288 0.930 . S
H272 C260 0.930 . S
H273 C261 0.930 . S
H274 C255 0.929 . S
H275 C293 0.930 . S
H276 C284 0.930 . S
H277 C285 0.930 . S
H278 C309 0.929 . S
H279 C267 0.930 . S
H280 C268 0.929 . S
H281 C310 0.930 . S
H282 C291 0.930 . S
N283 Gd252 2.661 1_455 S
N283 C287 1.350 . S
N283 C288 1.307 . S
C284 H276 0.930 . S
C284 C285 1.355 . S
C284 C286 1.412 . S
C285 H277 0.930 . S
C285 C284 1.355 . S
C285 C288 1.402 . S
C286 C284 1.412 . S
C286 C287 1.417 . S
C286 C310 1.431 . S
C287 N283 1.350 . S
C287 C286 1.417 . S
C287 C290 1.426 . S
C288 H271 0.930 . S
C288 N283 1.307 . S
C288 C285 1.402 . S
N289 Gd252 2.574 1_455 S
N289 C290 1.395 . S
N289 C293 1.327 1_455 S
C290 C287 1.426 . S
C290 N289 1.395 . S
C290 C294 1.413 . S
C291 H282 0.930 . S
C291 C292 1.359 . S
C291 C293 1.394 1_455 S
C292 C291 1.359 . S
C292 C294 1.391 . S
C292 H295 0.929 . S
C293 H275 0.930 . S
C293 N289 1.327 1_655 S
C293 C291 1.394 1_655 S
C294 C290 1.413 . S
C294 C292 1.391 . S
C294 C309 1.437 . S
H295 C292 0.929 . S
O296 Gd252 2.545 . S
O296 C311 1.258 . S
O297 Gd252 2.606 . S
O297 Gd253 2.362 1_556 S
O297 C308 1.284 . S
O298 Gd253 2.324 . S
O298 C318 1.254 . S
O299 Gd252 2.429 1_554 S
O299 C318 1.268 . S
O300 Gd252 2.545 . S
O300 C308 1.250 . S
O301 Gd252 2.412 . S
O301 C311 1.252 . S
O302 Gd253 2.545 . S
O302 C320 1.258 . S
O303 Gd252 2.362 1_554 S
O303 Gd253 2.606 . S
O303 C319 1.284 . S
O304 Gd252 2.324 . S
O304 C327 1.254 . S
O305 Gd253 2.429 . S
O305 C327 1.268 1_554 S
O306 Gd253 2.545 . S
O306 C319 1.250 . S
O307 Gd253 2.412 . S
O307 C320 1.252 . S
C308 O297 1.284 . S
C308 O300 1.250 . S
C309 H278 0.929 . S
C309 C294 1.437 . S
C309 C310 1.317 . S
C310 H281 0.930 . S
C310 C286 1.431 . S
C310 C309 1.317 . S
C311 Gd252 2.828 . S
C311 O296 1.258 . S
C311 O301 1.252 . S
C311 C312 1.497 . S
C312 C311 1.497 . S
C312 C313 1.395 . S
C312 C314 1.380 . S
C313 C312 1.395 . S
C313 C316 1.398 . S
C313 H328 0.930 . S
C314 C312 1.380 . S
C314 C315 1.391 . S
C314 H329 0.930 . S
C315 C314 1.391 . S
C315 C317 1.387 . S
C316 C313 1.398 . S
C316 C317 1.380 . S
C316 H330 0.930 . S
C317 C315 1.387 . S
C317 C316 1.380 . S
C317 H331 0.930 . S
C318 O298 1.254 . S
C318 O299 1.268 . S
C319 O303 1.284 . S
C319 O306 1.250 . S
C320 Gd253 2.828 . S
C320 O302 1.258 . S
C320 O307 1.252 . S
C320 C321 1.497 . S
C321 C320 1.497 . S
C321 C322 1.395 . S
C321 C323 1.380 . S
C322 C321 1.395 . S
C322 C325 1.398 . S
C322 H332 0.930 . S
C323 C321 1.380 . S
C323 C324 1.391 . S
C323 H333 0.930 . S
C324 C323 1.391 . S
C324 C326 1.387 . S
C325 C322 1.398 . S
C325 C326 1.380 . S
C325 H334 0.930 . S
C326 C324 1.387 . S
C326 C325 1.380 . S
C326 H335 0.930 . S
C327 O304 1.254 . S
C327 O305 1.268 1_556 S
H328 C313 0.930 . S
H329 C314 0.930 . S
H330 C316 0.930 . S
H331 C317 0.930 . S
H332 C322 0.930 . S
H333 C323 0.930 . S
H334 C325 0.930 . S
H335 C326 0.930 . S
Gd336 N367 2.661 . S
Gd336 N373 2.601 . S
Gd336 O380 2.545 . S
Gd336 O381 2.606 . S
Gd336 O383 2.429 . S
Gd336 O384 2.545 . S
Gd336 O385 2.412 . S
Gd336 O387 2.362 . S
Gd336 O388 2.324 . S
Gd336 C395 2.828 . S
Gd337 N346 2.661 . S
Gd337 N350 2.601 . S
Gd337 O381 2.362 . S
Gd337 O382 2.324 . S
Gd337 O386 2.545 . S
Gd337 O387 2.606 . S
Gd337 O389 2.429 . S
Gd337 O390 2.545 . S
Gd337 O391 2.412 . S
Gd337 C404 2.828 . S
C338 C341 1.417 . S
C338 C343 1.431 . S
C338 C344 1.412 . S
C339 C342 1.437 . S
C339 C343 1.317 . S
C339 H358 0.929 . S
C340 C341 1.426 . S
C340 C342 1.413 . S
C340 N350 1.359 . S
C341 C338 1.417 . S
C341 C340 1.426 . S
C341 N346 1.350 . S
C342 C339 1.437 . S
C342 C340 1.413 . S
C342 C352 1.391 . S
C343 C338 1.431 . S
C343 C339 1.317 . S
C343 H354 0.930 . S
C344 C338 1.412 . S
C344 C345 1.355 . S
C344 H356 0.930 . S
C345 C344 1.355 . S
C345 C347 1.402 . S
C345 H357 0.930 . S
N346 Gd337 2.661 . S
N346 C341 1.350 . S
N346 C347 1.307 . S
C347 C345 1.402 . S
C347 N346 1.307 . S
C347 H348 0.930 . S
H348 C347 0.930 . S
C349 N350 1.334 . S
C349 C351 1.394 . S
C349 H353 0.930 . S
N350 Gd337 2.601 . S
N350 C340 1.359 . S
N350 C349 1.334 . S
C351 C349 1.394 . S
C351 C352 1.359 . S
C351 H363 0.930 . S
C352 C342 1.391 . S
C352 C351 1.359 . S
C352 H364 0.929 . S
H353 C349 0.930 . S
H354 C343 0.930 . S
H355 C372 0.930 . S
H356 C344 0.930 . S
H357 C345 0.930 . S
H358 C339 0.929 . S
H359 C377 0.930 . S
H360 C368 0.930 . S
H361 C369 0.930 . S
H362 C393 0.929 . S
H363 C351 0.930 . S
H364 C352 0.929 . S
H365 C394 0.930 . S
H366 C375 0.930 . S
N367 Gd336 2.661 . S
N367 C371 1.350 . S
N367 C372 1.307 . S
C368 H360 0.930 . S
C368 C369 1.355 . S
C368 C370 1.412 . S
C369 H361 0.930 . S
C369 C368 1.355 . S
C369 C372 1.402 . S
C370 C368 1.412 . S
C370 C371 1.417 . S
C370 C394 1.431 . S
C371 N367 1.350 . S
C371 C370 1.417 . S
C371 C374 1.426 . S
C372 H355 0.930 . S
C372 N367 1.307 . S
C372 C369 1.402 . S
N373 Gd336 2.601 . S
N373 C374 1.359 . S
N373 C377 1.334 . S
C374 C371 1.426 . S
C374 N373 1.359 . S
C374 C378 1.413 . S
C375 H366 0.930 . S
C375 C376 1.359 . S
C375 C377 1.394 . S
C376 C375 1.359 . S
C376 C378 1.391 . S
C376 H379 0.929 . S
C377 H359 0.930 . S
C377 N373 1.334 . S
C377 C375 1.394 . S
C378 C374 1.413 . S
C378 C376 1.391 . S
C378 C393 1.437 . S
H379 C376 0.929 . S
O380 Gd336 2.545 . S
O380 C395 1.258 . S
O381 Gd336 2.606 . S
O381 Gd337 2.362 . S
O381 C392 1.284 . S
O382 Gd337 2.324 . S
O382 C402 1.254 . S
O383 Gd336 2.429 . S
O383 C402 1.268 . S
O384 Gd336 2.545 . S
O384 C392 1.250 . S
O385 Gd336 2.412 . S
O385 C395 1.252 . S
O386 Gd337 2.545 . S
O386 C404 1.258 . S
O387 Gd336 2.362 . S
O387 Gd337 2.606 . S
O387 C403 1.284 . S
O388 Gd336 2.324 . S
O388 C411 1.254 . S
O389 Gd337 2.429 . S
O389 C411 1.268 . S
O390 Gd337 2.545 . S
O390 C403 1.250 . S
O391 Gd337 2.412 . S
O391 C404 1.252 . S
C392 O381 1.284 . S
C392 O384 1.250 . S
C393 H362 0.929 . S
C393 C378 1.437 . S
C393 C394 1.317 . S
C394 H365 0.930 . S
C394 C370 1.431 . S
C394 C393 1.317 . S
C395 Gd336 2.828 . S
C395 O380 1.258 . S
C395 O385 1.252 . S
C395 C396 1.497 1_556 S
C396 C395 1.497 1_554 S
C396 C397 1.395 . S
C396 C398 1.380 . S
C397 C396 1.395 . S
C397 C400 1.398 . S
C397 H412 0.930 . S
C398 C396 1.380 . S
C398 C399 1.391 . S
C398 H413 0.930 . S
C399 C398 1.391 . S
C399 C401 1.387 . S
C400 C397 1.398 . S
C400 C401 1.380 . S
C400 H414 0.930 . S
C401 C399 1.387 . S
C401 C400 1.380 . S
C401 H415 0.930 . S
C402 O382 1.254 . S
C402 O383 1.268 . S
C403 O387 1.284 . S
C403 O390 1.250 . S
C404 Gd337 2.828 . S
C404 O386 1.258 . S
C404 O391 1.252 . S
C404 C405 1.497 . S
C405 C404 1.497 . S
C405 C406 1.395 . S
C405 C407 1.380 . S
C406 C405 1.395 . S
C406 C409 1.398 . S
C406 H416 0.930 . S
C407 C405 1.380 . S
C407 C408 1.391 . S
C407 H417 0.930 . S
C408 C407 1.391 . S
C408 C410 1.387 . S
C409 C406 1.398 . S
C409 C410 1.380 . S
C409 H418 0.930 . S
C410 C408 1.387 . S
C410 C409 1.380 . S
C410 H419 0.930 . S
C411 O388 1.254 . S
C411 O389 1.268 . S
H412 C397 0.930 . S
H413 C398 0.930 . S
H414 C400 0.930 . S
H415 C401 0.930 . S
H416 C406 0.930 . S
H417 C407 0.930 . S
H418 C409 0.930 . S
H419 C410 0.930 . S
Gd420 N451 2.661 1_545 S
Gd420 N457 2.601 . S
Gd420 O464 2.545 . S
Gd420 O465 2.612 . S
Gd420 O467 2.429 . S
Gd420 O468 2.545 . S
Gd420 O469 2.412 . S
Gd420 O471 2.362 . S
Gd420 O472 2.324 1_545 S
Gd420 C479 2.828 . S
Gd421 N430 2.661 1_465 S
Gd421 N434 2.574 1_455 S
Gd421 O465 2.357 1_565 S
Gd421 O466 2.324 1_565 S
Gd421 O470 2.545 . S
Gd421 O471 2.606 1_565 S
Gd421 O473 2.429 . S
Gd421 O474 2.545 . S
Gd421 O475 2.420 . S
Gd421 C488 2.828 . S
C422 C425 1.417 . S
C422 C427 1.431 . S
C422 C428 1.412 1_565 S
C423 C426 1.437 . S
C423 C427 1.317 . S
C423 H442 0.929 . S
C424 C425 1.426 . S
C424 C426 1.413 . S
C424 N434 1.395 . S
C425 C422 1.417 . S
C425 C424 1.426 . S
C425 N430 1.350 1_565 S
C426 C423 1.437 . S
C426 C424 1.413 . S
C426 C436 1.391 . S
C427 C422 1.431 . S
C427 C423 1.317 . S
C427 H438 0.930 . S
C428 C422 1.412 1_545 S
C428 C429 1.355 . S
C428 H440 0.930 . S
C429 C428 1.355 . S
C429 C431 1.402 . S
C429 H441 0.930 . S
N430 Gd421 2.661 1_645 S
N430 C425 1.350 1_545 S
N430 C431 1.307 . S
C431 C429 1.402 . S
C431 N430 1.307 . S
C431 H432 0.930 . S
H432 C431 0.930 . S
C433 N434 1.327 1_455 S
C433 C435 1.394 1_455 S
C433 H437 0.930 . S
N434 Gd421 2.574 1_655 S
N434 C424 1.395 . S
N434 C433 1.327 1_655 S
C435 C433 1.394 1_655 S
C435 C436 1.359 . S
C435 H447 0.930 . S
C436 C426 1.391 . S
C436 C435 1.359 . S
C436 H448 0.929 . S
H437 C433 0.930 . S
H438 C427 0.930 . S
H439 C456 0.930 . S
H440 C428 0.930 . S
H441 C429 0.930 . S
H442 C423 0.929 . S
H443 C461 0.930 . S
H444 C452 0.930 . S
H445 C453 0.930 . S
H446 C477 0.929 . S
H447 C435 0.930 . S
H448 C436 0.929 . S
H449 C478 0.930 . S
H450 C459 0.930 . S
N451 Gd420 2.661 1_565 S
N451 C455 1.350 1_565 S
N451 C456 1.307 . S
C452 H444 0.930 . S
C452 C453 1.355 . S
C452 C454 1.412 1_565 S
C453 H445 0.930 . S
C453 C452 1.355 . S
C453 C456 1.402 . S
C454 C452 1.412 1_545 S
C454 C455 1.417 . S
C454 C478 1.431 . S
C455 N451 1.350 1_545 S
C455 C454 1.417 . S
C455 C458 1.426 . S
C456 H439 0.930 . S
C456 N451 1.307 . S
C456 C453 1.402 . S
N457 Gd420 2.601 . S
N457 C458 1.359 . S
N457 C461 1.334 . S
C458 C455 1.426 . S
C458 N457 1.359 . S
C458 C462 1.413 . S
C459 H450 0.930 . S
C459 C460 1.359 . S
C459 C461 1.394 . S
C460 C459 1.359 . S
C460 C462 1.391 . S
C460 H463 0.929 . S
C461 H443 0.930 . S
C461 N457 1.334 . S
C461 C459 1.394 . S
C462 C458 1.413 . S
C462 C460 1.391 . S
C462 C477 1.437 . S
H463 C460 0.929 . S
O464 Gd420 2.545 . S
O464 C479 1.258 . S
O465 Gd420 2.612 . S
O465 Gd421 2.357 1_545 S
O465 C476 1.288 . S
O466 Gd421 2.324 1_545 S
O466 C486 1.254 . S
O467 Gd420 2.429 . S
O467 C486 1.268 . S
O468 Gd420 2.545 . S
O468 C476 1.250 . S
O469 Gd420 2.412 . S
O469 C479 1.252 . S
O470 Gd421 2.545 . S
O470 C488 1.258 . S
O471 Gd420 2.362 . S
O471 Gd421 2.606 1_545 S
O471 C487 1.284 1_545 S
O472 Gd420 2.324 1_565 S
O472 C495 1.254 . S
O473 Gd421 2.429 . S
O473 C495 1.268 . S
O474 Gd421 2.545 . S
O474 C487 1.250 . S
O475 Gd421 2.420 . S
O475 C488 1.281 . S
C476 O465 1.288 . S
C476 O468 1.250 . S
C477 H446 0.929 . S
C477 C462 1.437 . S
C477 C478 1.317 . S
C478 H449 0.930 . S
C478 C454 1.431 . S
C478 C477 1.317 . S
C479 Gd420 2.828 . S
C479 O464 1.258 . S
C479 O469 1.252 . S
C479 C480 1.497 1_556 S
C480 C479 1.497 1_554 S
C480 C481 1.395 . S
C480 C482 1.380 . S
C481 C480 1.395 . S
C481 C484 1.398 . S
C481 H496 0.930 . S
C482 C480 1.380 . S
C482 C483 1.391 . S
C482 H497 0.930 1_545 S
C483 C482 1.391 . S
C483 C485 1.387 . S
C484 C481 1.398 . S
C484 C485 1.380 . S
C484 H498 0.930 . S
C485 C483 1.387 . S
C485 C484 1.380 . S
C485 H499 0.930 . S
C486 O466 1.254 . S
C486 O467 1.268 . S
C487 O471 1.284 1_565 S
C487 O474 1.250 . S
C488 Gd421 2.828 . S
C488 O470 1.258 . S
C488 O475 1.281 . S
C488 C489 1.497 . S
C489 C488 1.497 . S
C489 C490 1.395 . S
C489 C491 1.380 . S
C490 C489 1.395 . S
C490 C493 1.398 . S
C490 H500 0.930 . S
C491 C489 1.380 . S
C491 C492 1.391 . S
C491 H501 0.930 1_565 S
C492 C491 1.391 . S
C492 C494 1.387 . S
C493 C490 1.398 . S
C493 C494 1.380 . S
C493 H502 0.930 . S
C494 C492 1.387 . S
C494 C493 1.380 . S
C494 H503 0.930 . S
C495 O472 1.254 . S
C495 O473 1.268 . S
H496 C481 0.930 . S
H497 C482 0.930 1_565 S
H498 C484 0.930 . S
H499 C485 0.930 . S
H500 C490 0.930 . S
H501 C491 0.930 1_545 S
H502 C493 0.930 . S
H503 C494 0.930 . S
Gd504 N535 2.661 1_545 S
Gd504 N541 2.601 . S
Gd504 O548 2.545 . S
Gd504 O549 2.612 . S
Gd504 O551 2.429 . S
Gd504 O552 2.545 . S
Gd504 O553 2.412 . S
Gd504 O555 2.362 1_556 S
Gd504 O556 2.324 1_545 S
Gd504 C563 2.828 . S
Gd505 N514 2.661 1_565 S
Gd505 N518 2.601 . S
Gd505 O549 2.357 1_564 S
Gd505 O550 2.324 1_565 S
Gd505 O554 2.545 . S
Gd505 O555 2.606 1_565 S
Gd505 O557 2.429 1_554 S
Gd505 O558 2.545 . S
Gd505 O559 2.420 . S
Gd505 C572 2.828 . S
C506 C509 1.417 . S
C506 C511 1.431 . S
C506 C512 1.412 1_565 S
C507 C510 1.437 . S
C507 C511 1.317 . S
C507 H526 0.929 . S
C508 C509 1.426 . S
C508 C510 1.413 . S
C508 N518 1.359 . S
C509 C506 1.417 . S
C509 C508 1.426 . S
C509 N514 1.350 1_565 S
C510 C507 1.437 . S
C510 C508 1.413 . S
C510 C520 1.391 . S
C511 C506 1.431 . S
C511 C507 1.317 . S
C511 H522 0.930 . S
C512 C506 1.412 1_545 S
C512 C513 1.355 . S
C512 H524 0.930 . S
C513 C512 1.355 . S
C513 C515 1.402 . S
C513 H525 0.930 . S
N514 Gd505 2.661 1_545 S
N514 C509 1.350 1_545 S
N514 C515 1.307 . S
C515 C513 1.402 . S
C515 N514 1.307 . S
C515 H516 0.930 . S
H516 C515 0.930 . S
C517 N518 1.334 . S
C517 C519 1.394 . S
C517 H521 0.930 . S
N518 Gd505 2.601 . S
N518 C508 1.359 . S
N518 C517 1.334 . S
C519 C517 1.394 . S
C519 C520 1.359 . S
C519 H531 0.930 . S
C520 C510 1.391 . S
C520 C519 1.359 . S
C520 H532 0.929 . S
H521 C517 0.930 . S
H522 C511 0.930 . S
H523 C540 0.930 . S
H524 C512 0.930 . S
H525 C513 0.930 . S
H526 C507 0.929 . S
H527 C545 0.930 . S
H528 C536 0.930 . S
H529 C537 0.930 . S
H530 C561 0.929 . S
H531 C519 0.930 . S
H532 C520 0.929 . S
H533 C562 0.930 . S
H534 C543 0.930 . S
N535 Gd504 2.661 1_565 S
N535 C539 1.350 1_565 S
N535 C540 1.307 . S
C536 H528 0.930 . S
C536 C537 1.355 . S
C536 C538 1.412 1_565 S
C537 H529 0.930 . S
C537 C536 1.355 . S
C537 C540 1.402 . S
C538 C536 1.412 1_545 S
C538 C539 1.417 . S
C538 C562 1.431 . S
C539 N535 1.350 1_545 S
C539 C538 1.417 . S
C539 C542 1.426 . S
C540 H523 0.930 . S
C540 N535 1.307 . S
C540 C537 1.402 . S
N541 Gd504 2.601 . S
N541 C542 1.359 . S
N541 C545 1.334 . S
C542 C539 1.426 . S
C542 N541 1.359 . S
C542 C546 1.413 . S
C543 H534 0.930 . S
C543 C544 1.359 . S
C543 C545 1.394 . S
C544 C543 1.359 . S
C544 C546 1.391 . S
C544 H547 0.929 . S
C545 H527 0.930 . S
C545 N541 1.334 . S
C545 C543 1.394 . S
C546 C542 1.413 . S
C546 C544 1.391 . S
C546 C561 1.437 . S
H547 C544 0.929 . S
O548 Gd504 2.545 . S
O548 C563 1.258 . S
O549 Gd504 2.612 . S
O549 Gd505 2.357 1_546 S
O549 C560 1.288 . S
O550 Gd505 2.324 1_545 S
O550 C570 1.254 . S
O551 Gd504 2.429 . S
O551 C570 1.268 1_556 S
O552 Gd504 2.545 . S
O552 C560 1.250 . S
O553 Gd504 2.412 . S
O553 C563 1.252 . S
O554 Gd505 2.545 . S
O554 C572 1.258 . S
O555 Gd504 2.362 1_554 S
O555 Gd505 2.606 1_545 S
O555 C571 1.284 1_545 S
O556 Gd504 2.324 1_565 S
O556 C579 1.254 . S
O557 Gd505 2.429 1_556 S
O557 C579 1.268 . S
O558 Gd505 2.545 . S
O558 C571 1.250 . S
O559 Gd505 2.420 . S
O559 C572 1.281 . S
C560 O549 1.288 . S
C560 O552 1.250 . S
C561 H530 0.929 . S
C561 C546 1.437 . S
C561 C562 1.317 . S
C562 H533 0.930 . S
C562 C538 1.431 . S
C562 C561 1.317 . S
C563 Gd504 2.828 . S
C563 O548 1.258 . S
C563 O553 1.252 . S
C563 C564 1.497 . S
C564 C563 1.497 . S
C564 C565 1.395 . S
C564 C566 1.380 . S
C565 C564 1.395 . S
C565 C568 1.398 . S
C565 H580 0.930 . S
C566 C564 1.380 . S
C566 C567 1.391 . S
C566 H581 0.930 1_545 S
C567 C566 1.391 . S
C567 C569 1.387 . S
C568 C565 1.398 . S
C568 C569 1.380 . S
C568 H582 0.930 . S
C569 C567 1.387 . S
C569 C568 1.380 . S
C569 H583 0.930 . S
C570 O550 1.254 . S
C570 O551 1.268 1_554 S
C571 O555 1.284 1_565 S
C571 O558 1.250 . S
C572 Gd505 2.828 . S
C572 O554 1.258 . S
C572 O559 1.281 . S
C572 C573 1.497 . S
C573 C572 1.497 . S
C573 C574 1.395 . S
C573 C575 1.380 . S
C574 C573 1.395 . S
C574 C577 1.398 . S
C574 H584 0.930 . S
C575 C573 1.380 . S
C575 C576 1.391 . S
C575 H585 0.930 1_565 S
C576 C575 1.391 . S
C576 C578 1.387 . S
C577 C574 1.398 . S
C577 C578 1.380 . S
C577 H586 0.930 . S
C578 C576 1.387 . S
C578 C577 1.380 . S
C578 H587 0.930 . S
C579 O556 1.254 . S
C579 O557 1.268 . S
H580 C565 0.930 . S
H581 C566 0.930 1_565 S
H582 C568 0.930 . S
H583 C569 0.930 . S
H584 C574 0.930 . S
H585 C575 0.930 1_545 S
H586 C577 0.930 . S
H587 C578 0.930 . S
Gd588 N619 2.661 . S
Gd588 N625 2.601 . S
Gd588 O632 2.545 . S
Gd588 O633 2.606 . S
Gd588 O635 2.429 . S
Gd588 O636 2.545 . S
Gd588 O637 2.412 . S
Gd588 O639 2.362 1_556 S
Gd588 O640 2.324 . S
Gd588 C647 2.828 . S
Gd589 N598 2.661 1_455 S
Gd589 N602 2.574 1_455 S
Gd589 O633 2.362 1_554 S
Gd589 O634 2.324 . S
Gd589 O638 2.545 . S
Gd589 O639 2.606 . S
Gd589 O641 2.429 1_554 S
Gd589 O642 2.545 . S
Gd589 O643 2.412 . S
Gd589 C656 2.828 . S
C590 C593 1.417 . S
C590 C595 1.431 . S
C590 C596 1.412 . S
C591 C594 1.437 . S
C591 C595 1.317 . S
C591 H610 0.929 . S
C592 C593 1.426 . S
C592 C594 1.413 . S
C592 N602 1.395 . S
C593 C590 1.417 . S
C593 C592 1.426 . S
C593 N598 1.350 . S
C594 C591 1.437 . S
C594 C592 1.413 . S
C594 C604 1.391 . S
C595 C590 1.431 . S
C595 C591 1.317 . S
C595 H606 0.930 . S
C596 C590 1.412 . S
C596 C597 1.355 . S
C596 H608 0.930 . S
C597 C596 1.355 . S
C597 C599 1.402 . S
C597 H609 0.930 . S
N598 Gd589 2.661 1_655 S
N598 C593 1.350 . S
N598 C599 1.307 . S
C599 C597 1.402 . S
C599 N598 1.307 . S
C599 H600 0.930 . S
H600 C599 0.930 . S
C601 N602 1.327 1_455 S
C601 C603 1.394 1_455 S
C601 H605 0.930 . S
N602 Gd589 2.574 1_655 S
N602 C592 1.395 . S
N602 C601 1.327 1_655 S
C603 C601 1.394 1_655 S
C603 C604 1.359 . S
C603 H615 0.930 . S
C604 C594 1.391 . S
C604 C603 1.359 . S
C604 H616 0.929 . S
H605 C601 0.930 . S
H606 C595 0.930 . S
H607 C624 0.930 . S
H608 C596 0.930 . S
H609 C597 0.930 . S
H610 C591 0.929 . S
H611 C629 0.930 . S
H612 C620 0.930 . S
H613 C621 0.930 . S
H614 C645 0.929 . S
H615 C603 0.930 . S
H616 C604 0.929 . S
H617 C646 0.930 . S
H618 C627 0.930 . S
N619 Gd588 2.661 . S
N619 C623 1.350 . S
N619 C624 1.307 . S
C620 H612 0.930 . S
C620 C621 1.355 . S
C620 C622 1.412 . S
C621 H613 0.930 . S
C621 C620 1.355 . S
C621 C624 1.402 . S
C622 C620 1.412 . S
C622 C623 1.417 . S
C622 C646 1.431 . S
C623 N619 1.350 . S
C623 C622 1.417 . S
C623 C626 1.426 . S
C624 H607 0.930 . S
C624 N619 1.307 . S
C624 C621 1.402 . S
N625 Gd588 2.601 . S
N625 C626 1.359 . S
N625 C629 1.334 . S
C626 C623 1.426 . S
C626 N625 1.359 . S
C626 C630 1.413 . S
C627 H618 0.930 . S
C627 C628 1.359 . S
C627 C629 1.394 . S
C628 C627 1.359 . S
C628 C630 1.391 . S
C628 H631 0.929 . S
C629 H611 0.930 . S
C629 N625 1.334 . S
C629 C627 1.394 . S
C630 C626 1.413 . S
C630 C628 1.391 . S
C630 C645 1.437 . S
H631 C628 0.929 . S
O632 Gd588 2.545 . S
O632 C647 1.258 . S
O633 Gd588 2.606 . S
O633 Gd589 2.362 1_556 S
O633 C644 1.284 . S
O634 Gd589 2.324 . S
O634 C654 1.254 . S
O635 Gd588 2.429 . S
O635 C654 1.268 1_556 S
O636 Gd588 2.545 . S
O636 C644 1.250 . S
O637 Gd588 2.412 . S
O637 C647 1.252 . S
O638 Gd589 2.545 . S
O638 C656 1.258 . S
O639 Gd588 2.362 1_554 S
O639 Gd589 2.606 . S
O639 C655 1.284 . S
O640 Gd588 2.324 . S
O640 C663 1.254 . S
O641 Gd589 2.429 1_556 S
O641 C663 1.268 . S
O642 Gd589 2.545 . S
O642 C655 1.250 . S
O643 Gd589 2.412 . S
O643 C656 1.252 . S
C644 O633 1.284 . S
C644 O636 1.250 . S
C645 H614 0.929 . S
C645 C630 1.437 . S
C645 C646 1.317 . S
C646 H617 0.930 . S
C646 C622 1.431 . S
C646 C645 1.317 . S
C647 Gd588 2.828 . S
C647 O632 1.258 . S
C647 O637 1.252 . S
C647 C648 1.497 . S
C648 C647 1.497 . S
C648 C649 1.395 . S
C648 C650 1.380 . S
C649 C648 1.395 . S
C649 C652 1.398 . S
C649 H664 0.930 . S
C650 C648 1.380 . S
C650 C651 1.391 . S
C650 H665 0.930 . S
C651 C650 1.391 . S
C651 C653 1.387 . S
C652 C649 1.398 . S
C652 C653 1.380 . S
C652 H666 0.930 . S
C653 C651 1.387 . S
C653 C652 1.380 . S
C653 H667 0.930 . S
C654 O634 1.254 . S
C654 O635 1.268 1_554 S
C655 O639 1.284 . S
C655 O642 1.250 . S
C656 Gd589 2.828 . S
C656 O638 1.258 . S
C656 O643 1.252 . S
C656 C657 1.497 . S
C657 C656 1.497 . S
C657 C658 1.395 . S
C657 C659 1.380 . S
C658 C657 1.395 . S
C658 C661 1.398 . S
C658 H668 0.930 . S
C659 C657 1.380 . S
C659 C660 1.391 . S
C659 H669 0.930 . S
C660 C659 1.391 . S
C660 C662 1.387 . S
C661 C658 1.398 . S
C661 C662 1.380 . S
C661 H670 0.930 . S
C662 C660 1.387 . S
C662 C661 1.380 . S
C662 H671 0.930 . S
C663 O640 1.254 . S
C663 O641 1.268 . S
H664 C649 0.930 . S
H665 C650 0.930 . S
H666 C652 0.930 . S
H667 C653 0.930 . S
H668 C658 0.930 . S
H669 C659 0.930 . S
H670 C661 0.930 . S
H671 C662 0.930 . S
Gd672 N703 2.661 . S
Gd672 N709 2.601 . S
Gd672 O716 2.545 . S
Gd672 O717 2.606 . S
Gd672 O719 2.429 . S
Gd672 O720 2.545 . S
Gd672 O721 2.412 . S
Gd672 O723 2.362 . S
Gd672 O724 2.324 . S
Gd672 C731 2.828 . S
Gd673 N682 2.661 . S
Gd673 N686 2.601 . S
Gd673 O717 2.362 . S
Gd673 O718 2.324 . S
Gd673 O722 2.545 . S
Gd673 O723 2.606 . S
Gd673 O725 2.429 . S
Gd673 O726 2.545 . S
Gd673 O727 2.412 . S
Gd673 C740 2.828 . S
C674 C677 1.417 . S
C674 C679 1.431 . S
C674 C680 1.412 . S
C675 C678 1.437 . S
C675 C679 1.317 . S
C675 H694 0.929 . S
C676 C677 1.426 . S
C676 C678 1.413 . S
C676 N686 1.359 . S
C677 C674 1.417 . S
C677 C676 1.426 . S
C677 N682 1.350 . S
C678 C675 1.437 . S
C678 C676 1.413 . S
C678 C688 1.391 . S
C679 C674 1.431 . S
C679 C675 1.317 . S
C679 H690 0.930 . S
C680 C674 1.412 . S
C680 C681 1.355 . S
C680 H692 0.930 . S
C681 C680 1.355 . S
C681 C683 1.402 . S
C681 H693 0.930 . S
N682 Gd673 2.661 . S
N682 C677 1.350 . S
N682 C683 1.307 . S
C683 C681 1.402 . S
C683 N682 1.307 . S
C683 H684 0.930 . S
H684 C683 0.930 . S
C685 N686 1.334 . S
C685 C687 1.394 . S
C685 H689 0.930 . S
N686 Gd673 2.601 . S
N686 C676 1.359 . S
N686 C685 1.334 . S
C687 C685 1.394 . S
C687 C688 1.359 . S
C687 H699 0.930 . S
C688 C678 1.391 . S
C688 C687 1.359 . S
C688 H700 0.929 . S
H689 C685 0.930 . S
H690 C679 0.930 . S
H691 C708 0.930 . S
H692 C680 0.930 . S
H693 C681 0.930 . S
H694 C675 0.929 . S
H695 C713 0.930 . S
H696 C704 0.930 . S
H697 C705 0.930 . S
H698 C729 0.929 . S
H699 C687 0.930 . S
H700 C688 0.929 . S
H701 C730 0.930 . S
H702 C711 0.930 . S
N703 Gd672 2.661 . S
N703 C707 1.350 . S
N703 C708 1.307 . S
C704 H696 0.930 . S
C704 C705 1.355 . S
C704 C706 1.412 . S
C705 H697 0.930 . S
C705 C704 1.355 . S
C705 C708 1.402 . S
C706 C704 1.412 . S
C706 C707 1.417 . S
C706 C730 1.431 . S
C707 N703 1.350 . S
C707 C706 1.417 . S
C707 C710 1.426 . S
C708 H691 0.930 . S
C708 N703 1.307 . S
C708 C705 1.402 . S
N709 Gd672 2.601 . S
N709 C710 1.359 . S
N709 C713 1.334 . S
C710 C707 1.426 . S
C710 N709 1.359 . S
C710 C714 1.413 . S
C711 H702 0.930 . S
C711 C712 1.359 . S
C711 C713 1.394 . S
C712 C711 1.359 . S
C712 C714 1.391 . S
C712 H715 0.929 . S
C713 H695 0.930 . S
C713 N709 1.334 . S
C713 C711 1.394 . S
C714 C710 1.413 . S
C714 C712 1.391 . S
C714 C729 1.437 . S
H715 C712 0.929 . S
O716 Gd672 2.545 . S
O716 C731 1.258 . S
O717 Gd672 2.606 . S
O717 Gd673 2.362 . S
O717 C728 1.284 . S
O718 Gd673 2.324 . S
O718 C738 1.254 . S
O719 Gd672 2.429 . S
O719 C738 1.268 . S
O720 Gd672 2.545 . S
O720 C728 1.250 . S
O721 Gd672 2.412 . S
O721 C731 1.252 . S
O722 Gd673 2.545 . S
O722 C740 1.258 . S
O723 Gd672 2.362 . S
O723 Gd673 2.606 . S
O723 C739 1.284 . S
O724 Gd672 2.324 . S
O724 C747 1.254 . S
O725 Gd673 2.429 . S
O725 C747 1.268 . S
O726 Gd673 2.545 . S
O726 C739 1.250 . S
O727 Gd673 2.412 . S
O727 C740 1.252 . S
C728 O717 1.284 . S
C728 O720 1.250 . S
C729 H698 0.929 . S
C729 C714 1.437 . S
C729 C730 1.317 . S
C730 H701 0.930 . S
C730 C706 1.431 . S
C730 C729 1.317 . S
C731 Gd672 2.828 . S
C731 O716 1.258 . S
C731 O721 1.252 . S
C731 C732 1.497 . S
C732 C731 1.497 . S
C732 C733 1.395 1_556 S
C732 C734 1.380 1_556 S
C733 C732 1.395 1_554 S
C733 C736 1.398 . S
C733 H748 0.930 1_554 S
C734 C732 1.380 1_554 S
C734 C735 1.391 . S
C734 H749 0.930 . S
C735 C734 1.391 . S
C735 C737 1.387 . S
C736 C733 1.398 . S
C736 C737 1.380 . S
C736 H750 0.930 . S
C737 C735 1.387 . S
C737 C736 1.380 . S
C737 H751 0.930 . S
C738 O718 1.254 . S
C738 O719 1.268 . S
C739 O723 1.284 . S
C739 O726 1.250 . S
C740 Gd673 2.828 . S
C740 O722 1.258 . S
C740 O727 1.252 . S
C740 C741 1.497 . S
C741 C740 1.497 . S
C741 C742 1.395 . S
C741 C743 1.380 . S
C742 C741 1.395 . S
C742 C745 1.398 . S
C742 H752 0.930 . S
C743 C741 1.380 . S
C743 C744 1.391 . S
C743 H753 0.930 . S
C744 C743 1.391 . S
C744 C746 1.387 . S
C745 C742 1.398 . S
C745 C746 1.380 . S
C745 H754 0.930 . S
C746 C744 1.387 . S
C746 C745 1.380 . S
C746 H755 0.930 . S
C747 O724 1.254 . S
C747 O725 1.268 . S
H748 C733 0.930 1_556 S
H749 C734 0.930 . S
H750 C736 0.930 . S
H751 C737 0.930 . S
H752 C742 0.930 . S
H753 C743 0.930 . S
H754 C745 0.930 . S
H755 C746 0.930 . S
Gd756 N787 2.661 1_655 S
Gd756 N793 2.574 1_655 S
Gd756 O800 2.545 . S
Gd756 O801 2.606 . S
Gd756 O803 2.429 . S
Gd756 O804 2.545 . S
Gd756 O805 2.412 . S
Gd756 O807 2.362 . S
Gd756 O808 2.324 . S
Gd756 C815 2.828 . S
Gd757 N766 2.661 . S
Gd757 N770 2.601 . S
Gd757 O801 2.362 . S
Gd757 O802 2.324 . S
Gd757 O806 2.545 . S
Gd757 O807 2.606 . S
Gd757 O809 2.429 . S
Gd757 O810 2.545 . S
Gd757 O811 2.412 . S
Gd757 C824 2.828 . S
C758 C761 1.417 . S
C758 C763 1.431 . S
C758 C764 1.412 . S
C759 C762 1.437 . S
C759 C763 1.317 . S
C759 H778 0.929 . S
C760 C761 1.426 . S
C760 C762 1.413 . S
C760 N770 1.359 . S
C761 C758 1.417 . S
C761 C760 1.426 . S
C761 N766 1.350 . S
C762 C759 1.437 . S
C762 C760 1.413 . S
C762 C772 1.391 . S
C763 C758 1.431 . S
C763 C759 1.317 . S
C763 H774 0.930 . S
C764 C758 1.412 . S
C764 C765 1.355 . S
C764 H776 0.930 . S
C765 C764 1.355 . S
C765 C767 1.402 . S
C765 H777 0.930 . S
N766 Gd757 2.661 . S
N766 C761 1.350 . S
N766 C767 1.307 . S
C767 C765 1.402 . S
C767 N766 1.307 . S
C767 H768 0.930 . S
H768 C767 0.930 . S
C769 N770 1.334 . S
C769 C771 1.394 . S
C769 H773 0.930 . S
N770 Gd757 2.601 . S
N770 C760 1.359 . S
N770 C769 1.334 . S
C771 C769 1.394 . S
C771 C772 1.359 . S
C771 H783 0.930 . S
C772 C762 1.391 . S
C772 C771 1.359 . S
C772 H784 0.929 . S
H773 C769 0.930 . S
H774 C763 0.930 . S
H775 C792 0.930 . S
H776 C764 0.930 . S
H777 C765 0.930 . S
H778 C759 0.929 . S
H779 C797 0.930 . S
H780 C788 0.930 . S
H781 C789 0.930 . S
H782 C813 0.929 . S
H783 C771 0.930 . S
H784 C772 0.929 . S
H785 C814 0.930 . S
H786 C795 0.930 . S
N787 Gd756 2.661 1_455 S
N787 C791 1.350 . S
N787 C792 1.307 . S
C788 H780 0.930 . S
C788 C789 1.355 . S
C788 C790 1.412 . S
C789 H781 0.930 . S
C789 C788 1.355 . S
C789 C792 1.402 . S
C790 C788 1.412 . S
C790 C791 1.417 . S
C790 C814 1.431 . S
C791 N787 1.350 . S
C791 C790 1.417 . S
C791 C794 1.426 . S
C792 H775 0.930 . S
C792 N787 1.307 . S
C792 C789 1.402 . S
N793 Gd756 2.574 1_455 S
N793 C794 1.395 . S
N793 C797 1.327 1_455 S
C794 C791 1.426 . S
C794 N793 1.395 . S
C794 C798 1.413 . S
C795 H786 0.930 . S
C795 C796 1.359 . S
C795 C797 1.394 1_455 S
C796 C795 1.359 . S
C796 C798 1.391 . S
C796 H799 0.929 . S
C797 H779 0.930 . S
C797 N793 1.327 1_655 S
C797 C795 1.394 1_655 S
C798 C794 1.413 . S
C798 C796 1.391 . S
C798 C813 1.437 . S
H799 C796 0.929 . S
O800 Gd756 2.545 . S
O800 C815 1.258 . S
O801 Gd756 2.606 . S
O801 Gd757 2.362 . S
O801 C812 1.284 . S
O802 Gd757 2.324 . S
O802 C822 1.254 . S
O803 Gd756 2.429 . S
O803 C822 1.268 . S
O804 Gd756 2.545 . S
O804 C812 1.250 . S
O805 Gd756 2.412 . S
O805 C815 1.252 . S
O806 Gd757 2.545 . S
O806 C824 1.258 . S
O807 Gd756 2.362 . S
O807 Gd757 2.606 . S
O807 C823 1.284 . S
O808 Gd756 2.324 . S
O808 C831 1.254 . S
O809 Gd757 2.429 . S
O809 C831 1.268 . S
O810 Gd757 2.545 . S
O810 C823 1.250 . S
O811 Gd757 2.412 . S
O811 C824 1.252 . S
C812 O801 1.284 . S
C812 O804 1.250 . S
C813 H782 0.929 . S
C813 C798 1.437 . S
C813 C814 1.317 . S
C814 H785 0.930 . S
C814 C790 1.431 . S
C814 C813 1.317 . S
C815 Gd756 2.828 . S
C815 O800 1.258 . S
C815 O805 1.252 . S
C815 C816 1.497 . S
C816 C815 1.497 . S
C816 C817 1.395 1_556 S
C816 C818 1.380 1_556 S
C817 C816 1.395 1_554 S
C817 C820 1.398 . S
C817 H832 0.930 1_554 S
C818 C816 1.380 1_554 S
C818 C819 1.391 . S
C818 H833 0.930 . S
C819 C818 1.391 . S
C819 C821 1.387 . S
C820 C817 1.398 . S
C820 C821 1.380 . S
C820 H834 0.930 . S
C821 C819 1.387 . S
C821 C820 1.380 . S
C821 H835 0.930 . S
C822 O802 1.254 . S
C822 O803 1.268 . S
C823 O807 1.284 . S
C823 O810 1.250 . S
C824 Gd757 2.828 . S
C824 O806 1.258 . S
C824 O811 1.252 . S
C824 C825 1.497 . S
C825 C824 1.497 . S
C825 C826 1.395 . S
C825 C827 1.380 . S
C826 C825 1.395 . S
C826 C829 1.398 . S
C826 H836 0.930 . S
C827 C825 1.380 . S
C827 C828 1.391 . S
C827 H837 0.930 . S
C828 C827 1.391 . S
C828 C830 1.387 . S
C829 C826 1.398 . S
C829 C830 1.380 . S
C829 H838 0.930 . S
C830 C828 1.387 . S
C830 C829 1.380 . S
C830 H839 0.930 . S
C831 O808 1.254 . S
C831 O809 1.268 . S
H832 C817 0.930 1_556 S
H833 C818 0.930 . S
H834 C820 0.930 . S
H835 C821 0.930 . S
H836 C826 0.930 . S
H837 C827 0.930 . S
H838 C829 0.930 . S
H839 C830 0.930 . S
Gd840 N871 2.661 . S
Gd840 N877 2.601 . S
Gd840 O884 2.545 . S
Gd840 O885 2.606 . S
Gd840 O887 2.429 . S
Gd840 O888 2.545 . S
Gd840 O889 2.412 . S
Gd840 O891 2.362 . S
Gd840 O892 2.324 . S
Gd840 C899 2.828 . S
Gd841 N850 2.661 . S
Gd841 N854 2.601 . S
Gd841 O885 2.362 . S
Gd841 O886 2.324 . S
Gd841 O890 2.545 . S
Gd841 O891 2.606 . S
Gd841 O893 2.429 . S
Gd841 O894 2.545 . S
Gd841 O895 2.412 . S
Gd841 C908 2.828 . S
C842 C845 1.417 . S
C842 C847 1.431 . S
C842 C848 1.412 . S
C843 C846 1.437 . S
C843 C847 1.317 . S
C843 H862 0.929 . S
C844 C845 1.426 . S
C844 C846 1.413 . S
C844 N854 1.359 . S
C845 C842 1.417 . S
C845 C844 1.426 . S
C845 N850 1.350 . S
C846 C843 1.437 . S
C846 C844 1.413 . S
C846 C856 1.391 . S
C847 C842 1.431 . S
C847 C843 1.317 . S
C847 H858 0.930 . S
C848 C842 1.412 . S
C848 C849 1.355 . S
C848 H860 0.930 . S
C849 C848 1.355 . S
C849 C851 1.402 . S
C849 H861 0.930 . S
N850 Gd841 2.661 . S
N850 C845 1.350 . S
N850 C851 1.307 . S
C851 C849 1.402 . S
C851 N850 1.307 . S
C851 H852 0.930 . S
H852 C851 0.930 . S
C853 N854 1.334 . S
C853 C855 1.394 . S
C853 H857 0.930 . S
N854 Gd841 2.601 . S
N854 C844 1.359 . S
N854 C853 1.334 . S
C855 C853 1.394 . S
C855 C856 1.359 . S
C855 H867 0.930 . S
C856 C846 1.391 . S
C856 C855 1.359 . S
C856 H868 0.929 . S
H857 C853 0.930 . S
H858 C847 0.930 . S
H859 C876 0.930 . S
H860 C848 0.930 . S
H861 C849 0.930 . S
H862 C843 0.929 . S
H863 C881 0.930 . S
H864 C872 0.930 . S
H865 C873 0.930 . S
H866 C897 0.929 . S
H867 C855 0.930 . S
H868 C856 0.929 . S
H869 C898 0.930 . S
H870 C879 0.930 . S
N871 Gd840 2.661 . S
N871 C875 1.350 . S
N871 C876 1.307 . S
C872 H864 0.930 . S
C872 C873 1.355 . S
C872 C874 1.412 . S
C873 H865 0.930 . S
C873 C872 1.355 . S
C873 C876 1.402 . S
C874 C872 1.412 . S
C874 C875 1.417 . S
C874 C898 1.431 . S
C875 N871 1.350 . S
C875 C874 1.417 . S
C875 C878 1.426 . S
C876 H859 0.930 . S
C876 N871 1.307 . S
C876 C873 1.402 . S
N877 Gd840 2.601 . S
N877 C878 1.359 . S
N877 C881 1.334 . S
C878 C875 1.426 . S
C878 N877 1.359 . S
C878 C882 1.413 . S
C879 H870 0.930 . S
C879 C880 1.359 . S
C879 C881 1.394 . S
C880 C879 1.359 . S
C880 C882 1.391 . S
C880 H883 0.929 . S
C881 H863 0.930 . S
C881 N877 1.334 . S
C881 C879 1.394 . S
C882 C878 1.413 . S
C882 C880 1.391 . S
C882 C897 1.437 . S
H883 C880 0.929 . S
O884 Gd840 2.545 . S
O884 C899 1.258 . S
O885 Gd840 2.606 . S
O885 Gd841 2.362 . S
O885 C896 1.284 . S
O886 Gd841 2.324 . S
O886 C906 1.254 . S
O887 Gd840 2.429 . S
O887 C906 1.268 . S
O888 Gd840 2.545 . S
O888 C896 1.250 . S
O889 Gd840 2.412 . S
O889 C899 1.252 . S
O890 Gd841 2.545 . S
O890 C908 1.258 . S
O891 Gd840 2.362 . S
O891 Gd841 2.606 . S
O891 C907 1.284 . S
O892 Gd840 2.324 . S
O892 C915 1.254 . S
O893 Gd841 2.429 . S
O893 C915 1.268 . S
O894 Gd841 2.545 . S
O894 C907 1.250 . S
O895 Gd841 2.412 . S
O895 C908 1.252 . S
C896 O885 1.284 . S
C896 O888 1.250 . S
C897 H866 0.929 . S
C897 C882 1.437 . S
C897 C898 1.317 . S
C898 H869 0.930 . S
C898 C874 1.431 . S
C898 C897 1.317 . S
C899 Gd840 2.828 . S
C899 O884 1.258 . S
C899 O889 1.252 . S
C899 C900 1.497 . S
C900 C899 1.497 . S
C900 C901 1.395 . S
C900 C902 1.380 . S
C901 C900 1.395 . S
C901 C904 1.398 . S
C901 H916 0.930 . S
C902 C900 1.380 . S
C902 C903 1.391 . S
C902 H917 0.930 . S
C903 C902 1.391 . S
C903 C905 1.387 . S
C904 C901 1.398 . S
C904 C905 1.380 . S
C904 H918 0.930 . S
C905 C903 1.387 . S
C905 C904 1.380 . S
C905 H919 0.930 . S
C906 O886 1.254 . S
C906 O887 1.268 . S
C907 O891 1.284 . S
C907 O894 1.250 . S
C908 Gd841 2.828 . S
C908 O890 1.258 . S
C908 O895 1.252 . S
C908 C909 1.497 . S
C909 C908 1.497 . S
C909 C910 1.395 . S
C909 C911 1.380 . S
C910 C909 1.395 . S
C910 C913 1.398 . S
C910 H920 0.930 . S
C911 C909 1.380 . S
C911 C912 1.391 . S
C911 H921 0.930 . S
C912 C911 1.391 . S
C912 C914 1.387 . S
C913 C910 1.398 . S
C913 C914 1.380 . S
C913 H922 0.930 . S
C914 C912 1.387 . S
C914 C913 1.380 . S
C914 H923 0.930 . S
C915 O892 1.254 . S
C915 O893 1.268 . S
H916 C901 0.930 . S
H917 C902 0.930 . S
H918 C904 0.930 . S
H919 C905 0.930 . S
H920 C910 0.930 . S
H921 C911 0.930 . S
H922 C913 0.930 . S
H923 C914 0.930 . S
Gd924 N955 2.661 1_655 S
Gd924 N961 2.573 1_655 S
Gd924 O968 2.545 . S
Gd924 O969 2.606 . S
Gd924 O971 2.429 . S
Gd924 O972 2.545 . S
Gd924 O973 2.412 . S
Gd924 O975 2.362 . S
Gd924 O976 2.324 . S
Gd924 C983 2.828 . S
Gd925 N934 2.661 . S
Gd925 N938 2.601 . S
Gd925 O969 2.362 . S
Gd925 O970 2.324 . S
Gd925 O974 2.545 . S
Gd925 O975 2.606 . S
Gd925 O977 2.429 . S
Gd925 O978 2.545 . S
Gd925 O979 2.412 . S
Gd925 C992 2.828 . S
C926 C929 1.417 . S
C926 C931 1.431 . S
C926 C932 1.412 . S
C927 C930 1.437 . S
C927 C931 1.317 . S
C927 H946 0.929 . S
C928 C929 1.426 . S
C928 C930 1.413 . S
C928 N938 1.359 . S
C929 C926 1.417 . S
C929 C928 1.426 . S
C929 N934 1.350 . S
C930 C927 1.437 . S
C930 C928 1.413 . S
C930 C940 1.391 . S
C931 C926 1.431 . S
C931 C927 1.317 . S
C931 H942 0.930 . S
C932 C926 1.412 . S
C932 C933 1.355 . S
C932 H944 0.930 . S
C933 C932 1.355 . S
C933 C935 1.402 . S
C933 H945 0.930 . S
N934 Gd925 2.661 . S
N934 C929 1.350 . S
N934 C935 1.307 . S
C935 C933 1.402 . S
C935 N934 1.307 . S
C935 H936 0.930 . S
H936 C935 0.930 . S
C937 N938 1.334 . S
C937 C939 1.394 . S
C937 H941 0.930 . S
N938 Gd925 2.601 . S
N938 C928 1.359 . S
N938 C937 1.334 . S
C939 C937 1.394 . S
C939 C940 1.359 . S
C939 H951 0.930 . S
C940 C930 1.391 . S
C940 C939 1.359 . S
C940 H952 0.929 . S
H941 C937 0.930 . S
H942 C931 0.930 . S
H943 C960 0.930 . S
H944 C932 0.930 . S
H945 C933 0.930 . S
H946 C927 0.929 . S
H947 C965 0.930 . S
H948 C956 0.930 . S
H949 C957 0.930 . S
H950 C981 0.929 . S
H951 C939 0.930 . S
H952 C940 0.929 . S
H953 C982 0.930 . S
H954 C963 0.930 . S
N955 Gd924 2.661 1_455 S
N955 C959 1.350 . S
N955 C960 1.307 . S
C956 H948 0.930 . S
C956 C957 1.355 . S
C956 C958 1.412 . S
C957 H949 0.930 . S
C957 C956 1.355 . S
C957 C960 1.402 . S
C958 C956 1.412 . S
C958 C959 1.417 . S
C958 C982 1.431 . S
C959 N955 1.350 . S
C959 C958 1.417 . S
C959 C962 1.426 . S
C960 H943 0.930 . S
C960 N955 1.307 . S
C960 C957 1.402 . S
N961 Gd924 2.573 1_455 S
N961 C962 1.395 . S
N961 C965 1.327 1_455 S
C962 C959 1.426 . S
C962 N961 1.395 . S
C962 C966 1.413 . S
C963 H954 0.930 . S
C963 C964 1.359 . S
C963 C965 1.394 1_455 S
C964 C963 1.359 . S
C964 C966 1.391 . S
C964 H967 0.929 . S
C965 H947 0.930 . S
C965 N961 1.327 1_655 S
C965 C963 1.394 1_655 S
C966 C962 1.413 . S
C966 C964 1.391 . S
C966 C981 1.437 . S
H967 C964 0.929 . S
O968 Gd924 2.545 . S
O968 C983 1.258 . S
O969 Gd924 2.606 . S
O969 Gd925 2.362 . S
O969 C980 1.284 . S
O970 Gd925 2.324 . S
O970 C990 1.254 . S
O971 Gd924 2.429 . S
O971 C990 1.268 . S
O972 Gd924 2.545 . S
O972 C980 1.250 . S
O973 Gd924 2.412 . S
O973 C983 1.252 . S
O974 Gd925 2.545 . S
O974 C992 1.258 . S
O975 Gd924 2.362 . S
O975 Gd925 2.606 . S
O975 C991 1.284 . S
O976 Gd924 2.324 . S
O976 C999 1.254 . S
O977 Gd925 2.429 . S
O977 C999 1.268 . S
O978 Gd925 2.545 . S
O978 C991 1.250 . S
O979 Gd925 2.412 . S
O979 C992 1.252 . S
C980 O969 1.284 . S
C980 O972 1.250 . S
C981 H950 0.929 . S
C981 C966 1.437 . S
C981 C982 1.317 . S
C982 H953 0.930 . S
C982 C958 1.431 . S
C982 C981 1.317 . S
C983 Gd924 2.828 . S
C983 O968 1.258 . S
C983 O973 1.252 . S
C983 C984 1.497 . S
C984 C983 1.497 . S
C984 C985 1.395 . S
C984 C986 1.380 . S
C985 C984 1.395 . S
C985 C988 1.398 . S
C985 H1000 0.930 . S
C986 C984 1.380 . S
C986 C987 1.391 . S
C986 H1001 0.930 . S
C987 C986 1.391 . S
C987 C989 1.387 . S
C988 C985 1.398 . S
C988 C989 1.380 . S
C988 H1002 0.930 . S
C989 C987 1.387 . S
C989 C988 1.380 . S
C989 H1003 0.930 . S
C990 O970 1.254 . S
C990 O971 1.268 . S
C991 O975 1.284 . S
C991 O978 1.250 . S
C992 Gd925 2.828 . S
C992 O974 1.258 . S
C992 O979 1.252 . S
C992 C993 1.497 . S
C993 C992 1.497 . S
C993 C994 1.395 . S
C993 C995 1.380 . S
C994 C993 1.395 . S
C994 C997 1.398 . S
C994 H1004 0.930 . S
C995 C993 1.380 . S
C995 C996 1.391 . S
C995 H1005 0.930 . S
C996 C995 1.391 . S
C996 C998 1.387 . S
C997 C994 1.398 . S
C997 C998 1.380 . S
C997 H1006 0.930 . S
C998 C996 1.387 . S
C998 C997 1.380 . S
C998 H1007 0.930 . S
C999 O976 1.254 . S
C999 O977 1.268 . S
H1000 C985 0.930 . S
H1001 C986 0.930 . S
H1002 C988 0.930 . S
H1003 C989 0.930 . S
H1004 C994 0.930 . S
H1005 C995 0.930 . S
H1006 C997 0.930 . S
H1007 C998 0.930 . S
Gd1008 N1039 2.661 . S
Gd1008 N1045 2.601 . S
Gd1008 O1052 2.545 . S
Gd1008 O1053 2.606 . S
Gd1008 O1055 2.429 . S
Gd1008 O1056 2.545 . S
Gd1008 O1057 2.412 . S
Gd1008 O1059 2.362 . S
Gd1008 O1060 2.324 . S
Gd1008 C1067 2.828 . S
Gd1009 N1018 2.661 . S
Gd1009 N1022 2.601 . S
Gd1009 O1053 2.362 . S
Gd1009 O1054 2.324 . S
Gd1009 O1058 2.545 . S
Gd1009 O1059 2.606 . S
Gd1009 O1061 2.429 . S
Gd1009 O1062 2.545 . S
Gd1009 O1063 2.412 . S
Gd1009 C1076 2.828 . S
C1010 C1013 1.417 . S
C1010 C1015 1.431 . S
C1010 C1016 1.412 . S
C1011 C1014 1.437 . S
C1011 C1015 1.317 . S
C1011 H1030 0.929 . S
C1012 C1013 1.426 . S
C1012 C1014 1.413 . S
C1012 N1022 1.359 . S
C1013 C1010 1.417 . S
C1013 C1012 1.426 . S
C1013 N1018 1.350 . S
C1014 C1011 1.437 . S
C1014 C1012 1.413 . S
C1014 C1024 1.391 . S
C1015 C1010 1.431 . S
C1015 C1011 1.317 . S
C1015 H1026 0.930 . S
C1016 C1010 1.412 . S
C1016 C1017 1.355 . S
C1016 H1028 0.930 . S
C1017 C1016 1.355 . S
C1017 C1019 1.402 . S
C1017 H1029 0.930 . S
N1018 Gd1009 2.661 . S
N1018 C1013 1.350 . S
N1018 C1019 1.307 . S
C1019 C1017 1.402 . S
C1019 N1018 1.307 . S
C1019 H1020 0.930 . S
H1020 C1019 0.930 . S
C1021 N1022 1.334 . S
C1021 C1023 1.394 . S
C1021 H1025 0.930 . S
N1022 Gd1009 2.601 . S
N1022 C1012 1.359 . S
N1022 C1021 1.334 . S
C1023 C1021 1.394 . S
C1023 C1024 1.359 . S
C1023 H1035 0.930 . S
C1024 C1014 1.391 . S
C1024 C1023 1.359 . S
C1024 H1036 0.929 . S
H1025 C1021 0.930 . S
H1026 C1015 0.930 . S
H1027 C1044 0.930 . S
H1028 C1016 0.930 . S
H1029 C1017 0.930 . S
H1030 C1011 0.929 . S
H1031 C1049 0.930 . S
H1032 C1040 0.930 . S
H1033 C1041 0.930 . S
H1034 C1065 0.929 . S
H1035 C1023 0.930 . S
H1036 C1024 0.929 . S
H1037 C1066 0.930 . S
H1038 C1047 0.930 . S
N1039 Gd1008 2.661 . S
N1039 C1043 1.350 . S
N1039 C1044 1.307 . S
C1040 H1032 0.930 . S
C1040 C1041 1.355 . S
C1040 C1042 1.412 . S
C1041 H1033 0.930 . S
C1041 C1040 1.355 . S
C1041 C1044 1.402 . S
C1042 C1040 1.412 . S
C1042 C1043 1.417 . S
C1042 C1066 1.431 . S
C1043 N1039 1.350 . S
C1043 C1042 1.417 . S
C1043 C1046 1.426 . S
C1044 H1027 0.930 . S
C1044 N1039 1.307 . S
C1044 C1041 1.402 . S
N1045 Gd1008 2.601 . S
N1045 C1046 1.359 . S
N1045 C1049 1.334 . S
C1046 C1043 1.426 . S
C1046 N1045 1.359 . S
C1046 C1050 1.413 . S
C1047 H1038 0.930 . S
C1047 C1048 1.359 . S
C1047 C1049 1.394 . S
C1048 C1047 1.359 . S
C1048 C1050 1.391 . S
C1048 H1051 0.929 . S
C1049 H1031 0.930 . S
C1049 N1045 1.334 . S
C1049 C1047 1.394 . S
C1050 C1046 1.413 . S
C1050 C1048 1.391 . S
C1050 C1065 1.437 . S
H1051 C1048 0.929 . S
O1052 Gd1008 2.545 . S
O1052 C1067 1.258 . S
O1053 Gd1008 2.606 . S
O1053 Gd1009 2.362 . S
O1053 C1064 1.284 . S
O1054 Gd1009 2.324 . S
O1054 C1074 1.254 . S
O1055 Gd1008 2.429 . S
O1055 C1074 1.268 . S
O1056 Gd1008 2.545 . S
O1056 C1064 1.250 . S
O1057 Gd1008 2.412 . S
O1057 C1067 1.252 . S
O1058 Gd1009 2.545 . S
O1058 C1076 1.258 . S
O1059 Gd1008 2.362 . S
O1059 Gd1009 2.606 . S
O1059 C1075 1.284 . S
O1060 Gd1008 2.324 . S
O1060 C1083 1.254 . S
O1061 Gd1009 2.429 . S
O1061 C1083 1.268 . S
O1062 Gd1009 2.545 . S
O1062 C1075 1.250 . S
O1063 Gd1009 2.412 . S
O1063 C1076 1.252 . S
C1064 O1053 1.284 . S
C1064 O1056 1.250 . S
C1065 H1034 0.929 . S
C1065 C1050 1.437 . S
C1065 C1066 1.317 . S
C1066 H1037 0.930 . S
C1066 C1042 1.431 . S
C1066 C1065 1.317 . S
C1067 Gd1008 2.828 . S
C1067 O1052 1.258 . S
C1067 O1057 1.252 . S
C1067 C1068 1.497 . S
C1068 C1067 1.497 . S
C1068 C1069 1.395 . S
C1068 C1070 1.380 . S
C1069 C1068 1.395 . S
C1069 C1072 1.398 . S
C1069 H1084 0.930 . S
C1070 C1068 1.380 . S
C1070 C1071 1.391 . S
C1070 H1085 0.930 . S
C1071 C1070 1.391 . S
C1071 C1073 1.387 . S
C1072 C1069 1.398 . S
C1072 C1073 1.380 . S
C1072 H1086 0.930 . S
C1073 C1071 1.387 . S
C1073 C1072 1.380 . S
C1073 H1087 0.930 . S
C1074 O1054 1.254 . S
C1074 O1055 1.268 . S
C1075 O1059 1.284 . S
C1075 O1062 1.250 . S
C1076 Gd1009 2.828 . S
C1076 O1058 1.258 . S
C1076 O1063 1.252 . S
C1076 C1077 1.497 . S
C1077 C1076 1.497 . S
C1077 C1078 1.395 1_554 S
C1077 C1079 1.380 1_554 S
C1078 C1077 1.395 1_556 S
C1078 C1081 1.398 . S
C1078 H1088 0.930 1_556 S
C1079 C1077 1.380 1_556 S
C1079 C1080 1.391 . S
C1079 H1089 0.930 . S
C1080 C1079 1.391 . S
C1080 C1082 1.387 . S
C1081 C1078 1.398 . S
C1081 C1082 1.380 . S
C1081 H1090 0.930 . S
C1082 C1080 1.387 . S
C1082 C1081 1.380 . S
C1082 H1091 0.930 . S
C1083 O1060 1.254 . S
C1083 O1061 1.268 . S
H1084 C1069 0.930 . S
H1085 C1070 0.930 . S
H1086 C1072 0.930 . S
H1087 C1073 0.930 . S
H1088 C1078 0.930 1_554 S
H1089 C1079 0.930 . S
H1090 C1081 0.930 . S
H1091 C1082 0.930 . S
Gd1092 N1123 2.661 . S
Gd1092 N1129 2.601 . S
Gd1092 O1136 2.545 . S
Gd1092 O1137 2.606 . S
Gd1092 O1139 2.429 . S
Gd1092 O1140 2.545 . S
Gd1092 O1141 2.412 . S
Gd1092 O1143 2.362 . S
Gd1092 O1144 2.324 . S
Gd1092 C1151 2.828 . S
Gd1093 N1102 2.661 1_455 S
Gd1093 N1106 2.574 1_455 S
Gd1093 O1137 2.362 . S
Gd1093 O1138 2.324 . S
Gd1093 O1142 2.545 . S
Gd1093 O1143 2.606 . S
Gd1093 O1145 2.429 . S
Gd1093 O1146 2.545 . S
Gd1093 O1147 2.412 . S
Gd1093 C1160 2.828 . S
C1094 C1097 1.417 . S
C1094 C1099 1.431 . S
C1094 C1100 1.412 . S
C1095 C1098 1.437 . S
C1095 C1099 1.317 . S
C1095 H1114 0.929 . S
C1096 C1097 1.426 . S
C1096 C1098 1.413 . S
C1096 N1106 1.395 . S
C1097 C1094 1.417 . S
C1097 C1096 1.426 . S
C1097 N1102 1.350 . S
C1098 C1095 1.437 . S
C1098 C1096 1.413 . S
C1098 C1108 1.391 . S
C1099 C1094 1.431 . S
C1099 C1095 1.317 . S
C1099 H1110 0.930 . S
C1100 C1094 1.412 . S
C1100 C1101 1.355 . S
C1100 H1112 0.930 . S
C1101 C1100 1.355 . S
C1101 C1103 1.402 . S
C1101 H1113 0.930 . S
N1102 Gd1093 2.661 1_655 S
N1102 C1097 1.350 . S
N1102 C1103 1.307 . S
C1103 C1101 1.402 . S
C1103 N1102 1.307 . S
C1103 H1104 0.930 . S
H1104 C1103 0.930 . S
C1105 N1106 1.327 1_455 S
C1105 C1107 1.394 1_455 S
C1105 H1109 0.930 . S
N1106 Gd1093 2.574 1_655 S
N1106 C1096 1.395 . S
N1106 C1105 1.327 1_655 S
C1107 C1105 1.394 1_655 S
C1107 C1108 1.359 . S
C1107 H1119 0.930 . S
C1108 C1098 1.391 . S
C1108 C1107 1.359 . S
C1108 H1120 0.929 . S
H1109 C1105 0.930 . S
H1110 C1099 0.930 . S
H1111 C1128 0.930 . S
H1112 C1100 0.930 . S
H1113 C1101 0.930 . S
H1114 C1095 0.929 . S
H1115 C1133 0.930 . S
H1116 C1124 0.930 . S
H1117 C1125 0.930 . S
H1118 C1149 0.929 . S
H1119 C1107 0.930 . S
H1120 C1108 0.929 . S
H1121 C1150 0.930 . S
H1122 C1131 0.930 . S
N1123 Gd1092 2.661 . S
N1123 C1127 1.350 . S
N1123 C1128 1.307 . S
C1124 H1116 0.930 . S
C1124 C1125 1.355 . S
C1124 C1126 1.412 . S
C1125 H1117 0.930 . S
C1125 C1124 1.355 . S
C1125 C1128 1.402 . S
C1126 C1124 1.412 . S
C1126 C1127 1.417 . S
C1126 C1150 1.431 . S
C1127 N1123 1.350 . S
C1127 C1126 1.417 . S
C1127 C1130 1.426 . S
C1128 H1111 0.930 . S
C1128 N1123 1.307 . S
C1128 C1125 1.402 . S
N1129 Gd1092 2.601 . S
N1129 C1130 1.359 . S
N1129 C1133 1.334 . S
C1130 C1127 1.426 . S
C1130 N1129 1.359 . S
C1130 C1134 1.413 . S
C1131 H1122 0.930 . S
C1131 C1132 1.359 . S
C1131 C1133 1.394 . S
C1132 C1131 1.359 . S
C1132 C1134 1.391 . S
C1132 H1135 0.929 . S
C1133 H1115 0.930 . S
C1133 N1129 1.334 . S
C1133 C1131 1.394 . S
C1134 C1130 1.413 . S
C1134 C1132 1.391 . S
C1134 C1149 1.437 . S
H1135 C1132 0.929 . S
O1136 Gd1092 2.545 . S
O1136 C1151 1.258 . S
O1137 Gd1092 2.606 . S
O1137 Gd1093 2.362 . S
O1137 C1148 1.284 . S
O1138 Gd1093 2.324 . S
O1138 C1158 1.254 . S
O1139 Gd1092 2.429 . S
O1139 C1158 1.268 . S
O1140 Gd1092 2.545 . S
O1140 C1148 1.250 . S
O1141 Gd1092 2.412 . S
O1141 C1151 1.252 . S
O1142 Gd1093 2.545 . S
O1142 C1160 1.258 . S
O1143 Gd1092 2.362 . S
O1143 Gd1093 2.606 . S
O1143 C1159 1.284 . S
O1144 Gd1092 2.324 . S
O1144 C1167 1.254 . S
O1145 Gd1093 2.429 . S
O1145 C1167 1.268 . S
O1146 Gd1093 2.545 . S
O1146 C1159 1.250 . S
O1147 Gd1093 2.412 . S
O1147 C1160 1.252 . S
C1148 O1137 1.284 . S
C1148 O1140 1.250 . S
C1149 H1118 0.929 . S
C1149 C1134 1.437 . S
C1149 C1150 1.317 . S
C1150 H1121 0.930 . S
C1150 C1126 1.431 . S
C1150 C1149 1.317 . S
C1151 Gd1092 2.828 . S
C1151 O1136 1.258 . S
C1151 O1141 1.252 . S
C1151 C1152 1.497 . S
C1152 C1151 1.497 . S
C1152 C1153 1.395 . S
C1152 C1154 1.380 . S
C1153 C1152 1.395 . S
C1153 C1156 1.398 . S
C1153 H1168 0.930 . S
C1154 C1152 1.380 . S
C1154 C1155 1.391 . S
C1154 H1169 0.930 . S
C1155 C1154 1.391 . S
C1155 C1157 1.387 . S
C1156 C1153 1.398 . S
C1156 C1157 1.380 . S
C1156 H1170 0.930 . S
C1157 C1155 1.387 . S
C1157 C1156 1.380 . S
C1157 H1171 0.930 . S
C1158 O1138 1.254 . S
C1158 O1139 1.268 . S
C1159 O1143 1.284 . S
C1159 O1146 1.250 . S
C1160 Gd1093 2.828 . S
C1160 O1142 1.258 . S
C1160 O1147 1.252 . S
C1160 C1161 1.497 . S
C1161 C1160 1.497 . S
C1161 C1162 1.395 1_554 S
C1161 C1163 1.380 1_554 S
C1162 C1161 1.395 1_556 S
C1162 C1165 1.398 . S
C1162 H1172 0.930 1_556 S
C1163 C1161 1.380 1_556 S
C1163 C1164 1.391 . S
C1163 H1173 0.930 . S
C1164 C1163 1.391 . S
C1164 C1166 1.387 . S
C1165 C1162 1.398 . S
C1165 C1166 1.380 . S
C1165 H1174 0.930 . S
C1166 C1164 1.387 . S
C1166 C1165 1.380 . S
C1166 H1175 0.930 . S
C1167 O1144 1.254 . S
C1167 O1145 1.268 . S
H1168 C1153 0.930 . S
H1169 C1154 0.930 . S
H1170 C1156 0.930 . S
H1171 C1157 0.930 . S
H1172 C1162 0.930 1_554 S
H1173 C1163 0.930 . S
H1174 C1165 0.930 . S
H1175 C1166 0.930 . S
Gd1176 N1207 2.661 . S
Gd1176 N1213 2.601 . S
Gd1176 O1220 2.545 . S
Gd1176 O1221 2.606 . S
Gd1176 O1223 2.429 . S
Gd1176 O1224 2.545 . S
Gd1176 O1225 2.412 . S
Gd1176 O1227 2.362 . S
Gd1176 O1228 2.324 . S
Gd1176 C1235 2.828 . S
Gd1177 N1186 2.661 . S
Gd1177 N1190 2.601 . S
Gd1177 O1221 2.362 . S
Gd1177 O1222 2.324 . S
Gd1177 O1226 2.545 . S
Gd1177 O1227 2.606 . S
Gd1177 O1229 2.429 . S
Gd1177 O1230 2.545 . S
Gd1177 O1231 2.412 . S
Gd1177 C1244 2.828 . S
C1178 C1181 1.417 . S
C1178 C1183 1.431 . S
C1178 C1184 1.412 . S
C1179 C1182 1.437 . S
C1179 C1183 1.317 . S
C1179 H1198 0.929 . S
C1180 C1181 1.426 . S
C1180 C1182 1.413 . S
C1180 N1190 1.359 . S
C1181 C1178 1.417 . S
C1181 C1180 1.426 . S
C1181 N1186 1.350 . S
C1182 C1179 1.437 . S
C1182 C1180 1.413 . S
C1182 C1192 1.391 . S
C1183 C1178 1.431 . S
C1183 C1179 1.317 . S
C1183 H1194 0.930 . S
C1184 C1178 1.412 . S
C1184 C1185 1.355 . S
C1184 H1196 0.930 . S
C1185 C1184 1.355 . S
C1185 C1187 1.402 . S
C1185 H1197 0.930 . S
N1186 Gd1177 2.661 . S
N1186 C1181 1.350 . S
N1186 C1187 1.307 . S
C1187 C1185 1.402 . S
C1187 N1186 1.307 . S
C1187 H1188 0.930 . S
H1188 C1187 0.930 . S
C1189 N1190 1.334 . S
C1189 C1191 1.394 . S
C1189 H1193 0.930 . S
N1190 Gd1177 2.601 . S
N1190 C1180 1.359 . S
N1190 C1189 1.334 . S
C1191 C1189 1.394 . S
C1191 C1192 1.359 . S
C1191 H1203 0.930 . S
C1192 C1182 1.391 . S
C1192 C1191 1.359 . S
C1192 H1204 0.929 . S
H1193 C1189 0.930 . S
H1194 C1183 0.930 . S
H1195 C1212 0.930 . S
H1196 C1184 0.930 . S
H1197 C1185 0.930 . S
H1198 C1179 0.929 . S
H1199 C1217 0.930 . S
H1200 C1208 0.930 . S
H1201 C1209 0.930 . S
H1202 C1233 0.929 . S
H1203 C1191 0.930 . S
H1204 C1192 0.929 . S
H1205 C1234 0.930 . S
H1206 C1215 0.930 . S
N1207 Gd1176 2.661 . S
N1207 C1211 1.350 . S
N1207 C1212 1.307 . S
C1208 H1200 0.930 . S
C1208 C1209 1.355 . S
C1208 C1210 1.412 . S
C1209 H1201 0.930 . S
C1209 C1208 1.355 . S
C1209 C1212 1.402 . S
C1210 C1208 1.412 . S
C1210 C1211 1.417 . S
C1210 C1234 1.431 . S
C1211 N1207 1.350 . S
C1211 C1210 1.417 . S
C1211 C1214 1.426 . S
C1212 H1195 0.930 . S
C1212 N1207 1.307 . S
C1212 C1209 1.402 . S
N1213 Gd1176 2.601 . S
N1213 C1214 1.359 . S
N1213 C1217 1.334 . S
C1214 C1211 1.426 . S
C1214 N1213 1.359 . S
C1214 C1218 1.413 . S
C1215 H1206 0.930 . S
C1215 C1216 1.359 . S
C1215 C1217 1.394 . S
C1216 C1215 1.359 . S
C1216 C1218 1.391 . S
C1216 H1219 0.929 . S
C1217 H1199 0.930 . S
C1217 N1213 1.334 . S
C1217 C1215 1.394 . S
C1218 C1214 1.413 . S
C1218 C1216 1.391 . S
C1218 C1233 1.437 . S
H1219 C1216 0.929 . S
O1220 Gd1176 2.545 . S
O1220 C1235 1.258 . S
O1221 Gd1176 2.606 . S
O1221 Gd1177 2.362 . S
O1221 C1232 1.284 . S
O1222 Gd1177 2.324 . S
O1222 C1242 1.254 . S
O1223 Gd1176 2.429 . S
O1223 C1242 1.268 . S
O1224 Gd1176 2.545 . S
O1224 C1232 1.250 . S
O1225 Gd1176 2.412 . S
O1225 C1235 1.252 . S
O1226 Gd1177 2.545 . S
O1226 C1244 1.258 . S
O1227 Gd1176 2.362 . S
O1227 Gd1177 2.606 . S
O1227 C1243 1.284 . S
O1228 Gd1176 2.324 . S
O1228 C1251 1.254 . S
O1229 Gd1177 2.429 . S
O1229 C1251 1.268 . S
O1230 Gd1177 2.545 . S
O1230 C1243 1.250 . S
O1231 Gd1177 2.412 . S
O1231 C1244 1.252 . S
C1232 O1221 1.284 . S
C1232 O1224 1.250 . S
C1233 H1202 0.929 . S
C1233 C1218 1.437 . S
C1233 C1234 1.317 . S
C1234 H1205 0.930 . S
C1234 C1210 1.431 . S
C1234 C1233 1.317 . S
C1235 Gd1176 2.828 . S
C1235 O1220 1.258 . S
C1235 O1225 1.252 . S
C1235 C1236 1.497 . S
C1236 C1235 1.497 . S
C1236 C1237 1.395 . S
C1236 C1238 1.380 . S
C1237 C1236 1.395 . S
C1237 C1240 1.398 . S
C1237 H1252 0.930 . S
C1238 C1236 1.380 . S
C1238 C1239 1.391 . S
C1238 H1253 0.930 . S
C1239 C1238 1.391 . S
C1239 C1241 1.387 . S
C1240 C1237 1.398 . S
C1240 C1241 1.380 . S
C1240 H1254 0.930 . S
C1241 C1239 1.387 . S
C1241 C1240 1.380 . S
C1241 H1255 0.930 . S
C1242 O1222 1.254 . S
C1242 O1223 1.268 . S
C1243 O1227 1.284 . S
C1243 O1230 1.250 . S
C1244 Gd1177 2.828 . S
C1244 O1226 1.258 . S
C1244 O1231 1.252 . S
C1244 C1245 1.497 . S
C1245 C1244 1.497 . S
C1245 C1246 1.395 . S
C1245 C1247 1.380 . S
C1246 C1245 1.395 . S
C1246 C1249 1.398 . S
C1246 H1256 0.930 . S
C1247 C1245 1.380 . S
C1247 C1248 1.391 . S
C1247 H1257 0.930 . S
C1248 C1247 1.391 . S
C1248 C1250 1.387 . S
C1249 C1246 1.398 . S
C1249 C1250 1.380 . S
C1249 H1258 0.930 . S
C1250 C1248 1.387 . S
C1250 C1249 1.380 . S
C1250 H1259 0.930 . S
C1251 O1228 1.254 . S
C1251 O1229 1.268 . S
H1252 C1237 0.930 . S
H1253 C1238 0.930 . S
H1254 C1240 0.930 . S
H1255 C1241 0.930 . S
H1256 C1246 0.930 . S
H1257 C1247 0.930 . S
H1258 C1249 0.930 . S
H1259 C1250 0.930 . S
Gd1260 N1291 2.661 . S
Gd1260 N1297 2.601 . S
Gd1260 O1304 2.545 . S
Gd1260 O1305 2.606 . S
Gd1260 O1307 2.429 . S
Gd1260 O1308 2.545 . S
Gd1260 O1309 2.412 . S
Gd1260 O1311 2.362 . S
Gd1260 O1312 2.324 . S
Gd1260 C1319 2.828 . S
Gd1261 N1270 2.661 1_455 S
Gd1261 N1274 2.573 1_455 S
Gd1261 O1305 2.362 . S
Gd1261 O1306 2.324 . S
Gd1261 O1310 2.545 . S
Gd1261 O1311 2.606 . S
Gd1261 O1313 2.429 . S
Gd1261 O1314 2.545 . S
Gd1261 O1315 2.412 . S
Gd1261 C1328 2.828 . S
C1262 C1265 1.417 . S
C1262 C1267 1.431 . S
C1262 C1268 1.412 . S
C1263 C1266 1.437 . S
C1263 C1267 1.317 . S
C1263 H1282 0.929 . S
C1264 C1265 1.426 . S
C1264 C1266 1.413 . S
C1264 N1274 1.395 . S
C1265 C1262 1.417 . S
C1265 C1264 1.426 . S
C1265 N1270 1.350 . S
C1266 C1263 1.437 . S
C1266 C1264 1.413 . S
C1266 C1276 1.391 . S
C1267 C1262 1.431 . S
C1267 C1263 1.317 . S
C1267 H1278 0.930 . S
C1268 C1262 1.412 . S
C1268 C1269 1.355 . S
C1268 H1280 0.930 . S
C1269 C1268 1.355 . S
C1269 C1271 1.402 . S
C1269 H1281 0.930 . S
N1270 Gd1261 2.661 1_655 S
N1270 C1265 1.350 . S
N1270 C1271 1.307 . S
C1271 C1269 1.402 . S
C1271 N1270 1.307 . S
C1271 H1272 0.930 . S
H1272 C1271 0.930 . S
C1273 N1274 1.327 1_455 S
C1273 C1275 1.394 1_455 S
C1273 H1277 0.930 . S
N1274 Gd1261 2.573 1_655 S
N1274 C1264 1.395 . S
N1274 C1273 1.327 1_655 S
C1275 C1273 1.394 1_655 S
C1275 C1276 1.359 . S
C1275 H1287 0.930 . S
C1276 C1266 1.391 . S
C1276 C1275 1.359 . S
C1276 H1288 0.929 . S
H1277 C1273 0.930 . S
H1278 C1267 0.930 . S
H1279 C1296 0.930 . S
H1280 C1268 0.930 . S
H1281 C1269 0.930 . S
H1282 C1263 0.929 . S
H1283 C1301 0.930 . S
H1284 C1292 0.930 . S
H1285 C1293 0.930 . S
H1286 C1317 0.929 . S
H1287 C1275 0.930 . S
H1288 C1276 0.929 . S
H1289 C1318 0.930 . S
H1290 C1299 0.930 . S
N1291 Gd1260 2.661 . S
N1291 C1295 1.350 . S
N1291 C1296 1.307 . S
C1292 H1284 0.930 . S
C1292 C1293 1.355 . S
C1292 C1294 1.412 . S
C1293 H1285 0.930 . S
C1293 C1292 1.355 . S
C1293 C1296 1.402 . S
C1294 C1292 1.412 . S
C1294 C1295 1.417 . S
C1294 C1318 1.431 . S
C1295 N1291 1.350 . S
C1295 C1294 1.417 . S
C1295 C1298 1.426 . S
C1296 H1279 0.930 . S
C1296 N1291 1.307 . S
C1296 C1293 1.402 . S
N1297 Gd1260 2.601 . S
N1297 C1298 1.359 . S
N1297 C1301 1.334 . S
C1298 C1295 1.426 . S
C1298 N1297 1.359 . S
C1298 C1302 1.413 . S
C1299 H1290 0.930 . S
C1299 C1300 1.359 . S
C1299 C1301 1.394 . S
C1300 C1299 1.359 . S
C1300 C1302 1.391 . S
C1300 H1303 0.929 . S
C1301 H1283 0.930 . S
C1301 N1297 1.334 . S
C1301 C1299 1.394 . S
C1302 C1298 1.413 . S
C1302 C1300 1.391 . S
C1302 C1317 1.437 . S
H1303 C1300 0.929 . S
O1304 Gd1260 2.545 . S
O1304 C1319 1.258 . S
O1305 Gd1260 2.606 . S
O1305 Gd1261 2.362 . S
O1305 C1316 1.284 . S
O1306 Gd1261 2.324 . S
O1306 C1326 1.254 . S
O1307 Gd1260 2.429 . S
O1307 C1326 1.268 . S
O1308 Gd1260 2.545 . S
O1308 C1316 1.250 . S
O1309 Gd1260 2.412 . S
O1309 C1319 1.252 . S
O1310 Gd1261 2.545 . S
O1310 C1328 1.258 . S
O1311 Gd1260 2.362 . S
O1311 Gd1261 2.606 . S
O1311 C1327 1.284 . S
O1312 Gd1260 2.324 . S
O1312 C1335 1.254 . S
O1313 Gd1261 2.429 . S
O1313 C1335 1.268 . S
O1314 Gd1261 2.545 . S
O1314 C1327 1.250 . S
O1315 Gd1261 2.412 . S
O1315 C1328 1.252 . S
C1316 O1305 1.284 . S
C1316 O1308 1.250 . S
C1317 H1286 0.929 . S
C1317 C1302 1.437 . S
C1317 C1318 1.317 . S
C1318 H1289 0.930 . S
C1318 C1294 1.431 . S
C1318 C1317 1.317 . S
C1319 Gd1260 2.828 . S
C1319 O1304 1.258 . S
C1319 O1309 1.252 . S
C1319 C1320 1.497 . S
C1320 C1319 1.497 . S
C1320 C1321 1.395 . S
C1320 C1322 1.380 . S
C1321 C1320 1.395 . S
C1321 C1324 1.398 . S
C1321 H1336 0.930 . S
C1322 C1320 1.380 . S
C1322 C1323 1.391 . S
C1322 H1337 0.930 . S
C1323 C1322 1.391 . S
C1323 C1325 1.387 . S
C1324 C1321 1.398 . S
C1324 C1325 1.380 . S
C1324 H1338 0.930 . S
C1325 C1323 1.387 . S
C1325 C1324 1.380 . S
C1325 H1339 0.930 . S
C1326 O1306 1.254 . S
C1326 O1307 1.268 . S
C1327 O1311 1.284 . S
C1327 O1314 1.250 . S
C1328 Gd1261 2.828 . S
C1328 O1310 1.258 . S
C1328 O1315 1.252 . S
C1328 C1329 1.497 . S
C1329 C1328 1.497 . S
C1329 C1330 1.395 . S
C1329 C1331 1.380 . S
C1330 C1329 1.395 . S
C1330 C1333 1.398 . S
C1330 H1340 0.930 . S
C1331 C1329 1.380 . S
C1331 C1332 1.391 . S
C1331 H1341 0.930 . S
C1332 C1331 1.391 . S
C1332 C1334 1.387 . S
C1333 C1330 1.398 . S
C1333 C1334 1.380 . S
C1333 H1342 0.930 . S
C1334 C1332 1.387 . S
C1334 C1333 1.380 . S
C1334 H1343 0.930 . S
C1335 O1312 1.254 . S
C1335 O1313 1.268 . S
H1336 C1321 0.930 . S
H1337 C1322 0.930 . S
H1338 C1324 0.930 . S
H1339 C1325 0.930 . S
H1340 C1330 0.930 . S
H1341 C1331 0.930 . S
H1342 C1333 0.930 . S
H1343 C1334 0.930 . S
Gd1344 N1375 2.661 . S
Gd1344 N1381 2.601 . S
Gd1344 O1388 2.545 . S
Gd1344 O1389 2.606 . S
Gd1344 O1391 2.429 . S
Gd1344 O1392 2.545 . S
Gd1344 O1393 2.412 . S
Gd1344 O1395 2.362 . S
Gd1344 O1396 2.324 . S
Gd1344 C1403 2.828 . S
Gd1345 N1354 2.661 . S
Gd1345 N1358 2.601 . S
Gd1345 O1389 2.362 . S
Gd1345 O1390 2.324 . S
Gd1345 O1394 2.545 . S
Gd1345 O1395 2.606 . S
Gd1345 O1397 2.429 . S
Gd1345 O1398 2.545 . S
Gd1345 O1399 2.412 . S
Gd1345 C1412 2.828 . S
C1346 C1349 1.417 . S
C1346 C1351 1.431 . S
C1346 C1352 1.412 . S
C1347 C1350 1.437 . S
C1347 C1351 1.317 . S
C1347 H1366 0.929 . S
C1348 C1349 1.426 . S
C1348 C1350 1.413 . S
C1348 N1358 1.359 . S
C1349 C1346 1.417 . S
C1349 C1348 1.426 . S
C1349 N1354 1.350 . S
C1350 C1347 1.437 . S
C1350 C1348 1.413 . S
C1350 C1360 1.391 . S
C1351 C1346 1.431 . S
C1351 C1347 1.317 . S
C1351 H1362 0.930 . S
C1352 C1346 1.412 . S
C1352 C1353 1.355 . S
C1352 H1364 0.930 . S
C1353 C1352 1.355 . S
C1353 C1355 1.402 . S
C1353 H1365 0.930 . S
N1354 Gd1345 2.661 . S
N1354 C1349 1.350 . S
N1354 C1355 1.307 . S
C1355 C1353 1.402 . S
C1355 N1354 1.307 . S
C1355 H1356 0.930 . S
H1356 C1355 0.930 . S
C1357 N1358 1.334 . S
C1357 C1359 1.394 . S
C1357 H1361 0.930 . S
N1358 Gd1345 2.601 . S
N1358 C1348 1.359 . S
N1358 C1357 1.334 . S
C1359 C1357 1.394 . S
C1359 C1360 1.359 . S
C1359 H1371 0.930 . S
C1360 C1350 1.391 . S
C1360 C1359 1.359 . S
C1360 H1372 0.929 . S
H1361 C1357 0.930 . S
H1362 C1351 0.930 . S
H1363 C1380 0.930 . S
H1364 C1352 0.930 . S
H1365 C1353 0.930 . S
H1366 C1347 0.929 . S
H1367 C1385 0.930 . S
H1368 C1376 0.930 . S
H1369 C1377 0.930 . S
H1370 C1401 0.929 . S
H1371 C1359 0.930 . S
H1372 C1360 0.929 . S
H1373 C1402 0.930 . S
H1374 C1383 0.930 . S
N1375 Gd1344 2.661 . S
N1375 C1379 1.350 . S
N1375 C1380 1.307 . S
C1376 H1368 0.930 . S
C1376 C1377 1.355 . S
C1376 C1378 1.412 . S
C1377 H1369 0.930 . S
C1377 C1376 1.355 . S
C1377 C1380 1.402 . S
C1378 C1376 1.412 . S
C1378 C1379 1.417 . S
C1378 C1402 1.431 . S
C1379 N1375 1.350 . S
C1379 C1378 1.417 . S
C1379 C1382 1.426 . S
C1380 H1363 0.930 . S
C1380 N1375 1.307 . S
C1380 C1377 1.402 . S
N1381 Gd1344 2.601 . S
N1381 C1382 1.359 . S
N1381 C1385 1.334 . S
C1382 C1379 1.426 . S
C1382 N1381 1.359 . S
C1382 C1386 1.413 . S
C1383 H1374 0.930 . S
C1383 C1384 1.359 . S
C1383 C1385 1.394 . S
C1384 C1383 1.359 . S
C1384 C1386 1.391 . S
C1384 H1387 0.929 . S
C1385 H1367 0.930 . S
C1385 N1381 1.334 . S
C1385 C1383 1.394 . S
C1386 C1382 1.413 . S
C1386 C1384 1.391 . S
C1386 C1401 1.437 . S
H1387 C1384 0.929 . S
O1388 Gd1344 2.545 . S
O1388 C1403 1.258 . S
O1389 Gd1344 2.606 . S
O1389 Gd1345 2.362 . S
O1389 C1400 1.284 . S
O1390 Gd1345 2.324 . S
O1390 C1410 1.254 . S
O1391 Gd1344 2.429 . S
O1391 C1410 1.268 . S
O1392 Gd1344 2.545 . S
O1392 C1400 1.250 . S
O1393 Gd1344 2.412 . S
O1393 C1403 1.252 . S
O1394 Gd1345 2.545 . S
O1394 C1412 1.258 . S
O1395 Gd1344 2.362 . S
O1395 Gd1345 2.606 . S
O1395 C1411 1.284 . S
O1396 Gd1344 2.324 . S
O1396 C1419 1.254 . S
O1397 Gd1345 2.429 . S
O1397 C1419 1.268 . S
O1398 Gd1345 2.545 . S
O1398 C1411 1.250 . S
O1399 Gd1345 2.412 . S
O1399 C1412 1.252 . S
C1400 O1389 1.284 . S
C1400 O1392 1.250 . S
C1401 H1370 0.929 . S
C1401 C1386 1.437 . S
C1401 C1402 1.317 . S
C1402 H1373 0.930 . S
C1402 C1378 1.431 . S
C1402 C1401 1.317 . S
C1403 Gd1344 2.828 . S
C1403 O1388 1.258 . S
C1403 O1393 1.252 . S
C1403 C1404 1.497 . S
C1404 C1403 1.497 . S
C1404 C1405 1.395 1_556 S
C1404 C1406 1.380 1_556 S
C1405 C1404 1.395 1_554 S
C1405 C1408 1.398 . S
C1405 H1420 0.930 1_554 S
C1406 C1404 1.380 1_554 S
C1406 C1407 1.391 . S
C1406 H1421 0.930 . S
C1407 C1406 1.391 . S
C1407 C1409 1.387 . S
C1408 C1405 1.398 . S
C1408 C1409 1.380 . S
C1408 H1422 0.930 . S
C1409 C1407 1.387 . S
C1409 C1408 1.380 . S
C1409 H1423 0.930 . S
C1410 O1390 1.254 . S
C1410 O1391 1.268 . S
C1411 O1395 1.284 . S
C1411 O1398 1.250 . S
C1412 Gd1345 2.828 . S
C1412 O1394 1.258 . S
C1412 O1399 1.252 . S
C1412 C1413 1.497 . S
C1413 C1412 1.497 . S
C1413 C1414 1.395 . S
C1413 C1415 1.380 . S
C1414 C1413 1.395 . S
C1414 C1417 1.398 . S
C1414 H1424 0.930 . S
C1415 C1413 1.380 . S
C1415 C1416 1.391 . S
C1415 H1425 0.930 . S
C1416 C1415 1.391 . S
C1416 C1418 1.387 . S
C1417 C1414 1.398 . S
C1417 C1418 1.380 . S
C1417 H1426 0.930 . S
C1418 C1416 1.387 . S
C1418 C1417 1.380 . S
C1418 H1427 0.930 . S
C1419 O1396 1.254 . S
C1419 O1397 1.268 . S
H1420 C1405 0.930 1_556 S
H1421 C1406 0.930 . S
H1422 C1408 0.930 . S
H1423 C1409 0.930 . S
H1424 C1414 0.930 . S
H1425 C1415 0.930 . S
H1426 C1417 0.930 . S
H1427 C1418 0.930 . S
Gd1428 N1459 2.661 1_545 S
Gd1428 N1465 2.601 . S
Gd1428 O1472 2.545 . S
Gd1428 O1473 2.606 1_545 S
Gd1428 O1475 2.429 . S
Gd1428 O1476 2.545 . S
Gd1428 O1477 2.420 . S
Gd1428 O1479 2.357 1_545 S
Gd1428 O1480 2.324 1_545 S
Gd1428 C1487 2.828 . S
Gd1429 N1438 2.661 1_565 S
Gd1429 N1442 2.601 . S
Gd1429 O1473 2.362 . S
Gd1429 O1474 2.324 1_565 S
Gd1429 O1478 2.545 . S
Gd1429 O1479 2.612 . S
Gd1429 O1481 2.429 . S
Gd1429 O1482 2.545 . S
Gd1429 O1483 2.412 . S
Gd1429 C1496 2.828 . S
C1430 C1433 1.417 . S
C1430 C1435 1.431 . S
C1430 C1436 1.412 1_565 S
C1431 C1434 1.437 . S
C1431 C1435 1.317 . S
C1431 H1450 0.929 . S
C1432 C1433 1.426 . S
C1432 C1434 1.413 . S
C1432 N1442 1.359 . S
C1433 C1430 1.417 . S
C1433 C1432 1.426 . S
C1433 N1438 1.350 1_565 S
C1434 C1431 1.437 . S
C1434 C1432 1.413 . S
C1434 C1444 1.391 . S
C1435 C1430 1.431 . S
C1435 C1431 1.317 . S
C1435 H1446 0.930 . S
C1436 C1430 1.412 1_545 S
C1436 C1437 1.355 . S
C1436 H1448 0.930 . S
C1437 C1436 1.355 . S
C1437 C1439 1.402 . S
C1437 H1449 0.930 . S
N1438 Gd1429 2.661 1_545 S
N1438 C1433 1.350 1_545 S
N1438 C1439 1.307 . S
C1439 C1437 1.402 . S
C1439 N1438 1.307 . S
C1439 H1440 0.930 . S
H1440 C1439 0.930 . S
C1441 N1442 1.334 . S
C1441 C1443 1.394 . S
C1441 H1445 0.930 . S
N1442 Gd1429 2.601 . S
N1442 C1432 1.359 . S
N1442 C1441 1.334 . S
C1443 C1441 1.394 . S
C1443 C1444 1.359 . S
C1443 H1455 0.930 . S
C1444 C1434 1.391 . S
C1444 C1443 1.359 . S
C1444 H1456 0.929 . S
H1445 C1441 0.930 . S
H1446 C1435 0.930 . S
H1447 C1464 0.930 . S
H1448 C1436 0.930 . S
H1449 C1437 0.930 . S
H1450 C1431 0.929 . S
H1451 C1469 0.930 . S
H1452 C1460 0.930 . S
H1453 C1461 0.930 . S
H1454 C1485 0.929 . S
H1455 C1443 0.930 . S
H1456 C1444 0.929 . S
H1457 C1486 0.930 . S
H1458 C1467 0.930 . S
N1459 Gd1428 2.661 1_565 S
N1459 C1463 1.350 1_565 S
N1459 C1464 1.307 . S
C1460 H1452 0.930 . S
C1460 C1461 1.355 . S
C1460 C1462 1.412 1_565 S
C1461 H1453 0.930 . S
C1461 C1460 1.355 . S
C1461 C1464 1.402 . S
C1462 C1460 1.412 1_545 S
C1462 C1463 1.417 . S
C1462 C1486 1.431 . S
C1463 N1459 1.350 1_545 S
C1463 C1462 1.417 . S
C1463 C1466 1.426 . S
C1464 H1447 0.930 . S
C1464 N1459 1.307 . S
C1464 C1461 1.402 . S
N1465 Gd1428 2.601 . S
N1465 C1466 1.359 . S
N1465 C1469 1.334 . S
C1466 C1463 1.426 . S
C1466 N1465 1.359 . S
C1466 C1470 1.413 . S
C1467 H1458 0.930 . S
C1467 C1468 1.359 . S
C1467 C1469 1.394 . S
C1468 C1467 1.359 . S
C1468 C1470 1.391 . S
C1468 H1471 0.929 . S
C1469 H1451 0.930 . S
C1469 N1465 1.334 . S
C1469 C1467 1.394 . S
C1470 C1466 1.413 . S
C1470 C1468 1.391 . S
C1470 C1485 1.437 . S
H1471 C1468 0.929 . S
O1472 Gd1428 2.545 . S
O1472 C1487 1.258 . S
O1473 Gd1428 2.606 1_565 S
O1473 Gd1429 2.362 . S
O1473 C1484 1.284 1_565 S
O1474 Gd1429 2.324 1_545 S
O1474 C1494 1.254 . S
O1475 Gd1428 2.429 . S
O1475 C1494 1.268 . S
O1476 Gd1428 2.545 . S
O1476 C1484 1.250 . S
O1477 Gd1428 2.420 . S
O1477 C1487 1.281 . S
O1478 Gd1429 2.545 . S
O1478 C1496 1.258 . S
O1479 Gd1428 2.357 1_565 S
O1479 Gd1429 2.612 . S
O1479 C1495 1.288 . S
O1480 Gd1428 2.324 1_565 S
O1480 C1503 1.254 . S
O1481 Gd1429 2.429 . S
O1481 C1503 1.268 . S
O1482 Gd1429 2.545 . S
O1482 C1495 1.250 . S
O1483 Gd1429 2.412 . S
O1483 C1496 1.252 . S
C1484 O1473 1.284 1_545 S
C1484 O1476 1.250 . S
C1485 H1454 0.929 . S
C1485 C1470 1.437 . S
C1485 C1486 1.317 . S
C1486 H1457 0.930 . S
C1486 C1462 1.431 . S
C1486 C1485 1.317 . S
C1487 Gd1428 2.828 . S
C1487 O1472 1.258 . S
C1487 O1477 1.281 . S
C1487 C1488 1.497 . S
C1488 C1487 1.497 . S
C1488 C1489 1.395 1_556 S
C1488 C1490 1.380 1_556 S
C1489 C1488 1.395 1_554 S
C1489 C1492 1.398 . S
C1489 H1504 0.930 1_554 S
C1490 C1488 1.380 1_554 S
C1490 C1491 1.391 . S
C1490 H1505 0.930 1_545 S
C1491 C1490 1.391 . S
C1491 C1493 1.387 . S
C1492 C1489 1.398 . S
C1492 C1493 1.380 . S
C1492 H1506 0.930 . S
C1493 C1491 1.387 . S
C1493 C1492 1.380 . S
C1493 H1507 0.930 . S
C1494 O1474 1.254 . S
C1494 O1475 1.268 . S
C1495 O1479 1.288 . S
C1495 O1482 1.250 . S
C1496 Gd1429 2.828 . S
C1496 O1478 1.258 . S
C1496 O1483 1.252 . S
C1496 C1497 1.497 . S
C1497 C1496 1.497 . S
C1497 C1498 1.395 . S
C1497 C1499 1.380 . S
C1498 C1497 1.395 . S
C1498 C1501 1.398 . S
C1498 H1508 0.930 . S
C1499 C1497 1.380 . S
C1499 C1500 1.391 . S
C1499 H1509 0.930 1_565 S
C1500 C1499 1.391 . S
C1500 C1502 1.387 . S
C1501 C1498 1.398 . S
C1501 C1502 1.380 . S
C1501 H1510 0.930 . S
C1502 C1500 1.387 . S
C1502 C1501 1.380 . S
C1502 H1511 0.930 . S
C1503 O1480 1.254 . S
C1503 O1481 1.268 . S
H1504 C1489 0.930 1_556 S
H1505 C1490 0.930 1_565 S
H1506 C1492 0.930 . S
H1507 C1493 0.930 . S
H1508 C1498 0.930 . S
H1509 C1499 0.930 1_545 S
H1510 C1501 0.930 . S
H1511 C1502 0.930 . S
Gd1512 N1543 2.661 1_545 S
Gd1512 N1549 2.601 . S
Gd1512 O1556 2.545 . S
Gd1512 O1557 2.606 1_545 S
Gd1512 O1559 2.429 . S
Gd1512 O1560 2.545 . S
Gd1512 O1561 2.420 . S
Gd1512 O1563 2.357 1_545 S
Gd1512 O1564 2.324 1_545 S
Gd1512 C1571 2.828 . S
Gd1513 N1522 2.661 1_565 S
Gd1513 N1526 2.601 . S
Gd1513 O1557 2.362 . S
Gd1513 O1558 2.324 1_565 S
Gd1513 O1562 2.545 . S
Gd1513 O1563 2.612 . S
Gd1513 O1565 2.429 . S
Gd1513 O1566 2.545 . S
Gd1513 O1567 2.412 . S
Gd1513 C1580 2.828 . S
C1514 C1517 1.417 . S
C1514 C1519 1.431 . S
C1514 C1520 1.412 1_565 S
C1515 C1518 1.437 . S
C1515 C1519 1.317 . S
C1515 H1534 0.929 . S
C1516 C1517 1.426 . S
C1516 C1518 1.413 . S
C1516 N1526 1.359 . S
C1517 C1514 1.417 . S
C1517 C1516 1.426 . S
C1517 N1522 1.350 1_565 S
C1518 C1515 1.437 . S
C1518 C1516 1.413 . S
C1518 C1528 1.391 . S
C1519 C1514 1.431 . S
C1519 C1515 1.317 . S
C1519 H1530 0.930 . S
C1520 C1514 1.412 1_545 S
C1520 C1521 1.355 . S
C1520 H1532 0.930 . S
C1521 C1520 1.355 . S
C1521 C1523 1.402 . S
C1521 H1533 0.930 . S
N1522 Gd1513 2.661 1_545 S
N1522 C1517 1.350 1_545 S
N1522 C1523 1.307 . S
C1523 C1521 1.402 . S
C1523 N1522 1.307 . S
C1523 H1524 0.930 . S
H1524 C1523 0.930 . S
C1525 N1526 1.334 . S
C1525 C1527 1.394 . S
C1525 H1529 0.930 . S
N1526 Gd1513 2.601 . S
N1526 C1516 1.359 . S
N1526 C1525 1.334 . S
C1527 C1525 1.394 . S
C1527 C1528 1.359 . S
C1527 H1539 0.930 . S
C1528 C1518 1.391 . S
C1528 C1527 1.359 . S
C1528 H1540 0.929 . S
H1529 C1525 0.930 . S
H1530 C1519 0.930 . S
H1531 C1548 0.930 . S
H1532 C1520 0.930 . S
H1533 C1521 0.930 . S
H1534 C1515 0.929 . S
H1535 C1553 0.930 . S
H1536 C1544 0.930 . S
H1537 C1545 0.930 . S
H1538 C1569 0.929 . S
H1539 C1527 0.930 . S
H1540 C1528 0.929 . S
H1541 C1570 0.930 . S
H1542 C1551 0.930 . S
N1543 Gd1512 2.661 1_565 S
N1543 C1547 1.350 1_565 S
N1543 C1548 1.307 . S
C1544 H1536 0.930 . S
C1544 C1545 1.355 . S
C1544 C1546 1.412 1_565 S
C1545 H1537 0.930 . S
C1545 C1544 1.355 . S
C1545 C1548 1.402 . S
C1546 C1544 1.412 1_545 S
C1546 C1547 1.417 . S
C1546 C1570 1.431 . S
C1547 N1543 1.350 1_545 S
C1547 C1546 1.417 . S
C1547 C1550 1.426 . S
C1548 H1531 0.930 . S
C1548 N1543 1.307 . S
C1548 C1545 1.402 . S
N1549 Gd1512 2.601 . S
N1549 C1550 1.359 . S
N1549 C1553 1.334 . S
C1550 C1547 1.426 . S
C1550 N1549 1.359 . S
C1550 C1554 1.413 . S
C1551 H1542 0.930 . S
C1551 C1552 1.359 . S
C1551 C1553 1.394 . S
C1552 C1551 1.359 . S
C1552 C1554 1.391 . S
C1552 H1555 0.929 . S
C1553 H1535 0.930 . S
C1553 N1549 1.334 . S
C1553 C1551 1.394 . S
C1554 C1550 1.413 . S
C1554 C1552 1.391 . S
C1554 C1569 1.437 . S
H1555 C1552 0.929 . S
O1556 Gd1512 2.545 . S
O1556 C1571 1.258 . S
O1557 Gd1512 2.606 1_565 S
O1557 Gd1513 2.362 . S
O1557 C1568 1.284 1_565 S
O1558 Gd1513 2.324 1_545 S
O1558 C1578 1.254 . S
O1559 Gd1512 2.429 . S
O1559 C1578 1.268 . S
O1560 Gd1512 2.545 . S
O1560 C1568 1.250 . S
O1561 Gd1512 2.420 . S
O1561 C1571 1.281 . S
O1562 Gd1513 2.545 . S
O1562 C1580 1.258 . S
O1563 Gd1512 2.357 1_565 S
O1563 Gd1513 2.612 . S
O1563 C1579 1.288 . S
O1564 Gd1512 2.324 1_565 S
O1564 C1587 1.254 . S
O1565 Gd1513 2.429 . S
O1565 C1587 1.268 . S
O1566 Gd1513 2.545 . S
O1566 C1579 1.250 . S
O1567 Gd1513 2.412 . S
O1567 C1580 1.252 . S
C1568 O1557 1.284 1_545 S
C1568 O1560 1.250 . S
C1569 H1538 0.929 . S
C1569 C1554 1.437 . S
C1569 C1570 1.317 . S
C1570 H1541 0.930 . S
C1570 C1546 1.431 . S
C1570 C1569 1.317 . S
C1571 Gd1512 2.828 . S
C1571 O1556 1.258 . S
C1571 O1561 1.281 . S
C1571 C1572 1.497 . S
C1572 C1571 1.497 . S
C1572 C1573 1.395 . S
C1572 C1574 1.380 . S
C1573 C1572 1.395 . S
C1573 C1576 1.398 . S
C1573 H1588 0.930 . S
C1574 C1572 1.380 . S
C1574 C1575 1.391 . S
C1574 H1589 0.930 1_545 S
C1575 C1574 1.391 . S
C1575 C1577 1.387 . S
C1576 C1573 1.398 . S
C1576 C1577 1.380 . S
C1576 H1590 0.930 . S
C1577 C1575 1.387 . S
C1577 C1576 1.380 . S
C1577 H1591 0.930 . S
C1578 O1558 1.254 . S
C1578 O1559 1.268 . S
C1579 O1563 1.288 . S
C1579 O1566 1.250 . S
C1580 Gd1513 2.828 . S
C1580 O1562 1.258 . S
C1580 O1567 1.252 . S
C1580 C1581 1.497 . S
C1581 C1580 1.497 . S
C1581 C1582 1.395 . S
C1581 C1583 1.380 . S
C1582 C1581 1.395 . S
C1582 C1585 1.398 . S
C1582 H1592 0.930 . S
C1583 C1581 1.380 . S
C1583 C1584 1.391 . S
C1583 H1593 0.930 1_565 S
C1584 C1583 1.391 . S
C1584 C1586 1.387 . S
C1585 C1582 1.398 . S
C1585 C1586 1.380 . S
C1585 H1594 0.930 . S
C1586 C1584 1.387 . S
C1586 C1585 1.380 . S
C1586 H1595 0.930 . S
C1587 O1564 1.254 . S
C1587 O1565 1.268 . S
H1588 C1573 0.930 . S
H1589 C1574 0.930 1_565 S
H1590 C1576 0.930 . S
H1591 C1577 0.930 . S
H1592 C1582 0.930 . S
H1593 C1583 0.930 1_545 S
H1594 C1585 0.930 . S
H1595 C1586 0.930 . S
Gd1596 N1627 2.661 . S
Gd1596 N1633 2.601 . S
Gd1596 O1640 2.545 . S
Gd1596 O1641 2.606 . S
Gd1596 O1643 2.429 . S
Gd1596 O1644 2.545 . S
Gd1596 O1645 2.412 . S
Gd1596 O1647 2.362 . S
Gd1596 O1648 2.324 . S
Gd1596 C1655 2.828 . S
Gd1597 N1606 2.661 . S
Gd1597 N1610 2.601 . S
Gd1597 O1641 2.362 . S
Gd1597 O1642 2.324 . S
Gd1597 O1646 2.545 . S
Gd1597 O1647 2.606 . S
Gd1597 O1649 2.429 . S
Gd1597 O1650 2.545 . S
Gd1597 O1651 2.412 . S
Gd1597 C1664 2.828 . S
C1598 C1601 1.417 . S
C1598 C1603 1.431 . S
C1598 C1604 1.412 . S
C1599 C1602 1.437 . S
C1599 C1603 1.317 . S
C1599 H1618 0.929 . S
C1600 C1601 1.426 . S
C1600 C1602 1.413 . S
C1600 N1610 1.359 . S
C1601 C1598 1.417 . S
C1601 C1600 1.426 . S
C1601 N1606 1.350 . S
C1602 C1599 1.437 . S
C1602 C1600 1.413 . S
C1602 C1612 1.391 . S
C1603 C1598 1.431 . S
C1603 C1599 1.317 . S
C1603 H1614 0.930 . S
C1604 C1598 1.412 . S
C1604 C1605 1.355 . S
C1604 H1616 0.930 . S
C1605 C1604 1.355 . S
C1605 C1607 1.402 . S
C1605 H1617 0.930 . S
N1606 Gd1597 2.661 . S
N1606 C1601 1.350 . S
N1606 C1607 1.307 . S
C1607 C1605 1.402 . S
C1607 N1606 1.307 . S
C1607 H1608 0.930 . S
H1608 C1607 0.930 . S
C1609 N1610 1.334 . S
C1609 C1611 1.394 . S
C1609 H1613 0.930 . S
N1610 Gd1597 2.601 . S
N1610 C1600 1.359 . S
N1610 C1609 1.334 . S
C1611 C1609 1.394 . S
C1611 C1612 1.359 . S
C1611 H1623 0.930 . S
C1612 C1602 1.391 . S
C1612 C1611 1.359 . S
C1612 H1624 0.929 . S
H1613 C1609 0.930 . S
H1614 C1603 0.930 . S
H1615 C1632 0.930 . S
H1616 C1604 0.930 . S
H1617 C1605 0.930 . S
H1618 C1599 0.929 . S
H1619 C1637 0.930 . S
H1620 C1628 0.930 . S
H1621 C1629 0.930 . S
H1622 C1653 0.929 . S
H1623 C1611 0.930 . S
H1624 C1612 0.929 . S
H1625 C1654 0.930 . S
H1626 C1635 0.930 . S
N1627 Gd1596 2.661 . S
N1627 C1631 1.350 . S
N1627 C1632 1.307 . S
C1628 H1620 0.930 . S
C1628 C1629 1.355 . S
C1628 C1630 1.412 . S
C1629 H1621 0.930 . S
C1629 C1628 1.355 . S
C1629 C1632 1.402 . S
C1630 C1628 1.412 . S
C1630 C1631 1.417 . S
C1630 C1654 1.431 . S
C1631 N1627 1.350 . S
C1631 C1630 1.417 . S
C1631 C1634 1.426 . S
C1632 H1615 0.930 . S
C1632 N1627 1.307 . S
C1632 C1629 1.402 . S
N1633 Gd1596 2.601 . S
N1633 C1634 1.359 . S
N1633 C1637 1.334 . S
C1634 C1631 1.426 . S
C1634 N1633 1.359 . S
C1634 C1638 1.413 . S
C1635 H1626 0.930 . S
C1635 C1636 1.359 . S
C1635 C1637 1.394 . S
C1636 C1635 1.359 . S
C1636 C1638 1.391 . S
C1636 H1639 0.929 . S
C1637 H1619 0.930 . S
C1637 N1633 1.334 . S
C1637 C1635 1.394 . S
C1638 C1634 1.413 . S
C1638 C1636 1.391 . S
C1638 C1653 1.437 . S
H1639 C1636 0.929 . S
O1640 Gd1596 2.545 . S
O1640 C1655 1.258 . S
O1641 Gd1596 2.606 . S
O1641 Gd1597 2.362 . S
O1641 C1652 1.284 . S
O1642 Gd1597 2.324 . S
O1642 C1662 1.254 . S
O1643 Gd1596 2.429 . S
O1643 C1662 1.268 . S
O1644 Gd1596 2.545 . S
O1644 C1652 1.250 . S
O1645 Gd1596 2.412 . S
O1645 C1655 1.252 . S
O1646 Gd1597 2.545 . S
O1646 C1664 1.258 . S
O1647 Gd1596 2.362 . S
O1647 Gd1597 2.606 . S
O1647 C1663 1.284 . S
O1648 Gd1596 2.324 . S
O1648 C1671 1.254 . S
O1649 Gd1597 2.429 . S
O1649 C1671 1.268 . S
O1650 Gd1597 2.545 . S
O1650 C1663 1.250 . S
O1651 Gd1597 2.412 . S
O1651 C1664 1.252 . S
C1652 O1641 1.284 . S
C1652 O1644 1.250 . S
C1653 H1622 0.929 . S
C1653 C1638 1.437 . S
C1653 C1654 1.317 . S
C1654 H1625 0.930 . S
C1654 C1630 1.431 . S
C1654 C1653 1.317 . S
C1655 Gd1596 2.828 . S
C1655 O1640 1.258 . S
C1655 O1645 1.252 . S
C1655 C1656 1.497 . S
C1656 C1655 1.497 . S
C1656 C1657 1.395 . S
C1656 C1658 1.380 . S
C1657 C1656 1.395 . S
C1657 C1660 1.398 . S
C1657 H1672 0.930 . S
C1658 C1656 1.380 . S
C1658 C1659 1.391 . S
C1658 H1673 0.930 . S
C1659 C1658 1.391 . S
C1659 C1661 1.387 . S
C1660 C1657 1.398 . S
C1660 C1661 1.380 . S
C1660 H1674 0.930 . S
C1661 C1659 1.387 . S
C1661 C1660 1.380 . S
C1661 H1675 0.930 . S
C1662 O1642 1.254 . S
C1662 O1643 1.268 . S
C1663 O1647 1.284 . S
C1663 O1650 1.250 . S
C1664 Gd1597 2.828 . S
C1664 O1646 1.258 . S
C1664 O1651 1.252 . S
C1664 C1665 1.497 . S
C1665 C1664 1.497 . S
C1665 C1666 1.395 . S
C1665 C1667 1.380 . S
C1666 C1665 1.395 . S
C1666 C1669 1.398 . S
C1666 H1676 0.930 . S
C1667 C1665 1.380 . S
C1667 C1668 1.391 . S
C1667 H1677 0.930 . S
C1668 C1667 1.391 . S
C1668 C1670 1.387 . S
C1669 C1666 1.398 . S
C1669 C1670 1.380 . S
C1669 H1678 0.930 . S
C1670 C1668 1.387 . S
C1670 C1669 1.380 . S
C1670 H1679 0.930 . S
C1671 O1648 1.254 . S
C1671 O1649 1.268 . S
H1672 C1657 0.930 . S
H1673 C1658 0.930 . S
H1674 C1660 0.930 . S
H1675 C1661 0.930 . S
H1676 C1666 0.930 . S
H1677 C1667 0.930 . S
H1678 C1669 0.930 . S
H1679 C1670 0.930 . S
Gd1680 N1711 2.661 . S
Gd1680 N1717 2.601 . S
Gd1680 O1724 2.545 . S
Gd1680 O1725 2.606 . S
Gd1680 O1727 2.429 . S
Gd1680 O1728 2.545 . S
Gd1680 O1729 2.412 . S
Gd1680 O1731 2.362 . S
Gd1680 O1732 2.324 . S
Gd1680 C1739 2.828 . S
Gd1681 N1690 2.661 . S
Gd1681 N1694 2.601 . S
Gd1681 O1725 2.362 . S
Gd1681 O1726 2.324 . S
Gd1681 O1730 2.545 . S
Gd1681 O1731 2.606 . S
Gd1681 O1733 2.429 . S
Gd1681 O1734 2.545 . S
Gd1681 O1735 2.412 . S
Gd1681 C1748 2.828 . S
C1682 C1685 1.417 . S
C1682 C1687 1.431 . S
C1682 C1688 1.412 . S
C1683 C1686 1.437 . S
C1683 C1687 1.317 . S
C1683 H1702 0.929 . S
C1684 C1685 1.426 . S
C1684 C1686 1.413 . S
C1684 N1694 1.359 . S
C1685 C1682 1.417 . S
C1685 C1684 1.426 . S
C1685 N1690 1.350 . S
C1686 C1683 1.437 . S
C1686 C1684 1.413 . S
C1686 C1696 1.391 . S
C1687 C1682 1.431 . S
C1687 C1683 1.317 . S
C1687 H1698 0.930 . S
C1688 C1682 1.412 . S
C1688 C1689 1.355 . S
C1688 H1700 0.930 . S
C1689 C1688 1.355 . S
C1689 C1691 1.402 . S
C1689 H1701 0.930 . S
N1690 Gd1681 2.661 . S
N1690 C1685 1.350 . S
N1690 C1691 1.307 . S
C1691 C1689 1.402 . S
C1691 N1690 1.307 . S
C1691 H1692 0.930 . S
H1692 C1691 0.930 . S
C1693 N1694 1.334 . S
C1693 C1695 1.394 . S
C1693 H1697 0.930 . S
N1694 Gd1681 2.601 . S
N1694 C1684 1.359 . S
N1694 C1693 1.334 . S
C1695 C1693 1.394 . S
C1695 C1696 1.359 . S
C1695 H1707 0.930 . S
C1696 C1686 1.391 . S
C1696 C1695 1.359 . S
C1696 H1708 0.929 . S
H1697 C1693 0.930 . S
H1698 C1687 0.930 . S
H1699 C1716 0.930 . S
H1700 C1688 0.930 . S
H1701 C1689 0.930 . S
H1702 C1683 0.929 . S
H1703 C1721 0.930 . S
H1704 C1712 0.930 . S
H1705 C1713 0.930 . S
H1706 C1737 0.929 . S
H1707 C1695 0.930 . S
H1708 C1696 0.929 . S
H1709 C1738 0.930 . S
H1710 C1719 0.930 . S
N1711 Gd1680 2.661 . S
N1711 C1715 1.350 . S
N1711 C1716 1.307 . S
C1712 H1704 0.930 . S
C1712 C1713 1.355 . S
C1712 C1714 1.412 . S
C1713 H1705 0.930 . S
C1713 C1712 1.355 . S
C1713 C1716 1.402 . S
C1714 C1712 1.412 . S
C1714 C1715 1.417 . S
C1714 C1738 1.431 . S
C1715 N1711 1.350 . S
C1715 C1714 1.417 . S
C1715 C1718 1.426 . S
C1716 H1699 0.930 . S
C1716 N1711 1.307 . S
C1716 C1713 1.402 . S
N1717 Gd1680 2.601 . S
N1717 C1718 1.359 . S
N1717 C1721 1.334 . S
C1718 C1715 1.426 . S
C1718 N1717 1.359 . S
C1718 C1722 1.413 . S
C1719 H1710 0.930 . S
C1719 C1720 1.359 . S
C1719 C1721 1.394 . S
C1720 C1719 1.359 . S
C1720 C1722 1.391 . S
C1720 H1723 0.929 . S
C1721 H1703 0.930 . S
C1721 N1717 1.334 . S
C1721 C1719 1.394 . S
C1722 C1718 1.413 . S
C1722 C1720 1.391 . S
C1722 C1737 1.437 . S
H1723 C1720 0.929 . S
O1724 Gd1680 2.545 . S
O1724 C1739 1.258 . S
O1725 Gd1680 2.606 . S
O1725 Gd1681 2.362 . S
O1725 C1736 1.284 . S
O1726 Gd1681 2.324 . S
O1726 C1746 1.254 . S
O1727 Gd1680 2.429 . S
O1727 C1746 1.268 . S
O1728 Gd1680 2.545 . S
O1728 C1736 1.250 . S
O1729 Gd1680 2.412 . S
O1729 C1739 1.252 . S
O1730 Gd1681 2.545 . S
O1730 C1748 1.258 . S
O1731 Gd1680 2.362 . S
O1731 Gd1681 2.606 . S
O1731 C1747 1.284 . S
O1732 Gd1680 2.324 . S
O1732 C1755 1.254 . S
O1733 Gd1681 2.429 . S
O1733 C1755 1.268 . S
O1734 Gd1681 2.545 . S
O1734 C1747 1.250 . S
O1735 Gd1681 2.412 . S
O1735 C1748 1.252 . S
C1736 O1725 1.284 . S
C1736 O1728 1.250 . S
C1737 H1706 0.929 . S
C1737 C1722 1.437 . S
C1737 C1738 1.317 . S
C1738 H1709 0.930 . S
C1738 C1714 1.431 . S
C1738 C1737 1.317 . S
C1739 Gd1680 2.828 . S
C1739 O1724 1.258 . S
C1739 O1729 1.252 . S
C1739 C1740 1.497 . S
C1740 C1739 1.497 . S
C1740 C1741 1.395 . S
C1740 C1742 1.380 . S
C1741 C1740 1.395 . S
C1741 C1744 1.398 . S
C1741 H1756 0.930 . S
C1742 C1740 1.380 . S
C1742 C1743 1.391 . S
C1742 H1757 0.930 . S
C1743 C1742 1.391 . S
C1743 C1745 1.387 . S
C1744 C1741 1.398 . S
C1744 C1745 1.380 . S
C1744 H1758 0.930 . S
C1745 C1743 1.387 . S
C1745 C1744 1.380 . S
C1745 H1759 0.930 . S
C1746 O1726 1.254 . S
C1746 O1727 1.268 . S
C1747 O1731 1.284 . S
C1747 O1734 1.250 . S
C1748 Gd1681 2.828 . S
C1748 O1730 1.258 . S
C1748 O1735 1.252 . S
C1748 C1749 1.497 . S
C1749 C1748 1.497 . S
C1749 C1750 1.395 1_554 S
C1749 C1751 1.380 1_554 S
C1750 C1749 1.395 1_556 S
C1750 C1753 1.398 . S
C1750 H1760 0.930 1_556 S
C1751 C1749 1.380 1_556 S
C1751 C1752 1.391 . S
C1751 H1761 0.930 . S
C1752 C1751 1.391 . S
C1752 C1754 1.387 . S
C1753 C1750 1.398 . S
C1753 C1754 1.380 . S
C1753 H1762 0.930 . S
C1754 C1752 1.387 . S
C1754 C1753 1.380 . S
C1754 H1763 0.930 . S
C1755 O1732 1.254 . S
C1755 O1733 1.268 . S
H1756 C1741 0.930 . S
H1757 C1742 0.930 . S
H1758 C1744 0.930 . S
H1759 C1745 0.930 . S
H1760 C1750 0.930 1_554 S
H1761 C1751 0.930 . S
H1762 C1753 0.930 . S
H1763 C1754 0.930 . S
Gd1764 N1795 2.661 1_545 S
Gd1764 N1801 2.601 . S
Gd1764 O1808 2.545 . S
Gd1764 O1809 2.612 . S
Gd1764 O1811 2.429 . S
Gd1764 O1812 2.545 . S
Gd1764 O1813 2.412 . S
Gd1764 O1815 2.362 . S
Gd1764 O1816 2.324 1_545 S
Gd1764 C1823 2.828 . S
Gd1765 N1774 2.661 1_565 S
Gd1765 N1778 2.601 . S
Gd1765 O1809 2.357 1_565 S
Gd1765 O1810 2.324 1_565 S
Gd1765 O1814 2.545 . S
Gd1765 O1815 2.606 1_565 S
Gd1765 O1817 2.429 . S
Gd1765 O1818 2.545 . S
Gd1765 O1819 2.420 . S
Gd1765 C1832 2.828 . S
C1766 C1769 1.417 . S
C1766 C1771 1.431 . S
C1766 C1772 1.412 1_565 S
C1767 C1770 1.437 . S
C1767 C1771 1.317 . S
C1767 H1786 0.929 . S
C1768 C1769 1.426 . S
C1768 C1770 1.413 . S
C1768 N1778 1.359 . S
C1769 C1766 1.417 . S
C1769 C1768 1.426 . S
C1769 N1774 1.350 1_565 S
C1770 C1767 1.437 . S
C1770 C1768 1.413 . S
C1770 C1780 1.391 . S
C1771 C1766 1.431 . S
C1771 C1767 1.317 . S
C1771 H1782 0.930 . S
C1772 C1766 1.412 1_545 S
C1772 C1773 1.355 . S
C1772 H1784 0.930 . S
C1773 C1772 1.355 . S
C1773 C1775 1.402 . S
C1773 H1785 0.930 . S
N1774 Gd1765 2.661 1_545 S
N1774 C1769 1.350 1_545 S
N1774 C1775 1.307 . S
C1775 C1773 1.402 . S
C1775 N1774 1.307 . S
C1775 H1776 0.930 . S
H1776 C1775 0.930 . S
C1777 N1778 1.334 . S
C1777 C1779 1.394 . S
C1777 H1781 0.930 . S
N1778 Gd1765 2.601 . S
N1778 C1768 1.359 . S
N1778 C1777 1.334 . S
C1779 C1777 1.394 . S
C1779 C1780 1.359 . S
C1779 H1791 0.930 . S
C1780 C1770 1.391 . S
C1780 C1779 1.359 . S
C1780 H1792 0.929 . S
H1781 C1777 0.930 . S
H1782 C1771 0.930 . S
H1783 C1800 0.930 . S
H1784 C1772 0.930 . S
H1785 C1773 0.930 . S
H1786 C1767 0.929 . S
H1787 C1805 0.930 . S
H1788 C1796 0.930 . S
H1789 C1797 0.930 . S
H1790 C1821 0.929 . S
H1791 C1779 0.930 . S
H1792 C1780 0.929 . S
H1793 C1822 0.930 . S
H1794 C1803 0.930 . S
N1795 Gd1764 2.661 1_565 S
N1795 C1799 1.350 1_565 S
N1795 C1800 1.307 . S
C1796 H1788 0.930 . S
C1796 C1797 1.355 . S
C1796 C1798 1.412 1_565 S
C1797 H1789 0.930 . S
C1797 C1796 1.355 . S
C1797 C1800 1.402 . S
C1798 C1796 1.412 1_545 S
C1798 C1799 1.417 . S
C1798 C1822 1.431 . S
C1799 N1795 1.350 1_545 S
C1799 C1798 1.417 . S
C1799 C1802 1.426 . S
C1800 H1783 0.930 . S
C1800 N1795 1.307 . S
C1800 C1797 1.402 . S
N1801 Gd1764 2.601 . S
N1801 C1802 1.359 . S
N1801 C1805 1.334 . S
C1802 C1799 1.426 . S
C1802 N1801 1.359 . S
C1802 C1806 1.413 . S
C1803 H1794 0.930 . S
C1803 C1804 1.359 . S
C1803 C1805 1.394 . S
C1804 C1803 1.359 . S
C1804 C1806 1.391 . S
C1804 H1807 0.929 . S
C1805 H1787 0.930 . S
C1805 N1801 1.334 . S
C1805 C1803 1.394 . S
C1806 C1802 1.413 . S
C1806 C1804 1.391 . S
C1806 C1821 1.437 . S
H1807 C1804 0.929 . S
O1808 Gd1764 2.545 . S
O1808 C1823 1.258 . S
O1809 Gd1764 2.612 . S
O1809 Gd1765 2.357 1_545 S
O1809 C1820 1.288 . S
O1810 Gd1765 2.324 1_545 S
O1810 C1830 1.254 . S
O1811 Gd1764 2.429 . S
O1811 C1830 1.268 . S
O1812 Gd1764 2.545 . S
O1812 C1820 1.250 . S
O1813 Gd1764 2.412 . S
O1813 C1823 1.252 . S
O1814 Gd1765 2.545 . S
O1814 C1832 1.258 . S
O1815 Gd1764 2.362 . S
O1815 Gd1765 2.606 1_545 S
O1815 C1831 1.284 1_545 S
O1816 Gd1764 2.324 1_565 S
O1816 C1839 1.254 . S
O1817 Gd1765 2.429 . S
O1817 C1839 1.268 . S
O1818 Gd1765 2.545 . S
O1818 C1831 1.250 . S
O1819 Gd1765 2.420 . S
O1819 C1832 1.281 . S
C1820 O1809 1.288 . S
C1820 O1812 1.250 . S
C1821 H1790 0.929 . S
C1821 C1806 1.437 . S
C1821 C1822 1.317 . S
C1822 H1793 0.930 . S
C1822 C1798 1.431 . S
C1822 C1821 1.317 . S
C1823 Gd1764 2.828 . S
C1823 O1808 1.258 . S
C1823 O1813 1.252 . S
C1823 C1824 1.497 . S
C1824 C1823 1.497 . S
C1824 C1825 1.395 . S
C1824 C1826 1.380 . S
C1825 C1824 1.395 . S
C1825 C1828 1.398 . S
C1825 H1840 0.930 . S
C1826 C1824 1.380 . S
C1826 C1827 1.391 . S
C1826 H1841 0.930 1_545 S
C1827 C1826 1.391 . S
C1827 C1829 1.387 . S
C1828 C1825 1.398 . S
C1828 C1829 1.380 . S
C1828 H1842 0.930 . S
C1829 C1827 1.387 . S
C1829 C1828 1.380 . S
C1829 H1843 0.930 . S
C1830 O1810 1.254 . S
C1830 O1811 1.268 . S
C1831 O1815 1.284 1_565 S
C1831 O1818 1.250 . S
C1832 Gd1765 2.828 . S
C1832 O1814 1.258 . S
C1832 O1819 1.281 . S
C1832 C1833 1.497 . S
C1833 C1832 1.497 . S
C1833 C1834 1.395 1_554 S
C1833 C1835 1.380 1_554 S
C1834 C1833 1.395 1_556 S
C1834 C1837 1.398 . S
C1834 H1844 0.930 1_556 S
C1835 C1833 1.380 1_556 S
C1835 C1836 1.391 . S
C1835 H1845 0.930 1_565 S
C1836 C1835 1.391 . S
C1836 C1838 1.387 . S
C1837 C1834 1.398 . S
C1837 C1838 1.380 . S
C1837 H1846 0.930 . S
C1838 C1836 1.387 . S
C1838 C1837 1.380 . S
C1838 H1847 0.930 . S
C1839 O1816 1.254 . S
C1839 O1817 1.268 . S
H1840 C1825 0.930 . S
H1841 C1826 0.930 1_565 S
H1842 C1828 0.930 . S
H1843 C1829 0.930 . S
H1844 C1834 0.930 1_554 S
H1845 C1835 0.930 1_545 S
H1846 C1837 0.930 . S
H1847 C1838 0.930 . S
Gd1848 N1879 2.661 1_545 S
Gd1848 N1885 2.601 . S
Gd1848 O1892 2.545 . S
Gd1848 O1893 2.612 . S
Gd1848 O1895 2.429 . S
Gd1848 O1896 2.545 . S
Gd1848 O1897 2.412 . S
Gd1848 O1899 2.362 . S
Gd1848 O1900 2.324 1_545 S
Gd1848 C1907 2.828 . S
Gd1849 N1858 2.661 1_565 S
Gd1849 N1862 2.601 . S
Gd1849 O1893 2.357 1_565 S
Gd1849 O1894 2.324 1_565 S
Gd1849 O1898 2.545 . S
Gd1849 O1899 2.606 1_565 S
Gd1849 O1901 2.429 . S
Gd1849 O1902 2.545 . S
Gd1849 O1903 2.420 . S
Gd1849 C1916 2.828 . S
C1850 C1853 1.417 . S
C1850 C1855 1.431 . S
C1850 C1856 1.412 1_565 S
C1851 C1854 1.437 . S
C1851 C1855 1.317 . S
C1851 H1870 0.929 . S
C1852 C1853 1.426 . S
C1852 C1854 1.413 . S
C1852 N1862 1.359 . S
C1853 C1850 1.417 . S
C1853 C1852 1.426 . S
C1853 N1858 1.350 1_565 S
C1854 C1851 1.437 . S
C1854 C1852 1.413 . S
C1854 C1864 1.391 . S
C1855 C1850 1.431 . S
C1855 C1851 1.317 . S
C1855 H1866 0.930 . S
C1856 C1850 1.412 1_545 S
C1856 C1857 1.355 . S
C1856 H1868 0.930 . S
C1857 C1856 1.355 . S
C1857 C1859 1.402 . S
C1857 H1869 0.930 . S
N1858 Gd1849 2.661 1_545 S
N1858 C1853 1.350 1_545 S
N1858 C1859 1.307 . S
C1859 C1857 1.402 . S
C1859 N1858 1.307 . S
C1859 H1860 0.930 . S
H1860 C1859 0.930 . S
C1861 N1862 1.334 . S
C1861 C1863 1.394 . S
C1861 H1865 0.930 . S
N1862 Gd1849 2.601 . S
N1862 C1852 1.359 . S
N1862 C1861 1.334 . S
C1863 C1861 1.394 . S
C1863 C1864 1.359 . S
C1863 H1875 0.930 . S
C1864 C1854 1.391 . S
C1864 C1863 1.359 . S
C1864 H1876 0.929 . S
H1865 C1861 0.930 . S
H1866 C1855 0.930 . S
H1867 C1884 0.930 . S
H1868 C1856 0.930 . S
H1869 C1857 0.930 . S
H1870 C1851 0.929 . S
H1871 C1889 0.930 . S
H1872 C1880 0.930 . S
H1873 C1881 0.930 . S
H1874 C1905 0.929 . S
H1875 C1863 0.930 . S
H1876 C1864 0.929 . S
H1877 C1906 0.930 . S
H1878 C1887 0.930 . S
N1879 Gd1848 2.661 1_565 S
N1879 C1883 1.350 1_565 S
N1879 C1884 1.307 . S
C1880 H1872 0.930 . S
C1880 C1881 1.355 . S
C1880 C1882 1.412 1_565 S
C1881 H1873 0.930 . S
C1881 C1880 1.355 . S
C1881 C1884 1.402 . S
C1882 C1880 1.412 1_545 S
C1882 C1883 1.417 . S
C1882 C1906 1.431 . S
C1883 N1879 1.350 1_545 S
C1883 C1882 1.417 . S
C1883 C1886 1.426 . S
C1884 H1867 0.930 . S
C1884 N1879 1.307 . S
C1884 C1881 1.402 . S
N1885 Gd1848 2.601 . S
N1885 C1886 1.359 . S
N1885 C1889 1.334 . S
C1886 C1883 1.426 . S
C1886 N1885 1.359 . S
C1886 C1890 1.413 . S
C1887 H1878 0.930 . S
C1887 C1888 1.359 . S
C1887 C1889 1.394 . S
C1888 C1887 1.359 . S
C1888 C1890 1.391 . S
C1888 H1891 0.929 . S
C1889 H1871 0.930 . S
C1889 N1885 1.334 . S
C1889 C1887 1.394 . S
C1890 C1886 1.413 . S
C1890 C1888 1.391 . S
C1890 C1905 1.437 . S
H1891 C1888 0.929 . S
O1892 Gd1848 2.545 . S
O1892 C1907 1.258 . S
O1893 Gd1848 2.612 . S
O1893 Gd1849 2.357 1_545 S
O1893 C1904 1.288 . S
O1894 Gd1849 2.324 1_545 S
O1894 C1914 1.254 . S
O1895 Gd1848 2.429 . S
O1895 C1914 1.268 . S
O1896 Gd1848 2.545 . S
O1896 C1904 1.250 . S
O1897 Gd1848 2.412 . S
O1897 C1907 1.252 . S
O1898 Gd1849 2.545 . S
O1898 C1916 1.258 . S
O1899 Gd1848 2.362 . S
O1899 Gd1849 2.606 1_545 S
O1899 C1915 1.284 1_545 S
O1900 Gd1848 2.324 1_565 S
O1900 C1923 1.254 . S
O1901 Gd1849 2.429 . S
O1901 C1923 1.268 . S
O1902 Gd1849 2.545 . S
O1902 C1915 1.250 . S
O1903 Gd1849 2.420 . S
O1903 C1916 1.281 . S
C1904 O1893 1.288 . S
C1904 O1896 1.250 . S
C1905 H1874 0.929 . S
C1905 C1890 1.437 . S
C1905 C1906 1.317 . S
C1906 H1877 0.930 . S
C1906 C1882 1.431 . S
C1906 C1905 1.317 . S
C1907 Gd1848 2.828 . S
C1907 O1892 1.258 . S
C1907 O1897 1.252 . S
C1907 C1908 1.497 . S
C1908 C1907 1.497 . S
C1908 C1909 1.395 . S
C1908 C1910 1.380 . S
C1909 C1908 1.395 . S
C1909 C1912 1.398 . S
C1909 H1924 0.930 . S
C1910 C1908 1.380 . S
C1910 C1911 1.391 . S
C1910 H1925 0.930 1_545 S
C1911 C1910 1.391 . S
C1911 C1913 1.387 . S
C1912 C1909 1.398 . S
C1912 C1913 1.380 . S
C1912 H1926 0.930 . S
C1913 C1911 1.387 . S
C1913 C1912 1.380 . S
C1913 H1927 0.930 . S
C1914 O1894 1.254 . S
C1914 O1895 1.268 . S
C1915 O1899 1.284 1_565 S
C1915 O1902 1.250 . S
C1916 Gd1849 2.828 . S
C1916 O1898 1.258 . S
C1916 O1903 1.281 . S
C1916 C1917 1.497 . S
C1917 C1916 1.497 . S
C1917 C1918 1.395 . S
C1917 C1919 1.380 . S
C1918 C1917 1.395 . S
C1918 C1921 1.398 . S
C1918 H1928 0.930 . S
C1919 C1917 1.380 . S
C1919 C1920 1.391 . S
C1919 H1929 0.930 1_565 S
C1920 C1919 1.391 . S
C1920 C1922 1.387 . S
C1921 C1918 1.398 . S
C1921 C1922 1.380 . S
C1921 H1930 0.930 . S
C1922 C1920 1.387 . S
C1922 C1921 1.380 . S
C1922 H1931 0.930 . S
C1923 O1900 1.254 . S
C1923 O1901 1.268 . S
H1924 C1909 0.930 . S
H1925 C1910 0.930 1_565 S
H1926 C1912 0.930 . S
H1927 C1913 0.930 . S
H1928 C1918 0.930 . S
H1929 C1919 0.930 1_545 S
H1930 C1921 0.930 . S
H1931 C1922 0.930 . S
Gd1932 N1963 2.661 . S
Gd1932 N1969 2.601 . S
Gd1932 O1976 2.545 . S
Gd1932 O1977 2.606 . S
Gd1932 O1979 2.429 . S
Gd1932 O1980 2.545 . S
Gd1932 O1981 2.412 . S
Gd1932 O1983 2.362 . S
Gd1932 O1984 2.324 . S
Gd1932 C1991 2.828 . S
Gd1933 N1942 2.661 . S
Gd1933 N1946 2.601 . S
Gd1933 O1977 2.362 . S
Gd1933 O1978 2.324 . S
Gd1933 O1982 2.545 . S
Gd1933 O1983 2.606 . S
Gd1933 O1985 2.429 . S
Gd1933 O1986 2.545 . S
Gd1933 O1987 2.412 . S
Gd1933 C2000 2.828 . S
C1934 C1937 1.417 . S
C1934 C1939 1.431 . S
C1934 C1940 1.412 . S
C1935 C1938 1.437 . S
C1935 C1939 1.317 . S
C1935 H1954 0.929 . S
C1936 C1937 1.426 . S
C1936 C1938 1.413 . S
C1936 N1946 1.359 . S
C1937 C1934 1.417 . S
C1937 C1936 1.426 . S
C1937 N1942 1.350 . S
C1938 C1935 1.437 . S
C1938 C1936 1.413 . S
C1938 C1948 1.391 . S
C1939 C1934 1.431 . S
C1939 C1935 1.317 . S
C1939 H1950 0.930 . S
C1940 C1934 1.412 . S
C1940 C1941 1.355 . S
C1940 H1952 0.930 . S
C1941 C1940 1.355 . S
C1941 C1943 1.402 . S
C1941 H1953 0.930 . S
N1942 Gd1933 2.661 . S
N1942 C1937 1.350 . S
N1942 C1943 1.307 . S
C1943 C1941 1.402 . S
C1943 N1942 1.307 . S
C1943 H1944 0.930 . S
H1944 C1943 0.930 . S
C1945 N1946 1.334 . S
C1945 C1947 1.394 . S
C1945 H1949 0.930 . S
N1946 Gd1933 2.601 . S
N1946 C1936 1.359 . S
N1946 C1945 1.334 . S
C1947 C1945 1.394 . S
C1947 C1948 1.359 . S
C1947 H1959 0.930 . S
C1948 C1938 1.391 . S
C1948 C1947 1.359 . S
C1948 H1960 0.929 . S
H1949 C1945 0.930 . S
H1950 C1939 0.930 . S
H1951 C1968 0.930 . S
H1952 C1940 0.930 . S
H1953 C1941 0.930 . S
H1954 C1935 0.929 . S
H1955 C1973 0.930 . S
H1956 C1964 0.930 . S
H1957 C1965 0.930 . S
H1958 C1989 0.929 . S
H1959 C1947 0.930 . S
H1960 C1948 0.929 . S
H1961 C1990 0.930 . S
H1962 C1971 0.930 . S
N1963 Gd1932 2.661 . S
N1963 C1967 1.350 . S
N1963 C1968 1.307 . S
C1964 H1956 0.930 . S
C1964 C1965 1.355 . S
C1964 C1966 1.412 . S
C1965 H1957 0.930 . S
C1965 C1964 1.355 . S
C1965 C1968 1.402 . S
C1966 C1964 1.412 . S
C1966 C1967 1.417 . S
C1966 C1990 1.431 . S
C1967 N1963 1.350 . S
C1967 C1966 1.417 . S
C1967 C1970 1.426 . S
C1968 H1951 0.930 . S
C1968 N1963 1.307 . S
C1968 C1965 1.402 . S
N1969 Gd1932 2.601 . S
N1969 C1970 1.359 . S
N1969 C1973 1.334 . S
C1970 C1967 1.426 . S
C1970 N1969 1.359 . S
C1970 C1974 1.413 . S
C1971 H1962 0.930 . S
C1971 C1972 1.359 . S
C1971 C1973 1.394 . S
C1972 C1971 1.359 . S
C1972 C1974 1.391 . S
C1972 H1975 0.929 . S
C1973 H1955 0.930 . S
C1973 N1969 1.334 . S
C1973 C1971 1.394 . S
C1974 C1970 1.413 . S
C1974 C1972 1.391 . S
C1974 C1989 1.437 . S
H1975 C1972 0.929 . S
O1976 Gd1932 2.545 . S
O1976 C1991 1.258 . S
O1977 Gd1932 2.606 . S
O1977 Gd1933 2.362 . S
O1977 C1988 1.284 . S
O1978 Gd1933 2.324 . S
O1978 C1998 1.254 . S
O1979 Gd1932 2.429 . S
O1979 C1998 1.268 . S
O1980 Gd1932 2.545 . S
O1980 C1988 1.250 . S
O1981 Gd1932 2.412 . S
O1981 C1991 1.252 . S
O1982 Gd1933 2.545 . S
O1982 C2000 1.258 . S
O1983 Gd1932 2.362 . S
O1983 Gd1933 2.606 . S
O1983 C1999 1.284 . S
O1984 Gd1932 2.324 . S
O1984 C2007 1.254 . S
O1985 Gd1933 2.429 . S
O1985 C2007 1.268 . S
O1986 Gd1933 2.545 . S
O1986 C1999 1.250 . S
O1987 Gd1933 2.412 . S
O1987 C2000 1.252 . S
C1988 O1977 1.284 . S
C1988 O1980 1.250 . S
C1989 H1958 0.929 . S
C1989 C1974 1.437 . S
C1989 C1990 1.317 . S
C1990 H1961 0.930 . S
C1990 C1966 1.431 . S
C1990 C1989 1.317 . S
C1991 Gd1932 2.828 . S
C1991 O1976 1.258 . S
C1991 O1981 1.252 . S
C1991 C1992 1.497 . S
C1992 C1991 1.497 . S
C1992 C1993 1.395 . S
C1992 C1994 1.380 . S
C1993 C1992 1.395 . S
C1993 C1996 1.398 . S
C1993 H2008 0.930 . S
C1994 C1992 1.380 . S
C1994 C1995 1.391 . S
C1994 H2009 0.930 . S
C1995 C1994 1.391 . S
C1995 C1997 1.387 . S
C1996 C1993 1.398 . S
C1996 C1997 1.380 . S
C1996 H2010 0.930 . S
C1997 C1995 1.387 . S
C1997 C1996 1.380 . S
C1997 H2011 0.930 . S
C1998 O1978 1.254 . S
C1998 O1979 1.268 . S
C1999 O1983 1.284 . S
C1999 O1986 1.250 . S
C2000 Gd1933 2.828 . S
C2000 O1982 1.258 . S
C2000 O1987 1.252 . S
C2000 C2001 1.497 . S
C2001 C2000 1.497 . S
C2001 C2002 1.395 . S
C2001 C2003 1.380 . S
C2002 C2001 1.395 . S
C2002 C2005 1.398 . S
C2002 H2012 0.930 . S
C2003 C2001 1.380 . S
C2003 C2004 1.391 . S
C2003 H2013 0.930 . S
C2004 C2003 1.391 . S
C2004 C2006 1.387 . S
C2005 C2002 1.398 . S
C2005 C2006 1.380 . S
C2005 H2014 0.930 . S
C2006 C2004 1.387 . S
C2006 C2005 1.380 . S
C2006 H2015 0.930 . S
C2007 O1984 1.254 . S
C2007 O1985 1.268 . S
H2008 C1993 0.930 . S
H2009 C1994 0.930 . S
H2010 C1996 0.930 . S
H2011 C1997 0.930 . S
H2012 C2002 0.930 . S
H2013 C2003 0.930 . S
H2014 C2005 0.930 . S
H2015 C2006 0.930 . S
Gd2016 N2047 2.661 . S
Gd2016 N2053 2.601 . S
Gd2016 O2060 2.545 . S
Gd2016 O2061 2.606 . S
Gd2016 O2063 2.429 . S
Gd2016 O2064 2.545 . S
Gd2016 O2065 2.412 . S
Gd2016 O2067 2.362 . S
Gd2016 O2068 2.324 . S
Gd2016 C2075 2.828 . S
Gd2017 N2026 2.661 . S
Gd2017 N2030 2.601 . S
Gd2017 O2061 2.362 . S
Gd2017 O2062 2.324 . S
Gd2017 O2066 2.545 . S
Gd2017 O2067 2.606 . S
Gd2017 O2069 2.429 . S
Gd2017 O2070 2.545 . S
Gd2017 O2071 2.412 . S
Gd2017 C2084 2.828 . S
C2018 C2021 1.417 . S
C2018 C2023 1.431 . S
C2018 C2024 1.412 . S
C2019 C2022 1.437 . S
C2019 C2023 1.317 . S
C2019 H2038 0.929 . S
C2020 C2021 1.426 . S
C2020 C2022 1.413 . S
C2020 N2030 1.359 . S
C2021 C2018 1.417 . S
C2021 C2020 1.426 . S
C2021 N2026 1.350 . S
C2022 C2019 1.437 . S
C2022 C2020 1.413 . S
C2022 C2032 1.391 . S
C2023 C2018 1.431 . S
C2023 C2019 1.317 . S
C2023 H2034 0.930 . S
C2024 C2018 1.412 . S
C2024 C2025 1.355 . S
C2024 H2036 0.930 . S
C2025 C2024 1.355 . S
C2025 C2027 1.402 . S
C2025 H2037 0.930 . S
N2026 Gd2017 2.661 . S
N2026 C2021 1.350 . S
N2026 C2027 1.307 . S
C2027 C2025 1.402 . S
C2027 N2026 1.307 . S
C2027 H2028 0.930 . S
H2028 C2027 0.930 . S
C2029 N2030 1.334 . S
C2029 C2031 1.394 . S
C2029 H2033 0.930 . S
N2030 Gd2017 2.601 . S
N2030 C2020 1.359 . S
N2030 C2029 1.334 . S
C2031 C2029 1.394 . S
C2031 C2032 1.359 . S
C2031 H2043 0.930 . S
C2032 C2022 1.391 . S
C2032 C2031 1.359 . S
C2032 H2044 0.929 . S
H2033 C2029 0.930 . S
H2034 C2023 0.930 . S
H2035 C2052 0.930 . S
H2036 C2024 0.930 . S
H2037 C2025 0.930 . S
H2038 C2019 0.929 . S
H2039 C2057 0.930 . S
H2040 C2048 0.930 . S
H2041 C2049 0.930 . S
H2042 C2073 0.929 . S
H2043 C2031 0.930 . S
H2044 C2032 0.929 . S
H2045 C2074 0.930 . S
H2046 C2055 0.930 . S
N2047 Gd2016 2.661 . S
N2047 C2051 1.350 . S
N2047 C2052 1.307 . S
C2048 H2040 0.930 . S
C2048 C2049 1.355 . S
C2048 C2050 1.412 . S
C2049 H2041 0.930 . S
C2049 C2048 1.355 . S
C2049 C2052 1.402 . S
C2050 C2048 1.412 . S
C2050 C2051 1.417 . S
C2050 C2074 1.431 . S
C2051 N2047 1.350 . S
C2051 C2050 1.417 . S
C2051 C2054 1.426 . S
C2052 H2035 0.930 . S
C2052 N2047 1.307 . S
C2052 C2049 1.402 . S
N2053 Gd2016 2.601 . S
N2053 C2054 1.359 . S
N2053 C2057 1.334 . S
C2054 C2051 1.426 . S
C2054 N2053 1.359 . S
C2054 C2058 1.413 . S
C2055 H2046 0.930 . S
C2055 C2056 1.359 . S
C2055 C2057 1.394 . S
C2056 C2055 1.359 . S
C2056 C2058 1.391 . S
C2056 H2059 0.929 . S
C2057 H2039 0.930 . S
C2057 N2053 1.334 . S
C2057 C2055 1.394 . S
C2058 C2054 1.413 . S
C2058 C2056 1.391 . S
C2058 C2073 1.437 . S
H2059 C2056 0.929 . S
O2060 Gd2016 2.545 . S
O2060 C2075 1.258 . S
O2061 Gd2016 2.606 . S
O2061 Gd2017 2.362 . S
O2061 C2072 1.284 . S
O2062 Gd2017 2.324 . S
O2062 C2082 1.254 . S
O2063 Gd2016 2.429 . S
O2063 C2082 1.268 . S
O2064 Gd2016 2.545 . S
O2064 C2072 1.250 . S
O2065 Gd2016 2.412 . S
O2065 C2075 1.252 . S
O2066 Gd2017 2.545 . S
O2066 C2084 1.258 . S
O2067 Gd2016 2.362 . S
O2067 Gd2017 2.606 . S
O2067 C2083 1.284 . S
O2068 Gd2016 2.324 . S
O2068 C2091 1.254 . S
O2069 Gd2017 2.429 . S
O2069 C2091 1.268 . S
O2070 Gd2017 2.545 . S
O2070 C2083 1.250 . S
O2071 Gd2017 2.412 . S
O2071 C2084 1.252 . S
C2072 O2061 1.284 . S
C2072 O2064 1.250 . S
C2073 H2042 0.929 . S
C2073 C2058 1.437 . S
C2073 C2074 1.317 . S
C2074 H2045 0.930 . S
C2074 C2050 1.431 . S
C2074 C2073 1.317 . S
C2075 Gd2016 2.828 . S
C2075 O2060 1.258 . S
C2075 O2065 1.252 . S
C2075 C2076 1.497 . S
C2076 C2075 1.497 . S
C2076 C2077 1.395 . S
C2076 C2078 1.380 . S
C2077 C2076 1.395 . S
C2077 C2080 1.398 . S
C2077 H2092 0.930 . S
C2078 C2076 1.380 . S
C2078 C2079 1.391 . S
C2078 H2093 0.930 . S
C2079 C2078 1.391 . S
C2079 C2081 1.387 . S
C2080 C2077 1.398 . S
C2080 C2081 1.380 . S
C2080 H2094 0.930 . S
C2081 C2079 1.387 . S
C2081 C2080 1.380 . S
C2081 H2095 0.930 . S
C2082 O2062 1.254 . S
C2082 O2063 1.268 . S
C2083 O2067 1.284 . S
C2083 O2070 1.250 . S
C2084 Gd2017 2.828 . S
C2084 O2066 1.258 . S
C2084 O2071 1.252 . S
C2084 C2085 1.497 1_554 S
C2085 C2084 1.497 1_556 S
C2085 C2086 1.395 . S
C2085 C2087 1.380 . S
C2086 C2085 1.395 . S
C2086 C2089 1.398 . S
C2086 H2096 0.930 . S
C2087 C2085 1.380 . S
C2087 C2088 1.391 . S
C2087 H2097 0.930 . S
C2088 C2087 1.391 . S
C2088 C2090 1.387 . S
C2089 C2086 1.398 . S
C2089 C2090 1.380 . S
C2089 H2098 0.930 . S
C2090 C2088 1.387 . S
C2090 C2089 1.380 . S
C2090 H2099 0.930 . S
C2091 O2068 1.254 . S
C2091 O2069 1.268 . S
H2092 C2077 0.930 . S
H2093 C2078 0.930 . S
H2094 C2080 0.930 . S
H2095 C2081 0.930 . S
H2096 C2086 0.930 . S
H2097 C2087 0.930 . S
H2098 C2089 0.930 . S
H2099 C2090 0.930 . S
Gd2100 N2131 2.661 . S
Gd2100 N2137 2.601 . S
Gd2100 O2144 2.545 . S
Gd2100 O2145 2.606 . S
Gd2100 O2147 2.429 . S
Gd2100 O2148 2.545 . S
Gd2100 O2149 2.412 . S
Gd2100 O2151 2.362 . S
Gd2100 O2152 2.324 . S
Gd2100 C2159 2.828 . S
Gd2101 N2110 2.661 . S
Gd2101 N2114 2.601 . S
Gd2101 O2145 2.362 . S
Gd2101 O2146 2.324 . S
Gd2101 O2150 2.545 . S
Gd2101 O2151 2.606 . S
Gd2101 O2153 2.429 . S
Gd2101 O2154 2.545 . S
Gd2101 O2155 2.412 . S
Gd2101 C2168 2.828 . S
C2102 C2105 1.417 . S
C2102 C2107 1.431 . S
C2102 C2108 1.412 . S
C2103 C2106 1.437 . S
C2103 C2107 1.317 . S
C2103 H2122 0.929 . S
C2104 C2105 1.426 . S
C2104 C2106 1.413 . S
C2104 N2114 1.359 . S
C2105 C2102 1.417 . S
C2105 C2104 1.426 . S
C2105 N2110 1.350 . S
C2106 C2103 1.437 . S
C2106 C2104 1.413 . S
C2106 C2116 1.391 . S
C2107 C2102 1.431 . S
C2107 C2103 1.317 . S
C2107 H2118 0.930 . S
C2108 C2102 1.412 . S
C2108 C2109 1.355 . S
C2108 H2120 0.930 . S
C2109 C2108 1.355 . S
C2109 C2111 1.402 . S
C2109 H2121 0.930 . S
N2110 Gd2101 2.661 . S
N2110 C2105 1.350 . S
N2110 C2111 1.307 . S
C2111 C2109 1.402 . S
C2111 N2110 1.307 . S
C2111 H2112 0.930 . S
H2112 C2111 0.930 . S
C2113 N2114 1.334 . S
C2113 C2115 1.394 . S
C2113 H2117 0.930 . S
N2114 Gd2101 2.601 . S
N2114 C2104 1.359 . S
N2114 C2113 1.334 . S
C2115 C2113 1.394 . S
C2115 C2116 1.359 . S
C2115 H2127 0.930 . S
C2116 C2106 1.391 . S
C2116 C2115 1.359 . S
C2116 H2128 0.929 . S
H2117 C2113 0.930 . S
H2118 C2107 0.930 . S
H2119 C2136 0.930 . S
H2120 C2108 0.930 . S
H2121 C2109 0.930 . S
H2122 C2103 0.929 . S
H2123 C2141 0.930 . S
H2124 C2132 0.930 . S
H2125 C2133 0.930 . S
H2126 C2157 0.929 . S
H2127 C2115 0.930 . S
H2128 C2116 0.929 . S
H2129 C2158 0.930 . S
H2130 C2139 0.930 . S
N2131 Gd2100 2.661 . S
N2131 C2135 1.350 . S
N2131 C2136 1.307 . S
C2132 H2124 0.930 . S
C2132 C2133 1.355 . S
C2132 C2134 1.412 . S
C2133 H2125 0.930 . S
C2133 C2132 1.355 . S
C2133 C2136 1.402 . S
C2134 C2132 1.412 . S
C2134 C2135 1.417 . S
C2134 C2158 1.431 . S
C2135 N2131 1.350 . S
C2135 C2134 1.417 . S
C2135 C2138 1.426 . S
C2136 H2119 0.930 . S
C2136 N2131 1.307 . S
C2136 C2133 1.402 . S
N2137 Gd2100 2.601 . S
N2137 C2138 1.359 . S
N2137 C2141 1.334 . S
C2138 C2135 1.426 . S
C2138 N2137 1.359 . S
C2138 C2142 1.413 . S
C2139 H2130 0.930 . S
C2139 C2140 1.359 . S
C2139 C2141 1.394 . S
C2140 C2139 1.359 . S
C2140 C2142 1.391 . S
C2140 H2143 0.929 . S
C2141 H2123 0.930 . S
C2141 N2137 1.334 . S
C2141 C2139 1.394 . S
C2142 C2138 1.413 . S
C2142 C2140 1.391 . S
C2142 C2157 1.437 . S
H2143 C2140 0.929 . S
O2144 Gd2100 2.545 . S
O2144 C2159 1.258 . S
O2145 Gd2100 2.606 . S
O2145 Gd2101 2.362 . S
O2145 C2156 1.284 . S
O2146 Gd2101 2.324 . S
O2146 C2166 1.254 . S
O2147 Gd2100 2.429 . S
O2147 C2166 1.268 . S
O2148 Gd2100 2.545 . S
O2148 C2156 1.250 . S
O2149 Gd2100 2.412 . S
O2149 C2159 1.252 . S
O2150 Gd2101 2.545 . S
O2150 C2168 1.258 . S
O2151 Gd2100 2.362 . S
O2151 Gd2101 2.606 . S
O2151 C2167 1.284 . S
O2152 Gd2100 2.324 . S
O2152 C2175 1.254 . S
O2153 Gd2101 2.429 . S
O2153 C2175 1.268 . S
O2154 Gd2101 2.545 . S
O2154 C2167 1.250 . S
O2155 Gd2101 2.412 . S
O2155 C2168 1.252 . S
C2156 O2145 1.284 . S
C2156 O2148 1.250 . S
C2157 H2126 0.929 . S
C2157 C2142 1.437 . S
C2157 C2158 1.317 . S
C2158 H2129 0.930 . S
C2158 C2134 1.431 . S
C2158 C2157 1.317 . S
C2159 Gd2100 2.828 . S
C2159 O2144 1.258 . S
C2159 O2149 1.252 . S
C2159 C2160 1.497 . S
C2160 C2159 1.497 . S
C2160 C2161 1.395 . S
C2160 C2162 1.380 . S
C2161 C2160 1.395 . S
C2161 C2164 1.398 . S
C2161 H2176 0.930 . S
C2162 C2160 1.380 . S
C2162 C2163 1.391 . S
C2162 H2177 0.930 . S
C2163 C2162 1.391 . S
C2163 C2165 1.387 . S
C2164 C2161 1.398 . S
C2164 C2165 1.380 . S
C2164 H2178 0.930 . S
C2165 C2163 1.387 . S
C2165 C2164 1.380 . S
C2165 H2179 0.930 . S
C2166 O2146 1.254 . S
C2166 O2147 1.268 . S
C2167 O2151 1.284 . S
C2167 O2154 1.250 . S
C2168 Gd2101 2.828 . S
C2168 O2150 1.258 . S
C2168 O2155 1.252 . S
C2168 C2169 1.497 1_554 S
C2169 C2168 1.497 1_556 S
C2169 C2170 1.395 . S
C2169 C2171 1.380 . S
C2170 C2169 1.395 . S
C2170 C2173 1.398 . S
C2170 H2180 0.930 . S
C2171 C2169 1.380 . S
C2171 C2172 1.391 . S
C2171 H2181 0.930 . S
C2172 C2171 1.391 . S
C2172 C2174 1.387 . S
C2173 C2170 1.398 . S
C2173 C2174 1.380 . S
C2173 H2182 0.930 . S
C2174 C2172 1.387 . S
C2174 C2173 1.380 . S
C2174 H2183 0.930 . S
C2175 O2152 1.254 . S
C2175 O2153 1.268 . S
H2176 C2161 0.930 . S
H2177 C2162 0.930 . S
H2178 C2164 0.930 . S
H2179 C2165 0.930 . S
H2180 C2170 0.930 . S
H2181 C2171 0.930 . S
H2182 C2173 0.930 . S
H2183 C2174 0.930 . S
Gd2184 N2215 2.661 . S
Gd2184 N2221 2.601 . S
Gd2184 O2228 2.545 . S
Gd2184 O2229 2.606 . S
Gd2184 O2231 2.429 1_556 S
Gd2184 O2232 2.545 . S
Gd2184 O2233 2.412 . S
Gd2184 O2235 2.362 1_556 S
Gd2184 O2236 2.324 . S
Gd2184 C2243 2.828 . S
Gd2185 N2194 2.661 . S
Gd2185 N2198 2.601 . S
Gd2185 O2229 2.362 1_554 S
Gd2185 O2230 2.324 . S
Gd2185 O2234 2.545 . S
Gd2185 O2235 2.606 . S
Gd2185 O2237 2.429 . S
Gd2185 O2238 2.545 . S
Gd2185 O2239 2.412 . S
Gd2185 C2252 2.828 . S
C2186 C2189 1.417 . S
C2186 C2191 1.431 . S
C2186 C2192 1.412 . S
C2187 C2190 1.437 . S
C2187 C2191 1.317 . S
C2187 H2206 0.929 . S
C2188 C2189 1.426 . S
C2188 C2190 1.413 . S
C2188 N2198 1.359 . S
C2189 C2186 1.417 . S
C2189 C2188 1.426 . S
C2189 N2194 1.350 . S
C2190 C2187 1.437 . S
C2190 C2188 1.413 . S
C2190 C2200 1.391 . S
C2191 C2186 1.431 . S
C2191 C2187 1.317 . S
C2191 H2202 0.930 . S
C2192 C2186 1.412 . S
C2192 C2193 1.355 . S
C2192 H2204 0.930 . S
C2193 C2192 1.355 . S
C2193 C2195 1.402 . S
C2193 H2205 0.930 . S
N2194 Gd2185 2.661 . S
N2194 C2189 1.350 . S
N2194 C2195 1.307 . S
C2195 C2193 1.402 . S
C2195 N2194 1.307 . S
C2195 H2196 0.930 . S
H2196 C2195 0.930 . S
C2197 N2198 1.334 . S
C2197 C2199 1.394 . S
C2197 H2201 0.930 . S
N2198 Gd2185 2.601 . S
N2198 C2188 1.359 . S
N2198 C2197 1.334 . S
C2199 C2197 1.394 . S
C2199 C2200 1.359 . S
C2199 H2211 0.930 . S
C2200 C2190 1.391 . S
C2200 C2199 1.359 . S
C2200 H2212 0.929 . S
H2201 C2197 0.930 . S
H2202 C2191 0.930 . S
H2203 C2220 0.930 . S
H2204 C2192 0.930 . S
H2205 C2193 0.930 . S
H2206 C2187 0.929 . S
H2207 C2225 0.930 . S
H2208 C2216 0.930 . S
H2209 C2217 0.930 . S
H2210 C2241 0.929 . S
H2211 C2199 0.930 . S
H2212 C2200 0.929 . S
H2213 C2242 0.930 . S
H2214 C2223 0.930 . S
N2215 Gd2184 2.661 . S
N2215 C2219 1.350 . S
N2215 C2220 1.307 . S
C2216 H2208 0.930 . S
C2216 C2217 1.355 . S
C2216 C2218 1.412 . S
C2217 H2209 0.930 . S
C2217 C2216 1.355 . S
C2217 C2220 1.402 . S
C2218 C2216 1.412 . S
C2218 C2219 1.417 . S
C2218 C2242 1.431 . S
C2219 N2215 1.350 . S
C2219 C2218 1.417 . S
C2219 C2222 1.426 . S
C2220 H2203 0.930 . S
C2220 N2215 1.307 . S
C2220 C2217 1.402 . S
N2221 Gd2184 2.601 . S
N2221 C2222 1.359 . S
N2221 C2225 1.334 . S
C2222 C2219 1.426 . S
C2222 N2221 1.359 . S
C2222 C2226 1.413 . S
C2223 H2214 0.930 . S
C2223 C2224 1.359 . S
C2223 C2225 1.394 . S
C2224 C2223 1.359 . S
C2224 C2226 1.391 . S
C2224 H2227 0.929 . S
C2225 H2207 0.930 . S
C2225 N2221 1.334 . S
C2225 C2223 1.394 . S
C2226 C2222 1.413 . S
C2226 C2224 1.391 . S
C2226 C2241 1.437 . S
H2227 C2224 0.929 . S
O2228 Gd2184 2.545 . S
O2228 C2243 1.258 . S
O2229 Gd2184 2.606 . S
O2229 Gd2185 2.362 1_556 S
O2229 C2240 1.284 . S
O2230 Gd2185 2.324 . S
O2230 C2250 1.254 . S
O2231 Gd2184 2.429 1_554 S
O2231 C2250 1.268 . S
O2232 Gd2184 2.545 . S
O2232 C2240 1.250 . S
O2233 Gd2184 2.412 . S
O2233 C2243 1.252 . S
O2234 Gd2185 2.545 . S
O2234 C2252 1.258 . S
O2235 Gd2184 2.362 1_554 S
O2235 Gd2185 2.606 . S
O2235 C2251 1.284 . S
O2236 Gd2184 2.324 . S
O2236 C2259 1.254 . S
O2237 Gd2185 2.429 . S
O2237 C2259 1.268 1_554 S
O2238 Gd2185 2.545 . S
O2238 C2251 1.250 . S
O2239 Gd2185 2.412 . S
O2239 C2252 1.252 . S
C2240 O2229 1.284 . S
C2240 O2232 1.250 . S
C2241 H2210 0.929 . S
C2241 C2226 1.437 . S
C2241 C2242 1.317 . S
C2242 H2213 0.930 . S
C2242 C2218 1.431 . S
C2242 C2241 1.317 . S
C2243 Gd2184 2.828 . S
C2243 O2228 1.258 . S
C2243 O2233 1.252 . S
C2243 C2244 1.497 . S
C2244 C2243 1.497 . S
C2244 C2245 1.395 . S
C2244 C2246 1.380 . S
C2245 C2244 1.395 . S
C2245 C2248 1.398 . S
C2245 H2260 0.930 . S
C2246 C2244 1.380 . S
C2246 C2247 1.391 . S
C2246 H2261 0.930 . S
C2247 C2246 1.391 . S
C2247 C2249 1.387 . S
C2248 C2245 1.398 . S
C2248 C2249 1.380 . S
C2248 H2262 0.930 . S
C2249 C2247 1.387 . S
C2249 C2248 1.380 . S
C2249 H2263 0.930 . S
C2250 O2230 1.254 . S
C2250 O2231 1.268 . S
C2251 O2235 1.284 . S
C2251 O2238 1.250 . S
C2252 Gd2185 2.828 . S
C2252 O2234 1.258 . S
C2252 O2239 1.252 . S
C2252 C2253 1.497 . S
C2253 C2252 1.497 . S
C2253 C2254 1.395 . S
C2253 C2255 1.380 . S
C2254 C2253 1.395 . S
C2254 C2257 1.398 . S
C2254 H2264 0.930 . S
C2255 C2253 1.380 . S
C2255 C2256 1.391 . S
C2255 H2265 0.930 . S
C2256 C2255 1.391 . S
C2256 C2258 1.387 . S
C2257 C2254 1.398 . S
C2257 C2258 1.380 . S
C2257 H2266 0.930 . S
C2258 C2256 1.387 . S
C2258 C2257 1.380 . S
C2258 H2267 0.930 . S
C2259 O2236 1.254 . S
C2259 O2237 1.268 1_556 S
H2260 C2245 0.930 . S
H2261 C2246 0.930 . S
H2262 C2248 0.930 . S
H2263 C2249 0.930 . S
H2264 C2254 0.930 . S
H2265 C2255 0.930 . S
H2266 C2257 0.930 . S
H2267 C2258 0.930 . S
Gd2268 N2299 2.661 . S
Gd2268 N2305 2.601 . S
Gd2268 O2312 2.545 . S
Gd2268 O2313 2.606 . S
Gd2268 O2315 2.429 1_556 S
Gd2268 O2316 2.545 . S
Gd2268 O2317 2.412 . S
Gd2268 O2319 2.362 1_556 S
Gd2268 O2320 2.324 . S
Gd2268 C2327 2.828 . S
Gd2269 N2278 2.661 . S
Gd2269 N2282 2.601 . S
Gd2269 O2313 2.362 1_554 S
Gd2269 O2314 2.324 . S
Gd2269 O2318 2.545 . S
Gd2269 O2319 2.606 . S
Gd2269 O2321 2.429 . S
Gd2269 O2322 2.545 . S
Gd2269 O2323 2.412 . S
Gd2269 C2336 2.828 . S
C2270 C2273 1.417 . S
C2270 C2275 1.431 . S
C2270 C2276 1.412 . S
C2271 C2274 1.437 . S
C2271 C2275 1.317 . S
C2271 H2290 0.929 . S
C2272 C2273 1.426 . S
C2272 C2274 1.413 . S
C2272 N2282 1.359 . S
C2273 C2270 1.417 . S
C2273 C2272 1.426 . S
C2273 N2278 1.350 . S
C2274 C2271 1.437 . S
C2274 C2272 1.413 . S
C2274 C2284 1.391 . S
C2275 C2270 1.431 . S
C2275 C2271 1.317 . S
C2275 H2286 0.930 . S
C2276 C2270 1.412 . S
C2276 C2277 1.355 . S
C2276 H2288 0.930 . S
C2277 C2276 1.355 . S
C2277 C2279 1.402 . S
C2277 H2289 0.930 . S
N2278 Gd2269 2.661 . S
N2278 C2273 1.350 . S
N2278 C2279 1.307 . S
C2279 C2277 1.402 . S
C2279 N2278 1.307 . S
C2279 H2280 0.930 . S
H2280 C2279 0.930 . S
C2281 N2282 1.334 . S
C2281 C2283 1.394 . S
C2281 H2285 0.930 . S
N2282 Gd2269 2.601 . S
N2282 C2272 1.359 . S
N2282 C2281 1.334 . S
C2283 C2281 1.394 . S
C2283 C2284 1.359 . S
C2283 H2295 0.930 . S
C2284 C2274 1.391 . S
C2284 C2283 1.359 . S
C2284 H2296 0.929 . S
H2285 C2281 0.930 . S
H2286 C2275 0.930 . S
H2287 C2304 0.930 . S
H2288 C2276 0.930 . S
H2289 C2277 0.930 . S
H2290 C2271 0.929 . S
H2291 C2309 0.930 . S
H2292 C2300 0.930 . S
H2293 C2301 0.930 . S
H2294 C2325 0.929 . S
H2295 C2283 0.930 . S
H2296 C2284 0.929 . S
H2297 C2326 0.930 . S
H2298 C2307 0.930 . S
N2299 Gd2268 2.661 . S
N2299 C2303 1.350 . S
N2299 C2304 1.307 . S
C2300 H2292 0.930 . S
C2300 C2301 1.355 . S
C2300 C2302 1.412 . S
C2301 H2293 0.930 . S
C2301 C2300 1.355 . S
C2301 C2304 1.402 . S
C2302 C2300 1.412 . S
C2302 C2303 1.417 . S
C2302 C2326 1.431 . S
C2303 N2299 1.350 . S
C2303 C2302 1.417 . S
C2303 C2306 1.426 . S
C2304 H2287 0.930 . S
C2304 N2299 1.307 . S
C2304 C2301 1.402 . S
N2305 Gd2268 2.601 . S
N2305 C2306 1.359 . S
N2305 C2309 1.334 . S
C2306 C2303 1.426 . S
C2306 N2305 1.359 . S
C2306 C2310 1.413 . S
C2307 H2298 0.930 . S
C2307 C2308 1.359 . S
C2307 C2309 1.394 . S
C2308 C2307 1.359 . S
C2308 C2310 1.391 . S
C2308 H2311 0.929 . S
C2309 H2291 0.930 . S
C2309 N2305 1.334 . S
C2309 C2307 1.394 . S
C2310 C2306 1.413 . S
C2310 C2308 1.391 . S
C2310 C2325 1.437 . S
H2311 C2308 0.929 . S
O2312 Gd2268 2.545 . S
O2312 C2327 1.258 . S
O2313 Gd2268 2.606 . S
O2313 Gd2269 2.362 1_556 S
O2313 C2324 1.284 . S
O2314 Gd2269 2.324 . S
O2314 C2334 1.254 . S
O2315 Gd2268 2.429 1_554 S
O2315 C2334 1.268 . S
O2316 Gd2268 2.545 . S
O2316 C2324 1.250 . S
O2317 Gd2268 2.412 . S
O2317 C2327 1.252 . S
O2318 Gd2269 2.545 . S
O2318 C2336 1.258 . S
O2319 Gd2268 2.362 1_554 S
O2319 Gd2269 2.606 . S
O2319 C2335 1.284 . S
O2320 Gd2268 2.324 . S
O2320 C2343 1.254 . S
O2321 Gd2269 2.429 . S
O2321 C2343 1.268 1_554 S
O2322 Gd2269 2.545 . S
O2322 C2335 1.250 . S
O2323 Gd2269 2.412 . S
O2323 C2336 1.252 . S
C2324 O2313 1.284 . S
C2324 O2316 1.250 . S
C2325 H2294 0.929 . S
C2325 C2310 1.437 . S
C2325 C2326 1.317 . S
C2326 H2297 0.930 . S
C2326 C2302 1.431 . S
C2326 C2325 1.317 . S
C2327 Gd2268 2.828 . S
C2327 O2312 1.258 . S
C2327 O2317 1.252 . S
C2327 C2328 1.497 . S
C2328 C2327 1.497 . S
C2328 C2329 1.395 . S
C2328 C2330 1.380 . S
C2329 C2328 1.395 . S
C2329 C2332 1.398 . S
C2329 H2344 0.930 . S
C2330 C2328 1.380 . S
C2330 C2331 1.391 . S
C2330 H2345 0.930 . S
C2331 C2330 1.391 . S
C2331 C2333 1.387 . S
C2332 C2329 1.398 . S
C2332 C2333 1.380 . S
C2332 H2346 0.930 . S
C2333 C2331 1.387 . S
C2333 C2332 1.380 . S
C2333 H2347 0.930 . S
C2334 O2314 1.254 . S
C2334 O2315 1.268 . S
C2335 O2319 1.284 . S
C2335 O2322 1.250 . S
C2336 Gd2269 2.828 . S
C2336 O2318 1.258 . S
C2336 O2323 1.252 . S
C2336 C2337 1.497 . S
C2337 C2336 1.497 . S
C2337 C2338 1.395 . S
C2337 C2339 1.380 . S
C2338 C2337 1.395 . S
C2338 C2341 1.398 . S
C2338 H2348 0.930 . S
C2339 C2337 1.380 . S
C2339 C2340 1.391 . S
C2339 H2349 0.930 . S
C2340 C2339 1.391 . S
C2340 C2342 1.387 . S
C2341 C2338 1.398 . S
C2341 C2342 1.380 . S
C2341 H2350 0.930 . S
C2342 C2340 1.387 . S
C2342 C2341 1.380 . S
C2342 H2351 0.930 . S
C2343 O2320 1.254 . S
C2343 O2321 1.268 1_556 S
H2344 C2329 0.930 . S
H2345 C2330 0.930 . S
H2346 C2332 0.930 . S
H2347 C2333 0.930 . S
H2348 C2338 0.930 . S
H2349 C2339 0.930 . S
H2350 C2341 0.930 . S
H2351 C2342 0.930 . S
Gd2352 N2383 2.661 . S
Gd2352 N2389 2.601 . S
Gd2352 O2396 2.545 . S
Gd2352 O2397 2.606 . S
Gd2352 O2399 2.429 . S
Gd2352 O2400 2.545 . S
Gd2352 O2401 2.412 . S
Gd2352 O2403 2.362 . S
Gd2352 O2404 2.324 . S
Gd2352 C2411 2.828 . S
Gd2353 N2362 2.661 . S
Gd2353 N2366 2.601 . S
Gd2353 O2397 2.362 . S
Gd2353 O2398 2.324 . S
Gd2353 O2402 2.545 . S
Gd2353 O2403 2.606 . S
Gd2353 O2405 2.429 . S
Gd2353 O2406 2.545 . S
Gd2353 O2407 2.412 . S
Gd2353 C2420 2.828 . S
C2354 C2357 1.417 . S
C2354 C2359 1.431 . S
C2354 C2360 1.412 . S
C2355 C2358 1.437 . S
C2355 C2359 1.317 . S
C2355 H2374 0.929 . S
C2356 C2357 1.426 . S
C2356 C2358 1.413 . S
C2356 N2366 1.359 . S
C2357 C2354 1.417 . S
C2357 C2356 1.426 . S
C2357 N2362 1.350 . S
C2358 C2355 1.437 . S
C2358 C2356 1.413 . S
C2358 C2368 1.391 . S
C2359 C2354 1.431 . S
C2359 C2355 1.317 . S
C2359 H2370 0.930 . S
C2360 C2354 1.412 . S
C2360 C2361 1.355 . S
C2360 H2372 0.930 . S
C2361 C2360 1.355 . S
C2361 C2363 1.402 . S
C2361 H2373 0.930 . S
N2362 Gd2353 2.661 . S
N2362 C2357 1.350 . S
N2362 C2363 1.307 . S
C2363 C2361 1.402 . S
C2363 N2362 1.307 . S
C2363 H2364 0.930 . S
H2364 C2363 0.930 . S
C2365 N2366 1.334 . S
C2365 C2367 1.394 . S
C2365 H2369 0.930 . S
N2366 Gd2353 2.601 . S
N2366 C2356 1.359 . S
N2366 C2365 1.334 . S
C2367 C2365 1.394 . S
C2367 C2368 1.359 . S
C2367 H2379 0.930 . S
C2368 C2358 1.391 . S
C2368 C2367 1.359 . S
C2368 H2380 0.929 . S
H2369 C2365 0.930 . S
H2370 C2359 0.930 . S
H2371 C2388 0.930 . S
H2372 C2360 0.930 . S
H2373 C2361 0.930 . S
H2374 C2355 0.929 . S
H2375 C2393 0.930 . S
H2376 C2384 0.930 . S
H2377 C2385 0.930 . S
H2378 C2409 0.929 . S
H2379 C2367 0.930 . S
H2380 C2368 0.929 . S
H2381 C2410 0.930 . S
H2382 C2391 0.930 . S
N2383 Gd2352 2.661 . S
N2383 C2387 1.350 . S
N2383 C2388 1.307 . S
C2384 H2376 0.930 . S
C2384 C2385 1.355 . S
C2384 C2386 1.412 . S
C2385 H2377 0.930 . S
C2385 C2384 1.355 . S
C2385 C2388 1.402 . S
C2386 C2384 1.412 . S
C2386 C2387 1.417 . S
C2386 C2410 1.431 . S
C2387 N2383 1.350 . S
C2387 C2386 1.417 . S
C2387 C2390 1.426 . S
C2388 H2371 0.930 . S
C2388 N2383 1.307 . S
C2388 C2385 1.402 . S
N2389 Gd2352 2.601 . S
N2389 C2390 1.359 . S
N2389 C2393 1.334 . S
C2390 C2387 1.426 . S
C2390 N2389 1.359 . S
C2390 C2394 1.413 . S
C2391 H2382 0.930 . S
C2391 C2392 1.359 . S
C2391 C2393 1.394 . S
C2392 C2391 1.359 . S
C2392 C2394 1.391 . S
C2392 H2395 0.929 . S
C2393 H2375 0.930 . S
C2393 N2389 1.334 . S
C2393 C2391 1.394 . S
C2394 C2390 1.413 . S
C2394 C2392 1.391 . S
C2394 C2409 1.437 . S
H2395 C2392 0.929 . S
O2396 Gd2352 2.545 . S
O2396 C2411 1.258 . S
O2397 Gd2352 2.606 . S
O2397 Gd2353 2.362 . S
O2397 C2408 1.284 . S
O2398 Gd2353 2.324 . S
O2398 C2418 1.254 . S
O2399 Gd2352 2.429 . S
O2399 C2418 1.268 . S
O2400 Gd2352 2.545 . S
O2400 C2408 1.250 . S
O2401 Gd2352 2.412 . S
O2401 C2411 1.252 . S
O2402 Gd2353 2.545 . S
O2402 C2420 1.258 . S
O2403 Gd2352 2.362 . S
O2403 Gd2353 2.606 . S
O2403 C2419 1.284 . S
O2404 Gd2352 2.324 . S
O2404 C2427 1.254 . S
O2405 Gd2353 2.429 . S
O2405 C2427 1.268 . S
O2406 Gd2353 2.545 . S
O2406 C2419 1.250 . S
O2407 Gd2353 2.412 . S
O2407 C2420 1.252 . S
C2408 O2397 1.284 . S
C2408 O2400 1.250 . S
C2409 H2378 0.929 . S
C2409 C2394 1.437 . S
C2409 C2410 1.317 . S
C2410 H2381 0.930 . S
C2410 C2386 1.431 . S
C2410 C2409 1.317 . S
C2411 Gd2352 2.828 . S
C2411 O2396 1.258 . S
C2411 O2401 1.252 . S
C2411 C2412 1.497 1_556 S
C2412 C2411 1.497 1_554 S
C2412 C2413 1.395 . S
C2412 C2414 1.380 . S
C2413 C2412 1.395 . S
C2413 C2416 1.398 . S
C2413 H2428 0.930 . S
C2414 C2412 1.380 . S
C2414 C2415 1.391 . S
C2414 H2429 0.930 . S
C2415 C2414 1.391 . S
C2415 C2417 1.387 . S
C2416 C2413 1.398 . S
C2416 C2417 1.380 . S
C2416 H2430 0.930 . S
C2417 C2415 1.387 . S
C2417 C2416 1.380 . S
C2417 H2431 0.930 . S
C2418 O2398 1.254 . S
C2418 O2399 1.268 . S
C2419 O2403 1.284 . S
C2419 O2406 1.250 . S
C2420 Gd2353 2.828 . S
C2420 O2402 1.258 . S
C2420 O2407 1.252 . S
C2420 C2421 1.497 . S
C2421 C2420 1.497 . S
C2421 C2422 1.395 . S
C2421 C2423 1.380 . S
C2422 C2421 1.395 . S
C2422 C2425 1.398 . S
C2422 H2432 0.930 . S
C2423 C2421 1.380 . S
C2423 C2424 1.391 . S
C2423 H2433 0.930 . S
C2424 C2423 1.391 . S
C2424 C2426 1.387 . S
C2425 C2422 1.398 . S
C2425 C2426 1.380 . S
C2425 H2434 0.930 . S
C2426 C2424 1.387 . S
C2426 C2425 1.380 . S
C2426 H2435 0.930 . S
C2427 O2404 1.254 . S
C2427 O2405 1.268 . S
H2428 C2413 0.930 . S
H2429 C2414 0.930 . S
H2430 C2416 0.930 . S
H2431 C2417 0.930 . S
H2432 C2422 0.930 . S
H2433 C2423 0.930 . S
H2434 C2425 0.930 . S
H2435 C2426 0.930 . S
Gd2436 N2467 2.661 . S
Gd2436 N2473 2.601 . S
Gd2436 O2480 2.545 . S
Gd2436 O2481 2.606 . S
Gd2436 O2483 2.429 . S
Gd2436 O2484 2.545 . S
Gd2436 O2485 2.412 . S
Gd2436 O2487 2.362 . S
Gd2436 O2488 2.324 . S
Gd2436 C2495 2.828 . S
Gd2437 N2446 2.661 . S
Gd2437 N2450 2.601 . S
Gd2437 O2481 2.362 . S
Gd2437 O2482 2.324 . S
Gd2437 O2486 2.545 . S
Gd2437 O2487 2.606 . S
Gd2437 O2489 2.429 . S
Gd2437 O2490 2.545 . S
Gd2437 O2491 2.412 . S
Gd2437 C2504 2.828 . S
C2438 C2441 1.417 . S
C2438 C2443 1.431 . S
C2438 C2444 1.412 . S
C2439 C2442 1.437 . S
C2439 C2443 1.317 . S
C2439 H2458 0.929 . S
C2440 C2441 1.426 . S
C2440 C2442 1.413 . S
C2440 N2450 1.359 . S
C2441 C2438 1.417 . S
C2441 C2440 1.426 . S
C2441 N2446 1.350 . S
C2442 C2439 1.437 . S
C2442 C2440 1.413 . S
C2442 C2452 1.391 . S
C2443 C2438 1.431 . S
C2443 C2439 1.317 . S
C2443 H2454 0.930 . S
C2444 C2438 1.412 . S
C2444 C2445 1.355 . S
C2444 H2456 0.930 . S
C2445 C2444 1.355 . S
C2445 C2447 1.402 . S
C2445 H2457 0.930 . S
N2446 Gd2437 2.661 . S
N2446 C2441 1.350 . S
N2446 C2447 1.307 . S
C2447 C2445 1.402 . S
C2447 N2446 1.307 . S
C2447 H2448 0.930 . S
H2448 C2447 0.930 . S
C2449 N2450 1.334 . S
C2449 C2451 1.394 . S
C2449 H2453 0.930 . S
N2450 Gd2437 2.601 . S
N2450 C2440 1.359 . S
N2450 C2449 1.334 . S
C2451 C2449 1.394 . S
C2451 C2452 1.359 . S
C2451 H2463 0.930 . S
C2452 C2442 1.391 . S
C2452 C2451 1.359 . S
C2452 H2464 0.929 . S
H2453 C2449 0.930 . S
H2454 C2443 0.930 . S
H2455 C2472 0.930 . S
H2456 C2444 0.930 . S
H2457 C2445 0.930 . S
H2458 C2439 0.929 . S
H2459 C2477 0.930 . S
H2460 C2468 0.930 . S
H2461 C2469 0.930 . S
H2462 C2493 0.929 . S
H2463 C2451 0.930 . S
H2464 C2452 0.929 . S
H2465 C2494 0.930 . S
H2466 C2475 0.930 . S
N2467 Gd2436 2.661 . S
N2467 C2471 1.350 . S
N2467 C2472 1.307 . S
C2468 H2460 0.930 . S
C2468 C2469 1.355 . S
C2468 C2470 1.412 . S
C2469 H2461 0.930 . S
C2469 C2468 1.355 . S
C2469 C2472 1.402 . S
C2470 C2468 1.412 . S
C2470 C2471 1.417 . S
C2470 C2494 1.431 . S
C2471 N2467 1.350 . S
C2471 C2470 1.417 . S
C2471 C2474 1.426 . S
C2472 H2455 0.930 . S
C2472 N2467 1.307 . S
C2472 C2469 1.402 . S
N2473 Gd2436 2.601 . S
N2473 C2474 1.359 . S
N2473 C2477 1.334 . S
C2474 C2471 1.426 . S
C2474 N2473 1.359 . S
C2474 C2478 1.413 . S
C2475 H2466 0.930 . S
C2475 C2476 1.359 . S
C2475 C2477 1.394 . S
C2476 C2475 1.359 . S
C2476 C2478 1.391 . S
C2476 H2479 0.929 . S
C2477 H2459 0.930 . S
C2477 N2473 1.334 . S
C2477 C2475 1.394 . S
C2478 C2474 1.413 . S
C2478 C2476 1.391 . S
C2478 C2493 1.437 . S
H2479 C2476 0.929 . S
O2480 Gd2436 2.545 . S
O2480 C2495 1.258 . S
O2481 Gd2436 2.606 . S
O2481 Gd2437 2.362 . S
O2481 C2492 1.284 . S
O2482 Gd2437 2.324 . S
O2482 C2502 1.254 . S
O2483 Gd2436 2.429 . S
O2483 C2502 1.268 . S
O2484 Gd2436 2.545 . S
O2484 C2492 1.250 . S
O2485 Gd2436 2.412 . S
O2485 C2495 1.252 . S
O2486 Gd2437 2.545 . S
O2486 C2504 1.258 . S
O2487 Gd2436 2.362 . S
O2487 Gd2437 2.606 . S
O2487 C2503 1.284 . S
O2488 Gd2436 2.324 . S
O2488 C2511 1.254 . S
O2489 Gd2437 2.429 . S
O2489 C2511 1.268 . S
O2490 Gd2437 2.545 . S
O2490 C2503 1.250 . S
O2491 Gd2437 2.412 . S
O2491 C2504 1.252 . S
C2492 O2481 1.284 . S
C2492 O2484 1.250 . S
C2493 H2462 0.929 . S
C2493 C2478 1.437 . S
C2493 C2494 1.317 . S
C2494 H2465 0.930 . S
C2494 C2470 1.431 . S
C2494 C2493 1.317 . S
C2495 Gd2436 2.828 . S
C2495 O2480 1.258 . S
C2495 O2485 1.252 . S
C2495 C2496 1.497 1_556 S
C2496 C2495 1.497 1_554 S
C2496 C2497 1.395 . S
C2496 C2498 1.380 . S
C2497 C2496 1.395 . S
C2497 C2500 1.398 . S
C2497 H2512 0.930 . S
C2498 C2496 1.380 . S
C2498 C2499 1.391 . S
C2498 H2513 0.930 . S
C2499 C2498 1.391 . S
C2499 C2501 1.387 . S
C2500 C2497 1.398 . S
C2500 C2501 1.380 . S
C2500 H2514 0.930 . S
C2501 C2499 1.387 . S
C2501 C2500 1.380 . S
C2501 H2515 0.930 . S
C2502 O2482 1.254 . S
C2502 O2483 1.268 . S
C2503 O2487 1.284 . S
C2503 O2490 1.250 . S
C2504 Gd2437 2.828 . S
C2504 O2486 1.258 . S
C2504 O2491 1.252 . S
C2504 C2505 1.497 . S
C2505 C2504 1.497 . S
C2505 C2506 1.395 . S
C2505 C2507 1.380 . S
C2506 C2505 1.395 . S
C2506 C2509 1.398 . S
C2506 H2516 0.930 . S
C2507 C2505 1.380 . S
C2507 C2508 1.391 . S
C2507 H2517 0.930 . S
C2508 C2507 1.391 . S
C2508 C2510 1.387 . S
C2509 C2506 1.398 . S
C2509 C2510 1.380 . S
C2509 H2518 0.930 . S
C2510 C2508 1.387 . S
C2510 C2509 1.380 . S
C2510 H2519 0.930 . S
C2511 O2488 1.254 . S
C2511 O2489 1.268 . S
H2512 C2497 0.930 . S
H2513 C2498 0.930 . S
H2514 C2500 0.930 . S
H2515 C2501 0.930 . S
H2516 C2506 0.930 . S
H2517 C2507 0.930 . S
H2518 C2509 0.930 . S
H2519 C2510 0.930 . S
Gd2520 N2551 2.661 . S
Gd2520 N2557 2.601 . S
Gd2520 O2564 2.545 . S
Gd2520 O2565 2.606 . S
Gd2520 O2567 2.429 . S
Gd2520 O2568 2.545 . S
Gd2520 O2569 2.412 . S
Gd2520 O2571 2.362 1_556 S
Gd2520 O2572 2.324 . S
Gd2520 C2579 2.828 . S
Gd2521 N2530 2.661 . S
Gd2521 N2534 2.601 . S
Gd2521 O2565 2.362 1_554 S
Gd2521 O2566 2.324 . S
Gd2521 O2570 2.545 . S
Gd2521 O2571 2.606 . S
Gd2521 O2573 2.429 1_554 S
Gd2521 O2574 2.545 . S
Gd2521 O2575 2.412 . S
Gd2521 C2588 2.828 . S
C2522 C2525 1.417 . S
C2522 C2527 1.431 . S
C2522 C2528 1.412 . S
C2523 C2526 1.437 . S
C2523 C2527 1.317 . S
C2523 H2542 0.929 . S
C2524 C2525 1.426 . S
C2524 C2526 1.413 . S
C2524 N2534 1.359 . S
C2525 C2522 1.417 . S
C2525 C2524 1.426 . S
C2525 N2530 1.350 . S
C2526 C2523 1.437 . S
C2526 C2524 1.413 . S
C2526 C2536 1.391 . S
C2527 C2522 1.431 . S
C2527 C2523 1.317 . S
C2527 H2538 0.930 . S
C2528 C2522 1.412 . S
C2528 C2529 1.355 . S
C2528 H2540 0.930 . S
C2529 C2528 1.355 . S
C2529 C2531 1.402 . S
C2529 H2541 0.930 . S
N2530 Gd2521 2.661 . S
N2530 C2525 1.350 . S
N2530 C2531 1.307 . S
C2531 C2529 1.402 . S
C2531 N2530 1.307 . S
C2531 H2532 0.930 . S
H2532 C2531 0.930 . S
C2533 N2534 1.334 . S
C2533 C2535 1.394 . S
C2533 H2537 0.930 . S
N2534 Gd2521 2.601 . S
N2534 C2524 1.359 . S
N2534 C2533 1.334 . S
C2535 C2533 1.394 . S
C2535 C2536 1.359 . S
C2535 H2547 0.930 . S
C2536 C2526 1.391 . S
C2536 C2535 1.359 . S
C2536 H2548 0.929 . S
H2537 C2533 0.930 . S
H2538 C2527 0.930 . S
H2539 C2556 0.930 . S
H2540 C2528 0.930 . S
H2541 C2529 0.930 . S
H2542 C2523 0.929 . S
H2543 C2561 0.930 . S
H2544 C2552 0.930 . S
H2545 C2553 0.930 . S
H2546 C2577 0.929 . S
H2547 C2535 0.930 . S
H2548 C2536 0.929 . S
H2549 C2578 0.930 . S
H2550 C2559 0.930 . S
N2551 Gd2520 2.661 . S
N2551 C2555 1.350 . S
N2551 C2556 1.307 . S
C2552 H2544 0.930 . S
C2552 C2553 1.355 . S
C2552 C2554 1.412 . S
C2553 H2545 0.930 . S
C2553 C2552 1.355 . S
C2553 C2556 1.402 . S
C2554 C2552 1.412 . S
C2554 C2555 1.417 . S
C2554 C2578 1.431 . S
C2555 N2551 1.350 . S
C2555 C2554 1.417 . S
C2555 C2558 1.426 . S
C2556 H2539 0.930 . S
C2556 N2551 1.307 . S
C2556 C2553 1.402 . S
N2557 Gd2520 2.601 . S
N2557 C2558 1.359 . S
N2557 C2561 1.334 . S
C2558 C2555 1.426 . S
C2558 N2557 1.359 . S
C2558 C2562 1.413 . S
C2559 H2550 0.930 . S
C2559 C2560 1.359 . S
C2559 C2561 1.394 . S
C2560 C2559 1.359 . S
C2560 C2562 1.391 . S
C2560 H2563 0.929 . S
C2561 H2543 0.930 . S
C2561 N2557 1.334 . S
C2561 C2559 1.394 . S
C2562 C2558 1.413 . S
C2562 C2560 1.391 . S
C2562 C2577 1.437 . S
H2563 C2560 0.929 . S
O2564 Gd2520 2.545 . S
O2564 C2579 1.258 . S
O2565 Gd2520 2.606 . S
O2565 Gd2521 2.362 1_556 S
O2565 C2576 1.284 . S
O2566 Gd2521 2.324 . S
O2566 C2586 1.254 . S
O2567 Gd2520 2.429 . S
O2567 C2586 1.268 1_556 S
O2568 Gd2520 2.545 . S
O2568 C2576 1.250 . S
O2569 Gd2520 2.412 . S
O2569 C2579 1.252 . S
O2570 Gd2521 2.545 . S
O2570 C2588 1.258 . S
O2571 Gd2520 2.362 1_554 S
O2571 Gd2521 2.606 . S
O2571 C2587 1.284 . S
O2572 Gd2520 2.324 . S
O2572 C2595 1.254 . S
O2573 Gd2521 2.429 1_556 S
O2573 C2595 1.268 . S
O2574 Gd2521 2.545 . S
O2574 C2587 1.250 . S
O2575 Gd2521 2.412 . S
O2575 C2588 1.252 . S
C2576 O2565 1.284 . S
C2576 O2568 1.250 . S
C2577 H2546 0.929 . S
C2577 C2562 1.437 . S
C2577 C2578 1.317 . S
C2578 H2549 0.930 . S
C2578 C2554 1.431 . S
C2578 C2577 1.317 . S
C2579 Gd2520 2.828 . S
C2579 O2564 1.258 . S
C2579 O2569 1.252 . S
C2579 C2580 1.497 . S
C2580 C2579 1.497 . S
C2580 C2581 1.395 . S
C2580 C2582 1.380 . S
C2581 C2580 1.395 . S
C2581 C2584 1.398 . S
C2581 H2596 0.930 . S
C2582 C2580 1.380 . S
C2582 C2583 1.391 . S
C2582 H2597 0.930 . S
C2583 C2582 1.391 . S
C2583 C2585 1.387 . S
C2584 C2581 1.398 . S
C2584 C2585 1.380 . S
C2584 H2598 0.930 . S
C2585 C2583 1.387 . S
C2585 C2584 1.380 . S
C2585 H2599 0.930 . S
C2586 O2566 1.254 . S
C2586 O2567 1.268 1_554 S
C2587 O2571 1.284 . S
C2587 O2574 1.250 . S
C2588 Gd2521 2.828 . S
C2588 O2570 1.258 . S
C2588 O2575 1.252 . S
C2588 C2589 1.497 . S
C2589 C2588 1.497 . S
C2589 C2590 1.395 . S
C2589 C2591 1.380 . S
C2590 C2589 1.395 . S
C2590 C2593 1.398 . S
C2590 H2600 0.930 . S
C2591 C2589 1.380 . S
C2591 C2592 1.391 . S
C2591 H2601 0.930 . S
C2592 C2591 1.391 . S
C2592 C2594 1.387 . S
C2593 C2590 1.398 . S
C2593 C2594 1.380 . S
C2593 H2602 0.930 . S
C2594 C2592 1.387 . S
C2594 C2593 1.380 . S
C2594 H2603 0.930 . S
C2595 O2572 1.254 . S
C2595 O2573 1.268 . S
H2596 C2581 0.930 . S
H2597 C2582 0.930 . S
H2598 C2584 0.930 . S
H2599 C2585 0.930 . S
H2600 C2590 0.930 . S
H2601 C2591 0.930 . S
H2602 C2593 0.930 . S
H2603 C2594 0.930 . S
Gd2604 N2635 2.661 . S
Gd2604 N2641 2.601 . S
Gd2604 O2648 2.545 . S
Gd2604 O2649 2.606 . S
Gd2604 O2651 2.429 . S
Gd2604 O2652 2.545 . S
Gd2604 O2653 2.412 . S
Gd2604 O2655 2.362 1_556 S
Gd2604 O2656 2.324 . S
Gd2604 C2663 2.828 . S
Gd2605 N2614 2.661 . S
Gd2605 N2618 2.601 . S
Gd2605 O2649 2.362 1_554 S
Gd2605 O2650 2.324 . S
Gd2605 O2654 2.545 . S
Gd2605 O2655 2.606 . S
Gd2605 O2657 2.429 1_554 S
Gd2605 O2658 2.545 . S
Gd2605 O2659 2.412 . S
Gd2605 C2672 2.828 . S
C2606 C2609 1.417 . S
C2606 C2611 1.431 . S
C2606 C2612 1.412 . S
C2607 C2610 1.437 . S
C2607 C2611 1.317 . S
C2607 H2626 0.929 . S
C2608 C2609 1.426 . S
C2608 C2610 1.413 . S
C2608 N2618 1.359 . S
C2609 C2606 1.417 . S
C2609 C2608 1.426 . S
C2609 N2614 1.350 . S
C2610 C2607 1.437 . S
C2610 C2608 1.413 . S
C2610 C2620 1.391 . S
C2611 C2606 1.431 . S
C2611 C2607 1.317 . S
C2611 H2622 0.930 . S
C2612 C2606 1.412 . S
C2612 C2613 1.355 . S
C2612 H2624 0.930 . S
C2613 C2612 1.355 . S
C2613 C2615 1.402 . S
C2613 H2625 0.930 . S
N2614 Gd2605 2.661 . S
N2614 C2609 1.350 . S
N2614 C2615 1.307 . S
C2615 C2613 1.402 . S
C2615 N2614 1.307 . S
C2615 H2616 0.930 . S
H2616 C2615 0.930 . S
C2617 N2618 1.334 . S
C2617 C2619 1.394 . S
C2617 H2621 0.930 . S
N2618 Gd2605 2.601 . S
N2618 C2608 1.359 . S
N2618 C2617 1.334 . S
C2619 C2617 1.394 . S
C2619 C2620 1.359 . S
C2619 H2631 0.930 . S
C2620 C2610 1.391 . S
C2620 C2619 1.359 . S
C2620 H2632 0.929 . S
H2621 C2617 0.930 . S
H2622 C2611 0.930 . S
H2623 C2640 0.930 . S
H2624 C2612 0.930 . S
H2625 C2613 0.930 . S
H2626 C2607 0.929 . S
H2627 C2645 0.930 . S
H2628 C2636 0.930 . S
H2629 C2637 0.930 . S
H2630 C2661 0.929 . S
H2631 C2619 0.930 . S
H2632 C2620 0.929 . S
H2633 C2662 0.930 . S
H2634 C2643 0.930 . S
N2635 Gd2604 2.661 . S
N2635 C2639 1.350 . S
N2635 C2640 1.307 . S
C2636 H2628 0.930 . S
C2636 C2637 1.355 . S
C2636 C2638 1.412 . S
C2637 H2629 0.930 . S
C2637 C2636 1.355 . S
C2637 C2640 1.402 . S
C2638 C2636 1.412 . S
C2638 C2639 1.417 . S
C2638 C2662 1.431 . S
C2639 N2635 1.350 . S
C2639 C2638 1.417 . S
C2639 C2642 1.426 . S
C2640 H2623 0.930 . S
C2640 N2635 1.307 . S
C2640 C2637 1.402 . S
N2641 Gd2604 2.601 . S
N2641 C2642 1.359 . S
N2641 C2645 1.334 . S
C2642 C2639 1.426 . S
C2642 N2641 1.359 . S
C2642 C2646 1.413 . S
C2643 H2634 0.930 . S
C2643 C2644 1.359 . S
C2643 C2645 1.394 . S
C2644 C2643 1.359 . S
C2644 C2646 1.391 . S
C2644 H2647 0.929 . S
C2645 H2627 0.930 . S
C2645 N2641 1.334 . S
C2645 C2643 1.394 . S
C2646 C2642 1.413 . S
C2646 C2644 1.391 . S
C2646 C2661 1.437 . S
H2647 C2644 0.929 . S
O2648 Gd2604 2.545 . S
O2648 C2663 1.258 . S
O2649 Gd2604 2.606 . S
O2649 Gd2605 2.362 1_556 S
O2649 C2660 1.284 . S
O2650 Gd2605 2.324 . S
O2650 C2670 1.254 . S
O2651 Gd2604 2.429 . S
O2651 C2670 1.268 1_556 S
O2652 Gd2604 2.545 . S
O2652 C2660 1.250 . S
O2653 Gd2604 2.412 . S
O2653 C2663 1.252 . S
O2654 Gd2605 2.545 . S
O2654 C2672 1.258 . S
O2655 Gd2604 2.362 1_554 S
O2655 Gd2605 2.606 . S
O2655 C2671 1.284 . S
O2656 Gd2604 2.324 . S
O2656 C2679 1.254 . S
O2657 Gd2605 2.429 1_556 S
O2657 C2679 1.268 . S
O2658 Gd2605 2.545 . S
O2658 C2671 1.250 . S
O2659 Gd2605 2.412 . S
O2659 C2672 1.252 . S
C2660 O2649 1.284 . S
C2660 O2652 1.250 . S
C2661 H2630 0.929 . S
C2661 C2646 1.437 . S
C2661 C2662 1.317 . S
C2662 H2633 0.930 . S
C2662 C2638 1.431 . S
C2662 C2661 1.317 . S
C2663 Gd2604 2.828 . S
C2663 O2648 1.258 . S
C2663 O2653 1.252 . S
C2663 C2664 1.497 . S
C2664 C2663 1.497 . S
C2664 C2665 1.395 . S
C2664 C2666 1.380 . S
C2665 C2664 1.395 . S
C2665 C2668 1.398 . S
C2665 H2680 0.930 . S
C2666 C2664 1.380 . S
C2666 C2667 1.391 . S
C2666 H2681 0.930 . S
C2667 C2666 1.391 . S
C2667 C2669 1.387 . S
C2668 C2665 1.398 . S
C2668 C2669 1.380 . S
C2668 H2682 0.930 . S
C2669 C2667 1.387 . S
C2669 C2668 1.380 . S
C2669 H2683 0.930 . S
C2670 O2650 1.254 . S
C2670 O2651 1.268 1_554 S
C2671 O2655 1.284 . S
C2671 O2658 1.250 . S
C2672 Gd2605 2.828 . S
C2672 O2654 1.258 . S
C2672 O2659 1.252 . S
C2672 C2673 1.497 . S
C2673 C2672 1.497 . S
C2673 C2674 1.395 . S
C2673 C2675 1.380 . S
C2674 C2673 1.395 . S
C2674 C2677 1.398 . S
C2674 H2684 0.930 . S
C2675 C2673 1.380 . S
C2675 C2676 1.391 . S
C2675 H2685 0.930 . S
C2676 C2675 1.391 . S
C2676 C2678 1.387 . S
C2677 C2674 1.398 . S
C2677 C2678 1.380 . S
C2677 H2686 0.930 . S
C2678 C2676 1.387 . S
C2678 C2677 1.380 . S
C2678 H2687 0.930 . S
C2679 O2656 1.254 . S
C2679 O2657 1.268 . S
H2680 C2665 0.930 . S
H2681 C2666 0.930 . S
H2682 C2668 0.930 . S
H2683 C2669 0.930 . S
H2684 C2674 0.930 . S
H2685 C2675 0.930 . S
H2686 C2677 0.930 . S
H2687 C2678 0.930 . S
C2688 C2689 1.387 . S
C2688 H2692 0.950 . S
C2688 C2697 1.390 1_556 S
C2689 C2688 1.387 . S
C2689 C2691 1.387 . S
H2690 C2697 0.950 . S
C2691 C2689 1.387 . S
C2691 C2693 1.390 1_556 S
C2691 H2695 0.950 . S
H2692 C2688 0.950 . S
C2693 C2691 1.390 1_554 S
C2693 C2694 1.387 . S
C2693 H2696 0.950 . S
C2694 C2693 1.387 . S
C2694 C2697 1.387 . S
H2695 C2691 0.950 . S
H2696 C2693 0.950 . S
C2697 C2688 1.390 1_554 S
C2697 H2690 0.950 . S
C2697 C2694 1.387 . S
C2698 C2699 1.387 1_565 S
C2698 H2702 0.950 . S
C2698 C2707 1.385 1_456 S
C2699 C2698 1.387 1_545 S
C2699 C2701 1.392 . S
H2700 C2707 0.951 . S
C2701 C2699 1.392 . S
C2701 C2703 1.385 1_456 S
C2701 H2705 0.951 . S
H2702 C2698 0.950 . S
C2703 C2701 1.385 1_654 S
C2703 C2704 1.387 1_545 S
C2703 H2706 0.950 . S
C2704 C2703 1.387 1_565 S
C2704 C2707 1.392 . S
H2705 C2701 0.951 . S
H2706 C2703 0.950 . S
C2707 C2698 1.385 1_654 S
C2707 H2700 0.951 . S
C2707 C2704 1.392 . S
C2708 C2709 1.387 . S
C2708 H2712 0.950 . S
C2708 C2717 1.390 . S
C2709 C2708 1.387 . S
C2709 C2711 1.387 1_545 S
H2710 C2717 0.950 . S
C2711 C2709 1.387 1_565 S
C2711 C2713 1.390 . S
C2711 H2715 0.950 . S
H2712 C2708 0.950 . S
C2713 C2711 1.390 . S
C2713 C2714 1.387 . S
C2713 H2716 0.950 . S
C2714 C2713 1.387 . S
C2714 C2717 1.387 1_565 S
H2715 C2711 0.950 . S
H2716 C2713 0.950 . S
C2717 C2708 1.390 . S
C2717 H2710 0.950 . S
C2717 C2714 1.387 1_545 S
C2718 C2719 1.387 1_655 S
C2718 H2722 0.950 . S
C2718 C2727 1.390 . S
C2719 C2718 1.387 1_455 S
C2719 C2721 1.387 . S
H2720 C2727 0.950 . S
C2721 C2719 1.387 . S
C2721 C2723 1.390 . S
C2721 H2725 0.950 . S
H2722 C2718 0.950 . S
C2723 C2721 1.390 . S
C2723 C2724 1.387 1_455 S
C2723 H2726 0.950 . S
C2724 C2723 1.387 1_655 S
C2724 C2727 1.387 . S
H2725 C2721 0.950 . S
H2726 C2723 0.950 . S
C2727 C2718 1.390 . S
C2727 H2720 0.950 . S
C2727 C2724 1.387 . S
C2728 C2729 1.387 . S
C2728 H2732 0.950 . S
C2728 C2737 1.390 1_556 S
C2729 C2728 1.387 . S
C2729 C2731 1.387 . S
H2730 C2737 0.950 . S
C2731 C2729 1.387 . S
C2731 C2733 1.390 1_556 S
C2731 H2735 0.950 . S
H2732 C2728 0.950 . S
C2733 C2731 1.390 1_554 S
C2733 C2734 1.387 . S
C2733 H2736 0.950 . S
C2734 C2733 1.387 . S
C2734 C2737 1.387 . S
H2735 C2731 0.950 . S
H2736 C2733 0.950 . S
C2737 C2728 1.390 1_554 S
C2737 H2730 0.950 . S
C2737 C2734 1.387 . S
C2738 C2739 1.387 1_545 S
C2738 H2742 0.950 . S
C2738 C2747 1.390 . S
C2739 C2738 1.387 1_565 S
C2739 C2741 1.387 . S
H2740 C2747 0.950 . S
C2741 C2739 1.387 . S
C2741 C2743 1.390 . S
C2741 H2745 0.950 . S
H2742 C2738 0.950 . S
C2743 C2741 1.390 . S
C2743 C2744 1.387 1_565 S
C2743 H2746 0.950 . S
C2744 C2743 1.387 1_545 S
C2744 C2747 1.387 . S
H2745 C2741 0.950 . S
H2746 C2743 0.950 . S
C2747 C2738 1.390 . S
C2747 H2740 0.950 . S
C2747 C2744 1.387 . S
C2748 C2749 1.387 . S
C2748 H2752 0.950 . S
C2748 C2757 1.390 . S
C2749 C2748 1.387 . S
C2749 C2751 1.387 1_655 S
H2750 C2757 0.950 . S
C2751 C2749 1.387 1_455 S
C2751 C2753 1.390 . S
C2751 H2755 0.950 . S
H2752 C2748 0.950 . S
C2753 C2751 1.390 . S
C2753 C2754 1.387 . S
C2753 H2756 0.950 . S
C2754 C2753 1.387 . S
C2754 C2757 1.387 1_455 S
H2755 C2751 0.950 . S
H2756 C2753 0.950 . S
C2757 C2748 1.390 . S
C2757 H2750 0.950 . S
C2757 C2754 1.387 1_655 S
C2758 C2759 1.387 . S
C2758 H2762 0.950 . S
C2758 C2767 1.390 . S
C2759 C2758 1.387 . S
C2759 C2761 1.387 . S
H2760 C2767 0.950 . S
C2761 C2759 1.387 . S
C2761 C2763 1.390 . S
C2761 H2765 0.950 . S
H2762 C2758 0.950 . S
C2763 C2761 1.390 . S
C2763 C2764 1.387 . S
C2763 H2766 0.950 . S
C2764 C2763 1.387 . S
C2764 C2767 1.387 . S
H2765 C2761 0.950 . S
H2766 C2763 0.950 . S
C2767 C2758 1.390 . S
C2767 H2760 0.950 . S
C2767 C2764 1.387 . S
C2768 C2769 1.387 . S
C2768 H2772 0.950 . S
C2768 C2777 1.395 . S
C2769 C2768 1.387 . S
C2769 C2771 1.382 1_655 S
H2770 C2777 0.949 . S
C2771 C2769 1.382 1_455 S
C2771 C2773 1.395 . S
C2771 H2775 0.949 . S
H2772 C2768 0.950 . S
C2773 C2771 1.395 . S
C2773 C2774 1.387 . S
C2773 H2776 0.950 . S
C2774 C2773 1.387 . S
C2774 C2777 1.382 1_455 S
H2775 C2771 0.949 . S
H2776 C2773 0.950 . S
C2777 C2768 1.395 . S
C2777 H2770 0.949 . S
C2777 C2774 1.382 1_655 S
C2778 C2779 1.387 . S
C2778 H2782 0.950 . S
C2778 C2787 1.390 . S
C2779 C2778 1.387 . S
C2779 C2781 1.387 . S
H2780 C2787 0.950 . S
C2781 C2779 1.387 . S
C2781 C2783 1.390 . S
C2781 H2785 0.950 . S
H2782 C2778 0.950 . S
C2783 C2781 1.390 . S
C2783 C2784 1.387 . S
C2783 H2786 0.950 . S
C2784 C2783 1.387 . S
C2784 C2787 1.387 . S
H2785 C2781 0.950 . S
H2786 C2783 0.950 . S
C2787 C2778 1.390 . S
C2787 H2780 0.950 . S
C2787 C2784 1.387 . S
C2788 C2789 1.387 . S
C2788 H2792 0.950 . S
C2788 C2797 1.390 . S
C2789 C2788 1.387 . S
C2789 C2791 1.387 . S
H2790 C2797 0.950 . S
C2791 C2789 1.387 . S
C2791 C2793 1.390 . S
C2791 H2795 0.950 . S
H2792 C2788 0.950 . S
C2793 C2791 1.390 . S
C2793 C2794 1.387 . S
C2793 H2796 0.950 . S
C2794 C2793 1.387 . S
C2794 C2797 1.387 . S
H2795 C2791 0.950 . S
H2796 C2793 0.950 . S
C2797 C2788 1.390 . S
C2797 H2790 0.950 . S
C2797 C2794 1.387 . S
C2798 C2799 1.387 . S
C2798 H2802 0.950 . S
C2798 C2807 1.390 . S
C2799 C2798 1.387 . S
C2799 C2801 1.387 . S
H2800 C2807 0.950 . S
C2801 C2799 1.387 . S
C2801 C2803 1.390 . S
C2801 H2805 0.950 . S
H2802 C2798 0.950 . S
C2803 C2801 1.390 . S
C2803 C2804 1.387 . S
C2803 H2806 0.950 . S
C2804 C2803 1.387 . S
C2804 C2807 1.387 . S
H2805 C2801 0.950 . S
H2806 C2803 0.950 . S
C2807 C2798 1.390 . S
C2807 H2800 0.950 . S
C2807 C2804 1.387 . S
C2808 C2809 1.387 1_545 S
C2808 H2812 0.950 . S
C2808 C2817 1.390 . S
C2809 C2808 1.387 1_565 S
C2809 C2811 1.387 . S
H2810 C2817 0.950 . S
C2811 C2809 1.387 . S
C2811 C2813 1.390 . S
C2811 H2815 0.950 . S
H2812 C2808 0.950 . S
C2813 C2811 1.390 . S
C2813 C2814 1.387 1_565 S
C2813 H2816 0.950 . S
C2814 C2813 1.387 1_545 S
C2814 C2817 1.387 . S
H2815 C2811 0.950 . S
H2816 C2813 0.950 . S
C2817 C2808 1.390 . S
C2817 H2810 0.950 . S
C2817 C2814 1.387 . S
C2818 C2819 1.387 . S
C2818 H2822 0.950 . S
C2818 C2827 1.390 . S
C2819 C2818 1.387 . S
C2819 C2821 1.387 . S
H2820 C2827 0.950 . S
C2821 C2819 1.387 . S
C2821 C2823 1.390 . S
C2821 H2825 0.950 . S
H2822 C2818 0.950 . S
C2823 C2821 1.390 . S
C2823 C2824 1.387 . S
C2823 H2826 0.950 . S
C2824 C2823 1.387 . S
C2824 C2827 1.387 . S
H2825 C2821 0.950 . S
H2826 C2823 0.950 . S
C2827 C2818 1.390 . S
C2827 H2820 0.950 . S
C2827 C2824 1.387 . S
C2828 C2829 1.387 . S
C2828 H2832 0.950 . S
C2828 C2837 1.390 . S
C2829 C2828 1.387 . S
C2829 C2831 1.387 . S
H2830 C2837 0.950 . S
C2831 C2829 1.387 . S
C2831 C2833 1.390 . S
C2831 H2835 0.950 . S
H2832 C2828 0.950 . S
C2833 C2831 1.390 . S
C2833 C2834 1.387 . S
C2833 H2836 0.950 . S
C2834 C2833 1.387 . S
C2834 C2837 1.387 . S
H2835 C2831 0.950 . S
H2836 C2833 0.950 . S
C2837 C2828 1.390 . S
C2837 H2830 0.950 . S
C2837 C2834 1.387 . S
C2838 C2839 1.387 . S
C2838 H2842 0.950 . S
C2838 C2847 1.390 1_556 S
C2839 C2838 1.387 . S
C2839 C2841 1.387 . S
H2840 C2847 0.950 . S
C2841 C2839 1.387 . S
C2841 C2843 1.390 1_556 S
C2841 H2845 0.950 . S
H2842 C2838 0.950 . S
C2843 C2841 1.390 1_554 S
C2843 C2844 1.387 . S
C2843 H2846 0.950 . S
C2844 C2843 1.387 . S
C2844 C2847 1.387 . S
H2845 C2841 0.950 . S
H2846 C2843 0.950 . S
C2847 C2838 1.390 1_554 S
C2847 H2840 0.950 . S
C2847 C2844 1.387 . S
C2848 C2849 1.387 . S
C2848 H2852 0.950 . S
C2848 C2857 1.390 . S
C2849 C2848 1.387 . S
C2849 C2851 1.387 . S
H2850 C2857 0.950 . S
C2851 C2849 1.387 . S
C2851 C2853 1.390 . S
C2851 H2855 0.950 . S
H2852 C2848 0.950 . S
C2853 C2851 1.390 . S
C2853 C2854 1.387 . S
C2853 H2856 0.950 . S
C2854 C2853 1.387 . S
C2854 C2857 1.387 . S
H2855 C2851 0.950 . S
H2856 C2853 0.950 . S
C2857 C2848 1.390 . S
C2857 H2850 0.950 . S
C2857 C2854 1.387 . S
C2858 C2859 1.387 . S
C2858 H2862 0.950 . S
C2858 C2867 1.390 . S
C2859 C2858 1.387 . S
C2859 C2861 1.387 1_565 S
H2860 C2867 0.950 . S
C2861 C2859 1.387 1_545 S
C2861 C2863 1.390 . S
C2861 H2865 0.950 . S
H2862 C2858 0.950 . S
C2863 C2861 1.390 . S
C2863 C2864 1.387 1_545 S
C2863 H2866 0.950 . S
C2864 C2863 1.387 1_565 S
C2864 C2867 1.387 . S
H2865 C2861 0.950 . S
H2866 C2863 0.950 . S
C2867 C2858 1.390 . S
C2867 H2860 0.950 . S
C2867 C2864 1.387 . S
C2868 C2869 1.387 . S
C2868 H2872 0.950 . S
C2868 C2877 1.390 . S
C2869 C2868 1.387 . S
C2869 C2871 1.387 1_565 S
H2870 C2877 0.950 . S
C2871 C2869 1.387 1_545 S
C2871 C2873 1.390 . S
C2871 H2875 0.950 . S
H2872 C2868 0.950 . S
C2873 C2871 1.390 . S
C2873 C2874 1.387 1_545 S
C2873 H2876 0.950 . S
C2874 C2873 1.387 1_565 S
C2874 C2877 1.387 . S
H2875 C2871 0.950 . S
H2876 C2873 0.950 . S
C2877 C2868 1.390 . S
C2877 H2870 0.950 . S
C2877 C2874 1.387 . S
C2878 C2879 1.387 . S
C2878 H2882 0.950 . S
C2878 C2887 1.390 . S
C2879 C2878 1.387 . S
C2879 C2881 1.387 . S
H2880 C2887 0.950 . S
C2881 C2879 1.387 . S
C2881 C2883 1.390 . S
C2881 H2885 0.950 . S
H2882 C2878 0.950 . S
C2883 C2881 1.390 . S
C2883 C2884 1.387 . S
C2883 H2886 0.950 . S
C2884 C2883 1.387 . S
C2884 C2887 1.387 . S
H2885 C2881 0.950 . S
H2886 C2883 0.950 . S
C2887 C2878 1.390 . S
C2887 H2880 0.950 . S
C2887 C2884 1.387 . S
C2888 C2889 1.387 . S
C2888 H2892 0.950 . S
C2888 C2897 1.390 . S
C2889 C2888 1.387 . S
C2889 C2891 1.387 . S
H2890 C2897 0.950 . S
C2891 C2889 1.387 . S
C2891 C2893 1.390 . S
C2891 H2895 0.950 . S
H2892 C2888 0.950 . S
C2893 C2891 1.390 . S
C2893 C2894 1.387 . S
C2893 H2896 0.950 . S
C2894 C2893 1.387 . S
C2894 C2897 1.387 . S
H2895 C2891 0.950 . S
H2896 C2893 0.950 . S
C2897 C2888 1.390 . S
C2897 H2890 0.950 . S
C2897 C2894 1.387 . S
C2898 C2899 1.387 1_565 S
C2898 H2902 0.950 . S
C2898 C2907 1.390 . S
C2899 C2898 1.387 1_545 S
C2899 C2901 1.387 . S
H2900 C2907 0.950 . S
C2901 C2899 1.387 . S
C2901 C2903 1.390 . S
C2901 H2905 0.950 . S
H2902 C2898 0.950 . S
C2903 C2901 1.390 . S
C2903 C2904 1.387 . S
C2903 H2906 0.950 . S
C2904 C2903 1.387 . S
C2904 C2907 1.387 1_545 S
H2905 C2901 0.950 . S
H2906 C2903 0.950 . S
C2907 C2898 1.390 . S
C2907 H2900 0.950 . S
C2907 C2904 1.387 1_565 S
C2908 C2909 1.387 . S
C2908 H2912 0.950 . S
C2908 C2917 1.390 . S
C2909 C2908 1.387 . S
C2909 C2911 1.387 1_545 S
H2910 C2917 0.950 . S
C2911 C2909 1.387 1_565 S
C2911 C2913 1.390 . S
C2911 H2915 0.950 . S
H2912 C2908 0.950 . S
C2913 C2911 1.390 . S
C2913 C2914 1.387 1_565 S
C2913 H2916 0.950 . S
C2914 C2913 1.387 1_545 S
C2914 C2917 1.387 . S
H2915 C2911 0.950 . S
H2916 C2913 0.950 . S
C2917 C2908 1.390 . S
C2917 H2910 0.950 . S
C2917 C2914 1.387 . S
C2918 C2919 1.387 . S
C2918 H2922 0.950 . S
C2918 C2927 1.390 . S
C2919 C2918 1.387 . S
C2919 C2921 1.387 . S
H2920 C2927 0.950 . S
C2921 C2919 1.387 . S
C2921 C2923 1.390 . S
C2921 H2925 0.950 . S
H2922 C2918 0.950 . S
C2923 C2921 1.390 . S
C2923 C2924 1.387 . S
C2923 H2926 0.950 . S
C2924 C2923 1.387 . S
C2924 C2927 1.387 . S
H2925 C2921 0.950 . S
H2926 C2923 0.950 . S
C2927 C2918 1.390 . S
C2927 H2920 0.950 . S
C2927 C2924 1.387 . S
C2928 C2929 1.387 . S
C2928 H2932 0.950 . S
C2928 C2937 1.390 . S
C2929 C2928 1.387 . S
C2929 C2931 1.387 . S
H2930 C2937 0.950 . S
C2931 C2929 1.387 . S
C2931 C2933 1.390 . S
C2931 H2935 0.950 . S
H2932 C2928 0.950 . S
C2933 C2931 1.390 . S
C2933 C2934 1.387 . S
C2933 H2936 0.950 . S
C2934 C2933 1.387 . S
C2934 C2937 1.387 . S
H2935 C2931 0.950 . S
H2936 C2933 0.950 . S
C2937 C2928 1.390 . S
C2937 H2930 0.950 . S
C2937 C2934 1.387 . S
C2938 C2939 1.387 . S
C2938 H2942 0.950 . S
C2938 C2947 1.390 . S
C2939 C2938 1.387 . S
C2939 C2941 1.387 . S
H2940 C2947 0.950 . S
C2941 C2939 1.387 . S
C2941 C2943 1.390 . S
C2941 H2945 0.950 . S
H2942 C2938 0.950 . S
C2943 C2941 1.390 . S
C2943 C2944 1.387 . S
C2943 H2946 0.950 . S
C2944 C2943 1.387 . S
C2944 C2947 1.387 . S
H2945 C2941 0.950 . S
H2946 C2943 0.950 . S
C2947 C2938 1.390 . S
C2947 H2940 0.950 . S
C2947 C2944 1.387 . S
C2948 C2949 1.387 . S
C2948 H2952 0.950 . S
C2948 C2957 1.390 . S
C2949 C2948 1.387 . S
C2949 C2951 1.387 . S
H2950 C2957 0.950 . S
C2951 C2949 1.387 . S
C2951 C2953 1.390 . S
C2951 H2955 0.950 . S
H2952 C2948 0.950 . S
C2953 C2951 1.390 . S
C2953 C2954 1.387 . S
C2953 H2956 0.950 . S
C2954 C2953 1.387 . S
C2954 C2957 1.387 . S
H2955 C2951 0.950 . S
H2956 C2953 0.950 . S
C2957 C2948 1.390 . S
C2957 H2950 0.950 . S
C2957 C2954 1.387 . S
C2958 C2959 1.387 . S
C2958 H2962 0.950 . S
C2958 C2967 1.390 . S
C2959 C2958 1.387 . S
C2959 C2961 1.387 . S
H2960 C2967 0.950 . S
C2961 C2959 1.387 . S
C2961 C2963 1.390 . S
C2961 H2965 0.950 . S
H2962 C2958 0.950 . S
C2963 C2961 1.390 . S
C2963 C2964 1.387 . S
C2963 H2966 0.950 . S
C2964 C2963 1.387 . S
C2964 C2967 1.387 . S
H2965 C2961 0.950 . S
H2966 C2963 0.950 . S
C2967 C2958 1.390 . S
C2967 H2960 0.950 . S
C2967 C2964 1.387 . S
C2968 C2969 1.387 . S
C2968 H2972 0.950 . S
C2968 C2977 1.390 . S
C2969 C2968 1.387 . S
C2969 C2971 1.387 . S
H2970 C2977 0.950 . S
C2971 C2969 1.387 . S
C2971 C2973 1.390 . S
C2971 H2975 0.950 . S
H2972 C2968 0.950 . S
C2973 C2971 1.390 . S
C2973 C2974 1.387 . S
C2973 H2976 0.950 . S
C2974 C2973 1.387 . S
C2974 C2977 1.387 . S
H2975 C2971 0.950 . S
H2976 C2973 0.950 . S
C2977 C2968 1.390 . S
C2977 H2970 0.950 . S
C2977 C2974 1.387 . S
C2978 C2979 1.387 . S
C2978 H2982 0.950 . S
C2978 C2987 1.390 . S
C2979 C2978 1.387 . S
C2979 C2981 1.387 . S
H2980 C2987 0.950 . S
C2981 C2979 1.387 . S
C2981 C2983 1.390 . S
C2981 H2985 0.950 . S
H2982 C2978 0.950 . S
C2983 C2981 1.390 . S
C2983 C2984 1.387 . S
C2983 H2986 0.950 . S
C2984 C2983 1.387 . S
C2984 C2987 1.387 . S
H2985 C2981 0.950 . S
H2986 C2983 0.950 . S
C2987 C2978 1.390 . S
C2987 H2980 0.950 . S
C2987 C2984 1.387 . S
C2988 C2989 1.387 . S
C2988 H2992 0.950 . S
C2988 C2997 1.390 . S
C2989 C2988 1.387 . S
C2989 C2991 1.387 . S
H2990 C2997 0.950 . S
C2991 C2989 1.387 . S
C2991 C2993 1.390 . S
C2991 H2995 0.950 . S
H2992 C2988 0.950 . S
C2993 C2991 1.390 . S
C2993 C2994 1.387 . S
C2993 H2996 0.950 . S
C2994 C2993 1.387 . S
C2994 C2997 1.387 . S
H2995 C2991 0.950 . S
H2996 C2993 0.950 . S
C2997 C2988 1.390 . S
C2997 H2990 0.950 . S
C2997 C2994 1.387 . S
C2998 C2999 1.387 . S
C2998 H3002 0.950 . S
C2998 C3007 1.390 . S
C2999 C2998 1.387 . S
C2999 C3001 1.387 . S
H3000 C3007 0.950 . S
C3001 C2999 1.387 . S
C3001 C3003 1.390 . S
C3001 H3005 0.950 . S
H3002 C2998 0.950 . S
C3003 C3001 1.390 . S
C3003 C3004 1.387 . S
C3003 H3006 0.950 . S
C3004 C3003 1.387 . S
C3004 C3007 1.387 . S
H3005 C3001 0.950 . S
H3006 C3003 0.950 . S
C3007 C2998 1.390 . S
C3007 H3000 0.950 . S
C3007 C3004 1.387 . S
C3008 C3009 1.387 . S
C3008 H3012 0.950 . S
C3008 C3017 1.390 . S
C3009 C3008 1.387 . S
C3009 C3011 1.387 . S
H3010 C3017 0.950 . S
C3011 C3009 1.387 . S
C3011 C3013 1.390 . S
C3011 H3015 0.950 . S
H3012 C3008 0.950 . S
C3013 C3011 1.390 . S
C3013 C3014 1.387 . S
C3013 H3016 0.950 . S
C3014 C3013 1.387 . S
C3014 C3017 1.387 . S
H3015 C3011 0.950 . S
H3016 C3013 0.950 . S
C3017 C3008 1.390 . S
C3017 H3010 0.950 . S
C3017 C3014 1.387 . S
C3018 C3019 1.387 . S
C3018 H3022 0.950 . S
C3018 C3027 1.390 . S
C3019 C3018 1.387 . S
C3019 C3021 1.387 1_565 S
H3020 C3027 0.950 . S
C3021 C3019 1.387 1_545 S
C3021 C3023 1.390 . S
C3021 H3025 0.950 . S
H3022 C3018 0.950 . S
C3023 C3021 1.390 . S
C3023 C3024 1.387 1_545 S
C3023 H3026 0.950 . S
C3024 C3023 1.387 1_565 S
C3024 C3027 1.387 . S
H3025 C3021 0.950 . S
H3026 C3023 0.950 . S
C3027 C3018 1.390 . S
C3027 H3020 0.950 . S
C3027 C3024 1.387 . S
C3028 C3029 1.387 1_545 S
C3028 H3032 0.950 . S
C3028 C3037 1.390 . S
C3029 C3028 1.387 1_565 S
C3029 C3031 1.387 . S
H3030 C3037 0.950 . S
C3031 C3029 1.387 . S
C3031 C3033 1.390 . S
C3031 H3035 0.950 . S
H3032 C3028 0.950 . S
C3033 C3031 1.390 . S
C3033 C3034 1.387 . S
C3033 H3036 0.950 . S
C3034 C3033 1.387 . S
C3034 C3037 1.387 1_565 S
H3035 C3031 0.950 . S
H3036 C3033 0.950 . S
C3037 C3028 1.390 . S
C3037 H3030 0.950 . S
C3037 C3034 1.387 1_545 S
C3038 C3039 1.387 . S
C3038 H3042 0.950 . S
C3038 C3047 1.390 . S
C3039 C3038 1.387 . S
C3039 C3041 1.387 . S
H3040 C3047 0.950 . S
C3041 C3039 1.387 . S
C3041 C3043 1.390 . S
C3041 H3045 0.950 . S
H3042 C3038 0.950 . S
C3043 C3041 1.390 . S
C3043 C3044 1.387 . S
C3043 H3046 0.950 . S
C3044 C3043 1.387 . S
C3044 C3047 1.387 . S
H3045 C3041 0.950 . S
H3046 C3043 0.950 . S
C3047 C3038 1.390 . S
C3047 H3040 0.950 . S
C3047 C3044 1.387 . S
C3048 C3049 1.387 . S
C3048 H3052 0.950 . S
C3048 C3057 1.390 . S
C3049 C3048 1.387 . S
C3049 C3051 1.387 . S
H3050 C3057 0.950 . S
C3051 C3049 1.387 . S
C3051 C3053 1.390 . S
C3051 H3055 0.950 . S
H3052 C3048 0.950 . S
C3053 C3051 1.390 . S
C3053 C3054 1.387 . S
C3053 H3056 0.950 . S
C3054 C3053 1.387 . S
C3054 C3057 1.387 . S
H3055 C3051 0.950 . S
H3056 C3053 0.950 . S
C3057 C3048 1.390 . S
C3057 H3050 0.950 . S
C3057 C3054 1.387 . S
C3058 C3059 1.387 1_565 S
C3058 H3062 0.950 . S
C3058 C3067 1.390 . S
C3059 C3058 1.387 1_545 S
C3059 C3061 1.387 . S
H3060 C3067 0.950 . S
C3061 C3059 1.387 . S
C3061 C3063 1.390 . S
C3061 H3065 0.950 . S
H3062 C3058 0.950 . S
C3063 C3061 1.390 . S
C3063 C3064 1.387 . S
C3063 H3066 0.950 . S
C3064 C3063 1.387 . S
C3064 C3067 1.387 1_545 S
H3065 C3061 0.950 . S
H3066 C3063 0.950 . S
C3067 C3058 1.390 . S
C3067 H3060 0.950 . S
C3067 C3064 1.387 1_565 S
C3068 C3069 1.387 . S
C3068 H3072 0.950 . S
C3068 C3077 1.390 . S
C3069 C3068 1.387 . S
C3069 C3071 1.387 1_545 S
H3070 C3077 0.950 . S
C3071 C3069 1.387 1_565 S
C3071 C3073 1.390 . S
C3071 H3075 0.950 . S
H3072 C3068 0.950 . S
C3073 C3071 1.390 . S
C3073 C3074 1.387 1_565 S
C3073 H3076 0.950 . S
C3074 C3073 1.387 1_545 S
C3074 C3077 1.387 . S
H3075 C3071 0.950 . S
H3076 C3073 0.950 . S
C3077 C3068 1.390 . S
C3077 H3070 0.950 . S
C3077 C3074 1.387 . S
C3078 C3079 1.387 . S
C3078 H3082 0.950 . S
C3078 C3087 1.390 . S
C3079 C3078 1.387 . S
C3079 C3081 1.387 . S
H3080 C3087 0.950 . S
C3081 C3079 1.387 . S
C3081 C3083 1.390 . S
C3081 H3085 0.950 . S
H3082 C3078 0.950 . S
C3083 C3081 1.390 . S
C3083 C3084 1.387 . S
C3083 H3086 0.950 . S
C3084 C3083 1.387 . S
C3084 C3087 1.387 . S
H3085 C3081 0.950 . S
H3086 C3083 0.950 . S
C3087 C3078 1.390 . S
C3087 H3080 0.950 . S
C3087 C3084 1.387 . S
C3088 C3089 1.387 . S
C3088 H3092 0.950 . S
C3088 C3097 1.390 . S
C3089 C3088 1.387 . S
C3089 C3091 1.387 . S
H3090 C3097 0.950 . S
C3091 C3089 1.387 . S
C3091 C3093 1.390 . S
C3091 H3095 0.950 . S
H3092 C3088 0.950 . S
C3093 C3091 1.390 . S
C3093 C3094 1.387 . S
C3093 H3096 0.950 . S
C3094 C3093 1.387 . S
C3094 C3097 1.387 . S
H3095 C3091 0.950 . S
H3096 C3093 0.950 . S
C3097 C3088 1.390 . S
C3097 H3090 0.950 . S
C3097 C3094 1.387 . S
C3098 C3099 1.387 . S
C3098 H3102 0.950 . S
C3098 C3107 1.390 . S
C3099 C3098 1.387 . S
C3099 C3101 1.387 . S
H3100 C3107 0.950 . S
C3101 C3099 1.387 . S
C3101 C3103 1.390 . S
C3101 H3105 0.950 . S
H3102 C3098 0.950 . S
C3103 C3101 1.390 . S
C3103 C3104 1.387 . S
C3103 H3106 0.950 . S
C3104 C3103 1.387 . S
C3104 C3107 1.387 . S
H3105 C3101 0.950 . S
H3106 C3103 0.950 . S
C3107 C3098 1.390 . S
C3107 H3100 0.950 . S
C3107 C3104 1.387 . S
C3108 C3109 1.387 1_554 S
C3108 H3112 0.950 1_554 S
C3108 C3117 1.390 . S
C3109 C3108 1.387 1_556 S
C3109 C3111 1.387 . S
H3110 C3117 0.950 . S
C3111 C3109 1.387 . S
C3111 C3113 1.390 1_556 S
C3111 H3115 0.950 . S
H3112 C3108 0.950 1_556 S
C3113 C3111 1.390 1_554 S
C3113 C3114 1.387 . S
C3113 H3116 0.950 . S
C3114 C3113 1.387 . S
C3114 C3117 1.387 . S
H3115 C3111 0.950 . S
H3116 C3113 0.950 . S
C3117 C3108 1.390 . S
C3117 H3110 0.950 . S
C3117 C3114 1.387 . S
C3118 C3119 1.387 . S
C3118 H3122 0.950 . S
C3118 C3127 1.390 1_556 S
C3119 C3118 1.387 . S
C3119 C3121 1.387 1_556 S
H3120 C3127 0.950 . S
C3121 C3119 1.387 1_554 S
C3121 C3123 1.390 . S
C3121 H3125 0.950 1_554 S
H3122 C3118 0.950 . S
C3123 C3121 1.390 . S
C3123 C3124 1.387 . S
C3123 H3126 0.950 . S
C3124 C3123 1.387 . S
C3124 C3127 1.387 . S
H3125 C3121 0.950 1_556 S
H3126 C3123 0.950 . S
C3127 C3118 1.390 1_554 S
C3127 H3120 0.950 . S
C3127 C3124 1.387 . S
C3128 C3129 1.387 . S
C3128 H3132 0.950 . S
C3128 C3137 1.390 . S
C3129 C3128 1.387 . S
C3129 C3131 1.387 . S
H3130 C3137 0.950 . S
C3131 C3129 1.387 . S
C3131 C3133 1.390 . S
C3131 H3135 0.950 . S
H3132 C3128 0.950 . S
C3133 C3131 1.390 . S
C3133 C3134 1.387 . S
C3133 H3136 0.950 . S
C3134 C3133 1.387 . S
C3134 C3137 1.387 . S
H3135 C3131 0.950 . S
H3136 C3133 0.950 . S
C3137 C3128 1.390 . S
C3137 H3130 0.950 . S
C3137 C3134 1.387 . S
C3138 C3139 1.387 . S
C3138 H3142 0.950 . S
C3138 C3147 1.390 . S
C3139 C3138 1.387 . S
C3139 C3141 1.387 . S
H3140 C3147 0.950 . S
C3141 C3139 1.387 . S
C3141 C3143 1.390 . S
C3141 H3145 0.950 . S
H3142 C3138 0.950 . S
C3143 C3141 1.390 . S
C3143 C3144 1.387 . S
C3143 H3146 0.950 . S
C3144 C3143 1.387 . S
C3144 C3147 1.387 . S
H3145 C3141 0.950 . S
H3146 C3143 0.950 . S
C3147 C3138 1.390 . S
C3147 H3140 0.950 . S
C3147 C3144 1.387 . S
C3148 C3149 1.387 1_556 S
C3148 H3152 0.950 1_556 S
C3148 C3157 1.390 . S
C3149 C3148 1.387 1_554 S
C3149 C3151 1.387 . S
H3150 C3157 0.950 . S
C3151 C3149 1.387 . S
C3151 C3153 1.390 1_554 S
C3151 H3155 0.950 . S
H3152 C3148 0.950 1_554 S
C3153 C3151 1.390 1_556 S
C3153 C3154 1.387 . S
C3153 H3156 0.950 . S
C3154 C3153 1.387 . S
C3154 C3157 1.387 . S
H3155 C3151 0.950 . S
H3156 C3153 0.950 . S
C3157 C3148 1.390 . S
C3157 H3150 0.950 . S
C3157 C3154 1.387 . S
C3158 C3159 1.387 . S
C3158 H3162 0.950 . S
C3158 C3167 1.390 1_556 S
C3159 C3158 1.387 . S
C3159 C3161 1.387 . S
H3160 C3167 0.950 . S
C3161 C3159 1.387 . S
C3161 C3163 1.390 . S
C3161 H3165 0.950 . S
H3162 C3158 0.950 . S
C3163 C3161 1.390 . S
C3163 C3164 1.387 1_556 S
C3163 H3166 0.950 1_556 S
C3164 C3163 1.387 1_554 S
C3164 C3167 1.387 . S
H3165 C3161 0.950 . S
H3166 C3163 0.950 1_554 S
C3167 C3158 1.390 1_554 S
C3167 H3160 0.950 . S
C3167 C3164 1.387 . S
C3168 C3169 1.387 . S
C3168 H3172 0.950 . S
C3168 C3177 1.390 . S
C3169 C3168 1.387 . S
C3169 C3171 1.387 . S
H3170 C3177 0.950 . S
C3171 C3169 1.387 . S
C3171 C3173 1.390 . S
C3171 H3175 0.950 . S
H3172 C3168 0.950 . S
C3173 C3171 1.390 . S
C3173 C3174 1.387 . S
C3173 H3176 0.950 . S
C3174 C3173 1.387 . S
C3174 C3177 1.387 . S
H3175 C3171 0.950 . S
H3176 C3173 0.950 . S
C3177 C3168 1.390 . S
C3177 H3170 0.950 . S
C3177 C3174 1.387 . S
C3178 C3179 1.387 . S
C3178 H3182 0.950 . S
C3178 C3187 1.390 . S
C3179 C3178 1.387 . S
C3179 C3181 1.387 1_565 S
H3180 C3187 0.950 . S
C3181 C3179 1.387 1_545 S
C3181 C3183 1.390 . S
C3181 H3185 0.950 . S
H3182 C3178 0.950 . S
C3183 C3181 1.390 . S
C3183 C3184 1.387 1_545 S
C3183 H3186 0.950 . S
C3184 C3183 1.387 1_565 S
C3184 C3187 1.387 . S
H3185 C3181 0.950 . S
H3186 C3183 0.950 . S
C3187 C3178 1.390 . S
C3187 H3180 0.950 . S
C3187 C3184 1.387 . S
C3188 C3189 1.387 1_545 S
C3188 H3192 0.950 . S
C3188 C3197 1.390 1_556 S
C3189 C3188 1.387 1_565 S
C3189 C3191 1.387 1_556 S
H3190 C3197 0.950 . S
C3191 C3189 1.387 1_554 S
C3191 C3193 1.390 . S
C3191 H3195 0.950 1_554 S
H3192 C3188 0.950 . S
C3193 C3191 1.390 . S
C3193 C3194 1.387 . S
C3193 H3196 0.950 . S
C3194 C3193 1.387 . S
C3194 C3197 1.387 1_565 S
H3195 C3191 0.950 1_556 S
H3196 C3193 0.950 . S
C3197 C3188 1.390 1_554 S
C3197 H3190 0.950 . S
C3197 C3194 1.387 1_545 S
C3198 C3199 1.387 1_554 S
C3198 H3202 0.950 1_554 S
C3198 C3207 1.390 . S
C3199 C3198 1.387 1_556 S
C3199 C3201 1.387 . S
H3200 C3207 0.950 . S
C3201 C3199 1.387 . S
C3201 C3203 1.390 1_556 S
C3201 H3205 0.950 . S
H3202 C3198 0.950 1_556 S
C3203 C3201 1.390 1_554 S
C3203 C3204 1.387 . S
C3203 H3206 0.950 . S
C3204 C3203 1.387 . S
C3204 C3207 1.387 . S
H3205 C3201 0.950 . S
H3206 C3203 0.950 . S
C3207 C3198 1.390 . S
C3207 H3200 0.950 . S
C3207 C3204 1.387 . S
C3208 C3209 1.387 . S
C3208 H3212 0.950 . S
C3208 C3217 1.390 . S
C3209 C3208 1.387 . S
C3209 C3211 1.387 . S
H3210 C3217 0.950 . S
C3211 C3209 1.387 . S
C3211 C3213 1.390 . S
C3211 H3215 0.950 . S
H3212 C3208 0.950 . S
C3213 C3211 1.390 . S
C3213 C3214 1.387 . S
C3213 H3216 0.950 . S
C3214 C3213 1.387 . S
C3214 C3217 1.387 . S
H3215 C3211 0.950 . S
H3216 C3213 0.950 . S
C3217 C3208 1.390 . S
C3217 H3210 0.950 . S
C3217 C3214 1.387 . S
C3218 C3219 1.387 1_565 S
C3218 H3222 0.950 . S
C3218 C3227 1.390 . S
C3219 C3218 1.387 1_545 S
C3219 C3221 1.387 . S
H3220 C3227 0.950 . S
C3221 C3219 1.387 . S
C3221 C3223 1.390 . S
C3221 H3225 0.950 . S
H3222 C3218 0.950 . S
C3223 C3221 1.390 . S
C3223 C3224 1.387 . S
C3223 H3226 0.950 . S
C3224 C3223 1.387 . S
C3224 C3227 1.387 1_545 S
H3225 C3221 0.950 . S
H3226 C3223 0.950 . S
C3227 C3218 1.390 . S
C3227 H3220 0.950 . S
C3227 C3224 1.387 1_565 S
C3228 C3229 1.387 . S
C3228 H3232 0.950 . S
C3228 C3237 1.390 . S
C3229 C3228 1.387 . S
C3229 C3231 1.387 1_545 S
H3230 C3237 0.950 1_554 S
C3231 C3229 1.387 1_565 S
C3231 C3233 1.379 1_556 S
C3231 H3235 0.950 . S
H3232 C3228 0.950 . S
C3233 C3231 1.379 1_554 S
C3233 C3234 1.393 1_565 S
C3233 H3236 0.956 . S
C3234 C3233 1.393 1_545 S
C3234 C3237 1.387 1_554 S
H3235 C3231 0.950 . S
H3236 C3233 0.956 . S
C3237 C3228 1.390 . S
C3237 H3230 0.950 1_556 S
C3237 C3234 1.387 1_556 S
C3238 C3239 1.387 . S
C3238 H3242 0.950 . S
C3238 C3247 1.390 . S
C3239 C3238 1.387 . S
C3239 C3241 1.387 . S
H3240 C3247 0.950 1_554 S
C3241 C3239 1.387 . S
C3241 C3243 1.384 1_556 S
C3241 H3245 0.950 . S
H3242 C3238 0.950 . S
C3243 C3241 1.384 1_554 S
C3243 C3244 1.391 . S
C3243 H3246 0.953 . S
C3244 C3243 1.391 . S
C3244 C3247 1.387 1_554 S
H3245 C3241 0.950 . S
H3246 C3243 0.953 . S
C3247 C3238 1.390 . S
C3247 H3240 0.950 1_556 S
C3247 C3244 1.387 1_556 S
C3248 C3249 1.387 . S
C3248 H3252 0.950 . S
C3248 C3257 1.390 . S
C3249 C3248 1.387 . S
C3249 C3251 1.387 . S
H3250 C3257 0.950 . S
C3251 C3249 1.387 . S
C3251 C3253 1.390 . S
C3251 H3255 0.950 . S
H3252 C3248 0.950 . S
C3253 C3251 1.390 . S
C3253 C3254 1.387 . S
C3253 H3256 0.950 . S
C3254 C3253 1.387 . S
C3254 C3257 1.387 . S
H3255 C3251 0.950 . S
H3256 C3253 0.950 . S
C3257 C3248 1.390 . S
C3257 H3250 0.950 . S
C3257 C3254 1.387 . S
C3258 C3259 1.387 . S
C3258 H3262 0.950 . S
C3258 C3267 1.390 . S
C3259 C3258 1.387 . S
C3259 C3261 1.387 . S
H3260 C3267 0.950 . S
C3261 C3259 1.387 . S
C3261 C3263 1.390 . S
C3261 H3265 0.950 . S
H3262 C3258 0.950 . S
C3263 C3261 1.390 . S
C3263 C3264 1.387 . S
C3263 H3266 0.950 . S
C3264 C3263 1.387 . S
C3264 C3267 1.387 . S
H3265 C3261 0.950 . S
H3266 C3263 0.950 . S
C3267 C3258 1.390 . S
C3267 H3260 0.950 . S
C3267 C3264 1.387 . S
C3268 C3269 1.387 . S
C3268 H3272 0.950 . S
C3268 C3277 1.390 . S
C3269 C3268 1.387 . S
C3269 C3271 1.387 . S
H3270 C3277 0.950 . S
C3271 C3269 1.387 . S
C3271 C3273 1.390 . S
C3271 H3275 0.950 . S
H3272 C3268 0.950 . S
C3273 C3271 1.390 . S
C3273 C3274 1.387 . S
C3273 H3276 0.950 . S
C3274 C3273 1.387 . S
C3274 C3277 1.387 . S
H3275 C3271 0.950 . S
H3276 C3273 0.950 . S
C3277 C3268 1.390 . S
C3277 H3270 0.950 . S
C3277 C3274 1.387 . S
C3278 C3279 1.387 . S
C3278 H3282 0.950 . S
C3278 C3287 1.390 . S
C3279 C3278 1.387 . S
C3279 C3281 1.387 . S
H3280 C3287 0.950 . S
C3281 C3279 1.387 . S
C3281 C3283 1.390 . S
C3281 H3285 0.950 . S
H3282 C3278 0.950 . S
C3283 C3281 1.390 . S
C3283 C3284 1.387 . S
C3283 H3286 0.950 . S
C3284 C3283 1.387 . S
C3284 C3287 1.387 . S
H3285 C3281 0.950 . S
H3286 C3283 0.950 . S
C3287 C3278 1.390 . S
C3287 H3280 0.950 . S
C3287 C3284 1.387 . S
C3288 C3289 1.387 . S
C3288 H3292 0.950 . S
C3288 C3297 1.390 . S
C3289 C3288 1.387 . S
C3289 C3291 1.387 . S
H3290 C3297 0.950 . S
C3291 C3289 1.387 . S
C3291 C3293 1.390 . S
C3291 H3295 0.950 . S
H3292 C3288 0.950 . S
C3293 C3291 1.390 . S
C3293 C3294 1.387 . S
C3293 H3296 0.950 . S
C3294 C3293 1.387 . S
C3294 C3297 1.387 . S
H3295 C3291 0.950 . S
H3296 C3293 0.950 . S
C3297 C3288 1.390 . S
C3297 H3290 0.950 . S
C3297 C3294 1.387 . S
C3298 C3299 1.387 . S
C3298 H3302 0.950 . S
C3298 C3307 1.390 . S
C3299 C3298 1.387 . S
C3299 C3301 1.387 . S
H3300 C3307 0.950 . S
C3301 C3299 1.387 . S
C3301 C3303 1.390 . S
C3301 H3305 0.950 . S
H3302 C3298 0.950 . S
C3303 C3301 1.390 . S
C3303 C3304 1.387 . S
C3303 H3306 0.950 . S
C3304 C3303 1.387 . S
C3304 C3307 1.387 . S
H3305 C3301 0.950 . S
H3306 C3303 0.950 . S
C3307 C3298 1.390 . S
C3307 H3300 0.950 . S
C3307 C3304 1.387 . S
C3308 C3309 1.387 . S
C3308 H3312 0.950 . S
C3308 C3317 1.390 . S
C3309 C3308 1.387 . S
C3309 C3311 1.387 . S
H3310 C3317 0.950 . S
C3311 C3309 1.387 . S
C3311 C3313 1.390 . S
C3311 H3315 0.950 . S
H3312 C3308 0.950 . S
C3313 C3311 1.390 . S
C3313 C3314 1.387 . S
C3313 H3316 0.950 . S
C3314 C3313 1.387 . S
C3314 C3317 1.387 . S
H3315 C3311 0.950 . S
H3316 C3313 0.950 . S
C3317 C3308 1.390 . S
C3317 H3310 0.950 . S
C3317 C3314 1.387 . S
C3318 C3319 1.387 . S
C3318 H3322 0.950 . S
C3318 C3327 1.390 . S
C3319 C3318 1.387 . S
C3319 C3321 1.387 . S
H3320 C3327 0.950 . S
C3321 C3319 1.387 . S
C3321 C3323 1.390 . S
C3321 H3325 0.950 . S
H3322 C3318 0.950 . S
C3323 C3321 1.390 . S
C3323 C3324 1.387 . S
C3323 H3326 0.950 . S
C3324 C3323 1.387 . S
C3324 C3327 1.387 . S
H3325 C3321 0.950 . S
H3326 C3323 0.950 . S
C3327 C3318 1.390 . S
C3327 H3320 0.950 . S
C3327 C3324 1.387 . S
C3328 C3329 1.387 . S
C3328 H3332 0.950 . S
C3328 C3337 1.390 . S
C3329 C3328 1.387 . S
C3329 C3331 1.387 . S
H3330 C3337 0.950 . S
C3331 C3329 1.387 . S
C3331 C3333 1.390 . S
C3331 H3335 0.950 . S
H3332 C3328 0.950 . S
C3333 C3331 1.390 . S
C3333 C3334 1.387 . S
C3333 H3336 0.950 . S
C3334 C3333 1.387 . S
C3334 C3337 1.387 . S
H3335 C3331 0.950 . S
H3336 C3333 0.950 . S
C3337 C3328 1.390 . S
C3337 H3330 0.950 . S
C3337 C3334 1.387 . S
C3338 C3339 1.387 . S
C3338 H3342 0.950 . S
C3338 C3347 1.390 . S
C3339 C3338 1.387 . S
C3339 C3341 1.387 . S
H3340 C3347 0.950 . S
C3341 C3339 1.387 . S
C3341 C3343 1.390 . S
C3341 H3345 0.950 . S
H3342 C3338 0.950 . S
C3343 C3341 1.390 . S
C3343 C3344 1.387 . S
C3343 H3346 0.950 . S
C3344 C3343 1.387 . S
C3344 C3347 1.387 . S
H3345 C3341 0.950 . S
H3346 C3343 0.950 . S
C3347 C3338 1.390 . S
C3347 H3340 0.950 . S
C3347 C3344 1.387 . S
C3348 C3349 1.387 . S
C3348 H3352 0.950 . S
C3348 C3357 1.390 . S
C3349 C3348 1.387 . S
C3349 C3351 1.387 . S
H3350 C3357 0.950 . S
C3351 C3349 1.387 . S
C3351 C3353 1.390 . S
C3351 H3355 0.950 . S
H3352 C3348 0.950 . S
C3353 C3351 1.390 . S
C3353 C3354 1.387 . S
C3353 H3356 0.950 . S
C3354 C3353 1.387 . S
C3354 C3357 1.387 . S
H3355 C3351 0.950 . S
H3356 C3353 0.950 . S
C3357 C3348 1.390 . S
C3357 H3350 0.950 . S
C3357 C3354 1.387 . S
C3358 C3359 1.387 . S
C3358 H3362 0.950 . S
C3358 C3367 1.390 . S
C3359 C3358 1.387 . S
C3359 C3361 1.387 . S
H3360 C3367 0.950 . S
C3361 C3359 1.387 . S
C3361 C3363 1.390 . S
C3361 H3365 0.950 . S
H3362 C3358 0.950 . S
C3363 C3361 1.390 . S
C3363 C3364 1.387 . S
C3363 H3366 0.950 . S
C3364 C3363 1.387 . S
C3364 C3367 1.387 . S
H3365 C3361 0.950 . S
H3366 C3363 0.950 . S
C3367 C3358 1.390 . S
C3367 H3360 0.950 . S
C3367 C3364 1.387 . S
C3368 C3369 1.387 . S
C3368 H3372 0.950 . S
C3368 C3377 1.390 . S
C3369 C3368 1.387 . S
C3369 C3371 1.387 . S
H3370 C3377 0.950 . S
C3371 C3369 1.387 . S
C3371 C3373 1.390 . S
C3371 H3375 0.950 . S
H3372 C3368 0.950 . S
C3373 C3371 1.390 . S
C3373 C3374 1.387 . S
C3373 H3376 0.950 . S
C3374 C3373 1.387 . S
C3374 C3377 1.387 . S
H3375 C3371 0.950 . S
H3376 C3373 0.950 . S
C3377 C3368 1.390 . S
C3377 H3370 0.950 . S
C3377 C3374 1.387 . S
C3378 C3379 1.387 . S
C3378 H3382 0.950 . S
C3378 C3387 1.390 . S
C3379 C3378 1.387 . S
C3379 C3381 1.387 . S
H3380 C3387 0.950 . S
C3381 C3379 1.387 . S
C3381 C3383 1.390 . S
C3381 H3385 0.950 . S
H3382 C3378 0.950 . S
C3383 C3381 1.390 . S
C3383 C3384 1.387 . S
C3383 H3386 0.950 . S
C3384 C3383 1.387 . S
C3384 C3387 1.387 . S
H3385 C3381 0.950 . S
H3386 C3383 0.950 . S
C3387 C3378 1.390 . S
C3387 H3380 0.950 . S
C3387 C3384 1.387 . S
C3388 C3389 1.387 . S
C3388 H3392 0.950 . S
C3388 C3397 1.390 . S
C3389 C3388 1.387 . S
C3389 C3391 1.387 . S
H3390 C3397 0.950 . S
C3391 C3389 1.387 . S
C3391 C3393 1.390 . S
C3391 H3395 0.950 . S
H3392 C3388 0.950 . S
C3393 C3391 1.390 . S
C3393 C3394 1.387 . S
C3393 H3396 0.950 . S
C3394 C3393 1.387 . S
C3394 C3397 1.387 . S
H3395 C3391 0.950 . S
H3396 C3393 0.950 . S
C3397 C3388 1.390 . S
C3397 H3390 0.950 . S
C3397 C3394 1.387 . S
C3398 C3399 1.387 . S
C3398 H3402 0.950 . S
C3398 C3407 1.390 . S
C3399 C3398 1.387 . S
C3399 C3401 1.387 . S
H3400 C3407 0.950 . S
C3401 C3399 1.387 . S
C3401 C3403 1.390 . S
C3401 H3405 0.950 . S
H3402 C3398 0.950 . S
C3403 C3401 1.390 . S
C3403 C3404 1.387 . S
C3403 H3406 0.950 . S
C3404 C3403 1.387 . S
C3404 C3407 1.387 . S
H3405 C3401 0.950 . S
H3406 C3403 0.950 . S
C3407 C3398 1.390 . S
C3407 H3400 0.950 . S
C3407 C3404 1.387 . S
C3408 C3409 1.387 . S
C3408 H3412 0.950 . S
C3408 C3417 1.390 . S
C3409 C3408 1.387 . S
C3409 C3411 1.387 . S
H3410 C3417 0.950 . S
C3411 C3409 1.387 . S
C3411 C3413 1.390 . S
C3411 H3415 0.950 . S
H3412 C3408 0.950 . S
C3413 C3411 1.390 . S
C3413 C3414 1.387 . S
C3413 H3416 0.950 . S
C3414 C3413 1.387 . S
C3414 C3417 1.387 . S
H3415 C3411 0.950 . S
H3416 C3413 0.950 . S
C3417 C3408 1.390 . S
C3417 H3410 0.950 . S
C3417 C3414 1.387 . S
C3418 C3419 1.387 . S
C3418 H3422 0.950 . S
C3418 C3427 1.390 . S
C3419 C3418 1.387 . S
C3419 C3421 1.387 . S
H3420 C3427 0.950 . S
C3421 C3419 1.387 . S
C3421 C3423 1.390 . S
C3421 H3425 0.950 . S
H3422 C3418 0.950 . S
C3423 C3421 1.390 . S
C3423 C3424 1.387 . S
C3423 H3426 0.950 . S
C3424 C3423 1.387 . S
C3424 C3427 1.387 . S
H3425 C3421 0.950 . S
H3426 C3423 0.950 . S
C3427 C3418 1.390 . S
C3427 H3420 0.950 . S
C3427 C3424 1.387 . S
C3428 C3429 1.387 . S
C3428 H3432 0.950 . S
C3428 C3437 1.390 . S
C3429 C3428 1.387 . S
C3429 C3431 1.387 . S
H3430 C3437 0.950 . S
C3431 C3429 1.387 . S
C3431 C3433 1.390 . S
C3431 H3435 0.950 . S
H3432 C3428 0.950 . S
C3433 C3431 1.390 . S
C3433 C3434 1.387 . S
C3433 H3436 0.950 . S
C3434 C3433 1.387 . S
C3434 C3437 1.387 . S
H3435 C3431 0.950 . S
H3436 C3433 0.950 . S
C3437 C3428 1.390 . S
C3437 H3430 0.950 . S
C3437 C3434 1.387 . S
C3438 C3439 1.387 . S
C3438 H3442 0.950 . S
C3438 C3447 1.390 . S
C3439 C3438 1.387 . S
C3439 C3441 1.387 . S
H3440 C3447 0.950 . S
C3441 C3439 1.387 . S
C3441 C3443 1.390 . S
C3441 H3445 0.950 . S
H3442 C3438 0.950 . S
C3443 C3441 1.390 . S
C3443 C3444 1.387 . S
C3443 H3446 0.950 . S
C3444 C3443 1.387 . S
C3444 C3447 1.387 . S
H3445 C3441 0.950 . S
H3446 C3443 0.950 . S
C3447 C3438 1.390 . S
C3447 H3440 0.950 . S
C3447 C3444 1.387 . S
C3448 C3449 1.387 . S
C3448 H3452 0.950 . S
C3448 C3457 1.390 . S
C3449 C3448 1.387 . S
C3449 C3451 1.387 . S
H3450 C3457 0.950 . S
C3451 C3449 1.387 . S
C3451 C3453 1.390 . S
C3451 H3455 0.950 . S
H3452 C3448 0.950 . S
C3453 C3451 1.390 . S
C3453 C3454 1.387 . S
C3453 H3456 0.950 . S
C3454 C3453 1.387 . S
C3454 C3457 1.387 . S
H3455 C3451 0.950 . S
H3456 C3453 0.950 . S
C3457 C3448 1.390 . S
C3457 H3450 0.950 . S
C3457 C3454 1.387 . S
C3458 C3459 1.387 . S
C3458 H3462 0.950 . S
C3458 C3467 1.390 . S
C3459 C3458 1.387 . S
C3459 C3461 1.387 . S
H3460 C3467 0.950 . S
C3461 C3459 1.387 . S
C3461 C3463 1.390 . S
C3461 H3465 0.950 . S
H3462 C3458 0.950 . S
C3463 C3461 1.390 . S
C3463 C3464 1.387 . S
C3463 H3466 0.950 . S
C3464 C3463 1.387 . S
C3464 C3467 1.387 . S
H3465 C3461 0.950 . S
H3466 C3463 0.950 . S
C3467 C3458 1.390 . S
C3467 H3460 0.950 . S
C3467 C3464 1.387 . S
C3468 C3469 1.387 . S
C3468 H3472 0.950 . S
C3468 C3477 1.390 . S
C3469 C3468 1.387 . S
C3469 C3471 1.387 . S
H3470 C3477 0.950 . S
C3471 C3469 1.387 . S
C3471 C3473 1.390 . S
C3471 H3475 0.950 . S
H3472 C3468 0.950 . S
C3473 C3471 1.390 . S
C3473 C3474 1.387 . S
C3473 H3476 0.950 . S
C3474 C3473 1.387 . S
C3474 C3477 1.387 . S
H3475 C3471 0.950 . S
H3476 C3473 0.950 . S
C3477 C3468 1.390 . S
C3477 H3470 0.950 . S
C3477 C3474 1.387 . S
C3478 C3479 1.387 . S
C3478 H3482 0.950 . S
C3478 C3487 1.390 . S
C3479 C3478 1.387 . S
C3479 C3481 1.387 . S
H3480 C3487 0.950 . S
C3481 C3479 1.387 . S
C3481 C3483 1.390 . S
C3481 H3485 0.950 . S
H3482 C3478 0.950 . S
C3483 C3481 1.390 . S
C3483 C3484 1.387 . S
C3483 H3486 0.950 . S
C3484 C3483 1.387 . S
C3484 C3487 1.387 . S
H3485 C3481 0.950 . S
H3486 C3483 0.950 . S
C3487 C3478 1.390 . S
C3487 H3480 0.950 . S
C3487 C3484 1.387 . S
C3488 C3489 1.387 . S
C3488 H3492 0.950 . S
C3488 C3497 1.390 . S
C3489 C3488 1.387 . S
C3489 C3491 1.387 . S
H3490 C3497 0.950 . S
C3491 C3489 1.387 . S
C3491 C3493 1.390 . S
C3491 H3495 0.950 . S
H3492 C3488 0.950 . S
C3493 C3491 1.390 . S
C3493 C3494 1.387 . S
C3493 H3496 0.950 . S
C3494 C3493 1.387 . S
C3494 C3497 1.387 . S
H3495 C3491 0.950 . S
H3496 C3493 0.950 . S
C3497 C3488 1.390 . S
C3497 H3490 0.950 . S
C3497 C3494 1.387 . S
C3498 C3499 1.387 . S
C3498 H3502 0.950 . S
C3498 C3507 1.390 . S
C3499 C3498 1.387 . S
C3499 C3501 1.387 . S
H3500 C3507 0.950 . S
C3501 C3499 1.387 . S
C3501 C3503 1.390 . S
C3501 H3505 0.950 . S
H3502 C3498 0.950 . S
C3503 C3501 1.390 . S
C3503 C3504 1.387 . S
C3503 H3506 0.950 . S
C3504 C3503 1.387 . S
C3504 C3507 1.387 . S
H3505 C3501 0.950 . S
H3506 C3503 0.950 . S
C3507 C3498 1.390 . S
C3507 H3500 0.950 . S
C3507 C3504 1.387 . S
C3508 C3509 1.387 . S
C3508 H3512 0.950 . S
C3508 C3517 1.390 . S
C3509 C3508 1.387 . S
C3509 C3511 1.387 . S
H3510 C3517 0.950 . S
C3511 C3509 1.387 . S
C3511 C3513 1.390 . S
C3511 H3515 0.950 . S
H3512 C3508 0.950 . S
C3513 C3511 1.390 . S
C3513 C3514 1.387 . S
C3513 H3516 0.950 . S
C3514 C3513 1.387 . S
C3514 C3517 1.387 . S
H3515 C3511 0.950 . S
H3516 C3513 0.950 . S
C3517 C3508 1.390 . S
C3517 H3510 0.950 . S
C3517 C3514 1.387 . S
C3518 C3519 1.387 . S
C3518 H3522 0.950 . S
C3518 C3527 1.390 . S
C3519 C3518 1.387 . S
C3519 C3521 1.387 . S
H3520 C3527 0.950 . S
C3521 C3519 1.387 . S
C3521 C3523 1.390 . S
C3521 H3525 0.950 . S
H3522 C3518 0.950 . S
C3523 C3521 1.390 . S
C3523 C3524 1.387 . S
C3523 H3526 0.950 . S
C3524 C3523 1.387 . S
C3524 C3527 1.387 . S
H3525 C3521 0.950 . S
H3526 C3523 0.950 . S
C3527 C3518 1.390 . S
C3527 H3520 0.950 . S
C3527 C3524 1.387 . S
C3528 C3529 1.387 . S
C3528 H3532 0.950 . S
C3528 C3537 1.390 . S
C3529 C3528 1.387 . S
C3529 C3531 1.387 . S
H3530 C3537 0.950 . S
C3531 C3529 1.387 . S
C3531 C3533 1.390 . S
C3531 H3535 0.950 . S
H3532 C3528 0.950 . S
C3533 C3531 1.390 . S
C3533 C3534 1.387 . S
C3533 H3536 0.950 . S
C3534 C3533 1.387 . S
C3534 C3537 1.387 . S
H3535 C3531 0.950 . S
H3536 C3533 0.950 . S
C3537 C3528 1.390 . S
C3537 H3530 0.950 . S
C3537 C3534 1.387 . S
C3538 C3539 1.387 . S
C3538 H3542 0.950 . S
C3538 C3547 1.390 . S
C3539 C3538 1.387 . S
C3539 C3541 1.387 . S
H3540 C3547 0.950 . S
C3541 C3539 1.387 . S
C3541 C3543 1.390 . S
C3541 H3545 0.950 . S
H3542 C3538 0.950 . S
C3543 C3541 1.390 . S
C3543 C3544 1.387 . S
C3543 H3546 0.950 . S
C3544 C3543 1.387 . S
C3544 C3547 1.387 . S
H3545 C3541 0.950 . S
H3546 C3543 0.950 . S
C3547 C3538 1.390 . S
C3547 H3540 0.950 . S
C3547 C3544 1.387 . S
C3548 C3549 1.387 . S
C3548 H3552 0.950 . S
C3548 C3557 1.390 . S
C3549 C3548 1.387 . S
C3549 C3551 1.387 . S
H3550 C3557 0.950 . S
C3551 C3549 1.387 . S
C3551 C3553 1.390 . S
C3551 H3555 0.950 . S
H3552 C3548 0.950 . S
C3553 C3551 1.390 . S
C3553 C3554 1.387 . S
C3553 H3556 0.950 . S
C3554 C3553 1.387 . S
C3554 C3557 1.387 . S
H3555 C3551 0.950 . S
H3556 C3553 0.950 . S
C3557 C3548 1.390 . S
C3557 H3550 0.950 . S
C3557 C3554 1.387 . S
C3558 C3559 1.387 . S
C3558 H3562 0.950 . S
C3558 C3567 1.390 . S
C3559 C3558 1.387 . S
C3559 C3561 1.387 . S
H3560 C3567 0.950 . S
C3561 C3559 1.387 . S
C3561 C3563 1.390 . S
C3561 H3565 0.950 . S
H3562 C3558 0.950 . S
C3563 C3561 1.390 . S
C3563 C3564 1.387 . S
C3563 H3566 0.950 . S
C3564 C3563 1.387 . S
C3564 C3567 1.387 . S
H3565 C3561 0.950 . S
H3566 C3563 0.950 . S
C3567 C3558 1.390 . S
C3567 H3560 0.950 . S
C3567 C3564 1.387 . S
C3568 C3569 1.387 . S
C3568 H3572 0.950 . S
C3568 C3577 1.390 . S
C3569 C3568 1.387 . S
C3569 C3571 1.387 . S
H3570 C3577 0.950 . S
C3571 C3569 1.387 . S
C3571 C3573 1.390 . S
C3571 H3575 0.950 . S
H3572 C3568 0.950 . S
C3573 C3571 1.390 . S
C3573 C3574 1.387 . S
C3573 H3576 0.950 . S
C3574 C3573 1.387 . S
C3574 C3577 1.387 . S
H3575 C3571 0.950 . S
H3576 C3573 0.950 . S
C3577 C3568 1.390 . S
C3577 H3570 0.950 . S
C3577 C3574 1.387 . S
C3578 C3579 1.387 . S
C3578 H3582 0.950 . S
C3578 C3587 1.390 . S
C3579 C3578 1.387 . S
C3579 C3581 1.387 . S
H3580 C3587 0.950 . S
C3581 C3579 1.387 . S
C3581 C3583 1.390 . S
C3581 H3585 0.950 . S
H3582 C3578 0.950 . S
C3583 C3581 1.390 . S
C3583 C3584 1.387 . S
C3583 H3586 0.950 . S
C3584 C3583 1.387 . S
C3584 C3587 1.387 . S
H3585 C3581 0.950 . S
H3586 C3583 0.950 . S
C3587 C3578 1.390 . S
C3587 H3580 0.950 . S
C3587 C3584 1.387 . S
C3588 C3589 1.387 . S
C3588 H3592 0.950 . S
C3588 C3597 1.390 . S
C3589 C3588 1.387 . S
C3589 C3591 1.387 . S
H3590 C3597 0.950 . S
C3591 C3589 1.387 . S
C3591 C3593 1.390 . S
C3591 H3595 0.950 . S
H3592 C3588 0.950 . S
C3593 C3591 1.390 . S
C3593 C3594 1.387 . S
C3593 H3596 0.950 . S
C3594 C3593 1.387 . S
C3594 C3597 1.387 . S
H3595 C3591 0.950 . S
H3596 C3593 0.950 . S
C3597 C3588 1.390 . S
C3597 H3590 0.950 . S
C3597 C3594 1.387 . S
C3598 C3599 1.387 . S
C3598 H3602 0.950 . S
C3598 C3607 1.390 . S
C3599 C3598 1.387 . S
C3599 C3601 1.387 . S
H3600 C3607 0.950 . S
C3601 C3599 1.387 . S
C3601 C3603 1.390 . S
C3601 H3605 0.950 . S
H3602 C3598 0.950 . S
C3603 C3601 1.390 . S
C3603 C3604 1.387 . S
C3603 H3606 0.950 . S
C3604 C3603 1.387 . S
C3604 C3607 1.387 . S
H3605 C3601 0.950 . S
H3606 C3603 0.950 . S
C3607 C3598 1.390 . S
C3607 H3600 0.950 . S
C3607 C3604 1.387 . S
C3608 C3609 1.387 . S
C3608 H3612 0.950 . S
C3608 C3617 1.390 . S
C3609 C3608 1.387 . S
C3609 C3611 1.387 . S
H3610 C3617 0.950 . S
C3611 C3609 1.387 . S
C3611 C3613 1.390 . S
C3611 H3615 0.950 . S
H3612 C3608 0.950 . S
C3613 C3611 1.390 . S
C3613 C3614 1.387 . S
C3613 H3616 0.950 . S
C3614 C3613 1.387 . S
C3614 C3617 1.387 . S
H3615 C3611 0.950 . S
H3616 C3613 0.950 . S
C3617 C3608 1.390 . S
C3617 H3610 0.950 . S
C3617 C3614 1.387 . S
C3618 C3619 1.387 . S
C3618 H3622 0.950 . S
C3618 C3627 1.390 . S
C3619 C3618 1.387 . S
C3619 C3621 1.387 . S
H3620 C3627 0.950 . S
C3621 C3619 1.387 . S
C3621 C3623 1.390 . S
C3621 H3625 0.950 . S
H3622 C3618 0.950 . S
C3623 C3621 1.390 . S
C3623 C3624 1.387 . S
C3623 H3626 0.950 . S
C3624 C3623 1.387 . S
C3624 C3627 1.387 . S
H3625 C3621 0.950 . S
H3626 C3623 0.950 . S
C3627 C3618 1.390 . S
C3627 H3620 0.950 . S
C3627 C3624 1.387 . S
C3628 C3629 1.387 . S
C3628 H3632 0.950 . S
C3628 C3637 1.390 . S
C3629 C3628 1.387 . S
C3629 C3631 1.387 . S
H3630 C3637 0.950 . S
C3631 C3629 1.387 . S
C3631 C3633 1.390 . S
C3631 H3635 0.950 . S
H3632 C3628 0.950 . S
C3633 C3631 1.390 . S
C3633 C3634 1.387 . S
C3633 H3636 0.950 . S
C3634 C3633 1.387 . S
C3634 C3637 1.387 . S
H3635 C3631 0.950 . S
H3636 C3633 0.950 . S
C3637 C3628 1.390 . S
C3637 H3630 0.950 . S
C3637 C3634 1.387 . S
C3638 C3639 1.387 . S
C3638 H3642 0.950 . S
C3638 C3647 1.390 . S
C3639 C3638 1.387 . S
C3639 C3641 1.387 . S
H3640 C3647 0.950 . S
C3641 C3639 1.387 . S
C3641 C3643 1.390 . S
C3641 H3645 0.950 . S
H3642 C3638 0.950 . S
C3643 C3641 1.390 . S
C3643 C3644 1.387 . S
C3643 H3646 0.950 . S
C3644 C3643 1.387 . S
C3644 C3647 1.387 . S
H3645 C3641 0.950 . S
H3646 C3643 0.950 . S
C3647 C3638 1.390 . S
C3647 H3640 0.950 . S
C3647 C3644 1.387 . S
C2689 C2408 1.617 . S
C2694 C67 1.617 . S
C2699 C476 1.617 . S
C2704 C151 1.617 . S
C2709 C1904 1.612 . S
C2714 C235 1.612 . S
C2719 C1316 1.612 . S
C2724 C319 1.612 . S
C2729 C392 1.617 . S
C2734 C2083 1.617 . S
C2739 C1579 1.612 . S
C2744 C560 1.612 . S
C2749 C991 1.612 . S
C2754 C644 1.612 . S
C2759 C1736 1.612 . S
C2764 C739 1.612 . S
C2769 C823 1.612 . S
C2774 C1148 1.612 . S
C2779 C907 1.612 . S
C2784 C2576 1.612 . S
C2789 C1411 1.612 . S
C2794 C1064 1.612 . S
C2799 C1232 1.617 . S
C2804 C2251 1.617 . S
C2809 C1495 1.612 . S
C2814 C1820 1.612 . S
C2819 C1663 1.612 . S
C2824 C2660 1.612 . S
C2829 C2335 1.616 . S
C2834 C1988 1.616 . S
C2839 C2492 1.614 . S
C2844 C2167 1.614 . S
C2849 C1652 1.486 . S
C2854 C56 1.486 . S
C2859 C1568 1.488 1_565 S
C2864 C140 1.488 1_565 S
C2869 C1484 1.488 1_565 S
C2874 C224 1.488 1_565 S
C2879 C1400 1.488 . S
C2884 C308 1.488 . S
C2889 C1999 1.488 . S
C2894 C403 1.488 . S
C2899 C487 1.488 1_545 S
C2904 C1915 1.488 1_545 S
C2909 C571 1.486 1_545 S
C2914 C1831 1.486 1_545 S
C2919 C655 1.488 . S
C2924 C1747 1.488 . S
C2929 C728 1.486 . S
C2934 C2324 1.486 . S
C2939 C812 1.486 . S
C2944 C2240 1.486 . S
C2949 C896 1.486 . S
C2954 C2156 1.486 . S
C2959 C2072 1.488 . S
C2964 C980 1.488 . S
C2969 C1075 1.486 . S
C2974 C2671 1.486 . S
C2979 C1159 1.488 . S
C2984 C2587 1.488 . S
C2989 C1243 1.488 . S
C2994 C2503 1.488 . S
C2999 C2419 1.486 . S
C3004 C1327 1.486 . S
C3009 C63 1.479 . S
C3014 C72 1.479 . S
C3019 C147 1.479 1_565 S
C3024 C156 1.479 . S
C3029 C240 1.480 . S
C3034 C231 1.480 1_565 S
C3039 C324 1.480 . S
C3044 C315 1.480 . S
C3049 C399 1.479 . S
C3054 C408 1.479 . S
C3059 C483 1.479 . S
C3064 C492 1.479 1_545 S
C3069 C567 1.479 . S
C3074 C576 1.479 1_545 S
C3079 C660 1.480 . S
C3084 C651 1.480 . S
C3089 C735 1.479 . S
C3094 C744 1.479 . S
C3099 C828 1.479 . S
C3104 C819 1.479 . S
C3109 C912 1.479 . S
C3114 C903 1.479 . S
C3119 C996 1.480 . S
C3124 C987 1.480 . S
C3129 C1071 1.480 . S
C3134 C1080 1.480 . S
C3139 C1164 1.480 . S
C3144 C1155 1.480 . S
C3149 C1239 1.480 . S
C3154 C1248 1.480 . S
C3159 C1332 1.479 . S
C3164 C1323 1.479 . S
C3169 C1407 1.480 . S
C3174 C1416 1.480 . S
C3179 C1500 1.479 . S
C3184 C1491 1.479 1_565 S
C3189 C1584 1.480 . S
C3194 C1575 1.480 1_565 S
C3199 C1668 1.479 . S
C3204 C1659 1.479 . S
C3209 C1752 1.480 . S
C3214 C1743 1.480 . S
C3219 C1827 1.479 . S
C3224 C1836 1.479 1_545 S
C3229 C1920 1.480 1_545 S
C3234 C1911 1.480 . S
C3239 C2004 1.480 . S
C3244 C1995 1.480 . S
C3249 C2079 1.480 . S
C3254 C2088 1.480 . S
C3259 C2172 1.479 . S
C3264 C2163 1.479 . S
C3269 C2256 1.480 . S
C3274 C2247 1.480 . S
C3279 C2331 1.479 . S
C3284 C2340 1.479 . S
C3289 C2415 1.480 . S
C3294 C2424 1.480 . S
C3299 C2508 1.480 . S
C3304 C2499 1.480 . S
C3309 C2592 1.480 . S
C3314 C2583 1.480 . S
C3319 C2676 1.480 . S
C3324 C2667 1.480 . S
C3329 C915 1.732 . S
C3334 C75 1.732 . S
C3339 C999 1.732 . S
C3344 C159 1.732 . S
C3349 C243 1.732 . S
C3354 C747 1.732 . S
C3359 C831 1.732 . S
C3364 C327 1.732 . S
C3369 C402 1.732 . S
C3374 C1242 1.732 . S
C3379 C486 1.732 . S
C3384 C1326 1.732 . S
C3389 C570 1.732 . S
C3394 C1074 1.732 . S
C3399 C654 1.732 . S
C3404 C1158 1.732 . S
C3409 C2259 1.732 . S
C3414 C1419 1.732 . S
C3419 C1503 1.732 . S
C3424 C2343 1.732 . S
C3429 C2091 1.732 . S
C3434 C1587 1.732 . S
C3439 C1671 1.732 . S
C3444 C2175 1.732 . S
C3449 C2586 1.732 . S
C3454 C1746 1.732 . S
C3459 C1830 1.732 . S
C3464 C2670 1.732 . S
C3469 C1914 1.732 . S
C3474 C2418 1.732 . S
C3479 C2502 1.732 . S
C3484 C1998 1.732 . S
C3489 C66 1.337 . S
C3494 C234 1.337 . S
C3499 C318 1.334 . S
C3504 C150 1.334 . S
C3509 C579 1.337 . S
C3514 C411 1.337 . S
C3519 C495 1.337 . S
C3524 C663 1.337 . S
C3529 C738 1.334 . S
C3534 C906 1.334 . S
C3539 C990 1.334 . S
C3544 C822 1.334 . S
C3549 C1251 1.337 . S
C3554 C1083 1.337 . S
C3559 C1335 1.337 . S
C3564 C1167 1.337 . S
C3569 C1578 1.334 . S
C3574 C1410 1.334 . S
C3579 C1662 1.334 . S
C3584 C1494 1.334 . S
C3589 C1923 1.334 . S
C3594 C1755 1.334 . S
C3599 C2007 1.337 . S
C3604 C1839 1.337 . S
C3609 C2082 1.334 . S
C3614 C2250 1.334 . S
C3619 C2166 1.337 . S
C3624 C2334 1.337 . S
C3629 C2427 1.334 . S
C3634 C2595 1.334 . S
C3639 C2679 1.337 . S
C3644 C2511 1.337 . S
