# Generated by pormake.
# Topology smm, (6)-cn, num edge types: 1
# Building blocks:
#     Node 0, Type 0, BuildingBlock: UKALOJ_clean_sbu_0, # of connection points: 6
#     Node 1, Type 0, BuildingBlock: UKALOJ_clean_sbu_0, # of connection points: 6
#     Node 2, Type 0, BuildingBlock: UKALOJ_clean_sbu_0, # of connection points: 6
#     Node 3, Type 0, BuildingBlock: UKALOJ_clean_sbu_0, # of connection points: 6
#     Node 4, Type 0, BuildingBlock: UKALOJ_clean_sbu_0, # of connection points: 6
#     Node 5, Type 0, BuildingBlock: UKALOJ_clean_sbu_0, # of connection points: 6
#     Node 6, Type 0, BuildingBlock: UKALOJ_clean_sbu_0, # of connection points: 6
#     Node 7, Type 0, BuildingBlock: UKALOJ_clean_sbu_0, # of connection points: 6
#     Node 8, Type 0, BuildingBlock: UKALOJ_clean_sbu_0, # of connection points: 6
#     Edge 9, Type (0, 0), BuildingBlock: ZUJKAS_clean_linker_0, # of connection points: 2
#     Edge 10, Type (0, 0), BuildingBlock: ZUJKAS_clean_linker_0, # of connection points: 2
#     Edge 11, Type (0, 0), BuildingBlock: ZUJKAS_clean_linker_0, # of connection points: 2
#     Edge 12, Type (0, 0), BuildingBlock: ZUJKAS_clean_linker_0, # of connection points: 2
#     Edge 13, Type (0, 0), BuildingBlock: ZUJKAS_clean_linker_0, # of connection points: 2
#     Edge 14, Type (0, 0), BuildingBlock: ZUJKAS_clean_linker_0, # of connection points: 2
#     Edge 15, Type (0, 0), BuildingBlock: ZUJKAS_clean_linker_0, # of connection points: 2
#     Edge 16, Type (0, 0), BuildingBlock: ZUJKAS_clean_linker_0, # of connection points: 2
#     Edge 17, Type (0, 0), BuildingBlock: ZUJKAS_clean_linker_0, # of connection points: 2
#     Edge 18, Type (0, 0), BuildingBlock: ZUJKAS_clean_linker_0, # of connection points: 2
#     Edge 19, Type (0, 0), BuildingBlock: ZUJKAS_clean_linker_0, # of connection points: 2
#     Edge 20, Type (0, 0), BuildingBlock: ZUJKAS_clean_linker_0, # of connection points: 2
#     Edge 21, Type (0, 0), BuildingBlock: ZUJKAS_clean_linker_0, # of connection points: 2
#     Edge 22, Type (0, 0), BuildingBlock: ZUJKAS_clean_linker_0, # of connection points: 2
#     Edge 23, Type (0, 0), BuildingBlock: ZUJKAS_clean_linker_0, # of connection points: 2
#     Edge 24, Type (0, 0), BuildingBlock: ZUJKAS_clean_linker_0, # of connection points: 2
#     Edge 25, Type (0, 0), BuildingBlock: ZUJKAS_clean_linker_0, # of connection points: 2
#     Edge 26, Type (0, 0), BuildingBlock: ZUJKAS_clean_linker_0, # of connection points: 2
#     Edge 27, Type (0, 0), BuildingBlock: ZUJKAS_clean_linker_0, # of connection points: 2
#     Edge 28, Type (0, 0), BuildingBlock: ZUJKAS_clean_linker_0, # of connection points: 2
#     Edge 29, Type (0, 0), BuildingBlock: ZUJKAS_clean_linker_0, # of connection points: 2
#     Edge 30, Type (0, 0), BuildingBlock: ZUJKAS_clean_linker_0, # of connection points: 2
#     Edge 31, Type (0, 0), BuildingBlock: ZUJKAS_clean_linker_0, # of connection points: 2
#     Edge 32, Type (0, 0), BuildingBlock: ZUJKAS_clean_linker_0, # of connection points: 2
#     Edge 33, Type (0, 0), BuildingBlock: ZUJKAS_clean_linker_0, # of connection points: 2
#     Edge 34, Type (0, 0), BuildingBlock: ZUJKAS_clean_linker_0, # of connection points: 2
#     Edge 35, Type (0, 0), BuildingBlock: ZUJKAS_clean_linker_0, # of connection points: 2
# Relax obj value: 0.292
# Max RMSD: 0.260
# Mean RMSD: 0.246
data_MOF--net-smm--node1-UKALOJ_clean_sbu_0--edge1-ZUJKAS_clean_linker_0
_symmetry_space_group_name_H-M    P1
_symmetry_Int_Tables_number       1
_symmetry_cell_setting            triclinic
loop_
_symmetry_equiv_pos_as_xyz
'x, y, z'
_cell_length_a     63.255646
_cell_length_b     62.32993
_cell_length_c     24.066406
_cell_angle_alpha  92.933399
_cell_angle_beta   92.799115
_cell_angle_gamma 119.99638
loop_
_atom_site_label
_atom_site_type_symbol
_atom_site_fract_x
_atom_site_fract_y
_atom_site_fract_z
_atom_type_partial_charge
Zn0 Zn 0.0161 0.20211 0.08806 0.0
O1 O 0.99226 0.16464 0.10968 0.0
C2 C 0.04542 0.18261 0.04436 0.0
Zn3 Zn 0.00348 0.18902 0.00016 0.0
C4 C 0.9767 0.14895 0.07172 0.0
O5 O 0.97696 0.15503 0.02235 0.0
C6 C 0.04222 0.24176 0.0122 0.0
O7 O 0.97696 0.20106 0.00041 0.0
O8 O 0.98703 0.2085 0.09085 0.0
N9 N 0.99367 0.17553 0.91917 0.0
C10 C 0.99471 0.18698 0.87269 0.0
C11 C 0.98484 0.14965 0.84704 0.0
N12 N 0.98734 0.15228 0.90327 0.0
N13 N 0.98949 0.17122 0.82697 0.0
C14 C 0.02648 0.20445 0.21522 0.0
C15 C 0.03379 0.24087 0.24166 0.0
N16 N 0.0258 0.21546 0.16911 0.0
N17 N 0.03056 0.23817 0.1855 0.0
N18 N 0.03125 0.21993 0.26122 0.0
H19 H 0.03045 0.17464 0.17749 0.0
H20 H 0.00374 0.16496 0.21532 0.0
H21 H 0.03335 0.17762 0.25297 0.0
C22 C 0.02346 0.17899 0.21519 0.0
C23 C -8e-05 0.21324 0.87198 0.0
H24 H 0.99371 0.21877 0.90949 0.0
H25 H 0.99066 0.21534 0.83401 0.0
H26 H 0.01991 0.22601 0.87158 0.0
O27 O 0.03014 0.22308 0.97709 0.0
O28 O 0.03933 0.23918 0.06387 0.0
C29 C 0.97352 0.20729 0.04882 0.0
O30 O 0.04489 0.19531 0.08651 0.0
O31 O 0.02982 0.1767 0.00253 0.0
Zn32 Zn 0.82773 0.85008 0.09778 0.0
O33 O 0.78843 0.83345 0.08678 0.0
C34 C 0.82164 0.79901 0.09463 0.0
Zn35 Zn 0.82906 0.83499 0.01385 0.0
C36 C 0.77865 0.82305 0.03816 0.0
O37 O 0.79191 0.82216 0.00139 0.0
C38 C 0.87824 0.86212 0.06825 0.0
O39 O 0.83744 0.87115 0.98853 0.0
O40 O 0.83095 0.88218 0.071 0.0
N41 N 0.82779 0.82215 0.93349 0.0
C42 C 0.83815 0.83424 0.88877 0.0
C43 C 0.81293 0.79651 0.85951 0.0
N44 N 0.81229 0.79866 0.91531 0.0
N45 N 0.82893 0.81863 0.84182 0.0
C46 C 0.81957 0.85107 0.22326 0.0
C47 C 0.84354 0.88922 0.25136 0.0
N48 N 0.82924 0.86315 0.17806 0.0
N49 N 0.84397 0.8869 0.19551 0.0
N50 N 0.82845 0.86695 0.26979 0.0
H51 H 0.78938 0.81741 0.18114 0.0
H52 H 0.78858 0.82064 0.25601 0.0
H53 H 0.80985 0.81298 0.22705 0.0
C54 C 0.80065 0.82399 0.22163 0.0
C55 C 0.85803 0.86099 0.89124 0.0
H56 H 0.8695 0.86668 0.93145 0.0
H57 H 0.84972 0.87291 0.88737 0.0
H58 H 0.8698 0.86404 0.85635 0.0
O59 O 0.86595 0.84739 0.0258 0.0
O60 O 0.86729 0.86735 0.10501 0.0
C61 C 0.83628 0.88708 0.02155 0.0
O62 O 0.82485 0.81761 0.12566 0.0
O63 O 0.82113 0.79988 0.04194 0.0
Zn64 Zn 0.17808 0.02268 0.91746 0.0
O65 O 0.21707 0.04741 0.92096 0.0
C66 C 0.18525 0.97846 0.90627 0.0
Zn67 Zn 0.1812 0.00847 -0.00117 0.0
C68 C 0.22935 0.04744 0.96453 0.0
O69 O 0.21851 0.03309 0.00183 0.0
C70 C 0.12985 0.98427 0.95696 0.0
O71 O 0.17589 0.03778 0.03561 0.0
O72 O 0.175 0.0514 0.95369 0.0
N73 N 0.18635 -0.00118 0.07654 0.0
C74 C 0.17646 -0.00102 0.1249 0.0
C75 C 0.20564 0.99196 0.14337 0.0
N76 N 0.20431 0.9942 0.08809 0.0
N77 N 0.18827 0.99475 0.16742 0.0
C78 C 0.18348 0.03313 0.79192 0.0
C79 C 0.15234 0.03682 0.7718 0.0
N80 N 0.17275 0.03204 0.83967 0.0
N81 N 0.15356 0.03458 0.82706 0.0
N82 N 0.17096 0.03606 0.74871 0.0
H83 H 0.21061 0.02451 0.82585 0.0
H84 H 0.2209 0.04708 0.77581 0.0
H85 H 0.20079 0.01495 0.75243 0.0
C86 C 0.20506 0.02951 0.78666 0.0
C87 C 0.15718 0.006 0.13161 0.0
H88 H 0.16606 0.02551 0.15018 0.0
H89 H 0.14378 0.99409 0.16024 0.0
H90 H 0.1471 0.00418 0.09117 0.0
O91 O 0.1439 0.98377 0.99562 0.0
O92 O 0.13905 -0.00132 0.91834 0.0
C93 C 0.17411 0.05329 0.00606 0.0
O94 O 0.18102 0.99337 0.88064 0.0
O95 O 0.18667 0.98008 0.95944 0.0
Zn96 Zn 0.645 0.52511 0.27208 0.0
O97 O 0.6726 0.5175 0.24189 0.0
C98 C 0.61871 0.47423 0.30157 0.0
Zn99 Zn 0.65962 0.52366 0.35682 0.0
C100 C 0.6871 0.51472 0.27536 0.0
O101 O 0.68542 0.51633 0.32737 0.0
C102 C 0.61848 0.53468 0.35724 0.0
O103 O 0.68648 0.56233 0.36435 0.0
O104 O 0.67068 0.56309 0.28164 0.0
N105 N 0.66932 0.5193 0.43569 0.0
C106 C 0.6684 0.5294 0.48565 0.0
C107 C 0.67723 0.50132 0.50122 0.0
N108 N 0.67502 0.50199 0.44542 0.0
N109 N 0.67302 0.51827 0.5273 0.0
C110 C 0.63696 0.51981 0.14329 0.0
C111 C 0.6269 0.54701 0.1276 0.0
N112 N 0.63534 0.52943 0.1932 0.0
N113 N 0.62889 0.54619 0.18339 0.0
N114 N 0.63202 0.53071 0.10161 0.0
H115 H 0.66253 0.5072 0.13386 0.0
H116 H 0.63339 0.48793 0.09483 0.0
H117 H 0.63634 0.48688 0.16956 0.0
C118 C 0.64249 0.49916 0.13506 0.0
C119 C 0.66376 0.55064 0.49394 0.0
H120 H 0.67006 0.5627 0.45908 0.0
H121 H 0.6733 0.5619 0.53389 0.0
H122 H 0.64384 0.5432 0.49576 0.0
O123 O 0.63366 0.53156 0.38693 0.0
O124 O 0.61805 0.53256 0.30432 0.0
C125 C 0.68621 0.57433 0.32338 0.0
O126 O 0.61948 0.48749 0.26267 0.0
O127 O 0.63298 0.48448 0.34598 0.0
Zn128 Zn 0.50759 0.17929 0.29889 0.0
O129 O 0.46972 0.16927 0.29223 0.0
C130 C 0.49405 0.12527 0.29534 0.0
Zn131 Zn 0.50463 0.16171 0.21368 0.0
C132 C 0.45744 0.15666 0.24711 0.0
O133 O 0.46782 0.15109 0.20988 0.0
C134 C 0.555 0.18473 0.26082 0.0
O135 O 0.51313 0.19754 0.1862 0.0
O136 O 0.5162 0.21323 0.27201 0.0
N137 N 0.49951 0.14741 0.1327 0.0
C138 C 0.5093 0.15869 0.0867 0.0
C139 C 0.48118 0.12167 0.05968 0.0
N140 N 0.48215 0.12434 0.11589 0.0
N141 N 0.49794 0.14305 0.04043 0.0
C142 C 0.50296 0.18358 0.42618 0.0
C143 C 0.53211 0.22025 0.45187 0.0
N144 N 0.51303 0.1941 0.37973 0.0
N145 N 0.53102 0.21699 0.39574 0.0
N146 N 0.51474 0.19946 0.4719 0.0
H147 H 0.46948 0.15236 0.38718 0.0
H148 H 0.47027 0.15741 0.46214 0.0
H149 H 0.48773 0.14476 0.4331 0.0
C150 C 0.48122 0.15806 0.42694 0.0
C151 C 0.53059 0.18467 0.08695 0.0
H152 H 0.52374 0.19785 0.08355 0.0
H153 H 0.54137 0.18624 0.05079 0.0
H154 H 0.54274 0.1901 0.12599 0.0
O155 O 0.54121 0.17207 0.21761 0.0
O156 O 0.54589 0.19009 0.3017 0.0
C157 C 0.51709 0.21571 0.22025 0.0
O158 O 0.49828 0.1444 0.32606 0.0
O159 O 0.49598 0.12659 0.24311 0.0
Zn160 Zn 0.84263 0.36319 0.31967 0.0
O161 O 0.85919 0.34034 0.32201 0.0
C162 C 0.89222 0.40921 0.33582 0.0
Zn163 Zn 0.85842 0.37722 0.2402 0.0
C164 C 0.87125 0.34064 0.28096 0.0
O165 O 0.87336 0.35435 0.24209 0.0
C166 C 0.82941 0.39944 0.27397 0.0
O167 O 0.82436 0.34671 0.19959 0.0
O168 O 0.81162 0.33315 0.2807 0.0
N169 N 0.87213 0.38743 0.16522 0.0
C170 C 0.86068 0.38451 0.11442 0.0
C171 C 0.89848 0.39852 0.10353 0.0
N172 N 0.89565 0.39631 0.15849 0.0
N173 N 0.87675 0.39108 0.07508 0.0
C174 C 0.8405 0.35603 0.4454 0.0
C175 C 0.80266 0.34167 0.45657 0.0
N176 N 0.82894 0.35302 0.39469 0.0
N177 N 0.8054 0.34393 0.40158 0.0
N178 N 0.82447 0.34929 0.48486 0.0
H179 H 0.87441 0.35993 0.41945 0.0
H180 H 0.87036 0.35607 0.49275 0.0
H181 H 0.87766 0.3851 0.46576 0.0
C182 C 0.86724 0.36464 0.45625 0.0
C183 C 0.834 0.37617 0.10337 0.0
H184 H 0.82333 0.35564 0.09517 0.0
H185 H 0.83097 0.38438 0.06608 0.0
H186 H 0.82706 0.38159 0.13964 0.0
O187 O 0.84367 0.40025 0.2379 0.0
O188 O 0.82549 0.38548 0.31366 0.0
C189 C 0.80825 0.33079 0.22804 0.0
O190 O 0.87396 0.39377 0.3598 0.0
O191 O 0.89173 0.40693 0.28287 0.0
Zn192 Zn 0.35486 0.88146 0.68432 0.0
O193 O 0.3259 0.84547 0.70549 0.0
C194 C 0.38184 0.8555 0.66186 0.0
Zn195 Zn 0.34546 0.86421 0.59736 0.0
C196 C 0.31241 0.82812 0.66771 0.0
O197 O 0.31634 0.83159 0.61703 0.0
C198 C 0.38794 0.91655 0.6097 0.0
O199 O 0.32059 0.87795 0.58333 0.0
O200 O 0.3294 0.89273 0.67147 0.0
N201 N 0.33955 0.85015 0.51624 0.0
C202 C 0.34324 0.86166 0.46883 0.0
C203 C 0.33158 0.82363 0.4458 0.0
N204 N 0.33222 0.8265 0.50191 0.0
N205 N 0.33861 0.8455 0.42427 0.0
C206 C 0.35847 0.88499 0.81332 0.0
C207 C 0.36906 0.92286 0.83467 0.0
N208 N 0.36116 0.89588 0.76525 0.0
N209 N 0.36785 0.91945 0.77856 0.0
N210 N 0.36307 0.90144 0.85726 0.0
H211 H 0.35886 0.85199 0.78229 0.0
H212 H 0.3323 0.84652 0.81712 0.0
H213 H 0.36094 0.8569 0.85731 0.0
C214 C 0.35244 0.85862 0.8176 0.0
C215 C 0.3502 0.88838 0.46572 0.0
H216 H 0.344 0.89511 0.50125 0.0
H217 H 0.34215 0.89078 0.42617 0.0
H218 H 0.37042 0.90003 0.4668 0.0
O219 O 0.37534 0.89708 0.57701 0.0
O220 O 0.38312 0.91655 0.6604 0.0
C221 C 0.31739 0.88913 0.62493 0.0
O222 O 0.38035 0.87016 0.69781 0.0
O223 O 0.36919 0.84958 0.61499 0.0
Zn224 Zn 0.14713 0.52353 0.77767 0.0
O225 O 0.11072 0.51674 0.75625 0.0
C226 C 0.12839 0.46933 0.76084 0.0
Zn227 Zn 0.15103 0.51241 0.69184 0.0
C228 C 0.10372 0.51159 0.70436 0.0
O229 O 0.11722 0.50908 0.67053 0.0
C230 C 0.19493 0.52475 0.76085 0.0
O231 O 0.16941 0.55113 0.67524 0.0
O232 O 0.16129 0.55983 0.75794 0.0
N233 N 0.15243 0.50163 0.61169 0.0
C234 C 0.15084 0.51093 0.5634 0.0
C235 C 0.15412 0.47906 0.54297 0.0
N236 N 0.15447 0.48185 0.59898 0.0
N237 N 0.15203 0.49721 0.51989 0.0
C238 C 0.13369 0.52376 0.89999 0.0
C239 C 0.16161 0.55981 0.93386 0.0
N240 N 0.14704 0.53541 0.85794 0.0
N241 N 0.16422 0.55792 0.87895 0.0
N242 N 0.1426 0.53857 0.94812 0.0
H243 H 0.10204 0.49418 0.85133 0.0
H244 H 0.09874 0.49645 0.92544 0.0
H245 H 0.11747 0.48452 0.90031 0.0
C246 C 0.11157 0.49826 0.89372 0.0
C247 C 0.14665 0.53246 0.55843 0.0
H248 H 0.13709 0.53458 0.59362 0.0
H249 H 0.13567 0.53007 0.51881 0.0
H250 H 0.16462 0.5498 0.55853 0.0
O251 O 0.18437 0.51559 0.71251 0.0
O252 O 0.18417 0.53069 0.7968 0.0
C253 C 0.17026 0.56701 0.71205 0.0
O254 O 0.1328 0.48676 0.79745 0.0
O255 O 0.13353 0.47433 0.71097 0.0
Zn256 Zn 0.49425 0.66448 0.7752 0.0
O257 O 0.47808 0.68602 0.80434 0.0
C258 C 0.44807 0.63341 0.70951 0.0
Zn259 Zn 0.49637 0.67952 0.69263 0.0
C260 C 0.47602 0.70033 0.77146 0.0
O261 O 0.48336 0.70168 0.72315 0.0
C262 C 0.51349 0.64315 0.69169 0.0
O263 O 0.53348 0.70939 0.71303 0.0
O264 O 0.52916 0.69484 0.79558 0.0
N265 N 0.49485 0.69119 0.61551 0.0
C266 C 0.50728 0.69326 0.57027 0.0
C267 C 0.47782 0.69908 0.54592 0.0
N268 N 0.47677 0.69515 0.60042 0.0
N269 N 0.4969 0.69814 0.526 0.0
C270 C 0.49787 0.66412 0.90376 0.0
C271 C 0.49422 0.62873 0.91479 0.0
N272 N 0.4948 0.6527 0.8525 0.0
N273 N 0.49258 0.63073 0.85941 0.0
N274 N 0.49741 0.64941 0.94336 0.0
H275 H 0.51222 0.70183 0.88151 0.0
H276 H 0.5141 0.69891 0.95535 0.0
H277 H 0.48504 0.68965 0.91822 0.0
C278 C 0.50274 0.69017 0.91526 0.0
C279 C 0.52797 0.68811 0.5683 0.0
H280 H 0.53828 0.69283 0.60991 0.0
H281 H 0.54082 0.69895 0.5376 0.0
H282 H 0.5204 0.66808 0.55552 0.0
O283 O 0.50906 0.65677 0.66164 0.0
O284 O 0.50946 0.64258 0.74306 0.0
C285 C 0.54191 0.71107 0.76321 0.0
O286 O 0.45951 0.63453 0.75527 0.0
O287 O 0.45887 0.6497 0.67525 0.0
H288 H 0.05309 0.28758 0.05849 0.0
H289 H 0.07114 0.32634 0.01194 0.0
H290 H 0.08388 0.28955 0.8718 0.0
H291 H 0.06544 0.25084 0.91727 0.0
H292 H 0.11569 0.3564 0.96728 0.0
H293 H 0.03889 0.3115 0.80061 0.0
H294 H 0.03863 0.29747 0.86448 0.0
H295 H 0.05587 0.29571 0.80897 0.0
C296 C 0.06024 0.28798 0.01833 0.0
C297 C 0.05759 0.2662 0.99108 0.0
C298 C 0.07043 0.31004 0.99168 0.0
C299 C 0.07819 0.31056 0.93775 0.0
C300 C 0.07736 0.28934 0.91267 0.0
H301 H 0.13674 0.43282 0.71837 0.0
H302 H 0.12511 0.39301 0.75766 0.0
C303 C 0.06697 0.26731 0.93887 0.0
C304 C 0.08573 0.33273 0.90628 0.0
H305 H 0.0703 0.35247 0.78917 0.0
C306 C 0.10584 0.35553 0.92827 0.0
C307 C 0.07273 0.33152 0.85541 0.0
C308 C 0.05019 0.30781 0.83114 0.0
C309 C 0.11327 0.37718 0.90072 0.0
C310 C 0.10022 0.37593 0.85016 0.0
C311 C 0.08037 0.35315 0.82767 0.0
C312 C 0.10564 0.39862 0.82304 0.0
C313 C 0.13482 0.4014 0.92601 0.0
C314 C 0.09769 0.41423 0.84569 0.0
C315 C 0.10406 0.43663 0.82322 0.0
C316 C 0.11863 0.44391 0.77795 0.0
C317 C 0.1255 0.42763 0.75331 0.0
C318 C 0.11904 0.40505 0.77585 0.0
H319 H 0.14523 0.39863 0.96067 0.0
H320 H 0.1474 0.41112 0.89365 0.0
H321 H 0.12815 0.41369 0.94262 0.0
H322 H 0.08696 0.4093 0.88152 0.0
H323 H 0.09783 0.44841 0.8418 0.0
H324 H 0.75082 0.7841 0.96289 0.0
H325 H 0.70958 0.77032 0.92216 0.0
H326 H 0.70573 0.82466 0.03292 0.0
H327 H 0.74752 0.83868 0.07451 0.0
H328 H 0.66429 0.75316 0.97742 0.0
H329 H 0.69295 0.83861 0.86625 0.0
H330 H 0.71468 0.82991 0.89201 0.0
H331 H 0.7017 0.8421 0.94001 0.0
C332 C 0.7411 0.79292 0.97925 0.0
C333 C 0.75234 0.8125 0.02174 0.0
C334 C 0.71757 0.78505 0.95584 0.0
C335 C 0.70483 0.79674 0.97394 0.0
C336 C 0.71548 0.81564 0.01804 0.0
H337 H 0.55243 0.73732 0.86278 0.0
H338 H 0.59282 0.76258 0.91318 0.0
C339 C 0.73915 0.82342 0.04211 0.0
C340 C 0.68064 0.78905 0.94501 0.0
H341 H 0.65215 0.80588 0.84648 0.0
C342 C 0.66149 0.76478 0.94939 0.0
C343 C 0.67733 0.80418 0.90777 0.0
C344 C 0.69771 0.83014 0.90067 0.0
C345 C 0.63915 0.75507 0.91693 0.0
C346 C 0.63586 0.77009 0.87936 0.0
C347 C 0.65485 0.79449 0.87537 0.0
C348 C 0.61254 0.76029 0.84443 0.0
C349 C 0.61936 0.72855 0.92195 0.0
C350 C 0.61046 0.75181 0.78805 0.0
C351 C 0.58727 0.73745 0.75882 0.0
C352 C 0.56613 0.73137 0.78614 0.0
C353 C 0.56851 0.74165 0.84101 0.0
C354 C 0.59152 0.75609 0.86982 0.0
H355 H 0.62621 0.71822 0.94615 0.0
H356 H 0.60421 0.7285 0.94347 0.0
H357 H 0.61168 0.7185 0.87993 0.0
H358 H 0.62658 0.75486 0.76797 0.0
H359 H 0.58582 0.72952 0.71672 0.0
H360 H 0.20235 0.94839 0.94398 0.0
H361 H 0.21854 0.92686 0.88734 0.0
H362 H 0.19871 0.95042 0.73786 0.0
H363 H 0.18159 0.97071 0.79324 0.0
H364 H 0.19251 0.90545 0.71711 0.0
H365 H 0.28426 0.96772 0.82873 0.0
H366 H 0.26155 0.9483 0.87318 0.0
H367 H 0.2584 0.97173 0.83914 0.0
C368 C 0.20097 0.94847 0.89897 0.0
C369 C 0.19112 0.96168 0.8733 0.0
C370 C 0.21043 0.93638 0.86667 0.0
C371 C 0.21053 0.9377 0.80846 0.0
C372 C 0.19907 0.94931 0.78265 0.0
H373 H 0.32188 0.93454 0.62272 0.0
H374 H 0.29259 0.94569 0.65751 0.0
C375 C 0.18939 0.96106 0.81461 0.0
C376 C 0.22415 0.92893 0.77439 0.0
H377 H 0.28137 0.93813 0.75958 0.0
C378 C 0.21195 0.91254 0.72639 0.0
C379 C 0.24963 0.93867 0.78574 0.0
C380 C 0.26432 0.95776 0.83413 0.0
C381 C 0.22453 0.90566 0.68946 0.0
C382 C 0.24987 0.91491 0.7017 0.0
C383 C 0.26197 0.93113 0.74992 0.0
C384 C 0.26442 0.90773 0.66655 0.0
C385 C 0.21065 0.88918 0.63703 0.0
C386 C 0.2578 0.88264 0.65679 0.0
C387 C 0.27425 0.8763 0.63511 0.0
C388 C 0.29766 0.89494 0.62381 0.0
C389 C 0.30365 0.91987 0.62974 0.0
C390 C 0.28704 0.92621 0.65033 0.0
H391 H 0.19439 0.89077 0.62449 0.0
H392 H 0.22246 0.89382 0.60176 0.0
H393 H 0.20403 0.86951 0.64489 0.0
H394 H 0.24081 0.86806 0.67019 0.0
H395 H 0.26963 0.857 0.63263 0.0
H396 H 0.42163 0.11299 0.19745 0.0
H397 H 0.38299 0.10495 0.15047 0.0
H398 H 0.39723 0.17718 0.21508 0.0
H399 H 0.43628 0.18535 0.26302 0.0
H400 H 0.34254 0.12621 0.20844 0.0
H401 H 0.39094 0.15355 0.01532 0.0
H402 H 0.39838 0.13488 0.05776 0.0
H403 H 0.40639 0.16567 0.08452 0.0
C404 C 0.41615 0.12684 0.2032 0.0
C405 C 0.43178 0.14974 0.23383 0.0
C406 C 0.3942 0.12229 0.1761 0.0
C407 C 0.38759 0.14064 0.17871 0.0
C408 C 0.4022 0.16288 0.21261 0.0
H409 H 0.25402 0.0976 0.95518 0.0
H410 H 0.29448 0.12748 0.00345 0.0
C411 C 0.42428 0.16741 0.24033 0.0
C412 C 0.36639 0.13668 0.14191 0.0
H413 H 0.34727 0.12662 0.00305 0.0
C414 C 0.34358 0.12713 0.1637 0.0
C415 C 0.36793 0.13796 0.08361 0.0
C416 C 0.39225 0.14875 0.05871 0.0
C417 C 0.32197 0.1168 0.12803 0.0
C418 C 0.3234 0.11589 0.06955 0.0
C419 C 0.34631 0.12738 0.04793 0.0
C420 C 0.30151 0.09906 0.0317 0.0
C421 C 0.2976 0.10514 0.15284 0.0
C422 C 0.29294 0.0735 0.02953 0.0
C423 C 0.27017 0.05664 0.00226 0.0
C424 C 0.25568 0.06507 0.97621 0.0
C425 C 0.26512 0.09074 0.97417 0.0
C426 C 0.28801 0.10775 0.00212 0.0
H427 H 0.29953 0.11188 0.19747 0.0
H428 H 0.28465 0.10919 0.12924 0.0
H429 H 0.28955 0.08465 0.15005 0.0
H430 H 0.30325 0.06655 0.05191 0.0
H431 H 0.26315 0.03692 0.00467 0.0
H432 H 0.91454 0.35209 0.24222 0.0
H433 H 0.92685 0.32287 0.207 0.0
H434 H 0.86206 0.2621 0.26417 0.0
H435 H 0.84973 0.29156 0.30043 0.0
H436 H 0.93147 0.28243 0.26253 0.0
H437 H 0.86002 0.25149 0.08421 0.0
H438 H 0.87143 0.28085 0.12508 0.0
H439 H 0.8515 0.25239 0.15435 0.0
C440 C 0.90332 0.33259 0.24886 0.0
C441 C 0.88127 0.32399 0.2741 0.0
C442 C 0.9103 0.31595 0.22853 0.0
C443 C 0.89516 0.2904 0.23237 0.0
C444 C 0.87385 0.28181 0.26067 0.0
H445 H 0.93907 0.1855 0.11999 0.0
H446 H 0.91517 0.20235 0.16068 0.0
C447 C 0.86699 0.2986 0.28185 0.0
C448 C 0.90112 0.27304 0.20273 0.0
H449 H 0.88769 0.23669 0.08029 0.0
C450 C 0.92171 0.27208 0.22317 0.0
C451 C 0.88852 0.26004 0.1509 0.0
C452 C 0.86667 0.26118 0.12684 0.0
C453 C 0.93029 0.25867 0.19266 0.0
C454 C 0.91785 0.24585 0.14053 0.0
C455 C 0.89706 0.24652 0.12034 0.0
C456 C 0.92687 0.2322 0.10656 0.0
C457 C 0.95306 0.25888 0.21553 0.0
C458 C 0.94008 0.24258 0.06037 0.0
C459 C 0.95355 0.23275 0.03649 0.0
C460 C 0.95388 0.2126 0.05901 0.0
C461 C 0.93891 0.20099 0.10188 0.0
C462 C 0.92537 0.21062 0.12526 0.0
H463 H 0.96273 0.27295 0.2517 0.0
H464 H 0.94792 0.24031 0.22946 0.0
H465 H 0.96593 0.26276 0.18265 0.0
H466 H 0.94144 0.25932 0.04561 0.0
H467 H 0.96531 0.24217 0.00407 0.0
H468 H 0.8378 0.79665 0.19913 0.0
H469 H 0.82362 0.75981 0.2506 0.0
H470 H 0.7801 0.71355 0.10274 0.0
H471 H 0.79451 0.75051 0.05064 0.0
H472 H 0.77572 0.73183 0.26748 0.0
H473 H 0.80761 0.67241 0.16723 0.0
H474 H 0.82104 0.70505 0.15699 0.0
H475 H 0.79289 0.68242 0.1178 0.0
C476 C 0.82563 0.77855 0.1772 0.0
C477 C 0.817 0.77639 0.12107 0.0
C478 C 0.81762 0.75754 0.20666 0.0
C479 C 0.80088 0.73394 0.18055 0.0
C480 C 0.79339 0.73154 0.12346 0.0
H481 H 0.67943 0.6086 0.2743 0.0
H482 H 0.71092 0.64964 0.25208 0.0
C483 C 0.80156 0.75265 0.09374 0.0
C484 C 0.78868 0.71257 0.21474 0.0
H485 H 0.7729 0.65189 0.22194 0.0
C486 C 0.77553 0.71451 0.25822 0.0
C487 C 0.78865 0.6901 0.20316 0.0
C488 C 0.80352 0.6874 0.15911 0.0
C489 C 0.76113 0.6941 0.28806 0.0
C490 C 0.7597 0.67115 0.27372 0.0
C491 C 0.77402 0.66956 0.2327 0.0
C492 C 0.74087 0.64793 0.29477 0.0
C493 C 0.74682 0.69696 0.33331 0.0
C494 C 0.7473 0.6336 0.32711 0.0
C495 C 0.72918 0.61016 0.34064 0.0
C496 C 0.70462 0.60069 0.32072 0.0
C497 C 0.69824 0.61554 0.29029 0.0
C498 C 0.71619 0.63898 0.27763 0.0
H499 H 0.75504 0.7167 0.35002 0.0
H500 H 0.72783 0.69044 0.31573 0.0
H501 H 0.74589 0.68562 0.36824 0.0
H502 H 0.76634 0.64023 0.34033 0.0
H503 H 0.73455 0.59887 0.36351 0.0
H504 H 0.05766 0.48289 0.73815 0.0
H505 H 0.01897 0.4706 0.6823 0.0
H506 H 0.05945 0.52115 0.56106 0.0
H507 H 0.09777 0.53323 0.61609 0.0
H508 H 0.01195 0.51724 0.5838 0.0
H509 H 0.009 0.42764 0.53055 0.0
H510 H 0.01133 0.43728 0.60345 0.0
H511 H 0.03632 0.45489 0.56223 0.0
C512 C 0.05809 0.49194 0.70064 0.0
C513 C 0.08053 0.50887 0.68107 0.0
C514 C 0.0361 0.48483 0.66864 0.0
C515 C 0.03648 0.49482 0.61733 0.0
C516 C 0.05879 0.51326 0.60048 0.0
H517 H 0.94034 0.43011 0.31374 0.0
H518 H 0.97621 0.45427 0.38147 0.0
C519 C 0.08063 0.5201 0.63188 0.0
C520 C 0.01447 0.48403 0.57729 0.0
H521 H 0.9788 0.43343 0.48501 0.0
C522 C 0.00447 0.49882 0.56255 0.0
C523 C 0.00526 0.46026 0.54879 0.0
C524 C 0.01604 0.44405 0.56153 0.0
C525 C 0.98529 0.49031 0.52011 0.0
C526 C 0.97605 0.46649 0.49186 0.0
C527 C 0.98608 0.45176 0.50661 0.0
C528 C 0.95525 0.45585 0.4484 0.0
C529 C 0.97536 0.50696 0.50494 0.0
C530 C 0.9318 0.44934 0.46337 0.0
C531 C 0.91143 0.43556 0.42506 0.0
C532 C 0.91415 0.42803 0.37105 0.0
C533 C 0.93778 0.43586 0.3549 0.0
C534 C 0.9582 0.44951 0.39358 0.0
H535 H 0.98788 0.52657 0.52172 0.0
H536 H 0.9723 0.5063 0.4589 0.0
H537 H 0.95746 0.50036 0.52263 0.0
H538 H 0.92909 0.45376 0.50561 0.0
H539 H 0.8934 0.42984 0.43854 0.0
H540 H 0.54736 0.65763 0.61699 0.0
H541 H 0.55799 0.63159 0.55981 0.0
H542 H 0.51078 0.56828 0.64738 0.0
H543 H 0.50026 0.59471 0.7058 0.0
H544 H 0.55393 0.57011 0.62738 0.0
H545 H 0.51306 0.58221 0.43225 0.0
H546 H 0.53453 0.61181 0.46816 0.0
H547 H 0.50736 0.59082 0.5003 0.0
C548 C 0.53932 0.63818 0.62424 0.0
C549 C 0.52275 0.62805 0.66513 0.0
C550 C 0.54525 0.62328 0.59128 0.0
C551 C 0.53444 0.5978 0.59787 0.0
C552 C 0.51896 0.58783 0.64099 0.0
H553 H 0.56909 0.51719 0.33672 0.0
H554 H 0.54375 0.52751 0.39489 0.0
C555 C 0.51315 0.60292 0.67458 0.0
C556 C 0.53991 0.5821 0.55977 0.0
H557 H 0.5446 0.57121 0.42166 0.0
C558 C 0.55141 0.56987 0.58239 0.0
C559 C 0.536 0.58114 0.50099 0.0
C560 C 0.52179 0.59197 0.47406 0.0
C561 C 0.56101 0.55861 0.54784 0.0
C562 C 0.55955 0.56018 0.48938 0.0
C563 C 0.54615 0.57045 0.46652 0.0
C564 C 0.57424 0.55405 0.45254 0.0
C565 C 0.5733 0.54581 0.5745 0.0
C566 C 0.59972 0.56637 0.46418 0.0
C567 C 0.61397 0.56055 0.43141 0.0
C568 C 0.60312 0.54252 0.38581 0.0
C569 C 0.57779 0.53113 0.37184 0.0
C570 C 0.56337 0.53687 0.40518 0.0
H571 H 0.56524 0.53824 0.61391 0.0
H572 H 0.57171 0.53039 0.54599 0.0
H573 H 0.59303 0.5595 0.58506 0.0
H574 H 0.60864 0.58043 0.49902 0.0
H575 H 0.63357 0.57011 0.44196 0.0
H576 H 0.46236 0.10846 0.37455 0.0
H577 H 0.45119 0.0725 0.42727 0.0
H578 H 0.49331 0.0515 0.32567 0.0
H579 H 0.50542 0.08851 0.27337 0.0
H580 H 0.43805 0.01264 0.35107 0.0
H581 H 0.50478 0.0655 0.53435 0.0
H582 H 0.4887 0.07968 0.50402 0.0
H583 H 0.50989 0.07546 0.46454 0.0
C584 C 0.46966 0.0965 0.36405 0.0
C585 C 0.4854 0.10168 0.32122 0.0
C586 C 0.46307 0.07585 0.39385 0.0
C587 C 0.47188 0.05976 0.38109 0.0
C588 C 0.48664 0.06402 0.33645 0.0
H589 H 0.4164 0.91807 0.52816 0.0
H590 H 0.44093 0.95315 0.47434 0.0
C591 C 0.4934 0.08497 0.30652 0.0
C592 C 0.46508 0.03849 0.41489 0.0
H593 H 0.47238 0.02497 0.5477 0.0
C594 C 0.44584 0.01507 0.39366 0.0
C595 C 0.47508 0.04205 0.47066 0.0
C596 C 0.49588 0.06698 0.49493 0.0
C597 C 0.43553 0.99526 0.42767 0.0
C598 C 0.44523 -0.00109 0.484 0.0
C599 C 0.46502 0.0222 0.5046 0.0
C600 C 0.4342 0.97905 0.52258 0.0
C601 C 0.41347 0.97104 0.40377 0.0
C602 C 0.42382 0.98248 0.5702 0.0
C603 C 0.41021 0.96253 0.60198 0.0
C604 C 0.40671 0.93893 0.58608 0.0
C605 C 0.41864 0.93607 0.54093 0.0
C606 C 0.43248 0.95601 0.50986 0.0
H607 H 0.40466 0.97337 0.36527 0.0
H608 H 0.41931 0.95739 0.39275 0.0
H609 H 0.39959 0.96316 0.43462 0.0
H610 H 0.42512 0.00022 0.58099 0.0
H611 H 0.40108 0.96514 0.63643 0.0
H612 H 0.15236 0.0526 0.10252 0.0
H613 H 0.13501 0.07886 0.12853 0.0
H614 H 0.16503 0.1214 0.98785 0.0
H615 H 0.18272 0.09581 0.96255 0.0
H616 H 0.16598 0.15039 0.08055 0.0
H617 H 0.07434 0.06563 0.02932 0.0
H618 H 0.09357 0.06405 0.08451 0.0
H619 H 0.10235 0.06644 0.01423 0.0
C620 C 0.15589 0.06805 0.07832 0.0
C621 C 0.16854 0.07195 0.03006 0.0
C622 C 0.1458 0.08287 0.09288 0.0
C623 C 0.14829 0.10166 0.05927 0.0
C624 C 0.16277 0.1069 0.01412 0.0
H625 H 0.05187 0.15452 0.96294 0.0
H626 H 0.07825 0.13628 0.97077 0.0
C627 C 0.17278 0.09218 -0.0004 0.0
C628 C 0.13376 0.1141 0.06616 0.0
H629 H 0.07535 0.10342 0.04723 0.0
C630 C 0.14614 0.14016 0.0741 0.0
C631 C 0.1079 0.10063 0.05656 0.0
C632 C 0.09366 0.07266 0.04523 0.0
C633 C 0.13339 0.15319 0.07129 0.0
C634 C 0.10758 0.13971 0.06116 0.0
C635 C 0.09516 0.11365 0.05481 0.0
C636 C 0.09301 0.15219 0.05543 0.0
C637 C 0.14773 0.18125 0.07672 0.0
C638 C 0.09275 0.16726 0.10027 0.0
C639 C 0.07788 0.17782 0.09577 0.0
C640 C 0.06278 0.17328 0.0465 0.0
C641 C 0.06334 0.15844 0.00131 0.0
C642 C 0.07832 0.14796 0.00581 0.0
H643 H 0.1674 0.18861 0.07055 0.0
H644 H 0.1401 0.18884 0.046 0.0
H645 H 0.14658 0.18817 0.11922 0.0
H646 H 0.10355 0.17035 0.13928 0.0
H647 H 0.07775 0.189 0.13159 0.0
H648 H 0.87554 0.9156 0.96412 0.0
H649 H 0.89823 0.96123 0.97137 0.0
H650 H 0.84044 0.96206 0.05777 0.0
H651 H 0.81814 0.91663 0.0521 0.0
H652 H 0.89062 -0.0002 0.94508 0.0
H653 H 0.89919 0.99618 0.17431 0.0
H654 H 0.8877 0.96896 0.12571 0.0
H655 H 0.86798 0.98069 0.14489 0.0
C656 C 0.86729 0.92555 0.98266 0.0
C657 C 0.84523 0.91275 0.00786 0.0
C658 C 0.88035 0.95158 0.98732 0.0
C659 C 0.87134 0.96493 0.01682 0.0
C660 C 0.84802 0.95206 0.03637 0.0
H661 H 0.92899 0.12279 0.03479 0.0
H662 H 0.90288 0.07758 0.02693 0.0
C663 C 0.83516 0.92616 0.03244 0.0
C664 C 0.88704 0.99203 0.03126 0.0
H665 H 0.91278 0.03615 0.14215 0.0
C666 C 0.89552 0.00776 0.9881 0.0
C667 C 0.89395 0.00228 0.08756 0.0
C668 C 0.88697 0.98615 0.13581 0.0
C669 C 0.91009 0.03361 -0.00031 0.0
C670 C 0.91579 0.04396 0.05595 0.0
C671 C 0.908 0.02818 0.09913 0.0
C672 C 0.92974 0.07118 0.07029 0.0
C673 C 0.91952 0.04955 0.95152 0.0
C674 C 0.95265 0.08256 0.10148 0.0
C675 C 0.96738 0.10853 0.10735 0.0
C676 C 0.95929 0.12316 0.08171 0.0
C677 C 0.93557 0.11178 0.05474 0.0
C678 C 0.92079 0.086 0.04965 0.0
H679 H 0.91965 0.03866 0.91366 0.0
H680 H 0.90737 0.05709 0.9409 0.0
H681 H 0.93837 0.06543 0.96248 0.0
H682 H 0.95972 0.07138 0.1183 0.0
H683 H 0.98573 0.11698 0.1278 0.0
H684 H 0.91162 0.90938 0.11216 0.0
H685 H 0.95521 0.93275 0.09516 0.0
H686 H 0.94868 0.86663 0.01112 0.0
H687 H 0.90527 0.84353 0.02657 0.0
H688 H 0.99586 0.92785 0.11862 0.0
H689 H 0.97133 0.91514 0.89074 0.0
H690 H 0.94901 0.90806 0.94111 0.0
H691 H 0.95841 0.88603 0.9214 0.0
C692 C 0.9197 0.89977 0.09126 0.0
C693 C 0.90514 0.87475 0.07023 0.0
C694 C 0.9445 0.91314 0.08122 0.0
C695 C 0.95491 0.90156 0.05035 0.0
C696 C 0.94079 0.87608 0.03347 0.0
H697 H 0.1046 0.94466 0.01694 0.0
H698 H 0.06193 0.92609 0.03792 0.0
C699 C 0.91608 0.86286 0.0428 0.0
C700 C 0.98018 0.91603 0.03357 0.0
H701 H 0.01322 0.92852 0.91955 0.0
C702 C -0.00032 0.92823 0.07512 0.0
C703 C 0.98508 0.91708 0.97667 0.0
C704 C 0.96483 0.90611 0.92991 0.0
C705 C 0.02407 0.94038 0.06136 0.0
C706 C 0.02898 0.93969 0.00467 0.0
C707 C 0.00944 0.9286 0.96302 0.0
C708 C 0.05424 0.94969 0.988 0.0
C709 C 0.04429 0.95386 0.10772 0.0
C710 C 0.0636 0.96799 0.94996 0.0
C711 C 0.08792 0.9783 0.93683 0.0
C712 C 0.10318 0.97047 0.96175 0.0
C713 C 0.09333 0.95123 -0.00254 0.0
C714 C 0.06903 0.94079 0.01003 0.0
H715 H 0.03772 0.95954 0.14454 0.0
H716 H 0.05079 0.94126 0.12143 0.0
H717 H 0.06006 0.97068 0.09362 0.0
H718 H 0.05235 0.97488 0.93192 0.0
H719 H 0.09507 0.99319 0.90942 0.0
H720 H 0.73046 0.52684 0.32932 0.0
H721 H 0.75671 0.50988 0.30842 0.0
H722 H 0.71068 0.47065 0.1573 0.0
H723 H 0.68389 0.48749 0.17871 0.0
H724 H 0.71686 0.44016 0.22631 0.0
H725 H 0.80718 0.5213 0.19924 0.0
H726 H 0.79509 0.52639 0.26118 0.0
H727 H 0.77928 0.52264 0.19389 0.0
C728 C 0.72625 0.51511 0.29085 0.0
C729 C 0.70516 0.50844 0.2556 0.0
C730 C 0.7414 0.5056 0.27871 0.0
C731 C 0.73584 0.48926 0.23097 0.0
C732 C 0.71541 0.48346 0.19408 0.0
H733 H 0.83187 0.42757 0.18891 0.0
H734 H 0.80842 0.44827 0.17234 0.0
C735 C 0.70023 0.49318 0.20611 0.0
C736 C 0.74952 0.47589 0.22472 0.0
H737 H 0.80761 0.48543 0.23301 0.0
C738 C 0.73667 0.44997 0.22654 0.0
C739 C 0.77531 0.48868 0.22456 0.0
C740 C 0.78996 0.51626 0.219 0.0
C741 C 0.74908 0.43669 0.2316 0.0
C742 C 0.77499 0.4498 0.23615 0.0
C743 C 0.78775 0.47548 0.2308 0.0
C744 C 0.78923 0.43727 0.24697 0.0
C745 C 0.73431 0.40881 0.23264 0.0
C746 C 0.78658 0.42463 0.29517 0.0
C747 C 0.79995 0.41265 0.30484 0.0
C748 C 0.81636 0.41338 0.2667 0.0
C749 C 0.8194 0.42663 0.21925 0.0
C750 C 0.80598 0.43846 0.20955 0.0
H751 H 0.71551 0.40108 0.21216 0.0
H752 H 0.74331 0.39965 0.21147 0.0
H753 H 0.73263 0.40409 0.27665 0.0
H754 H 0.77417 0.42403 0.32532 0.0
H755 H 0.79727 0.40267 0.34182 0.0
H756 H 0.58288 0.44781 0.21749 0.0
H757 H 0.56071 0.40288 0.19436 0.0
H758 H 0.59782 0.39395 0.33878 0.0
H759 H 0.61975 0.43892 0.36296 0.0
H760 H 0.58089 0.3746 0.1681 0.0
H761 H 0.52732 0.34106 0.35158 0.0
H762 H 0.5421 0.3732 0.33633 0.0
H763 H 0.55945 0.36124 0.37074 0.0
C764 C 0.58601 0.43626 0.24499 0.0
C765 C 0.60304 0.44691 0.2922 0.0
C766 C 0.57338 0.41059 0.23154 0.0
C767 C 0.57748 0.39506 0.26501 0.0
C768 C 0.59401 0.40555 0.31297 0.0
H769 H 0.56069 0.25155 0.19052 0.0
H770 H 0.57365 0.29577 0.19079 0.0
C771 C 0.60657 0.43126 0.3267 0.0
C772 C 0.56562 0.36811 0.24783 0.0
H773 H 0.53088 0.31083 0.29394 0.0
C774 C 0.5697 0.36061 0.19531 0.0
C775 C 0.55074 0.34991 0.28296 0.0
C776 C 0.54442 0.35673 0.33829 0.0
C777 C 0.55998 0.33537 0.17779 0.0
C778 C 0.54624 0.31723 0.21426 0.0
C779 C 0.54151 0.32474 0.266 0.0
C780 C 0.53756 0.29045 0.20153 0.0
C781 C 0.56452 0.32841 0.12046 0.0
C782 C 0.51291 0.27271 0.20619 0.0
C783 C 0.50564 0.24758 0.20662 0.0
C784 C 0.52283 0.23983 0.20159 0.0
C785 C 0.54706 0.25719 0.19282 0.0
C786 C 0.55444 0.28242 0.19305 0.0
H787 H 0.56783 0.34297 0.09171 0.0
H788 H 0.58109 0.32658 0.12372 0.0
H789 H 0.54881 0.31044 0.10195 0.0
H790 H 0.49962 0.2785 0.21302 0.0
H791 H 0.48697 0.23444 0.21468 0.0
H792 H 0.59168 0.22632 0.32107 0.0
H793 H 0.63528 0.2479 0.30537 0.0
H794 H 0.6221 0.18874 0.18244 0.0
H795 H 0.57848 0.16756 0.19653 0.0
H796 H 0.67085 0.23679 0.31428 0.0
H797 H 0.65379 0.24801 0.09246 0.0
H798 H 0.6301 0.23717 0.14012 0.0
H799 H 0.63858 0.21613 0.10812 0.0
C800 C 0.59817 0.21775 0.29139 0.0
C801 C 0.58169 0.19539 0.25969 0.0
C802 C 0.62303 0.23015 0.28218 0.0
C803 C 0.63179 0.22029 0.24147 0.0
C804 C 0.61561 0.19711 0.21262 0.0
H805 H 0.78837 0.28138 0.23352 0.0
H806 H 0.74436 0.25131 0.22598 0.0
C807 C 0.59075 0.1849 0.22121 0.0
C808 C 0.65777 0.23443 0.22873 0.0
H809 H 0.69474 0.25991 0.12341 0.0
C810 C 0.67607 0.24181 0.27255 0.0
C811 C 0.66453 0.24135 0.17434 0.0
C812 C 0.64573 0.23549 0.12618 0.0
C813 C 0.70096 0.25586 0.26364 0.0
C814 C 0.70776 0.26197 0.20886 0.0
C815 C 0.68947 0.25474 0.16503 0.0
C816 C 0.73381 0.27729 0.19763 0.0
C817 C 0.71966 0.26476 0.31348 0.0
C818 C 0.74241 0.30098 0.1786 0.0
C819 C 0.76759 0.31787 0.18097 0.0
C820 C 0.78428 0.31123 0.2028 0.0
C821 C 0.77574 0.28673 0.21606 0.0
C822 C 0.75064 0.26972 0.21259 0.0
H823 H 0.71128 0.26406 0.35336 0.0
H824 H 0.72778 0.2526 0.31514 0.0
H825 H 0.73464 0.28414 0.31049 0.0
H826 H 0.7297 0.30711 0.16647 0.0
H827 H 0.77384 0.33684 0.17152 0.0
H828 H 0.43754 0.69603 0.71068 0.0
H829 H 0.42161 0.72439 0.71525 0.0
H830 H 0.46938 0.7634 0.86445 0.0
H831 H 0.48567 0.73472 0.85948 0.0
H832 H 0.39991 0.7402 0.79313 0.0
H833 H 0.49252 0.81603 0.75019 0.0
H834 H 0.48455 0.78383 0.74511 0.0
H835 H 0.4902 0.80043 0.81239 0.0
C836 C 0.44413 0.71023 0.74538 0.0
C837 C 0.46281 0.71341 0.78463 0.0
C838 C 0.43504 0.72641 0.74797 0.0
C839 C 0.44462 0.74624 0.78956 0.0
C840 C 0.46202 0.74837 0.83156 0.0
H841 H 0.41451 0.86807 0.75272 0.0
H842 H 0.43091 0.84308 0.79002 0.0
C843 C 0.4711 0.73193 0.82912 0.0
C844 C 0.43798 0.76572 0.78389 0.0
H845 H 0.46003 0.82375 0.73938 0.0
C846 C 0.41311 0.75865 0.7825 0.0
C847 C 0.45526 0.78973 0.76963 0.0
C848 C 0.48213 0.79807 0.76898 0.0
C849 C 0.40491 0.77451 0.76469 0.0
C850 C 0.42201 0.7979 0.74741 0.0
C851 C 0.44702 0.80564 0.7521 0.0
C852 C 0.41403 0.81407 0.72221 0.0
C853 C 0.37793 0.7659 0.76303 0.0
C854 C 0.4 0.80646 0.67051 0.0
C855 C 0.39077 0.8208 0.6487 0.0
C856 C 0.39539 0.8429 0.67848 0.0
C857 C 0.41058 0.85109 0.72882 0.0
C858 C 0.4199 0.83683 0.75035 0.0
H859 H 0.36823 0.75045 0.78995 0.0
H860 H 0.375 0.78144 0.77668 0.0
H861 H 0.36956 0.7591 0.71953 0.0
H862 H 0.39565 0.78909 0.64781 0.0
H863 H 0.37908 0.81395 0.60998 0.0
H864 H 0.17053 0.60312 0.78051 0.0
H865 H 0.19235 0.64767 0.77282 0.0
H866 H 0.21913 0.63683 0.61865 0.0
H867 H 0.19736 0.59168 0.62631 0.0
H868 H 0.25559 0.67376 0.6974 0.0
H869 H 0.17583 0.68749 0.66697 0.0
H870 H 0.17477 0.67068 0.72614 0.0
H871 H 0.17321 0.65731 0.65696 0.0
C872 C 0.18085 0.61005 0.74454 0.0
C873 C 0.1822 0.59381 0.7039 0.0
C874 C 0.1932 0.63558 0.74014 0.0
C875 C 0.20705 0.64549 0.69486 0.0
C876 C 0.20835 0.62943 0.65377 0.0
H877 H 0.27246 0.79467 0.60104 0.0
H878 H 0.24615 0.75065 0.61258 0.0
C879 C 0.19589 0.6037 0.65808 0.0
C880 C 0.22104 0.67276 0.69249 0.0
H881 H 0.21468 0.72398 0.69088 0.0
C882 C 0.2467 0.68477 0.69563 0.0
C883 C 0.20931 0.68699 0.69016 0.0
C884 C 0.18176 0.67497 0.68434 0.0
C885 C 0.261 0.71076 0.69707 0.0
C886 C 0.24927 0.72504 0.69635 0.0
C887 C 0.2236 0.71298 0.69255 0.0
C888 C 0.26326 0.75232 0.69398 0.0
C889 C 0.28849 0.72266 0.69805 0.0
C890 C 0.2809 0.76809 0.73715 0.0
C891 C 0.29603 0.79343 0.73071 0.0
C892 C 0.29363 0.80318 0.681 0.0
C893 C 0.27484 0.78761 0.63966 0.0
C894 C 0.25978 0.76245 0.64616 0.0
H895 H 0.29415 0.70886 0.68683 0.0
H896 H 0.29594 0.73742 0.6687 0.0
H897 H 0.29688 0.73137 0.74069 0.0
H898 H 0.28353 0.76064 0.77486 0.0
H899 H 0.31045 0.80497 0.76303 0.0
H900 H 0.42314 0.58896 0.75331 0.0
H901 H 0.37899 0.56482 0.76044 0.0
H902 H 0.36899 0.61496 0.65992 0.0
H903 H 0.41312 0.63876 0.65129 0.0
H904 H 0.35477 0.58364 0.81243 0.0
H905 H 0.31253 0.54889 0.59604 0.0
H906 H 0.34473 0.56097 0.61447 0.0
H907 H 0.33332 0.58184 0.60331 0.0
C908 C 0.41141 0.59433 0.73116 0.0
C909 C 0.42151 0.61569 0.70165 0.0
C910 C 0.38622 0.58062 0.73555 0.0
C911 C 0.37067 0.58806 0.71076 0.0
C912 C 0.38055 0.60857 0.67852 0.0
H913 H 0.23324 0.566 0.81792 0.0
H914 H 0.27677 0.57998 0.81198 0.0
C915 C 0.40579 0.62215 0.67352 0.0
C916 C 0.34472 0.57606 0.7237 0.0
H917 H 0.28609 0.54853 0.66425 0.0
C918 C 0.3397 0.57569 0.78004 0.0
C919 C 0.3251 0.56555 0.68152 0.0
C920 C 0.32915 0.56408 0.62049 0.0
C921 C 0.31563 0.56552 0.79531 0.0
C922 C 0.2961 0.556 0.75303 0.0
C923 C 0.30109 0.55596 0.69673 0.0
C924 C 0.27029 0.54621 0.76555 0.0
C925 C 0.31138 0.56485 0.8565 0.0
C926 C 0.25224 0.52246 0.7425 0.0
C927 C 0.22751 0.5147 0.74515 0.0
C928 C 0.22036 0.53041 0.77146 0.0
C929 C 0.23834 0.55341 0.79828 0.0
C930 C 0.2632 0.56139 0.79481 0.0
H931 H 0.32675 0.56545 0.88229 0.0
H932 H 0.31009 0.58135 0.87061 0.0
H933 H 0.29409 0.54788 0.86425 0.0
H934 H 0.25727 0.51041 0.71994 0.0
H935 H 0.21393 0.49688 0.72406 0.0
H936 H 0.02823 0.21021 0.78886 0.0
H937 H 0.03496 0.21891 0.69154 0.0
H938 H 0.96666 0.15184 0.63868 0.0
H939 H 0.95945 0.14361 0.73688 0.0
H940 H 0.03856 0.18822 0.60864 0.0
H941 H 0.96225 0.20555 0.55433 0.0
H942 H 0.97283 0.20588 0.6256 0.0
H943 H 0.95336 0.17683 0.58485 0.0
C944 C 0.01428 0.19782 0.75658 0.0
C945 C 0.99289 0.17674 0.77002 0.0
C946 C 0.0183 0.20259 0.70111 0.0
C947 C 0.00109 0.18624 0.65827 0.0
C948 C 0.97985 0.16494 0.67144 0.0
H949 H 0.99458 0.17951 0.30041 0.0
H950 H 0.98879 0.17104 0.39815 0.0
C951 C 0.9758 0.16019 0.72713 0.0
C952 C 0.00601 0.19107 0.59976 0.0
H953 H 0.98452 0.20328 0.48006 0.0
C954 C 0.02683 0.19161 0.58046 0.0
C955 C 0.99063 0.19553 0.56357 0.0
C956 C 0.96862 0.19615 0.58309 0.0
C957 C 0.0325 0.19611 0.52521 0.0
C958 C 0.01703 0.2004 0.48899 0.0
C959 C 0.99626 0.19993 0.50829 0.0
C960 C 0.02174 0.20492 0.43033 0.0
C961 C 0.05463 0.19576 0.50563 0.0
C962 C 0.04222 0.22678 0.41652 0.0
C963 C 0.04569 0.23148 0.36062 0.0
C964 C 0.02883 0.2143 0.31822 0.0
C965 C 0.00835 0.1925 0.33233 0.0
C966 C 0.00486 0.18782 0.388 0.0
H967 H 0.06176 0.18734 0.53537 0.0
H968 H 0.05014 0.18522 0.46401 0.0
H969 H 0.0694 0.2151 0.50157 0.0
H970 H 0.05516 0.24038 0.44893 0.0
H971 H 0.06133 0.24858 0.35033 0.0
H972 H 0.82645 0.85653 0.79901 0.0
H973 H 0.82679 0.86481 0.70087 0.0
H974 H 0.83427 0.80112 0.65658 0.0
H975 H 0.8341 0.79291 0.75553 0.0
H976 H 0.86212 0.87386 0.625 0.0
H977 H 0.77327 0.7882 0.55876 0.0
H978 H 0.78344 0.79952 0.63116 0.0
H979 H 0.79575 0.78301 0.59428 0.0
C980 C 0.82887 0.84474 0.76857 0.0
C981 C 0.83091 0.82447 0.78474 0.0
C982 C 0.82877 0.8493 0.71251 0.0
C983 C 0.83035 0.83346 0.67159 0.0
C984 C 0.83269 0.81334 0.68759 0.0
H985 H 0.83263 0.83025 0.31426 0.0
H986 H 0.83213 0.82229 0.41261 0.0
C987 C 0.83275 0.80876 0.74383 0.0
C988 C 0.82925 0.83799 0.61217 0.0
H989 H 0.79527 0.81271 0.48723 0.0
C990 C 0.84749 0.86056 0.59483 0.0
C991 C 0.81003 0.82059 0.57321 0.0
C992 C 0.78936 0.79655 0.5902 0.0
C993 C 0.8473 0.86601 0.53908 0.0
C994 C 0.82814 0.84857 0.5001 0.0
C995 C 0.80987 0.82603 0.51744 0.0
C996 C 0.82723 0.85294 0.44057 0.0
C997 C 0.86786 0.89011 0.52204 0.0
C998 C 0.82426 0.87259 0.42381 0.0
C999 C 0.82421 0.87694 0.3674 0.0
C1000 C 0.82676 0.86148 0.32713 0.0
C1001 C 0.82959 0.84177 0.34413 0.0
C1002 C 0.82962 0.83742 0.40033 0.0
H1003 H 0.88375 0.89889 0.55403 0.0
H1004 H 0.87417 0.88704 0.4817 0.0
H1005 H 0.86116 0.90333 0.5165 0.0
H1006 H 0.82213 0.8846 0.45435 0.0
H1007 H 0.82226 0.89237 0.35508 0.0
H1008 H 0.21183 0.06023 0.69348 0.0
H1009 H 0.21525 0.05367 0.59361 0.0
H1010 H 0.13801 -0.00034 0.57116 0.0
H1011 H 0.13467 0.00609 0.67087 0.0
H1012 H 0.20452 0.00941 0.53292 0.0
H1013 H 0.14624 0.04548 0.44885 0.0
H1014 H 0.15799 0.05133 0.52125 0.0
H1015 H 0.13155 0.022 0.49625 0.0
C1016 C 0.1957 0.04683 0.66723 0.0
C1017 C 0.17306 0.0334 0.68983 0.0
C1018 C 0.1976 0.04323 0.61021 0.0
C1019 C 0.17683 0.02636 0.57486 0.0
C1020 C 0.15417 0.01313 0.5974 0.0
H1021 H 0.14859 0.97002 0.22539 0.0
H1022 H 0.14611 0.97742 0.32558 0.0
C1023 C 0.15228 0.01676 0.65427 0.0
C1024 C 0.17895 0.02188 0.51481 0.0
H1025 H 0.15707 0.02343 0.38338 0.0
C1026 C 0.1943 0.01264 0.50018 0.0
C1027 C 0.16551 0.02604 0.47221 0.0
C1028 C 0.14957 0.03698 0.48528 0.0
C1029 C 0.19619 0.00695 0.44408 0.0
C1030 C 0.18262 0.01094 0.40154 0.0
C1031 C 0.16735 0.02027 0.41614 0.0
C1032 C 0.18428 0.00593 0.34152 0.0
C1033 C 0.21226 0.99619 0.4308 0.0
C1034 C 0.20651 0.01953 0.31745 0.0
C1035 C 0.20783 0.01547 0.2604 0.0
C1036 C 0.1869 0.99798 0.22641 0.0
C1037 C 0.16476 0.98407 0.25062 0.0
C1038 C 0.16341 0.98816 0.30772 0.0
H1039 H 0.21649 0.98854 0.46768 0.0
H1040 H 0.2034 0.98121 0.39613 0.0
H1041 H 0.22983 0.01105 0.41751 0.0
H1042 H 0.22274 0.03359 0.34259 0.0
H1043 H 0.22505 0.02639 0.2424 0.0
H1044 H 0.70324 0.522 0.6147 0.0
H1045 H 0.69629 0.52378 0.71428 0.0
H1046 H 0.62735 0.51948 0.66898 0.0
H1047 H 0.63394 0.51699 0.57024 0.0
H1048 H 0.68782 0.55972 0.77464 0.0
H1049 H 0.6097 0.46314 0.77256 0.0
H1050 H 0.63035 0.47324 0.71793 0.0
H1051 H 0.60649 0.48088 0.71966 0.0
C1052 C 0.68669 0.52149 0.62643 0.0
C1053 C 0.66941 0.52 0.58532 0.0
C1054 C 0.68274 0.52251 0.68292 0.0
C1055 C 0.66124 0.52159 0.69867 0.0
C1056 C 0.64394 0.52 0.65754 0.0
H1057 H 0.60166 0.52643 0.01394 0.0
H1058 H 0.60887 0.52501 0.91448 0.0
C1059 C 0.64791 0.51901 0.6013 0.0
C1060 C 0.6569 0.52266 0.75813 0.0
H1061 H 0.61778 0.48996 0.85435 0.0
C1062 C 0.67263 0.54445 0.79228 0.0
C1063 C 0.63693 0.5027 0.78059 0.0
C1064 C 0.61999 0.47857 0.74599 0.0
C1065 C 0.66866 0.54699 0.84842 0.0
C1066 C 0.6487 0.52703 0.8709 0.0
C1067 C 0.63298 0.50524 0.83673 0.0
C1068 C 0.6443 0.52808 0.93036 0.0
C1069 C 0.68557 0.57117 0.88291 0.0
C1070 C 0.66174 0.53007 0.97164 0.0
C1071 C 0.65763 0.53087 0.02784 0.0
C1072 C 0.63585 0.52928 0.04364 0.0
C1073 C 0.61844 0.52742 0.00237 0.0
C1074 C 0.62254 0.5266 0.94594 0.0
H1075 H 0.69564 0.58662 0.85623 0.0
H1076 H 0.67524 0.57638 0.91134 0.0
H1077 H 0.69928 0.56901 0.9088 0.0
H1078 H 0.67853 0.53099 0.96037 0.0
H1079 H 0.67169 0.53319 0.05901 0.0
H1080 H 0.51225 0.22743 0.55759 0.0
H1081 H 0.50926 0.21845 0.65631 0.0
H1082 H 0.51123 0.1514 0.61385 0.0
H1083 H 0.51438 0.16047 0.51602 0.0
H1084 H 0.47382 0.14455 0.68177 0.0
H1085 H 0.56431 0.22419 0.76549 0.0
H1086 H 0.54496 0.23236 0.72581 0.0
H1087 H 0.55649 0.21444 0.69183 0.0
C1088 C 0.51201 0.21083 0.56974 0.0
C1089 C 0.51287 0.19429 0.52942 0.0
C1090 C 0.51042 0.20576 0.62584 0.0
C1091 C 0.51011 0.18429 0.64223 0.0
C1092 C 0.51125 0.16794 0.60193 0.0
H1093 H 0.5006 0.11573 0.95358 0.0
H1094 H 0.50329 0.12521 0.85523 0.0
C1095 C 0.51279 0.17298 0.54608 0.0
C1096 C 0.50828 0.17851 0.70119 0.0
H1097 H 0.53828 0.19916 0.83138 0.0
C1098 C 0.48791 0.15644 0.71455 0.0
C1099 C 0.52676 0.19408 0.74361 0.0
C1100 C 0.54949 0.2175 0.73113 0.0
C1101 C 0.48533 0.14966 0.76954 0.0
C1102 C 0.50383 0.16518 0.81192 0.0
C1103 C 0.52417 0.18729 0.79861 0.0
C1104 C 0.5022 0.15916 0.87071 0.0
C1105 C 0.46261 0.12622 0.78201 0.0
C1106 C 0.50103 0.17525 0.91167 0.0
C1107 C 0.49964 0.16992 0.96735 0.0
C1108 C 0.49976 0.1486 0.98315 0.0
C1109 C 0.50069 0.13235 0.94214 0.0
C1110 C 0.5021 0.1377 0.88624 0.0
H1111 H 0.44772 0.11964 0.74786 0.0
H1112 H 0.46711 0.1113 0.78682 0.0
H1113 H 0.45572 0.12919 0.82157 0.0
H1114 H 0.50089 0.1918 0.9004 0.0
H1115 H 0.498 0.18222 -0.00205 0.0
H1116 H 0.85898 0.39111 0.54444 0.0
H1117 H 0.86813 0.39748 0.64579 0.0
H1118 H 0.80903 0.32302 0.66137 0.0
H1119 H 0.80036 0.31639 0.55913 0.0
H1120 H 0.8365 0.39419 0.72702 0.0
H1121 H 0.86853 0.32641 0.74953 0.0
H1122 H 0.86581 0.33752 0.68323 0.0
H1123 H 0.83897 0.31423 0.71209 0.0
C1124 C 0.84837 0.37593 0.56946 0.0
C1125 C 0.82952 0.35298 0.54432 0.0
C1126 C 0.8534 0.37967 0.62722 0.0
C1127 C 0.83955 0.36056 0.66075 0.0
C1128 C 0.82025 0.33779 0.63591 0.0
H1129 H 0.84208 0.34927 0.01578 0.0
H1130 H 0.8331 0.34267 0.91434 0.0
C1131 C 0.81522 0.33405 0.57791 0.0
C1132 C 0.84511 0.36484 0.72185 0.0
H1133 H 0.86492 0.34574 0.83292 0.0
C1134 C 0.84277 0.38367 0.75028 0.0
C1135 C 0.85334 0.35107 0.75169 0.0
C1136 C 0.85704 0.3313 0.72268 0.0
C1137 C 0.84811 0.38887 0.80823 0.0
C1138 C 0.85634 0.3751 0.83806 0.0
C1139 C 0.85866 0.35626 0.80965 0.0
C1140 C 0.86191 0.37943 0.89914 0.0
C1141 C 0.84442 0.40864 0.83724 0.0
C1142 C 0.88131 0.40218 0.92385 0.0
C1143 C 0.88626 0.40604 0.98186 0.0
C1144 C 0.87177 0.38727 0.0156 0.0
C1145 C 0.85284 0.36433 0.99061 0.0
C1146 C 0.84791 0.36045 0.93281 0.0
H1147 H 0.83301 0.41361 0.81033 0.0
H1148 H 0.83557 0.40239 0.87659 0.0
H1149 H 0.8625 0.42567 0.84802 0.0
H1150 H 0.89263 0.41684 0.89827 0.0
H1151 H 0.90118 0.42368 0.00054 0.0
H1152 H 0.30646 0.81902 0.33606 0.0
H1153 H 0.31113 0.82849 0.23784 0.0
H1154 H 0.38253 0.89236 0.28582 0.0
H1155 H 0.37814 0.88247 0.38317 0.0
H1156 H 0.31887 0.87351 0.19615 0.0
H1157 H 0.39479 0.85585 0.15578 0.0
H1158 H 0.37655 0.84448 0.21431 0.0
H1159 H 0.40061 0.87641 0.21692 0.0
C1160 C 0.32317 0.83488 0.32516 0.0
C1161 C 0.34174 0.85033 0.36679 0.0
C1162 C 0.32581 0.84032 0.26945 0.0
C1163 C 0.34722 0.86103 0.25478 0.0
C1164 C 0.36599 0.87615 0.29628 0.0
H1165 H 0.39556 0.92898 0.94422 0.0
H1166 H 0.39154 0.9205 0.04315 0.0
C1167 C 0.36334 0.87072 0.35183 0.0
C1168 C 0.34958 0.86752 0.19643 0.0
H1169 H 0.38434 0.8757 0.08684 0.0
C1170 C 0.33308 0.87387 0.17205 0.0
C1171 C 0.36828 0.86812 0.16553 0.0
C1172 C 0.38596 0.86065 0.18919 0.0
C1173 C 0.33496 0.88111 0.11751 0.0
C1174 C 0.3536 0.88163 0.08655 0.0
C1175 C 0.37017 0.87539 0.11099 0.0
C1176 C 0.35562 0.88759 0.02783 0.0
C1177 C 0.31724 0.88851 0.09375 0.0
C1178 C 0.33676 0.87191 0.98703 0.0
C1179 C 0.33907 0.87674 0.93109 0.0
C1180 C 0.36039 0.89711 0.91507 0.0
C1181 C 0.37906 0.91311 0.95597 0.0
C1182 C 0.37678 0.90825 0.01208 0.0
H1183 H 0.30849 0.89345 0.12714 0.0
H1184 H 0.32658 0.90456 0.06827 0.0
H1185 H 0.30253 0.87266 0.06633 0.0
H1186 H 0.3204 0.85574 -0.00164 0.0
H1187 H 0.32421 0.86456 0.90027 0.0
H1188 H 0.13904 0.56586 0.03343 0.0
H1189 H 0.13757 0.55741 0.13243 0.0
H1190 H 0.13591 0.48865 0.08796 0.0
H1191 H 0.13802 0.49731 0.99005 0.0
H1192 H 0.10244 0.51079 0.18889 0.0
H1193 H 0.20004 0.53485 0.19657 0.0
H1194 H 0.18631 0.54449 0.14309 0.0
H1195 H 0.17994 0.51295 0.14003 0.0
C1196 C 0.13781 0.54874 0.04501 0.0
C1197 C 0.13802 0.53194 0.00423 0.0
C1198 C 0.13695 0.54393 0.10118 0.0
C1199 C 0.13664 0.52244 0.11701 0.0
C1200 C 0.13602 0.50526 0.07621 0.0
H1201 H 0.12271 0.46186 0.43888 0.0
H1202 H 0.11826 0.46763 0.33948 0.0
C1203 C 0.13686 0.51005 0.02025 0.0
C1204 C 0.13907 0.51888 0.17642 0.0
H1205 H 0.17916 0.51914 0.27679 0.0
C1206 C 0.11916 0.51262 0.20833 0.0
C1207 C 0.16106 0.52155 0.20125 0.0
C1208 C 0.18318 0.52901 0.16876 0.0
C1209 C 0.12059 0.50859 0.26485 0.0
C1210 C 0.14242 0.51073 0.28933 0.0
C1211 C 0.16242 0.51733 0.2575 0.0
C1212 C 0.14519 0.50693 0.34852 0.0
C1213 C 0.09897 0.50242 0.29818 0.0
C1214 C 0.16233 0.52693 0.38555 0.0
C1215 C 0.16492 0.52361 0.44176 0.0
C1216 C 0.15043 0.50025 0.46158 0.0
C1217 C 0.1339 0.48003 0.42417 0.0
C1218 C 0.13122 0.48336 0.36787 0.0
H1219 H 0.08557 0.50638 0.27634 0.0
H1220 H 0.08946 0.48234 0.30491 0.0
H1221 H 0.1051 0.51313 0.33978 0.0
H1222 H 0.17348 0.54516 0.37103 0.0
H1223 H 0.17818 0.53925 0.46988 0.0
H1224 H 0.53779 0.7245 0.47258 0.0
H1225 H 0.54275 0.71744 0.3737 0.0
H1226 H 0.46702 0.65888 0.35 0.0
H1227 H 0.46247 0.66529 0.4489 0.0
H1228 H 0.49829 0.64536 0.30476 0.0
H1229 H 0.51605 0.73688 0.23948 0.0
H1230 H 0.53635 0.73819 0.29615 0.0
H1231 H 0.50447 0.726 0.30559 0.0
C1232 C 0.5224 0.70999 0.4461 0.0
C1233 C 0.49987 0.69515 0.46798 0.0
C1234 C 0.52512 0.70616 0.38972 0.0
C1235 C 0.50519 0.68771 0.35457 0.0
C1236 C 0.48263 0.67316 0.37647 0.0
H1237 H 0.47141 0.66438 0.00234 0.0
H1238 H 0.47573 0.67396 0.10365 0.0
C1239 C 0.47998 0.6769 0.43265 0.0
C1240 C 0.50755 0.68314 0.29492 0.0
H1241 H 0.51631 0.70887 0.17035 0.0
C1242 C 0.5024 0.65927 0.27532 0.0
C1243 C 0.51277 0.70133 0.2568 0.0
C1244 C 0.51754 0.72699 0.27527 0.0
C1245 C 0.50164 0.65284 0.21828 0.0
C1246 C 0.50671 0.67099 0.1801 0.0
C1247 C 0.51253 0.69506 0.19988 0.0
C1248 C 0.50429 0.66493 0.11907 0.0
C1249 C 0.49435 0.62642 0.19921 0.0
C1250 C 0.51885 0.65661 0.09431 0.0
C1251 C 0.51624 0.651 0.0365 0.0
C1252 C 0.49942 0.65414 0.00282 0.0
C1253 C 0.48479 0.6623 0.02765 0.0
C1254 C 0.48724 0.66771 0.0853 0.0
H1255 H 0.48571 0.61357 0.23207 0.0
H1256 H 0.48136 0.6196 0.16114 0.0
H1257 H 0.51092 0.62571 0.18898 0.0
H1258 H 0.53237 0.65471 0.11955 0.0
H1259 H 0.5277 0.64479 0.01783 0.0
loop_
_geom_bond_atom_site_label_1
_geom_bond_atom_site_label_2
_geom_bond_distance
_geom_bond_site_symmetry_2
_ccdc_geom_bond_type
Zn0 O1 2.055 1_455 S
Zn0 O8 2.046 1_455 S
Zn0 N16 2.036 . S
Zn0 O28 2.053 . S
Zn0 O30 2.066 . S
O1 Zn0 2.055 1_655 S
O1 C4 1.259 . S
C2 O30 1.256 . S
C2 O31 1.244 1_554 S
Zn3 O5 2.046 1_455 S
Zn3 O7 2.055 1_455 S
Zn3 N9 2.037 1_455 S
Zn3 O27 2.066 . S
Zn3 O31 2.053 . S
C4 O1 1.259 . S
C4 O5 1.254 1_554 S
O5 Zn3 2.046 1_655 S
O5 C4 1.254 1_556 S
C6 O27 1.256 1_554 S
C6 O28 1.244 . S
O7 Zn3 2.055 1_655 S
O7 C29 1.259 1_556 S
O8 Zn0 2.046 1_655 S
O8 C29 1.254 . S
N9 Zn3 2.037 1_655 S
N9 C10 1.312 . S
N9 N12 1.377 1_655 S
C10 N9 1.312 . S
C10 N13 1.369 1_655 S
C10 C23 1.481 . S
C11 N12 1.299 . S
C11 N13 1.377 . S
N12 N9 1.377 1_455 S
N12 C11 1.299 . S
N13 C10 1.369 1_455 S
N13 C11 1.377 . S
C14 N16 1.298 . S
C14 N18 1.367 . S
C14 C22 1.481 . S
C15 N17 1.299 . S
C15 N18 1.379 . S
N16 Zn0 2.036 . S
N16 C14 1.298 . S
N16 N17 1.398 . S
N17 C15 1.299 . S
N17 N16 1.398 . S
N18 C14 1.367 . S
N18 C15 1.379 . S
H19 C22 0.980 . S
H20 C22 0.981 . S
H21 C22 0.981 . S
C22 C14 1.481 . S
C22 H19 0.980 . S
C22 H20 0.981 . S
C22 H21 0.981 . S
C23 C10 1.481 . S
C23 H24 0.980 . S
C23 H25 0.981 . S
C23 H26 0.979 . S
H24 C23 0.980 . S
H25 C23 0.981 . S
H26 C23 0.979 . S
O27 Zn3 2.066 . S
O27 C6 1.256 1_556 S
O28 Zn0 2.053 . S
O28 C6 1.244 . S
C29 O7 1.259 1_554 S
C29 O8 1.254 . S
O30 Zn0 2.066 . S
O30 C2 1.256 . S
O31 C2 1.244 1_556 S
O31 Zn3 2.053 . S
Zn32 O33 2.055 . S
Zn32 O40 2.046 . S
Zn32 N48 2.036 . S
Zn32 O60 2.053 . S
Zn32 O62 2.066 . S
O33 Zn32 2.055 . S
O33 C36 1.259 . S
C34 O62 1.256 . S
C34 O63 1.244 . S
Zn35 O37 2.046 . S
Zn35 O39 2.055 . S
Zn35 N41 2.036 . S
Zn35 O59 2.066 . S
Zn35 O63 2.053 1_556 S
C36 O33 1.259 . S
C36 O37 1.254 1_554 S
O37 Zn35 2.046 . S
O37 C36 1.254 1_556 S
C38 O59 1.256 1_554 S
C38 O60 1.244 . S
O39 Zn35 2.055 . S
O39 C61 1.259 1_556 S
O40 Zn32 2.046 . S
O40 C61 1.254 . S
N41 Zn35 2.036 . S
N41 C42 1.298 . S
N41 N44 1.398 . S
C42 N41 1.298 . S
C42 N45 1.367 . S
C42 C55 1.481 . S
C43 N44 1.299 . S
C43 N45 1.379 . S
N44 N41 1.398 . S
N44 C43 1.299 . S
N45 C42 1.367 . S
N45 C43 1.379 . S
C46 N48 1.298 . S
C46 N50 1.367 . S
C46 C54 1.481 . S
C47 N49 1.299 . S
C47 N50 1.379 . S
N48 Zn32 2.036 . S
N48 C46 1.298 . S
N48 N49 1.398 . S
N49 C47 1.299 . S
N49 N48 1.398 . S
N50 C46 1.367 . S
N50 C47 1.379 . S
H51 C54 0.980 . S
H52 C54 0.981 . S
H53 C54 0.981 . S
C54 C46 1.481 . S
C54 H51 0.980 . S
C54 H52 0.981 . S
C54 H53 0.981 . S
C55 C42 1.481 . S
C55 H56 0.980 . S
C55 H57 0.981 . S
C55 H58 0.981 . S
H56 C55 0.980 . S
H57 C55 0.981 . S
H58 C55 0.981 . S
O59 Zn35 2.066 . S
O59 C38 1.256 1_556 S
O60 Zn32 2.053 . S
O60 C38 1.244 . S
C61 O39 1.259 1_554 S
C61 O40 1.254 . S
O62 Zn32 2.066 . S
O62 C34 1.256 . S
O63 C34 1.244 . S
O63 Zn35 2.053 1_554 S
Zn64 O65 2.055 . S
Zn64 O72 2.046 . S
Zn64 N80 2.036 . S
Zn64 O92 2.053 1_545 S
Zn64 O94 2.066 1_545 S
O65 Zn64 2.055 . S
O65 C68 1.259 1_556 S
C66 O94 1.256 . S
C66 O95 1.244 1_556 S
Zn67 O69 2.046 . S
Zn67 O71 2.055 . S
Zn67 N73 2.036 . S
Zn67 O91 2.066 1_545 S
Zn67 O95 2.053 1_545 S
C68 O65 1.259 1_554 S
C68 O69 1.254 . S
O69 Zn67 2.046 . S
O69 C68 1.254 . S
C70 O91 1.256 1_556 S
C70 O92 1.244 . S
O71 Zn67 2.055 . S
O71 C93 1.259 . S
O72 Zn64 2.046 . S
O72 C93 1.254 1_556 S
N73 Zn67 2.036 . S
N73 C74 1.298 . S
N73 N76 1.398 1_545 S
C74 N73 1.298 . S
C74 N77 1.367 1_545 S
C74 C87 1.481 . S
C75 N76 1.299 . S
C75 N77 1.379 . S
N76 N73 1.398 1_565 S
N76 C75 1.299 . S
N77 C74 1.367 1_565 S
N77 C75 1.379 . S
C78 N80 1.298 . S
C78 N82 1.367 . S
C78 C86 1.481 . S
C79 N81 1.299 . S
C79 N82 1.379 . S
N80 Zn64 2.036 . S
N80 C78 1.298 . S
N80 N81 1.398 . S
N81 C79 1.299 . S
N81 N80 1.398 . S
N82 C78 1.367 . S
N82 C79 1.379 . S
H83 C86 0.980 . S
H84 C86 0.981 . S
H85 C86 0.981 . S
C86 C78 1.481 . S
C86 H83 0.980 . S
C86 H84 0.981 . S
C86 H85 0.981 . S
C87 C74 1.481 . S
C87 H88 0.980 . S
C87 H89 0.981 . S
C87 H90 0.981 . S
H88 C87 0.980 . S
H89 C87 0.981 . S
H90 C87 0.981 . S
O91 Zn67 2.066 1_565 S
O91 C70 1.256 1_554 S
O92 Zn64 2.053 1_565 S
O92 C70 1.244 . S
C93 O71 1.259 . S
C93 O72 1.254 1_554 S
O94 Zn64 2.066 1_565 S
O94 C66 1.256 . S
O95 C66 1.244 1_554 S
O95 Zn67 2.053 1_565 S
Zn96 O97 2.055 . S
Zn96 O104 2.046 . S
Zn96 N112 2.036 . S
Zn96 O124 2.053 . S
Zn96 O126 2.066 . S
O97 Zn96 2.055 . S
O97 C100 1.259 . S
C98 O126 1.256 . S
C98 O127 1.244 . S
Zn99 O101 2.046 . S
Zn99 O103 2.055 . S
Zn99 N105 2.036 . S
Zn99 O123 2.066 . S
Zn99 O127 2.053 . S
C100 O97 1.259 . S
C100 O101 1.254 . S
O101 Zn99 2.046 . S
O101 C100 1.254 . S
C102 O123 1.256 . S
C102 O124 1.244 . S
O103 Zn99 2.055 . S
O103 C125 1.259 . S
O104 Zn96 2.046 . S
O104 C125 1.254 . S
N105 Zn99 2.036 . S
N105 C106 1.298 . S
N105 N108 1.398 . S
C106 N105 1.298 . S
C106 N109 1.367 . S
C106 C119 1.481 . S
C107 N108 1.299 . S
C107 N109 1.379 . S
N108 N105 1.398 . S
N108 C107 1.299 . S
N109 C106 1.367 . S
N109 C107 1.379 . S
C110 N112 1.298 . S
C110 N114 1.367 . S
C110 C118 1.481 . S
C111 N113 1.299 . S
C111 N114 1.379 . S
N112 Zn96 2.036 . S
N112 C110 1.298 . S
N112 N113 1.398 . S
N113 C111 1.299 . S
N113 N112 1.398 . S
N114 C110 1.367 . S
N114 C111 1.379 . S
H115 C118 0.980 . S
H116 C118 0.981 . S
H117 C118 0.981 . S
C118 C110 1.481 . S
C118 H115 0.980 . S
C118 H116 0.981 . S
C118 H117 0.981 . S
C119 C106 1.481 . S
C119 H120 0.980 . S
C119 H121 0.981 . S
C119 H122 0.981 . S
H120 C119 0.980 . S
H121 C119 0.981 . S
H122 C119 0.981 . S
O123 Zn99 2.066 . S
O123 C102 1.256 . S
O124 Zn96 2.053 . S
O124 C102 1.244 . S
C125 O103 1.259 . S
C125 O104 1.254 . S
O126 Zn96 2.066 . S
O126 C98 1.256 . S
O127 C98 1.244 . S
O127 Zn99 2.053 . S
Zn128 O129 2.055 . S
Zn128 O136 2.046 . S
Zn128 N144 2.036 . S
Zn128 O156 2.053 . S
Zn128 O158 2.066 . S
O129 Zn128 2.055 . S
O129 C132 1.259 . S
C130 O158 1.256 . S
C130 O159 1.244 . S
Zn131 O133 2.046 . S
Zn131 O135 2.055 . S
Zn131 N137 2.036 . S
Zn131 O155 2.066 . S
Zn131 O159 2.053 . S
C132 O129 1.259 . S
C132 O133 1.254 . S
O133 Zn131 2.046 . S
O133 C132 1.254 . S
C134 O155 1.256 . S
C134 O156 1.244 . S
O135 Zn131 2.055 . S
O135 C157 1.259 . S
O136 Zn128 2.046 . S
O136 C157 1.254 . S
N137 Zn131 2.036 . S
N137 C138 1.298 . S
N137 N140 1.398 . S
C138 N137 1.298 . S
C138 N141 1.367 . S
C138 C151 1.481 . S
C139 N140 1.299 . S
C139 N141 1.379 . S
N140 N137 1.398 . S
N140 C139 1.299 . S
N141 C138 1.367 . S
N141 C139 1.379 . S
C142 N144 1.298 . S
C142 N146 1.367 . S
C142 C150 1.481 . S
C143 N145 1.299 . S
C143 N146 1.379 . S
N144 Zn128 2.036 . S
N144 C142 1.298 . S
N144 N145 1.398 . S
N145 C143 1.299 . S
N145 N144 1.398 . S
N146 C142 1.367 . S
N146 C143 1.379 . S
H147 C150 0.980 . S
H148 C150 0.981 . S
H149 C150 0.981 . S
C150 C142 1.481 . S
C150 H147 0.980 . S
C150 H148 0.981 . S
C150 H149 0.981 . S
C151 C138 1.481 . S
C151 H152 0.980 . S
C151 H153 0.981 . S
C151 H154 0.981 . S
H152 C151 0.980 . S
H153 C151 0.981 . S
H154 C151 0.981 . S
O155 Zn131 2.066 . S
O155 C134 1.256 . S
O156 Zn128 2.053 . S
O156 C134 1.244 . S
C157 O135 1.259 . S
C157 O136 1.254 . S
O158 Zn128 2.066 . S
O158 C130 1.256 . S
O159 C130 1.244 . S
O159 Zn131 2.053 . S
Zn160 O161 2.055 . S
Zn160 O168 2.046 . S
Zn160 N176 2.036 . S
Zn160 O188 2.053 . S
Zn160 O190 2.066 . S
O161 Zn160 2.055 . S
O161 C164 1.259 . S
C162 O190 1.256 . S
C162 O191 1.244 . S
Zn163 O165 2.046 . S
Zn163 O167 2.055 . S
Zn163 N169 2.036 . S
Zn163 O187 2.066 . S
Zn163 O191 2.053 . S
C164 O161 1.259 . S
C164 O165 1.254 . S
O165 Zn163 2.046 . S
O165 C164 1.254 . S
C166 O187 1.256 . S
C166 O188 1.244 . S
O167 Zn163 2.055 . S
O167 C189 1.259 . S
O168 Zn160 2.046 . S
O168 C189 1.254 . S
N169 Zn163 2.036 . S
N169 C170 1.298 . S
N169 N172 1.398 . S
C170 N169 1.298 . S
C170 N173 1.367 . S
C170 C183 1.481 . S
C171 N172 1.299 . S
C171 N173 1.379 . S
N172 N169 1.398 . S
N172 C171 1.299 . S
N173 C170 1.367 . S
N173 C171 1.379 . S
C174 N176 1.298 . S
C174 N178 1.367 . S
C174 C182 1.481 . S
C175 N177 1.299 . S
C175 N178 1.379 . S
N176 Zn160 2.036 . S
N176 C174 1.298 . S
N176 N177 1.398 . S
N177 C175 1.299 . S
N177 N176 1.398 . S
N178 C174 1.367 . S
N178 C175 1.379 . S
H179 C182 0.980 . S
H180 C182 0.981 . S
H181 C182 0.981 . S
C182 C174 1.481 . S
C182 H179 0.980 . S
C182 H180 0.981 . S
C182 H181 0.981 . S
C183 C170 1.481 . S
C183 H184 0.980 . S
C183 H185 0.981 . S
C183 H186 0.981 . S
H184 C183 0.980 . S
H185 C183 0.981 . S
H186 C183 0.981 . S
O187 Zn163 2.066 . S
O187 C166 1.256 . S
O188 Zn160 2.053 . S
O188 C166 1.244 . S
C189 O167 1.259 . S
C189 O168 1.254 . S
O190 Zn160 2.066 . S
O190 C162 1.256 . S
O191 C162 1.244 . S
O191 Zn163 2.053 . S
Zn192 O193 2.055 . S
Zn192 O200 2.046 . S
Zn192 N208 2.036 . S
Zn192 O220 2.053 . S
Zn192 O222 2.066 . S
O193 Zn192 2.055 . S
O193 C196 1.259 . S
C194 O222 1.256 . S
C194 O223 1.244 . S
Zn195 O197 2.046 . S
Zn195 O199 2.055 . S
Zn195 N201 2.036 . S
Zn195 O219 2.066 . S
Zn195 O223 2.053 . S
C196 O193 1.259 . S
C196 O197 1.254 . S
O197 Zn195 2.046 . S
O197 C196 1.254 . S
C198 O219 1.256 . S
C198 O220 1.244 . S
O199 Zn195 2.055 . S
O199 C221 1.259 . S
O200 Zn192 2.046 . S
O200 C221 1.254 . S
N201 Zn195 2.036 . S
N201 C202 1.298 . S
N201 N204 1.398 . S
C202 N201 1.298 . S
C202 N205 1.367 . S
C202 C215 1.481 . S
C203 N204 1.299 . S
C203 N205 1.379 . S
N204 N201 1.398 . S
N204 C203 1.299 . S
N205 C202 1.367 . S
N205 C203 1.379 . S
C206 N208 1.298 . S
C206 N210 1.367 . S
C206 C214 1.481 . S
C207 N209 1.299 . S
C207 N210 1.379 . S
N208 Zn192 2.036 . S
N208 C206 1.298 . S
N208 N209 1.398 . S
N209 C207 1.299 . S
N209 N208 1.398 . S
N210 C206 1.367 . S
N210 C207 1.379 . S
H211 C214 0.980 . S
H212 C214 0.981 . S
H213 C214 0.981 . S
C214 C206 1.481 . S
C214 H211 0.980 . S
C214 H212 0.981 . S
C214 H213 0.981 . S
C215 C202 1.481 . S
C215 H216 0.980 . S
C215 H217 0.981 . S
C215 H218 0.981 . S
H216 C215 0.980 . S
H217 C215 0.981 . S
H218 C215 0.981 . S
O219 Zn195 2.066 . S
O219 C198 1.256 . S
O220 Zn192 2.053 . S
O220 C198 1.244 . S
C221 O199 1.259 . S
C221 O200 1.254 . S
O222 Zn192 2.066 . S
O222 C194 1.256 . S
O223 C194 1.244 . S
O223 Zn195 2.053 . S
Zn224 O225 2.055 . S
Zn224 O232 2.046 . S
Zn224 N240 2.036 . S
Zn224 O252 2.053 . S
Zn224 O254 2.066 . S
O225 Zn224 2.055 . S
O225 C228 1.259 . S
C226 O254 1.256 . S
C226 O255 1.244 . S
Zn227 O229 2.046 . S
Zn227 O231 2.055 . S
Zn227 N233 2.036 . S
Zn227 O251 2.066 . S
Zn227 O255 2.053 . S
C228 O225 1.259 . S
C228 O229 1.254 . S
O229 Zn227 2.046 . S
O229 C228 1.254 . S
C230 O251 1.256 . S
C230 O252 1.244 . S
O231 Zn227 2.055 . S
O231 C253 1.259 . S
O232 Zn224 2.046 . S
O232 C253 1.254 . S
N233 Zn227 2.036 . S
N233 C234 1.298 . S
N233 N236 1.398 . S
C234 N233 1.298 . S
C234 N237 1.367 . S
C234 C247 1.481 . S
C235 N236 1.299 . S
C235 N237 1.379 . S
N236 N233 1.398 . S
N236 C235 1.299 . S
N237 C234 1.367 . S
N237 C235 1.379 . S
C238 N240 1.298 . S
C238 N242 1.367 . S
C238 C246 1.481 . S
C239 N241 1.299 . S
C239 N242 1.379 . S
N240 Zn224 2.036 . S
N240 C238 1.298 . S
N240 N241 1.398 . S
N241 C239 1.299 . S
N241 N240 1.398 . S
N242 C238 1.367 . S
N242 C239 1.379 . S
H243 C246 0.980 . S
H244 C246 0.981 . S
H245 C246 0.981 . S
C246 C238 1.481 . S
C246 H243 0.980 . S
C246 H244 0.981 . S
C246 H245 0.981 . S
C247 C234 1.481 . S
C247 H248 0.980 . S
C247 H249 0.981 . S
C247 H250 0.981 . S
H248 C247 0.980 . S
H249 C247 0.981 . S
H250 C247 0.981 . S
O251 Zn227 2.066 . S
O251 C230 1.256 . S
O252 Zn224 2.053 . S
O252 C230 1.244 . S
C253 O231 1.259 . S
C253 O232 1.254 . S
O254 Zn224 2.066 . S
O254 C226 1.256 . S
O255 C226 1.244 . S
O255 Zn227 2.053 . S
Zn256 O257 2.055 . S
Zn256 O264 2.046 . S
Zn256 N272 2.036 . S
Zn256 O284 2.053 . S
Zn256 O286 2.066 . S
O257 Zn256 2.055 . S
O257 C260 1.259 . S
C258 O286 1.256 . S
C258 O287 1.244 . S
Zn259 O261 2.046 . S
Zn259 O263 2.055 . S
Zn259 N265 2.036 . S
Zn259 O283 2.066 . S
Zn259 O287 2.053 . S
C260 O257 1.259 . S
C260 O261 1.254 . S
O261 Zn259 2.046 . S
O261 C260 1.254 . S
C262 O283 1.256 . S
C262 O284 1.244 . S
O263 Zn259 2.055 . S
O263 C285 1.259 . S
O264 Zn256 2.046 . S
O264 C285 1.254 . S
N265 Zn259 2.036 . S
N265 C266 1.298 . S
N265 N268 1.398 . S
C266 N265 1.298 . S
C266 N269 1.367 . S
C266 C279 1.481 . S
C267 N268 1.299 . S
C267 N269 1.379 . S
N268 N265 1.398 . S
N268 C267 1.299 . S
N269 C266 1.367 . S
N269 C267 1.379 . S
C270 N272 1.298 . S
C270 N274 1.367 . S
C270 C278 1.481 . S
C271 N273 1.299 . S
C271 N274 1.379 . S
N272 Zn256 2.036 . S
N272 C270 1.298 . S
N272 N273 1.398 . S
N273 C271 1.299 . S
N273 N272 1.398 . S
N274 C270 1.367 . S
N274 C271 1.379 . S
H275 C278 0.980 . S
H276 C278 0.981 . S
H277 C278 0.981 . S
C278 C270 1.481 . S
C278 H275 0.980 . S
C278 H276 0.981 . S
C278 H277 0.981 . S
C279 C266 1.481 . S
C279 H280 0.980 . S
C279 H281 0.981 . S
C279 H282 0.981 . S
H280 C279 0.980 . S
H281 C279 0.981 . S
H282 C279 0.981 . S
O283 Zn259 2.066 . S
O283 C262 1.256 . S
O284 Zn256 2.053 . S
O284 C262 1.244 . S
C285 O263 1.259 . S
C285 O264 1.254 . S
O286 Zn256 2.066 . S
O286 C258 1.256 . S
O287 C258 1.244 . S
O287 Zn259 2.053 . S
H288 C296 0.929 1_554 S
H289 C298 0.930 . S
H290 C300 0.930 . S
H291 C303 0.929 . S
H292 C306 0.930 . S
H293 C308 0.960 . S
H294 C308 0.960 . S
H295 C308 0.960 . S
C296 H288 0.929 1_556 S
C296 C297 1.377 . S
C296 C298 1.384 . S
C297 C296 1.377 . S
C297 C303 1.390 . S
C298 H289 0.930 . S
C298 C296 1.384 . S
C298 C299 1.372 . S
C299 C298 1.372 . S
C299 C300 1.400 . S
C299 C304 1.490 . S
C300 H290 0.930 . S
C300 C299 1.400 . S
C300 C303 1.386 . S
H301 C317 0.930 . S
H302 C318 0.931 . S
C303 H291 0.929 . S
C303 C297 1.390 . S
C303 C300 1.386 . S
C304 C299 1.490 . S
C304 C306 1.395 . S
C304 C307 1.403 . S
H305 C311 0.930 . S
C306 H292 0.930 . S
C306 C304 1.395 . S
C306 C309 1.403 . S
C307 C304 1.403 . S
C307 C308 1.524 . S
C307 C311 1.400 . S
C308 H293 0.960 . S
C308 H294 0.960 . S
C308 H295 0.960 . S
C308 C307 1.524 . S
C309 C306 1.403 . S
C309 C310 1.392 . S
C309 C313 1.495 . S
C310 C309 1.392 . S
C310 C311 1.385 . S
C310 C312 1.478 . S
C311 H305 0.930 . S
C311 C307 1.400 . S
C311 C310 1.385 . S
C312 C310 1.478 . S
C312 C314 1.381 . S
C312 C318 1.383 . S
C313 C309 1.495 . S
C313 H319 0.959 . S
C313 H320 0.961 . S
C313 H321 0.960 . S
C314 C312 1.381 . S
C314 C315 1.394 . S
C314 H322 0.930 . S
C315 C314 1.394 . S
C315 C316 1.383 . S
C315 H323 0.929 . S
C316 C315 1.383 . S
C316 C317 1.377 . S
C317 H301 0.930 . S
C317 C316 1.377 . S
C317 C318 1.379 . S
C318 H302 0.931 . S
C318 C312 1.383 . S
C318 C317 1.379 . S
H319 C313 0.959 . S
H320 C313 0.961 . S
H321 C313 0.960 . S
H322 C314 0.930 . S
H323 C315 0.929 . S
H324 C332 0.929 . S
H325 C334 0.930 . S
H326 C336 0.930 1_554 S
H327 C339 0.929 . S
H328 C342 0.930 . S
H329 C344 0.960 . S
H330 C344 0.960 . S
H331 C344 0.960 . S
C332 H324 0.929 . S
C332 C333 1.377 1_556 S
C332 C334 1.384 . S
C333 C332 1.377 1_554 S
C333 C339 1.390 . S
C334 H325 0.930 . S
C334 C332 1.384 . S
C334 C335 1.372 . S
C335 C334 1.372 . S
C335 C336 1.400 . S
C335 C340 1.490 . S
C336 H326 0.930 1_556 S
C336 C335 1.400 . S
C336 C339 1.386 1_556 S
H337 C353 0.930 . S
H338 C354 0.931 . S
C339 H327 0.929 . S
C339 C333 1.390 . S
C339 C336 1.386 1_554 S
C340 C335 1.490 . S
C340 C342 1.395 . S
C340 C343 1.403 . S
H341 C347 0.930 . S
C342 H328 0.930 . S
C342 C340 1.395 . S
C342 C345 1.403 . S
C343 C340 1.403 . S
C343 C344 1.524 . S
C343 C347 1.400 . S
C344 H329 0.960 . S
C344 H330 0.960 . S
C344 H331 0.960 . S
C344 C343 1.524 . S
C345 C342 1.403 . S
C345 C346 1.392 . S
C345 C349 1.495 . S
C346 C345 1.392 . S
C346 C347 1.385 . S
C346 C348 1.478 . S
C347 H341 0.930 . S
C347 C343 1.400 . S
C347 C346 1.385 . S
C348 C346 1.478 . S
C348 C350 1.381 . S
C348 C354 1.383 . S
C349 C345 1.495 . S
C349 H355 0.959 . S
C349 H356 0.961 . S
C349 H357 0.960 . S
C350 C348 1.381 . S
C350 C351 1.394 . S
C350 H358 0.930 . S
C351 C350 1.394 . S
C351 C352 1.383 . S
C351 H359 0.929 . S
C352 C351 1.383 . S
C352 C353 1.377 . S
C353 H337 0.930 . S
C353 C352 1.377 . S
C353 C354 1.379 . S
C354 H338 0.931 . S
C354 C348 1.383 . S
C354 C353 1.379 . S
H355 C349 0.959 . S
H356 C349 0.961 . S
H357 C349 0.960 . S
H358 C350 0.930 . S
H359 C351 0.929 . S
H360 C368 0.929 . S
H361 C370 0.930 . S
H362 C372 0.930 . S
H363 C375 0.929 1_545 S
H364 C378 0.930 . S
H365 C380 0.960 . S
H366 C380 0.960 . S
H367 C380 0.960 . S
C368 H360 0.929 . S
C368 C369 1.377 . S
C368 C370 1.384 . S
C369 C368 1.377 . S
C369 C375 1.390 . S
C370 H361 0.930 . S
C370 C368 1.384 . S
C370 C371 1.372 . S
C371 C370 1.372 . S
C371 C372 1.400 . S
C371 C376 1.490 . S
C372 H362 0.930 . S
C372 C371 1.400 . S
C372 C375 1.386 . S
H373 C389 0.930 . S
H374 C390 0.931 . S
C375 H363 0.929 1_565 S
C375 C369 1.390 . S
C375 C372 1.386 . S
C376 C371 1.490 . S
C376 C378 1.395 . S
C376 C379 1.403 . S
H377 C383 0.930 . S
C378 H364 0.930 . S
C378 C376 1.395 . S
C378 C381 1.403 . S
C379 C376 1.403 . S
C379 C380 1.524 . S
C379 C383 1.400 . S
C380 H365 0.960 . S
C380 H366 0.960 . S
C380 H367 0.960 . S
C380 C379 1.524 . S
C381 C378 1.403 . S
C381 C382 1.392 . S
C381 C385 1.495 . S
C382 C381 1.392 . S
C382 C383 1.385 . S
C382 C384 1.478 . S
C383 H377 0.930 . S
C383 C379 1.400 . S
C383 C382 1.385 . S
C384 C382 1.478 . S
C384 C386 1.381 . S
C384 C390 1.383 . S
C385 C381 1.495 . S
C385 H391 0.959 . S
C385 H392 0.961 . S
C385 H393 0.960 . S
C386 C384 1.381 . S
C386 C387 1.394 . S
C386 H394 0.930 . S
C387 C386 1.394 . S
C387 C388 1.383 . S
C387 H395 0.929 . S
C388 C387 1.383 . S
C388 C389 1.377 . S
C389 H373 0.930 . S
C389 C388 1.377 . S
C389 C390 1.379 . S
C390 H374 0.931 . S
C390 C384 1.383 . S
C390 C389 1.379 . S
H391 C385 0.959 . S
H392 C385 0.961 . S
H393 C385 0.960 . S
H394 C386 0.930 . S
H395 C387 0.929 . S
H396 C404 0.929 . S
H397 C406 0.930 . S
H398 C408 0.930 . S
H399 C411 0.929 . S
H400 C414 0.930 . S
H401 C416 0.960 . S
H402 C416 0.960 . S
H403 C416 0.960 . S
C404 H396 0.929 . S
C404 C405 1.377 . S
C404 C406 1.384 . S
C405 C404 1.377 . S
C405 C411 1.390 . S
C406 H397 0.930 . S
C406 C404 1.384 . S
C406 C407 1.372 . S
C407 C406 1.372 . S
C407 C408 1.400 . S
C407 C412 1.490 . S
C408 H398 0.930 . S
C408 C407 1.400 . S
C408 C411 1.386 . S
H409 C425 0.934 . S
H410 C426 0.931 . S
C411 H399 0.929 . S
C411 C405 1.390 . S
C411 C408 1.386 . S
C412 C407 1.490 . S
C412 C414 1.395 . S
C412 C415 1.403 . S
H413 C419 0.930 . S
C414 H400 0.930 . S
C414 C412 1.395 . S
C414 C417 1.403 . S
C415 C412 1.403 . S
C415 C416 1.524 . S
C415 C419 1.400 . S
C416 H401 0.960 . S
C416 H402 0.960 . S
C416 H403 0.960 . S
C416 C415 1.524 . S
C417 C414 1.403 . S
C417 C418 1.392 . S
C417 C421 1.495 . S
C418 C417 1.392 . S
C418 C419 1.385 . S
C418 C420 1.478 . S
C419 H413 0.930 . S
C419 C415 1.400 . S
C419 C418 1.385 . S
C420 C418 1.478 . S
C420 C422 1.381 . S
C420 C426 1.383 . S
C421 C417 1.495 . S
C421 H427 0.959 . S
C421 H428 0.961 . S
C421 H429 0.960 . S
C422 C420 1.381 . S
C422 C423 1.394 . S
C422 H430 0.930 . S
C423 C422 1.394 . S
C423 C424 1.383 . S
C423 H431 0.929 . S
C424 C423 1.383 . S
C424 C425 1.377 . S
C425 H409 0.934 . S
C425 C424 1.377 . S
C425 C426 1.379 . S
C426 H410 0.931 . S
C426 C420 1.383 . S
C426 C425 1.379 . S
H427 C421 0.959 . S
H428 C421 0.961 . S
H429 C421 0.960 . S
H430 C422 0.930 . S
H431 C423 0.929 . S
H432 C440 0.929 . S
H433 C442 0.930 . S
H434 C444 0.930 . S
H435 C447 0.929 . S
H436 C450 0.930 . S
H437 C452 0.960 . S
H438 C452 0.960 . S
H439 C452 0.960 . S
C440 H432 0.929 . S
C440 C441 1.377 . S
C440 C442 1.384 . S
C441 C440 1.377 . S
C441 C447 1.390 . S
C442 H433 0.930 . S
C442 C440 1.384 . S
C442 C443 1.372 . S
C443 C442 1.372 . S
C443 C444 1.400 . S
C443 C448 1.490 . S
C444 H434 0.930 . S
C444 C443 1.400 . S
C444 C447 1.386 . S
H445 C461 0.930 . S
H446 C462 0.931 . S
C447 H435 0.929 . S
C447 C441 1.390 . S
C447 C444 1.386 . S
C448 C443 1.490 . S
C448 C450 1.395 . S
C448 C451 1.403 . S
H449 C455 0.930 . S
C450 H436 0.930 . S
C450 C448 1.395 . S
C450 C453 1.403 . S
C451 C448 1.403 . S
C451 C452 1.524 . S
C451 C455 1.400 . S
C452 H437 0.960 . S
C452 H438 0.960 . S
C452 H439 0.960 . S
C452 C451 1.524 . S
C453 C450 1.403 . S
C453 C454 1.392 . S
C453 C457 1.495 . S
C454 C453 1.392 . S
C454 C455 1.385 . S
C454 C456 1.478 . S
C455 H449 0.930 . S
C455 C451 1.400 . S
C455 C454 1.385 . S
C456 C454 1.478 . S
C456 C458 1.381 . S
C456 C462 1.383 . S
C457 C453 1.495 . S
C457 H463 0.959 . S
C457 H464 0.961 . S
C457 H465 0.960 . S
C458 C456 1.381 . S
C458 C459 1.394 . S
C458 H466 0.930 . S
C459 C458 1.394 . S
C459 C460 1.383 . S
C459 H467 0.929 . S
C460 C459 1.383 . S
C460 C461 1.377 . S
C461 H445 0.930 . S
C461 C460 1.377 . S
C461 C462 1.379 . S
C462 H446 0.931 . S
C462 C456 1.383 . S
C462 C461 1.379 . S
H463 C457 0.959 . S
H464 C457 0.961 . S
H465 C457 0.960 . S
H466 C458 0.930 . S
H467 C459 0.929 . S
H468 C476 0.929 . S
H469 C478 0.930 . S
H470 C480 0.930 . S
H471 C483 0.929 . S
H472 C486 0.930 . S
H473 C488 0.960 . S
H474 C488 0.960 . S
H475 C488 0.960 . S
C476 H468 0.929 . S
C476 C477 1.377 . S
C476 C478 1.384 . S
C477 C476 1.377 . S
C477 C483 1.390 . S
C478 H469 0.930 . S
C478 C476 1.384 . S
C478 C479 1.372 . S
C479 C478 1.372 . S
C479 C480 1.400 . S
C479 C484 1.490 . S
C480 H470 0.930 . S
C480 C479 1.400 . S
C480 C483 1.386 . S
H481 C497 0.930 . S
H482 C498 0.931 . S
C483 H471 0.929 . S
C483 C477 1.390 . S
C483 C480 1.386 . S
C484 C479 1.490 . S
C484 C486 1.395 . S
C484 C487 1.403 . S
H485 C491 0.930 . S
C486 H472 0.930 . S
C486 C484 1.395 . S
C486 C489 1.403 . S
C487 C484 1.403 . S
C487 C488 1.524 . S
C487 C491 1.400 . S
C488 H473 0.960 . S
C488 H474 0.960 . S
C488 H475 0.960 . S
C488 C487 1.524 . S
C489 C486 1.403 . S
C489 C490 1.392 . S
C489 C493 1.495 . S
C490 C489 1.392 . S
C490 C491 1.385 . S
C490 C492 1.478 . S
C491 H485 0.930 . S
C491 C487 1.400 . S
C491 C490 1.385 . S
C492 C490 1.478 . S
C492 C494 1.381 . S
C492 C498 1.383 . S
C493 C489 1.495 . S
C493 H499 0.959 . S
C493 H500 0.961 . S
C493 H501 0.960 . S
C494 C492 1.381 . S
C494 C495 1.394 . S
C494 H502 0.930 . S
C495 C494 1.394 . S
C495 C496 1.383 . S
C495 H503 0.929 . S
C496 C495 1.383 . S
C496 C497 1.377 . S
C497 H481 0.930 . S
C497 C496 1.377 . S
C497 C498 1.379 . S
C498 H482 0.931 . S
C498 C492 1.383 . S
C498 C497 1.379 . S
H499 C493 0.959 . S
H500 C493 0.961 . S
H501 C493 0.960 . S
H502 C494 0.930 . S
H503 C495 0.929 . S
H504 C512 0.929 . S
H505 C514 0.930 . S
H506 C516 0.930 . S
H507 C519 0.929 . S
H508 C522 0.930 . S
H509 C524 0.960 . S
H510 C524 0.960 . S
H511 C524 0.960 . S
C512 H504 0.929 . S
C512 C513 1.377 . S
C512 C514 1.384 . S
C513 C512 1.377 . S
C513 C519 1.390 . S
C514 H505 0.930 . S
C514 C512 1.384 . S
C514 C515 1.372 . S
C515 C514 1.372 . S
C515 C516 1.400 . S
C515 C520 1.490 . S
C516 H506 0.930 . S
C516 C515 1.400 . S
C516 C519 1.386 . S
H517 C533 0.930 . S
H518 C534 0.931 . S
C519 H507 0.929 . S
C519 C513 1.390 . S
C519 C516 1.386 . S
C520 C515 1.490 . S
C520 C522 1.395 . S
C520 C523 1.403 . S
H521 C527 0.930 . S
C522 H508 0.930 . S
C522 C520 1.395 . S
C522 C525 1.403 1_455 S
C523 C520 1.403 . S
C523 C524 1.524 . S
C523 C527 1.400 1_455 S
C524 H509 0.960 . S
C524 H510 0.960 . S
C524 H511 0.960 . S
C524 C523 1.524 . S
C525 C522 1.403 1_655 S
C525 C526 1.392 . S
C525 C529 1.495 . S
C526 C525 1.392 . S
C526 C527 1.385 . S
C526 C528 1.478 . S
C527 H521 0.930 . S
C527 C523 1.400 1_655 S
C527 C526 1.385 . S
C528 C526 1.478 . S
C528 C530 1.381 . S
C528 C534 1.383 . S
C529 C525 1.495 . S
C529 H535 0.959 . S
C529 H536 0.961 . S
C529 H537 0.960 . S
C530 C528 1.381 . S
C530 C531 1.394 . S
C530 H538 0.930 . S
C531 C530 1.394 . S
C531 C532 1.383 . S
C531 H539 0.929 . S
C532 C531 1.383 . S
C532 C533 1.377 . S
C533 H517 0.930 . S
C533 C532 1.377 . S
C533 C534 1.379 . S
C534 H518 0.931 . S
C534 C528 1.383 . S
C534 C533 1.379 . S
H535 C529 0.959 . S
H536 C529 0.961 . S
H537 C529 0.960 . S
H538 C530 0.930 . S
H539 C531 0.929 . S
H540 C548 0.929 . S
H541 C550 0.930 . S
H542 C552 0.930 . S
H543 C555 0.929 . S
H544 C558 0.930 . S
H545 C560 0.960 . S
H546 C560 0.960 . S
H547 C560 0.960 . S
C548 H540 0.929 . S
C548 C549 1.377 . S
C548 C550 1.384 . S
C549 C548 1.377 . S
C549 C555 1.390 . S
C550 H541 0.930 . S
C550 C548 1.384 . S
C550 C551 1.372 . S
C551 C550 1.372 . S
C551 C552 1.400 . S
C551 C556 1.490 . S
C552 H542 0.930 . S
C552 C551 1.400 . S
C552 C555 1.386 . S
H553 C569 0.930 . S
H554 C570 0.931 . S
C555 H543 0.929 . S
C555 C549 1.390 . S
C555 C552 1.386 . S
C556 C551 1.490 . S
C556 C558 1.395 . S
C556 C559 1.403 . S
H557 C563 0.930 . S
C558 H544 0.930 . S
C558 C556 1.395 . S
C558 C561 1.403 . S
C559 C556 1.403 . S
C559 C560 1.524 . S
C559 C563 1.400 . S
C560 H545 0.960 . S
C560 H546 0.960 . S
C560 H547 0.960 . S
C560 C559 1.524 . S
C561 C558 1.403 . S
C561 C562 1.392 . S
C561 C565 1.495 . S
C562 C561 1.392 . S
C562 C563 1.385 . S
C562 C564 1.478 . S
C563 H557 0.930 . S
C563 C559 1.400 . S
C563 C562 1.385 . S
C564 C562 1.478 . S
C564 C566 1.381 . S
C564 C570 1.383 . S
C565 C561 1.495 . S
C565 H571 0.959 . S
C565 H572 0.961 . S
C565 H573 0.960 . S
C566 C564 1.381 . S
C566 C567 1.394 . S
C566 H574 0.930 . S
C567 C566 1.394 . S
C567 C568 1.383 . S
C567 H575 0.929 . S
C568 C567 1.383 . S
C568 C569 1.377 . S
C569 H553 0.930 . S
C569 C568 1.377 . S
C569 C570 1.379 . S
C570 H554 0.931 . S
C570 C564 1.383 . S
C570 C569 1.379 . S
H571 C565 0.959 . S
H572 C565 0.961 . S
H573 C565 0.960 . S
H574 C566 0.930 . S
H575 C567 0.929 . S
H576 C584 0.929 . S
H577 C586 0.930 . S
H578 C588 0.930 . S
H579 C591 0.929 . S
H580 C594 0.930 . S
H581 C596 0.960 . S
H582 C596 0.960 . S
H583 C596 0.960 . S
C584 H576 0.929 . S
C584 C585 1.377 . S
C584 C586 1.384 . S
C585 C584 1.377 . S
C585 C591 1.390 . S
C586 H577 0.930 . S
C586 C584 1.384 . S
C586 C587 1.372 . S
C587 C586 1.372 . S
C587 C588 1.400 . S
C587 C592 1.490 . S
C588 H578 0.930 . S
C588 C587 1.400 . S
C588 C591 1.386 . S
H589 C605 0.930 . S
H590 C606 0.931 . S
C591 H579 0.929 . S
C591 C585 1.390 . S
C591 C588 1.386 . S
C592 C587 1.490 . S
C592 C594 1.395 . S
C592 C595 1.403 . S
H593 C599 0.930 . S
C594 H580 0.930 . S
C594 C592 1.395 . S
C594 C597 1.389 1_545 S
C595 C592 1.403 . S
C595 C596 1.524 . S
C595 C599 1.400 . S
C596 H581 0.960 . S
C596 H582 0.960 . S
C596 H583 0.960 . S
C596 C595 1.524 . S
C597 C594 1.389 1_565 S
C597 C598 1.389 . S
C597 C601 1.503 . S
C598 C597 1.389 . S
C598 C599 1.374 1_565 S
C598 C600 1.499 . S
C599 H593 0.930 . S
C599 C595 1.400 . S
C599 C598 1.374 1_545 S
C600 C598 1.499 . S
C600 C602 1.381 . S
C600 C606 1.383 . S
C601 C597 1.503 . S
C601 H607 0.959 . S
C601 H608 0.961 . S
C601 H609 0.960 . S
C602 C600 1.381 . S
C602 C603 1.394 . S
C602 H610 0.930 . S
C603 C602 1.394 . S
C603 C604 1.383 . S
C603 H611 0.929 . S
C604 C603 1.383 . S
C604 C605 1.377 . S
C605 H589 0.930 . S
C605 C604 1.377 . S
C605 C606 1.379 . S
C606 H590 0.931 . S
C606 C600 1.383 . S
C606 C605 1.379 . S
H607 C601 0.959 . S
H608 C601 0.961 . S
H609 C601 0.960 . S
H610 C602 0.930 . S
H611 C603 0.929 . S
H612 C620 0.929 . S
H613 C622 0.930 . S
H614 C624 0.930 . S
H615 C627 0.929 . S
H616 C630 0.930 . S
H617 C632 0.960 . S
H618 C632 0.960 1_554 S
H619 C632 0.960 . S
C620 H612 0.929 . S
C620 C621 1.377 . S
C620 C622 1.384 . S
C621 C620 1.377 . S
C621 C627 1.390 1_554 S
C622 H613 0.930 . S
C622 C620 1.384 . S
C622 C623 1.372 . S
C623 C622 1.372 . S
C623 C624 1.400 1_554 S
C623 C628 1.490 . S
C624 H614 0.930 . S
C624 C623 1.400 1_556 S
C624 C627 1.386 . S
H625 C641 0.930 . S
H626 C642 0.931 . S
C627 H615 0.929 . S
C627 C621 1.390 1_556 S
C627 C624 1.386 . S
C628 C623 1.490 . S
C628 C630 1.395 . S
C628 C631 1.403 . S
H629 C635 0.930 . S
C630 H616 0.930 . S
C630 C628 1.395 . S
C630 C633 1.403 . S
C631 C628 1.403 . S
C631 C632 1.524 1_554 S
C631 C635 1.400 . S
C632 H617 0.960 . S
C632 H618 0.960 1_556 S
C632 H619 0.960 . S
C632 C631 1.524 1_556 S
C633 C630 1.403 . S
C633 C634 1.392 . S
C633 C637 1.495 . S
C634 C633 1.392 . S
C634 C635 1.385 . S
C634 C636 1.478 . S
C635 H629 0.930 . S
C635 C631 1.400 . S
C635 C634 1.385 . S
C636 C634 1.478 . S
C636 C638 1.381 . S
C636 C642 1.383 1_554 S
C637 C633 1.495 . S
C637 H643 0.959 . S
C637 H644 0.961 . S
C637 H645 0.960 . S
C638 C636 1.381 . S
C638 C639 1.394 . S
C638 H646 0.930 . S
C639 C638 1.394 . S
C639 C640 1.383 . S
C639 H647 0.929 . S
C640 C639 1.383 . S
C640 C641 1.377 1_554 S
C641 H625 0.930 . S
C641 C640 1.377 1_556 S
C641 C642 1.379 . S
C642 H626 0.931 . S
C642 C636 1.383 1_556 S
C642 C641 1.379 . S
H643 C637 0.959 . S
H644 C637 0.961 . S
H645 C637 0.960 . S
H646 C638 0.930 . S
H647 C639 0.929 . S
H648 C656 0.929 . S
H649 C658 0.930 . S
H650 C660 0.930 . S
H651 C663 0.929 . S
H652 C666 0.930 . S
H653 C668 0.960 . S
H654 C668 0.960 1_565 S
H655 C668 0.960 1_565 S
C656 H648 0.929 . S
C656 C657 1.377 1_556 S
C656 C658 1.384 . S
C657 C656 1.377 1_554 S
C657 C663 1.390 . S
C658 H649 0.930 . S
C658 C656 1.384 . S
C658 C659 1.372 1_556 S
C659 C658 1.372 1_554 S
C659 C660 1.400 . S
C659 C664 1.464 1_565 S
C660 H650 0.930 . S
C660 C659 1.400 . S
C660 C663 1.386 . S
H661 C677 0.930 . S
H662 C678 0.931 . S
C663 H651 0.929 . S
C663 C657 1.390 . S
C663 C660 1.386 . S
C664 C659 1.464 1_545 S
C664 C666 1.411 1_554 S
C664 C667 1.413 . S
H665 C671 0.930 . S
C666 H652 0.930 . S
C666 C664 1.411 1_556 S
C666 C669 1.403 . S
C667 C664 1.413 . S
C667 C668 1.524 . S
C667 C671 1.400 . S
C668 H653 0.960 . S
C668 H654 0.960 1_545 S
C668 H655 0.960 1_545 S
C668 C667 1.524 . S
C669 C666 1.403 . S
C669 C670 1.392 1_556 S
C669 C673 1.495 . S
C670 C669 1.392 1_554 S
C670 C671 1.385 . S
C670 C672 1.478 . S
C671 H665 0.930 . S
C671 C667 1.400 . S
C671 C670 1.385 . S
C672 C670 1.478 . S
C672 C674 1.381 . S
C672 C678 1.383 . S
C673 C669 1.495 . S
C673 H679 0.959 . S
C673 H680 0.961 . S
C673 H681 0.960 . S
C674 C672 1.381 . S
C674 C675 1.394 . S
C674 H682 0.930 1_554 S
C675 C674 1.394 . S
C675 C676 1.383 . S
C675 H683 0.929 1_554 S
C676 C675 1.383 . S
C676 C677 1.377 . S
C677 H661 0.930 . S
C677 C676 1.377 . S
C677 C678 1.379 . S
C678 H662 0.931 . S
C678 C672 1.383 . S
C678 C677 1.379 . S
H679 C673 0.959 . S
H680 C673 0.961 . S
H681 C673 0.960 . S
H682 C674 0.930 1_556 S
H683 C675 0.929 1_556 S
H684 C692 0.929 . S
H685 C694 0.930 . S
H686 C696 0.930 . S
H687 C699 0.929 . S
H688 C702 0.930 . S
H689 C704 0.960 . S
H690 C704 0.960 . S
H691 C704 0.960 . S
C692 H684 0.929 . S
C692 C693 1.377 . S
C692 C694 1.384 . S
C693 C692 1.377 . S
C693 C699 1.390 . S
C694 H685 0.930 . S
C694 C692 1.384 . S
C694 C695 1.372 . S
C695 C694 1.372 . S
C695 C696 1.400 . S
C695 C700 1.490 . S
C696 H686 0.930 . S
C696 C695 1.400 . S
C696 C699 1.386 . S
H697 C713 0.930 . S
H698 C714 0.931 . S
C699 H687 0.929 . S
C699 C693 1.390 . S
C699 C696 1.386 . S
C700 C695 1.490 . S
C700 C702 1.395 . S
C700 C703 1.403 1_554 S
H701 C707 0.930 . S
C702 H688 0.930 . S
C702 C700 1.395 . S
C702 C705 1.403 1_655 S
C703 C700 1.403 1_556 S
C703 C704 1.524 . S
C703 C707 1.400 1_655 S
C704 H689 0.960 . S
C704 H690 0.960 . S
C704 H691 0.960 . S
C704 C703 1.524 . S
C705 C702 1.403 1_455 S
C705 C706 1.392 . S
C705 C709 1.495 . S
C706 C705 1.392 . S
C706 C707 1.385 1_554 S
C706 C708 1.478 . S
C707 H701 0.930 . S
C707 C703 1.400 1_455 S
C707 C706 1.385 1_556 S
C708 C706 1.478 . S
C708 C710 1.381 1_554 S
C708 C714 1.383 . S
C709 C705 1.495 . S
C709 H715 0.959 . S
C709 H716 0.961 . S
C709 H717 0.960 . S
C710 C708 1.381 1_556 S
C710 C711 1.394 . S
C710 H718 0.930 . S
C711 C710 1.394 . S
C711 C712 1.381 1_556 S
C711 H719 0.929 1_565 S
C712 C711 1.381 1_554 S
C712 C713 1.380 . S
C713 H697 0.930 . S
C713 C712 1.380 . S
C713 C714 1.379 . S
C714 H698 0.931 . S
C714 C708 1.383 . S
C714 C713 1.379 . S
H715 C709 0.959 . S
H716 C709 0.961 . S
H717 C709 0.960 . S
H718 C710 0.930 . S
H719 C711 0.929 1_545 S
H720 C728 0.929 . S
H721 C730 0.930 . S
H722 C732 0.930 . S
H723 C735 0.929 . S
H724 C738 0.930 . S
H725 C740 0.960 . S
H726 C740 0.960 . S
H727 C740 0.960 . S
C728 H720 0.929 . S
C728 C729 1.377 . S
C728 C730 1.384 . S
C729 C728 1.377 . S
C729 C735 1.390 . S
C730 H721 0.930 . S
C730 C728 1.384 . S
C730 C731 1.372 . S
C731 C730 1.372 . S
C731 C732 1.400 . S
C731 C736 1.490 . S
C732 H722 0.930 . S
C732 C731 1.400 . S
C732 C735 1.386 . S
H733 C749 0.930 . S
H734 C750 0.931 . S
C735 H723 0.929 . S
C735 C729 1.390 . S
C735 C732 1.386 . S
C736 C731 1.490 . S
C736 C738 1.395 . S
C736 C739 1.403 . S
H737 C743 0.930 . S
C738 H724 0.930 . S
C738 C736 1.395 . S
C738 C741 1.403 . S
C739 C736 1.403 . S
C739 C740 1.524 . S
C739 C743 1.400 . S
C740 H725 0.960 . S
C740 H726 0.960 . S
C740 H727 0.960 . S
C740 C739 1.524 . S
C741 C738 1.403 . S
C741 C742 1.392 . S
C741 C745 1.495 . S
C742 C741 1.392 . S
C742 C743 1.385 . S
C742 C744 1.478 . S
C743 H737 0.930 . S
C743 C739 1.400 . S
C743 C742 1.385 . S
C744 C742 1.478 . S
C744 C746 1.381 . S
C744 C750 1.383 . S
C745 C741 1.495 . S
C745 H751 0.959 . S
C745 H752 0.961 . S
C745 H753 0.960 . S
C746 C744 1.381 . S
C746 C747 1.394 . S
C746 H754 0.930 . S
C747 C746 1.394 . S
C747 C748 1.383 . S
C747 H755 0.929 . S
C748 C747 1.383 . S
C748 C749 1.377 . S
C749 H733 0.930 . S
C749 C748 1.377 . S
C749 C750 1.379 . S
C750 H734 0.931 . S
C750 C744 1.383 . S
C750 C749 1.379 . S
H751 C745 0.959 . S
H752 C745 0.961 . S
H753 C745 0.960 . S
H754 C746 0.930 . S
H755 C747 0.929 . S
H756 C764 0.929 . S
H757 C766 0.930 . S
H758 C768 0.930 . S
H759 C771 0.929 . S
H760 C774 0.930 . S
H761 C776 0.960 . S
H762 C776 0.960 . S
H763 C776 0.960 . S
C764 H756 0.929 . S
C764 C765 1.377 . S
C764 C766 1.384 . S
C765 C764 1.377 . S
C765 C771 1.390 . S
C766 H757 0.930 . S
C766 C764 1.384 . S
C766 C767 1.372 . S
C767 C766 1.372 . S
C767 C768 1.400 . S
C767 C772 1.490 . S
C768 H758 0.930 . S
C768 C767 1.400 . S
C768 C771 1.386 . S
H769 C785 0.930 . S
H770 C786 0.931 . S
C771 H759 0.929 . S
C771 C765 1.390 . S
C771 C768 1.386 . S
C772 C767 1.490 . S
C772 C774 1.395 . S
C772 C775 1.403 . S
H773 C779 0.930 . S
C774 H760 0.930 . S
C774 C772 1.395 . S
C774 C777 1.403 . S
C775 C772 1.403 . S
C775 C776 1.524 . S
C775 C779 1.400 . S
C776 H761 0.960 . S
C776 H762 0.960 . S
C776 H763 0.960 . S
C776 C775 1.524 . S
C777 C774 1.403 . S
C777 C778 1.392 . S
C777 C781 1.495 . S
C778 C777 1.392 . S
C778 C779 1.385 . S
C778 C780 1.478 . S
C779 H773 0.930 . S
C779 C775 1.400 . S
C779 C778 1.385 . S
C780 C778 1.478 . S
C780 C782 1.381 . S
C780 C786 1.383 . S
C781 C777 1.495 . S
C781 H787 0.959 . S
C781 H788 0.961 . S
C781 H789 0.960 . S
C782 C780 1.381 . S
C782 C783 1.394 . S
C782 H790 0.930 . S
C783 C782 1.394 . S
C783 C784 1.383 . S
C783 H791 0.929 . S
C784 C783 1.383 . S
C784 C785 1.377 . S
C785 H769 0.930 . S
C785 C784 1.377 . S
C785 C786 1.379 . S
C786 H770 0.931 . S
C786 C780 1.383 . S
C786 C785 1.379 . S
H787 C781 0.959 . S
H788 C781 0.961 . S
H789 C781 0.960 . S
H790 C782 0.930 . S
H791 C783 0.929 . S
H792 C800 0.929 . S
H793 C802 0.930 . S
H794 C804 0.930 . S
H795 C807 0.929 . S
H796 C810 0.930 . S
H797 C812 0.960 . S
H798 C812 0.960 . S
H799 C812 0.960 . S
C800 H792 0.929 . S
C800 C801 1.377 . S
C800 C802 1.384 . S
C801 C800 1.377 . S
C801 C807 1.390 . S
C802 H793 0.930 . S
C802 C800 1.384 . S
C802 C803 1.372 . S
C803 C802 1.372 . S
C803 C804 1.400 . S
C803 C808 1.490 . S
C804 H794 0.930 . S
C804 C803 1.400 . S
C804 C807 1.386 . S
H805 C821 0.930 . S
H806 C822 0.931 . S
C807 H795 0.929 . S
C807 C801 1.390 . S
C807 C804 1.386 . S
C808 C803 1.490 . S
C808 C810 1.395 . S
C808 C811 1.403 . S
H809 C815 0.930 . S
C810 H796 0.930 . S
C810 C808 1.395 . S
C810 C813 1.403 . S
C811 C808 1.403 . S
C811 C812 1.524 . S
C811 C815 1.400 . S
C812 H797 0.960 . S
C812 H798 0.960 . S
C812 H799 0.960 . S
C812 C811 1.524 . S
C813 C810 1.403 . S
C813 C814 1.392 . S
C813 C817 1.495 . S
C814 C813 1.392 . S
C814 C815 1.385 . S
C814 C816 1.478 . S
C815 H809 0.930 . S
C815 C811 1.400 . S
C815 C814 1.385 . S
C816 C814 1.478 . S
C816 C818 1.381 . S
C816 C822 1.383 . S
C817 C813 1.495 . S
C817 H823 0.959 . S
C817 H824 0.961 . S
C817 H825 0.960 . S
C818 C816 1.381 . S
C818 C819 1.394 . S
C818 H826 0.930 . S
C819 C818 1.394 . S
C819 C820 1.383 . S
C819 H827 0.929 . S
C820 C819 1.383 . S
C820 C821 1.377 . S
C821 H805 0.930 . S
C821 C820 1.377 . S
C821 C822 1.379 . S
C822 H806 0.931 . S
C822 C816 1.383 . S
C822 C821 1.379 . S
H823 C817 0.959 . S
H824 C817 0.961 . S
H825 C817 0.960 . S
H826 C818 0.930 . S
H827 C819 0.929 . S
H828 C836 0.929 . S
H829 C838 0.930 . S
H830 C840 0.930 . S
H831 C843 0.929 . S
H832 C846 0.930 . S
H833 C848 0.960 . S
H834 C848 0.960 . S
H835 C848 0.960 . S
C836 H828 0.929 . S
C836 C837 1.377 . S
C836 C838 1.384 . S
C837 C836 1.377 . S
C837 C843 1.390 . S
C838 H829 0.930 . S
C838 C836 1.384 . S
C838 C839 1.372 . S
C839 C838 1.372 . S
C839 C840 1.400 . S
C839 C844 1.490 . S
C840 H830 0.930 . S
C840 C839 1.400 . S
C840 C843 1.386 . S
H841 C857 0.930 . S
H842 C858 0.931 . S
C843 H831 0.929 . S
C843 C837 1.390 . S
C843 C840 1.386 . S
C844 C839 1.490 . S
C844 C846 1.395 . S
C844 C847 1.403 . S
H845 C851 0.930 . S
C846 H832 0.930 . S
C846 C844 1.395 . S
C846 C849 1.403 . S
C847 C844 1.403 . S
C847 C848 1.524 . S
C847 C851 1.400 . S
C848 H833 0.960 . S
C848 H834 0.960 . S
C848 H835 0.960 . S
C848 C847 1.524 . S
C849 C846 1.403 . S
C849 C850 1.392 . S
C849 C853 1.495 . S
C850 C849 1.392 . S
C850 C851 1.385 . S
C850 C852 1.478 . S
C851 H845 0.930 . S
C851 C847 1.400 . S
C851 C850 1.385 . S
C852 C850 1.478 . S
C852 C854 1.381 . S
C852 C858 1.383 . S
C853 C849 1.495 . S
C853 H859 0.959 . S
C853 H860 0.961 . S
C853 H861 0.960 . S
C854 C852 1.381 . S
C854 C855 1.394 . S
C854 H862 0.930 . S
C855 C854 1.394 . S
C855 C856 1.383 . S
C855 H863 0.929 . S
C856 C855 1.383 . S
C856 C857 1.377 . S
C857 H841 0.930 . S
C857 C856 1.377 . S
C857 C858 1.379 . S
C858 H842 0.931 . S
C858 C852 1.383 . S
C858 C857 1.379 . S
H859 C853 0.959 . S
H860 C853 0.961 . S
H861 C853 0.960 . S
H862 C854 0.930 . S
H863 C855 0.929 . S
H864 C872 0.929 . S
H865 C874 0.930 . S
H866 C876 0.930 . S
H867 C879 0.929 . S
H868 C882 0.930 . S
H869 C884 0.960 . S
H870 C884 0.960 . S
H871 C884 0.960 . S
C872 H864 0.929 . S
C872 C873 1.377 . S
C872 C874 1.384 . S
C873 C872 1.377 . S
C873 C879 1.390 . S
C874 H865 0.930 . S
C874 C872 1.384 . S
C874 C875 1.372 . S
C875 C874 1.372 . S
C875 C876 1.400 . S
C875 C880 1.490 . S
C876 H866 0.930 . S
C876 C875 1.400 . S
C876 C879 1.386 . S
H877 C893 0.930 . S
H878 C894 0.931 . S
C879 H867 0.929 . S
C879 C873 1.390 . S
C879 C876 1.386 . S
C880 C875 1.490 . S
C880 C882 1.395 . S
C880 C883 1.403 . S
H881 C887 0.930 . S
C882 H868 0.930 . S
C882 C880 1.395 . S
C882 C885 1.403 . S
C883 C880 1.403 . S
C883 C884 1.524 . S
C883 C887 1.400 . S
C884 H869 0.960 . S
C884 H870 0.960 . S
C884 H871 0.960 . S
C884 C883 1.524 . S
C885 C882 1.403 . S
C885 C886 1.392 . S
C885 C889 1.495 . S
C886 C885 1.392 . S
C886 C887 1.385 . S
C886 C888 1.478 . S
C887 H881 0.930 . S
C887 C883 1.400 . S
C887 C886 1.385 . S
C888 C886 1.478 . S
C888 C890 1.381 . S
C888 C894 1.383 . S
C889 C885 1.495 . S
C889 H895 0.959 . S
C889 H896 0.961 . S
C889 H897 0.960 . S
C890 C888 1.381 . S
C890 C891 1.394 . S
C890 H898 0.930 . S
C891 C890 1.394 . S
C891 C892 1.383 . S
C891 H899 0.929 . S
C892 C891 1.383 . S
C892 C893 1.377 . S
C893 H877 0.930 . S
C893 C892 1.377 . S
C893 C894 1.379 . S
C894 H878 0.931 . S
C894 C888 1.383 . S
C894 C893 1.379 . S
H895 C889 0.959 . S
H896 C889 0.961 . S
H897 C889 0.960 . S
H898 C890 0.930 . S
H899 C891 0.929 . S
H900 C908 0.929 . S
H901 C910 0.930 . S
H902 C912 0.930 . S
H903 C915 0.929 . S
H904 C918 0.930 . S
H905 C920 0.960 . S
H906 C920 0.960 . S
H907 C920 0.960 . S
C908 H900 0.929 . S
C908 C909 1.377 . S
C908 C910 1.384 . S
C909 C908 1.377 . S
C909 C915 1.390 . S
C910 H901 0.930 . S
C910 C908 1.384 . S
C910 C911 1.372 . S
C911 C910 1.372 . S
C911 C912 1.400 . S
C911 C916 1.490 . S
C912 H902 0.930 . S
C912 C911 1.400 . S
C912 C915 1.386 . S
H913 C929 0.930 . S
H914 C930 0.931 . S
C915 H903 0.929 . S
C915 C909 1.390 . S
C915 C912 1.386 . S
C916 C911 1.490 . S
C916 C918 1.395 . S
C916 C919 1.403 . S
H917 C923 0.930 . S
C918 H904 0.930 . S
C918 C916 1.395 . S
C918 C921 1.403 . S
C919 C916 1.403 . S
C919 C920 1.524 . S
C919 C923 1.400 . S
C920 H905 0.960 . S
C920 H906 0.960 . S
C920 H907 0.960 . S
C920 C919 1.524 . S
C921 C918 1.403 . S
C921 C922 1.392 . S
C921 C925 1.495 . S
C922 C921 1.392 . S
C922 C923 1.385 . S
C922 C924 1.478 . S
C923 H917 0.930 . S
C923 C919 1.400 . S
C923 C922 1.385 . S
C924 C922 1.478 . S
C924 C926 1.381 . S
C924 C930 1.383 . S
C925 C921 1.495 . S
C925 H931 0.959 . S
C925 H932 0.961 . S
C925 H933 0.960 . S
C926 C924 1.381 . S
C926 C927 1.394 . S
C926 H934 0.930 . S
C927 C926 1.394 . S
C927 C928 1.383 . S
C927 H935 0.929 . S
C928 C927 1.383 . S
C928 C929 1.377 . S
C929 H913 0.930 . S
C929 C928 1.377 . S
C929 C930 1.379 . S
C930 H914 0.931 . S
C930 C924 1.383 . S
C930 C929 1.379 . S
H931 C925 0.959 . S
H932 C925 0.961 . S
H933 C925 0.960 . S
H934 C926 0.930 . S
H935 C927 0.929 . S
H936 C944 0.929 . S
H937 C946 0.930 . S
H938 C948 0.930 . S
H939 C951 0.929 . S
H940 C954 0.930 . S
H941 C956 0.960 . S
H942 C956 0.960 . S
H943 C956 0.960 . S
C944 H936 0.929 . S
C944 C945 1.377 . S
C944 C946 1.384 . S
C945 C944 1.377 . S
C945 C951 1.389 1_455 S
C946 H937 0.930 . S
C946 C944 1.384 . S
C946 C947 1.372 . S
C947 C946 1.372 . S
C947 C948 1.400 1_455 S
C947 C952 1.490 . S
C948 H938 0.930 . S
C948 C947 1.400 1_655 S
C948 C951 1.386 . S
H949 C965 0.930 . S
H950 C966 0.931 . S
C951 H939 0.929 . S
C951 C945 1.389 1_655 S
C951 C948 1.386 . S
C952 C947 1.490 . S
C952 C954 1.395 . S
C952 C955 1.403 1_455 S
H953 C959 0.930 1_655 S
C954 H940 0.930 . S
C954 C952 1.395 . S
C954 C957 1.403 . S
C955 C952 1.403 1_655 S
C955 C956 1.524 . S
C955 C959 1.400 1_655 S
C956 H941 0.960 . S
C956 H942 0.960 . S
C956 H943 0.960 . S
C956 C955 1.524 . S
C957 C954 1.403 . S
C957 C958 1.392 . S
C957 C961 1.495 . S
C958 C957 1.392 . S
C958 C959 1.385 . S
C958 C960 1.478 . S
C959 H953 0.930 1_455 S
C959 C955 1.400 1_455 S
C959 C958 1.385 . S
C960 C958 1.478 . S
C960 C962 1.381 . S
C960 C966 1.383 . S
C961 C957 1.495 . S
C961 H967 0.959 . S
C961 H968 0.961 . S
C961 H969 0.960 . S
C962 C960 1.381 . S
C962 C963 1.394 . S
C962 H970 0.930 . S
C963 C962 1.394 . S
C963 C964 1.383 . S
C963 H971 0.929 . S
C964 C963 1.383 . S
C964 C965 1.377 . S
C965 H949 0.930 . S
C965 C964 1.377 . S
C965 C966 1.379 . S
C966 H950 0.931 . S
C966 C960 1.383 . S
C966 C965 1.379 . S
H967 C961 0.959 . S
H968 C961 0.961 . S
H969 C961 0.960 . S
H970 C962 0.930 . S
H971 C963 0.929 . S
H972 C980 0.929 . S
H973 C982 0.930 . S
H974 C984 0.930 . S
H975 C987 0.929 . S
H976 C990 0.930 . S
H977 C992 0.960 . S
H978 C992 0.960 . S
H979 C992 0.960 . S
C980 H972 0.929 . S
C980 C981 1.377 . S
C980 C982 1.384 . S
C981 C980 1.377 . S
C981 C987 1.390 . S
C982 H973 0.930 . S
C982 C980 1.384 . S
C982 C983 1.372 . S
C983 C982 1.372 . S
C983 C984 1.400 . S
C983 C988 1.490 . S
C984 H974 0.930 . S
C984 C983 1.400 . S
C984 C987 1.386 . S
H985 C1001 0.930 . S
H986 C1002 0.931 . S
C987 H975 0.929 . S
C987 C981 1.390 . S
C987 C984 1.386 . S
C988 C983 1.490 . S
C988 C990 1.395 . S
C988 C991 1.403 . S
H989 C995 0.930 . S
C990 H976 0.930 . S
C990 C988 1.395 . S
C990 C993 1.403 . S
C991 C988 1.403 . S
C991 C992 1.524 . S
C991 C995 1.400 . S
C992 H977 0.960 . S
C992 H978 0.960 . S
C992 H979 0.960 . S
C992 C991 1.524 . S
C993 C990 1.403 . S
C993 C994 1.392 . S
C993 C997 1.495 . S
C994 C993 1.392 . S
C994 C995 1.385 . S
C994 C996 1.478 . S
C995 H989 0.930 . S
C995 C991 1.400 . S
C995 C994 1.385 . S
C996 C994 1.478 . S
C996 C998 1.381 . S
C996 C1002 1.383 . S
C997 C993 1.495 . S
C997 H1003 0.959 . S
C997 H1004 0.961 . S
C997 H1005 0.960 . S
C998 C996 1.381 . S
C998 C999 1.394 . S
C998 H1006 0.930 . S
C999 C998 1.394 . S
C999 C1000 1.383 . S
C999 H1007 0.929 . S
C1000 C999 1.383 . S
C1000 C1001 1.377 . S
C1001 H985 0.930 . S
C1001 C1000 1.377 . S
C1001 C1002 1.379 . S
C1002 H986 0.931 . S
C1002 C996 1.383 . S
C1002 C1001 1.379 . S
H1003 C997 0.959 . S
H1004 C997 0.961 . S
H1005 C997 0.960 . S
H1006 C998 0.930 . S
H1007 C999 0.929 . S
H1008 C1016 0.929 . S
H1009 C1018 0.930 . S
H1010 C1020 0.933 1_565 S
H1011 C1023 0.929 . S
H1012 C1026 0.930 . S
H1013 C1028 0.960 . S
H1014 C1028 0.960 . S
H1015 C1028 0.960 . S
C1016 H1008 0.929 . S
C1016 C1017 1.377 . S
C1016 C1018 1.384 . S
C1017 C1016 1.377 . S
C1017 C1023 1.390 . S
C1018 H1009 0.930 . S
C1018 C1016 1.384 . S
C1018 C1019 1.372 . S
C1019 C1018 1.372 . S
C1019 C1020 1.400 . S
C1019 C1024 1.490 . S
C1020 H1010 0.933 1_545 S
C1020 C1019 1.400 . S
C1020 C1023 1.386 . S
H1021 C1037 0.930 . S
H1022 C1038 0.931 . S
C1023 H1011 0.929 . S
C1023 C1017 1.390 . S
C1023 C1020 1.386 . S
C1024 C1019 1.490 . S
C1024 C1026 1.395 1_545 S
C1024 C1027 1.403 . S
H1025 C1031 0.930 . S
C1026 H1012 0.930 . S
C1026 C1024 1.395 1_565 S
C1026 C1029 1.403 . S
C1027 C1024 1.403 . S
C1027 C1028 1.524 . S
C1027 C1031 1.400 . S
C1028 H1013 0.960 . S
C1028 H1014 0.960 . S
C1028 H1015 0.960 . S
C1028 C1027 1.524 . S
C1029 C1026 1.403 . S
C1029 C1030 1.390 . S
C1029 C1033 1.495 . S
C1030 C1029 1.390 . S
C1030 C1031 1.388 1_565 S
C1030 C1032 1.477 . S
C1031 H1025 0.930 . S
C1031 C1027 1.400 . S
C1031 C1030 1.388 1_545 S
C1032 C1030 1.477 . S
C1032 C1034 1.381 1_565 S
C1032 C1038 1.383 . S
C1033 C1029 1.495 . S
C1033 H1039 0.959 . S
C1033 H1040 0.961 . S
C1033 H1041 0.960 . S
C1034 C1032 1.381 1_545 S
C1034 C1035 1.394 . S
C1034 H1042 0.930 . S
C1035 C1034 1.394 . S
C1035 C1036 1.383 1_545 S
C1035 H1043 0.929 . S
C1036 C1035 1.383 1_565 S
C1036 C1037 1.377 . S
C1037 H1021 0.930 . S
C1037 C1036 1.377 . S
C1037 C1038 1.379 . S
C1038 H1022 0.931 . S
C1038 C1032 1.383 . S
C1038 C1037 1.379 . S
H1039 C1033 0.959 . S
H1040 C1033 0.961 . S
H1041 C1033 0.960 . S
H1042 C1034 0.930 . S
H1043 C1035 0.929 . S
H1044 C1052 0.929 . S
H1045 C1054 0.930 . S
H1046 C1056 0.930 . S
H1047 C1059 0.929 . S
H1048 C1062 0.930 . S
H1049 C1064 0.960 . S
H1050 C1064 0.960 . S
H1051 C1064 0.960 . S
C1052 H1044 0.929 . S
C1052 C1053 1.377 . S
C1052 C1054 1.384 . S
C1053 C1052 1.377 . S
C1053 C1059 1.390 . S
C1054 H1045 0.930 . S
C1054 C1052 1.384 . S
C1054 C1055 1.372 . S
C1055 C1054 1.372 . S
C1055 C1056 1.400 . S
C1055 C1060 1.490 . S
C1056 H1046 0.930 . S
C1056 C1055 1.400 . S
C1056 C1059 1.386 . S
H1057 C1073 0.925 1_554 S
H1058 C1074 0.931 . S
C1059 H1047 0.929 . S
C1059 C1053 1.390 . S
C1059 C1056 1.386 . S
C1060 C1055 1.490 . S
C1060 C1062 1.395 . S
C1060 C1063 1.403 . S
H1061 C1067 0.930 . S
C1062 H1048 0.930 . S
C1062 C1060 1.395 . S
C1062 C1065 1.403 . S
C1063 C1060 1.403 . S
C1063 C1064 1.524 . S
C1063 C1067 1.400 . S
C1064 H1049 0.960 . S
C1064 H1050 0.960 . S
C1064 H1051 0.960 . S
C1064 C1063 1.524 . S
C1065 C1062 1.403 . S
C1065 C1066 1.392 . S
C1065 C1069 1.495 . S
C1066 C1065 1.392 . S
C1066 C1067 1.385 . S
C1066 C1068 1.478 . S
C1067 H1061 0.930 . S
C1067 C1063 1.400 . S
C1067 C1066 1.385 . S
C1068 C1066 1.478 . S
C1068 C1070 1.381 . S
C1068 C1074 1.383 . S
C1069 C1065 1.495 . S
C1069 H1075 0.959 . S
C1069 H1076 0.961 . S
C1069 H1077 0.960 . S
C1070 C1068 1.381 . S
C1070 C1071 1.394 1_556 S
C1070 H1078 0.930 . S
C1071 C1070 1.394 1_554 S
C1071 C1072 1.383 . S
C1071 H1079 0.929 . S
C1072 C1071 1.383 . S
C1072 C1073 1.368 1_554 S
C1073 H1057 0.925 1_556 S
C1073 C1072 1.368 1_556 S
C1073 C1074 1.392 . S
C1074 H1058 0.931 . S
C1074 C1068 1.383 . S
C1074 C1073 1.392 . S
H1075 C1069 0.959 . S
H1076 C1069 0.961 . S
H1077 C1069 0.960 . S
H1078 C1070 0.930 . S
H1079 C1071 0.929 . S
H1080 C1088 0.929 . S
H1081 C1090 0.930 . S
H1082 C1092 0.930 . S
H1083 C1095 0.929 . S
H1084 C1098 0.930 . S
H1085 C1100 0.960 . S
H1086 C1100 0.960 . S
H1087 C1100 0.960 . S
C1088 H1080 0.929 . S
C1088 C1089 1.377 . S
C1088 C1090 1.384 . S
C1089 C1088 1.377 . S
C1089 C1095 1.390 . S
C1090 H1081 0.930 . S
C1090 C1088 1.384 . S
C1090 C1091 1.372 . S
C1091 C1090 1.372 . S
C1091 C1092 1.400 . S
C1091 C1096 1.490 . S
C1092 H1082 0.930 . S
C1092 C1091 1.400 . S
C1092 C1095 1.386 . S
H1093 C1109 0.930 . S
H1094 C1110 0.931 . S
C1095 H1083 0.929 . S
C1095 C1089 1.390 . S
C1095 C1092 1.386 . S
C1096 C1091 1.490 . S
C1096 C1098 1.395 . S
C1096 C1099 1.403 . S
H1097 C1103 0.930 . S
C1098 H1084 0.930 . S
C1098 C1096 1.395 . S
C1098 C1101 1.403 . S
C1099 C1096 1.403 . S
C1099 C1100 1.524 . S
C1099 C1103 1.400 . S
C1100 H1085 0.960 . S
C1100 H1086 0.960 . S
C1100 H1087 0.960 . S
C1100 C1099 1.524 . S
C1101 C1098 1.403 . S
C1101 C1102 1.392 . S
C1101 C1105 1.495 . S
C1102 C1101 1.392 . S
C1102 C1103 1.385 . S
C1102 C1104 1.478 . S
C1103 H1097 0.930 . S
C1103 C1099 1.400 . S
C1103 C1102 1.385 . S
C1104 C1102 1.478 . S
C1104 C1106 1.381 . S
C1104 C1110 1.383 . S
C1105 C1101 1.495 . S
C1105 H1111 0.959 . S
C1105 H1112 0.961 . S
C1105 H1113 0.960 . S
C1106 C1104 1.381 . S
C1106 C1107 1.394 . S
C1106 H1114 0.930 . S
C1107 C1106 1.394 . S
C1107 C1108 1.383 1_556 S
C1107 H1115 0.929 1_556 S
C1108 C1107 1.383 1_554 S
C1108 C1109 1.377 1_554 S
C1109 H1093 0.930 . S
C1109 C1108 1.377 1_556 S
C1109 C1110 1.379 . S
C1110 H1094 0.931 . S
C1110 C1104 1.383 . S
C1110 C1109 1.379 . S
H1111 C1105 0.959 . S
H1112 C1105 0.961 . S
H1113 C1105 0.960 . S
H1114 C1106 0.930 . S
H1115 C1107 0.929 1_554 S
H1116 C1124 0.929 . S
H1117 C1126 0.930 . S
H1118 C1128 0.930 . S
H1119 C1131 0.929 . S
H1120 C1134 0.930 . S
H1121 C1136 0.960 . S
H1122 C1136 0.960 . S
H1123 C1136 0.960 . S
C1124 H1116 0.929 . S
C1124 C1125 1.377 . S
C1124 C1126 1.384 . S
C1125 C1124 1.377 . S
C1125 C1131 1.390 . S
C1126 H1117 0.930 . S
C1126 C1124 1.384 . S
C1126 C1127 1.372 . S
C1127 C1126 1.372 . S
C1127 C1128 1.400 . S
C1127 C1132 1.490 . S
C1128 H1118 0.930 . S
C1128 C1127 1.400 . S
C1128 C1131 1.386 . S
H1129 C1145 0.930 . S
H1130 C1146 0.931 . S
C1131 H1119 0.929 . S
C1131 C1125 1.390 . S
C1131 C1128 1.386 . S
C1132 C1127 1.490 . S
C1132 C1134 1.395 . S
C1132 C1135 1.403 . S
H1133 C1139 0.930 . S
C1134 H1120 0.930 . S
C1134 C1132 1.395 . S
C1134 C1137 1.403 . S
C1135 C1132 1.403 . S
C1135 C1136 1.524 . S
C1135 C1139 1.400 . S
C1136 H1121 0.960 . S
C1136 H1122 0.960 . S
C1136 H1123 0.960 . S
C1136 C1135 1.524 . S
C1137 C1134 1.403 . S
C1137 C1138 1.392 . S
C1137 C1141 1.495 . S
C1138 C1137 1.392 . S
C1138 C1139 1.385 . S
C1138 C1140 1.478 . S
C1139 H1133 0.930 . S
C1139 C1135 1.400 . S
C1139 C1138 1.385 . S
C1140 C1138 1.478 . S
C1140 C1142 1.381 . S
C1140 C1146 1.383 . S
C1141 C1137 1.495 . S
C1141 H1147 0.959 . S
C1141 H1148 0.961 . S
C1141 H1149 0.960 . S
C1142 C1140 1.381 . S
C1142 C1143 1.394 1_556 S
C1142 H1150 0.930 . S
C1143 C1142 1.394 1_554 S
C1143 C1144 1.383 . S
C1143 H1151 0.929 . S
C1144 C1143 1.383 . S
C1144 C1145 1.377 . S
C1145 H1129 0.930 . S
C1145 C1144 1.377 . S
C1145 C1146 1.379 1_554 S
C1146 H1130 0.931 . S
C1146 C1140 1.383 . S
C1146 C1145 1.379 1_556 S
H1147 C1141 0.959 . S
H1148 C1141 0.961 . S
H1149 C1141 0.960 . S
H1150 C1142 0.930 . S
H1151 C1143 0.929 . S
H1152 C1160 0.929 . S
H1153 C1162 0.930 . S
H1154 C1164 0.930 . S
H1155 C1167 0.929 . S
H1156 C1170 0.930 . S
H1157 C1172 0.960 . S
H1158 C1172 0.960 . S
H1159 C1172 0.960 . S
C1160 H1152 0.929 . S
C1160 C1161 1.377 . S
C1160 C1162 1.384 . S
C1161 C1160 1.377 . S
C1161 C1167 1.390 . S
C1162 H1153 0.930 . S
C1162 C1160 1.384 . S
C1162 C1163 1.372 . S
C1163 C1162 1.372 . S
C1163 C1164 1.400 . S
C1163 C1168 1.490 . S
C1164 H1154 0.930 . S
C1164 C1163 1.400 . S
C1164 C1167 1.386 . S
H1165 C1181 0.930 . S
H1166 C1182 0.931 . S
C1167 H1155 0.929 . S
C1167 C1161 1.390 . S
C1167 C1164 1.386 . S
C1168 C1163 1.490 . S
C1168 C1170 1.395 . S
C1168 C1171 1.403 . S
H1169 C1175 0.930 . S
C1170 H1156 0.930 . S
C1170 C1168 1.395 . S
C1170 C1173 1.403 . S
C1171 C1168 1.403 . S
C1171 C1172 1.524 . S
C1171 C1175 1.400 . S
C1172 H1157 0.960 . S
C1172 H1158 0.960 . S
C1172 H1159 0.960 . S
C1172 C1171 1.524 . S
C1173 C1170 1.403 . S
C1173 C1174 1.392 . S
C1173 C1177 1.495 . S
C1174 C1173 1.392 . S
C1174 C1175 1.385 . S
C1174 C1176 1.478 . S
C1175 H1169 0.930 . S
C1175 C1171 1.400 . S
C1175 C1174 1.385 . S
C1176 C1174 1.478 . S
C1176 C1178 1.381 . S
C1176 C1182 1.383 . S
C1177 C1173 1.495 . S
C1177 H1183 0.959 . S
C1177 H1184 0.961 . S
C1177 H1185 0.960 . S
C1178 C1176 1.381 . S
C1178 C1179 1.394 1_554 S
C1178 H1186 0.930 . S
C1179 C1178 1.394 1_556 S
C1179 C1180 1.383 . S
C1179 H1187 0.929 . S
C1180 C1179 1.383 . S
C1180 C1181 1.377 . S
C1181 H1165 0.930 . S
C1181 C1180 1.377 . S
C1181 C1182 1.379 1_556 S
C1182 H1166 0.931 . S
C1182 C1176 1.383 . S
C1182 C1181 1.379 1_554 S
H1183 C1177 0.959 . S
H1184 C1177 0.961 . S
H1185 C1177 0.960 . S
H1186 C1178 0.930 . S
H1187 C1179 0.929 . S
H1188 C1196 0.929 1_556 S
H1189 C1198 0.930 . S
H1190 C1200 0.930 . S
H1191 C1203 0.929 1_556 S
H1192 C1206 0.930 . S
H1193 C1208 0.960 . S
H1194 C1208 0.960 . S
H1195 C1208 0.960 . S
C1196 H1188 0.929 1_554 S
C1196 C1197 1.377 1_554 S
C1196 C1198 1.384 . S
C1197 C1196 1.377 1_556 S
C1197 C1203 1.390 1_556 S
C1198 H1189 0.930 . S
C1198 C1196 1.384 . S
C1198 C1199 1.372 . S
C1199 C1198 1.372 . S
C1199 C1200 1.400 . S
C1199 C1204 1.490 . S
C1200 H1190 0.930 . S
C1200 C1199 1.400 . S
C1200 C1203 1.386 . S
H1201 C1217 0.930 . S
H1202 C1218 0.931 . S
C1203 H1191 0.929 1_554 S
C1203 C1197 1.390 1_554 S
C1203 C1200 1.386 . S
C1204 C1199 1.490 . S
C1204 C1206 1.395 . S
C1204 C1207 1.403 . S
H1205 C1211 0.930 . S
C1206 H1192 0.930 . S
C1206 C1204 1.395 . S
C1206 C1209 1.403 . S
C1207 C1204 1.403 . S
C1207 C1208 1.524 . S
C1207 C1211 1.400 . S
C1208 H1193 0.960 . S
C1208 H1194 0.960 . S
C1208 H1195 0.960 . S
C1208 C1207 1.524 . S
C1209 C1206 1.403 . S
C1209 C1210 1.392 . S
C1209 C1213 1.495 . S
C1210 C1209 1.392 . S
C1210 C1211 1.385 . S
C1210 C1212 1.478 . S
C1211 H1205 0.930 . S
C1211 C1207 1.400 . S
C1211 C1210 1.385 . S
C1212 C1210 1.478 . S
C1212 C1214 1.381 . S
C1212 C1218 1.383 . S
C1213 C1209 1.495 . S
C1213 H1219 0.959 . S
C1213 H1220 0.961 . S
C1213 H1221 0.960 . S
C1214 C1212 1.381 . S
C1214 C1215 1.394 . S
C1214 H1222 0.930 . S
C1215 C1214 1.394 . S
C1215 C1216 1.383 . S
C1215 H1223 0.929 . S
C1216 C1215 1.383 . S
C1216 C1217 1.377 . S
C1217 H1201 0.930 . S
C1217 C1216 1.377 . S
C1217 C1218 1.379 . S
C1218 H1202 0.931 . S
C1218 C1212 1.383 . S
C1218 C1217 1.379 . S
H1219 C1213 0.959 . S
H1220 C1213 0.961 . S
H1221 C1213 0.960 . S
H1222 C1214 0.930 . S
H1223 C1215 0.929 . S
H1224 C1232 0.929 . S
H1225 C1234 0.930 . S
H1226 C1236 0.930 . S
H1227 C1239 0.929 . S
H1228 C1242 0.930 . S
H1229 C1244 0.960 . S
H1230 C1244 0.960 . S
H1231 C1244 0.960 . S
C1232 H1224 0.929 . S
C1232 C1233 1.377 . S
C1232 C1234 1.384 . S
C1233 C1232 1.377 . S
C1233 C1239 1.390 . S
C1234 H1225 0.930 . S
C1234 C1232 1.384 . S
C1234 C1235 1.372 . S
C1235 C1234 1.372 . S
C1235 C1236 1.400 . S
C1235 C1240 1.490 . S
C1236 H1226 0.930 . S
C1236 C1235 1.400 . S
C1236 C1239 1.386 . S
H1237 C1253 0.930 . S
H1238 C1254 0.931 . S
C1239 H1227 0.929 . S
C1239 C1233 1.390 . S
C1239 C1236 1.386 . S
C1240 C1235 1.490 . S
C1240 C1242 1.395 . S
C1240 C1243 1.403 . S
H1241 C1247 0.930 . S
C1242 H1228 0.930 . S
C1242 C1240 1.395 . S
C1242 C1245 1.403 . S
C1243 C1240 1.403 . S
C1243 C1244 1.524 . S
C1243 C1247 1.400 . S
C1244 H1229 0.960 . S
C1244 H1230 0.960 . S
C1244 H1231 0.960 . S
C1244 C1243 1.524 . S
C1245 C1242 1.403 . S
C1245 C1246 1.392 . S
C1245 C1249 1.495 . S
C1246 C1245 1.392 . S
C1246 C1247 1.385 . S
C1246 C1248 1.478 . S
C1247 H1241 0.930 . S
C1247 C1243 1.400 . S
C1247 C1246 1.385 . S
C1248 C1246 1.478 . S
C1248 C1250 1.381 . S
C1248 C1254 1.383 . S
C1249 C1245 1.495 . S
C1249 H1255 0.959 . S
C1249 H1256 0.961 . S
C1249 H1257 0.960 . S
C1250 C1248 1.381 . S
C1250 C1251 1.394 1_554 S
C1250 H1258 0.930 . S
C1251 C1250 1.394 1_556 S
C1251 C1252 1.383 . S
C1251 H1259 0.929 . S
C1252 C1251 1.383 . S
C1252 C1253 1.377 . S
C1253 H1237 0.930 . S
C1253 C1252 1.377 . S
C1253 C1254 1.379 1_556 S
C1254 H1238 0.931 . S
C1254 C1248 1.383 . S
C1254 C1253 1.379 1_554 S
H1255 C1249 0.959 . S
H1256 C1249 0.961 . S
H1257 C1249 0.960 . S
H1258 C1250 0.930 . S
H1259 C1251 0.929 . S
C297 C6 1.732 1_556 S
C316 C226 1.718 . S
C333 C36 1.446 . S
C352 C285 1.450 . S
C369 C66 1.615 . S
C388 C221 1.612 . S
C405 C132 1.256 . S
C424 C68 1.228 . S
C441 C164 1.426 . S
C460 C29 1.404 . S
C477 C34 1.618 . S
C496 C125 1.619 . S
C513 C228 1.605 . S
C532 C162 1.612 . S
C549 C262 1.768 . S
C568 C102 1.748 . S
C585 C130 1.956 . S
C604 C198 1.948 . S
C621 C93 1.182 . S
C640 C2 1.186 . S
C657 C61 1.151 . S
C676 C4 1.141 . S
C693 C38 1.174 . S
C712 C70 1.159 1_554 S
C729 C100 1.188 . S
C748 C166 1.177 . S
C765 C98 1.226 . S
C784 C157 1.231 . S
C801 C134 1.194 . S
C820 C189 1.182 . S
C837 C260 1.210 . S
C856 C194 1.203 . S
C873 C253 1.186 . S
C892 C196 1.187 . S
C909 C258 1.208 . S
C928 C230 1.214 . S
C945 N13 0.955 . S
C964 N18 0.968 . S
C981 N45 0.844 . S
C1000 N50 0.810 . S
C1017 N82 0.826 . S
C1036 N77 0.802 . S
C1053 N109 0.940 . S
C1072 N114 0.876 . S
C1089 N146 0.883 . S
C1108 N141 0.830 . S
C1125 N178 0.889 . S
C1144 N173 0.929 . S
C1161 N205 0.963 . S
C1180 N210 0.919 . S
C1197 N242 0.918 . S
C1216 N237 0.894 . S
C1233 N269 0.858 . S
C1252 N274 0.837 . S
