# Generated by pormake.
# Topology umj, (4)-cn, num edge types: 1
# Building blocks:
#     Node 0, Type 0, BuildingBlock: ICAMEG_clean_sbu_1, # of connection points: 4
#     Node 1, Type 0, BuildingBlock: ICAMEG_clean_sbu_1, # of connection points: 4
#     Node 2, Type 0, BuildingBlock: ICAMEG_clean_sbu_1, # of connection points: 4
#     Node 3, Type 0, BuildingBlock: ICAMEG_clean_sbu_1, # of connection points: 4
#     Node 4, Type 0, BuildingBlock: ICAMEG_clean_sbu_1, # of connection points: 4
#     Node 5, Type 0, BuildingBlock: ICAMEG_clean_sbu_1, # of connection points: 4
#     Node 6, Type 0, BuildingBlock: ICAMEG_clean_sbu_1, # of connection points: 4
#     Node 7, Type 0, BuildingBlock: ICAMEG_clean_sbu_1, # of connection points: 4
#     Node 8, Type 0, BuildingBlock: ICAMEG_clean_sbu_1, # of connection points: 4
#     Node 9, Type 0, BuildingBlock: ICAMEG_clean_sbu_1, # of connection points: 4
#     Node 10, Type 0, BuildingBlock: ICAMEG_clean_sbu_1, # of connection points: 4
#     Node 11, Type 0, BuildingBlock: ICAMEG_clean_sbu_1, # of connection points: 4
#     Edge 12, Type (0, 0), BuildingBlock: MIFKUJ_clean_linker_0, # of connection points: 2
#     Edge 13, Type (0, 0), BuildingBlock: MIFKUJ_clean_linker_0, # of connection points: 2
#     Edge 14, Type (0, 0), BuildingBlock: MIFKUJ_clean_linker_0, # of connection points: 2
#     Edge 15, Type (0, 0), BuildingBlock: MIFKUJ_clean_linker_0, # of connection points: 2
#     Edge 16, Type (0, 0), BuildingBlock: MIFKUJ_clean_linker_0, # of connection points: 2
#     Edge 17, Type (0, 0), BuildingBlock: MIFKUJ_clean_linker_0, # of connection points: 2
#     Edge 18, Type (0, 0), BuildingBlock: MIFKUJ_clean_linker_0, # of connection points: 2
#     Edge 19, Type (0, 0), BuildingBlock: MIFKUJ_clean_linker_0, # of connection points: 2
#     Edge 20, Type (0, 0), BuildingBlock: MIFKUJ_clean_linker_0, # of connection points: 2
#     Edge 21, Type (0, 0), BuildingBlock: MIFKUJ_clean_linker_0, # of connection points: 2
#     Edge 22, Type (0, 0), BuildingBlock: MIFKUJ_clean_linker_0, # of connection points: 2
#     Edge 23, Type (0, 0), BuildingBlock: MIFKUJ_clean_linker_0, # of connection points: 2
#     Edge 24, Type (0, 0), BuildingBlock: MIFKUJ_clean_linker_0, # of connection points: 2
#     Edge 25, Type (0, 0), BuildingBlock: MIFKUJ_clean_linker_0, # of connection points: 2
#     Edge 26, Type (0, 0), BuildingBlock: MIFKUJ_clean_linker_0, # of connection points: 2
#     Edge 27, Type (0, 0), BuildingBlock: MIFKUJ_clean_linker_0, # of connection points: 2
#     Edge 28, Type (0, 0), BuildingBlock: MIFKUJ_clean_linker_0, # of connection points: 2
#     Edge 29, Type (0, 0), BuildingBlock: MIFKUJ_clean_linker_0, # of connection points: 2
#     Edge 30, Type (0, 0), BuildingBlock: MIFKUJ_clean_linker_0, # of connection points: 2
#     Edge 31, Type (0, 0), BuildingBlock: MIFKUJ_clean_linker_0, # of connection points: 2
#     Edge 32, Type (0, 0), BuildingBlock: MIFKUJ_clean_linker_0, # of connection points: 2
#     Edge 33, Type (0, 0), BuildingBlock: MIFKUJ_clean_linker_0, # of connection points: 2
#     Edge 34, Type (0, 0), BuildingBlock: MIFKUJ_clean_linker_0, # of connection points: 2
#     Edge 35, Type (0, 0), BuildingBlock: MIFKUJ_clean_linker_0, # of connection points: 2
# Relax obj value: 0.069
# Max RMSD: 0.261
# Mean RMSD: 0.229
data_MOF--net-umj--node1-ICAMEG_clean_sbu_1--edge1-MIFKUJ_clean_linker_0
_symmetry_space_group_name_H-M    P1
_symmetry_Int_Tables_number       1
_symmetry_cell_setting            triclinic
loop_
_symmetry_equiv_pos_as_xyz
'x, y, z'
_cell_length_a     39.324557
_cell_length_b     39.289872
_cell_length_c     114.39376
_cell_angle_alpha  89.98444
_cell_angle_beta   89.989759
_cell_angle_gamma 120.00952
loop_
_atom_site_label
_atom_site_type_symbol
_atom_site_fract_x
_atom_site_fract_y
_atom_site_fract_z
_atom_type_partial_charge
Co0 Co 0.09084 0.28602 0.08471 0.0
Co1 Co 0.00334 0.2587 0.07043 0.0
O2 O 0.04257 0.2877 0.08241 0.0
C3 C 0.04613 0.2572 0.10646 0.0
O4 O 0.01582 0.23662 0.09965 0.0
C5 C 0.03062 0.3417 0.0658 0.0
O6 O 0.06619 0.34714 0.06694 0.0
O7 O 0.04451 0.27409 0.05837 0.0
O8 O 0.10177 0.29161 0.06744 0.0
H9 H 0.94527 0.16729 0.03621 0.0
H10 H 0.07716 0.34238 0.09826 0.0
O11 O 0.07995 0.27949 0.10201 0.0
H12 H 0.19841 0.42379 0.07577 0.0
H13 H 0.21541 0.31802 0.10594 0.0
H14 H 0.12901 0.24702 0.0727 0.0
H15 H 0.16404 0.35144 0.07439 0.0
H16 H 0.15492 0.32079 0.1024 0.0
O17 O 0.00088 0.30737 0.06694 0.0
H18 H 0.99429 0.20279 0.05163 0.0
H19 H 0.92901 0.25567 0.06334 0.0
H20 H 0.18932 0.2437 0.07585 0.0
H21 H 0.11069 0.41461 0.09995 0.0
H22 H 0.23297 0.27933 0.09259 0.0
H23 H 0.1717 0.45581 0.08862 0.0
O24 O 0.0626 0.22812 0.08307 0.0
H25 H 0.93644 0.28283 0.10422 0.0
H26 H 0.93371 0.18279 0.07758 0.0
H27 H 0.88337 0.16268 0.093 0.0
H28 H 0.88456 0.21289 0.10645 0.0
H29 H 0.98641 0.30159 0.08875 0.0
H30 H 0.87946 0.22103 0.04796 0.0
H31 H 0.88739 0.17636 0.0343 0.0
O32 O 0.00585 0.20992 0.07362 0.0
C33 C 0.08117 0.2859 0.05823 0.0
C34 C 0.94142 0.18656 0.04214 0.0
C35 C 0.9045 0.21674 0.04873 0.0
N36 N 0.96421 0.23083 0.05846 0.0
C37 C 0.96898 0.20658 0.05092 0.0
C38 C 0.93265 0.23629 0.05741 0.0
C39 C 0.90897 0.19168 0.04107 0.0
C40 C 0.10393 0.36011 0.0934 0.0
N41 N 0.11878 0.34275 0.08629 0.0
C42 C 0.12269 0.40099 0.09435 0.0
C43 C 0.15689 0.42409 0.08798 0.0
C44 C 0.17188 0.40615 0.08076 0.0
C45 C 0.15228 0.36519 0.08001 0.0
C46 C 0.19668 0.30245 0.0986 0.0
C47 C 0.14804 0.26289 0.07994 0.0
C48 C 0.1624 0.30389 0.09656 0.0
N49 N 0.13874 0.28445 0.08728 0.0
C50 C 0.18206 0.26076 0.08171 0.0
C51 C 0.20652 0.28074 0.09111 0.0
C52 C 0.03038 0.20221 0.07852 0.0
C53 C 0.93555 0.26069 0.09839 0.0
C54 C 0.93442 0.20479 0.08341 0.0
C55 C 0.90581 0.19325 0.09211 0.0
C56 C 0.90648 0.22144 0.09965 0.0
N57 N 0.96283 0.24335 0.08223 0.0
C58 C 0.96365 0.27117 0.08958 0.0
Co59 Co 0.81704 0.07995 0.41815 0.0
Co60 Co 0.75223 0.99628 0.40294 0.0
O61 O 0.7658 0.03341 0.41578 0.0
C62 C 0.80202 0.03087 0.43894 0.0
O63 O 0.7912 0.00165 0.43158 0.0
C64 C 0.70018 0.02886 0.40062 0.0
O65 O 0.73178 0.06306 0.40235 0.0
O66 O 0.7783 0.03948 0.39147 0.0
O67 O 0.82076 0.09436 0.40117 0.0
H68 H 0.77724 0.94143 0.36636 0.0
H69 H 0.74993 0.06667 0.43314 0.0
O70 O 0.81409 0.06558 0.43512 0.0
H71 H 0.79254 0.19324 0.41335 0.0
H72 H 0.91585 0.19858 0.44061 0.0
H73 H 0.89268 0.11794 0.40528 0.0
H74 H 0.82726 0.15645 0.40987 0.0
H75 H 0.85089 0.14033 0.43694 0.0
O76 O 0.70234 0.99754 0.40068 0.0
H77 H 0.795 0.98797 0.38278 0.0
H78 H 0.67784 0.92574 0.39545 0.0
H79 H 0.95792 0.17617 0.40854 0.0
H80 H 0.71455 0.10262 0.43694 0.0
H81 H 0.96986 0.21687 0.42632 0.0
H82 H 0.73574 0.16631 0.42697 0.0
O83 O 0.8441 0.05002 0.41481 0.0
H84 H 0.66413 0.926 0.43701 0.0
H85 H 0.75473 0.92302 0.40775 0.0
H86 H 0.72417 0.86991 0.42239 0.0
H87 H 0.67852 0.87123 0.43715 0.0
H88 H 0.69552 0.97861 0.42227 0.0
H89 H 0.65864 0.87886 0.37905 0.0
H90 H 0.7086 0.8865 0.36439 0.0
O91 O 0.80241 0.99546 0.40484 0.0
C92 C 0.80423 0.07582 0.39179 0.0
C93 C 0.75524 0.93775 0.3727 0.0
C94 C 0.68867 0.90263 0.37983 0.0
N95 N 0.7376 0.95922 0.39014 0.0
C96 C 0.76517 0.96386 0.38206 0.0
C97 C 0.69969 0.92927 0.38908 0.0
C98 C 0.71671 0.90693 0.37161 0.0
C99 C 0.75959 0.09458 0.42887 0.0
N100 N 0.79076 0.10957 0.42136 0.0
C101 C 0.73933 0.11471 0.43102 0.0
C102 C 0.7512 0.15042 0.42541 0.0
C103 C 0.78306 0.16554 0.41776 0.0
C104 C 0.80258 0.14456 0.41581 0.0
C105 C 0.91098 0.18112 0.43281 0.0
C106 C 0.89755 0.13574 0.41298 0.0
C107 C 0.8743 0.14811 0.4307 0.0
N108 N 0.86792 0.12606 0.42084 0.0
C109 C 0.9346 0.16856 0.41481 0.0
C110 C 0.94128 0.19137 0.42479 0.0
C111 C 0.83573 0.01824 0.4095 0.0
C112 C 0.68387 0.92504 0.4306 0.0
C113 C 0.73489 0.92376 0.41415 0.0
C114 C 0.71763 0.8936 0.42241 0.0
C115 C 0.692 0.89434 0.43068 0.0
N116 N 0.72673 0.95374 0.41413 0.0
C117 C 0.7016 0.95465 0.4222 0.0
Co118 Co 0.73583 0.80407 0.74804 0.0
Co119 Co 0.76523 0.74914 0.7318 0.0
O120 O 0.7395 0.75723 0.74516 0.0
C121 C 0.77765 0.79624 0.76811 0.0
O122 O 0.7997 0.79179 0.76036 0.0
C123 C 0.6832 0.6875 0.73048 0.0
O124 O 0.67577 0.71593 0.73259 0.0
O125 O 0.74026 0.76923 0.72089 0.0
O126 O 0.7219 0.80612 0.73129 0.0
H127 H 0.84267 0.78624 0.69442 0.0
H128 H 0.69125 0.73359 0.763 0.0
O129 O 0.75028 0.80249 0.76477 0.0
H130 H 0.59148 0.75771 0.74486 0.0
H131 H 0.69936 0.88846 0.77199 0.0
H132 H 0.76155 0.87929 0.73559 0.0
H133 H 0.66191 0.80178 0.74081 0.0
H134 H 0.70342 0.82907 0.76763 0.0
O135 O 0.71867 0.69491 0.72995 0.0
H136 H 0.80995 0.79673 0.71129 0.0
H137 H 0.7731 0.68148 0.72363 0.0
H138 H 0.75785 0.93909 0.73954 0.0
H139 H 0.62117 0.68899 0.76736 0.0
H140 H 0.72657 0.94393 0.75786 0.0
H141 H 0.57073 0.70083 0.75822 0.0
O142 O 0.79201 0.83862 0.74424 0.0
H143 H 0.76718 0.66861 0.76564 0.0
H144 H 0.84707 0.76518 0.73536 0.0
H145 H 0.87912 0.74288 0.74953 0.0
H146 H 0.83909 0.69433 0.76483 0.0
H147 H 0.73636 0.69176 0.75131 0.0
H148 H 0.80447 0.66929 0.70669 0.0
H149 H 0.83972 0.722 0.69197 0.0
O150 O 0.81139 0.80361 0.73331 0.0
C151 C 0.72499 0.79111 0.72172 0.0
C152 C 0.82735 0.76303 0.70075 0.0
C153 C 0.80596 0.69741 0.70766 0.0
N154 N 0.79013 0.73994 0.71851 0.0
C155 C 0.80903 0.76891 0.71037 0.0
C156 C 0.78819 0.70443 0.71721 0.0
C157 C 0.82573 0.72699 0.6994 0.0
C158 C 0.66951 0.73921 0.75909 0.0
N159 N 0.68066 0.77039 0.75171 0.0
C160 C 0.62986 0.71374 0.76155 0.0
C161 C 0.60157 0.72037 0.75641 0.0
C162 C 0.61319 0.75227 0.7489 0.0
C163 C 0.6531 0.77709 0.74663 0.0
C164 C 0.71295 0.88666 0.76396 0.0
C165 C 0.74761 0.88107 0.74353 0.0
C166 C 0.71538 0.85314 0.76146 0.0
N167 N 0.73231 0.8506 0.75131 0.0
C168 C 0.74573 0.91505 0.74574 0.0
C169 C 0.72822 0.91776 0.75603 0.0
C170 C 0.81766 0.83528 0.73833 0.0
C171 C 0.78491 0.68965 0.75899 0.0
C172 C 0.82945 0.74392 0.74196 0.0
C173 C 0.84775 0.7314 0.74996 0.0
C174 C 0.82527 0.70414 0.75854 0.0
N175 N 0.78986 0.72959 0.74246 0.0
C176 C 0.76759 0.70273 0.75081 0.0
Co177 Co 0.92908 0.73503 0.08111 0.0
Co178 Co 0.01754 0.76429 0.06724 0.0
O179 O 0.97714 0.73337 0.0787 0.0
C180 C 0.97116 0.75784 0.10342 0.0
O181 O 0.00219 0.78124 0.09718 0.0
C182 C 0.98868 0.682 0.0613 0.0
O183 O 0.9536 0.67806 0.06198 0.0
O184 O 0.97779 0.75253 0.0549 0.0
O185 O 0.92002 0.73368 0.06384 0.0
H186 H 0.0811 0.86289 0.03488 0.0
H187 H 0.94077 0.67479 0.09316 0.0
O188 O 0.93808 0.7368 0.09842 0.0
H189 H 0.8213 0.60041 0.06934 0.0
H190 H 0.80286 0.69968 0.10192 0.0
H191 H 0.8927 0.77725 0.07 0.0
H192 H 0.85625 0.67289 0.06967 0.0
H193 H 0.86329 0.69696 0.0982 0.0
O194 O 0.01909 0.71559 0.06293 0.0
H195 H 0.03006 0.82484 0.04958 0.0
H196 H 0.09155 0.76676 0.06013 0.0
H197 H 0.8324 0.78046 0.07331 0.0
H198 H 0.9066 0.60233 0.09315 0.0
H199 H 0.78706 0.7416 0.0894 0.0
H200 H 0.84652 0.56466 0.08113 0.0
O201 O 0.95818 0.79327 0.08068 0.0
H202 H 0.07949 0.73174 0.10061 0.0
H203 H 0.08717 0.83785 0.0757 0.0
H204 H 0.13567 0.85402 0.09148 0.0
H205 H 0.13197 0.80074 0.10406 0.0
H206 H 0.03145 0.71692 0.08479 0.0
H207 H 0.14312 0.80392 0.04548 0.0
H208 H 0.13814 0.85251 0.03276 0.0
O209 O 0.01549 0.81275 0.07133 0.0
C210 C 0.94131 0.74156 0.05469 0.0
C211 C 0.0837 0.84195 0.04041 0.0
C212 C 0.11848 0.80881 0.04635 0.0
N213 N 0.05812 0.79402 0.0558 0.0
C214 C 0.05499 0.82045 0.04878 0.0
C215 C 0.08919 0.78782 0.05462 0.0
C216 C 0.11567 0.83607 0.03922 0.0
C217 C 0.91439 0.65859 0.08802 0.0
N218 N 0.90041 0.67803 0.08147 0.0
C219 C 0.89526 0.61757 0.08801 0.0
C220 C 0.86158 0.59645 0.08125 0.0
C221 C 0.84743 0.61649 0.07462 0.0
C222 C 0.86736 0.65753 0.07483 0.0
C223 C 0.82235 0.71671 0.09487 0.0
C224 C 0.87292 0.75996 0.07695 0.0
C225 C 0.85662 0.71533 0.09274 0.0
N226 N 0.88125 0.73663 0.08383 0.0
C227 C 0.83892 0.76205 0.07882 0.0
C228 C 0.8135 0.74024 0.08785 0.0
C229 C 0.99085 0.8198 0.07649 0.0
C230 C 0.08148 0.75519 0.09516 0.0
C231 C 0.08541 0.81451 0.08114 0.0
C232 C 0.11297 0.82384 0.09005 0.0
C233 C 0.11089 0.79392 0.0971 0.0
N234 N 0.05667 0.77646 0.07929 0.0
C235 C 0.05448 0.74696 0.08615 0.0
Co236 Co 0.21175 0.93732 0.41403 0.0
Co237 Co 0.26588 0.02016 0.39709 0.0
O238 O 0.25968 0.98594 0.41021 0.0
C239 C 0.23023 0.9881 0.43459 0.0
O240 O 0.23633 0.0161 0.42719 0.0
C241 C 0.32316 0.99488 0.39319 0.0
O242 O 0.29386 0.9593 0.39514 0.0
O243 O 0.23973 0.97484 0.38635 0.0
O244 O 0.20323 0.92082 0.39722 0.0
H245 H 0.22268 0.06188 0.36116 0.0
H246 H 0.28575 0.95875 0.42659 0.0
O247 O 0.21938 0.95353 0.43089 0.0
H248 H 0.24664 0.8317 0.40762 0.0
H249 H 0.12803 0.81856 0.43891 0.0
H250 H 0.1323 0.89251 0.40357 0.0
H251 H 0.20548 0.86248 0.40571 0.0
H252 H 0.18884 0.87927 0.43343 0.0
O253 O 0.31762 0.02418 0.39356 0.0
H254 H 0.21428 0.01932 0.37804 0.0
H255 H 0.33341 0.09379 0.38776 0.0
H256 H 0.07098 0.83191 0.40868 0.0
H257 H 0.32772 0.92897 0.42876 0.0
H258 H 0.06859 0.79448 0.42647 0.0
H259 H 0.30827 0.86504 0.4192 0.0
O260 O 0.17952 0.96265 0.4118 0.0
H261 H 0.36073 0.10166 0.42862 0.0
H262 H 0.25625 0.0893 0.40211 0.0
H263 H 0.28667 0.14492 0.41592 0.0
H264 H 0.3393 0.15133 0.4293 0.0
H265 H 0.32929 0.04635 0.41476 0.0
H266 H 0.34322 0.13714 0.37094 0.0
H267 H 0.28755 0.12133 0.35753 0.0
O268 O 0.21383 0.01561 0.4003 0.0
C269 C 0.21566 0.93815 0.38739 0.0
C270 C 0.24711 0.06923 0.36698 0.0
C271 C 0.31478 0.11143 0.37246 0.0
N272 N 0.27317 0.05442 0.38397 0.0
C273 C 0.24249 0.04533 0.37658 0.0
C274 C 0.30907 0.0868 0.38196 0.0
C275 C 0.28353 0.10254 0.36494 0.0
C276 C 0.27688 0.93072 0.42251 0.0
N277 N 0.24308 0.91223 0.4161 0.0
C278 C 0.30085 0.91408 0.42373 0.0
C279 C 0.28995 0.87825 0.41835 0.0
C280 C 0.25538 0.85953 0.41185 0.0
C281 C 0.2322 0.8771 0.41079 0.0
C282 C 0.12875 0.83454 0.43112 0.0
C283 C 0.13158 0.87622 0.41127 0.0
C284 C 0.16307 0.86893 0.42798 0.0
N285 N 0.1642 0.88914 0.41813 0.0
C286 C 0.09673 0.842 0.41415 0.0
C287 C 0.0954 0.82105 0.42413 0.0
C288 C 0.18307 0.99201 0.40602 0.0
C289 C 0.33791 0.09925 0.42281 0.0
C290 C 0.27913 0.09191 0.40791 0.0
C291 C 0.29628 0.12348 0.4157 0.0
C292 C 0.32583 0.12708 0.4232 0.0
N293 N 0.29115 0.06476 0.40759 0.0
C294 C 0.32014 0.06811 0.4149 0.0
Co295 Co 0.2605 0.21119 0.74803 0.0
Co296 Co 0.24523 0.27394 0.73048 0.0
O297 O 0.26824 0.26264 0.74395 0.0
C298 C 0.23229 0.23593 0.7683 0.0
O299 O 0.215 0.24727 0.7607 0.0
C300 C 0.32991 0.3205 0.72704 0.0
O301 O 0.32979 0.28777 0.72937 0.0
O302 O 0.25878 0.24234 0.72004 0.0
O303 O 0.26727 0.20018 0.73131 0.0
H304 H 0.16352 0.24245 0.69404 0.0
H305 H 0.31951 0.28168 0.76085 0.0
O306 O 0.25266 0.22086 0.76479 0.0
H307 H 0.39421 0.22579 0.74249 0.0
H308 H 0.27717 0.11638 0.77363 0.0
H309 H 0.21608 0.13129 0.7378 0.0
H310 H 0.32225 0.19323 0.74023 0.0
H311 H 0.28755 0.1814 0.76781 0.0
O312 O 0.29782 0.32121 0.72716 0.0
H313 H 0.19159 0.22728 0.7112 0.0
H314 H 0.25302 0.34781 0.72079 0.0
H315 H 0.20515 0.06578 0.74324 0.0
H316 H 0.39134 0.31495 0.76345 0.0
H317 H 0.23582 0.05804 0.76127 0.0
H318 H 0.42923 0.2872 0.75415 0.0
O319 O 0.20323 0.18651 0.7455 0.0
H320 H 0.27137 0.37446 0.76157 0.0
H321 H 0.1722 0.27724 0.73474 0.0
H322 H 0.15373 0.31469 0.74807 0.0
H323 H 0.20352 0.36372 0.76161 0.0
H324 H 0.28848 0.33615 0.74816 0.0
H325 H 0.22591 0.3644 0.70367 0.0
H326 H 0.18066 0.31146 0.69019 0.0
O327 O 0.19293 0.22602 0.73346 0.0
C328 C 0.26586 0.21429 0.72137 0.0
C329 C 0.18302 0.26575 0.69988 0.0
C330 C 0.21809 0.3342 0.70528 0.0
N331 N 0.22342 0.28653 0.71707 0.0
C332 C 0.19885 0.25729 0.70964 0.0
C333 C 0.23337 0.32464 0.71495 0.0
C334 C 0.1927 0.30448 0.69772 0.0
C335 C 0.33572 0.26911 0.75692 0.0
N336 N 0.3167 0.23543 0.75046 0.0
C337 C 0.37642 0.28821 0.75836 0.0
C338 C 0.39766 0.27263 0.75313 0.0
C339 C 0.37803 0.23818 0.74659 0.0
C340 C 0.33729 0.21989 0.74533 0.0
C341 C 0.26376 0.1194 0.76573 0.0
C342 C 0.2298 0.12819 0.74561 0.0
C343 C 0.26951 0.15612 0.7624 0.0
N344 N 0.25281 0.16016 0.75241 0.0
C345 C 0.22338 0.09101 0.74866 0.0
C346 C 0.24056 0.08668 0.75879 0.0
C347 C 0.18097 0.19463 0.73947 0.0
C348 C 0.24945 0.35327 0.75569 0.0
C349 C 0.194 0.29849 0.74062 0.0
C350 C 0.1834 0.31966 0.74813 0.0
C351 C 0.21136 0.34718 0.75572 0.0
N352 N 0.23142 0.30466 0.74064 0.0
C353 C 0.25901 0.33162 0.74804 0.0
Co354 Co 0.71502 0.90829 0.5827 0.0
Co355 Co 0.73987 0.99672 0.59595 0.0
O356 O 0.7159 0.9582 0.58349 0.0
C357 C 0.75966 0.95318 0.56216 0.0
O358 O 0.77853 0.98265 0.5694 0.0
C359 C 0.656 0.97101 0.59664 0.0
O360 O 0.65035 0.9354 0.59535 0.0
O361 O 0.71853 0.95515 0.60814 0.0
O362 O 0.69826 0.89678 0.59941 0.0
H363 H 0.81719 0.05325 0.63285 0.0
H364 H 0.672 0.9272 0.56493 0.0
O365 O 0.73272 0.92 0.56597 0.0
H366 H 0.57134 0.80676 0.58448 0.0
H367 H 0.68778 0.78272 0.56294 0.0
H368 H 0.73985 0.8644 0.59834 0.0
H369 H 0.64102 0.83709 0.59018 0.0
H370 H 0.68866 0.84579 0.56457 0.0
O371 O 0.69082 0.00035 0.59702 0.0
H372 H 0.78758 0.00468 0.61694 0.0
H373 H 0.74156 0.07155 0.60155 0.0
H374 H 0.73925 0.80143 0.59712 0.0
H375 H 0.60275 0.89766 0.55889 0.0
H376 H 0.71307 0.76012 0.57932 0.0
H377 H 0.55184 0.83709 0.56873 0.0
O378 O 0.77059 0.93295 0.58779 0.0
H379 H 0.73308 0.06464 0.55954 0.0
H380 H 0.81887 0.06582 0.59117 0.0
H381 H 0.84679 0.11606 0.57564 0.0
H382 H 0.80376 0.11564 0.55968 0.0
H383 H 0.70648 0.01478 0.5752 0.0
H384 H 0.77043 0.12073 0.61733 0.0
H385 H 0.80868 0.11179 0.6331 0.0
O386 O 0.78862 0.9928 0.59516 0.0
C387 C 0.70295 0.91783 0.60843 0.0
C388 C 0.80072 0.05756 0.626 0.0
C389 C 0.77443 0.0954 0.6173 0.0
N390 N 0.7632 0.0355 0.60828 0.0
C391 C 0.784 0.03022 0.61695 0.0
C392 C 0.7581 0.06744 0.6084 0.0
C393 C 0.79589 0.09037 0.62614 0.0
C394 C 0.65008 0.9006 0.56916 0.0
N395 N 0.66056 0.88373 0.57784 0.0
C396 C 0.61089 0.88411 0.56574 0.0
C397 C 0.58234 0.85015 0.57128 0.0
C398 C 0.59326 0.83313 0.58012 0.0
C399 C 0.63274 0.85045 0.58332 0.0
C400 C 0.69918 0.80042 0.57075 0.0
C401 C 0.72817 0.84646 0.5906 0.0
C402 C 0.69982 0.83618 0.57172 0.0
N403 N 0.71399 0.85856 0.58158 0.0
C404 C 0.72802 0.81089 0.58994 0.0
C405 C 0.71337 0.78775 0.57995 0.0
C406 C 0.79582 0.96556 0.59234 0.0
C407 C 0.7521 0.0652 0.56647 0.0
C408 C 0.79999 0.06547 0.58425 0.0
C409 C 0.81593 0.09401 0.57549 0.0
C410 C 0.79177 0.09377 0.56654 0.0
N411 N 0.76106 0.03752 0.58411 0.0
C412 C 0.73716 0.03715 0.57538 0.0
Co413 Co 0.80136 0.7004 0.91282 0.0
Co414 Co 0.73999 0.72975 0.92529 0.0
O415 O 0.75104 0.6985 0.91437 0.0
C416 C 0.7857 0.72428 0.89025 0.0
O417 O 0.77557 0.74583 0.89646 0.0
C418 C 0.68379 0.64757 0.93102 0.0
O419 O 0.71389 0.64181 0.9308 0.0
O420 O 0.76526 0.71706 0.93824 0.0
O421 O 0.80627 0.69893 0.93023 0.0
H422 H 0.77194 0.82944 0.95709 0.0
H423 H 0.73203 0.64075 0.89969 0.0
O424 O 0.79747 0.70314 0.89534 0.0
H425 H 0.77174 0.5653 0.92513 0.0
H426 H 0.89469 0.66421 0.89406 0.0
H427 H 0.87836 0.74264 0.92487 0.0
H428 H 0.80926 0.63782 0.9251 0.0
H429 H 0.83132 0.66205 0.89664 0.0
O430 O 0.68878 0.68177 0.92916 0.0
H431 H 0.78614 0.79045 0.94307 0.0
H432 H 0.66808 0.73347 0.93112 0.0
H433 H 0.94213 0.74548 0.92268 0.0
H434 H 0.69376 0.56829 0.89941 0.0
H435 H 0.95058 0.70604 0.90717 0.0
H436 H 0.71352 0.53008 0.91222 0.0
O437 O 0.83076 0.75861 0.91339 0.0
H438 H 0.65036 0.69768 0.89068 0.0
H439 H 0.74594 0.80368 0.91616 0.0
H440 H 0.71615 0.82005 0.8997 0.0
H441 H 0.66797 0.76682 0.88683 0.0
H442 H 0.68122 0.6827 0.90714 0.0
H443 H 0.65248 0.77153 0.94511 0.0
H444 H 0.70468 0.82004 0.95818 0.0
O445 O 0.79123 0.77794 0.9216 0.0
C446 C 0.79068 0.70606 0.93901 0.0
C447 C 0.74898 0.80846 0.95142 0.0
C448 C 0.68192 0.77594 0.9447 0.0
N449 N 0.72806 0.76002 0.93621 0.0
C450 C 0.75687 0.78642 0.94343 0.0
C451 C 0.69089 0.75443 0.93682 0.0
C452 C 0.71122 0.80316 0.95203 0.0
C453 C 0.74104 0.62431 0.9052 0.0
N454 N 0.77297 0.64345 0.91234 0.0
C455 C 0.71916 0.58329 0.90504 0.0
C456 C 0.73022 0.56188 0.91224 0.0
C457 C 0.76288 0.58162 0.91949 0.0
C458 C 0.78399 0.62267 0.91944 0.0
C459 C 0.89133 0.68141 0.90088 0.0
C460 C 0.88172 0.72512 0.91819 0.0
C461 C 0.85554 0.68033 0.90237 0.0
N462 N 0.85105 0.70181 0.91099 0.0
C463 C 0.91794 0.72697 0.91695 0.0
C464 C 0.92268 0.70488 0.90824 0.0
C465 C 0.82392 0.78516 0.91712 0.0
C466 C 0.67124 0.72112 0.89624 0.0
C467 C 0.72506 0.78038 0.91059 0.0
C468 C 0.70823 0.78981 0.90129 0.0
C469 C 0.68117 0.75993 0.89408 0.0
N470 N 0.7152 0.74226 0.91264 0.0
C471 C 0.68866 0.71279 0.90562 0.0
Co472 Co 0.05529 0.78895 0.25036 0.0
Co473 Co 0.96612 0.73089 0.26399 0.0
O474 O 0.00721 0.73944 0.25293 0.0
C475 C 0.01335 0.76802 0.22805 0.0
O476 O 0.98216 0.75962 0.2343 0.0
C477 C 0.99663 0.68003 0.27143 0.0
O478 O 0.03115 0.71193 0.27078 0.0
O479 O 0.00504 0.76146 0.27631 0.0
O480 O 0.06386 0.79786 0.26761 0.0
H481 H 0.89911 0.76875 0.2945 0.0
H482 H 0.04373 0.71631 0.23883 0.0
O483 O 0.04658 0.78083 0.23303 0.0
H484 H 0.16221 0.76232 0.26319 0.0
H485 H 0.18211 0.87823 0.22959 0.0
H486 H 0.09144 0.86851 0.2609 0.0
H487 H 0.12761 0.80011 0.26223 0.0
H488 H 0.12154 0.81536 0.23353 0.0
O489 O 0.96564 0.68172 0.26925 0.0
H490 H 0.95113 0.78073 0.28029 0.0
H491 H 0.89293 0.6594 0.27163 0.0
H492 H 0.15173 0.93189 0.25729 0.0
H493 H 0.07754 0.67773 0.23946 0.0
H494 H 0.19755 0.93701 0.24154 0.0
H495 H 0.13712 0.70061 0.25176 0.0
O496 O 0.02639 0.81813 0.25041 0.0
H497 H 0.90677 0.63089 0.23182 0.0
H498 H 0.89613 0.73189 0.25451 0.0
H499 H 0.84834 0.69631 0.2388 0.0
H500 H 0.85352 0.64541 0.22733 0.0
H501 H 0.95408 0.66734 0.24753 0.0
H502 H 0.84039 0.64602 0.28582 0.0
H503 H 0.84323 0.70097 0.29734 0.0
O504 O 0.96745 0.78046 0.25891 0.0
C505 C 0.04168 0.78649 0.27663 0.0
C506 C 0.89746 0.74459 0.2895 0.0
C507 C 0.86453 0.67569 0.28464 0.0
N508 N 0.92481 0.72086 0.27506 0.0
C509 C 0.92675 0.75121 0.28141 0.0
C510 C 0.89437 0.68343 0.27664 0.0
C511 C 0.86614 0.70654 0.2911 0.0
C512 C 0.06991 0.72669 0.24409 0.0
N513 N 0.08382 0.76052 0.25044 0.0
C514 C 0.08883 0.70463 0.24446 0.0
C515 C 0.12222 0.71746 0.25137 0.0
C516 C 0.1363 0.75207 0.25779 0.0
C517 C 0.11659 0.77333 0.25722 0.0
C518 C 0.16243 0.87633 0.2365 0.0
C519 C 0.11139 0.87044 0.25409 0.0
C520 C 0.1281 0.84084 0.23876 0.0
N521 N 0.10324 0.83821 0.24751 0.0
C522 C 0.14541 0.90643 0.25206 0.0
C523 C 0.17108 0.9093 0.24321 0.0
C524 C 0.99315 0.81225 0.25397 0.0
C525 C 0.90413 0.65291 0.23678 0.0
C526 C 0.89854 0.70976 0.24955 0.0
C527 C 0.87138 0.68968 0.24068 0.0
C528 C 0.87429 0.66111 0.23426 0.0
N529 N 0.9277 0.70152 0.25198 0.0
C530 C 0.93072 0.67352 0.24573 0.0
Co531 Co 0.26999 0.08483 0.58144 0.0
Co532 Co 0.23598 0.99174 0.59269 0.0
O533 O 0.26952 0.03521 0.58246 0.0
C534 C 0.24721 0.04865 0.55833 0.0
O535 O 0.22263 0.01685 0.56407 0.0
C536 C 0.31667 0.01623 0.59952 0.0
O537 O 0.32184 0.05187 0.59979 0.0
O538 O 0.24645 0.02777 0.60608 0.0
O539 O 0.26999 0.0889 0.59891 0.0
H540 H 0.13001 0.92043 0.62261 0.0
H541 H 0.32926 0.07389 0.5685 0.0
O542 O 0.26917 0.08038 0.5639 0.0
H543 H 0.40513 0.18473 0.59535 0.0
H544 H 0.31274 0.21784 0.56404 0.0
H545 H 0.23003 0.12122 0.59393 0.0
H546 H 0.33286 0.15245 0.59461 0.0
H547 H 0.31159 0.1547 0.56595 0.0
O548 O 0.28298 0.98712 0.59705 0.0
H549 H 0.17213 0.97542 0.6095 0.0
H550 H 0.23009 0.91474 0.598 0.0
H551 H 0.23049 0.18408 0.59239 0.0
H552 H 0.40148 0.10544 0.56891 0.0
H553 H 0.27208 0.2329 0.57735 0.0
H554 H 0.43989 0.16117 0.58245 0.0
O555 O 0.21172 0.05791 0.58158 0.0
H556 H 0.27248 0.93961 0.55765 0.0
H557 H 0.16333 0.92586 0.58228 0.0
H558 H 0.14905 0.88272 0.56512 0.0
H559 H 0.20387 0.88955 0.55266 0.0
H560 H 0.28543 0.98219 0.57486 0.0
H561 H 0.18882 0.85918 0.61109 0.0
H562 H 0.13825 0.86176 0.62347 0.0
O563 O 0.18932 0.99667 0.58849 0.0
C564 C 0.25925 0.06446 0.6074 0.0
C565 C 0.15186 0.91888 0.61723 0.0
C566 C 0.18491 0.88454 0.61077 0.0
N567 N 0.20327 0.94809 0.60292 0.0
C568 C 0.1757 0.94987 0.60976 0.0
C569 C 0.20823 0.9161 0.6034 0.0
C570 C 0.15652 0.886 0.61771 0.0
C571 C 0.3458 0.09842 0.57431 0.0
N572 N 0.3269 0.11149 0.58146 0.0
C573 C 0.38668 0.11605 0.57455 0.0
C574 C 0.40821 0.14729 0.58216 0.0
C575 C 0.38872 0.16051 0.58941 0.0
C576 C 0.3478 0.14211 0.58895 0.0
C577 C 0.29456 0.19684 0.57064 0.0
C578 C 0.24839 0.14244 0.58742 0.0
C579 C 0.29374 0.16103 0.57175 0.0
N580 N 0.27101 0.13449 0.5801 0.0
C581 C 0.24844 0.17792 0.58656 0.0
C582 C 0.27175 0.20528 0.57811 0.0
C583 C 0.18391 0.02403 0.58456 0.0
C584 C 0.24836 0.93625 0.56304 0.0
C585 C 0.18734 0.92889 0.57692 0.0
C586 C 0.17908 0.90439 0.56722 0.0
C587 C 0.20985 0.90821 0.56024 0.0
N588 N 0.22519 0.95634 0.57961 0.0
C589 C 0.25552 0.96016 0.57283 0.0
Co590 Co 0.16914 0.26612 0.91483 0.0
Co591 Co 0.23278 0.23642 0.92515 0.0
O592 O 0.2184 0.26574 0.91451 0.0
C593 C 0.17258 0.23457 0.89194 0.0
O594 O 0.18136 0.21137 0.89784 0.0
C595 C 0.2919 0.31924 0.9285 0.0
O596 O 0.2622 0.32559 0.92888 0.0
O597 O 0.2135 0.2529 0.93886 0.0
O598 O 0.17243 0.27291 0.93222 0.0
H599 H 0.21221 0.14418 0.95832 0.0
H600 H 0.23297 0.31987 0.89881 0.0
O601 O 0.1655 0.25872 0.89738 0.0
H602 H 0.20915 0.40603 0.92475 0.0
H603 H 0.07196 0.30243 0.89915 0.0
H604 H 0.09858 0.23134 0.93006 0.0
H605 H 0.16985 0.33391 0.92674 0.0
H606 H 0.1344 0.30181 0.89941 0.0
O607 O 0.28581 0.28442 0.9271 0.0
H608 H 0.19331 0.18042 0.94463 0.0
H609 H 0.30553 0.23195 0.92851 0.0
H610 H 0.03589 0.23143 0.93019 0.0
H611 H 0.2727 0.39179 0.89645 0.0
H612 H 0.02226 0.26717 0.91465 0.0
H613 H 0.261 0.43539 0.90952 0.0
O614 O 0.1383 0.20826 0.91702 0.0
H615 H 0.30521 0.25766 0.88723 0.0
H616 H 0.22196 0.15979 0.91677 0.0
H617 H 0.24306 0.13822 0.89933 0.0
H618 H 0.28494 0.18735 0.88441 0.0
H619 H 0.28326 0.27788 0.90476 0.0
H620 H 0.32578 0.19652 0.94208 0.0
H621 H 0.27888 0.15215 0.95709 0.0
O622 O 0.17979 0.18845 0.92342 0.0
C623 C 0.19021 0.26625 0.94048 0.0
C624 C 0.23285 0.16331 0.95179 0.0
C625 C 0.29662 0.19273 0.94268 0.0
N626 N 0.24817 0.20794 0.93572 0.0
C627 C 0.22227 0.18379 0.94399 0.0
C628 C 0.28502 0.21276 0.93504 0.0
C629 C 0.27028 0.16783 0.9511 0.0
C630 C 0.22739 0.33863 0.90444 0.0
N631 N 0.19894 0.32272 0.91285 0.0
C632 C 0.25011 0.37934 0.9031 0.0
C633 C 0.24356 0.40379 0.91044 0.0
C634 C 0.21448 0.38733 0.919 0.0
C635 C 0.19236 0.34649 0.92009 0.0
C636 C 0.07759 0.28682 0.90598 0.0
C637 C 0.09296 0.24718 0.92331 0.0
C638 C 0.11284 0.28631 0.90616 0.0
N639 N 0.12021 0.26683 0.91479 0.0
C640 C 0.05737 0.24702 0.92341 0.0
C641 C 0.04972 0.26704 0.91468 0.0
C642 C 0.14564 0.1817 0.92046 0.0
C643 C 0.28706 0.236 0.89369 0.0
C644 C 0.2402 0.18131 0.91031 0.0
C645 C 0.2521 0.16895 0.90047 0.0
C646 C 0.27562 0.19653 0.8921 0.0
N647 N 0.25148 0.22005 0.9118 0.0
C648 C 0.27467 0.24729 0.90366 0.0
Co649 Co 0.9286 0.19189 0.25084 0.0
Co650 Co 0.01732 0.25753 0.26351 0.0
O651 O 0.97731 0.24194 0.25149 0.0
C652 C 0.97288 0.19575 0.22975 0.0
O653 O 0.00257 0.20565 0.23684 0.0
C654 C 0.98764 0.31239 0.26523 0.0
O655 O 0.95284 0.28112 0.26409 0.0
O656 O 0.97708 0.23521 0.27607 0.0
O657 O 0.9182 0.19566 0.26778 0.0
H658 H 0.08022 0.23938 0.2994 0.0
H659 H 0.94344 0.25444 0.23363 0.0
O660 O 0.93952 0.18778 0.23387 0.0
H661 H 0.82277 0.22761 0.2545 0.0
H662 H 0.80415 0.09008 0.23141 0.0
H663 H 0.88852 0.12191 0.26625 0.0
H664 H 0.8562 0.19035 0.25923 0.0
H665 H 0.86501 0.1543 0.2331 0.0
O666 O 0.01829 0.30902 0.26512 0.0
H667 H 0.02971 0.21877 0.28403 0.0
H668 H 0.09086 0.33235 0.26869 0.0
H669 H 0.82794 0.05741 0.26494 0.0
H670 H 0.91083 0.29219 0.22857 0.0
H671 H 0.78525 0.04117 0.24743 0.0
H672 H 0.85013 0.27896 0.23907 0.0
O673 O 0.95562 0.16282 0.25537 0.0
H674 H 0.07862 0.33515 0.22697 0.0
H675 H 0.08757 0.25098 0.25739 0.0
H676 H 0.13569 0.27557 0.24125 0.0
H677 H 0.13127 0.31788 0.22586 0.0
H678 H 0.03098 0.30966 0.24319 0.0
H679 H 0.14194 0.3543 0.28394 0.0
H680 H 0.13684 0.30759 0.29941 0.0
O681 O 0.01586 0.20586 0.2623 0.0
C682 C 0.94 0.2122 0.27668 0.0
C683 C 0.08286 0.25995 0.29268 0.0
C684 C 0.11747 0.32447 0.28401 0.0
N685 N 0.0576 0.27422 0.27541 0.0
C686 C 0.05442 0.24841 0.28393 0.0
C687 C 0.08846 0.3119 0.27541 0.0
C688 C 0.1146 0.29824 0.29269 0.0
C689 C 0.91678 0.24819 0.23814 0.0
N690 N 0.90156 0.22002 0.24665 0.0
C691 C 0.89855 0.26979 0.23528 0.0
C692 C 0.86453 0.26239 0.24119 0.0
C693 C 0.84917 0.23359 0.24985 0.0
C694 C 0.86822 0.21261 0.25249 0.0
C695 C 0.82244 0.09687 0.2391 0.0
C696 C 0.86998 0.11516 0.25864 0.0
C697 C 0.85694 0.13315 0.2401 0.0
N698 N 0.88011 0.14194 0.2498 0.0
C699 C 0.83575 0.07856 0.25793 0.0
C700 C 0.81183 0.06945 0.2481 0.0
C701 C 0.98879 0.17115 0.25967 0.0
C702 C 0.08091 0.3168 0.23362 0.0
C703 C 0.08558 0.26949 0.25075 0.0
C704 C 0.11289 0.28333 0.24163 0.0
C705 C 0.11042 0.30707 0.23301 0.0
N706 N 0.05668 0.2791 0.25127 0.0
C707 C 0.05414 0.30246 0.24287 0.0
H708 H 0.04098 0.21407 0.21846 0.0
H709 H 0.054 0.22292 0.19753 0.0
H710 H 0.93377 0.19187 0.19116 0.0
H711 H 0.9202 0.18245 0.21218 0.0
H712 H 0.96146 0.15826 0.17521 0.0
H713 H 0.00412 0.28658 0.19183 0.0
H714 H 0.04154 0.34015 0.20588 0.0
H715 H 0.14952 0.35166 0.19314 0.0
H716 H 0.11268 0.29772 0.17913 0.0
H717 H 0.97758 0.23004 0.11832 0.0
H718 H 0.96681 0.21971 0.1393 0.0
H719 H 0.09069 0.26425 0.14454 0.0
H720 H 0.1019 0.27597 0.12346 0.0
H721 H 0.06323 0.29006 0.16124 0.0
H722 H 0.02351 0.16432 0.14457 0.0
H723 H 0.98818 0.10889 0.13094 0.0
H724 H 0.87779 0.09027 0.14401 0.0
H725 H 0.91247 0.14598 0.15761 0.0
C726 C 0.01711 0.20872 0.21263 0.0
C727 C 0.97956 0.19776 0.217 0.0
C728 C 0.0247 0.21395 0.20066 0.0
C729 C 0.99501 0.20863 0.19283 0.0
C730 C 0.9571 0.19625 0.19709 0.0
C731 C 0.94943 0.19095 0.20909 0.0
C732 C 0.00393 0.21731 0.18024 0.0
C733 C 0.98333 0.18717 0.17212 0.0
C734 C 0.0334 0.25474 0.17629 0.0
C735 C 0.05562 0.28792 0.18449 0.0
C736 C 0.03583 0.30042 0.19206 0.0
C737 C 0.05694 0.33085 0.20001 0.0
C738 C 0.09787 0.34926 0.20041 0.0
C739 C 0.1178 0.33737 0.19282 0.0
C740 C 0.09683 0.3069 0.18486 0.0
C741 C 0.0026 0.23778 0.12393 0.0
C742 C 0.04055 0.25342 0.11925 0.0
C743 C 0.99636 0.2317 0.13593 0.0
C744 C 0.02778 0.24028 0.14348 0.0
C745 C 0.06597 0.25716 0.13887 0.0
C746 C 0.07234 0.26381 0.12684 0.0
C747 C 0.02045 0.23107 0.15613 0.0
C748 C 0.04138 0.26109 0.16429 0.0
C749 C 0.99159 0.19335 0.16013 0.0
C750 C 0.97061 0.15955 0.15204 0.0
C751 C 0.9917 0.14857 0.14448 0.0
C752 C 0.97179 0.11708 0.13677 0.0
C753 C 0.93077 0.09613 0.13659 0.0
C754 C 0.90957 0.10655 0.14415 0.0
C755 C 0.92934 0.13806 0.15187 0.0
H756 H 0.91541 0.07176 0.13061 0.0
H757 H 0.11416 0.37276 0.20659 0.0
H758 H 0.83399 0.0841 0.45679 0.0
H759 H 0.82897 0.07008 0.47781 0.0
H760 H 0.75817 0.94602 0.47068 0.0
H761 H 0.76311 0.95964 0.44972 0.0
H762 H 0.72755 0.97235 0.48829 0.0
H763 H 0.85017 0.98082 0.47771 0.0
H764 H 0.91657 0.01253 0.46913 0.0
H765 H 0.95449 0.10915 0.493 0.0
H766 H 0.88811 0.07827 0.50162 0.0
H767 H 0.72748 0.89925 0.54449 0.0
H768 H 0.73777 0.91164 0.52348 0.0
H769 H 0.81976 0.03407 0.53024 0.0
H770 H 0.81046 0.02182 0.55122 0.0
H771 H 0.84517 0.00855 0.51269 0.0
H772 H 0.72438 0.0029 0.52307 0.0
H773 H 0.65839 0.97335 0.53187 0.0
H774 H 0.6171 0.87498 0.50852 0.0
H775 H 0.68306 0.90366 0.4997 0.0
C776 C 0.81737 0.05386 0.45971 0.0
C777 C 0.79911 0.02296 0.45162 0.0
C778 C 0.81464 0.04591 0.4717 0.0
C779 C 0.79342 0.00701 0.47575 0.0
C780 C 0.77473 0.97621 0.4677 0.0
C781 C 0.77775 0.98407 0.45574 0.0
C782 C 0.79046 0.99828 0.4884 0.0
C783 C 0.75318 0.97978 0.49361 0.0
C784 C 0.82406 0.00894 0.49535 0.0
C785 C 0.86405 0.02742 0.49023 0.0
C786 C 0.87257 0.00899 0.48107 0.0
C787 C 0.91022 0.02678 0.4762 0.0
C788 C 0.9397 0.06288 0.48049 0.0
C789 C 0.93161 0.08121 0.48968 0.0
C790 C 0.89399 0.06356 0.49456 0.0
C791 C 0.74796 0.92873 0.5415 0.0
C792 C 0.76781 0.95962 0.54951 0.0
C793 C 0.75372 0.93579 0.5295 0.0
C794 C 0.77897 0.97394 0.5253 0.0
C795 C 0.80002 0.00446 0.53329 0.0
C796 C 0.79452 0.99739 0.54528 0.0
C797 C 0.78219 0.98245 0.5126 0.0
C798 C 0.8195 0.00101 0.50738 0.0
C799 C 0.74863 0.97225 0.50565 0.0
C800 C 0.70876 0.95524 0.5108 0.0
C801 C 0.70129 0.97485 0.51986 0.0
C802 C 0.66389 0.95827 0.52485 0.0
C803 C 0.63359 0.92226 0.52077 0.0
C804 C 0.64061 0.90284 0.51167 0.0
C805 C 0.67799 0.91925 0.50667 0.0
H806 H 0.60466 0.90946 0.52465 0.0
H807 H 0.96884 0.07661 0.47672 0.0
H808 H 0.82838 0.77595 0.77785 0.0
H809 H 0.83452 0.76382 0.79847 0.0
H810 H 0.74479 0.79204 0.80728 0.0
H811 H 0.73864 0.80463 0.78667 0.0
H812 H 0.80825 0.82547 0.82239 0.0
H813 H 0.72244 0.6981 0.80481 0.0
H814 H 0.70712 0.64651 0.7901 0.0
H815 H 0.8049 0.63559 0.80188 0.0
H816 H 0.8212 0.68762 0.81654 0.0
H817 H 0.74298 0.74726 0.87739 0.0
H818 H 0.74567 0.7577 0.85636 0.0
H819 H 0.82929 0.71761 0.85297 0.0
H820 H 0.82589 0.70598 0.87417 0.0
H821 H 0.77747 0.69203 0.83493 0.0
H822 H 0.86145 0.81469 0.85327 0.0
H823 H 0.8802 0.868 0.86761 0.0
H824 H 0.79102 0.88998 0.85417 0.0
H825 H 0.7713 0.83637 0.83987 0.0
C826 C 0.81015 0.77991 0.78418 0.0
C827 C 0.7829 0.79113 0.78063 0.0
C828 C 0.81363 0.77281 0.79594 0.0
C829 C 0.78981 0.77664 0.80435 0.0
C830 C 0.76338 0.78889 0.80089 0.0
C831 C 0.75983 0.79596 0.78912 0.0
C832 C 0.79159 0.76693 0.81674 0.0
C833 C 0.80121 0.79624 0.82516 0.0
C834 C 0.78382 0.72914 0.82025 0.0
C835 C 0.77325 0.69699 0.8117 0.0
C836 C 0.74079 0.68483 0.80423 0.0
C837 C 0.73193 0.65552 0.7959 0.0
C838 C 0.75509 0.63786 0.79504 0.0
C839 C 0.78703 0.64934 0.80255 0.0
C840 C 0.79607 0.67871 0.81087 0.0
C841 C 0.76173 0.74034 0.87217 0.0
C842 C 0.78468 0.72634 0.87741 0.0
C843 C 0.76331 0.74642 0.86016 0.0
C844 C 0.78845 0.73941 0.85316 0.0
C845 C 0.80995 0.72351 0.85825 0.0
C846 C 0.80801 0.7169 0.87033 0.0
C847 C 0.79308 0.75033 0.84063 0.0
C848 C 0.78486 0.72136 0.83218 0.0
C849 C 0.80262 0.78863 0.83705 0.0
C850 C 0.81473 0.8213 0.84554 0.0
C851 C 0.84568 0.83073 0.85342 0.0
C852 C 0.85649 0.86101 0.86154 0.0
C853 C 0.83677 0.88232 0.86182 0.0
C854 C 0.80626 0.87344 0.85395 0.0
C855 C 0.79528 0.84313 0.84582 0.0
H856 H 0.84518 0.90574 0.86811 0.0
H857 H 0.74824 0.61524 0.78857 0.0
H858 H 0.91266 0.71803 0.11945 0.0
H859 H 0.91965 0.71598 0.14066 0.0
H860 H 0.04515 0.79054 0.13743 0.0
H861 H 0.03857 0.7925 0.11626 0.0
H862 H 0.02519 0.72945 0.15269 0.0
H863 H 0.99045 0.8293 0.1457 0.0
H864 H 0.94965 0.85527 0.13774 0.0
H865 H 0.85084 0.77018 0.15761 0.0
H866 H 0.89093 0.74333 0.16556 0.0
H867 H 0.07201 0.7953 0.21166 0.0
H868 H 0.06444 0.7897 0.19038 0.0
H869 H 0.93845 0.72315 0.19435 0.0
H870 H 0.94571 0.72935 0.21553 0.0
H871 H 0.95779 0.77837 0.17862 0.0
H872 H 0.99212 0.67938 0.18616 0.0
H873 H 0.03211 0.65246 0.19409 0.0
H874 H 0.13031 0.73395 0.17331 0.0
H875 H 0.09106 0.76176 0.16538 0.0
C876 C 0.94175 0.7339 0.12325 0.0
C877 C 0.97502 0.75572 0.1162 0.0
C878 C 0.94568 0.73274 0.13536 0.0
C879 C 0.98289 0.75342 0.1406 0.0
C880 C 0.01619 0.77442 0.13355 0.0
C881 C 0.01231 0.77569 0.12146 0.0
C882 C 0.98712 0.75411 0.15346 0.0
C883 C 0.0108 0.74049 0.15838 0.0
C884 C 0.96763 0.76774 0.16084 0.0
C885 C 0.94358 0.78406 0.15613 0.0
C886 C 0.95994 0.81594 0.14831 0.0
C887 C 0.93696 0.83085 0.14381 0.0
C888 C 0.89765 0.81432 0.14714 0.0
C889 C 0.88127 0.78291 0.15502 0.0
C890 C 0.90412 0.76786 0.15953 0.0
C891 C 0.04274 0.77925 0.20798 0.0
C892 C 0.00947 0.76297 0.21525 0.0
C893 C 0.03845 0.77593 0.19584 0.0
C894 C 0.00086 0.75578 0.19079 0.0
C895 C 0.9677 0.73894 0.19806 0.0
C896 C 0.97194 0.74251 0.21017 0.0
C897 C 0.99584 0.7536 0.17792 0.0
C898 C 0.97206 0.76709 0.17297 0.0
C899 C 0.01511 0.73967 0.17053 0.0
C900 C 0.03875 0.7229 0.17526 0.0
C901 C 0.02233 0.69177 0.18335 0.0
C902 C 0.04485 0.67631 0.18783 0.0
C903 C 0.08376 0.69155 0.18423 0.0
C904 C 0.10019 0.72221 0.17611 0.0
C905 C 0.07781 0.73781 0.1716 0.0
H906 H 0.10114 0.67954 0.18771 0.0
H907 H 0.8799 0.8259 0.14365 0.0
H908 H 0.20945 0.9836 0.54468 0.0
H909 H 0.2136 0.97898 0.52359 0.0
H910 H 0.29525 0.1036 0.52166 0.0
H911 H 0.29103 0.10871 0.54296 0.0
H912 H 0.23597 0.07687 0.50481 0.0
H913 H 0.32951 0.04232 0.51884 0.0
H914 H 0.35204 0.00659 0.53145 0.0
H915 H 0.26366 0.89682 0.51698 0.0
H916 H 0.24019 0.93184 0.5044 0.0
H917 H 0.27123 0.06018 0.44483 0.0
H918 H 0.28104 0.07513 0.4657 0.0
H919 H 0.21251 0.95134 0.47368 0.0
H920 H 0.20384 0.93612 0.45279 0.0
H921 H 0.27317 0.98423 0.48751 0.0
H922 H 0.17454 0.01551 0.47543 0.0
H923 H 0.14722 0.04849 0.46351 0.0
H924 H 0.24034 0.16115 0.47474 0.0
H925 H 0.2685 0.12881 0.48661 0.0
C926 C 0.2283 0.01016 0.53982 0.0
C927 C 0.24995 0.04658 0.5455 0.0
C928 C 0.23077 0.00737 0.52775 0.0
C929 C 0.25511 0.04084 0.5211 0.0
C930 C 0.27644 0.07742 0.52668 0.0
C931 C 0.27406 0.08026 0.53882 0.0
C932 C 0.25753 0.03718 0.5083 0.0
C933 C 0.24488 0.05728 0.50098 0.0
C934 C 0.26824 0.01083 0.50338 0.0
C935 C 0.28296 0.98973 0.51072 0.0
C936 C 0.31476 0.01055 0.51838 0.0
C937 C 0.3277 0.99042 0.52553 0.0
C938 C 0.30925 0.94946 0.52503 0.0
C939 C 0.27792 0.92855 0.51735 0.0
C940 C 0.26483 0.94853 0.5102 0.0
C941 C 0.25825 0.03614 0.45104 0.0
C942 C 0.23647 0.99698 0.4472 0.0
C943 C 0.26379 0.04474 0.46296 0.0
C944 C 0.24694 0.01442 0.47127 0.0
C945 C 0.22576 0.97524 0.46743 0.0
C946 C 0.22071 0.96657 0.4555 0.0
C947 C 0.25087 0.02338 0.48397 0.0
C948 C 0.26475 0.00427 0.49128 0.0
C949 C 0.24084 0.0503 0.48889 0.0
C950 C 0.22385 0.06976 0.4818 0.0
C951 C 0.18934 0.04732 0.47529 0.0
C952 C 0.17369 0.0659 0.46855 0.0
C953 C 0.1921 0.10689 0.46834 0.0
C954 C 0.22615 0.1294 0.47489 0.0
C955 C 0.24195 0.11097 0.48163 0.0
H956 H 0.17994 0.12122 0.46312 0.0
H957 H 0.31926 0.93392 0.53058 0.0
H958 H 0.24949 0.2014 0.78633 0.0
H959 H 0.23593 0.20321 0.80712 0.0
H960 H 0.18854 0.27894 0.79967 0.0
H961 H 0.20184 0.27723 0.77883 0.0
H962 H 0.23875 0.30226 0.81944 0.0
H963 H 0.12641 0.18765 0.80416 0.0
H964 H 0.09213 0.12536 0.79321 0.0
H965 H 0.13945 0.07353 0.8164 0.0
H966 H 0.17457 0.13576 0.82739 0.0
H967 H 0.15599 0.27787 0.87652 0.0
H968 H 0.16199 0.27932 0.85517 0.0
H969 H 0.1993 0.19318 0.85698 0.0
H970 H 0.19272 0.19098 0.87815 0.0
H971 H 0.14905 0.17666 0.83949 0.0
H972 H 0.26514 0.29148 0.85381 0.0
H973 H 0.30104 0.35366 0.86475 0.0
H974 H 0.24845 0.40494 0.84346 0.0
H975 H 0.21174 0.34281 0.8325 0.0
C976 C 0.23644 0.21868 0.78911 0.0
C977 C 0.22648 0.23895 0.78094 0.0
C978 C 0.22861 0.21957 0.80098 0.0
C979 C 0.21089 0.24089 0.80488 0.0
C980 C 0.20213 0.26225 0.79681 0.0
C981 C 0.20961 0.26108 0.78491 0.0
C982 C 0.20059 0.23989 0.81737 0.0
C983 C 0.21866 0.27495 0.82381 0.0
C984 C 0.1748 0.20411 0.82305 0.0
C985 C 0.1534 0.16649 0.81654 0.0
C986 C 0.12976 0.16307 0.80687 0.0
C987 C 0.11014 0.12776 0.80067 0.0
C988 C 0.11368 0.09553 0.80409 0.0
C989 C 0.13677 0.09853 0.81375 0.0
C990 C 0.15651 0.13381 0.81998 0.0
C991 C 0.16518 0.25904 0.87234 0.0
C992 C 0.17396 0.23439 0.87903 0.0
C993 C 0.16874 0.26001 0.86016 0.0
C994 C 0.1815 0.23665 0.85449 0.0
C995 C 0.18935 0.2114 0.86115 0.0
C996 C 0.18565 0.21028 0.87328 0.0
C997 C 0.18778 0.23895 0.84167 0.0
C998 C 0.16888 0.20409 0.83513 0.0
C999 C 0.21299 0.27489 0.83593 0.0
C1000 C 0.23536 0.31238 0.84242 0.0
C1001 C 0.26102 0.31593 0.85151 0.0
C1002 C 0.28154 0.35117 0.85772 0.0
C1003 C 0.27694 0.38319 0.85483 0.0
C1004 C 0.25191 0.38008 0.8457 0.0
C1005 C 0.23125 0.34487 0.83949 0.0
H1006 H 0.29284 0.41045 0.85964 0.0
H1007 H 0.09846 0.06821 0.79928 0.0
H1008 H 0.0538 0.29766 0.03772 0.0
H1009 H 0.07952 0.30075 0.01819 0.0
H1010 H 0.17655 0.2927 0.03263 0.0
H1011 H 0.15111 0.29005 0.05244 0.0
H1012 H 0.19772 0.34412 0.01318 0.0
H1013 H 0.10267 0.21239 0.02319 0.0
H1014 H 0.03954 0.15947 0.03079 0.0
H1015 H 0.97794 0.18238 0.00374 0.0
H1016 H 0.0407 0.23598 0.9961 0.0
H1017 H 0.2325 0.26994 0.95989 0.0
H1018 H 0.21968 0.27961 0.98014 0.0
H1019 H 0.12058 0.29023 0.96905 0.0
H1020 H 0.13316 0.28069 0.94871 0.0
H1021 H 0.10375 0.23664 0.9873 0.0
H1022 H 0.20125 0.36972 0.97753 0.0
H1023 H 0.26549 0.42111 0.97008 0.0
H1024 H 0.32407 0.39289 0.99681 0.0
H1025 H 0.26015 0.34091 0.00431 0.0
C1026 C 0.08086 0.29694 0.03681 0.0
C1027 C 0.10006 0.29287 0.04663 0.0
C1028 C 0.09554 0.2988 0.02562 0.0
C1029 C 0.12946 0.29618 0.02397 0.0
C1030 C 0.15019 0.29458 0.03375 0.0
C1031 C 0.13559 0.29297 0.04504 0.0
C1032 C 0.1409 0.29187 0.01198 0.0
C1033 C 0.17749 0.32035 0.00756 0.0
C1034 C 0.11425 0.26097 0.00465 0.0
C1035 C 0.07641 0.22842 0.00912 0.0
C1036 C 0.07565 0.20635 0.01891 0.0
C1037 C 0.03994 0.17621 0.02322 0.0
C1038 C 0.00476 0.16758 0.01775 0.0
C1039 C 0.00523 0.1891 0.00797 0.0
C1040 C 0.04087 0.21935 0.00364 0.0
C1041 C 0.20808 0.27457 0.96172 0.0
C1042 C 0.18372 0.27437 0.95266 0.0
C1043 C 0.20096 0.28028 0.9733 0.0
C1044 C 0.16932 0.28578 0.97606 0.0
C1045 C 0.14519 0.28606 0.96707 0.0
C1046 C 0.15249 0.2807 0.95545 0.0
C1047 C 0.16024 0.28932 0.9884 0.0
C1048 C 0.12405 0.26043 0.99291 0.0
C1049 C 0.18748 0.31953 0.99581 0.0
C1050 C 0.22591 0.35115 0.99141 0.0
C1051 C 0.22784 0.37426 0.98176 0.0
C1052 C 0.26419 0.40354 0.97754 0.0
C1053 C 0.29885 0.41019 0.98295 0.0
C1054 C 0.2972 0.38767 0.99262 0.0
C1055 C 0.26091 0.35833 0.99687 0.0
H1056 H 0.32697 0.43283 0.97966 0.0
H1057 H 0.97715 0.14413 0.02107 0.0
H1058 H 0.76059 0.05543 0.37194 0.0
H1059 H 0.78054 0.08521 0.35267 0.0
H1060 H 0.89202 0.17353 0.36667 0.0
H1061 H 0.87188 0.14415 0.38619 0.0
H1062 H 0.86308 0.20335 0.34973 0.0
H1063 H 0.88587 0.09502 0.35417 0.0
H1064 H 0.86845 0.02702 0.35898 0.0
H1065 H 0.7802 0.98331 0.33218 0.0
H1066 H 0.79657 0.05105 0.32736 0.0
H1067 H 0.97467 0.24784 0.29727 0.0
H1068 H 0.94707 0.23023 0.31686 0.0
H1069 H 0.83689 0.14075 0.30247 0.0
H1070 H 0.86437 0.15789 0.28274 0.0
H1071 H 0.86384 0.11275 0.31963 0.0
H1072 H 0.84438 0.22279 0.31454 0.0
H1073 H 0.86376 0.2913 0.30972 0.0
H1074 H 0.94827 0.33263 0.33757 0.0
H1075 H 0.92982 0.26436 0.34245 0.0
C1076 C 0.78925 0.08143 0.37098 0.0
C1077 C 0.81501 0.09706 0.38054 0.0
C1078 C 0.80053 0.09844 0.35996 0.0
C1079 C 0.83802 0.13102 0.35822 0.0
C1080 C 0.86301 0.14823 0.36785 0.0
C1081 C 0.85153 0.13138 0.37897 0.0
C1082 C 0.85191 0.14482 0.3462 0.0
C1083 C 0.86369 0.18376 0.34316 0.0
C1084 C 0.85201 0.11892 0.33761 0.0
C1085 C 0.84223 0.07812 0.34047 0.0
C1086 C 0.86252 0.0709 0.34936 0.0
C1087 C 0.85286 0.0324 0.35209 0.0
C1088 C 0.82324 0.00088 0.34589 0.0
C1089 C 0.80314 0.00777 0.33697 0.0
C1090 C 0.8126 0.04621 0.33424 0.0
C1091 C 0.94439 0.22468 0.29822 0.0
C1092 C 0.9218 0.20408 0.28842 0.0
C1093 C 0.9286 0.21486 0.30944 0.0
C1094 C 0.88989 0.18439 0.3111 0.0
C1095 C 0.86684 0.16445 0.30135 0.0
C1096 C 0.88258 0.17434 0.29008 0.0
C1097 C 0.87471 0.17126 0.32308 0.0
C1098 C 0.86294 0.13236 0.32614 0.0
C1099 C 0.87495 0.19733 0.33166 0.0
C1100 C 0.88593 0.23843 0.3288 0.0
C1101 C 0.86732 0.24648 0.31958 0.0
C1102 C 0.8781 0.28528 0.31685 0.0
C1103 C 0.90729 0.3163 0.32332 0.0
C1104 C 0.92568 0.30857 0.33256 0.0
C1105 C 0.91504 0.26982 0.33532 0.0
H1106 H 0.9156 0.34632 0.32119 0.0
H1107 H 0.81595 0.97111 0.34795 0.0
H1108 H 0.69307 0.74142 0.70339 0.0
H1109 H 0.6744 0.75546 0.68443 0.0
H1110 H 0.70376 0.87109 0.69648 0.0
H1111 H 0.72113 0.85653 0.71571 0.0
H1112 H 0.64122 0.84123 0.68183 0.0
H1113 H 0.77068 0.85584 0.68189 0.0
H1114 H 0.81891 0.83403 0.68499 0.0
H1115 H 0.75808 0.74071 0.6602 0.0
H1116 H 0.70909 0.76158 0.65711 0.0
H1117 H 0.70458 0.95168 0.62945 0.0
H1118 H 0.69341 0.92188 0.64873 0.0
H1119 H 0.66317 0.81036 0.63307 0.0
H1120 H 0.67484 0.84008 0.61364 0.0
H1121 H 0.71924 0.83175 0.6492 0.0
H1122 H 0.59401 0.82294 0.64741 0.0
H1123 H 0.54741 0.84667 0.64414 0.0
H1124 H 0.60146 0.93101 0.67175 0.0
H1125 H 0.6488 0.90821 0.67508 0.0
C1126 C 0.69506 0.76967 0.70204 0.0
C1127 C 0.70927 0.79826 0.7109 0.0
C1128 C 0.68434 0.77761 0.69123 0.0
C1129 C 0.68867 0.81465 0.68897 0.0
C1130 C 0.70044 0.84238 0.69804 0.0
C1131 C 0.71048 0.83414 0.70898 0.0
C1132 C 0.68449 0.8256 0.67689 0.0
C1133 C 0.65841 0.83944 0.67469 0.0
C1134 C 0.70637 0.82241 0.66755 0.0
C1135 C 0.73601 0.81004 0.66936 0.0
C1136 C 0.76743 0.8305 0.67717 0.0
C1137 C 0.79491 0.81831 0.67892 0.0
C1138 C 0.79152 0.78596 0.67281 0.0
C1139 C 0.76064 0.76573 0.66494 0.0
C1140 C 0.73302 0.77772 0.66318 0.0
C1141 C 0.69496 0.92064 0.63004 0.0
C1142 C 0.69101 0.89837 0.61997 0.0
C1143 C 0.68826 0.90357 0.6411 0.0
C1144 C 0.67721 0.86385 0.64233 0.0
C1145 C 0.6716 0.84108 0.63229 0.0
C1146 C 0.67828 0.85813 0.6212 0.0
C1147 C 0.67603 0.84756 0.65408 0.0
C1148 C 0.70144 0.83295 0.65626 0.0
C1149 C 0.65374 0.85034 0.66337 0.0
C1150 C 0.62516 0.86401 0.66144 0.0
C1151 C 0.59617 0.84675 0.65273 0.0
C1152 C 0.56957 0.86 0.65088 0.0
C1153 C 0.57151 0.89037 0.65772 0.0
C1154 C 0.6 0.9075 0.66645 0.0
C1155 C 0.62669 0.89438 0.66834 0.0
H1156 H 0.5509 0.9006 0.65627 0.0
H1157 H 0.81286 0.77661 0.67413 0.0
H1158 H 0.86276 0.70159 0.04926 0.0
H1159 H 0.83326 0.69161 0.02979 0.0
H1160 H 0.94845 0.76025 0.01456 0.0
H1161 H 0.97816 0.77019 0.03385 0.0
H1162 H 0.89428 0.78061 0.00638 0.0
H1163 H 0.90517 0.66511 0.01266 0.0
H1164 H 0.89413 0.60609 0.02344 0.0
H1165 H 0.76942 0.55656 0.02005 0.0
H1166 H 0.77974 0.61564 0.00941 0.0
H1167 H 0.86436 0.72648 0.94632 0.0
H1168 H 0.88602 0.72894 0.96658 0.0
H1169 H 0.7665 0.67949 0.97853 0.0
H1170 H 0.74484 0.67829 0.95835 0.0
H1171 H 0.81807 0.64774 0.98877 0.0
H1172 H 0.80687 0.76243 0.98232 0.0
H1173 H 0.8174 0.82254 0.97236 0.0
H1174 H 0.94202 0.87439 0.97678 0.0
H1175 H 0.93228 0.81403 0.98646 0.0
C1176 C 0.88178 0.71465 0.04177 0.0
C1177 C 0.92282 0.7365 0.0431 0.0
C1178 C 0.8649 0.7088 0.03067 0.0
C1179 C 0.88879 0.725 0.02078 0.0
C1180 C 0.92959 0.74749 0.02211 0.0
C1181 C 0.94648 0.75299 0.03314 0.0
C1182 C 0.87157 0.71865 0.00896 0.0
C1183 C 0.87792 0.75161 0.00249 0.0
C1184 C 0.84947 0.68067 0.00405 0.0
C1185 C 0.84321 0.645 0.01036 0.0
C1186 C 0.87538 0.64179 0.0143 0.0
C1187 C 0.86926 0.60831 0.02037 0.0
C1188 C 0.83109 0.57765 0.02246 0.0
C1189 C 0.79897 0.58037 0.01845 0.0
C1190 C 0.80494 0.61385 0.01239 0.0
C1191 C 0.84269 0.71555 0.95326 0.0
C1192 C 0.80302 0.70233 0.95084 0.0
C1193 C 0.85507 0.71709 0.96479 0.0
C1194 C 0.82778 0.70454 0.97397 0.0
C1195 C 0.78786 0.68926 0.97151 0.0
C1196 C 0.77562 0.6887 0.96003 0.0
C1197 C 0.84135 0.70979 0.98618 0.0
C1198 C 0.83431 0.67668 0.99271 0.0
C1199 C 0.86277 0.74765 0.99118 0.0
C1200 C 0.86886 0.78342 0.98495 0.0
C1201 C 0.83656 0.78632 0.98097 0.0
C1202 C 0.84238 0.82052 0.97542 0.0
C1203 C 0.88035 0.85227 0.97394 0.0
C1204 C 0.91261 0.84978 0.97795 0.0
C1205 C 0.90697 0.81552 0.98342 0.0
H1206 H 0.88479 0.87878 0.96967 0.0
H1207 H 0.82641 0.55174 0.02716 0.0
H1208 H 0.11937 0.82169 0.28277 0.0
H1209 H 0.14724 0.84185 0.30239 0.0
H1210 H 0.03189 0.80471 0.31627 0.0
H1211 H 0.00373 0.78429 0.29679 0.0
H1212 H 0.0898 0.87809 0.32458 0.0
H1213 H 0.06624 0.74673 0.32017 0.0
H1214 H 0.07046 0.69354 0.31007 0.0
H1215 H 0.19615 0.75852 0.31298 0.0
H1216 H 0.19272 0.81247 0.32291 0.0
H1217 H 0.15775 0.86086 0.38489 0.0
H1218 H 0.12696 0.82722 0.36653 0.0
H1219 H 0.20835 0.93005 0.34708 0.0
H1220 H 0.23941 0.96373 0.36515 0.0
H1221 H 0.1602 0.8164 0.34301 0.0
H1222 H 0.1474 0.95145 0.33179 0.0
H1223 H 0.14552 0.00539 0.34228 0.0
H1224 H 0.08874 0.92892 0.37146 0.0
H1225 H 0.08964 0.87438 0.36106 0.0
C1226 C 0.09999 0.81804 0.28998 0.0
C1227 C 0.05932 0.8011 0.28824 0.0
C1228 C 0.11591 0.82941 0.30117 0.0
C1229 C 0.09146 0.82434 0.31074 0.0
C1230 C 0.05113 0.80869 0.30898 0.0
C1231 C 0.03513 0.79692 0.29784 0.0
C1232 C 0.10786 0.83483 0.32266 0.0
C1233 C 0.10493 0.86441 0.32863 0.0
C1234 C 0.12708 0.8165 0.32797 0.0
C1235 C 0.12923 0.7838 0.3222 0.0
C1236 C 0.0948 0.74981 0.31859 0.0
C1237 C 0.09704 0.71951 0.3129 0.0
C1238 C 0.13355 0.72268 0.31087 0.0
C1239 C 0.16789 0.75612 0.31455 0.0
C1240 C 0.16581 0.78657 0.32022 0.0
C1241 C 0.16963 0.87599 0.37669 0.0
C1242 C 0.2006 0.91522 0.3765 0.0
C1243 C 0.15215 0.85665 0.36624 0.0
C1244 C 0.16536 0.87644 0.35555 0.0
C1245 C 0.19781 0.9145 0.35529 0.0
C1246 C 0.21533 0.93372 0.36566 0.0
C1247 C 0.14263 0.85996 0.34475 0.0
C1248 C 0.14453 0.82954 0.33898 0.0
C1249 C 0.12193 0.87706 0.33967 0.0
C1250 C 0.11882 0.90893 0.34566 0.0
C1251 C 0.13413 0.94605 0.34039 0.0
C1252 C 0.13331 0.97674 0.34633 0.0
C1253 C 0.11709 0.9706 0.35754 0.0
C1254 C 0.10134 0.93365 0.36279 0.0
C1255 C 0.102 0.90285 0.35687 0.0
H1256 H 0.1167 0.99446 0.36215 0.0
H1257 H 0.13523 0.6992 0.30646 0.0
H1258 H 0.23658 0.02137 0.62756 0.0
H1259 H 0.24199 0.04512 0.6475 0.0
H1260 H 0.29438 0.16425 0.63482 0.0
H1261 H 0.28952 0.14083 0.61473 0.0
H1262 H 0.33331 0.15914 0.6537 0.0
H1263 H 0.19962 0.11701 0.64368 0.0
H1264 H 0.13215 0.07236 0.63682 0.0
H1265 H 0.11667 0.98954 0.66372 0.0
H1266 H 0.18415 0.03375 0.67073 0.0
H1267 H 0.29369 0.25154 0.70063 0.0
H1268 H 0.29868 0.22305 0.68223 0.0
H1269 H 0.25844 0.11142 0.6993 0.0
H1270 H 0.25369 0.13997 0.71791 0.0
H1271 H 0.21549 0.10869 0.67907 0.0
H1272 H 0.3487 0.1578 0.69044 0.0
H1273 H 0.41407 0.20721 0.69769 0.0
H1274 H 0.42949 0.28088 0.66811 0.0
H1275 H 0.36392 0.23218 0.66076 0.0
C1276 C 0.24933 0.05268 0.62896 0.0
C1277 C 0.26261 0.07921 0.6195 0.0
C1278 C 0.25223 0.06616 0.64039 0.0
C1279 C 0.26825 0.10638 0.64263 0.0
C1280 C 0.28191 0.13305 0.63326 0.0
C1281 C 0.27898 0.1196 0.62178 0.0
C1282 C 0.27071 0.12048 0.65477 0.0
C1283 C 0.30752 0.14841 0.65922 0.0
C1284 C 0.23718 0.10567 0.66205 0.0
C1285 C 0.19707 0.07847 0.65764 0.0
C1286 C 0.18198 0.08909 0.64805 0.0
C1287 C 0.14368 0.06393 0.64417 0.0
C1288 C 0.12017 0.02808 0.64982 0.0
C1289 C 0.13493 0.0173 0.65935 0.0
C1290 C 0.17316 0.04243 0.6633 0.0
C1291 C 0.28637 0.22103 0.70052 0.0
C1292 C 0.27302 0.19785 0.71068 0.0
C1293 C 0.28948 0.2049 0.69002 0.0
C1294 C 0.27907 0.16524 0.68944 0.0
C1295 C 0.26673 0.14217 0.69962 0.0
C1296 C 0.26415 0.1585 0.71022 0.0
C1297 C 0.27799 0.14751 0.67796 0.0
C1298 C 0.24138 0.11897 0.67361 0.0
C1299 C 0.31161 0.16212 0.67075 0.0
C1300 C 0.35122 0.19142 0.67509 0.0
C1301 C 0.36588 0.18467 0.68552 0.0
C1302 C 0.403 0.21253 0.68965 0.0
C1303 C 0.42589 0.2472 0.68338 0.0
C1304 C 0.41172 0.25402 0.67296 0.0
C1305 C 0.37459 0.22627 0.6688 0.0
H1306 H 0.45462 0.26873 0.68659 0.0
H1307 H 0.09047 0.00871 0.64684 0.0
H1308 H 0.05608 0.6782 0.05923 0.0
H1309 H 0.06142 0.61885 0.05799 0.0
H1310 H 0.93511 0.54712 0.0585 0.0
H1311 H 0.92943 0.60601 0.05981 0.0
H1312 H 0.96976 0.52294 0.07438 0.0
H1313 H 0.98387 0.55635 0.03376 0.0
H1314 H 0.01186 0.59947 0.01658 0.0
H1315 H 0.12511 0.61345 0.02413 0.0
H1316 H 0.09792 0.57085 0.04147 0.0
H1317 H 0.96151 0.34188 0.06344 0.0
H1318 H 0.95308 0.39897 0.06073 0.0
H1319 H 0.07884 0.47517 0.06058 0.0
H1320 H 0.08764 0.41838 0.06318 0.0
H1321 H 0.04236 0.49572 0.04374 0.0
H1322 H 0.02915 0.46555 0.08486 0.0
H1323 H 0.00152 0.42248 0.10207 0.0
H1324 H 0.88677 0.40305 0.09361 0.0
H1325 H 0.91364 0.44553 0.07622 0.0
C1326 C 0.02946 0.6498 0.05896 0.0
C1327 C 0.99236 0.64677 0.05964 0.0
C1328 C 0.03255 0.61597 0.05821 0.0
C1329 C 0.99862 0.57869 0.0581 0.0
C1330 C 0.9616 0.57566 0.05857 0.0
C1331 C 0.95846 0.60938 0.05928 0.0
C1332 C 0.00171 0.54274 0.05817 0.0
C1333 C 0.98507 0.51664 0.06758 0.0
C1334 C 0.02248 0.53514 0.04942 0.0
C1335 C 0.03892 0.5607 0.03898 0.0
C1336 C 0.01482 0.56889 0.03182 0.0
C1337 C 0.03053 0.59318 0.02204 0.0
C1338 C 0.07026 0.60927 0.01928 0.0
C1339 C 0.09435 0.60101 0.02629 0.0
C1340 C 0.07879 0.57676 0.03609 0.0
C1341 C 0.98737 0.37076 0.06276 0.0
C1342 C 0.02523 0.37568 0.06361 0.0
C1343 C 0.9825 0.40329 0.06122 0.0
C1344 C 0.01536 0.44121 0.06056 0.0
C1345 C 0.05315 0.44609 0.06105 0.0
C1346 C 0.05808 0.41362 0.06259 0.0
C1347 C 0.0104 0.47603 0.05995 0.0
C1348 C 0.02681 0.50194 0.05048 0.0
C1349 C 0.98947 0.48357 0.06865 0.0
C1350 C 0.97333 0.45837 0.07917 0.0
C1351 C 0.99797 0.45185 0.08662 0.0
C1352 C 0.98246 0.42758 0.09641 0.0
C1353 C 0.94239 0.40995 0.09892 0.0
C1354 C 0.91778 0.41667 0.09165 0.0
C1355 C 0.93314 0.44085 0.08183 0.0
H1356 H 0.93043 0.39116 0.1065 0.0
H1357 H 0.08236 0.62807 0.0117 0.0
H1358 H 0.62815 0.96351 0.39732 0.0
H1359 H 0.56571 0.96137 0.39394 0.0
H1360 H 0.62464 0.088 0.39556 0.0
H1361 H 0.68692 0.09043 0.39917 0.0
H1362 H 0.55974 0.05603 0.40835 0.0
H1363 H 0.59431 0.04007 0.36948 0.0
H1364 H 0.61467 0.0107 0.35389 0.0
H1365 H 0.51003 0.89931 0.35918 0.0
H1366 H 0.4893 0.92787 0.37493 0.0
H1367 H 0.39192 0.06452 0.39057 0.0
H1368 H 0.45821 0.07387 0.38936 0.0
H1369 H 0.41016 0.94828 0.39068 0.0
H1370 H 0.344 0.93857 0.3918 0.0
H1371 H 0.47183 0.98474 0.37505 0.0
H1372 H 0.44105 -0.00045 0.41504 0.0
H1373 H 0.42007 0.0288 0.43051 0.0
H1374 H 0.51821 0.14287 0.42286 0.0
H1375 H 0.5394 0.11435 0.4072 0.0
C1376 C 0.6278 0.99088 0.39693 0.0
C1377 C 0.66241 0.02712 0.39849 0.0
C1378 C 0.59219 0.98963 0.39493 0.0
C1379 C 0.59074 0.02458 0.39435 0.0
C1380 C 0.62522 0.06074 0.39594 0.0
C1381 C 0.66076 0.06202 0.39799 0.0
C1382 C 0.55298 0.02339 0.39253 0.0
C1383 C 0.54085 0.04106 0.40095 0.0
C1384 C 0.52814 0.00329 0.38298 0.0
C1385 C 0.54041 0.98605 0.37346 0.0
C1386 C 0.57578 0.00924 0.36738 0.0
C1387 C 0.58736 0.99275 0.35851 0.0
C1388 C 0.5637 0.95314 0.35556 0.0
C1389 C 0.52835 0.92997 0.36148 0.0
C1390 C 0.51664 0.94631 0.37037 0.0
C1391 C 0.39547 0.0389 0.39045 0.0
C1392 C 0.36283 0.00084 0.3914 0.0
C1393 C 0.43328 0.0443 0.38976 0.0
C1394 C 0.4389 0.01174 0.39005 0.0
C1395 C 0.4063 0.97372 0.39043 0.0
C1396 C 0.36856 0.96829 0.39114 0.0
C1397 C 0.4787 0.01712 0.39089 0.0
C1398 C 0.49108 0.00014 0.38234 0.0
C1399 C 0.50385 0.03786 0.40032 0.0
C1400 C 0.49157 0.0549 0.40988 0.0
C1401 C 0.45801 0.03091 0.41661 0.0
C1402 C 0.44609 0.04735 0.42542 0.0
C1403 C 0.46773 0.08769 0.42765 0.0
C1404 C 0.50143 0.11164 0.42111 0.0
C1405 C 0.51342 0.09536 0.41227 0.0
H1406 H 0.45845 0.10038 0.43446 0.0
H1407 H 0.57272 0.94043 0.34869 0.0
H1408 H 0.40094 0.32606 0.72362 0.0
H1409 H 0.46443 0.38569 0.72133 0.0
H1410 H 0.4082 0.45579 0.72325 0.0
H1411 H 0.34415 0.39601 0.72531 0.0
H1412 H 0.4671 0.48389 0.7069 0.0
H1413 H 0.44885 0.44174 0.74734 0.0
H1414 H 0.43425 0.39301 0.76294 0.0
H1415 H 0.53369 0.38267 0.75261 0.0
H1416 H 0.54863 0.4311 0.73684 0.0
H1417 H 0.60582 0.66502 0.72975 0.0
H1418 H 0.55049 0.59953 0.72645 0.0
H1419 H 0.6293 0.55343 0.72355 0.0
H1420 H 0.68555 0.61956 0.72688 0.0
H1421 H 0.56467 0.50929 0.73814 0.0
H1422 H 0.58851 0.56091 0.6995 0.0
H1423 H 0.60199 0.61026 0.68419 0.0
H1424 H 0.49164 0.60369 0.69128 0.0
H1425 H 0.47774 0.55474 0.70677 0.0
C1426 C 0.40196 0.35412 0.72345 0.0
C1427 C 0.36764 0.35646 0.72478 0.0
C1428 C 0.43828 0.38813 0.72214 0.0
C1429 C 0.44097 0.42505 0.7223 0.0
C1430 C 0.40662 0.42746 0.72312 0.0
C1431 C 0.37014 0.39337 0.72435 0.0
C1432 C 0.47977 0.46123 0.72242 0.0
C1433 C 0.48842 0.4896 0.71374 0.0
C1434 C 0.50789 0.46798 0.73118 0.0
C1435 C 0.49962 0.43972 0.74085 0.0
C1436 C 0.4675 0.42894 0.74836 0.0
C1437 C 0.45917 0.40139 0.75724 0.0
C1438 C 0.48295 0.38465 0.75874 0.0
C1439 C 0.51526 0.39562 0.75142 0.0
C1440 C 0.52371 0.42316 0.74252 0.0
C1441 C 0.61161 0.6411 0.72838 0.0
C1442 C 0.6501 0.64747 0.72853 0.0
C1443 C 0.5799 0.6037 0.72643 0.0
C1444 C 0.58595 0.57189 0.72458 0.0
C1445 C 0.62422 0.57783 0.72487 0.0
C1446 C 0.6562 0.6155 0.72677 0.0
C1447 C 0.55168 0.53239 0.72277 0.0
C1448 C 0.54378 0.50334 0.73115 0.0
C1449 C 0.5242 0.52513 0.71376 0.0
C1450 C 0.53219 0.55426 0.70435 0.0
C1451 C 0.56722 0.57016 0.69785 0.0
C1452 C 0.57492 0.59805 0.68913 0.0
C1453 C 0.54771 0.61014 0.68678 0.0
C1454 C 0.51269 0.59429 0.69312 0.0
C1455 C 0.50486 0.56642 0.70186 0.0
H1456 H 0.55374 0.63175 0.68003 0.0
H1457 H 0.47638 0.36322 0.76559 0.0
H1458 H 0.31949 0.94822 0.59737 0.0
H1459 H 0.37783 0.94118 0.59836 0.0
H1460 H 0.44927 0.06475 0.60616 0.0
H1461 H 0.39146 0.07221 0.605 0.0
H1462 H 0.48087 0.04374 0.58906 0.0
H1463 H 0.42804 0.99525 0.62716 0.0
H1464 H 0.37729 0.95349 0.64148 0.0
H1465 H 0.36841 0.85023 0.62568 0.0
H1466 H 0.41874 0.89135 0.61116 0.0
H1467 H 0.65547 0.0389 0.60168 0.0
H1468 H 0.59803 0.04722 0.60352 0.0
H1469 H 0.52201 0.92435 0.59564 0.0
H1470 H 0.57897 0.91561 0.59398 0.0
H1471 H 0.49381 0.94666 0.61358 0.0
H1472 H 0.54409 0.99472 0.575 0.0
H1473 H 0.59472 0.03618 0.56061 0.0
H1474 H 0.60792 0.14003 0.57727 0.0
H1475 H 0.55773 0.09917 0.59187 0.0
C1476 C 0.34756 0.97378 0.59942 0.0
C1477 C 0.35088 0.01076 0.60109 0.0
C1478 C 0.38083 0.96969 0.60002 0.0
C1479 C 0.41782 0.00243 0.6024 0.0
C1480 C 0.42101 0.03915 0.6043 0.0
C1481 C 0.38787 0.04329 0.60367 0.0
C1482 C 0.45358 0.99894 0.60228 0.0
C1483 C 0.48398 0.02295 0.59456 0.0
C1484 C 0.45716 0.97119 0.60927 0.0
C1485 C 0.42691 0.94638 0.618 0.0
C1486 C 0.41504 0.96362 0.62668 0.0
C1487 C 0.38639 0.94007 0.63484 0.0
C1488 C 0.36956 0.89923 0.63447 0.0
C1489 C 0.38143 0.88187 0.62595 0.0
C1490 C 0.41005 0.90529 0.61776 0.0
C1491 C 0.62651 0.01369 0.60033 0.0
C1492 C 0.62174 0.97663 0.59767 0.0
C1493 C 0.59376 0.01849 0.60137 0.0
C1494 C 0.55581 0.98644 0.59963 0.0
C1495 C 0.55103 0.94941 0.59705 0.0
C1496 C 0.58366 0.94454 0.59607 0.0
C1497 C 0.52096 0.99137 0.60034 0.0
C1498 C 0.49075 0.96761 0.60814 0.0
C1499 C 0.51747 0.01931 0.59342 0.0
C1500 C 0.54746 0.0439 0.5846 0.0
C1501 C 0.55801 0.0264 0.57565 0.0
C1502 C 0.58659 0.04979 0.56744 0.0
C1503 C 0.6046 0.09071 0.56804 0.0
C1504 C 0.59398 0.10833 0.57683 0.0
C1505 C 0.56546 0.08507 0.58507 0.0
H1506 H 0.62673 0.10877 0.56168 0.0
H1507 H 0.34739 0.88105 0.6408 0.0
H1508 H 0.36031 0.31709 0.92974 0.0
H1509 H 0.42714 0.37305 0.9312 0.0
H1510 H 0.38156 0.45268 0.93096 0.0
H1511 H 0.31481 0.39712 0.9294 0.0
H1512 H 0.44326 0.47611 0.91613 0.0
H1513 H 0.41283 0.4341 0.95604 0.0
H1514 H 0.39092 0.38646 0.97228 0.0
H1515 H 0.48597 0.36499 0.96549 0.0
H1516 H 0.50815 0.41214 0.9491 0.0
H1517 H 0.61519 0.64897 0.93259 0.0
H1518 H 0.5486 0.59266 0.93343 0.0
H1519 H 0.59508 0.51378 0.93339 0.0
H1520 H 0.66186 0.5699 0.93269 0.0
H1521 H 0.53307 0.48983 0.94857 0.0
H1522 H 0.5631 0.5317 0.90854 0.0
H1523 H 0.58552 0.58032 0.89256 0.0
H1524 H 0.49086 0.60214 0.89965 0.0
H1525 H 0.46826 0.55411 0.91581 0.0
C1526 C 0.36452 0.34651 0.93001 0.0
C1527 C 0.3323 0.35269 0.92949 0.0
C1528 C 0.40267 0.3784 0.93089 0.0
C1529 C 0.40916 0.41691 0.93129 0.0
C1530 C 0.37709 0.42315 0.93068 0.0
C1531 C 0.33898 0.39134 0.92984 0.0
C1532 C 0.44947 0.45085 0.93214 0.0
C1533 C 0.46273 0.47938 0.9233 0.0
C1534 C 0.47504 0.45457 0.94138 0.0
C1535 C 0.46191 0.42637 0.95127 0.0
C1536 C 0.42888 0.41899 0.95795 0.0
C1537 C 0.41644 0.39212 0.96719 0.0
C1538 C 0.43698 0.37263 0.96989 0.0
C1539 C 0.47006 0.38007 0.96337 0.0
C1540 C 0.4826 0.40689 0.95412 0.0
C1541 C 0.61129 0.61966 0.93286 0.0
C1542 C 0.64376 0.61385 0.93248 0.0
C1543 C 0.57324 0.58755 0.93333 0.0
C1544 C 0.56701 0.54913 0.93331 0.0
C1545 C 0.59935 0.54324 0.9334 0.0
C1546 C 0.63745 0.57535 0.93296 0.0
C1547 C 0.52673 0.5151 0.93259 0.0
C1548 C 0.51354 0.48652 0.94142 0.0
C1549 C 0.50117 0.5113 0.92334 0.0
C1550 C 0.5142 0.53957 0.91345 0.0
C1551 C 0.5472 0.54704 0.90674 0.0
C1552 C 0.55994 0.57448 0.89765 0.0
C1553 C 0.53968 0.59438 0.89511 0.0
C1554 C 0.50655 0.58674 0.90163 0.0
C1555 C 0.49375 0.55939 0.91076 0.0
H1556 H 0.54962 0.61565 0.88807 0.0
H1557 H 0.4273 0.35183 0.97705 0.0
H1558 H 0.93274 0.60587 0.2695 0.0
H1559 H 0.9327 0.54357 0.27049 0.0
H1560 H 0.05642 0.60631 0.27863 0.0
H1561 H 0.05686 0.66842 0.27755 0.0
H1562 H 0.0408 0.55609 0.26098 0.0
H1563 H 0.98948 0.55135 0.29925 0.0
H1564 H 0.9447 0.55383 0.31387 0.0
H1565 H 0.84682 0.45455 0.29772 0.0
H1566 H 0.89094 0.45182 0.28289 0.0
H1567 H 0.05289 0.38291 0.27064 0.0
H1568 H 0.05611 0.44627 0.27355 0.0
H1569 H 0.93225 0.39225 0.26608 0.0
H1570 H 0.92862 0.32908 0.26335 0.0
H1571 H 0.95111 0.4394 0.28465 0.0
H1572 H 0.00145 0.44724 0.24565 0.0
H1573 H 0.04581 0.44474 0.23087 0.0
H1574 H 0.14519 0.53853 0.24833 0.0
H1575 H 0.10142 0.5412 0.26332 0.0
C1576 C 0.95975 0.6063 0.27169 0.0
C1577 C 0.99481 0.64204 0.27339 0.0
C1578 C 0.95969 0.57071 0.27227 0.0
C1579 C 0.99458 0.57038 0.27465 0.0
C1580 C 0.02924 0.60595 0.27674 0.0
C1581 C 0.02936 0.64142 0.27614 0.0
C1582 C 0.99566 0.53328 0.2742 0.0
C1583 C 0.02165 0.53077 0.26631 0.0
C1584 C 0.97012 0.50009 0.28097 0.0
C1585 C 0.94349 0.50161 0.28989 0.0
C1586 C 0.95836 0.53025 0.29876 0.0
C1587 C 0.9331 0.53166 0.30709 0.0
C1588 C 0.89293 0.50442 0.30671 0.0
C1589 C 0.87794 0.47566 0.298 0.0
C1590 C 0.90307 0.47414 0.28963 0.0
C1591 C 0.02641 0.38462 0.2696 0.0
C1592 C 0.99054 0.35104 0.26676 0.0
C1593 C 0.02828 0.42079 0.27125 0.0
C1594 C 0.99442 0.42394 0.26997 0.0
C1595 C 0.95866 0.39041 0.26717 0.0
C1596 C 0.95671 0.35435 0.26557 0.0
C1597 C 0.99599 0.46216 0.27136 0.0
C1598 C 0.97048 0.46487 0.27941 0.0
C1599 C 0.02191 0.49555 0.26472 0.0
C1600 C 0.04821 0.49411 0.25567 0.0
C1601 C 0.03279 0.46712 0.24639 0.0
C1602 C 0.05782 0.4657 0.23797 0.0
C1603 C 0.0983 0.49138 0.23868 0.0
C1604 C 0.11383 0.51861 0.2478 0.0
C1605 C 0.08893 0.52009 0.25626 0.0
H1606 H 0.11764 0.49024 0.23215 0.0
H1607 H 0.87342 0.50556 0.31317 0.0
H1608 H 0.05968 0.17019 0.09373 0.0
H1609 H 0.05142 0.10448 0.09314 0.0
H1610 H 0.97472 0.07598 0.0633 0.0
H1611 H 0.98187 0.14157 0.06408 0.0
H1612 H 0.94893 0.01458 0.07746 0.0
H1613 H 0.0711 0.10409 0.05973 0.0
H1614 H 0.13573 0.1645 0.05842 0.0
H1615 H 0.17596 0.12796 0.08819 0.0
H1616 H 0.11131 0.06765 0.08982 0.0
H1617 H 0.03749 0.88141 0.06215 0.0
H1618 H 0.04382 0.94661 0.06207 0.0
H1619 H 0.97144 0.91625 0.093 0.0
H1620 H 0.96358 0.85062 0.0928 0.0
H1621 H 0.07123 0.00716 0.07577 0.0
H1622 H 0.9128 0.95523 0.09218 0.0
H1623 H 0.84769 0.89513 0.0919 0.0
H1624 H 0.87929 0.85618 0.06081 0.0
H1625 H 0.9443 0.91639 0.06078 0.0
C1626 C 0.04076 0.14984 0.0871 0.0
C1627 C 0.02183 0.16117 0.07884 0.0
C1628 C 0.03617 0.11236 0.08675 0.0
C1629 C 0.01327 0.08575 0.07799 0.0
C1630 C 0.99276 0.09623 0.07008 0.0
C1631 C 0.99689 0.13367 0.07053 0.0
C1632 C 0.0121 0.04766 0.07689 0.0
C1633 C 0.97561 0.0129 0.07707 0.0
C1634 C 0.04698 0.04561 0.07605 0.0
C1635 C 0.08624 0.08144 0.07494 0.0
C1636 C 0.09366 0.10902 0.06603 0.0
C1637 C 0.13029 0.14326 0.06524 0.0
C1638 C 0.15991 0.15007 0.07323 0.0
C1639 C 0.15298 0.12263 0.08201 0.0
C1640 C 0.11635 0.0884 0.08287 0.0
C1641 C 0.02324 0.8888 0.06898 0.0
C1642 C -0.00047 0.86079 0.07737 0.0
C1643 C 0.02688 0.92605 0.06894 0.0
C1644 C 0.00727 0.93593 0.07735 0.0
C1645 C 0.98584 0.90885 0.0862 0.0
C1646 C 0.98155 0.87144 0.08612 0.0
C1647 C 0.00805 0.97397 0.07668 0.0
C1648 C 0.04449 0.00876 0.07612 0.0
C1649 C 0.97307 0.97602 0.07682 0.0
C1650 C 0.93356 0.94023 0.07654 0.0
C1651 C 0.90576 0.93399 0.08524 0.0
C1652 C 0.86888 0.89989 0.08514 0.0
C1653 C 0.85939 0.87184 0.07636 0.0
C1654 C 0.8867 0.87791 0.06762 0.0
C1655 C 0.92357 0.91203 0.06765 0.0
H1656 H 0.83085 0.84544 0.07632 0.0
H1657 H 0.18827 0.17658 0.07259 0.0
H1658 H 0.90084 0.04538 0.42307 0.0
H1659 H 0.95744 0.03713 0.4199 0.0
H1660 H 0.8998 0.96201 0.39032 0.0
H1661 H 0.84219 0.96949 0.39358 0.0
H1662 H 0.9412 0.93617 0.40289 0.0
H1663 H 0.96559 0.05462 0.38517 0.0
H1664 H 0.96767 0.11818 0.38349 0.0
H1665 H 0.05213 0.16524 0.4113 0.0
H1666 H 0.05004 0.10171 0.4133 0.0
H1667 H 0.16676 0.03252 0.3896 0.0
H1668 H 0.1055 0.0337 0.38735 0.0
H1669 H 0.06051 0.96506 0.41888 0.0
H1670 H 0.1209 0.96265 0.42097 0.0
H1671 H 0.06862 0.06085 0.39982 0.0
H1672 H 0.96552 0.90067 0.41669 0.0
H1673 H 0.9641 0.83719 0.41644 0.0
H1674 H 0.03688 0.87282 0.38578 0.0
H1675 H 0.03818 0.93622 0.38572 0.0
C1676 C 0.89992 0.02675 0.41595 0.0
C1677 C 0.8673 0.00857 0.40845 0.0
C1678 C 0.93235 0.02215 0.41414 0.0
C1679 C 0.93313 -0.00019 0.4047 0.0
C1680 C 0.89979 0.97967 0.39759 0.0
C1681 C 0.86697 0.98397 0.39947 0.0
C1682 C 0.96969 -0.00069 0.40211 0.0
C1683 C 0.96906 0.96333 0.40213 0.0
C1684 C 0.00577 0.03477 0.40064 0.0
C1685 C 0.00754 0.07329 0.39941 0.0
C1686 C 0.98445 0.07843 0.39098 0.0
C1687 C 0.98563 0.11447 0.38996 0.0
C1688 C 0.01006 0.14573 0.39727 0.0
C1689 C 0.03328 0.141 0.40563 0.0
C1690 C 0.03214 0.10499 0.4067 0.0
C1691 C 0.14394 0.01796 0.3961 0.0
C1692 C 0.1485 0.9972 0.40541 0.0
C1693 C 0.10894 0.01859 0.39478 0.0
C1694 C 0.07816 0.9987 0.40279 0.0
C1695 C 0.08347 0.97965 0.4124 0.0
C1696 C 0.11813 0.97856 0.41364 0.0
C1697 C 0.0404 0.99784 0.40126 0.0
C1698 C 0.04078 0.0336 0.4004 0.0
C1699 C 0.00406 0.9621 0.40153 0.0
C1700 C 0.00211 0.92334 0.40125 0.0
C1701 C 0.98092 0.89484 0.40983 0.0
C1702 C 0.98021 0.8589 0.40976 0.0
C1703 C 0.00046 0.85103 0.40112 0.0
C1704 C 0.02129 0.87899 0.39249 0.0
C1705 C 0.02202 0.91494 0.39251 0.0
H1706 H -3e-05 0.82324 0.4011 0.0
H1707 H 0.01106 0.17366 0.39644 0.0
H1708 H 0.13539 0.16797 0.72003 0.0
H1709 H 0.07238 0.10699 0.71836 0.0
H1710 H 0.07046 0.09129 0.75579 0.0
H1711 H 0.13451 0.151 0.75733 0.0
H1712 H 0.05759 0.02809 0.74613 0.0
H1713 H 0.00547 0.11432 0.74005 0.0
H1714 H 0.0002 0.16815 0.73077 0.0
H1715 H 0.97518 0.1085 0.69774 0.0
H1716 H 0.9808 0.05452 0.7068 0.0
H1717 H 0.85443 0.89107 0.75488 0.0
H1718 H 0.91725 0.9522 0.75321 0.0
H1719 H 0.93142 0.92099 0.71814 0.0
H1720 H 0.86872 0.85882 0.71987 0.0
H1721 H 0.9388 0.00464 0.72431 0.0
H1722 H 0.98807 0.91588 0.73198 0.0
H1723 H 0.98948 0.86213 0.74269 0.0
H1724 H 0.01621 0.92847 0.77454 0.0
H1725 H 0.01428 0.98236 0.76405 0.0
C1726 C 0.12088 0.152 0.72791 0.0
C1727 C 0.13952 0.16399 0.73881 0.0
C1728 C 0.08489 0.11713 0.72696 0.0
C1729 C 0.06658 0.09445 0.73695 0.0
C1730 C 0.08415 0.10804 0.74794 0.0
C1731 C 0.12052 0.14226 0.74884 0.0
C1732 C 0.03107 0.055 0.73595 0.0
C1733 C 0.03157 0.02323 0.74144 0.0
C1734 C 0.99741 0.04819 0.72954 0.0
C1735 C 0.99399 0.0806 0.72408 0.0
C1736 C -0.00084 0.11284 0.73079 0.0
C1737 C 0.99605 0.14335 0.72557 0.0
C1738 C 0.98748 0.14181 0.71366 0.0
C1739 C 0.98188 0.10969 0.70696 0.0
C1740 C 0.985 0.07911 0.71213 0.0
C1741 C 0.87107 0.89706 0.74685 0.0
C1742 C 0.85685 0.87037 0.73749 0.0
C1743 C 0.90682 0.9319 0.74591 0.0
C1744 C 0.92858 0.9409 0.73555 0.0
C1745 C 0.91476 0.91431 0.72619 0.0
C1746 C 0.87925 0.87887 0.72721 0.0
C1747 C 0.96553 0.97861 0.73466 0.0
C1748 C 0.96521 0.00985 0.72885 0.0
C1749 C -0.00088 0.9852 0.74094 0.0
C1750 C 0.00064 0.95298 0.74725 0.0
C1751 C 0.99385 0.91884 0.74129 0.0
C1752 C 0.99483 0.88838 0.74732 0.0
C1753 C 0.00283 0.89184 0.75929 0.0
C1754 C 0.00997 0.92581 0.76526 0.0
C1755 C 0.00897 0.95634 0.75928 0.0
H1756 H 0.00358 0.86823 0.76394 0.0
H1757 H 0.98508 0.16545 0.70964 0.0
H1758 H 0.86428 0.03629 0.59239 0.0
H1759 H 0.93117 0.04685 0.59163 0.0
H1760 H 0.88525 0.92182 0.59414 0.0
H1761 H 0.81846 0.91095 0.59479 0.0
H1762 H 0.95491 0.96845 0.60761 0.0
H1763 H 0.90283 0.9574 0.56875 0.0
H1764 H 0.87126 0.97516 0.55314 0.0
H1765 H 0.96829 0.09353 0.5532 0.0
H1766 H 4e-05 0.07666 0.56901 0.0
H1767 H 0.11534 0.95402 0.58724 0.0
H1768 H 0.04877 0.94374 0.58793 0.0
H1769 H 0.09391 0.06695 0.58102 0.0
H1770 H 0.16036 0.07741 0.57998 0.0
H1771 H 0.02467 0.02219 0.57002 0.0
H1772 H 0.07879 0.0317 0.6083 0.0
H1773 H 0.11072 0.01225 0.62329 0.0
H1774 H 0.00935 0.8967 0.6247 0.0
H1775 H 0.97751 0.91482 0.60926 0.0
C1776 C 0.8685 0.01115 0.593 0.0
C1777 C 0.83621 0.97278 0.59351 0.0
C1778 C 0.90664 0.01721 0.59254 0.0
C1779 C 0.9129 0.98503 0.59274 0.0
C1780 C 0.88088 0.94694 0.59398 0.0
C1781 C 0.8428 0.94082 0.59427 0.0
C1782 C 0.95237 0.99061 0.59061 0.0
C1783 C 0.97014 0.97993 0.59938 0.0
C1784 C 0.9721 0.00594 0.57989 0.0
C1785 C 0.95362 0.01588 0.57015 0.0
C1786 C 0.91731 0.9873 0.5655 0.0
C1787 C 0.89938 0.99719 0.55661 0.0
C1788 C 0.91771 0.03547 0.5522 0.0
C1789 C 0.95409 0.0639 0.55664 0.0
C1790 C 0.97207 0.05419 0.56557 0.0
C1791 C 0.1111 0.97885 0.5857 0.0
C1792 C 0.14326 0.01664 0.58372 0.0
C1793 C 0.07304 0.97291 0.5861 0.0
C1794 C 0.06658 0.00476 0.58475 0.0
C1795 C 0.09831 0.04203 0.58212 0.0
C1796 C 0.13632 0.04794 0.58159 0.0
C1797 C 0.0274 -1e-05 0.58702 0.0
C1798 C 0.00962 0.01085 0.57828 0.0
C1799 C 0.00767 0.98483 0.59778 0.0
C1800 C 0.02589 0.97452 0.60752 0.0
C1801 C 0.06334 0.00206 0.61175 0.0
C1802 C 0.08148 0.99125 0.62032 0.0
C1803 C 0.06204 0.95332 0.62499 0.0
C1804 C 0.02439 0.92608 0.62108 0.0
C1805 C 0.00634 0.93655 0.61237 0.0
H1806 H 0.07614 0.94505 0.63163 0.0
H1807 H 0.90376 0.04308 0.54533 0.0
H1808 H 0.90033 0.81182 0.91103 0.0
H1809 H 0.95432 0.87956 0.91084 0.0
H1810 H 0.87489 0.92005 0.92092 0.0
H1811 H 0.82035 0.85214 0.92122 0.0
H1812 H 0.93193 0.96573 0.90268 0.0
H1813 H 0.92303 0.90716 0.94052 0.0
H1814 H 0.9199 0.85441 0.95286 0.0
H1815 H 0.03616 0.88437 0.94212 0.0
H1816 H 0.03902 0.93564 0.92904 0.0
H1817 H 0.06736 0.15671 0.92105 0.0
H1818 H 0.01286 0.08933 0.92031 0.0
H1819 H 0.09471 0.04653 0.91891 0.0
H1820 H 0.14956 0.11401 0.92011 0.0
H1821 H 0.03643 0.00099 0.93236 0.0
H1822 H 0.04717 0.05305 0.89413 0.0
H1823 H 0.0521 0.1006 0.87921 0.0
H1824 H 0.93824 0.08106 0.88895 0.0
H1825 H 0.93289 0.03382 0.90408 0.0
C1826 C 0.89409 0.83504 0.91311 0.0
C1827 C 0.85598 0.82648 0.91625 0.0
C1828 C 0.92504 0.87373 0.91298 0.0
C1829 C 0.91851 0.90457 0.91595 0.0
C1830 C 0.88035 0.89647 0.91861 0.0
C1831 C 0.84933 0.85767 0.91884 0.0
C1832 C 0.95199 0.94498 0.91703 0.0
C1833 C 0.95456 0.9737 0.90925 0.0
C1834 C 0.98207 0.95466 0.92537 0.0
C1835 C 0.98105 0.92504 0.93367 0.0
C1836 C 0.94781 0.90231 0.94068 0.0
C1837 C 0.94608 0.87263 0.94782 0.0
C1838 C 0.97792 0.86624 0.94837 0.0
C1839 C 0.0115 0.88937 0.9417 0.0
C1840 C 0.0131 0.91858 0.93435 0.0
C1841 C 0.07382 0.13298 0.92061 0.0
C1842 C 0.11281 0.14072 0.92052 0.0
C1843 C 0.0426 0.09446 0.92014 0.0
C1844 C 0.04968 0.0629 0.91928 0.0
C1845 C 0.08856 0.07044 0.91951 0.0
C1846 C 0.11987 0.10902 0.92017 0.0
C1847 C 0.01647 0.02214 0.91803 0.0
C1848 C 0.01387 0.99322 0.92578 0.0
C1849 C 0.98686 0.012 0.90947 0.0
C1850 C 0.9898 0.04017 0.90032 0.0
C1851 C 0.0233 0.0591 0.89315 0.0
C1852 C 0.02616 0.08597 0.88465 0.0
C1853 C 0.99555 0.09391 0.88315 0.0
C1854 C 0.96196 0.07491 0.89014 0.0
C1855 C 0.95898 0.04806 0.89867 0.0
H1856 H 0.99781 0.11473 0.87657 0.0
H1857 H 0.97652 0.84332 0.95395 0.0
H1858 H 0.0349 0.87888 0.2411 0.0
H1859 H 0.03196 0.93913 0.24232 0.0
H1860 H 0.93309 0.88275 0.26575 0.0
H1861 H 0.93571 0.82173 0.26464 0.0
H1862 H 0.93007 0.9366 0.24858 0.0
H1863 H 0.01551 0.93174 0.27796 0.0
H1864 H 0.06882 0.92042 0.28447 0.0
H1865 H 0.15029 0.01388 0.26224 0.0
H1866 H 0.09726 0.02531 0.25544 0.0
H1867 H 0.94125 0.10494 0.2714 0.0
H1868 H 0.94321 0.04382 0.27138 0.0
H1869 H 0.05101 0.10031 0.25153 0.0
H1870 H 0.04972 0.16235 0.25191 0.0
H1871 H 0.04915 0.04574 0.26705 0.0
H1872 H 0.96543 0.05115 0.23753 0.0
H1873 H 0.91281 0.0625 0.23033 0.0
H1874 H 0.82893 0.96834 0.25189 0.0
H1875 H 0.88123 0.95687 0.25938 0.0
C1876 C 0.01201 0.87886 0.24638 0.0
C1877 C 0.98596 0.84564 0.25296 0.0
C1878 C 0.01042 0.91339 0.24704 0.0
C1879 C 0.98282 0.91545 0.25428 0.0
C1880 C 0.95473 0.88161 0.26016 0.0
C1881 C 0.9563 0.84684 0.25951 0.0
C1882 C 0.986 0.95394 0.25651 0.0
C1883 C 0.95576 0.96032 0.25276 0.0
C1884 C 0.02008 0.985 0.26172 0.0
C1885 C 0.05235 0.9792 0.26613 0.0
C1886 C 0.04476 0.94977 0.27442 0.0
C1887 C 0.07491 0.94333 0.27816 0.0
C1888 C 0.1129 0.9664 0.27377 0.0
C1889 C 0.12084 0.99605 0.26565 0.0
C1890 C 0.09075 0.00255 0.26185 0.0
C1891 C 0.96585 0.10449 0.26728 0.0
C1892 C 0.99515 0.13789 0.26156 0.0
C1893 C 0.96689 0.06963 0.26725 0.0
C1894 C 0.99666 0.06733 0.26119 0.0
C1895 C 0.02765 0.10152 0.25619 0.0
C1896 C 0.02697 0.13682 0.25641 0.0
C1897 C 0.99309 0.02848 0.25916 0.0
C1898 C 0.02334 0.02204 0.26291 0.0
C1899 C 0.9591 0.99741 0.25386 0.0
C1900 C 0.92731 0.00332 0.24908 0.0
C1901 C 0.93579 0.03295 0.24077 0.0
C1902 C 0.90604 0.03943 0.23664 0.0
C1903 C 0.86757 0.01617 0.24066 0.0
C1904 C 0.85876 0.98633 0.24879 0.0
C1905 C 0.88844 0.9798 0.25297 0.0
H1906 H 0.84457 0.02119 0.23744 0.0
H1907 H 0.1362 0.96134 0.27667 0.0
loop_
_geom_bond_atom_site_label_1
_geom_bond_atom_site_label_2
_geom_bond_distance
_geom_bond_site_symmetry_2
_ccdc_geom_bond_type
Co0 O2 2.143 . S
Co0 O8 2.074 . S
Co0 O11 2.093 . S
Co0 O24 2.097 . S
Co0 N41 2.151 . S
Co0 N49 2.214 . S
Co1 O2 2.160 1_655 S
Co1 O7 2.058 1_655 S
Co1 O17 2.057 . S
Co1 O32 2.037 . S
Co1 N36 2.145 . S
Co1 N57 2.257 . S
O2 Co0 2.143 . S
O2 Co1 2.160 1_455 S
C3 O4 1.278 . S
C3 O11 1.224 . S
O4 C3 1.278 . S
C5 O6 1.245 . S
C5 O17 1.232 1_455 S
O6 C5 1.245 . S
O7 Co1 2.058 1_455 S
O7 C33 1.269 . S
O8 Co0 2.074 . S
O8 C33 1.257 . S
H9 C34 0.930 . S
H10 C40 0.930 . S
O11 Co0 2.093 . S
O11 C3 1.224 . S
H12 C44 0.929 . S
H13 C46 0.930 . S
H14 C47 0.930 . S
H15 C45 0.929 . S
H16 C48 0.928 . S
O17 Co1 2.057 . S
O17 C5 1.232 1_655 S
H18 C37 0.929 . S
H19 C38 0.929 . S
H20 C50 0.931 . S
H21 C42 0.929 . S
H22 C51 0.930 . S
H23 C43 0.931 . S
O24 Co0 2.097 . S
O24 C52 1.214 . S
H25 C53 0.929 . S
H26 C54 0.929 . S
H27 C55 0.930 . S
H28 C56 0.929 . S
H29 C58 0.930 . S
H30 C35 0.930 . S
H31 C39 0.930 . S
O32 Co1 2.037 . S
O32 C52 1.234 1_655 S
C33 O7 1.269 . S
C33 O8 1.257 . S
C34 H9 0.930 . S
C34 C37 1.388 . S
C34 C39 1.418 . S
C35 H30 0.930 . S
C35 C38 1.404 . S
C35 C39 1.353 . S
N36 Co1 2.145 . S
N36 C37 1.397 . S
N36 C38 1.334 . S
C37 H18 0.929 . S
C37 C34 1.388 . S
C37 N36 1.397 . S
C38 H19 0.929 . S
C38 C35 1.404 . S
C38 N36 1.334 . S
C39 H31 0.930 . S
C39 C34 1.418 . S
C39 C35 1.353 . S
C40 H10 0.930 . S
C40 N41 1.330 . S
C40 C42 1.446 . S
N41 Co0 2.151 . S
N41 C40 1.330 . S
N41 C45 1.418 . S
C42 H21 0.929 . S
C42 C40 1.446 . S
C42 C43 1.332 . S
C43 H23 0.931 . S
C43 C42 1.332 . S
C43 C44 1.267 . S
C44 H12 0.929 . S
C44 C43 1.267 . S
C44 C45 1.251 . S
C45 H15 0.929 . S
C45 N41 1.418 . S
C45 C44 1.251 . S
C46 H13 0.930 . S
C46 C48 1.406 . S
C46 C51 1.261 . S
C47 H14 0.930 . S
C47 N49 1.325 . S
C47 C50 1.357 . S
C48 H16 0.928 . S
C48 C46 1.406 . S
C48 N49 1.261 . S
N49 Co0 2.214 . S
N49 C47 1.325 . S
N49 C48 1.261 . S
C50 H20 0.931 . S
C50 C47 1.357 . S
C50 C51 1.312 . S
C51 H22 0.930 . S
C51 C46 1.261 . S
C51 C50 1.312 . S
C52 O24 1.214 . S
C52 O32 1.234 1_455 S
C53 H25 0.929 . S
C53 C56 1.391 . S
C53 C58 1.391 . S
C54 H26 0.929 . S
C54 C55 1.390 . S
C54 N57 1.391 . S
C55 H27 0.930 . S
C55 C54 1.390 . S
C55 C56 1.392 . S
C56 H28 0.929 . S
C56 C53 1.391 . S
C56 C55 1.392 . S
N57 Co1 2.257 . S
N57 C54 1.391 . S
N57 C58 1.388 . S
C58 H29 0.930 . S
C58 C53 1.391 . S
C58 N57 1.388 . S
Co59 O61 2.143 . S
Co59 O67 2.074 . S
Co59 O70 2.093 . S
Co59 O83 2.097 1_545 S
Co59 N100 2.151 . S
Co59 N108 2.214 . S
Co60 O61 2.160 1_565 S
Co60 O66 2.058 1_565 S
Co60 O76 2.057 . S
Co60 O91 2.037 . S
Co60 N95 2.145 . S
Co60 N116 2.257 . S
O61 Co59 2.143 . S
O61 Co60 2.160 1_545 S
C62 O63 1.278 1_545 S
C62 O70 1.224 . S
O63 C62 1.278 1_565 S
C64 O65 1.245 1_565 S
C64 O76 1.232 . S
O65 C64 1.245 1_545 S
O66 Co60 2.058 1_545 S
O66 C92 1.269 . S
O67 Co59 2.074 . S
O67 C92 1.257 . S
H68 C93 0.930 . S
H69 C99 0.930 . S
O70 Co59 2.093 . S
O70 C62 1.224 . S
H71 C103 0.929 . S
H72 C105 0.930 . S
H73 C106 0.930 . S
H74 C104 0.929 . S
H75 C107 0.928 . S
O76 Co60 2.057 . S
O76 C64 1.232 . S
H77 C96 0.929 . S
H78 C97 0.929 . S
H79 C109 0.931 . S
H80 C101 0.929 . S
H81 C110 0.930 . S
H82 C102 0.931 . S
O83 Co59 2.097 1_565 S
O83 C111 1.214 . S
H84 C112 0.929 . S
H85 C113 0.929 . S
H86 C114 0.930 . S
H87 C115 0.929 . S
H88 C117 0.930 . S
H89 C94 0.930 . S
H90 C98 0.930 . S
O91 Co60 2.037 . S
O91 C111 1.234 . S
C92 O66 1.269 . S
C92 O67 1.257 . S
C93 H68 0.930 . S
C93 C96 1.388 . S
C93 C98 1.418 . S
C94 H89 0.930 . S
C94 C97 1.404 . S
C94 C98 1.353 . S
N95 Co60 2.145 . S
N95 C96 1.397 . S
N95 C97 1.334 . S
C96 H77 0.929 . S
C96 C93 1.388 . S
C96 N95 1.397 . S
C97 H78 0.929 . S
C97 C94 1.404 . S
C97 N95 1.334 . S
C98 H90 0.930 . S
C98 C93 1.418 . S
C98 C94 1.353 . S
C99 H69 0.930 . S
C99 N100 1.330 . S
C99 C101 1.446 . S
N100 Co59 2.151 . S
N100 C99 1.330 . S
N100 C104 1.418 . S
C101 H80 0.929 . S
C101 C99 1.446 . S
C101 C102 1.332 . S
C102 H82 0.931 . S
C102 C101 1.332 . S
C102 C103 1.267 . S
C103 H71 0.929 . S
C103 C102 1.267 . S
C103 C104 1.251 . S
C104 H74 0.929 . S
C104 N100 1.418 . S
C104 C103 1.251 . S
C105 H72 0.930 . S
C105 C107 1.406 . S
C105 C110 1.261 . S
C106 H73 0.930 . S
C106 N108 1.325 . S
C106 C109 1.357 . S
C107 H75 0.928 . S
C107 C105 1.406 . S
C107 N108 1.261 . S
N108 Co59 2.214 . S
N108 C106 1.325 . S
N108 C107 1.261 . S
C109 H79 0.931 . S
C109 C106 1.357 . S
C109 C110 1.312 . S
C110 H81 0.930 . S
C110 C105 1.261 . S
C110 C109 1.312 . S
C111 O83 1.214 . S
C111 O91 1.234 . S
C112 H84 0.929 . S
C112 C115 1.391 . S
C112 C117 1.391 . S
C113 H85 0.929 . S
C113 C114 1.390 . S
C113 N116 1.391 . S
C114 H86 0.930 . S
C114 C113 1.390 . S
C114 C115 1.392 . S
C115 H87 0.929 . S
C115 C112 1.391 . S
C115 C114 1.392 . S
N116 Co60 2.257 . S
N116 C113 1.391 . S
N116 C117 1.388 . S
C117 H88 0.930 . S
C117 C112 1.391 . S
C117 N116 1.388 . S
Co118 O120 2.143 . S
Co118 O126 2.074 . S
Co118 O129 2.093 . S
Co118 O142 2.097 . S
Co118 N159 2.151 . S
Co118 N167 2.214 . S
Co119 O120 2.160 . S
Co119 O125 2.058 . S
Co119 O135 2.057 . S
Co119 O150 2.037 . S
Co119 N154 2.145 . S
Co119 N175 2.257 . S
O120 Co118 2.143 . S
O120 Co119 2.160 . S
C121 O122 1.278 . S
C121 O129 1.224 . S
O122 C121 1.278 . S
C123 O124 1.245 . S
C123 O135 1.232 . S
O124 C123 1.245 . S
O125 Co119 2.058 . S
O125 C151 1.269 . S
O126 Co118 2.074 . S
O126 C151 1.257 . S
H127 C152 0.930 . S
H128 C158 0.930 . S
O129 Co118 2.093 . S
O129 C121 1.224 . S
H130 C162 0.929 . S
H131 C164 0.930 . S
H132 C165 0.930 . S
H133 C163 0.929 . S
H134 C166 0.928 . S
O135 Co119 2.057 . S
O135 C123 1.232 . S
H136 C155 0.929 . S
H137 C156 0.929 . S
H138 C168 0.931 . S
H139 C160 0.929 . S
H140 C169 0.930 . S
H141 C161 0.931 . S
O142 Co118 2.097 . S
O142 C170 1.214 . S
H143 C171 0.929 . S
H144 C172 0.929 . S
H145 C173 0.930 . S
H146 C174 0.929 . S
H147 C176 0.930 . S
H148 C153 0.930 . S
H149 C157 0.930 . S
O150 Co119 2.037 . S
O150 C170 1.234 . S
C151 O125 1.269 . S
C151 O126 1.257 . S
C152 H127 0.930 . S
C152 C155 1.388 . S
C152 C157 1.418 . S
C153 H148 0.930 . S
C153 C156 1.404 . S
C153 C157 1.353 . S
N154 Co119 2.145 . S
N154 C155 1.397 . S
N154 C156 1.334 . S
C155 H136 0.929 . S
C155 C152 1.388 . S
C155 N154 1.397 . S
C156 H137 0.929 . S
C156 C153 1.404 . S
C156 N154 1.334 . S
C157 H149 0.930 . S
C157 C152 1.418 . S
C157 C153 1.353 . S
C158 H128 0.930 . S
C158 N159 1.330 . S
C158 C160 1.446 . S
N159 Co118 2.151 . S
N159 C158 1.330 . S
N159 C163 1.418 . S
C160 H139 0.929 . S
C160 C158 1.446 . S
C160 C161 1.332 . S
C161 H141 0.931 . S
C161 C160 1.332 . S
C161 C162 1.267 . S
C162 H130 0.929 . S
C162 C161 1.267 . S
C162 C163 1.251 . S
C163 H133 0.929 . S
C163 N159 1.418 . S
C163 C162 1.251 . S
C164 H131 0.930 . S
C164 C166 1.406 . S
C164 C169 1.261 . S
C165 H132 0.930 . S
C165 N167 1.325 . S
C165 C168 1.357 . S
C166 H134 0.928 . S
C166 C164 1.406 . S
C166 N167 1.261 . S
N167 Co118 2.214 . S
N167 C165 1.325 . S
N167 C166 1.261 . S
C168 H138 0.931 . S
C168 C165 1.357 . S
C168 C169 1.312 . S
C169 H140 0.930 . S
C169 C164 1.261 . S
C169 C168 1.312 . S
C170 O142 1.214 . S
C170 O150 1.234 . S
C171 H143 0.929 . S
C171 C174 1.391 . S
C171 C176 1.391 . S
C172 H144 0.929 . S
C172 C173 1.390 . S
C172 N175 1.391 . S
C173 H145 0.930 . S
C173 C172 1.390 . S
C173 C174 1.392 . S
C174 H146 0.929 . S
C174 C171 1.391 . S
C174 C173 1.392 . S
N175 Co119 2.257 . S
N175 C172 1.391 . S
N175 C176 1.388 . S
C176 H147 0.930 . S
C176 C171 1.391 . S
C176 N175 1.388 . S
Co177 O179 2.143 . S
Co177 O185 2.074 . S
Co177 O188 2.093 . S
Co177 O201 2.097 . S
Co177 N218 2.151 . S
Co177 N226 2.214 . S
Co178 O179 2.160 1_455 S
Co178 O184 2.058 1_455 S
Co178 O194 2.057 . S
Co178 O209 2.037 . S
Co178 N213 2.145 . S
Co178 N234 2.257 . S
O179 Co177 2.143 . S
O179 Co178 2.160 1_655 S
C180 O181 1.278 . S
C180 O188 1.224 . S
O181 C180 1.278 . S
C182 O183 1.245 . S
C182 O194 1.232 1_655 S
O183 C182 1.245 . S
O184 Co178 2.058 1_655 S
O184 C210 1.269 . S
O185 Co177 2.074 . S
O185 C210 1.257 . S
H186 C211 0.930 . S
H187 C217 0.930 . S
O188 Co177 2.093 . S
O188 C180 1.224 . S
H189 C221 0.929 . S
H190 C223 0.930 . S
H191 C224 0.930 . S
H192 C222 0.929 . S
H193 C225 0.928 . S
O194 Co178 2.057 . S
O194 C182 1.232 1_455 S
H195 C214 0.929 . S
H196 C215 0.929 . S
H197 C227 0.931 . S
H198 C219 0.929 . S
H199 C228 0.930 . S
H200 C220 0.931 . S
O201 Co177 2.097 . S
O201 C229 1.214 . S
H202 C230 0.929 . S
H203 C231 0.929 . S
H204 C232 0.930 . S
H205 C233 0.929 . S
H206 C235 0.930 . S
H207 C212 0.930 . S
H208 C216 0.930 . S
O209 Co178 2.037 . S
O209 C229 1.234 1_455 S
C210 O184 1.269 . S
C210 O185 1.257 . S
C211 H186 0.930 . S
C211 C214 1.388 . S
C211 C216 1.418 . S
C212 H207 0.930 . S
C212 C215 1.404 . S
C212 C216 1.353 . S
N213 Co178 2.145 . S
N213 C214 1.397 . S
N213 C215 1.334 . S
C214 H195 0.929 . S
C214 C211 1.388 . S
C214 N213 1.397 . S
C215 H196 0.929 . S
C215 C212 1.404 . S
C215 N213 1.334 . S
C216 H208 0.930 . S
C216 C211 1.418 . S
C216 C212 1.353 . S
C217 H187 0.930 . S
C217 N218 1.330 . S
C217 C219 1.446 . S
N218 Co177 2.151 . S
N218 C217 1.330 . S
N218 C222 1.418 . S
C219 H198 0.929 . S
C219 C217 1.446 . S
C219 C220 1.332 . S
C220 H200 0.931 . S
C220 C219 1.332 . S
C220 C221 1.267 . S
C221 H189 0.929 . S
C221 C220 1.267 . S
C221 C222 1.251 . S
C222 H192 0.929 . S
C222 N218 1.418 . S
C222 C221 1.251 . S
C223 H190 0.930 . S
C223 C225 1.406 . S
C223 C228 1.261 . S
C224 H191 0.930 . S
C224 N226 1.325 . S
C224 C227 1.357 . S
C225 H193 0.928 . S
C225 C223 1.406 . S
C225 N226 1.261 . S
N226 Co177 2.214 . S
N226 C224 1.325 . S
N226 C225 1.261 . S
C227 H197 0.931 . S
C227 C224 1.357 . S
C227 C228 1.312 . S
C228 H199 0.930 . S
C228 C223 1.261 . S
C228 C227 1.312 . S
C229 O201 1.214 . S
C229 O209 1.234 1_655 S
C230 H202 0.929 . S
C230 C233 1.391 . S
C230 C235 1.391 . S
C231 H203 0.929 . S
C231 C232 1.390 . S
C231 N234 1.391 . S
C232 H204 0.930 . S
C232 C231 1.390 . S
C232 C233 1.392 . S
C233 H205 0.929 . S
C233 C230 1.391 . S
C233 C232 1.392 . S
N234 Co178 2.257 . S
N234 C231 1.391 . S
N234 C235 1.388 . S
C235 H206 0.930 . S
C235 C230 1.391 . S
C235 N234 1.388 . S
Co236 O238 2.143 . S
Co236 O244 2.074 . S
Co236 O247 2.093 . S
Co236 O260 2.097 1_565 S
Co236 N277 2.151 . S
Co236 N285 2.214 . S
Co237 O238 2.160 1_545 S
Co237 O243 2.058 1_545 S
Co237 O253 2.057 . S
Co237 O268 2.037 . S
Co237 N272 2.145 . S
Co237 N293 2.257 . S
O238 Co236 2.143 . S
O238 Co237 2.160 1_565 S
C239 O240 1.278 1_565 S
C239 O247 1.224 . S
O240 C239 1.278 1_545 S
C241 O242 1.245 1_545 S
C241 O253 1.232 . S
O242 C241 1.245 1_565 S
O243 Co237 2.058 1_565 S
O243 C269 1.269 . S
O244 Co236 2.074 . S
O244 C269 1.257 . S
H245 C270 0.930 . S
H246 C276 0.930 . S
O247 Co236 2.093 . S
O247 C239 1.224 . S
H248 C280 0.929 . S
H249 C282 0.930 . S
H250 C283 0.930 . S
H251 C281 0.929 . S
H252 C284 0.928 . S
O253 Co237 2.057 . S
O253 C241 1.232 . S
H254 C273 0.929 . S
H255 C274 0.929 . S
H256 C286 0.931 . S
H257 C278 0.929 . S
H258 C287 0.930 . S
H259 C279 0.931 . S
O260 Co236 2.097 1_545 S
O260 C288 1.214 . S
H261 C289 0.929 . S
H262 C290 0.929 . S
H263 C291 0.930 . S
H264 C292 0.929 . S
H265 C294 0.930 . S
H266 C271 0.930 . S
H267 C275 0.930 . S
O268 Co237 2.037 . S
O268 C288 1.234 . S
C269 O243 1.269 . S
C269 O244 1.257 . S
C270 H245 0.930 . S
C270 C273 1.388 . S
C270 C275 1.418 . S
C271 H266 0.930 . S
C271 C274 1.404 . S
C271 C275 1.353 . S
N272 Co237 2.145 . S
N272 C273 1.397 . S
N272 C274 1.334 . S
C273 H254 0.929 . S
C273 C270 1.388 . S
C273 N272 1.397 . S
C274 H255 0.929 . S
C274 C271 1.404 . S
C274 N272 1.334 . S
C275 H267 0.930 . S
C275 C270 1.418 . S
C275 C271 1.353 . S
C276 H246 0.930 . S
C276 N277 1.330 . S
C276 C278 1.446 . S
N277 Co236 2.151 . S
N277 C276 1.330 . S
N277 C281 1.418 . S
C278 H257 0.929 . S
C278 C276 1.446 . S
C278 C279 1.332 . S
C279 H259 0.931 . S
C279 C278 1.332 . S
C279 C280 1.267 . S
C280 H248 0.929 . S
C280 C279 1.267 . S
C280 C281 1.251 . S
C281 H251 0.929 . S
C281 N277 1.418 . S
C281 C280 1.251 . S
C282 H249 0.930 . S
C282 C284 1.406 . S
C282 C287 1.261 . S
C283 H250 0.930 . S
C283 N285 1.325 . S
C283 C286 1.357 . S
C284 H252 0.928 . S
C284 C282 1.406 . S
C284 N285 1.261 . S
N285 Co236 2.214 . S
N285 C283 1.325 . S
N285 C284 1.261 . S
C286 H256 0.931 . S
C286 C283 1.357 . S
C286 C287 1.312 . S
C287 H258 0.930 . S
C287 C282 1.261 . S
C287 C286 1.312 . S
C288 O260 1.214 . S
C288 O268 1.234 . S
C289 H261 0.929 . S
C289 C292 1.391 . S
C289 C294 1.391 . S
C290 H262 0.929 . S
C290 C291 1.390 . S
C290 N293 1.391 . S
C291 H263 0.930 . S
C291 C290 1.390 . S
C291 C292 1.392 . S
C292 H264 0.929 . S
C292 C289 1.391 . S
C292 C291 1.392 . S
N293 Co237 2.257 . S
N293 C290 1.391 . S
N293 C294 1.388 . S
C294 H265 0.930 . S
C294 C289 1.391 . S
C294 N293 1.388 . S
Co295 O297 2.143 . S
Co295 O303 2.074 . S
Co295 O306 2.093 . S
Co295 O319 2.097 . S
Co295 N336 2.151 . S
Co295 N344 2.214 . S
Co296 O297 2.160 . S
Co296 O302 2.058 . S
Co296 O312 2.057 . S
Co296 O327 2.037 . S
Co296 N331 2.145 . S
Co296 N352 2.257 . S
O297 Co295 2.143 . S
O297 Co296 2.160 . S
C298 O299 1.278 . S
C298 O306 1.224 . S
O299 C298 1.278 . S
C300 O301 1.245 . S
C300 O312 1.232 . S
O301 C300 1.245 . S
O302 Co296 2.058 . S
O302 C328 1.269 . S
O303 Co295 2.074 . S
O303 C328 1.257 . S
H304 C329 0.930 . S
H305 C335 0.930 . S
O306 Co295 2.093 . S
O306 C298 1.224 . S
H307 C339 0.929 . S
H308 C341 0.930 . S
H309 C342 0.930 . S
H310 C340 0.929 . S
H311 C343 0.928 . S
O312 Co296 2.057 . S
O312 C300 1.232 . S
H313 C332 0.929 . S
H314 C333 0.929 . S
H315 C345 0.931 . S
H316 C337 0.929 . S
H317 C346 0.930 . S
H318 C338 0.931 . S
O319 Co295 2.097 . S
O319 C347 1.214 . S
H320 C348 0.929 . S
H321 C349 0.929 . S
H322 C350 0.930 . S
H323 C351 0.929 . S
H324 C353 0.930 . S
H325 C330 0.930 . S
H326 C334 0.930 . S
O327 Co296 2.037 . S
O327 C347 1.234 . S
C328 O302 1.269 . S
C328 O303 1.257 . S
C329 H304 0.930 . S
C329 C332 1.388 . S
C329 C334 1.418 . S
C330 H325 0.930 . S
C330 C333 1.404 . S
C330 C334 1.353 . S
N331 Co296 2.145 . S
N331 C332 1.397 . S
N331 C333 1.334 . S
C332 H313 0.929 . S
C332 C329 1.388 . S
C332 N331 1.397 . S
C333 H314 0.929 . S
C333 C330 1.404 . S
C333 N331 1.334 . S
C334 H326 0.930 . S
C334 C329 1.418 . S
C334 C330 1.353 . S
C335 H305 0.930 . S
C335 N336 1.330 . S
C335 C337 1.446 . S
N336 Co295 2.151 . S
N336 C335 1.330 . S
N336 C340 1.418 . S
C337 H316 0.929 . S
C337 C335 1.446 . S
C337 C338 1.332 . S
C338 H318 0.931 . S
C338 C337 1.332 . S
C338 C339 1.267 . S
C339 H307 0.929 . S
C339 C338 1.267 . S
C339 C340 1.251 . S
C340 H310 0.929 . S
C340 N336 1.418 . S
C340 C339 1.251 . S
C341 H308 0.930 . S
C341 C343 1.406 . S
C341 C346 1.261 . S
C342 H309 0.930 . S
C342 N344 1.325 . S
C342 C345 1.357 . S
C343 H311 0.928 . S
C343 C341 1.406 . S
C343 N344 1.261 . S
N344 Co295 2.214 . S
N344 C342 1.325 . S
N344 C343 1.261 . S
C345 H315 0.931 . S
C345 C342 1.357 . S
C345 C346 1.312 . S
C346 H317 0.930 . S
C346 C341 1.261 . S
C346 C345 1.312 . S
C347 O319 1.214 . S
C347 O327 1.234 . S
C348 H320 0.929 . S
C348 C351 1.391 . S
C348 C353 1.391 . S
C349 H321 0.929 . S
C349 C350 1.390 . S
C349 N352 1.391 . S
C350 H322 0.930 . S
C350 C349 1.390 . S
C350 C351 1.392 . S
C351 H323 0.929 . S
C351 C348 1.391 . S
C351 C350 1.392 . S
N352 Co296 2.257 . S
N352 C349 1.391 . S
N352 C353 1.388 . S
C353 H324 0.930 . S
C353 C348 1.391 . S
C353 N352 1.388 . S
Co354 O356 2.143 . S
Co354 O362 2.074 . S
Co354 O365 2.093 . S
Co354 O378 2.097 . S
Co354 N395 2.151 . S
Co354 N403 2.214 . S
Co355 O356 2.160 1_545 S
Co355 O361 2.058 1_545 S
Co355 O371 2.057 . S
Co355 O386 2.037 . S
Co355 N390 2.145 . S
Co355 N411 2.257 . S
O356 Co354 2.143 . S
O356 Co355 2.160 1_565 S
C357 O358 1.278 . S
C357 O365 1.224 . S
O358 C357 1.278 . S
C359 O360 1.245 1_545 S
C359 O371 1.232 . S
O360 C359 1.245 1_565 S
O361 Co355 2.058 1_565 S
O361 C387 1.269 . S
O362 Co354 2.074 . S
O362 C387 1.257 . S
H363 C388 0.930 . S
H364 C394 0.930 . S
O365 Co354 2.093 . S
O365 C357 1.224 . S
H366 C398 0.929 . S
H367 C400 0.930 . S
H368 C401 0.930 . S
H369 C399 0.929 . S
H370 C402 0.928 . S
O371 Co355 2.057 . S
O371 C359 1.232 . S
H372 C391 0.929 . S
H373 C392 0.929 . S
H374 C404 0.931 . S
H375 C396 0.929 . S
H376 C405 0.930 . S
H377 C397 0.931 . S
O378 Co354 2.097 . S
O378 C406 1.214 1_565 S
H379 C407 0.929 . S
H380 C408 0.929 . S
H381 C409 0.930 . S
H382 C410 0.929 . S
H383 C412 0.930 . S
H384 C389 0.930 . S
H385 C393 0.930 . S
O386 Co355 2.037 . S
O386 C406 1.234 . S
C387 O361 1.269 . S
C387 O362 1.257 . S
C388 H363 0.930 . S
C388 C391 1.388 . S
C388 C393 1.418 . S
C389 H384 0.930 . S
C389 C392 1.404 . S
C389 C393 1.353 . S
N390 Co355 2.145 . S
N390 C391 1.397 . S
N390 C392 1.334 . S
C391 H372 0.929 . S
C391 C388 1.388 . S
C391 N390 1.397 . S
C392 H373 0.929 . S
C392 C389 1.404 . S
C392 N390 1.334 . S
C393 H385 0.930 . S
C393 C388 1.418 . S
C393 C389 1.353 . S
C394 H364 0.930 . S
C394 N395 1.330 . S
C394 C396 1.446 . S
N395 Co354 2.151 . S
N395 C394 1.330 . S
N395 C399 1.418 . S
C396 H375 0.929 . S
C396 C394 1.446 . S
C396 C397 1.332 . S
C397 H377 0.931 . S
C397 C396 1.332 . S
C397 C398 1.267 . S
C398 H366 0.929 . S
C398 C397 1.267 . S
C398 C399 1.251 . S
C399 H369 0.929 . S
C399 N395 1.418 . S
C399 C398 1.251 . S
C400 H367 0.930 . S
C400 C402 1.406 . S
C400 C405 1.261 . S
C401 H368 0.930 . S
C401 N403 1.325 . S
C401 C404 1.357 . S
C402 H370 0.928 . S
C402 C400 1.406 . S
C402 N403 1.261 . S
N403 Co354 2.214 . S
N403 C401 1.325 . S
N403 C402 1.261 . S
C404 H374 0.931 . S
C404 C401 1.357 . S
C404 C405 1.312 . S
C405 H376 0.930 . S
C405 C400 1.261 . S
C405 C404 1.312 . S
C406 O378 1.214 1_545 S
C406 O386 1.234 . S
C407 H379 0.929 . S
C407 C410 1.391 . S
C407 C412 1.391 . S
C408 H380 0.929 . S
C408 C409 1.390 . S
C408 N411 1.391 . S
C409 H381 0.930 . S
C409 C408 1.390 . S
C409 C410 1.392 . S
C410 H382 0.929 . S
C410 C407 1.391 . S
C410 C409 1.392 . S
N411 Co355 2.257 . S
N411 C408 1.391 . S
N411 C412 1.388 . S
C412 H383 0.930 . S
C412 C407 1.391 . S
C412 N411 1.388 . S
Co413 O415 2.143 . S
Co413 O421 2.074 . S
Co413 O424 2.093 . S
Co413 O437 2.097 . S
Co413 N454 2.151 . S
Co413 N462 2.214 . S
Co414 O415 2.160 . S
Co414 O420 2.058 . S
Co414 O430 2.057 . S
Co414 O445 2.037 . S
Co414 N449 2.145 . S
Co414 N470 2.257 . S
O415 Co413 2.143 . S
O415 Co414 2.160 . S
C416 O417 1.278 . S
C416 O424 1.224 . S
O417 C416 1.278 . S
C418 O419 1.245 . S
C418 O430 1.232 . S
O419 C418 1.245 . S
O420 Co414 2.058 . S
O420 C446 1.269 . S
O421 Co413 2.074 . S
O421 C446 1.257 . S
H422 C447 0.930 . S
H423 C453 0.930 . S
O424 Co413 2.093 . S
O424 C416 1.224 . S
H425 C457 0.929 . S
H426 C459 0.930 . S
H427 C460 0.930 . S
H428 C458 0.929 . S
H429 C461 0.928 . S
O430 Co414 2.057 . S
O430 C418 1.232 . S
H431 C450 0.929 . S
H432 C451 0.929 . S
H433 C463 0.931 . S
H434 C455 0.929 . S
H435 C464 0.930 . S
H436 C456 0.931 . S
O437 Co413 2.097 . S
O437 C465 1.214 . S
H438 C466 0.929 . S
H439 C467 0.929 . S
H440 C468 0.930 . S
H441 C469 0.929 . S
H442 C471 0.930 . S
H443 C448 0.930 . S
H444 C452 0.930 . S
O445 Co414 2.037 . S
O445 C465 1.234 . S
C446 O420 1.269 . S
C446 O421 1.257 . S
C447 H422 0.930 . S
C447 C450 1.388 . S
C447 C452 1.418 . S
C448 H443 0.930 . S
C448 C451 1.404 . S
C448 C452 1.353 . S
N449 Co414 2.145 . S
N449 C450 1.397 . S
N449 C451 1.334 . S
C450 H431 0.929 . S
C450 C447 1.388 . S
C450 N449 1.397 . S
C451 H432 0.929 . S
C451 C448 1.404 . S
C451 N449 1.334 . S
C452 H444 0.930 . S
C452 C447 1.418 . S
C452 C448 1.353 . S
C453 H423 0.930 . S
C453 N454 1.330 . S
C453 C455 1.446 . S
N454 Co413 2.151 . S
N454 C453 1.330 . S
N454 C458 1.418 . S
C455 H434 0.929 . S
C455 C453 1.446 . S
C455 C456 1.332 . S
C456 H436 0.931 . S
C456 C455 1.332 . S
C456 C457 1.267 . S
C457 H425 0.929 . S
C457 C456 1.267 . S
C457 C458 1.251 . S
C458 H428 0.929 . S
C458 N454 1.418 . S
C458 C457 1.251 . S
C459 H426 0.930 . S
C459 C461 1.406 . S
C459 C464 1.261 . S
C460 H427 0.930 . S
C460 N462 1.325 . S
C460 C463 1.357 . S
C461 H429 0.928 . S
C461 C459 1.406 . S
C461 N462 1.261 . S
N462 Co413 2.214 . S
N462 C460 1.325 . S
N462 C461 1.261 . S
C463 H433 0.931 . S
C463 C460 1.357 . S
C463 C464 1.312 . S
C464 H435 0.930 . S
C464 C459 1.261 . S
C464 C463 1.312 . S
C465 O437 1.214 . S
C465 O445 1.234 . S
C466 H438 0.929 . S
C466 C469 1.391 . S
C466 C471 1.391 . S
C467 H439 0.929 . S
C467 C468 1.390 . S
C467 N470 1.391 . S
C468 H440 0.930 . S
C468 C467 1.390 . S
C468 C469 1.392 . S
C469 H441 0.929 . S
C469 C466 1.391 . S
C469 C468 1.392 . S
N470 Co414 2.257 . S
N470 C467 1.391 . S
N470 C471 1.388 . S
C471 H442 0.930 . S
C471 C466 1.391 . S
C471 N470 1.388 . S
Co472 O474 2.144 . S
Co472 O480 2.074 . S
Co472 O483 2.093 . S
Co472 O496 2.097 1_455 S
Co472 N513 2.151 . S
Co472 N521 2.214 . S
Co473 O474 2.155 1_655 S
Co473 O479 2.058 1_655 S
Co473 O489 2.057 . S
Co473 O504 2.037 . S
Co473 N508 2.145 . S
Co473 N529 2.257 . S
O474 Co472 2.144 . S
O474 Co473 2.155 1_455 S
C475 O476 1.278 1_455 S
C475 O483 1.224 . S
O476 C475 1.278 1_655 S
C477 O478 1.245 1_655 S
C477 O489 1.232 . S
O478 C477 1.245 1_455 S
O479 Co473 2.058 1_455 S
O479 C505 1.269 . S
O480 Co472 2.074 . S
O480 C505 1.257 . S
H481 C506 0.930 . S
H482 C512 0.930 . S
O483 Co472 2.093 . S
O483 C475 1.224 . S
H484 C516 0.929 . S
H485 C518 0.930 . S
H486 C519 0.930 . S
H487 C517 0.929 . S
H488 C520 0.928 . S
O489 Co473 2.057 . S
O489 C477 1.232 . S
H490 C509 0.929 . S
H491 C510 0.929 . S
H492 C522 0.931 . S
H493 C514 0.929 . S
H494 C523 0.930 . S
H495 C515 0.931 . S
O496 Co472 2.097 1_655 S
O496 C524 1.214 . S
H497 C525 0.929 . S
H498 C526 0.929 . S
H499 C527 0.930 . S
H500 C528 0.929 . S
H501 C530 0.930 . S
H502 C507 0.930 . S
H503 C511 0.930 . S
O504 Co473 2.037 . S
O504 C524 1.234 . S
C505 O479 1.269 . S
C505 O480 1.257 . S
C506 H481 0.930 . S
C506 C509 1.388 . S
C506 C511 1.418 . S
C507 H502 0.930 . S
C507 C510 1.404 . S
C507 C511 1.353 . S
N508 Co473 2.145 . S
N508 C509 1.397 . S
N508 C510 1.334 . S
C509 H490 0.929 . S
C509 C506 1.388 . S
C509 N508 1.397 . S
C510 H491 0.929 . S
C510 C507 1.404 . S
C510 N508 1.334 . S
C511 H503 0.930 . S
C511 C506 1.418 . S
C511 C507 1.353 . S
C512 H482 0.930 . S
C512 N513 1.330 . S
C512 C514 1.446 . S
N513 Co472 2.151 . S
N513 C512 1.330 . S
N513 C517 1.418 . S
C514 H493 0.929 . S
C514 C512 1.446 . S
C514 C515 1.332 . S
C515 H495 0.931 . S
C515 C514 1.332 . S
C515 C516 1.267 . S
C516 H484 0.929 . S
C516 C515 1.267 . S
C516 C517 1.251 . S
C517 H487 0.929 . S
C517 N513 1.418 . S
C517 C516 1.251 . S
C518 H485 0.930 . S
C518 C520 1.406 . S
C518 C523 1.261 . S
C519 H486 0.930 . S
C519 N521 1.325 . S
C519 C522 1.357 . S
C520 H488 0.928 . S
C520 C518 1.406 . S
C520 N521 1.261 . S
N521 Co472 2.214 . S
N521 C519 1.325 . S
N521 C520 1.261 . S
C522 H492 0.931 . S
C522 C519 1.357 . S
C522 C523 1.312 . S
C523 H494 0.930 . S
C523 C518 1.261 . S
C523 C522 1.312 . S
C524 O496 1.214 . S
C524 O504 1.234 . S
C525 H497 0.929 . S
C525 C528 1.391 . S
C525 C530 1.391 . S
C526 H498 0.929 . S
C526 C527 1.390 . S
C526 N529 1.391 . S
C527 H499 0.930 . S
C527 C526 1.390 . S
C527 C528 1.392 . S
C528 H500 0.929 . S
C528 C525 1.391 . S
C528 C527 1.392 . S
N529 Co473 2.257 . S
N529 C526 1.391 . S
N529 C530 1.388 . S
C530 H501 0.930 . S
C530 C525 1.391 . S
C530 N529 1.388 . S
Co531 O533 2.143 . S
Co531 O539 2.074 . S
Co531 O542 2.093 . S
Co531 O555 2.097 . S
Co531 N572 2.151 . S
Co531 N580 2.214 . S
Co532 O533 2.160 1_565 S
Co532 O538 2.058 1_565 S
Co532 O548 2.057 . S
Co532 O563 2.037 . S
Co532 N567 2.145 . S
Co532 N588 2.257 . S
O533 Co531 2.143 . S
O533 Co532 2.160 1_545 S
C534 O535 1.278 . S
C534 O542 1.224 . S
O535 C534 1.278 . S
C536 O537 1.239 1_565 S
C536 O548 1.232 . S
O537 C536 1.239 1_545 S
O538 Co532 2.058 1_545 S
O538 C564 1.269 . S
O539 Co531 2.074 . S
O539 C564 1.257 . S
H540 C565 0.930 . S
H541 C571 0.930 . S
O542 Co531 2.093 . S
O542 C534 1.224 . S
H543 C575 0.929 . S
H544 C577 0.930 . S
H545 C578 0.930 . S
H546 C576 0.929 . S
H547 C579 0.928 . S
O548 Co532 2.057 . S
O548 C536 1.232 . S
H549 C568 0.929 . S
H550 C569 0.929 . S
H551 C581 0.931 . S
H552 C573 0.929 . S
H553 C582 0.930 . S
H554 C574 0.931 . S
O555 Co531 2.097 . S
O555 C583 1.214 1_545 S
H556 C584 0.929 . S
H557 C585 0.929 . S
H558 C586 0.930 . S
H559 C587 0.929 . S
H560 C589 0.930 . S
H561 C566 0.930 . S
H562 C570 0.930 . S
O563 Co532 2.037 . S
O563 C583 1.234 . S
C564 O538 1.269 . S
C564 O539 1.257 . S
C565 H540 0.930 . S
C565 C568 1.388 . S
C565 C570 1.418 . S
C566 H561 0.930 . S
C566 C569 1.404 . S
C566 C570 1.353 . S
N567 Co532 2.145 . S
N567 C568 1.397 . S
N567 C569 1.334 . S
C568 H549 0.929 . S
C568 C565 1.388 . S
C568 N567 1.397 . S
C569 H550 0.929 . S
C569 C566 1.404 . S
C569 N567 1.334 . S
C570 H562 0.930 . S
C570 C565 1.418 . S
C570 C566 1.353 . S
C571 H541 0.930 . S
C571 N572 1.330 . S
C571 C573 1.446 . S
N572 Co531 2.151 . S
N572 C571 1.330 . S
N572 C576 1.418 . S
C573 H552 0.929 . S
C573 C571 1.446 . S
C573 C574 1.332 . S
C574 H554 0.931 . S
C574 C573 1.332 . S
C574 C575 1.267 . S
C575 H543 0.929 . S
C575 C574 1.267 . S
C575 C576 1.251 . S
C576 H546 0.929 . S
C576 N572 1.418 . S
C576 C575 1.251 . S
C577 H544 0.930 . S
C577 C579 1.406 . S
C577 C582 1.261 . S
C578 H545 0.930 . S
C578 N580 1.325 . S
C578 C581 1.357 . S
C579 H547 0.928 . S
C579 C577 1.406 . S
C579 N580 1.261 . S
N580 Co531 2.214 . S
N580 C578 1.325 . S
N580 C579 1.261 . S
C581 H551 0.931 . S
C581 C578 1.357 . S
C581 C582 1.312 . S
C582 H553 0.930 . S
C582 C577 1.261 . S
C582 C581 1.312 . S
C583 O555 1.214 1_565 S
C583 O563 1.234 . S
C584 H556 0.929 . S
C584 C587 1.391 . S
C584 C589 1.391 . S
C585 H557 0.929 . S
C585 C586 1.390 . S
C585 N588 1.391 . S
C586 H558 0.930 . S
C586 C585 1.390 . S
C586 C587 1.392 . S
C587 H559 0.929 . S
C587 C584 1.391 . S
C587 C586 1.392 . S
N588 Co532 2.257 . S
N588 C585 1.391 . S
N588 C589 1.388 . S
C589 H560 0.930 . S
C589 C584 1.391 . S
C589 N588 1.388 . S
Co590 O592 2.143 . S
Co590 O598 2.074 . S
Co590 O601 2.093 . S
Co590 O614 2.097 . S
Co590 N631 2.151 . S
Co590 N639 2.214 . S
Co591 O592 2.160 . S
Co591 O597 2.058 . S
Co591 O607 2.057 . S
Co591 O622 2.037 . S
Co591 N626 2.145 . S
Co591 N647 2.257 . S
O592 Co590 2.143 . S
O592 Co591 2.160 . S
C593 O594 1.278 . S
C593 O601 1.224 . S
O594 C593 1.278 . S
C595 O596 1.245 . S
C595 O607 1.232 . S
O596 C595 1.245 . S
O597 Co591 2.058 . S
O597 C623 1.269 . S
O598 Co590 2.074 . S
O598 C623 1.257 . S
H599 C624 0.930 . S
H600 C630 0.930 . S
O601 Co590 2.093 . S
O601 C593 1.224 . S
H602 C634 0.929 . S
H603 C636 0.930 . S
H604 C637 0.930 . S
H605 C635 0.929 . S
H606 C638 0.928 . S
O607 Co591 2.057 . S
O607 C595 1.232 . S
H608 C627 0.929 . S
H609 C628 0.929 . S
H610 C640 0.931 . S
H611 C632 0.929 . S
H612 C641 0.930 . S
H613 C633 0.931 . S
O614 Co590 2.097 . S
O614 C642 1.214 . S
H615 C643 0.929 . S
H616 C644 0.929 . S
H617 C645 0.930 . S
H618 C646 0.929 . S
H619 C648 0.930 . S
H620 C625 0.930 . S
H621 C629 0.930 . S
O622 Co591 2.037 . S
O622 C642 1.234 . S
C623 O597 1.269 . S
C623 O598 1.257 . S
C624 H599 0.930 . S
C624 C627 1.388 . S
C624 C629 1.418 . S
C625 H620 0.930 . S
C625 C628 1.404 . S
C625 C629 1.353 . S
N626 Co591 2.145 . S
N626 C627 1.397 . S
N626 C628 1.334 . S
C627 H608 0.929 . S
C627 C624 1.388 . S
C627 N626 1.397 . S
C628 H609 0.929 . S
C628 C625 1.404 . S
C628 N626 1.334 . S
C629 H621 0.930 . S
C629 C624 1.418 . S
C629 C625 1.353 . S
C630 H600 0.930 . S
C630 N631 1.330 . S
C630 C632 1.446 . S
N631 Co590 2.151 . S
N631 C630 1.330 . S
N631 C635 1.418 . S
C632 H611 0.929 . S
C632 C630 1.446 . S
C632 C633 1.332 . S
C633 H613 0.931 . S
C633 C632 1.332 . S
C633 C634 1.267 . S
C634 H602 0.929 . S
C634 C633 1.267 . S
C634 C635 1.251 . S
C635 H605 0.929 . S
C635 N631 1.418 . S
C635 C634 1.251 . S
C636 H603 0.930 . S
C636 C638 1.406 . S
C636 C641 1.261 . S
C637 H604 0.930 . S
C637 N639 1.325 . S
C637 C640 1.357 . S
C638 H606 0.928 . S
C638 C636 1.406 . S
C638 N639 1.261 . S
N639 Co590 2.214 . S
N639 C637 1.325 . S
N639 C638 1.261 . S
C640 H610 0.931 . S
C640 C637 1.357 . S
C640 C641 1.312 . S
C641 H612 0.930 . S
C641 C636 1.261 . S
C641 C640 1.312 . S
C642 O614 1.214 . S
C642 O622 1.234 . S
C643 H615 0.929 . S
C643 C646 1.391 . S
C643 C648 1.391 . S
C644 H616 0.929 . S
C644 C645 1.390 . S
C644 N647 1.391 . S
C645 H617 0.930 . S
C645 C644 1.390 . S
C645 C646 1.392 . S
C646 H618 0.929 . S
C646 C643 1.391 . S
C646 C645 1.392 . S
N647 Co591 2.257 . S
N647 C644 1.391 . S
N647 C648 1.388 . S
C648 H619 0.930 . S
C648 C643 1.391 . S
C648 N647 1.388 . S
Co649 O651 2.144 . S
Co649 O657 2.074 . S
Co649 O660 2.093 . S
Co649 O673 2.097 1_655 S
Co649 N690 2.151 . S
Co649 N698 2.214 . S
Co650 O651 2.155 1_455 S
Co650 O656 2.058 1_455 S
Co650 O666 2.057 . S
Co650 O681 2.037 . S
Co650 N685 2.145 . S
Co650 N706 2.257 . S
O651 Co649 2.144 . S
O651 Co650 2.155 1_655 S
C652 O653 1.278 1_655 S
C652 O660 1.224 . S
O653 C652 1.278 1_455 S
C654 O655 1.245 1_455 S
C654 O666 1.232 . S
O655 C654 1.245 1_655 S
O656 Co650 2.058 1_655 S
O656 C682 1.269 . S
O657 Co649 2.074 . S
O657 C682 1.257 . S
H658 C683 0.930 . S
H659 C689 0.930 . S
O660 Co649 2.093 . S
O660 C652 1.224 . S
H661 C693 0.929 . S
H662 C695 0.930 . S
H663 C696 0.930 . S
H664 C694 0.929 . S
H665 C697 0.928 . S
O666 Co650 2.057 . S
O666 C654 1.232 . S
H667 C686 0.929 . S
H668 C687 0.929 . S
H669 C699 0.931 . S
H670 C691 0.929 . S
H671 C700 0.930 . S
H672 C692 0.931 . S
O673 Co649 2.097 1_455 S
O673 C701 1.214 . S
H674 C702 0.929 . S
H675 C703 0.929 . S
H676 C704 0.930 . S
H677 C705 0.929 . S
H678 C707 0.930 . S
H679 C684 0.930 . S
H680 C688 0.930 . S
O681 Co650 2.037 . S
O681 C701 1.234 . S
C682 O656 1.269 . S
C682 O657 1.257 . S
C683 H658 0.930 . S
C683 C686 1.388 . S
C683 C688 1.418 . S
C684 H679 0.930 . S
C684 C687 1.404 . S
C684 C688 1.353 . S
N685 Co650 2.145 . S
N685 C686 1.397 . S
N685 C687 1.334 . S
C686 H667 0.929 . S
C686 C683 1.388 . S
C686 N685 1.397 . S
C687 H668 0.929 . S
C687 C684 1.404 . S
C687 N685 1.334 . S
C688 H680 0.930 . S
C688 C683 1.418 . S
C688 C684 1.353 . S
C689 H659 0.930 . S
C689 N690 1.330 . S
C689 C691 1.446 . S
N690 Co649 2.151 . S
N690 C689 1.330 . S
N690 C694 1.418 . S
C691 H670 0.929 . S
C691 C689 1.446 . S
C691 C692 1.332 . S
C692 H672 0.931 . S
C692 C691 1.332 . S
C692 C693 1.267 . S
C693 H661 0.929 . S
C693 C692 1.267 . S
C693 C694 1.251 . S
C694 H664 0.929 . S
C694 N690 1.418 . S
C694 C693 1.251 . S
C695 H662 0.930 . S
C695 C697 1.406 . S
C695 C700 1.261 . S
C696 H663 0.930 . S
C696 N698 1.325 . S
C696 C699 1.357 . S
C697 H665 0.928 . S
C697 C695 1.406 . S
C697 N698 1.261 . S
N698 Co649 2.214 . S
N698 C696 1.325 . S
N698 C697 1.261 . S
C699 H669 0.931 . S
C699 C696 1.357 . S
C699 C700 1.312 . S
C700 H671 0.930 . S
C700 C695 1.261 . S
C700 C699 1.312 . S
C701 O673 1.214 . S
C701 O681 1.234 . S
C702 H674 0.929 . S
C702 C705 1.391 . S
C702 C707 1.391 . S
C703 H675 0.929 . S
C703 C704 1.390 . S
C703 N706 1.391 . S
C704 H676 0.930 . S
C704 C703 1.390 . S
C704 C705 1.392 . S
C705 H677 0.929 . S
C705 C702 1.391 . S
C705 C704 1.392 . S
N706 Co650 2.257 . S
N706 C703 1.391 . S
N706 C707 1.388 . S
C707 H678 0.930 . S
C707 C702 1.391 . S
C707 N706 1.388 . S
H708 C726 0.951 . S
H709 C728 0.951 . S
H710 C730 0.950 . S
H711 C731 0.950 . S
H712 C733 0.950 . S
H713 C736 0.950 . S
H714 C737 0.950 . S
H715 C739 0.950 . S
H716 C740 0.950 . S
H717 C741 0.951 . S
H718 C743 0.951 . S
H719 C745 0.950 . S
H720 C746 0.950 . S
H721 C748 0.950 . S
H722 C751 0.950 . S
H723 C752 0.950 . S
H724 C754 0.950 . S
H725 C755 0.950 . S
C726 H708 0.951 . S
C726 C727 1.366 1_455 S
C726 C728 1.388 . S
C727 C726 1.366 1_655 S
C727 C731 1.385 . S
C728 H709 0.951 . S
C728 C726 1.388 . S
C728 C729 1.366 . S
C729 C728 1.366 . S
C729 C730 1.414 1_455 S
C729 C732 1.499 . S
C730 H710 0.950 . S
C730 C729 1.414 1_655 S
C730 C731 1.374 . S
C731 H711 0.950 . S
C731 C727 1.385 . S
C731 C730 1.374 . S
C732 C729 1.499 . S
C732 C733 1.373 1_455 S
C732 C734 1.389 . S
C733 H712 0.950 . S
C733 C732 1.373 1_655 S
C733 C749 1.377 . S
C734 C732 1.389 . S
C734 C735 1.524 . S
C734 C748 1.377 . S
C735 C734 1.524 . S
C735 C736 1.397 . S
C735 C740 1.363 . S
C736 H713 0.950 . S
C736 C735 1.397 . S
C736 C737 1.334 . S
C737 H714 0.950 . S
C737 C736 1.334 . S
C737 C738 1.287 . S
C738 C737 1.287 . S
C738 C739 1.524 . S
C738 H757 0.913 . S
C739 H715 0.950 . S
C739 C738 1.524 . S
C739 C740 1.415 . S
C740 H716 0.950 . S
C740 C735 1.363 . S
C740 C739 1.415 . S
C741 H717 0.951 . S
C741 C742 1.366 . S
C741 C743 1.388 . S
C742 C741 1.366 . S
C742 C746 1.385 . S
C743 H718 0.951 . S
C743 C741 1.388 . S
C743 C744 1.366 . S
C744 C743 1.366 . S
C744 C745 1.414 . S
C744 C747 1.499 . S
C745 H719 0.950 . S
C745 C744 1.414 . S
C745 C746 1.374 . S
C746 H720 0.950 . S
C746 C742 1.385 . S
C746 C745 1.374 . S
C747 C744 1.499 . S
C747 C748 1.373 . S
C747 C749 1.389 1_455 S
C748 H721 0.950 . S
C748 C734 1.377 . S
C748 C747 1.373 . S
C749 C733 1.377 . S
C749 C747 1.389 1_655 S
C749 C750 1.524 . S
C750 C749 1.524 . S
C750 C751 1.397 . S
C750 C755 1.363 . S
C751 H722 0.950 . S
C751 C750 1.397 . S
C751 C752 1.334 . S
C752 H723 0.950 . S
C752 C751 1.334 . S
C752 C753 1.287 . S
C753 C752 1.287 . S
C753 C754 1.524 . S
C753 H756 0.999 . S
C754 H724 0.950 . S
C754 C753 1.524 . S
C754 C755 1.415 . S
C755 H725 0.950 . S
C755 C750 1.363 . S
C755 C754 1.415 . S
H756 C753 0.999 . S
H757 C738 0.913 . S
H758 C776 0.951 . S
H759 C778 0.951 . S
H760 C780 0.950 . S
H761 C781 0.950 . S
H762 C783 0.950 . S
H763 C786 0.950 . S
H764 C787 0.950 . S
H765 C789 0.950 . S
H766 C790 0.950 . S
H767 C791 0.951 . S
H768 C793 0.951 . S
H769 C795 0.950 . S
H770 C796 0.939 1_545 S
H771 C798 0.950 1_545 S
H772 C801 0.950 1_545 S
H773 C802 0.968 . S
H774 C804 0.950 . S
H775 C805 0.950 . S
C776 H758 0.951 . S
C776 C777 1.366 . S
C776 C778 1.388 . S
C777 C776 1.366 . S
C777 C781 1.385 1_545 S
C778 H759 0.951 . S
C778 C776 1.388 . S
C778 C779 1.366 1_545 S
C779 C778 1.366 1_565 S
C779 C780 1.414 . S
C779 C782 1.499 . S
C780 H760 0.950 . S
C780 C779 1.414 . S
C780 C781 1.374 . S
C781 H761 0.950 . S
C781 C777 1.385 1_565 S
C781 C780 1.374 . S
C782 C779 1.499 . S
C782 C783 1.373 . S
C782 C784 1.387 . S
C783 H762 0.950 . S
C783 C782 1.373 . S
C783 C799 1.377 . S
C784 C782 1.387 . S
C784 C785 1.527 1_565 S
C784 C798 1.377 . S
C785 C784 1.527 1_545 S
C785 C786 1.397 1_545 S
C785 C790 1.363 . S
C786 H763 0.950 . S
C786 C785 1.397 1_565 S
C786 C787 1.334 . S
C787 H764 0.950 . S
C787 C786 1.334 . S
C787 C788 1.287 1_565 S
C788 C787 1.287 1_545 S
C788 C789 1.524 . S
C788 H807 0.913 . S
C789 H765 0.950 . S
C789 C788 1.524 . S
C789 C790 1.415 . S
C790 H766 0.950 . S
C790 C785 1.363 . S
C790 C789 1.415 . S
C791 H767 0.951 . S
C791 C792 1.366 . S
C791 C793 1.388 . S
C792 C791 1.366 . S
C792 C796 1.399 . S
C793 H768 0.951 . S
C793 C791 1.388 . S
C793 C794 1.366 . S
C794 C793 1.366 . S
C794 C795 1.414 1_565 S
C794 C797 1.499 . S
C795 H769 0.950 . S
C795 C794 1.414 1_545 S
C795 C796 1.371 1_545 S
C796 H770 0.939 1_565 S
C796 C792 1.399 . S
C796 C795 1.371 1_565 S
C797 C794 1.499 . S
C797 C798 1.373 . S
C797 C799 1.389 . S
C798 H771 0.950 1_565 S
C798 C784 1.377 . S
C798 C797 1.373 . S
C799 C783 1.377 . S
C799 C797 1.389 . S
C799 C800 1.524 . S
C800 C799 1.524 . S
C800 C801 1.397 . S
C800 C805 1.363 . S
C801 H772 0.950 1_565 S
C801 C800 1.397 . S
C801 C802 1.334 . S
C802 H773 0.968 . S
C802 C801 1.334 . S
C802 C803 1.287 . S
C803 C802 1.287 . S
C803 C804 1.524 . S
C803 H806 0.999 . S
C804 H774 0.950 . S
C804 C803 1.524 . S
C804 C805 1.415 . S
C805 H775 0.950 . S
C805 C800 1.363 . S
C805 C804 1.415 . S
H806 C803 0.999 . S
H807 C788 0.913 . S
H808 C826 0.951 . S
H809 C828 0.951 . S
H810 C830 0.950 . S
H811 C831 0.950 . S
H812 C833 0.950 . S
H813 C836 0.950 . S
H814 C837 0.950 . S
H815 C839 0.950 . S
H816 C840 0.950 . S
H817 C841 0.951 . S
H818 C843 0.951 . S
H819 C845 0.950 . S
H820 C846 0.950 . S
H821 C848 0.950 . S
H822 C851 0.950 . S
H823 C852 0.950 . S
H824 C854 0.950 . S
H825 C855 0.950 . S
C826 H808 0.951 . S
C826 C827 1.366 . S
C826 C828 1.388 . S
C827 C826 1.366 . S
C827 C831 1.385 . S
C828 H809 0.951 . S
C828 C826 1.388 . S
C828 C829 1.366 . S
C829 C828 1.366 . S
C829 C830 1.414 . S
C829 C832 1.499 . S
C830 H810 0.950 . S
C830 C829 1.414 . S
C830 C831 1.374 . S
C831 H811 0.950 . S
C831 C827 1.385 . S
C831 C830 1.374 . S
C832 C829 1.499 . S
C832 C833 1.373 . S
C832 C834 1.389 . S
C833 H812 0.950 . S
C833 C832 1.373 . S
C833 C849 1.377 . S
C834 C832 1.389 . S
C834 C835 1.524 . S
C834 C848 1.377 . S
C835 C834 1.524 . S
C835 C836 1.397 . S
C835 C840 1.363 . S
C836 H813 0.950 . S
C836 C835 1.397 . S
C836 C837 1.334 . S
C837 H814 0.950 . S
C837 C836 1.334 . S
C837 C838 1.287 . S
C838 C837 1.287 . S
C838 C839 1.524 . S
C838 H857 0.913 . S
C839 H815 0.950 . S
C839 C838 1.524 . S
C839 C840 1.415 . S
C840 H816 0.950 . S
C840 C835 1.363 . S
C840 C839 1.415 . S
C841 H817 0.951 . S
C841 C842 1.366 . S
C841 C843 1.388 . S
C842 C841 1.366 . S
C842 C846 1.385 . S
C843 H818 0.951 . S
C843 C841 1.388 . S
C843 C844 1.366 . S
C844 C843 1.366 . S
C844 C845 1.414 . S
C844 C847 1.499 . S
C845 H819 0.950 . S
C845 C844 1.414 . S
C845 C846 1.374 . S
C846 H820 0.950 . S
C846 C842 1.385 . S
C846 C845 1.374 . S
C847 C844 1.499 . S
C847 C848 1.373 . S
C847 C849 1.389 . S
C848 H821 0.950 . S
C848 C834 1.377 . S
C848 C847 1.373 . S
C849 C833 1.377 . S
C849 C847 1.389 . S
C849 C850 1.524 . S
C850 C849 1.524 . S
C850 C851 1.397 . S
C850 C855 1.363 . S
C851 H822 0.950 . S
C851 C850 1.397 . S
C851 C852 1.334 . S
C852 H823 0.950 . S
C852 C851 1.334 . S
C852 C853 1.287 . S
C853 C852 1.287 . S
C853 C854 1.524 . S
C853 H856 0.999 . S
C854 H824 0.950 . S
C854 C853 1.524 . S
C854 C855 1.415 . S
C855 H825 0.950 . S
C855 C850 1.363 . S
C855 C854 1.415 . S
H856 C853 0.999 . S
H857 C838 0.913 . S
H858 C876 0.951 . S
H859 C878 0.951 . S
H860 C880 0.950 1_455 S
H861 C881 0.950 1_455 S
H862 C883 0.950 . S
H863 C886 0.950 . S
H864 C887 0.950 . S
H865 C889 0.950 . S
H866 C890 0.950 . S
H867 C891 0.951 . S
H868 C893 0.951 . S
H869 C895 0.950 . S
H870 C896 0.950 . S
H871 C898 0.950 . S
H872 C901 0.950 . S
H873 C902 0.950 . S
H874 C904 0.950 . S
H875 C905 0.950 . S
C876 H858 0.951 . S
C876 C877 1.366 . S
C876 C878 1.388 . S
C877 C876 1.366 . S
C877 C881 1.385 . S
C878 H859 0.951 . S
C878 C876 1.388 . S
C878 C879 1.366 . S
C879 C878 1.366 . S
C879 C880 1.414 . S
C879 C882 1.499 . S
C880 H860 0.950 1_655 S
C880 C879 1.414 . S
C880 C881 1.374 . S
C881 H861 0.950 1_655 S
C881 C877 1.385 . S
C881 C880 1.374 . S
C882 C879 1.499 . S
C882 C883 1.373 1_655 S
C882 C884 1.389 . S
C883 H862 0.950 . S
C883 C882 1.373 1_455 S
C883 C899 1.377 . S
C884 C882 1.389 . S
C884 C885 1.524 . S
C884 C898 1.377 . S
C885 C884 1.524 . S
C885 C886 1.397 . S
C885 C890 1.363 . S
C886 H863 0.950 . S
C886 C885 1.397 . S
C886 C887 1.334 . S
C887 H864 0.950 . S
C887 C886 1.334 . S
C887 C888 1.287 . S
C888 C887 1.287 . S
C888 C889 1.524 . S
C888 H907 0.913 . S
C889 H865 0.950 . S
C889 C888 1.524 . S
C889 C890 1.415 . S
C890 H866 0.950 . S
C890 C885 1.363 . S
C890 C889 1.415 . S
C891 H867 0.951 . S
C891 C892 1.366 . S
C891 C893 1.388 . S
C892 C891 1.366 . S
C892 C896 1.385 1_455 S
C893 H868 0.951 . S
C893 C891 1.388 . S
C893 C894 1.366 1_455 S
C894 C893 1.366 1_655 S
C894 C895 1.414 . S
C894 C897 1.499 . S
C895 H869 0.950 . S
C895 C894 1.414 . S
C895 C896 1.374 . S
C896 H870 0.950 . S
C896 C892 1.385 1_655 S
C896 C895 1.374 . S
C897 C894 1.499 . S
C897 C898 1.373 . S
C897 C899 1.389 1_655 S
C898 H871 0.950 . S
C898 C884 1.377 . S
C898 C897 1.373 . S
C899 C883 1.377 . S
C899 C897 1.389 1_455 S
C899 C900 1.524 . S
C900 C899 1.524 . S
C900 C901 1.397 . S
C900 C905 1.363 . S
C901 H872 0.950 . S
C901 C900 1.397 . S
C901 C902 1.334 . S
C902 H873 0.950 . S
C902 C901 1.334 . S
C902 C903 1.287 . S
C903 C902 1.287 . S
C903 C904 1.524 . S
C903 H906 0.999 . S
C904 H874 0.950 . S
C904 C903 1.524 . S
C904 C905 1.415 . S
C905 H875 0.950 . S
C905 C900 1.363 . S
C905 C904 1.415 . S
H906 C903 0.999 . S
H907 C888 0.913 . S
H908 C926 0.951 . S
H909 C928 0.951 1_565 S
H910 C930 0.950 . S
H911 C931 0.950 . S
H912 C933 0.950 . S
H913 C936 0.950 . S
H914 C937 0.950 . S
H915 C939 0.950 . S
H916 C940 0.950 . S
H917 C941 0.951 . S
H918 C943 0.951 . S
H919 C945 0.950 . S
H920 C946 0.950 . S
H921 C948 0.950 . S
H922 C951 0.950 . S
H923 C952 0.950 . S
H924 C954 0.950 . S
H925 C955 0.950 . S
C926 H908 0.951 . S
C926 C927 1.366 . S
C926 C928 1.388 . S
C927 C926 1.366 . S
C927 C931 1.385 . S
C928 H909 0.951 1_545 S
C928 C926 1.388 . S
C928 C929 1.366 . S
C929 C928 1.366 . S
C929 C930 1.414 . S
C929 C932 1.499 . S
C930 H910 0.950 . S
C930 C929 1.414 . S
C930 C931 1.374 . S
C931 H911 0.950 . S
C931 C927 1.385 . S
C931 C930 1.374 . S
C932 C929 1.499 . S
C932 C933 1.373 . S
C932 C934 1.389 1_545 S
C933 H912 0.950 . S
C933 C932 1.373 . S
C933 C949 1.377 . S
C934 C932 1.389 1_565 S
C934 C935 1.524 . S
C934 C948 1.377 . S
C935 C934 1.524 . S
C935 C936 1.397 . S
C935 C940 1.363 . S
C936 H913 0.950 . S
C936 C935 1.397 . S
C936 C937 1.334 . S
C937 H914 0.950 . S
C937 C936 1.334 . S
C937 C938 1.287 . S
C938 C937 1.287 . S
C938 C939 1.524 . S
C938 H957 0.913 . S
C939 H915 0.950 . S
C939 C938 1.524 . S
C939 C940 1.415 . S
C940 H916 0.950 . S
C940 C935 1.363 . S
C940 C939 1.415 . S
C941 H917 0.951 . S
C941 C942 1.366 1_545 S
C941 C943 1.388 . S
C942 C941 1.366 1_565 S
C942 C946 1.385 . S
C943 H918 0.951 . S
C943 C941 1.388 . S
C943 C944 1.366 . S
C944 C943 1.366 . S
C944 C945 1.414 1_545 S
C944 C947 1.499 . S
C945 H919 0.950 . S
C945 C944 1.414 1_565 S
C945 C946 1.374 . S
C946 H920 0.950 . S
C946 C942 1.385 . S
C946 C945 1.374 . S
C947 C944 1.499 . S
C947 C948 1.373 1_545 S
C947 C949 1.389 . S
C948 H921 0.950 . S
C948 C934 1.377 . S
C948 C947 1.373 1_565 S
C949 C933 1.377 . S
C949 C947 1.389 . S
C949 C950 1.524 . S
C950 C949 1.524 . S
C950 C951 1.397 . S
C950 C955 1.363 . S
C951 H922 0.950 . S
C951 C950 1.397 . S
C951 C952 1.334 . S
C952 H923 0.950 . S
C952 C951 1.334 . S
C952 C953 1.287 . S
C953 C952 1.287 . S
C953 C954 1.524 . S
C953 H956 0.999 . S
C954 H924 0.950 . S
C954 C953 1.524 . S
C954 C955 1.415 . S
C955 H925 0.950 . S
C955 C950 1.363 . S
C955 C954 1.415 . S
H956 C953 0.999 . S
H957 C938 0.913 . S
H958 C976 0.951 . S
H959 C978 0.951 . S
H960 C980 0.950 . S
H961 C981 0.950 . S
H962 C983 0.950 . S
H963 C986 0.950 . S
H964 C987 0.950 . S
H965 C989 0.950 . S
H966 C990 0.950 . S
H967 C991 0.951 . S
H968 C993 0.951 . S
H969 C995 0.950 . S
H970 C996 0.950 . S
H971 C998 0.950 . S
H972 C1001 0.950 . S
H973 C1002 0.950 . S
H974 C1004 0.950 . S
H975 C1005 0.950 . S
C976 H958 0.951 . S
C976 C977 1.366 . S
C976 C978 1.388 . S
C977 C976 1.366 . S
C977 C981 1.385 . S
C978 H959 0.951 . S
C978 C976 1.388 . S
C978 C979 1.366 . S
C979 C978 1.366 . S
C979 C980 1.414 . S
C979 C982 1.499 . S
C980 H960 0.950 . S
C980 C979 1.414 . S
C980 C981 1.374 . S
C981 H961 0.950 . S
C981 C977 1.385 . S
C981 C980 1.374 . S
C982 C979 1.499 . S
C982 C983 1.373 . S
C982 C984 1.389 . S
C983 H962 0.950 . S
C983 C982 1.373 . S
C983 C999 1.377 . S
C984 C982 1.389 . S
C984 C985 1.524 . S
C984 C998 1.377 . S
C985 C984 1.524 . S
C985 C986 1.397 . S
C985 C990 1.363 . S
C986 H963 0.950 . S
C986 C985 1.397 . S
C986 C987 1.334 . S
C987 H964 0.950 . S
C987 C986 1.334 . S
C987 C988 1.287 . S
C988 C987 1.287 . S
C988 C989 1.524 . S
C988 H1007 0.913 . S
C989 H965 0.950 . S
C989 C988 1.524 . S
C989 C990 1.415 . S
C990 H966 0.950 . S
C990 C985 1.363 . S
C990 C989 1.415 . S
C991 H967 0.951 . S
C991 C992 1.366 . S
C991 C993 1.388 . S
C992 C991 1.366 . S
C992 C996 1.385 . S
C993 H968 0.951 . S
C993 C991 1.388 . S
C993 C994 1.366 . S
C994 C993 1.366 . S
C994 C995 1.414 . S
C994 C997 1.499 . S
C995 H969 0.950 . S
C995 C994 1.414 . S
C995 C996 1.374 . S
C996 H970 0.950 . S
C996 C992 1.385 . S
C996 C995 1.374 . S
C997 C994 1.499 . S
C997 C998 1.373 . S
C997 C999 1.389 . S
C998 H971 0.950 . S
C998 C984 1.377 . S
C998 C997 1.373 . S
C999 C983 1.377 . S
C999 C997 1.389 . S
C999 C1000 1.524 . S
C1000 C999 1.524 . S
C1000 C1001 1.397 . S
C1000 C1005 1.363 . S
C1001 H972 0.950 . S
C1001 C1000 1.397 . S
C1001 C1002 1.334 . S
C1002 H973 0.950 . S
C1002 C1001 1.334 . S
C1002 C1003 1.287 . S
C1003 C1002 1.287 . S
C1003 C1004 1.524 . S
C1003 H1006 0.999 . S
C1004 H974 0.950 . S
C1004 C1003 1.524 . S
C1004 C1005 1.415 . S
C1005 H975 0.950 . S
C1005 C1000 1.363 . S
C1005 C1004 1.415 . S
H1006 C1003 0.999 . S
H1007 C988 0.913 . S
H1008 C1026 0.951 . S
H1009 C1028 0.951 . S
H1010 C1030 0.950 . S
H1011 C1031 0.950 . S
H1012 C1033 0.950 . S
H1013 C1036 0.950 . S
H1014 C1037 0.950 . S
H1015 C1039 0.950 . S
H1016 C1040 0.878 1_556 S
H1017 C1041 0.951 . S
H1018 C1043 0.951 . S
H1019 C1045 0.950 . S
H1020 C1046 0.950 . S
H1021 C1048 0.950 . S
H1022 C1051 0.950 . S
H1023 C1052 0.950 . S
H1024 C1054 0.950 . S
H1025 C1055 0.950 1_554 S
C1026 H1008 0.951 . S
C1026 C1027 1.366 . S
C1026 C1028 1.388 . S
C1027 C1026 1.366 . S
C1027 C1031 1.385 . S
C1028 H1009 0.951 . S
C1028 C1026 1.388 . S
C1028 C1029 1.366 . S
C1029 C1028 1.366 . S
C1029 C1030 1.414 . S
C1029 C1032 1.499 . S
C1030 H1010 0.950 . S
C1030 C1029 1.414 . S
C1030 C1031 1.374 . S
C1031 H1011 0.950 . S
C1031 C1027 1.385 . S
C1031 C1030 1.374 . S
C1032 C1029 1.499 . S
C1032 C1033 1.373 . S
C1032 C1034 1.389 . S
C1033 H1012 0.950 . S
C1033 C1032 1.373 . S
C1033 C1049 1.377 1_554 S
C1034 C1032 1.389 . S
C1034 C1035 1.524 . S
C1034 C1048 1.377 1_554 S
C1035 C1034 1.524 . S
C1035 C1036 1.397 . S
C1035 C1040 1.363 . S
C1036 H1013 0.950 . S
C1036 C1035 1.397 . S
C1036 C1037 1.334 . S
C1037 H1014 0.950 . S
C1037 C1036 1.334 . S
C1037 C1038 1.287 . S
C1038 C1037 1.287 . S
C1038 C1039 1.524 . S
C1038 H1057 0.913 . S
C1039 H1015 0.950 . S
C1039 C1038 1.524 . S
C1039 C1040 1.415 . S
C1040 H1016 0.878 1_554 S
C1040 C1035 1.363 . S
C1040 C1039 1.415 . S
C1041 H1017 0.951 . S
C1041 C1042 1.366 . S
C1041 C1043 1.388 . S
C1042 C1041 1.366 . S
C1042 C1046 1.385 . S
C1043 H1018 0.951 . S
C1043 C1041 1.388 . S
C1043 C1044 1.366 . S
C1044 C1043 1.366 . S
C1044 C1045 1.414 . S
C1044 C1047 1.499 . S
C1045 H1019 0.950 . S
C1045 C1044 1.414 . S
C1045 C1046 1.374 . S
C1046 H1020 0.950 . S
C1046 C1042 1.385 . S
C1046 C1045 1.374 . S
C1047 C1044 1.499 . S
C1047 C1048 1.373 . S
C1047 C1049 1.389 . S
C1048 H1021 0.950 . S
C1048 C1034 1.377 1_556 S
C1048 C1047 1.373 . S
C1049 C1033 1.377 1_556 S
C1049 C1047 1.389 . S
C1049 C1050 1.524 . S
C1050 C1049 1.524 . S
C1050 C1051 1.397 . S
C1050 C1055 1.363 . S
C1051 H1022 0.950 . S
C1051 C1050 1.397 . S
C1051 C1052 1.334 . S
C1052 H1023 0.950 . S
C1052 C1051 1.334 . S
C1052 C1053 1.287 . S
C1053 C1052 1.287 . S
C1053 C1054 1.524 . S
C1053 H1056 0.999 . S
C1054 H1024 0.950 . S
C1054 C1053 1.524 . S
C1054 C1055 1.415 . S
C1055 H1025 0.950 1_556 S
C1055 C1050 1.363 . S
C1055 C1054 1.415 . S
H1056 C1053 0.999 . S
H1057 C1038 0.913 . S
H1058 C1076 0.951 . S
H1059 C1078 0.951 . S
H1060 C1080 0.950 . S
H1061 C1081 0.950 . S
H1062 C1083 0.950 . S
H1063 C1086 0.950 . S
H1064 C1087 0.950 . S
H1065 C1089 0.950 . S
H1066 C1090 0.950 . S
H1067 C1091 0.951 . S
H1068 C1093 0.951 . S
H1069 C1095 0.950 . S
H1070 C1096 0.950 . S
H1071 C1098 0.950 . S
H1072 C1101 0.950 . S
H1073 C1102 0.950 . S
H1074 C1104 0.950 . S
H1075 C1105 0.950 . S
C1076 H1058 0.951 . S
C1076 C1077 1.366 . S
C1076 C1078 1.388 . S
C1077 C1076 1.366 . S
C1077 C1081 1.385 . S
C1078 H1059 0.951 . S
C1078 C1076 1.388 . S
C1078 C1079 1.366 . S
C1079 C1078 1.366 . S
C1079 C1080 1.414 . S
C1079 C1082 1.499 . S
C1080 H1060 0.950 . S
C1080 C1079 1.414 . S
C1080 C1081 1.374 . S
C1081 H1061 0.950 . S
C1081 C1077 1.385 . S
C1081 C1080 1.374 . S
C1082 C1079 1.499 . S
C1082 C1083 1.373 . S
C1082 C1084 1.389 . S
C1083 H1062 0.950 . S
C1083 C1082 1.373 . S
C1083 C1099 1.377 . S
C1084 C1082 1.389 . S
C1084 C1085 1.524 . S
C1084 C1098 1.377 . S
C1085 C1084 1.524 . S
C1085 C1086 1.397 . S
C1085 C1090 1.363 . S
C1086 H1063 0.950 . S
C1086 C1085 1.397 . S
C1086 C1087 1.334 1_545 S
C1087 H1064 0.950 . S
C1087 C1086 1.334 1_565 S
C1087 C1088 1.287 . S
C1088 C1087 1.287 . S
C1088 C1089 1.524 . S
C1088 H1107 0.913 . S
C1089 H1065 0.950 . S
C1089 C1088 1.524 . S
C1089 C1090 1.415 1_565 S
C1090 H1066 0.950 . S
C1090 C1085 1.363 . S
C1090 C1089 1.415 1_545 S
C1091 H1067 0.951 . S
C1091 C1092 1.366 . S
C1091 C1093 1.388 . S
C1092 C1091 1.366 . S
C1092 C1096 1.385 . S
C1093 H1068 0.951 . S
C1093 C1091 1.388 . S
C1093 C1094 1.366 . S
C1094 C1093 1.366 . S
C1094 C1095 1.414 . S
C1094 C1097 1.499 . S
C1095 H1069 0.950 . S
C1095 C1094 1.414 . S
C1095 C1096 1.374 . S
C1096 H1070 0.950 . S
C1096 C1092 1.385 . S
C1096 C1095 1.374 . S
C1097 C1094 1.499 . S
C1097 C1098 1.373 . S
C1097 C1099 1.389 . S
C1098 H1071 0.950 . S
C1098 C1084 1.377 . S
C1098 C1097 1.373 . S
C1099 C1083 1.377 . S
C1099 C1097 1.389 . S
C1099 C1100 1.524 . S
C1100 C1099 1.524 . S
C1100 C1101 1.397 . S
C1100 C1105 1.363 . S
C1101 H1072 0.950 . S
C1101 C1100 1.397 . S
C1101 C1102 1.334 . S
C1102 H1073 0.950 . S
C1102 C1101 1.334 . S
C1102 C1103 1.287 . S
C1103 C1102 1.287 . S
C1103 C1104 1.524 . S
C1103 H1106 0.999 . S
C1104 H1074 0.950 . S
C1104 C1103 1.524 . S
C1104 C1105 1.415 . S
C1105 H1075 0.950 . S
C1105 C1100 1.363 . S
C1105 C1104 1.415 . S
H1106 C1103 0.999 . S
H1107 C1088 0.913 . S
H1108 C1126 0.951 . S
H1109 C1128 0.951 . S
H1110 C1130 0.950 . S
H1111 C1131 0.950 . S
H1112 C1133 0.950 . S
H1113 C1136 0.950 . S
H1114 C1137 0.950 . S
H1115 C1139 0.950 . S
H1116 C1140 0.950 . S
H1117 C1141 0.951 . S
H1118 C1143 0.951 . S
H1119 C1145 0.950 . S
H1120 C1146 0.950 . S
H1121 C1148 0.950 . S
H1122 C1151 0.950 . S
H1123 C1152 0.950 . S
H1124 C1154 0.950 . S
H1125 C1155 0.950 . S
C1126 H1108 0.951 . S
C1126 C1127 1.366 . S
C1126 C1128 1.388 . S
C1127 C1126 1.366 . S
C1127 C1131 1.385 . S
C1128 H1109 0.951 . S
C1128 C1126 1.388 . S
C1128 C1129 1.366 . S
C1129 C1128 1.366 . S
C1129 C1130 1.414 . S
C1129 C1132 1.499 . S
C1130 H1110 0.950 . S
C1130 C1129 1.414 . S
C1130 C1131 1.374 . S
C1131 H1111 0.950 . S
C1131 C1127 1.385 . S
C1131 C1130 1.374 . S
C1132 C1129 1.499 . S
C1132 C1133 1.373 . S
C1132 C1134 1.389 . S
C1133 H1112 0.950 . S
C1133 C1132 1.373 . S
C1133 C1149 1.377 . S
C1134 C1132 1.389 . S
C1134 C1135 1.524 . S
C1134 C1148 1.377 . S
C1135 C1134 1.524 . S
C1135 C1136 1.397 . S
C1135 C1140 1.363 . S
C1136 H1113 0.950 . S
C1136 C1135 1.397 . S
C1136 C1137 1.334 . S
C1137 H1114 0.950 . S
C1137 C1136 1.334 . S
C1137 C1138 1.287 . S
C1138 C1137 1.287 . S
C1138 C1139 1.524 . S
C1138 H1157 0.913 . S
C1139 H1115 0.950 . S
C1139 C1138 1.524 . S
C1139 C1140 1.415 . S
C1140 H1116 0.950 . S
C1140 C1135 1.363 . S
C1140 C1139 1.415 . S
C1141 H1117 0.951 . S
C1141 C1142 1.366 . S
C1141 C1143 1.388 . S
C1142 C1141 1.366 . S
C1142 C1146 1.385 . S
C1143 H1118 0.951 . S
C1143 C1141 1.388 . S
C1143 C1144 1.366 . S
C1144 C1143 1.366 . S
C1144 C1145 1.414 . S
C1144 C1147 1.499 . S
C1145 H1119 0.950 . S
C1145 C1144 1.414 . S
C1145 C1146 1.374 . S
C1146 H1120 0.950 . S
C1146 C1142 1.385 . S
C1146 C1145 1.374 . S
C1147 C1144 1.499 . S
C1147 C1148 1.373 . S
C1147 C1149 1.389 . S
C1148 H1121 0.950 . S
C1148 C1134 1.377 . S
C1148 C1147 1.373 . S
C1149 C1133 1.377 . S
C1149 C1147 1.389 . S
C1149 C1150 1.524 . S
C1150 C1149 1.524 . S
C1150 C1151 1.397 . S
C1150 C1155 1.363 . S
C1151 H1122 0.950 . S
C1151 C1150 1.397 . S
C1151 C1152 1.334 . S
C1152 H1123 0.950 . S
C1152 C1151 1.334 . S
C1152 C1153 1.287 . S
C1153 C1152 1.287 . S
C1153 C1154 1.524 . S
C1153 H1156 0.999 . S
C1154 H1124 0.950 . S
C1154 C1153 1.524 . S
C1154 C1155 1.415 . S
C1155 H1125 0.950 . S
C1155 C1150 1.363 . S
C1155 C1154 1.415 . S
H1156 C1153 0.999 . S
H1157 C1138 0.913 . S
H1158 C1176 0.951 . S
H1159 C1178 0.951 . S
H1160 C1180 0.950 . S
H1161 C1181 0.950 . S
H1162 C1183 0.950 . S
H1163 C1186 0.950 . S
H1164 C1187 0.950 . S
H1165 C1189 0.950 . S
H1166 C1190 0.954 . S
H1167 C1191 0.951 . S
H1168 C1193 0.951 . S
H1169 C1195 0.950 . S
H1170 C1196 0.950 . S
H1171 C1198 0.950 . S
H1172 C1201 0.950 . S
H1173 C1202 0.950 . S
H1174 C1204 0.950 . S
H1175 C1205 0.944 1_554 S
C1176 H1158 0.951 . S
C1176 C1177 1.366 . S
C1176 C1178 1.388 . S
C1177 C1176 1.366 . S
C1177 C1181 1.385 . S
C1178 H1159 0.951 . S
C1178 C1176 1.388 . S
C1178 C1179 1.366 . S
C1179 C1178 1.366 . S
C1179 C1180 1.414 . S
C1179 C1182 1.499 . S
C1180 H1160 0.950 . S
C1180 C1179 1.414 . S
C1180 C1181 1.374 . S
C1181 H1161 0.950 . S
C1181 C1177 1.385 . S
C1181 C1180 1.374 . S
C1182 C1179 1.499 . S
C1182 C1183 1.373 . S
C1182 C1184 1.389 . S
C1183 H1162 0.950 . S
C1183 C1182 1.373 . S
C1183 C1199 1.377 1_554 S
C1184 C1182 1.389 . S
C1184 C1185 1.524 . S
C1184 C1198 1.377 1_554 S
C1185 C1184 1.524 . S
C1185 C1186 1.397 . S
C1185 C1190 1.363 . S
C1186 H1163 0.950 . S
C1186 C1185 1.397 . S
C1186 C1187 1.334 . S
C1187 H1164 0.950 . S
C1187 C1186 1.334 . S
C1187 C1188 1.287 . S
C1188 C1187 1.287 . S
C1188 C1189 1.524 . S
C1188 H1207 0.913 . S
C1189 H1165 0.950 . S
C1189 C1188 1.524 . S
C1189 C1190 1.415 . S
C1190 H1166 0.954 . S
C1190 C1185 1.363 . S
C1190 C1189 1.415 . S
C1191 H1167 0.951 . S
C1191 C1192 1.366 . S
C1191 C1193 1.388 . S
C1192 C1191 1.366 . S
C1192 C1196 1.385 . S
C1193 H1168 0.951 . S
C1193 C1191 1.388 . S
C1193 C1194 1.366 . S
C1194 C1193 1.366 . S
C1194 C1195 1.414 . S
C1194 C1197 1.499 . S
C1195 H1169 0.950 . S
C1195 C1194 1.414 . S
C1195 C1196 1.374 . S
C1196 H1170 0.950 . S
C1196 C1192 1.385 . S
C1196 C1195 1.374 . S
C1197 C1194 1.499 . S
C1197 C1198 1.373 . S
C1197 C1199 1.389 . S
C1198 H1171 0.950 . S
C1198 C1184 1.377 1_556 S
C1198 C1197 1.373 . S
C1199 C1183 1.377 1_556 S
C1199 C1197 1.389 . S
C1199 C1200 1.524 . S
C1200 C1199 1.524 . S
C1200 C1201 1.397 . S
C1200 C1205 1.363 . S
C1201 H1172 0.950 . S
C1201 C1200 1.397 . S
C1201 C1202 1.334 . S
C1202 H1173 0.950 . S
C1202 C1201 1.334 . S
C1202 C1203 1.287 . S
C1203 C1202 1.287 . S
C1203 C1204 1.524 . S
C1203 H1206 0.999 . S
C1204 H1174 0.950 . S
C1204 C1203 1.524 . S
C1204 C1205 1.415 . S
C1205 H1175 0.944 1_556 S
C1205 C1200 1.363 . S
C1205 C1204 1.415 . S
H1206 C1203 0.999 . S
H1207 C1188 0.913 . S
H1208 C1226 0.951 . S
H1209 C1228 0.951 . S
H1210 C1230 0.950 . S
H1211 C1231 0.950 . S
H1212 C1233 0.950 . S
H1213 C1236 0.950 . S
H1214 C1237 0.950 . S
H1215 C1239 0.950 . S
H1216 C1240 0.950 . S
H1217 C1241 0.951 . S
H1218 C1243 0.951 . S
H1219 C1245 0.950 . S
H1220 C1246 0.950 . S
H1221 C1248 0.950 . S
H1222 C1251 0.950 . S
H1223 C1252 0.950 . S
H1224 C1254 0.950 . S
H1225 C1255 0.950 . S
C1226 H1208 0.951 . S
C1226 C1227 1.366 . S
C1226 C1228 1.388 . S
C1227 C1226 1.366 . S
C1227 C1231 1.385 . S
C1228 H1209 0.951 . S
C1228 C1226 1.388 . S
C1228 C1229 1.366 . S
C1229 C1228 1.366 . S
C1229 C1230 1.414 . S
C1229 C1232 1.499 . S
C1230 H1210 0.950 . S
C1230 C1229 1.414 . S
C1230 C1231 1.374 . S
C1231 H1211 0.950 . S
C1231 C1227 1.385 . S
C1231 C1230 1.374 . S
C1232 C1229 1.499 . S
C1232 C1233 1.373 . S
C1232 C1234 1.389 . S
C1233 H1212 0.950 . S
C1233 C1232 1.373 . S
C1233 C1249 1.377 . S
C1234 C1232 1.389 . S
C1234 C1235 1.524 . S
C1234 C1248 1.377 . S
C1235 C1234 1.524 . S
C1235 C1236 1.397 . S
C1235 C1240 1.363 . S
C1236 H1213 0.950 . S
C1236 C1235 1.397 . S
C1236 C1237 1.334 . S
C1237 H1214 0.950 . S
C1237 C1236 1.334 . S
C1237 C1238 1.287 . S
C1238 C1237 1.287 . S
C1238 C1239 1.524 . S
C1238 H1257 0.913 . S
C1239 H1215 0.950 . S
C1239 C1238 1.524 . S
C1239 C1240 1.415 . S
C1240 H1216 0.950 . S
C1240 C1235 1.363 . S
C1240 C1239 1.415 . S
C1241 H1217 0.951 . S
C1241 C1242 1.366 . S
C1241 C1243 1.388 . S
C1242 C1241 1.366 . S
C1242 C1246 1.385 . S
C1243 H1218 0.951 . S
C1243 C1241 1.388 . S
C1243 C1244 1.366 . S
C1244 C1243 1.366 . S
C1244 C1245 1.414 . S
C1244 C1247 1.499 . S
C1245 H1219 0.950 . S
C1245 C1244 1.414 . S
C1245 C1246 1.374 . S
C1246 H1220 0.950 . S
C1246 C1242 1.385 . S
C1246 C1245 1.374 . S
C1247 C1244 1.499 . S
C1247 C1248 1.373 . S
C1247 C1249 1.389 . S
C1248 H1221 0.950 . S
C1248 C1234 1.377 . S
C1248 C1247 1.373 . S
C1249 C1233 1.377 . S
C1249 C1247 1.389 . S
C1249 C1250 1.524 . S
C1250 C1249 1.524 . S
C1250 C1251 1.397 . S
C1250 C1255 1.363 . S
C1251 H1222 0.950 . S
C1251 C1250 1.397 . S
C1251 C1252 1.334 1_565 S
C1252 H1223 0.950 . S
C1252 C1251 1.334 1_545 S
C1252 C1253 1.287 . S
C1253 C1252 1.287 . S
C1253 C1254 1.524 . S
C1253 H1256 0.999 . S
C1254 H1224 0.950 . S
C1254 C1253 1.524 . S
C1254 C1255 1.414 1_545 S
C1255 H1225 0.950 . S
C1255 C1250 1.363 . S
C1255 C1254 1.414 1_565 S
H1256 C1253 0.999 . S
H1257 C1238 0.913 . S
H1258 C1276 0.951 . S
H1259 C1278 0.951 . S
H1260 C1280 0.950 . S
H1261 C1281 0.950 . S
H1262 C1283 0.950 . S
H1263 C1286 0.950 . S
H1264 C1287 0.950 . S
H1265 C1289 0.950 . S
H1266 C1290 0.950 . S
H1267 C1291 0.951 . S
H1268 C1293 0.951 . S
H1269 C1295 0.950 . S
H1270 C1296 0.950 . S
H1271 C1298 0.950 . S
H1272 C1301 0.950 . S
H1273 C1302 0.950 . S
H1274 C1304 0.950 . S
H1275 C1305 0.950 . S
C1276 H1258 0.951 . S
C1276 C1277 1.366 . S
C1276 C1278 1.388 . S
C1277 C1276 1.366 . S
C1277 C1281 1.385 . S
C1278 H1259 0.951 . S
C1278 C1276 1.388 . S
C1278 C1279 1.366 . S
C1279 C1278 1.366 . S
C1279 C1280 1.414 . S
C1279 C1282 1.499 . S
C1280 H1260 0.950 . S
C1280 C1279 1.414 . S
C1280 C1281 1.374 . S
C1281 H1261 0.950 . S
C1281 C1277 1.385 . S
C1281 C1280 1.374 . S
C1282 C1279 1.499 . S
C1282 C1283 1.373 . S
C1282 C1284 1.389 . S
C1283 H1262 0.950 . S
C1283 C1282 1.373 . S
C1283 C1299 1.377 . S
C1284 C1282 1.389 . S
C1284 C1285 1.524 . S
C1284 C1298 1.377 . S
C1285 C1284 1.524 . S
C1285 C1286 1.397 . S
C1285 C1290 1.363 . S
C1286 H1263 0.950 . S
C1286 C1285 1.397 . S
C1286 C1287 1.334 . S
C1287 H1264 0.950 . S
C1287 C1286 1.334 . S
C1287 C1288 1.287 . S
C1288 C1287 1.287 . S
C1288 C1289 1.524 . S
C1288 H1307 0.913 . S
C1289 H1265 0.950 . S
C1289 C1288 1.524 . S
C1289 C1290 1.415 . S
C1290 H1266 0.950 . S
C1290 C1285 1.363 . S
C1290 C1289 1.415 . S
C1291 H1267 0.951 . S
C1291 C1292 1.366 . S
C1291 C1293 1.388 . S
C1292 C1291 1.366 . S
C1292 C1296 1.385 . S
C1293 H1268 0.951 . S
C1293 C1291 1.388 . S
C1293 C1294 1.366 . S
C1294 C1293 1.366 . S
C1294 C1295 1.414 . S
C1294 C1297 1.499 . S
C1295 H1269 0.950 . S
C1295 C1294 1.414 . S
C1295 C1296 1.374 . S
C1296 H1270 0.950 . S
C1296 C1292 1.385 . S
C1296 C1295 1.374 . S
C1297 C1294 1.499 . S
C1297 C1298 1.373 . S
C1297 C1299 1.389 . S
C1298 H1271 0.950 . S
C1298 C1284 1.377 . S
C1298 C1297 1.373 . S
C1299 C1283 1.377 . S
C1299 C1297 1.389 . S
C1299 C1300 1.524 . S
C1300 C1299 1.524 . S
C1300 C1301 1.397 . S
C1300 C1305 1.363 . S
C1301 H1272 0.950 . S
C1301 C1300 1.397 . S
C1301 C1302 1.334 . S
C1302 H1273 0.950 . S
C1302 C1301 1.334 . S
C1302 C1303 1.287 . S
C1303 C1302 1.287 . S
C1303 C1304 1.524 . S
C1303 H1306 0.999 . S
C1304 H1274 0.950 . S
C1304 C1303 1.524 . S
C1304 C1305 1.415 . S
C1305 H1275 0.950 . S
C1305 C1300 1.363 . S
C1305 C1304 1.415 . S
H1306 C1303 0.999 . S
H1307 C1288 0.913 . S
H1308 C1326 0.951 . S
H1309 C1328 0.951 . S
H1310 C1330 0.950 . S
H1311 C1331 0.950 . S
H1312 C1333 0.950 . S
H1313 C1336 0.950 . S
H1314 C1337 0.950 1_655 S
H1315 C1339 0.950 . S
H1316 C1340 0.950 . S
H1317 C1341 0.951 . S
H1318 C1343 0.951 . S
H1319 C1345 0.950 . S
H1320 C1346 0.950 . S
H1321 C1348 0.950 . S
H1322 C1351 0.950 . S
H1323 C1352 0.950 1_455 S
H1324 C1354 0.950 . S
H1325 C1355 0.950 . S
C1326 H1308 0.951 . S
C1326 C1327 1.366 . S
C1326 C1328 1.388 . S
C1327 C1326 1.366 . S
C1327 C1331 1.385 1_455 S
C1328 H1309 0.951 . S
C1328 C1326 1.388 . S
C1328 C1329 1.366 . S
C1329 C1328 1.366 . S
C1329 C1330 1.414 1_455 S
C1329 C1332 1.506 1_455 S
C1330 H1310 0.950 . S
C1330 C1329 1.414 1_655 S
C1330 C1331 1.374 . S
C1331 H1311 0.950 . S
C1331 C1327 1.385 1_655 S
C1331 C1330 1.374 . S
C1332 C1329 1.506 1_655 S
C1332 C1333 1.374 . S
C1332 C1334 1.381 1_655 S
C1333 H1312 0.950 . S
C1333 C1332 1.374 . S
C1333 C1349 1.377 . S
C1334 C1332 1.381 1_455 S
C1334 C1335 1.524 . S
C1334 C1348 1.377 . S
C1335 C1334 1.524 . S
C1335 C1336 1.397 1_455 S
C1335 C1340 1.363 . S
C1336 H1313 0.950 . S
C1336 C1335 1.397 1_655 S
C1336 C1337 1.334 1_655 S
C1337 H1314 0.950 1_455 S
C1337 C1336 1.334 1_455 S
C1337 C1338 1.287 . S
C1338 C1337 1.287 . S
C1338 C1339 1.524 . S
C1338 H1357 0.913 . S
C1339 H1315 0.950 . S
C1339 C1338 1.524 . S
C1339 C1340 1.415 . S
C1340 H1316 0.950 . S
C1340 C1335 1.363 . S
C1340 C1339 1.415 . S
C1341 H1317 0.951 . S
C1341 C1342 1.366 . S
C1341 C1343 1.388 . S
C1342 C1341 1.366 . S
C1342 C1346 1.385 1_655 S
C1343 H1318 0.951 . S
C1343 C1341 1.388 . S
C1343 C1344 1.366 . S
C1344 C1343 1.366 . S
C1344 C1345 1.414 1_655 S
C1344 C1347 1.514 1_655 S
C1345 H1319 0.950 . S
C1345 C1344 1.414 1_455 S
C1345 C1346 1.374 . S
C1346 H1320 0.950 . S
C1346 C1342 1.385 1_455 S
C1346 C1345 1.374 . S
C1347 C1344 1.514 1_455 S
C1347 C1348 1.375 . S
C1347 C1349 1.371 1_455 S
C1348 H1321 0.950 . S
C1348 C1334 1.377 . S
C1348 C1347 1.375 . S
C1349 C1333 1.377 . S
C1349 C1347 1.371 1_655 S
C1349 C1350 1.524 . S
C1350 C1349 1.524 . S
C1350 C1351 1.397 1_655 S
C1350 C1355 1.363 . S
C1351 H1322 0.950 . S
C1351 C1350 1.397 1_455 S
C1351 C1352 1.334 1_455 S
C1352 H1323 0.950 1_655 S
C1352 C1351 1.334 1_655 S
C1352 C1353 1.287 . S
C1353 C1352 1.287 . S
C1353 C1354 1.524 . S
C1353 H1356 0.999 . S
C1354 H1324 0.950 . S
C1354 C1353 1.524 . S
C1354 C1355 1.415 . S
C1355 H1325 0.950 . S
C1355 C1350 1.363 . S
C1355 C1354 1.415 . S
H1356 C1353 0.999 . S
H1357 C1338 0.913 . S
H1358 C1376 0.951 . S
H1359 C1378 0.951 . S
H1360 C1380 0.950 . S
H1361 C1381 0.950 . S
H1362 C1383 0.950 . S
H1363 C1386 0.950 . S
H1364 C1387 0.950 . S
H1365 C1389 0.950 . S
H1366 C1390 0.950 . S
H1367 C1391 0.951 . S
H1368 C1393 0.951 . S
H1369 C1395 0.950 . S
H1370 C1396 0.950 . S
H1371 C1398 0.950 . S
H1372 C1401 0.950 . S
H1373 C1402 0.950 . S
H1374 C1404 0.950 . S
H1375 C1405 0.950 . S
C1376 H1358 0.951 . S
C1376 C1377 1.366 . S
C1376 C1378 1.388 . S
C1377 C1376 1.366 . S
C1377 C1381 1.385 1_565 S
C1378 H1359 0.951 . S
C1378 C1376 1.388 . S
C1378 C1379 1.366 . S
C1379 C1378 1.366 . S
C1379 C1380 1.414 1_565 S
C1379 C1382 1.499 . S
C1380 H1360 0.950 . S
C1380 C1379 1.414 1_545 S
C1380 C1381 1.374 . S
C1381 H1361 0.950 . S
C1381 C1377 1.385 1_545 S
C1381 C1380 1.374 . S
C1382 C1379 1.499 . S
C1382 C1383 1.373 1_565 S
C1382 C1384 1.389 . S
C1383 H1362 0.950 . S
C1383 C1382 1.373 1_545 S
C1383 C1399 1.377 . S
C1384 C1382 1.389 . S
C1384 C1385 1.524 . S
C1384 C1398 1.377 . S
C1385 C1384 1.524 . S
C1385 C1386 1.397 . S
C1385 C1390 1.363 . S
C1386 H1363 0.950 . S
C1386 C1385 1.397 . S
C1386 C1387 1.334 . S
C1387 H1364 0.950 . S
C1387 C1386 1.334 . S
C1387 C1388 1.287 . S
C1388 C1387 1.287 . S
C1388 C1389 1.524 . S
C1388 H1407 0.913 . S
C1389 H1365 0.950 . S
C1389 C1388 1.524 . S
C1389 C1390 1.415 . S
C1390 H1366 0.950 . S
C1390 C1385 1.363 . S
C1390 C1389 1.415 . S
C1391 H1367 0.951 . S
C1391 C1392 1.366 . S
C1391 C1393 1.388 . S
C1392 C1391 1.366 . S
C1392 C1396 1.385 1_545 S
C1393 H1368 0.951 . S
C1393 C1391 1.388 . S
C1393 C1394 1.366 . S
C1394 C1393 1.366 . S
C1394 C1395 1.414 1_545 S
C1394 C1397 1.499 . S
C1395 H1369 0.950 . S
C1395 C1394 1.414 1_565 S
C1395 C1396 1.374 . S
C1396 H1370 0.950 . S
C1396 C1392 1.385 1_565 S
C1396 C1395 1.374 . S
C1397 C1394 1.499 . S
C1397 C1398 1.373 1_545 S
C1397 C1399 1.389 . S
C1398 H1371 0.950 . S
C1398 C1384 1.377 . S
C1398 C1397 1.373 1_565 S
C1399 C1383 1.377 . S
C1399 C1397 1.389 . S
C1399 C1400 1.524 . S
C1400 C1399 1.524 . S
C1400 C1401 1.397 . S
C1400 C1405 1.363 . S
C1401 H1372 0.950 . S
C1401 C1400 1.397 . S
C1401 C1402 1.334 . S
C1402 H1373 0.950 . S
C1402 C1401 1.334 . S
C1402 C1403 1.287 . S
C1403 C1402 1.287 . S
C1403 C1404 1.524 . S
C1403 H1406 0.999 . S
C1404 H1374 0.950 . S
C1404 C1403 1.524 . S
C1404 C1405 1.415 . S
C1405 H1375 0.950 . S
C1405 C1400 1.363 . S
C1405 C1404 1.415 . S
H1406 C1403 0.999 . S
H1407 C1388 0.913 . S
H1408 C1426 0.951 . S
H1409 C1428 0.951 . S
H1410 C1430 0.950 . S
H1411 C1431 0.950 . S
H1412 C1433 0.950 . S
H1413 C1436 0.950 . S
H1414 C1437 0.950 . S
H1415 C1439 0.950 . S
H1416 C1440 0.950 . S
H1417 C1441 0.951 . S
H1418 C1443 0.951 . S
H1419 C1445 0.950 . S
H1420 C1446 0.950 . S
H1421 C1448 0.950 . S
H1422 C1451 0.950 . S
H1423 C1452 0.950 . S
H1424 C1454 0.950 . S
H1425 C1455 0.950 . S
C1426 H1408 0.951 . S
C1426 C1427 1.366 . S
C1426 C1428 1.388 . S
C1427 C1426 1.366 . S
C1427 C1431 1.385 . S
C1428 H1409 0.951 . S
C1428 C1426 1.388 . S
C1428 C1429 1.366 . S
C1429 C1428 1.366 . S
C1429 C1430 1.414 . S
C1429 C1432 1.499 . S
C1430 H1410 0.950 . S
C1430 C1429 1.414 . S
C1430 C1431 1.374 . S
C1431 H1411 0.950 . S
C1431 C1427 1.385 . S
C1431 C1430 1.374 . S
C1432 C1429 1.499 . S
C1432 C1433 1.373 . S
C1432 C1434 1.389 . S
C1433 H1412 0.950 . S
C1433 C1432 1.373 . S
C1433 C1449 1.377 . S
C1434 C1432 1.389 . S
C1434 C1435 1.524 . S
C1434 C1448 1.377 . S
C1435 C1434 1.524 . S
C1435 C1436 1.397 . S
C1435 C1440 1.363 . S
C1436 H1413 0.950 . S
C1436 C1435 1.397 . S
C1436 C1437 1.334 . S
C1437 H1414 0.950 . S
C1437 C1436 1.334 . S
C1437 C1438 1.287 . S
C1438 C1437 1.287 . S
C1438 C1439 1.524 . S
C1438 H1457 0.913 . S
C1439 H1415 0.950 . S
C1439 C1438 1.524 . S
C1439 C1440 1.415 . S
C1440 H1416 0.950 . S
C1440 C1435 1.363 . S
C1440 C1439 1.415 . S
C1441 H1417 0.951 . S
C1441 C1442 1.366 . S
C1441 C1443 1.388 . S
C1442 C1441 1.366 . S
C1442 C1446 1.385 . S
C1443 H1418 0.951 . S
C1443 C1441 1.388 . S
C1443 C1444 1.366 . S
C1444 C1443 1.366 . S
C1444 C1445 1.414 . S
C1444 C1447 1.499 . S
C1445 H1419 0.950 . S
C1445 C1444 1.414 . S
C1445 C1446 1.374 . S
C1446 H1420 0.950 . S
C1446 C1442 1.385 . S
C1446 C1445 1.374 . S
C1447 C1444 1.499 . S
C1447 C1448 1.373 . S
C1447 C1449 1.389 . S
C1448 H1421 0.950 . S
C1448 C1434 1.377 . S
C1448 C1447 1.373 . S
C1449 C1433 1.377 . S
C1449 C1447 1.389 . S
C1449 C1450 1.524 . S
C1450 C1449 1.524 . S
C1450 C1451 1.397 . S
C1450 C1455 1.363 . S
C1451 H1422 0.950 . S
C1451 C1450 1.397 . S
C1451 C1452 1.334 . S
C1452 H1423 0.950 . S
C1452 C1451 1.334 . S
C1452 C1453 1.287 . S
C1453 C1452 1.287 . S
C1453 C1454 1.524 . S
C1453 H1456 0.999 . S
C1454 H1424 0.950 . S
C1454 C1453 1.524 . S
C1454 C1455 1.415 . S
C1455 H1425 0.950 . S
C1455 C1450 1.363 . S
C1455 C1454 1.415 . S
H1456 C1453 0.999 . S
H1457 C1438 0.913 . S
H1458 C1476 0.951 . S
H1459 C1478 0.951 . S
H1460 C1480 0.950 . S
H1461 C1481 0.950 . S
H1462 C1483 0.950 . S
H1463 C1486 0.950 . S
H1464 C1487 0.950 . S
H1465 C1489 0.950 . S
H1466 C1490 0.950 . S
H1467 C1491 0.951 . S
H1468 C1493 0.951 . S
H1469 C1495 0.950 . S
H1470 C1496 0.950 . S
H1471 C1498 0.950 . S
H1472 C1501 0.950 . S
H1473 C1502 0.950 . S
H1474 C1504 0.950 . S
H1475 C1505 0.950 . S
C1476 H1458 0.951 . S
C1476 C1477 1.366 . S
C1476 C1478 1.388 . S
C1477 C1476 1.366 . S
C1477 C1481 1.385 1_565 S
C1478 H1459 0.951 . S
C1478 C1476 1.388 . S
C1478 C1479 1.366 . S
C1479 C1478 1.366 . S
C1479 C1480 1.414 1_565 S
C1479 C1482 1.499 . S
C1480 H1460 0.950 . S
C1480 C1479 1.414 1_545 S
C1480 C1481 1.374 . S
C1481 H1461 0.950 . S
C1481 C1477 1.385 1_545 S
C1481 C1480 1.374 . S
C1482 C1479 1.499 . S
C1482 C1483 1.373 1_565 S
C1482 C1484 1.389 . S
C1483 H1462 0.950 . S
C1483 C1482 1.373 1_545 S
C1483 C1499 1.377 . S
C1484 C1482 1.389 . S
C1484 C1485 1.524 . S
C1484 C1498 1.377 . S
C1485 C1484 1.524 . S
C1485 C1486 1.397 . S
C1485 C1490 1.363 . S
C1486 H1463 0.950 . S
C1486 C1485 1.397 . S
C1486 C1487 1.334 . S
C1487 H1464 0.950 . S
C1487 C1486 1.334 . S
C1487 C1488 1.287 . S
C1488 C1487 1.287 . S
C1488 C1489 1.524 . S
C1488 H1507 0.913 . S
C1489 H1465 0.950 . S
C1489 C1488 1.524 . S
C1489 C1490 1.415 . S
C1490 H1466 0.950 . S
C1490 C1485 1.363 . S
C1490 C1489 1.415 . S
C1491 H1467 0.951 . S
C1491 C1492 1.366 . S
C1491 C1493 1.388 . S
C1492 C1491 1.366 . S
C1492 C1496 1.385 1_545 S
C1493 H1468 0.951 . S
C1493 C1491 1.388 . S
C1493 C1494 1.366 . S
C1494 C1493 1.366 . S
C1494 C1495 1.414 1_545 S
C1494 C1497 1.499 . S
C1495 H1469 0.950 . S
C1495 C1494 1.414 1_565 S
C1495 C1496 1.374 . S
C1496 H1470 0.950 . S
C1496 C1492 1.385 1_565 S
C1496 C1495 1.374 . S
C1497 C1494 1.499 . S
C1497 C1498 1.373 1_545 S
C1497 C1499 1.389 . S
C1498 H1471 0.950 . S
C1498 C1484 1.377 . S
C1498 C1497 1.373 1_565 S
C1499 C1483 1.377 . S
C1499 C1497 1.389 . S
C1499 C1500 1.524 . S
C1500 C1499 1.524 . S
C1500 C1501 1.397 . S
C1500 C1505 1.363 . S
C1501 H1472 0.950 . S
C1501 C1500 1.397 . S
C1501 C1502 1.334 . S
C1502 H1473 0.950 . S
C1502 C1501 1.334 . S
C1502 C1503 1.287 . S
C1503 C1502 1.287 . S
C1503 C1504 1.524 . S
C1503 H1506 0.999 . S
C1504 H1474 0.950 . S
C1504 C1503 1.524 . S
C1504 C1505 1.415 . S
C1505 H1475 0.950 . S
C1505 C1500 1.363 . S
C1505 C1504 1.415 . S
H1506 C1503 0.999 . S
H1507 C1488 0.913 . S
H1508 C1526 0.951 . S
H1509 C1528 0.951 . S
H1510 C1530 0.950 . S
H1511 C1531 0.950 . S
H1512 C1533 0.950 . S
H1513 C1536 0.950 . S
H1514 C1537 0.950 . S
H1515 C1539 0.950 . S
H1516 C1540 0.950 . S
H1517 C1541 0.951 . S
H1518 C1543 0.951 . S
H1519 C1545 0.950 . S
H1520 C1546 0.950 . S
H1521 C1548 0.950 . S
H1522 C1551 0.950 . S
H1523 C1552 0.950 . S
H1524 C1554 0.950 . S
H1525 C1555 0.950 . S
C1526 H1508 0.951 . S
C1526 C1527 1.366 . S
C1526 C1528 1.388 . S
C1527 C1526 1.366 . S
C1527 C1531 1.385 . S
C1528 H1509 0.951 . S
C1528 C1526 1.388 . S
C1528 C1529 1.366 . S
C1529 C1528 1.366 . S
C1529 C1530 1.414 . S
C1529 C1532 1.499 . S
C1530 H1510 0.950 . S
C1530 C1529 1.414 . S
C1530 C1531 1.374 . S
C1531 H1511 0.950 . S
C1531 C1527 1.385 . S
C1531 C1530 1.374 . S
C1532 C1529 1.499 . S
C1532 C1533 1.373 . S
C1532 C1534 1.389 . S
C1533 H1512 0.950 . S
C1533 C1532 1.373 . S
C1533 C1549 1.377 . S
C1534 C1532 1.389 . S
C1534 C1535 1.524 . S
C1534 C1548 1.377 . S
C1535 C1534 1.524 . S
C1535 C1536 1.397 . S
C1535 C1540 1.363 . S
C1536 H1513 0.950 . S
C1536 C1535 1.397 . S
C1536 C1537 1.334 . S
C1537 H1514 0.950 . S
C1537 C1536 1.334 . S
C1537 C1538 1.287 . S
C1538 C1537 1.287 . S
C1538 C1539 1.524 . S
C1538 H1557 0.913 . S
C1539 H1515 0.950 . S
C1539 C1538 1.524 . S
C1539 C1540 1.415 . S
C1540 H1516 0.950 . S
C1540 C1535 1.363 . S
C1540 C1539 1.415 . S
C1541 H1517 0.951 . S
C1541 C1542 1.366 . S
C1541 C1543 1.388 . S
C1542 C1541 1.366 . S
C1542 C1546 1.385 . S
C1543 H1518 0.951 . S
C1543 C1541 1.388 . S
C1543 C1544 1.366 . S
C1544 C1543 1.366 . S
C1544 C1545 1.414 . S
C1544 C1547 1.499 . S
C1545 H1519 0.950 . S
C1545 C1544 1.414 . S
C1545 C1546 1.374 . S
C1546 H1520 0.950 . S
C1546 C1542 1.385 . S
C1546 C1545 1.374 . S
C1547 C1544 1.499 . S
C1547 C1548 1.373 . S
C1547 C1549 1.389 . S
C1548 H1521 0.950 . S
C1548 C1534 1.377 . S
C1548 C1547 1.373 . S
C1549 C1533 1.377 . S
C1549 C1547 1.389 . S
C1549 C1550 1.524 . S
C1550 C1549 1.524 . S
C1550 C1551 1.397 . S
C1550 C1555 1.363 . S
C1551 H1522 0.950 . S
C1551 C1550 1.397 . S
C1551 C1552 1.334 . S
C1552 H1523 0.950 . S
C1552 C1551 1.334 . S
C1552 C1553 1.287 . S
C1553 C1552 1.287 . S
C1553 C1554 1.524 . S
C1553 H1556 0.999 . S
C1554 H1524 0.950 . S
C1554 C1553 1.524 . S
C1554 C1555 1.415 . S
C1555 H1525 0.950 . S
C1555 C1550 1.363 . S
C1555 C1554 1.415 . S
H1556 C1553 0.999 . S
H1557 C1538 0.913 . S
H1558 C1576 0.951 . S
H1559 C1578 0.951 . S
H1560 C1580 0.950 . S
H1561 C1581 0.950 . S
H1562 C1583 0.950 . S
H1563 C1586 0.950 . S
H1564 C1587 0.950 . S
H1565 C1589 0.950 . S
H1566 C1590 0.950 . S
H1567 C1591 0.951 . S
H1568 C1593 0.951 . S
H1569 C1595 0.950 . S
H1570 C1596 0.950 . S
H1571 C1598 0.950 . S
H1572 C1601 0.950 . S
H1573 C1602 0.950 . S
H1574 C1604 0.950 . S
H1575 C1605 0.950 . S
C1576 H1558 0.951 . S
C1576 C1577 1.366 . S
C1576 C1578 1.388 . S
C1577 C1576 1.366 . S
C1577 C1581 1.385 1_655 S
C1578 H1559 0.951 . S
C1578 C1576 1.388 . S
C1578 C1579 1.366 . S
C1579 C1578 1.366 . S
C1579 C1580 1.414 1_655 S
C1579 C1582 1.499 . S
C1580 H1560 0.950 . S
C1580 C1579 1.414 1_455 S
C1580 C1581 1.374 . S
C1581 H1561 0.950 . S
C1581 C1577 1.385 1_455 S
C1581 C1580 1.374 . S
C1582 C1579 1.499 . S
C1582 C1583 1.373 1_655 S
C1582 C1584 1.389 . S
C1583 H1562 0.950 . S
C1583 C1582 1.373 1_455 S
C1583 C1599 1.377 . S
C1584 C1582 1.389 . S
C1584 C1585 1.524 . S
C1584 C1598 1.377 . S
C1585 C1584 1.524 . S
C1585 C1586 1.397 . S
C1585 C1590 1.363 . S
C1586 H1563 0.950 . S
C1586 C1585 1.397 . S
C1586 C1587 1.334 . S
C1587 H1564 0.950 . S
C1587 C1586 1.334 . S
C1587 C1588 1.287 . S
C1588 C1587 1.287 . S
C1588 C1589 1.524 . S
C1588 H1607 0.913 . S
C1589 H1565 0.950 . S
C1589 C1588 1.524 . S
C1589 C1590 1.415 . S
C1590 H1566 0.950 . S
C1590 C1585 1.363 . S
C1590 C1589 1.415 . S
C1591 H1567 0.951 . S
C1591 C1592 1.366 . S
C1591 C1593 1.388 . S
C1592 C1591 1.366 . S
C1592 C1596 1.385 1_455 S
C1593 H1568 0.951 . S
C1593 C1591 1.388 . S
C1593 C1594 1.366 . S
C1594 C1593 1.366 . S
C1594 C1595 1.414 1_455 S
C1594 C1597 1.499 . S
C1595 H1569 0.950 . S
C1595 C1594 1.414 1_655 S
C1595 C1596 1.374 . S
C1596 H1570 0.950 . S
C1596 C1592 1.385 1_655 S
C1596 C1595 1.374 . S
C1597 C1594 1.499 . S
C1597 C1598 1.373 1_455 S
C1597 C1599 1.389 . S
C1598 H1571 0.950 . S
C1598 C1584 1.377 . S
C1598 C1597 1.373 1_655 S
C1599 C1583 1.377 . S
C1599 C1597 1.389 . S
C1599 C1600 1.524 . S
C1600 C1599 1.524 . S
C1600 C1601 1.397 . S
C1600 C1605 1.363 . S
C1601 H1572 0.950 . S
C1601 C1600 1.397 . S
C1601 C1602 1.334 . S
C1602 H1573 0.950 . S
C1602 C1601 1.334 . S
C1602 C1603 1.287 . S
C1603 C1602 1.287 . S
C1603 C1604 1.524 . S
C1603 H1606 0.999 . S
C1604 H1574 0.950 . S
C1604 C1603 1.524 . S
C1604 C1605 1.415 . S
C1605 H1575 0.950 . S
C1605 C1600 1.363 . S
C1605 C1604 1.415 . S
H1606 C1603 0.999 . S
H1607 C1588 0.913 . S
H1608 C1626 0.951 . S
H1609 C1628 0.951 . S
H1610 C1630 0.950 . S
H1611 C1631 0.950 . S
H1612 C1633 0.950 . S
H1613 C1636 0.950 . S
H1614 C1637 0.950 . S
H1615 C1639 0.950 . S
H1616 C1640 0.950 . S
H1617 C1641 0.951 . S
H1618 C1643 0.951 . S
H1619 C1645 0.950 . S
H1620 C1646 0.950 . S
H1621 C1648 0.950 . S
H1622 C1651 0.950 . S
H1623 C1652 0.950 . S
H1624 C1654 0.950 . S
H1625 C1655 0.950 . S
C1626 H1608 0.951 . S
C1626 C1627 1.366 1_455 S
C1626 C1628 1.388 . S
C1627 C1626 1.366 1_655 S
C1627 C1631 1.385 . S
C1628 H1609 0.951 . S
C1628 C1626 1.388 . S
C1628 C1629 1.366 . S
C1629 C1628 1.366 . S
C1629 C1630 1.416 1_455 S
C1629 C1632 1.484 . S
C1630 H1610 0.950 . S
C1630 C1629 1.416 1_655 S
C1630 C1631 1.374 . S
C1631 H1611 0.950 . S
C1631 C1627 1.385 . S
C1631 C1630 1.374 . S
C1632 C1629 1.484 . S
C1632 C1633 1.361 1_455 S
C1632 C1634 1.415 . S
C1633 H1612 0.950 . S
C1633 C1632 1.361 1_655 S
C1633 C1649 1.377 1_545 S
C1634 C1632 1.415 . S
C1634 C1635 1.524 . S
C1634 C1648 1.377 1_545 S
C1635 C1634 1.524 . S
C1635 C1636 1.397 . S
C1635 C1640 1.363 . S
C1636 H1613 0.950 . S
C1636 C1635 1.397 . S
C1636 C1637 1.334 . S
C1637 H1614 0.950 . S
C1637 C1636 1.334 . S
C1637 C1638 1.287 . S
C1638 C1637 1.287 . S
C1638 C1639 1.524 . S
C1638 H1657 0.913 . S
C1639 H1615 0.950 . S
C1639 C1638 1.524 . S
C1639 C1640 1.415 . S
C1640 H1616 0.950 . S
C1640 C1635 1.363 . S
C1640 C1639 1.415 . S
C1641 H1617 0.951 . S
C1641 C1642 1.366 1_655 S
C1641 C1643 1.388 . S
C1642 C1641 1.366 1_455 S
C1642 C1646 1.385 . S
C1643 H1618 0.951 . S
C1643 C1641 1.388 . S
C1643 C1644 1.365 1_655 S
C1644 C1643 1.365 1_455 S
C1644 C1645 1.421 . S
C1644 C1647 1.487 1_455 S
C1645 H1619 0.950 . S
C1645 C1644 1.421 . S
C1645 C1646 1.374 . S
C1646 H1620 0.950 . S
C1646 C1642 1.385 . S
C1646 C1645 1.374 . S
C1647 C1644 1.487 1_655 S
C1647 C1648 1.369 1_655 S
C1647 C1649 1.398 . S
C1648 H1621 0.950 . S
C1648 C1634 1.377 1_565 S
C1648 C1647 1.369 1_455 S
C1649 C1633 1.377 1_565 S
C1649 C1647 1.398 . S
C1649 C1650 1.524 . S
C1650 C1649 1.524 . S
C1650 C1651 1.397 . S
C1650 C1655 1.363 . S
C1651 H1622 0.950 . S
C1651 C1650 1.397 . S
C1651 C1652 1.334 . S
C1652 H1623 0.950 . S
C1652 C1651 1.334 . S
C1652 C1653 1.287 . S
C1653 C1652 1.287 . S
C1653 C1654 1.524 . S
C1653 H1656 0.999 . S
C1654 H1624 0.950 . S
C1654 C1653 1.524 . S
C1654 C1655 1.415 . S
C1655 H1625 0.950 . S
C1655 C1650 1.363 . S
C1655 C1654 1.415 . S
H1656 C1653 0.999 . S
H1657 C1638 0.913 . S
H1658 C1676 0.951 1_545 S
H1659 C1678 0.951 . S
H1660 C1680 0.950 . S
H1661 C1681 0.950 . S
H1662 C1683 0.950 . S
H1663 C1686 0.950 . S
H1664 C1687 0.950 . S
H1665 C1689 0.950 . S
H1666 C1690 0.950 . S
H1667 C1691 0.951 1_565 S
H1668 C1693 0.951 . S
H1669 C1695 0.950 . S
H1670 C1696 0.950 . S
H1671 C1698 0.950 . S
H1672 C1701 0.950 . S
H1673 C1702 0.950 . S
H1674 C1704 0.950 . S
H1675 C1705 0.950 . S
C1676 H1658 0.951 1_565 S
C1676 C1677 1.366 . S
C1676 C1678 1.388 1_565 S
C1677 C1676 1.366 . S
C1677 C1681 1.385 . S
C1678 H1659 0.951 . S
C1678 C1676 1.388 1_545 S
C1678 C1679 1.366 1_545 S
C1679 C1678 1.366 1_565 S
C1679 C1680 1.414 . S
C1679 C1682 1.499 . S
C1680 H1660 0.950 . S
C1680 C1679 1.414 . S
C1680 C1681 1.374 . S
C1681 H1661 0.950 . S
C1681 C1677 1.385 . S
C1681 C1680 1.374 . S
C1682 C1679 1.499 . S
C1682 C1683 1.373 . S
C1682 C1684 1.389 1_565 S
C1683 H1662 0.950 . S
C1683 C1682 1.373 . S
C1683 C1699 1.377 1_655 S
C1684 C1682 1.389 1_545 S
C1684 C1685 1.524 . S
C1684 C1698 1.377 1_655 S
C1685 C1684 1.524 . S
C1685 C1686 1.397 . S
C1685 C1690 1.363 1_655 S
C1686 H1663 0.950 . S
C1686 C1685 1.397 . S
C1686 C1687 1.334 . S
C1687 H1664 0.950 . S
C1687 C1686 1.334 . S
C1687 C1688 1.287 . S
C1688 C1687 1.287 . S
C1688 C1689 1.524 1_655 S
C1688 H1707 0.913 . S
C1689 H1665 0.950 . S
C1689 C1688 1.524 1_455 S
C1689 C1690 1.415 . S
C1690 H1666 0.950 . S
C1690 C1685 1.363 1_455 S
C1690 C1689 1.415 . S
C1691 H1667 0.951 1_545 S
C1691 C1692 1.366 . S
C1691 C1693 1.388 1_545 S
C1692 C1691 1.366 . S
C1692 C1696 1.385 . S
C1693 H1668 0.951 . S
C1693 C1691 1.388 1_565 S
C1693 C1694 1.366 1_565 S
C1694 C1693 1.366 1_545 S
C1694 C1695 1.414 . S
C1694 C1697 1.499 . S
C1695 H1669 0.950 . S
C1695 C1694 1.414 . S
C1695 C1696 1.374 . S
C1696 H1670 0.950 . S
C1696 C1692 1.385 . S
C1696 C1695 1.374 . S
C1697 C1694 1.499 . S
C1697 C1698 1.373 . S
C1697 C1699 1.389 1_545 S
C1698 H1671 0.950 . S
C1698 C1684 1.377 1_455 S
C1698 C1697 1.373 . S
C1699 C1683 1.377 1_455 S
C1699 C1697 1.389 1_565 S
C1699 C1700 1.524 . S
C1700 C1699 1.524 . S
C1700 C1701 1.397 . S
C1700 C1705 1.363 1_455 S
C1701 H1672 0.950 . S
C1701 C1700 1.397 . S
C1701 C1702 1.334 . S
C1702 H1673 0.950 . S
C1702 C1701 1.334 . S
C1702 C1703 1.287 . S
C1703 C1702 1.287 . S
C1703 C1704 1.524 1_455 S
C1703 H1706 0.999 . S
C1704 H1674 0.950 . S
C1704 C1703 1.524 1_655 S
C1704 C1705 1.415 . S
C1705 H1675 0.950 . S
C1705 C1700 1.363 1_655 S
C1705 C1704 1.415 . S
H1706 C1703 0.999 . S
H1707 C1688 0.913 . S
H1708 C1726 0.951 . S
H1709 C1728 0.951 . S
H1710 C1730 0.950 . S
H1711 C1731 0.950 . S
H1712 C1733 0.950 . S
H1713 C1736 0.950 . S
H1714 C1737 0.950 . S
H1715 C1739 0.950 . S
H1716 C1740 0.950 . S
H1717 C1741 0.951 . S
H1718 C1743 0.951 . S
H1719 C1745 0.950 . S
H1720 C1746 0.950 . S
H1721 C1748 0.950 . S
H1722 C1751 0.950 . S
H1723 C1752 0.950 . S
H1724 C1754 0.950 . S
H1725 C1755 0.950 . S
C1726 H1708 0.951 . S
C1726 C1727 1.366 . S
C1726 C1728 1.388 . S
C1727 C1726 1.366 . S
C1727 C1731 1.385 . S
C1728 H1709 0.951 . S
C1728 C1726 1.388 . S
C1728 C1729 1.366 . S
C1729 C1728 1.366 . S
C1729 C1730 1.414 . S
C1729 C1732 1.499 . S
C1730 H1710 0.950 . S
C1730 C1729 1.414 . S
C1730 C1731 1.374 . S
C1731 H1711 0.950 . S
C1731 C1727 1.385 . S
C1731 C1730 1.374 . S
C1732 C1729 1.499 . S
C1732 C1733 1.373 . S
C1732 C1734 1.389 1_455 S
C1733 H1712 0.950 . S
C1733 C1732 1.373 . S
C1733 C1749 1.377 1_545 S
C1734 C1732 1.389 1_655 S
C1734 C1735 1.524 . S
C1734 C1748 1.377 1_545 S
C1735 C1734 1.524 . S
C1735 C1736 1.397 . S
C1735 C1740 1.363 . S
C1736 H1713 0.950 . S
C1736 C1735 1.397 . S
C1736 C1737 1.334 . S
C1737 H1714 0.950 . S
C1737 C1736 1.334 . S
C1737 C1738 1.287 . S
C1738 C1737 1.287 . S
C1738 C1739 1.524 . S
C1738 H1757 0.913 . S
C1739 H1715 0.950 . S
C1739 C1738 1.524 . S
C1739 C1740 1.415 . S
C1740 H1716 0.950 . S
C1740 C1735 1.363 . S
C1740 C1739 1.415 . S
C1741 H1717 0.951 . S
C1741 C1742 1.366 . S
C1741 C1743 1.388 . S
C1742 C1741 1.366 . S
C1742 C1746 1.385 . S
C1743 H1718 0.951 . S
C1743 C1741 1.388 . S
C1743 C1744 1.366 . S
C1744 C1743 1.366 . S
C1744 C1745 1.414 . S
C1744 C1747 1.499 . S
C1745 H1719 0.950 . S
C1745 C1744 1.414 . S
C1745 C1746 1.374 . S
C1746 H1720 0.950 . S
C1746 C1742 1.385 . S
C1746 C1745 1.374 . S
C1747 C1744 1.499 . S
C1747 C1748 1.373 . S
C1747 C1749 1.389 1_655 S
C1748 H1721 0.950 . S
C1748 C1734 1.377 1_565 S
C1748 C1747 1.373 . S
C1749 C1733 1.377 1_565 S
C1749 C1747 1.389 1_455 S
C1749 C1750 1.524 . S
C1750 C1749 1.524 . S
C1750 C1751 1.397 . S
C1750 C1755 1.363 . S
C1751 H1722 0.950 . S
C1751 C1750 1.397 . S
C1751 C1752 1.334 . S
C1752 H1723 0.950 . S
C1752 C1751 1.334 . S
C1752 C1753 1.287 . S
C1753 C1752 1.287 . S
C1753 C1754 1.524 . S
C1753 H1756 0.999 . S
C1754 H1724 0.950 . S
C1754 C1753 1.524 . S
C1754 C1755 1.415 . S
C1755 H1725 0.950 . S
C1755 C1750 1.363 . S
C1755 C1754 1.415 . S
H1756 C1753 0.999 . S
H1757 C1738 0.913 . S
H1758 C1776 0.951 . S
H1759 C1778 0.951 . S
H1760 C1780 0.950 . S
H1761 C1781 0.950 . S
H1762 C1783 0.950 . S
H1763 C1786 0.950 . S
H1764 C1787 0.950 . S
H1765 C1789 0.950 1_545 S
H1766 C1790 0.950 1_455 S
H1767 C1791 0.951 . S
H1768 C1793 0.951 . S
H1769 C1795 0.950 . S
H1770 C1796 0.950 . S
H1771 C1798 0.950 . S
H1772 C1801 0.950 . S
H1773 C1802 0.950 . S
H1774 C1804 0.950 1_565 S
H1775 C1805 0.950 1_655 S
C1776 H1758 0.951 . S
C1776 C1777 1.366 . S
C1776 C1778 1.388 . S
C1777 C1776 1.366 . S
C1777 C1781 1.385 1_545 S
C1778 H1759 0.951 . S
C1778 C1776 1.388 . S
C1778 C1779 1.366 . S
C1779 C1778 1.366 . S
C1779 C1780 1.414 1_545 S
C1779 C1782 1.500 . S
C1780 H1760 0.950 . S
C1780 C1779 1.414 1_565 S
C1780 C1781 1.374 . S
C1781 H1761 0.950 . S
C1781 C1777 1.385 1_565 S
C1781 C1780 1.374 . S
C1782 C1779 1.500 . S
C1782 C1783 1.373 . S
C1782 C1784 1.388 1_545 S
C1783 H1762 0.950 . S
C1783 C1782 1.373 . S
C1783 C1799 1.377 1_655 S
C1784 C1782 1.388 1_565 S
C1784 C1785 1.524 . S
C1784 C1798 1.377 1_655 S
C1785 C1784 1.524 . S
C1785 C1786 1.397 . S
C1785 C1790 1.363 1_565 S
C1786 H1763 0.950 . S
C1786 C1785 1.397 . S
C1786 C1787 1.334 . S
C1787 H1764 0.950 . S
C1787 C1786 1.334 . S
C1787 C1788 1.287 . S
C1788 C1787 1.287 . S
C1788 C1789 1.524 . S
C1788 H1807 0.913 . S
C1789 H1765 0.950 1_565 S
C1789 C1788 1.524 . S
C1789 C1790 1.415 1_565 S
C1790 H1766 0.950 1_655 S
C1790 C1785 1.363 1_545 S
C1790 C1789 1.415 1_545 S
C1791 H1767 0.951 . S
C1791 C1792 1.366 . S
C1791 C1793 1.388 . S
C1792 C1791 1.366 . S
C1792 C1796 1.385 1_565 S
C1793 H1768 0.951 . S
C1793 C1791 1.388 . S
C1793 C1794 1.366 . S
C1794 C1793 1.366 . S
C1794 C1795 1.414 1_565 S
C1794 C1797 1.482 1_565 S
C1795 H1769 0.950 . S
C1795 C1794 1.414 1_545 S
C1795 C1796 1.374 . S
C1796 H1770 0.950 . S
C1796 C1792 1.385 1_545 S
C1796 C1795 1.374 . S
C1797 C1794 1.482 1_545 S
C1797 C1798 1.377 1_545 S
C1797 C1799 1.401 . S
C1798 H1771 0.950 . S
C1798 C1784 1.377 1_455 S
C1798 C1797 1.377 1_565 S
C1799 C1783 1.377 1_455 S
C1799 C1797 1.401 . S
C1799 C1800 1.524 . S
C1800 C1799 1.524 . S
C1800 C1801 1.397 . S
C1800 C1805 1.363 1_545 S
C1801 H1772 0.950 . S
C1801 C1800 1.397 . S
C1801 C1802 1.334 . S
C1802 H1773 0.950 . S
C1802 C1801 1.334 . S
C1802 C1803 1.287 . S
C1803 C1802 1.287 . S
C1803 C1804 1.524 . S
C1803 H1806 0.999 . S
C1804 H1774 0.950 1_545 S
C1804 C1803 1.524 . S
C1804 C1805 1.415 1_545 S
C1805 H1775 0.950 1_455 S
C1805 C1800 1.363 1_565 S
C1805 C1804 1.415 1_565 S
H1806 C1803 0.999 . S
H1807 C1788 0.913 . S
H1808 C1826 0.951 . S
H1809 C1828 0.951 . S
H1810 C1830 0.950 . S
H1811 C1831 0.950 . S
H1812 C1833 0.950 . S
H1813 C1836 0.950 . S
H1814 C1837 0.950 . S
H1815 C1839 0.950 . S
H1816 C1840 0.950 . S
H1817 C1841 0.951 . S
H1818 C1843 0.951 . S
H1819 C1845 0.950 . S
H1820 C1846 0.950 . S
H1821 C1848 0.950 . S
H1822 C1851 0.950 . S
H1823 C1852 0.950 . S
H1824 C1854 0.950 . S
H1825 C1855 0.950 . S
C1826 H1808 0.951 . S
C1826 C1827 1.366 . S
C1826 C1828 1.388 . S
C1827 C1826 1.366 . S
C1827 C1831 1.385 . S
C1828 H1809 0.951 . S
C1828 C1826 1.388 . S
C1828 C1829 1.366 . S
C1829 C1828 1.366 . S
C1829 C1830 1.414 . S
C1829 C1832 1.499 . S
C1830 H1810 0.950 . S
C1830 C1829 1.414 . S
C1830 C1831 1.374 . S
C1831 H1811 0.950 . S
C1831 C1827 1.385 . S
C1831 C1830 1.374 . S
C1832 C1829 1.499 . S
C1832 C1833 1.373 . S
C1832 C1834 1.389 . S
C1833 H1812 0.950 . S
C1833 C1832 1.373 . S
C1833 C1849 1.377 1_665 S
C1834 C1832 1.389 . S
C1834 C1835 1.524 . S
C1834 C1848 1.377 1_665 S
C1835 C1834 1.524 . S
C1835 C1836 1.397 . S
C1835 C1840 1.363 1_655 S
C1836 H1813 0.950 . S
C1836 C1835 1.397 . S
C1836 C1837 1.334 . S
C1837 H1814 0.950 . S
C1837 C1836 1.334 . S
C1837 C1838 1.287 . S
C1838 C1837 1.287 . S
C1838 C1839 1.524 1_655 S
C1838 H1857 0.913 . S
C1839 H1815 0.950 . S
C1839 C1838 1.524 1_455 S
C1839 C1840 1.415 . S
C1840 H1816 0.950 . S
C1840 C1835 1.363 1_455 S
C1840 C1839 1.415 . S
C1841 H1817 0.951 . S
C1841 C1842 1.366 . S
C1841 C1843 1.388 . S
C1842 C1841 1.366 . S
C1842 C1846 1.385 . S
C1843 H1818 0.951 . S
C1843 C1841 1.388 . S
C1843 C1844 1.366 . S
C1844 C1843 1.366 . S
C1844 C1845 1.414 . S
C1844 C1847 1.499 . S
C1845 H1819 0.950 . S
C1845 C1844 1.414 . S
C1845 C1846 1.374 . S
C1846 H1820 0.950 . S
C1846 C1842 1.385 . S
C1846 C1845 1.374 . S
C1847 C1844 1.499 . S
C1847 C1848 1.373 . S
C1847 C1849 1.389 . S
C1848 H1821 0.950 . S
C1848 C1834 1.377 1_445 S
C1848 C1847 1.373 . S
C1849 C1833 1.377 1_445 S
C1849 C1847 1.389 . S
C1849 C1850 1.524 . S
C1850 C1849 1.524 . S
C1850 C1851 1.397 . S
C1850 C1855 1.363 1_455 S
C1851 H1822 0.950 . S
C1851 C1850 1.397 . S
C1851 C1852 1.334 . S
C1852 H1823 0.950 . S
C1852 C1851 1.334 . S
C1852 C1853 1.287 . S
C1853 C1852 1.287 . S
C1853 C1854 1.524 1_455 S
C1853 H1856 0.999 . S
C1854 H1824 0.950 . S
C1854 C1853 1.524 1_655 S
C1854 C1855 1.415 . S
C1855 H1825 0.950 . S
C1855 C1850 1.363 1_655 S
C1855 C1854 1.415 . S
H1856 C1853 0.999 . S
H1857 C1838 0.913 . S
H1858 C1876 0.951 . S
H1859 C1878 0.951 . S
H1860 C1880 0.950 . S
H1861 C1881 0.950 . S
H1862 C1883 0.950 . S
H1863 C1886 0.950 . S
H1864 C1887 0.950 . S
H1865 C1889 0.950 . S
H1866 C1890 0.950 . S
H1867 C1891 0.951 . S
H1868 C1893 0.951 . S
H1869 C1895 0.950 . S
H1870 C1896 0.950 . S
H1871 C1898 0.950 . S
H1872 C1901 0.950 . S
H1873 C1902 0.950 . S
H1874 C1904 0.950 . S
H1875 C1905 0.950 . S
C1876 H1858 0.951 . S
C1876 C1877 1.366 1_455 S
C1876 C1878 1.388 . S
C1877 C1876 1.366 1_655 S
C1877 C1881 1.385 . S
C1878 H1859 0.951 . S
C1878 C1876 1.388 . S
C1878 C1879 1.366 1_455 S
C1879 C1878 1.366 1_655 S
C1879 C1880 1.414 . S
C1879 C1882 1.499 . S
C1880 H1860 0.950 . S
C1880 C1879 1.414 . S
C1880 C1881 1.374 . S
C1881 H1861 0.950 . S
C1881 C1877 1.385 . S
C1881 C1880 1.374 . S
C1882 C1879 1.499 . S
C1882 C1883 1.373 . S
C1882 C1884 1.389 1_655 S
C1883 H1862 0.950 . S
C1883 C1882 1.373 . S
C1883 C1899 1.377 1_565 S
C1884 C1882 1.389 1_455 S
C1884 C1885 1.524 . S
C1884 C1898 1.377 1_565 S
C1885 C1884 1.524 . S
C1885 C1886 1.397 . S
C1885 C1890 1.363 1_565 S
C1886 H1863 0.950 . S
C1886 C1885 1.397 . S
C1886 C1887 1.334 . S
C1887 H1864 0.950 . S
C1887 C1886 1.334 . S
C1887 C1888 1.287 . S
C1888 C1887 1.287 . S
C1888 C1889 1.524 1_565 S
C1888 H1907 0.913 . S
C1889 H1865 0.950 . S
C1889 C1888 1.524 1_545 S
C1889 C1890 1.415 . S
C1890 H1866 0.950 . S
C1890 C1885 1.363 1_545 S
C1890 C1889 1.415 . S
C1891 H1867 0.951 . S
C1891 C1892 1.366 1_655 S
C1891 C1893 1.388 . S
C1892 C1891 1.366 1_455 S
C1892 C1896 1.385 . S
C1893 H1868 0.951 . S
C1893 C1891 1.388 . S
C1893 C1894 1.366 1_655 S
C1894 C1893 1.366 1_455 S
C1894 C1895 1.414 . S
C1894 C1897 1.499 . S
C1895 H1869 0.950 . S
C1895 C1894 1.414 . S
C1895 C1896 1.374 . S
C1896 H1870 0.950 . S
C1896 C1892 1.385 . S
C1896 C1895 1.374 . S
C1897 C1894 1.499 . S
C1897 C1898 1.373 . S
C1897 C1899 1.389 1_455 S
C1898 H1871 0.950 . S
C1898 C1884 1.377 1_545 S
C1898 C1897 1.373 . S
C1899 C1883 1.377 1_545 S
C1899 C1897 1.389 1_655 S
C1899 C1900 1.524 . S
C1900 C1899 1.524 . S
C1900 C1901 1.397 . S
C1900 C1905 1.363 1_545 S
C1901 H1872 0.950 . S
C1901 C1900 1.397 . S
C1901 C1902 1.334 . S
C1902 H1873 0.950 . S
C1902 C1901 1.334 . S
C1902 C1903 1.287 . S
C1903 C1902 1.287 . S
C1903 C1904 1.524 1_545 S
C1903 H1906 0.999 . S
C1904 H1874 0.950 . S
C1904 C1903 1.524 1_565 S
C1904 C1905 1.415 . S
C1905 H1875 0.950 . S
C1905 C1900 1.363 1_565 S
C1905 C1904 1.415 . S
H1906 C1903 0.999 . S
H1907 C1888 0.913 . S
C727 C652 1.366 . S
C742 C3 1.361 . S
C777 C62 1.378 . S
C792 C357 1.375 . S
C827 C121 1.365 . S
C842 C416 1.359 . S
C877 C180 1.361 . S
C892 C475 1.365 . S
C927 C534 1.375 . S
C942 C239 1.377 . S
C977 C298 1.363 . S
C992 C593 1.357 . S
C1027 C33 1.192 . S
C1042 C623 1.192 . S
C1077 C92 1.256 . S
C1092 C682 1.254 . S
C1127 C151 1.245 . S
C1142 C387 1.242 . S
C1177 C210 1.193 . S
C1192 C446 1.193 . S
C1227 C505 1.256 . S
C1242 C269 1.255 . S
C1277 C564 1.243 . S
C1292 C328 1.246 . S
C1327 C182 1.294 1_455 S
C1342 C5 1.294 1_655 S
C1377 C64 1.419 . S
C1392 C241 1.420 . S
C1427 C300 1.444 . S
C1442 C123 1.444 . S
C1477 C536 1.373 . S
C1492 C359 1.369 . S
C1527 C595 1.302 . S
C1542 C418 1.303 . S
C1577 C477 1.407 . S
C1592 C654 1.404 . S
C1627 C52 1.183 1_655 S
C1642 C229 1.183 1_455 S
C1677 C111 1.215 . S
C1692 C288 1.216 . S
C1727 C347 1.326 . S
C1742 C170 1.326 . S
C1777 C406 1.130 . S
C1792 C583 1.130 . S
C1827 C465 1.181 . S
C1842 C642 1.182 . S
C1877 C524 1.227 . S
C1892 C701 1.232 . S
