# Generated by pormake.
# Topology unl, (4)-cn, num edge types: 1
# Building blocks:
#     Node 0, Type 0, BuildingBlock: CEKHIL_clean_sbu_0, # of connection points: 4
#     Node 1, Type 0, BuildingBlock: CEKHIL_clean_sbu_0, # of connection points: 4
#     Node 2, Type 0, BuildingBlock: CEKHIL_clean_sbu_0, # of connection points: 4
#     Node 3, Type 0, BuildingBlock: CEKHIL_clean_sbu_0, # of connection points: 4
#     Node 4, Type 0, BuildingBlock: CEKHIL_clean_sbu_0, # of connection points: 4
#     Node 5, Type 0, BuildingBlock: CEKHIL_clean_sbu_0, # of connection points: 4
#     Node 6, Type 0, BuildingBlock: CEKHIL_clean_sbu_0, # of connection points: 4
#     Node 7, Type 0, BuildingBlock: CEKHIL_clean_sbu_0, # of connection points: 4
#     Node 8, Type 0, BuildingBlock: CEKHIL_clean_sbu_0, # of connection points: 4
#     Node 9, Type 0, BuildingBlock: CEKHIL_clean_sbu_0, # of connection points: 4
#     Node 10, Type 0, BuildingBlock: CEKHIL_clean_sbu_0, # of connection points: 4
#     Node 11, Type 0, BuildingBlock: CEKHIL_clean_sbu_0, # of connection points: 4
#     Node 12, Type 0, BuildingBlock: CEKHIL_clean_sbu_0, # of connection points: 4
#     Node 13, Type 0, BuildingBlock: CEKHIL_clean_sbu_0, # of connection points: 4
#     Node 14, Type 0, BuildingBlock: CEKHIL_clean_sbu_0, # of connection points: 4
#     Node 15, Type 0, BuildingBlock: CEKHIL_clean_sbu_0, # of connection points: 4
#     Node 16, Type 0, BuildingBlock: CEKHIL_clean_sbu_0, # of connection points: 4
#     Node 17, Type 0, BuildingBlock: CEKHIL_clean_sbu_0, # of connection points: 4
#     Node 18, Type 0, BuildingBlock: CEKHIL_clean_sbu_0, # of connection points: 4
#     Node 19, Type 0, BuildingBlock: CEKHIL_clean_sbu_0, # of connection points: 4
#     Node 20, Type 0, BuildingBlock: CEKHIL_clean_sbu_0, # of connection points: 4
#     Node 21, Type 0, BuildingBlock: CEKHIL_clean_sbu_0, # of connection points: 4
#     Node 22, Type 0, BuildingBlock: CEKHIL_clean_sbu_0, # of connection points: 4
#     Node 23, Type 0, BuildingBlock: CEKHIL_clean_sbu_0, # of connection points: 4
#     Node 24, Type 0, BuildingBlock: CEKHIL_clean_sbu_0, # of connection points: 4
#     Node 25, Type 0, BuildingBlock: CEKHIL_clean_sbu_0, # of connection points: 4
#     Node 26, Type 0, BuildingBlock: CEKHIL_clean_sbu_0, # of connection points: 4
#     Node 27, Type 0, BuildingBlock: CEKHIL_clean_sbu_0, # of connection points: 4
#     Node 28, Type 0, BuildingBlock: CEKHIL_clean_sbu_0, # of connection points: 4
#     Node 29, Type 0, BuildingBlock: CEKHIL_clean_sbu_0, # of connection points: 4
#     Node 30, Type 0, BuildingBlock: CEKHIL_clean_sbu_0, # of connection points: 4
#     Node 31, Type 0, BuildingBlock: CEKHIL_clean_sbu_0, # of connection points: 4
#     Node 32, Type 0, BuildingBlock: CEKHIL_clean_sbu_0, # of connection points: 4
#     Node 33, Type 0, BuildingBlock: CEKHIL_clean_sbu_0, # of connection points: 4
#     Node 34, Type 0, BuildingBlock: CEKHIL_clean_sbu_0, # of connection points: 4
#     Node 35, Type 0, BuildingBlock: CEKHIL_clean_sbu_0, # of connection points: 4
#     Edge 36, Type (0, 0), BuildingBlock: XUDNAN_clean_linker_2, # of connection points: 2
#     Edge 37, Type (0, 0), BuildingBlock: XUDNAN_clean_linker_2, # of connection points: 2
#     Edge 38, Type (0, 0), BuildingBlock: XUDNAN_clean_linker_2, # of connection points: 2
#     Edge 39, Type (0, 0), BuildingBlock: XUDNAN_clean_linker_2, # of connection points: 2
#     Edge 40, Type (0, 0), BuildingBlock: XUDNAN_clean_linker_2, # of connection points: 2
#     Edge 41, Type (0, 0), BuildingBlock: XUDNAN_clean_linker_2, # of connection points: 2
#     Edge 42, Type (0, 0), BuildingBlock: XUDNAN_clean_linker_2, # of connection points: 2
#     Edge 43, Type (0, 0), BuildingBlock: XUDNAN_clean_linker_2, # of connection points: 2
#     Edge 44, Type (0, 0), BuildingBlock: XUDNAN_clean_linker_2, # of connection points: 2
#     Edge 45, Type (0, 0), BuildingBlock: XUDNAN_clean_linker_2, # of connection points: 2
#     Edge 46, Type (0, 0), BuildingBlock: XUDNAN_clean_linker_2, # of connection points: 2
#     Edge 47, Type (0, 0), BuildingBlock: XUDNAN_clean_linker_2, # of connection points: 2
#     Edge 48, Type (0, 0), BuildingBlock: XUDNAN_clean_linker_2, # of connection points: 2
#     Edge 49, Type (0, 0), BuildingBlock: XUDNAN_clean_linker_2, # of connection points: 2
#     Edge 50, Type (0, 0), BuildingBlock: XUDNAN_clean_linker_2, # of connection points: 2
#     Edge 51, Type (0, 0), BuildingBlock: XUDNAN_clean_linker_2, # of connection points: 2
#     Edge 52, Type (0, 0), BuildingBlock: XUDNAN_clean_linker_2, # of connection points: 2
#     Edge 53, Type (0, 0), BuildingBlock: XUDNAN_clean_linker_2, # of connection points: 2
#     Edge 54, Type (0, 0), BuildingBlock: XUDNAN_clean_linker_2, # of connection points: 2
#     Edge 55, Type (0, 0), BuildingBlock: XUDNAN_clean_linker_2, # of connection points: 2
#     Edge 56, Type (0, 0), BuildingBlock: XUDNAN_clean_linker_2, # of connection points: 2
#     Edge 57, Type (0, 0), BuildingBlock: XUDNAN_clean_linker_2, # of connection points: 2
#     Edge 58, Type (0, 0), BuildingBlock: XUDNAN_clean_linker_2, # of connection points: 2
#     Edge 59, Type (0, 0), BuildingBlock: XUDNAN_clean_linker_2, # of connection points: 2
#     Edge 60, Type (0, 0), BuildingBlock: XUDNAN_clean_linker_2, # of connection points: 2
#     Edge 61, Type (0, 0), BuildingBlock: XUDNAN_clean_linker_2, # of connection points: 2
#     Edge 62, Type (0, 0), BuildingBlock: XUDNAN_clean_linker_2, # of connection points: 2
#     Edge 63, Type (0, 0), BuildingBlock: XUDNAN_clean_linker_2, # of connection points: 2
#     Edge 64, Type (0, 0), BuildingBlock: XUDNAN_clean_linker_2, # of connection points: 2
#     Edge 65, Type (0, 0), BuildingBlock: XUDNAN_clean_linker_2, # of connection points: 2
#     Edge 66, Type (0, 0), BuildingBlock: XUDNAN_clean_linker_2, # of connection points: 2
#     Edge 67, Type (0, 0), BuildingBlock: XUDNAN_clean_linker_2, # of connection points: 2
#     Edge 68, Type (0, 0), BuildingBlock: XUDNAN_clean_linker_2, # of connection points: 2
#     Edge 69, Type (0, 0), BuildingBlock: XUDNAN_clean_linker_2, # of connection points: 2
#     Edge 70, Type (0, 0), BuildingBlock: XUDNAN_clean_linker_2, # of connection points: 2
#     Edge 71, Type (0, 0), BuildingBlock: XUDNAN_clean_linker_2, # of connection points: 2
#     Edge 72, Type (0, 0), BuildingBlock: XUDNAN_clean_linker_2, # of connection points: 2
#     Edge 73, Type (0, 0), BuildingBlock: XUDNAN_clean_linker_2, # of connection points: 2
#     Edge 74, Type (0, 0), BuildingBlock: XUDNAN_clean_linker_2, # of connection points: 2
#     Edge 75, Type (0, 0), BuildingBlock: XUDNAN_clean_linker_2, # of connection points: 2
#     Edge 76, Type (0, 0), BuildingBlock: XUDNAN_clean_linker_2, # of connection points: 2
#     Edge 77, Type (0, 0), BuildingBlock: XUDNAN_clean_linker_2, # of connection points: 2
#     Edge 78, Type (0, 0), BuildingBlock: XUDNAN_clean_linker_2, # of connection points: 2
#     Edge 79, Type (0, 0), BuildingBlock: XUDNAN_clean_linker_2, # of connection points: 2
#     Edge 80, Type (0, 0), BuildingBlock: XUDNAN_clean_linker_2, # of connection points: 2
#     Edge 81, Type (0, 0), BuildingBlock: XUDNAN_clean_linker_2, # of connection points: 2
#     Edge 82, Type (0, 0), BuildingBlock: XUDNAN_clean_linker_2, # of connection points: 2
#     Edge 83, Type (0, 0), BuildingBlock: XUDNAN_clean_linker_2, # of connection points: 2
#     Edge 84, Type (0, 0), BuildingBlock: XUDNAN_clean_linker_2, # of connection points: 2
#     Edge 85, Type (0, 0), BuildingBlock: XUDNAN_clean_linker_2, # of connection points: 2
#     Edge 86, Type (0, 0), BuildingBlock: XUDNAN_clean_linker_2, # of connection points: 2
#     Edge 87, Type (0, 0), BuildingBlock: XUDNAN_clean_linker_2, # of connection points: 2
#     Edge 88, Type (0, 0), BuildingBlock: XUDNAN_clean_linker_2, # of connection points: 2
#     Edge 89, Type (0, 0), BuildingBlock: XUDNAN_clean_linker_2, # of connection points: 2
#     Edge 90, Type (0, 0), BuildingBlock: XUDNAN_clean_linker_2, # of connection points: 2
#     Edge 91, Type (0, 0), BuildingBlock: XUDNAN_clean_linker_2, # of connection points: 2
#     Edge 92, Type (0, 0), BuildingBlock: XUDNAN_clean_linker_2, # of connection points: 2
#     Edge 93, Type (0, 0), BuildingBlock: XUDNAN_clean_linker_2, # of connection points: 2
#     Edge 94, Type (0, 0), BuildingBlock: XUDNAN_clean_linker_2, # of connection points: 2
#     Edge 95, Type (0, 0), BuildingBlock: XUDNAN_clean_linker_2, # of connection points: 2
#     Edge 96, Type (0, 0), BuildingBlock: XUDNAN_clean_linker_2, # of connection points: 2
#     Edge 97, Type (0, 0), BuildingBlock: XUDNAN_clean_linker_2, # of connection points: 2
#     Edge 98, Type (0, 0), BuildingBlock: XUDNAN_clean_linker_2, # of connection points: 2
#     Edge 99, Type (0, 0), BuildingBlock: XUDNAN_clean_linker_2, # of connection points: 2
#     Edge 100, Type (0, 0), BuildingBlock: XUDNAN_clean_linker_2, # of connection points: 2
#     Edge 101, Type (0, 0), BuildingBlock: XUDNAN_clean_linker_2, # of connection points: 2
#     Edge 102, Type (0, 0), BuildingBlock: XUDNAN_clean_linker_2, # of connection points: 2
#     Edge 103, Type (0, 0), BuildingBlock: XUDNAN_clean_linker_2, # of connection points: 2
#     Edge 104, Type (0, 0), BuildingBlock: XUDNAN_clean_linker_2, # of connection points: 2
#     Edge 105, Type (0, 0), BuildingBlock: XUDNAN_clean_linker_2, # of connection points: 2
#     Edge 106, Type (0, 0), BuildingBlock: XUDNAN_clean_linker_2, # of connection points: 2
#     Edge 107, Type (0, 0), BuildingBlock: XUDNAN_clean_linker_2, # of connection points: 2
# Relax obj value: 0.039
# Max RMSD: 0.122
# Mean RMSD: 0.122
data_MOF--net-unl--node1-CEKHIL_clean_sbu_0--edge1-XUDNAN_clean_linker_2
_symmetry_space_group_name_H-M    P1
_symmetry_Int_Tables_number       1
_symmetry_cell_setting            triclinic
loop_
_symmetry_equiv_pos_as_xyz
'x, y, z'
_cell_length_a     64.343966
_cell_length_b     64.370082
_cell_length_c     40.84714
_cell_angle_alpha  89.973953
_cell_angle_beta   89.976607
_cell_angle_gamma 119.98755
loop_
_atom_site_label
_atom_site_type_symbol
_atom_site_fract_x
_atom_site_fract_y
_atom_site_fract_z
_atom_type_partial_charge
Co0 Co 0.20687 0.11179 0.1154 0.0
O1 O 0.22357 0.1017 0.14471 0.0
O2 O 0.24062 0.1363 0.11835 0.0
C3 C 0.18728 0.0765 0.08791 0.0
O4 O 0.19544 0.12789 0.08236 0.0
Co5 Co 0.15104 0.08575 0.11478 0.0
O6 O 0.15589 0.10386 0.0735 0.0
C7 C 0.17812 0.12112 0.16698 0.0
C8 C 0.24295 0.1217 0.13808 0.0
C9 C 0.17592 0.12241 0.06675 0.0
O10 O 0.19824 0.12675 0.15296 0.0
O11 O 0.15786 0.10413 0.15684 0.0
O12 O 0.20922 0.09222 0.08019 0.0
O13 O 0.17881 0.08182 0.11312 0.0
Co14 Co 0.8888 0.09356 0.12047 0.0
O15 O 0.89702 0.11692 0.15479 0.0
O16 O 0.86135 0.09723 0.13154 0.0
C17 C 0.92182 0.1168 0.08969 0.0
O18 O 0.87397 0.06879 0.0836 0.0
Co19 Co 0.92187 0.07266 0.10333 0.0
O20 O 0.90162 0.06052 0.06369 0.0
C21 C 0.88636 0.05135 0.15773 0.0
C22 C 0.87559 0.11383 0.15188 0.0
C23 C 0.8809 0.05849 0.06264 0.0
O24 O 0.879 0.06648 0.15333 0.0
O25 O 0.90362 0.0518 0.14145 0.0
O26 O 0.90316 0.11947 0.08839 0.0
O27 O 0.92079 0.10158 0.11118 0.0
Co28 Co 0.90848 0.78834 0.11507 0.0
O29 O 0.88346 0.77132 0.14661 0.0
O30 O 0.90386 0.75637 0.12253 0.0
C31 C 0.88766 0.8012 0.08492 0.0
O32 O 0.93506 0.80066 0.08042 0.0
Co33 Co 0.93172 0.84339 0.10839 0.0
O34 O 0.94503 0.83847 0.06728 0.0
C35 C 0.94648 0.82334 0.16284 0.0
C36 C 0.88674 0.75321 0.14253 0.0
C37 C 0.94638 0.81962 0.0625 0.0
O38 O 0.93322 0.80214 0.1511 0.0
O39 O 0.94713 0.842 0.15062 0.0
O40 O 0.8846 0.77987 0.08084 0.0
O41 O 0.90161 0.81339 0.10885 0.0
Co42 Co 0.13795 0.22976 0.39843 0.0
O43 O 0.13617 0.253 0.37004 0.0
O44 O 0.16888 0.25855 0.39542 0.0
C45 C 0.10439 0.22024 0.4276 0.0
O46 O 0.14722 0.21128 0.43037 0.0
Co47 Co 0.09889 0.17602 0.40051 0.0
O48 O 0.11629 0.17425 0.43954 0.0
C49 C 0.13472 0.19405 0.34671 0.0
C50 C 0.1587 0.26722 0.37673 0.0
C51 C 0.1376 0.19098 0.44545 0.0
O52 O 0.1459 0.21496 0.36012 0.0
O53 O 0.11488 0.17692 0.35782 0.0
O54 O 0.12458 0.23941 0.43442 0.0
O55 O 0.10462 0.20851 0.40207 0.0
Co56 Co 0.79124 0.90749 0.3937 0.0
O57 O 0.76564 0.88081 0.36995 0.0
O58 O 0.76237 0.90965 0.39441 0.0
C59 C 0.80311 0.88515 0.42235 0.0
O60 O 0.81203 0.937 0.42157 0.0
Co61 Co 0.84484 0.92252 0.38945 0.0
O62 O 0.84966 0.94403 0.4271 0.0
C63 C 0.82218 0.93494 0.33553 0.0
C64 C 0.75215 0.88975 0.37787 0.0
C65 C 0.83313 0.94864 0.43428 0.0
O66 O 0.80273 0.92746 0.35226 0.0
O67 O 0.8399 0.93263 0.34489 0.0
O68 O 0.78498 0.88712 0.43222 0.0
O69 O 0.81266 0.89547 0.39489 0.0
Co70 Co 0.09808 0.87774 0.39475 0.0
O71 O 0.12142 0.87656 0.36602 0.0
O72 O 0.09493 0.84616 0.39578 0.0
C73 C 0.12389 0.91275 0.4194 0.0
O74 O 0.07214 0.8725 0.42842 0.0
Co75 Co 0.08618 0.91888 0.38873 0.0
O76 O 0.07146 0.90707 0.43235 0.0
C77 C 0.06511 0.8788 0.34147 0.0
C78 C 0.11302 0.85458 0.37563 0.0
C79 C 0.06533 0.88606 0.44253 0.0
O80 O 0.07402 0.86788 0.35769 0.0
O81 O 0.06938 0.89995 0.34859 0.0
O82 O 0.12256 0.89283 0.42863 0.0
O83 O 0.11151 0.91129 0.39371 0.0
Co84 Co 0.78452 0.88086 0.90066 0.0
O85 O 0.76097 0.88191 0.87211 0.0
O86 O 0.75571 0.85005 0.89971 0.0
C87 C 0.79474 0.91528 0.92779 0.0
O88 O 0.80299 0.87229 0.93328 0.0
Co89 Co 0.8384 0.91881 0.90091 0.0
O90 O 0.84078 0.90217 0.94046 0.0
C91 C 0.81922 0.8815 0.84919 0.0
C92 C 0.74682 0.85965 0.88036 0.0
C93 C 0.82349 0.88145 0.94769 0.0
O94 O 0.79846 0.87132 0.86306 0.0
O95 O 0.83685 0.90138 0.85925 0.0
O96 O 0.77553 0.89541 0.9356 0.0
O97 O 0.80624 0.91428 0.90237 0.0
Co98 Co 0.11751 0.90827 0.88785 0.0
O99 O 0.11885 0.88453 0.86054 0.0
O100 O 0.14988 0.91347 0.88673 0.0
C101 C 0.08449 0.88189 0.91614 0.0
O102 O 0.12257 0.93506 0.91966 0.0
Co103 Co 0.07368 0.91614 0.88419 0.0
O104 O 0.08693 0.93322 0.92604 0.0
C105 C 0.11008 0.93486 0.83152 0.0
C106 C 0.14131 0.89437 0.86847 0.0
C107 C 0.10867 0.94108 0.93451 0.0
O108 O 0.12403 0.93009 0.84858 0.0
O109 O 0.08862 0.9287 0.84017 0.0
O110 O 0.10551 0.88536 0.92405 0.0
O111 O 0.08379 0.89272 0.88987 0.0
Co112 Co 0.10061 0.22093 0.89716 0.0
O113 O 0.12568 0.24518 0.86959 0.0
O114 O 0.09821 0.24954 0.89628 0.0
C115 C 0.12435 0.21053 0.92511 0.0
O116 O 0.07299 0.20188 0.92884 0.0
Co117 Co 0.08514 0.16707 0.89662 0.0
O118 O 0.06567 0.16426 0.93589 0.0
C119 C 0.06818 0.18665 0.84403 0.0
C120 C 0.11712 0.25899 0.87769 0.0
C121 C 0.0618 0.18129 0.94304 0.0
O122 O 0.07795 0.20714 0.85864 0.0
O123 O 0.07055 0.16907 0.854 0.0
O124 O 0.12353 0.22965 0.93295 0.0
O125 O 0.11244 0.19937 0.8992 0.0
Co126 Co 0.8926 0.79772 0.62084 0.0
O127 O 0.90024 0.77971 0.65141 0.0
O128 O 0.86627 0.76466 0.62385 0.0
C129 C 0.92851 0.81509 0.59428 0.0
O130 O 0.87884 0.81069 0.58631 0.0
Co131 Co 0.92236 0.85362 0.62111 0.0
O132 O 0.90148 0.85105 0.58395 0.0
C133 C 0.88588 0.82835 0.67241 0.0
C134 C 0.87957 0.7612 0.64466 0.0
C135 C 0.88383 0.83124 0.57434 0.0
O136 O 0.87834 0.80814 0.6575 0.0
O137 O 0.90455 0.84775 0.66335 0.0
O138 O 0.91182 0.79352 0.58668 0.0
O139 O 0.92369 0.82436 0.61905 0.0
Co140 Co 0.21353 0.09019 0.61282 0.0
O141 O 0.23455 0.11298 0.64558 0.0
O142 O 0.24132 0.0869 0.61944 0.0
C143 C 0.20763 0.11697 0.58404 0.0
O144 O 0.19834 0.06508 0.57679 0.0
Co145 Co 0.161 0.07696 0.5988 0.0
O146 O 0.16287 0.05964 0.55974 0.0
C147 C 0.17183 0.05274 0.65313 0.0
C148 C 0.24901 0.10479 0.63965 0.0
C149 C 0.1801 0.05534 0.55751 0.0
O150 O 0.19455 0.06456 0.64698 0.0
O151 O 0.15646 0.05634 0.63799 0.0
O152 O 0.22703 0.11579 0.58009 0.0
O153 O 0.19314 0.10318 0.60647 0.0
Co154 Co 0.91801 0.12354 0.60973 0.0
O155 O 0.89107 0.11337 0.63871 0.0
O156 O 0.91244 0.15009 0.61902 0.0
C157 C 0.89929 0.09181 0.57544 0.0
O158 O 0.94659 0.14019 0.57833 0.0
Co159 Co 0.94227 0.09288 0.60257 0.0
O160 O 0.95813 0.11371 0.5642 0.0
C161 C 0.95407 0.12478 0.65983 0.0
C162 C 0.89426 0.13485 0.63658 0.0
C163 C 0.95939 0.13399 0.56101 0.0
O164 O 0.94065 0.13257 0.64815 0.0
O165 O 0.95596 0.10781 0.64642 0.0
O166 O 0.8964 0.11027 0.57272 0.0
O167 O 0.91179 0.09204 0.60045 0.0
Co168 Co 0.88191 0.45505 0.44294 0.0
O169 O 0.90009 0.44879 0.47466 0.0
O170 O 0.91498 0.48154 0.44431 0.0
C171 C 0.86471 0.41802 0.41985 0.0
O172 O 0.86838 0.46702 0.40676 0.0
Co173 Co 0.82598 0.42474 0.4432 0.0
O174 O 0.82942 0.43925 0.39938 0.0
C175 C 0.85118 0.4646 0.49076 0.0
C176 C 0.91857 0.46904 0.46635 0.0
C177 C 0.84844 0.4583 0.39086 0.0
O178 O 0.87171 0.47074 0.47766 0.0
O179 O 0.83159 0.44609 0.4818 0.0
O180 O 0.88607 0.43452 0.41101 0.0
O181 O 0.85546 0.42387 0.44361 0.0
Co182 Co 0.54103 0.4204 0.43727 0.0
O183 O 0.54393 0.44665 0.4642 0.0
O184 O 0.5109 0.41983 0.43909 0.0
C185 C 0.57482 0.44242 0.40774 0.0
O186 O 0.53035 0.39195 0.40648 0.0
Co187 Co 0.57714 0.40218 0.43674 0.0
O188 O 0.55939 0.38301 0.39785 0.0
C189 C 0.54174 0.38754 0.4907 0.0
C190 C 0.52162 0.43912 0.45681 0.0
C191 C 0.53864 0.37995 0.39176 0.0
O192 O 0.53191 0.39836 0.47652 0.0
O193 O 0.56083 0.38835 0.47986 0.0
O194 O 0.55515 0.44237 0.40062 0.0
O195 O 0.5742 0.43072 0.43387 0.0
Co196 Co 0.58239 0.12771 0.44341 0.0
O197 O 0.55652 0.10448 0.47104 0.0
O198 O 0.58077 0.09715 0.44108 0.0
C199 C 0.56087 0.14277 0.41964 0.0
O200 O 0.60985 0.14497 0.41102 0.0
Co201 Co 0.60399 0.18268 0.44548 0.0
O202 O 0.62181 0.18394 0.40507 0.0
C203 C 0.61784 0.15854 0.49605 0.0
C204 C 0.56245 0.08904 0.46064 0.0
C205 C 0.62287 0.16539 0.39705 0.0
O206 O 0.60604 0.13825 0.48109 0.0
O207 O 0.61757 0.17746 0.48693 0.0
O208 O 0.5591 0.12291 0.40906 0.0
O209 O 0.57438 0.15208 0.44498 0.0
Co210 Co 0.78994 0.55254 0.72608 0.0
O211 O 0.79077 0.57864 0.7013 0.0
O212 O 0.81977 0.58208 0.73378 0.0
C213 C 0.75205 0.53723 0.74593 0.0
O214 O 0.79531 0.53034 0.7566 0.0
Co215 Co 0.75301 0.49912 0.71013 0.0
O216 O 0.76287 0.49336 0.75365 0.0
C217 C 0.79548 0.52637 0.66757 0.0
C218 C 0.81175 0.59238 0.71412 0.0
C219 C 0.78261 0.50857 0.76693 0.0
O220 O 0.80461 0.54408 0.68789 0.0
O221 O 0.77444 0.50813 0.67091 0.0
O222 O 0.76983 0.55566 0.75999 0.0
O223 O 0.75745 0.53045 0.71915 0.0
Co224 Co 0.45338 0.23811 0.72702 0.0
O225 O 0.43569 0.21243 0.69673 0.0
O226 O 0.4209 0.2328 0.72114 0.0
C227 C 0.46713 0.21774 0.75677 0.0
O228 O 0.46644 0.26515 0.76108 0.0
Co229 Co 0.50873 0.2613 0.73081 0.0
O230 O 0.50468 0.27508 0.77201 0.0
C231 C 0.48723 0.27487 0.67685 0.0
C232 C 0.41732 0.21511 0.70204 0.0
C233 C 0.48594 0.2764 0.77794 0.0
O234 O 0.4663 0.26232 0.68996 0.0
O235 O 0.50604 0.27532 0.68812 0.0
O236 O 0.44592 0.21475 0.76191 0.0
O237 O 0.47862 0.23137 0.73221 0.0
Co238 Co 0.77082 0.21628 0.72698 0.0
O239 O 0.79471 0.21593 0.69863 0.0
O240 O 0.7685 0.18512 0.72816 0.0
C241 C 0.79594 0.2515 0.75187 0.0
O242 O 0.74442 0.21015 0.76018 0.0
Co243 Co 0.75741 0.25626 0.72109 0.0
O244 O 0.74251 0.24401 0.76449 0.0
C245 C 0.73696 0.21592 0.67398 0.0
C246 C 0.78675 0.19402 0.70828 0.0
C247 C 0.73686 0.22305 0.77429 0.0
O248 O 0.74687 0.20577 0.6897 0.0
O249 O 0.74033 0.23672 0.68144 0.0
O250 O 0.795 0.23177 0.76113 0.0
O251 O 0.78352 0.24979 0.72609 0.0
Co252 Co 0.44774 0.2026 0.22701 0.0
O253 O 0.42364 0.2019 0.19807 0.0
O254 O 0.4194 0.17099 0.22698 0.0
C255 C 0.45638 0.23712 0.25265 0.0
O256 O 0.46805 0.19688 0.26063 0.0
Co257 Co 0.50076 0.24403 0.22296 0.0
O258 O 0.50296 0.23157 0.2664 0.0
C259 C 0.48258 0.20462 0.17445 0.0
C260 C 0.40997 0.17978 0.20704 0.0
C261 C 0.48806 0.21029 0.27556 0.0
O262 O 0.46243 0.19339 0.18987 0.0
O263 O 0.4993 0.22564 0.18253 0.0
O264 O 0.43778 0.21698 0.26118 0.0
O265 O 0.46773 0.23618 0.22708 0.0
Co266 Co 0.79842 0.24333 0.22951 0.0
O267 O 0.79879 0.21909 0.2019 0.0
O268 O 0.82952 0.24543 0.23127 0.0
C269 C 0.76317 0.21846 0.25456 0.0
O270 O 0.80445 0.26997 0.26224 0.0
Co271 Co 0.75806 0.25639 0.22317 0.0
O272 O 0.77041 0.27165 0.26629 0.0
C273 C 0.79826 0.27624 0.17554 0.0
C274 C 0.82053 0.22681 0.21208 0.0
C275 C 0.79137 0.2774 0.27621 0.0
O276 O 0.80889 0.26696 0.19166 0.0
O277 O 0.77734 0.27255 0.183 0.0
O278 O 0.78288 0.21947 0.26407 0.0
O279 O 0.76491 0.23064 0.22852 0.0
Co280 Co 0.75998 0.5467 0.22645 0.0
O281 O 0.78606 0.57112 0.20051 0.0
O282 O 0.76055 0.57681 0.23009 0.0
C283 C 0.7821 0.53217 0.24981 0.0
O284 O 0.73176 0.5275 0.25726 0.0
Co285 Co 0.74055 0.49221 0.22076 0.0
O286 O 0.72136 0.48874 0.26061 0.0
C287 C 0.72679 0.51708 0.17119 0.0
C288 C 0.7793 0.58584 0.21119 0.0
C289 C 0.71908 0.50642 0.26968 0.0
O290 O 0.73733 0.53679 0.18769 0.0
O291 O 0.72777 0.49834 0.17921 0.0
O292 O 0.78259 0.55116 0.26161 0.0
O293 O 0.76934 0.52333 0.22374 0.0
Co294 Co 0.55973 0.12712 0.9434 0.0
O295 O 0.56701 0.10832 0.97291 0.0
O296 O 0.53342 0.094 0.94454 0.0
C297 C 0.59618 0.14536 0.91843 0.0
O298 O 0.54628 0.14095 0.9098 0.0
Co299 Co 0.58898 0.18297 0.94458 0.0
O300 O 0.57195 0.18042 0.90304 0.0
C301 C 0.5517 0.15651 0.99512 0.0
C302 C 0.54648 0.08999 0.96512 0.0
C303 C 0.55301 0.16109 0.89509 0.0
O304 O 0.54489 0.13639 0.98038 0.0
O305 O 0.56989 0.17631 0.98596 0.0
O306 O 0.57971 0.12408 0.90926 0.0
O307 O 0.59066 0.15393 0.94331 0.0
Co308 Co 0.8784 0.43118 0.9442 0.0
O309 O 0.89569 0.45749 0.97411 0.0
O310 O 0.9119 0.43947 0.94694 0.0
C311 C 0.85942 0.44798 0.91752 0.0
O312 O 0.86654 0.40408 0.91041 0.0
Co313 Co 0.82255 0.40236 0.9427 0.0
O314 O 0.82713 0.38918 0.90122 0.0
C315 C 0.84881 0.39304 0.99519 0.0
C316 C 0.91475 0.45629 0.96721 0.0
C317 C 0.84706 0.39043 0.89447 0.0
O318 O 0.86916 0.40705 0.9813 0.0
O319 O 0.82888 0.39052 0.98484 0.0
O320 O 0.88126 0.45385 0.90965 0.0
O321 O 0.85071 0.4338 0.94232 0.0
Co322 Co 0.57663 0.45573 0.93582 0.0
O323 O 0.55223 0.45625 0.96305 0.0
O324 O 0.57743 0.48596 0.93109 0.0
C325 C 0.55223 0.41867 0.91479 0.0
O326 O 0.60331 0.46205 0.9032 0.0
Co327 Co 0.59285 0.41805 0.94336 0.0
O328 O 0.60744 0.42947 0.8995 0.0
C329 C 0.61143 0.45949 0.98915 0.0
C330 C 0.55935 0.47749 0.95122 0.0
C331 C 0.61203 0.45006 0.88947 0.0
O332 O 0.60075 0.46871 0.97301 0.0
O333 O 0.60906 0.43899 0.98225 0.0
O334 O 0.55242 0.43734 0.90235 0.0
O335 O 0.56552 0.42273 0.94033 0.0
Co336 Co 0.54571 0.78281 0.77623 0.0
O337 O 0.56272 0.77447 0.80723 0.0
O338 O 0.57738 0.81032 0.7847 0.0
C339 C 0.53382 0.74987 0.74463 0.0
O340 O 0.53331 0.79749 0.74243 0.0
Co341 Co 0.491 0.75063 0.76893 0.0
O342 O 0.49542 0.77004 0.72919 0.0
C343 C 0.50999 0.78501 0.82381 0.0
C344 C 0.58063 0.79608 0.80401 0.0
C345 C 0.51423 0.79036 0.72495 0.0
O346 O 0.53136 0.79276 0.81275 0.0
O347 O 0.49145 0.76725 0.81098 0.0
O348 O 0.55492 0.76861 0.74124 0.0
O349 O 0.52116 0.75072 0.76874 0.0
Co350 Co 0.21771 0.76697 0.7779 0.0
O351 O 0.22515 0.79142 0.81012 0.0
O352 O 0.19007 0.77113 0.78544 0.0
C353 C 0.2516 0.789 0.74833 0.0
O354 O 0.20417 0.7411 0.74216 0.0
Co355 Co 0.25056 0.74497 0.77093 0.0
O356 O 0.23304 0.7324 0.72922 0.0
C357 C 0.21522 0.7286 0.82482 0.0
C358 C 0.20382 0.78819 0.80561 0.0
C359 C 0.21279 0.73079 0.72399 0.0
O360 O 0.20686 0.7416 0.8133 0.0
O361 O 0.23365 0.7287 0.81271 0.0
O362 O 0.23298 0.79149 0.74437 0.0
O363 O 0.24998 0.77475 0.77184 0.0
Co364 Co 0.24077 0.46277 0.78119 0.0
O365 O 0.21534 0.44523 0.8121 0.0
O366 O 0.23665 0.43103 0.78875 0.0
C367 C 0.22023 0.47542 0.75005 0.0
O368 O 0.26771 0.47542 0.74721 0.0
Co369 Co 0.26347 0.51792 0.77436 0.0
O370 O 0.278 0.51334 0.7342 0.0
C371 C 0.27797 0.49819 0.8295 0.0
C372 C 0.21906 0.42736 0.80811 0.0
C373 C 0.27939 0.49449 0.72961 0.0
O374 O 0.26513 0.4769 0.81773 0.0
O375 O 0.27834 0.51667 0.81711 0.0
O376 O 0.21727 0.45409 0.7463 0.0
O377 O 0.23371 0.48761 0.77433 0.0
Co378 Co 0.4543 0.88268 0.054 0.0
O379 O 0.45396 0.90737 0.02676 0.0
O380 O 0.48507 0.91159 0.0551 0.0
C381 C 0.41896 0.87101 0.07966 0.0
O382 O 0.46258 0.86357 0.08575 0.0
Co383 Co 0.41713 0.82873 0.05233 0.0
O384 O 0.43333 0.82547 0.09193 0.0
C385 C 0.45452 0.84961 1.00076 0.0
C386 C 0.47609 0.92117 0.03592 0.0
C387 C 0.4538 0.84296 0.09967 0.0
O388 O 0.46469 0.87 0.01568 0.0
O389 O 0.43459 0.83172 0.01019 0.0
O390 O 0.43847 0.88986 0.08952 0.0
O391 O 0.42097 0.86066 0.05372 0.0
Co392 Co 0.12113 0.57447 0.05506 0.0
O393 O 0.09624 0.55111 0.02687 0.0
O394 O 0.09281 0.57773 0.05698 0.0
C395 C 0.1307 0.54871 0.07935 0.0
O396 O 0.14216 0.60046 0.08828 0.0
Co397 Co 0.17407 0.58656 0.04757 0.0
O398 O 0.17767 0.60162 0.09107 0.0
C399 C 0.15454 0.60778 0.00132 0.0
C400 C 0.08286 0.55964 0.03692 0.0
C401 C 0.16277 0.60759 0.10174 0.0
O402 O 0.13481 0.59851 0.01784 0.0
O403 O 0.17165 0.60372 0.00793 0.0
O404 O 0.11219 0.55006 0.08902 0.0
O405 O 0.14129 0.56103 0.05343 0.0
Co406 Co 0.438 0.55898 0.05031 0.0
O407 O 0.46127 0.56458 0.01705 0.0
O408 O 0.44031 0.53017 0.04317 0.0
C409 C 0.46161 0.59303 0.07856 0.0
O410 O 0.41289 0.5476 0.08711 0.0
Co411 Co 0.41902 0.59479 0.05571 0.0
O412 O 0.4075 0.57886 0.09872 0.0
C413 C 0.39989 0.55783 0.00407 0.0
C414 C 0.45693 0.54289 0.02179 0.0
C415 C 0.4044 0.55812 0.10512 0.0
O416 O 0.41193 0.54856 0.01611 0.0
O417 O 0.40161 0.57731 0.01488 0.0
O418 O 0.46351 0.57407 0.08274 0.0
O419 O 0.44731 0.59158 0.05529 0.0
Co420 Co 0.12543 0.55715 0.55444 0.0
O421 O 0.10119 0.55771 0.52658 0.0
O422 O 0.09599 0.52696 0.55678 0.0
C423 C 0.13814 0.59343 0.57801 0.0
O424 O 0.14409 0.54893 0.58709 0.0
Co425 Co 0.17975 0.59326 0.55201 0.0
O426 O 0.18254 0.57759 0.59242 0.0
C427 C 0.15776 0.5547 0.50198 0.0
C428 C 0.08687 0.53597 0.53684 0.0
C429 C 0.16472 0.55753 0.60088 0.0
O430 O 0.1374 0.54518 0.51701 0.0
O431 O 0.17592 0.57461 0.51083 0.0
O432 O 0.11899 0.57454 0.58869 0.0
O433 O 0.14816 0.59017 0.55264 0.0
Co434 Co 0.45024 0.5703 0.55158 0.0
O435 O 0.44244 0.54526 0.52033 0.0
O436 O 0.47801 0.56631 0.5435 0.0
C437 C 0.41706 0.54894 0.58257 0.0
O438 O 0.46408 0.59713 0.58587 0.0
Co439 Co 0.41672 0.59178 0.55822 0.0
O440 O 0.43553 0.60629 0.59855 0.0
C441 C 0.45149 0.60755 0.50363 0.0
C442 C 0.46398 0.54887 0.524 0.0
C443 C 0.45605 0.60834 0.60335 0.0
O444 O 0.4602 0.5949 0.51532 0.0
O445 O 0.43305 0.60737 0.51582 0.0
O446 O 0.43575 0.54651 0.58625 0.0
O447 O 0.41815 0.5625 0.55847 0.0
Co448 Co 0.43342 0.8873 0.55957 0.0
O449 O 0.45814 0.90481 0.52802 0.0
O450 O 0.43713 0.919 0.5523 0.0
C451 C 0.45518 0.87528 0.5894 0.0
O452 O 0.40679 0.87391 0.59419 0.0
Co453 Co 0.41222 0.8323 0.56519 0.0
O454 O 0.39725 0.83592 0.60556 0.0
C455 C 0.39663 0.85187 0.51105 0.0
C456 C 0.45428 0.92254 0.53209 0.0
C457 C 0.39534 0.85439 0.61105 0.0
O458 O 0.40862 0.873 0.52356 0.0
O459 O 0.39731 0.83368 0.52253 0.0
O460 O 0.45753 0.8963 0.59381 0.0
O461 O 0.44139 0.86306 0.56539 0.0
Co462 Co 0.22857 0.46835 0.27412 0.0
O463 O 0.23751 0.45186 0.30535 0.0
O464 O 0.20306 0.43502 0.27873 0.0
C465 C 0.26441 0.48548 0.24752 0.0
O466 O 0.21348 0.47961 0.23921 0.0
Co467 Co 0.25647 0.5238 0.26924 0.0
O468 O 0.23836 0.51859 0.22795 0.0
C469 C 0.22098 0.49993 0.32268 0.0
C470 C 0.21721 0.43269 0.29933 0.0
C471 C 0.2194 0.49869 0.22221 0.0
O472 O 0.21433 0.47911 0.3102 0.0
O473 O 0.23851 0.51937 0.31127 0.0
O474 O 0.24772 0.46383 0.24032 0.0
O475 O 0.25941 0.49544 0.27128 0.0
Co476 Co 0.54832 0.76687 0.28077 0.0
O477 O 0.56573 0.7919 0.31229 0.0
O478 O 0.58001 0.77082 0.28855 0.0
C479 C 0.53596 0.78781 0.24985 0.0
O480 O 0.53581 0.74036 0.24615 0.0
Co481 Co 0.49317 0.7445 0.27359 0.0
O482 O 0.49797 0.73045 0.23311 0.0
C483 C 0.51241 0.72919 0.32838 0.0
C484 C 0.58359 0.78816 0.30832 0.0
C485 C 0.5168 0.72902 0.22834 0.0
O486 O 0.53379 0.74203 0.3168 0.0
O487 O 0.49407 0.72915 0.31608 0.0
O488 O 0.55733 0.79081 0.24634 0.0
O489 O 0.5236 0.77412 0.27391 0.0
Co490 Co 0.24257 0.78055 0.27901 0.0
O491 O 0.21672 0.7717 0.30976 0.0
O492 O 0.23439 0.80586 0.28246 0.0
C493 C 0.22516 0.74474 0.25236 0.0
O494 O 0.26906 0.79542 0.24416 0.0
Co495 Co 0.27075 0.75271 0.27748 0.0
O496 O 0.28723 0.77329 0.23923 0.0
C497 C 0.28056 0.78819 0.32987 0.0
C498 C 0.21781 0.79192 0.30309 0.0
C499 C 0.28445 0.79078 0.2307 0.0
O500 O 0.26726 0.79528 0.31558 0.0
O501 O 0.28214 0.77016 0.31999 0.0
O502 O 0.21934 0.76081 0.24496 0.0
O503 O 0.23957 0.75009 0.27683 0.0
H504 H 0.20016 0.05977 0.03355 0.0
H505 H 0.1408 0.04287 0.09952 0.0
H506 H 0.11547 0.00567 0.06901 0.0
H507 H 0.16481 0.03805 0.96039 0.0
H508 H 0.18215 0.0258 0.94302 0.0
H509 H 0.19614 0.05097 0.97053 0.0
H510 H 0.20969 0.02732 0.00768 0.0
H511 H 0.19563 1.00201 0.98035 0.0
H512 H 0.18764 0.99829 0.02311 0.0
H513 H 0.09596 0.9714 0.031 0.0
H514 H 0.08295 0.94163 0.98663 0.0
H515 H 0.15459 0.97914 0.94489 0.0
C516 C 0.18185 0.04818 0.04157 0.0
C517 C 0.17247 0.05426 0.06896 0.0
C518 C 0.14842 0.03865 0.07866 0.0
C519 C 0.13387 0.01741 0.06153 0.0
C520 C 0.1436 0.01189 0.03476 0.0
C521 C 0.167 0.02673 0.02472 0.0
C522 C 0.17265 0.01659 0.99459 0.0
C523 C 0.17933 0.03388 0.96541 0.0
C524 C 0.19259 0.0107 0.00188 0.0
C525 C 0.14869 0.9939 0.98918 0.0
C526 C 0.13228 0.99164 0.01278 0.0
C527 C 0.10866 0.97285 0.01249 0.0
C528 C 0.10144 0.95606 0.98714 0.0
C529 C 0.11777 0.95801 0.9624 0.0
C530 C 0.14183 0.977 0.96376 0.0
H531 H 0.95615 0.10542 0.07146 0.0
H532 H 0.93447 0.15881 0.05866 0.0
H533 H 0.96932 0.18218 0.02252 0.0
H534 H 0.02064 0.14596 0.07037 0.0
H535 H 0.02684 0.12593 0.04698 0.0
H536 H 1.001 0.11397 0.07348 0.0
H537 H 0.97342 0.09076 0.02466 0.0
H538 H 0.99918 0.10254 0.99808 0.0
H539 H 0.97431 0.10687 0.98808 0.0
H540 H 0.00635 0.19983 0.98813 0.0
H541 H 0.04108 0.20889 0.95323 0.0
H542 H 0.03788 0.14301 0.98546 0.0
C543 C 0.95889 0.12212 0.06124 0.0
C544 C 0.94275 0.13044 0.06803 0.0
C545 C 0.94664 0.15215 0.05376 0.0
C546 C 0.96644 0.1656 0.03335 0.0
C547 C 0.98204 0.15695 0.0271 0.0
C548 C 0.97837 0.13559 0.04026 0.0
C549 C 0.99709 0.1297 0.02796 0.0
C550 C 0.0123 0.12885 0.0564 0.0
C551 C 0.98529 0.10607 0.00854 0.0
C552 C 0.0118 0.15107 0.00582 0.0
C553 C 1.00295 0.1667 0.00608 0.0
C554 C 0.01343 0.18772 0.98766 0.0
C555 C 0.03325 0.19275 0.96798 0.0
C556 C 0.04228 0.17668 0.96647 0.0
C557 C 0.03145 0.15567 0.98599 0.0
H558 H 0.86259 0.89469 0.98821 0.0
H559 H 0.79426 0.83359 0.95955 0.0
H560 H 0.80293 0.80713 0.99315 0.0
H561 H 0.89628 0.86531 0.98669 0.0
H562 H 0.91415 0.88005 0.02229 0.0
H563 H 0.90218 0.89488 0.99778 0.0
H564 H 0.88142 0.90015 0.04889 0.0
H565 H 0.89352 0.88552 0.07366 0.0
H566 H 0.86164 0.87426 0.07307 0.0
H567 H 0.82051 0.78656 0.02436 0.0
H568 H 0.84425 0.77353 0.05682 0.0
H569 H 0.90027 0.84768 0.06887 0.0
C570 C 0.84927 0.87581 0.9894 0.0
C571 C 0.82773 0.86629 0.9711 0.0
C572 C 0.81084 0.84143 0.97334 0.0
C573 C 0.81562 0.82618 0.99232 0.0
C574 C 0.8372 0.83603 0.00936 0.0
C575 C 0.85361 0.8603 0.00861 0.0
C576 C 0.87562 0.86608 0.02894 0.0
C577 C 0.8984 0.87724 0.00764 0.0
C578 C 0.87819 0.88247 0.05786 0.0
C579 C 0.86918 0.84118 0.04059 0.0
C580 C 0.84698 0.82415 0.02877 0.0
C581 C 0.83772 0.79974 0.03426 0.0
C582 C 0.8514 0.79252 0.05255 0.0
C583 C 0.87394 0.80962 0.06554 0.0
C584 C 0.8829 0.83429 0.05963 0.0
H585 H 0.98033 0.12487 0.50888 0.0
H586 H 0.98227 0.18314 0.56473 0.0
H587 H 0.01874 0.21212 0.53456 0.0
H588 H 0.04147 0.14586 0.50822 0.0
H589 H 0.04277 0.13655 0.46702 0.0
H590 H 0.01546 0.12071 0.49029 0.0
H591 H 0.99201 0.12823 0.44468 0.0
H592 H 0.0192 0.1438 0.42097 0.0
H593 H 1.00231 0.15842 0.43079 0.0
H594 H 0.05815 0.23387 0.50357 0.0
H595 H 0.09451 0.24726 0.46953 0.0
H596 H 0.06547 0.17496 0.43209 0.0
C597 C 0.98809 0.14379 0.51428 0.0
C598 C 0.97842 0.15175 0.53917 0.0
C599 C 0.98919 0.17664 0.54555 0.0
C600 C 0.01 0.19322 0.52867 0.0
C601 C 0.01954 0.18464 0.50509 0.0
C602 C 0.00862 0.16054 0.49741 0.0
C603 C 0.02281 0.15577 0.47187 0.0
C604 C 0.03111 0.13872 0.48516 0.0
C605 C 0.00821 0.14598 0.4402 0.0
C606 C 0.04381 0.18085 0.46698 0.0
C607 C 0.04168 0.19726 0.48644 0.0
C608 C 0.05976 0.22125 0.48778 0.0
C609 C 0.08039 0.22866 0.46853 0.0
C610 C 0.08267 0.2122 0.44797 0.0
C611 C 0.06405 0.18803 0.44717 0.0
H612 H 0.81438 0.88963 0.48748 0.0
H613 H 0.81408 0.85232 0.39913 0.0
H614 H 0.83107 0.83106 0.42991 0.0
H615 H 0.87139 0.90041 0.51405 0.0
H616 H 0.86409 0.89743 0.55704 0.0
H617 H 0.8491 0.9072 0.52906 0.0
H618 H 0.80793 0.87254 0.54857 0.0
H619 H 0.82283 0.86259 0.57652 0.0
H620 H 0.80203 0.84208 0.54676 0.0
H621 H 0.84842 0.81402 0.47073 0.0
H622 H 0.87015 0.80719 0.51596 0.0
H623 H 0.86308 0.85898 0.57556 0.0
C624 C 0.81751 0.87664 0.47489 0.0
C625 C 0.81255 0.87215 0.4412 0.0
C626 C 0.8176 0.85572 0.42508 0.0
C627 C 0.82712 0.84352 0.44238 0.0
C628 C 0.83196 0.84836 0.47564 0.0
C629 C 0.82771 0.86486 0.49159 0.0
C630 C 0.83688 0.86875 0.52648 0.0
C631 C 0.85653 0.895 0.53196 0.0
C632 C 0.81618 0.86102 0.55103 0.0
C633 C 0.84705 0.85201 0.5276 0.0
C634 C 0.84352 0.83994 0.49833 0.0
C635 C 0.85132 0.82341 0.49374 0.0
C636 C 0.8635 0.81953 0.5195 0.0
C637 C 0.86822 0.83258 0.54901 0.0
C638 C 0.85966 0.8488 0.55313 0.0
H639 H 0.11415 0.94948 0.42695 0.0
H640 H 0.16399 0.92595 0.45551 0.0
H641 H 0.1862 0.96227 0.48958 0.0
H642 H 0.15607 0.01431 0.42671 0.0
H643 H 0.1347 0.02125 0.44478 0.0
H644 H 0.12442 0.99498 0.41949 0.0
H645 H 0.09713 0.96837 0.46665 0.0
H646 H 0.10724 0.99454 0.49202 0.0
H647 H 0.11014 0.96957 0.50617 0.0
H648 H 0.20216 1.00022 0.52173 0.0
H649 H 0.20849 0.0349 0.55466 0.0
H650 H 0.14637 0.03245 0.50882 0.0
C651 C 0.12995 0.9522 0.43997 0.0
C652 C 0.13758 0.9351 0.43835 0.0
C653 C 0.15798 0.93894 0.45634 0.0
C654 C 0.17075 0.95955 0.47561 0.0
C655 C 0.16264 0.97596 0.47702 0.0
C656 C 0.14254 0.97239 0.46004 0.0
C657 C 0.13624 0.99154 0.46844 0.0
C658 C 0.13796 0.0064 0.43804 0.0
C659 C 0.11121 0.98034 0.48426 0.0
C660 C 0.15587 0.00635 0.49291 0.0
C661 C 0.17113 0.99726 0.497 0.0
C662 C 0.19037 0.00755 0.51869 0.0
C663 C 0.19385 0.02734 0.53725 0.0
C664 C 0.17794 0.03651 0.53445 0.0
C665 C 0.15892 0.02599 0.51153 0.0
H666 H 0.89028 0.03895 0.00894 0.0
H667 H 0.83174 0.03677 0.06462 0.0
H668 H 0.80281 1.00142 0.03281 0.0
H669 H 0.85733 0.01812 0.92956 0.0
H670 H 0.87175 1.00102 0.91993 0.0
H671 H 0.88736 0.02806 0.94387 0.0
H672 H 0.89418 0.00416 0.98952 0.0
H673 H 0.8783 0.97701 0.96606 0.0
H674 H 0.86872 0.97824 0.00713 0.0
H675 H 0.78108 0.96268 0.00131 0.0
H676 H 0.7677 0.92607 0.96809 0.0
H677 H 0.84015 0.95431 0.93139 0.0
C678 C 0.87133 0.03149 0.01387 0.0
C679 C 0.86331 0.04072 0.03931 0.0
C680 C 0.83835 0.03024 0.04509 0.0
C681 C 0.82177 0.01005 0.02723 0.0
C682 C 0.8304 1.00081 0.00332 0.0
C683 C 0.85457 0.01149 0.99614 0.0
C684 C 0.85938 0.99728 0.97066 0.0
C685 C 0.86955 0.012 0.93913 0.0
C686 C 0.87613 0.98867 0.98417 0.0
C687 C 0.83423 0.97648 0.96538 0.0
C688 C 0.81776 0.97885 0.98445 0.0
C689 C 0.79373 0.96091 0.98576 0.0
C690 C 0.78633 0.94012 0.96698 0.0
C691 C 0.80285 0.9375 0.94695 0.0
C692 C 0.82705 0.95603 0.94601 0.0
H693 H 0.96374 0.84987 0.0098 0.0
H694 H 0.96956 0.79362 0.06018 0.0
H695 H 0.00402 0.80147 0.02498 0.0
H696 H 0.9813 0.83905 0.92735 0.0
H697 H 0.99741 0.87064 0.91787 0.0
H698 H 0.97159 0.85861 0.94444 0.0
H699 H 0.99732 0.88928 0.98917 0.0
H700 H 0.02326 0.90117 0.963 0.0
H701 H 0.02436 0.89028 0.00324 0.0
H702 H 0.04161 0.81992 0.99057 0.0
H703 H 0.07655 0.84417 0.95474 0.0
H704 H 0.04468 0.88655 0.92418 0.0
C705 C 0.97188 0.83878 0.01292 0.0
C706 C 0.96394 0.8211 0.03775 0.0
C707 C 0.97515 0.80708 0.04113 0.0
C708 C 0.99482 0.8115 0.02134 0.0
C709 C 1.00273 0.82967 0.9979 0.0
C710 C 0.99127 0.84274 0.99312 0.0
C711 C 0.0039 0.86196 0.96728 0.0
C712 C 0.98757 0.85728 0.93746 0.0
C713 C 0.01273 0.88715 0.98154 0.0
C714 C 0.02471 0.8582 0.95896 0.0
C715 C 0.02377 0.83955 0.97699 0.0
C716 C 0.04221 0.83415 0.97576 0.0
C717 C 0.06203 0.8481 0.95551 0.0
C718 C 0.06311 0.86698 0.93645 0.0
C719 C 0.04406 0.87188 0.93797 0.0
H720 H 0.11382 0.16407 0.93384 0.0
H721 H 0.1641 0.23725 0.96234 0.0
H722 H 0.18588 0.2228 0.99691 0.0
H723 H 0.10911 0.13967 0.01274 0.0
H724 H 0.10602 0.11178 0.99844 0.0
H725 H 0.09637 0.12819 0.973 0.0
H726 H 0.12392 0.12875 0.92626 0.0
H727 H 0.1338 0.11248 0.95173 0.0
H728 H 0.15548 0.14078 0.93396 0.0
H729 H 0.20146 0.20012 0.02965 0.0
H730 H 0.20639 0.171 0.06348 0.0
H731 H 0.14417 0.11255 0.01647 0.0
C732 C 0.12965 0.17704 0.94694 0.0
C733 C 0.13752 0.20179 0.94515 0.0
C734 C 0.15789 0.21822 0.96333 0.0
C735 C 0.17044 0.21018 0.98283 0.0
C736 C 0.16218 0.18563 0.98423 0.0
C737 C 0.14204 0.16927 0.96712 0.0
C738 C 0.13543 0.14375 0.9754 0.0
C739 C 0.11025 0.13005 0.99082 0.0
C740 C 0.13728 0.13067 0.94502 0.0
C741 C 0.15481 0.14829 1.00011 0.0
C742 C 0.17038 0.17255 0.00434 0.0
C743 C 0.18942 0.18108 0.02646 0.0
C744 C 0.19217 0.1644 0.04544 0.0
C745 C 0.17569 0.13951 0.04263 0.0
C746 C 0.1571 0.13145 0.01914 0.0
H747 H 0.94386 0.80054 0.54009 0.0
H748 H 0.9652 0.85993 0.60754 0.0
H749 H 0.00364 0.88278 0.57843 0.0
H750 H 0.00343 0.807 0.53065 0.0
H751 H 0.99961 0.79977 0.48765 0.0
H752 H 0.9739 0.7873 0.51445 0.0
H753 H 0.95355 0.80474 0.47761 0.0
H754 H 0.9791 0.81711 0.45061 0.0
H755 H 0.96927 0.83637 0.4684 0.0
H756 H 0.03858 0.90023 0.54104 0.0
H757 H 0.06799 0.91177 0.49622 0.0
H758 H 0.02562 0.84128 0.45276 0.0
C759 C 0.9567 0.8183 0.54879 0.0
C760 C 0.95149 0.82842 0.57617 0.0
C761 C 0.96872 0.85176 0.58668 0.0
C762 C 0.99069 0.86489 0.57036 0.0
C763 C 0.99531 0.85445 0.54357 0.0
C764 C 0.97887 0.83172 0.53273 0.0
C765 C 0.9882 0.82521 0.50248 0.0
C766 C 0.99148 0.80353 0.50922 0.0
C767 C 0.97154 0.82059 0.47304 0.0
C768 C 0.01226 0.84798 0.49784 0.0
C769 C 0.01593 0.8645 0.52201 0.0
C770 C 0.03606 0.88736 0.5222 0.0
C771 C 0.05266 0.89375 0.49665 0.0
C772 C 0.04922 0.87733 0.47132 0.0
C773 C 0.02896 0.85396 0.47227 0.0
H774 H 0.12246 0.15493 0.49128 0.0
H775 H 0.18667 0.21481 0.4499 0.0
H776 H 0.21167 0.20312 0.48211 0.0
H777 H 0.14756 0.15856 0.5735 0.0
H778 H 0.1317 0.12644 0.57858 0.0
H779 H 0.11899 0.14044 0.55373 0.0
H780 H 0.11585 0.11329 0.50497 0.0
H781 H 0.12878 0.09939 0.52952 0.0
H782 H 0.14238 0.11317 0.49101 0.0
H783 H 0.22951 0.18229 0.51433 0.0
H784 H 0.23894 0.15649 0.54891 0.0
H785 H 0.16335 0.11169 0.5717 0.0
C786 C 0.14179 0.16582 0.48935 0.0
C787 C 0.15257 0.1858 0.46799 0.0
C788 C 0.17795 0.19954 0.46622 0.0
C789 C 0.19232 0.19297 0.48432 0.0
C790 C 0.1811 0.17284 0.50449 0.0
C791 C 0.15642 0.15972 0.50757 0.0
C792 C 0.14881 0.13868 0.53066 0.0
C793 C 0.13601 0.14119 0.56092 0.0
C794 C 0.13303 0.11472 0.51297 0.0
C795 C 0.17304 0.14172 0.53956 0.0
C796 C 0.19143 0.16144 0.52405 0.0
C797 C 0.21528 0.16704 0.52701 0.0
C798 C 0.22045 0.15223 0.54654 0.0
C799 C 0.20192 0.13225 0.56318 0.0
C800 C 0.17794 0.12705 0.55965 0.0
H801 H 0.91002 0.05619 0.56055 0.0
H802 H 0.8589 0.08003 0.54129 0.0
H803 H 0.83581 0.04512 0.50558 0.0
H804 H 0.91002 0.03624 0.47794 0.0
H805 H 0.91278 0.01079 0.49001 0.0
H806 H 0.92484 0.03699 0.51573 0.0
H807 H 0.89966 0.01068 0.56448 0.0
H808 H 0.88745 0.9844 0.53884 0.0
H809 H 0.86762 0.99204 0.56009 0.0
H810 H 0.81776 0.00781 0.4729 0.0
H811 H 0.80767 0.97187 0.44032 0.0
H812 H 0.87139 0.97252 0.47695 0.0
C813 C 0.89389 0.0539 0.54892 0.0
C814 C 0.88615 0.07074 0.55384 0.0
C815 C 0.86518 0.0674 0.53783 0.0
C816 C 0.85185 0.04755 0.51761 0.0
C817 C 0.85986 0.03128 0.51321 0.0
C818 C 0.88053 0.0343 0.52798 0.0
C819 C 0.88567 0.01467 0.51746 0.0
C820 C 0.90975 0.02532 0.49919 0.0
C821 C 0.88506 0.99955 0.54698 0.0
C822 C 0.86466 1.00024 0.49457 0.0
C823 C 0.84988 0.01005 0.49294 0.0
C824 C 0.82921 0.99996 0.47385 0.0
C825 C 0.82359 0.97946 0.4555 0.0
C826 C 0.83873 0.96932 0.45593 0.0
C827 C 0.85949 0.97986 0.47596 0.0
H828 H 0.83629 0.3171 0.28401 0.0
H829 H 0.76681 0.2757 0.33072 0.0
H830 H 0.77933 0.30608 0.37437 0.0
H831 H 0.87238 0.34134 0.3603 0.0
H832 H 0.89159 0.37034 0.34222 0.0
H833 H 0.8785 0.34384 0.31697 0.0
H834 H 0.86017 0.36296 0.27943 0.0
H835 H 0.87295 0.38938 0.30473 0.0
H836 H 0.84111 0.37313 0.29703 0.0
H837 H 0.79741 0.34198 0.40981 0.0
H838 H 0.82053 0.38141 0.43628 0.0
H839 H 0.87845 0.40111 0.36661 0.0
C840 C 0.82408 0.31416 0.30404 0.0
C841 C 0.80071 0.29393 0.30438 0.0
C842 C 0.78484 0.291 0.33027 0.0
C843 C 0.79179 0.30814 0.35513 0.0
C844 C 0.81464 0.32825 0.35368 0.0
C845 C 0.83065 0.33139 0.32895 0.0
C846 C 0.85338 0.35565 0.33196 0.0
C847 C 0.87526 0.3526 0.33824 0.0
C848 C 0.85711 0.37119 0.30148 0.0
C849 C 0.84741 0.36572 0.36185 0.0
C850 C 0.82503 0.34946 0.37404 0.0
C851 C 0.81507 0.35479 0.40073 0.0
C852 C 0.82833 0.37731 0.41552 0.0
C853 C 0.85132 0.39435 0.40358 0.0
C854 C 0.86098 0.3884 0.3764 0.0
H855 H 0.60998 0.43117 0.39405 0.0
H856 H 0.58879 0.48444 0.3764 0.0
H857 H 0.62518 0.50803 0.34292 0.0
H858 H 0.67489 0.47168 0.39636 0.0
H859 H 0.68159 0.4515 0.37423 0.0
H860 H 0.65503 0.43972 0.39933 0.0
H861 H 0.62877 0.41651 0.3495 0.0
H862 H 0.65524 0.42811 0.32432 0.0
H863 H 0.63079 0.43259 0.31238 0.0
H864 H 0.66352 0.52585 0.31163 0.0
H865 H 0.69895 0.53458 0.27855 0.0
H866 H 0.69416 0.46827 0.31214 0.0
C867 C 0.61325 0.44796 0.38342 0.0
C868 C 0.59681 0.45621 0.38806 0.0
C869 C 0.60125 0.4779 0.37316 0.0
C870 C 0.62191 0.49147 0.35428 0.0
C871 C 0.63777 0.48288 0.35003 0.0
C872 C 0.63355 0.46146 0.36371 0.0
C873 C 0.65251 0.45543 0.35296 0.0
C874 C 0.66685 0.45454 0.38248 0.0
C875 C 0.64115 0.43176 0.33364 0.0
C876 C 0.66794 0.47675 0.33105 0.0
C877 C 0.65932 0.49256 0.33029 0.0
C878 C 0.67044 0.5136 0.31196 0.0
C879 C 0.69067 0.51845 0.29333 0.0
C880 C 0.6994 0.50213 0.29264 0.0
C881 C 0.68794 0.48111 0.31209 0.0
H882 H 0.53244 0.12875 0.36406 0.0
H883 H 0.56262 0.18404 0.43878 0.0
H884 H 0.54375 0.2049 0.41262 0.0
H885 H 0.54095 0.16778 0.29748 0.0
H886 H 0.51332 0.14747 0.277 0.0
H887 H 0.52787 0.13584 0.30271 0.0
H888 H 0.48886 0.11245 0.33669 0.0
H889 H 0.47423 0.12416 0.31117 0.0
H890 H 0.47536 0.12839 0.35489 0.0
H891 H 0.52461 0.22152 0.3769 0.0
H892 H 0.50655 0.23334 0.33259 0.0
H893 H 0.48706 0.16717 0.28116 0.0
C894 C 0.53488 0.14513 0.37502 0.0
C895 C 0.54901 0.15474 0.40353 0.0
C896 C 0.55191 0.17631 0.41699 0.0
C897 C 0.54116 0.18827 0.40239 0.0
C898 C 0.52741 0.17841 0.37436 0.0
C899 C 0.52418 0.15736 0.36073 0.0
C900 C 0.50938 0.15137 0.32957 0.0
C901 C 0.52374 0.15058 0.29994 0.0
C902 C 0.48554 0.12768 0.33332 0.0
C903 C 0.50526 0.17261 0.32757 0.0
C904 C 0.51575 0.18788 0.35385 0.0
C905 C 0.51597 0.20955 0.35649 0.0
C906 C 0.50567 0.2161 0.33126 0.0
C907 C 0.49507 0.20096 0.3039 0.0
C908 C 0.49443 0.1787 0.30234 0.0
H909 H 0.65151 0.49512 0.8864 0.0
H910 H 0.61166 0.42894 0.83184 0.0
H911 H 0.64183 0.44559 0.78744 0.0
H912 H 0.67419 0.53679 0.81641 0.0
H913 H 0.7033 0.55526 0.83458 0.0
H914 H 0.67722 0.53936 0.86032 0.0
H915 H 0.69782 0.51921 0.89085 0.0
H916 H 0.7239 0.53498 0.86518 0.0
H917 H 0.70874 0.50273 0.86781 0.0
H918 H 0.67651 0.46859 0.7501 0.0
H919 H 0.71515 0.49513 0.72343 0.0
H920 H 0.73493 0.54573 0.80375 0.0
C921 C 0.64894 0.48444 0.8647 0.0
C922 C 0.62909 0.46093 0.86207 0.0
C923 C 0.62665 0.44706 0.834 0.0
C924 C 0.64364 0.45639 0.80871 0.0
C925 C 0.66321 0.47948 0.81216 0.0
C926 C 0.66612 0.49329 0.83954 0.0
C927 C 0.68992 0.51669 0.83833 0.0
C928 C 0.68591 0.5383 0.83735 0.0
C929 C 0.70604 0.5185 0.86726 0.0
C930 C 0.69995 0.5138 0.80609 0.0
C931 C 0.68402 0.49234 0.79127 0.0
C932 C 0.68914 0.48542 0.76148 0.0
C933 C 0.71123 0.50067 0.74654 0.0
C934 C 0.72822 0.52249 0.76155 0.0
C935 C 0.72235 0.52919 0.79165 0.0
H936 H 0.51408 0.23064 0.76961 0.0
H937 H 0.44053 0.17509 0.78769 0.0
H938 H 0.45487 0.15237 0.82011 0.0
H939 H 0.54073 0.1919 0.76554 0.0
H940 H 0.56743 0.2128 0.78737 0.0
H941 H 0.55161 0.22365 0.76272 0.0
H942 H 0.54778 0.24616 0.81289 0.0
H943 H 0.56375 0.23555 0.83756 0.0
H944 H 0.53448 0.2298 0.85011 0.0
H945 H 0.477 0.13605 0.85164 0.0
H946 H 0.50505 0.12974 0.88571 0.0
H947 H 0.56423 0.19696 0.85009 0.0
C948 C 0.50107 0.21354 0.78007 0.0
C949 C 0.47622 0.20447 0.77593 0.0
C950 C 0.45966 0.18233 0.79057 0.0
C951 C 0.46763 0.16921 0.80883 0.0
C952 C 0.49224 0.17861 0.81258 0.0
C953 C 0.50873 0.20042 0.79901 0.0
C954 C 0.53406 0.20746 0.80927 0.0
C955 C 0.54936 0.20904 0.77944 0.0
C956 C 0.54569 0.23114 0.82861 0.0
C957 C 0.52916 0.18636 0.831 0.0
C958 C 0.50497 0.16969 0.83203 0.0
C959 C 0.49601 0.14894 0.85097 0.0
C960 C 0.51212 0.14545 0.87014 0.0
C961 C 0.53687 0.16282 0.87065 0.0
C962 C 0.54544 0.18329 0.85023 0.0
H963 H 0.81453 0.36814 0.84499 0.0
H964 H 0.87832 0.37333 0.88908 0.0
H965 H 0.87385 0.34003 0.85408 0.0
H966 H 0.78102 0.30612 0.84067 0.0
H967 H 0.76733 0.30468 0.80163 0.0
H968 H 0.77687 0.33053 0.82744 0.0
H969 H 0.80332 0.35831 0.78053 0.0
H970 H 0.79363 0.33254 0.7544 0.0
H971 H 0.82519 0.35262 0.76125 0.0
H972 H 0.85872 0.30223 0.82079 0.0
H973 H 0.83691 0.26586 0.7866 0.0
H974 H 0.78493 0.28721 0.76072 0.0
C975 C 0.82789 0.36265 0.84678 0.0
C976 C 0.84681 0.37338 0.86981 0.0
C977 C 0.86383 0.36557 0.87145 0.0
C978 C 0.86137 0.34658 0.85176 0.0
C979 C 0.84207 0.33591 0.83008 0.0
C980 C 0.82592 0.34399 0.82696 0.0
C981 C 0.80628 0.32891 0.80264 0.0
C982 C 0.78141 0.31685 0.81909 0.0
C983 C 0.80717 0.344 0.77294 0.0
C984 C 0.81348 0.31061 0.79329 0.0
C985 C 0.83411 0.31488 0.80954 0.0
C986 C 0.84292 0.29907 0.80732 0.0
C987 C 0.83037 0.27842 0.78799 0.0
C988 C 0.80947 0.27395 0.77072 0.0
C989 C 0.80115 0.29045 0.7731 0.0
H990 H 0.55086 0.35653 0.34561 0.0
H991 H 0.48987 0.35859 0.38757 0.0
H992 H 0.46243 0.32348 0.3545 0.0
H993 H 0.52515 0.33844 0.2629 0.0
H994 H 0.53796 0.31943 0.2567 0.0
H995 H 0.55302 0.34552 0.28253 0.0
H996 H 0.55283 0.3188 0.33013 0.0
H997 H 0.53764 0.29263 0.30454 0.0
H998 H 0.52477 0.2936 0.3433 0.0
H999 H 0.44146 0.28556 0.32207 0.0
H1000 H 0.42842 0.24965 0.28746 0.0
H1001 H 0.50258 0.27382 0.2625 0.0
C1002 C 0.53175 0.34979 0.34753 0.0
C1003 C 0.52255 0.36036 0.36927 0.0
C1004 C 0.49741 0.35096 0.371 0.0
C1005 C 0.48163 0.33094 0.35238 0.0
C1006 C 0.49124 0.32071 0.33167 0.0
C1007 C 0.51571 0.33001 0.32865 0.0
C1008 C 0.52126 0.3154 0.30474 0.0
C1009 C 0.53517 0.33061 0.27495 0.0
C1010 C 0.53493 0.30447 0.3217 0.0
C1011 C 0.49608 0.29618 0.29535 0.0
C1012 C 0.47905 0.29948 0.31143 0.0
C1013 C 0.4546 0.28303 0.30882 0.0
C1014 C 0.44737 0.26267 0.28925 0.0
C1015 C 0.46446 0.25916 0.27208 0.0
C1016 C 0.48911 0.27629 0.2749 0.0
H1017 H 0.72879 0.23113 0.26577 0.0
H1018 H 0.74761 0.17661 0.28721 0.0
H1019 H 0.71139 0.15518 0.32181 0.0
H1020 H 0.71127 0.234 0.34725 0.0
H1021 H 0.68749 0.23968 0.33584 0.0
H1022 H 0.71293 0.24895 0.3092 0.0
H1023 H 0.68446 0.22474 0.26162 0.0
H1024 H 0.6589 0.21532 0.28815 0.0
H1025 H 0.66335 0.19325 0.2671 0.0
H1026 H 0.67398 0.14025 0.35477 0.0
H1027 H 0.6404 0.1349 0.38948 0.0
H1028 H 0.64786 0.20138 0.35162 0.0
C1029 C 0.72507 0.21451 0.27737 0.0
C1030 C 0.74077 0.2053 0.27358 0.0
C1031 C 0.73565 0.18381 0.28972 0.0
C1032 C 0.71511 0.1715 0.30927 0.0
C1033 C 0.70014 0.18121 0.31296 0.0
C1034 C 0.70502 0.20241 0.29789 0.0
C1035 C 0.68744 0.21026 0.30879 0.0
C1036 C 0.70056 0.23466 0.32631 0.0
C1037 C 0.67266 0.21092 0.27967 0.0
C1038 C 0.67196 0.19018 0.33239 0.0
C1039 C 0.67935 0.1734 0.33383 0.0
C1040 C 0.66801 0.15325 0.35386 0.0
C1041 C 0.64886 0.15035 0.37343 0.0
C1042 C 0.64144 0.16772 0.37337 0.0
C1043 C 0.65308 0.18779 0.35226 0.0
H1044 H 0.84544 0.49895 0.39267 0.0
H1045 H 0.84346 0.44511 0.32724 0.0
H1046 H 0.82979 0.46107 0.28215 0.0
H1047 H 0.79251 0.49409 0.36644 0.0
H1048 H 0.80138 0.52537 0.36969 0.0
H1049 H 0.81547 0.51314 0.39514 0.0
H1050 H 0.85732 0.54489 0.37351 0.0
H1051 H 0.8434 0.55754 0.34835 0.0
H1052 H 0.86282 0.54811 0.33001 0.0
H1053 H 0.81093 0.47864 0.24709 0.0
H1054 H 0.78998 0.49813 0.22278 0.0
H1055 H 0.80341 0.54077 0.31078 0.0
C1056 C 0.8432 0.49137 0.36838 0.0
C1057 C 0.84623 0.47139 0.36285 0.0
C1058 C 0.84188 0.46089 0.33144 0.0
C1059 C 0.83402 0.46977 0.30583 0.0
C1060 C 0.83041 0.48902 0.31222 0.0
C1061 C 0.83508 0.4999 0.34262 0.0
C1062 C 0.8273 0.51862 0.34389 0.0
C1063 C 0.80802 0.51242 0.37035 0.0
C1064 C 0.84901 0.54378 0.34925 0.0
C1065 C 0.81697 0.51611 0.3098 0.0
C1066 C 0.81912 0.49904 0.29193 0.0
C1067 C 0.80952 0.49234 0.26062 0.0
C1068 C 0.79751 0.50342 0.2471 0.0
C1069 C 0.79516 0.52106 0.2648 0.0
C1070 C 0.80519 0.52757 0.29651 0.0
H1071 H 0.61366 0.13276 0.86444 0.0
H1072 H 0.63173 0.19007 0.93446 0.0
H1073 H 0.6708 0.2144 0.90762 0.0
H1074 H 0.67422 0.14112 0.85767 0.0
H1075 H 0.67182 0.13505 0.81434 0.0
H1076 H 0.64534 0.12128 0.83971 0.0
H1077 H 0.62524 0.13883 0.80259 0.0
H1078 H 0.65156 0.15249 0.77701 0.0
H1079 H 0.64047 0.17067 0.79495 0.0
H1080 H 0.7066 0.23369 0.8721 0.0
H1081 H 0.7373 0.24718 0.82867 0.0
H1082 H 0.69786 0.17762 0.78176 0.0
C1083 C 0.62592 0.15037 0.87417 0.0
C1084 C 0.61959 0.15948 0.9016 0.0
C1085 C 0.6361 0.18266 0.91352 0.0
C1086 C 0.65843 0.19663 0.89851 0.0
C1087 C 0.66417 0.18721 0.87163 0.0
C1088 C 0.64848 0.16465 0.85946 0.0
C1089 C 0.65902 0.15934 0.82944 0.0
C1090 C 0.66282 0.13792 0.83568 0.0
C1091 C 0.64313 0.15509 0.79921 0.0
C1092 C 0.68284 0.18259 0.82647 0.0
C1093 C 0.68537 0.19831 0.85123 0.0
C1094 C 0.70501 0.22145 0.85282 0.0
C1095 C 0.72235 0.22895 0.82808 0.0
C1096 C 0.72009 0.21333 0.80223 0.0
C1097 C 0.7003 0.18968 0.80175 0.0
H1098 H 0.87327 0.48037 0.8661 0.0
H1099 H 0.8123 0.43339 0.92706 0.0
H1100 H 0.78712 0.44575 0.89713 0.0
H1101 H 0.859 0.52852 0.86009 0.0
H1102 H 0.86847 0.53541 0.81802 0.0
H1103 H 0.88226 0.52336 0.84452 0.0
H1104 H 0.87122 0.48858 0.80374 0.0
H1105 H 0.85753 0.50059 0.77705 0.0
H1106 H 0.84041 0.47004 0.79124 0.0
H1107 H 0.7678 0.46111 0.85946 0.0
H1108 H 0.75541 0.47917 0.81583 0.0
H1109 H 0.82864 0.51802 0.77992 0.0
C1110 C 0.85464 0.47276 0.87314 0.0
C1111 C 0.84477 0.45584 0.89892 0.0
C1112 C 0.82031 0.44633 0.90742 0.0
C1113 C 0.80582 0.45328 0.8906 0.0
C1114 C 0.81603 0.46996 0.86543 0.0
C1115 C 0.83986 0.47968 0.85668 0.0
C1116 C 0.84605 0.49705 0.82824 0.0
C1117 C 0.86507 0.5226 0.83833 0.0
C1118 C 0.85428 0.48855 0.7983 0.0
C1119 C 0.8219 0.49525 0.8222 0.0
C1120 C 0.80489 0.47948 0.84402 0.0
C1121 C 0.78098 0.47371 0.84245 0.0
C1122 C 0.77411 0.48403 0.8176 0.0
C1123 C 0.79111 0.50016 0.79483 0.0
C1124 C 0.8154 0.50614 0.79749 0.0
H1125 H 0.53257 0.40581 0.85292 0.0
H1126 H 0.54133 0.37657 0.94423 0.0
H1127 H 0.51981 0.33587 0.92084 0.0
H1128 H 0.47288 0.35481 0.83097 0.0
H1129 H 0.48015 0.35661 0.78806 0.0
H1130 H 0.49382 0.38331 0.81294 0.0
H1131 H 0.53605 0.39157 0.79575 0.0
H1132 H 0.52252 0.36507 0.77065 0.0
H1133 H 0.54389 0.36858 0.80178 0.0
H1134 H 0.50092 0.29905 0.88668 0.0
H1135 H 0.48799 0.26882 0.84253 0.0
H1136 H 0.49099 0.32097 0.77288 0.0
C1137 C 0.52955 0.39076 0.86811 0.0
C1138 C 0.53846 0.39433 0.9005 0.0
C1139 C 0.53463 0.37427 0.9194 0.0
C1140 C 0.52228 0.35104 0.9064 0.0
C1141 C 0.51385 0.34808 0.87437 0.0
C1142 C 0.5174 0.36736 0.85535 0.0
C1143 C 0.50838 0.35938 0.82071 0.0
C1144 C 0.48757 0.36379 0.81271 0.0
C1145 C 0.52894 0.37189 0.79576 0.0
C1146 C 0.49973 0.33273 0.8231 0.0
C1147 C 0.50277 0.32659 0.85446 0.0
C1148 C 0.49796 0.3035 0.86222 0.0
C1149 C 0.4905 0.28641 0.83712 0.0
C1150 C 0.48776 0.29244 0.80477 0.0
C1151 C 0.492 0.31573 0.79777 0.0
H1152 H 0.44298 0.62871 0.65225 0.0
H1153 H 0.5051 0.62997 0.60847 0.0
H1154 H 0.5317 0.66506 0.64255 0.0
H1155 H 0.4657 0.6901 0.65376 0.0
H1156 H 0.45282 0.69093 0.6926 0.0
H1157 H 0.43852 0.66424 0.66791 0.0
H1158 H 0.44057 0.63911 0.71605 0.0
H1159 H 0.45457 0.66569 0.74112 0.0
H1160 H 0.46901 0.64811 0.73539 0.0
H1161 H 0.55129 0.70303 0.67551 0.0
H1162 H 0.56283 0.7388 0.70951 0.0
H1163 H 0.48804 0.71223 0.73368 0.0
C1164 C 0.46217 0.636 0.6503 0.0
C1165 C 0.47194 0.62654 0.62762 0.0
C1166 C 0.49717 0.63672 0.62581 0.0
C1167 C 0.51242 0.65674 0.64498 0.0
C1168 C 0.50216 0.66612 0.66617 0.0
C1169 C 0.47761 0.65582 0.66941 0.0
C1170 C 0.47113 0.66996 0.69292 0.0
C1171 C 0.45616 0.67936 0.67576 0.0
C1172 C 0.45805 0.65481 0.72317 0.0
C1173 C 0.49589 0.69027 0.70171 0.0
C1174 C 0.51351 0.68769 0.68596 0.0
C1175 C 0.53768 0.70499 0.68842 0.0
C1176 C 0.54402 0.72533 0.70763 0.0
C1177 C 0.52633 0.72819 0.72442 0.0
C1178 C 0.50196 0.71033 0.72151 0.0
H1179 H 0.37359 0.81954 0.65801 0.0
H1180 H 0.37472 0.88262 0.61803 0.0
H1181 H 0.33937 0.87391 0.65172 0.0
H1182 H 0.31198 0.78213 0.65728 0.0
H1183 H 0.3101 0.76694 0.69519 0.0
H1184 H 0.33719 0.77957 0.67123 0.0
H1185 H 0.36189 0.80471 0.72099 0.0
H1186 H 0.33491 0.79189 0.74532 0.0
H1187 H 0.35325 0.824 0.74159 0.0
H1188 H 0.30085 0.85527 0.68356 0.0
H1189 H 0.26425 0.8305 0.71595 0.0
H1190 H 0.28878 0.78022 0.73711 0.0
C1191 C 0.36678 0.83188 0.65685 0.0
C1192 C 0.377 0.85181 0.63531 0.0
C1193 C 0.3674 0.86738 0.63449 0.0
C1194 C 0.34724 0.86251 0.65345 0.0
C1195 C 0.33711 0.84221 0.67345 0.0
C1196 C 0.34682 0.82739 0.67576 0.0
C1197 C 0.33189 0.80612 0.69797 0.0
C1198 C 0.32222 0.78229 0.67929 0.0
C1199 C 0.34635 0.80673 0.72827 0.0
C1200 C 0.31185 0.8109 0.70709 0.0
C1201 C 0.31522 0.83181 0.69263 0.0
C1202 C 0.29828 0.83913 0.69549 0.0
C1203 C 0.27746 0.82484 0.71377 0.0
C1204 C 0.27379 0.80355 0.72923 0.0
C1205 C 0.29131 0.7966 0.72597 0.0
H1206 H 0.20313 0.57012 0.64278 0.0
H1207 H 0.13413 0.5102 0.61369 0.0
H1208 H 0.14059 0.4835 0.64993 0.0
H1209 H 0.23459 0.5381 0.64712 0.0
H1210 H 0.25181 0.55324 0.683 0.0
H1211 H 0.24162 0.56838 0.6559 0.0
H1212 H 0.22045 0.57623 0.70433 0.0
H1213 H 0.23073 0.56125 0.73165 0.0
H1214 H 0.19917 0.55138 0.72892 0.0
H1215 H 0.15577 0.46236 0.6845 0.0
H1216 H 0.17725 0.44862 0.72054 0.0
H1217 H 0.23529 0.522 0.73127 0.0
C1218 C 0.18927 0.55145 0.64434 0.0
C1219 C 0.16812 0.54233 0.62524 0.0
C1220 C 0.15044 0.51775 0.62806 0.0
C1221 C 0.15395 0.50235 0.64855 0.0
C1222 C 0.17509 0.51178 0.66654 0.0
C1223 C 0.19232 0.53579 0.66514 0.0
C1224 C 0.21346 0.5411 0.6871 0.0
C1225 C 0.23674 0.55077 0.66707 0.0
C1226 C 0.2161 0.55852 0.71464 0.0
C1227 C 0.20555 0.51622 0.70047 0.0
C1228 C 0.18341 0.49961 0.688 0.0
C1229 C 0.17292 0.47523 0.69489 0.0
C1230 C 0.1853 0.46758 0.71524 0.0
C1231 C 0.20774 0.48428 0.72889 0.0
C1232 C 0.21794 0.50894 0.72157 0.0
H1233 H 0.41182 0.86853 0.14606 0.0
H1234 H 0.37432 0.85041 0.05319 0.0
H1235 H 0.3354 0.83232 0.08236 0.0
H1236 H 0.37175 0.81364 0.18399 0.0
H1237 H 0.37379 0.82627 0.22404 0.0
H1238 H 0.39854 0.84076 0.19594 0.0
H1239 H 0.3973 0.88024 0.20146 0.0
H1240 H 0.37239 0.86578 0.22945 0.0
H1241 H 0.36976 0.88016 0.19308 0.0
H1242 H 0.30044 0.81475 0.12175 0.0
H1243 H 0.27235 0.79445 0.16793 0.0
H1244 H 0.33252 0.82087 0.23467 0.0
C1245 C 0.39539 0.8612 0.13198 0.0
C1246 C 0.39596 0.8612 0.09744 0.0
C1247 C 0.37416 0.85072 0.07971 0.0
C1248 C 0.35202 0.84055 0.09606 0.0
C1249 C 0.35197 0.84064 0.13019 0.0
C1250 C 0.37308 0.85038 0.14796 0.0
C1251 C 0.36803 0.84572 0.18427 0.0
C1252 C 0.37865 0.8307 0.19784 0.0
C1253 C 0.37743 0.86939 0.20317 0.0
C1254 C 0.34082 0.83159 0.18411 0.0
C1255 C 0.33187 0.82935 0.15276 0.0
C1256 C 0.30724 0.81654 0.14643 0.0
C1257 C 0.29142 0.8052 0.17271 0.0
C1258 C 0.30037 0.80649 0.20466 0.0
C1259 C 0.32531 0.82005 0.21044 0.0
H1260 H 0.17737 0.55922 0.08708 0.0
H1261 H 0.10425 0.50825 0.11525 0.0
H1262 H 0.11896 0.48669 0.14975 0.0
H1263 H 0.20208 0.51855 0.08841 0.0
H1264 H 0.22994 0.54069 0.10667 0.0
H1265 H 0.21352 0.54999 0.0805 0.0
H1266 H 0.21275 0.57718 0.12673 0.0
H1267 H 0.22925 0.56808 0.15293 0.0
H1268 H 0.20086 0.56431 0.1663 0.0
H1269 H 0.14182 0.47178 0.18321 0.0
H1270 H 0.17092 0.46763 0.21808 0.0
H1271 H 0.22925 0.53036 0.17158 0.0
C1272 C 0.16445 0.54326 0.10001 0.0
C1273 C 0.13965 0.53517 0.09819 0.0
C1274 C 0.12332 0.51461 0.11618 0.0
C1275 C 0.13151 0.50219 0.13569 0.0
C1276 C 0.15613 0.5108 0.13737 0.0
C1277 C 0.17239 0.53106 0.12035 0.0
C1278 C 0.19796 0.53824 0.12935 0.0
C1279 C 0.21168 0.53677 0.09945 0.0
C1280 C 0.21096 0.56343 0.14475 0.0
C1281 C 0.19355 0.519 0.15431 0.0
C1282 C 0.16932 0.50304 0.15806 0.0
C1283 C 0.16085 0.48411 0.18036 0.0
C1284 C 0.17754 0.48181 0.19997 0.0
C1285 C 0.20238 0.49863 0.1976 0.0
C1286 C 0.2104 0.51715 0.17394 0.0
H1287 H 0.48352 0.70812 0.17937 0.0
H1288 H 0.54656 0.71016 0.22116 0.0
H1289 H 0.54072 0.6772 0.18438 0.0
H1290 H 0.44836 0.64612 0.17344 0.0
H1291 H 0.43443 0.64589 0.13508 0.0
H1292 H 0.44492 0.67129 0.16201 0.0
H1293 H 0.47128 0.69961 0.11549 0.0
H1294 H 0.46067 0.6743 0.08825 0.0
H1295 H 0.49242 0.69357 0.0947 0.0
H1296 H 0.52498 0.64076 0.14844 0.0
H1297 H 0.50264 0.60575 0.11225 0.0
H1298 H 0.45083 0.62846 0.09196 0.0
C1299 C 0.4964 0.70198 0.18041 0.0
C1300 C 0.51552 0.71176 0.20323 0.0
C1301 C 0.53189 0.70312 0.20378 0.0
C1302 C 0.52867 0.68433 0.18304 0.0
C1303 C 0.50921 0.67464 0.16158 0.0
C1304 C 0.49357 0.68343 0.15974 0.0
C1305 C 0.47351 0.66923 0.13555 0.0
C1306 C 0.44886 0.65744 0.15255 0.0
C1307 C 0.47454 0.68513 0.10678 0.0
C1308 C 0.47993 0.65066 0.12466 0.0
C1309 C 0.50058 0.65409 0.14003 0.0
C1310 C 0.50908 0.63818 0.13581 0.0
C1311 C 0.4962 0.61829 0.11535 0.0
C1312 C 0.47517 0.61457 0.0991 0.0
C1313 C 0.46709 0.63112 0.10361 0.0
H1314 H 0.1306 0.60407 0.64091 0.0
H1315 H 0.16961 0.63652 0.55123 0.0
H1316 H 0.18853 0.67634 0.57732 0.0
H1317 H 0.12177 0.65426 0.66711 0.0
H1318 H 0.12687 0.65092 0.70968 0.0
H1319 H 0.11404 0.62515 0.68304 0.0
H1320 H 0.14783 0.61626 0.69875 0.0
H1321 H 0.1606 0.64182 0.72559 0.0
H1322 H 0.17872 0.63941 0.6938 0.0
H1323 H 0.20609 0.71188 0.61383 0.0
H1324 H 0.22299 0.74053 0.65985 0.0
H1325 H 0.17321 0.68601 0.72654 0.0
C1326 C 0.14279 0.61965 0.62665 0.0
C1327 C 0.14849 0.61723 0.59394 0.0
C1328 C 0.16494 0.63794 0.57629 0.0
C1329 C 0.17568 0.66068 0.59083 0.0
C1330 C 0.16987 0.6625 0.62315 0.0
C1331 C 0.15393 0.64256 0.64099 0.0
C1332 C 0.1526 0.64931 0.67624 0.0
C1333 C 0.12731 0.64463 0.6845 0.0
C1334 C 0.16041 0.63591 0.69999 0.0
C1335 C 0.17064 0.67601 0.67554 0.0
C1336 C 0.18012 0.68325 0.64448 0.0
C1337 C 0.19847 0.70658 0.63809 0.0
C1338 C 0.20788 0.72276 0.66426 0.0
C1339 C 0.19882 0.71562 0.69631 0.0
C1340 C 0.1797 0.6921 0.70194 0.0
H1341 H 0.30079 0.52753 0.68042 0.0
H1342 H 0.29862 0.465 0.72423 0.0
H1343 H 0.33229 0.47093 0.68882 0.0
H1344 H 0.31679 0.51819 0.59675 0.0
H1345 H 0.33593 0.54991 0.58992 0.0
H1346 H 0.31018 0.5393 0.61642 0.0
H1347 H 0.3377 0.56619 0.66312 0.0
H1348 H 0.36354 0.57666 0.63697 0.0
H1349 H 0.36285 0.5631 0.67587 0.0
H1350 H 0.36929 0.48669 0.65406 0.0
H1351 H 0.40456 0.5087 0.61814 0.0
H1352 H 0.38169 0.56 0.59497 0.0
C1353 C 0.30707 0.51479 0.68217 0.0
C1354 C 0.29705 0.49578 0.70517 0.0
C1355 C 0.30586 0.47957 0.70668 0.0
C1356 C 0.32505 0.48285 0.68674 0.0
C1357 C 0.33497 0.50221 0.6651 0.0
C1358 C 0.32602 0.51766 0.66226 0.0
C1359 C 0.34045 0.53757 0.63794 0.0
C1360 C 0.32491 0.53614 0.60851 0.0
C1361 C 0.35181 0.56234 0.65448 0.0
C1362 C 0.35935 0.53128 0.62817 0.0
C1363 C 0.35587 0.51084 0.64418 0.0
C1364 C 0.37193 0.50243 0.64093 0.0
C1365 C 0.39198 0.51514 0.62063 0.0
C1366 C 0.39569 0.5359 0.60361 0.0
C1367 C 0.37906 0.54395 0.60729 0.0
H1368 H 0.48106 0.77958 0.67623 0.0
H1369 H 0.54296 0.83932 0.72202 0.0
H1370 H 0.53573 0.86762 0.68986 0.0
H1371 H 0.48891 0.80798 0.59457 0.0
H1372 H 0.45699 0.79468 0.58877 0.0
H1373 H 0.46867 0.77929 0.61273 0.0
H1374 H 0.44175 0.77703 0.66135 0.0
H1375 H 0.43025 0.79271 0.63779 0.0
H1376 H 0.44402 0.80427 0.67701 0.0
H1377 H 0.5185 0.88918 0.65856 0.0
H1378 H 0.49529 0.90266 0.62555 0.0
H1379 H 0.44555 0.82897 0.5983 0.0
C1380 C 0.49345 0.79861 0.679 0.0
C1381 C 0.51261 0.80722 0.7017 0.0
C1382 C 0.52831 0.83226 0.70463 0.0
C1383 C 0.52427 0.84849 0.68656 0.0
C1384 C 0.50469 0.83937 0.66532 0.0
C1385 C 0.48982 0.815 0.66097 0.0
C1386 C 0.46948 0.80982 0.63759 0.0
C1387 C 0.47112 0.7972 0.60657 0.0
C1388 C 0.44493 0.79509 0.65446 0.0
C1389 C 0.47483 0.83507 0.63015 0.0
C1390 C 0.4952 0.85184 0.64646 0.0
C1391 C 0.50281 0.87624 0.6452 0.0
C1392 C 0.48941 0.8837 0.62657 0.0
C1393 C 0.46876 0.86686 0.60919 0.0
C1394 C 0.46147 0.84225 0.61095 0.0
H1395 H 0.27834 0.47369 0.18957 0.0
H1396 H 0.30466 0.52453 0.26999 0.0
H1397 H 0.34499 0.54476 0.24544 0.0
H1398 H 0.33342 0.47046 0.17669 0.0
H1399 H 0.33075 0.46948 0.13272 0.0
H1400 H 0.3042 0.45721 0.15791 0.0
H1401 H 0.2909 0.48454 0.12913 0.0
H1402 H 0.3172 0.4966 0.10362 0.0
H1403 H 0.31123 0.51647 0.12778 0.0
H1404 H 0.38147 0.56128 0.21129 0.0
H1405 H 0.41118 0.57555 0.16649 0.0
H1406 H 0.36242 0.51481 0.10707 0.0
C1407 C 0.2927 0.48892 0.20211 0.0
C1408 C 0.28838 0.49744 0.23182 0.0
C1409 C 0.3075 0.51766 0.24724 0.0
C1410 C 0.33056 0.52918 0.23362 0.0
C1411 C 0.33429 0.52037 0.20443 0.0
C1412 C 0.31591 0.50087 0.18859 0.0
C1413 C 0.32447 0.49646 0.15602 0.0
C1414 C 0.32313 0.47194 0.15584 0.0
C1415 C 0.3101 0.49866 0.12745 0.0
C1416 C 0.35036 0.51683 0.15581 0.0
C1417 C 0.35566 0.53011 0.18432 0.0
C1418 C 0.37772 0.55082 0.1891 0.0
C1419 C 0.39452 0.55873 0.16363 0.0
C1420 C 0.38928 0.54593 0.13382 0.0
C1421 C 0.36717 0.52437 0.13014 0.0
H1422 H 0.4893 0.77282 0.23125 0.0
H1423 H 0.56283 0.83035 0.21928 0.0
H1424 H 0.54918 0.85147 0.1824 0.0
H1425 H 0.473 0.77246 0.14716 0.0
H1426 H 0.4428 0.76574 0.15589 0.0
H1427 H 0.45793 0.75587 0.18353 0.0
H1428 H 0.45042 0.77773 0.23136 0.0
H1429 H 0.43532 0.78773 0.20383 0.0
H1430 H 0.46042 0.80927 0.22775 0.0
H1431 H 0.52816 0.8664 0.1472 0.0
H1432 H 0.50145 0.87291 0.11111 0.0
H1433 H 0.44117 0.80464 0.14197 0.0
C1434 C 0.50241 0.79 0.22111 0.0
C1435 C 0.5271 0.80014 0.22832 0.0
C1436 C 0.54385 0.82234 0.21408 0.0
C1437 C 0.53626 0.83451 0.19324 0.0
C1438 C 0.51187 0.82406 0.18644 0.0
C1439 C 0.49517 0.80219 0.19954 0.0
C1440 C 0.47025 0.79432 0.18625 0.0
C1441 C 0.46042 0.7707 0.16707 0.0
C1442 C 0.45309 0.79214 0.21396 0.0
C1443 C 0.47565 0.81521 0.16369 0.0
C1444 C 0.49974 0.83225 0.16464 0.0
C1445 C 0.50925 0.85318 0.14617 0.0
C1446 C 0.49384 0.85672 0.12577 0.0
C1447 C 0.46912 0.8393 0.12354 0.0
C1448 C 0.45994 0.81831 0.14303 0.0
H1449 H 0.1942 0.7278 0.19932 0.0
H1450 H 0.23646 0.71005 0.26433 0.0
H1451 H 0.22253 0.67195 0.23516 0.0
H1452 H 0.1434 0.66671 0.19153 0.0
H1453 H 0.13856 0.66995 0.14882 0.0
H1454 H 0.15105 0.69575 0.17539 0.0
H1455 H 0.18774 0.71783 0.1369 0.0
H1456 H 0.1753 0.69219 0.11013 0.0
H1457 H 0.20509 0.70379 0.1265 0.0
H1458 H 0.20618 0.63704 0.198 0.0
H1459 H 0.18853 0.60714 0.15377 0.0
H1460 H 0.15541 0.64577 0.11279 0.0
C1461 C 0.2004 0.71582 0.20745 0.0
C1462 C 0.21644 0.72195 0.23416 0.0
C1463 C 0.22421 0.70582 0.24398 0.0
C1464 C 0.21633 0.68405 0.22763 0.0
C1465 C 0.20054 0.6785 0.20151 0.0
C1466 C 0.19261 0.69383 0.19137 0.0
C1467 C 0.17618 0.6836 0.16184 0.0
C1468 C 0.15079 0.67871 0.16989 0.0
C1469 C 0.18671 0.70035 0.13208 0.0
C1470 C 0.17646 0.66035 0.1568 0.0
C1471 C 0.19061 0.65784 0.18013 0.0
C1472 C 0.19485 0.63864 0.17979 0.0
C1473 C 0.18476 0.62176 0.15459 0.0
C1474 C 0.17042 0.62402 0.13013 0.0
C1475 C 0.16586 0.64335 0.13161 0.0
H1476 H 0.11435 0.15382 0.30829 0.0
H1477 H 0.18038 0.22162 0.32136 0.0
H1478 H 0.19951 0.21028 0.27762 0.0
H1479 H 0.14108 0.11796 0.29526 0.0
H1480 H 0.11947 0.09914 0.26499 0.0
H1481 H 0.11095 0.11307 0.29638 0.0
H1482 H 0.09743 0.13275 0.25216 0.0
H1483 H 0.10562 0.11863 0.22064 0.0
H1484 H 0.11818 0.15071 0.22047 0.0
H1485 H 0.21169 0.19011 0.233 0.0
H1486 H 0.21456 0.16469 0.18968 0.0
H1487 H 0.14025 0.11069 0.20745 0.0
C1488 C 0.13279 0.16647 0.30192 0.0
C1489 C 0.14582 0.18865 0.31841 0.0
C1490 C 0.16993 0.20457 0.30905 0.0
C1491 C 0.181 0.19822 0.28433 0.0
C1492 C 0.1677 0.17595 0.26911 0.0
C1493 C 0.14403 0.16047 0.27743 0.0
C1494 C 0.13348 0.1376 0.25763 0.0
C1495 C 0.1258 0.11565 0.2799 0.0
C1496 C 0.11244 0.13477 0.23647 0.0
C1497 C 0.15489 0.14248 0.23684 0.0
C1498 C 0.17455 0.16461 0.24376 0.0
C1499 C 0.19634 0.17279 0.22739 0.0
C1500 C 0.19785 0.15816 0.20293 0.0
C1501 C 0.17765 0.13566 0.195 0.0
C1502 C 0.15607 0.12778 0.21267 0.0
H1503 H 0.82667 0.979 0.32379 0.0
H1504 H 0.82586 0.91836 0.27658 0.0
H1505 H 0.83807 0.94072 0.2244 0.0
H1506 H 0.8071 1.00072 0.25029 0.0
H1507 H 0.82716 0.03177 0.26024 0.0
H1508 H 0.81432 0.00973 0.29245 0.0
H1509 H 0.85694 0.02295 0.31409 0.0
H1510 H 0.86993 0.04479 0.2818 0.0
H1511 H 0.87878 0.02247 0.2869 0.0
H1512 H 0.85549 0.97056 0.18049 0.0
H1513 H 0.87603 0.00615 0.14531 0.0
H1514 H 0.86628 0.04899 0.21918 0.0
C1515 C 0.82814 0.97022 0.30202 0.0
C1516 C 0.82474 0.94676 0.30372 0.0
C1517 C 0.82789 0.9361 0.27537 0.0
C1518 C 0.83486 0.94869 0.24572 0.0
C1519 C 0.83876 0.97202 0.24491 0.0
C1520 C 0.83536 0.98273 0.27213 0.0
C1521 C 0.84314 0.00886 0.26512 0.0
C1522 C 0.82164 0.01301 0.26714 0.0
C1523 C 0.8634 0.02576 0.28836 0.0
C1524 C 0.85213 0.0113 0.23011 0.0
C1525 C 0.84917 0.98967 0.21906 0.0
C1526 C 0.85756 0.98748 0.18863 0.0
C1527 C 0.86938 0.00789 0.16893 0.0
C1528 C 0.87276 0.03034 0.17948 0.0
C1529 C 0.86366 0.03199 0.21033 0.0
H1530 H 0.97557 0.86474 0.197 0.0
H1531 H 0.95441 0.7893 0.19179 0.0
H1532 H 0.98308 0.79528 0.23595 0.0
H1533 H 0.03795 0.88723 0.21121 0.0
H1534 H 0.04108 0.91025 0.23922 0.0
H1535 H 0.01866 0.89995 0.20753 0.0
H1536 H 0.98558 0.88971 0.25107 0.0
H1537 H 0.00793 0.90016 0.28286 0.0
H1538 H 0.98246 0.87021 0.28472 0.0
H1539 H 0.01509 0.80995 0.28025 0.0
H1540 H 0.04574 0.83152 0.32287 0.0
H1541 H 0.04532 0.89704 0.29875 0.0
C1542 C 0.97681 0.84939 0.20515 0.0
C1543 C 0.96266 0.82654 0.19075 0.0
C1544 C 0.96496 0.807 0.20237 0.0
C1545 C 0.98128 0.81022 0.22741 0.0
C1546 C 0.99514 0.83306 0.24072 0.0
C1547 C 0.99292 0.85225 0.23013 0.0
C1548 C 0.00972 0.87494 0.24857 0.0
C1549 C 0.02793 0.89422 0.22524 0.0
C1550 C 0.99557 0.88429 0.26796 0.0
C1551 C 0.02181 0.86555 0.27116 0.0
C1552 C 0.01327 0.84139 0.26623 0.0
C1553 C 0.02186 0.82887 0.28435 0.0
C1554 C 0.03935 0.84131 0.30844 0.0
C1555 C 0.04802 0.86602 0.31432 0.0
C1556 C 0.03916 0.87818 0.29506 0.0
H1557 H 0.89841 0.86746 0.71115 0.0
H1558 H 0.84138 0.79402 0.69609 0.0
H1559 H 0.81729 0.79949 0.73909 0.0
H1560 H 0.89232 0.86918 0.79836 0.0
H1561 H 0.8989 0.89988 0.79803 0.0
H1562 H 0.91141 0.88949 0.767 0.0
H1563 H 0.89283 0.90366 0.72203 0.0
H1564 H 0.88002 0.91384 0.75293 0.0
H1565 H 0.86099 0.8927 0.72235 0.0
H1566 H 0.79903 0.81423 0.78332 0.0
H1567 H 0.78965 0.8356 0.82603 0.0
H1568 H 0.85917 0.89909 0.8102 0.0
C1569 C 0.88093 0.85234 0.71688 0.0
C1570 C 0.87185 0.83026 0.70009 0.0
C1571 C 0.84883 0.81108 0.70864 0.0
C1572 C 0.83497 0.81407 0.73293 0.0
C1573 C 0.84439 0.83632 0.74844 0.0
C1574 C 0.86696 0.85502 0.7408 0.0
C1575 C 0.87317 0.87725 0.76053 0.0
C1576 C 0.89525 0.88435 0.78227 0.0
C1577 C 0.87697 0.89808 0.73812 0.0
C1578 C 0.85061 0.86823 0.78074 0.0
C1579 C 0.8341 0.84465 0.77343 0.0
C1580 C 0.8119 0.83268 0.78919 0.0
C1581 C 0.80669 0.84503 0.81335 0.0
C1582 C 0.82365 0.86909 0.82162 0.0
C1583 C 0.84575 0.88074 0.80465 0.0
H1584 H 0.19012 0.04613 0.7121 0.0
H1585 H 0.13035 0.01154 0.64431 0.0
H1586 H 0.11079 0.97647 0.68028 0.0
H1587 H 0.18918 0.99033 0.73917 0.0
H1588 H 0.19567 0.99981 0.78126 0.0
H1589 H 0.2068 0.0218 0.74886 0.0
H1590 H 0.18626 0.04336 0.77561 0.0
H1591 H 0.17513 0.0215 0.80807 0.0
H1592 H 0.15454 0.02662 0.78423 0.0
H1593 H 0.09553 0.9469 0.72404 0.0
H1594 H 0.08489 0.92378 0.77536 0.0
H1595 H 0.15363 0.9754 0.81705 0.0
C1596 C 0.17311 0.03098 0.70475 0.0
C1597 C 0.16172 0.03168 0.6754 0.0
C1598 C 0.13932 0.01161 0.6668 0.0
C1599 C 0.12809 0.99145 0.68695 0.0
C1600 C 0.13938 0.99141 0.71589 0.0
C1601 C 0.16134 0.01052 0.72502 0.0
C1602 C 0.1684 0.00605 0.75879 0.0
C1603 C 0.19138 0.0044 0.75689 0.0
C1604 C 0.17124 0.02554 0.78311 0.0
C1605 C 0.1467 0.98181 0.76721 0.0
C1606 C 0.13039 0.97376 0.74177 0.0
C1607 C 0.10827 0.95277 0.74401 0.0
C1608 C 0.10235 0.93978 0.77326 0.0
C1609 C 0.11851 0.94764 0.79993 0.0
C1610 C 0.1412 0.96872 0.79669 0.0
H1611 H 0.98162 0.1115 0.69631 0.0
H1612 H 0.96148 0.16646 0.68872 0.0
H1613 H 0.98925 0.18882 0.73377 0.0
H1614 H 0.98655 0.11297 0.7848 0.0
H1615 H 0.01176 0.10803 0.78454 0.0
H1616 H 0.99007 0.09631 0.75191 0.0
H1617 H 0.02417 0.11862 0.70953 0.0
H1618 H 0.04593 0.13062 0.74206 0.0
H1619 H 0.04371 0.15058 0.71315 0.0
H1620 H 0.0206 0.20613 0.77848 0.0
H1621 H 0.05023 0.21508 0.82248 0.0
H1622 H 0.04913 0.14838 0.80153 0.0
C1623 C 0.98288 0.12815 0.7042 0.0
C1624 C 0.9693 0.13716 0.68879 0.0
C1625 C 0.97156 0.15905 0.70008 0.0
C1626 C 0.9874 0.17199 0.7256 0.0
C1627 C 1.00079 0.16278 0.73983 0.0
C1628 C 0.99848 0.14122 0.7298 0.0
C1629 C 0.01469 0.13511 0.74943 0.0
C1630 C 0.99988 0.11172 0.76882 0.0
C1631 C 0.03322 0.13365 0.72721 0.0
C1632 C 0.02656 0.15665 0.77198 0.0
C1633 C 0.01844 0.1725 0.76592 0.0
C1634 C 0.027 0.19378 0.78353 0.0
C1635 C 0.04395 0.19877 0.8084 0.0
C1636 C 0.05207 0.18246 0.81564 0.0
C1637 C 0.04332 0.16126 0.7968 0.0
H1638 H 0.77857 0.50067 0.61162 0.0
H1639 H 0.84493 0.54924 0.66134 0.0
H1640 H 0.86777 0.54141 0.61877 0.0
H1641 H 0.79278 0.45722 0.5938 0.0
H1642 H 0.77804 0.44936 0.55455 0.0
H1643 H 0.76772 0.46168 0.58584 0.0
H1644 H 0.77329 0.49579 0.54661 0.0
H1645 H 0.78333 0.48337 0.51494 0.0
H1646 H 0.80193 0.51423 0.52711 0.0
H1647 H 0.88256 0.524 0.57268 0.0
H1648 H 0.88738 0.50029 0.52835 0.0
H1649 H 0.81048 0.46332 0.51182 0.0
C1650 C 0.79796 0.51012 0.61332 0.0
C1651 C 0.80996 0.52557 0.63982 0.0
C1652 C 0.83536 0.53751 0.64105 0.0
C1653 C 0.84845 0.53307 0.61705 0.0
C1654 C 0.83584 0.51689 0.5919 0.0
C1655 C 0.81112 0.5059 0.58982 0.0
C1656 C 0.80131 0.48805 0.56211 0.0
C1657 C 0.78396 0.46259 0.57485 0.0
C1658 C 0.78926 0.49584 0.53615 0.0
C1659 C 0.82423 0.49005 0.54931 0.0
C1660 C 0.8441 0.50691 0.56633 0.0
C1661 C 0.86708 0.51095 0.55908 0.0
C1662 C 0.86966 0.49738 0.53391 0.0
C1663 C 0.84932 0.47979 0.51668 0.0
C1664 C 0.82646 0.47644 0.52453 0.0
H1665 H 0.52687 0.29916 0.63745 0.0
H1666 H 0.45458 0.28652 0.65182 0.0
H1667 H 0.46088 0.31482 0.60683 0.0
H1668 H 0.55476 0.36173 0.62002 0.0
H1669 H 0.57464 0.36121 0.58935 0.0
H1670 H 0.5643 0.33978 0.62234 0.0
H1671 H 0.5477 0.30484 0.58054 0.0
H1672 H 0.55819 0.32617 0.54742 0.0
H1673 H 0.52707 0.3031 0.54936 0.0
H1674 H 0.47586 0.34577 0.56086 0.0
H1675 H 0.49695 0.37408 0.51556 0.0
H1676 H 0.55905 0.3656 0.53135 0.0
C1677 C 0.51226 0.3022 0.63115 0.0
C1678 C 0.49021 0.29057 0.64836 0.0
C1679 C 0.47161 0.2951 0.63904 0.0
C1680 C 0.47506 0.31125 0.61358 0.0
C1681 C 0.49716 0.32264 0.59751 0.0
C1682 C 0.51534 0.31811 0.60577 0.0
C1683 C 0.53731 0.33238 0.58454 0.0
C1684 C 0.55903 0.34981 0.60531 0.0
C1685 C 0.54288 0.31562 0.56426 0.0
C1686 C 0.52872 0.34574 0.56302 0.0
C1687 C 0.50558 0.34003 0.57096 0.0
C1688 C 0.49396 0.35029 0.55441 0.0
C1689 C 0.50615 0.36646 0.52877 0.0
C1690 C 0.52971 0.37214 0.51971 0.0
C1691 C 0.54108 0.36171 0.53747 0.0
H1692 H 0.64214 0.19752 0.53592 0.0
H1693 H 0.63012 0.1257 0.51947 0.0
H1694 H 0.65946 0.13218 0.56323 0.0
H1695 H 0.70465 0.22579 0.54871 0.0
H1696 H 0.70506 0.24585 0.57981 0.0
H1697 H 0.68235 0.23493 0.54851 0.0
H1698 H 0.64906 0.21838 0.5929 0.0
H1699 H 0.67168 0.22946 0.62435 0.0
H1700 H 0.64885 0.19822 0.62374 0.0
H1701 H 0.6919 0.14787 0.6083 0.0
H1702 H 0.72226 0.17019 0.65109 0.0
H1703 H 0.7123 0.23143 0.63597 0.0
C1704 C 0.64541 0.18297 0.54152 0.0
C1705 C 0.63373 0.16106 0.52409 0.0
C1706 C 0.63872 0.14261 0.53249 0.0
C1707 C 0.65544 0.14617 0.55725 0.0
C1708 C 0.66695 0.16824 0.57343 0.0
C1709 C 0.66194 0.18621 0.56595 0.0
C1710 C 0.67678 0.20843 0.58631 0.0
C1711 C 0.69318 0.23001 0.56453 0.0
C1712 C 0.66063 0.21393 0.60812 0.0
C1713 C 0.69115 0.20033 0.60642 0.0
C1714 C 0.68532 0.17712 0.5988 0.0
C1715 C 0.6965 0.16603 0.61444 0.0
C1716 C 0.71381 0.1789 0.63867 0.0
C1717 C 0.71981 0.20265 0.64703 0.0
C1718 C 0.7083 0.21337 0.63033 0.0
H1719 H 0.56257 0.19535 0.03356 0.0
H1720 H 0.50835 0.12062 0.01976 0.0
H1721 H 0.48393 0.12446 0.06382 0.0
H1722 H 0.55779 0.19676 0.12099 0.0
H1723 H 0.5626 0.22685 0.12101 0.0
H1724 H 0.57559 0.21756 0.08924 0.0
H1725 H 0.55473 0.22996 0.04534 0.0
H1726 H 0.54149 0.23908 0.07697 0.0
H1727 H 0.52264 0.21737 0.04683 0.0
H1728 H 0.46505 0.13761 0.10932 0.0
H1729 H 0.45478 0.15793 0.15263 0.0
H1730 H 0.52192 0.2237 0.13436 0.0
C1731 C 0.54564 0.17963 0.03975 0.0
C1732 C 0.53744 0.15765 0.02304 0.0
C1733 C 0.51511 0.13764 0.03221 0.0
C1734 C 0.50108 0.13969 0.05714 0.0
C1735 C 0.50964 0.16183 0.07264 0.0
C1736 C 0.53152 0.18136 0.0643 0.0
C1737 C 0.53687 0.20327 0.08416 0.0
C1738 C 0.55955 0.21158 0.1051 0.0
C1739 C 0.53905 0.22361 0.062 0.0
C1740 C 0.51459 0.19315 0.10514 0.0
C1741 C 0.49898 0.16926 0.09825 0.0
C1742 C 0.47721 0.15631 0.11486 0.0
C1743 C 0.47149 0.16804 0.13936 0.0
C1744 C 0.48751 0.19247 0.14705 0.0
C1745 C 0.5092 0.20505 0.1293 0.0
H1746 H 0.81001 0.36607 0.03417 0.0
H1747 H 0.88437 0.38514 0.02029 0.0
H1748 H 0.88002 0.3569 0.06472 0.0
H1749 H 0.80856 0.3601 0.12183 0.0
H1750 H 0.7782 0.33529 0.12186 0.0
H1751 H 0.78799 0.35761 0.09007 0.0
H1752 H 0.77489 0.32423 0.04623 0.0
H1753 H 0.7653 0.30184 0.07788 0.0
H1754 H 0.78683 0.30419 0.04771 0.0
H1755 H 0.86611 0.32466 0.11065 0.0
H1756 H 0.84507 0.29417 0.154 0.0
H1757 H 0.78024 0.29717 0.13498 0.0
C1758 C 0.82555 0.36455 0.04042 0.0
C1759 C 0.84756 0.3779 0.02356 0.0
C1760 C 0.86734 0.37523 0.03288 0.0
C1761 C 0.86499 0.35914 0.058 0.0
C1762 C 0.84278 0.34591 0.07359 0.0
C1763 C 0.82352 0.3487 0.06515 0.0
C1764 C 0.80145 0.33249 0.08502 0.0
C1765 C 0.7936 0.34725 0.10594 0.0
C1766 C 0.78092 0.31463 0.06288 0.0
C1767 C 0.81112 0.31994 0.10602 0.0
C1768 C 0.83496 0.32777 0.09928 0.0
C1769 C 0.84745 0.31849 0.11606 0.0
C1770 C 0.83532 0.30108 0.14057 0.0
C1771 C 0.81094 0.29315 0.14806 0.0
C1772 C 0.79884 0.30269 0.1301 0.0
H1773 H 0.63846 0.44614 0.0254 0.0
H1774 H 0.62283 0.50404 0.01427 0.0
H1775 H 0.65205 0.52655 0.0584 0.0
H1776 H 0.64415 0.44861 0.11193 0.0
H1777 H 0.66807 0.44171 0.11163 0.0
H1778 H 0.64618 0.43086 0.07928 0.0
H1779 H 0.68031 0.45121 0.03637 0.0
H1780 H 0.70231 0.46228 0.06863 0.0
H1781 H 0.70143 0.48288 0.03951 0.0
H1782 H 0.68357 0.54236 0.10531 0.0
H1783 H 0.7122 0.54877 0.15013 0.0
H1784 H 0.70626 0.4801 0.12759 0.0
C1785 C 0.64098 0.46353 0.03208 0.0
C1786 C 0.62819 0.47323 0.01625 0.0
C1787 C 0.63233 0.49614 0.02601 0.0
C1788 C 0.64895 0.50909 0.051 0.0
C1789 C 0.66135 0.49893 0.06586 0.0
C1790 C 0.65742 0.4766 0.05663 0.0
C1791 C 0.67261 0.46924 0.07614 0.0
C1792 C 0.65681 0.44625 0.09592 0.0
C1793 C 0.6902 0.46623 0.05383 0.0
C1794 C 0.68565 0.49077 0.09821 0.0
C1795 C 0.67914 0.50786 0.09203 0.0
C1796 C 0.68878 0.52907 0.11018 0.0
C1797 C 0.70512 0.5326 0.13554 0.0
C1798 C 0.71156 0.51496 0.14255 0.0
C1799 C 0.70183 0.49402 0.12311 0.0
H1800 H 0.43563 0.8126 0.95648 0.0
H1801 H 0.50182 0.87723 0.98225 0.0
H1802 H 0.52333 0.8678 0.93986 0.0
H1803 H 0.46034 0.77534 0.94326 0.0
H1804 H 0.44138 0.75962 0.90891 0.0
H1805 H 0.43094 0.77213 0.93987 0.0
H1806 H 0.4232 0.79639 0.89571 0.0
H1807 H 0.43334 0.78372 0.86453 0.0
H1808 H 0.44717 0.81581 0.86847 0.0
H1809 H 0.53804 0.84963 0.89685 0.0
H1810 H 0.54414 0.8263 0.85383 0.0
H1811 H 0.46799 0.7739 0.85599 0.0
C1812 C 0.4546 0.82498 0.95305 0.0
C1813 C 0.46701 0.84569 0.97283 0.0
C1814 C 0.49185 0.86135 0.96734 0.0
C1815 C 0.50425 0.85607 0.94341 0.0
C1816 C 0.49154 0.83518 0.92494 0.0
C1817 C 0.46719 0.82008 0.92919 0.0
C1818 C 0.45766 0.79869 0.9064 0.0
C1819 C 0.44696 0.77505 0.92578 0.0
C1820 C 0.43926 0.79866 0.88235 0.0
C1821 C 0.48054 0.80385 0.88898 0.0
C1822 C 0.49989 0.82496 0.90002 0.0
C1823 C 0.52296 0.83317 0.88788 0.0
C1824 C 0.52625 0.81969 0.8635 0.0
C1825 C 0.50657 0.79818 0.85134 0.0
C1826 C 0.48346 0.79021 0.86459 0.0
H1827 H 0.22857 0.70004 0.85834 0.0
H1828 H 0.17256 0.71888 0.85366 0.0
H1829 H 0.15033 0.68941 0.89732 0.0
H1830 H 0.19021 0.63721 0.8714 0.0
H1831 H 0.2105 0.63458 0.89925 0.0
H1832 H 0.2221 0.65735 0.86797 0.0
H1833 H 0.24396 0.69016 0.91207 0.0
H1834 H 0.23259 0.66747 0.94346 0.0
H1835 H 0.22706 0.69226 0.94585 0.0
H1836 H 0.13373 0.65688 0.94122 0.0
H1837 H 0.12551 0.62603 0.98324 0.0
H1838 H 0.1927 0.62911 0.9588 0.0
C1839 C 0.21168 0.69812 0.86649 0.0
C1840 C 0.20238 0.71188 0.85239 0.0
C1841 C 0.18017 0.70867 0.86401 0.0
C1842 C 0.16734 0.69189 0.88877 0.0
C1843 C 0.17694 0.67846 0.9018 0.0
C1844 C 0.1987 0.68155 0.89118 0.0
C1845 C 0.20525 0.66508 0.90926 0.0
C1846 C 0.20711 0.64752 0.88555 0.0
C1847 C 0.2286 0.67961 0.92882 0.0
C1848 C 0.18377 0.65218 0.93172 0.0
C1849 C 0.16756 0.66003 0.92702 0.0
C1850 C 0.14635 0.65064 0.9451 0.0
C1851 C 0.14179 0.63304 0.96887 0.0
C1852 C 0.15841 0.62503 0.97449 0.0
C1853 C 0.17955 0.63472 0.95529 0.0
H1854 H 0.37576 0.57411 0.96586 0.0
H1855 H 0.38372 0.5118 0.98253 0.0
H1856 H 0.35252 0.48931 0.94104 0.0
H1857 H 0.31217 0.54256 0.9545 0.0
H1858 H 0.31275 0.56222 0.92262 0.0
H1859 H 0.3358 0.57349 0.9535 0.0
H1860 H 0.36852 0.58761 0.90851 0.0
H1861 H 0.34559 0.57658 0.87749 0.0
H1862 H 0.36708 0.5664 0.8785 0.0
H1863 H 0.31938 0.47319 0.89862 0.0
H1864 H 0.2895 0.46585 0.85563 0.0
H1865 H 0.30403 0.53907 0.86614 0.0
C1866 C 0.37105 0.55576 0.96079 0.0
C1867 C 0.38224 0.54476 0.97763 0.0
C1868 C 0.37553 0.52071 0.96997 0.0
C1869 C 0.35772 0.50773 0.94652 0.0
C1870 C 0.34685 0.51904 0.93075 0.0
C1871 C 0.35346 0.5426 0.93732 0.0
C1872 C 0.33936 0.55077 0.91656 0.0
C1873 C 0.32412 0.55766 0.93809 0.0
C1874 C 0.35614 0.57157 0.89392 0.0
C1875 C 0.32374 0.52811 0.8973 0.0
C1876 C 0.32818 0.50994 0.90599 0.0
C1877 C 0.31581 0.48732 0.89156 0.0
C1878 C 0.29877 0.4833 0.86723 0.0
C1879 C 0.29435 0.50186 0.85734 0.0
C1880 C 0.30693 0.52446 0.87298 0.0
H1881 H 0.19596 0.57209 0.46007 0.0
H1882 H 0.12808 0.50795 0.48131 0.0
H1883 H 0.13663 0.48615 0.43815 0.0
H1884 H 0.19488 0.56401 0.37262 0.0
H1885 H 0.22682 0.57579 0.37031 0.0
H1886 H 0.21455 0.58597 0.40195 0.0
H1887 H 0.23554 0.5738 0.44593 0.0
H1888 H 0.24765 0.56333 0.41446 0.0
H1889 H 0.22989 0.5434 0.44699 0.0
H1890 H 0.15427 0.47112 0.39305 0.0
H1891 H 0.17762 0.46545 0.34912 0.0
H1892 H 0.23338 0.53994 0.35942 0.0
C1893 C 0.1827 0.55349 0.45565 0.0
C1894 C 0.16131 0.54178 0.47425 0.0
C1895 C 0.14454 0.51741 0.46735 0.0
C1896 C 0.14931 0.50484 0.44297 0.0
C1897 C 0.17087 0.51692 0.42561 0.0
C1898 C 0.18713 0.5408 0.43158 0.0
C1899 C 0.20906 0.5499 0.40998 0.0
C1900 C 0.21145 0.57011 0.38738 0.0
C1901 C 0.23187 0.55808 0.43058 0.0
C1902 C 0.20277 0.52742 0.39088 0.0
C1903 C 0.18075 0.50848 0.40012 0.0
C1904 C 0.1715 0.48591 0.38563 0.0
C1905 C 0.18494 0.48282 0.36079 0.0
C1906 C 0.20737 0.50222 0.35062 0.0
C1907 C 0.2163 0.52467 0.36633 0.0
H1908 H 0.43585 0.63252 0.46598 0.0
H1909 H 0.49639 0.62116 0.47945 0.0
H1910 H 0.51897 0.65172 0.43719 0.0
H1911 H 0.4421 0.64092 0.37802 0.0
H1912 H 0.43327 0.66344 0.37804 0.0
H1913 H 0.42192 0.64044 0.40902 0.0
H1914 H 0.43812 0.67314 0.45408 0.0
H1915 H 0.44975 0.69625 0.42324 0.0
H1916 H 0.46946 0.69574 0.45419 0.0
H1917 H 0.53569 0.68506 0.39494 0.0
H1918 H 0.54372 0.71561 0.35262 0.0
H1919 H 0.4718 0.70427 0.36605 0.0
C1920 C 0.45379 0.63629 0.45996 0.0
C1921 C 0.4643 0.62438 0.4762 0.0
C1922 C 0.48784 0.6299 0.46735 0.0
C1923 C 0.50089 0.64735 0.44346 0.0
C1924 C 0.49012 0.65902 0.4284 0.0
C1925 C 0.46699 0.6535 0.43602 0.0
C1926 C 0.45941 0.66841 0.416 0.0
C1927 C 0.43791 0.65234 0.39396 0.0
C1928 C 0.45386 0.68433 0.43821 0.0
C1929 C 0.48193 0.6833 0.39603 0.0
C1930 C 0.49952 0.67777 0.40368 0.0
C1931 C 0.52199 0.68944 0.38864 0.0
C1932 C 0.52642 0.70688 0.36473 0.0
C1933 C 0.50841 0.7124 0.35585 0.0
C1934 C 0.48598 0.7005 0.37209 0.0
H1935 H 0.37733 0.81405 0.46842 0.0
H1936 H 0.37839 0.88044 0.4909 0.0
H1937 H 0.3483 0.87167 0.4474 0.0
H1938 H 0.37136 0.81724 0.38035 0.0
H1939 H 0.3524 0.78522 0.37651 0.0
H1940 H 0.37444 0.79746 0.40867 0.0
H1941 H 0.34105 0.77416 0.4517 0.0
H1942 H 0.31889 0.76206 0.41972 0.0
H1943 H 0.31537 0.77834 0.45312 0.0
H1944 H 0.31615 0.85402 0.40193 0.0
H1945 H 0.2878 0.83077 0.35732 0.0
H1946 H 0.30905 0.77671 0.36613 0.0
C1947 C 0.37139 0.82687 0.46415 0.0
C1948 C 0.38021 0.8479 0.48319 0.0
C1949 C 0.37201 0.86425 0.47653 0.0
C1950 C 0.35482 0.85936 0.45196 0.0
C1951 C 0.34619 0.83819 0.43403 0.0
C1952 C 0.35449 0.8224 0.43966 0.0
C1953 C 0.34269 0.80099 0.4171 0.0
C1954 C 0.36133 0.80019 0.39431 0.0
C1955 C 0.32866 0.77751 0.43659 0.0
C1956 C 0.32601 0.80683 0.39833 0.0
C1957 C 0.32821 0.82835 0.4082 0.0
C1958 C 0.3144 0.83718 0.39398 0.0
C1959 C 0.29825 0.82381 0.36875 0.0
C1960 C 0.29607 0.80185 0.35805 0.0
C1961 C 0.3101 0.79337 0.37349 0.0
H1962 H 0.28765 0.16216 0.12969 0.0
H1963 H 0.25159 0.09217 0.17635 0.0
H1964 H 0.29037 0.09875 0.19695 0.0
H1965 H 0.34088 0.16081 0.10513 0.0
H1966 H 0.36105 0.1921 0.11362 0.0
H1967 H 0.33044 0.18203 0.10212 0.0
H1968 H 0.32441 0.20062 0.15499 0.0
H1969 H 0.35505 0.2109 0.16651 0.0
H1970 H 0.33099 0.1923 0.19415 0.0
H1971 H 0.33302 0.11258 0.21252 0.0
H1972 H 0.37648 0.1339 0.22446 0.0
H1973 H 0.38524 0.19508 0.16837 0.0
C1974 C 0.28792 0.14827 0.1443 0.0
C1975 C 0.2665 0.12663 0.15134 0.0
C1976 C 0.26768 0.10891 0.1706 0.0
C1977 C 0.28968 0.11243 0.18238 0.0
C1978 C 0.31045 0.13381 0.17482 0.0
C1979 C 0.30981 0.15152 0.15643 0.0
C1980 C 0.33481 0.17302 0.15242 0.0
C1981 C 0.34223 0.17723 0.11616 0.0
C1982 C 0.3364 0.19554 0.16795 0.0
C1983 C 0.34952 0.16461 0.17147 0.0
C1984 C 0.33511 0.14187 0.18402 0.0
C1985 C 0.34451 0.13039 0.20279 0.0
C1986 C 0.36924 0.14262 0.20937 0.0
C1987 C 0.38432 0.16612 0.19731 0.0
C1988 C 0.37425 0.17707 0.17781 0.0
H1989 H 0.80554 0.18687 0.17318 0.0
H1990 H 0.86393 0.23574 0.23622 0.0
H1991 H 0.88307 0.21093 0.22968 0.0
H1992 H 0.80194 0.13266 0.20178 0.0
H1993 H 0.79592 0.1186 0.16209 0.0
H1994 H 0.78688 0.14036 0.17096 0.0
H1995 H 0.81086 0.16568 0.12083 0.0
H1996 H 0.81968 0.14382 0.11154 0.0
H1997 H 0.84221 0.17486 0.11702 0.0
H1998 H 0.89523 0.18022 0.21786 0.0
H1999 H 0.90181 0.14799 0.19732 0.0
H2000 H 0.83586 0.11891 0.14116 0.0
C2001 C 0.82249 0.19251 0.18534 0.0
C2002 C 0.83326 0.21334 0.20521 0.0
C2003 C 0.85538 0.21998 0.22077 0.0
C2004 C 0.86632 0.20591 0.21735 0.0
C2005 C 0.85499 0.18525 0.19818 0.0
C2006 C 0.83372 0.1787 0.18208 0.0
C2007 C 0.82547 0.15578 0.16261 0.0
C2008 C 0.8011 0.13566 0.17512 0.0
C2009 C 0.8245 0.16032 0.12582 0.0
C2010 C 0.84541 0.15043 0.17032 0.0
C2011 C 0.86213 0.1676 0.19108 0.0
C2012 C 0.88227 0.16672 0.20154 0.0
C2013 C 0.88579 0.14824 0.18981 0.0
C2014 C 0.86933 0.1308 0.16768 0.0
C2015 C 0.84864 0.13177 0.1583 0.0
H2016 H 0.81885 0.6105 0.17089 0.0
H2017 H 0.77081 0.62028 0.23555 0.0
H2018 H 0.79427 0.6639 0.22656 0.0
H2019 H 0.87343 0.66381 0.19506 0.0
H2020 H 0.88594 0.67079 0.15437 0.0
H2021 H 0.86558 0.64009 0.16575 0.0
H2022 H 0.83798 0.63566 0.11693 0.0
H2023 H 0.85835 0.66626 0.10525 0.0
H2024 H 0.82718 0.65652 0.11264 0.0
H2025 H 0.82266 0.7061 0.21164 0.0
H2026 H 0.85291 0.74477 0.18845 0.0
H2027 H 0.88299 0.7088 0.13217 0.0
C2028 C 0.81324 0.62184 0.18305 0.0
C2029 C 0.79296 0.61192 0.20399 0.0
C2030 C 0.78621 0.62738 0.21939 0.0
C2031 C 0.79949 0.65223 0.21454 0.0
C2032 C 0.81947 0.66144 0.19411 0.0
C2033 C 0.82628 0.6468 0.17833 0.0
C2034 C 0.84828 0.66152 0.15709 0.0
C2035 C 0.86957 0.65889 0.16878 0.0
C2036 C 0.8426 0.65458 0.12083 0.0
C2037 C 0.85269 0.68667 0.16341 0.0
C2038 C 0.83589 0.68608 0.18505 0.0
C2039 C 0.8359 0.70681 0.19464 0.0
C2040 C 0.85323 0.72873 0.18131 0.0
C2041 C 0.87038 0.7299 0.15846 0.0
C2042 C 0.87025 0.70854 0.14974 0.0
H2043 H 0.17558 0.38826 0.2941 0.0
H2044 H 0.24672 0.42421 0.33751 0.0
H2045 H 0.23973 0.38584 0.36 0.0
H2046 H 0.1464 0.34693 0.36174 0.0
H2047 H 0.12672 0.32219 0.3358 0.0
H2048 H 0.13718 0.35255 0.32262 0.0
H2049 H 0.15392 0.34445 0.26945 0.0
H2050 H 0.14366 0.31412 0.28259 0.0
H2051 H 0.17478 0.33354 0.2722 0.0
H2052 H 0.22598 0.34394 0.37699 0.0
H2053 H 0.20486 0.30096 0.39097 0.0
H2054 H 0.14195 0.29117 0.33835 0.0
C2055 C 0.18961 0.38803 0.30845 0.0
C2056 C 0.21173 0.40934 0.31395 0.0
C2057 C 0.22961 0.40823 0.33292 0.0
C2058 C 0.22587 0.38647 0.34576 0.0
C2059 C 0.20407 0.36581 0.33968 0.0
C2060 C 0.1861 0.36632 0.32178 0.0
C2061 C 0.16419 0.34138 0.31958 0.0
C2062 C 0.14233 0.34073 0.33591 0.0
C2063 C 0.15883 0.33288 0.28383 0.0
C2064 C 0.17275 0.3269 0.33898 0.0
C2065 C 0.19589 0.34142 0.3501 0.0
C2066 C 0.20782 0.33237 0.36851 0.0
C2067 C 0.19567 0.30788 0.37625 0.0
C2068 C 0.17175 0.29263 0.36579 0.0
C2069 C 0.16025 0.30232 0.34664 0.0
H2070 H 0.62679 0.7887 0.3008 0.0
H2071 H 0.59396 0.8247 0.35058 0.0
H2072 H 0.63321 0.85416 0.3732 0.0
H2073 H 0.66974 0.79765 0.36599 0.0
H2074 H 0.69339 0.80262 0.33787 0.0
H2075 H 0.66248 0.78365 0.32621 0.0
H2076 H 0.6696 0.80976 0.2746 0.0
H2077 H 0.70047 0.82892 0.28625 0.0
H2078 H 0.68143 0.84159 0.2791 0.0
H2079 H 0.67594 0.88102 0.38835 0.0
H2080 H 0.71952 0.90221 0.39834 0.0
H2081 H 0.72567 0.84903 0.34028 0.0
C2082 C 0.62784 0.80261 0.31679 0.0
C2083 C 0.60718 0.80431 0.32388 0.0
C2084 C 0.60941 0.82292 0.34474 0.0
C2085 C 0.63169 0.83983 0.35771 0.0
C2086 C 0.65173 0.83794 0.34983 0.0
C2087 C 0.65008 0.81971 0.33016 0.0
C2088 C 0.67463 0.82208 0.32551 0.0
C2089 C 0.67508 0.8002 0.33975 0.0
C2090 C 0.68196 0.82581 0.2892 0.0
C2091 C 0.69024 0.84456 0.34541 0.0
C2092 C 0.67658 0.8534 0.35908 0.0
C2093 C 0.68682 0.87419 0.37797 0.0
C2094 C 0.71165 0.88617 0.3834 0.0
C2095 C 0.72609 0.87733 0.37017 0.0
C2096 C 0.71515 0.85624 0.3508 0.0
H2097 H 0.21454 0.833 0.29458 0.0
H2098 H 0.18052 0.76389 0.34363 0.0
H2099 H 0.14962 0.77188 0.36579 0.0
H2100 H 0.20407 0.86517 0.35942 0.0
H2101 H 0.19837 0.88361 0.33181 0.0
H2102 H 0.21791 0.87249 0.31951 0.0
H2103 H 0.19174 0.85331 0.26803 0.0
H2104 H 0.17202 0.86423 0.28031 0.0
H2105 H 0.16004 0.83269 0.27274 0.0
H2106 H 0.12191 0.78687 0.38238 0.0
H2107 H 0.10063 0.809 0.39459 0.0
H2108 H 0.1524 0.8687 0.33566 0.0
C2109 C 0.20064 0.81961 0.31007 0.0
C2110 C 0.20004 0.79779 0.3173 0.0
C2111 C 0.18148 0.78075 0.3377 0.0
C2112 C 0.16374 0.78508 0.35038 0.0
C2113 C 0.1647 0.8066 0.34261 0.0
C2114 C 0.18273 0.82369 0.32313 0.0
C2115 C 0.17967 0.84547 0.31902 0.0
C2116 C 0.20129 0.86802 0.3333 0.0
C2117 C 0.17562 0.84913 0.28287 0.0
C2118 C 0.15715 0.83791 0.33921 0.0
C2119 C 0.14876 0.81536 0.35246 0.0
C2120 C 0.12831 0.80456 0.37215 0.0
C2121 C 0.11629 0.81725 0.37888 0.0
C2122 C 0.12474 0.84057 0.36607 0.0
C2123 C 0.14537 0.85086 0.34573 0.0
H2124 H 0.72206 0.87487 0.84089 0.0
H2125 H 0.71358 0.81417 0.89803 0.0
H2126 H 0.67037 0.79242 0.88577 0.0
H2127 H 0.66647 0.87092 0.86444 0.0
H2128 H 0.66018 0.87858 0.82464 0.0
H2129 H 0.69078 0.88967 0.8372 0.0
H2130 H 0.69835 0.87094 0.78569 0.0
H2131 H 0.66784 0.85999 0.7728 0.0
H2132 H 0.679 0.83945 0.77743 0.0
H2133 H 0.62835 0.77764 0.86945 0.0
H2134 H 0.58968 0.76893 0.84606 0.0
H2135 H 0.62424 0.83843 0.79786 0.0
C2136 C 0.71113 0.85693 0.85057 0.0
C2137 C 0.72125 0.84623 0.87046 0.0
C2138 C 0.70631 0.82275 0.88272 0.0
C2139 C 0.6817 0.81025 0.87599 0.0
C2140 C 0.67222 0.8214 0.85682 0.0
C2141 C 0.6864 0.84407 0.84393 0.0
C2142 C 0.67146 0.85164 0.82373 0.0
C2143 C 0.67227 0.87403 0.83839 0.0
C2144 C 0.67965 0.85574 0.78777 0.0
C2145 C 0.64669 0.82968 0.82743 0.0
C2146 C 0.64767 0.81259 0.84683 0.0
C2147 C 0.62733 0.79081 0.8541 0.0
C2148 C 0.6054 0.78608 0.8407 0.0
C2149 C 0.60386 0.80297 0.82005 0.0
C2150 C 0.62481 0.82521 0.81364 0.0
H2151 H 0.16259 0.79086 0.79563 0.0
H2152 H 0.23023 0.82429 0.84835 0.0
H2153 H 0.2222 0.85561 0.86839 0.0
H2154 H 0.16463 0.84493 0.77062 0.0
H2155 H 0.13304 0.83392 0.77634 0.0
H2156 H 0.14343 0.81334 0.76665 0.0
H2157 H 0.12249 0.78836 0.81848 0.0
H2158 H 0.11174 0.80867 0.82806 0.0
H2159 H 0.12899 0.80298 0.85782 0.0
H2160 H 0.20809 0.88458 0.8808 0.0
H2161 H 0.18655 0.90694 0.88928 0.0
H2162 H 0.12768 0.85475 0.82972 0.0
C2163 C 0.17552 0.80457 0.81176 0.0
C2164 C 0.19706 0.80505 0.82036 0.0
C2165 C 0.21359 0.82345 0.84136 0.0
C2166 C 0.20926 0.84144 0.85283 0.0
C2167 C 0.18821 0.84082 0.84329 0.0
C2168 C 0.17142 0.82272 0.82363 0.0
C2169 C 0.15021 0.82633 0.81727 0.0
C2170 C 0.14769 0.82984 0.78053 0.0
C2171 C 0.12698 0.80534 0.83125 0.0
C2172 C 0.15782 0.8493 0.83626 0.0
C2173 C 0.17988 0.85743 0.8509 0.0
C2174 C 0.19073 0.87835 0.86959 0.0
C2175 C 0.17843 0.89102 0.87411 0.0
C2176 C 0.15546 0.88267 0.86016 0.0
C2177 C 0.14524 0.86167 0.84064 0.0
H2178 H 0.2189 0.38433 0.8012 0.0
H2179 H 0.18142 0.41662 0.84844 0.0
H2180 H 0.15143 0.3772 0.86996 0.0
H2181 H 0.16662 0.32954 0.77764 0.0
H2182 H 0.17923 0.31061 0.78601 0.0
H2183 H 0.19857 0.34152 0.77465 0.0
H2184 H 0.22344 0.34866 0.82753 0.0
H2185 H 0.20433 0.3177 0.83888 0.0
H2186 H 0.20846 0.34122 0.86666 0.0
H2187 H 0.12446 0.33463 0.88449 0.0
H2188 H 0.10352 0.29123 0.89519 0.0
H2189 H 0.15813 0.28528 0.84022 0.0
C2190 C 0.20453 0.38311 0.81637 0.0
C2191 C 0.20257 0.40366 0.82308 0.0
C2192 C 0.1834 0.40124 0.84291 0.0
C2193 C 0.16617 0.37887 0.85522 0.0
C2194 C 0.16832 0.35896 0.84772 0.0
C2195 C 0.1871 0.36077 0.82911 0.0
C2196 C 0.18499 0.33631 0.82495 0.0
C2197 C 0.18218 0.32907 0.78865 0.0
C2198 C 0.20659 0.33596 0.84043 0.0
C2199 C 0.16205 0.32056 0.84397 0.0
C2200 C 0.15275 0.3341 0.85668 0.0
C2201 C 0.13161 0.32383 0.87483 0.0
C2202 C 0.11979 0.29909 0.88068 0.0
C2203 C 0.12913 0.28477 0.8686 0.0
C2204 C 0.15049 0.29571 0.84975 0.0
H2205 H 0.83849 0.71735 0.63317 0.0
H2206 H 0.90454 0.75106 0.68949 0.0
H2207 H 0.89437 0.71188 0.71295 0.0
H2208 H 0.80174 0.67412 0.69566 0.0
H2209 H 0.78494 0.65037 0.66677 0.0
H2210 H 0.7971 0.68121 0.65457 0.0
H2211 H 0.81931 0.6746 0.60635 0.0
H2212 H 0.8073 0.64378 0.61849 0.0
H2213 H 0.83927 0.66315 0.61448 0.0
H2214 H 0.87782 0.66908 0.72967 0.0
H2215 H 0.85516 0.62542 0.73969 0.0
H2216 H 0.79952 0.61873 0.67319 0.0
C2217 C 0.85072 0.71648 0.65058 0.0
C2218 C 0.87234 0.73739 0.65944 0.0
C2219 C 0.88788 0.7354 0.68224 0.0
C2220 C 0.88228 0.71318 0.69574 0.0
C2221 C 0.86101 0.69293 0.68634 0.0
C2222 C 0.84539 0.69431 0.66441 0.0
C2223 C 0.82376 0.66964 0.65843 0.0
C2224 C 0.80051 0.66879 0.66952 0.0
C2225 C 0.82234 0.66237 0.62229 0.0
C2226 C 0.82976 0.65426 0.68034 0.0
C2227 C 0.85137 0.66811 0.69615 0.0
C2228 C 0.86084 0.65805 0.71749 0.0
C2229 C 0.84784 0.63319 0.72299 0.0
C2230 C 0.82555 0.61858 0.70729 0.0
C2231 C 0.8165 0.62937 0.68561 0.0
H2232 H 0.27404 0.14767 0.67381 0.0
H2233 H 0.28144 0.09 0.63076 0.0
H2234 H 0.32476 0.11239 0.64183 0.0
H2235 H 0.32823 0.19576 0.64302 0.0
H2236 H 0.33594 0.21413 0.67924 0.0
H2237 H 0.30495 0.19322 0.67013 0.0
H2238 H 0.2996 0.17315 0.72682 0.0
H2239 H 0.33049 0.19424 0.73633 0.0
H2240 H 0.31958 0.16247 0.73884 0.0
H2241 H 0.36716 0.14174 0.65238 0.0
H2242 H 0.40665 0.17461 0.66869 0.0
H2243 H 0.37341 0.21381 0.70782 0.0
C2244 C 0.28472 0.13956 0.66738 0.0
C2245 C 0.27424 0.117 0.65138 0.0
C2246 C 0.28892 0.10717 0.64303 0.0
C2247 C 0.31363 0.1198 0.64911 0.0
C2248 C 0.3235 0.14223 0.66388 0.0
C2249 C 0.30958 0.15194 0.67352 0.0
C2250 C 0.32512 0.17658 0.68878 0.0
C2251 C 0.32345 0.19607 0.66911 0.0
C2252 C 0.31829 0.17661 0.72483 0.0
C2253 C 0.34991 0.17924 0.68568 0.0
C2254 C 0.34837 0.15919 0.67098 0.0
C2255 C 0.36861 0.15742 0.66429 0.0
C2256 C 0.39104 0.17635 0.67355 0.0
C2257 C 0.39327 0.19687 0.68969 0.0
C2258 C 0.37235 0.19839 0.69557 0.0
H2259 H 0.8913 0.17619 0.63022 0.0
H2260 H 0.85725 0.10623 0.677 0.0
H2261 H 0.8259 0.11347 0.69925 0.0
H2262 H 0.87902 0.2071 0.69576 0.0
H2263 H 0.87339 0.22556 0.6681 0.0
H2264 H 0.89367 0.2152 0.65641 0.0
H2265 H 0.86871 0.19639 0.60387 0.0
H2266 H 0.84822 0.20649 0.61557 0.0
H2267 H 0.83707 0.17516 0.60733 0.0
H2268 H 0.79741 0.12746 0.7153 0.0
H2269 H 0.77497 0.14853 0.72668 0.0
H2270 H 0.82705 0.20953 0.66994 0.0
C2271 C 0.87739 0.16253 0.64544 0.0
C2272 C 0.87681 0.14064 0.65185 0.0
C2273 C 0.85816 0.12315 0.67169 0.0
C2274 C 0.84018 0.12706 0.68444 0.0
C2275 C 0.841 0.14858 0.67723 0.0
C2276 C 0.85919 0.16614 0.65844 0.0
C2277 C 0.85566 0.18762 0.65437 0.0
C2278 C 0.87668 0.2102 0.66958 0.0
C2279 C 0.85221 0.19164 0.61813 0.0
C2280 C 0.83267 0.17931 0.67373 0.0
C2281 C 0.82451 0.1567 0.68661 0.0
C2282 C 0.80364 0.14521 0.7054 0.0
C2283 C 0.79096 0.15729 0.71165 0.0
C2284 C 0.79916 0.18065 0.69918 0.0
C2285 C 0.82021 0.19164 0.67972 0.0
H2286 H 0.06119 0.5496 0.49616 0.0
H2287 H 0.05397 0.49139 0.55793 0.0
H2288 H 0.01066 0.46889 0.54676 0.0
H2289 H 0.00553 0.54591 0.51922 0.0
H2290 H 0.99856 0.55191 0.4788 0.0
H2291 H 0.02938 0.56375 0.49087 0.0
H2292 H 0.03644 0.54326 0.44094 0.0
H2293 H 0.00568 0.53149 0.4286 0.0
H2294 H 0.01727 0.51145 0.43495 0.0
H2295 H 0.96843 0.45311 0.53118 0.0
H2296 H 0.92916 0.44339 0.50903 0.0
H2297 H 0.96225 0.51079 0.45554 0.0
C2298 C 0.05049 0.53205 0.50712 0.0
C2299 C 0.06105 0.52229 0.52799 0.0
C2300 C 0.0464 0.49929 0.54188 0.0
C2301 C 0.02172 0.48634 0.53574 0.0
C2302 C 0.01183 0.49652 0.51548 0.0
C2303 C 0.02566 0.51872 0.50108 0.0
C2304 C 0.0102 0.52525 0.48014 0.0
C2305 C 0.01097 0.54806 0.49304 0.0
C2306 C 0.01785 0.52802 0.44401 0.0
C2307 C 0.98557 0.50328 0.48525 0.0
C2308 C 0.98709 0.48708 0.50589 0.0
C2309 C 0.96699 0.46558 0.51486 0.0
C2310 C 0.9447 0.46027 0.50214 0.0
C2311 C 0.94252 0.47628 0.48046 0.0
C2312 C 0.9633 0.49818 0.47203 0.0
H2313 H 0.50531 0.54573 0.53291 0.0
H2314 H 0.43749 0.51367 0.48056 0.0
H2315 H 0.44501 0.48249 0.45905 0.0
H2316 H 0.53828 0.53356 0.46876 0.0
H2317 H 0.55541 0.52704 0.49767 0.0
H2318 H 0.54536 0.54774 0.50841 0.0
H2319 H 0.52449 0.52242 0.55997 0.0
H2320 H 0.53422 0.50149 0.54919 0.0
H2321 H 0.50278 0.491 0.55555 0.0
H2322 H 0.45772 0.45323 0.44599 0.0
H2323 H 0.4774 0.42941 0.43686 0.0
H2324 H 0.53823 0.48002 0.49519 0.0
C2325 C 0.49227 0.53236 0.51651 0.0
C2326 C 0.47075 0.5322 0.50854 0.0
C2327 C 0.45407 0.51425 0.48717 0.0
C2328 C 0.45813 0.49635 0.47482 0.0
C2329 C 0.47908 0.49659 0.48373 0.0
C2330 C 0.49612 0.51425 0.50363 0.0
C2331 C 0.5171 0.50999 0.50913 0.0
C2332 C 0.54042 0.53082 0.49515 0.0
C2333 C 0.51979 0.50599 0.54563 0.0
C2334 C 0.50893 0.4871 0.48951 0.0
C2335 C 0.48685 0.47972 0.47533 0.0
C2336 C 0.47513 0.4589 0.45669 0.0
C2337 C 0.48645 0.44541 0.45179 0.0
C2338 C 0.5094 0.4528 0.46522 0.0
C2339 C 0.5207 0.47389 0.48458 0.0
H2340 H 0.52401 0.06554 0.50351 0.0
H2341 H 0.56857 0.05365 0.43478 0.0
H2342 H 0.54423 0.01022 0.4439 0.0
H2343 H 0.51621 0.01888 0.56058 0.0
H2344 H 0.48555 0.00999 0.57034 0.0
H2345 H 0.50615 0.04043 0.55817 0.0
H2346 H 0.47714 0.03683 0.51174 0.0
H2347 H 0.45655 0.00629 0.52358 0.0
H2348 H 0.4676 0.01301 0.48214 0.0
H2349 H 0.51554 0.96862 0.45895 0.0
H2350 H 0.48567 0.9303 0.48313 0.0
H2351 H 0.45915 0.96739 0.54406 0.0
C2352 C 0.52865 0.05377 0.49051 0.0
C2353 C 0.54823 0.06307 0.46834 0.0
C2354 C 0.55375 0.04706 0.45189 0.0
C2355 C 0.53994 0.02229 0.45677 0.0
C2356 C 0.52068 0.01368 0.47838 0.0
C2357 C 0.51509 0.0288 0.49534 0.0
C2358 C 0.49373 0.01451 0.51789 0.0
C2359 C 0.50084 0.02136 0.55388 0.0
C2360 C 0.4725 0.01787 0.50825 0.0
C2361 C 0.48834 0.98908 0.51088 0.0
C2362 C 0.50407 0.98921 0.48774 0.0
C2363 C 0.50313 0.96825 0.47715 0.0
C2364 C 0.48603 0.94652 0.49109 0.0
C2365 C 0.47004 0.94576 0.51556 0.0
C2366 C 0.47098 0.96736 0.52523 0.0
H2367 H 0.50348 0.04718 0.95665 0.0
H2368 H 0.57318 0.07798 0.00378 0.0
H2369 H 0.5628 0.03831 0.02531 0.0
H2370 H 0.47024 0.0053 0.02198 0.0
H2371 H 0.45028 0.98163 0.99481 0.0
H2372 H 0.46303 0.01251 0.98246 0.0
H2373 H 0.48014 0.00381 0.93015 0.0
H2374 H 0.46752 0.97293 0.94241 0.0
H2375 H 0.49917 0.99079 0.93388 0.0
H2376 H 0.54578 0.99585 0.0414 0.0
H2377 H 0.52205 0.95274 0.05358 0.0
H2378 H 0.46247 0.94804 0.99755 0.0
C2379 C 0.51651 0.04553 0.97154 0.0
C2380 C 0.5392 0.0658 0.97845 0.0
C2381 C 0.5557 0.06285 0.99811 0.0
C2382 C 0.55 0.04033 0.01044 0.0
C2383 C 0.52765 0.02076 0.0031 0.0
C2384 C 0.51104 0.02303 0.98432 0.0
C2385 C 0.48815 0.9989 0.98074 0.0
C2386 C 0.46666 0.99964 0.99591 0.0
C2387 C 0.48347 0.99115 0.94465 0.0
C2388 C 0.49461 0.98285 1.00043 0.0
C2389 C 0.51756 0.99594 0.01289 0.0
C2390 C 0.52776 0.98538 0.03184 0.0
C2391 C 0.51409 0.96081 0.03858 0.0
C2392 C 0.49036 0.9469 0.02657 0.0
C2393 C 0.48057 0.95813 0.00704 0.0
H2394 H 0.95869 0.4589 0.95825 0.0
H2395 H 0.92469 0.49412 0.00701 0.0
H2396 H 0.96393 0.52483 0.0285 0.0
H2397 H 1.00149 0.46917 0.02254 0.0
H2398 H 0.02534 0.4743 0.9947 0.0
H2399 H 0.99454 0.45505 0.98285 0.0
H2400 H 1.00156 0.48095 0.931 0.0
H2401 H 0.03235 0.50037 0.94282 0.0
H2402 H 0.01311 0.51275 0.93526 0.0
H2403 H 0.00685 0.55208 0.04457 0.0
H2404 H 0.05032 0.57282 0.05619 0.0
H2405 H 0.0569 0.5201 0.99769 0.0
C2406 C 0.9595 0.47303 0.97352 0.0
C2407 C 0.93852 0.47405 0.98089 0.0
C2408 C 0.94042 0.49287 1.00099 0.0
C2409 C 0.96268 0.51049 0.01329 0.0
C2410 C 0.98301 0.50911 0.0054 0.0
C2411 C 0.98166 0.49081 0.98616 0.0
C2412 C 0.0063 0.49341 0.98182 0.0
C2413 C 0.00695 0.47169 0.99635 0.0
C2414 C 0.01376 0.49709 0.94557 0.0
C2415 C 0.02162 0.51598 0.00162 0.0
C2416 C 0.00782 0.52479 0.01489 0.0
C2417 C 0.01785 0.54535 0.03431 0.0
C2418 C 0.0426 0.55706 0.04072 0.0
C2419 C 0.0571 0.54818 0.02783 0.0
C2420 C 0.04638 0.52745 0.00779 0.0
H2421 H 0.5222 0.46542 0.99486 0.0
H2422 H 0.56708 0.51928 0.92337 0.0
H2423 H 0.54421 0.54016 0.93202 0.0
H2424 H 0.46666 0.46315 0.97397 0.0
H2425 H 0.45626 0.46002 0.01564 0.0
H2426 H 0.47595 0.44891 0.00401 0.0
H2427 H 0.50602 0.47468 0.04925 0.0
H2428 H 0.48631 0.48567 0.06123 0.0
H2429 H 0.51703 0.50651 0.05044 0.0
H2430 H 0.51653 0.55487 0.94719 0.0
H2431 H 0.48776 0.56493 0.97151 0.0
H2432 H 0.46058 0.50238 0.03466 0.0
C2433 C 0.52727 0.48167 0.98114 0.0
C2434 C 0.54646 0.4907 0.95837 0.0
C2435 C 0.55253 0.51203 0.94097 0.0
C2436 C 0.53956 0.52397 0.9456 0.0
C2437 C 0.5206 0.51445 0.96784 0.0
C2438 C 0.51457 0.49396 0.98564 0.0
C2439 C 0.4937 0.488 0.0086 0.0
C2440 C 0.47185 0.46357 1.00003 0.0
C2441 C 0.50122 0.48877 0.04451 0.0
C2442 C 0.48901 0.5084 1.00091 0.0
C2443 C 0.50467 0.52326 0.9771 0.0
C2444 C 0.50421 0.54342 0.9659 0.0
C2445 C 0.48771 0.54894 0.9799 0.0
C2446 C 0.47185 0.53447 0.00504 0.0
C2447 C 0.47229 0.51368 0.01531 0.0
loop_
_geom_bond_atom_site_label_1
_geom_bond_atom_site_label_2
_geom_bond_distance
_geom_bond_site_symmetry_2
_ccdc_geom_bond_type
Co0 O1 2.216 . S
Co0 O2 2.091 . S
Co0 O4 2.004 . S
Co0 O10 2.021 . S
Co0 O12 2.137 . S
Co0 O13 2.244 . S
O1 Co0 2.216 . S
O1 C8 1.247 . S
O2 Co0 2.091 . S
O2 C8 1.261 . S
C3 O12 1.247 . S
C3 O13 1.272 . S
O4 Co0 2.004 . S
O4 C9 1.259 . S
Co5 O6 2.061 . S
Co5 O11 2.052 . S
Co5 O13 2.135 . S
O6 Co5 2.061 . S
O6 C9 1.235 . S
C7 O10 1.238 . S
C7 O11 1.241 . S
C8 O1 1.247 . S
C8 O2 1.261 . S
C9 O4 1.259 . S
C9 O6 1.235 . S
O10 Co0 2.021 . S
O10 C7 1.238 . S
O11 Co5 2.052 . S
O11 C7 1.241 . S
O12 Co0 2.137 . S
O12 C3 1.247 . S
O13 Co0 2.244 . S
O13 C3 1.272 . S
O13 Co5 2.135 . S
Co14 O15 2.216 . S
Co14 O16 2.091 . S
Co14 O18 2.004 . S
Co14 O24 2.021 . S
Co14 O26 2.137 . S
Co14 O27 2.244 . S
O15 Co14 2.216 . S
O15 C22 1.247 . S
O16 Co14 2.091 . S
O16 C22 1.261 . S
C17 O26 1.247 . S
C17 O27 1.272 . S
O18 Co14 2.004 . S
O18 C23 1.259 . S
Co19 O20 2.061 . S
Co19 O25 2.052 . S
Co19 O27 2.135 . S
O20 Co19 2.061 . S
O20 C23 1.235 . S
C21 O24 1.238 . S
C21 O25 1.241 . S
C22 O15 1.247 . S
C22 O16 1.261 . S
C23 O18 1.259 . S
C23 O20 1.235 . S
O24 Co14 2.021 . S
O24 C21 1.238 . S
O25 Co19 2.052 . S
O25 C21 1.241 . S
O26 Co14 2.137 . S
O26 C17 1.247 . S
O27 Co14 2.244 . S
O27 C17 1.272 . S
O27 Co19 2.135 . S
Co28 O29 2.216 . S
Co28 O30 2.091 . S
Co28 O32 2.004 . S
Co28 O38 2.021 . S
Co28 O40 2.137 . S
Co28 O41 2.244 . S
O29 Co28 2.216 . S
O29 C36 1.247 . S
O30 Co28 2.091 . S
O30 C36 1.261 . S
C31 O40 1.247 . S
C31 O41 1.272 . S
O32 Co28 2.004 . S
O32 C37 1.259 . S
Co33 O34 2.061 . S
Co33 O39 2.052 . S
Co33 O41 2.135 . S
O34 Co33 2.061 . S
O34 C37 1.235 . S
C35 O38 1.238 . S
C35 O39 1.241 . S
C36 O29 1.247 . S
C36 O30 1.261 . S
C37 O32 1.259 . S
C37 O34 1.235 . S
O38 Co28 2.021 . S
O38 C35 1.238 . S
O39 Co33 2.052 . S
O39 C35 1.241 . S
O40 Co28 2.137 . S
O40 C31 1.247 . S
O41 Co28 2.244 . S
O41 C31 1.272 . S
O41 Co33 2.135 . S
Co42 O43 2.216 . S
Co42 O44 2.091 . S
Co42 O46 2.004 . S
Co42 O52 2.021 . S
Co42 O54 2.137 . S
Co42 O55 2.244 . S
O43 Co42 2.216 . S
O43 C50 1.247 . S
O44 Co42 2.091 . S
O44 C50 1.261 . S
C45 O54 1.247 . S
C45 O55 1.272 . S
O46 Co42 2.004 . S
O46 C51 1.259 . S
Co47 O48 2.061 . S
Co47 O53 2.052 . S
Co47 O55 2.135 . S
O48 Co47 2.061 . S
O48 C51 1.235 . S
C49 O52 1.238 . S
C49 O53 1.241 . S
C50 O43 1.247 . S
C50 O44 1.261 . S
C51 O46 1.259 . S
C51 O48 1.235 . S
O52 Co42 2.021 . S
O52 C49 1.238 . S
O53 Co47 2.052 . S
O53 C49 1.241 . S
O54 Co42 2.137 . S
O54 C45 1.247 . S
O55 Co42 2.244 . S
O55 C45 1.272 . S
O55 Co47 2.135 . S
Co56 O57 2.216 . S
Co56 O58 2.091 . S
Co56 O60 2.004 . S
Co56 O66 2.021 . S
Co56 O68 2.137 . S
Co56 O69 2.244 . S
O57 Co56 2.216 . S
O57 C64 1.247 . S
O58 Co56 2.091 . S
O58 C64 1.261 . S
C59 O68 1.247 . S
C59 O69 1.272 . S
O60 Co56 2.004 . S
O60 C65 1.259 . S
Co61 O62 2.061 . S
Co61 O67 2.052 . S
Co61 O69 2.135 . S
O62 Co61 2.061 . S
O62 C65 1.235 . S
C63 O66 1.238 . S
C63 O67 1.241 . S
C64 O57 1.247 . S
C64 O58 1.261 . S
C65 O60 1.259 . S
C65 O62 1.235 . S
O66 Co56 2.021 . S
O66 C63 1.238 . S
O67 Co61 2.052 . S
O67 C63 1.241 . S
O68 Co56 2.137 . S
O68 C59 1.247 . S
O69 Co56 2.244 . S
O69 C59 1.272 . S
O69 Co61 2.135 . S
Co70 O71 2.216 . S
Co70 O72 2.091 . S
Co70 O74 2.004 . S
Co70 O80 2.021 . S
Co70 O82 2.137 . S
Co70 O83 2.244 . S
O71 Co70 2.216 . S
O71 C78 1.247 . S
O72 Co70 2.091 . S
O72 C78 1.261 . S
C73 O82 1.247 . S
C73 O83 1.272 . S
O74 Co70 2.004 . S
O74 C79 1.259 . S
Co75 O76 2.061 . S
Co75 O81 2.052 . S
Co75 O83 2.135 . S
O76 Co75 2.061 . S
O76 C79 1.235 . S
C77 O80 1.238 . S
C77 O81 1.241 . S
C78 O71 1.247 . S
C78 O72 1.261 . S
C79 O74 1.259 . S
C79 O76 1.235 . S
O80 Co70 2.021 . S
O80 C77 1.238 . S
O81 Co75 2.052 . S
O81 C77 1.241 . S
O82 Co70 2.137 . S
O82 C73 1.247 . S
O83 Co70 2.244 . S
O83 C73 1.272 . S
O83 Co75 2.135 . S
Co84 O85 2.216 . S
Co84 O86 2.091 . S
Co84 O88 2.004 . S
Co84 O94 2.021 . S
Co84 O96 2.137 . S
Co84 O97 2.244 . S
O85 Co84 2.216 . S
O85 C92 1.247 . S
O86 Co84 2.091 . S
O86 C92 1.261 . S
C87 O96 1.247 . S
C87 O97 1.272 . S
O88 Co84 2.004 . S
O88 C93 1.259 . S
Co89 O90 2.061 . S
Co89 O95 2.052 . S
Co89 O97 2.135 . S
O90 Co89 2.061 . S
O90 C93 1.235 . S
C91 O94 1.238 . S
C91 O95 1.241 . S
C92 O85 1.247 . S
C92 O86 1.261 . S
C93 O88 1.259 . S
C93 O90 1.235 . S
O94 Co84 2.021 . S
O94 C91 1.238 . S
O95 Co89 2.052 . S
O95 C91 1.241 . S
O96 Co84 2.137 . S
O96 C87 1.247 . S
O97 Co84 2.244 . S
O97 C87 1.272 . S
O97 Co89 2.135 . S
Co98 O99 2.216 . S
Co98 O100 2.091 . S
Co98 O102 2.004 . S
Co98 O108 2.021 . S
Co98 O110 2.137 . S
Co98 O111 2.244 . S
O99 Co98 2.216 . S
O99 C106 1.247 . S
O100 Co98 2.091 . S
O100 C106 1.261 . S
C101 O110 1.247 . S
C101 O111 1.272 . S
O102 Co98 2.004 . S
O102 C107 1.259 . S
Co103 O104 2.061 . S
Co103 O109 2.052 . S
Co103 O111 2.135 . S
O104 Co103 2.061 . S
O104 C107 1.235 . S
C105 O108 1.238 . S
C105 O109 1.241 . S
C106 O99 1.247 . S
C106 O100 1.261 . S
C107 O102 1.259 . S
C107 O104 1.235 . S
O108 Co98 2.021 . S
O108 C105 1.238 . S
O109 Co103 2.052 . S
O109 C105 1.241 . S
O110 Co98 2.137 . S
O110 C101 1.247 . S
O111 Co98 2.244 . S
O111 C101 1.272 . S
O111 Co103 2.135 . S
Co112 O113 2.216 . S
Co112 O114 2.091 . S
Co112 O116 2.004 . S
Co112 O122 2.021 . S
Co112 O124 2.137 . S
Co112 O125 2.244 . S
O113 Co112 2.216 . S
O113 C120 1.247 . S
O114 Co112 2.091 . S
O114 C120 1.261 . S
C115 O124 1.247 . S
C115 O125 1.272 . S
O116 Co112 2.004 . S
O116 C121 1.259 . S
Co117 O118 2.061 . S
Co117 O123 2.052 . S
Co117 O125 2.135 . S
O118 Co117 2.061 . S
O118 C121 1.235 . S
C119 O122 1.238 . S
C119 O123 1.241 . S
C120 O113 1.247 . S
C120 O114 1.261 . S
C121 O116 1.259 . S
C121 O118 1.235 . S
O122 Co112 2.021 . S
O122 C119 1.238 . S
O123 Co117 2.052 . S
O123 C119 1.241 . S
O124 Co112 2.137 . S
O124 C115 1.247 . S
O125 Co112 2.244 . S
O125 C115 1.272 . S
O125 Co117 2.135 . S
Co126 O127 2.216 . S
Co126 O128 2.091 . S
Co126 O130 2.004 . S
Co126 O136 2.021 . S
Co126 O138 2.137 . S
Co126 O139 2.244 . S
O127 Co126 2.216 . S
O127 C134 1.247 . S
O128 Co126 2.091 . S
O128 C134 1.261 . S
C129 O138 1.247 . S
C129 O139 1.272 . S
O130 Co126 2.004 . S
O130 C135 1.259 . S
Co131 O132 2.061 . S
Co131 O137 2.052 . S
Co131 O139 2.135 . S
O132 Co131 2.061 . S
O132 C135 1.235 . S
C133 O136 1.238 . S
C133 O137 1.241 . S
C134 O127 1.247 . S
C134 O128 1.261 . S
C135 O130 1.259 . S
C135 O132 1.235 . S
O136 Co126 2.021 . S
O136 C133 1.238 . S
O137 Co131 2.052 . S
O137 C133 1.241 . S
O138 Co126 2.137 . S
O138 C129 1.247 . S
O139 Co126 2.244 . S
O139 C129 1.272 . S
O139 Co131 2.135 . S
Co140 O141 2.216 . S
Co140 O142 2.091 . S
Co140 O144 2.004 . S
Co140 O150 2.021 . S
Co140 O152 2.137 . S
Co140 O153 2.244 . S
O141 Co140 2.216 . S
O141 C148 1.247 . S
O142 Co140 2.091 . S
O142 C148 1.261 . S
C143 O152 1.247 . S
C143 O153 1.272 . S
O144 Co140 2.004 . S
O144 C149 1.259 . S
Co145 O146 2.061 . S
Co145 O151 2.052 . S
Co145 O153 2.135 . S
O146 Co145 2.061 . S
O146 C149 1.235 . S
C147 O150 1.238 . S
C147 O151 1.241 . S
C148 O141 1.247 . S
C148 O142 1.261 . S
C149 O144 1.259 . S
C149 O146 1.235 . S
O150 Co140 2.021 . S
O150 C147 1.238 . S
O151 Co145 2.052 . S
O151 C147 1.241 . S
O152 Co140 2.137 . S
O152 C143 1.247 . S
O153 Co140 2.244 . S
O153 C143 1.272 . S
O153 Co145 2.135 . S
Co154 O155 2.216 . S
Co154 O156 2.091 . S
Co154 O158 2.004 . S
Co154 O164 2.021 . S
Co154 O166 2.137 . S
Co154 O167 2.244 . S
O155 Co154 2.216 . S
O155 C162 1.247 . S
O156 Co154 2.091 . S
O156 C162 1.261 . S
C157 O166 1.247 . S
C157 O167 1.272 . S
O158 Co154 2.004 . S
O158 C163 1.259 . S
Co159 O160 2.061 . S
Co159 O165 2.052 . S
Co159 O167 2.135 . S
O160 Co159 2.061 . S
O160 C163 1.235 . S
C161 O164 1.238 . S
C161 O165 1.241 . S
C162 O155 1.247 . S
C162 O156 1.261 . S
C163 O158 1.259 . S
C163 O160 1.235 . S
O164 Co154 2.021 . S
O164 C161 1.238 . S
O165 Co159 2.052 . S
O165 C161 1.241 . S
O166 Co154 2.137 . S
O166 C157 1.247 . S
O167 Co154 2.244 . S
O167 C157 1.272 . S
O167 Co159 2.135 . S
Co168 O169 2.216 . S
Co168 O170 2.091 . S
Co168 O172 2.004 . S
Co168 O178 2.021 . S
Co168 O180 2.137 . S
Co168 O181 2.244 . S
O169 Co168 2.216 . S
O169 C176 1.247 . S
O170 Co168 2.091 . S
O170 C176 1.261 . S
C171 O180 1.247 . S
C171 O181 1.272 . S
O172 Co168 2.004 . S
O172 C177 1.259 . S
Co173 O174 2.061 . S
Co173 O179 2.052 . S
Co173 O181 2.135 . S
O174 Co173 2.061 . S
O174 C177 1.235 . S
C175 O178 1.238 . S
C175 O179 1.241 . S
C176 O169 1.247 . S
C176 O170 1.261 . S
C177 O172 1.259 . S
C177 O174 1.235 . S
O178 Co168 2.021 . S
O178 C175 1.238 . S
O179 Co173 2.052 . S
O179 C175 1.241 . S
O180 Co168 2.137 . S
O180 C171 1.247 . S
O181 Co168 2.244 . S
O181 C171 1.272 . S
O181 Co173 2.135 . S
Co182 O183 2.216 . S
Co182 O184 2.091 . S
Co182 O186 2.004 . S
Co182 O192 2.021 . S
Co182 O194 2.137 . S
Co182 O195 2.244 . S
O183 Co182 2.216 . S
O183 C190 1.247 . S
O184 Co182 2.091 . S
O184 C190 1.261 . S
C185 O194 1.247 . S
C185 O195 1.272 . S
O186 Co182 2.004 . S
O186 C191 1.259 . S
Co187 O188 2.061 . S
Co187 O193 2.052 . S
Co187 O195 2.135 . S
O188 Co187 2.061 . S
O188 C191 1.235 . S
C189 O192 1.238 . S
C189 O193 1.241 . S
C190 O183 1.247 . S
C190 O184 1.261 . S
C191 O186 1.259 . S
C191 O188 1.235 . S
O192 Co182 2.021 . S
O192 C189 1.238 . S
O193 Co187 2.052 . S
O193 C189 1.241 . S
O194 Co182 2.137 . S
O194 C185 1.247 . S
O195 Co182 2.244 . S
O195 C185 1.272 . S
O195 Co187 2.135 . S
Co196 O197 2.216 . S
Co196 O198 2.091 . S
Co196 O200 2.004 . S
Co196 O206 2.021 . S
Co196 O208 2.137 . S
Co196 O209 2.244 . S
O197 Co196 2.216 . S
O197 C204 1.247 . S
O198 Co196 2.091 . S
O198 C204 1.261 . S
C199 O208 1.247 . S
C199 O209 1.272 . S
O200 Co196 2.004 . S
O200 C205 1.259 . S
Co201 O202 2.061 . S
Co201 O207 2.052 . S
Co201 O209 2.135 . S
O202 Co201 2.061 . S
O202 C205 1.235 . S
C203 O206 1.238 . S
C203 O207 1.241 . S
C204 O197 1.247 . S
C204 O198 1.261 . S
C205 O200 1.259 . S
C205 O202 1.235 . S
O206 Co196 2.021 . S
O206 C203 1.238 . S
O207 Co201 2.052 . S
O207 C203 1.241 . S
O208 Co196 2.137 . S
O208 C199 1.247 . S
O209 Co196 2.244 . S
O209 C199 1.272 . S
O209 Co201 2.135 . S
Co210 O211 2.216 . S
Co210 O212 2.091 . S
Co210 O214 2.004 . S
Co210 O220 2.021 . S
Co210 O222 2.137 . S
Co210 O223 2.244 . S
O211 Co210 2.216 . S
O211 C218 1.247 . S
O212 Co210 2.091 . S
O212 C218 1.261 . S
C213 O222 1.247 . S
C213 O223 1.272 . S
O214 Co210 2.004 . S
O214 C219 1.259 . S
Co215 O216 2.061 . S
Co215 O221 2.052 . S
Co215 O223 2.135 . S
O216 Co215 2.061 . S
O216 C219 1.235 . S
C217 O220 1.238 . S
C217 O221 1.241 . S
C218 O211 1.247 . S
C218 O212 1.261 . S
C219 O214 1.259 . S
C219 O216 1.235 . S
O220 Co210 2.021 . S
O220 C217 1.238 . S
O221 Co215 2.052 . S
O221 C217 1.241 . S
O222 Co210 2.137 . S
O222 C213 1.247 . S
O223 Co210 2.244 . S
O223 C213 1.272 . S
O223 Co215 2.135 . S
Co224 O225 2.216 . S
Co224 O226 2.091 . S
Co224 O228 2.004 . S
Co224 O234 2.021 . S
Co224 O236 2.137 . S
Co224 O237 2.244 . S
O225 Co224 2.216 . S
O225 C232 1.247 . S
O226 Co224 2.091 . S
O226 C232 1.261 . S
C227 O236 1.247 . S
C227 O237 1.272 . S
O228 Co224 2.004 . S
O228 C233 1.259 . S
Co229 O230 2.061 . S
Co229 O235 2.052 . S
Co229 O237 2.135 . S
O230 Co229 2.061 . S
O230 C233 1.235 . S
C231 O234 1.238 . S
C231 O235 1.241 . S
C232 O225 1.247 . S
C232 O226 1.261 . S
C233 O228 1.259 . S
C233 O230 1.235 . S
O234 Co224 2.021 . S
O234 C231 1.238 . S
O235 Co229 2.052 . S
O235 C231 1.241 . S
O236 Co224 2.137 . S
O236 C227 1.247 . S
O237 Co224 2.244 . S
O237 C227 1.272 . S
O237 Co229 2.135 . S
Co238 O239 2.216 . S
Co238 O240 2.091 . S
Co238 O242 2.004 . S
Co238 O248 2.021 . S
Co238 O250 2.137 . S
Co238 O251 2.244 . S
O239 Co238 2.216 . S
O239 C246 1.247 . S
O240 Co238 2.091 . S
O240 C246 1.261 . S
C241 O250 1.247 . S
C241 O251 1.272 . S
O242 Co238 2.004 . S
O242 C247 1.259 . S
Co243 O244 2.061 . S
Co243 O249 2.052 . S
Co243 O251 2.135 . S
O244 Co243 2.061 . S
O244 C247 1.235 . S
C245 O248 1.238 . S
C245 O249 1.241 . S
C246 O239 1.247 . S
C246 O240 1.261 . S
C247 O242 1.259 . S
C247 O244 1.235 . S
O248 Co238 2.021 . S
O248 C245 1.238 . S
O249 Co243 2.052 . S
O249 C245 1.241 . S
O250 Co238 2.137 . S
O250 C241 1.247 . S
O251 Co238 2.244 . S
O251 C241 1.272 . S
O251 Co243 2.135 . S
Co252 O253 2.216 . S
Co252 O254 2.091 . S
Co252 O256 2.004 . S
Co252 O262 2.021 . S
Co252 O264 2.137 . S
Co252 O265 2.244 . S
O253 Co252 2.216 . S
O253 C260 1.247 . S
O254 Co252 2.091 . S
O254 C260 1.261 . S
C255 O264 1.247 . S
C255 O265 1.272 . S
O256 Co252 2.004 . S
O256 C261 1.259 . S
Co257 O258 2.061 . S
Co257 O263 2.052 . S
Co257 O265 2.135 . S
O258 Co257 2.061 . S
O258 C261 1.235 . S
C259 O262 1.238 . S
C259 O263 1.241 . S
C260 O253 1.247 . S
C260 O254 1.261 . S
C261 O256 1.259 . S
C261 O258 1.235 . S
O262 Co252 2.021 . S
O262 C259 1.238 . S
O263 Co257 2.052 . S
O263 C259 1.241 . S
O264 Co252 2.137 . S
O264 C255 1.247 . S
O265 Co252 2.244 . S
O265 C255 1.272 . S
O265 Co257 2.135 . S
Co266 O267 2.216 . S
Co266 O268 2.091 . S
Co266 O270 2.004 . S
Co266 O276 2.021 . S
Co266 O278 2.137 . S
Co266 O279 2.244 . S
O267 Co266 2.216 . S
O267 C274 1.247 . S
O268 Co266 2.091 . S
O268 C274 1.261 . S
C269 O278 1.247 . S
C269 O279 1.272 . S
O270 Co266 2.004 . S
O270 C275 1.259 . S
Co271 O272 2.061 . S
Co271 O277 2.052 . S
Co271 O279 2.135 . S
O272 Co271 2.061 . S
O272 C275 1.235 . S
C273 O276 1.238 . S
C273 O277 1.241 . S
C274 O267 1.247 . S
C274 O268 1.261 . S
C275 O270 1.259 . S
C275 O272 1.235 . S
O276 Co266 2.021 . S
O276 C273 1.238 . S
O277 Co271 2.052 . S
O277 C273 1.241 . S
O278 Co266 2.137 . S
O278 C269 1.247 . S
O279 Co266 2.244 . S
O279 C269 1.272 . S
O279 Co271 2.135 . S
Co280 O281 2.216 . S
Co280 O282 2.091 . S
Co280 O284 2.004 . S
Co280 O290 2.021 . S
Co280 O292 2.137 . S
Co280 O293 2.244 . S
O281 Co280 2.216 . S
O281 C288 1.247 . S
O282 Co280 2.091 . S
O282 C288 1.261 . S
C283 O292 1.247 . S
C283 O293 1.272 . S
O284 Co280 2.004 . S
O284 C289 1.259 . S
Co285 O286 2.061 . S
Co285 O291 2.052 . S
Co285 O293 2.135 . S
O286 Co285 2.061 . S
O286 C289 1.235 . S
C287 O290 1.238 . S
C287 O291 1.241 . S
C288 O281 1.247 . S
C288 O282 1.261 . S
C289 O284 1.259 . S
C289 O286 1.235 . S
O290 Co280 2.021 . S
O290 C287 1.238 . S
O291 Co285 2.052 . S
O291 C287 1.241 . S
O292 Co280 2.137 . S
O292 C283 1.247 . S
O293 Co280 2.244 . S
O293 C283 1.272 . S
O293 Co285 2.135 . S
Co294 O295 2.216 . S
Co294 O296 2.091 . S
Co294 O298 2.004 . S
Co294 O304 2.021 . S
Co294 O306 2.137 . S
Co294 O307 2.244 . S
O295 Co294 2.216 . S
O295 C302 1.247 . S
O296 Co294 2.091 . S
O296 C302 1.261 . S
C297 O306 1.247 . S
C297 O307 1.272 . S
O298 Co294 2.004 . S
O298 C303 1.259 . S
Co299 O300 2.061 . S
Co299 O305 2.052 . S
Co299 O307 2.135 . S
O300 Co299 2.061 . S
O300 C303 1.235 . S
C301 O304 1.238 . S
C301 O305 1.241 . S
C302 O295 1.247 . S
C302 O296 1.261 . S
C303 O298 1.259 . S
C303 O300 1.235 . S
O304 Co294 2.021 . S
O304 C301 1.238 . S
O305 Co299 2.052 . S
O305 C301 1.241 . S
O306 Co294 2.137 . S
O306 C297 1.247 . S
O307 Co294 2.244 . S
O307 C297 1.272 . S
O307 Co299 2.135 . S
Co308 O309 2.216 . S
Co308 O310 2.091 . S
Co308 O312 2.004 . S
Co308 O318 2.021 . S
Co308 O320 2.137 . S
Co308 O321 2.244 . S
O309 Co308 2.216 . S
O309 C316 1.247 . S
O310 Co308 2.091 . S
O310 C316 1.261 . S
C311 O320 1.247 . S
C311 O321 1.272 . S
O312 Co308 2.004 . S
O312 C317 1.259 . S
Co313 O314 2.061 . S
Co313 O319 2.052 . S
Co313 O321 2.135 . S
O314 Co313 2.061 . S
O314 C317 1.235 . S
C315 O318 1.238 . S
C315 O319 1.241 . S
C316 O309 1.247 . S
C316 O310 1.261 . S
C317 O312 1.259 . S
C317 O314 1.235 . S
O318 Co308 2.021 . S
O318 C315 1.238 . S
O319 Co313 2.052 . S
O319 C315 1.241 . S
O320 Co308 2.137 . S
O320 C311 1.247 . S
O321 Co308 2.244 . S
O321 C311 1.272 . S
O321 Co313 2.135 . S
Co322 O323 2.216 . S
Co322 O324 2.091 . S
Co322 O326 2.004 . S
Co322 O332 2.021 . S
Co322 O334 2.137 . S
Co322 O335 2.244 . S
O323 Co322 2.216 . S
O323 C330 1.247 . S
O324 Co322 2.091 . S
O324 C330 1.261 . S
C325 O334 1.247 . S
C325 O335 1.272 . S
O326 Co322 2.004 . S
O326 C331 1.259 . S
Co327 O328 2.061 . S
Co327 O333 2.052 . S
Co327 O335 2.135 . S
O328 Co327 2.061 . S
O328 C331 1.235 . S
C329 O332 1.238 . S
C329 O333 1.241 . S
C330 O323 1.247 . S
C330 O324 1.261 . S
C331 O326 1.259 . S
C331 O328 1.235 . S
O332 Co322 2.021 . S
O332 C329 1.238 . S
O333 Co327 2.052 . S
O333 C329 1.241 . S
O334 Co322 2.137 . S
O334 C325 1.247 . S
O335 Co322 2.244 . S
O335 C325 1.272 . S
O335 Co327 2.135 . S
Co336 O337 2.216 . S
Co336 O338 2.091 . S
Co336 O340 2.004 . S
Co336 O346 2.021 . S
Co336 O348 2.137 . S
Co336 O349 2.244 . S
O337 Co336 2.216 . S
O337 C344 1.247 . S
O338 Co336 2.091 . S
O338 C344 1.261 . S
C339 O348 1.247 . S
C339 O349 1.272 . S
O340 Co336 2.004 . S
O340 C345 1.259 . S
Co341 O342 2.061 . S
Co341 O347 2.052 . S
Co341 O349 2.135 . S
O342 Co341 2.061 . S
O342 C345 1.235 . S
C343 O346 1.238 . S
C343 O347 1.241 . S
C344 O337 1.247 . S
C344 O338 1.261 . S
C345 O340 1.259 . S
C345 O342 1.235 . S
O346 Co336 2.021 . S
O346 C343 1.238 . S
O347 Co341 2.052 . S
O347 C343 1.241 . S
O348 Co336 2.137 . S
O348 C339 1.247 . S
O349 Co336 2.244 . S
O349 C339 1.272 . S
O349 Co341 2.135 . S
Co350 O351 2.216 . S
Co350 O352 2.091 . S
Co350 O354 2.004 . S
Co350 O360 2.021 . S
Co350 O362 2.137 . S
Co350 O363 2.244 . S
O351 Co350 2.216 . S
O351 C358 1.247 . S
O352 Co350 2.091 . S
O352 C358 1.261 . S
C353 O362 1.247 . S
C353 O363 1.272 . S
O354 Co350 2.004 . S
O354 C359 1.259 . S
Co355 O356 2.061 . S
Co355 O361 2.052 . S
Co355 O363 2.135 . S
O356 Co355 2.061 . S
O356 C359 1.235 . S
C357 O360 1.238 . S
C357 O361 1.241 . S
C358 O351 1.247 . S
C358 O352 1.261 . S
C359 O354 1.259 . S
C359 O356 1.235 . S
O360 Co350 2.021 . S
O360 C357 1.238 . S
O361 Co355 2.052 . S
O361 C357 1.241 . S
O362 Co350 2.137 . S
O362 C353 1.247 . S
O363 Co350 2.244 . S
O363 C353 1.272 . S
O363 Co355 2.135 . S
Co364 O365 2.216 . S
Co364 O366 2.091 . S
Co364 O368 2.004 . S
Co364 O374 2.021 . S
Co364 O376 2.137 . S
Co364 O377 2.244 . S
O365 Co364 2.216 . S
O365 C372 1.247 . S
O366 Co364 2.091 . S
O366 C372 1.261 . S
C367 O376 1.247 . S
C367 O377 1.272 . S
O368 Co364 2.004 . S
O368 C373 1.259 . S
Co369 O370 2.061 . S
Co369 O375 2.052 . S
Co369 O377 2.135 . S
O370 Co369 2.061 . S
O370 C373 1.235 . S
C371 O374 1.238 . S
C371 O375 1.241 . S
C372 O365 1.247 . S
C372 O366 1.261 . S
C373 O368 1.259 . S
C373 O370 1.235 . S
O374 Co364 2.021 . S
O374 C371 1.238 . S
O375 Co369 2.052 . S
O375 C371 1.241 . S
O376 Co364 2.137 . S
O376 C367 1.247 . S
O377 Co364 2.244 . S
O377 C367 1.272 . S
O377 Co369 2.135 . S
Co378 O379 2.216 . S
Co378 O380 2.091 . S
Co378 O382 2.004 . S
Co378 O388 2.021 . S
Co378 O390 2.137 . S
Co378 O391 2.244 . S
O379 Co378 2.216 . S
O379 C386 1.247 . S
O380 Co378 2.091 . S
O380 C386 1.261 . S
C381 O390 1.247 . S
C381 O391 1.272 . S
O382 Co378 2.004 . S
O382 C387 1.259 . S
Co383 O384 2.061 . S
Co383 O389 2.052 . S
Co383 O391 2.135 . S
O384 Co383 2.061 . S
O384 C387 1.235 . S
C385 O388 1.238 . S
C385 O389 1.241 . S
C386 O379 1.247 . S
C386 O380 1.261 . S
C387 O382 1.259 . S
C387 O384 1.235 . S
O388 Co378 2.021 . S
O388 C385 1.238 . S
O389 Co383 2.052 . S
O389 C385 1.241 . S
O390 Co378 2.137 . S
O390 C381 1.247 . S
O391 Co378 2.244 . S
O391 C381 1.272 . S
O391 Co383 2.135 . S
Co392 O393 2.216 . S
Co392 O394 2.091 . S
Co392 O396 2.004 . S
Co392 O402 2.021 . S
Co392 O404 2.137 . S
Co392 O405 2.244 . S
O393 Co392 2.216 . S
O393 C400 1.247 . S
O394 Co392 2.091 . S
O394 C400 1.261 . S
C395 O404 1.247 . S
C395 O405 1.272 . S
O396 Co392 2.004 . S
O396 C401 1.259 . S
Co397 O398 2.061 . S
Co397 O403 2.052 . S
Co397 O405 2.135 . S
O398 Co397 2.061 . S
O398 C401 1.235 . S
C399 O402 1.238 . S
C399 O403 1.241 . S
C400 O393 1.247 . S
C400 O394 1.261 . S
C401 O396 1.259 . S
C401 O398 1.235 . S
O402 Co392 2.021 . S
O402 C399 1.238 . S
O403 Co397 2.052 . S
O403 C399 1.241 . S
O404 Co392 2.137 . S
O404 C395 1.247 . S
O405 Co392 2.244 . S
O405 C395 1.272 . S
O405 Co397 2.135 . S
Co406 O407 2.216 . S
Co406 O408 2.091 . S
Co406 O410 2.004 . S
Co406 O416 2.021 . S
Co406 O418 2.137 . S
Co406 O419 2.244 . S
O407 Co406 2.216 . S
O407 C414 1.247 . S
O408 Co406 2.091 . S
O408 C414 1.261 . S
C409 O418 1.247 . S
C409 O419 1.272 . S
O410 Co406 2.004 . S
O410 C415 1.259 . S
Co411 O412 2.061 . S
Co411 O417 2.052 . S
Co411 O419 2.135 . S
O412 Co411 2.061 . S
O412 C415 1.235 . S
C413 O416 1.238 . S
C413 O417 1.241 . S
C414 O407 1.247 . S
C414 O408 1.261 . S
C415 O410 1.259 . S
C415 O412 1.235 . S
O416 Co406 2.021 . S
O416 C413 1.238 . S
O417 Co411 2.052 . S
O417 C413 1.241 . S
O418 Co406 2.137 . S
O418 C409 1.247 . S
O419 Co406 2.244 . S
O419 C409 1.272 . S
O419 Co411 2.135 . S
Co420 O421 2.216 . S
Co420 O422 2.091 . S
Co420 O424 2.004 . S
Co420 O430 2.021 . S
Co420 O432 2.137 . S
Co420 O433 2.244 . S
O421 Co420 2.216 . S
O421 C428 1.247 . S
O422 Co420 2.091 . S
O422 C428 1.261 . S
C423 O432 1.247 . S
C423 O433 1.272 . S
O424 Co420 2.004 . S
O424 C429 1.259 . S
Co425 O426 2.061 . S
Co425 O431 2.052 . S
Co425 O433 2.135 . S
O426 Co425 2.061 . S
O426 C429 1.235 . S
C427 O430 1.238 . S
C427 O431 1.241 . S
C428 O421 1.247 . S
C428 O422 1.261 . S
C429 O424 1.259 . S
C429 O426 1.235 . S
O430 Co420 2.021 . S
O430 C427 1.238 . S
O431 Co425 2.052 . S
O431 C427 1.241 . S
O432 Co420 2.137 . S
O432 C423 1.247 . S
O433 Co420 2.244 . S
O433 C423 1.272 . S
O433 Co425 2.135 . S
Co434 O435 2.216 . S
Co434 O436 2.091 . S
Co434 O438 2.004 . S
Co434 O444 2.021 . S
Co434 O446 2.137 . S
Co434 O447 2.244 . S
O435 Co434 2.216 . S
O435 C442 1.247 . S
O436 Co434 2.091 . S
O436 C442 1.261 . S
C437 O446 1.247 . S
C437 O447 1.272 . S
O438 Co434 2.004 . S
O438 C443 1.259 . S
Co439 O440 2.061 . S
Co439 O445 2.052 . S
Co439 O447 2.135 . S
O440 Co439 2.061 . S
O440 C443 1.235 . S
C441 O444 1.238 . S
C441 O445 1.241 . S
C442 O435 1.247 . S
C442 O436 1.261 . S
C443 O438 1.259 . S
C443 O440 1.235 . S
O444 Co434 2.021 . S
O444 C441 1.238 . S
O445 Co439 2.052 . S
O445 C441 1.241 . S
O446 Co434 2.137 . S
O446 C437 1.247 . S
O447 Co434 2.244 . S
O447 C437 1.272 . S
O447 Co439 2.135 . S
Co448 O449 2.216 . S
Co448 O450 2.091 . S
Co448 O452 2.004 . S
Co448 O458 2.021 . S
Co448 O460 2.137 . S
Co448 O461 2.244 . S
O449 Co448 2.216 . S
O449 C456 1.247 . S
O450 Co448 2.091 . S
O450 C456 1.261 . S
C451 O460 1.247 . S
C451 O461 1.272 . S
O452 Co448 2.004 . S
O452 C457 1.259 . S
Co453 O454 2.061 . S
Co453 O459 2.052 . S
Co453 O461 2.135 . S
O454 Co453 2.061 . S
O454 C457 1.235 . S
C455 O458 1.238 . S
C455 O459 1.241 . S
C456 O449 1.247 . S
C456 O450 1.261 . S
C457 O452 1.259 . S
C457 O454 1.235 . S
O458 Co448 2.021 . S
O458 C455 1.238 . S
O459 Co453 2.052 . S
O459 C455 1.241 . S
O460 Co448 2.137 . S
O460 C451 1.247 . S
O461 Co448 2.244 . S
O461 C451 1.272 . S
O461 Co453 2.135 . S
Co462 O463 2.216 . S
Co462 O464 2.091 . S
Co462 O466 2.004 . S
Co462 O472 2.021 . S
Co462 O474 2.137 . S
Co462 O475 2.244 . S
O463 Co462 2.216 . S
O463 C470 1.247 . S
O464 Co462 2.091 . S
O464 C470 1.261 . S
C465 O474 1.247 . S
C465 O475 1.272 . S
O466 Co462 2.004 . S
O466 C471 1.259 . S
Co467 O468 2.061 . S
Co467 O473 2.052 . S
Co467 O475 2.135 . S
O468 Co467 2.061 . S
O468 C471 1.235 . S
C469 O472 1.238 . S
C469 O473 1.241 . S
C470 O463 1.247 . S
C470 O464 1.261 . S
C471 O466 1.259 . S
C471 O468 1.235 . S
O472 Co462 2.021 . S
O472 C469 1.238 . S
O473 Co467 2.052 . S
O473 C469 1.241 . S
O474 Co462 2.137 . S
O474 C465 1.247 . S
O475 Co462 2.244 . S
O475 C465 1.272 . S
O475 Co467 2.135 . S
Co476 O477 2.216 . S
Co476 O478 2.091 . S
Co476 O480 2.004 . S
Co476 O486 2.021 . S
Co476 O488 2.137 . S
Co476 O489 2.244 . S
O477 Co476 2.216 . S
O477 C484 1.247 . S
O478 Co476 2.091 . S
O478 C484 1.261 . S
C479 O488 1.247 . S
C479 O489 1.272 . S
O480 Co476 2.004 . S
O480 C485 1.259 . S
Co481 O482 2.061 . S
Co481 O487 2.052 . S
Co481 O489 2.135 . S
O482 Co481 2.061 . S
O482 C485 1.235 . S
C483 O486 1.238 . S
C483 O487 1.241 . S
C484 O477 1.247 . S
C484 O478 1.261 . S
C485 O480 1.259 . S
C485 O482 1.235 . S
O486 Co476 2.021 . S
O486 C483 1.238 . S
O487 Co481 2.052 . S
O487 C483 1.241 . S
O488 Co476 2.137 . S
O488 C479 1.247 . S
O489 Co476 2.244 . S
O489 C479 1.272 . S
O489 Co481 2.135 . S
Co490 O491 2.216 . S
Co490 O492 2.091 . S
Co490 O494 2.004 . S
Co490 O500 2.021 . S
Co490 O502 2.137 . S
Co490 O503 2.244 . S
O491 Co490 2.216 . S
O491 C498 1.247 . S
O492 Co490 2.091 . S
O492 C498 1.261 . S
C493 O502 1.247 . S
C493 O503 1.272 . S
O494 Co490 2.004 . S
O494 C499 1.259 . S
Co495 O496 2.061 . S
Co495 O501 2.052 . S
Co495 O503 2.135 . S
O496 Co495 2.061 . S
O496 C499 1.235 . S
C497 O500 1.238 . S
C497 O501 1.241 . S
C498 O491 1.247 . S
C498 O492 1.261 . S
C499 O494 1.259 . S
C499 O496 1.235 . S
O500 Co490 2.021 . S
O500 C497 1.238 . S
O501 Co495 2.052 . S
O501 C497 1.241 . S
O502 Co490 2.137 . S
O502 C493 1.247 . S
O503 Co490 2.244 . S
O503 C493 1.272 . S
O503 Co495 2.135 . S
H504 C516 0.930 . S
H505 C518 0.930 . S
H506 C519 0.930 . S
H507 C523 0.959 . S
H508 C523 0.959 . S
H509 C523 0.961 . S
H510 C524 0.960 . S
H511 C524 0.961 . S
H512 C524 0.959 . S
H513 C527 0.929 1_554 S
H514 C528 0.931 . S
H515 C530 0.930 . S
C516 H504 0.930 . S
C516 C517 1.399 . S
C516 C521 1.399 . S
C517 C516 1.399 . S
C517 C518 1.376 . S
C518 H505 0.930 . S
C518 C517 1.376 . S
C518 C519 1.388 . S
C519 H506 0.930 . S
C519 C518 1.388 . S
C519 C520 1.390 . S
C520 C519 1.390 . S
C520 C521 1.394 . S
C520 C526 1.465 . S
C521 C516 1.399 . S
C521 C520 1.394 . S
C521 C522 1.523 . S
C522 C521 1.523 . S
C522 C523 1.493 1_554 S
C522 C524 1.568 . S
C522 C525 1.522 1_554 S
C523 H507 0.959 . S
C523 H508 0.959 . S
C523 H509 0.961 . S
C523 C522 1.493 1_556 S
C524 H510 0.960 . S
C524 H511 0.961 . S
C524 H512 0.959 . S
C524 C522 1.568 . S
C525 C522 1.522 1_556 S
C525 C526 1.396 1_556 S
C525 C530 1.390 . S
C526 C520 1.465 . S
C526 C525 1.396 1_554 S
C526 C527 1.399 1_544 S
C527 H513 0.929 1_556 S
C527 C526 1.399 1_566 S
C527 C528 1.385 . S
C528 H514 0.931 . S
C528 C527 1.385 . S
C528 C529 1.389 . S
C529 C528 1.389 . S
C529 C530 1.387 1_565 S
C530 H515 0.930 . S
C530 C525 1.390 . S
C530 C529 1.387 1_545 S
H531 C543 0.930 . S
H532 C545 0.930 . S
H533 C546 0.930 1_556 S
H534 C550 0.992 . S
H535 C550 0.905 1_455 S
H536 C550 0.967 . S
H537 C551 0.960 . S
H538 C551 0.961 1_455 S
H539 C551 0.959 . S
H540 C554 0.929 . S
H541 C555 0.931 . S
H542 C557 0.930 . S
C543 H531 0.930 . S
C543 C544 1.399 . S
C543 C548 1.399 . S
C544 C543 1.399 . S
C544 C545 1.376 . S
C545 H532 0.930 . S
C545 C544 1.376 . S
C545 C546 1.388 . S
C546 H533 0.930 1_554 S
C546 C545 1.388 . S
C546 C547 1.390 . S
C547 C546 1.390 . S
C547 C548 1.394 . S
C547 C553 1.465 1_554 S
C548 C543 1.399 . S
C548 C547 1.394 . S
C548 C549 1.516 . S
C549 C548 1.516 . S
C549 C550 1.523 . S
C549 C551 1.561 . S
C549 C552 1.501 1_554 S
C550 H534 0.992 . S
C550 H535 0.905 1_655 S
C550 H536 0.967 . S
C550 C549 1.523 . S
C551 H537 0.960 . S
C551 H538 0.961 1_655 S
C551 H539 0.959 . S
C551 C549 1.561 . S
C552 C549 1.501 1_556 S
C552 C553 1.408 . S
C552 C557 1.403 1_655 S
C553 C547 1.465 1_556 S
C553 C552 1.408 . S
C553 C554 1.399 . S
C554 H540 0.929 . S
C554 C553 1.399 . S
C554 C555 1.385 . S
C555 H541 0.931 . S
C555 C554 1.385 . S
C555 C556 1.389 1_655 S
C556 C555 1.389 1_455 S
C556 C557 1.387 . S
C557 H542 0.930 . S
C557 C552 1.403 1_455 S
C557 C556 1.387 . S
H558 C570 0.930 . S
H559 C572 0.930 . S
H560 C573 0.930 . S
H561 C577 0.959 . S
H562 C577 0.959 . S
H563 C577 0.961 . S
H564 C578 0.960 . S
H565 C578 0.961 . S
H566 C578 0.959 . S
H567 C581 0.929 . S
H568 C582 0.931 . S
H569 C584 0.930 . S
C570 H558 0.930 . S
C570 C571 1.399 . S
C570 C575 1.399 . S
C571 C570 1.399 . S
C571 C572 1.376 . S
C572 H559 0.930 . S
C572 C571 1.376 . S
C572 C573 1.388 . S
C573 H560 0.930 . S
C573 C572 1.388 . S
C573 C574 1.390 1_556 S
C574 C573 1.390 1_554 S
C574 C575 1.394 1_554 S
C574 C580 1.465 . S
C575 C570 1.399 . S
C575 C574 1.394 1_556 S
C575 C576 1.516 1_556 S
C576 C575 1.516 1_554 S
C576 C577 1.502 1_554 S
C576 C578 1.561 . S
C576 C579 1.526 . S
C577 H561 0.959 . S
C577 H562 0.959 . S
C577 H563 0.961 . S
C577 C576 1.502 1_556 S
C578 H564 0.960 . S
C578 H565 0.961 . S
C578 H566 0.959 . S
C578 C576 1.561 . S
C579 C576 1.526 . S
C579 C580 1.396 . S
C579 C584 1.390 . S
C580 C574 1.465 . S
C580 C579 1.396 . S
C580 C581 1.399 . S
C581 H567 0.929 . S
C581 C580 1.399 . S
C581 C582 1.385 . S
C582 H568 0.931 . S
C582 C581 1.385 . S
C582 C583 1.389 . S
C583 C582 1.389 . S
C583 C584 1.387 . S
C584 H569 0.930 . S
C584 C579 1.390 . S
C584 C583 1.387 . S
H585 C597 0.930 . S
H586 C599 0.930 . S
H587 C600 0.930 . S
H588 C604 0.959 . S
H589 C604 0.959 . S
H590 C604 0.961 . S
H591 C605 0.960 1_655 S
H592 C605 0.961 . S
H593 C605 0.959 . S
H594 C608 0.929 . S
H595 C609 0.931 . S
H596 C611 0.930 . S
C597 H585 0.930 . S
C597 C598 1.399 . S
C597 C602 1.399 1_655 S
C598 C597 1.399 . S
C598 C599 1.376 . S
C599 H586 0.930 . S
C599 C598 1.376 . S
C599 C600 1.388 1_655 S
C600 H587 0.930 . S
C600 C599 1.388 1_455 S
C600 C601 1.390 . S
C601 C600 1.390 . S
C601 C602 1.394 . S
C601 C607 1.465 . S
C602 C597 1.399 1_455 S
C602 C601 1.394 . S
C602 C603 1.516 . S
C603 C602 1.516 . S
C603 C604 1.502 . S
C603 C605 1.561 . S
C603 C606 1.526 . S
C604 H588 0.959 . S
C604 H589 0.959 . S
C604 H590 0.961 . S
C604 C603 1.502 . S
C605 H591 0.960 1_455 S
C605 H592 0.961 . S
C605 H593 0.959 . S
C605 C603 1.561 . S
C606 C603 1.526 . S
C606 C607 1.396 . S
C606 C611 1.390 . S
C607 C601 1.465 . S
C607 C606 1.396 . S
C607 C608 1.399 . S
C608 H594 0.929 . S
C608 C607 1.399 . S
C608 C609 1.385 . S
C609 H595 0.931 . S
C609 C608 1.385 . S
C609 C610 1.389 . S
C610 C609 1.389 . S
C610 C611 1.387 . S
C611 H596 0.930 . S
C611 C606 1.390 . S
C611 C610 1.387 . S
H612 C624 0.930 . S
H613 C626 0.930 . S
H614 C627 0.930 . S
H615 C631 0.959 . S
H616 C631 0.959 . S
H617 C631 0.961 . S
H618 C632 0.960 . S
H619 C632 0.961 . S
H620 C632 0.959 . S
H621 C635 0.929 . S
H622 C636 0.931 . S
H623 C638 0.930 . S
C624 H612 0.930 . S
C624 C625 1.399 . S
C624 C629 1.399 . S
C625 C624 1.399 . S
C625 C626 1.376 . S
C626 H613 0.930 . S
C626 C625 1.376 . S
C626 C627 1.388 . S
C627 H614 0.930 . S
C627 C626 1.388 . S
C627 C628 1.390 . S
C628 C627 1.390 . S
C628 C629 1.394 . S
C628 C634 1.465 . S
C629 C624 1.399 . S
C629 C628 1.394 . S
C629 C630 1.516 . S
C630 C629 1.516 . S
C630 C631 1.502 . S
C630 C632 1.561 . S
C630 C633 1.526 . S
C631 H615 0.959 . S
C631 H616 0.959 . S
C631 H617 0.961 . S
C631 C630 1.502 . S
C632 H618 0.960 . S
C632 H619 0.961 . S
C632 H620 0.959 . S
C632 C630 1.561 . S
C633 C630 1.526 . S
C633 C634 1.396 . S
C633 C638 1.390 . S
C634 C628 1.465 . S
C634 C633 1.396 . S
C634 C635 1.399 . S
C635 H621 0.929 . S
C635 C634 1.399 . S
C635 C636 1.385 . S
C636 H622 0.931 . S
C636 C635 1.385 . S
C636 C637 1.389 . S
C637 C636 1.389 . S
C637 C638 1.387 . S
C638 H623 0.930 . S
C638 C633 1.390 . S
C638 C637 1.387 . S
H639 C651 0.930 . S
H640 C653 0.930 . S
H641 C654 0.930 . S
H642 C658 0.959 . S
H643 C658 0.959 . S
H644 C658 0.961 . S
H645 C659 0.960 . S
H646 C659 0.961 . S
H647 C659 0.959 . S
H648 C662 0.929 . S
H649 C663 0.931 . S
H650 C665 0.929 . S
C651 H639 0.930 . S
C651 C652 1.399 . S
C651 C656 1.399 . S
C652 C651 1.399 . S
C652 C653 1.376 . S
C653 H640 0.930 . S
C653 C652 1.376 . S
C653 C654 1.388 . S
C654 H641 0.930 . S
C654 C653 1.388 . S
C654 C655 1.390 . S
C655 C654 1.390 . S
C655 C656 1.394 . S
C655 C661 1.465 . S
C656 C651 1.399 . S
C656 C655 1.394 . S
C656 C657 1.516 . S
C657 C656 1.516 . S
C657 C658 1.502 . S
C657 C659 1.561 . S
C657 C660 1.526 . S
C658 H642 0.959 . S
C658 H643 0.959 . S
C658 H644 0.961 . S
C658 C657 1.502 . S
C659 H645 0.960 . S
C659 H646 0.961 . S
C659 H647 0.959 . S
C659 C657 1.561 . S
C660 C657 1.526 . S
C660 C661 1.396 . S
C660 C665 1.391 1_565 S
C661 C655 1.465 . S
C661 C660 1.396 . S
C661 C662 1.399 . S
C662 H648 0.929 . S
C662 C661 1.399 . S
C662 C663 1.385 1_565 S
C663 H649 0.931 . S
C663 C662 1.385 1_545 S
C663 C664 1.389 . S
C664 C663 1.389 . S
C664 C665 1.386 . S
C665 H650 0.929 . S
C665 C660 1.391 1_545 S
C665 C664 1.386 . S
H666 C678 0.930 . S
H667 C680 0.930 . S
H668 C681 0.917 1_545 S
H669 C685 0.959 . S
H670 C685 0.959 . S
H671 C685 0.961 . S
H672 C686 0.960 . S
H673 C686 0.961 . S
H674 C686 0.959 . S
H675 C689 0.929 . S
H676 C690 0.931 . S
H677 C692 0.930 . S
C678 H666 0.930 . S
C678 C679 1.399 1_565 S
C678 C683 1.399 . S
C679 C678 1.399 1_545 S
C679 C680 1.376 . S
C680 H667 0.930 . S
C680 C679 1.376 . S
C680 C681 1.370 1_544 S
C681 H668 0.917 1_565 S
C681 C680 1.370 1_566 S
C681 C682 1.418 . S
C682 C681 1.418 . S
C682 C683 1.394 1_556 S
C682 C688 1.465 . S
C683 C678 1.399 . S
C683 C682 1.394 1_554 S
C683 C684 1.516 . S
C684 C683 1.516 . S
C684 C685 1.502 . S
C684 C686 1.561 . S
C684 C687 1.526 1_554 S
C685 H669 0.959 . S
C685 H670 0.959 . S
C685 H671 0.961 . S
C685 C684 1.502 . S
C686 H672 0.960 . S
C686 H673 0.961 . S
C686 H674 0.959 . S
C686 C684 1.561 . S
C687 C684 1.526 1_556 S
C687 C688 1.396 . S
C687 C692 1.390 . S
C688 C682 1.465 . S
C688 C687 1.396 . S
C688 C689 1.399 . S
C689 H675 0.929 . S
C689 C688 1.399 . S
C689 C690 1.385 . S
C690 H676 0.931 . S
C690 C689 1.385 . S
C690 C691 1.389 . S
C691 C690 1.389 . S
C691 C692 1.387 . S
C692 H677 0.930 . S
C692 C687 1.390 . S
C692 C691 1.387 . S
H693 C705 0.930 . S
H694 C707 0.930 . S
H695 C708 0.930 . S
H696 C712 0.959 . S
H697 C712 0.959 . S
H698 C712 0.961 1_655 S
H699 C713 0.960 . S
H700 C713 0.961 . S
H701 C713 0.959 . S
H702 C716 0.929 . S
H703 C717 0.931 . S
H704 C719 0.930 . S
C705 H693 0.930 . S
C705 C706 1.399 . S
C705 C710 1.399 1_655 S
C706 C705 1.399 . S
C706 C707 1.376 . S
C707 H694 0.930 . S
C707 C706 1.376 . S
C707 C708 1.388 1_655 S
C708 H695 0.930 . S
C708 C707 1.388 1_455 S
C708 C709 1.390 . S
C709 C708 1.390 . S
C709 C710 1.394 . S
C709 C715 1.465 1_554 S
C710 C705 1.399 1_455 S
C710 C709 1.394 . S
C710 C711 1.516 1_554 S
C711 C710 1.516 1_556 S
C711 C712 1.502 . S
C711 C713 1.561 1_556 S
C711 C714 1.526 . S
C712 H696 0.959 . S
C712 H697 0.959 . S
C712 H698 0.961 1_455 S
C712 C711 1.502 . S
C713 H699 0.960 . S
C713 H700 0.961 . S
C713 H701 0.959 . S
C713 C711 1.561 1_554 S
C714 C711 1.526 . S
C714 C715 1.396 . S
C714 C719 1.390 . S
C715 C709 1.465 1_556 S
C715 C714 1.396 . S
C715 C716 1.399 . S
C716 H702 0.929 . S
C716 C715 1.399 . S
C716 C717 1.385 . S
C717 H703 0.931 . S
C717 C716 1.385 . S
C717 C718 1.389 . S
C718 C717 1.389 . S
C718 C719 1.387 . S
C719 H704 0.930 . S
C719 C714 1.390 . S
C719 C718 1.387 . S
H720 C732 0.930 . S
H721 C734 0.930 . S
H722 C735 0.930 . S
H723 C739 0.959 . S
H724 C739 0.959 . S
H725 C739 0.961 1_556 S
H726 C740 0.960 . S
H727 C740 0.961 . S
H728 C740 0.959 . S
H729 C743 0.929 . S
H730 C744 0.931 . S
H731 C746 0.930 . S
C732 H720 0.930 . S
C732 C733 1.399 . S
C732 C737 1.399 . S
C733 C732 1.399 . S
C733 C734 1.376 . S
C734 H721 0.930 . S
C734 C733 1.376 . S
C734 C735 1.388 . S
C735 H722 0.930 . S
C735 C734 1.388 . S
C735 C736 1.390 . S
C736 C735 1.390 . S
C736 C737 1.394 . S
C736 C742 1.450 1_556 S
C737 C732 1.399 . S
C737 C736 1.394 . S
C737 C738 1.516 . S
C738 C737 1.516 . S
C738 C739 1.502 1_556 S
C738 C740 1.561 . S
C738 C741 1.526 1_556 S
C739 H723 0.959 . S
C739 H724 0.959 . S
C739 H725 0.961 1_554 S
C739 C738 1.502 1_554 S
C740 H726 0.960 . S
C740 H727 0.961 . S
C740 H728 0.959 . S
C740 C738 1.561 . S
C741 C738 1.526 1_554 S
C741 C742 1.400 . S
C741 C746 1.390 . S
C742 C736 1.450 1_554 S
C742 C741 1.400 . S
C742 C743 1.409 . S
C743 H729 0.929 . S
C743 C742 1.409 . S
C743 C744 1.385 . S
C744 H730 0.931 . S
C744 C743 1.385 . S
C744 C745 1.389 . S
C745 C744 1.389 . S
C745 C746 1.387 . S
C746 H731 0.930 . S
C746 C741 1.390 . S
C746 C745 1.387 . S
H747 C759 0.930 . S
H748 C761 0.930 . S
H749 C762 0.930 . S
H750 C766 0.959 . S
H751 C766 0.959 . S
H752 C766 0.961 . S
H753 C767 0.960 . S
H754 C767 0.961 . S
H755 C767 0.959 . S
H756 C770 0.929 . S
H757 C771 0.931 . S
H758 C773 0.930 . S
C759 H747 0.930 . S
C759 C760 1.399 . S
C759 C764 1.399 . S
C760 C759 1.399 . S
C760 C761 1.376 . S
C761 H748 0.930 . S
C761 C760 1.376 . S
C761 C762 1.388 . S
C762 H749 0.930 . S
C762 C761 1.388 . S
C762 C763 1.390 . S
C763 C762 1.390 . S
C763 C764 1.394 . S
C763 C769 1.465 . S
C764 C759 1.399 . S
C764 C763 1.394 . S
C764 C765 1.516 . S
C765 C764 1.516 . S
C765 C766 1.502 . S
C765 C767 1.561 . S
C765 C768 1.526 . S
C766 H750 0.959 . S
C766 H751 0.959 . S
C766 H752 0.961 . S
C766 C765 1.502 . S
C767 H753 0.960 . S
C767 H754 0.961 . S
C767 H755 0.959 . S
C767 C765 1.561 . S
C768 C765 1.526 . S
C768 C769 1.396 . S
C768 C773 1.390 . S
C769 C763 1.465 . S
C769 C768 1.396 . S
C769 C770 1.399 1_655 S
C770 H756 0.929 . S
C770 C769 1.399 1_455 S
C770 C771 1.385 . S
C771 H757 0.931 . S
C771 C770 1.385 . S
C771 C772 1.389 . S
C772 C771 1.389 . S
C772 C773 1.387 1_455 S
C773 H758 0.930 . S
C773 C768 1.390 . S
C773 C772 1.387 1_655 S
H774 C786 0.930 . S
H775 C788 0.930 . S
H776 C789 0.930 . S
H777 C793 0.959 . S
H778 C793 0.959 . S
H779 C793 0.961 . S
H780 C794 0.960 . S
H781 C794 0.961 . S
H782 C794 0.959 . S
H783 C797 0.929 . S
H784 C798 0.931 . S
H785 C800 0.930 . S
C786 H774 0.930 . S
C786 C787 1.399 . S
C786 C791 1.399 . S
C787 C786 1.399 . S
C787 C788 1.376 . S
C788 H775 0.930 . S
C788 C787 1.376 . S
C788 C789 1.388 . S
C789 H776 0.930 . S
C789 C788 1.388 . S
C789 C790 1.390 . S
C790 C789 1.390 . S
C790 C791 1.394 . S
C790 C796 1.465 . S
C791 C786 1.399 . S
C791 C790 1.394 . S
C791 C792 1.516 . S
C792 C791 1.516 . S
C792 C793 1.502 . S
C792 C794 1.561 . S
C792 C795 1.526 . S
C793 H777 0.959 . S
C793 H778 0.959 . S
C793 H779 0.961 . S
C793 C792 1.502 . S
C794 H780 0.960 . S
C794 H781 0.961 . S
C794 H782 0.959 . S
C794 C792 1.561 . S
C795 C792 1.526 . S
C795 C796 1.396 . S
C795 C800 1.390 . S
C796 C790 1.465 . S
C796 C795 1.396 . S
C796 C797 1.399 . S
C797 H783 0.929 . S
C797 C796 1.399 . S
C797 C798 1.385 . S
C798 H784 0.931 . S
C798 C797 1.385 . S
C798 C799 1.389 . S
C799 C798 1.389 . S
C799 C800 1.387 . S
C800 H785 0.930 . S
C800 C795 1.390 . S
C800 C799 1.387 . S
H801 C813 0.930 . S
H802 C815 0.930 . S
H803 C816 0.930 . S
H804 C820 0.959 . S
H805 C820 0.959 . S
H806 C820 0.961 . S
H807 C821 0.960 . S
H808 C821 0.961 1_565 S
H809 C821 0.958 1_565 S
H810 C824 0.929 . S
H811 C825 0.931 . S
H812 C827 0.930 . S
C813 H801 0.930 . S
C813 C814 1.399 . S
C813 C818 1.399 . S
C814 C813 1.399 . S
C814 C815 1.376 . S
C815 H802 0.930 . S
C815 C814 1.376 . S
C815 C816 1.388 . S
C816 H803 0.930 . S
C816 C815 1.388 . S
C816 C817 1.390 . S
C817 C816 1.390 . S
C817 C818 1.394 . S
C817 C823 1.465 . S
C818 C813 1.399 . S
C818 C817 1.394 . S
C818 C819 1.516 . S
C819 C818 1.516 . S
C819 C820 1.502 . S
C819 C821 1.561 . S
C819 C822 1.526 . S
C820 H804 0.959 . S
C820 H805 0.959 . S
C820 H806 0.961 . S
C820 C819 1.502 . S
C821 H807 0.960 . S
C821 H808 0.961 1_545 S
C821 H809 0.958 1_545 S
C821 C819 1.561 . S
C822 C819 1.526 . S
C822 C823 1.396 . S
C822 C827 1.390 1_545 S
C823 C817 1.465 . S
C823 C822 1.396 . S
C823 C824 1.399 . S
C824 H810 0.929 . S
C824 C823 1.399 . S
C824 C825 1.385 1_545 S
C825 H811 0.931 . S
C825 C824 1.385 1_565 S
C825 C826 1.389 . S
C826 C825 1.389 . S
C826 C827 1.387 . S
C827 H812 0.930 . S
C827 C822 1.390 1_565 S
C827 C826 1.387 . S
H828 C840 0.930 . S
H829 C842 0.930 . S
H830 C843 0.930 . S
H831 C847 0.959 . S
H832 C847 0.959 . S
H833 C847 0.961 . S
H834 C848 0.960 . S
H835 C848 0.961 . S
H836 C848 0.959 . S
H837 C851 0.929 . S
H838 C852 0.931 . S
H839 C854 0.930 . S
C840 H828 0.930 . S
C840 C841 1.399 . S
C840 C845 1.399 . S
C841 C840 1.399 . S
C841 C842 1.376 . S
C842 H829 0.930 . S
C842 C841 1.376 . S
C842 C843 1.388 . S
C843 H830 0.930 . S
C843 C842 1.388 . S
C843 C844 1.390 . S
C844 C843 1.390 . S
C844 C845 1.394 . S
C844 C850 1.465 . S
C845 C840 1.399 . S
C845 C844 1.394 . S
C845 C846 1.516 . S
C846 C845 1.516 . S
C846 C847 1.502 . S
C846 C848 1.561 . S
C846 C849 1.526 . S
C847 H831 0.959 . S
C847 H832 0.959 . S
C847 H833 0.961 . S
C847 C846 1.502 . S
C848 H834 0.960 . S
C848 H835 0.961 . S
C848 H836 0.959 . S
C848 C846 1.561 . S
C849 C846 1.526 . S
C849 C850 1.396 . S
C849 C854 1.390 . S
C850 C844 1.465 . S
C850 C849 1.396 . S
C850 C851 1.399 . S
C851 H837 0.929 . S
C851 C850 1.399 . S
C851 C852 1.385 . S
C852 H838 0.931 . S
C852 C851 1.385 . S
C852 C853 1.389 . S
C853 C852 1.389 . S
C853 C854 1.387 . S
C854 H839 0.930 . S
C854 C849 1.390 . S
C854 C853 1.387 . S
H855 C867 0.930 . S
H856 C869 0.930 . S
H857 C870 0.930 . S
H858 C874 0.959 . S
H859 C874 0.959 . S
H860 C874 0.961 . S
H861 C875 0.960 . S
H862 C875 0.961 . S
H863 C875 0.959 . S
H864 C878 0.929 . S
H865 C879 0.931 . S
H866 C881 0.930 . S
C867 H855 0.930 . S
C867 C868 1.399 . S
C867 C872 1.399 . S
C868 C867 1.399 . S
C868 C869 1.376 . S
C869 H856 0.930 . S
C869 C868 1.376 . S
C869 C870 1.388 . S
C870 H857 0.930 . S
C870 C869 1.388 . S
C870 C871 1.390 . S
C871 C870 1.390 . S
C871 C872 1.394 . S
C871 C877 1.465 . S
C872 C867 1.399 . S
C872 C871 1.394 . S
C872 C873 1.516 . S
C873 C872 1.516 . S
C873 C874 1.502 . S
C873 C875 1.561 . S
C873 C876 1.526 . S
C874 H858 0.959 . S
C874 H859 0.959 . S
C874 H860 0.961 . S
C874 C873 1.502 . S
C875 H861 0.960 . S
C875 H862 0.961 . S
C875 H863 0.959 . S
C875 C873 1.561 . S
C876 C873 1.526 . S
C876 C877 1.396 . S
C876 C881 1.390 . S
C877 C871 1.465 . S
C877 C876 1.396 . S
C877 C878 1.399 . S
C878 H864 0.929 . S
C878 C877 1.399 . S
C878 C879 1.385 . S
C879 H865 0.931 . S
C879 C878 1.385 . S
C879 C880 1.389 . S
C880 C879 1.389 . S
C880 C881 1.387 . S
C881 H866 0.930 . S
C881 C876 1.390 . S
C881 C880 1.387 . S
H882 C894 0.930 . S
H883 C896 0.930 . S
H884 C897 0.930 . S
H885 C901 0.959 . S
H886 C901 0.959 . S
H887 C901 0.961 . S
H888 C902 0.960 . S
H889 C902 0.961 . S
H890 C902 0.959 . S
H891 C905 0.929 . S
H892 C906 0.931 . S
H893 C908 0.930 . S
C894 H882 0.930 . S
C894 C895 1.399 . S
C894 C899 1.399 . S
C895 C894 1.399 . S
C895 C896 1.376 . S
C896 H883 0.930 . S
C896 C895 1.376 . S
C896 C897 1.388 . S
C897 H884 0.930 . S
C897 C896 1.388 . S
C897 C898 1.390 . S
C898 C897 1.390 . S
C898 C899 1.394 . S
C898 C904 1.465 . S
C899 C894 1.399 . S
C899 C898 1.394 . S
C899 C900 1.516 . S
C900 C899 1.516 . S
C900 C901 1.502 . S
C900 C902 1.561 . S
C900 C903 1.526 . S
C901 H885 0.959 . S
C901 H886 0.959 . S
C901 H887 0.961 . S
C901 C900 1.502 . S
C902 H888 0.960 . S
C902 H889 0.961 . S
C902 H890 0.959 . S
C902 C900 1.561 . S
C903 C900 1.526 . S
C903 C904 1.396 . S
C903 C908 1.390 . S
C904 C898 1.465 . S
C904 C903 1.396 . S
C904 C905 1.399 . S
C905 H891 0.929 . S
C905 C904 1.399 . S
C905 C906 1.385 . S
C906 H892 0.931 . S
C906 C905 1.385 . S
C906 C907 1.389 . S
C907 C906 1.389 . S
C907 C908 1.387 . S
C908 H893 0.930 . S
C908 C903 1.390 . S
C908 C907 1.387 . S
H909 C921 0.930 . S
H910 C923 0.930 . S
H911 C924 0.930 . S
H912 C928 0.959 . S
H913 C928 0.959 . S
H914 C928 0.961 . S
H915 C929 0.960 . S
H916 C929 0.961 . S
H917 C929 0.959 . S
H918 C932 0.929 . S
H919 C933 0.931 . S
H920 C935 0.930 . S
C921 H909 0.930 . S
C921 C922 1.399 . S
C921 C926 1.399 . S
C922 C921 1.399 . S
C922 C923 1.376 . S
C923 H910 0.930 . S
C923 C922 1.376 . S
C923 C924 1.388 . S
C924 H911 0.930 . S
C924 C923 1.388 . S
C924 C925 1.390 . S
C925 C924 1.390 . S
C925 C926 1.394 . S
C925 C931 1.465 . S
C926 C921 1.399 . S
C926 C925 1.394 . S
C926 C927 1.516 . S
C927 C926 1.516 . S
C927 C928 1.502 . S
C927 C929 1.561 . S
C927 C930 1.526 . S
C928 H912 0.959 . S
C928 H913 0.959 . S
C928 H914 0.961 . S
C928 C927 1.502 . S
C929 H915 0.960 . S
C929 H916 0.961 . S
C929 H917 0.959 . S
C929 C927 1.561 . S
C930 C927 1.526 . S
C930 C931 1.396 . S
C930 C935 1.390 . S
C931 C925 1.465 . S
C931 C930 1.396 . S
C931 C932 1.399 . S
C932 H918 0.929 . S
C932 C931 1.399 . S
C932 C933 1.385 . S
C933 H919 0.931 . S
C933 C932 1.385 . S
C933 C934 1.389 . S
C934 C933 1.389 . S
C934 C935 1.387 . S
C935 H920 0.930 . S
C935 C930 1.390 . S
C935 C934 1.387 . S
H936 C948 0.930 . S
H937 C950 0.930 . S
H938 C951 0.930 . S
H939 C955 0.959 . S
H940 C955 0.959 . S
H941 C955 0.961 . S
H942 C956 0.960 . S
H943 C956 0.961 . S
H944 C956 0.959 . S
H945 C959 0.929 . S
H946 C960 0.931 . S
H947 C962 0.930 . S
C948 H936 0.930 . S
C948 C949 1.399 . S
C948 C953 1.399 . S
C949 C948 1.399 . S
C949 C950 1.376 . S
C950 H937 0.930 . S
C950 C949 1.376 . S
C950 C951 1.388 . S
C951 H938 0.930 . S
C951 C950 1.388 . S
C951 C952 1.390 . S
C952 C951 1.390 . S
C952 C953 1.394 . S
C952 C958 1.465 . S
C953 C948 1.399 . S
C953 C952 1.394 . S
C953 C954 1.516 . S
C954 C953 1.516 . S
C954 C955 1.502 . S
C954 C956 1.561 . S
C954 C957 1.526 . S
C955 H939 0.959 . S
C955 H940 0.959 . S
C955 H941 0.961 . S
C955 C954 1.502 . S
C956 H942 0.960 . S
C956 H943 0.961 . S
C956 H944 0.959 . S
C956 C954 1.561 . S
C957 C954 1.526 . S
C957 C958 1.396 . S
C957 C962 1.390 . S
C958 C952 1.465 . S
C958 C957 1.396 . S
C958 C959 1.399 . S
C959 H945 0.929 . S
C959 C958 1.399 . S
C959 C960 1.385 . S
C960 H946 0.931 . S
C960 C959 1.385 . S
C960 C961 1.389 . S
C961 C960 1.389 . S
C961 C962 1.387 . S
C962 H947 0.930 . S
C962 C957 1.390 . S
C962 C961 1.387 . S
H963 C975 0.930 . S
H964 C977 0.930 . S
H965 C978 0.930 . S
H966 C982 0.959 . S
H967 C982 0.959 . S
H968 C982 0.961 . S
H969 C983 0.960 . S
H970 C983 0.961 . S
H971 C983 0.959 . S
H972 C986 0.929 . S
H973 C987 0.931 . S
H974 C989 0.930 . S
C975 H963 0.930 . S
C975 C976 1.399 . S
C975 C980 1.399 . S
C976 C975 1.399 . S
C976 C977 1.376 . S
C977 H964 0.930 . S
C977 C976 1.376 . S
C977 C978 1.388 . S
C978 H965 0.930 . S
C978 C977 1.388 . S
C978 C979 1.390 . S
C979 C978 1.390 . S
C979 C980 1.394 . S
C979 C985 1.465 . S
C980 C975 1.399 . S
C980 C979 1.394 . S
C980 C981 1.516 . S
C981 C980 1.516 . S
C981 C982 1.502 . S
C981 C983 1.561 . S
C981 C984 1.526 . S
C982 H966 0.959 . S
C982 H967 0.959 . S
C982 H968 0.961 . S
C982 C981 1.502 . S
C983 H969 0.960 . S
C983 H970 0.961 . S
C983 H971 0.959 . S
C983 C981 1.561 . S
C984 C981 1.526 . S
C984 C985 1.396 . S
C984 C989 1.390 . S
C985 C979 1.465 . S
C985 C984 1.396 . S
C985 C986 1.399 . S
C986 H972 0.929 . S
C986 C985 1.399 . S
C986 C987 1.385 . S
C987 H973 0.931 . S
C987 C986 1.385 . S
C987 C988 1.389 . S
C988 C987 1.389 . S
C988 C989 1.387 . S
C989 H974 0.930 . S
C989 C984 1.390 . S
C989 C988 1.387 . S
H990 C1002 0.930 . S
H991 C1004 0.930 . S
H992 C1005 0.930 . S
H993 C1009 0.959 . S
H994 C1009 0.959 . S
H995 C1009 0.961 . S
H996 C1010 0.960 . S
H997 C1010 0.961 . S
H998 C1010 0.959 . S
H999 C1013 0.929 . S
H1000 C1014 0.931 . S
H1001 C1016 0.930 . S
C1002 H990 0.930 . S
C1002 C1003 1.399 . S
C1002 C1007 1.399 . S
C1003 C1002 1.399 . S
C1003 C1004 1.376 . S
C1004 H991 0.930 . S
C1004 C1003 1.376 . S
C1004 C1005 1.388 . S
C1005 H992 0.930 . S
C1005 C1004 1.388 . S
C1005 C1006 1.390 . S
C1006 C1005 1.390 . S
C1006 C1007 1.394 . S
C1006 C1012 1.465 . S
C1007 C1002 1.399 . S
C1007 C1006 1.394 . S
C1007 C1008 1.516 . S
C1008 C1007 1.516 . S
C1008 C1009 1.502 . S
C1008 C1010 1.561 . S
C1008 C1011 1.526 . S
C1009 H993 0.959 . S
C1009 H994 0.959 . S
C1009 H995 0.961 . S
C1009 C1008 1.502 . S
C1010 H996 0.960 . S
C1010 H997 0.961 . S
C1010 H998 0.959 . S
C1010 C1008 1.561 . S
C1011 C1008 1.526 . S
C1011 C1012 1.396 . S
C1011 C1016 1.390 . S
C1012 C1006 1.465 . S
C1012 C1011 1.396 . S
C1012 C1013 1.399 . S
C1013 H999 0.929 . S
C1013 C1012 1.399 . S
C1013 C1014 1.385 . S
C1014 H1000 0.931 . S
C1014 C1013 1.385 . S
C1014 C1015 1.389 . S
C1015 C1014 1.389 . S
C1015 C1016 1.387 . S
C1016 H1001 0.930 . S
C1016 C1011 1.390 . S
C1016 C1015 1.387 . S
H1017 C1029 0.930 . S
H1018 C1031 0.930 . S
H1019 C1032 0.930 . S
H1020 C1036 0.959 . S
H1021 C1036 0.959 . S
H1022 C1036 0.961 . S
H1023 C1037 0.960 . S
H1024 C1037 0.961 . S
H1025 C1037 0.959 . S
H1026 C1040 0.929 . S
H1027 C1041 0.931 . S
H1028 C1043 0.930 . S
C1029 H1017 0.930 . S
C1029 C1030 1.399 . S
C1029 C1034 1.399 . S
C1030 C1029 1.399 . S
C1030 C1031 1.376 . S
C1031 H1018 0.930 . S
C1031 C1030 1.376 . S
C1031 C1032 1.388 . S
C1032 H1019 0.930 . S
C1032 C1031 1.388 . S
C1032 C1033 1.390 . S
C1033 C1032 1.390 . S
C1033 C1034 1.394 . S
C1033 C1039 1.465 . S
C1034 C1029 1.399 . S
C1034 C1033 1.394 . S
C1034 C1035 1.516 . S
C1035 C1034 1.516 . S
C1035 C1036 1.502 . S
C1035 C1037 1.561 . S
C1035 C1038 1.526 . S
C1036 H1020 0.959 . S
C1036 H1021 0.959 . S
C1036 H1022 0.961 . S
C1036 C1035 1.502 . S
C1037 H1023 0.960 . S
C1037 H1024 0.961 . S
C1037 H1025 0.959 . S
C1037 C1035 1.561 . S
C1038 C1035 1.526 . S
C1038 C1039 1.396 . S
C1038 C1043 1.390 . S
C1039 C1033 1.465 . S
C1039 C1038 1.396 . S
C1039 C1040 1.399 . S
C1040 H1026 0.929 . S
C1040 C1039 1.399 . S
C1040 C1041 1.385 . S
C1041 H1027 0.931 . S
C1041 C1040 1.385 . S
C1041 C1042 1.389 . S
C1042 C1041 1.389 . S
C1042 C1043 1.387 . S
C1043 H1028 0.930 . S
C1043 C1038 1.390 . S
C1043 C1042 1.387 . S
H1044 C1056 0.930 . S
H1045 C1058 0.930 . S
H1046 C1059 0.930 . S
H1047 C1063 0.959 . S
H1048 C1063 0.959 . S
H1049 C1063 0.961 . S
H1050 C1064 0.960 . S
H1051 C1064 0.961 . S
H1052 C1064 0.959 . S
H1053 C1067 0.929 . S
H1054 C1068 0.931 . S
H1055 C1070 0.930 . S
C1056 H1044 0.930 . S
C1056 C1057 1.399 . S
C1056 C1061 1.399 . S
C1057 C1056 1.399 . S
C1057 C1058 1.376 . S
C1058 H1045 0.930 . S
C1058 C1057 1.376 . S
C1058 C1059 1.388 . S
C1059 H1046 0.930 . S
C1059 C1058 1.388 . S
C1059 C1060 1.390 . S
C1060 C1059 1.390 . S
C1060 C1061 1.394 . S
C1060 C1066 1.465 . S
C1061 C1056 1.399 . S
C1061 C1060 1.394 . S
C1061 C1062 1.516 . S
C1062 C1061 1.516 . S
C1062 C1063 1.502 . S
C1062 C1064 1.561 . S
C1062 C1065 1.526 . S
C1063 H1047 0.959 . S
C1063 H1048 0.959 . S
C1063 H1049 0.961 . S
C1063 C1062 1.502 . S
C1064 H1050 0.960 . S
C1064 H1051 0.961 . S
C1064 H1052 0.959 . S
C1064 C1062 1.561 . S
C1065 C1062 1.526 . S
C1065 C1066 1.396 . S
C1065 C1070 1.390 . S
C1066 C1060 1.465 . S
C1066 C1065 1.396 . S
C1066 C1067 1.399 . S
C1067 H1053 0.929 . S
C1067 C1066 1.399 . S
C1067 C1068 1.385 . S
C1068 H1054 0.931 . S
C1068 C1067 1.385 . S
C1068 C1069 1.389 . S
C1069 C1068 1.389 . S
C1069 C1070 1.387 . S
C1070 H1055 0.930 . S
C1070 C1065 1.390 . S
C1070 C1069 1.387 . S
H1071 C1083 0.930 . S
H1072 C1085 0.930 . S
H1073 C1086 0.930 . S
H1074 C1090 0.959 . S
H1075 C1090 0.959 . S
H1076 C1090 0.961 . S
H1077 C1091 0.960 . S
H1078 C1091 0.961 . S
H1079 C1091 0.959 . S
H1080 C1094 0.929 . S
H1081 C1095 0.931 . S
H1082 C1097 0.930 . S
C1083 H1071 0.930 . S
C1083 C1084 1.399 . S
C1083 C1088 1.399 . S
C1084 C1083 1.399 . S
C1084 C1085 1.376 . S
C1085 H1072 0.930 . S
C1085 C1084 1.376 . S
C1085 C1086 1.388 . S
C1086 H1073 0.930 . S
C1086 C1085 1.388 . S
C1086 C1087 1.390 . S
C1087 C1086 1.390 . S
C1087 C1088 1.394 . S
C1087 C1093 1.465 . S
C1088 C1083 1.399 . S
C1088 C1087 1.394 . S
C1088 C1089 1.516 . S
C1089 C1088 1.516 . S
C1089 C1090 1.502 . S
C1089 C1091 1.561 . S
C1089 C1092 1.526 . S
C1090 H1074 0.959 . S
C1090 H1075 0.959 . S
C1090 H1076 0.961 . S
C1090 C1089 1.502 . S
C1091 H1077 0.960 . S
C1091 H1078 0.961 . S
C1091 H1079 0.959 . S
C1091 C1089 1.561 . S
C1092 C1089 1.526 . S
C1092 C1093 1.396 . S
C1092 C1097 1.390 . S
C1093 C1087 1.465 . S
C1093 C1092 1.396 . S
C1093 C1094 1.399 . S
C1094 H1080 0.929 . S
C1094 C1093 1.399 . S
C1094 C1095 1.385 . S
C1095 H1081 0.931 . S
C1095 C1094 1.385 . S
C1095 C1096 1.389 . S
C1096 C1095 1.389 . S
C1096 C1097 1.387 . S
C1097 H1082 0.930 . S
C1097 C1092 1.390 . S
C1097 C1096 1.387 . S
H1098 C1110 0.930 . S
H1099 C1112 0.930 . S
H1100 C1113 0.930 . S
H1101 C1117 0.959 . S
H1102 C1117 0.959 . S
H1103 C1117 0.961 . S
H1104 C1118 0.960 . S
H1105 C1118 0.961 . S
H1106 C1118 0.959 . S
H1107 C1121 0.929 . S
H1108 C1122 0.931 . S
H1109 C1124 0.930 . S
C1110 H1098 0.930 . S
C1110 C1111 1.399 . S
C1110 C1115 1.399 . S
C1111 C1110 1.399 . S
C1111 C1112 1.376 . S
C1112 H1099 0.930 . S
C1112 C1111 1.376 . S
C1112 C1113 1.388 . S
C1113 H1100 0.930 . S
C1113 C1112 1.388 . S
C1113 C1114 1.390 . S
C1114 C1113 1.390 . S
C1114 C1115 1.394 . S
C1114 C1120 1.465 . S
C1115 C1110 1.399 . S
C1115 C1114 1.394 . S
C1115 C1116 1.516 . S
C1116 C1115 1.516 . S
C1116 C1117 1.502 . S
C1116 C1118 1.561 . S
C1116 C1119 1.526 . S
C1117 H1101 0.959 . S
C1117 H1102 0.959 . S
C1117 H1103 0.961 . S
C1117 C1116 1.502 . S
C1118 H1104 0.960 . S
C1118 H1105 0.961 . S
C1118 H1106 0.959 . S
C1118 C1116 1.561 . S
C1119 C1116 1.526 . S
C1119 C1120 1.396 . S
C1119 C1124 1.390 . S
C1120 C1114 1.465 . S
C1120 C1119 1.396 . S
C1120 C1121 1.399 . S
C1121 H1107 0.929 . S
C1121 C1120 1.399 . S
C1121 C1122 1.385 . S
C1122 H1108 0.931 . S
C1122 C1121 1.385 . S
C1122 C1123 1.389 . S
C1123 C1122 1.389 . S
C1123 C1124 1.387 . S
C1124 H1109 0.930 . S
C1124 C1119 1.390 . S
C1124 C1123 1.387 . S
H1125 C1137 0.930 . S
H1126 C1139 0.930 . S
H1127 C1140 0.930 . S
H1128 C1144 0.959 . S
H1129 C1144 0.959 . S
H1130 C1144 0.961 . S
H1131 C1145 0.960 . S
H1132 C1145 0.961 . S
H1133 C1145 0.959 . S
H1134 C1148 0.929 . S
H1135 C1149 0.931 . S
H1136 C1151 0.930 . S
C1137 H1125 0.930 . S
C1137 C1138 1.399 . S
C1137 C1142 1.399 . S
C1138 C1137 1.399 . S
C1138 C1139 1.376 . S
C1139 H1126 0.930 . S
C1139 C1138 1.376 . S
C1139 C1140 1.388 . S
C1140 H1127 0.930 . S
C1140 C1139 1.388 . S
C1140 C1141 1.390 . S
C1141 C1140 1.390 . S
C1141 C1142 1.394 . S
C1141 C1147 1.465 . S
C1142 C1137 1.399 . S
C1142 C1141 1.394 . S
C1142 C1143 1.516 . S
C1143 C1142 1.516 . S
C1143 C1144 1.502 . S
C1143 C1145 1.561 . S
C1143 C1146 1.526 . S
C1144 H1128 0.959 . S
C1144 H1129 0.959 . S
C1144 H1130 0.961 . S
C1144 C1143 1.502 . S
C1145 H1131 0.960 . S
C1145 H1132 0.961 . S
C1145 H1133 0.959 . S
C1145 C1143 1.561 . S
C1146 C1143 1.526 . S
C1146 C1147 1.396 . S
C1146 C1151 1.390 . S
C1147 C1141 1.465 . S
C1147 C1146 1.396 . S
C1147 C1148 1.399 . S
C1148 H1134 0.929 . S
C1148 C1147 1.399 . S
C1148 C1149 1.385 . S
C1149 H1135 0.931 . S
C1149 C1148 1.385 . S
C1149 C1150 1.389 . S
C1150 C1149 1.389 . S
C1150 C1151 1.387 . S
C1151 H1136 0.930 . S
C1151 C1146 1.390 . S
C1151 C1150 1.387 . S
H1152 C1164 0.930 . S
H1153 C1166 0.930 . S
H1154 C1167 0.930 . S
H1155 C1171 0.959 . S
H1156 C1171 0.959 . S
H1157 C1171 0.961 . S
H1158 C1172 0.960 . S
H1159 C1172 0.961 . S
H1160 C1172 0.959 . S
H1161 C1175 0.929 . S
H1162 C1176 0.931 . S
H1163 C1178 0.930 . S
C1164 H1152 0.930 . S
C1164 C1165 1.399 . S
C1164 C1169 1.399 . S
C1165 C1164 1.399 . S
C1165 C1166 1.376 . S
C1166 H1153 0.930 . S
C1166 C1165 1.376 . S
C1166 C1167 1.388 . S
C1167 H1154 0.930 . S
C1167 C1166 1.388 . S
C1167 C1168 1.390 . S
C1168 C1167 1.390 . S
C1168 C1169 1.394 . S
C1168 C1174 1.465 . S
C1169 C1164 1.399 . S
C1169 C1168 1.394 . S
C1169 C1170 1.516 . S
C1170 C1169 1.516 . S
C1170 C1171 1.502 . S
C1170 C1172 1.561 . S
C1170 C1173 1.526 . S
C1171 H1155 0.959 . S
C1171 H1156 0.959 . S
C1171 H1157 0.961 . S
C1171 C1170 1.502 . S
C1172 H1158 0.960 . S
C1172 H1159 0.961 . S
C1172 H1160 0.959 . S
C1172 C1170 1.561 . S
C1173 C1170 1.526 . S
C1173 C1174 1.396 . S
C1173 C1178 1.390 . S
C1174 C1168 1.465 . S
C1174 C1173 1.396 . S
C1174 C1175 1.399 . S
C1175 H1161 0.929 . S
C1175 C1174 1.399 . S
C1175 C1176 1.385 . S
C1176 H1162 0.931 . S
C1176 C1175 1.385 . S
C1176 C1177 1.389 . S
C1177 C1176 1.389 . S
C1177 C1178 1.387 . S
C1178 H1163 0.930 . S
C1178 C1173 1.390 . S
C1178 C1177 1.387 . S
H1179 C1191 0.930 . S
H1180 C1193 0.930 . S
H1181 C1194 0.930 . S
H1182 C1198 0.959 . S
H1183 C1198 0.959 . S
H1184 C1198 0.961 . S
H1185 C1199 0.960 . S
H1186 C1199 0.961 . S
H1187 C1199 0.959 . S
H1188 C1202 0.929 . S
H1189 C1203 0.931 . S
H1190 C1205 0.930 . S
C1191 H1179 0.930 . S
C1191 C1192 1.399 . S
C1191 C1196 1.399 . S
C1192 C1191 1.399 . S
C1192 C1193 1.376 . S
C1193 H1180 0.930 . S
C1193 C1192 1.376 . S
C1193 C1194 1.388 . S
C1194 H1181 0.930 . S
C1194 C1193 1.388 . S
C1194 C1195 1.390 . S
C1195 C1194 1.390 . S
C1195 C1196 1.394 . S
C1195 C1201 1.465 . S
C1196 C1191 1.399 . S
C1196 C1195 1.394 . S
C1196 C1197 1.516 . S
C1197 C1196 1.516 . S
C1197 C1198 1.502 . S
C1197 C1199 1.561 . S
C1197 C1200 1.526 . S
C1198 H1182 0.959 . S
C1198 H1183 0.959 . S
C1198 H1184 0.961 . S
C1198 C1197 1.502 . S
C1199 H1185 0.960 . S
C1199 H1186 0.961 . S
C1199 H1187 0.959 . S
C1199 C1197 1.561 . S
C1200 C1197 1.526 . S
C1200 C1201 1.396 . S
C1200 C1205 1.390 . S
C1201 C1195 1.465 . S
C1201 C1200 1.396 . S
C1201 C1202 1.399 . S
C1202 H1188 0.929 . S
C1202 C1201 1.399 . S
C1202 C1203 1.385 . S
C1203 H1189 0.931 . S
C1203 C1202 1.385 . S
C1203 C1204 1.389 . S
C1204 C1203 1.389 . S
C1204 C1205 1.387 . S
C1205 H1190 0.930 . S
C1205 C1200 1.390 . S
C1205 C1204 1.387 . S
H1206 C1218 0.930 . S
H1207 C1220 0.930 . S
H1208 C1221 0.930 . S
H1209 C1225 0.959 . S
H1210 C1225 0.959 . S
H1211 C1225 0.961 . S
H1212 C1226 0.960 . S
H1213 C1226 0.961 . S
H1214 C1226 0.959 . S
H1215 C1229 0.929 . S
H1216 C1230 0.931 . S
H1217 C1232 0.930 . S
C1218 H1206 0.930 . S
C1218 C1219 1.399 . S
C1218 C1223 1.399 . S
C1219 C1218 1.399 . S
C1219 C1220 1.376 . S
C1220 H1207 0.930 . S
C1220 C1219 1.376 . S
C1220 C1221 1.388 . S
C1221 H1208 0.930 . S
C1221 C1220 1.388 . S
C1221 C1222 1.390 . S
C1222 C1221 1.390 . S
C1222 C1223 1.394 . S
C1222 C1228 1.465 . S
C1223 C1218 1.399 . S
C1223 C1222 1.394 . S
C1223 C1224 1.516 . S
C1224 C1223 1.516 . S
C1224 C1225 1.502 . S
C1224 C1226 1.561 . S
C1224 C1227 1.526 . S
C1225 H1209 0.959 . S
C1225 H1210 0.959 . S
C1225 H1211 0.961 . S
C1225 C1224 1.502 . S
C1226 H1212 0.960 . S
C1226 H1213 0.961 . S
C1226 H1214 0.959 . S
C1226 C1224 1.561 . S
C1227 C1224 1.526 . S
C1227 C1228 1.396 . S
C1227 C1232 1.390 . S
C1228 C1222 1.465 . S
C1228 C1227 1.396 . S
C1228 C1229 1.399 . S
C1229 H1215 0.929 . S
C1229 C1228 1.399 . S
C1229 C1230 1.385 . S
C1230 H1216 0.931 . S
C1230 C1229 1.385 . S
C1230 C1231 1.389 . S
C1231 C1230 1.389 . S
C1231 C1232 1.387 . S
C1232 H1217 0.930 . S
C1232 C1227 1.390 . S
C1232 C1231 1.387 . S
H1233 C1245 0.930 . S
H1234 C1247 0.930 . S
H1235 C1248 0.930 . S
H1236 C1252 0.959 . S
H1237 C1252 0.959 . S
H1238 C1252 0.961 . S
H1239 C1253 0.960 . S
H1240 C1253 0.961 . S
H1241 C1253 0.959 . S
H1242 C1256 0.929 . S
H1243 C1257 0.931 . S
H1244 C1259 0.930 . S
C1245 H1233 0.930 . S
C1245 C1246 1.399 . S
C1245 C1250 1.399 . S
C1246 C1245 1.399 . S
C1246 C1247 1.376 . S
C1247 H1234 0.930 . S
C1247 C1246 1.376 . S
C1247 C1248 1.388 . S
C1248 H1235 0.930 . S
C1248 C1247 1.388 . S
C1248 C1249 1.390 . S
C1249 C1248 1.390 . S
C1249 C1250 1.394 . S
C1249 C1255 1.465 . S
C1250 C1245 1.399 . S
C1250 C1249 1.394 . S
C1250 C1251 1.516 . S
C1251 C1250 1.516 . S
C1251 C1252 1.502 . S
C1251 C1253 1.561 . S
C1251 C1254 1.526 . S
C1252 H1236 0.959 . S
C1252 H1237 0.959 . S
C1252 H1238 0.961 . S
C1252 C1251 1.502 . S
C1253 H1239 0.960 . S
C1253 H1240 0.961 . S
C1253 H1241 0.959 . S
C1253 C1251 1.561 . S
C1254 C1251 1.526 . S
C1254 C1255 1.396 . S
C1254 C1259 1.390 . S
C1255 C1249 1.465 . S
C1255 C1254 1.396 . S
C1255 C1256 1.399 . S
C1256 H1242 0.929 . S
C1256 C1255 1.399 . S
C1256 C1257 1.385 . S
C1257 H1243 0.931 . S
C1257 C1256 1.385 . S
C1257 C1258 1.389 . S
C1258 C1257 1.389 . S
C1258 C1259 1.387 . S
C1259 H1244 0.930 . S
C1259 C1254 1.390 . S
C1259 C1258 1.387 . S
H1260 C1272 0.930 . S
H1261 C1274 0.930 . S
H1262 C1275 0.930 . S
H1263 C1279 0.959 . S
H1264 C1279 0.959 . S
H1265 C1279 0.961 . S
H1266 C1280 0.960 . S
H1267 C1280 0.961 . S
H1268 C1280 0.959 . S
H1269 C1283 0.929 . S
H1270 C1284 0.931 . S
H1271 C1286 0.930 . S
C1272 H1260 0.930 . S
C1272 C1273 1.399 . S
C1272 C1277 1.399 . S
C1273 C1272 1.399 . S
C1273 C1274 1.376 . S
C1274 H1261 0.930 . S
C1274 C1273 1.376 . S
C1274 C1275 1.388 . S
C1275 H1262 0.930 . S
C1275 C1274 1.388 . S
C1275 C1276 1.390 . S
C1276 C1275 1.390 . S
C1276 C1277 1.394 . S
C1276 C1282 1.465 . S
C1277 C1272 1.399 . S
C1277 C1276 1.394 . S
C1277 C1278 1.516 . S
C1278 C1277 1.516 . S
C1278 C1279 1.502 . S
C1278 C1280 1.561 . S
C1278 C1281 1.526 . S
C1279 H1263 0.959 . S
C1279 H1264 0.959 . S
C1279 H1265 0.961 . S
C1279 C1278 1.502 . S
C1280 H1266 0.960 . S
C1280 H1267 0.961 . S
C1280 H1268 0.959 . S
C1280 C1278 1.561 . S
C1281 C1278 1.526 . S
C1281 C1282 1.396 . S
C1281 C1286 1.390 . S
C1282 C1276 1.465 . S
C1282 C1281 1.396 . S
C1282 C1283 1.399 . S
C1283 H1269 0.929 . S
C1283 C1282 1.399 . S
C1283 C1284 1.385 . S
C1284 H1270 0.931 . S
C1284 C1283 1.385 . S
C1284 C1285 1.389 . S
C1285 C1284 1.389 . S
C1285 C1286 1.387 . S
C1286 H1271 0.930 . S
C1286 C1281 1.390 . S
C1286 C1285 1.387 . S
H1287 C1299 0.930 . S
H1288 C1301 0.930 . S
H1289 C1302 0.930 . S
H1290 C1306 0.959 . S
H1291 C1306 0.959 . S
H1292 C1306 0.961 . S
H1293 C1307 0.960 . S
H1294 C1307 0.961 . S
H1295 C1307 0.959 . S
H1296 C1310 0.929 . S
H1297 C1311 0.931 . S
H1298 C1313 0.930 . S
C1299 H1287 0.930 . S
C1299 C1300 1.399 . S
C1299 C1304 1.399 . S
C1300 C1299 1.399 . S
C1300 C1301 1.376 . S
C1301 H1288 0.930 . S
C1301 C1300 1.376 . S
C1301 C1302 1.388 . S
C1302 H1289 0.930 . S
C1302 C1301 1.388 . S
C1302 C1303 1.390 . S
C1303 C1302 1.390 . S
C1303 C1304 1.394 . S
C1303 C1309 1.465 . S
C1304 C1299 1.399 . S
C1304 C1303 1.394 . S
C1304 C1305 1.516 . S
C1305 C1304 1.516 . S
C1305 C1306 1.502 . S
C1305 C1307 1.561 . S
C1305 C1308 1.526 . S
C1306 H1290 0.959 . S
C1306 H1291 0.959 . S
C1306 H1292 0.961 . S
C1306 C1305 1.502 . S
C1307 H1293 0.960 . S
C1307 H1294 0.961 . S
C1307 H1295 0.959 . S
C1307 C1305 1.561 . S
C1308 C1305 1.526 . S
C1308 C1309 1.396 . S
C1308 C1313 1.390 . S
C1309 C1303 1.465 . S
C1309 C1308 1.396 . S
C1309 C1310 1.399 . S
C1310 H1296 0.929 . S
C1310 C1309 1.399 . S
C1310 C1311 1.385 . S
C1311 H1297 0.931 . S
C1311 C1310 1.385 . S
C1311 C1312 1.389 . S
C1312 C1311 1.389 . S
C1312 C1313 1.387 . S
C1313 H1298 0.930 . S
C1313 C1308 1.390 . S
C1313 C1312 1.387 . S
H1314 C1326 0.930 . S
H1315 C1328 0.930 . S
H1316 C1329 0.930 . S
H1317 C1333 0.959 . S
H1318 C1333 0.959 . S
H1319 C1333 0.961 . S
H1320 C1334 0.960 . S
H1321 C1334 0.961 . S
H1322 C1334 0.959 . S
H1323 C1337 0.929 . S
H1324 C1338 0.931 . S
H1325 C1340 0.930 . S
C1326 H1314 0.930 . S
C1326 C1327 1.399 . S
C1326 C1331 1.399 . S
C1327 C1326 1.399 . S
C1327 C1328 1.376 . S
C1328 H1315 0.930 . S
C1328 C1327 1.376 . S
C1328 C1329 1.388 . S
C1329 H1316 0.930 . S
C1329 C1328 1.388 . S
C1329 C1330 1.390 . S
C1330 C1329 1.390 . S
C1330 C1331 1.394 . S
C1330 C1336 1.465 . S
C1331 C1326 1.399 . S
C1331 C1330 1.394 . S
C1331 C1332 1.516 . S
C1332 C1331 1.516 . S
C1332 C1333 1.502 . S
C1332 C1334 1.561 . S
C1332 C1335 1.526 . S
C1333 H1317 0.959 . S
C1333 H1318 0.959 . S
C1333 H1319 0.961 . S
C1333 C1332 1.502 . S
C1334 H1320 0.960 . S
C1334 H1321 0.961 . S
C1334 H1322 0.959 . S
C1334 C1332 1.561 . S
C1335 C1332 1.526 . S
C1335 C1336 1.396 . S
C1335 C1340 1.390 . S
C1336 C1330 1.465 . S
C1336 C1335 1.396 . S
C1336 C1337 1.399 . S
C1337 H1323 0.929 . S
C1337 C1336 1.399 . S
C1337 C1338 1.385 . S
C1338 H1324 0.931 . S
C1338 C1337 1.385 . S
C1338 C1339 1.389 . S
C1339 C1338 1.389 . S
C1339 C1340 1.387 . S
C1340 H1325 0.930 . S
C1340 C1335 1.390 . S
C1340 C1339 1.387 . S
H1341 C1353 0.930 . S
H1342 C1355 0.930 . S
H1343 C1356 0.930 . S
H1344 C1360 0.959 . S
H1345 C1360 0.959 . S
H1346 C1360 0.961 . S
H1347 C1361 0.960 . S
H1348 C1361 0.961 . S
H1349 C1361 0.959 . S
H1350 C1364 0.929 . S
H1351 C1365 0.931 . S
H1352 C1367 0.930 . S
C1353 H1341 0.930 . S
C1353 C1354 1.399 . S
C1353 C1358 1.399 . S
C1354 C1353 1.399 . S
C1354 C1355 1.376 . S
C1355 H1342 0.930 . S
C1355 C1354 1.376 . S
C1355 C1356 1.388 . S
C1356 H1343 0.930 . S
C1356 C1355 1.388 . S
C1356 C1357 1.390 . S
C1357 C1356 1.390 . S
C1357 C1358 1.394 . S
C1357 C1363 1.465 . S
C1358 C1353 1.399 . S
C1358 C1357 1.394 . S
C1358 C1359 1.516 . S
C1359 C1358 1.516 . S
C1359 C1360 1.502 . S
C1359 C1361 1.561 . S
C1359 C1362 1.526 . S
C1360 H1344 0.959 . S
C1360 H1345 0.959 . S
C1360 H1346 0.961 . S
C1360 C1359 1.502 . S
C1361 H1347 0.960 . S
C1361 H1348 0.961 . S
C1361 H1349 0.959 . S
C1361 C1359 1.561 . S
C1362 C1359 1.526 . S
C1362 C1363 1.396 . S
C1362 C1367 1.390 . S
C1363 C1357 1.465 . S
C1363 C1362 1.396 . S
C1363 C1364 1.399 . S
C1364 H1350 0.929 . S
C1364 C1363 1.399 . S
C1364 C1365 1.385 . S
C1365 H1351 0.931 . S
C1365 C1364 1.385 . S
C1365 C1366 1.389 . S
C1366 C1365 1.389 . S
C1366 C1367 1.387 . S
C1367 H1352 0.930 . S
C1367 C1362 1.390 . S
C1367 C1366 1.387 . S
H1368 C1380 0.930 . S
H1369 C1382 0.930 . S
H1370 C1383 0.930 . S
H1371 C1387 0.959 . S
H1372 C1387 0.959 . S
H1373 C1387 0.961 . S
H1374 C1388 0.960 . S
H1375 C1388 0.961 . S
H1376 C1388 0.959 . S
H1377 C1391 0.929 . S
H1378 C1392 0.931 . S
H1379 C1394 0.930 . S
C1380 H1368 0.930 . S
C1380 C1381 1.399 . S
C1380 C1385 1.399 . S
C1381 C1380 1.399 . S
C1381 C1382 1.376 . S
C1382 H1369 0.930 . S
C1382 C1381 1.376 . S
C1382 C1383 1.388 . S
C1383 H1370 0.930 . S
C1383 C1382 1.388 . S
C1383 C1384 1.390 . S
C1384 C1383 1.390 . S
C1384 C1385 1.394 . S
C1384 C1390 1.465 . S
C1385 C1380 1.399 . S
C1385 C1384 1.394 . S
C1385 C1386 1.516 . S
C1386 C1385 1.516 . S
C1386 C1387 1.502 . S
C1386 C1388 1.561 . S
C1386 C1389 1.526 . S
C1387 H1371 0.959 . S
C1387 H1372 0.959 . S
C1387 H1373 0.961 . S
C1387 C1386 1.502 . S
C1388 H1374 0.960 . S
C1388 H1375 0.961 . S
C1388 H1376 0.959 . S
C1388 C1386 1.561 . S
C1389 C1386 1.526 . S
C1389 C1390 1.396 . S
C1389 C1394 1.390 . S
C1390 C1384 1.465 . S
C1390 C1389 1.396 . S
C1390 C1391 1.399 . S
C1391 H1377 0.929 . S
C1391 C1390 1.399 . S
C1391 C1392 1.385 . S
C1392 H1378 0.931 . S
C1392 C1391 1.385 . S
C1392 C1393 1.389 . S
C1393 C1392 1.389 . S
C1393 C1394 1.387 . S
C1394 H1379 0.930 . S
C1394 C1389 1.390 . S
C1394 C1393 1.387 . S
H1395 C1407 0.930 . S
H1396 C1409 0.930 . S
H1397 C1410 0.930 . S
H1398 C1414 0.959 . S
H1399 C1414 0.959 . S
H1400 C1414 0.961 . S
H1401 C1415 0.960 . S
H1402 C1415 0.961 . S
H1403 C1415 0.959 . S
H1404 C1418 0.929 . S
H1405 C1419 0.931 . S
H1406 C1421 0.930 . S
C1407 H1395 0.930 . S
C1407 C1408 1.399 . S
C1407 C1412 1.399 . S
C1408 C1407 1.399 . S
C1408 C1409 1.376 . S
C1409 H1396 0.930 . S
C1409 C1408 1.376 . S
C1409 C1410 1.388 . S
C1410 H1397 0.930 . S
C1410 C1409 1.388 . S
C1410 C1411 1.390 . S
C1411 C1410 1.390 . S
C1411 C1412 1.394 . S
C1411 C1417 1.465 . S
C1412 C1407 1.399 . S
C1412 C1411 1.394 . S
C1412 C1413 1.516 . S
C1413 C1412 1.516 . S
C1413 C1414 1.502 . S
C1413 C1415 1.561 . S
C1413 C1416 1.526 . S
C1414 H1398 0.959 . S
C1414 H1399 0.959 . S
C1414 H1400 0.961 . S
C1414 C1413 1.502 . S
C1415 H1401 0.960 . S
C1415 H1402 0.961 . S
C1415 H1403 0.959 . S
C1415 C1413 1.561 . S
C1416 C1413 1.526 . S
C1416 C1417 1.396 . S
C1416 C1421 1.390 . S
C1417 C1411 1.465 . S
C1417 C1416 1.396 . S
C1417 C1418 1.399 . S
C1418 H1404 0.929 . S
C1418 C1417 1.399 . S
C1418 C1419 1.385 . S
C1419 H1405 0.931 . S
C1419 C1418 1.385 . S
C1419 C1420 1.389 . S
C1420 C1419 1.389 . S
C1420 C1421 1.387 . S
C1421 H1406 0.930 . S
C1421 C1416 1.390 . S
C1421 C1420 1.387 . S
H1422 C1434 0.930 . S
H1423 C1436 0.930 . S
H1424 C1437 0.930 . S
H1425 C1441 0.959 . S
H1426 C1441 0.959 . S
H1427 C1441 0.961 . S
H1428 C1442 0.960 . S
H1429 C1442 0.961 . S
H1430 C1442 0.959 . S
H1431 C1445 0.929 . S
H1432 C1446 0.931 . S
H1433 C1448 0.930 . S
C1434 H1422 0.930 . S
C1434 C1435 1.399 . S
C1434 C1439 1.399 . S
C1435 C1434 1.399 . S
C1435 C1436 1.376 . S
C1436 H1423 0.930 . S
C1436 C1435 1.376 . S
C1436 C1437 1.388 . S
C1437 H1424 0.930 . S
C1437 C1436 1.388 . S
C1437 C1438 1.390 . S
C1438 C1437 1.390 . S
C1438 C1439 1.394 . S
C1438 C1444 1.465 . S
C1439 C1434 1.399 . S
C1439 C1438 1.394 . S
C1439 C1440 1.516 . S
C1440 C1439 1.516 . S
C1440 C1441 1.502 . S
C1440 C1442 1.561 . S
C1440 C1443 1.526 . S
C1441 H1425 0.959 . S
C1441 H1426 0.959 . S
C1441 H1427 0.961 . S
C1441 C1440 1.502 . S
C1442 H1428 0.960 . S
C1442 H1429 0.961 . S
C1442 H1430 0.959 . S
C1442 C1440 1.561 . S
C1443 C1440 1.526 . S
C1443 C1444 1.396 . S
C1443 C1448 1.390 . S
C1444 C1438 1.465 . S
C1444 C1443 1.396 . S
C1444 C1445 1.399 . S
C1445 H1431 0.929 . S
C1445 C1444 1.399 . S
C1445 C1446 1.385 . S
C1446 H1432 0.931 . S
C1446 C1445 1.385 . S
C1446 C1447 1.389 . S
C1447 C1446 1.389 . S
C1447 C1448 1.387 . S
C1448 H1433 0.930 . S
C1448 C1443 1.390 . S
C1448 C1447 1.387 . S
H1449 C1461 0.930 . S
H1450 C1463 0.930 . S
H1451 C1464 0.930 . S
H1452 C1468 0.959 . S
H1453 C1468 0.959 . S
H1454 C1468 0.961 . S
H1455 C1469 0.960 . S
H1456 C1469 0.961 . S
H1457 C1469 0.959 . S
H1458 C1472 0.929 . S
H1459 C1473 0.931 . S
H1460 C1475 0.930 . S
C1461 H1449 0.930 . S
C1461 C1462 1.399 . S
C1461 C1466 1.399 . S
C1462 C1461 1.399 . S
C1462 C1463 1.376 . S
C1463 H1450 0.930 . S
C1463 C1462 1.376 . S
C1463 C1464 1.388 . S
C1464 H1451 0.930 . S
C1464 C1463 1.388 . S
C1464 C1465 1.390 . S
C1465 C1464 1.390 . S
C1465 C1466 1.394 . S
C1465 C1471 1.465 . S
C1466 C1461 1.399 . S
C1466 C1465 1.394 . S
C1466 C1467 1.516 . S
C1467 C1466 1.516 . S
C1467 C1468 1.502 . S
C1467 C1469 1.561 . S
C1467 C1470 1.526 . S
C1468 H1452 0.959 . S
C1468 H1453 0.959 . S
C1468 H1454 0.961 . S
C1468 C1467 1.502 . S
C1469 H1455 0.960 . S
C1469 H1456 0.961 . S
C1469 H1457 0.959 . S
C1469 C1467 1.561 . S
C1470 C1467 1.526 . S
C1470 C1471 1.396 . S
C1470 C1475 1.390 . S
C1471 C1465 1.465 . S
C1471 C1470 1.396 . S
C1471 C1472 1.399 . S
C1472 H1458 0.929 . S
C1472 C1471 1.399 . S
C1472 C1473 1.385 . S
C1473 H1459 0.931 . S
C1473 C1472 1.385 . S
C1473 C1474 1.389 . S
C1474 C1473 1.389 . S
C1474 C1475 1.387 . S
C1475 H1460 0.930 . S
C1475 C1470 1.390 . S
C1475 C1474 1.387 . S
H1476 C1488 0.930 . S
H1477 C1490 0.930 . S
H1478 C1491 0.930 . S
H1479 C1495 0.959 . S
H1480 C1495 0.959 . S
H1481 C1495 0.961 . S
H1482 C1496 0.960 . S
H1483 C1496 0.961 . S
H1484 C1496 0.959 . S
H1485 C1499 0.929 . S
H1486 C1500 0.931 . S
H1487 C1502 0.930 . S
C1488 H1476 0.930 . S
C1488 C1489 1.399 . S
C1488 C1493 1.399 . S
C1489 C1488 1.399 . S
C1489 C1490 1.376 . S
C1490 H1477 0.930 . S
C1490 C1489 1.376 . S
C1490 C1491 1.388 . S
C1491 H1478 0.930 . S
C1491 C1490 1.388 . S
C1491 C1492 1.390 . S
C1492 C1491 1.390 . S
C1492 C1493 1.394 . S
C1492 C1498 1.465 . S
C1493 C1488 1.399 . S
C1493 C1492 1.394 . S
C1493 C1494 1.516 . S
C1494 C1493 1.516 . S
C1494 C1495 1.502 . S
C1494 C1496 1.561 . S
C1494 C1497 1.526 . S
C1495 H1479 0.959 . S
C1495 H1480 0.959 . S
C1495 H1481 0.961 . S
C1495 C1494 1.502 . S
C1496 H1482 0.960 . S
C1496 H1483 0.961 . S
C1496 H1484 0.959 . S
C1496 C1494 1.561 . S
C1497 C1494 1.526 . S
C1497 C1498 1.396 . S
C1497 C1502 1.390 . S
C1498 C1492 1.465 . S
C1498 C1497 1.396 . S
C1498 C1499 1.399 . S
C1499 H1485 0.929 . S
C1499 C1498 1.399 . S
C1499 C1500 1.385 . S
C1500 H1486 0.931 . S
C1500 C1499 1.385 . S
C1500 C1501 1.389 . S
C1501 C1500 1.389 . S
C1501 C1502 1.387 . S
C1502 H1487 0.930 . S
C1502 C1497 1.390 . S
C1502 C1501 1.387 . S
H1503 C1515 0.930 . S
H1504 C1517 0.930 . S
H1505 C1518 0.930 . S
H1506 C1522 0.959 . S
H1507 C1522 0.959 . S
H1508 C1522 0.961 . S
H1509 C1523 0.960 . S
H1510 C1523 0.961 . S
H1511 C1523 0.959 . S
H1512 C1526 0.929 . S
H1513 C1527 0.931 . S
H1514 C1529 0.930 . S
C1515 H1503 0.930 . S
C1515 C1516 1.399 . S
C1515 C1520 1.399 . S
C1516 C1515 1.399 . S
C1516 C1517 1.376 . S
C1517 H1504 0.930 . S
C1517 C1516 1.376 . S
C1517 C1518 1.388 . S
C1518 H1505 0.930 . S
C1518 C1517 1.388 . S
C1518 C1519 1.390 . S
C1519 C1518 1.390 . S
C1519 C1520 1.394 . S
C1519 C1525 1.474 . S
C1520 C1515 1.399 . S
C1520 C1519 1.394 . S
C1520 C1521 1.516 1_565 S
C1521 C1520 1.516 1_545 S
C1521 C1522 1.502 . S
C1521 C1523 1.561 . S
C1521 C1524 1.526 . S
C1522 H1506 0.959 . S
C1522 H1507 0.959 . S
C1522 H1508 0.961 . S
C1522 C1521 1.502 . S
C1523 H1509 0.960 . S
C1523 H1510 0.961 . S
C1523 H1511 0.959 . S
C1523 C1521 1.561 . S
C1524 C1521 1.526 . S
C1524 C1525 1.380 1_545 S
C1524 C1529 1.390 . S
C1525 C1519 1.474 . S
C1525 C1524 1.380 1_565 S
C1525 C1526 1.403 . S
C1526 H1512 0.929 . S
C1526 C1525 1.403 . S
C1526 C1527 1.385 1_565 S
C1527 H1513 0.931 . S
C1527 C1526 1.385 1_545 S
C1527 C1528 1.389 . S
C1528 C1527 1.389 . S
C1528 C1529 1.387 . S
C1529 H1514 0.930 . S
C1529 C1524 1.390 . S
C1529 C1528 1.387 . S
H1530 C1542 0.930 . S
H1531 C1544 0.930 . S
H1532 C1545 0.930 1_455 S
H1533 C1549 0.959 . S
H1534 C1549 0.959 . S
H1535 C1549 0.961 . S
H1536 C1550 0.960 . S
H1537 C1550 0.961 . S
H1538 C1550 0.959 . S
H1539 C1553 0.929 . S
H1540 C1554 0.931 . S
H1541 C1556 0.930 . S
C1542 H1530 0.930 . S
C1542 C1543 1.399 . S
C1542 C1547 1.399 . S
C1543 C1542 1.399 . S
C1543 C1544 1.376 . S
C1544 H1531 0.930 . S
C1544 C1543 1.376 . S
C1544 C1545 1.388 . S
C1545 H1532 0.930 1_655 S
C1545 C1544 1.388 . S
C1545 C1546 1.390 . S
C1546 C1545 1.390 . S
C1546 C1547 1.394 . S
C1546 C1552 1.465 1_655 S
C1547 C1542 1.399 . S
C1547 C1546 1.394 . S
C1547 C1548 1.516 . S
C1548 C1547 1.516 . S
C1548 C1549 1.502 . S
C1548 C1550 1.561 . S
C1548 C1551 1.526 1_655 S
C1549 H1533 0.959 . S
C1549 H1534 0.959 . S
C1549 H1535 0.961 . S
C1549 C1548 1.502 . S
C1550 H1536 0.960 . S
C1550 H1537 0.961 . S
C1550 H1538 0.959 . S
C1550 C1548 1.561 . S
C1551 C1548 1.526 1_455 S
C1551 C1552 1.396 . S
C1551 C1556 1.390 . S
C1552 C1546 1.465 1_455 S
C1552 C1551 1.396 . S
C1552 C1553 1.399 . S
C1553 H1539 0.929 . S
C1553 C1552 1.399 . S
C1553 C1554 1.385 . S
C1554 H1540 0.931 . S
C1554 C1553 1.385 . S
C1554 C1555 1.389 . S
C1555 C1554 1.389 . S
C1555 C1556 1.387 . S
C1556 H1541 0.930 . S
C1556 C1551 1.390 . S
C1556 C1555 1.387 . S
H1557 C1569 0.930 . S
H1558 C1571 0.930 . S
H1559 C1572 0.930 . S
H1560 C1576 0.959 . S
H1561 C1576 0.959 . S
H1562 C1576 0.961 . S
H1563 C1577 0.960 . S
H1564 C1577 0.961 . S
H1565 C1577 0.959 . S
H1566 C1580 0.929 . S
H1567 C1581 0.931 . S
H1568 C1583 0.930 . S
C1569 H1557 0.930 . S
C1569 C1570 1.399 . S
C1569 C1574 1.399 . S
C1570 C1569 1.399 . S
C1570 C1571 1.376 . S
C1571 H1558 0.930 . S
C1571 C1570 1.376 . S
C1571 C1572 1.388 . S
C1572 H1559 0.930 . S
C1572 C1571 1.388 . S
C1572 C1573 1.390 . S
C1573 C1572 1.390 . S
C1573 C1574 1.394 . S
C1573 C1579 1.465 . S
C1574 C1569 1.399 . S
C1574 C1573 1.394 . S
C1574 C1575 1.516 . S
C1575 C1574 1.516 . S
C1575 C1576 1.502 . S
C1575 C1577 1.561 . S
C1575 C1578 1.526 . S
C1576 H1560 0.959 . S
C1576 H1561 0.959 . S
C1576 H1562 0.961 . S
C1576 C1575 1.502 . S
C1577 H1563 0.960 . S
C1577 H1564 0.961 . S
C1577 H1565 0.959 . S
C1577 C1575 1.561 . S
C1578 C1575 1.526 . S
C1578 C1579 1.396 . S
C1578 C1583 1.390 . S
C1579 C1573 1.465 . S
C1579 C1578 1.396 . S
C1579 C1580 1.399 . S
C1580 H1566 0.929 . S
C1580 C1579 1.399 . S
C1580 C1581 1.385 . S
C1581 H1567 0.931 . S
C1581 C1580 1.385 . S
C1581 C1582 1.389 . S
C1582 C1581 1.389 . S
C1582 C1583 1.387 . S
C1583 H1568 0.930 . S
C1583 C1578 1.390 . S
C1583 C1582 1.387 . S
H1584 C1596 0.930 . S
H1585 C1598 0.930 . S
H1586 C1599 0.930 . S
H1587 C1603 0.959 . S
H1588 C1603 0.959 . S
H1589 C1603 0.961 1_545 S
H1590 C1604 0.960 . S
H1591 C1604 0.961 . S
H1592 C1604 0.959 . S
H1593 C1607 0.929 . S
H1594 C1608 0.931 . S
H1595 C1610 0.930 . S
C1596 H1584 0.930 . S
C1596 C1597 1.399 . S
C1596 C1601 1.399 . S
C1597 C1596 1.399 . S
C1597 C1598 1.376 . S
C1598 H1585 0.930 . S
C1598 C1597 1.376 . S
C1598 C1599 1.388 . S
C1599 H1586 0.930 . S
C1599 C1598 1.388 . S
C1599 C1600 1.390 . S
C1600 C1599 1.390 . S
C1600 C1601 1.394 . S
C1600 C1606 1.465 1_545 S
C1601 C1596 1.399 . S
C1601 C1600 1.394 . S
C1601 C1602 1.516 . S
C1602 C1601 1.516 . S
C1602 C1603 1.502 1_545 S
C1602 C1604 1.561 . S
C1602 C1605 1.526 1_545 S
C1603 H1587 0.959 . S
C1603 H1588 0.959 . S
C1603 H1589 0.961 1_565 S
C1603 C1602 1.502 1_565 S
C1604 H1590 0.960 . S
C1604 H1591 0.961 . S
C1604 H1592 0.959 . S
C1604 C1602 1.561 . S
C1605 C1602 1.526 1_565 S
C1605 C1606 1.396 . S
C1605 C1610 1.390 . S
C1606 C1600 1.465 1_565 S
C1606 C1605 1.396 . S
C1606 C1607 1.399 . S
C1607 H1593 0.929 . S
C1607 C1606 1.399 . S
C1607 C1608 1.385 . S
C1608 H1594 0.931 . S
C1608 C1607 1.385 . S
C1608 C1609 1.389 . S
C1609 C1608 1.389 . S
C1609 C1610 1.387 . S
C1610 H1595 0.930 . S
C1610 C1605 1.390 . S
C1610 C1609 1.387 . S
H1611 C1623 0.930 . S
H1612 C1625 0.930 . S
H1613 C1626 0.930 . S
H1614 C1630 0.959 . S
H1615 C1630 0.959 . S
H1616 C1630 0.961 . S
H1617 C1631 0.960 . S
H1618 C1631 0.961 . S
H1619 C1631 0.959 . S
H1620 C1634 0.929 . S
H1621 C1635 0.931 . S
H1622 C1637 0.930 . S
C1623 H1611 0.930 . S
C1623 C1624 1.399 . S
C1623 C1628 1.399 . S
C1624 C1623 1.399 . S
C1624 C1625 1.376 . S
C1625 H1612 0.930 . S
C1625 C1624 1.376 . S
C1625 C1626 1.388 . S
C1626 H1613 0.930 . S
C1626 C1625 1.388 . S
C1626 C1627 1.390 . S
C1627 C1626 1.390 . S
C1627 C1628 1.394 . S
C1627 C1633 1.493 . S
C1628 C1623 1.399 . S
C1628 C1627 1.394 . S
C1628 C1629 1.516 1_655 S
C1629 C1628 1.516 1_455 S
C1629 C1630 1.502 . S
C1629 C1631 1.561 . S
C1629 C1632 1.526 . S
C1630 H1614 0.959 . S
C1630 H1615 0.959 . S
C1630 H1616 0.961 . S
C1630 C1629 1.502 . S
C1631 H1617 0.960 . S
C1631 H1618 0.961 . S
C1631 H1619 0.959 . S
C1631 C1629 1.561 . S
C1632 C1629 1.526 . S
C1632 C1633 1.348 1_455 S
C1632 C1637 1.390 . S
C1633 C1627 1.493 . S
C1633 C1632 1.348 1_655 S
C1633 C1634 1.413 . S
C1634 H1620 0.929 . S
C1634 C1633 1.413 . S
C1634 C1635 1.385 1_655 S
C1635 H1621 0.931 . S
C1635 C1634 1.385 1_455 S
C1635 C1636 1.389 . S
C1636 C1635 1.389 . S
C1636 C1637 1.387 . S
C1637 H1622 0.930 . S
C1637 C1632 1.390 . S
C1637 C1636 1.387 . S
H1638 C1650 0.930 . S
H1639 C1652 0.930 . S
H1640 C1653 0.930 . S
H1641 C1657 0.959 . S
H1642 C1657 0.959 . S
H1643 C1657 0.961 . S
H1644 C1658 0.960 . S
H1645 C1658 0.961 . S
H1646 C1658 0.959 . S
H1647 C1661 0.929 . S
H1648 C1662 0.931 . S
H1649 C1664 0.930 . S
C1650 H1638 0.930 . S
C1650 C1651 1.399 . S
C1650 C1655 1.399 . S
C1651 C1650 1.399 . S
C1651 C1652 1.376 . S
C1652 H1639 0.930 . S
C1652 C1651 1.376 . S
C1652 C1653 1.388 . S
C1653 H1640 0.930 . S
C1653 C1652 1.388 . S
C1653 C1654 1.390 . S
C1654 C1653 1.390 . S
C1654 C1655 1.394 . S
C1654 C1660 1.465 . S
C1655 C1650 1.399 . S
C1655 C1654 1.394 . S
C1655 C1656 1.516 . S
C1656 C1655 1.516 . S
C1656 C1657 1.502 . S
C1656 C1658 1.561 . S
C1656 C1659 1.526 . S
C1657 H1641 0.959 . S
C1657 H1642 0.959 . S
C1657 H1643 0.961 . S
C1657 C1656 1.502 . S
C1658 H1644 0.960 . S
C1658 H1645 0.961 . S
C1658 H1646 0.959 . S
C1658 C1656 1.561 . S
C1659 C1656 1.526 . S
C1659 C1660 1.396 . S
C1659 C1664 1.390 . S
C1660 C1654 1.465 . S
C1660 C1659 1.396 . S
C1660 C1661 1.399 . S
C1661 H1647 0.929 . S
C1661 C1660 1.399 . S
C1661 C1662 1.385 . S
C1662 H1648 0.931 . S
C1662 C1661 1.385 . S
C1662 C1663 1.389 . S
C1663 C1662 1.389 . S
C1663 C1664 1.387 . S
C1664 H1649 0.930 . S
C1664 C1659 1.390 . S
C1664 C1663 1.387 . S
H1665 C1677 0.930 . S
H1666 C1679 0.930 . S
H1667 C1680 0.930 . S
H1668 C1684 0.959 . S
H1669 C1684 0.959 . S
H1670 C1684 0.961 . S
H1671 C1685 0.960 . S
H1672 C1685 0.961 . S
H1673 C1685 0.959 . S
H1674 C1688 0.929 . S
H1675 C1689 0.931 . S
H1676 C1691 0.930 . S
C1677 H1665 0.930 . S
C1677 C1678 1.399 . S
C1677 C1682 1.399 . S
C1678 C1677 1.399 . S
C1678 C1679 1.376 . S
C1679 H1666 0.930 . S
C1679 C1678 1.376 . S
C1679 C1680 1.388 . S
C1680 H1667 0.930 . S
C1680 C1679 1.388 . S
C1680 C1681 1.390 . S
C1681 C1680 1.390 . S
C1681 C1682 1.394 . S
C1681 C1687 1.465 . S
C1682 C1677 1.399 . S
C1682 C1681 1.394 . S
C1682 C1683 1.516 . S
C1683 C1682 1.516 . S
C1683 C1684 1.502 . S
C1683 C1685 1.561 . S
C1683 C1686 1.526 . S
C1684 H1668 0.959 . S
C1684 H1669 0.959 . S
C1684 H1670 0.961 . S
C1684 C1683 1.502 . S
C1685 H1671 0.960 . S
C1685 H1672 0.961 . S
C1685 H1673 0.959 . S
C1685 C1683 1.561 . S
C1686 C1683 1.526 . S
C1686 C1687 1.396 . S
C1686 C1691 1.390 . S
C1687 C1681 1.465 . S
C1687 C1686 1.396 . S
C1687 C1688 1.399 . S
C1688 H1674 0.929 . S
C1688 C1687 1.399 . S
C1688 C1689 1.385 . S
C1689 H1675 0.931 . S
C1689 C1688 1.385 . S
C1689 C1690 1.389 . S
C1690 C1689 1.389 . S
C1690 C1691 1.387 . S
C1691 H1676 0.930 . S
C1691 C1686 1.390 . S
C1691 C1690 1.387 . S
H1692 C1704 0.930 . S
H1693 C1706 0.930 . S
H1694 C1707 0.930 . S
H1695 C1711 0.959 . S
H1696 C1711 0.959 . S
H1697 C1711 0.961 . S
H1698 C1712 0.960 . S
H1699 C1712 0.961 . S
H1700 C1712 0.959 . S
H1701 C1715 0.929 . S
H1702 C1716 0.931 . S
H1703 C1718 0.930 . S
C1704 H1692 0.930 . S
C1704 C1705 1.399 . S
C1704 C1709 1.399 . S
C1705 C1704 1.399 . S
C1705 C1706 1.376 . S
C1706 H1693 0.930 . S
C1706 C1705 1.376 . S
C1706 C1707 1.388 . S
C1707 H1694 0.930 . S
C1707 C1706 1.388 . S
C1707 C1708 1.390 . S
C1708 C1707 1.390 . S
C1708 C1709 1.394 . S
C1708 C1714 1.465 . S
C1709 C1704 1.399 . S
C1709 C1708 1.394 . S
C1709 C1710 1.516 . S
C1710 C1709 1.516 . S
C1710 C1711 1.502 . S
C1710 C1712 1.561 . S
C1710 C1713 1.526 . S
C1711 H1695 0.959 . S
C1711 H1696 0.959 . S
C1711 H1697 0.961 . S
C1711 C1710 1.502 . S
C1712 H1698 0.960 . S
C1712 H1699 0.961 . S
C1712 H1700 0.959 . S
C1712 C1710 1.561 . S
C1713 C1710 1.526 . S
C1713 C1714 1.396 . S
C1713 C1718 1.390 . S
C1714 C1708 1.465 . S
C1714 C1713 1.396 . S
C1714 C1715 1.399 . S
C1715 H1701 0.929 . S
C1715 C1714 1.399 . S
C1715 C1716 1.385 . S
C1716 H1702 0.931 . S
C1716 C1715 1.385 . S
C1716 C1717 1.389 . S
C1717 C1716 1.389 . S
C1717 C1718 1.387 . S
C1718 H1703 0.930 . S
C1718 C1713 1.390 . S
C1718 C1717 1.387 . S
H1719 C1731 0.930 . S
H1720 C1733 0.930 . S
H1721 C1734 0.930 . S
H1722 C1738 0.959 . S
H1723 C1738 0.959 . S
H1724 C1738 0.961 . S
H1725 C1739 0.960 . S
H1726 C1739 0.961 . S
H1727 C1739 0.959 . S
H1728 C1742 0.929 . S
H1729 C1743 0.931 . S
H1730 C1745 0.930 . S
C1731 H1719 0.930 . S
C1731 C1732 1.399 . S
C1731 C1736 1.399 . S
C1732 C1731 1.399 . S
C1732 C1733 1.376 . S
C1733 H1720 0.930 . S
C1733 C1732 1.376 . S
C1733 C1734 1.388 . S
C1734 H1721 0.930 . S
C1734 C1733 1.388 . S
C1734 C1735 1.390 . S
C1735 C1734 1.390 . S
C1735 C1736 1.394 . S
C1735 C1741 1.465 . S
C1736 C1731 1.399 . S
C1736 C1735 1.394 . S
C1736 C1737 1.516 . S
C1737 C1736 1.516 . S
C1737 C1738 1.502 . S
C1737 C1739 1.561 . S
C1737 C1740 1.526 . S
C1738 H1722 0.959 . S
C1738 H1723 0.959 . S
C1738 H1724 0.961 . S
C1738 C1737 1.502 . S
C1739 H1725 0.960 . S
C1739 H1726 0.961 . S
C1739 H1727 0.959 . S
C1739 C1737 1.561 . S
C1740 C1737 1.526 . S
C1740 C1741 1.396 . S
C1740 C1745 1.390 . S
C1741 C1735 1.465 . S
C1741 C1740 1.396 . S
C1741 C1742 1.399 . S
C1742 H1728 0.929 . S
C1742 C1741 1.399 . S
C1742 C1743 1.385 . S
C1743 H1729 0.931 . S
C1743 C1742 1.385 . S
C1743 C1744 1.389 . S
C1744 C1743 1.389 . S
C1744 C1745 1.387 . S
C1745 H1730 0.930 . S
C1745 C1740 1.390 . S
C1745 C1744 1.387 . S
H1746 C1758 0.930 . S
H1747 C1760 0.930 1_556 S
H1748 C1761 0.930 . S
H1749 C1765 0.959 . S
H1750 C1765 0.959 . S
H1751 C1765 0.961 . S
H1752 C1766 0.960 . S
H1753 C1766 0.961 . S
H1754 C1766 0.959 . S
H1755 C1769 0.929 . S
H1756 C1770 0.931 . S
H1757 C1772 0.930 . S
C1758 H1746 0.930 . S
C1758 C1759 1.399 . S
C1758 C1763 1.399 . S
C1759 C1758 1.399 . S
C1759 C1760 1.376 . S
C1760 H1747 0.930 1_554 S
C1760 C1759 1.376 . S
C1760 C1761 1.388 . S
C1761 H1748 0.930 . S
C1761 C1760 1.388 . S
C1761 C1762 1.390 . S
C1762 C1761 1.390 . S
C1762 C1763 1.394 . S
C1762 C1768 1.465 . S
C1763 C1758 1.399 . S
C1763 C1762 1.394 . S
C1763 C1764 1.516 . S
C1764 C1763 1.516 . S
C1764 C1765 1.502 . S
C1764 C1766 1.561 . S
C1764 C1767 1.526 . S
C1765 H1749 0.959 . S
C1765 H1750 0.959 . S
C1765 H1751 0.961 . S
C1765 C1764 1.502 . S
C1766 H1752 0.960 . S
C1766 H1753 0.961 . S
C1766 H1754 0.959 . S
C1766 C1764 1.561 . S
C1767 C1764 1.526 . S
C1767 C1768 1.396 . S
C1767 C1772 1.390 . S
C1768 C1762 1.465 . S
C1768 C1767 1.396 . S
C1768 C1769 1.399 . S
C1769 H1755 0.929 . S
C1769 C1768 1.399 . S
C1769 C1770 1.385 . S
C1770 H1756 0.931 . S
C1770 C1769 1.385 . S
C1770 C1771 1.389 . S
C1771 C1770 1.389 . S
C1771 C1772 1.387 . S
C1772 H1757 0.930 . S
C1772 C1767 1.390 . S
C1772 C1771 1.387 . S
H1773 C1785 0.930 . S
H1774 C1787 0.930 . S
H1775 C1788 0.930 . S
H1776 C1792 0.959 . S
H1777 C1792 0.959 . S
H1778 C1792 0.961 . S
H1779 C1793 0.960 . S
H1780 C1793 0.961 . S
H1781 C1793 0.959 . S
H1782 C1796 0.929 . S
H1783 C1797 0.931 . S
H1784 C1799 0.930 . S
C1785 H1773 0.930 . S
C1785 C1786 1.399 . S
C1785 C1790 1.399 . S
C1786 C1785 1.399 . S
C1786 C1787 1.376 . S
C1787 H1774 0.930 . S
C1787 C1786 1.376 . S
C1787 C1788 1.388 . S
C1788 H1775 0.930 . S
C1788 C1787 1.388 . S
C1788 C1789 1.390 . S
C1789 C1788 1.390 . S
C1789 C1790 1.394 . S
C1789 C1795 1.465 . S
C1790 C1785 1.399 . S
C1790 C1789 1.394 . S
C1790 C1791 1.516 . S
C1791 C1790 1.516 . S
C1791 C1792 1.502 . S
C1791 C1793 1.561 . S
C1791 C1794 1.526 . S
C1792 H1776 0.959 . S
C1792 H1777 0.959 . S
C1792 H1778 0.961 . S
C1792 C1791 1.502 . S
C1793 H1779 0.960 . S
C1793 H1780 0.961 . S
C1793 H1781 0.959 . S
C1793 C1791 1.561 . S
C1794 C1791 1.526 . S
C1794 C1795 1.396 . S
C1794 C1799 1.390 . S
C1795 C1789 1.465 . S
C1795 C1794 1.396 . S
C1795 C1796 1.399 . S
C1796 H1782 0.929 . S
C1796 C1795 1.399 . S
C1796 C1797 1.385 . S
C1797 H1783 0.931 . S
C1797 C1796 1.385 . S
C1797 C1798 1.389 . S
C1798 C1797 1.389 . S
C1798 C1799 1.387 . S
C1799 H1784 0.930 . S
C1799 C1794 1.390 . S
C1799 C1798 1.387 . S
H1800 C1812 0.930 . S
H1801 C1814 0.930 . S
H1802 C1815 0.930 . S
H1803 C1819 0.959 . S
H1804 C1819 0.959 . S
H1805 C1819 0.961 . S
H1806 C1820 0.960 . S
H1807 C1820 0.961 . S
H1808 C1820 0.959 . S
H1809 C1823 0.929 . S
H1810 C1824 0.931 . S
H1811 C1826 0.930 . S
C1812 H1800 0.930 . S
C1812 C1813 1.399 . S
C1812 C1817 1.399 . S
C1813 C1812 1.399 . S
C1813 C1814 1.376 . S
C1814 H1801 0.930 . S
C1814 C1813 1.376 . S
C1814 C1815 1.388 . S
C1815 H1802 0.930 . S
C1815 C1814 1.388 . S
C1815 C1816 1.390 . S
C1816 C1815 1.390 . S
C1816 C1817 1.394 . S
C1816 C1822 1.465 . S
C1817 C1812 1.399 . S
C1817 C1816 1.394 . S
C1817 C1818 1.516 . S
C1818 C1817 1.516 . S
C1818 C1819 1.502 . S
C1818 C1820 1.561 . S
C1818 C1821 1.526 . S
C1819 H1803 0.959 . S
C1819 H1804 0.959 . S
C1819 H1805 0.961 . S
C1819 C1818 1.502 . S
C1820 H1806 0.960 . S
C1820 H1807 0.961 . S
C1820 H1808 0.959 . S
C1820 C1818 1.561 . S
C1821 C1818 1.526 . S
C1821 C1822 1.396 . S
C1821 C1826 1.390 . S
C1822 C1816 1.465 . S
C1822 C1821 1.396 . S
C1822 C1823 1.399 . S
C1823 H1809 0.929 . S
C1823 C1822 1.399 . S
C1823 C1824 1.385 . S
C1824 H1810 0.931 . S
C1824 C1823 1.385 . S
C1824 C1825 1.389 . S
C1825 C1824 1.389 . S
C1825 C1826 1.387 . S
C1826 H1811 0.930 . S
C1826 C1821 1.390 . S
C1826 C1825 1.387 . S
H1827 C1839 0.930 . S
H1828 C1841 0.930 . S
H1829 C1842 0.930 . S
H1830 C1846 0.959 . S
H1831 C1846 0.959 . S
H1832 C1846 0.961 . S
H1833 C1847 0.960 . S
H1834 C1847 0.961 . S
H1835 C1847 0.959 . S
H1836 C1850 0.929 . S
H1837 C1851 0.931 . S
H1838 C1853 0.930 . S
C1839 H1827 0.930 . S
C1839 C1840 1.399 . S
C1839 C1844 1.399 . S
C1840 C1839 1.399 . S
C1840 C1841 1.376 . S
C1841 H1828 0.930 . S
C1841 C1840 1.376 . S
C1841 C1842 1.388 . S
C1842 H1829 0.930 . S
C1842 C1841 1.388 . S
C1842 C1843 1.390 . S
C1843 C1842 1.390 . S
C1843 C1844 1.394 . S
C1843 C1849 1.465 . S
C1844 C1839 1.399 . S
C1844 C1843 1.394 . S
C1844 C1845 1.516 . S
C1845 C1844 1.516 . S
C1845 C1846 1.502 . S
C1845 C1847 1.561 . S
C1845 C1848 1.526 . S
C1846 H1830 0.959 . S
C1846 H1831 0.959 . S
C1846 H1832 0.961 . S
C1846 C1845 1.502 . S
C1847 H1833 0.960 . S
C1847 H1834 0.961 . S
C1847 H1835 0.959 . S
C1847 C1845 1.561 . S
C1848 C1845 1.526 . S
C1848 C1849 1.396 . S
C1848 C1853 1.390 . S
C1849 C1843 1.465 . S
C1849 C1848 1.396 . S
C1849 C1850 1.399 . S
C1850 H1836 0.929 . S
C1850 C1849 1.399 . S
C1850 C1851 1.385 . S
C1851 H1837 0.931 . S
C1851 C1850 1.385 . S
C1851 C1852 1.389 . S
C1852 C1851 1.389 . S
C1852 C1853 1.387 . S
C1853 H1838 0.930 . S
C1853 C1848 1.390 . S
C1853 C1852 1.387 . S
H1854 C1866 0.930 . S
H1855 C1868 0.930 . S
H1856 C1869 0.930 . S
H1857 C1873 0.959 . S
H1858 C1873 0.959 . S
H1859 C1873 0.961 . S
H1860 C1874 0.960 . S
H1861 C1874 0.961 . S
H1862 C1874 0.959 . S
H1863 C1877 0.929 . S
H1864 C1878 0.931 . S
H1865 C1880 0.930 . S
C1866 H1854 0.930 . S
C1866 C1867 1.399 . S
C1866 C1871 1.399 . S
C1867 C1866 1.399 . S
C1867 C1868 1.376 . S
C1868 H1855 0.930 . S
C1868 C1867 1.376 . S
C1868 C1869 1.388 . S
C1869 H1856 0.930 . S
C1869 C1868 1.388 . S
C1869 C1870 1.390 . S
C1870 C1869 1.390 . S
C1870 C1871 1.394 . S
C1870 C1876 1.465 . S
C1871 C1866 1.399 . S
C1871 C1870 1.394 . S
C1871 C1872 1.516 . S
C1872 C1871 1.516 . S
C1872 C1873 1.502 . S
C1872 C1874 1.561 . S
C1872 C1875 1.526 . S
C1873 H1857 0.959 . S
C1873 H1858 0.959 . S
C1873 H1859 0.961 . S
C1873 C1872 1.502 . S
C1874 H1860 0.960 . S
C1874 H1861 0.961 . S
C1874 H1862 0.959 . S
C1874 C1872 1.561 . S
C1875 C1872 1.526 . S
C1875 C1876 1.396 . S
C1875 C1880 1.390 . S
C1876 C1870 1.465 . S
C1876 C1875 1.396 . S
C1876 C1877 1.399 . S
C1877 H1863 0.929 . S
C1877 C1876 1.399 . S
C1877 C1878 1.385 . S
C1878 H1864 0.931 . S
C1878 C1877 1.385 . S
C1878 C1879 1.389 . S
C1879 C1878 1.389 . S
C1879 C1880 1.387 . S
C1880 H1865 0.930 . S
C1880 C1875 1.390 . S
C1880 C1879 1.387 . S
H1881 C1893 0.930 . S
H1882 C1895 0.930 . S
H1883 C1896 0.930 . S
H1884 C1900 0.959 . S
H1885 C1900 0.959 . S
H1886 C1900 0.961 . S
H1887 C1901 0.960 . S
H1888 C1901 0.961 . S
H1889 C1901 0.959 . S
H1890 C1904 0.929 . S
H1891 C1905 0.931 . S
H1892 C1907 0.930 . S
C1893 H1881 0.930 . S
C1893 C1894 1.399 . S
C1893 C1898 1.399 . S
C1894 C1893 1.399 . S
C1894 C1895 1.376 . S
C1895 H1882 0.930 . S
C1895 C1894 1.376 . S
C1895 C1896 1.388 . S
C1896 H1883 0.930 . S
C1896 C1895 1.388 . S
C1896 C1897 1.390 . S
C1897 C1896 1.390 . S
C1897 C1898 1.394 . S
C1897 C1903 1.465 . S
C1898 C1893 1.399 . S
C1898 C1897 1.394 . S
C1898 C1899 1.516 . S
C1899 C1898 1.516 . S
C1899 C1900 1.502 . S
C1899 C1901 1.561 . S
C1899 C1902 1.526 . S
C1900 H1884 0.959 . S
C1900 H1885 0.959 . S
C1900 H1886 0.961 . S
C1900 C1899 1.502 . S
C1901 H1887 0.960 . S
C1901 H1888 0.961 . S
C1901 H1889 0.959 . S
C1901 C1899 1.561 . S
C1902 C1899 1.526 . S
C1902 C1903 1.396 . S
C1902 C1907 1.390 . S
C1903 C1897 1.465 . S
C1903 C1902 1.396 . S
C1903 C1904 1.399 . S
C1904 H1890 0.929 . S
C1904 C1903 1.399 . S
C1904 C1905 1.385 . S
C1905 H1891 0.931 . S
C1905 C1904 1.385 . S
C1905 C1906 1.389 . S
C1906 C1905 1.389 . S
C1906 C1907 1.387 . S
C1907 H1892 0.930 . S
C1907 C1902 1.390 . S
C1907 C1906 1.387 . S
H1908 C1920 0.930 . S
H1909 C1922 0.930 . S
H1910 C1923 0.930 . S
H1911 C1927 0.959 . S
H1912 C1927 0.959 . S
H1913 C1927 0.961 . S
H1914 C1928 0.960 . S
H1915 C1928 0.961 . S
H1916 C1928 0.959 . S
H1917 C1931 0.929 . S
H1918 C1932 0.931 . S
H1919 C1934 0.930 . S
C1920 H1908 0.930 . S
C1920 C1921 1.399 . S
C1920 C1925 1.399 . S
C1921 C1920 1.399 . S
C1921 C1922 1.376 . S
C1922 H1909 0.930 . S
C1922 C1921 1.376 . S
C1922 C1923 1.388 . S
C1923 H1910 0.930 . S
C1923 C1922 1.388 . S
C1923 C1924 1.390 . S
C1924 C1923 1.390 . S
C1924 C1925 1.394 . S
C1924 C1930 1.465 . S
C1925 C1920 1.399 . S
C1925 C1924 1.394 . S
C1925 C1926 1.516 . S
C1926 C1925 1.516 . S
C1926 C1927 1.502 . S
C1926 C1928 1.561 . S
C1926 C1929 1.526 . S
C1927 H1911 0.959 . S
C1927 H1912 0.959 . S
C1927 H1913 0.961 . S
C1927 C1926 1.502 . S
C1928 H1914 0.960 . S
C1928 H1915 0.961 . S
C1928 H1916 0.959 . S
C1928 C1926 1.561 . S
C1929 C1926 1.526 . S
C1929 C1930 1.396 . S
C1929 C1934 1.390 . S
C1930 C1924 1.465 . S
C1930 C1929 1.396 . S
C1930 C1931 1.399 . S
C1931 H1917 0.929 . S
C1931 C1930 1.399 . S
C1931 C1932 1.385 . S
C1932 H1918 0.931 . S
C1932 C1931 1.385 . S
C1932 C1933 1.389 . S
C1933 C1932 1.389 . S
C1933 C1934 1.387 . S
C1934 H1919 0.930 . S
C1934 C1929 1.390 . S
C1934 C1933 1.387 . S
H1935 C1947 0.930 . S
H1936 C1949 0.930 . S
H1937 C1950 0.930 . S
H1938 C1954 0.959 . S
H1939 C1954 0.959 . S
H1940 C1954 0.961 . S
H1941 C1955 0.960 . S
H1942 C1955 0.961 . S
H1943 C1955 0.959 . S
H1944 C1958 0.929 . S
H1945 C1959 0.931 . S
H1946 C1961 0.930 . S
C1947 H1935 0.930 . S
C1947 C1948 1.399 . S
C1947 C1952 1.399 . S
C1948 C1947 1.399 . S
C1948 C1949 1.376 . S
C1949 H1936 0.930 . S
C1949 C1948 1.376 . S
C1949 C1950 1.388 . S
C1950 H1937 0.930 . S
C1950 C1949 1.388 . S
C1950 C1951 1.390 . S
C1951 C1950 1.390 . S
C1951 C1952 1.394 . S
C1951 C1957 1.465 . S
C1952 C1947 1.399 . S
C1952 C1951 1.394 . S
C1952 C1953 1.516 . S
C1953 C1952 1.516 . S
C1953 C1954 1.502 . S
C1953 C1955 1.561 . S
C1953 C1956 1.526 . S
C1954 H1938 0.959 . S
C1954 H1939 0.959 . S
C1954 H1940 0.961 . S
C1954 C1953 1.502 . S
C1955 H1941 0.960 . S
C1955 H1942 0.961 . S
C1955 H1943 0.959 . S
C1955 C1953 1.561 . S
C1956 C1953 1.526 . S
C1956 C1957 1.396 . S
C1956 C1961 1.390 . S
C1957 C1951 1.465 . S
C1957 C1956 1.396 . S
C1957 C1958 1.399 . S
C1958 H1944 0.929 . S
C1958 C1957 1.399 . S
C1958 C1959 1.385 . S
C1959 H1945 0.931 . S
C1959 C1958 1.385 . S
C1959 C1960 1.389 . S
C1960 C1959 1.389 . S
C1960 C1961 1.387 . S
C1961 H1946 0.930 . S
C1961 C1956 1.390 . S
C1961 C1960 1.387 . S
H1962 C1974 0.930 . S
H1963 C1976 0.930 . S
H1964 C1977 0.930 . S
H1965 C1981 0.959 . S
H1966 C1981 0.959 . S
H1967 C1981 0.961 . S
H1968 C1982 0.960 . S
H1969 C1982 0.961 . S
H1970 C1982 0.959 . S
H1971 C1985 0.929 . S
H1972 C1986 0.931 . S
H1973 C1988 0.930 . S
C1974 H1962 0.930 . S
C1974 C1975 1.399 . S
C1974 C1979 1.399 . S
C1975 C1974 1.399 . S
C1975 C1976 1.376 . S
C1976 H1963 0.930 . S
C1976 C1975 1.376 . S
C1976 C1977 1.388 . S
C1977 H1964 0.930 . S
C1977 C1976 1.388 . S
C1977 C1978 1.390 . S
C1978 C1977 1.390 . S
C1978 C1979 1.394 . S
C1978 C1984 1.465 . S
C1979 C1974 1.399 . S
C1979 C1978 1.394 . S
C1979 C1980 1.516 . S
C1980 C1979 1.516 . S
C1980 C1981 1.502 . S
C1980 C1982 1.561 . S
C1980 C1983 1.526 . S
C1981 H1965 0.959 . S
C1981 H1966 0.959 . S
C1981 H1967 0.961 . S
C1981 C1980 1.502 . S
C1982 H1968 0.960 . S
C1982 H1969 0.961 . S
C1982 H1970 0.959 . S
C1982 C1980 1.561 . S
C1983 C1980 1.526 . S
C1983 C1984 1.396 . S
C1983 C1988 1.390 . S
C1984 C1978 1.465 . S
C1984 C1983 1.396 . S
C1984 C1985 1.399 . S
C1985 H1971 0.929 . S
C1985 C1984 1.399 . S
C1985 C1986 1.385 . S
C1986 H1972 0.931 . S
C1986 C1985 1.385 . S
C1986 C1987 1.389 . S
C1987 C1986 1.389 . S
C1987 C1988 1.387 . S
C1988 H1973 0.930 . S
C1988 C1983 1.390 . S
C1988 C1987 1.387 . S
H1989 C2001 0.930 . S
H1990 C2003 0.930 . S
H1991 C2004 0.930 . S
H1992 C2008 0.959 . S
H1993 C2008 0.959 . S
H1994 C2008 0.961 . S
H1995 C2009 0.960 . S
H1996 C2009 0.961 . S
H1997 C2009 0.959 . S
H1998 C2012 0.929 . S
H1999 C2013 0.931 . S
H2000 C2015 0.930 . S
C2001 H1989 0.930 . S
C2001 C2002 1.399 . S
C2001 C2006 1.399 . S
C2002 C2001 1.399 . S
C2002 C2003 1.376 . S
C2003 H1990 0.930 . S
C2003 C2002 1.376 . S
C2003 C2004 1.388 . S
C2004 H1991 0.930 . S
C2004 C2003 1.388 . S
C2004 C2005 1.390 . S
C2005 C2004 1.390 . S
C2005 C2006 1.394 . S
C2005 C2011 1.465 . S
C2006 C2001 1.399 . S
C2006 C2005 1.394 . S
C2006 C2007 1.516 . S
C2007 C2006 1.516 . S
C2007 C2008 1.502 . S
C2007 C2009 1.561 . S
C2007 C2010 1.526 . S
C2008 H1992 0.959 . S
C2008 H1993 0.959 . S
C2008 H1994 0.961 . S
C2008 C2007 1.502 . S
C2009 H1995 0.960 . S
C2009 H1996 0.961 . S
C2009 H1997 0.959 . S
C2009 C2007 1.561 . S
C2010 C2007 1.526 . S
C2010 C2011 1.396 . S
C2010 C2015 1.390 . S
C2011 C2005 1.465 . S
C2011 C2010 1.396 . S
C2011 C2012 1.399 . S
C2012 H1998 0.929 . S
C2012 C2011 1.399 . S
C2012 C2013 1.385 . S
C2013 H1999 0.931 . S
C2013 C2012 1.385 . S
C2013 C2014 1.389 . S
C2014 C2013 1.389 . S
C2014 C2015 1.387 . S
C2015 H2000 0.930 . S
C2015 C2010 1.390 . S
C2015 C2014 1.387 . S
H2016 C2028 0.930 . S
H2017 C2030 0.930 . S
H2018 C2031 0.930 . S
H2019 C2035 0.959 . S
H2020 C2035 0.959 . S
H2021 C2035 0.961 . S
H2022 C2036 0.960 . S
H2023 C2036 0.961 . S
H2024 C2036 0.959 . S
H2025 C2039 0.929 . S
H2026 C2040 0.931 . S
H2027 C2042 0.930 . S
C2028 H2016 0.930 . S
C2028 C2029 1.399 . S
C2028 C2033 1.399 . S
C2029 C2028 1.399 . S
C2029 C2030 1.376 . S
C2030 H2017 0.930 . S
C2030 C2029 1.376 . S
C2030 C2031 1.388 . S
C2031 H2018 0.930 . S
C2031 C2030 1.388 . S
C2031 C2032 1.390 . S
C2032 C2031 1.390 . S
C2032 C2033 1.394 . S
C2032 C2038 1.465 . S
C2033 C2028 1.399 . S
C2033 C2032 1.394 . S
C2033 C2034 1.516 . S
C2034 C2033 1.516 . S
C2034 C2035 1.502 . S
C2034 C2036 1.561 . S
C2034 C2037 1.526 . S
C2035 H2019 0.959 . S
C2035 H2020 0.959 . S
C2035 H2021 0.961 . S
C2035 C2034 1.502 . S
C2036 H2022 0.960 . S
C2036 H2023 0.961 . S
C2036 H2024 0.959 . S
C2036 C2034 1.561 . S
C2037 C2034 1.526 . S
C2037 C2038 1.396 . S
C2037 C2042 1.390 . S
C2038 C2032 1.465 . S
C2038 C2037 1.396 . S
C2038 C2039 1.399 . S
C2039 H2025 0.929 . S
C2039 C2038 1.399 . S
C2039 C2040 1.385 . S
C2040 H2026 0.931 . S
C2040 C2039 1.385 . S
C2040 C2041 1.389 . S
C2041 C2040 1.389 . S
C2041 C2042 1.387 . S
C2042 H2027 0.930 . S
C2042 C2037 1.390 . S
C2042 C2041 1.387 . S
H2043 C2055 0.930 . S
H2044 C2057 0.930 . S
H2045 C2058 0.930 . S
H2046 C2062 0.959 . S
H2047 C2062 0.959 . S
H2048 C2062 0.961 . S
H2049 C2063 0.960 . S
H2050 C2063 0.961 . S
H2051 C2063 0.959 . S
H2052 C2066 0.929 . S
H2053 C2067 0.931 . S
H2054 C2069 0.930 . S
C2055 H2043 0.930 . S
C2055 C2056 1.399 . S
C2055 C2060 1.399 . S
C2056 C2055 1.399 . S
C2056 C2057 1.376 . S
C2057 H2044 0.930 . S
C2057 C2056 1.376 . S
C2057 C2058 1.388 . S
C2058 H2045 0.930 . S
C2058 C2057 1.388 . S
C2058 C2059 1.390 . S
C2059 C2058 1.390 . S
C2059 C2060 1.394 . S
C2059 C2065 1.465 . S
C2060 C2055 1.399 . S
C2060 C2059 1.394 . S
C2060 C2061 1.516 . S
C2061 C2060 1.516 . S
C2061 C2062 1.502 . S
C2061 C2063 1.561 . S
C2061 C2064 1.526 . S
C2062 H2046 0.959 . S
C2062 H2047 0.959 . S
C2062 H2048 0.961 . S
C2062 C2061 1.502 . S
C2063 H2049 0.960 . S
C2063 H2050 0.961 . S
C2063 H2051 0.959 . S
C2063 C2061 1.561 . S
C2064 C2061 1.526 . S
C2064 C2065 1.396 . S
C2064 C2069 1.390 . S
C2065 C2059 1.465 . S
C2065 C2064 1.396 . S
C2065 C2066 1.399 . S
C2066 H2052 0.929 . S
C2066 C2065 1.399 . S
C2066 C2067 1.385 . S
C2067 H2053 0.931 . S
C2067 C2066 1.385 . S
C2067 C2068 1.389 . S
C2068 C2067 1.389 . S
C2068 C2069 1.387 . S
C2069 H2054 0.930 . S
C2069 C2064 1.390 . S
C2069 C2068 1.387 . S
H2070 C2082 0.930 . S
H2071 C2084 0.930 . S
H2072 C2085 0.930 . S
H2073 C2089 0.959 . S
H2074 C2089 0.959 . S
H2075 C2089 0.961 . S
H2076 C2090 0.960 . S
H2077 C2090 0.961 . S
H2078 C2090 0.959 . S
H2079 C2093 0.929 . S
H2080 C2094 0.931 . S
H2081 C2096 0.930 . S
C2082 H2070 0.930 . S
C2082 C2083 1.399 . S
C2082 C2087 1.399 . S
C2083 C2082 1.399 . S
C2083 C2084 1.376 . S
C2084 H2071 0.930 . S
C2084 C2083 1.376 . S
C2084 C2085 1.388 . S
C2085 H2072 0.930 . S
C2085 C2084 1.388 . S
C2085 C2086 1.390 . S
C2086 C2085 1.390 . S
C2086 C2087 1.394 . S
C2086 C2092 1.465 . S
C2087 C2082 1.399 . S
C2087 C2086 1.394 . S
C2087 C2088 1.516 . S
C2088 C2087 1.516 . S
C2088 C2089 1.502 . S
C2088 C2090 1.561 . S
C2088 C2091 1.526 . S
C2089 H2073 0.959 . S
C2089 H2074 0.959 . S
C2089 H2075 0.961 . S
C2089 C2088 1.502 . S
C2090 H2076 0.960 . S
C2090 H2077 0.961 . S
C2090 H2078 0.959 . S
C2090 C2088 1.561 . S
C2091 C2088 1.526 . S
C2091 C2092 1.396 . S
C2091 C2096 1.390 . S
C2092 C2086 1.465 . S
C2092 C2091 1.396 . S
C2092 C2093 1.399 . S
C2093 H2079 0.929 . S
C2093 C2092 1.399 . S
C2093 C2094 1.385 . S
C2094 H2080 0.931 . S
C2094 C2093 1.385 . S
C2094 C2095 1.389 . S
C2095 C2094 1.389 . S
C2095 C2096 1.387 . S
C2096 H2081 0.930 . S
C2096 C2091 1.390 . S
C2096 C2095 1.387 . S
H2097 C2109 0.930 . S
H2098 C2111 0.930 . S
H2099 C2112 0.930 . S
H2100 C2116 0.959 . S
H2101 C2116 0.959 . S
H2102 C2116 0.961 . S
H2103 C2117 0.960 . S
H2104 C2117 0.961 . S
H2105 C2117 0.959 . S
H2106 C2120 0.929 . S
H2107 C2121 0.931 . S
H2108 C2123 0.930 . S
C2109 H2097 0.930 . S
C2109 C2110 1.399 . S
C2109 C2114 1.399 . S
C2110 C2109 1.399 . S
C2110 C2111 1.376 . S
C2111 H2098 0.930 . S
C2111 C2110 1.376 . S
C2111 C2112 1.388 . S
C2112 H2099 0.930 . S
C2112 C2111 1.388 . S
C2112 C2113 1.390 . S
C2113 C2112 1.390 . S
C2113 C2114 1.394 . S
C2113 C2119 1.465 . S
C2114 C2109 1.399 . S
C2114 C2113 1.394 . S
C2114 C2115 1.516 . S
C2115 C2114 1.516 . S
C2115 C2116 1.502 . S
C2115 C2117 1.561 . S
C2115 C2118 1.526 . S
C2116 H2100 0.959 . S
C2116 H2101 0.959 . S
C2116 H2102 0.961 . S
C2116 C2115 1.502 . S
C2117 H2103 0.960 . S
C2117 H2104 0.961 . S
C2117 H2105 0.959 . S
C2117 C2115 1.561 . S
C2118 C2115 1.526 . S
C2118 C2119 1.396 . S
C2118 C2123 1.390 . S
C2119 C2113 1.465 . S
C2119 C2118 1.396 . S
C2119 C2120 1.399 . S
C2120 H2106 0.929 . S
C2120 C2119 1.399 . S
C2120 C2121 1.385 . S
C2121 H2107 0.931 . S
C2121 C2120 1.385 . S
C2121 C2122 1.389 . S
C2122 C2121 1.389 . S
C2122 C2123 1.387 . S
C2123 H2108 0.930 . S
C2123 C2118 1.390 . S
C2123 C2122 1.387 . S
H2124 C2136 0.930 . S
H2125 C2138 0.930 . S
H2126 C2139 0.930 . S
H2127 C2143 0.959 . S
H2128 C2143 0.959 . S
H2129 C2143 0.961 . S
H2130 C2144 0.960 . S
H2131 C2144 0.961 . S
H2132 C2144 0.959 . S
H2133 C2147 0.929 . S
H2134 C2148 0.931 . S
H2135 C2150 0.930 . S
C2136 H2124 0.930 . S
C2136 C2137 1.399 . S
C2136 C2141 1.399 . S
C2137 C2136 1.399 . S
C2137 C2138 1.376 . S
C2138 H2125 0.930 . S
C2138 C2137 1.376 . S
C2138 C2139 1.388 . S
C2139 H2126 0.930 . S
C2139 C2138 1.388 . S
C2139 C2140 1.390 . S
C2140 C2139 1.390 . S
C2140 C2141 1.394 . S
C2140 C2146 1.465 . S
C2141 C2136 1.399 . S
C2141 C2140 1.394 . S
C2141 C2142 1.516 . S
C2142 C2141 1.516 . S
C2142 C2143 1.502 . S
C2142 C2144 1.561 . S
C2142 C2145 1.526 . S
C2143 H2127 0.959 . S
C2143 H2128 0.959 . S
C2143 H2129 0.961 . S
C2143 C2142 1.502 . S
C2144 H2130 0.960 . S
C2144 H2131 0.961 . S
C2144 H2132 0.959 . S
C2144 C2142 1.561 . S
C2145 C2142 1.526 . S
C2145 C2146 1.396 . S
C2145 C2150 1.390 . S
C2146 C2140 1.465 . S
C2146 C2145 1.396 . S
C2146 C2147 1.399 . S
C2147 H2133 0.929 . S
C2147 C2146 1.399 . S
C2147 C2148 1.385 . S
C2148 H2134 0.931 . S
C2148 C2147 1.385 . S
C2148 C2149 1.389 . S
C2149 C2148 1.389 . S
C2149 C2150 1.387 . S
C2150 H2135 0.930 . S
C2150 C2145 1.390 . S
C2150 C2149 1.387 . S
H2151 C2163 0.930 . S
H2152 C2165 0.930 . S
H2153 C2166 0.930 . S
H2154 C2170 0.959 . S
H2155 C2170 0.959 . S
H2156 C2170 0.961 . S
H2157 C2171 0.960 . S
H2158 C2171 0.961 . S
H2159 C2171 0.959 . S
H2160 C2174 0.929 . S
H2161 C2175 0.931 . S
H2162 C2177 0.930 . S
C2163 H2151 0.930 . S
C2163 C2164 1.399 . S
C2163 C2168 1.399 . S
C2164 C2163 1.399 . S
C2164 C2165 1.376 . S
C2165 H2152 0.930 . S
C2165 C2164 1.376 . S
C2165 C2166 1.388 . S
C2166 H2153 0.930 . S
C2166 C2165 1.388 . S
C2166 C2167 1.390 . S
C2167 C2166 1.390 . S
C2167 C2168 1.394 . S
C2167 C2173 1.465 . S
C2168 C2163 1.399 . S
C2168 C2167 1.394 . S
C2168 C2169 1.516 . S
C2169 C2168 1.516 . S
C2169 C2170 1.502 . S
C2169 C2171 1.561 . S
C2169 C2172 1.526 . S
C2170 H2154 0.959 . S
C2170 H2155 0.959 . S
C2170 H2156 0.961 . S
C2170 C2169 1.502 . S
C2171 H2157 0.960 . S
C2171 H2158 0.961 . S
C2171 H2159 0.959 . S
C2171 C2169 1.561 . S
C2172 C2169 1.526 . S
C2172 C2173 1.396 . S
C2172 C2177 1.390 . S
C2173 C2167 1.465 . S
C2173 C2172 1.396 . S
C2173 C2174 1.399 . S
C2174 H2160 0.929 . S
C2174 C2173 1.399 . S
C2174 C2175 1.385 . S
C2175 H2161 0.931 . S
C2175 C2174 1.385 . S
C2175 C2176 1.389 . S
C2176 C2175 1.389 . S
C2176 C2177 1.387 . S
C2177 H2162 0.930 . S
C2177 C2172 1.390 . S
C2177 C2176 1.387 . S
H2178 C2190 0.930 . S
H2179 C2192 0.930 . S
H2180 C2193 0.930 . S
H2181 C2197 0.959 . S
H2182 C2197 0.959 . S
H2183 C2197 0.961 . S
H2184 C2198 0.960 . S
H2185 C2198 0.961 . S
H2186 C2198 0.959 . S
H2187 C2201 0.929 . S
H2188 C2202 0.931 . S
H2189 C2204 0.930 . S
C2190 H2178 0.930 . S
C2190 C2191 1.399 . S
C2190 C2195 1.399 . S
C2191 C2190 1.399 . S
C2191 C2192 1.376 . S
C2192 H2179 0.930 . S
C2192 C2191 1.376 . S
C2192 C2193 1.388 . S
C2193 H2180 0.930 . S
C2193 C2192 1.388 . S
C2193 C2194 1.390 . S
C2194 C2193 1.390 . S
C2194 C2195 1.394 . S
C2194 C2200 1.465 . S
C2195 C2190 1.399 . S
C2195 C2194 1.394 . S
C2195 C2196 1.516 . S
C2196 C2195 1.516 . S
C2196 C2197 1.502 . S
C2196 C2198 1.561 . S
C2196 C2199 1.526 . S
C2197 H2181 0.959 . S
C2197 H2182 0.959 . S
C2197 H2183 0.961 . S
C2197 C2196 1.502 . S
C2198 H2184 0.960 . S
C2198 H2185 0.961 . S
C2198 H2186 0.959 . S
C2198 C2196 1.561 . S
C2199 C2196 1.526 . S
C2199 C2200 1.396 . S
C2199 C2204 1.390 . S
C2200 C2194 1.465 . S
C2200 C2199 1.396 . S
C2200 C2201 1.399 . S
C2201 H2187 0.929 . S
C2201 C2200 1.399 . S
C2201 C2202 1.385 . S
C2202 H2188 0.931 . S
C2202 C2201 1.385 . S
C2202 C2203 1.389 . S
C2203 C2202 1.389 . S
C2203 C2204 1.387 . S
C2204 H2189 0.930 . S
C2204 C2199 1.390 . S
C2204 C2203 1.387 . S
H2205 C2217 0.930 . S
H2206 C2219 0.930 . S
H2207 C2220 0.930 . S
H2208 C2224 0.959 . S
H2209 C2224 0.959 . S
H2210 C2224 0.961 . S
H2211 C2225 0.960 . S
H2212 C2225 0.961 . S
H2213 C2225 0.959 . S
H2214 C2228 0.929 . S
H2215 C2229 0.931 . S
H2216 C2231 0.930 . S
C2217 H2205 0.930 . S
C2217 C2218 1.399 . S
C2217 C2222 1.399 . S
C2218 C2217 1.399 . S
C2218 C2219 1.376 . S
C2219 H2206 0.930 . S
C2219 C2218 1.376 . S
C2219 C2220 1.388 . S
C2220 H2207 0.930 . S
C2220 C2219 1.388 . S
C2220 C2221 1.390 . S
C2221 C2220 1.390 . S
C2221 C2222 1.394 . S
C2221 C2227 1.465 . S
C2222 C2217 1.399 . S
C2222 C2221 1.394 . S
C2222 C2223 1.516 . S
C2223 C2222 1.516 . S
C2223 C2224 1.502 . S
C2223 C2225 1.561 . S
C2223 C2226 1.526 . S
C2224 H2208 0.959 . S
C2224 H2209 0.959 . S
C2224 H2210 0.961 . S
C2224 C2223 1.502 . S
C2225 H2211 0.960 . S
C2225 H2212 0.961 . S
C2225 H2213 0.959 . S
C2225 C2223 1.561 . S
C2226 C2223 1.526 . S
C2226 C2227 1.396 . S
C2226 C2231 1.390 . S
C2227 C2221 1.465 . S
C2227 C2226 1.396 . S
C2227 C2228 1.399 . S
C2228 H2214 0.929 . S
C2228 C2227 1.399 . S
C2228 C2229 1.385 . S
C2229 H2215 0.931 . S
C2229 C2228 1.385 . S
C2229 C2230 1.389 . S
C2230 C2229 1.389 . S
C2230 C2231 1.387 . S
C2231 H2216 0.930 . S
C2231 C2226 1.390 . S
C2231 C2230 1.387 . S
H2232 C2244 0.930 . S
H2233 C2246 0.930 . S
H2234 C2247 0.930 . S
H2235 C2251 0.959 . S
H2236 C2251 0.959 . S
H2237 C2251 0.961 . S
H2238 C2252 0.960 . S
H2239 C2252 0.961 . S
H2240 C2252 0.959 . S
H2241 C2255 0.929 . S
H2242 C2256 0.931 . S
H2243 C2258 0.930 . S
C2244 H2232 0.930 . S
C2244 C2245 1.399 . S
C2244 C2249 1.399 . S
C2245 C2244 1.399 . S
C2245 C2246 1.376 . S
C2246 H2233 0.930 . S
C2246 C2245 1.376 . S
C2246 C2247 1.388 . S
C2247 H2234 0.930 . S
C2247 C2246 1.388 . S
C2247 C2248 1.390 . S
C2248 C2247 1.390 . S
C2248 C2249 1.394 . S
C2248 C2254 1.465 . S
C2249 C2244 1.399 . S
C2249 C2248 1.394 . S
C2249 C2250 1.516 . S
C2250 C2249 1.516 . S
C2250 C2251 1.502 . S
C2250 C2252 1.561 . S
C2250 C2253 1.526 . S
C2251 H2235 0.959 . S
C2251 H2236 0.959 . S
C2251 H2237 0.961 . S
C2251 C2250 1.502 . S
C2252 H2238 0.960 . S
C2252 H2239 0.961 . S
C2252 H2240 0.959 . S
C2252 C2250 1.561 . S
C2253 C2250 1.526 . S
C2253 C2254 1.396 . S
C2253 C2258 1.390 . S
C2254 C2248 1.465 . S
C2254 C2253 1.396 . S
C2254 C2255 1.399 . S
C2255 H2241 0.929 . S
C2255 C2254 1.399 . S
C2255 C2256 1.385 . S
C2256 H2242 0.931 . S
C2256 C2255 1.385 . S
C2256 C2257 1.389 . S
C2257 C2256 1.389 . S
C2257 C2258 1.387 . S
C2258 H2243 0.930 . S
C2258 C2253 1.390 . S
C2258 C2257 1.387 . S
H2259 C2271 0.930 . S
H2260 C2273 0.930 . S
H2261 C2274 0.930 . S
H2262 C2278 0.959 . S
H2263 C2278 0.959 . S
H2264 C2278 0.961 . S
H2265 C2279 0.960 . S
H2266 C2279 0.961 . S
H2267 C2279 0.959 . S
H2268 C2282 0.929 . S
H2269 C2283 0.931 . S
H2270 C2285 0.930 . S
C2271 H2259 0.930 . S
C2271 C2272 1.399 . S
C2271 C2276 1.399 . S
C2272 C2271 1.399 . S
C2272 C2273 1.376 . S
C2273 H2260 0.930 . S
C2273 C2272 1.376 . S
C2273 C2274 1.388 . S
C2274 H2261 0.930 . S
C2274 C2273 1.388 . S
C2274 C2275 1.390 . S
C2275 C2274 1.390 . S
C2275 C2276 1.394 . S
C2275 C2281 1.465 . S
C2276 C2271 1.399 . S
C2276 C2275 1.394 . S
C2276 C2277 1.516 . S
C2277 C2276 1.516 . S
C2277 C2278 1.502 . S
C2277 C2279 1.561 . S
C2277 C2280 1.526 . S
C2278 H2262 0.959 . S
C2278 H2263 0.959 . S
C2278 H2264 0.961 . S
C2278 C2277 1.502 . S
C2279 H2265 0.960 . S
C2279 H2266 0.961 . S
C2279 H2267 0.959 . S
C2279 C2277 1.561 . S
C2280 C2277 1.526 . S
C2280 C2281 1.396 . S
C2280 C2285 1.390 . S
C2281 C2275 1.465 . S
C2281 C2280 1.396 . S
C2281 C2282 1.399 . S
C2282 H2268 0.929 . S
C2282 C2281 1.399 . S
C2282 C2283 1.385 . S
C2283 H2269 0.931 . S
C2283 C2282 1.385 . S
C2283 C2284 1.389 . S
C2284 C2283 1.389 . S
C2284 C2285 1.387 . S
C2285 H2270 0.930 . S
C2285 C2280 1.390 . S
C2285 C2284 1.387 . S
H2286 C2298 0.930 . S
H2287 C2300 0.930 . S
H2288 C2301 0.930 . S
H2289 C2305 0.959 1_655 S
H2290 C2305 0.989 . S
H2291 C2305 0.961 . S
H2292 C2306 0.960 . S
H2293 C2306 0.961 . S
H2294 C2306 0.959 . S
H2295 C2309 0.929 . S
H2296 C2310 0.931 . S
H2297 C2312 0.930 . S
C2298 H2286 0.930 . S
C2298 C2299 1.399 . S
C2298 C2303 1.399 . S
C2299 C2298 1.399 . S
C2299 C2300 1.376 . S
C2300 H2287 0.930 . S
C2300 C2299 1.376 . S
C2300 C2301 1.388 . S
C2301 H2288 0.930 . S
C2301 C2300 1.388 . S
C2301 C2302 1.390 . S
C2302 C2301 1.390 . S
C2302 C2303 1.394 . S
C2302 C2308 1.465 1_455 S
C2303 C2298 1.399 . S
C2303 C2302 1.394 . S
C2303 C2304 1.516 . S
C2304 C2303 1.516 . S
C2304 C2305 1.502 . S
C2304 C2306 1.561 . S
C2304 C2307 1.526 1_455 S
C2305 H2289 0.959 1_455 S
C2305 H2290 0.989 . S
C2305 H2291 0.961 . S
C2305 C2304 1.502 . S
C2306 H2292 0.960 . S
C2306 H2293 0.961 . S
C2306 H2294 0.959 . S
C2306 C2304 1.561 . S
C2307 C2304 1.526 1_655 S
C2307 C2308 1.396 . S
C2307 C2312 1.390 . S
C2308 C2302 1.465 1_655 S
C2308 C2307 1.396 . S
C2308 C2309 1.399 . S
C2309 H2295 0.929 . S
C2309 C2308 1.399 . S
C2309 C2310 1.385 . S
C2310 H2296 0.931 . S
C2310 C2309 1.385 . S
C2310 C2311 1.389 . S
C2311 C2310 1.389 . S
C2311 C2312 1.387 . S
C2312 H2297 0.930 . S
C2312 C2307 1.390 . S
C2312 C2311 1.387 . S
H2313 C2325 0.930 . S
H2314 C2327 0.930 . S
H2315 C2328 0.930 . S
H2316 C2332 0.959 . S
H2317 C2332 0.959 . S
H2318 C2332 0.961 . S
H2319 C2333 0.960 . S
H2320 C2333 0.961 . S
H2321 C2333 0.959 . S
H2322 C2336 0.929 . S
H2323 C2337 0.931 . S
H2324 C2339 0.930 . S
C2325 H2313 0.930 . S
C2325 C2326 1.399 . S
C2325 C2330 1.399 . S
C2326 C2325 1.399 . S
C2326 C2327 1.376 . S
C2327 H2314 0.930 . S
C2327 C2326 1.376 . S
C2327 C2328 1.388 . S
C2328 H2315 0.930 . S
C2328 C2327 1.388 . S
C2328 C2329 1.390 . S
C2329 C2328 1.390 . S
C2329 C2330 1.394 . S
C2329 C2335 1.465 . S
C2330 C2325 1.399 . S
C2330 C2329 1.394 . S
C2330 C2331 1.516 . S
C2331 C2330 1.516 . S
C2331 C2332 1.502 . S
C2331 C2333 1.561 . S
C2331 C2334 1.526 . S
C2332 H2316 0.959 . S
C2332 H2317 0.959 . S
C2332 H2318 0.961 . S
C2332 C2331 1.502 . S
C2333 H2319 0.960 . S
C2333 H2320 0.961 . S
C2333 H2321 0.959 . S
C2333 C2331 1.561 . S
C2334 C2331 1.526 . S
C2334 C2335 1.396 . S
C2334 C2339 1.390 . S
C2335 C2329 1.465 . S
C2335 C2334 1.396 . S
C2335 C2336 1.399 . S
C2336 H2322 0.929 . S
C2336 C2335 1.399 . S
C2336 C2337 1.385 . S
C2337 H2323 0.931 . S
C2337 C2336 1.385 . S
C2337 C2338 1.389 . S
C2338 C2337 1.389 . S
C2338 C2339 1.387 . S
C2339 H2324 0.930 . S
C2339 C2334 1.390 . S
C2339 C2338 1.387 . S
H2340 C2352 0.930 . S
H2341 C2354 0.930 . S
H2342 C2355 0.930 . S
H2343 C2359 0.959 . S
H2344 C2359 0.959 . S
H2345 C2359 0.961 . S
H2346 C2360 0.960 . S
H2347 C2360 0.961 . S
H2348 C2360 0.959 . S
H2349 C2363 0.929 . S
H2350 C2364 0.931 . S
H2351 C2366 0.930 . S
C2352 H2340 0.930 . S
C2352 C2353 1.399 . S
C2352 C2357 1.399 . S
C2353 C2352 1.399 . S
C2353 C2354 1.376 . S
C2354 H2341 0.930 . S
C2354 C2353 1.376 . S
C2354 C2355 1.388 . S
C2355 H2342 0.930 . S
C2355 C2354 1.388 . S
C2355 C2356 1.390 . S
C2356 C2355 1.390 . S
C2356 C2357 1.394 . S
C2356 C2362 1.465 1_545 S
C2357 C2352 1.399 . S
C2357 C2356 1.394 . S
C2357 C2358 1.516 . S
C2358 C2357 1.516 . S
C2358 C2359 1.502 . S
C2358 C2360 1.561 . S
C2358 C2361 1.526 1_545 S
C2359 H2343 0.959 . S
C2359 H2344 0.959 . S
C2359 H2345 0.961 . S
C2359 C2358 1.502 . S
C2360 H2346 0.960 . S
C2360 H2347 0.961 . S
C2360 H2348 0.959 . S
C2360 C2358 1.561 . S
C2361 C2358 1.526 1_565 S
C2361 C2362 1.396 . S
C2361 C2366 1.390 . S
C2362 C2356 1.465 1_565 S
C2362 C2361 1.396 . S
C2362 C2363 1.399 . S
C2363 H2349 0.929 . S
C2363 C2362 1.399 . S
C2363 C2364 1.385 . S
C2364 H2350 0.931 . S
C2364 C2363 1.385 . S
C2364 C2365 1.389 . S
C2365 C2364 1.389 . S
C2365 C2366 1.387 . S
C2366 H2351 0.930 . S
C2366 C2361 1.390 . S
C2366 C2365 1.387 . S
H2367 C2379 0.930 . S
H2368 C2381 0.930 . S
H2369 C2382 0.930 . S
H2370 C2386 0.959 . S
H2371 C2386 0.959 . S
H2372 C2386 0.961 . S
H2373 C2387 0.960 . S
H2374 C2387 0.961 . S
H2375 C2387 0.959 . S
H2376 C2390 0.929 1_545 S
H2377 C2391 0.931 . S
H2378 C2393 0.930 1_556 S
C2379 H2367 0.930 . S
C2379 C2380 1.399 . S
C2379 C2384 1.399 . S
C2380 C2379 1.399 . S
C2380 C2381 1.376 . S
C2381 H2368 0.930 . S
C2381 C2380 1.376 . S
C2381 C2382 1.388 1_556 S
C2382 H2369 0.930 . S
C2382 C2381 1.388 1_554 S
C2382 C2383 1.390 . S
C2383 C2382 1.390 . S
C2383 C2384 1.394 1_554 S
C2383 C2389 1.465 1_545 S
C2384 C2379 1.399 . S
C2384 C2383 1.394 1_556 S
C2384 C2385 1.516 1_545 S
C2385 C2384 1.516 1_565 S
C2385 C2386 1.502 . S
C2385 C2387 1.561 . S
C2385 C2388 1.542 . S
C2386 H2370 0.959 . S
C2386 H2371 0.959 . S
C2386 H2372 0.961 . S
C2386 C2385 1.502 . S
C2387 H2373 0.960 . S
C2387 H2374 0.961 . S
C2387 H2375 0.959 . S
C2387 C2385 1.561 . S
C2388 C2385 1.542 . S
C2388 C2389 1.385 1_556 S
C2388 C2393 1.384 1_556 S
C2389 C2383 1.465 1_565 S
C2389 C2388 1.385 1_554 S
C2389 C2390 1.399 . S
C2390 H2376 0.929 1_565 S
C2390 C2389 1.399 . S
C2390 C2391 1.385 . S
C2391 H2377 0.931 . S
C2391 C2390 1.385 . S
C2391 C2392 1.389 . S
C2392 C2391 1.389 . S
C2392 C2393 1.387 . S
C2393 H2378 0.930 1_554 S
C2393 C2388 1.384 1_554 S
C2393 C2392 1.387 . S
H2394 C2406 0.930 . S
H2395 C2408 0.930 . S
H2396 C2409 0.930 . S
H2397 C2413 0.959 . S
H2398 C2413 0.959 . S
H2399 C2413 0.961 . S
H2400 C2414 0.960 1_655 S
H2401 C2414 0.961 . S
H2402 C2414 0.959 1_655 S
H2403 C2417 0.929 . S
H2404 C2418 0.931 . S
H2405 C2420 0.930 1_556 S
C2406 H2394 0.930 . S
C2406 C2407 1.399 . S
C2406 C2411 1.399 . S
C2407 C2406 1.399 . S
C2407 C2408 1.376 1_556 S
C2408 H2395 0.930 . S
C2408 C2407 1.376 1_554 S
C2408 C2409 1.388 . S
C2409 H2396 0.930 . S
C2409 C2408 1.388 . S
C2409 C2410 1.390 . S
C2410 C2409 1.390 . S
C2410 C2411 1.394 1_554 S
C2410 C2416 1.465 1_655 S
C2411 C2406 1.399 . S
C2411 C2410 1.394 1_556 S
C2411 C2412 1.516 1_655 S
C2412 C2411 1.516 1_455 S
C2412 C2413 1.502 . S
C2412 C2414 1.561 . S
C2412 C2415 1.526 . S
C2413 H2397 0.959 . S
C2413 H2398 0.959 . S
C2413 H2399 0.961 . S
C2413 C2412 1.502 . S
C2414 H2400 0.960 1_455 S
C2414 H2401 0.961 . S
C2414 H2402 0.959 1_455 S
C2414 C2412 1.561 . S
C2415 C2412 1.526 . S
C2415 C2416 1.396 1_556 S
C2415 C2420 1.390 1_556 S
C2416 C2410 1.465 1_455 S
C2416 C2415 1.396 1_554 S
C2416 C2417 1.399 . S
C2417 H2403 0.929 . S
C2417 C2416 1.399 . S
C2417 C2418 1.385 . S
C2418 H2404 0.931 . S
C2418 C2417 1.385 . S
C2418 C2419 1.389 . S
C2419 C2418 1.389 . S
C2419 C2420 1.387 . S
C2420 H2405 0.930 1_554 S
C2420 C2415 1.390 1_554 S
C2420 C2419 1.387 . S
H2421 C2433 0.930 . S
H2422 C2435 0.930 . S
H2423 C2436 0.930 . S
H2424 C2440 0.959 . S
H2425 C2440 0.959 . S
H2426 C2440 0.961 . S
H2427 C2441 0.960 . S
H2428 C2441 0.961 . S
H2429 C2441 0.959 . S
H2430 C2444 0.929 . S
H2431 C2445 0.931 . S
H2432 C2447 0.930 . S
C2433 H2421 0.930 . S
C2433 C2434 1.399 . S
C2433 C2438 1.399 . S
C2434 C2433 1.399 . S
C2434 C2435 1.376 . S
C2435 H2422 0.930 . S
C2435 C2434 1.376 . S
C2435 C2436 1.388 . S
C2436 H2423 0.930 . S
C2436 C2435 1.388 . S
C2436 C2437 1.390 . S
C2437 C2436 1.390 . S
C2437 C2438 1.394 . S
C2437 C2443 1.465 1_556 S
C2438 C2433 1.399 . S
C2438 C2437 1.394 . S
C2438 C2439 1.516 1_556 S
C2439 C2438 1.516 1_554 S
C2439 C2440 1.502 1_554 S
C2439 C2441 1.561 . S
C2439 C2442 1.526 . S
C2440 H2424 0.959 . S
C2440 H2425 0.959 . S
C2440 H2426 0.961 . S
C2440 C2439 1.502 1_556 S
C2441 H2427 0.960 . S
C2441 H2428 0.961 . S
C2441 H2429 0.959 . S
C2441 C2439 1.561 . S
C2442 C2439 1.526 . S
C2442 C2443 1.396 . S
C2442 C2447 1.390 . S
C2443 C2437 1.465 1_554 S
C2443 C2442 1.396 . S
C2443 C2444 1.399 . S
C2444 H2430 0.929 . S
C2444 C2443 1.399 . S
C2444 C2445 1.385 . S
C2445 H2431 0.931 . S
C2445 C2444 1.385 . S
C2445 C2446 1.389 . S
C2446 C2445 1.389 . S
C2446 C2447 1.387 . S
C2447 H2432 0.930 . S
C2447 C2442 1.390 . S
C2447 C2446 1.387 . S
C517 C3 1.328 . S
C529 C107 1.254 . S
C544 C17 1.287 . S
C556 C121 1.290 . S
C571 C93 1.319 . S
C583 C31 1.299 . S
C598 C163 1.320 . S
C610 C45 1.297 . S
C625 C59 1.313 . S
C637 C135 1.304 . S
C652 C73 1.299 . S
C664 C149 1.318 . S
C679 C23 1.319 . S
C691 C87 1.312 . S
C706 C37 1.307 . S
C718 C101 1.292 . S
C733 C115 1.302 . S
C745 C9 1.318 . S
C760 C129 1.327 . S
C772 C79 1.269 . S
C787 C51 1.281 . S
C799 C143 1.286 . S
C814 C157 1.299 . S
C826 C65 1.317 . S
C841 C275 1.264 . S
C853 C171 1.328 . S
C868 C185 1.318 . S
C880 C289 1.242 . S
C895 C199 1.328 . S
C907 C261 1.268 . S
C922 C331 1.240 . S
C934 C213 1.318 . S
C949 C227 1.296 . S
C961 C303 1.319 . S
C976 C317 1.301 . S
C988 C241 1.287 . S
C1003 C191 1.242 . S
C1015 C255 1.302 . S
C1030 C269 1.287 . S
C1042 C205 1.268 . S
C1057 C177 1.304 . S
C1069 C283 1.324 . S
C1084 C297 1.326 . S
C1096 C247 1.262 . S
C1111 C311 1.327 . S
C1123 C219 1.268 . S
C1138 C325 1.327 . S
C1150 C233 1.270 . S
C1165 C443 1.318 . S
C1177 C339 1.290 . S
C1192 C457 1.266 . S
C1204 C353 1.296 . S
C1219 C429 1.308 . S
C1231 C367 1.311 . S
C1246 C381 1.328 . S
C1258 C499 1.252 . S
C1273 C395 1.295 . S
C1285 C471 1.319 . S
C1300 C485 1.303 . S
C1312 C409 1.287 . S
C1327 C423 1.328 . S
C1339 C359 1.290 . S
C1354 C373 1.319 . S
C1366 C437 1.303 . S
C1381 C345 1.242 . S
C1393 C451 1.313 . S
C1408 C465 1.312 . S
C1420 C415 1.242 . S
C1435 C479 1.311 . S
C1447 C387 1.319 . S
C1462 C493 1.323 . S
C1474 C401 1.254 . S
C1489 C49 1.309 . S
C1501 C7 1.357 . S
C1516 C63 1.337 . S
C1528 C21 1.299 . S
C1543 C35 1.340 . S
C1555 C77 1.364 . S
C1570 C133 1.337 . S
C1582 C91 1.303 . S
C1597 C147 1.322 . S
C1609 C105 1.313 . S
C1624 C161 1.365 . S
C1636 C119 1.315 . S
C1651 C217 1.299 . S
C1663 C175 1.341 . S
C1678 C231 1.331 . S
C1690 C189 1.299 . S
C1705 C203 1.364 . S
C1717 C245 1.321 . S
C1732 C301 1.356 1_554 S
C1744 C259 1.299 . S
C1759 C315 1.298 1_554 S
C1771 C273 1.350 . S
C1786 C329 1.354 1_554 S
C1798 C287 1.299 . S
C1813 C385 1.299 1_556 S
C1825 C343 1.325 . S
C1840 C357 1.314 . S
C1852 C399 1.361 1_556 S
C1867 C413 1.362 1_556 S
C1879 C371 1.346 . S
C1894 C427 1.316 . S
C1906 C469 1.364 . S
C1921 C441 1.299 . S
C1933 C483 1.346 . S
C1948 C455 1.324 . S
C1960 C497 1.312 . S
C1975 C8 1.418 . S
C1987 C260 1.435 . S
C2002 C274 1.436 . S
C2014 C22 1.416 . S
C2029 C288 1.436 . S
C2041 C36 1.416 . S
C2056 C470 1.414 . S
C2068 C50 1.436 . S
C2083 C484 1.432 . S
C2095 C64 1.422 . S
C2110 C498 1.420 . S
C2122 C78 1.433 . S
C2137 C92 1.427 . S
C2149 C344 1.421 . S
C2164 C358 1.418 . S
C2176 C106 1.434 . S
C2191 C372 1.425 . S
C2203 C120 1.429 . S
C2218 C134 1.415 . S
C2230 C218 1.435 . S
C2245 C148 1.436 . S
C2257 C232 1.416 . S
C2272 C162 1.422 . S
C2284 C246 1.431 . S
C2299 C428 1.430 . S
C2311 C176 1.418 . S
C2326 C442 1.428 . S
C2338 C190 1.427 . S
C2353 C204 1.427 . S
C2365 C456 1.420 . S
C2380 C302 1.414 . S
C2392 C386 1.436 . S
C2407 C316 1.416 . S
C2419 C400 1.432 . S
C2434 C330 1.430 . S
C2446 C414 1.418 . S
