# Generated by pormake.
# Topology snz, (6)-cn, num edge types: 1
# Building blocks:
#     Node 0, Type 0, BuildingBlock: KUMBOL_clean_sbu_1, # of connection points: 6
#     Node 1, Type 0, BuildingBlock: KUMBOL_clean_sbu_1, # of connection points: 6
#     Node 2, Type 0, BuildingBlock: KUMBOL_clean_sbu_1, # of connection points: 6
#     Node 3, Type 0, BuildingBlock: KUMBOL_clean_sbu_1, # of connection points: 6
#     Node 4, Type 0, BuildingBlock: KUMBOL_clean_sbu_1, # of connection points: 6
#     Node 5, Type 0, BuildingBlock: KUMBOL_clean_sbu_1, # of connection points: 6
#     Node 6, Type 0, BuildingBlock: KUMBOL_clean_sbu_1, # of connection points: 6
#     Node 7, Type 0, BuildingBlock: KUMBOL_clean_sbu_1, # of connection points: 6
#     Node 8, Type 0, BuildingBlock: KUMBOL_clean_sbu_1, # of connection points: 6
#     Edge 9, Type (0, 0), BuildingBlock: KIFKEQ_clean_linker_1, # of connection points: 2
#     Edge 10, Type (0, 0), BuildingBlock: KIFKEQ_clean_linker_1, # of connection points: 2
#     Edge 11, Type (0, 0), BuildingBlock: KIFKEQ_clean_linker_1, # of connection points: 2
#     Edge 12, Type (0, 0), BuildingBlock: KIFKEQ_clean_linker_1, # of connection points: 2
#     Edge 13, Type (0, 0), BuildingBlock: KIFKEQ_clean_linker_1, # of connection points: 2
#     Edge 14, Type (0, 0), BuildingBlock: KIFKEQ_clean_linker_1, # of connection points: 2
#     Edge 15, Type (0, 0), BuildingBlock: KIFKEQ_clean_linker_1, # of connection points: 2
#     Edge 16, Type (0, 0), BuildingBlock: KIFKEQ_clean_linker_1, # of connection points: 2
#     Edge 17, Type (0, 0), BuildingBlock: KIFKEQ_clean_linker_1, # of connection points: 2
#     Edge 18, Type (0, 0), BuildingBlock: KIFKEQ_clean_linker_1, # of connection points: 2
#     Edge 19, Type (0, 0), BuildingBlock: KIFKEQ_clean_linker_1, # of connection points: 2
#     Edge 20, Type (0, 0), BuildingBlock: KIFKEQ_clean_linker_1, # of connection points: 2
#     Edge 21, Type (0, 0), BuildingBlock: KIFKEQ_clean_linker_1, # of connection points: 2
#     Edge 22, Type (0, 0), BuildingBlock: KIFKEQ_clean_linker_1, # of connection points: 2
#     Edge 23, Type (0, 0), BuildingBlock: KIFKEQ_clean_linker_1, # of connection points: 2
#     Edge 24, Type (0, 0), BuildingBlock: KIFKEQ_clean_linker_1, # of connection points: 2
#     Edge 25, Type (0, 0), BuildingBlock: KIFKEQ_clean_linker_1, # of connection points: 2
#     Edge 26, Type (0, 0), BuildingBlock: KIFKEQ_clean_linker_1, # of connection points: 2
#     Edge 27, Type (0, 0), BuildingBlock: KIFKEQ_clean_linker_1, # of connection points: 2
#     Edge 28, Type (0, 0), BuildingBlock: KIFKEQ_clean_linker_1, # of connection points: 2
#     Edge 29, Type (0, 0), BuildingBlock: KIFKEQ_clean_linker_1, # of connection points: 2
#     Edge 30, Type (0, 0), BuildingBlock: KIFKEQ_clean_linker_1, # of connection points: 2
#     Edge 31, Type (0, 0), BuildingBlock: KIFKEQ_clean_linker_1, # of connection points: 2
#     Edge 32, Type (0, 0), BuildingBlock: KIFKEQ_clean_linker_1, # of connection points: 2
#     Edge 33, Type (0, 0), BuildingBlock: KIFKEQ_clean_linker_1, # of connection points: 2
#     Edge 34, Type (0, 0), BuildingBlock: KIFKEQ_clean_linker_1, # of connection points: 2
#     Edge 35, Type (0, 0), BuildingBlock: KIFKEQ_clean_linker_1, # of connection points: 2
# Relax obj value: 0.238
# Max RMSD: 0.167
# Mean RMSD: 0.113
data_MOF--net-snz--node1-KUMBOL_clean_sbu_1--edge1-KIFKEQ_clean_linker_1
_symmetry_space_group_name_H-M    P1
_symmetry_Int_Tables_number       1
_symmetry_cell_setting            triclinic
loop_
_symmetry_equiv_pos_as_xyz
'x, y, z'
_cell_length_a     66.746074
_cell_length_b     54.082722
_cell_length_c     16.945723
_cell_angle_alpha  96.537489
_cell_angle_beta   95.854414
_cell_angle_gamma 120.9251
loop_
_atom_site_label
_atom_site_type_symbol
_atom_site_fract_x
_atom_site_fract_y
_atom_site_fract_z
_atom_type_partial_charge
C0 C 0.14559 0.53398 0.11777 0.0
C1 C 0.17343 0.57761 0.21821 0.0
C2 C 0.15101 0.55135 0.19243 0.0
C3 C 0.18949 0.58723 0.16468 0.0
C4 C 0.16236 0.54227 0.06628 0.0
C5 C 0.18396 0.56955 0.08874 0.0
N6 N 0.12493 0.50745 0.0995 0.0
C7 C 0.12088 0.48693 1.03463 0.0
C8 C 0.15744 0.5222 0.99609 0.0
C9 C 0.13684 0.49416 0.98115 0.0
Gd10 Gd 0.04245 0.50548 0.16333 0.0
Gd11 Gd 0.09791 0.49791 0.18783 0.0
N12 N 0.13539 0.5408 0.24319 0.0
C13 C 0.17956 0.59242 0.29844 0.0
C14 C 0.14225 0.55353 0.32351 0.0
C15 C 0.16412 0.57992 0.35185 0.0
H16 H 0.13038 0.54389 0.36511 0.0
H17 H 0.16906 0.59054 0.41481 0.0
H18 H 0.02764 0.52104 0.98694 0.0
H19 H 0.10484 0.46531 1.02281 0.0
H20 H 0.99832 0.49438 0.85928 0.0
H21 H 0.19659 0.61269 0.32067 0.0
H22 H 0.20667 0.60758 0.18288 0.0
H23 H 0.01578 0.46834 0.30812 0.0
H24 H 0.16986 0.52769 0.95494 0.0
H25 H 0.13321 0.47814 0.92842 0.0
H26 H 0.94394 0.39971 0.91543 0.0
H27 H 0.19694 0.57654 1.0495 0.0
H28 H 0.95191 0.38814 0.19057 0.0
H29 H 0.9806 0.42099 0.31535 0.0
N30 N 1.00785 0.46227 0.17965 0.0
C31 C 0.99142 0.44543 0.11132 0.0
C32 C 1.00357 0.45437 0.25296 0.0
C33 C 0.96739 0.40898 0.18689 0.0
C34 C 0.98354 0.42747 0.25744 0.0
C35 C 0.97094 0.41812 0.11283 0.0
H36 H 0.93879 0.37994 1.04067 0.0
N37 N 0.01331 0.48386 1.0435 0.0
C38 C 0.99442 0.45644 1.04076 0.0
C39 C 0.97893 0.45404 0.90291 0.0
C40 C 0.9769 0.44057 0.96996 0.0
C41 C 0.01398 0.49812 0.9812 0.0
C42 C 0.99722 0.48324 0.90933 0.0
O43 O 0.10016 0.54002 0.2448 0.0
O44 O 0.07744 0.54312 0.14431 0.0
O45 O 0.01771 0.5205 0.14821 0.0
O46 O 0.04636 0.54096 0.25102 0.0
O47 O 0.08614 0.49979 0.31499 0.0
O48 O 0.05485 0.50742 0.30298 0.0
O49 O 0.03988 0.46238 0.17468 0.0
O50 O 0.06527 0.46276 0.0971 0.0
O51 O 0.08563 0.45764 0.23549 0.0
O52 O 0.12198 0.48305 0.22003 0.0
O53 O 0.05745 0.51007 1.03984 0.0
O54 O 0.08644 0.49835 1.04852 0.0
C55 C 0.09586 0.55641 0.20337 0.0
C56 C 0.07044 0.50371 0.34943 0.0
C57 C 0.03498 0.57184 0.19673 0.0
C58 C 0.02373 0.6037 0.13815 0.0
C59 C 0.06258 0.62485 0.22347 0.0
C60 C 0.05706 0.59703 0.23416 0.0
C61 C 0.04616 0.6282 0.1759 0.0
C62 C 0.01814 0.5754 0.14938 0.0
C63 C 0.02949 0.54227 0.20944 0.0
C64 C 0.95735 0.41245 0.96965 0.0
C65 C 0.95438 0.40123 1.04101 0.0
H66 H 0.96584 0.44261 0.84745 0.0
C67 C 0.04427 0.44876 0.11643 0.0
C68 C 0.07219 0.50454 1.00361 0.0
C69 C 0.10531 0.43181 0.21238 0.0
C70 C 0.11509 0.39444 0.23486 0.0
C71 C 0.09238 0.38997 0.10564 0.0
C72 C 0.09336 0.41586 0.13397 0.0
C73 C 0.10309 0.37939 0.15516 0.0
C74 C 0.11636 0.42114 0.26283 0.0
C75 C 0.10597 0.45931 0.24123 0.0
H76 H 0.07968 0.64399 0.25259 0.0
H77 H 0.07019 0.59536 0.27227 0.0
H78 H 0.05094 0.65019 0.16961 0.0
H79 H 1.00096 0.55628 0.12067 0.0
H80 H 0.0832 0.37795 1.04473 0.0
H81 H 0.08471 0.42344 0.09457 0.0
H82 H 0.10211 0.35936 0.13037 0.0
H83 H 0.12545 0.43323 0.32379 0.0
C84 C 0.61866 0.46998 0.12403 0.0
C85 C 0.60286 0.42768 1.01559 0.0
C86 C 0.60679 0.45559 1.0452 0.0
C87 C 0.61036 0.41415 0.06684 0.0
C88 C 0.62694 0.45687 0.17475 0.0
C89 C 0.62237 0.42871 0.14618 0.0
N90 N 0.62314 0.49738 0.14985 0.0
C91 C 0.63677 0.5134 0.22417 0.0
C92 C 0.64005 0.47271 0.25217 0.0
C93 C 0.6452 0.50122 0.27661 0.0
Gd94 Gd 0.55219 0.51965 1.03666 0.0
Gd95 Gd 0.60661 0.51494 1.05939 0.0
N96 N 0.59972 0.4692 0.9968 0.0
C97 C 0.59189 0.41435 0.93484 0.0
C98 C 0.58993 0.45675 0.91686 0.0
C99 C 0.58563 0.4291 0.88512 0.0
H100 H 0.58463 0.46753 0.8776 0.0
H101 H 0.57739 0.41912 0.82231 0.0
H102 H 0.57456 0.57182 0.20757 0.0
H103 H 0.64111 0.53567 0.24285 0.0
H104 H 0.57954 0.6199 0.25122 0.0
H105 H 0.58852 0.39291 0.90997 0.0
H106 H 0.60733 0.39265 1.04524 0.0
H107 H 0.51399 0.48985 0.86072 0.0
H108 H 0.6467 0.46337 0.29283 0.0
H109 H 0.65572 0.51386 0.33574 0.0
H110 H 0.54041 0.6332 1.0212 0.0
H111 H 0.62844 0.41822 0.18449 0.0
H112 H 0.49915 0.55355 0.79242 0.0
H113 H 0.49377 0.5044 0.76267 0.0
N114 N 0.53065 0.53044 0.944 0.0
C115 C 0.53349 0.55726 0.96225 0.0
C116 C 0.51631 0.5113 0.87404 0.0
C117 C 0.50805 0.54729 0.83544 0.0
C118 C 0.50491 0.51948 0.81851 0.0
C119 C 0.52228 0.56647 0.90839 0.0
H120 H 0.51693 0.60175 0.8888 0.0
N121 N 0.55649 0.56482 0.0883 0.0
C122 C 0.54675 0.57497 1.03677 0.0
C123 C 0.56141 0.61888 0.13709 0.0
C124 C 0.5491 0.60238 1.05953 0.0
C125 C 0.56734 0.58009 0.16565 0.0
C126 C 0.57032 0.60752 0.19067 0.0
O127 O 0.57055 0.47113 1.04188 0.0
O128 O 0.54666 0.47912 0.95806 0.0
O129 O 0.53272 0.48501 0.10242 0.0
O130 O 0.51565 0.5052 1.04381 0.0
O131 O 0.59563 0.5173 0.92243 0.0
O132 O 0.55995 0.5151 0.90403 0.0
O133 O 0.58744 0.56266 1.04594 0.0
O134 O 0.61206 0.55675 0.13286 0.0
O135 O 0.63128 0.54948 1.00158 0.0
O136 O 0.6435 0.5272 0.07145 0.0
O137 O 0.56491 0.52175 0.17591 0.0
O138 O 0.59855 0.51939 0.19168 0.0
C139 C 0.55116 0.4607 0.98709 0.0
C140 C 0.57823 0.51681 0.87289 0.0
C141 C 0.49097 0.45603 1.05913 0.0
C142 C 0.45493 0.41639 0.09333 0.0
C143 C 0.46286 0.4131 0.95654 0.0
C144 C 0.48395 0.44061 0.97926 0.0
C145 C 0.4484 0.40104 1.01297 0.0
C146 C 0.47651 0.44387 0.11592 0.0
C147 C 0.51312 0.48495 0.08451 0.0
C148 C 0.53864 0.61211 1.00501 0.0
C149 C 0.52526 0.59419 0.92962 0.0
H150 H 0.56369 0.6401 0.15676 0.0
C151 C 0.60675 0.57418 0.10107 0.0
C152 C 0.58145 0.52038 0.22438 0.0
C153 C 0.66104 0.54252 0.95887 0.0
C154 C 0.69701 0.55835 0.90104 0.0
C155 C 0.65914 0.51502 0.83185 0.0
C156 C 0.64801 0.51911 0.89271 0.0
C157 C 0.6834 0.53437 0.83589 0.0
C158 C 0.68566 0.56211 0.96332 0.0
C159 C 0.64885 0.5459 1.02343 0.0
H160 H 0.45756 0.40124 0.89474 0.0
H161 H 0.49473 0.44991 0.93464 0.0
H162 H 0.43183 0.38003 0.9931 0.0
H163 H 0.48215 0.45588 0.17777 0.0
H164 H 0.6489 0.49676 0.78122 0.0
H165 H 0.62919 0.50397 0.88805 0.0
H166 H 0.69156 0.53045 0.78788 0.0
H167 H 0.69579 0.58038 1.01408 0.0
C168 C 0.52473 0.98112 0.78022 0.0
C169 C 0.53429 0.95075 0.84996 0.0
C170 C 0.53575 0.97761 0.84785 0.0
C171 C 0.52275 0.92814 0.78109 0.0
C172 C 0.51213 0.95802 0.71231 0.0
C173 C 0.5117 0.93178 0.71234 0.0
N174 N 0.52497 1.00642 0.78314 0.0
C175 C 0.51212 1.00968 0.72176 0.0
C176 C 0.49974 0.96169 0.64754 0.0
C177 C 0.49953 0.98753 0.65271 0.0
Gd178 Gd 0.6051 0.11812 0.94626 0.0
Gd179 Gd 0.54825 0.04352 0.89777 0.0
N180 N 0.54639 0.99973 0.91367 0.0
C181 C 0.54365 0.94704 0.92222 0.0
C182 C 0.554 0.99544 0.98586 0.0
C183 C 0.55317 0.9693 0.99086 0.0
H184 H 0.56138 0.01247 1.0393 0.0
H185 H 0.5599 0.96637 1.04761 0.0
H186 H 0.58912 0.14452 0.79546 0.0
H187 H 0.51208 0.02973 0.72539 0.0
H188 H 0.59 0.18941 0.77734 0.0
H189 H 0.54292 0.92675 0.92636 0.0
H190 H 0.52165 0.90745 0.78123 0.0
H191 H 0.63909 0.13505 0.12642 0.0
H192 H 0.48985 0.94448 0.5942 0.0
H193 H 0.4897 0.9904 0.60354 0.0
H194 H 0.62974 0.25446 1.03483 0.0
H195 H 0.5023 0.91386 0.66045 0.0
H196 H 0.66088 0.22224 0.23922 0.0
H197 H 0.66062 0.17648 0.24331 0.0
N198 N 0.62716 0.15707 1.05756 0.0
C199 C 0.62753 0.18218 1.05333 0.0
C200 C 0.63923 0.15501 0.124 0.0
C201 C 0.65141 0.20413 0.18786 0.0
C202 C 0.65136 0.17837 0.19032 0.0
C203 C 0.63962 0.20641 0.11849 0.0
H204 H 0.64901 0.25104 0.16133 0.0
N205 N 0.60614 0.16067 0.91959 0.0
C206 C 0.61671 0.18407 0.98211 0.0
C207 C 0.60761 0.212 0.89987 0.0
C208 C 0.61765 0.21031 0.9741 0.0
C209 C 0.59724 0.16273 0.8459 0.0
C210 C 0.59756 0.1882 0.83532 0.0
O211 O 0.58229 0.04287 0.91202 0.0
O212 O 0.60692 0.08406 1.00731 0.0
O213 O 0.62446 0.10376 0.87739 0.0
O214 O 0.64283 0.14808 0.94734 0.0
O215 O 0.56111 0.05797 1.0413 0.0
O216 O 0.59357 0.10565 0.07229 0.0
O217 O 0.57082 0.11934 0.93207 0.0
O218 O 0.5448 0.07725 0.84045 0.0
O219 O 0.5302 0.05761 0.9738 0.0
O220 O 0.5118 0.0125 0.90605 0.0
O221 O 0.5926 0.10306 0.80299 0.0
O222 O 0.55862 0.05657 0.77161 0.0
C223 C 0.60028 0.05738 0.973 0.0
C224 C 0.57679 0.08204 0.09753 0.0
C225 C 0.66548 0.12577 0.93467 0.0
C226 C 0.70341 0.12907 0.92361 0.0
C227 C 0.68406 0.11224 1.03773 0.0
C228 C 0.66575 0.11588 1.00745 0.0
C229 C 0.70263 0.11864 0.99629 0.0
C230 C 0.68467 0.13282 0.89298 0.0
C231 C 0.64505 0.12841 0.90353 0.0
C232 C 0.62898 0.2342 1.03971 0.0
C233 C 0.63995 0.23226 0.11174 0.0
H234 H 0.60791 0.23174 0.89137 0.0
C235 C 0.55101 0.1035 0.8774 0.0
C236 C 0.57592 0.0797 0.7467 0.0
C237 C 0.48799 0.03119 0.94029 0.0
C238 C 0.45191 0.0228 0.98747 0.0
C239 C 0.45787 0.03279 0.85231 0.0
C240 C 0.47955 0.03442 0.86559 0.0
C241 C 0.44406 0.02689 0.9125 0.0
C242 C 0.47428 0.02565 1.00113 0.0
C243 C 0.51034 0.03179 0.95495 0.0
H244 H 0.68387 0.10444 0.09388 0.0
H245 H 0.65175 0.11095 1.04123 0.0
H246 H 0.71667 0.11577 1.02192 0.0
H247 H 0.68481 0.14065 0.83686 0.0
H248 H 0.45148 0.0354 0.79445 0.0
H249 H 0.48952 0.0377 0.81741 0.0
H250 H 0.4269 0.02457 0.89911 0.0
H251 H 0.48097 0.02313 1.05874 0.0
C252 C 0.80583 0.91355 0.36952 0.0
C253 C 0.82018 0.91701 0.50997 0.0
C254 C 0.80277 0.90171 0.43871 0.0
C255 C 0.83962 0.94543 0.51236 0.0
C256 C 0.82624 0.94116 0.36989 0.0
C257 C 0.84263 0.95751 0.44239 0.0
N258 N 0.78963 0.89717 0.30043 0.0
C259 C 0.79414 0.90574 0.22797 0.0
C260 C 0.82996 0.95105 0.29684 0.0
C261 C 0.8141 0.93298 0.22535 0.0
Gd262 Gd 0.69936 0.86032 0.29087 0.0
Gd263 Gd 0.75508 0.85338 0.31388 0.0
N264 N 0.78401 0.87402 0.43392 0.0
C265 C 0.81819 0.90268 0.57519 0.0
C266 C 0.78338 0.85899 0.49424 0.0
C267 C 0.80005 0.87326 0.56646 0.0
H268 H 0.7697 0.83599 0.48685 0.0
H269 H 0.79897 0.86152 0.61508 0.0
H270 H 0.6649 0.81402 0.11749 0.0
H271 H 0.78208 0.89208 0.17222 0.0
H272 H 0.6246 0.76954 0.07087 0.0
H273 H 0.83121 0.91365 0.63093 0.0
H274 H 0.85293 0.95774 0.56699 0.0
H275 H 0.69572 0.8968 0.4551 0.0
H276 H 0.8454 0.97214 0.29459 0.0
H277 H 0.81721 0.94004 0.16817 0.0
H278 H 0.58887 0.75826 0.30688 0.0
H279 H 0.85817 0.979 0.44421 0.0
H280 H 0.63016 0.83997 0.52998 0.0
H281 H 0.66829 0.88782 0.55182 0.0
N282 N 0.67362 0.85415 0.38207 0.0
C283 C 0.6522 0.82859 0.36623 0.0
C284 C 0.67906 0.8759 0.44553 0.0
C285 C 0.64218 0.84375 0.48793 0.0
C286 C 0.66362 0.87085 0.50022 0.0
C287 C 0.63592 0.8225 0.41901 0.0
H288 H 0.60081 0.79096 0.43905 0.0
N289 N 0.66089 0.81887 0.24011 0.0
C290 C 0.64557 0.81022 0.29238 0.0
C291 C 0.6151 0.76979 0.18863 0.0
C292 C 0.62234 0.78522 0.26857 0.0
C293 C 0.65315 0.80569 0.16022 0.0
C294 C 0.63036 0.78056 0.13365 0.0
O295 O 0.75701 0.89595 0.30091 0.0
O296 O 0.73222 0.89567 0.3808 0.0
O297 O 0.71231 0.90046 0.24207 0.0
O298 O 0.67579 0.8757 0.25657 0.0
O299 O 0.74045 0.84902 0.43831 0.0
O300 O 0.71041 0.85896 0.42937 0.0
O301 O 0.69558 0.8169 0.23599 0.0
O302 O 0.72039 0.81531 0.33322 0.0
O303 O 0.78055 0.83935 0.32494 0.0
O304 O 0.75078 0.81784 0.2255 0.0
O305 O 0.71016 0.85687 0.16242 0.0
O306 O 0.74281 0.85188 0.17493 0.0
C307 C 0.75298 0.90973 0.35983 0.0
C308 C 0.72519 0.85358 0.47435 0.0
C309 C 0.69302 0.92698 0.26348 0.0
C310 C 0.68022 0.96186 0.2447 0.0
C311 C 0.70835 0.97097 0.36515 0.0
C312 C 0.70732 0.94498 0.33774 0.0
C313 C 0.69502 0.97934 0.31944 0.0
C314 C 0.67953 0.93558 0.21657 0.0
C315 C 0.69213 0.89924 0.23563 0.0
C316 C 0.60667 0.77764 0.32354 0.0
C317 C 0.61346 0.79628 0.39878 0.0
H318 H 0.59739 0.75049 0.1678 0.0
C319 C 0.70152 0.80133 0.27558 0.0
C320 C 0.72643 0.85413 0.12818 0.0
C321 C 0.76505 0.78857 0.2727 0.0
C322 C 0.78026 0.75862 0.31833 0.0
C323 C 0.74101 0.7352 0.23421 0.0
C324 C 0.74409 0.76257 0.2313 0.0
C325 C 0.75895 0.7332 0.27682 0.0
C326 C 0.78314 0.78639 0.31695 0.0
C327 C 0.76867 0.81764 0.2636 0.0
H328 H 0.71959 0.98478 0.42239 0.0
H329 H 0.71778 0.93896 0.37457 0.0
H330 H 0.69652 0.99985 0.34259 0.0
H331 H 0.6683 0.92167 0.15936 0.0
H332 H 0.72472 0.71541 0.20232 0.0
H333 H 0.73006 0.76328 0.19552 0.0
H334 H 0.75614 0.71163 0.27753 0.0
H335 H 0.79962 0.80615 0.34795 0.0
C336 C 0.26878 0.80586 0.52181 0.0
C337 C 0.25583 0.76173 0.42409 0.0
C338 C 0.2561 0.78781 0.44726 0.0
C339 C 0.26774 0.7536 0.47838 0.0
C340 C 0.28137 0.79829 0.57561 0.0
C341 C 0.28046 0.77182 0.55401 0.0
N342 N 0.26966 0.83151 0.54022 0.0
C343 C 0.28324 0.85103 0.61045 0.0
C344 C 0.29484 0.81782 0.64884 0.0
C345 C 0.2959 0.84441 0.66605 0.0
Gd346 Gd 0.19056 0.84223 0.4238 0.0
Gd347 Gd 0.24638 0.83984 0.4473 0.0
N348 N 0.24483 0.79636 0.39618 0.0
C349 C 0.24404 0.74496 0.3464 0.0
C350 C 0.23429 0.7808 0.3189 0.0
C351 C 0.23348 0.75473 0.29329 0.0
H352 H 0.22575 0.78779 0.27747 0.0
H353 H 0.22459 0.74212 0.23271 0.0
H354 H 0.20669 0.8789 0.61892 0.0
H355 H 0.28412 0.87165 0.62361 0.0
H356 H 0.21825 0.92723 0.69244 0.0
H357 H 0.24338 0.72475 0.32635 0.0
H358 H 0.26757 0.73353 0.46189 0.0
H359 H 0.1638 0.83686 0.23562 0.0
H360 H 0.30474 0.81279 0.69185 0.0
H361 H 0.30648 0.85981 0.72205 0.0
H362 H 0.20718 0.97547 0.48738 0.0
H363 H 0.28989 0.76552 0.59472 0.0
H364 H 0.17305 0.92008 0.21701 0.0
H365 H 0.159 0.86898 0.15436 0.0
N366 N 0.18206 0.86991 0.34276 0.0
C367 C 0.18893 0.89753 0.37899 0.0
C368 C 0.17081 0.85942 0.26341 0.0
C369 C 0.17561 0.90622 0.25285 0.0
C370 C 0.16769 0.87742 0.21726 0.0
C371 C 0.18602 0.91647 0.3349 0.0
H372 H 0.19118 0.95967 0.34125 0.0
N373 N 0.19974 0.88725 0.50241 0.0
C374 C 0.19785 0.9064 0.46138 0.0
C375 C 0.21205 0.94214 0.5855 0.0
C376 C 0.20421 0.93446 0.5017 0.0
C377 C 0.20614 0.89416 0.58489 0.0
C378 C 0.21269 0.92173 0.62734 0.0
O379 O 0.21264 0.79494 0.43568 0.0
O380 O 0.18474 0.79904 0.35903 0.0
O381 O 0.16344 0.81953 0.49595 0.0
O382 O 0.15322 0.82489 0.37802 0.0
O383 O 0.23303 0.83689 0.30806 0.0
O384 O 0.19716 0.83401 0.2907 0.0
O385 O 0.22692 0.8855 0.43642 0.0
O386 O 0.24953 0.87842 0.5276 0.0
O387 O 0.26364 0.87407 0.37807 0.0
O388 O 0.28367 0.85841 0.44235 0.0
O389 O 0.1994 0.83316 0.55487 0.0
O390 O 0.2381 0.84442 0.57912 0.0
C391 C 0.19197 0.78268 0.38705 0.0
C392 C 0.21512 0.83521 0.25843 0.0
C393 C 0.13012 0.82466 0.47488 0.0
C394 C 0.09329 0.81196 0.52469 0.0
C395 C 0.12045 0.8618 0.50579 0.0
C396 C 0.13566 0.8536 0.47956 0.0
C397 C 0.09943 0.84124 0.52765 0.0
C398 C 0.10887 0.8038 0.49762 0.0
C399 C 0.14611 0.81617 0.44366 0.0
C400 C 0.20218 0.95375 0.45751 0.0
C401 C 0.19309 0.94477 0.37431 0.0
H402 H 0.21716 0.96349 0.61863 0.0
C403 C 0.2454 0.89657 0.49557 0.0
C404 C 0.21817 0.83774 0.60729 0.0
C405 C 0.30506 0.90739 0.42136 0.0
C406 C 0.33961 0.94838 0.38419 0.0
C407 C 0.33048 0.9529 0.51875 0.0
C408 C 0.31085 0.92406 0.49898 0.0
C409 C 0.34481 0.96502 0.46197 0.0
C410 C 0.31934 0.91962 0.36423 0.0
C411 C 0.28436 0.87712 0.39845 0.0
H412 H 0.12484 0.88416 0.50823 0.0
H413 H 0.15155 0.86984 0.46164 0.0
H414 H 0.08776 0.84829 0.54551 0.0
H415 H 0.10458 0.78143 0.49441 0.0
H416 H 0.33482 0.96576 0.5787 0.0
H417 H 0.30028 0.91472 0.54413 0.0
H418 H 0.36033 0.9871 0.47984 0.0
H419 H 0.31463 0.90658 0.30418 0.0
C420 C 0.16782 0.17276 0.42755 0.0
C421 C 0.17804 0.14541 0.50908 0.0
C422 C 0.17868 0.17139 0.49956 0.0
C423 C 0.16688 0.12123 0.44435 0.0
C424 C 0.15598 0.14824 0.36315 0.0
C425 C 0.15586 0.12264 0.37157 0.0
N426 N 0.16801 0.19767 0.42158 0.0
C427 C 0.15612 0.19928 0.35376 0.0
C428 C 0.14427 0.15002 0.29269 0.0
C429 C 0.14422 0.17561 0.28822 0.0
Gd430 Gd 0.24623 0.31193 0.58032 0.0
Gd431 Gd 0.18961 0.23708 0.5322 0.0
N432 N 0.18914 0.19507 0.56121 0.0
C433 C 0.18823 0.14428 0.58383 0.0
C434 C 0.19826 0.19357 0.63537 0.0
C435 C 0.19821 0.16839 0.6474 0.0
H436 H 0.20636 0.21201 0.68512 0.0
H437 H 0.20592 0.16763 0.70574 0.0
H438 H 0.23289 0.34308 0.4398 0.0
H439 H 0.1563 0.21914 0.34935 0.0
H440 H 0.23417 0.38913 0.43237 0.0
H441 H 0.18816 0.12477 0.59346 0.0
H442 H 0.16634 0.10118 0.45043 0.0
H443 H 0.28298 0.32589 0.75129 0.0
H444 H 0.13499 0.13168 0.24188 0.0
H445 H 0.1351 0.17717 0.23422 0.0
H446 H 0.27207 0.44752 0.69951 0.0
H447 H 0.14699 0.10365 0.3226 0.0
H448 H 0.3046 0.41064 0.88452 0.0
H449 H 0.30529 0.36505 0.87359 0.0
N450 N 0.2695 0.34891 0.69515 0.0
C451 C 0.26948 0.37407 0.69883 0.0
C452 C 0.28266 0.34577 0.75574 0.0
C453 C 0.29472 0.39349 0.83106 0.0
C454 C 0.29523 0.36784 0.82499 0.0
C455 C 0.28207 0.39709 0.76692 0.0
H456 H 0.29167 0.44108 0.81962 0.0
N457 N 0.24775 0.35559 0.56549 0.0
C458 C 0.2583 0.37758 0.63161 0.0
C459 C 0.25024 0.40819 0.55799 0.0
C460 C 0.25962 0.40438 0.63006 0.0
C461 C 0.24017 0.36 0.49347 0.0
C462 C 0.24088 0.38611 0.48898 0.0
O463 O 0.22404 0.2362 0.54558 0.0
O464 O 0.25006 0.27831 0.63716 0.0
O465 O 0.26454 0.29839 0.50416 0.0
O466 O 0.28246 0.34354 0.57121 0.0
O467 O 0.2021 0.25255 0.67537 0.0
O468 O 0.23617 0.29893 0.70673 0.0
O469 O 0.21199 0.31213 0.56587 0.0
O470 O 0.18728 0.27082 0.47088 0.0
O471 O 0.16985 0.25119 0.59985 0.0
O472 O 0.15203 0.20668 0.53172 0.0
O473 O 0.23329 0.29745 0.43691 0.0
O474 O 0.20104 0.24963 0.40607 0.0
C475 C 0.24388 0.25207 0.60008 0.0
C476 C 0.21884 0.27584 0.73165 0.0
C477 C 0.30676 0.32577 0.5362 0.0
C478 C 0.34353 0.33674 0.4902 0.0
C479 C 0.33649 0.32246 0.62074 0.0
C480 C 0.31466 0.32046 0.60828 0.0
C481 C 0.3509 0.33059 0.5623 0.0
C482 C 0.32114 0.33379 0.47736 0.0
C483 C 0.28414 0.32448 0.52222 0.0
C484 C 0.2711 0.42688 0.69921 0.0
C485 C 0.28229 0.42323 0.76757 0.0
H486 H 0.25088 0.42845 0.55426 0.0
C487 C 0.19393 0.29753 0.50505 0.0
C488 C 0.21769 0.27332 0.38076 0.0
C489 C 0.12875 0.22815 0.54134 0.0
C490 C 0.09064 0.22485 0.54987 0.0
C491 C 0.1086 0.23673 0.43023 0.0
C492 C 0.12764 0.23519 0.46468 0.0
C493 C 0.09029 0.23149 0.47185 0.0
C494 C 0.11003 0.2228 0.58421 0.0
C495 C 0.14944 0.22625 0.57428 0.0
H496 H 0.34248 0.31823 0.67653 0.0
H497 H 0.3041 0.31522 0.65503 0.0
H498 H 0.36807 0.33289 0.57471 0.0
H499 H 0.31491 0.33796 0.42179 0.0
H500 H 0.10801 0.24201 0.37062 0.0
H501 H 0.14153 0.23939 0.43092 0.0
H502 H 0.07563 0.23251 0.44223 0.0
H503 H 0.11075 0.21759 0.64388 0.0
C504 C 0.44065 0.16925 0.57722 0.0
C505 C 0.42004 0.11874 0.50543 0.0
C506 C 0.4196 0.1424 0.5481 0.0
C507 C 0.44196 0.12188 0.49783 0.0
C508 C 0.4626 0.17302 0.56562 0.0
C509 C 0.4632 0.14897 0.52793 0.0
N510 N 0.43953 0.19213 0.6134 0.0
C511 C 0.45929 0.21991 0.63266 0.0
C512 C 0.4832 0.20109 0.59006 0.0
C513 C 0.48147 0.22473 0.62242 0.0
Gd514 Gd 0.39375 0.17354 0.85651 0.0
Gd515 Gd 0.40196 0.18148 0.63482 0.0
N516 N 0.39867 0.14022 0.55533 0.0
C517 C 0.39843 0.09309 0.46846 0.0
C518 C 0.37773 0.11634 0.51254 0.0
C519 C 0.37722 0.09216 0.47057 0.0
H520 H 0.36131 0.11581 0.50998 0.0
H521 H 0.36048 0.07299 0.43893 0.0
H522 H 0.40739 0.23977 0.94696 0.0
H523 H 0.458 0.23818 0.65797 0.0
H524 H 0.38732 0.26261 1.00904 0.0
H525 H 0.398 0.07446 0.43499 0.0
H526 H 0.44263 0.10382 0.46624 0.0
H527 H 0.35926 0.10119 0.86495 0.0
H528 H 0.50041 0.20489 0.58219 0.0
H529 H 0.49721 0.24662 0.63968 0.0
H530 H 0.30761 0.18162 0.99295 0.0
H531 H 0.47993 0.15133 0.51942 0.0
H532 H 0.29252 0.08489 0.91501 0.0
H533 H 0.31834 0.06658 0.88111 0.0
N534 N 0.35566 0.13835 0.87752 0.0
C535 C 0.34249 0.14918 0.90294 0.0
C536 C 0.34776 0.10933 0.87475 0.0
C537 C 0.31021 0.1001 0.90497 0.0
C538 C 0.32471 0.08967 0.88577 0.0
C539 C 0.3193 0.1303 0.91657 0.0
H540 H 0.28858 0.12804 0.95573 0.0
N541 N 0.37621 0.19692 0.91686 0.0
C542 C 0.35319 0.1794 0.92417 0.0
C543 C 0.35337 0.22182 0.98839 0.0
C544 C 0.34103 0.19145 0.95919 0.0
C545 C 0.38876 0.22628 0.94943 0.0
C546 C 0.37747 0.23923 0.98477 0.0
O547 O 0.43113 0.18467 0.72903 0.0
O548 O 0.40825 0.1487 0.79261 0.0
O549 O 0.42658 0.18468 0.93479 0.0
O550 O 0.39412 0.16861 0.98116 0.0
O551 O 0.36771 0.13909 0.64514 0.0
O552 O 0.3774 0.12973 0.7672 0.0
O553 O 0.37946 0.19815 0.79102 0.0
O554 O 0.36632 0.17066 0.66484 0.0
O555 O 0.40129 0.18475 0.50857 0.0
O556 O 0.39621 0.21397 0.58936 0.0
O557 O 0.42473 0.21946 0.85132 0.0
O558 O 0.42131 0.22644 0.71892 0.0
C559 C 0.42791 0.16283 0.76459 0.0
C560 C 0.36459 0.12041 0.6935 0.0
C561 C 0.41692 0.14839 1.01647 0.0
C562 C 0.39763 0.10134 1.06141 0.0
C563 C 0.43762 0.12264 1.0342 0.0
C564 C 0.43711 0.14663 1.01269 0.0
C565 C 0.41806 0.10018 1.05946 0.0
C566 C 0.39738 0.12558 1.04098 0.0
C567 C 0.41528 0.17282 0.99153 0.0
C568 C 0.31736 0.17275 0.96726 0.0
C569 C 0.3065 0.14223 0.94591 0.0
H570 H 0.34468 0.23189 1.01595 0.0
C571 C 0.36449 0.18771 0.72128 0.0
C572 C 0.43057 0.23663 0.79699 0.0
C573 C 0.37017 0.19151 0.46247 0.0
C574 C 0.33451 0.1512 0.37035 0.0
C575 C 0.33746 0.19738 0.41543 0.0
C576 C 0.36007 0.20876 0.46179 0.0
C577 C 0.32476 0.16878 0.36925 0.0
C578 C 0.35716 0.16281 0.41661 0.0
C579 C 0.3934 0.2023 0.51442 0.0
H580 H 0.45329 0.12154 1.03172 0.0
H581 H 0.45239 0.16368 0.99308 0.0
H582 H 0.41887 0.08215 0.07776 0.0
H583 H 0.38179 0.12676 1.04573 0.0
H584 H 0.32981 0.21083 0.41504 0.0
H585 H 0.36954 0.23084 0.49748 0.0
H586 H 0.30753 0.16051 0.33244 0.0
H587 H 0.36491 0.14945 0.4148 0.0
C588 C 0.94281 0.16207 0.90081 0.0
C589 C 0.97005 0.20511 1.00414 0.0
C590 C 0.94849 0.18827 0.94764 0.0
C591 C 0.98635 0.19601 1.00903 0.0
C592 C 0.95848 0.15196 0.9086 0.0
C593 C 0.98057 0.16947 0.96132 0.0
N594 N 0.92129 0.14565 0.85086 0.0
C595 C 0.91336 0.11774 0.81233 0.0
C596 C 0.95112 0.12415 0.86509 0.0
C597 C 0.9283 0.10677 0.81783 0.0
Gd598 Gd 0.89464 0.19393 0.63458 0.0
Gd599 Gd 0.8985 0.1671 0.83789 0.0
N600 N 0.93213 0.19609 0.94231 0.0
C601 C 0.97414 0.22994 1.05612 0.0
C602 C 0.93525 0.21892 0.99722 0.0
C603 C 0.95646 0.23654 1.05364 0.0
H604 H 0.92145 0.22375 0.99764 0.0
H605 H 0.95907 0.25506 0.09557 0.0
H606 H 0.84631 0.13576 0.51527 0.0
H607 H 0.89578 0.10436 0.77533 0.0
H608 H 0.804 0.1186 0.46986 0.0
H609 H 0.99047 0.24347 0.10037 0.0
H610 H 1.00313 0.20884 1.05136 0.0
H611 H 0.92313 0.26867 0.69462 0.0
H612 H 0.96264 0.11558 0.86938 0.0
H613 H 0.92223 0.08496 0.78551 0.0
H614 H 0.7979 0.19975 0.58083 0.0
H615 H 0.993 0.16226 0.96746 0.0
H616 H 0.86984 0.2894 0.71148 0.0
H617 H 0.91215 0.3047 0.73247 0.0
N618 N 0.88727 0.23208 0.66275 0.0
C619 C 0.86409 0.22386 0.64316 0.0
C620 C 0.90453 0.26113 0.68938 0.0
C621 C 0.87451 0.27319 0.69679 0.0
C622 C 0.8984 0.2819 0.70905 0.0
C623 C 0.85705 0.24408 0.66115 0.0
H624 H 0.82723 0.25004 0.65473 0.0
N625 N 0.85492 0.17685 0.5816 0.0
C626 C 0.84753 0.19562 0.60022 0.0
C627 C 0.80772 0.1585 0.5298 0.0
C628 C 0.82357 0.18672 0.57607 0.0
C629 C 0.83993 0.14995 0.53265 0.0
C630 C 0.81602 0.14022 0.50696 0.0
O631 O 0.92093 0.16481 0.74643 0.0
O632 O 0.93104 0.20575 0.69439 0.0
O633 O 0.90832 0.1849 0.53063 0.0
O634 O 0.89661 0.21543 0.53335 0.0
O635 O 0.90974 0.21552 0.8525 0.0
O636 O 0.92434 0.22938 0.73747 0.0
O637 O 0.86262 0.16728 0.69224 0.0
O638 O 0.879 0.19058 0.82054 0.0
O639 O 0.89061 0.1549 0.95394 0.0
O640 O 0.86328 0.13167 0.84655 0.0
O641 O 0.88327 0.14548 0.60971 0.0
O642 O 0.87411 0.12971 0.73066 0.0
C643 C 0.93638 0.18717 0.71725 0.0
C644 C 0.92447 0.23578 0.81527 0.0
C645 C 0.9301 0.22823 0.47632 0.0
C646 C 0.94887 0.2708 0.4118 0.0
C647 C 0.97302 0.25648 0.4865 0.0
C648 C 0.95259 0.23315 0.50541 0.0
C649 C 0.97121 0.27517 0.43923 0.0
C650 C 0.92851 0.2471 0.42983 0.0
C651 C 0.90803 0.2054 0.49792 0.0
C652 C 0.8163 0.2063 0.59795 0.0
C653 C 0.83299 0.23491 0.64032 0.0
H654 H 0.78916 0.15084 0.51012 0.0
C655 C 0.86056 0.17803 0.76189 0.0
C656 C 0.87247 0.12439 0.6513 0.0
C657 C 0.85236 0.14626 0.96094 0.0
C658 C 0.84678 0.1851 1.02092 0.0
C659 C 0.81318 0.1347 0.98121 0.0
C660 C 0.828 0.12571 0.9541 0.0
C661 C 0.82252 0.16421 1.01521 0.0
C662 C 0.86146 0.17584 0.99362 0.0
C663 C 0.86784 0.13799 0.92514 0.0
H664 H 0.99029 0.26006 0.50845 0.0
H665 H 0.9544 0.2192 0.54284 0.0
H666 H 0.98708 0.29283 0.42401 0.0
H667 H 0.91109 0.24306 0.40666 0.0
H668 H 0.79438 0.11877 0.97571 0.0
H669 H 0.82043 0.10289 0.92678 0.0
H670 H 0.81084 0.17073 1.03655 0.0
H671 H 0.88022 0.19181 0.99862 0.0
C672 C 0.84332 0.59134 0.76309 0.0
C673 C 0.80446 0.58434 0.72352 0.0
C674 C 0.82863 0.59761 0.71754 0.0
C675 C 0.79548 0.56551 0.77859 0.0
C676 C 0.83403 0.57125 0.81545 0.0
C677 C 0.81025 0.55903 0.82462 0.0
N678 N 0.86618 0.60331 0.75207 0.0
C679 C 0.87943 0.59281 0.78301 0.0
C680 C 0.84862 0.56311 0.8545 0.0
C681 C 0.87123 0.57341 0.83666 0.0
Gd682 Gd 0.91597 0.71643 0.81992 0.0
Gd683 Gd 0.8786 0.6377 0.66509 0.0
N684 N 0.83791 0.61629 0.6659 0.0
C685 C 0.78999 0.59008 0.67305 0.0
C686 C 0.82367 0.62077 0.6135 0.0
C687 C 0.79958 0.60806 0.61699 0.0
H688 H 0.83106 0.63449 0.56988 0.0
H689 H 0.78843 0.61212 0.57646 0.0
H690 H 0.93414 0.70537 0.99746 0.0
H691 H 0.89622 0.59883 0.76558 0.0
H692 H 0.97118 0.71335 0.07471 0.0
H693 H 0.77132 0.58027 0.67574 0.0
H694 H 0.77705 0.55546 0.78502 0.0
H695 H 0.93267 0.76866 0.71085 0.0
H696 H 0.84218 0.54778 0.89526 0.0
H697 H 0.88217 0.56595 0.86291 0.0
H698 H 0.03154 0.77345 0.93095 0.0
H699 H 0.80292 0.54389 0.86542 0.0
H700 H 1.00829 0.81325 0.72711 0.0
H701 H 0.96966 0.80683 0.67278 0.0
N702 N 0.95037 0.7536 0.78375 0.0
C703 C 0.97147 0.75817 0.81847 0.0
C704 C 0.94956 0.7716 0.73488 0.0
C705 C 0.99217 0.7966 0.74385 0.0
C706 C 0.97041 0.79312 0.71331 0.0
C707 C 0.99296 0.7794 0.79849 0.0
H708 H 0.03125 0.79974 0.82177 0.0
N709 N 0.95075 0.72645 0.9038 0.0
C710 C 0.97163 0.74374 0.88024 0.0
C711 C 0.99295 0.73757 0.99239 0.0
C712 C 0.99332 0.7497 0.92344 0.0
C713 C 0.95059 0.71705 0.97533 0.0
C714 C 0.97154 0.72176 1.01954 0.0
O715 O 0.8629 0.6597 0.7347 0.0
O716 O 0.88598 0.67792 0.85913 0.0
O717 O 0.92653 0.75147 0.92287 0.0
O718 O 0.89486 0.73582 0.8349 0.0
O719 O 0.87674 0.67281 0.60867 0.0
O720 O 0.8924 0.7149 0.7095 0.0
O721 O 0.92482 0.7114 0.69548 0.0
O722 O 0.91821 0.66507 0.66406 0.0
O723 O 0.87492 0.62919 0.53472 0.0
O724 O 0.86735 0.59428 0.59985 0.0
O725 O 0.91164 0.67521 0.86004 0.0
O726 O 0.91214 0.64828 0.7466 0.0
C727 C 0.86487 0.66353 0.81334 0.0
C728 C 0.88043 0.69903 0.63635 0.0
C729 C 0.895 0.75368 0.9672 0.0
C730 C 0.86656 0.72769 1.05245 0.0
C731 C 0.88316 0.77991 1.05729 0.0
C732 C 0.89651 0.77976 0.99907 0.0
C733 C 0.86823 0.75405 0.08392 0.0
C734 C 0.88006 0.72782 0.99389 0.0
C735 C 0.90802 0.75321 0.90305 0.0
C736 C 0.01471 0.76889 0.89926 0.0
C737 C 0.01454 0.78384 0.83702 0.0
H738 H 1.00921 0.74153 1.02726 0.0
C739 C 0.93124 0.69356 0.66592 0.0
C740 C 0.91893 0.65905 0.82477 0.0
C741 C 0.84159 0.58187 0.47542 0.0
C742 C 0.81194 0.57574 0.36517 0.0
C743 C 0.80347 0.53547 0.43375 0.0
C744 C 0.82587 0.55283 0.48426 0.0
C745 C 0.79653 0.54679 0.37384 0.0
C746 C 0.83438 0.59302 0.41549 0.0
C747 C 0.86508 0.60096 0.52961 0.0
H748 H 0.8844 0.80012 0.08194 0.0
H749 H 0.90785 0.7999 0.9785 0.0
H750 H 0.8584 0.75486 0.13014 0.0
H751 H 0.87881 0.70775 0.96825 0.0
H752 H 0.7915 0.51317 0.44096 0.0
H753 H 0.83081 0.54357 0.53026 0.0
H754 H 0.77925 0.5331 0.33465 0.0
H755 H 0.84631 0.61525 0.40712 0.0
H756 H 0.09423 0.48669 0.89042 0.0
H757 H 0.05045 0.52315 0.88767 0.0
H758 H 0.094 0.48669 0.74561 0.0
H759 H 0.04965 0.52264 0.74291 0.0
H760 H 0.04296 0.51324 0.45697 0.0
H761 H 0.04345 0.51356 0.60231 0.0
H762 H 0.09906 0.49526 0.61552 0.0
H763 H 0.09848 0.49503 0.47046 0.0
C764 C 0.08445 0.49494 0.86049 0.0
C765 C 0.07233 0.50484 0.90761 0.0
C766 C 0.08423 0.4949 0.77406 0.0
C767 C 0.07172 0.50459 0.72495 0.0
C768 C 0.0596 0.51449 0.77238 0.0
C769 C 0.05997 0.5147 0.85881 0.0
C770 C 0.0555 0.50928 0.48973 0.0
C771 C 0.07068 0.50415 0.44564 0.0
C772 C 0.05586 0.50951 0.57629 0.0
C773 C 0.07133 0.50445 0.62814 0.0
C774 C 0.08645 0.49923 0.58353 0.0
C775 C 0.08617 0.49917 0.49718 0.0
H776 H 0.61173 0.51884 0.77474 0.0
H777 H 0.54597 0.51595 0.74491 0.0
H778 H 0.61258 0.51985 0.63087 0.0
H779 H 0.54659 0.51693 0.60099 0.0
H780 H 0.5494 0.52181 0.32426 0.0
H781 H 0.54859 0.52097 0.46842 0.0
H782 H 0.61195 0.51781 0.49502 0.0
H783 H 0.61259 0.51872 0.35129 0.0
C784 C 0.59717 0.51834 0.73854 0.0
C785 C 0.57874 0.5172 0.77758 0.0
C786 C 0.59762 0.51894 0.6528 0.0
C787 C 0.57968 0.51853 0.59679 0.0
C788 C 0.56124 0.5174 0.63635 0.0
C789 C 0.5608 0.51676 0.72204 0.0
C790 C 0.56341 0.52102 0.35988 0.0
C791 C 0.58114 0.52048 0.31999 0.0
C792 C 0.56294 0.52045 0.44568 0.0
C793 C 0.58018 0.51926 0.50086 0.0
C794 C 0.59793 0.51878 0.46045 0.0
C795 C 0.59835 0.51932 0.37475 0.0
H796 H 0.60683 0.12385 0.66308 0.0
H797 H 0.54522 0.03636 0.60417 0.0
H798 H 0.60716 0.12451 0.51882 0.0
H799 H 0.54532 0.03678 0.45979 0.0
H800 H 0.54677 0.03728 0.18123 0.0
H801 H 0.54646 0.03661 0.3255 0.0
H802 H 0.60651 0.12564 0.3843 0.0
H803 H 0.60663 0.12603 0.23992 0.0
C804 C 0.5931 0.10442 0.62025 0.0
C805 C 0.57598 0.08005 0.65131 0.0
C806 C 0.59325 0.10475 0.53433 0.0
C807 C 0.57628 0.08071 0.47017 0.0
C808 C 0.55914 0.05633 0.50176 0.0
C809 C 0.55901 0.05603 0.58769 0.0
C810 C 0.5601 0.057 0.22402 0.0
C811 C 0.57674 0.08172 0.19291 0.0
C812 C 0.55995 0.05667 0.30993 0.0
C813 C 0.57645 0.08105 0.37403 0.0
C814 C 0.59311 0.10578 0.34239 0.0
C815 C 0.59323 0.10608 0.25645 0.0
H816 H 0.70111 0.86839 0.58548 0.0
H817 H 0.74877 0.83756 0.59218 0.0
H818 H 0.70121 0.86836 0.73011 0.0
H819 H 0.74939 0.83796 0.73688 0.0
H820 H 0.75525 0.84704 1.02243 0.0
H821 H 0.7549 0.84674 0.8772 0.0
H822 H 0.69655 0.86004 0.86035 0.0
H823 H 0.69701 0.86028 1.00541 0.0
C824 C 0.71177 0.86143 0.61629 0.0
C825 C 0.725 0.85313 0.57028 0.0
C826 C 0.7119 0.86143 0.70263 0.0
C827 C 0.7254 0.85324 0.75282 0.0
C828 C 0.73862 0.8449 0.70652 0.0
C829 C 0.73835 0.84475 0.62013 0.0
C830 C 0.74211 0.84988 0.98887 0.0
C831 C 0.72614 0.85363 1.03195 0.0
C832 C 0.74184 0.84966 0.90237 0.0
C833 C 0.72566 0.85335 0.84955 0.0
C834 C 0.70974 0.85718 0.89314 0.0
C835 C 0.70994 0.85723 0.97948 0.0
H836 H 0.25277 0.84546 0.73984 0.0
H837 H 0.18189 0.82821 0.70145 0.0
H838 H 0.25212 0.84463 0.88388 0.0
H839 H 0.18103 0.82732 0.84564 0.0
H840 H 0.18077 0.82887 0.12616 0.0
H841 H 0.18134 0.82947 0.98222 0.0
H842 H 0.25054 0.84101 1.01736 0.0
H843 H 0.24984 0.84055 0.16172 0.0
C844 C 0.23674 0.84137 0.76074 0.0
C845 C 0.2174 0.83684 0.70259 0.0
C846 C 0.23631 0.84085 0.8466 0.0
C847 C 0.21648 0.83584 0.88409 0.0
C848 C 0.19712 0.83136 0.82551 0.0
C849 C 0.19756 0.83182 0.73952 0.0
C850 C 0.19636 0.8316 0.10478 0.0
C851 C 0.21522 0.83463 0.1622 0.0
C852 C 0.19672 0.8319 1.01878 0.0
C853 C 0.21603 0.83535 0.98044 0.0
C854 C 0.2349 0.83832 1.03821 0.0
C855 C 0.2345 0.83796 0.12424 0.0
H856 H 0.24957 0.3191 0.87433 0.0
H857 H 0.18783 0.23172 0.81511 0.0
H858 H 0.2494 0.31864 1.01868 0.0
H859 H 0.18742 0.23102 0.95932 0.0
H860 H 0.18806 0.22923 0.23818 0.0
H861 H 0.18825 0.22968 0.09385 0.0
H862 H 0.24795 0.31893 0.15293 0.0
H863 H 0.24757 0.31821 0.29715 0.0
C864 C 0.23574 0.29945 0.89073 0.0
C865 C 0.21874 0.27548 0.82703 0.0
C866 C 0.23556 0.29913 0.97665 0.0
C867 C 0.21837 0.27476 1.00814 0.0
C868 C 0.20139 0.25076 0.94389 0.0
C869 C 0.20157 0.25112 0.858 0.0
C870 C 0.20139 0.24924 0.22174 0.0
C871 C 0.21777 0.27365 0.28536 0.0
C872 C 0.20155 0.24958 0.13582 0.0
C873 C 0.21815 0.27438 0.10425 0.0
C874 C 0.23453 0.2988 0.16842 0.0
C875 C 0.23433 0.29845 0.25431 0.0
H876 H 0.3245 0.09903 0.41066 0.0
H877 H 0.32077 0.13868 0.20738 0.0
H878 H 0.32663 0.06182 0.32243 0.0
H879 H 0.32287 0.10193 0.11936 0.0
H880 H 0.39746 0.08933 0.21236 0.0
H881 H 0.36502 0.07972 0.28196 0.0
H882 H 0.31863 0.05679 1.05299 0.0
H883 H 0.35151 0.06666 0.9837 0.0
C884 C 0.32284 0.0988 0.34627 0.0
C885 C 0.32338 0.12225 0.31598 0.0
C886 C 0.32412 0.07753 0.29578 0.0
C887 C 0.32598 0.0796 0.21462 0.0
C888 C 0.32177 0.09971 0.18175 0.0
C889 C 0.32054 0.12097 0.2323 0.0
C890 C 0.37994 0.0803 0.17659 0.0
C891 C 0.3771 0.0798 0.09329 0.0
C892 C 0.36117 0.07479 0.21648 0.0
C893 C 0.33948 0.06887 0.17314 0.0
C894 C 0.33533 0.0622 0.08821 0.0
C895 C 0.35412 0.06769 1.04842 0.0
H896 H 0.92726 0.30168 0.43139 0.0
H897 H 0.96116 0.27657 0.26432 0.0
H898 H 0.90126 0.30123 0.31863 0.0
H899 H 0.9355 0.27614 0.15198 0.0
H900 H 0.84121 0.20473 0.16691 0.0
H901 H 0.87106 0.25013 0.25745 0.0
H902 H 0.90793 0.28153 1.06144 0.0
H903 H 0.87844 0.2352 0.97116 0.0
C904 C 0.93022 0.29802 0.37061 0.0
C905 C 0.94535 0.28784 0.35587 0.0
C906 C 0.91524 0.29762 0.30594 0.0
C907 C 0.91531 0.28688 0.22655 0.0
C908 C 0.93443 0.28373 0.21244 0.0
C909 C 0.94934 0.28403 0.27711 0.0
C910 C 0.85498 0.22186 0.14199 0.0
C911 C 0.85796 0.21601 0.0628 0.0
C912 C 0.87218 0.24818 0.19397 0.0
C913 C 0.89256 0.26897 0.16717 0.0
C914 C 0.89289 0.26544 0.08412 0.0
C915 C 0.87591 0.23892 1.03241 0.0
H916 H 0.80446 0.62054 0.38437 0.0
H917 H 0.80813 0.56066 0.20407 0.0
H918 H 0.80972 0.65269 0.28767 0.0
H919 H 0.81378 0.59306 0.10736 0.0
H920 H 0.87681 0.68646 0.0815 0.0
H921 H 0.85338 0.6427 0.13537 0.0
H922 H 0.7992 0.66332 0.1495 0.0
H923 H 0.82234 0.70697 0.0917 0.0
C924 C 0.80522 0.61364 0.32271 0.0
C925 C 0.806 0.58836 0.30116 0.0
C926 C 0.80826 0.632 0.26751 0.0
C927 C 0.81263 0.62557 0.19089 0.0
C928 C 0.81064 0.59855 0.16647 0.0
C929 C 0.80727 0.57996 0.22139 0.0
C930 C 0.85962 0.68138 0.09375 0.0
C931 C 0.85148 0.70029 0.08217 0.0
C932 C 0.84614 0.65619 0.12446 0.0
C933 C 0.82434 0.64945 0.14556 0.0
C934 C 0.81591 0.668 0.13313 0.0
C935 C 0.82927 0.69308 0.10097 0.0
H936 H 0.19639 0.34819 0.57342 0.0
H937 H 0.16408 0.28023 0.35867 0.0
H938 H 0.17753 0.37241 0.51532 0.0
H939 H 0.14511 0.30408 0.3012 0.0
H940 H 0.09593 0.33663 0.24641 0.0
H941 H 0.11443 0.31415 0.31448 0.0
H942 H 0.17741 0.3998 0.40915 0.0
H943 H 0.15871 0.4225 0.34008 0.0
C944 C 0.18519 0.33829 0.51395 0.0
C945 C 0.18173 0.31202 0.47125 0.0
C946 C 0.17443 0.35232 0.48034 0.0
C947 C 0.15956 0.34031 0.40332 0.0
C948 C 0.15603 0.31391 0.3611 0.0
C949 C 0.16696 0.30011 0.39427 0.0
C950 C 0.11377 0.35084 0.28152 0.0
C951 C 0.12586 0.38152 0.28621 0.0
C952 C 0.12447 0.33782 0.32065 0.0
C953 C 0.14771 0.35491 0.36657 0.0
C954 C 0.15949 0.38577 0.37461 0.0
C955 C 0.14873 0.39887 0.33503 0.0
H956 H 0.61047 0.61584 1.0155 0.0
H957 H 0.6371 0.6081 0.24759 0.0
H958 H 0.63351 0.66872 1.05512 0.0
H959 H 0.65906 0.66141 0.29127 0.0
H960 H 0.70827 0.76167 0.34627 0.0
H961 H 0.68734 0.70852 0.30521 0.0
H962 H 0.64162 0.71175 0.11172 0.0
H963 H 0.66438 0.76458 0.14788 0.0
C964 C 0.62118 0.6255 0.07579 0.0
C965 C 0.62188 0.60729 0.12776 0.0
C966 C 0.6344 0.65637 0.09964 0.0
C967 C 0.6485 0.67074 0.17794 0.0
C968 C 0.64907 0.65223 0.23011 0.0
C969 C 0.63625 0.62122 0.20519 0.0
C970 C 0.69378 0.75099 0.29463 0.0
C971 C 0.68797 0.76802 0.25157 0.0
C972 C 0.68139 0.72 0.27102 0.0
C973 C 0.66218 0.70442 0.20419 0.0
C974 C 0.65633 0.72176 0.16221 0.0
C975 C 0.66918 0.7527 0.18444 0.0
H976 H 0.44654 0.98447 0.08838 0.0
H977 H 0.42151 0.04053 1.0261 0.0
H978 H 0.42042 0.9687 0.18582 0.0
H979 H 0.39427 0.02343 0.1211 0.0
H980 H 0.36346 1.00484 0.35488 0.0
H981 H 0.39126 0.02432 0.26238 0.0
H982 H 0.37929 0.93806 0.18538 0.0
H983 H 0.3527 0.91909 0.28026 0.0
C984 C 0.43564 0.9937 0.09582 0.0
C985 C 0.43632 0.01397 1.04927 0.0
C986 C 0.4203 0.98423 0.15101 0.0
C987 C 0.40496 0.99446 0.16086 0.0
C988 C 0.40589 0.01515 0.11551 0.0
C989 C 0.42136 0.02475 1.06037 0.0
C990 C 0.36694 0.99011 0.3187 0.0
C991 C 0.35579 0.96035 0.3253 0.0
C992 C 0.3827 1.00122 0.26496 0.0
C993 C 0.38771 0.98285 0.21667 0.0
C994 C 0.37625 0.95304 0.22255 0.0
C995 C 0.36064 0.942 0.27625 0.0
H996 H 0.55399 0.15481 0.94851 0.0
H997 H 0.51073 0.07813 0.75946 0.0
H998 H 0.52552 0.17024 0.92041 0.0
H999 H 0.48178 0.09249 0.73536 0.0
H1000 H 0.42231 0.11066 0.7917 0.0
H1001 H 0.45248 0.09805 0.81698 0.0
H1002 H 0.50712 0.18568 0.80099 0.0
H1003 H 0.47674 0.19814 0.77372 0.0
C1004 C 0.53843 0.14107 0.90131 0.0
C1005 C 0.53459 0.11461 0.85805 0.0
C1006 C 0.52202 0.14998 0.88512 0.0
C1007 C 0.50095 0.13246 0.82625 0.0
C1008 C 0.49744 0.1064 0.78211 0.0
C1009 C 0.5141 0.09799 0.79661 0.0
C1010 C 0.44073 0.12731 0.79315 0.0
C1011 C 0.44685 0.15544 0.77976 0.0
C1012 C 0.45811 0.12 0.80756 0.0
C1013 C 0.48246 0.14074 0.81122 0.0
C1014 C 0.48868 0.16907 0.79911 0.0
C1015 C 0.47116 0.17618 0.78278 0.0
H1016 H 0.96733 0.27702 0.78216 0.0
H1017 H 0.92079 0.26534 0.95137 0.0
H1018 H 0.99563 0.32687 0.85507 0.0
H1019 H 0.94839 0.31601 1.02306 0.0
H1020 H 1.01091 0.40261 0.17787 0.0
H1021 H 0.98242 0.35194 0.1082 0.0
H1022 H 1.00751 0.37447 0.88592 0.0
H1023 H 0.03663 0.42439 0.95747 0.0
C1024 C 0.96299 0.28522 0.83484 0.0
C1025 C 0.94167 0.26683 0.86088 0.0
C1026 C 0.97926 0.31425 0.87684 0.0
C1027 C 0.97471 0.32648 0.94593 0.0
C1028 C 0.95318 0.30792 0.97157 0.0
C1029 C 0.9371 0.27864 0.9301 0.0
C1030 C 1.01025 0.39663 0.11404 0.0
C1031 C 0.02615 0.41772 0.07354 0.0
C1032 C 0.99371 0.36738 0.07339 0.0
C1033 C 0.99225 0.35816 0.99022 0.0
C1034 C 1.00808 0.37972 0.94993 0.0
C1035 C 0.02484 0.40874 0.99099 0.0
H1036 H 0.83212 0.67669 0.7674 0.0
H1037 H 0.84898 0.6327 0.93429 0.0
H1038 H 0.79302 0.65685 0.80289 0.0
H1039 H 0.80903 0.61102 0.96684 0.0
H1040 H 0.73543 0.58245 1.02717 0.0
H1041 H 0.77774 0.61309 1.02091 0.0
H1042 H 0.75859 0.61045 0.76725 0.0
H1043 H 0.71695 0.58123 0.77454 0.0
C1044 C 0.82748 0.66303 0.81273 0.0
C1045 C 0.84343 0.65608 0.84785 0.0
C1046 C 0.80495 0.65134 0.83254 0.0
C1047 C 0.79745 0.63158 0.88621 0.0
C1048 C 0.8141 0.6262 0.92555 0.0
C1049 C 0.83699 0.63855 0.90692 0.0
C1050 C 0.74037 0.589 0.97066 0.0
C1051 C 0.72277 0.57923 0.90125 0.0
C1052 C 0.76464 0.60634 0.96682 0.0
C1053 C 0.7718 0.61457 0.89371 0.0
C1054 C 0.75402 0.60524 0.82518 0.0
C1055 C 0.72998 0.58804 0.82901 0.0
H1056 H 0.92039 0.65122 0.98347 0.0
H1057 H 0.95009 0.64604 0.77241 0.0
H1058 H 0.94453 0.636 1.05774 0.0
H1059 H 0.97362 0.6304 0.845 0.0
H1060 H 0.03323 0.63796 1.02407 0.0
H1061 H 1.00763 0.65097 0.952 0.0
H1062 H 0.94996 0.59385 0.06485 0.0
H1063 H 0.97605 0.58122 0.13894 0.0
C1064 C 0.9322 0.6471 0.95318 0.0
C1065 C 0.93367 0.65048 0.87246 0.0
C1066 C 0.94581 0.63799 0.99533 0.0
C1067 C 0.96122 0.6321 0.95772 0.0
C1068 C 0.96234 0.63518 0.87668 0.0
C1069 C 0.94875 0.64411 0.83479 0.0
C1070 C 0.01506 0.62803 1.03343 0.0
C1071 C 1.00676 0.60856 0.08756 0.0
C1072 C 1.00028 0.63538 0.99162 0.0
C1073 C 0.97664 0.62355 1.00243 0.0
C1074 C 0.96812 0.60365 1.0556 0.0
C1075 C 0.98296 0.59609 0.09727 0.0
H1076 H 0.54962 0.41495 1.0513 0.0
H1077 H 0.51407 0.43103 0.85561 0.0
H1078 H 0.52161 0.36201 1.00633 0.0
H1079 H 0.48547 0.37837 0.81244 0.0
H1080 H 0.44831 0.28019 0.70573 0.0
H1081 H 0.47729 0.33267 0.74972 0.0
H1082 H 0.48293 0.32116 0.99717 0.0
H1083 H 0.45435 0.26842 0.95257 0.0
C1084 C 0.53574 0.4073 0.99888 0.0
C1085 C 0.53415 0.42777 0.95819 0.0
C1086 C 0.51939 0.37666 0.97316 0.0
C1087 C 0.50074 0.3651 0.90537 0.0
C1088 C 0.49946 0.38572 0.86418 0.0
C1089 C 0.51585 0.4163 0.88975 0.0
C1090 C 0.45568 0.28868 0.76966 0.0
C1091 C 0.44864 0.26943 0.82506 0.0
C1092 C 0.47238 0.31919 0.79533 0.0
C1093 C 0.48285 0.332 0.87773 0.0
C1094 C 0.47582 0.31267 0.93313 0.0
C1095 C 0.45911 0.28211 0.9074 0.0
H1096 H 0.85016 0.21368 0.85304 0.0
H1097 H 0.81711 0.12798 0.70235 0.0
H1098 H 0.81139 0.20224 0.88239 0.0
H1099 H 0.77825 0.11649 0.7298 0.0
H1100 H 0.71999 0.09334 0.88537 0.0
H1101 H 0.75714 0.10579 0.84131 0.0
H1102 H 0.77185 0.19263 0.82751 0.0
H1103 H 0.73446 0.18004 0.87304 0.0
C1104 C 0.83461 0.19229 0.82689 0.0
C1105 C 0.83684 0.17147 0.77745 0.0
C1106 C 0.81226 0.18586 0.84236 0.0
C1107 C 0.79147 0.15827 0.80915 0.0
C1108 C 0.79376 0.13777 0.75778 0.0
C1109 C 0.81606 0.14437 0.74169 0.0
C1110 C 0.73094 0.11497 0.87168 0.0
C1111 C 0.72409 0.13563 0.8826 0.0
C1112 C 0.75231 0.12213 0.84607 0.0
C1113 C 0.76777 0.15031 0.83083 0.0
C1114 C 0.76061 0.17079 0.83937 0.0
C1115 C 0.73899 0.16348 0.86442 0.0
H1116 H 0.59922 1.00779 0.90346 0.0
H1117 H 0.62791 0.07316 0.12303 0.0
H1118 H 0.61693 0.98274 0.96433 0.0
H1119 H 0.64614 0.04889 0.18272 0.0
H1120 H 0.65514 0.98449 0.30484 0.0
H1121 H 0.63598 1.00627 0.23705 0.0
H1122 H 0.65343 0.98437 1.01175 0.0
H1123 H 0.67267 0.9622 0.08044 0.0
C1124 C 0.60948 0.01702 0.96445 0.0
C1125 C 0.61208 0.04264 1.00802 0.0
C1126 C 0.61978 1.00268 0.99937 0.0
C1127 C 0.63296 0.01346 0.07914 0.0
C1128 C 0.63582 0.03938 0.1219 0.0
C1129 C 0.62554 0.05363 0.08712 0.0
C1130 C 0.65496 0.98424 0.24076 0.0
C1131 C 0.66587 0.97181 0.19875 0.0
C1132 C 0.64399 0.99696 0.20168 0.0
C1133 C 0.64343 0.99782 0.11874 0.0
C1134 C 0.65339 0.98422 0.07557 0.0
C1135 C 0.66443 0.97138 0.11497 0.0
H1136 H 0.20127 0.74179 0.43406 0.0
H1137 H 0.14914 0.7474 0.27794 0.0
H1138 H 0.17887 0.68878 0.38872 0.0
H1139 H 0.12597 0.69389 0.2347 0.0
H1140 H 0.09886 0.5981 0.1164 0.0
H1141 H 0.12136 0.65161 0.15875 0.0
H1142 H 0.14606 0.64363 0.39451 0.0
H1143 H 0.12386 0.59041 0.35137 0.0
C1144 C 0.18492 0.73179 0.39022 0.0
C1145 C 0.17733 0.74947 0.35977 0.0
C1146 C 0.17178 0.70097 0.36445 0.0
C1147 C 0.15021 0.68621 0.30759 0.0
C1148 C 0.14252 0.70392 0.27745 0.0
C1149 C 0.15581 0.73488 0.30294 0.0
C1150 C 0.10919 0.60777 0.17722 0.0
C1151 C 0.10972 0.58955 0.22966 0.0
C1152 C 0.12209 0.63872 0.20203 0.0
C1153 C 0.13601 0.65277 0.28054 0.0
C1154 C 0.13625 0.63432 0.33303 0.0
C1155 C 0.1234 0.60345 0.30812 0.0
H1156 H 0.44501 0.44621 0.20868 0.0
H1157 H 0.42855 0.359 0.11235 0.0
H1158 H 0.41874 0.42659 0.30465 0.0
H1159 H 0.40126 0.33912 0.2059 0.0
H1160 H 0.37258 0.31833 0.44103 0.0
H1161 H 0.39991 0.33748 0.34716 0.0
H1162 H 0.37725 0.39761 0.30729 0.0
H1163 H 0.3509 0.37956 0.4038 0.0
C1164 C 0.43588 0.42284 0.20812 0.0
C1165 C 0.43899 0.40423 0.15269 0.0
C1166 C 0.4205 0.4115 0.26251 0.0
C1167 C 0.4077 0.3812 0.26281 0.0
C1168 C 0.41096 0.36259 0.2079 0.0
C1169 C 0.42641 0.37396 0.15353 0.0
C1170 C 0.37358 0.3358 0.41273 0.0
C1171 C 0.35951 0.34738 0.4302 0.0
C1172 C 0.38906 0.34656 0.35814 0.0
C1173 C 0.39088 0.36918 0.3197 0.0
C1174 C 0.37661 0.38049 0.33657 0.0
C1175 C 0.3612 0.36981 0.39116 0.0
H1176 H 0.88554 0.75331 0.66379 0.0
H1177 H 0.84942 0.67154 0.49008 0.0
H1178 H 0.86465 0.77093 0.58476 0.0
H1179 H 0.82749 0.68835 0.41414 0.0
H1180 H 0.80037 0.7297 0.25618 0.0
H1181 H 0.82716 0.71829 0.32822 0.0
H1182 H 0.82811 0.76655 0.55194 0.0
H1183 H 0.80215 0.77904 0.47805 0.0
C1184 C 0.87313 0.739 0.60879 0.0
C1185 C 0.86914 0.7108 0.58413 0.0
C1186 C 0.8609 0.74906 0.56361 0.0
C1187 C 0.84406 0.73114 0.49268 0.0
C1188 C 0.84051 0.70317 0.46726 0.0
C1189 C 0.85299 0.6933 0.51171 0.0
C1190 C 0.80665 0.73825 0.32061 0.0
C1191 C 0.79914 0.75527 0.36146 0.0
C1192 C 0.82185 0.73143 0.36238 0.0
C1193 C 0.82971 0.74098 0.44679 0.0
C1194 C 0.8228 0.75895 0.48707 0.0
C1195 C 0.80784 0.76616 0.44482 0.0
H1196 H 0.3648 0.07378 0.74326 0.0
H1197 H 0.3238 0.09243 0.57503 0.0
H1198 H 0.33681 0.02135 0.69537 0.0
H1199 H 0.29491 0.03988 0.529 0.0
H1200 H 0.25357 0.94153 0.41419 0.0
H1201 H 0.28183 0.99431 0.45883 0.0
H1202 H 0.30198 0.97938 0.6909 0.0
H1203 H 0.2747 0.92672 0.6438 0.0
C1204 C 0.34957 0.06671 0.6966 0.0
C1205 C 0.34675 0.08777 0.66366 0.0
C1206 C 0.33317 0.03625 0.669 0.0
C1207 C 0.31288 0.02529 0.60789 0.0
C1208 C 0.31016 0.04658 0.575 0.0
C1209 C 0.3268 0.0771 0.60193 0.0
C1210 C 0.26409 0.94955 0.47475 0.0
C1211 C 0.26187 0.92948 0.52472 0.0
C1212 C 0.28039 0.98018 0.50107 0.0
C1213 C 0.29491 0.99216 0.57922 0.0
C1214 C 0.29202 0.97183 0.62969 0.0
C1215 C 0.27602 0.94125 0.60284 0.0
H1216 H 0.94994 0.14669 0.69031 0.0
H1217 H 0.97725 0.23949 0.72555 0.0
H1218 H 0.98825 0.15602 0.66112 0.0
H1219 H 0.01558 0.24918 0.70204 0.0
H1220 H 0.07034 0.25764 0.55497 0.0
H1221 H 0.03436 0.2476 0.60057 0.0
H1222 H 0.02912 0.17347 0.69215 0.0
H1223 H 0.06491 0.18263 0.64001 0.0
C1224 C 0.96425 0.16913 0.69336 0.0
C1225 C 0.96031 0.19227 0.70901 0.0
C1226 C 0.98638 0.1746 0.6769 0.0
C1227 C 1.00532 0.20343 0.67695 0.0
C1228 C 1.00152 0.22654 0.69773 0.0
C1229 C 0.97942 0.22102 0.71228 0.0
C1230 C 0.06162 0.2391 0.58473 0.0
C1231 C 0.0706 0.22076 0.59239 0.0
C1232 C 0.04088 0.23349 0.61239 0.0
C1233 C 0.02834 0.20963 0.65102 0.0
C1234 C 0.03784 0.19184 0.6619 0.0
C1235 C 0.05867 0.19734 0.63305 0.0
H1236 H 0.33171 0.17155 0.581 0.0
H1237 H 0.35572 0.22403 0.82059 0.0
H1238 H 0.30321 0.18619 0.55182 0.0
H1239 H 0.32605 0.2367 0.79543 0.0
H1240 H 0.28341 0.27639 0.72076 0.0
H1241 H 0.31198 0.26208 0.74587 0.0
H1242 H 0.26912 0.18541 0.55515 0.0
H1243 H 0.24157 0.20164 0.52577 0.0
C1244 C 0.33078 0.18597 0.62831 0.0
C1245 C 0.34626 0.1963 0.70396 0.0
C1246 C 0.31402 0.19426 0.61178 0.0
C1247 C 0.3116 0.21292 0.67064 0.0
C1248 C 0.32705 0.2229 0.74663 0.0
C1249 C 0.3441 0.21511 0.76228 0.0
C1250 C 0.2802 0.25674 0.68287 0.0
C1251 C 0.26023 0.24084 0.61949 0.0
C1252 C 0.29661 0.24799 0.69845 0.0
C1253 C 0.29356 0.22223 0.65313 0.0
C1254 C 0.27299 0.20572 0.59114 0.0
C1255 C 0.25679 0.2149 0.57449 0.0
H1256 H 0.78374 0.95614 0.29327 0.0
H1257 H 0.76365 0.93406 0.52045 0.0
H1258 H 0.81227 1.00707 0.36027 0.0
H1259 H 0.79313 0.98412 0.58942 0.0
H1260 H 0.83312 0.08093 0.69621 0.0
H1261 H 0.8051 0.03089 0.62619 0.0
H1262 H 0.8463 0.04525 0.43613 0.0
H1263 H 0.87342 0.0964 0.50477 0.0
C1264 C 0.78566 0.96215 0.35801 0.0
C1265 C 0.77122 0.94092 0.40118 0.0
C1266 C 0.80228 0.99158 0.3972 0.0
C1267 C 0.80545 1.00084 0.48162 0.0
C1268 C 0.7912 0.97902 0.52452 0.0
C1269 C 0.77422 0.94986 0.48494 0.0
C1270 C 0.8363 0.07345 0.63951 0.0
C1271 C 0.85582 0.09301 0.60691 0.0
C1272 C 0.82013 0.04423 0.59892 0.0
C1273 C 0.823 0.03281 0.5245 0.0
C1274 C 0.84275 0.05255 0.49211 0.0
C1275 C 0.85864 0.08215 0.53202 0.0
H1276 H 0.95054 0.7404 0.59124 0.0
H1277 H 0.96245 0.67472 0.66625 0.0
H1278 H 0.99035 0.76633 0.55873 0.0
H1279 H 1.00215 0.70015 0.63016 0.0
H1280 H 0.06142 0.75315 0.45646 0.0
H1281 H 0.0217 0.7207 0.48596 0.0
H1282 H 0.03311 0.79022 0.67237 0.0
H1283 H 0.07295 0.822 0.64702 0.0
C1284 C 0.96168 0.73149 0.60069 0.0
C1285 C 0.9537 0.70612 0.63394 0.0
C1286 C 0.98434 0.74616 0.58131 0.0
C1287 C 0.99937 0.73539 0.59285 0.0
C1288 C 0.99088 0.70891 0.62091 0.0
C1289 C 0.9682 0.69439 0.64145 0.0
C1290 C 0.05574 0.7613 0.50517 0.0
C1291 C 0.07038 0.79052 0.54819 0.0
C1292 C 0.03295 0.74273 0.52165 0.0
C1293 C 0.0243 0.75317 0.58067 0.0
C1294 C 0.03925 0.78178 0.6259 0.0
C1295 C 0.06204 0.80005 0.6107 0.0
loop_
_geom_bond_atom_site_label_1
_geom_bond_atom_site_label_2
_geom_bond_distance
_geom_bond_site_symmetry_2
_ccdc_geom_bond_type
C0 C2 1.422 . S
C0 C4 1.415 . S
C0 N6 1.369 . S
C1 C2 1.421 . S
C1 C3 1.417 . S
C1 C13 1.422 . S
C2 C0 1.422 . S
C2 C1 1.421 . S
C2 N12 1.359 . S
C3 C1 1.417 . S
C3 C5 1.329 . S
C3 H22 0.930 . S
C4 C0 1.415 . S
C4 C5 1.437 . S
C4 C8 1.413 . S
C5 C3 1.329 . S
C5 C4 1.437 . S
C5 H27 0.929 . S
N6 C0 1.369 . S
N6 C7 1.338 . S
N6 Gd11 2.622 . S
C7 N6 1.338 . S
C7 C9 1.378 . S
C7 H19 0.924 1_554 S
C8 C4 1.413 . S
C8 C9 1.348 . S
C8 H24 0.931 . S
C9 C7 1.378 . S
C9 C8 1.348 . S
C9 H25 0.930 1_554 S
Gd10 N30 2.622 . S
Gd10 N37 2.570 . S
Gd10 O44 2.353 1_655 S
Gd10 O45 2.468 . S
Gd10 O46 2.427 . S
Gd10 O48 2.388 1_655 S
Gd10 O49 2.386 . S
Gd10 O53 2.307 1_655 S
Gd10 C63 2.805 . S
Gd11 N6 2.622 . S
Gd11 N12 2.570 . S
Gd11 O43 2.386 . S
Gd11 O47 2.307 . S
Gd11 O50 2.353 . S
Gd11 O51 2.468 . S
Gd11 O52 2.427 . S
Gd11 O54 2.388 . S
Gd11 C75 2.805 . S
N12 C2 1.359 . S
N12 Gd11 2.570 . S
N12 C14 1.343 . S
C13 C1 1.422 . S
C13 C15 1.321 . S
C13 H21 0.931 . S
C14 N12 1.343 . S
C14 C15 1.390 . S
C14 H16 0.931 . S
C15 C13 1.321 . S
C15 C14 1.390 . S
C15 H17 0.930 . S
H16 C14 0.931 . S
H17 C15 0.930 . S
H18 C41 0.931 . S
H19 C7 0.924 1_556 S
H20 C42 0.930 . S
H21 C13 0.931 . S
H22 C3 0.930 . S
H23 C32 0.929 . S
H24 C8 0.931 . S
H25 C9 0.930 1_556 S
H26 C64 0.930 1_556 S
H27 C5 0.929 . S
H28 C33 0.931 . S
H29 C34 0.930 . S
N30 Gd10 2.622 . S
N30 C31 1.369 . S
N30 C32 1.338 . S
C31 N30 1.369 . S
C31 C35 1.415 . S
C31 C38 1.422 . S
C32 H23 0.929 . S
C32 N30 1.338 . S
C32 C34 1.378 . S
C33 H28 0.931 . S
C33 C34 1.348 . S
C33 C35 1.413 . S
C34 H29 0.930 . S
C34 C32 1.378 . S
C34 C33 1.348 . S
C35 C31 1.415 . S
C35 C33 1.413 . S
C35 C65 1.437 . S
H36 C65 0.929 . S
N37 Gd10 2.570 . S
N37 C38 1.359 . S
N37 C41 1.343 1_554 S
C38 C31 1.422 . S
C38 N37 1.359 . S
C38 C40 1.421 . S
C39 C40 1.422 1_556 S
C39 C42 1.321 . S
C39 H66 0.931 . S
C40 C38 1.421 . S
C40 C39 1.422 1_554 S
C40 C64 1.417 . S
C41 H18 0.931 . S
C41 N37 1.343 1_556 S
C41 C42 1.390 . S
C42 H20 0.930 . S
C42 C39 1.321 . S
C42 C41 1.390 . S
O43 Gd11 2.386 . S
O43 C55 1.265 . S
O44 Gd10 2.353 1_455 S
O44 C55 1.242 . S
O45 Gd10 2.468 . S
O45 C63 1.263 . S
O46 Gd10 2.427 . S
O46 C63 1.252 . S
O47 Gd11 2.307 . S
O47 C56 1.261 . S
O48 Gd10 2.388 1_455 S
O48 C56 1.252 . S
O49 Gd10 2.386 . S
O49 C67 1.265 . S
O50 Gd11 2.353 . S
O50 C67 1.242 1_455 S
O51 Gd11 2.468 . S
O51 C75 1.263 . S
O52 Gd11 2.427 . S
O52 C75 1.252 . S
O53 Gd10 2.307 1_455 S
O53 C68 1.261 . S
O54 Gd11 2.388 . S
O54 C68 1.252 . S
C55 O43 1.265 . S
C55 O44 1.242 . S
C56 O47 1.261 . S
C56 O48 1.252 . S
C57 C60 1.394 . S
C57 C62 1.370 . S
C57 C63 1.500 . S
C58 C61 1.383 . S
C58 C62 1.395 . S
C59 C60 1.396 . S
C59 C61 1.365 . S
C59 H76 0.929 . S
C60 C57 1.394 . S
C60 C59 1.396 . S
C60 H77 0.930 . S
C61 C58 1.383 . S
C61 C59 1.365 . S
C61 H78 0.931 . S
C62 C57 1.370 . S
C62 C58 1.395 . S
C62 H79 0.930 1_554 S
C63 Gd10 2.805 . S
C63 O45 1.263 . S
C63 O46 1.252 . S
C63 C57 1.500 . S
C64 H26 0.930 1_554 S
C64 C40 1.417 . S
C64 C65 1.329 . S
C65 C35 1.437 . S
C65 H36 0.929 . S
C65 C64 1.329 . S
H66 C39 0.931 . S
C67 O49 1.265 . S
C67 O50 1.242 1_655 S
C68 O53 1.261 . S
C68 O54 1.252 . S
C69 C72 1.394 . S
C69 C74 1.370 . S
C69 C75 1.500 . S
C70 C73 1.383 . S
C70 C74 1.395 . S
C71 C72 1.396 . S
C71 C73 1.365 . S
C71 H80 0.929 . S
C72 C69 1.394 . S
C72 C71 1.396 . S
C72 H81 0.930 . S
C73 C70 1.383 . S
C73 C71 1.365 . S
C73 H82 0.931 . S
C74 C69 1.370 . S
C74 C70 1.395 . S
C74 H83 0.930 . S
C75 Gd11 2.805 . S
C75 O51 1.263 . S
C75 O52 1.252 . S
C75 C69 1.500 . S
H76 C59 0.929 . S
H77 C60 0.930 . S
H78 C61 0.931 . S
H79 C62 0.930 1_556 S
H80 C71 0.929 . S
H81 C72 0.930 . S
H82 C73 0.931 . S
H83 C74 0.930 . S
C84 C86 1.422 . S
C84 C88 1.415 . S
C84 N90 1.369 . S
C85 C86 1.421 1_556 S
C85 C87 1.417 1_556 S
C85 C97 1.422 . S
C86 C84 1.422 . S
C86 C85 1.421 1_554 S
C86 N96 1.359 1_554 S
C87 C85 1.417 1_554 S
C87 C89 1.329 . S
C87 H106 0.930 1_554 S
C88 C84 1.415 . S
C88 C89 1.437 . S
C88 C92 1.413 . S
C89 C87 1.329 . S
C89 C88 1.437 . S
C89 H111 0.929 . S
N90 C84 1.369 . S
N90 C91 1.338 . S
N90 Gd95 2.622 . S
C91 N90 1.338 . S
C91 C93 1.378 . S
C91 H103 0.929 . S
C92 C88 1.413 . S
C92 C93 1.348 . S
C92 H108 0.931 . S
C93 C91 1.378 . S
C93 C92 1.348 . S
C93 H109 0.930 . S
Gd94 N114 2.622 1_554 S
Gd94 N121 2.570 . S
Gd94 O128 2.353 . S
Gd94 O129 2.468 . S
Gd94 O130 2.427 . S
Gd94 O132 2.388 1_554 S
Gd94 O133 2.386 . S
Gd94 O137 2.307 . S
Gd94 C147 2.805 . S
Gd95 N90 2.622 . S
Gd95 N96 2.570 1_554 S
Gd95 O127 2.386 . S
Gd95 O131 2.307 1_554 S
Gd95 O134 2.353 . S
Gd95 O135 2.468 . S
Gd95 O136 2.427 . S
Gd95 O138 2.388 . S
Gd95 C159 2.805 . S
N96 C86 1.359 1_556 S
N96 Gd95 2.570 1_556 S
N96 C98 1.343 . S
C97 C85 1.422 . S
C97 C99 1.321 . S
C97 H105 0.931 . S
C98 N96 1.343 . S
C98 C99 1.390 . S
C98 H100 0.931 . S
C99 C97 1.321 . S
C99 C98 1.390 . S
C99 H101 0.930 . S
H100 C98 0.931 . S
H101 C99 0.930 . S
H102 C125 0.931 . S
H103 C91 0.929 . S
H104 C126 0.930 . S
H105 C97 0.931 . S
H106 C87 0.930 1_556 S
H107 C116 0.929 . S
H108 C92 0.931 . S
H109 C93 0.930 . S
H110 C148 0.930 . S
H111 C89 0.929 . S
H112 C117 0.931 . S
H113 C118 0.930 . S
N114 Gd94 2.622 1_556 S
N114 C115 1.369 1_556 S
N114 C116 1.338 . S
C115 N114 1.369 1_554 S
C115 C119 1.415 . S
C115 C122 1.422 . S
C116 H107 0.929 . S
C116 N114 1.338 . S
C116 C118 1.378 . S
C117 H112 0.931 . S
C117 C118 1.348 . S
C117 C119 1.413 1_556 S
C118 H113 0.930 . S
C118 C116 1.378 . S
C118 C117 1.348 . S
C119 C115 1.415 . S
C119 C117 1.413 1_554 S
C119 C149 1.437 . S
H120 C149 0.929 . S
N121 Gd94 2.570 . S
N121 C122 1.359 . S
N121 C125 1.343 . S
C122 C115 1.422 . S
C122 N121 1.359 . S
C122 C124 1.421 . S
C123 C124 1.422 . S
C123 C126 1.321 . S
C123 H150 0.931 . S
C124 C122 1.421 . S
C124 C123 1.422 . S
C124 C148 1.417 . S
C125 H102 0.931 . S
C125 N121 1.343 . S
C125 C126 1.390 . S
C126 H104 0.930 . S
C126 C123 1.321 . S
C126 C125 1.390 . S
O127 Gd95 2.386 . S
O127 C139 1.265 . S
O128 Gd94 2.353 . S
O128 C139 1.242 . S
O129 Gd94 2.468 . S
O129 C147 1.263 . S
O130 Gd94 2.427 . S
O130 C147 1.252 . S
O131 Gd95 2.307 1_556 S
O131 C140 1.261 . S
O132 Gd94 2.388 1_556 S
O132 C140 1.252 . S
O133 Gd94 2.386 . S
O133 C151 1.265 . S
O134 Gd95 2.353 . S
O134 C151 1.242 . S
O135 Gd95 2.468 . S
O135 C159 1.263 . S
O136 Gd95 2.427 . S
O136 C159 1.252 . S
O137 Gd94 2.307 . S
O137 C152 1.261 . S
O138 Gd95 2.388 . S
O138 C152 1.252 . S
C139 O127 1.265 . S
C139 O128 1.242 . S
C140 O131 1.261 . S
C140 O132 1.252 . S
C141 C144 1.394 . S
C141 C146 1.370 . S
C141 C147 1.500 . S
C142 C145 1.383 . S
C142 C146 1.395 . S
C143 C144 1.396 . S
C143 C145 1.365 . S
C143 H160 0.929 1_554 S
C144 C141 1.394 . S
C144 C143 1.396 . S
C144 H161 0.930 1_554 S
C145 C142 1.383 . S
C145 C143 1.365 . S
C145 H162 0.931 . S
C146 C141 1.370 . S
C146 C142 1.395 . S
C146 H163 0.930 . S
C147 Gd94 2.805 . S
C147 O129 1.263 . S
C147 O130 1.252 . S
C147 C141 1.500 . S
C148 H110 0.930 . S
C148 C124 1.417 . S
C148 C149 1.329 . S
C149 C119 1.437 . S
C149 H120 0.929 . S
C149 C148 1.329 . S
H150 C123 0.931 . S
C151 O133 1.265 . S
C151 O134 1.242 . S
C152 O137 1.261 . S
C152 O138 1.252 . S
C153 C156 1.394 . S
C153 C158 1.382 . S
C153 C159 1.500 . S
C154 C157 1.383 1_556 S
C154 C158 1.392 1_556 S
C155 C156 1.396 . S
C155 C157 1.365 . S
C155 H164 0.929 . S
C156 C153 1.394 . S
C156 C155 1.396 . S
C156 H165 0.930 . S
C157 C154 1.383 1_554 S
C157 C155 1.365 . S
C157 H166 0.931 . S
C158 C153 1.382 . S
C158 C154 1.392 1_554 S
C158 H167 0.922 1_554 S
C159 Gd95 2.805 . S
C159 O135 1.263 . S
C159 O136 1.252 . S
C159 C153 1.500 . S
H160 C143 0.929 1_556 S
H161 C144 0.930 1_556 S
H162 C145 0.931 . S
H163 C146 0.930 . S
H164 C155 0.929 . S
H165 C156 0.930 . S
H166 C157 0.931 . S
H167 C158 0.922 1_556 S
C168 C170 1.422 1_556 S
C168 C172 1.415 . S
C168 N174 1.369 . S
C169 C170 1.421 . S
C169 C171 1.417 1_554 S
C169 C181 1.422 . S
C170 C168 1.422 1_554 S
C170 C169 1.421 . S
C170 N180 1.359 . S
C171 C169 1.417 1_556 S
C171 C173 1.329 . S
C171 H190 0.930 1_556 S
C172 C168 1.415 . S
C172 C173 1.437 . S
C172 C176 1.413 . S
C173 C171 1.329 . S
C173 C172 1.437 . S
C173 H195 0.929 . S
N174 C168 1.369 . S
N174 C175 1.338 . S
N174 Gd179 2.622 1_565 S
C175 N174 1.338 . S
C175 C177 1.378 . S
C175 H187 0.951 . S
C176 C172 1.413 . S
C176 C177 1.348 . S
C176 H192 0.931 . S
C177 C175 1.378 . S
C177 C176 1.348 . S
C177 H193 0.930 . S
Gd178 N198 2.622 . S
Gd178 N205 2.570 1_554 S
Gd178 O212 2.353 . S
Gd178 O213 2.468 1_554 S
Gd178 O214 2.427 . S
Gd178 O216 2.388 . S
Gd178 O217 2.386 . S
Gd178 O221 2.307 1_554 S
Gd178 C231 2.805 . S
Gd179 N174 2.622 1_545 S
Gd179 N180 2.570 1_546 S
Gd179 O211 2.386 . S
Gd179 O215 2.307 1_556 S
Gd179 O218 2.353 . S
Gd179 O219 2.468 1_556 S
Gd179 O220 2.427 . S
Gd179 O222 2.388 . S
Gd179 C243 2.805 . S
N180 C170 1.359 . S
N180 Gd179 2.570 1_564 S
N180 C182 1.343 . S
C181 C169 1.422 . S
C181 C183 1.321 . S
C181 H189 0.931 . S
C182 N180 1.343 . S
C182 C183 1.390 . S
C182 H184 0.931 1_565 S
C183 C181 1.321 . S
C183 C182 1.390 . S
C183 H185 0.930 . S
H184 C182 0.931 1_545 S
H185 C183 0.930 . S
H186 C209 0.931 . S
H187 C175 0.951 . S
H188 C210 0.930 . S
H189 C181 0.931 . S
H190 C171 0.930 1_554 S
H191 C200 0.929 . S
H192 C176 0.931 . S
H193 C177 0.930 . S
H194 C232 0.930 . S
H195 C173 0.929 . S
H196 C201 0.931 . S
H197 C202 0.930 . S
N198 Gd178 2.622 . S
N198 C199 1.369 . S
N198 C200 1.338 . S
C199 N198 1.369 . S
C199 C203 1.415 . S
C199 C206 1.422 . S
C200 H191 0.929 . S
C200 N198 1.338 . S
C200 C202 1.378 . S
C201 H196 0.931 . S
C201 C202 1.348 . S
C201 C203 1.413 . S
C202 H197 0.930 . S
C202 C200 1.378 . S
C202 C201 1.348 . S
C203 C199 1.415 . S
C203 C201 1.413 . S
C203 C233 1.437 . S
H204 C233 0.929 . S
N205 Gd178 2.570 1_556 S
N205 C206 1.359 1_556 S
N205 C209 1.343 . S
C206 C199 1.422 . S
C206 N205 1.359 1_554 S
C206 C208 1.421 1_554 S
C207 C208 1.422 . S
C207 C210 1.321 . S
C207 H234 0.931 . S
C208 C206 1.421 1_556 S
C208 C207 1.422 . S
C208 C232 1.417 1_556 S
C209 H186 0.931 . S
C209 N205 1.343 . S
C209 C210 1.390 . S
C210 H188 0.930 . S
C210 C207 1.321 . S
C210 C209 1.390 . S
O211 Gd179 2.386 . S
O211 C223 1.265 1_556 S
O212 Gd178 2.353 . S
O212 C223 1.242 . S
O213 Gd178 2.468 1_556 S
O213 C231 1.263 1_556 S
O214 Gd178 2.427 . S
O214 C231 1.252 . S
O215 Gd179 2.307 1_554 S
O215 C224 1.261 . S
O216 Gd178 2.388 . S
O216 C224 1.252 . S
O217 Gd178 2.386 . S
O217 C235 1.265 . S
O218 Gd179 2.353 . S
O218 C235 1.242 1_556 S
O219 Gd179 2.468 1_554 S
O219 C243 1.263 1_554 S
O220 Gd179 2.427 . S
O220 C243 1.252 . S
O221 Gd178 2.307 1_556 S
O221 C236 1.261 . S
O222 Gd179 2.388 . S
O222 C236 1.252 . S
C223 O211 1.265 1_554 S
C223 O212 1.242 . S
C224 O215 1.261 . S
C224 O216 1.252 . S
C225 C228 1.394 . S
C225 C230 1.370 1_554 S
C225 C231 1.500 . S
C226 C229 1.383 1_556 S
C226 C230 1.395 . S
C227 C228 1.396 . S
C227 C229 1.365 . S
C227 H244 0.929 . S
C228 C225 1.394 . S
C228 C227 1.396 . S
C228 H245 0.930 . S
C229 C226 1.383 1_554 S
C229 C227 1.365 . S
C229 H246 0.931 . S
C230 C225 1.370 1_556 S
C230 C226 1.395 . S
C230 H247 0.930 . S
C231 Gd178 2.805 . S
C231 O213 1.263 1_554 S
C231 O214 1.252 . S
C231 C225 1.500 . S
C232 H194 0.930 . S
C232 C208 1.417 1_554 S
C232 C233 1.329 . S
C233 C203 1.437 . S
C233 H204 0.929 . S
C233 C232 1.329 . S
H234 C207 0.931 . S
C235 O217 1.265 . S
C235 O218 1.242 1_554 S
C236 O221 1.261 . S
C236 O222 1.252 . S
C237 C240 1.389 1_544 S
C237 C242 1.376 . S
C237 C243 1.499 1_554 S
C238 C241 1.383 . S
C238 C242 1.395 1_565 S
C239 C240 1.396 . S
C239 C241 1.365 1_556 S
C239 H248 0.929 . S
C240 C237 1.389 1_566 S
C240 C239 1.396 . S
C240 H249 0.930 . S
C241 C238 1.383 . S
C241 C239 1.365 1_554 S
C241 H250 0.931 . S
C242 C237 1.376 . S
C242 C238 1.395 1_545 S
C242 H251 0.930 . S
C243 Gd179 2.805 . S
C243 O219 1.263 1_556 S
C243 O220 1.252 . S
C243 C237 1.499 1_556 S
H244 C227 0.929 . S
H245 C228 0.930 . S
H246 C229 0.931 . S
H247 C230 0.930 . S
H248 C239 0.929 . S
H249 C240 0.930 . S
H250 C241 0.931 . S
H251 C242 0.930 . S
C252 C254 1.422 . S
C252 C256 1.415 . S
C252 N258 1.369 . S
C253 C254 1.421 . S
C253 C255 1.417 . S
C253 C265 1.422 . S
C254 C252 1.422 . S
C254 C253 1.421 . S
C254 N264 1.359 . S
C255 C253 1.417 . S
C255 C257 1.329 . S
C255 H274 0.930 . S
C256 C252 1.415 . S
C256 C257 1.437 . S
C256 C260 1.413 . S
C257 C255 1.329 . S
C257 C256 1.437 . S
C257 H279 0.929 . S
N258 C252 1.369 . S
N258 C259 1.338 . S
N258 Gd263 2.622 . S
C259 N258 1.338 . S
C259 C261 1.378 . S
C259 H271 0.929 . S
C260 C256 1.413 . S
C260 C261 1.348 . S
C260 H276 0.931 . S
C261 C259 1.378 . S
C261 C260 1.348 . S
C261 H277 0.930 . S
Gd262 N282 2.622 . S
Gd262 N289 2.570 . S
Gd262 O296 2.353 . S
Gd262 O297 2.468 . S
Gd262 O298 2.427 . S
Gd262 O300 2.388 . S
Gd262 O301 2.386 . S
Gd262 O305 2.307 . S
Gd262 C315 2.805 . S
Gd263 N258 2.622 . S
Gd263 N264 2.570 . S
Gd263 O295 2.386 . S
Gd263 O299 2.307 . S
Gd263 O302 2.353 . S
Gd263 O303 2.468 . S
Gd263 O304 2.427 . S
Gd263 O306 2.388 . S
Gd263 C327 2.805 . S
N264 C254 1.359 . S
N264 Gd263 2.570 . S
N264 C266 1.343 . S
C265 C253 1.422 . S
C265 C267 1.321 . S
C265 H273 0.931 . S
C266 N264 1.343 . S
C266 C267 1.390 . S
C266 H268 0.931 . S
C267 C265 1.321 . S
C267 C266 1.390 . S
C267 H269 0.930 . S
H268 C266 0.931 . S
H269 C267 0.930 . S
H270 C293 0.931 . S
H271 C259 0.929 . S
H272 C294 0.930 . S
H273 C265 0.931 . S
H274 C255 0.930 . S
H275 C284 0.929 . S
H276 C260 0.931 . S
H277 C261 0.930 . S
H278 C316 0.930 . S
H279 C257 0.929 . S
H280 C285 0.931 . S
H281 C286 0.930 . S
N282 Gd262 2.622 . S
N282 C283 1.369 . S
N282 C284 1.338 . S
C283 N282 1.369 . S
C283 C287 1.415 . S
C283 C290 1.422 . S
C284 H275 0.929 . S
C284 N282 1.338 . S
C284 C286 1.378 . S
C285 H280 0.931 . S
C285 C286 1.348 . S
C285 C287 1.413 . S
C286 H281 0.930 . S
C286 C284 1.378 . S
C286 C285 1.348 . S
C287 C283 1.415 . S
C287 C285 1.413 . S
C287 C317 1.437 . S
H288 C317 0.929 . S
N289 Gd262 2.570 . S
N289 C290 1.359 . S
N289 C293 1.343 . S
C290 C283 1.422 . S
C290 N289 1.359 . S
C290 C292 1.421 . S
C291 C292 1.422 . S
C291 C294 1.321 1_554 S
C291 H318 0.931 1_554 S
C292 C290 1.421 . S
C292 C291 1.422 . S
C292 C316 1.417 . S
C293 H270 0.931 . S
C293 N289 1.343 . S
C293 C294 1.390 1_554 S
C294 H272 0.930 . S
C294 C291 1.321 1_556 S
C294 C293 1.390 1_556 S
O295 Gd263 2.386 . S
O295 C307 1.265 . S
O296 Gd262 2.353 . S
O296 C307 1.242 . S
O297 Gd262 2.468 . S
O297 C315 1.263 . S
O298 Gd262 2.427 . S
O298 C315 1.252 . S
O299 Gd263 2.307 . S
O299 C308 1.261 . S
O300 Gd262 2.388 . S
O300 C308 1.252 . S
O301 Gd262 2.386 . S
O301 C319 1.265 . S
O302 Gd263 2.353 . S
O302 C319 1.242 . S
O303 Gd263 2.468 . S
O303 C327 1.263 . S
O304 Gd263 2.427 . S
O304 C327 1.252 . S
O305 Gd262 2.307 . S
O305 C320 1.261 . S
O306 Gd263 2.388 . S
O306 C320 1.252 . S
C307 O295 1.265 . S
C307 O296 1.242 . S
C308 O299 1.261 . S
C308 O300 1.252 . S
C309 C312 1.394 . S
C309 C314 1.370 . S
C309 C315 1.500 . S
C310 C313 1.383 . S
C310 C314 1.395 . S
C311 C312 1.396 . S
C311 C313 1.365 . S
C311 H328 0.929 . S
C312 C309 1.394 . S
C312 C311 1.396 . S
C312 H329 0.930 . S
C313 C310 1.383 . S
C313 C311 1.365 . S
C313 H330 0.931 . S
C314 C309 1.370 . S
C314 C310 1.395 . S
C314 H331 0.930 . S
C315 Gd262 2.805 . S
C315 O297 1.263 . S
C315 O298 1.252 . S
C315 C309 1.500 . S
C316 H278 0.930 . S
C316 C292 1.417 . S
C316 C317 1.329 . S
C317 C287 1.437 . S
C317 H288 0.929 . S
C317 C316 1.329 . S
H318 C291 0.931 1_556 S
C319 O301 1.265 . S
C319 O302 1.242 . S
C320 O305 1.261 . S
C320 O306 1.252 . S
C321 C324 1.394 . S
C321 C326 1.370 . S
C321 C327 1.500 . S
C322 C325 1.383 . S
C322 C326 1.395 . S
C323 C324 1.396 . S
C323 C325 1.365 . S
C323 H332 0.929 . S
C324 C321 1.394 . S
C324 C323 1.396 . S
C324 H333 0.930 . S
C325 C322 1.383 . S
C325 C323 1.365 . S
C325 H334 0.931 . S
C326 C321 1.370 . S
C326 C322 1.395 . S
C326 H335 0.930 . S
C327 Gd263 2.805 . S
C327 O303 1.263 . S
C327 O304 1.252 . S
C327 C321 1.500 . S
H328 C311 0.929 . S
H329 C312 0.930 . S
H330 C313 0.931 . S
H331 C314 0.930 . S
H332 C323 0.929 . S
H333 C324 0.930 . S
H334 C325 0.931 . S
H335 C326 0.930 . S
C336 C338 1.422 . S
C336 C340 1.415 . S
C336 N342 1.369 . S
C337 C338 1.421 . S
C337 C339 1.417 . S
C337 C349 1.422 . S
C338 C336 1.422 . S
C338 C337 1.421 . S
C338 N348 1.359 . S
C339 C337 1.417 . S
C339 C341 1.329 . S
C339 H358 0.930 . S
C340 C336 1.415 . S
C340 C341 1.437 . S
C340 C344 1.413 . S
C341 C339 1.329 . S
C341 C340 1.437 . S
C341 H363 0.929 . S
N342 C336 1.369 . S
N342 C343 1.338 . S
N342 Gd347 2.622 . S
C343 N342 1.338 . S
C343 C345 1.378 . S
C343 H355 0.929 . S
C344 C340 1.413 . S
C344 C345 1.348 . S
C344 H360 0.931 . S
C345 C343 1.378 . S
C345 C344 1.348 . S
C345 H361 0.930 . S
Gd346 N366 2.622 . S
Gd346 N373 2.570 . S
Gd346 O380 2.353 . S
Gd346 O381 2.468 . S
Gd346 O382 2.427 . S
Gd346 O384 2.388 . S
Gd346 O385 2.386 . S
Gd346 O389 2.307 . S
Gd346 C399 2.805 . S
Gd347 N342 2.622 . S
Gd347 N348 2.570 . S
Gd347 O379 2.386 . S
Gd347 O383 2.307 . S
Gd347 O386 2.353 . S
Gd347 O387 2.468 . S
Gd347 O388 2.427 . S
Gd347 O390 2.388 . S
Gd347 C411 2.805 . S
N348 C338 1.359 . S
N348 Gd347 2.570 . S
N348 C350 1.343 . S
C349 C337 1.422 . S
C349 C351 1.321 . S
C349 H357 0.931 . S
C350 N348 1.343 . S
C350 C351 1.390 . S
C350 H352 0.931 . S
C351 C349 1.321 . S
C351 C350 1.390 . S
C351 H353 0.930 . S
H352 C350 0.931 . S
H353 C351 0.930 . S
H354 C377 0.931 . S
H355 C343 0.929 . S
H356 C378 0.930 . S
H357 C349 0.931 . S
H358 C339 0.930 . S
H359 C368 0.929 . S
H360 C344 0.931 . S
H361 C345 0.930 . S
H362 C400 0.930 . S
H363 C341 0.929 . S
H364 C369 0.931 . S
H365 C370 0.930 . S
N366 Gd346 2.622 . S
N366 C367 1.369 . S
N366 C368 1.338 . S
C367 N366 1.369 . S
C367 C371 1.415 . S
C367 C374 1.422 . S
C368 H359 0.929 . S
C368 N366 1.338 . S
C368 C370 1.378 . S
C369 H364 0.931 . S
C369 C370 1.348 . S
C369 C371 1.413 . S
C370 H365 0.930 . S
C370 C368 1.378 . S
C370 C369 1.348 . S
C371 C367 1.415 . S
C371 C369 1.413 . S
C371 C401 1.437 . S
H372 C401 0.929 . S
N373 Gd346 2.570 . S
N373 C374 1.359 . S
N373 C377 1.343 . S
C374 C367 1.422 . S
C374 N373 1.359 . S
C374 C376 1.421 . S
C375 C376 1.422 . S
C375 C378 1.321 . S
C375 H402 0.931 . S
C376 C374 1.421 . S
C376 C375 1.422 . S
C376 C400 1.417 . S
C377 H354 0.931 . S
C377 N373 1.343 . S
C377 C378 1.390 . S
C378 H356 0.930 . S
C378 C375 1.321 . S
C378 C377 1.390 . S
O379 Gd347 2.386 . S
O379 C391 1.265 . S
O380 Gd346 2.353 . S
O380 C391 1.242 . S
O381 Gd346 2.468 . S
O381 C399 1.263 . S
O382 Gd346 2.427 . S
O382 C399 1.252 . S
O383 Gd347 2.307 . S
O383 C392 1.261 . S
O384 Gd346 2.388 . S
O384 C392 1.252 . S
O385 Gd346 2.386 . S
O385 C403 1.265 . S
O386 Gd347 2.353 . S
O386 C403 1.242 . S
O387 Gd347 2.468 . S
O387 C411 1.263 . S
O388 Gd347 2.427 . S
O388 C411 1.252 . S
O389 Gd346 2.307 . S
O389 C404 1.261 . S
O390 Gd347 2.388 . S
O390 C404 1.252 . S
C391 O379 1.265 . S
C391 O380 1.242 . S
C392 O383 1.261 . S
C392 O384 1.252 . S
C393 C396 1.394 . S
C393 C398 1.370 . S
C393 C399 1.500 . S
C394 C397 1.383 . S
C394 C398 1.395 . S
C395 C396 1.396 . S
C395 C397 1.365 . S
C395 H412 0.929 . S
C396 C393 1.394 . S
C396 C395 1.396 . S
C396 H413 0.930 . S
C397 C394 1.383 . S
C397 C395 1.365 . S
C397 H414 0.931 . S
C398 C393 1.370 . S
C398 C394 1.395 . S
C398 H415 0.930 . S
C399 Gd346 2.805 . S
C399 O381 1.263 . S
C399 O382 1.252 . S
C399 C393 1.500 . S
C400 H362 0.930 . S
C400 C376 1.417 . S
C400 C401 1.329 . S
C401 C371 1.437 . S
C401 H372 0.929 . S
C401 C400 1.329 . S
H402 C375 0.931 . S
C403 O385 1.265 . S
C403 O386 1.242 . S
C404 O389 1.261 . S
C404 O390 1.252 . S
C405 C408 1.394 . S
C405 C410 1.370 . S
C405 C411 1.500 . S
C406 C409 1.383 . S
C406 C410 1.395 . S
C407 C408 1.396 . S
C407 C409 1.365 . S
C407 H416 0.929 . S
C408 C405 1.394 . S
C408 C407 1.396 . S
C408 H417 0.930 . S
C409 C406 1.383 . S
C409 C407 1.365 . S
C409 H418 0.931 . S
C410 C405 1.370 . S
C410 C406 1.395 . S
C410 H419 0.930 . S
C411 Gd347 2.805 . S
C411 O387 1.263 . S
C411 O388 1.252 . S
C411 C405 1.500 . S
H412 C395 0.929 . S
H413 C396 0.930 . S
H414 C397 0.931 . S
H415 C398 0.930 . S
H416 C407 0.929 . S
H417 C408 0.930 . S
H418 C409 0.931 . S
H419 C410 0.930 . S
C420 C422 1.422 . S
C420 C424 1.415 . S
C420 N426 1.369 . S
C421 C422 1.421 . S
C421 C423 1.417 . S
C421 C433 1.422 . S
C422 C420 1.422 . S
C422 C421 1.421 . S
C422 N432 1.359 . S
C423 C421 1.417 . S
C423 C425 1.329 . S
C423 H442 0.930 . S
C424 C420 1.415 . S
C424 C425 1.437 . S
C424 C428 1.413 . S
C425 C423 1.329 . S
C425 C424 1.437 . S
C425 H447 0.929 . S
N426 C420 1.369 . S
N426 C427 1.338 . S
N426 Gd431 2.622 . S
C427 N426 1.338 . S
C427 C429 1.378 . S
C427 H439 0.929 . S
C428 C424 1.413 . S
C428 C429 1.348 . S
C428 H444 0.931 . S
C429 C427 1.378 . S
C429 C428 1.348 . S
C429 H445 0.930 . S
Gd430 N450 2.622 . S
Gd430 N457 2.570 . S
Gd430 O464 2.353 . S
Gd430 O465 2.468 . S
Gd430 O466 2.427 . S
Gd430 O468 2.388 . S
Gd430 O469 2.386 . S
Gd430 O473 2.307 . S
Gd430 C483 2.805 . S
Gd431 N426 2.622 . S
Gd431 N432 2.570 . S
Gd431 O463 2.386 . S
Gd431 O467 2.307 . S
Gd431 O470 2.353 . S
Gd431 O471 2.468 . S
Gd431 O472 2.427 . S
Gd431 O474 2.388 . S
Gd431 C495 2.805 . S
N432 C422 1.359 . S
N432 Gd431 2.570 . S
N432 C434 1.343 . S
C433 C421 1.422 . S
C433 C435 1.321 . S
C433 H441 0.931 . S
C434 N432 1.343 . S
C434 C435 1.390 . S
C434 H436 0.931 . S
C435 C433 1.321 . S
C435 C434 1.390 . S
C435 H437 0.930 . S
H436 C434 0.931 . S
H437 C435 0.930 . S
H438 C461 0.931 . S
H439 C427 0.929 . S
H440 C462 0.930 . S
H441 C433 0.931 . S
H442 C423 0.930 . S
H443 C452 0.929 . S
H444 C428 0.931 . S
H445 C429 0.930 . S
H446 C484 0.930 . S
H447 C425 0.929 . S
H448 C453 0.931 . S
H449 C454 0.930 . S
N450 Gd430 2.622 . S
N450 C451 1.369 . S
N450 C452 1.338 . S
C451 N450 1.369 . S
C451 C455 1.415 . S
C451 C458 1.422 . S
C452 H443 0.929 . S
C452 N450 1.338 . S
C452 C454 1.378 . S
C453 H448 0.931 . S
C453 C454 1.348 . S
C453 C455 1.413 . S
C454 H449 0.930 . S
C454 C452 1.378 . S
C454 C453 1.348 . S
C455 C451 1.415 . S
C455 C453 1.413 . S
C455 C485 1.437 . S
H456 C485 0.929 . S
N457 Gd430 2.570 . S
N457 C458 1.359 . S
N457 C461 1.343 . S
C458 C451 1.422 . S
C458 N457 1.359 . S
C458 C460 1.421 . S
C459 C460 1.422 . S
C459 C462 1.321 . S
C459 H486 0.931 . S
C460 C458 1.421 . S
C460 C459 1.422 . S
C460 C484 1.417 . S
C461 H438 0.931 . S
C461 N457 1.343 . S
C461 C462 1.390 . S
C462 H440 0.930 . S
C462 C459 1.321 . S
C462 C461 1.390 . S
O463 Gd431 2.386 . S
O463 C475 1.265 . S
O464 Gd430 2.353 . S
O464 C475 1.242 . S
O465 Gd430 2.468 . S
O465 C483 1.263 . S
O466 Gd430 2.427 . S
O466 C483 1.252 . S
O467 Gd431 2.307 . S
O467 C476 1.261 . S
O468 Gd430 2.388 . S
O468 C476 1.252 . S
O469 Gd430 2.386 . S
O469 C487 1.265 . S
O470 Gd431 2.353 . S
O470 C487 1.242 . S
O471 Gd431 2.468 . S
O471 C495 1.263 . S
O472 Gd431 2.427 . S
O472 C495 1.252 . S
O473 Gd430 2.307 . S
O473 C488 1.261 . S
O474 Gd431 2.388 . S
O474 C488 1.252 . S
C475 O463 1.265 . S
C475 O464 1.242 . S
C476 O467 1.261 . S
C476 O468 1.252 . S
C477 C480 1.394 . S
C477 C482 1.370 . S
C477 C483 1.500 . S
C478 C481 1.383 . S
C478 C482 1.395 . S
C479 C480 1.396 . S
C479 C481 1.365 . S
C479 H496 0.929 . S
C480 C477 1.394 . S
C480 C479 1.396 . S
C480 H497 0.930 . S
C481 C478 1.383 . S
C481 C479 1.365 . S
C481 H498 0.931 . S
C482 C477 1.370 . S
C482 C478 1.395 . S
C482 H499 0.930 . S
C483 Gd430 2.805 . S
C483 O465 1.263 . S
C483 O466 1.252 . S
C483 C477 1.500 . S
C484 H446 0.930 . S
C484 C460 1.417 . S
C484 C485 1.329 . S
C485 C455 1.437 . S
C485 H456 0.929 . S
C485 C484 1.329 . S
H486 C459 0.931 . S
C487 O469 1.265 . S
C487 O470 1.242 . S
C488 O473 1.261 . S
C488 O474 1.252 . S
C489 C492 1.394 . S
C489 C494 1.370 . S
C489 C495 1.500 . S
C490 C493 1.383 . S
C490 C494 1.395 . S
C491 C492 1.396 . S
C491 C493 1.365 . S
C491 H500 0.929 . S
C492 C489 1.394 . S
C492 C491 1.396 . S
C492 H501 0.930 . S
C493 C490 1.383 . S
C493 C491 1.365 . S
C493 H502 0.931 . S
C494 C489 1.370 . S
C494 C490 1.395 . S
C494 H503 0.930 . S
C495 Gd431 2.805 . S
C495 O471 1.263 . S
C495 O472 1.252 . S
C495 C489 1.500 . S
H496 C479 0.929 . S
H497 C480 0.930 . S
H498 C481 0.931 . S
H499 C482 0.930 . S
H500 C491 0.929 . S
H501 C492 0.930 . S
H502 C493 0.931 . S
H503 C494 0.930 . S
C504 C506 1.422 . S
C504 C508 1.415 . S
C504 N510 1.369 . S
C505 C506 1.421 . S
C505 C507 1.417 . S
C505 C517 1.422 . S
C506 C504 1.422 . S
C506 C505 1.421 . S
C506 N516 1.359 . S
C507 C505 1.417 . S
C507 C509 1.329 . S
C507 H526 0.930 . S
C508 C504 1.415 . S
C508 C509 1.437 . S
C508 C512 1.413 . S
C509 C507 1.329 . S
C509 C508 1.437 . S
C509 H531 0.929 . S
N510 C504 1.369 . S
N510 C511 1.338 . S
N510 Gd515 2.622 . S
C511 N510 1.338 . S
C511 C513 1.378 . S
C511 H523 0.929 . S
C512 C508 1.413 . S
C512 C513 1.348 . S
C512 H528 0.931 . S
C513 C511 1.378 . S
C513 C512 1.348 . S
C513 H529 0.930 . S
Gd514 N534 2.622 . S
Gd514 N541 2.570 . S
Gd514 O548 2.353 . S
Gd514 O549 2.468 . S
Gd514 O550 2.427 . S
Gd514 O552 2.388 . S
Gd514 O553 2.386 . S
Gd514 O557 2.307 . S
Gd514 C567 2.805 . S
Gd515 N510 2.622 . S
Gd515 N516 2.570 . S
Gd515 O547 2.386 . S
Gd515 O551 2.307 . S
Gd515 O554 2.353 . S
Gd515 O555 2.468 . S
Gd515 O556 2.427 . S
Gd515 O558 2.388 . S
Gd515 C579 2.805 . S
N516 C506 1.359 . S
N516 Gd515 2.570 . S
N516 C518 1.343 . S
C517 C505 1.422 . S
C517 C519 1.321 . S
C517 H525 0.931 . S
C518 N516 1.343 . S
C518 C519 1.390 . S
C518 H520 0.931 . S
C519 C517 1.321 . S
C519 C518 1.390 . S
C519 H521 0.930 . S
H520 C518 0.931 . S
H521 C519 0.930 . S
H522 C545 0.931 . S
H523 C511 0.929 . S
H524 C546 0.930 . S
H525 C517 0.931 . S
H526 C507 0.930 . S
H527 C536 0.929 . S
H528 C512 0.931 . S
H529 C513 0.930 . S
H530 C568 0.930 . S
H531 C509 0.929 . S
H532 C537 0.931 . S
H533 C538 0.930 . S
N534 Gd514 2.622 . S
N534 C535 1.369 . S
N534 C536 1.338 . S
C535 N534 1.369 . S
C535 C539 1.415 . S
C535 C542 1.422 . S
C536 H527 0.929 . S
C536 N534 1.338 . S
C536 C538 1.378 . S
C537 H532 0.931 . S
C537 C538 1.348 . S
C537 C539 1.413 . S
C538 H533 0.930 . S
C538 C536 1.378 . S
C538 C537 1.348 . S
C539 C535 1.415 . S
C539 C537 1.413 . S
C539 C569 1.437 . S
H540 C569 0.929 . S
N541 Gd514 2.570 . S
N541 C542 1.359 . S
N541 C545 1.343 . S
C542 C535 1.422 . S
C542 N541 1.359 . S
C542 C544 1.421 . S
C543 C544 1.422 . S
C543 C546 1.321 . S
C543 H570 0.931 . S
C544 C542 1.421 . S
C544 C543 1.422 . S
C544 C568 1.417 . S
C545 H522 0.931 . S
C545 N541 1.343 . S
C545 C546 1.390 . S
C546 H524 0.930 . S
C546 C543 1.321 . S
C546 C545 1.390 . S
O547 Gd515 2.386 . S
O547 C559 1.265 . S
O548 Gd514 2.353 . S
O548 C559 1.242 . S
O549 Gd514 2.468 . S
O549 C567 1.263 . S
O550 Gd514 2.427 . S
O550 C567 1.252 . S
O551 Gd515 2.307 . S
O551 C560 1.261 . S
O552 Gd514 2.388 . S
O552 C560 1.252 . S
O553 Gd514 2.386 . S
O553 C571 1.265 . S
O554 Gd515 2.353 . S
O554 C571 1.242 . S
O555 Gd515 2.468 . S
O555 C579 1.263 . S
O556 Gd515 2.427 . S
O556 C579 1.252 . S
O557 Gd514 2.307 . S
O557 C572 1.261 . S
O558 Gd515 2.388 . S
O558 C572 1.252 . S
C559 O547 1.265 . S
C559 O548 1.242 . S
C560 O551 1.261 . S
C560 O552 1.252 . S
C561 C564 1.397 . S
C561 C566 1.370 1_556 S
C561 C567 1.500 . S
C562 C565 1.383 . S
C562 C566 1.395 . S
C563 C564 1.388 1_554 S
C563 C565 1.365 . S
C563 H580 0.929 . S
C564 C561 1.397 . S
C564 C563 1.388 1_556 S
C564 H581 0.934 . S
C565 C562 1.383 . S
C565 C563 1.365 . S
C565 H582 0.931 . S
C566 C561 1.370 1_554 S
C566 C562 1.395 . S
C566 H583 0.930 . S
C567 Gd514 2.805 . S
C567 O549 1.263 . S
C567 O550 1.252 . S
C567 C561 1.500 . S
C568 H530 0.930 . S
C568 C544 1.417 . S
C568 C569 1.329 . S
C569 C539 1.437 . S
C569 H540 0.929 . S
C569 C568 1.329 . S
H570 C543 0.931 . S
C571 O553 1.265 . S
C571 O554 1.242 . S
C572 O557 1.261 . S
C572 O558 1.252 . S
C573 C576 1.394 . S
C573 C578 1.370 . S
C573 C579 1.500 . S
C574 C577 1.383 . S
C574 C578 1.395 . S
C575 C576 1.396 . S
C575 C577 1.365 . S
C575 H584 0.929 . S
C576 C573 1.394 . S
C576 C575 1.396 . S
C576 H585 0.930 . S
C577 C574 1.383 . S
C577 C575 1.365 . S
C577 H586 0.931 . S
C578 C573 1.370 . S
C578 C574 1.395 . S
C578 H587 0.930 . S
C579 Gd515 2.805 . S
C579 O555 1.263 . S
C579 O556 1.252 . S
C579 C573 1.500 . S
H580 C563 0.929 . S
H581 C564 0.934 . S
H582 C565 0.931 . S
H583 C566 0.930 . S
H584 C575 0.929 . S
H585 C576 0.930 . S
H586 C577 0.931 . S
H587 C578 0.930 . S
C588 C590 1.422 . S
C588 C592 1.415 . S
C588 N594 1.369 . S
C589 C590 1.421 . S
C589 C591 1.417 . S
C589 C601 1.422 . S
C590 C588 1.422 . S
C590 C589 1.421 . S
C590 N600 1.359 . S
C591 C589 1.417 . S
C591 C593 1.329 . S
C591 H610 0.930 . S
C592 C588 1.415 . S
C592 C593 1.437 . S
C592 C596 1.413 . S
C593 C591 1.329 . S
C593 C592 1.437 . S
C593 H615 0.929 . S
N594 C588 1.369 . S
N594 C595 1.338 . S
N594 Gd599 2.622 . S
C595 N594 1.338 . S
C595 C597 1.378 . S
C595 H607 0.929 . S
C596 C592 1.413 . S
C596 C597 1.348 . S
C596 H612 0.931 . S
C597 C595 1.378 . S
C597 C596 1.348 . S
C597 H613 0.930 . S
Gd598 N618 2.622 . S
Gd598 N625 2.570 . S
Gd598 O632 2.353 . S
Gd598 O633 2.468 . S
Gd598 O634 2.427 . S
Gd598 O636 2.388 . S
Gd598 O637 2.386 . S
Gd598 O641 2.307 . S
Gd598 C651 2.805 . S
Gd599 N594 2.622 . S
Gd599 N600 2.570 . S
Gd599 O631 2.386 . S
Gd599 O635 2.307 . S
Gd599 O638 2.353 . S
Gd599 O639 2.468 . S
Gd599 O640 2.427 . S
Gd599 O642 2.388 . S
Gd599 C663 2.805 . S
N600 C590 1.359 . S
N600 Gd599 2.570 . S
N600 C602 1.343 . S
C601 C589 1.422 . S
C601 C603 1.321 . S
C601 H609 0.953 . S
C602 N600 1.343 . S
C602 C603 1.390 . S
C602 H604 0.931 . S
C603 C601 1.321 . S
C603 C602 1.390 . S
C603 H605 0.930 . S
H604 C602 0.931 . S
H605 C603 0.930 . S
H606 C629 0.931 . S
H607 C595 0.929 . S
H608 C630 0.930 . S
H609 C601 0.953 . S
H610 C591 0.930 . S
H611 C620 0.929 . S
H612 C596 0.931 . S
H613 C597 0.930 . S
H614 C652 0.930 . S
H615 C593 0.929 . S
H616 C621 0.931 . S
H617 C622 0.930 . S
N618 Gd598 2.622 . S
N618 C619 1.369 . S
N618 C620 1.338 . S
C619 N618 1.369 . S
C619 C623 1.415 . S
C619 C626 1.422 . S
C620 H611 0.929 . S
C620 N618 1.338 . S
C620 C622 1.378 . S
C621 H616 0.931 . S
C621 C622 1.348 . S
C621 C623 1.413 . S
C622 H617 0.930 . S
C622 C620 1.378 . S
C622 C621 1.348 . S
C623 C619 1.415 . S
C623 C621 1.413 . S
C623 C653 1.437 . S
H624 C653 0.929 . S
N625 Gd598 2.570 . S
N625 C626 1.359 . S
N625 C629 1.343 . S
C626 C619 1.422 . S
C626 N625 1.359 . S
C626 C628 1.421 . S
C627 C628 1.422 . S
C627 C630 1.321 . S
C627 H654 0.931 . S
C628 C626 1.421 . S
C628 C627 1.422 . S
C628 C652 1.417 . S
C629 H606 0.931 . S
C629 N625 1.343 . S
C629 C630 1.390 . S
C630 H608 0.930 . S
C630 C627 1.321 . S
C630 C629 1.390 . S
O631 Gd599 2.386 . S
O631 C643 1.265 . S
O632 Gd598 2.353 . S
O632 C643 1.242 . S
O633 Gd598 2.468 . S
O633 C651 1.263 . S
O634 Gd598 2.427 . S
O634 C651 1.252 . S
O635 Gd599 2.307 . S
O635 C644 1.261 . S
O636 Gd598 2.388 . S
O636 C644 1.252 . S
O637 Gd598 2.386 . S
O637 C655 1.265 . S
O638 Gd599 2.353 . S
O638 C655 1.242 . S
O639 Gd599 2.468 . S
O639 C663 1.263 . S
O640 Gd599 2.427 . S
O640 C663 1.252 . S
O641 Gd598 2.307 . S
O641 C656 1.261 . S
O642 Gd599 2.388 . S
O642 C656 1.252 . S
C643 O631 1.265 . S
C643 O632 1.242 . S
C644 O635 1.261 . S
C644 O636 1.252 . S
C645 C648 1.394 . S
C645 C650 1.370 . S
C645 C651 1.500 . S
C646 C649 1.383 . S
C646 C650 1.395 . S
C647 C648 1.396 . S
C647 C649 1.365 . S
C647 H664 0.929 . S
C648 C645 1.394 . S
C648 C647 1.396 . S
C648 H665 0.930 . S
C649 C646 1.383 . S
C649 C647 1.365 . S
C649 H666 0.931 . S
C650 C645 1.370 . S
C650 C646 1.395 . S
C650 H667 0.930 . S
C651 Gd598 2.805 . S
C651 O633 1.263 . S
C651 O634 1.252 . S
C651 C645 1.500 . S
C652 H614 0.930 . S
C652 C628 1.417 . S
C652 C653 1.329 . S
C653 C623 1.437 . S
C653 H624 0.929 . S
C653 C652 1.329 . S
H654 C627 0.931 . S
C655 O637 1.265 . S
C655 O638 1.242 . S
C656 O641 1.261 . S
C656 O642 1.252 . S
C657 C660 1.394 . S
C657 C662 1.370 1_556 S
C657 C663 1.500 . S
C658 C661 1.383 . S
C658 C662 1.395 . S
C659 C660 1.396 1_554 S
C659 C661 1.365 . S
C659 H668 0.929 . S
C660 C657 1.394 . S
C660 C659 1.396 1_556 S
C660 H669 0.930 . S
C661 C658 1.383 . S
C661 C659 1.365 . S
C661 H670 0.931 . S
C662 C657 1.370 1_554 S
C662 C658 1.395 . S
C662 H671 0.930 . S
C663 Gd599 2.805 . S
C663 O639 1.263 . S
C663 O640 1.252 . S
C663 C657 1.500 . S
H664 C647 0.929 . S
H665 C648 0.930 . S
H666 C649 0.931 . S
H667 C650 0.930 . S
H668 C659 0.929 . S
H669 C660 0.930 . S
H670 C661 0.931 . S
H671 C662 0.930 . S
C672 C674 1.422 . S
C672 C676 1.415 . S
C672 N678 1.369 . S
C673 C674 1.421 . S
C673 C675 1.417 . S
C673 C685 1.422 . S
C674 C672 1.422 . S
C674 C673 1.421 . S
C674 N684 1.359 . S
C675 C673 1.417 . S
C675 C677 1.329 . S
C675 H694 0.930 . S
C676 C672 1.415 . S
C676 C677 1.437 . S
C676 C680 1.413 . S
C677 C675 1.329 . S
C677 C676 1.437 . S
C677 H699 0.929 . S
N678 C672 1.369 . S
N678 C679 1.338 . S
N678 Gd683 2.622 . S
C679 N678 1.338 . S
C679 C681 1.378 . S
C679 H691 0.929 . S
C680 C676 1.413 . S
C680 C681 1.348 . S
C680 H696 0.931 . S
C681 C679 1.378 . S
C681 C680 1.348 . S
C681 H697 0.930 . S
Gd682 N702 2.622 . S
Gd682 N709 2.570 . S
Gd682 O716 2.353 . S
Gd682 O717 2.468 . S
Gd682 O718 2.427 . S
Gd682 O720 2.388 . S
Gd682 O721 2.386 . S
Gd682 O725 2.307 . S
Gd682 C735 2.805 . S
Gd683 N678 2.622 . S
Gd683 N684 2.570 . S
Gd683 O715 2.386 . S
Gd683 O719 2.307 . S
Gd683 O722 2.353 . S
Gd683 O723 2.468 . S
Gd683 O724 2.427 . S
Gd683 O726 2.388 . S
Gd683 C747 2.805 . S
N684 C674 1.359 . S
N684 Gd683 2.570 . S
N684 C686 1.343 . S
C685 C673 1.422 . S
C685 C687 1.321 . S
C685 H693 0.931 . S
C686 N684 1.343 . S
C686 C687 1.390 . S
C686 H688 0.931 . S
C687 C685 1.321 . S
C687 C686 1.390 . S
C687 H689 0.930 . S
H688 C686 0.931 . S
H689 C687 0.930 . S
H690 C713 0.931 . S
H691 C679 0.929 . S
H692 C714 0.930 . S
H693 C685 0.931 . S
H694 C675 0.930 . S
H695 C704 0.929 . S
H696 C680 0.931 . S
H697 C681 0.930 . S
H698 C736 0.930 1_455 S
H699 C677 0.929 . S
H700 C705 0.931 . S
H701 C706 0.930 . S
N702 Gd682 2.622 . S
N702 C703 1.369 . S
N702 C704 1.338 . S
C703 N702 1.369 . S
C703 C707 1.415 . S
C703 C710 1.422 . S
C704 H695 0.929 . S
C704 N702 1.338 . S
C704 C706 1.378 . S
C705 H700 0.931 . S
C705 C706 1.348 . S
C705 C707 1.413 . S
C706 H701 0.930 . S
C706 C704 1.378 . S
C706 C705 1.348 . S
C707 C703 1.415 . S
C707 C705 1.413 . S
C707 C737 1.437 . S
H708 C737 0.929 . S
N709 Gd682 2.570 . S
N709 C710 1.359 . S
N709 C713 1.343 . S
C710 C703 1.422 . S
C710 N709 1.359 . S
C710 C712 1.421 . S
C711 C712 1.422 . S
C711 C714 1.321 . S
C711 H738 0.931 1_655 S
C712 C710 1.421 . S
C712 C711 1.422 . S
C712 C736 1.417 . S
C713 H690 0.931 . S
C713 N709 1.343 . S
C713 C714 1.390 . S
C714 H692 0.930 . S
C714 C711 1.321 . S
C714 C713 1.390 . S
O715 Gd683 2.386 . S
O715 C727 1.265 . S
O716 Gd682 2.353 . S
O716 C727 1.242 . S
O717 Gd682 2.468 . S
O717 C735 1.263 . S
O718 Gd682 2.427 . S
O718 C735 1.252 . S
O719 Gd683 2.307 . S
O719 C728 1.261 . S
O720 Gd682 2.388 . S
O720 C728 1.252 . S
O721 Gd682 2.386 . S
O721 C739 1.265 . S
O722 Gd683 2.353 . S
O722 C739 1.242 . S
O723 Gd683 2.468 . S
O723 C747 1.263 . S
O724 Gd683 2.427 . S
O724 C747 1.252 . S
O725 Gd682 2.307 . S
O725 C740 1.261 . S
O726 Gd683 2.388 . S
O726 C740 1.252 . S
C727 O715 1.265 . S
C727 O716 1.242 . S
C728 O719 1.261 . S
C728 O720 1.252 . S
C729 C732 1.394 1_556 S
C729 C734 1.370 1_556 S
C729 C735 1.500 . S
C730 C733 1.383 . S
C730 C734 1.395 . S
C731 C732 1.396 . S
C731 C733 1.365 . S
C731 H748 0.929 . S
C732 C729 1.394 1_554 S
C732 C731 1.396 . S
C732 H749 0.930 1_554 S
C733 C730 1.383 . S
C733 C731 1.365 . S
C733 H750 0.931 . S
C734 C729 1.370 1_554 S
C734 C730 1.395 . S
C734 H751 0.930 . S
C735 Gd682 2.805 . S
C735 O717 1.263 . S
C735 O718 1.252 . S
C735 C729 1.500 . S
C736 H698 0.930 1_655 S
C736 C712 1.417 . S
C736 C737 1.329 . S
C737 C707 1.437 . S
C737 H708 0.929 . S
C737 C736 1.329 . S
H738 C711 0.931 1_455 S
C739 O721 1.265 . S
C739 O722 1.242 . S
C740 O725 1.261 . S
C740 O726 1.252 . S
C741 C744 1.394 . S
C741 C746 1.370 . S
C741 C747 1.500 . S
C742 C745 1.383 . S
C742 C746 1.395 . S
C743 C744 1.396 . S
C743 C745 1.365 . S
C743 H752 0.929 . S
C744 C741 1.394 . S
C744 C743 1.396 . S
C744 H753 0.930 . S
C745 C742 1.383 . S
C745 C743 1.365 . S
C745 H754 0.931 . S
C746 C741 1.370 . S
C746 C742 1.395 . S
C746 H755 0.930 . S
C747 Gd683 2.805 . S
C747 O723 1.263 . S
C747 O724 1.252 . S
C747 C741 1.500 . S
H748 C731 0.929 . S
H749 C732 0.930 1_556 S
H750 C733 0.931 . S
H751 C734 0.930 . S
H752 C743 0.929 . S
H753 C744 0.930 . S
H754 C745 0.931 . S
H755 C746 0.930 . S
H756 C764 0.951 . S
H757 C769 0.950 . S
H758 C766 0.950 . S
H759 C768 0.950 . S
H760 C770 0.950 . S
H761 C772 0.950 . S
H762 C774 0.950 . S
H763 C775 0.950 . S
C764 H756 0.951 . S
C764 C765 1.386 . S
C764 C766 1.391 . S
C765 C764 1.386 . S
C765 C769 1.393 . S
C766 H758 0.950 . S
C766 C764 1.391 . S
C766 C767 1.400 . S
C767 C766 1.400 . S
C767 C768 1.398 . S
C767 C773 1.491 . S
C768 H759 0.950 . S
C768 C767 1.398 . S
C768 C769 1.391 . S
C769 H757 0.950 . S
C769 C765 1.393 . S
C769 C768 1.391 . S
C770 H760 0.950 . S
C770 C771 1.386 . S
C770 C772 1.391 . S
C771 C770 1.386 . S
C771 C775 1.393 . S
C772 H761 0.950 . S
C772 C770 1.391 . S
C772 C773 1.400 . S
C773 C767 1.491 . S
C773 C772 1.400 . S
C773 C774 1.398 . S
C774 H762 0.950 . S
C774 C773 1.398 . S
C774 C775 1.391 . S
C775 H763 0.950 . S
C775 C771 1.393 . S
C775 C774 1.391 . S
H776 C784 0.950 . S
H777 C789 0.950 . S
H778 C786 0.950 . S
H779 C788 0.950 . S
H780 C790 0.950 . S
H781 C792 0.950 . S
H782 C794 0.950 . S
H783 C795 0.950 . S
C784 H776 0.950 . S
C784 C785 1.386 . S
C784 C786 1.391 . S
C785 C784 1.386 . S
C785 C789 1.393 . S
C786 H778 0.950 . S
C786 C784 1.391 . S
C786 C787 1.400 . S
C787 C786 1.400 . S
C787 C788 1.398 . S
C787 C793 1.491 . S
C788 H779 0.950 . S
C788 C787 1.398 . S
C788 C789 1.391 . S
C789 H777 0.950 . S
C789 C785 1.393 . S
C789 C788 1.391 . S
C790 H780 0.950 . S
C790 C791 1.386 . S
C790 C792 1.391 . S
C791 C790 1.386 . S
C791 C795 1.393 . S
C792 H781 0.950 . S
C792 C790 1.391 . S
C792 C793 1.400 . S
C793 C787 1.491 . S
C793 C792 1.400 . S
C793 C794 1.398 . S
C794 H782 0.950 . S
C794 C793 1.398 . S
C794 C795 1.391 . S
C795 H783 0.950 . S
C795 C791 1.393 . S
C795 C794 1.391 . S
H796 C804 0.950 . S
H797 C809 0.950 . S
H798 C806 0.950 . S
H799 C808 0.950 . S
H800 C810 0.950 . S
H801 C812 0.950 . S
H802 C814 0.950 . S
H803 C815 0.950 . S
C804 H796 0.950 . S
C804 C805 1.386 . S
C804 C806 1.391 . S
C805 C804 1.386 . S
C805 C809 1.393 . S
C806 H798 0.950 . S
C806 C804 1.391 . S
C806 C807 1.400 . S
C807 C806 1.400 . S
C807 C808 1.398 . S
C807 C813 1.491 . S
C808 H799 0.950 . S
C808 C807 1.398 . S
C808 C809 1.391 . S
C809 H797 0.950 . S
C809 C805 1.393 . S
C809 C808 1.391 . S
C810 H800 0.950 . S
C810 C811 1.386 . S
C810 C812 1.391 . S
C811 C810 1.386 . S
C811 C815 1.393 . S
C812 H801 0.950 . S
C812 C810 1.391 . S
C812 C813 1.400 . S
C813 C807 1.491 . S
C813 C812 1.400 . S
C813 C814 1.398 . S
C814 H802 0.950 . S
C814 C813 1.398 . S
C814 C815 1.391 . S
C815 H803 0.950 . S
C815 C811 1.393 . S
C815 C814 1.391 . S
H816 C824 0.950 . S
H817 C829 0.950 . S
H818 C826 0.950 . S
H819 C828 0.950 . S
H820 C830 0.950 . S
H821 C832 0.950 . S
H822 C834 0.950 . S
H823 C835 0.950 . S
C824 H816 0.950 . S
C824 C825 1.386 . S
C824 C826 1.391 . S
C825 C824 1.386 . S
C825 C829 1.393 . S
C826 H818 0.950 . S
C826 C824 1.391 . S
C826 C827 1.400 . S
C827 C826 1.400 . S
C827 C828 1.398 . S
C827 C833 1.491 . S
C828 H819 0.950 . S
C828 C827 1.398 . S
C828 C829 1.391 . S
C829 H817 0.950 . S
C829 C825 1.393 . S
C829 C828 1.391 . S
C830 H820 0.950 . S
C830 C831 1.386 . S
C830 C832 1.391 . S
C831 C830 1.386 . S
C831 C835 1.393 . S
C832 H821 0.950 . S
C832 C830 1.391 . S
C832 C833 1.400 . S
C833 C827 1.491 . S
C833 C832 1.400 . S
C833 C834 1.398 . S
C834 H822 0.950 . S
C834 C833 1.398 . S
C834 C835 1.391 . S
C835 H823 0.950 . S
C835 C831 1.393 . S
C835 C834 1.391 . S
H836 C844 0.950 . S
H837 C849 0.950 . S
H838 C846 0.950 . S
H839 C848 0.950 . S
H840 C850 0.950 . S
H841 C852 0.950 . S
H842 C854 0.950 . S
H843 C855 0.950 . S
C844 H836 0.950 . S
C844 C845 1.386 . S
C844 C846 1.391 . S
C845 C844 1.386 . S
C845 C849 1.393 . S
C846 H838 0.950 . S
C846 C844 1.391 . S
C846 C847 1.400 . S
C847 C846 1.400 . S
C847 C848 1.398 . S
C847 C853 1.491 . S
C848 H839 0.950 . S
C848 C847 1.398 . S
C848 C849 1.391 . S
C849 H837 0.950 . S
C849 C845 1.393 . S
C849 C848 1.391 . S
C850 H840 0.950 . S
C850 C851 1.386 . S
C850 C852 1.391 . S
C851 C850 1.386 . S
C851 C855 1.393 . S
C852 H841 0.950 . S
C852 C850 1.391 . S
C852 C853 1.400 . S
C853 C847 1.491 . S
C853 C852 1.400 . S
C853 C854 1.398 . S
C854 H842 0.950 . S
C854 C853 1.398 . S
C854 C855 1.391 . S
C855 H843 0.950 . S
C855 C851 1.393 . S
C855 C854 1.391 . S
H856 C864 0.950 . S
H857 C869 0.950 . S
H858 C866 0.950 . S
H859 C868 0.950 . S
H860 C870 0.950 . S
H861 C872 0.950 . S
H862 C874 0.950 . S
H863 C875 0.950 . S
C864 H856 0.950 . S
C864 C865 1.386 . S
C864 C866 1.391 . S
C865 C864 1.386 . S
C865 C869 1.393 . S
C866 H858 0.950 . S
C866 C864 1.391 . S
C866 C867 1.400 . S
C867 C866 1.400 . S
C867 C868 1.398 . S
C867 C873 1.491 . S
C868 H859 0.950 . S
C868 C867 1.398 . S
C868 C869 1.391 . S
C869 H857 0.950 . S
C869 C865 1.393 . S
C869 C868 1.391 . S
C870 H860 0.950 . S
C870 C871 1.386 1_556 S
C870 C872 1.391 . S
C871 C870 1.386 1_554 S
C871 C875 1.393 . S
C872 H861 0.950 . S
C872 C870 1.391 . S
C872 C873 1.400 . S
C873 C867 1.491 . S
C873 C872 1.400 . S
C873 C874 1.398 . S
C874 H862 0.950 . S
C874 C873 1.398 . S
C874 C875 1.391 1_556 S
C875 H863 0.950 . S
C875 C871 1.393 . S
C875 C874 1.391 1_554 S
H876 C884 0.950 . S
H877 C889 0.950 . S
H878 C886 0.950 . S
H879 C888 0.950 . S
H880 C890 0.950 . S
H881 C892 0.950 . S
H882 C894 0.950 . S
H883 C895 0.950 . S
C884 H876 0.950 . S
C884 C885 1.386 . S
C884 C886 1.391 . S
C885 C884 1.386 . S
C885 C889 1.393 . S
C886 H878 0.950 . S
C886 C884 1.391 . S
C886 C887 1.400 . S
C887 C886 1.400 . S
C887 C888 1.398 . S
C887 C893 1.491 . S
C888 H879 0.950 . S
C888 C887 1.398 . S
C888 C889 1.391 . S
C889 H877 0.950 . S
C889 C885 1.393 . S
C889 C888 1.391 . S
C890 H880 0.950 . S
C890 C891 1.386 . S
C890 C892 1.391 . S
C891 C890 1.386 . S
C891 C895 1.393 . S
C892 H881 0.950 . S
C892 C890 1.391 . S
C892 C893 1.400 . S
C893 C887 1.491 . S
C893 C892 1.400 . S
C893 C894 1.398 . S
C894 H882 0.950 . S
C894 C893 1.398 . S
C894 C895 1.391 . S
C895 H883 0.950 . S
C895 C891 1.393 . S
C895 C894 1.391 . S
H896 C904 0.950 . S
H897 C909 0.950 . S
H898 C906 0.950 . S
H899 C908 0.950 . S
H900 C910 0.950 . S
H901 C912 0.950 . S
H902 C914 0.950 . S
H903 C915 0.950 1_556 S
C904 H896 0.950 . S
C904 C905 1.386 . S
C904 C906 1.391 . S
C905 C904 1.386 . S
C905 C909 1.393 . S
C906 H898 0.950 . S
C906 C904 1.391 . S
C906 C907 1.400 . S
C907 C906 1.400 . S
C907 C908 1.398 . S
C907 C913 1.491 . S
C908 H899 0.950 . S
C908 C907 1.398 . S
C908 C909 1.391 . S
C909 H897 0.950 . S
C909 C905 1.393 . S
C909 C908 1.391 . S
C910 H900 0.950 . S
C910 C911 1.386 . S
C910 C912 1.391 . S
C911 C910 1.386 . S
C911 C915 1.393 . S
C912 H901 0.950 . S
C912 C910 1.391 . S
C912 C913 1.400 . S
C913 C907 1.491 . S
C913 C912 1.400 . S
C913 C914 1.398 . S
C914 H902 0.950 . S
C914 C913 1.398 . S
C914 C915 1.391 . S
C915 H903 0.950 1_554 S
C915 C911 1.393 . S
C915 C914 1.391 . S
H916 C924 0.950 . S
H917 C929 0.950 . S
H918 C926 0.950 . S
H919 C928 0.950 . S
H920 C930 0.950 . S
H921 C932 0.950 . S
H922 C934 0.950 . S
H923 C935 0.950 . S
C924 H916 0.950 . S
C924 C925 1.386 . S
C924 C926 1.391 . S
C925 C924 1.386 . S
C925 C929 1.393 . S
C926 H918 0.950 . S
C926 C924 1.391 . S
C926 C927 1.400 . S
C927 C926 1.400 . S
C927 C928 1.398 . S
C927 C933 1.491 . S
C928 H919 0.950 . S
C928 C927 1.398 . S
C928 C929 1.391 . S
C929 H917 0.950 . S
C929 C925 1.393 . S
C929 C928 1.391 . S
C930 H920 0.950 . S
C930 C931 1.386 . S
C930 C932 1.391 . S
C931 C930 1.386 . S
C931 C935 1.393 . S
C932 H921 0.950 . S
C932 C930 1.391 . S
C932 C933 1.400 . S
C933 C927 1.491 . S
C933 C932 1.400 . S
C933 C934 1.398 . S
C934 H922 0.950 . S
C934 C933 1.398 . S
C934 C935 1.391 . S
C935 H923 0.950 . S
C935 C931 1.393 . S
C935 C934 1.391 . S
H936 C944 0.950 . S
H937 C949 0.950 . S
H938 C946 0.950 . S
H939 C948 0.950 . S
H940 C950 0.950 . S
H941 C952 0.950 . S
H942 C954 0.950 . S
H943 C955 0.950 . S
C944 H936 0.950 . S
C944 C945 1.386 . S
C944 C946 1.391 . S
C945 C944 1.386 . S
C945 C949 1.393 . S
C946 H938 0.950 . S
C946 C944 1.391 . S
C946 C947 1.400 . S
C947 C946 1.400 . S
C947 C948 1.398 . S
C947 C953 1.491 . S
C948 H939 0.950 . S
C948 C947 1.398 . S
C948 C949 1.391 . S
C949 H937 0.950 . S
C949 C945 1.393 . S
C949 C948 1.391 . S
C950 H940 0.950 . S
C950 C951 1.386 . S
C950 C952 1.391 . S
C951 C950 1.386 . S
C951 C955 1.393 . S
C952 H941 0.950 . S
C952 C950 1.391 . S
C952 C953 1.400 . S
C953 C947 1.491 . S
C953 C952 1.400 . S
C953 C954 1.398 . S
C954 H942 0.950 . S
C954 C953 1.398 . S
C954 C955 1.391 . S
C955 H943 0.950 . S
C955 C951 1.393 . S
C955 C954 1.391 . S
H956 C964 0.950 . S
H957 C969 0.950 . S
H958 C966 0.950 . S
H959 C968 0.950 . S
H960 C970 0.950 . S
H961 C972 0.950 . S
H962 C974 0.950 . S
H963 C975 0.950 . S
C964 H956 0.950 . S
C964 C965 1.386 . S
C964 C966 1.391 . S
C965 C964 1.386 . S
C965 C969 1.393 . S
C966 H958 0.950 . S
C966 C964 1.391 . S
C966 C967 1.400 . S
C967 C966 1.400 . S
C967 C968 1.398 . S
C967 C973 1.491 . S
C968 H959 0.950 . S
C968 C967 1.398 . S
C968 C969 1.391 . S
C969 H957 0.950 . S
C969 C965 1.393 . S
C969 C968 1.391 . S
C970 H960 0.950 . S
C970 C971 1.386 . S
C970 C972 1.391 . S
C971 C970 1.386 . S
C971 C975 1.393 . S
C972 H961 0.950 . S
C972 C970 1.391 . S
C972 C973 1.400 . S
C973 C967 1.491 . S
C973 C972 1.400 . S
C973 C974 1.398 . S
C974 H962 0.950 . S
C974 C973 1.398 . S
C974 C975 1.391 . S
C975 H963 0.950 . S
C975 C971 1.393 . S
C975 C974 1.391 . S
H976 C984 0.950 . S
H977 C989 0.950 . S
H978 C986 0.950 . S
H979 C988 0.966 . S
H980 C990 0.950 . S
H981 C992 0.950 . S
H982 C994 0.950 . S
H983 C995 0.950 . S
C984 H976 0.950 . S
C984 C985 1.386 . S
C984 C986 1.391 . S
C985 C984 1.386 . S
C985 C989 1.393 1_565 S
C986 H978 0.950 . S
C986 C984 1.391 . S
C986 C987 1.400 . S
C987 C986 1.400 . S
C987 C988 1.398 . S
C987 C993 1.491 . S
C988 H979 0.966 . S
C988 C987 1.398 . S
C988 C989 1.391 1_565 S
C989 H977 0.950 . S
C989 C985 1.393 1_545 S
C989 C988 1.391 1_545 S
C990 H980 0.950 . S
C990 C991 1.386 . S
C990 C992 1.391 . S
C991 C990 1.386 . S
C991 C995 1.393 . S
C992 H981 0.950 . S
C992 C990 1.391 . S
C992 C993 1.400 . S
C993 C987 1.491 . S
C993 C992 1.400 . S
C993 C994 1.398 . S
C994 H982 0.950 . S
C994 C993 1.398 . S
C994 C995 1.391 . S
C995 H983 0.950 . S
C995 C991 1.393 . S
C995 C994 1.391 . S
H996 C1004 0.950 . S
H997 C1009 0.950 . S
H998 C1006 0.950 . S
H999 C1008 0.950 . S
H1000 C1010 0.950 . S
H1001 C1012 0.950 . S
H1002 C1014 0.950 . S
H1003 C1015 0.950 . S
C1004 H996 0.950 . S
C1004 C1005 1.386 . S
C1004 C1006 1.391 . S
C1005 C1004 1.386 . S
C1005 C1009 1.393 . S
C1006 H998 0.950 . S
C1006 C1004 1.391 . S
C1006 C1007 1.400 . S
C1007 C1006 1.400 . S
C1007 C1008 1.398 . S
C1007 C1013 1.491 . S
C1008 H999 0.950 . S
C1008 C1007 1.398 . S
C1008 C1009 1.391 . S
C1009 H997 0.950 . S
C1009 C1005 1.393 . S
C1009 C1008 1.391 . S
C1010 H1000 0.950 . S
C1010 C1011 1.386 . S
C1010 C1012 1.391 . S
C1011 C1010 1.386 . S
C1011 C1015 1.393 . S
C1012 H1001 0.950 . S
C1012 C1010 1.391 . S
C1012 C1013 1.400 . S
C1013 C1007 1.491 . S
C1013 C1012 1.400 . S
C1013 C1014 1.398 . S
C1014 H1002 0.950 . S
C1014 C1013 1.398 . S
C1014 C1015 1.391 . S
C1015 H1003 0.950 . S
C1015 C1011 1.393 . S
C1015 C1014 1.391 . S
H1016 C1024 0.950 . S
H1017 C1029 0.950 . S
H1018 C1026 0.950 . S
H1019 C1028 0.950 . S
H1020 C1030 0.950 . S
H1021 C1032 0.950 . S
H1022 C1034 0.951 . S
H1023 C1035 0.950 1_455 S
C1024 H1016 0.950 . S
C1024 C1025 1.386 . S
C1024 C1026 1.391 . S
C1025 C1024 1.386 . S
C1025 C1029 1.393 . S
C1026 H1018 0.950 . S
C1026 C1024 1.391 . S
C1026 C1027 1.400 . S
C1027 C1026 1.400 . S
C1027 C1028 1.398 . S
C1027 C1033 1.491 . S
C1028 H1019 0.950 . S
C1028 C1027 1.398 . S
C1028 C1029 1.391 . S
C1029 H1017 0.950 . S
C1029 C1025 1.393 . S
C1029 C1028 1.391 . S
C1030 H1020 0.950 . S
C1030 C1031 1.386 . S
C1030 C1032 1.391 1_554 S
C1031 C1030 1.386 . S
C1031 C1035 1.393 . S
C1032 H1021 0.950 . S
C1032 C1030 1.391 1_556 S
C1032 C1033 1.400 . S
C1033 C1027 1.491 . S
C1033 C1032 1.400 . S
C1033 C1034 1.400 . S
C1034 H1022 0.951 . S
C1034 C1033 1.400 . S
C1034 C1035 1.388 1_556 S
C1035 H1023 0.950 1_655 S
C1035 C1031 1.393 . S
C1035 C1034 1.388 1_554 S
H1036 C1044 0.950 . S
H1037 C1049 0.950 . S
H1038 C1046 0.950 . S
H1039 C1048 0.950 . S
H1040 C1050 0.950 1_554 S
H1041 C1052 0.950 . S
H1042 C1054 0.950 . S
H1043 C1055 0.950 . S
C1044 H1036 0.950 . S
C1044 C1045 1.386 . S
C1044 C1046 1.391 . S
C1045 C1044 1.386 . S
C1045 C1049 1.393 . S
C1046 H1038 0.950 . S
C1046 C1044 1.391 . S
C1046 C1047 1.400 . S
C1047 C1046 1.400 . S
C1047 C1048 1.398 . S
C1047 C1053 1.491 . S
C1048 H1039 0.950 . S
C1048 C1047 1.398 . S
C1048 C1049 1.391 . S
C1049 H1037 0.950 . S
C1049 C1045 1.393 . S
C1049 C1048 1.391 . S
C1050 H1040 0.950 1_556 S
C1050 C1051 1.386 . S
C1050 C1052 1.391 . S
C1051 C1050 1.386 . S
C1051 C1055 1.393 . S
C1052 H1041 0.950 . S
C1052 C1050 1.391 . S
C1052 C1053 1.400 . S
C1053 C1047 1.491 . S
C1053 C1052 1.400 . S
C1053 C1054 1.398 . S
C1054 H1042 0.950 . S
C1054 C1053 1.398 . S
C1054 C1055 1.391 . S
C1055 H1043 0.950 . S
C1055 C1051 1.393 . S
C1055 C1054 1.391 . S
H1056 C1064 0.950 . S
H1057 C1069 0.950 . S
H1058 C1066 0.950 . S
H1059 C1068 0.950 . S
H1060 C1070 0.950 . S
H1061 C1072 0.950 . S
H1062 C1074 0.950 . S
H1063 C1075 0.950 . S
C1064 H1056 0.950 . S
C1064 C1065 1.386 . S
C1064 C1066 1.391 . S
C1065 C1064 1.386 . S
C1065 C1069 1.393 . S
C1066 H1058 0.950 . S
C1066 C1064 1.391 . S
C1066 C1067 1.400 . S
C1067 C1066 1.400 . S
C1067 C1068 1.398 . S
C1067 C1073 1.491 . S
C1068 H1059 0.950 . S
C1068 C1067 1.398 . S
C1068 C1069 1.391 . S
C1069 H1057 0.950 . S
C1069 C1065 1.393 . S
C1069 C1068 1.391 . S
C1070 H1060 0.950 . S
C1070 C1071 1.386 . S
C1070 C1072 1.391 . S
C1071 C1070 1.386 . S
C1071 C1075 1.393 . S
C1072 H1061 0.950 . S
C1072 C1070 1.391 . S
C1072 C1073 1.400 . S
C1073 C1067 1.491 . S
C1073 C1072 1.400 . S
C1073 C1074 1.398 . S
C1074 H1062 0.950 . S
C1074 C1073 1.398 . S
C1074 C1075 1.391 . S
C1075 H1063 0.950 . S
C1075 C1071 1.393 . S
C1075 C1074 1.391 . S
H1076 C1084 0.950 . S
H1077 C1089 0.950 . S
H1078 C1086 0.950 . S
H1079 C1088 0.950 . S
H1080 C1090 0.950 . S
H1081 C1092 0.950 . S
H1082 C1094 0.950 . S
H1083 C1095 0.950 . S
C1084 H1076 0.950 . S
C1084 C1085 1.386 1_554 S
C1084 C1086 1.391 1_554 S
C1085 C1084 1.386 1_556 S
C1085 C1089 1.393 . S
C1086 H1078 0.950 . S
C1086 C1084 1.391 1_556 S
C1086 C1087 1.400 . S
C1087 C1086 1.400 . S
C1087 C1088 1.398 . S
C1087 C1093 1.491 . S
C1088 H1079 0.950 . S
C1088 C1087 1.398 . S
C1088 C1089 1.391 . S
C1089 H1077 0.950 . S
C1089 C1085 1.393 . S
C1089 C1088 1.391 . S
C1090 H1080 0.950 . S
C1090 C1091 1.386 . S
C1090 C1092 1.391 . S
C1091 C1090 1.386 . S
C1091 C1095 1.393 . S
C1092 H1081 0.950 . S
C1092 C1090 1.391 . S
C1092 C1093 1.400 . S
C1093 C1087 1.491 . S
C1093 C1092 1.400 . S
C1093 C1094 1.398 . S
C1094 H1082 0.950 . S
C1094 C1093 1.398 . S
C1094 C1095 1.391 . S
C1095 H1083 0.950 . S
C1095 C1091 1.393 . S
C1095 C1094 1.391 . S
H1096 C1104 0.950 . S
H1097 C1109 0.950 . S
H1098 C1106 0.950 . S
H1099 C1108 0.950 . S
H1100 C1110 0.950 . S
H1101 C1112 0.950 . S
H1102 C1114 0.950 . S
H1103 C1115 0.950 . S
C1104 H1096 0.950 . S
C1104 C1105 1.386 . S
C1104 C1106 1.391 . S
C1105 C1104 1.386 . S
C1105 C1109 1.393 . S
C1106 H1098 0.950 . S
C1106 C1104 1.391 . S
C1106 C1107 1.400 . S
C1107 C1106 1.400 . S
C1107 C1108 1.398 . S
C1107 C1113 1.491 . S
C1108 H1099 0.950 . S
C1108 C1107 1.398 . S
C1108 C1109 1.391 . S
C1109 H1097 0.950 . S
C1109 C1105 1.393 . S
C1109 C1108 1.391 . S
C1110 H1100 0.950 . S
C1110 C1111 1.386 . S
C1110 C1112 1.391 . S
C1111 C1110 1.386 . S
C1111 C1115 1.393 . S
C1112 H1101 0.950 . S
C1112 C1110 1.391 . S
C1112 C1113 1.400 . S
C1113 C1107 1.491 . S
C1113 C1112 1.400 . S
C1113 C1114 1.398 . S
C1114 H1102 0.950 . S
C1114 C1113 1.398 . S
C1114 C1115 1.391 . S
C1115 H1103 0.950 . S
C1115 C1111 1.393 . S
C1115 C1114 1.391 . S
H1116 C1124 0.950 1_556 S
H1117 C1129 0.950 . S
H1118 C1126 0.950 1_556 S
H1119 C1128 0.950 . S
H1120 C1130 0.950 . S
H1121 C1132 0.950 . S
H1122 C1134 0.950 1_546 S
H1123 C1135 0.950 1_556 S
C1124 H1116 0.950 1_554 S
C1124 C1125 1.386 . S
C1124 C1126 1.391 . S
C1125 C1124 1.386 . S
C1125 C1129 1.393 . S
C1126 H1118 0.950 1_554 S
C1126 C1124 1.391 . S
C1126 C1127 1.400 . S
C1127 C1126 1.400 . S
C1127 C1128 1.398 1_545 S
C1127 C1133 1.491 1_545 S
C1128 H1119 0.950 . S
C1128 C1127 1.398 1_565 S
C1128 C1129 1.391 1_565 S
C1129 H1117 0.950 . S
C1129 C1125 1.393 . S
C1129 C1128 1.391 1_545 S
C1130 H1120 0.950 . S
C1130 C1131 1.386 . S
C1130 C1132 1.391 . S
C1131 C1130 1.386 . S
C1131 C1135 1.393 . S
C1132 H1121 0.950 . S
C1132 C1130 1.391 . S
C1132 C1133 1.400 . S
C1133 C1127 1.491 1_565 S
C1133 C1132 1.400 . S
C1133 C1134 1.398 . S
C1134 H1122 0.950 1_564 S
C1134 C1133 1.398 . S
C1134 C1135 1.391 . S
C1135 H1123 0.950 1_554 S
C1135 C1131 1.393 . S
C1135 C1134 1.391 . S
H1136 C1144 0.950 . S
H1137 C1149 0.950 . S
H1138 C1146 0.950 . S
H1139 C1148 0.950 . S
H1140 C1150 0.950 . S
H1141 C1152 0.950 . S
H1142 C1154 0.950 . S
H1143 C1155 0.950 . S
C1144 H1136 0.950 . S
C1144 C1145 1.386 . S
C1144 C1146 1.391 . S
C1145 C1144 1.386 . S
C1145 C1149 1.393 . S
C1146 H1138 0.950 . S
C1146 C1144 1.391 . S
C1146 C1147 1.400 . S
C1147 C1146 1.400 . S
C1147 C1148 1.398 . S
C1147 C1153 1.491 . S
C1148 H1139 0.950 . S
C1148 C1147 1.398 . S
C1148 C1149 1.391 . S
C1149 H1137 0.950 . S
C1149 C1145 1.393 . S
C1149 C1148 1.391 . S
C1150 H1140 0.950 . S
C1150 C1151 1.386 . S
C1150 C1152 1.391 . S
C1151 C1150 1.386 . S
C1151 C1155 1.393 . S
C1152 H1141 0.950 . S
C1152 C1150 1.391 . S
C1152 C1153 1.400 . S
C1153 C1147 1.491 . S
C1153 C1152 1.400 . S
C1153 C1154 1.398 . S
C1154 H1142 0.950 . S
C1154 C1153 1.398 . S
C1154 C1155 1.391 . S
C1155 H1143 0.950 . S
C1155 C1151 1.393 . S
C1155 C1154 1.391 . S
H1156 C1164 0.950 . S
H1157 C1169 0.950 . S
H1158 C1166 0.950 . S
H1159 C1168 0.950 . S
H1160 C1170 0.950 . S
H1161 C1172 0.950 . S
H1162 C1174 0.950 . S
H1163 C1175 0.950 . S
C1164 H1156 0.950 . S
C1164 C1165 1.386 . S
C1164 C1166 1.391 . S
C1165 C1164 1.386 . S
C1165 C1169 1.393 . S
C1166 H1158 0.950 . S
C1166 C1164 1.391 . S
C1166 C1167 1.400 . S
C1167 C1166 1.400 . S
C1167 C1168 1.398 . S
C1167 C1173 1.491 . S
C1168 H1159 0.950 . S
C1168 C1167 1.398 . S
C1168 C1169 1.391 . S
C1169 H1157 0.950 . S
C1169 C1165 1.393 . S
C1169 C1168 1.391 . S
C1170 H1160 0.950 . S
C1170 C1171 1.386 . S
C1170 C1172 1.391 . S
C1171 C1170 1.386 . S
C1171 C1175 1.393 . S
C1172 H1161 0.950 . S
C1172 C1170 1.391 . S
C1172 C1173 1.400 . S
C1173 C1167 1.491 . S
C1173 C1172 1.400 . S
C1173 C1174 1.398 . S
C1174 H1162 0.950 . S
C1174 C1173 1.398 . S
C1174 C1175 1.391 . S
C1175 H1163 0.950 . S
C1175 C1171 1.393 . S
C1175 C1174 1.391 . S
H1176 C1184 0.950 . S
H1177 C1189 0.950 . S
H1178 C1186 0.950 . S
H1179 C1188 0.950 . S
H1180 C1190 0.950 . S
H1181 C1192 0.950 . S
H1182 C1194 0.950 . S
H1183 C1195 0.950 . S
C1184 H1176 0.950 . S
C1184 C1185 1.386 . S
C1184 C1186 1.391 . S
C1185 C1184 1.386 . S
C1185 C1189 1.393 . S
C1186 H1178 0.950 . S
C1186 C1184 1.391 . S
C1186 C1187 1.400 . S
C1187 C1186 1.400 . S
C1187 C1188 1.398 . S
C1187 C1193 1.491 . S
C1188 H1179 0.950 . S
C1188 C1187 1.398 . S
C1188 C1189 1.391 . S
C1189 H1177 0.950 . S
C1189 C1185 1.393 . S
C1189 C1188 1.391 . S
C1190 H1180 0.950 . S
C1190 C1191 1.386 . S
C1190 C1192 1.391 . S
C1191 C1190 1.386 . S
C1191 C1195 1.393 . S
C1192 H1181 0.950 . S
C1192 C1190 1.391 . S
C1192 C1193 1.400 . S
C1193 C1187 1.491 . S
C1193 C1192 1.400 . S
C1193 C1194 1.398 . S
C1194 H1182 0.950 . S
C1194 C1193 1.398 . S
C1194 C1195 1.391 . S
C1195 H1183 0.950 . S
C1195 C1191 1.393 . S
C1195 C1194 1.391 . S
H1196 C1204 0.950 . S
H1197 C1209 0.950 . S
H1198 C1206 0.950 . S
H1199 C1208 0.950 . S
H1200 C1210 0.950 . S
H1201 C1212 0.950 1_545 S
H1202 C1214 0.950 . S
H1203 C1215 0.950 . S
C1204 H1196 0.950 . S
C1204 C1205 1.386 . S
C1204 C1206 1.391 . S
C1205 C1204 1.386 . S
C1205 C1209 1.393 . S
C1206 H1198 0.950 . S
C1206 C1204 1.391 . S
C1206 C1207 1.400 . S
C1207 C1206 1.400 . S
C1207 C1208 1.398 . S
C1207 C1213 1.491 1_545 S
C1208 H1199 0.950 . S
C1208 C1207 1.398 . S
C1208 C1209 1.391 . S
C1209 H1197 0.950 . S
C1209 C1205 1.393 . S
C1209 C1208 1.391 . S
C1210 H1200 0.950 . S
C1210 C1211 1.386 . S
C1210 C1212 1.391 . S
C1211 C1210 1.386 . S
C1211 C1215 1.393 . S
C1212 H1201 0.950 1_565 S
C1212 C1210 1.391 . S
C1212 C1213 1.400 . S
C1213 C1207 1.491 1_565 S
C1213 C1212 1.400 . S
C1213 C1214 1.398 . S
C1214 H1202 0.950 . S
C1214 C1213 1.398 . S
C1214 C1215 1.391 . S
C1215 H1203 0.950 . S
C1215 C1211 1.393 . S
C1215 C1214 1.391 . S
H1216 C1224 0.950 . S
H1217 C1229 0.950 . S
H1218 C1226 0.950 . S
H1219 C1228 0.950 . S
H1220 C1230 0.950 . S
H1221 C1232 0.950 . S
H1222 C1234 0.958 . S
H1223 C1235 0.950 . S
C1224 H1216 0.950 . S
C1224 C1225 1.386 . S
C1224 C1226 1.391 . S
C1225 C1224 1.386 . S
C1225 C1229 1.393 . S
C1226 H1218 0.950 . S
C1226 C1224 1.391 . S
C1226 C1227 1.400 . S
C1227 C1226 1.400 . S
C1227 C1228 1.398 . S
C1227 C1233 1.491 1_655 S
C1228 H1219 0.950 . S
C1228 C1227 1.398 . S
C1228 C1229 1.391 . S
C1229 H1217 0.950 . S
C1229 C1225 1.393 . S
C1229 C1228 1.391 . S
C1230 H1220 0.950 . S
C1230 C1231 1.386 . S
C1230 C1232 1.391 . S
C1231 C1230 1.386 . S
C1231 C1235 1.393 . S
C1232 H1221 0.950 . S
C1232 C1230 1.391 . S
C1232 C1233 1.400 . S
C1233 C1227 1.491 1_455 S
C1233 C1232 1.400 . S
C1233 C1234 1.398 . S
C1234 H1222 0.958 . S
C1234 C1233 1.398 . S
C1234 C1235 1.391 . S
C1235 H1223 0.950 . S
C1235 C1231 1.393 . S
C1235 C1234 1.391 . S
H1236 C1244 0.950 . S
H1237 C1249 0.950 . S
H1238 C1246 0.950 . S
H1239 C1248 0.950 . S
H1240 C1250 0.950 . S
H1241 C1252 0.950 . S
H1242 C1254 0.950 . S
H1243 C1255 0.950 . S
C1244 H1236 0.950 . S
C1244 C1245 1.386 . S
C1244 C1246 1.391 . S
C1245 C1244 1.386 . S
C1245 C1249 1.393 . S
C1246 H1238 0.950 . S
C1246 C1244 1.391 . S
C1246 C1247 1.400 . S
C1247 C1246 1.400 . S
C1247 C1248 1.398 . S
C1247 C1253 1.491 . S
C1248 H1239 0.950 . S
C1248 C1247 1.398 . S
C1248 C1249 1.391 . S
C1249 H1237 0.950 . S
C1249 C1245 1.393 . S
C1249 C1248 1.391 . S
C1250 H1240 0.950 . S
C1250 C1251 1.386 . S
C1250 C1252 1.391 . S
C1251 C1250 1.386 . S
C1251 C1255 1.393 . S
C1252 H1241 0.950 . S
C1252 C1250 1.391 . S
C1252 C1253 1.400 . S
C1253 C1247 1.491 . S
C1253 C1252 1.400 . S
C1253 C1254 1.398 . S
C1254 H1242 0.950 . S
C1254 C1253 1.398 . S
C1254 C1255 1.391 . S
C1255 H1243 0.950 . S
C1255 C1251 1.393 . S
C1255 C1254 1.391 . S
H1256 C1264 0.950 . S
H1257 C1269 0.950 . S
H1258 C1266 0.912 1_545 S
H1259 C1268 0.950 . S
H1260 C1270 0.950 . S
H1261 C1272 0.950 . S
H1262 C1274 0.950 . S
H1263 C1275 0.950 . S
C1264 H1256 0.950 . S
C1264 C1265 1.386 . S
C1264 C1266 1.422 . S
C1265 C1264 1.386 . S
C1265 C1269 1.393 . S
C1266 H1258 0.912 1_565 S
C1266 C1264 1.422 . S
C1266 C1267 1.408 1_565 S
C1267 C1266 1.408 1_545 S
C1267 C1268 1.398 1_545 S
C1267 C1273 1.491 . S
C1268 H1259 0.950 . S
C1268 C1267 1.398 1_565 S
C1268 C1269 1.391 . S
C1269 H1257 0.950 . S
C1269 C1265 1.393 . S
C1269 C1268 1.391 . S
C1270 H1260 0.950 . S
C1270 C1271 1.386 . S
C1270 C1272 1.391 . S
C1271 C1270 1.386 . S
C1271 C1275 1.393 . S
C1272 H1261 0.950 . S
C1272 C1270 1.391 . S
C1272 C1273 1.400 . S
C1273 C1267 1.491 . S
C1273 C1272 1.400 . S
C1273 C1274 1.398 . S
C1274 H1262 0.950 . S
C1274 C1273 1.398 . S
C1274 C1275 1.391 . S
C1275 H1263 0.950 . S
C1275 C1271 1.393 . S
C1275 C1274 1.391 . S
H1276 C1284 0.950 . S
H1277 C1289 0.950 . S
H1278 C1286 0.950 . S
H1279 C1288 0.950 . S
H1280 C1290 0.950 . S
H1281 C1292 0.950 1_655 S
H1282 C1294 0.946 1_655 S
H1283 C1295 0.950 . S
C1284 H1276 0.950 . S
C1284 C1285 1.386 . S
C1284 C1286 1.391 . S
C1285 C1284 1.386 . S
C1285 C1289 1.393 . S
C1286 H1278 0.950 . S
C1286 C1284 1.391 . S
C1286 C1287 1.400 . S
C1287 C1286 1.400 . S
C1287 C1288 1.398 . S
C1287 C1293 1.491 . S
C1288 H1279 0.950 . S
C1288 C1287 1.398 . S
C1288 C1289 1.391 . S
C1289 H1277 0.950 . S
C1289 C1285 1.393 . S
C1289 C1288 1.391 . S
C1290 H1280 0.950 . S
C1290 C1291 1.386 . S
C1290 C1292 1.391 . S
C1291 C1290 1.386 . S
C1291 C1295 1.393 . S
C1292 H1281 0.950 1_455 S
C1292 C1290 1.391 . S
C1292 C1293 1.400 1_455 S
C1293 C1287 1.491 . S
C1293 C1292 1.400 1_655 S
C1293 C1294 1.398 1_655 S
C1294 H1282 0.946 1_455 S
C1294 C1293 1.398 1_455 S
C1294 C1295 1.391 . S
C1295 H1283 0.950 . S
C1295 C1291 1.393 . S
C1295 C1294 1.391 . S
C765 C68 3.455 1_556 S
C771 C56 3.455 . S
C785 C140 3.466 . S
C791 C152 3.466 . S
C805 C236 3.494 . S
C811 C224 3.494 . S
C825 C308 3.456 . S
C831 C320 3.456 1_556 S
C845 C404 3.466 . S
C851 C392 3.466 1_556 S
C865 C476 3.495 . S
C871 C488 3.495 . S
C885 C574 2.174 . S
C891 C562 2.174 . S
C905 C646 2.271 . S
C911 C658 2.271 . S
C925 C742 1.582 . S
C931 C730 1.582 . S
C945 C487 1.657 . S
C951 C70 1.405 . S
C965 C151 2.132 . S
C971 C319 2.131 . S
C985 C238 1.066 . S
C991 C406 1.078 . S
C1005 C235 2.311 1_556 S
C1011 C559 2.316 . S
C1025 C644 1.514 . S
C1031 C67 1.527 . S
C1045 C727 1.271 . S
C1051 C154 1.255 . S
C1065 C740 0.975 . S
C1071 C58 0.931 1_556 S
C1085 C139 1.886 1_556 S
C1091 C572 1.876 . S
C1105 C655 1.799 . S
C1111 C226 1.728 . S
C1125 C223 1.657 . S
C1131 C310 1.395 . S
C1145 C391 2.135 . S
C1151 C55 2.131 . S
C1165 C142 1.029 . S
C1171 C478 1.022 . S
C1185 C728 0.971 . S
C1191 C322 0.926 . S
C1205 C560 1.874 . S
C1211 C403 1.890 . S
C1225 C643 1.797 . S
C1231 C490 1.748 . S
C1245 C571 2.312 . S
C1251 C475 2.307 . S
C1265 C307 1.520 . S
C1271 C656 1.524 . S
C1285 C739 1.285 . S
C1291 C394 1.228 . S
