# Generated by pormake.
# Topology qtz-x, (6)-cn, num edge types: 1
# Building blocks:
#     Node 0, Type 0, BuildingBlock: UKALOJ_clean_sbu_0, # of connection points: 6
#     Node 1, Type 0, BuildingBlock: UKALOJ_clean_sbu_0, # of connection points: 6
#     Node 2, Type 0, BuildingBlock: UKALOJ_clean_sbu_0, # of connection points: 6
#     Edge 3, Type (0, 0), BuildingBlock: XUDNAN_clean_linker_2, # of connection points: 2
#     Edge 4, Type (0, 0), BuildingBlock: XUDNAN_clean_linker_2, # of connection points: 2
#     Edge 5, Type (0, 0), BuildingBlock: XUDNAN_clean_linker_2, # of connection points: 2
#     Edge 6, Type (0, 0), BuildingBlock: XUDNAN_clean_linker_2, # of connection points: 2
#     Edge 7, Type (0, 0), BuildingBlock: XUDNAN_clean_linker_2, # of connection points: 2
#     Edge 8, Type (0, 0), BuildingBlock: XUDNAN_clean_linker_2, # of connection points: 2
#     Edge 9, Type (0, 0), BuildingBlock: XUDNAN_clean_linker_2, # of connection points: 2
#     Edge 10, Type (0, 0), BuildingBlock: XUDNAN_clean_linker_2, # of connection points: 2
#     Edge 11, Type (0, 0), BuildingBlock: XUDNAN_clean_linker_2, # of connection points: 2
# Relax obj value: 0.297
# Max RMSD: 0.255
# Mean RMSD: 0.253
data_MOF--net-qtz-x--node1-UKALOJ_clean_sbu_0--edge1-XUDNAN_clean_linker_2
_symmetry_space_group_name_H-M    P1
_symmetry_Int_Tables_number       1
_symmetry_cell_setting            triclinic
loop_
_symmetry_equiv_pos_as_xyz
'x, y, z'
_cell_length_a     19.924476
_cell_length_b     19.942842
_cell_length_c     32.977225
_cell_angle_alpha  93.314265
_cell_angle_beta   93.798895
_cell_angle_gamma 119.93495
loop_
_atom_site_label
_atom_site_type_symbol
_atom_site_fract_x
_atom_site_fract_y
_atom_site_fract_z
_atom_type_partial_charge
Zn0 Zn 0.99333 0.52396 0.18436 0.0
O1 O 0.07644 0.58027 0.14132 0.0
C2 C 0.86971 0.41364 0.11853 0.0
Zn3 Zn -0.0043 0.4153 0.17231 0.0
C4 C 0.09402 0.53709 0.1199 0.0
O5 O 0.06635 0.46637 0.12637 0.0
C6 C 0.89388 0.39897 0.23614 0.0
O7 O 0.09829 0.46805 0.21666 0.0
O8 O 0.08219 0.56727 0.23192 0.0
N9 N 0.00344 0.31767 0.1616 0.0
C10 C 0.02361 0.27929 0.18756 0.0
C11 C 0.98571 0.21185 0.12945 0.0
N12 N 0.98029 0.27593 0.12547 0.0
N13 N 0.01251 0.21251 0.16815 0.0
C14 C 0.02207 0.69322 0.19908 0.0
C15 C 0.90838 0.66649 0.2122 0.0
N16 N 0.97682 0.61516 0.19548 0.0
N17 N 0.90631 0.5989 0.20348 0.0
N18 N 0.98031 0.72657 0.20976 0.0
H19 H 0.13375 0.70019 0.20122 0.0
H20 H 0.13785 0.79207 0.21377 0.0
H21 H 0.1143 0.74843 0.16168 0.0
C22 C 0.10715 0.73598 0.19397 0.0
C23 C 0.06086 0.31102 0.23068 0.0
H24 H 0.12079 0.36022 0.22977 0.0
H25 H 0.06685 0.26833 0.24816 0.0
H26 H 0.02761 0.33271 0.24715 0.0
O27 O 0.92358 0.36329 0.21866 0.0
O28 O 0.91099 0.46597 0.22656 0.0
C29 C 0.11888 0.53151 0.23831 0.0
O30 O 0.90378 0.48129 0.13746 0.0
O31 O 0.89351 0.36702 0.12723 0.0
Zn32 Zn 0.58845 0.01883 0.52222 0.0
O33 O 0.54792 0.91544 0.47932 0.0
C34 C 0.59761 0.11194 0.45502 0.0
Zn35 Zn 0.47711 0.01675 0.51037 0.0
C36 C 0.47884 0.88672 0.46183 0.0
O37 O 0.44025 0.91971 0.46973 0.0
C38 C 0.5817 0.14829 0.57102 0.0
O39 O 0.42634 0.94124 0.55739 0.0
O40 O 0.53948 0.94841 0.56876 0.0
N41 N 0.37603 0.01392 0.49352 0.0
C42 C 0.33126 0.03301 0.51447 0.0
C43 C 0.28124 0.00219 0.45224 0.0
N44 N 0.34481 0.99456 0.4549 0.0
N45 N 0.2721 0.0269 0.48918 0.0
C46 C 0.7465 0.02432 0.51918 0.0
C47 C 0.78467 0.04131 0.5829 0.0
N48 N 0.6895 0.02258 0.53963 0.0
N49 N 0.71303 0.03248 0.57916 0.0
N50 N 0.80673 0.03617 0.54573 0.0
H51 H 0.68682 -0.00195 0.45815 0.0
H52 H 0.77156 0.98751 0.46217 0.0
H53 H 0.78347 0.08282 0.46577 0.0
C54 C 0.7465 0.0226 0.47367 0.0
C55 C 0.34258 0.05328 0.55985 0.0
H56 H 0.28531 0.02815 0.57216 0.0
H57 H 0.37248 0.11727 0.56668 0.0
H58 H 0.37816 0.03208 0.57547 0.0
O59 O 0.5143 0.1148 0.55144 0.0
O60 O 0.62653 0.12124 0.56495 0.0
C61 C 0.47051 0.92309 0.57762 0.0
O62 O 0.63773 0.08993 0.47567 0.0
O63 O 0.52875 0.09082 0.46324 0.0
Zn64 Zn 0.54397 0.57736 0.85645 0.0
O65 O 0.59862 0.5424 0.81198 0.0
C66 C 0.44515 0.59536 0.79147 0.0
Zn67 Zn 0.43248 0.46683 0.83868 0.0
C68 C 0.5558 0.48002 0.78834 0.0
O69 O 0.48402 0.43876 0.79277 0.0
C70 C 0.4177 0.56273 0.90614 0.0
O71 O 0.47131 0.41038 0.88101 0.0
O72 O 0.57535 0.52421 0.90027 0.0
N73 N 0.3299 0.36518 0.82144 0.0
C74 C 0.27377 0.31726 0.84353 0.0
C75 C 0.23443 0.2733 0.78085 0.0
N76 N 0.30549 0.33755 0.78251 0.0
N77 N 0.21322 0.2598 0.81877 0.0
C78 C 0.6985 0.73529 0.85454 0.0
C79 C 0.72703 0.77545 0.91808 0.0
N80 N 0.64482 0.67925 0.87466 0.0
N81 N 0.66313 0.70417 0.91411 0.0
N82 N 0.75058 0.79626 0.88118 0.0
H83 H 0.64344 0.68209 0.79325 0.0
H84 H 0.74747 0.72816 0.79981 0.0
H85 H 0.70308 0.78727 0.79877 0.0
C86 C 0.69719 0.73266 0.80895 0.0
C87 C 0.27942 0.32381 0.88931 0.0
H88 H 0.34031 0.36014 0.90333 0.0
H89 H 0.25387 0.26507 0.90002 0.0
H90 H 0.24535 0.35014 0.89985 0.0
O91 O 0.38116 0.49738 0.88457 0.0
O92 O 0.48798 0.60989 0.90067 0.0
C93 C 0.53497 0.45212 0.90399 0.0
O94 O 0.51104 0.63036 0.81275 0.0
O95 O 0.39724 0.52484 0.79634 0.0
H96 H 0.05739 0.84038 0.16121 0.0
H97 H 0.94611 0.79046 0.27273 0.0
H98 H 0.95695 0.91951 0.27841 0.0
H99 H 0.1906 0.05847 0.1911 0.0
H100 H 0.17865 0.07929 0.13952 0.0
H101 H 0.17634 0.9899 0.14863 0.0
H102 H 0.04159 0.91204 0.10568 0.0
H103 H 0.04256 0.0007 0.0971 0.0
H104 H 0.96268 0.92527 0.11971 0.0
H105 H 0.95359 0.03726 0.2644 0.0
H106 H 0.95138 0.14783 0.23596 0.0
H107 H 0.07258 0.12906 0.13559 0.0
C108 C 0.03901 0.85855 0.18777 0.0
C109 C 0.00219 0.80671 0.217 0.0
C110 C 0.97519 0.83031 0.25042 0.0
C111 C 0.98119 0.90327 0.25387 0.0
C112 C 0.01486 0.95203 0.22369 0.0
C113 C 0.04472 0.93156 0.19163 0.0
C114 C 0.07072 0.99167 0.16123 0.0
C115 C 0.15936 0.03226 0.16007 0.0
C116 C 0.02673 0.9552 0.11842 0.0
C117 C 0.04717 0.04679 0.18022 0.0
C118 C 0.01562 0.02295 0.2164 0.0
C119 C 0.98143 0.05881 0.23717 0.0
C120 C 0.98081 0.12174 0.22098 0.0
C121 C 0.01582 0.14938 0.18499 0.0
C122 C 0.04838 0.11069 0.16407 0.0
H123 H 0.11772 0.93714 0.46759 0.0
H124 H 0.29571 0.15939 0.53001 0.0
H125 H 0.19436 0.18902 0.54851 0.0
H126 H 0.98715 0.00393 0.42739 0.0
H127 H 0.90023 0.91489 0.43479 0.0
H128 H 0.98715 0.91337 0.42436 0.0
H129 H 0.98306 0.84751 0.4904 0.0
H130 H 0.89623 0.84876 0.501 0.0
H131 H 0.98041 0.89321 0.5386 0.0
H132 H 0.07443 0.19053 0.56374 0.0
H133 H 0.94176 0.16452 0.57397 0.0
H134 H 0.84171 0.94166 0.50156 0.0
C135 C 0.13484 0.99223 0.48475 0.0
C136 C 0.2137 0.04549 0.4982 0.0
C137 C 0.23506 0.11716 0.5206 0.0
C138 C 0.17812 0.13473 0.53077 0.0
C139 C 0.10048 0.08018 0.51786 0.0
C140 C 0.07867 0.01053 0.49518 0.0
C141 C 0.99101 0.96063 0.48667 0.0
C142 C 0.96487 0.94746 0.44056 0.0
C143 C 0.96094 0.88296 0.50529 0.0
C144 C 0.96699 0.01256 0.50875 0.0
C145 C 0.03108 0.08149 0.52625 0.0
C146 C 0.02375 0.13731 0.54975 0.0
C147 C 0.9487 0.12212 0.55553 0.0
C148 C 0.88261 0.05209 0.53776 0.0
C149 C 0.89176 0.99665 0.5142 0.0
H150 H 0.86713 0.83023 0.83313 0.0
H151 H 0.77107 0.93276 0.91316 0.0
H152 H 0.87677 0.0643 0.90287 0.0
H153 H 0.06506 0.96342 0.86668 0.0
H154 H 0.09888 0.967 0.81705 0.0
H155 H 0.01295 0.88107 0.82843 0.0
H156 H 0.93343 0.89017 0.76573 0.0
H157 H 0.0193 0.97603 0.75401 0.0
H158 H 0.93174 0.97891 0.76089 0.0
H159 H 0.99389 0.18316 0.88602 0.0
H160 H 0.11849 0.28355 0.86462 0.0
H161 H 0.14029 0.10512 0.79572 0.0
C162 C 0.86743 0.8805 0.84753 0.0
C163 C 0.81051 0.87195 0.87334 0.0
C164 C 0.81428 0.93875 0.89315 0.0
C165 C 0.8737 0.01337 0.88735 0.0
C166 C 0.92902 0.02001 0.86172 0.0
C167 C 0.92661 0.95555 0.8421 0.0
C168 C -0.00445 0.9791 0.81776 0.0
C169 C 0.04609 0.94566 0.83344 0.0
C170 C 0.96836 0.9546 0.77187 0.0
C171 C 0.03752 0.06675 0.82725 0.0
C172 C -0.00224 0.08896 0.85249 0.0
C173 C 0.02569 0.16655 0.86635 0.0
C174 C 0.0967 0.22298 0.85446 0.0
C175 C 0.13915 0.20142 0.82937 0.0
C176 C 0.10855 0.12255 0.815 0.0
H177 H 0.26994 0.47106 0.92505 0.0
H178 H 0.47631 0.69719 0.95895 0.0
H179 H 0.41007 0.72324 1.01366 0.0
H180 H 0.12435 0.52348 0.94645 0.0
H181 H 0.06346 0.43258 0.96657 0.0
H182 H 0.12418 0.43673 0.92753 0.0
H183 H 0.18828 0.37881 0.9738 0.0
H184 H 0.12765 0.37397 1.01285 0.0
H185 H 0.2321 0.42581 0.02456 0.0
H186 H 0.32065 0.71961 0.06788 0.0
H187 H 0.22362 0.6821 0.11834 0.0
H188 H 0.08251 0.456 0.04897 0.0
C189 C 0.30141 0.52634 0.94366 0.0
C190 C 0.37841 0.58188 0.93768 0.0
C191 C 0.41711 0.65368 0.96287 0.0
C192 C 0.37984 0.66905 0.99393 0.0
C193 C 0.30402 0.61202 0.99933 0.0
C194 C 0.26568 0.54196 0.97483 0.0
C195 C 0.18739 0.48714 0.98845 0.0
C196 C 0.12093 0.46896 0.95527 0.0
C197 C 0.18371 0.41205 1.00065 0.0
C198 C 0.18785 0.53645 0.02508 0.0
C199 C 0.25464 0.60895 0.03065 0.0
C200 C 0.26802 0.66315 0.06357 0.0
C201 C 0.21262 0.64167 0.09194 0.0
C202 C 0.14597 0.56628 0.08741 0.0
C203 C 0.13308 0.51409 0.05312 0.0
H204 H 0.71797 0.12671 0.41382 0.0
H205 H 0.55171 0.2062 0.42008 0.0
H206 H 0.60976 0.28922 0.36469 0.0
H207 H 0.88162 0.30689 0.39401 0.0
H208 H 0.91662 0.26153 0.35905 0.0
H209 H 0.86259 0.20968 0.39948 0.0
H210 H 0.76381 0.09608 0.34632 0.0
H211 H 0.81752 0.14756 0.30572 0.0
H212 H 0.71524 0.11555 0.30447 0.0
H213 H 0.69052 0.36795 0.31063 0.0
H214 H 0.78045 0.4282 0.25835 0.0
H215 H 0.88774 0.29017 0.28496 0.0
C216 C 0.69395 0.16184 0.40371 0.0
C217 C 0.63082 0.16066 0.42148 0.0
C218 C 0.60015 0.20639 0.40689 0.0
C219 C 0.63286 0.2538 0.37555 0.0
C220 C 0.6954 0.25385 0.35883 0.0
C221 C 0.72502 0.20837 0.37212 0.0
C222 C 0.79111 0.21725 0.34848 0.0
C223 C 0.8675 0.25085 0.37696 0.0
C224 C 0.77065 0.13948 0.32484 0.0
C225 C 0.79436 0.27514 0.31983 0.0
C226 C 0.73931 0.29625 0.32657 0.0
C227 C 0.73332 0.35129 0.30483 0.0
C228 C 0.78471 0.38532 0.27532 0.0
C229 C 0.8404 0.36324 0.26743 0.0
C230 C 0.84496 0.3073 0.28997 0.0
H231 H 0.5468 0.73383 0.76562 0.0
H232 H 0.30438 0.55005 0.74634 0.0
H233 H 0.2796 0.62017 0.69285 0.0
H234 H 0.51803 0.89646 0.749 0.0
H235 H 0.60413 0.94467 0.72296 0.0
H236 H 0.59969 0.88311 0.76182 0.0
H237 H 0.63071 0.80154 0.7105 0.0
H238 H 0.63558 0.86286 0.67156 0.0
H239 H 0.57028 0.75919 0.66245 0.0
H240 H 0.28471 0.71131 0.63884 0.0
H241 H 0.32156 0.80651 0.58723 0.0
H242 H 0.5611 0.92406 0.64257 0.0
C243 C 0.48805 0.70849 0.75068 0.0
C244 C 0.42734 0.63671 0.76042 0.0
C245 C 0.35173 0.60521 0.73948 0.0
C246 C 0.33713 0.64479 0.70919 0.0
C247 C 0.39882 0.71547 0.70023 0.0
C248 C 0.47285 0.7465 0.72037 0.0
C249 C 0.53092 0.81994 0.70359 0.0
C250 C 0.56517 0.89019 0.7363 0.0
C251 C 0.59564 0.81024 0.68597 0.0
C252 C 0.47853 0.82532 0.67034 0.0
C253 C 0.40222 0.76553 0.66902 0.0
C254 C 0.34427 0.75844 0.6398 0.0
C255 C 0.36549 0.81283 0.61076 0.0
C256 C 0.4441 0.87232 0.61093 0.0
C257 C 0.50052 0.87904 0.64162 0.0
H258 H 0.61551 0.52636 0.97673 0.0
H259 H 0.52168 0.30691 0.90158 0.0
H260 H 0.58947 0.26502 0.95133 0.0
H261 H 0.79917 0.55619 1.00212 0.0
H262 H 0.81035 0.59907 0.05354 0.0
H263 H 0.74739 0.606 1.01452 0.0
H264 H 0.6319 0.54208 0.05833 0.0
H265 H 0.69485 0.53556 0.09773 0.0
H266 H 0.60569 0.44943 0.07645 0.0
H267 H 0.68403 0.25664 1.0073 0.0
H268 H 0.78539 0.27991 0.06357 0.0
H269 H 0.80824 0.50356 0.10008 0.0
C270 C 0.6079 0.46877 0.97106 0.0
C271 C 0.56367 0.41983 0.93543 0.0
C272 C 0.55495 0.34495 0.92902 0.0
C273 C 0.59349 0.32096 0.95702 0.0
C274 C 0.63896 0.37211 0.99145 0.0
C275 C 0.64478 0.44397 0.99866 0.0
C276 C 0.69925 0.49053 0.0364 0.0
C277 C 0.76808 0.56743 0.02599 0.0
C278 C 0.65527 0.50522 0.06917 0.0
C279 C 0.72541 0.43498 0.04897 0.0
C280 C 0.6904 0.36668 0.0231 0.0
C281 C 0.71066 0.30951 0.02803 0.0
C282 C 0.76828 0.32313 0.06001 0.0
C283 C 0.80483 0.39343 0.08638 0.0
C284 C 0.78162 0.4489 0.08077 0.0
H285 H 0.115 0.58928 0.31297 0.0
H286 H 0.26464 0.54711 0.23931 0.0
H287 H 0.37523 0.62101 0.294 0.0
H288 H 0.24411 0.77713 0.34804 0.0
H289 H 0.21347 0.77229 0.39853 0.0
H290 H 0.14598 0.70679 0.35657 0.0
H291 H 0.12189 0.58874 0.39559 0.0
H292 H 0.18932 0.65414 0.43794 0.0
H293 H 0.2034 0.57899 0.41424 0.0
H294 H 0.47392 0.71971 0.35367 0.0
H295 H 0.54515 0.82488 0.41106 0.0
H296 H 0.32454 0.79109 0.44473 0.0
C297 C 0.17063 0.59394 0.30883 0.0
C298 C 0.18187 0.56297 0.27223 0.0
C299 C 0.25516 0.57013 0.26753 0.0
C300 C 0.31807 0.61202 0.29837 0.0
C301 C 0.30558 0.64423 0.33389 0.0
C302 C 0.23282 0.63389 0.33935 0.0
C303 C 0.23412 0.67781 0.37841 0.0
C304 C 0.20794 0.73699 0.36984 0.0
C305 C 0.18424 0.62154 0.40831 0.0
C306 C 0.31966 0.71774 0.39343 0.0
C307 C 0.36059 0.69772 0.3679 0.0
C308 C 0.44198 0.73428 0.3743 0.0
C309 C 0.48206 0.79375 0.40696 0.0
C310 C 0.44034 0.81602 0.43228 0.0
C311 C 0.35823 0.77536 0.42598 0.0
H312 H 0.48109 0.40854 0.71397 0.0
H313 H 0.69852 0.48889 0.78977 0.0
H314 H 0.73787 0.42282 0.73823 0.0
H315 H 0.44395 0.22523 0.68388 0.0
H316 H 0.40343 0.21983 0.63247 0.0
H317 H 0.39848 0.28169 0.67252 0.0
H318 H 0.46851 0.40037 0.63123 0.0
H319 H 0.47301 0.33839 0.59082 0.0
H320 H 0.56095 0.42412 0.61375 0.0
H321 H 0.74204 0.32928 0.68219 0.0
H322 H 0.71483 0.22756 0.62609 0.0
H323 H 0.49848 0.21905 0.58671 0.0
C324 C 0.53788 0.41383 0.71925 0.0
C325 C 0.58691 0.45355 0.75565 0.0
C326 C 0.6606 0.45922 0.76174 0.0
C327 C 0.68315 0.42168 0.73273 0.0
C328 C 0.63195 0.38058 0.69757 0.0
C329 C 0.5615 0.37813 0.6905 0.0
C330 C 0.51454 0.32723 0.6518 0.0
C331 C 0.43549 0.25952 0.66073 0.0
C332 C 0.50366 0.37543 0.62002 0.0
C333 C 0.56793 0.29866 0.63881 0.0
C334 C 0.63558 0.32987 0.66527 0.0
C335 C 0.68996 0.30588 0.66086 0.0
C336 C 0.67405 0.24804 0.62895 0.0
C337 C 0.60434 0.21502 0.602 0.0
C338 C 0.55213 0.24258 0.6067 0.0
loop_
_geom_bond_atom_site_label_1
_geom_bond_atom_site_label_2
_geom_bond_distance
_geom_bond_site_symmetry_2
_ccdc_geom_bond_type
Zn0 O1 2.055 . S
Zn0 O8 2.046 . S
Zn0 N16 2.036 . S
Zn0 O28 2.053 1_455 S
Zn0 O30 2.066 1_455 S
O1 Zn0 2.055 . S
O1 C4 1.259 . S
C2 O30 1.256 . S
C2 O31 1.244 . S
Zn3 O5 2.046 . S
Zn3 O7 2.055 . S
Zn3 N9 2.036 . S
Zn3 O27 2.066 1_455 S
Zn3 O31 2.053 1_455 S
C4 O1 1.259 . S
C4 O5 1.254 . S
O5 Zn3 2.046 . S
O5 C4 1.254 . S
C6 O27 1.256 . S
C6 O28 1.244 . S
O7 Zn3 2.055 . S
O7 C29 1.259 . S
O8 Zn0 2.046 . S
O8 C29 1.254 . S
N9 Zn3 2.036 . S
N9 C10 1.298 . S
N9 N12 1.398 1_455 S
C10 N9 1.298 . S
C10 N13 1.367 1_455 S
C10 C23 1.481 . S
C11 N12 1.299 . S
C11 N13 1.379 . S
N12 N9 1.398 1_655 S
N12 C11 1.299 . S
N13 C10 1.367 1_655 S
N13 C11 1.379 . S
C14 N16 1.298 . S
C14 N18 1.367 1_455 S
C14 C22 1.481 . S
C15 N17 1.299 . S
C15 N18 1.379 . S
N16 Zn0 2.036 . S
N16 C14 1.298 . S
N16 N17 1.398 1_455 S
N17 C15 1.299 . S
N17 N16 1.398 1_655 S
N18 C14 1.367 1_655 S
N18 C15 1.379 . S
H19 C22 0.980 . S
H20 C22 0.981 . S
H21 C22 0.981 1_655 S
C22 C14 1.481 . S
C22 H19 0.980 . S
C22 H20 0.981 . S
C22 H21 0.981 1_455 S
C23 C10 1.481 . S
C23 H24 0.980 . S
C23 H25 0.981 . S
C23 H26 0.981 . S
H24 C23 0.980 . S
H25 C23 0.981 . S
H26 C23 0.981 . S
O27 Zn3 2.066 1_655 S
O27 C6 1.256 . S
O28 Zn0 2.053 1_655 S
O28 C6 1.244 . S
C29 O7 1.259 . S
C29 O8 1.254 . S
O30 Zn0 2.066 1_655 S
O30 C2 1.256 . S
O31 C2 1.244 . S
O31 Zn3 2.053 1_655 S
Zn32 O33 2.055 1_545 S
Zn32 O40 2.046 1_545 S
Zn32 N48 2.036 . S
Zn32 O60 2.053 . S
Zn32 O62 2.066 . S
O33 Zn32 2.055 1_565 S
O33 C36 1.259 . S
C34 O62 1.256 . S
C34 O63 1.244 . S
Zn35 O37 2.046 1_545 S
Zn35 O39 2.056 1_545 S
Zn35 N41 2.036 . S
Zn35 O59 2.066 . S
Zn35 O63 2.052 . S
C36 O33 1.259 . S
C36 O37 1.254 . S
O37 Zn35 2.046 1_565 S
O37 C36 1.254 . S
C38 O59 1.256 . S
C38 O60 1.244 . S
O39 Zn35 2.056 1_565 S
O39 C61 1.259 . S
O40 Zn32 2.046 1_565 S
O40 C61 1.254 . S
N41 Zn35 2.036 . S
N41 C42 1.298 . S
N41 N44 1.398 . S
C42 N41 1.298 . S
C42 N45 1.367 . S
C42 C55 1.481 1_545 S
C43 N44 1.299 . S
C43 N45 1.379 . S
N44 N41 1.398 . S
N44 C43 1.299 . S
N45 C42 1.367 . S
N45 C43 1.379 . S
C46 N48 1.298 . S
C46 N50 1.367 . S
C46 C54 1.481 1_545 S
C47 N49 1.299 . S
C47 N50 1.379 . S
N48 Zn32 2.036 . S
N48 C46 1.298 . S
N48 N49 1.398 . S
N49 C47 1.299 . S
N49 N48 1.398 . S
N50 C46 1.367 . S
N50 C47 1.379 . S
H51 C54 0.980 . S
H52 C54 0.981 . S
H53 C54 0.981 1_545 S
C54 C46 1.481 1_565 S
C54 H51 0.980 . S
C54 H52 0.981 . S
C54 H53 0.981 1_565 S
C55 C42 1.481 1_565 S
C55 H56 0.980 . S
C55 H57 0.981 . S
C55 H58 0.981 1_565 S
H56 C55 0.980 . S
H57 C55 0.981 . S
H58 C55 0.981 1_545 S
O59 Zn35 2.066 . S
O59 C38 1.256 . S
O60 Zn32 2.053 . S
O60 C38 1.244 . S
C61 O39 1.259 . S
C61 O40 1.254 . S
O62 Zn32 2.066 . S
O62 C34 1.256 . S
O63 C34 1.244 . S
O63 Zn35 2.052 . S
Zn64 O65 2.055 . S
Zn64 O72 2.046 . S
Zn64 N80 2.036 . S
Zn64 O92 2.053 . S
Zn64 O94 2.066 . S
O65 Zn64 2.055 . S
O65 C68 1.259 . S
C66 O94 1.256 . S
C66 O95 1.244 . S
Zn67 O69 2.046 . S
Zn67 O71 2.055 . S
Zn67 N73 2.036 . S
Zn67 O91 2.066 . S
Zn67 O95 2.053 . S
C68 O65 1.259 . S
C68 O69 1.254 . S
O69 Zn67 2.046 . S
O69 C68 1.254 . S
C70 O91 1.256 . S
C70 O92 1.244 . S
O71 Zn67 2.055 . S
O71 C93 1.259 . S
O72 Zn64 2.046 . S
O72 C93 1.254 . S
N73 Zn67 2.036 . S
N73 C74 1.298 . S
N73 N76 1.398 . S
C74 N73 1.298 . S
C74 N77 1.367 . S
C74 C87 1.481 . S
C75 N76 1.299 . S
C75 N77 1.379 . S
N76 N73 1.398 . S
N76 C75 1.299 . S
N77 C74 1.367 . S
N77 C75 1.379 . S
C78 N80 1.298 . S
C78 N82 1.367 . S
C78 C86 1.481 . S
C79 N81 1.299 . S
C79 N82 1.379 . S
N80 Zn64 2.036 . S
N80 C78 1.298 . S
N80 N81 1.398 . S
N81 C79 1.299 . S
N81 N80 1.398 . S
N82 C78 1.367 . S
N82 C79 1.379 . S
H83 C86 0.980 . S
H84 C86 0.981 . S
H85 C86 0.981 . S
C86 C78 1.481 . S
C86 H83 0.980 . S
C86 H84 0.981 . S
C86 H85 0.981 . S
C87 C74 1.481 . S
C87 H88 0.980 . S
C87 H89 0.981 . S
C87 H90 0.981 . S
H88 C87 0.980 . S
H89 C87 0.981 . S
H90 C87 0.981 . S
O91 Zn67 2.066 . S
O91 C70 1.256 . S
O92 Zn64 2.053 . S
O92 C70 1.244 . S
C93 O71 1.259 . S
C93 O72 1.254 . S
O94 Zn64 2.066 . S
O94 C66 1.256 . S
O95 C66 1.244 . S
O95 Zn67 2.053 . S
H96 C108 0.930 . S
H97 C110 0.930 . S
H98 C111 0.930 . S
H99 C115 0.959 1_545 S
H100 C115 0.959 1_545 S
H101 C115 0.961 . S
H102 C116 0.960 . S
H103 C116 0.961 . S
H104 C116 0.959 . S
H105 C119 0.929 . S
H106 C120 0.931 . S
H107 C122 0.930 . S
C108 H96 0.930 . S
C108 C109 1.399 . S
C108 C113 1.399 . S
C109 C108 1.399 . S
C109 C110 1.376 . S
C110 H97 0.930 . S
C110 C109 1.376 . S
C110 C111 1.388 . S
C111 H98 0.930 . S
C111 C110 1.388 . S
C111 C112 1.390 . S
C112 C111 1.390 . S
C112 C113 1.394 . S
C112 C118 1.465 1_565 S
C113 C108 1.399 . S
C113 C112 1.394 . S
C113 C114 1.516 . S
C114 C113 1.516 . S
C114 C115 1.502 1_655 S
C114 C116 1.561 . S
C114 C117 1.526 1_565 S
C115 H99 0.959 1_565 S
C115 H100 0.959 1_565 S
C115 H101 0.961 . S
C115 C114 1.502 1_455 S
C116 H102 0.960 . S
C116 H103 0.961 . S
C116 H104 0.959 . S
C116 C114 1.561 . S
C117 C114 1.526 1_545 S
C117 C118 1.396 . S
C117 C122 1.390 . S
C118 C112 1.465 1_545 S
C118 C117 1.396 . S
C118 C119 1.399 . S
C119 H105 0.929 . S
C119 C118 1.399 . S
C119 C120 1.385 . S
C120 H106 0.931 . S
C120 C119 1.385 . S
C120 C121 1.389 . S
C121 C120 1.389 . S
C121 C122 1.387 . S
C122 H107 0.930 . S
C122 C117 1.390 . S
C122 C121 1.387 . S
H123 C135 0.930 . S
H124 C137 0.930 . S
H125 C138 0.930 . S
H126 C142 0.959 1_455 S
H127 C142 0.959 . S
H128 C142 0.961 1_455 S
H129 C143 0.960 . S
H130 C143 0.961 . S
H131 C143 0.959 . S
H132 C146 0.929 . S
H133 C147 0.931 . S
H134 C149 0.930 . S
C135 H123 0.930 . S
C135 C136 1.399 1_565 S
C135 C140 1.399 1_565 S
C136 C135 1.399 1_545 S
C136 C137 1.376 . S
C137 H124 0.930 . S
C137 C136 1.376 . S
C137 C138 1.388 . S
C138 H125 0.930 . S
C138 C137 1.388 . S
C138 C139 1.390 . S
C139 C138 1.390 . S
C139 C140 1.394 . S
C139 C145 1.465 . S
C140 C135 1.399 1_545 S
C140 C139 1.394 . S
C140 C141 1.516 1_545 S
C141 C140 1.516 1_565 S
C141 C142 1.502 1_455 S
C141 C143 1.561 1_455 S
C141 C144 1.526 1_465 S
C142 H126 0.959 1_655 S
C142 H127 0.959 . S
C142 H128 0.961 1_655 S
C142 C141 1.502 1_655 S
C143 H129 0.960 . S
C143 H130 0.961 . S
C143 H131 0.959 . S
C143 C141 1.561 1_655 S
C144 C141 1.526 1_645 S
C144 C145 1.396 1_655 S
C144 C149 1.390 1_545 S
C145 C139 1.465 . S
C145 C144 1.396 1_455 S
C145 C146 1.399 . S
C146 H132 0.929 . S
C146 C145 1.399 . S
C146 C147 1.385 1_455 S
C147 H133 0.931 . S
C147 C146 1.385 1_655 S
C147 C148 1.389 . S
C148 C147 1.389 . S
C148 C149 1.387 1_545 S
C149 H134 0.930 . S
C149 C144 1.390 1_565 S
C149 C148 1.387 1_565 S
H150 C162 0.930 . S
H151 C164 0.930 . S
H152 C165 0.930 1_545 S
H153 C169 0.959 . S
H154 C169 0.959 1_545 S
H155 C169 0.961 1_655 S
H156 C170 0.960 1_565 S
H157 C170 0.961 . S
H158 C170 0.959 . S
H159 C173 0.929 . S
H160 C174 0.931 . S
H161 C176 0.930 . S
C162 H150 0.930 . S
C162 C163 1.399 . S
C162 C167 1.399 . S
C163 C162 1.399 . S
C163 C164 1.376 . S
C164 H151 0.930 . S
C164 C163 1.376 . S
C164 C165 1.388 . S
C165 H152 0.930 1_565 S
C165 C164 1.388 . S
C165 C166 1.390 1_565 S
C166 C165 1.390 1_545 S
C166 C167 1.394 1_545 S
C166 C172 1.465 1_655 S
C167 C162 1.399 . S
C167 C166 1.394 1_565 S
C167 C168 1.516 1_565 S
C168 C167 1.516 1_545 S
C168 C169 1.502 1_645 S
C168 C170 1.561 . S
C168 C171 1.526 1_655 S
C169 H153 0.959 . S
C169 H154 0.959 1_565 S
C169 H155 0.961 1_455 S
C169 C168 1.502 1_465 S
C170 H156 0.960 1_545 S
C170 H157 0.961 . S
C170 H158 0.959 . S
C170 C168 1.561 . S
C171 C168 1.526 1_455 S
C171 C172 1.396 . S
C171 C176 1.390 . S
C172 C166 1.465 1_455 S
C172 C171 1.396 . S
C172 C173 1.399 . S
C173 H159 0.929 . S
C173 C172 1.399 . S
C173 C174 1.385 . S
C174 H160 0.931 . S
C174 C173 1.385 . S
C174 C175 1.389 . S
C175 C174 1.389 . S
C175 C176 1.387 . S
C176 H161 0.930 . S
C176 C171 1.390 . S
C176 C175 1.387 . S
H177 C189 0.930 . S
H178 C191 0.930 . S
H179 C192 0.930 1_554 S
H180 C196 0.959 . S
H181 C196 0.959 . S
H182 C196 0.961 . S
H183 C197 0.960 . S
H184 C197 0.961 . S
H185 C197 0.959 . S
H186 C200 0.929 . S
H187 C201 0.931 . S
H188 C203 0.930 . S
C189 H177 0.930 . S
C189 C190 1.399 . S
C189 C194 1.399 . S
C190 C189 1.399 . S
C190 C191 1.376 . S
C191 H178 0.930 . S
C191 C190 1.376 . S
C191 C192 1.388 . S
C192 H179 0.930 1_556 S
C192 C191 1.388 . S
C192 C193 1.390 . S
C193 C192 1.390 . S
C193 C194 1.394 . S
C193 C199 1.465 1_556 S
C194 C189 1.399 . S
C194 C193 1.394 . S
C194 C195 1.516 . S
C195 C194 1.516 . S
C195 C196 1.502 . S
C195 C197 1.561 . S
C195 C198 1.526 1_556 S
C196 H180 0.959 . S
C196 H181 0.959 . S
C196 H182 0.961 . S
C196 C195 1.502 . S
C197 H183 0.960 . S
C197 H184 0.961 . S
C197 H185 0.959 . S
C197 C195 1.561 . S
C198 C195 1.526 1_554 S
C198 C199 1.396 . S
C198 C203 1.390 . S
C199 C193 1.465 1_554 S
C199 C198 1.396 . S
C199 C200 1.399 . S
C200 H186 0.929 . S
C200 C199 1.399 . S
C200 C201 1.385 . S
C201 H187 0.931 . S
C201 C200 1.385 . S
C201 C202 1.389 . S
C202 C201 1.389 . S
C202 C203 1.387 . S
C203 H188 0.930 . S
C203 C198 1.390 . S
C203 C202 1.387 . S
H204 C216 0.930 . S
H205 C218 0.930 . S
H206 C219 0.930 . S
H207 C223 0.959 . S
H208 C223 0.959 . S
H209 C223 0.961 . S
H210 C224 0.960 . S
H211 C224 0.961 . S
H212 C224 0.959 . S
H213 C227 0.929 . S
H214 C228 0.931 . S
H215 C230 0.930 . S
C216 H204 0.930 . S
C216 C217 1.399 . S
C216 C221 1.399 . S
C217 C216 1.399 . S
C217 C218 1.376 . S
C218 H205 0.930 . S
C218 C217 1.376 . S
C218 C219 1.388 . S
C219 H206 0.930 . S
C219 C218 1.388 . S
C219 C220 1.390 . S
C220 C219 1.390 . S
C220 C221 1.394 . S
C220 C226 1.465 . S
C221 C216 1.399 . S
C221 C220 1.394 . S
C221 C222 1.516 . S
C222 C221 1.516 . S
C222 C223 1.502 . S
C222 C224 1.561 . S
C222 C225 1.526 . S
C223 H207 0.959 . S
C223 H208 0.959 . S
C223 H209 0.961 . S
C223 C222 1.502 . S
C224 H210 0.960 . S
C224 H211 0.961 . S
C224 H212 0.959 . S
C224 C222 1.561 . S
C225 C222 1.526 . S
C225 C226 1.396 . S
C225 C230 1.390 . S
C226 C220 1.465 . S
C226 C225 1.396 . S
C226 C227 1.399 . S
C227 H213 0.929 . S
C227 C226 1.399 . S
C227 C228 1.385 . S
C228 H214 0.931 . S
C228 C227 1.385 . S
C228 C229 1.389 . S
C229 C228 1.389 . S
C229 C230 1.387 . S
C230 H215 0.930 . S
C230 C225 1.390 . S
C230 C229 1.387 . S
H231 C243 0.930 . S
H232 C245 0.930 . S
H233 C246 0.930 . S
H234 C250 0.959 . S
H235 C250 0.959 . S
H236 C250 0.961 . S
H237 C251 0.960 . S
H238 C251 0.961 . S
H239 C251 0.959 . S
H240 C254 0.929 . S
H241 C255 0.931 . S
H242 C257 0.930 . S
C243 H231 0.930 . S
C243 C244 1.399 . S
C243 C248 1.399 . S
C244 C243 1.399 . S
C244 C245 1.376 . S
C245 H232 0.930 . S
C245 C244 1.376 . S
C245 C246 1.388 . S
C246 H233 0.930 . S
C246 C245 1.388 . S
C246 C247 1.390 . S
C247 C246 1.390 . S
C247 C248 1.394 . S
C247 C253 1.465 . S
C248 C243 1.399 . S
C248 C247 1.394 . S
C248 C249 1.516 . S
C249 C248 1.516 . S
C249 C250 1.502 . S
C249 C251 1.561 . S
C249 C252 1.526 . S
C250 H234 0.959 . S
C250 H235 0.959 . S
C250 H236 0.961 . S
C250 C249 1.502 . S
C251 H237 0.960 . S
C251 H238 0.961 . S
C251 H239 0.959 . S
C251 C249 1.561 . S
C252 C249 1.526 . S
C252 C253 1.396 . S
C252 C257 1.390 . S
C253 C247 1.465 . S
C253 C252 1.396 . S
C253 C254 1.399 . S
C254 H240 0.929 . S
C254 C253 1.399 . S
C254 C255 1.385 . S
C255 H241 0.931 . S
C255 C254 1.385 . S
C255 C256 1.389 . S
C256 C255 1.389 . S
C256 C257 1.387 . S
C257 H242 0.930 . S
C257 C252 1.390 . S
C257 C256 1.387 . S
H258 C270 0.930 . S
H259 C272 0.930 . S
H260 C273 0.930 . S
H261 C277 0.959 1_556 S
H262 C277 0.959 . S
H263 C277 0.961 1_556 S
H264 C278 0.960 . S
H265 C278 0.961 . S
H266 C278 0.959 . S
H267 C281 0.929 . S
H268 C282 0.931 . S
H269 C284 0.930 . S
C270 H258 0.930 . S
C270 C271 1.399 . S
C270 C275 1.399 . S
C271 C270 1.399 . S
C271 C272 1.376 . S
C272 H259 0.930 . S
C272 C271 1.376 . S
C272 C273 1.388 . S
C273 H260 0.930 . S
C273 C272 1.388 . S
C273 C274 1.390 . S
C274 C273 1.390 . S
C274 C275 1.394 . S
C274 C280 1.465 1_556 S
C275 C270 1.399 . S
C275 C274 1.394 . S
C275 C276 1.516 1_556 S
C276 C275 1.516 1_554 S
C276 C277 1.502 . S
C276 C278 1.561 . S
C276 C279 1.526 . S
C277 H261 0.959 1_554 S
C277 H262 0.959 . S
C277 H263 0.961 1_554 S
C277 C276 1.502 . S
C278 H264 0.960 . S
C278 H265 0.961 . S
C278 H266 0.959 . S
C278 C276 1.561 . S
C279 C276 1.526 . S
C279 C280 1.396 . S
C279 C284 1.390 . S
C280 C274 1.465 1_554 S
C280 C279 1.396 . S
C280 C281 1.399 . S
C281 H267 0.929 . S
C281 C280 1.399 . S
C281 C282 1.385 . S
C282 H268 0.931 . S
C282 C281 1.385 . S
C282 C283 1.389 . S
C283 C282 1.389 . S
C283 C284 1.387 . S
C284 H269 0.930 . S
C284 C279 1.390 . S
C284 C283 1.387 . S
H285 C297 0.930 . S
H286 C299 0.930 . S
H287 C300 0.930 . S
H288 C304 0.959 . S
H289 C304 0.959 . S
H290 C304 0.961 . S
H291 C305 0.960 . S
H292 C305 0.961 . S
H293 C305 0.959 . S
H294 C308 0.929 . S
H295 C309 0.931 . S
H296 C311 0.930 . S
C297 H285 0.930 . S
C297 C298 1.399 . S
C297 C302 1.399 . S
C298 C297 1.399 . S
C298 C299 1.376 . S
C299 H286 0.930 . S
C299 C298 1.376 . S
C299 C300 1.388 . S
C300 H287 0.930 . S
C300 C299 1.388 . S
C300 C301 1.390 . S
C301 C300 1.390 . S
C301 C302 1.394 . S
C301 C307 1.465 . S
C302 C297 1.399 . S
C302 C301 1.394 . S
C302 C303 1.516 . S
C303 C302 1.516 . S
C303 C304 1.502 . S
C303 C305 1.561 . S
C303 C306 1.526 . S
C304 H288 0.959 . S
C304 H289 0.959 . S
C304 H290 0.961 . S
C304 C303 1.502 . S
C305 H291 0.960 . S
C305 H292 0.961 . S
C305 H293 0.959 . S
C305 C303 1.561 . S
C306 C303 1.526 . S
C306 C307 1.396 . S
C306 C311 1.390 . S
C307 C301 1.465 . S
C307 C306 1.396 . S
C307 C308 1.399 . S
C308 H294 0.929 . S
C308 C307 1.399 . S
C308 C309 1.385 . S
C309 H295 0.931 . S
C309 C308 1.385 . S
C309 C310 1.389 . S
C310 C309 1.389 . S
C310 C311 1.387 . S
C311 H296 0.930 . S
C311 C306 1.390 . S
C311 C310 1.387 . S
H312 C324 0.930 . S
H313 C326 0.930 . S
H314 C327 0.930 . S
H315 C331 0.959 . S
H316 C331 0.959 . S
H317 C331 0.961 . S
H318 C332 0.960 . S
H319 C332 0.961 . S
H320 C332 0.959 . S
H321 C335 0.929 . S
H322 C336 0.931 . S
H323 C338 0.930 . S
C324 H312 0.930 . S
C324 C325 1.399 . S
C324 C329 1.399 . S
C325 C324 1.399 . S
C325 C326 1.376 . S
C326 H313 0.930 . S
C326 C325 1.376 . S
C326 C327 1.388 . S
C327 H314 0.930 . S
C327 C326 1.388 . S
C327 C328 1.390 . S
C328 C327 1.390 . S
C328 C329 1.394 . S
C328 C334 1.465 . S
C329 C324 1.399 . S
C329 C328 1.394 . S
C329 C330 1.516 . S
C330 C329 1.516 . S
C330 C331 1.502 . S
C330 C332 1.561 . S
C330 C333 1.526 . S
C331 H315 0.959 . S
C331 H316 0.959 . S
C331 H317 0.961 . S
C331 C330 1.502 . S
C332 H318 0.960 . S
C332 H319 0.961 . S
C332 H320 0.959 . S
C332 C330 1.561 . S
C333 C330 1.526 . S
C333 C334 1.396 . S
C333 C338 1.390 . S
C334 C328 1.465 . S
C334 C333 1.396 . S
C334 C335 1.399 . S
C335 H321 0.929 . S
C335 C334 1.399 . S
C335 C336 1.385 . S
C336 H322 0.931 . S
C336 C335 1.385 . S
C336 C337 1.389 . S
C337 C336 1.389 . S
C337 C338 1.387 . S
C338 H323 0.930 . S
C338 C333 1.390 . S
C338 C337 1.387 . S
C109 N18 0.803 . S
C121 N13 0.926 . S
C136 N45 0.918 . S
C148 N50 0.840 . S
C163 N82 0.825 . S
C175 N77 0.906 . S
C190 C70 1.650 . S
C202 C4 1.639 . S
C217 C34 1.981 . S
C229 C6 1.979 . S
C244 C66 1.672 . S
C256 C61 1.662 . S
C271 C93 1.695 . S
C283 C2 1.702 . S
C298 C29 1.381 . S
C310 C36 1.377 . S
C325 C68 1.670 . S
C337 C38 1.697 . S
