# Generated by pormake.
# Topology vbj, (5)-cn, num edge types: 1
# Building blocks:
#     Node 0, Type 0, BuildingBlock: XOMCOT_clean_sbu_1, # of connection points: 5
#     Node 1, Type 0, BuildingBlock: XOMCOT_clean_sbu_1, # of connection points: 5
#     Node 2, Type 0, BuildingBlock: XOMCOT_clean_sbu_1, # of connection points: 5
#     Node 3, Type 0, BuildingBlock: XOMCOT_clean_sbu_1, # of connection points: 5
#     Node 4, Type 0, BuildingBlock: XOMCOT_clean_sbu_1, # of connection points: 5
#     Node 5, Type 0, BuildingBlock: XOMCOT_clean_sbu_1, # of connection points: 5
#     Node 6, Type 0, BuildingBlock: XOMCOT_clean_sbu_1, # of connection points: 5
#     Node 7, Type 0, BuildingBlock: XOMCOT_clean_sbu_1, # of connection points: 5
#     Node 8, Type 0, BuildingBlock: XOMCOT_clean_sbu_1, # of connection points: 5
#     Node 9, Type 0, BuildingBlock: XOMCOT_clean_sbu_1, # of connection points: 5
#     Node 10, Type 0, BuildingBlock: XOMCOT_clean_sbu_1, # of connection points: 5
#     Node 11, Type 0, BuildingBlock: XOMCOT_clean_sbu_1, # of connection points: 5
#     Node 12, Type 0, BuildingBlock: XOMCOT_clean_sbu_1, # of connection points: 5
#     Node 13, Type 0, BuildingBlock: XOMCOT_clean_sbu_1, # of connection points: 5
#     Node 14, Type 0, BuildingBlock: XOMCOT_clean_sbu_1, # of connection points: 5
#     Node 15, Type 0, BuildingBlock: XOMCOT_clean_sbu_1, # of connection points: 5
#     Edge 16, Type (0, 0), BuildingBlock: KIFKEQ_clean_linker_1, # of connection points: 2
#     Edge 17, Type (0, 0), BuildingBlock: KIFKEQ_clean_linker_1, # of connection points: 2
#     Edge 18, Type (0, 0), BuildingBlock: KIFKEQ_clean_linker_1, # of connection points: 2
#     Edge 19, Type (0, 0), BuildingBlock: KIFKEQ_clean_linker_1, # of connection points: 2
#     Edge 20, Type (0, 0), BuildingBlock: KIFKEQ_clean_linker_1, # of connection points: 2
#     Edge 21, Type (0, 0), BuildingBlock: KIFKEQ_clean_linker_1, # of connection points: 2
#     Edge 22, Type (0, 0), BuildingBlock: KIFKEQ_clean_linker_1, # of connection points: 2
#     Edge 23, Type (0, 0), BuildingBlock: KIFKEQ_clean_linker_1, # of connection points: 2
#     Edge 24, Type (0, 0), BuildingBlock: KIFKEQ_clean_linker_1, # of connection points: 2
#     Edge 25, Type (0, 0), BuildingBlock: KIFKEQ_clean_linker_1, # of connection points: 2
#     Edge 26, Type (0, 0), BuildingBlock: KIFKEQ_clean_linker_1, # of connection points: 2
#     Edge 27, Type (0, 0), BuildingBlock: KIFKEQ_clean_linker_1, # of connection points: 2
#     Edge 28, Type (0, 0), BuildingBlock: KIFKEQ_clean_linker_1, # of connection points: 2
#     Edge 29, Type (0, 0), BuildingBlock: KIFKEQ_clean_linker_1, # of connection points: 2
#     Edge 30, Type (0, 0), BuildingBlock: KIFKEQ_clean_linker_1, # of connection points: 2
#     Edge 31, Type (0, 0), BuildingBlock: KIFKEQ_clean_linker_1, # of connection points: 2
#     Edge 32, Type (0, 0), BuildingBlock: KIFKEQ_clean_linker_1, # of connection points: 2
#     Edge 33, Type (0, 0), BuildingBlock: KIFKEQ_clean_linker_1, # of connection points: 2
#     Edge 34, Type (0, 0), BuildingBlock: KIFKEQ_clean_linker_1, # of connection points: 2
#     Edge 35, Type (0, 0), BuildingBlock: KIFKEQ_clean_linker_1, # of connection points: 2
#     Edge 36, Type (0, 0), BuildingBlock: KIFKEQ_clean_linker_1, # of connection points: 2
#     Edge 37, Type (0, 0), BuildingBlock: KIFKEQ_clean_linker_1, # of connection points: 2
#     Edge 38, Type (0, 0), BuildingBlock: KIFKEQ_clean_linker_1, # of connection points: 2
#     Edge 39, Type (0, 0), BuildingBlock: KIFKEQ_clean_linker_1, # of connection points: 2
#     Edge 40, Type (0, 0), BuildingBlock: KIFKEQ_clean_linker_1, # of connection points: 2
#     Edge 41, Type (0, 0), BuildingBlock: KIFKEQ_clean_linker_1, # of connection points: 2
#     Edge 42, Type (0, 0), BuildingBlock: KIFKEQ_clean_linker_1, # of connection points: 2
#     Edge 43, Type (0, 0), BuildingBlock: KIFKEQ_clean_linker_1, # of connection points: 2
#     Edge 44, Type (0, 0), BuildingBlock: KIFKEQ_clean_linker_1, # of connection points: 2
#     Edge 45, Type (0, 0), BuildingBlock: KIFKEQ_clean_linker_1, # of connection points: 2
#     Edge 46, Type (0, 0), BuildingBlock: KIFKEQ_clean_linker_1, # of connection points: 2
#     Edge 47, Type (0, 0), BuildingBlock: KIFKEQ_clean_linker_1, # of connection points: 2
#     Edge 48, Type (0, 0), BuildingBlock: KIFKEQ_clean_linker_1, # of connection points: 2
#     Edge 49, Type (0, 0), BuildingBlock: KIFKEQ_clean_linker_1, # of connection points: 2
#     Edge 50, Type (0, 0), BuildingBlock: KIFKEQ_clean_linker_1, # of connection points: 2
#     Edge 51, Type (0, 0), BuildingBlock: KIFKEQ_clean_linker_1, # of connection points: 2
#     Edge 52, Type (0, 0), BuildingBlock: KIFKEQ_clean_linker_1, # of connection points: 2
#     Edge 53, Type (0, 0), BuildingBlock: KIFKEQ_clean_linker_1, # of connection points: 2
#     Edge 54, Type (0, 0), BuildingBlock: KIFKEQ_clean_linker_1, # of connection points: 2
#     Edge 55, Type (0, 0), BuildingBlock: KIFKEQ_clean_linker_1, # of connection points: 2
# Relax obj value: 0.100
# Max RMSD: 0.145
# Mean RMSD: 0.145
data_MOF--net-vbj--node1-XOMCOT_clean_sbu_1--edge1-KIFKEQ_clean_linker_1
_symmetry_space_group_name_H-M    P1
_symmetry_Int_Tables_number       1
_symmetry_cell_setting            triclinic
loop_
_symmetry_equiv_pos_as_xyz
'x, y, z'
_cell_length_a     27.101327
_cell_length_b     65.023064
_cell_length_c     48.315602
_cell_angle_alpha  89.853992
_cell_angle_beta   90.007372
_cell_angle_gamma 89.952175
loop_
_atom_site_label
_atom_site_type_symbol
_atom_site_fract_x
_atom_site_fract_y
_atom_site_fract_z
_atom_type_partial_charge
C0 C 0.0712 0.1782 0.06884 0.0
C1 C 0.05863 0.19841 0.06519 0.0
N2 N 0.05095 0.20689 0.09022 0.0
N3 N 0.07179 0.17372 0.0961 0.0
C4 C 0.05998 0.19168 0.10876 0.0
H5 H 0.07687 0.16712 0.0525 0.0
Co6 Co 0.08057 0.14644 0.10848 0.0
C7 C 0.01974 0.15189 0.16092 0.0
O8 O 0.98012 0.14346 0.1503 0.0
N9 N 0.09117 0.11882 0.1205 0.0
C10 C 0.08484 0.08816 0.14101 0.0
C11 C 0.06238 0.1069 0.13678 0.0
C12 C 0.13054 0.10664 0.11471 0.0
N13 N 0.12781 0.08801 0.12708 0.0
O14 O 0.14751 0.153 0.11743 0.0
H15 H 0.02692 0.11124 0.14492 0.0
H16 H 0.16125 0.11132 0.10197 0.0
O17 O 0.05933 0.1537 0.14657 0.0
C18 C 0.16972 0.15147 0.09425 0.0
O19 O 0.14516 0.14458 0.07276 0.0
N20 N 0.01647 0.14006 0.09538 0.0
C21 C 0.94236 0.13869 0.05505 0.0
C22 C 0.94149 0.15365 0.07592 0.0
C23 C 0.97883 0.15411 0.09576 0.0
C24 C 0.01587 0.12455 0.07637 0.0
C25 C 0.97886 0.12342 0.05632 0.0
H26 H 0.97988 0.16707 0.10968 0.0
H27 H 0.04677 0.11412 0.07476 0.0
H28 H 0.05473 0.19321 0.13086 0.0
H29 H 0.05383 0.20611 0.04548 0.0
H30 H 0.07027 0.0755 0.15308 0.0
H31 H 0.9147 0.166 0.07568 0.0
H32 H 0.98073 0.11138 0.04091 0.0
C33 C 0.39999 0.87608 0.07297 0.0
C34 C 0.40648 0.85512 0.07253 0.0
N35 N 0.41957 0.84892 0.09808 0.0
N36 N 0.40847 0.88316 0.09876 0.0
C37 C 0.42022 0.86616 0.11367 0.0
H38 H 0.39157 0.88566 0.05527 0.0
Co39 Co 0.40661 0.91125 0.10839 0.0
C40 C 0.47282 0.90569 0.15884 0.0
O41 O 0.51277 0.91196 0.14605 0.0
N42 N 0.403 0.93969 0.11821 0.0
C43 C 0.41668 0.97053 0.1369 0.0
C44 C 0.43518 0.951 0.13318 0.0
C45 C 0.36583 0.95306 0.11255 0.0
N46 N 0.37288 0.9718 0.12391 0.0
O47 O 0.33992 0.90752 0.12042 0.0
H48 H 0.47008 0.94561 0.141 0.0
H49 H 0.33347 0.94919 0.10077 0.0
O50 O 0.43133 0.90502 0.14611 0.0
C51 C 0.31536 0.90962 0.09806 0.0
O52 O 0.3389 0.91475 0.0753 0.0
N53 N 0.46965 0.91483 0.09216 0.0
C54 C 0.53963 0.91363 0.0497 0.0
C55 C 0.54032 0.89894 0.07094 0.0
C56 C 0.50493 0.89974 0.09191 0.0
C57 C 0.47034 0.92984 0.07231 0.0
C58 C 0.50542 0.92972 0.05119 0.0
H59 H 0.50378 0.88725 0.10664 0.0
H60 H 0.44072 0.94092 0.07099 0.0
H61 H 0.43078 0.86642 0.13526 0.0
H62 H 0.40442 0.84535 0.05446 0.0
H63 H 0.43425 0.98287 0.14821 0.0
H64 H 0.56641 0.88631 0.07059 0.0
H65 H 0.50311 0.94117 0.03492 0.0
C66 C 0.58079 0.87674 0.45319 0.0
C67 C 0.56867 0.85639 0.4558 0.0
N68 N 0.55452 0.84931 0.43087 0.0
N69 N 0.57485 0.88271 0.42666 0.0
C70 C 0.55931 0.86551 0.41336 0.0
H71 H 0.59075 0.88686 0.46999 0.0
Co72 Co 0.58095 0.91059 0.41637 0.0
C73 C 0.51706 0.90959 0.36523 0.0
O74 O 0.48203 0.92037 0.37703 0.0
N75 N 0.58855 0.93912 0.40645 0.0
C76 C 0.57474 0.97219 0.39626 0.0
C77 C 0.55337 0.95324 0.40056 0.0
C78 C 0.63107 0.95018 0.40554 0.0
N79 N 0.62386 0.97029 0.39945 0.0
O80 O 0.64712 0.90505 0.40471 0.0
H81 H 0.51419 0.95041 0.40063 0.0
H82 H 0.66687 0.94393 0.4102 0.0
O83 O 0.55619 0.9048 0.37868 0.0
C84 C 0.67184 0.90642 0.42708 0.0
O85 O 0.6496 0.91309 0.44949 0.0
N86 N 0.51824 0.91542 0.43199 0.0
C87 C 0.44455 0.91413 0.47257 0.0
C88 C 0.44232 0.90127 0.44927 0.0
C89 C 0.47952 0.90211 0.42929 0.0
C90 C 0.51988 0.9286 0.45389 0.0
C91 C 0.48301 0.92852 0.47404 0.0
H92 H 0.47925 0.8908 0.41297 0.0
H93 H 0.55198 0.93818 0.45703 0.0
H94 H 0.54828 0.86525 0.39184 0.0
H95 H 0.56853 0.84767 0.47491 0.0
H96 H 0.55529 0.9863 0.39152 0.0
H97 H 0.41411 0.88959 0.44734 0.0
H98 H 0.48614 0.93899 0.49134 0.0
C99 C 0.88526 0.18262 0.44624 0.0
C100 C 0.89213 0.20355 0.44558 0.0
N101 N 0.91631 0.20838 0.42213 0.0
N102 N 0.9045 0.17416 0.42317 0.0
C103 C 0.92324 0.19032 0.40883 0.0
H104 H 0.86867 0.17408 0.46303 0.0
Co105 Co 0.90589 0.14566 0.41636 0.0
C106 C 0.96945 0.14394 0.36617 0.0
O107 O 0.00134 0.13217 0.37913 0.0
N108 N 0.90608 0.11621 0.40943 0.0
C109 C 0.92554 0.08276 0.40814 0.0
C110 C 0.94316 0.10238 0.41224 0.0
C111 C 0.86668 0.10426 0.40267 0.0
N112 N 0.87707 0.08392 0.40234 0.0
O113 O 0.83914 0.14743 0.40392 0.0
H114 H 0.98076 0.10602 0.41778 0.0
H115 H 0.8302 0.11014 0.3988 0.0
O116 O 0.93085 0.15037 0.37871 0.0
C117 C 0.81539 0.14352 0.42614 0.0
O118 O 0.84033 0.13842 0.44845 0.0
N119 N 0.9682 0.14464 0.43319 0.0
C120 C 0.03966 0.15072 0.47413 0.0
C121 C 0.04318 0.16077 0.44837 0.0
C122 C 0.00688 0.15759 0.42816 0.0
C123 C 0.96506 0.13443 0.4578 0.0
C124 C 0.00088 0.13678 0.47814 0.0
H125 H 0.00806 0.1667 0.40947 0.0
H126 H 0.93293 0.12518 0.46234 0.0
H127 H 0.94274 0.1889 0.38939 0.0
H128 H 0.88229 0.21428 0.46177 0.0
H129 H 0.94685 0.06873 0.40979 0.0
H130 H 0.0719 0.17195 0.44439 0.0
H131 H -0.00312 0.12829 0.4973 0.0
C132 C 0.88324 0.87124 0.94661 0.0
C133 C 0.89606 0.85091 0.9489 0.0
N134 N 0.92596 0.84609 0.92762 0.0
N135 N 0.90453 0.87935 0.92387 0.0
C136 C 0.93025 0.86357 0.91255 0.0
H137 H 0.86154 0.87979 0.96138 0.0
Co138 Co 0.90197 0.90749 0.91616 0.0
C139 C 0.96264 0.91249 0.86538 0.0
O140 O 0.98631 0.92779 0.87703 0.0
N141 N 0.89838 0.93672 0.90896 0.0
C142 C 0.91203 0.97064 0.91008 0.0
C143 C 0.9313 0.95154 0.91582 0.0
C144 C 0.85953 0.94758 0.89869 0.0
N145 N 0.86653 0.96816 0.89958 0.0
O146 O 0.8363 0.90381 0.9025 0.0
H147 H 0.96707 0.94894 0.92504 0.0
H148 H 0.82593 0.94068 0.89112 0.0
O149 O 0.92934 0.90286 0.87899 0.0
C150 C 0.80886 0.90795 0.92319 0.0
O151 O 0.82926 0.91532 0.94573 0.0
N152 N 0.96294 0.9101 0.93368 0.0
C153 C 0.03672 0.90763 0.97359 0.0
C154 C 0.04567 0.90088 0.94646 0.0
C155 C 0.00759 0.90177 0.92681 0.0
C156 C 0.95435 0.91695 0.95988 0.0
C157 C 0.99069 0.91594 0.98009 0.0
H158 H 0.01325 0.89473 0.90686 0.0
H159 H 0.9181 0.92252 0.9654 0.0
H160 H 0.95404 0.86516 0.89468 0.0
H161 H 0.88538 0.84062 0.96548 0.0
H162 H 0.92931 0.98525 0.91465 0.0
H163 H 0.08075 0.89401 0.94099 0.0
H164 H 0.98253 0.92124 1.00084 0.0
C165 C 0.59849 0.17825 0.94769 0.0
C166 C 0.59281 0.1992 0.94888 0.0
N167 N 0.5733 0.20567 0.92476 0.0
N168 N 0.5832 0.17142 0.92282 0.0
C169 C 0.56769 0.18853 0.90925 0.0
H170 H 0.61214 0.16855 0.96419 0.0
Co171 Co 0.58467 0.1435 0.91339 0.0
C172 C 0.52284 0.14266 0.86257 0.0
O173 O 0.49277 0.1296 0.87457 0.0
N174 N 0.58752 0.11455 0.90406 0.0
C175 C 0.57107 0.08095 0.8998 0.0
C176 C 0.5516 0.10007 0.90529 0.0
C177 C 0.62832 0.1035 0.8972 0.0
N178 N 0.61961 0.08311 0.89502 0.0
O179 O 0.65137 0.14721 0.90159 0.0
H180 H 0.51361 0.10283 0.91091 0.0
H181 H 0.66443 0.11005 0.89411 0.0
O182 O 0.56001 0.14966 0.87592 0.0
C183 C 0.67611 0.14303 0.92336 0.0
O184 O 0.65291 0.13548 0.94498 0.0
N185 N 0.52215 0.14072 0.92944 0.0
C186 C 0.44822 0.14403 0.96932 0.0
C187 C 0.44536 0.15533 0.94456 0.0
C188 C 0.48294 0.15351 0.92483 0.0
C189 C 0.52494 0.12952 0.9533 0.0
C190 C 0.48789 0.13056 0.97318 0.0
H191 H 0.48234 0.16354 0.90698 0.0
H192 H 0.55779 0.12065 0.95775 0.0
H193 H 0.55221 0.18847 0.88861 0.0
H194 H 0.60087 0.20887 0.96651 0.0
H195 H 0.55142 0.06648 0.90073 0.0
H196 H 0.41545 0.16608 0.94103 0.0
H197 H 0.49206 0.12198 0.99229 0.0
C198 C 0.40302 0.1785 0.57023 0.0
C199 C 0.41682 0.19857 0.56639 0.0
N200 N 0.43464 0.20582 0.59047 0.0
N201 N 0.41191 0.17293 0.59664 0.0
C202 C 0.43087 0.19003 0.60867 0.0
H203 H 0.38928 0.1683 0.55438 0.0
Co204 Co 0.4039 0.14559 0.60807 0.0
C205 C 0.46956 0.14451 0.65799 0.0
O206 O 0.49849 0.13093 0.64625 0.0
N207 N 0.39485 0.1173 0.61919 0.0
C208 C 0.40724 0.08373 0.62677 0.0
C209 C 0.42924 0.10218 0.62049 0.0
C210 C 0.35199 0.10726 0.62485 0.0
N211 N 0.35849 0.0869 0.6293 0.0
O212 O 0.33952 0.15257 0.621 0.0
H213 H 0.46787 0.10393 0.61563 0.0
H214 H 0.31617 0.11449 0.62531 0.0
O215 O 0.43237 0.15172 0.64477 0.0
C216 C 0.3129 0.14961 0.5996 0.0
O217 O 0.33284 0.14082 0.57786 0.0
N218 N 0.46384 0.1395 0.59089 0.0
C219 C 0.53359 0.13818 0.54831 0.0
C220 C 0.54279 0.14935 0.57273 0.0
C221 C 0.50684 0.15025 0.5935 0.0
C222 C 0.45512 0.12806 0.56782 0.0
C223 C 0.48931 0.12713 0.54643 0.0
H224 H 0.51213 0.1607 0.61059 0.0
H225 H 0.41951 0.12088 0.565 0.0
H226 H 0.44422 0.19057 0.62977 0.0
H227 H 0.41502 0.20707 0.54712 0.0
H228 H 0.42543 0.06892 0.62779 0.0
H229 H 0.57642 0.15809 0.57533 0.0
H230 H 0.47928 0.11887 0.52785 0.0
C231 C 0.08162 0.87871 0.57101 0.0
C232 C 0.07114 0.85834 0.56693 0.0
N233 N 0.05753 0.85002 0.5913 0.0
N234 N 0.07492 0.88343 0.59789 0.0
C235 C 0.06083 0.86549 0.60994 0.0
H236 H 0.09089 0.88969 0.55501 0.0
Co237 Co 0.07792 0.91087 0.60997 0.0
C238 C 0.01364 0.90689 0.66066 0.0
O239 O 0.97751 0.91705 0.64882 0.0
N240 N 0.08216 0.93906 0.62179 0.0
C241 C 0.06396 0.97124 0.63427 0.0
C242 C 0.04518 0.95207 0.62861 0.0
C243 C 0.1231 0.95104 0.62345 0.0
N244 N 0.11326 0.97068 0.63089 0.0
O245 O 0.14456 0.90603 0.62134 0.0
H246 H 0.00644 0.94841 0.62815 0.0
H247 H 0.15956 0.94573 0.61841 0.0
O248 O 0.05351 0.90323 0.64727 0.0
C249 C 0.16916 0.90931 0.59926 0.0
O250 O 0.14627 0.917 0.5776 0.0
N251 N 0.01511 0.9152 0.59431 0.0
C252 C 0.94476 0.91374 0.55221 0.0
C253 C 0.94217 0.90013 0.57471 0.0
C254 C 0.97783 0.90105 0.59554 0.0
C255 C 0.01656 0.92916 0.57318 0.0
C256 C 0.98126 0.92894 0.55219 0.0
H257 H 0.97787 0.88921 0.61125 0.0
H258 H 0.04789 0.93933 0.57107 0.0
H259 H 0.0497 0.86413 0.63138 0.0
H260 H 0.07167 0.85042 0.54725 0.0
H261 H 0.04239 0.98459 0.63988 0.0
H262 H 0.91442 0.88816 0.57544 0.0
H263 H 0.98502 0.93949 0.53493 0.0
C264 C 0.60221 0.68439 0.0774 0.0
C265 C 0.59326 0.70519 0.07759 0.0
N266 N 0.56802 0.70975 0.10075 0.0
N267 N 0.58329 0.67579 0.10051 0.0
C268 C 0.56247 0.6917 0.11435 0.0
H269 H 0.62036 0.67601 0.06102 0.0
Co270 Co 0.58586 0.64747 0.10808 0.0
C271 C 0.52347 0.6441 0.15853 0.0
O272 O 0.49435 0.6311 0.14577 0.0
N273 N 0.58965 0.61823 0.1157 0.0
C274 C 0.57427 0.58444 0.11826 0.0
C275 C 0.55453 0.60354 0.11289 0.0
C276 C 0.63023 0.6073 0.1234 0.0
N277 N 0.62218 0.5868 0.12463 0.0
O278 O 0.65219 0.65114 0.12065 0.0
H279 H 0.51684 0.60621 0.10657 0.0
H280 H 0.66559 0.61407 0.12798 0.0
O281 O 0.56018 0.65198 0.14567 0.0
C282 C 0.67748 0.64774 0.09886 0.0
O283 O 0.65483 0.64094 0.07666 0.0
N284 N 0.5239 0.64481 0.09129 0.0
C285 C 0.45069 0.64855 0.05076 0.0
C286 C 0.44595 0.65856 0.07644 0.0
C287 C 0.48312 0.65656 0.09644 0.0
C288 C 0.52851 0.63474 0.06672 0.0
C289 C 0.49191 0.63589 0.04661 0.0
H290 H 0.48071 0.66564 0.11506 0.0
H291 H 0.56216 0.62649 0.06212 0.0
H292 H 0.54284 0.69011 0.13374 0.0
H293 H 0.60273 0.71601 0.06137 0.0
H294 H 0.5552 0.56989 0.1164 0.0
H295 H 0.41541 0.66885 0.08051 0.0
H296 H 0.49707 0.62747 0.02753 0.0
C297 C 0.89978 0.37985 0.07174 0.0
C298 C 0.91062 0.35946 0.06806 0.0
N299 N 0.93124 0.35216 0.09148 0.0
N300 N 0.91308 0.38558 0.09745 0.0
C301 C 0.93171 0.36826 0.10922 0.0
H302 H 0.88502 0.3901 0.05617 0.0
Co303 Co 0.9103 0.41322 0.10807 0.0
C304 C 0.97142 0.41401 0.15893 0.0
O305 O 0.00035 0.42772 0.14736 0.0
N306 N 0.90616 0.44196 0.11836 0.0
C307 C 0.92074 0.47569 0.12263 0.0
C308 C 0.94108 0.45682 0.11668 0.0
C309 C 0.86507 0.45252 0.12605 0.0
N310 N 0.8726 0.47301 0.12821 0.0
O311 O 0.84399 0.40871 0.11988 0.0
H312 H 0.97892 0.4545 0.11042 0.0
H313 H 0.82958 0.44554 0.12963 0.0
O314 O 0.93515 0.40655 0.14528 0.0
C315 C 0.81818 0.41327 0.09867 0.0
O316 O 0.84006 0.42166 0.07717 0.0
N317 N 0.97277 0.41674 0.09215 0.0
C318 C 0.04566 0.41285 0.05154 0.0
C319 C 0.04932 0.40209 0.07676 0.0
C320 C 0.01239 0.4042 0.09679 0.0
C321 C 0.96955 0.42779 0.0682 0.0
C322 C 0.00606 0.42651 0.04802 0.0
H323 H 0.01352 0.39432 0.11478 0.0
H324 H 0.93667 0.43668 0.06391 0.0
H325 H 0.94809 0.36776 0.12964 0.0
H326 H 0.90491 0.35079 0.04923 0.0
H327 H 0.93949 0.49035 0.1214 0.0
H328 H 0.07848 0.39101 0.08032 0.0
H329 H 0.00184 0.43545 0.02924 0.0
C330 C 0.09209 0.37394 0.44782 0.0
C331 C 0.08323 0.35315 0.44811 0.0
N332 N 0.06374 0.34784 0.42353 0.0
N333 N 0.07886 0.38181 0.42306 0.0
C334 C 0.06145 0.36548 0.40866 0.0
H335 H 0.10637 0.38284 0.46489 0.0
Co336 Co 0.08432 0.40992 0.41442 0.0
C337 C 0.02162 0.4126 0.36381 0.0
O338 O 0.99182 0.42557 0.37615 0.0
N339 N 0.0914 0.43892 0.40584 0.0
C340 C 0.07837 0.47272 0.40074 0.0
C341 C 0.05677 0.45397 0.40597 0.0
C342 C 0.1338 0.44929 0.4001 0.0
N343 N 0.12706 0.4698 0.39725 0.0
O344 O 0.14994 0.40474 0.40211 0.0
H345 H 0.01816 0.45184 0.41065 0.0
H346 H 0.16951 0.44214 0.3981 0.0
O347 O 0.05857 0.40514 0.37694 0.0
C348 C 0.17516 0.40725 0.42411 0.0
O349 O 0.15321 0.41459 0.44623 0.0
N350 N 0.02236 0.41405 0.43079 0.0
C351 C 0.94878 0.41154 0.47127 0.0
C352 C 0.94473 0.40048 0.44638 0.0
C353 C 0.98201 0.40189 0.42641 0.0
C354 C 0.02615 0.42528 0.45447 0.0
C355 C 0.98932 0.42471 0.47454 0.0
H356 H 0.98031 0.39192 0.4086 0.0
H357 H 0.05954 0.43382 0.45866 0.0
H358 H 0.04672 0.36648 0.38788 0.0
H359 H 0.08891 0.34284 0.46545 0.0
H360 H 0.05985 0.48748 0.40076 0.0
H361 H 0.91481 0.38976 0.44301 0.0
H362 H 0.99393 0.43389 0.49301 0.0
C363 C 0.39431 0.67984 0.44808 0.0
C364 C 0.39937 0.70082 0.44879 0.0
N365 N 0.41964 0.70705 0.42476 0.0
N366 N 0.41077 0.67269 0.4236 0.0
C367 C 0.42632 0.68969 0.40979 0.0
H368 H 0.38046 0.67035 0.46473 0.0
Co369 Co 0.41116 0.64452 0.41501 0.0
C370 C 0.47095 0.64296 0.36398 0.0
O371 O 0.50099 0.63005 0.37638 0.0
N372 N 0.41008 0.61527 0.40634 0.0
C373 C 0.42649 0.58155 0.40429 0.0
C374 C 0.44549 0.60075 0.4097 0.0
C375 C 0.37035 0.60414 0.39784 0.0
N376 N 0.37877 0.58362 0.39712 0.0
O377 O 0.34365 0.64695 0.40422 0.0
H378 H 0.48282 0.6036 0.41651 0.0
H379 H 0.3352 0.61082 0.39252 0.0
O380 O 0.43407 0.65034 0.37719 0.0
C381 C 0.32184 0.64177 0.42661 0.0
O382 O 0.34866 0.63551 0.44767 0.0
N383 N 0.47436 0.64284 0.43055 0.0
C384 C 0.54575 0.64906 0.47145 0.0
C385 C 0.54892 0.6593 0.44579 0.0
C386 C 0.5126 0.65603 0.42557 0.0
C387 C 0.47194 0.63233 0.45495 0.0
C388 C 0.50779 0.63472 0.47521 0.0
H389 H 0.51293 0.66544 0.40711 0.0
H390 H 0.44011 0.62291 0.45951 0.0
H391 H 0.44274 0.68939 0.38938 0.0
H392 H 0.39046 0.7107 0.46609 0.0
H393 H 0.44597 0.56714 0.40679 0.0
H394 H 0.57713 0.67074 0.44202 0.0
H395 H 0.50419 0.62605 0.49426 0.0
C396 C 0.41351 0.37593 0.9531 0.0
C397 C 0.42532 0.35559 0.95631 0.0
N398 N 0.43746 0.34785 0.93138 0.0
N399 N 0.41764 0.38123 0.92621 0.0
C400 C 0.43163 0.36364 0.91331 0.0
H401 H 0.40501 0.3865 0.96966 0.0
Co402 Co 0.41102 0.40878 0.91452 0.0
C403 C 0.47596 0.40475 0.86355 0.0
O404 O 0.51327 0.41399 0.87551 0.0
N405 N 0.40248 0.43683 0.9032 0.0
C406 C 0.41255 0.46827 0.8853 0.0
C407 C 0.43414 0.44937 0.88961 0.0
C408 C 0.36223 0.4489 0.90742 0.0
N409 N 0.36725 0.46796 0.89657 0.0
O410 O 0.34475 0.40279 0.90353 0.0
H411 H 0.47121 0.44551 0.88371 0.0
H412 H 0.32934 0.44396 0.91805 0.0
O413 O 0.43555 0.40188 0.87687 0.0
C414 C 0.32063 0.4045 0.92607 0.0
O415 O 0.34351 0.41133 0.94818 0.0
N416 N 0.47402 0.4144 0.92951 0.0
C417 C 0.54732 0.41501 0.97029 0.0
C418 C 0.54863 0.40048 0.9489 0.0
C419 C 0.51164 0.40036 0.92887 0.0
C420 C 0.47373 0.42935 0.94929 0.0
C421 C 0.51035 0.43012 0.9696 0.0
H422 H 0.51126 0.38786 0.91421 0.0
H423 H 0.44264 0.43968 0.95102 0.0
H424 H 0.44091 0.36281 0.89156 0.0
H425 H 0.4266 0.34733 0.97577 0.0
H426 H 0.42936 0.4814 0.87522 0.0
H427 H 0.57576 0.38825 0.94872 0.0
H428 H 0.50808 0.44181 0.98547 0.0
C429 C 0.0819 0.67704 0.95153 0.0
C430 C 0.07692 0.69797 0.95348 0.0
N431 N 0.06943 0.70562 0.9279 0.0
N432 N 0.07794 0.67136 0.92481 0.0
C433 C 0.07023 0.68917 0.91079 0.0
H434 H 0.08687 0.66651 0.96866 0.0
Co435 Co 0.08236 0.64373 0.91376 0.0
C436 C 0.01783 0.64832 0.86269 0.0
O437 O 0.97976 0.63979 0.87491 0.0
N438 N 0.08894 0.61554 0.90296 0.0
C439 C 0.07705 0.58418 0.88538 0.0
C440 C 0.05656 0.60332 0.88947 0.0
C441 C 0.12849 0.60309 0.90729 0.0
N442 N 0.12236 0.58407 0.89667 0.0
O443 O 0.14904 0.6489 0.90289 0.0
H444 H 0.0198 0.6076 0.88342 0.0
H445 H 0.16178 0.60776 0.91775 0.0
O446 O 0.05852 0.65067 0.8759 0.0
C447 C 0.17277 0.64713 0.92557 0.0
O448 O 0.14932 0.64048 0.94764 0.0
N449 N 0.01886 0.63905 0.92873 0.0
C450 C 0.94576 0.63982 0.96964 0.0
C451 C 0.94594 0.65437 0.94816 0.0
C452 C 0.98282 0.6538 0.92806 0.0
C453 C 0.01754 0.62408 0.94858 0.0
C454 C 0.98097 0.624 0.96895 0.0
H455 H 0.98475 0.66634 0.91339 0.0
H456 H 0.04747 0.61316 0.95035 0.0
H457 H 0.06464 0.69007 0.88865 0.0
H458 H 0.07686 0.70681 0.97244 0.0
H459 H 0.05956 0.57122 0.87535 0.0
H460 H 0.92023 0.66713 0.94797 0.0
H461 H 0.98205 0.61228 0.98489 0.0
C462 C 0.89813 0.67827 0.57125 0.0
C463 C 0.911 0.69846 0.56743 0.0
N464 N 0.9328 0.70529 0.59071 0.0
N465 N 0.91146 0.67223 0.59686 0.0
C466 C 0.93228 0.68912 0.60843 0.0
H467 H 0.88161 0.66837 0.5559 0.0
Co468 Co 0.90541 0.64476 0.6078 0.0
C469 C 0.96987 0.64251 0.65767 0.0
O470 O -0.00455 0.6277 0.64613 0.0
N471 N 0.8983 0.61615 0.61842 0.0
C472 C 0.91097 0.5823 0.62269 0.0
C473 C 0.93198 0.60084 0.616 0.0
C474 C 0.85697 0.60612 0.627 0.0
N475 N 0.8635 0.58555 0.62939 0.0
O476 O 0.84073 0.65092 0.62102 0.0
H477 H 0.96943 0.60263 0.60876 0.0
H478 H 0.82209 0.61356 0.63099 0.0
O479 O 0.93428 0.6509 0.64434 0.0
C480 C 0.81346 0.64675 0.60025 0.0
O481 O 0.83325 0.63745 0.57886 0.0
N482 N 0.96537 0.63961 0.59029 0.0
C483 C 0.03601 0.63904 0.54822 0.0
C484 C 0.04542 0.64918 0.57341 0.0
C485 C 0.00905 0.64968 0.59403 0.0
C486 C 0.95613 0.62948 0.56621 0.0
C487 C 0.99075 0.62891 0.54507 0.0
H488 H 0.01478 0.65922 0.61201 0.0
H489 H 0.92014 0.62283 0.5627 0.0
H490 H 0.94903 0.68928 0.62876 0.0
H491 H 0.90558 0.70735 0.5487 0.0
H492 H 0.92873 0.56743 0.62119 0.0
H493 H 0.07972 0.65729 0.57684 0.0
H494 H 0.98064 0.62153 0.52584 0.0
C495 C 0.59044 0.37844 0.57045 0.0
C496 C 0.58017 0.35803 0.56647 0.0
N497 N 0.56123 0.35031 0.59008 0.0
N498 N 0.57831 0.38376 0.5965 0.0
C499 C 0.56105 0.36618 0.60818 0.0
H500 H 0.60393 0.389 0.55489 0.0
Co501 Co 0.58035 0.41128 0.60777 0.0
C502 C 0.51889 0.41126 0.65851 0.0
O503 O 0.49038 0.42522 0.64711 0.0
N504 N 0.58367 0.43992 0.61874 0.0
C505 C 0.56774 0.47349 0.62375 0.0
C506 C 0.54825 0.45462 0.61723 0.0
C507 C 0.62428 0.45062 0.62685 0.0
N508 N 0.61588 0.47104 0.62953 0.0
O509 O 0.6469 0.40689 0.61923 0.0
H510 H 0.51058 0.4522 0.61073 0.0
H511 H 0.66 0.44377 0.63033 0.0
O512 O 0.55541 0.40396 0.64485 0.0
C513 C 0.67203 0.41194 0.59795 0.0
O514 O 0.64935 0.42073 0.57699 0.0
N515 N 0.51788 0.41473 0.59198 0.0
C516 C 0.44623 0.4107 0.55081 0.0
C517 C 0.44241 0.39967 0.57581 0.0
C518 C 0.47875 0.40186 0.59615 0.0
C519 C 0.52108 0.42608 0.5683 0.0
C520 C 0.4851 0.42475 0.54787 0.0
H521 H 0.47778 0.39175 0.61391 0.0
H522 H 0.55365 0.43523 0.56437 0.0
H523 H 0.54573 0.36532 0.62884 0.0
H524 H 0.58499 0.34963 0.54734 0.0
H525 H 0.54837 0.48804 0.62279 0.0
H526 H 0.41371 0.38833 0.5789 0.0
H527 H 0.48929 0.43394 0.5293 0.0
H528 H 0.39948 0.11502 0.9995 0.0
H529 H 0.41855 0.18061 0.99125 0.0
H530 H 0.34235 0.1204 0.03767 0.0
H531 H 0.36283 0.18616 0.03024 0.0
H532 H 0.20232 0.18385 0.0656 0.0
H533 H 0.27809 0.18408 0.03896 0.0
H534 H 0.32879 0.13048 0.08397 0.0
H535 H 0.25118 0.12998 0.10984 0.0
C536 C 0.39168 0.1306 1.00609 0.0
C537 C 0.4127 0.1474 0.99216 0.0
C538 C 0.35949 0.13373 0.02826 0.0
C539 C 0.34806 0.15375 0.03732 0.0
C540 C 0.37019 0.17054 0.02369 0.0
C541 C 0.40189 0.1674 1.00125 0.0
C542 C 0.2309 0.17282 0.07079 0.0
C543 C 0.22137 0.15704 0.08985 0.0
C544 C 0.27438 0.17282 0.05536 0.0
C545 C 0.30922 0.15696 0.05874 0.0
C546 C 0.30214 0.14261 0.08031 0.0
C547 C 0.25828 0.14256 0.09563 0.0
H548 H 0.02844 0.88638 0.02192 0.0
H549 H 0.12814 0.92469 0.97505 0.0
H550 H 0.0875 0.88555 0.06057 0.0
H551 H 0.18648 0.92431 0.01387 0.0
H552 H 0.24875 0.94026 0.09608 0.0
H553 H 0.17406 0.93848 0.06805 0.0
H554 H 0.1883 0.87251 0.0638 0.0
H555 H 0.2641 0.87437 0.09142 0.0
C556 C 0.06315 0.89451 0.01993 0.0
C557 C 0.07411 0.90557 0.99563 0.0
C558 C 0.09662 0.89407 0.04197 0.0
C559 C 0.14088 0.90513 0.04022 0.0
C560 C 0.15212 0.91591 0.01575 0.0
C561 C 0.11917 0.91598 0.99352 0.0
C562 C 0.23441 0.92528 0.09056 0.0
C563 C 0.26179 0.90742 0.0961 0.0
C564 C 0.19209 0.92431 0.07419 0.0
C565 C 0.17626 0.90541 0.06346 0.0
C566 C 0.19994 0.88724 0.07193 0.0
C567 C 0.24279 0.88827 0.08807 0.0
H568 H 0.70981 0.87309 0.45141 0.0
H569 H 0.75005 0.92987 0.41127 0.0
H570 H 0.78687 0.8732 0.47687 0.0
H571 H 0.82848 0.92992 0.43622 0.0
H572 H 0.89334 0.94306 0.5237 0.0
H573 H 0.83936 0.93817 0.48395 0.0
H574 H 0.8729 0.87312 0.48443 0.0
H575 H 0.92568 0.87807 0.52479 0.0
C576 C 0.73677 0.88491 0.44674 0.0
C577 C 0.72426 0.90141 0.42941 0.0
C578 C 0.78096 0.88511 0.46153 0.0
C579 C 0.8134 0.90191 0.45923 0.0
C580 C 0.80367 0.91704 0.43902 0.0
C581 C 0.75921 0.91683 0.42428 0.0
C582 C 0.88932 0.92776 0.51516 0.0
C583 C 0.91279 0.91089 0.52765 0.0
C584 C 0.8589 0.92495 0.49212 0.0
C585 C 0.85175 0.90521 0.48084 0.0
C586 C 0.87695 0.88847 0.49276 0.0
C587 C 0.90692 0.89127 0.51599 0.0
H588 H 0.76441 0.10918 0.43609 0.0
H589 H 0.7476 0.17433 0.4227 0.0
H590 H 0.68693 0.10811 0.46053 0.0
H591 H 0.66754 0.17336 0.44611 0.0
H592 H 0.59229 0.17044 0.53154 0.0
H593 H 0.64938 0.17154 0.49308 0.0
H594 H 0.6045 0.1103 0.46908 0.0
H595 H 0.55184 0.10827 0.50936 0.0
C596 C 0.74234 0.12308 0.43692 0.0
C597 C 0.76167 0.14181 0.42754 0.0
C598 C 0.6977 0.12254 0.45114 0.0
C599 C 0.67122 0.14079 0.45612 0.0
C600 C 0.68767 0.15912 0.44345 0.0
C601 C 0.73291 0.15965 0.42943 0.0
C602 C 0.59524 0.15701 0.51847 0.0
C603 C 0.5678 0.13912 0.52412 0.0
C604 C 0.62716 0.15786 0.49578 0.0
C605 C 0.63183 0.14101 0.47771 0.0
C606 C 0.60274 0.12349 0.48268 0.0
C607 C 0.57186 0.12242 0.50576 0.0
H608 H 0.7324 0.93269 0.90906 0.0
H609 H 0.76864 0.87347 0.94351 0.0
H610 H 0.65452 0.93267 0.93448 0.0
H611 H 0.69219 0.87347 0.9696 0.0
H612 H 0.55488 0.8788 0.01955 0.0
H613 H 0.60647 0.87461 0.97855 0.0
H614 H 0.64663 0.93889 0.98286 0.0
H615 H 0.59401 0.94306 0.02328 0.0
C616 C 0.7224 0.9192 0.92094 0.0
C617 C 0.75626 0.90312 0.92445 0.0
C618 C 0.67829 0.91932 0.93595 0.0
C619 C 0.66787 0.90342 0.95491 0.0
C620 C 0.6988 0.88602 0.95532 0.0
C621 C 0.7426 0.88589 0.94013 0.0
C622 C 0.57486 0.892 0.01168 0.0
C623 C 0.57112 0.91119 0.02484 0.0
C624 C 0.60415 0.88964 0.98808 0.0
C625 C 0.63071 0.90639 0.97725 0.0
C626 C 0.6259 0.92571 0.99014 0.0
C627 C 0.59624 0.9281 0.01355 0.0
H628 H 0.71535 0.17827 0.94178 0.0
H629 H 0.75247 0.11685 0.91591 0.0
H630 H 0.78926 0.17928 0.97067 0.0
H631 H 0.82648 0.11771 0.94477 0.0
H632 H 0.96283 0.13037 1.00045 0.0
H633 H 0.90862 0.1348 0.96047 0.0
H634 H 0.79276 0.15647 0.01428 0.0
H635 H 0.84573 0.15129 0.05433 0.0
C636 C 0.74104 0.1655 0.94092 0.0
C637 C 0.72861 0.14752 0.92658 0.0
C638 C 0.78282 0.16592 0.95782 0.0
C639 C 0.81278 0.14838 0.96045 0.0
C640 C 0.80395 0.13143 0.94316 0.0
C641 C 0.76187 0.13098 0.92642 0.0
C642 C 0.92553 0.13575 1.00388 0.0
C643 C 0.90867 0.14038 0.03077 0.0
C644 C 0.89482 0.13854 0.98089 0.0
C645 C 0.84696 0.14637 0.98423 0.0
C646 C 0.83003 0.15094 1.01101 0.0
C647 C 0.86035 0.14788 0.034 0.0
H648 H 0.01943 0.15233 0.5299 0.0
H649 H 0.13858 0.15993 0.47115 0.0
H650 H 0.07742 0.15697 0.56795 0.0
H651 H 0.19562 0.16567 0.50933 0.0
H652 H 0.28564 0.18613 0.57896 0.0
H653 H 0.21109 0.1909 0.55119 0.0
H654 H 0.1537 0.13346 0.58239 0.0
H655 H 0.2288 0.12857 0.60967 0.0
C656 C 0.05786 0.15501 0.52498 0.0
C657 C 0.07437 0.15533 0.49727 0.0
C658 C 0.09082 0.15794 0.54686 0.0
C659 C 0.14075 0.16181 0.54155 0.0
C660 C 0.15702 0.16305 0.51396 0.0
C661 C 0.12429 0.15973 0.49207 0.0
C662 C 0.25568 0.17521 0.5812 0.0
C663 C 0.2624 0.15715 0.59668 0.0
C664 C 0.21346 0.17777 0.56498 0.0
C665 C 0.17719 0.16238 0.56435 0.0
C666 C 0.18108 0.14559 0.58261 0.0
C667 C 0.22373 0.1429 0.59851 0.0
H668 H 0.24712 0.93438 0.60848 0.0
H669 H 0.20626 0.87432 0.57884 0.0
H670 H 0.32284 0.933 0.58101 0.0
H671 H 0.28161 0.87293 0.55114 0.0
H672 H 0.34655 0.90346 0.47037 0.0
H673 H 0.29022 0.89778 0.50881 0.0
H674 H 0.40509 0.91362 0.56673 0.0
H675 H 0.46273 0.91833 0.5284 0.0
C676 C 0.25594 0.92035 0.59749 0.0
C677 C 0.22143 0.90432 0.59602 0.0
C678 C 0.29897 0.91965 0.5815 0.0
C679 C 0.30741 0.90303 0.56357 0.0
C680 C 0.27562 0.886 0.56461 0.0
C681 C 0.23299 0.88663 0.58081 0.0
C682 C 0.36034 0.90539 0.49124 0.0
C683 C 0.40938 0.91143 0.49608 0.0
C684 C 0.32799 0.90209 0.51329 0.0
C685 C 0.34357 0.90501 0.54073 0.0
C686 C 0.39228 0.91122 0.54575 0.0
C687 C 0.425 0.91417 0.52369 0.0
H688 H 0.71806 0.68259 0.07984 0.0
H689 H 0.75336 0.62162 0.10865 0.0
H690 H 0.79288 0.68288 0.05173 0.0
H691 H 0.82813 0.62169 0.08042 0.0
H692 H 0.96522 0.63221 0.02463 0.0
H693 H 0.91071 0.63771 0.06423 0.0
H694 H 0.79676 0.65964 1.00916 0.0
H695 H 0.85001 0.65346 0.96957 0.0
C696 C 0.74348 0.66977 0.0815 0.0
C697 C 0.73021 0.65208 0.09637 0.0
C698 C 0.78581 0.66977 0.06503 0.0
C699 C 0.81546 0.65208 0.06334 0.0
C700 C 0.80585 0.63551 0.08126 0.0
C701 C 0.76327 0.63551 0.09763 0.0
C702 C 0.92828 0.63791 0.02087 0.0
C703 C 0.91203 0.64232 0.99376 0.0
C704 C 0.89739 0.6413 0.04364 0.0
C705 C 0.84998 0.64949 0.03981 0.0
C706 C 0.8337 0.65385 0.0128 0.0
C707 C 0.86419 0.65021 0.99007 0.0
H708 H 0.78138 0.37755 0.08033 0.0
H709 H 0.73998 0.43831 0.10696 0.0
H710 H 0.70613 0.37539 0.05263 0.0
H711 H 0.66468 0.4363 0.07933 0.0
H712 H 0.52766 0.42224 0.02527 0.0
H713 H 0.58341 0.41803 0.06466 0.0
H714 H 0.699 0.39833 1.0093 0.0
H715 H 0.64449 0.4033 0.96989 0.0
C716 C 0.75458 0.3899 0.08163 0.0
C717 C 0.76603 0.40805 0.09581 0.0
C718 C 0.71199 0.38882 0.06544 0.0
C719 C 0.68032 0.40588 0.06338 0.0
C720 C 0.68849 0.42294 0.08054 0.0
C721 C 0.73136 0.42405 0.09655 0.0
C722 C 0.56518 0.4173 0.0214 0.0
C723 C 0.58158 0.4132 0.99427 0.0
C724 C 0.59678 0.41463 0.04404 0.0
C725 C 0.64507 0.40745 0.04006 0.0
C726 C 0.66145 0.40333 0.01304 0.0
C727 C 0.63023 0.40628 0.99043 0.0
H728 H 0.20815 0.37139 0.44412 0.0
H729 H 0.25584 0.4306 0.41417 0.0
H730 H 0.28321 0.36847 0.47184 0.0
H731 H 0.33142 0.42762 0.44154 0.0
H732 H 0.46787 0.41086 0.49516 0.0
H733 H 0.41145 0.40566 0.45647 0.0
H734 H 0.29244 0.39456 0.51383 0.0
H735 H 0.34768 0.40088 0.55262 0.0
C736 C 0.23629 0.38314 0.44205 0.0
C737 C 0.22672 0.40112 0.42691 0.0
C738 C 0.2788 0.38161 0.45821 0.0
C739 C 0.31242 0.39799 0.45914 0.0
C740 C 0.30603 0.41476 0.44109 0.0
C741 C 0.2631 0.41639 0.42518 0.0
C742 C 0.42954 0.4076 0.49966 0.0
C743 C 0.41227 0.40662 0.52719 0.0
C744 C 0.39754 0.40434 0.47742 0.0
C745 C 0.34796 0.39948 0.48223 0.0
C746 C 0.33088 0.39789 0.50962 0.0
C747 C 0.36257 0.40154 0.53185 0.0
H748 H 0.25463 0.67295 0.42296 0.0
H749 H 0.27094 0.60833 0.44055 0.0
H750 H 0.17479 0.67295 0.44693 0.0
H751 H 0.19315 0.60812 0.46471 0.0
H752 H 0.05386 0.60935 0.50917 0.0
H753 H 0.10871 0.611 0.46976 0.0
H754 H 0.15655 0.67151 0.49508 0.0
H755 H 0.09779 0.67074 0.53304 0.0
C756 C 0.23983 0.65856 0.43067 0.0
C757 C 0.26822 0.64056 0.42965 0.0
C758 C 0.19472 0.65859 0.4449 0.0
C759 C 0.17782 0.64062 0.45829 0.0
C760 C 0.20425 0.62223 0.45453 0.0
C761 C 0.24894 0.62225 0.44044 0.0
C762 C 0.07506 0.62327 0.50606 0.0
C763 C 0.07139 0.63986 0.52461 0.0
C764 C 0.10704 0.62412 0.48349 0.0
C765 C 0.13749 0.64132 0.4792 0.0
C766 C 0.13324 0.6581 0.49739 0.0
C767 C 0.10035 0.65744 0.51969 0.0
H768 H 0.24117 0.4282 0.91407 0.0
H769 H 0.28557 0.37 0.94893 0.0
H770 H 0.16527 0.4272 0.94152 0.0
H771 H 0.2102 0.36903 0.97659 0.0
H772 H 0.14454 0.40364 0.05454 0.0
H773 H 0.20101 0.39658 0.01657 0.0
H774 H 0.08385 0.40658 0.95763 0.0
H775 H 0.02617 0.41254 0.99555 0.0
C776 C 0.23309 0.41457 0.9262 0.0
C777 C 0.26865 0.39904 0.9292 0.0
C778 C 0.19001 0.41411 0.94218 0.0
C779 C 0.1826 0.39823 0.96153 0.0
C780 C 0.2154 0.38152 0.96199 0.0
C781 C 0.25806 0.3819 0.94584 0.0
C782 C 0.13031 0.40395 0.0336 0.0
C783 C 0.08064 0.40882 0.02832 0.0
C784 C 0.16273 0.39989 0.01183 0.0
C785 C 0.14653 0.40086 0.98423 0.0
C786 C 0.09713 0.40574 0.97875 0.0
C787 C 0.06437 0.40941 1.00056 0.0
H788 H 0.2558 0.62502 0.91608 0.0
H789 H 0.20199 0.68285 0.94735 0.0
H790 H 0.33132 0.62899 0.94344 0.0
H791 H 0.27677 0.68667 0.97513 0.0
H792 H 0.35061 0.65522 0.05451 0.0
H793 H 0.29193 0.65999 0.01683 0.0
H794 H 0.40917 0.65355 0.95715 0.0
H795 H 0.46879 0.65003 0.99466 0.0
C796 C 0.2616 0.63917 0.92743 0.0
C797 C 0.22377 0.65381 0.92933 0.0
C798 C 0.30443 0.64133 0.94336 0.0
C799 C 0.30924 0.65798 0.96167 0.0
C800 C 0.27367 0.67366 0.96128 0.0
C801 C 0.23133 0.67163 0.94508 0.0
C802 C 0.36432 0.65527 0.03347 0.0
C803 C 0.41461 0.65198 0.02784 0.0
C804 C 0.33062 0.65799 0.01187 0.0
C805 C 0.34624 0.6572 0.98415 0.0
C806 C 0.39632 0.65416 0.97837 0.0
C807 C 0.43024 0.65187 0.99996 0.0
H808 H 0.52345 0.65072 0.52686 0.0
H809 H 0.64446 0.65897 0.46951 0.0
H810 H 0.57996 0.6552 0.5656 0.0
H811 H 0.7002 0.66451 0.50847 0.0
H812 H 0.78733 0.68379 0.58061 0.0
H813 H 0.71444 0.68908 0.55162 0.0
H814 H 0.65526 0.63114 0.57993 0.0
H815 H 0.72887 0.62567 0.60825 0.0
C816 C 0.56201 0.65352 0.52241 0.0
C817 C 0.57954 0.65396 0.4949 0.0
C818 C 0.59411 0.65637 0.54468 0.0
C819 C 0.64422 0.66027 0.54 0.0
C820 C 0.66145 0.66181 0.51261 0.0
C821 C 0.62951 0.65859 0.49029 0.0
C822 C 0.75731 0.67283 0.58193 0.0
C823 C 0.76318 0.65446 0.59687 0.0
C824 C 0.71605 0.67569 0.56499 0.0
C825 C 0.67978 0.66035 0.56325 0.0
C826 C 0.68266 0.64323 0.581 0.0
C827 C 0.72442 0.64021 0.59751 0.0
H828 H 0.96706 0.4122 0.52737 0.0
H829 H 0.84925 0.40346 0.46806 0.0
H830 H 0.90801 0.40855 0.56513 0.0
H831 H 0.79128 0.39861 0.50603 0.0
H832 H 0.7039 0.37616 0.57711 0.0
H833 H 0.77842 0.37284 0.54893 0.0
H834 H 0.82842 0.43196 0.57795 0.0
H835 H 0.75317 0.43543 0.60558 0.0
C836 C 0.92871 0.40957 0.52224 0.0
C837 C 0.91301 0.40845 0.49442 0.0
C838 C 0.89514 0.40719 0.54398 0.0
C839 C 0.8454 0.40309 0.53845 0.0
C840 C 0.82975 0.40139 0.51082 0.0
C841 C 0.86305 0.40418 0.48906 0.0
C842 C 0.73222 0.38786 0.57869 0.0
C843 C 0.72343 0.4059 0.59377 0.0
C844 C 0.7744 0.38611 0.56226 0.0
C845 C 0.80862 0.40228 0.56104 0.0
C846 C 0.80263 0.41925 0.57866 0.0
C847 C 0.75993 0.42115 0.59472 0.0
H848 H 0.18891 0.0782 0.08456 0.0
H849 H 0.14838 0.06049 0.16763 0.0
H850 H 0.24955 0.05024 0.08322 0.0
H851 H 0.20875 0.03259 0.16629 0.0
H852 H 0.36028 1.00032 0.16409 0.0
H853 H 0.30159 0.02886 0.16438 0.0
H854 H 0.24956 1.01094 0.08354 0.0
H855 H 0.3085 0.98237 0.08322 0.0
C856 C 0.19308 0.0684 0.10256 0.0
C857 C 0.16373 0.07156 0.12619 0.0
C858 C 0.22753 0.0523 0.10171 0.0
C859 C 0.234 0.0392 0.12466 0.0
C860 C 0.20493 0.04249 0.14835 0.0
C861 C 0.17002 0.05837 0.14903 0.0
C862 C 0.33669 1.00257 0.14627 0.0
C863 C 0.33916 0.98905 0.12362 0.0
C864 C 0.30274 1.01882 0.14654 0.0
C865 C 0.27083 1.02215 0.12401 0.0
C866 C 0.27383 1.00886 0.10114 0.0
C867 C 0.30732 0.99241 0.10105 0.0
H868 H 0.72245 0.96623 0.38964 0.0
H869 H 0.60957 1.01139 0.40672 0.0
H870 H 0.78443 0.99335 0.38884 0.0
H871 H 0.67145 0.03845 0.40581 0.0
H872 H 0.78696 0.0847 0.3772 0.0
H873 H 0.72634 0.05715 0.37537 0.0
H874 H 0.82655 1.01708 0.41935 0.0
H875 H 0.88714 0.04462 0.42133 0.0
C876 C 0.71073 0.98188 0.3934 0.0
C877 C 0.66068 0.98647 0.3983 0.0
C878 C 0.74641 0.99749 0.39292 0.0
C879 C 0.73313 1.01817 0.39724 0.0
C880 C 0.68308 1.02278 0.40192 0.0
C881 C 0.64742 1.00718 0.40246 0.0
C882 C 0.7962 0.07008 0.3866 0.0
C883 C 0.84225 0.06709 0.39954 0.0
C884 C 0.76125 0.05422 0.38555 0.0
C885 C 0.77126 0.03484 0.39733 0.0
C886 C 0.81765 0.03168 0.40973 0.0
C887 C 0.85259 0.04756 0.41084 0.0
H888 H 0.60565 0.04522 0.87276 0.0
H889 H 0.71531 0.08376 0.91126 0.0
H890 H 0.66551 1.01713 0.87034 0.0
H891 H 0.77492 0.05591 0.90894 0.0
H892 H 0.88454 1.00734 0.88309 0.0
H893 H 0.82487 0.03531 0.87872 0.0
H894 H 0.70744 0.99351 0.90091 0.0
H895 H 0.76713 0.96569 0.9051 0.0
C896 C 0.64255 0.04774 0.88062 0.0
C897 C 0.65569 0.06685 0.89201 0.0
C898 C 0.67689 0.03162 0.87929 0.0
C899 C 0.72524 0.0342 0.88939 0.0
C900 C 0.73846 0.05343 0.90041 0.0
C901 C 0.7042 0.06949 0.90171 0.0
C902 C 0.84595 1.00412 0.88688 0.0
C903 C 0.83068 0.98422 0.89443 0.0
C904 C 0.81169 1.02017 0.88445 0.0
C905 C 0.76121 1.01676 0.88961 0.0
C906 C 0.74581 0.9967 0.89636 0.0
C907 C 0.78008 0.98067 0.89872 0.0
H908 H 0.21408 0.96889 0.63273 0.0
H909 H 0.09196 1.01177 0.6337 0.0
H910 H 0.27144 0.99735 0.63334 0.0
H911 H 0.14957 0.04015 0.63612 0.0
H912 H 0.26626 0.08681 0.60744 0.0
H913 H 0.2063 0.05893 0.60918 0.0
H914 H 0.30588 1.02355 0.66053 0.0
H915 H 0.36621 0.05127 0.65798 0.0
C916 C 0.1991 0.98428 0.63316 0.0
C917 C 0.14775 0.98772 0.63287 0.0
C918 C 0.23234 1.00074 0.63394 0.0
C919 C 0.21544 1.02121 0.63479 0.0
C920 C 0.1642 1.02468 0.63504 0.0
C921 C 0.13091 1.00823 0.634 0.0
C922 C 0.27501 0.0732 0.6194 0.0
C923 C 0.32111 0.07124 0.63249 0.0
C924 C 0.24057 0.05715 0.62045 0.0
C925 C 0.25112 0.03879 0.63485 0.0
C926 C 0.29671 0.03717 0.64868 0.0
C927 C 0.3313 0.05312 0.64737 0.0
H928 H 0.77523 0.47095 0.11523 0.0
H929 H 0.88617 0.5116 0.14833 0.0
H930 H 0.71455 0.49841 0.11754 0.0
H931 H 0.82534 0.53929 0.15048 0.0
H932 H 0.72031 0.58853 0.11372 0.0
H933 H 0.78048 0.56099 0.11794 0.0
H934 H 0.66663 0.52033 0.14825 0.0
H935 H 0.60632 0.54812 0.14421 0.0
C936 C 0.78652 0.48559 0.12358 0.0
C937 C 0.83575 0.48894 0.13166 0.0
C938 C 0.75162 0.50143 0.12484 0.0
C939 C 0.76495 0.52113 0.13414 0.0
C940 C 0.8139 0.5244 0.14283 0.0
C941 C 0.84882 0.50851 0.14162 0.0
C942 C 0.70821 0.57392 0.12189 0.0
C943 C 0.65837 0.57068 0.12875 0.0
C944 C 0.7428 0.55803 0.12425 0.0
C945 C 0.72854 0.53838 0.13345 0.0
C946 C 0.67884 0.53519 0.14075 0.0
C947 C 0.64422 0.55113 0.13845 0.0
H948 H 0.39645 0.54336 0.38459 0.0
H949 H 0.27841 0.58635 0.4009 0.0
H950 H 0.33656 0.51553 0.38201 0.0
H951 H 0.21908 0.55863 0.39882 0.0
H952 H 0.11642 0.50731 0.3732 0.0
H953 H 0.17779 0.53462 0.37007 0.0
H954 H 0.28397 0.49555 0.41132 0.0
H955 H 0.22274 0.46824 0.41409 0.0
C956 C 0.35791 0.54697 0.38774 0.0
C957 C 0.34283 0.56729 0.39328 0.0
C958 C 0.32342 0.53092 0.38631 0.0
C959 C 0.27276 0.53468 0.39039 0.0
C960 C 0.25756 0.55506 0.39519 0.0
C961 C 0.29196 0.57109 0.3965 0.0
C962 C 0.15287 0.50454 0.38157 0.0
C963 C 0.16445 0.48553 0.39392 0.0
C964 C 0.18815 0.52025 0.37984 0.0
C965 C 0.23603 0.51745 0.39057 0.0
C966 C 0.24787 0.49825 0.40243 0.0
C967 C 0.21263 0.48252 0.40403 0.0
H968 H 0.35178 0.4963 0.85644 0.0
H969 H 0.30199 0.47713 0.93728 0.0
H970 H 0.29173 0.52444 0.85673 0.0
H971 H 0.24212 0.50545 0.93771 0.0
H972 H 0.18701 0.57428 0.93745 0.0
H973 H 0.2462 0.54572 0.93781 0.0
H974 H 0.19612 0.52734 0.85679 0.0
H975 H 0.13669 0.55573 0.85658 0.0
C976 C 0.32816 0.49818 0.87432 0.0
C977 C 0.33164 0.48451 0.89684 0.0
C978 C 0.29357 0.51419 0.87442 0.0
C979 C 0.26225 0.51715 0.89725 0.0
C980 C 0.26596 0.5036 0.91989 0.0
C981 C 0.29994 0.48732 0.91957 0.0
C982 C 0.18876 0.56415 0.91973 0.0
C983 C 0.15719 0.56724 0.89699 0.0
C984 C 0.22235 0.54773 0.92002 0.0
C985 C 0.22579 0.5343 0.89732 0.0
C986 C 0.19446 0.53749 0.87452 0.0
C987 C 0.16025 0.55365 0.87447 0.0
H988 H 0.87792 0.54731 0.65045 0.0
H989 H 0.765 0.58789 0.61873 0.0
H990 H 0.81782 0.51955 0.65369 0.0
H991 H 0.70484 0.56015 0.622 0.0
H992 H 0.59948 0.50945 0.64972 0.0
H993 H 0.65864 0.53761 0.65297 0.0
H994 H 0.77318 0.49773 0.62173 0.0
H995 H 0.71422 0.46972 0.61836 0.0
C996 C 0.84025 0.55035 0.64423 0.0
C997 C 0.82655 0.56986 0.63414 0.0
C998 C 0.80574 0.5344 0.64605 0.0
C999 C 0.75649 0.5375 0.63787 0.0
C1000 C 0.7423 0.55723 0.62876 0.0
C1001 C 0.77687 0.5732 0.62692 0.0
C1002 C 0.63728 0.50666 0.64357 0.0
C1003 C 0.65184 0.48722 0.63373 0.0
C1004 C 0.67124 0.52285 0.64541 0.0
C1005 C 0.72075 0.52001 0.63756 0.0
C1006 C 0.73558 0.50043 0.62838 0.0
C1007 C 0.70164 0.48428 0.62649 0.0
H1008 H 0.97588 0.32965 0.05205 0.0
H1009 H 0.93658 0.32902 0.13859 0.0
H1010 H 0.00459 0.29441 0.05552 0.0
H1011 H 0.96587 0.29318 0.14216 0.0
H1012 H 0.07143 0.23314 0.13266 0.0
H1013 H 0.04385 0.26921 0.13657 0.0
H1014 H 0.95705 0.26194 0.06232 0.0
H1015 H 0.9842 0.2265 0.05854 0.0
C1016 C 0.9732 0.32193 0.07187 0.0
C1017 C 0.95277 0.33198 0.09488 0.0
C1018 C 0.98981 0.30171 0.07387 0.0
C1019 C 0.98651 0.29084 0.09896 0.0
C1020 C 0.96869 0.30116 0.12252 0.0
C1021 C 0.95194 0.32161 0.12049 0.0
C1022 C 0.04596 0.23929 0.11749 0.0
C1023 C 0.03095 0.22717 0.09491 0.0
C1024 C 0.03019 0.25987 0.1197 0.0
C1025 C -0.00082 0.26854 0.09938 0.0
C1026 C 0.98202 0.25593 0.07788 0.0
C1027 C -0.00233 0.2356 0.07568 0.0
H1028 H 0.38023 0.81288 0.08184 0.0
H1029 H 0.49821 0.83912 0.13004 0.0
H1030 H 0.41547 0.77854 0.08846 0.0
H1031 H 0.53404 0.80474 0.13645 0.0
H1032 H 0.61162 0.74667 0.09463 0.0
H1033 H 0.57313 0.78048 0.09996 0.0
H1034 H 0.43776 0.75138 0.12607 0.0
H1035 H 0.47683 0.71748 0.12106 0.0
C1036 C 0.41329 0.8112 0.09423 0.0
C1037 C 0.43652 0.82861 0.1054 0.0
C1038 C 0.43331 0.79157 0.09816 0.0
C1039 C 0.47756 0.78897 0.11292 0.0
C1040 C 0.49994 0.80631 0.12493 0.0
C1041 C 0.47932 0.82593 0.12144 0.0
C1042 C 0.57394 0.74756 0.10197 0.0
C1043 C 0.54716 0.72952 0.10741 0.0
C1044 C 0.55199 0.76688 0.10518 0.0
C1045 C 0.50242 0.76857 0.1134 0.0
C1046 C 0.476 0.75052 0.11966 0.0
C1047 C 0.49836 0.73117 0.11698 0.0
H1048 H 0.55959 0.82607 0.38402 0.0
H1049 H 0.4978 0.82768 0.46628 0.0
H1050 H 0.52354 0.79166 0.37711 0.0
H1051 H 0.46331 0.79373 0.45982 0.0
H1052 H 0.36948 0.74148 0.43714 0.0
H1053 H 0.39904 0.77676 0.43385 0.0
H1054 H 0.5333 0.7553 0.39535 0.0
H1055 H 0.50275 0.71977 0.39825 0.0
C1056 C 0.53818 0.81914 0.4005 0.0
C1057 C 0.53198 0.82953 0.42578 0.0
C1058 C 0.51787 0.79942 0.39665 0.0
C1059 C 0.49027 0.78994 0.41786 0.0
C1060 C 0.48364 0.8006 0.44285 0.0
C1061 C 0.50406 0.82004 0.44672 0.0
C1062 C 0.40499 0.74434 0.42761 0.0
C1063 C 0.43409 0.72787 0.41832 0.0
C1064 C 0.42206 0.76454 0.42578 0.0
C1065 C 0.46905 0.76887 0.41488 0.0
C1066 C 0.49691 0.75253 0.40382 0.0
C1067 C 0.4795 0.73219 0.40547 0.0
H1068 H 0.97982 0.33893 0.39555 0.0
H1069 H 0.10533 0.31135 0.43603 0.0
H1070 H 0.94318 0.30471 0.38933 0.0
H1071 H 0.06923 0.27725 0.42973 0.0
H1072 H 0.0051 0.21695 0.39906 0.0
H1073 H 0.04245 0.25108 0.39354 0.0
H1074 H 0.90914 0.27909 0.42467 0.0
H1075 H 0.87217 0.24504 0.43024 0.0
C1076 C 1e-05 0.32551 0.40253 0.0
C1077 C 0.04528 0.32775 0.41637 0.0
C1078 C 0.97897 0.30596 0.39916 0.0
C1079 C 0.00329 0.28828 0.40909 0.0
C1080 C 0.04975 0.29052 0.42164 0.0
C1081 C 0.07029 0.31003 0.42542 0.0
C1082 C 0.98351 0.23045 0.40411 0.0
C1083 C 0.93581 0.22837 0.41518 0.0
C1084 C 0.00495 0.24996 0.40116 0.0
C1085 C 0.97877 0.26778 0.40874 0.0
C1086 C 0.93013 0.2657 0.41842 0.0
C1087 C 0.90907 0.24622 0.4218 0.0
H1088 H 0.95092 0.82697 0.87956 0.0
H1089 H 0.96095 0.82188 0.96842 0.0
H1090 H 0.99247 0.79342 0.87493 0.0
H1091 H 0.00123 0.78875 0.96398 0.0
H1092 H 0.10897 0.73904 0.9519 0.0
H1093 H 0.07991 0.77439 0.94801 0.0
H1094 H 0.97403 0.75572 0.88621 0.0
H1095 H 0.00385 0.72013 0.89001 0.0
C1096 C 0.96229 0.81876 0.89801 0.0
C1097 C 0.95233 0.82696 0.92435 0.0
C1098 C 0.98571 0.79955 0.8954 0.0
C1099 C 0.00039 0.78846 0.91908 0.0
C1100 C 0.9911 0.79696 0.94528 0.0
C1101 C 0.96741 0.81588 0.94786 0.0
C1102 C 0.07999 0.74254 0.93719 0.0
C1103 C 0.05815 0.7268 0.92159 0.0
C1104 C 0.06327 0.76277 0.93498 0.0
C1105 C 0.02397 0.7678 0.91721 0.0
C1106 C 0.00442 0.75234 0.90006 0.0
C1107 C 0.02146 0.73199 0.90221 0.0
H1108 H 0.62266 0.24006 0.938 0.0
H1109 H 0.49049 0.21836 0.89802 0.0
H1110 H 0.59262 0.27531 0.93494 0.0
H1111 H 0.45933 0.25383 0.89545 0.0
H1112 H 0.43184 0.32441 0.88474 0.0
H1113 H 0.46822 0.29008 0.87782 0.0
H1114 H 0.52817 0.29213 0.9606 0.0
H1115 H 0.49366 0.32605 0.96704 0.0
C1116 C 0.58729 0.24293 0.9283 0.0
C1117 C 0.55862 0.2265 0.9186 0.0
C1118 C 0.56993 0.2631 0.92662 0.0
C1119 C 0.52303 0.26738 0.91551 0.0
C1120 C 0.49563 0.25108 0.90409 0.0
C1121 C 0.51338 0.23079 0.90555 0.0
C1122 C 0.4532 0.3175 0.90126 0.0
C1123 C 0.45938 0.3279 0.92653 0.0
C1124 C 0.47373 0.29783 0.89739 0.0
C1125 C 0.50142 0.28838 0.91859 0.0
C1126 C 0.50782 0.29899 0.94363 0.0
C1127 C 0.48727 0.31841 0.9475 0.0
H1128 H 0.42808 0.23108 0.63521 0.0
H1129 H 0.49302 0.22545 0.55414 0.0
H1130 H 0.45845 0.26674 0.63812 0.0
H1131 H 0.52385 0.26042 0.55705 0.0
H1132 H 0.5127 0.32861 0.55137 0.0
H1133 H 0.4835 0.29346 0.5546 0.0
H1134 H 0.5325 0.29031 0.63958 0.0
H1135 H 0.56152 0.32614 0.63627 0.0
C1136 C 0.44949 0.23736 0.61827 0.0
C1137 C 0.45734 0.22569 0.59421 0.0
C1138 C 0.46687 0.25773 0.6199 0.0
C1139 C 0.49257 0.26663 0.59752 0.0
C1140 C 0.50285 0.25435 0.57431 0.0
C1141 C 0.48531 0.23426 0.57263 0.0
C1142 C 0.51751 0.32045 0.57074 0.0
C1143 C 0.54041 0.33001 0.59337 0.0
C1144 C 0.50079 0.30023 0.57261 0.0
C1145 C 0.50673 0.28882 0.59714 0.0
C1146 C 0.52753 0.29864 0.62034 0.0
C1147 C 0.54416 0.31911 0.61848 0.0
H1148 H 0.98118 0.72692 0.55178 0.0
H1149 H 0.93623 0.72873 0.63735 0.0
H1150 H 0.0116 0.76191 0.55505 0.0
H1151 H 0.96646 0.76437 0.64071 0.0
H1152 H 0.06923 0.82407 0.63521 0.0
H1153 H 0.04087 0.7881 0.63814 0.0
H1154 H 0.97 0.79481 0.55855 0.0
H1155 H -0.00147 0.83008 0.55564 0.0
C1156 C 0.97768 0.73488 0.57134 0.0
C1157 C 0.95537 0.72522 0.59414 0.0
C1158 C -0.00492 0.75499 0.57323 0.0
C1159 C 0.99039 0.76618 0.59795 0.0
C1160 C 0.97048 0.7562 0.62134 0.0
C1161 C 0.95317 0.73584 0.61945 0.0
C1162 C 0.04719 0.81778 0.61858 0.0
C1163 C 0.03706 0.8297 0.59491 0.0
C1164 C 0.03094 0.79724 0.62022 0.0
C1165 C 0.00417 0.7884 0.59825 0.0
C1166 C 0.99188 0.80084 0.57544 0.0
C1167 C 0.0082 0.82112 0.57376 0.0
H1168 H 0.08706 0.14013 0.19971 0.0
H1169 H 0.94974 0.17267 0.18942 0.0
H1170 H 0.07629 0.14067 0.24975 0.0
H1171 H 0.94029 0.17486 0.23944 0.0
H1172 H 0.90152 0.15048 0.32531 0.0
H1173 H 0.91701 0.15537 0.27616 0.0
H1174 H 0.07424 0.15581 0.29207 0.0
H1175 H 0.05814 0.14932 0.34084 0.0
C1176 C 0.05551 0.14812 0.20832 0.0
C1177 C 0.01928 0.15638 0.19083 0.0
C1178 C 0.04915 0.14849 0.23712 0.0
C1179 C 0.00687 0.15758 0.2491 0.0
C1180 C 0.97248 0.1671 0.23131 0.0
C1181 C 0.97821 0.16618 0.20256 0.0
C1182 C 0.93931 0.15179 0.31822 0.0
C1183 C 0.97858 0.14934 0.33683 0.0
C1184 C 0.94842 0.15477 0.28994 0.0
C1185 C -0.00287 0.15594 0.27964 0.0
C1186 C 0.03628 0.15444 0.29874 0.0
C1187 C 0.02711 0.1509 0.32686 0.0
H1188 H 0.54942 0.88867 0.18698 0.0
H1189 H 0.40396 0.9141 0.19853 0.0
H1190 H 0.55946 0.88547 0.23686 0.0
H1191 H 0.41482 0.91241 0.2485 0.0
H1192 H 0.4323 0.89972 0.33852 0.0
H1193 H 0.41997 0.89468 0.28914 0.0
H1194 H 0.57617 0.90428 0.27556 0.0
H1195 H 0.5884 0.90778 0.32529 0.0
C1196 C 0.5195 0.89354 0.20032 0.0
C1197 C 0.47591 0.90161 0.18892 0.0
C1198 C 0.52541 0.89194 0.22901 0.0
C1199 C 0.48837 0.89894 0.24716 0.0
C1200 C 0.44406 0.90649 0.23552 0.0
C1201 C 0.43772 0.90757 0.20676 0.0
C1202 C 0.46406 0.90037 0.32492 0.0
C1203 C 0.5113 0.90416 0.33569 0.0
C1204 C 0.45697 0.89773 0.29648 0.0
C1205 C 0.4968 0.89938 0.27787 0.0
C1206 C 0.54445 0.90255 0.28895 0.0
C1207 C 0.55165 0.90465 0.31755 0.0
H1208 H 0.91333 0.88577 0.83107 0.0
H1209 H 0.03846 0.92684 0.83364 0.0
H1210 H 0.92885 0.87956 0.78189 0.0
H1211 H 0.05352 0.92082 0.78474 0.0
H1212 H 0.08714 0.89894 0.69855 0.0
H1213 H 0.078 0.89598 0.74889 0.0
H1214 H 0.91979 0.90079 0.74022 0.0
H1215 H 0.92886 0.90354 0.69031 0.0
C1216 C 0.94441 0.89329 0.82127 0.0
C1217 C 0.97428 0.90697 0.83627 0.0
C1218 C 0.95323 0.88978 0.79306 0.0
C1219 C 0.99236 0.89974 0.7793 0.0
C1220 C 0.02345 0.91269 0.79467 0.0
C1221 C 0.01446 0.91629 0.82274 0.0
C1222 C 0.05042 0.89891 0.7074 0.0
C1223 C 0.00879 0.90167 0.69046 0.0
C1224 C 0.04517 0.89737 0.73624 0.0
C1225 C -0.00186 0.89831 0.74865 0.0
C1226 C 0.95649 0.89983 0.73145 0.0
C1227 C 0.96176 0.90156 0.70278 0.0
H1228 H 0.43908 0.13663 0.83258 0.0
H1229 H 0.58656 0.16128 0.82594 0.0
H1230 H 0.42674 0.14182 0.78323 0.0
H1231 H 0.57397 0.16665 0.77621 0.0
H1232 H 0.55403 0.13858 0.6874 0.0
H1233 H 0.56658 0.14271 0.73688 0.0
H1234 H 0.41884 0.16688 0.74501 0.0
H1235 H 0.40604 0.16257 0.69515 0.0
C1236 C 0.46872 0.14343 0.82064 0.0
C1237 C 0.51405 0.14832 0.83319 0.0
C1238 C 0.46142 0.14659 0.79232 0.0
C1239 C 0.49939 0.15459 0.77569 0.0
C1240 C 0.54411 0.16028 0.78841 0.0
C1241 C 0.55128 0.15729 0.8169 0.0
C1242 C 0.52437 0.14506 0.69961 0.0
C1243 C 0.4788 0.15003 0.68734 0.0
C1244 C 0.53176 0.14759 0.72802 0.0
C1245 C 0.49366 0.15501 0.74499 0.0
C1246 C 0.44878 0.16091 0.73254 0.0
C1247 C 0.44152 0.15856 0.70396 0.0
H1248 H 0.40623 0.66019 0.32666 0.0
H1249 H 0.55478 0.6367 0.33411 0.0
H1250 H 0.41841 0.66454 0.27672 0.0
H1251 H 0.56677 0.64097 0.28453 0.0
H1252 H 0.58595 0.66229 0.19602 0.0
H1253 H 0.5731 0.66614 0.24593 0.0
H1254 H 0.42766 0.63977 0.23789 0.0
H1255 H 0.4403 0.636 0.1883 0.0
C1256 C 0.44165 0.65624 0.31774 0.0
C1257 C 0.47935 0.64793 0.33434 0.0
C1258 C 0.44856 0.65864 0.28913 0.0
C1259 C 0.49353 0.65304 0.27661 0.0
C1260 C 0.53188 0.64564 0.29348 0.0
C1261 C 0.52481 0.64303 0.32193 0.0
C1262 C 0.551 0.6576 0.20487 0.0
C1263 C 0.51436 0.64866 0.1882 0.0
C1264 C 0.54371 0.65972 0.23347 0.0
C1265 C 0.4994 0.65319 0.24593 0.0
C1266 C 0.462 0.64514 0.22899 0.0
C1267 C 0.46946 0.64283 0.20054 0.0
H1268 H 0.93838 0.41972 0.33367 0.0
H1269 H 0.0853 0.3944 0.32697 0.0
H1270 H 0.9266 0.41547 0.28411 0.0
H1271 H 0.0733 0.39005 0.27707 0.0
H1272 H 0.05503 0.41998 0.189 0.0
H1273 H 0.06667 0.41519 0.2385 0.0
H1274 H 0.91915 0.39064 0.24529 0.0
H1275 H 0.90731 0.39554 0.1954 0.0
C1276 C 0.968 0.41298 0.32167 0.0
C1277 C 0.01302 0.40761 0.33426 0.0
C1278 C 0.96103 0.41038 0.29324 0.0
C1279 C -0.00096 0.40249 0.27659 0.0
C1280 C 0.04344 0.39634 0.28932 0.0
C1281 C 0.05025 0.39875 0.3179 0.0
C1282 C 0.02522 0.41329 0.20093 0.0
C1283 C 0.98003 0.40834 0.18829 0.0
C1284 C 0.03209 0.41038 0.22932 0.0
C1285 C 0.99379 0.40262 0.2459 0.0
C1286 C 0.94923 0.39683 0.23309 0.0
C1287 C 0.94252 0.39954 0.20453 0.0
H1288 H 0.55993 0.40343 0.83285 0.0
H1289 H 0.40231 0.39483 0.82655 0.0
H1290 H 0.56767 0.40051 0.78305 0.0
H1291 H 0.41024 0.3914 0.77627 0.0
H1292 H 0.44007 0.4218 0.69043 0.0
H1293 H 0.42775 0.41542 0.73939 0.0
H1294 H 0.56238 0.37983 0.74189 0.0
H1295 H 0.5754 0.38666 0.69257 0.0
C1296 C 0.52689 0.40055 0.82086 0.0
C1297 C 0.48035 0.39966 0.83371 0.0
C1298 C 0.53146 0.39867 0.7922 0.0
C1299 C 0.48959 0.39586 0.7755 0.0
C1300 C 0.44322 0.39385 0.78847 0.0
C1301 C 0.43865 0.39568 0.8173 0.0
C1302 C 0.46692 0.41242 0.70126 0.0
C1303 C 0.50916 0.40499 0.68758 0.0
C1304 C 0.45951 0.40857 0.7294 0.0
C1305 C 0.49413 0.39718 0.74474 0.0
C1306 C 0.53527 0.38891 0.73079 0.0
C1307 C 0.54268 0.39274 0.7025 0.0
H1308 H 0.09221 0.65584 0.82506 0.0
H1309 H 0.9337 0.65165 0.83237 0.0
H1310 H 0.08391 0.65909 0.77472 0.0
H1311 H 0.92551 0.65445 0.78253 0.0
H1312 H 0.91861 0.66872 0.69195 0.0
H1313 H 0.93364 0.67505 0.74114 0.0
H1314 H 0.0615 0.63541 0.73816 0.0
H1315 H 0.04718 0.62946 0.68926 0.0
C1316 C 0.05564 0.65593 0.81602 0.0
C1317 C 0.01371 0.65325 0.83274 0.0
C1318 C 0.05085 0.65765 0.78716 0.0
C1319 C 0.00401 0.65687 0.77447 0.0
C1320 C 0.96211 0.65533 0.79146 0.0
C1321 C 0.9669 0.65352 0.82014 0.0
C1322 C 0.95032 0.66162 0.70173 0.0
C1323 C 0.9813 0.64839 0.68668 0.0
C1324 C 0.95885 0.66517 0.72996 0.0
C1325 C -0.00135 0.65563 0.74375 0.0
C1326 C 0.03086 0.64321 0.72829 0.0
C1327 C 0.0223 0.63964 0.70018 0.0
loop_
_geom_bond_atom_site_label_1
_geom_bond_atom_site_label_2
_geom_bond_distance
_geom_bond_site_symmetry_2
_ccdc_geom_bond_type
C0 C1 1.351 . S
C0 N3 1.368 . S
C0 H5 0.931 . S
C1 C0 1.351 . S
C1 N2 1.373 . S
C1 H29 0.930 . S
N2 C1 1.373 . S
N2 C4 1.340 . S
N3 C0 1.368 . S
N3 C4 1.321 . S
N3 Co6 2.135 . S
C4 N2 1.340 . S
C4 N3 1.321 . S
C4 H28 0.930 . S
H5 C0 0.931 . S
Co6 N3 2.135 . S
Co6 N9 2.121 . S
Co6 O14 2.055 . S
Co6 O17 2.039 . S
Co6 N20 2.140 . S
C7 O8 1.227 . S
C7 O17 1.265 . S
O8 C7 1.227 . S
N9 Co6 2.121 . S
N9 C11 1.375 . S
N9 C12 1.313 . S
C10 C11 1.338 . S
C10 N13 1.377 . S
C10 H30 0.930 . S
C11 N9 1.375 . S
C11 C10 1.338 . S
C11 H15 0.931 . S
C12 N9 1.313 . S
C12 N13 1.344 . S
C12 H16 0.930 . S
N13 C10 1.377 . S
N13 C12 1.344 . S
O14 Co6 2.055 . S
O14 C18 1.253 . S
H15 C11 0.931 . S
H16 C12 0.930 . S
O17 Co6 2.039 . S
O17 C7 1.265 . S
C18 O14 1.253 . S
C18 O19 1.227 . S
O19 C18 1.227 . S
N20 Co6 2.140 . S
N20 C23 1.346 1_455 S
N20 C24 1.345 . S
C21 C22 1.387 . S
C21 C25 1.391 . S
C22 C21 1.387 . S
C22 C23 1.369 . S
C22 H31 0.929 . S
C23 N20 1.346 1_655 S
C23 C22 1.369 . S
C23 H26 0.928 . S
C24 N20 1.345 . S
C24 C25 1.371 1_455 S
C24 H27 0.931 . S
C25 C21 1.391 . S
C25 C24 1.371 1_655 S
C25 H32 0.930 . S
H26 C23 0.928 . S
H27 C24 0.931 . S
H28 C4 0.930 . S
H29 C1 0.930 . S
H30 C10 0.930 . S
H31 C22 0.929 . S
H32 C25 0.930 . S
C33 C34 1.351 . S
C33 N36 1.368 . S
C33 H38 0.931 . S
C34 C33 1.351 . S
C34 N35 1.373 . S
C34 H62 0.930 . S
N35 C34 1.373 . S
N35 C37 1.340 . S
N36 C33 1.368 . S
N36 C37 1.321 . S
N36 Co39 2.135 . S
C37 N35 1.340 . S
C37 N36 1.321 . S
C37 H61 0.930 . S
H38 C33 0.931 . S
Co39 N36 2.135 . S
Co39 N42 2.121 . S
Co39 O47 2.055 . S
Co39 O50 2.039 . S
Co39 N53 2.140 . S
C40 O41 1.227 . S
C40 O50 1.265 . S
O41 C40 1.227 . S
N42 Co39 2.121 . S
N42 C44 1.375 . S
N42 C45 1.313 . S
C43 C44 1.338 . S
C43 N46 1.377 . S
C43 H63 0.930 . S
C44 N42 1.375 . S
C44 C43 1.338 . S
C44 H48 0.931 . S
C45 N42 1.313 . S
C45 N46 1.344 . S
C45 H49 0.930 . S
N46 C43 1.377 . S
N46 C45 1.344 . S
O47 Co39 2.055 . S
O47 C51 1.253 . S
H48 C44 0.931 . S
H49 C45 0.930 . S
O50 Co39 2.039 . S
O50 C40 1.265 . S
C51 O47 1.253 . S
C51 O52 1.227 . S
O52 C51 1.227 . S
N53 Co39 2.140 . S
N53 C56 1.346 . S
N53 C57 1.345 . S
C54 C55 1.387 . S
C54 C58 1.391 . S
C55 C54 1.387 . S
C55 C56 1.369 . S
C55 H64 0.929 . S
C56 N53 1.346 . S
C56 C55 1.369 . S
C56 H59 0.928 . S
C57 N53 1.345 . S
C57 C58 1.371 . S
C57 H60 0.931 . S
C58 C54 1.391 . S
C58 C57 1.371 . S
C58 H65 0.930 . S
H59 C56 0.928 . S
H60 C57 0.931 . S
H61 C37 0.930 . S
H62 C34 0.930 . S
H63 C43 0.930 . S
H64 C55 0.929 . S
H65 C58 0.930 . S
C66 C67 1.351 . S
C66 N69 1.368 . S
C66 H71 0.931 . S
C67 C66 1.351 . S
C67 N68 1.373 . S
C67 H95 0.930 . S
N68 C67 1.373 . S
N68 C70 1.340 . S
N69 C66 1.368 . S
N69 C70 1.321 . S
N69 Co72 2.135 . S
C70 N68 1.340 . S
C70 N69 1.321 . S
C70 H94 0.930 . S
H71 C66 0.931 . S
Co72 N69 2.135 . S
Co72 N75 2.121 . S
Co72 O80 2.055 . S
Co72 O83 2.039 . S
Co72 N86 2.140 . S
C73 O74 1.227 . S
C73 O83 1.265 . S
O74 C73 1.227 . S
N75 Co72 2.121 . S
N75 C77 1.375 . S
N75 C78 1.313 . S
C76 C77 1.338 . S
C76 N79 1.377 . S
C76 H96 0.930 . S
C77 N75 1.375 . S
C77 C76 1.338 . S
C77 H81 0.931 . S
C78 N75 1.313 . S
C78 N79 1.344 . S
C78 H82 0.930 . S
N79 C76 1.377 . S
N79 C78 1.344 . S
O80 Co72 2.055 . S
O80 C84 1.253 . S
H81 C77 0.931 . S
H82 C78 0.930 . S
O83 Co72 2.039 . S
O83 C73 1.265 . S
C84 O80 1.253 . S
C84 O85 1.227 . S
O85 C84 1.227 . S
N86 Co72 2.140 . S
N86 C89 1.346 . S
N86 C90 1.345 . S
C87 C88 1.387 . S
C87 C91 1.391 . S
C88 C87 1.387 . S
C88 C89 1.369 . S
C88 H97 0.929 . S
C89 N86 1.346 . S
C89 C88 1.369 . S
C89 H92 0.928 . S
C90 N86 1.345 . S
C90 C91 1.371 . S
C90 H93 0.931 . S
C91 C87 1.391 . S
C91 C90 1.371 . S
C91 H98 0.930 . S
H92 C89 0.928 . S
H93 C90 0.931 . S
H94 C70 0.930 . S
H95 C67 0.930 . S
H96 C76 0.930 . S
H97 C88 0.929 . S
H98 C91 0.930 . S
C99 C100 1.351 . S
C99 N102 1.368 . S
C99 H104 0.931 . S
C100 C99 1.351 . S
C100 N101 1.373 . S
C100 H128 0.930 . S
N101 C100 1.373 . S
N101 C103 1.340 . S
N102 C99 1.368 . S
N102 C103 1.321 . S
N102 Co105 2.135 . S
C103 N101 1.340 . S
C103 N102 1.321 . S
C103 H127 0.930 . S
H104 C99 0.931 . S
Co105 N102 2.135 . S
Co105 N108 2.121 . S
Co105 O113 2.055 . S
Co105 O116 2.039 . S
Co105 N119 2.140 . S
C106 O107 1.227 . S
C106 O116 1.265 . S
O107 C106 1.227 . S
N108 Co105 2.121 . S
N108 C110 1.375 . S
N108 C111 1.313 . S
C109 C110 1.338 . S
C109 N112 1.377 . S
C109 H129 0.930 . S
C110 N108 1.375 . S
C110 C109 1.338 . S
C110 H114 0.931 . S
C111 N108 1.313 . S
C111 N112 1.344 . S
C111 H115 0.930 . S
N112 C109 1.377 . S
N112 C111 1.344 . S
O113 Co105 2.055 . S
O113 C117 1.253 . S
H114 C110 0.931 . S
H115 C111 0.930 . S
O116 Co105 2.039 . S
O116 C106 1.265 . S
C117 O113 1.253 . S
C117 O118 1.227 . S
O118 C117 1.227 . S
N119 Co105 2.140 . S
N119 C122 1.346 1_655 S
N119 C123 1.345 . S
C120 C121 1.387 . S
C120 C124 1.391 . S
C121 C120 1.387 . S
C121 C122 1.369 . S
C121 H130 0.929 . S
C122 N119 1.346 1_455 S
C122 C121 1.369 . S
C122 H125 0.928 . S
C123 N119 1.345 . S
C123 C124 1.371 1_655 S
C123 H126 0.931 . S
C124 C120 1.391 . S
C124 C123 1.371 1_455 S
C124 H131 0.930 . S
H125 C122 0.928 . S
H126 C123 0.931 . S
H127 C103 0.930 . S
H128 C100 0.930 . S
H129 C109 0.930 . S
H130 C121 0.929 . S
H131 C124 0.930 . S
C132 C133 1.351 . S
C132 N135 1.368 . S
C132 H137 0.931 . S
C133 C132 1.351 . S
C133 N134 1.373 . S
C133 H161 0.930 . S
N134 C133 1.373 . S
N134 C136 1.340 . S
N135 C132 1.368 . S
N135 C136 1.321 . S
N135 Co138 2.135 . S
C136 N134 1.340 . S
C136 N135 1.321 . S
C136 H160 0.930 . S
H137 C132 0.931 . S
Co138 N135 2.135 . S
Co138 N141 2.121 . S
Co138 O146 2.055 . S
Co138 O149 2.039 . S
Co138 N152 2.140 . S
C139 O140 1.227 . S
C139 O149 1.265 . S
O140 C139 1.227 . S
N141 Co138 2.121 . S
N141 C143 1.375 . S
N141 C144 1.313 . S
C142 C143 1.338 . S
C142 N145 1.377 . S
C142 H162 0.930 . S
C143 N141 1.375 . S
C143 C142 1.338 . S
C143 H147 0.931 . S
C144 N141 1.313 . S
C144 N145 1.344 . S
C144 H148 0.930 . S
N145 C142 1.377 . S
N145 C144 1.344 . S
O146 Co138 2.055 . S
O146 C150 1.253 . S
H147 C143 0.931 . S
H148 C144 0.930 . S
O149 Co138 2.039 . S
O149 C139 1.265 . S
C150 O146 1.253 . S
C150 O151 1.227 . S
O151 C150 1.227 . S
N152 Co138 2.140 . S
N152 C155 1.346 1_655 S
N152 C156 1.345 . S
C153 C154 1.387 . S
C153 C157 1.391 . S
C154 C153 1.387 . S
C154 C155 1.369 . S
C154 H163 0.929 . S
C155 N152 1.346 1_455 S
C155 C154 1.369 . S
C155 H158 0.928 . S
C156 N152 1.345 . S
C156 C157 1.371 1_655 S
C156 H159 0.931 . S
C157 C153 1.391 . S
C157 C156 1.371 1_455 S
C157 H164 0.930 . S
H158 C155 0.928 . S
H159 C156 0.931 . S
H160 C136 0.930 . S
H161 C133 0.930 . S
H162 C142 0.930 . S
H163 C154 0.929 . S
H164 C157 0.930 . S
C165 C166 1.351 . S
C165 N168 1.368 . S
C165 H170 0.931 . S
C166 C165 1.351 . S
C166 N167 1.373 . S
C166 H194 0.930 . S
N167 C166 1.373 . S
N167 C169 1.340 . S
N168 C165 1.368 . S
N168 C169 1.321 . S
N168 Co171 2.135 . S
C169 N167 1.340 . S
C169 N168 1.321 . S
C169 H193 0.930 . S
H170 C165 0.931 . S
Co171 N168 2.135 . S
Co171 N174 2.121 . S
Co171 O179 2.055 . S
Co171 O182 2.039 . S
Co171 N185 2.140 . S
C172 O173 1.227 . S
C172 O182 1.265 . S
O173 C172 1.227 . S
N174 Co171 2.121 . S
N174 C176 1.375 . S
N174 C177 1.313 . S
C175 C176 1.338 . S
C175 N178 1.377 . S
C175 H195 0.930 . S
C176 N174 1.375 . S
C176 C175 1.338 . S
C176 H180 0.931 . S
C177 N174 1.313 . S
C177 N178 1.344 . S
C177 H181 0.930 . S
N178 C175 1.377 . S
N178 C177 1.344 . S
O179 Co171 2.055 . S
O179 C183 1.253 . S
H180 C176 0.931 . S
H181 C177 0.930 . S
O182 Co171 2.039 . S
O182 C172 1.265 . S
C183 O179 1.253 . S
C183 O184 1.227 . S
O184 C183 1.227 . S
N185 Co171 2.140 . S
N185 C188 1.346 . S
N185 C189 1.345 . S
C186 C187 1.387 . S
C186 C190 1.391 . S
C187 C186 1.387 . S
C187 C188 1.369 . S
C187 H196 0.929 . S
C188 N185 1.346 . S
C188 C187 1.369 . S
C188 H191 0.928 . S
C189 N185 1.345 . S
C189 C190 1.371 . S
C189 H192 0.931 . S
C190 C186 1.391 . S
C190 C189 1.371 . S
C190 H197 0.930 . S
H191 C188 0.928 . S
H192 C189 0.931 . S
H193 C169 0.930 . S
H194 C166 0.930 . S
H195 C175 0.930 . S
H196 C187 0.929 . S
H197 C190 0.930 . S
C198 C199 1.351 . S
C198 N201 1.368 . S
C198 H203 0.931 . S
C199 C198 1.351 . S
C199 N200 1.373 . S
C199 H227 0.930 . S
N200 C199 1.373 . S
N200 C202 1.340 . S
N201 C198 1.368 . S
N201 C202 1.321 . S
N201 Co204 2.135 . S
C202 N200 1.340 . S
C202 N201 1.321 . S
C202 H226 0.930 . S
H203 C198 0.931 . S
Co204 N201 2.135 . S
Co204 N207 2.121 . S
Co204 O212 2.055 . S
Co204 O215 2.039 . S
Co204 N218 2.140 . S
C205 O206 1.227 . S
C205 O215 1.265 . S
O206 C205 1.227 . S
N207 Co204 2.121 . S
N207 C209 1.375 . S
N207 C210 1.313 . S
C208 C209 1.338 . S
C208 N211 1.377 . S
C208 H228 0.930 . S
C209 N207 1.375 . S
C209 C208 1.338 . S
C209 H213 0.931 . S
C210 N207 1.313 . S
C210 N211 1.344 . S
C210 H214 0.930 . S
N211 C208 1.377 . S
N211 C210 1.344 . S
O212 Co204 2.055 . S
O212 C216 1.253 . S
H213 C209 0.931 . S
H214 C210 0.930 . S
O215 Co204 2.039 . S
O215 C205 1.265 . S
C216 O212 1.253 . S
C216 O217 1.227 . S
O217 C216 1.227 . S
N218 Co204 2.140 . S
N218 C221 1.346 . S
N218 C222 1.345 . S
C219 C220 1.387 . S
C219 C223 1.391 . S
C220 C219 1.387 . S
C220 C221 1.369 . S
C220 H229 0.929 . S
C221 N218 1.346 . S
C221 C220 1.369 . S
C221 H224 0.928 . S
C222 N218 1.345 . S
C222 C223 1.371 . S
C222 H225 0.931 . S
C223 C219 1.391 . S
C223 C222 1.371 . S
C223 H230 0.930 . S
H224 C221 0.928 . S
H225 C222 0.931 . S
H226 C202 0.930 . S
H227 C199 0.930 . S
H228 C208 0.930 . S
H229 C220 0.929 . S
H230 C223 0.930 . S
C231 C232 1.351 . S
C231 N234 1.368 . S
C231 H236 0.931 . S
C232 C231 1.351 . S
C232 N233 1.373 . S
C232 H260 0.930 . S
N233 C232 1.373 . S
N233 C235 1.340 . S
N234 C231 1.368 . S
N234 C235 1.321 . S
N234 Co237 2.135 . S
C235 N233 1.340 . S
C235 N234 1.321 . S
C235 H259 0.930 . S
H236 C231 0.931 . S
Co237 N234 2.135 . S
Co237 N240 2.121 . S
Co237 O245 2.055 . S
Co237 O248 2.039 . S
Co237 N251 2.140 . S
C238 O239 1.227 . S
C238 O248 1.265 . S
O239 C238 1.227 . S
N240 Co237 2.121 . S
N240 C242 1.375 . S
N240 C243 1.313 . S
C241 C242 1.338 . S
C241 N244 1.377 . S
C241 H261 0.930 . S
C242 N240 1.375 . S
C242 C241 1.338 . S
C242 H246 0.931 . S
C243 N240 1.313 . S
C243 N244 1.344 . S
C243 H247 0.930 . S
N244 C241 1.377 . S
N244 C243 1.344 . S
O245 Co237 2.055 . S
O245 C249 1.253 . S
H246 C242 0.931 . S
H247 C243 0.930 . S
O248 Co237 2.039 . S
O248 C238 1.265 . S
C249 O245 1.253 . S
C249 O250 1.227 . S
O250 C249 1.227 . S
N251 Co237 2.140 . S
N251 C254 1.346 1_455 S
N251 C255 1.345 . S
C252 C253 1.387 . S
C252 C256 1.391 . S
C253 C252 1.387 . S
C253 C254 1.369 . S
C253 H262 0.929 . S
C254 N251 1.346 1_655 S
C254 C253 1.369 . S
C254 H257 0.928 . S
C255 N251 1.345 . S
C255 C256 1.371 1_455 S
C255 H258 0.931 . S
C256 C252 1.391 . S
C256 C255 1.371 1_655 S
C256 H263 0.930 . S
H257 C254 0.928 . S
H258 C255 0.931 . S
H259 C235 0.930 . S
H260 C232 0.930 . S
H261 C241 0.930 . S
H262 C253 0.929 . S
H263 C256 0.930 . S
C264 C265 1.351 . S
C264 N267 1.368 . S
C264 H269 0.931 . S
C265 C264 1.351 . S
C265 N266 1.373 . S
C265 H293 0.930 . S
N266 C265 1.373 . S
N266 C268 1.340 . S
N267 C264 1.368 . S
N267 C268 1.321 . S
N267 Co270 2.135 . S
C268 N266 1.340 . S
C268 N267 1.321 . S
C268 H292 0.930 . S
H269 C264 0.931 . S
Co270 N267 2.135 . S
Co270 N273 2.121 . S
Co270 O278 2.055 . S
Co270 O281 2.039 . S
Co270 N284 2.140 . S
C271 O272 1.227 . S
C271 O281 1.265 . S
O272 C271 1.227 . S
N273 Co270 2.121 . S
N273 C275 1.375 . S
N273 C276 1.313 . S
C274 C275 1.338 . S
C274 N277 1.377 . S
C274 H294 0.930 . S
C275 N273 1.375 . S
C275 C274 1.338 . S
C275 H279 0.931 . S
C276 N273 1.313 . S
C276 N277 1.344 . S
C276 H280 0.930 . S
N277 C274 1.377 . S
N277 C276 1.344 . S
O278 Co270 2.055 . S
O278 C282 1.253 . S
H279 C275 0.931 . S
H280 C276 0.930 . S
O281 Co270 2.039 . S
O281 C271 1.265 . S
C282 O278 1.253 . S
C282 O283 1.227 . S
O283 C282 1.227 . S
N284 Co270 2.140 . S
N284 C287 1.346 . S
N284 C288 1.345 . S
C285 C286 1.387 . S
C285 C289 1.391 . S
C286 C285 1.387 . S
C286 C287 1.369 . S
C286 H295 0.929 . S
C287 N284 1.346 . S
C287 C286 1.369 . S
C287 H290 0.928 . S
C288 N284 1.345 . S
C288 C289 1.371 . S
C288 H291 0.931 . S
C289 C285 1.391 . S
C289 C288 1.371 . S
C289 H296 0.930 . S
H290 C287 0.928 . S
H291 C288 0.931 . S
H292 C268 0.930 . S
H293 C265 0.930 . S
H294 C274 0.930 . S
H295 C286 0.929 . S
H296 C289 0.930 . S
C297 C298 1.351 . S
C297 N300 1.368 . S
C297 H302 0.931 . S
C298 C297 1.351 . S
C298 N299 1.373 . S
C298 H326 0.930 . S
N299 C298 1.373 . S
N299 C301 1.340 . S
N300 C297 1.368 . S
N300 C301 1.321 . S
N300 Co303 2.135 . S
C301 N299 1.340 . S
C301 N300 1.321 . S
C301 H325 0.930 . S
H302 C297 0.931 . S
Co303 N300 2.135 . S
Co303 N306 2.121 . S
Co303 O311 2.055 . S
Co303 O314 2.039 . S
Co303 N317 2.140 . S
C304 O305 1.227 . S
C304 O314 1.265 . S
O305 C304 1.227 . S
N306 Co303 2.121 . S
N306 C308 1.375 . S
N306 C309 1.313 . S
C307 C308 1.338 . S
C307 N310 1.377 . S
C307 H327 0.930 . S
C308 N306 1.375 . S
C308 C307 1.338 . S
C308 H312 0.931 . S
C309 N306 1.313 . S
C309 N310 1.344 . S
C309 H313 0.930 . S
N310 C307 1.377 . S
N310 C309 1.344 . S
O311 Co303 2.055 . S
O311 C315 1.253 . S
H312 C308 0.931 . S
H313 C309 0.930 . S
O314 Co303 2.039 . S
O314 C304 1.265 . S
C315 O311 1.253 . S
C315 O316 1.227 . S
O316 C315 1.227 . S
N317 Co303 2.140 . S
N317 C320 1.346 1_655 S
N317 C321 1.345 . S
C318 C319 1.387 . S
C318 C322 1.391 . S
C319 C318 1.387 . S
C319 C320 1.369 . S
C319 H328 0.929 . S
C320 N317 1.346 1_455 S
C320 C319 1.369 . S
C320 H323 0.928 . S
C321 N317 1.345 . S
C321 C322 1.371 1_655 S
C321 H324 0.931 . S
C322 C318 1.391 . S
C322 C321 1.371 1_455 S
C322 H329 0.930 . S
H323 C320 0.928 . S
H324 C321 0.931 . S
H325 C301 0.930 . S
H326 C298 0.930 . S
H327 C307 0.930 . S
H328 C319 0.929 . S
H329 C322 0.930 . S
C330 C331 1.351 . S
C330 N333 1.368 . S
C330 H335 0.931 . S
C331 C330 1.351 . S
C331 N332 1.373 . S
C331 H359 0.930 . S
N332 C331 1.373 . S
N332 C334 1.340 . S
N333 C330 1.368 . S
N333 C334 1.321 . S
N333 Co336 2.135 . S
C334 N332 1.340 . S
C334 N333 1.321 . S
C334 H358 0.930 . S
H335 C330 0.931 . S
Co336 N333 2.135 . S
Co336 N339 2.121 . S
Co336 O344 2.055 . S
Co336 O347 2.039 . S
Co336 N350 2.140 . S
C337 O338 1.227 . S
C337 O347 1.265 . S
O338 C337 1.227 . S
N339 Co336 2.121 . S
N339 C341 1.375 . S
N339 C342 1.313 . S
C340 C341 1.338 . S
C340 N343 1.377 . S
C340 H360 0.930 . S
C341 N339 1.375 . S
C341 C340 1.338 . S
C341 H345 0.931 . S
C342 N339 1.313 . S
C342 N343 1.344 . S
C342 H346 0.930 . S
N343 C340 1.377 . S
N343 C342 1.344 . S
O344 Co336 2.055 . S
O344 C348 1.253 . S
H345 C341 0.931 . S
H346 C342 0.930 . S
O347 Co336 2.039 . S
O347 C337 1.265 . S
C348 O344 1.253 . S
C348 O349 1.227 . S
O349 C348 1.227 . S
N350 Co336 2.140 . S
N350 C353 1.346 1_455 S
N350 C354 1.345 . S
C351 C352 1.387 . S
C351 C355 1.391 . S
C352 C351 1.387 . S
C352 C353 1.369 . S
C352 H361 0.929 . S
C353 N350 1.346 1_655 S
C353 C352 1.369 . S
C353 H356 0.928 . S
C354 N350 1.345 . S
C354 C355 1.371 1_455 S
C354 H357 0.931 . S
C355 C351 1.391 . S
C355 C354 1.371 1_655 S
C355 H362 0.930 . S
H356 C353 0.928 . S
H357 C354 0.931 . S
H358 C334 0.930 . S
H359 C331 0.930 . S
H360 C340 0.930 . S
H361 C352 0.929 . S
H362 C355 0.930 . S
C363 C364 1.351 . S
C363 N366 1.368 . S
C363 H368 0.931 . S
C364 C363 1.351 . S
C364 N365 1.373 . S
C364 H392 0.930 . S
N365 C364 1.373 . S
N365 C367 1.340 . S
N366 C363 1.368 . S
N366 C367 1.321 . S
N366 Co369 2.135 . S
C367 N365 1.340 . S
C367 N366 1.321 . S
C367 H391 0.930 . S
H368 C363 0.931 . S
Co369 N366 2.135 . S
Co369 N372 2.121 . S
Co369 O377 2.055 . S
Co369 O380 2.039 . S
Co369 N383 2.140 . S
C370 O371 1.227 . S
C370 O380 1.265 . S
O371 C370 1.227 . S
N372 Co369 2.121 . S
N372 C374 1.375 . S
N372 C375 1.313 . S
C373 C374 1.338 . S
C373 N376 1.377 . S
C373 H393 0.930 . S
C374 N372 1.375 . S
C374 C373 1.338 . S
C374 H378 0.931 . S
C375 N372 1.313 . S
C375 N376 1.344 . S
C375 H379 0.930 . S
N376 C373 1.377 . S
N376 C375 1.344 . S
O377 Co369 2.055 . S
O377 C381 1.253 . S
H378 C374 0.931 . S
H379 C375 0.930 . S
O380 Co369 2.039 . S
O380 C370 1.265 . S
C381 O377 1.253 . S
C381 O382 1.227 . S
O382 C381 1.227 . S
N383 Co369 2.140 . S
N383 C386 1.346 . S
N383 C387 1.345 . S
C384 C385 1.387 . S
C384 C388 1.391 . S
C385 C384 1.387 . S
C385 C386 1.369 . S
C385 H394 0.929 . S
C386 N383 1.346 . S
C386 C385 1.369 . S
C386 H389 0.928 . S
C387 N383 1.345 . S
C387 C388 1.371 . S
C387 H390 0.931 . S
C388 C384 1.391 . S
C388 C387 1.371 . S
C388 H395 0.930 . S
H389 C386 0.928 . S
H390 C387 0.931 . S
H391 C367 0.930 . S
H392 C364 0.930 . S
H393 C373 0.930 . S
H394 C385 0.929 . S
H395 C388 0.930 . S
C396 C397 1.351 . S
C396 N399 1.368 . S
C396 H401 0.931 . S
C397 C396 1.351 . S
C397 N398 1.373 . S
C397 H425 0.930 . S
N398 C397 1.373 . S
N398 C400 1.340 . S
N399 C396 1.368 . S
N399 C400 1.321 . S
N399 Co402 2.135 . S
C400 N398 1.340 . S
C400 N399 1.321 . S
C400 H424 0.930 . S
H401 C396 0.931 . S
Co402 N399 2.135 . S
Co402 N405 2.121 . S
Co402 O410 2.055 . S
Co402 O413 2.039 . S
Co402 N416 2.140 . S
C403 O404 1.227 . S
C403 O413 1.265 . S
O404 C403 1.227 . S
N405 Co402 2.121 . S
N405 C407 1.375 . S
N405 C408 1.313 . S
C406 C407 1.338 . S
C406 N409 1.377 . S
C406 H426 0.930 . S
C407 N405 1.375 . S
C407 C406 1.338 . S
C407 H411 0.931 . S
C408 N405 1.313 . S
C408 N409 1.344 . S
C408 H412 0.930 . S
N409 C406 1.377 . S
N409 C408 1.344 . S
O410 Co402 2.055 . S
O410 C414 1.253 . S
H411 C407 0.931 . S
H412 C408 0.930 . S
O413 Co402 2.039 . S
O413 C403 1.265 . S
C414 O410 1.253 . S
C414 O415 1.227 . S
O415 C414 1.227 . S
N416 Co402 2.140 . S
N416 C419 1.346 . S
N416 C420 1.345 . S
C417 C418 1.387 . S
C417 C421 1.391 . S
C418 C417 1.387 . S
C418 C419 1.369 . S
C418 H427 0.929 . S
C419 N416 1.346 . S
C419 C418 1.369 . S
C419 H422 0.928 . S
C420 N416 1.345 . S
C420 C421 1.371 . S
C420 H423 0.931 . S
C421 C417 1.391 . S
C421 C420 1.371 . S
C421 H428 0.930 . S
H422 C419 0.928 . S
H423 C420 0.931 . S
H424 C400 0.930 . S
H425 C397 0.930 . S
H426 C406 0.930 . S
H427 C418 0.929 . S
H428 C421 0.930 . S
C429 C430 1.351 . S
C429 N432 1.368 . S
C429 H434 0.931 . S
C430 C429 1.351 . S
C430 N431 1.373 . S
C430 H458 0.930 . S
N431 C430 1.373 . S
N431 C433 1.340 . S
N432 C429 1.368 . S
N432 C433 1.321 . S
N432 Co435 2.135 . S
C433 N431 1.340 . S
C433 N432 1.321 . S
C433 H457 0.930 . S
H434 C429 0.931 . S
Co435 N432 2.135 . S
Co435 N438 2.121 . S
Co435 O443 2.055 . S
Co435 O446 2.039 . S
Co435 N449 2.140 . S
C436 O437 1.227 . S
C436 O446 1.265 . S
O437 C436 1.227 . S
N438 Co435 2.121 . S
N438 C440 1.375 . S
N438 C441 1.313 . S
C439 C440 1.338 . S
C439 N442 1.377 . S
C439 H459 0.930 . S
C440 N438 1.375 . S
C440 C439 1.338 . S
C440 H444 0.931 . S
C441 N438 1.313 . S
C441 N442 1.344 . S
C441 H445 0.930 . S
N442 C439 1.377 . S
N442 C441 1.344 . S
O443 Co435 2.055 . S
O443 C447 1.253 . S
H444 C440 0.931 . S
H445 C441 0.930 . S
O446 Co435 2.039 . S
O446 C436 1.265 . S
C447 O443 1.253 . S
C447 O448 1.227 . S
O448 C447 1.227 . S
N449 Co435 2.140 . S
N449 C452 1.346 1_455 S
N449 C453 1.345 . S
C450 C451 1.387 . S
C450 C454 1.391 . S
C451 C450 1.387 . S
C451 C452 1.369 . S
C451 H460 0.929 . S
C452 N449 1.346 1_655 S
C452 C451 1.369 . S
C452 H455 0.928 . S
C453 N449 1.345 . S
C453 C454 1.371 1_455 S
C453 H456 0.931 . S
C454 C450 1.391 . S
C454 C453 1.371 1_655 S
C454 H461 0.930 . S
H455 C452 0.928 . S
H456 C453 0.931 . S
H457 C433 0.930 . S
H458 C430 0.930 . S
H459 C439 0.930 . S
H460 C451 0.929 . S
H461 C454 0.930 . S
C462 C463 1.351 . S
C462 N465 1.368 . S
C462 H467 0.931 . S
C463 C462 1.351 . S
C463 N464 1.373 . S
C463 H491 0.930 . S
N464 C463 1.373 . S
N464 C466 1.340 . S
N465 C462 1.368 . S
N465 C466 1.321 . S
N465 Co468 2.135 . S
C466 N464 1.340 . S
C466 N465 1.321 . S
C466 H490 0.930 . S
H467 C462 0.931 . S
Co468 N465 2.135 . S
Co468 N471 2.121 . S
Co468 O476 2.055 . S
Co468 O479 2.039 . S
Co468 N482 2.140 . S
C469 O470 1.227 . S
C469 O479 1.265 . S
O470 C469 1.227 . S
N471 Co468 2.121 . S
N471 C473 1.375 . S
N471 C474 1.313 . S
C472 C473 1.338 . S
C472 N475 1.377 . S
C472 H492 0.930 . S
C473 N471 1.375 . S
C473 C472 1.338 . S
C473 H477 0.931 . S
C474 N471 1.313 . S
C474 N475 1.344 . S
C474 H478 0.930 . S
N475 C472 1.377 . S
N475 C474 1.344 . S
O476 Co468 2.055 . S
O476 C480 1.253 . S
H477 C473 0.931 . S
H478 C474 0.930 . S
O479 Co468 2.039 . S
O479 C469 1.265 . S
C480 O476 1.253 . S
C480 O481 1.227 . S
O481 C480 1.227 . S
N482 Co468 2.140 . S
N482 C485 1.346 1_655 S
N482 C486 1.345 . S
C483 C484 1.387 . S
C483 C487 1.391 . S
C484 C483 1.387 . S
C484 C485 1.369 . S
C484 H493 0.929 . S
C485 N482 1.346 1_455 S
C485 C484 1.369 . S
C485 H488 0.928 . S
C486 N482 1.345 . S
C486 C487 1.371 1_655 S
C486 H489 0.931 . S
C487 C483 1.391 . S
C487 C486 1.371 1_455 S
C487 H494 0.930 . S
H488 C485 0.928 . S
H489 C486 0.931 . S
H490 C466 0.930 . S
H491 C463 0.930 . S
H492 C472 0.930 . S
H493 C484 0.929 . S
H494 C487 0.930 . S
C495 C496 1.351 . S
C495 N498 1.368 . S
C495 H500 0.931 . S
C496 C495 1.351 . S
C496 N497 1.373 . S
C496 H524 0.930 . S
N497 C496 1.373 . S
N497 C499 1.340 . S
N498 C495 1.368 . S
N498 C499 1.321 . S
N498 Co501 2.135 . S
C499 N497 1.340 . S
C499 N498 1.321 . S
C499 H523 0.930 . S
H500 C495 0.931 . S
Co501 N498 2.135 . S
Co501 N504 2.121 . S
Co501 O509 2.055 . S
Co501 O512 2.039 . S
Co501 N515 2.140 . S
C502 O503 1.227 . S
C502 O512 1.265 . S
O503 C502 1.227 . S
N504 Co501 2.121 . S
N504 C506 1.375 . S
N504 C507 1.313 . S
C505 C506 1.338 . S
C505 N508 1.377 . S
C505 H525 0.930 . S
C506 N504 1.375 . S
C506 C505 1.338 . S
C506 H510 0.931 . S
C507 N504 1.313 . S
C507 N508 1.344 . S
C507 H511 0.930 . S
N508 C505 1.377 . S
N508 C507 1.344 . S
O509 Co501 2.055 . S
O509 C513 1.253 . S
H510 C506 0.931 . S
H511 C507 0.930 . S
O512 Co501 2.039 . S
O512 C502 1.265 . S
C513 O509 1.253 . S
C513 O514 1.227 . S
O514 C513 1.227 . S
N515 Co501 2.140 . S
N515 C518 1.346 . S
N515 C519 1.345 . S
C516 C517 1.387 . S
C516 C520 1.391 . S
C517 C516 1.387 . S
C517 C518 1.369 . S
C517 H526 0.929 . S
C518 N515 1.346 . S
C518 C517 1.369 . S
C518 H521 0.928 . S
C519 N515 1.345 . S
C519 C520 1.371 . S
C519 H522 0.931 . S
C520 C516 1.391 . S
C520 C519 1.371 . S
C520 H527 0.930 . S
H521 C518 0.928 . S
H522 C519 0.931 . S
H523 C499 0.930 . S
H524 C496 0.930 . S
H525 C505 0.930 . S
H526 C517 0.929 . S
H527 C520 0.930 . S
H528 C536 0.950 . S
H529 C541 0.950 . S
H530 C538 0.950 . S
H531 C540 0.950 . S
H532 C542 0.950 . S
H533 C544 0.950 . S
H534 C546 0.950 . S
H535 C547 0.950 . S
C536 H528 0.950 . S
C536 C537 1.386 . S
C536 C538 1.391 1_556 S
C537 C536 1.386 . S
C537 C541 1.393 . S
C538 H530 0.950 . S
C538 C536 1.391 1_554 S
C538 C539 1.401 . S
C539 C538 1.401 . S
C539 C540 1.389 1_554 S
C539 C545 1.500 . S
C540 H531 0.950 . S
C540 C539 1.389 1_556 S
C540 C541 1.391 . S
C541 H529 0.950 . S
C541 C537 1.393 . S
C541 C540 1.391 . S
C542 H532 0.950 . S
C542 C543 1.386 . S
C542 C544 1.391 . S
C543 C542 1.386 . S
C543 C547 1.393 . S
C544 H533 0.950 . S
C544 C542 1.391 . S
C544 C545 1.400 . S
C545 C539 1.500 . S
C545 C544 1.400 . S
C545 C546 1.398 . S
C546 H534 0.950 . S
C546 C545 1.398 . S
C546 C547 1.391 . S
C547 H535 0.950 . S
C547 C543 1.393 . S
C547 C546 1.391 . S
H548 C556 0.950 . S
H549 C561 0.950 . S
H550 C558 0.950 1_554 S
H551 C560 0.950 . S
H552 C562 0.950 . S
H553 C564 0.950 . S
H554 C566 0.950 . S
H555 C567 0.950 . S
C556 H548 0.950 . S
C556 C557 1.386 . S
C556 C558 1.391 . S
C557 C556 1.386 . S
C557 C561 1.393 . S
C558 H550 0.950 1_556 S
C558 C556 1.391 . S
C558 C559 1.401 . S
C559 C558 1.401 . S
C559 C560 1.405 . S
C559 C565 1.484 1_556 S
C560 H551 0.950 . S
C560 C559 1.405 . S
C560 C561 1.391 . S
C561 H549 0.950 . S
C561 C557 1.393 . S
C561 C560 1.391 . S
C562 H552 0.950 . S
C562 C563 1.386 . S
C562 C564 1.391 . S
C563 C562 1.386 . S
C563 C567 1.393 . S
C564 H553 0.950 . S
C564 C562 1.391 . S
C564 C565 1.400 . S
C565 C559 1.484 1_554 S
C565 C564 1.400 . S
C565 C566 1.398 . S
C566 H554 0.950 . S
C566 C565 1.398 . S
C566 C567 1.391 . S
C567 H555 0.950 . S
C567 C563 1.393 . S
C567 C566 1.391 . S
H568 C576 0.950 . S
H569 C581 0.950 . S
H570 C578 0.950 . S
H571 C580 0.950 . S
H572 C582 0.950 . S
H573 C584 0.950 . S
H574 C586 0.950 . S
H575 C587 0.950 . S
C576 H568 0.950 . S
C576 C577 1.386 . S
C576 C578 1.391 . S
C577 C576 1.386 . S
C577 C581 1.393 . S
C578 H570 0.950 . S
C578 C576 1.391 . S
C578 C579 1.400 . S
C579 C578 1.400 . S
C579 C580 1.398 . S
C579 C585 1.491 . S
C580 H571 0.950 . S
C580 C579 1.398 . S
C580 C581 1.391 . S
C581 H569 0.950 . S
C581 C577 1.393 . S
C581 C580 1.391 . S
C582 H572 0.950 . S
C582 C583 1.386 . S
C582 C584 1.391 . S
C583 C582 1.386 . S
C583 C587 1.393 . S
C584 H573 0.950 . S
C584 C582 1.391 . S
C584 C585 1.400 . S
C585 C579 1.491 . S
C585 C584 1.400 . S
C585 C586 1.398 . S
C586 H574 0.950 . S
C586 C585 1.398 . S
C586 C587 1.391 . S
C587 H575 0.950 . S
C587 C583 1.393 . S
C587 C586 1.391 . S
H588 C596 0.950 . S
H589 C601 0.950 . S
H590 C598 0.950 . S
H591 C600 0.950 . S
H592 C602 0.950 . S
H593 C604 0.950 . S
H594 C606 0.950 . S
H595 C607 0.950 . S
C596 H588 0.950 . S
C596 C597 1.386 . S
C596 C598 1.391 . S
C597 C596 1.386 . S
C597 C601 1.393 . S
C598 H590 0.950 . S
C598 C596 1.391 . S
C598 C599 1.400 . S
C599 C598 1.400 . S
C599 C600 1.398 . S
C599 C605 1.491 . S
C600 H591 0.950 . S
C600 C599 1.398 . S
C600 C601 1.391 . S
C601 H589 0.950 . S
C601 C597 1.393 . S
C601 C600 1.391 . S
C602 H592 0.950 . S
C602 C603 1.386 . S
C602 C604 1.391 . S
C603 C602 1.386 . S
C603 C607 1.393 . S
C604 H593 0.950 . S
C604 C602 1.391 . S
C604 C605 1.400 . S
C605 C599 1.491 . S
C605 C604 1.400 . S
C605 C606 1.398 . S
C606 H594 0.950 . S
C606 C605 1.398 . S
C606 C607 1.391 . S
C607 H595 0.950 . S
C607 C603 1.393 . S
C607 C606 1.391 . S
H608 C616 0.950 . S
H609 C621 0.950 . S
H610 C618 0.950 . S
H611 C620 0.950 . S
H612 C622 0.950 . S
H613 C624 0.950 . S
H614 C626 0.950 1_556 S
H615 C627 0.950 . S
C616 H608 0.950 . S
C616 C617 1.386 . S
C616 C618 1.391 . S
C617 C616 1.386 . S
C617 C621 1.393 . S
C618 H610 0.950 . S
C618 C616 1.391 . S
C618 C619 1.400 . S
C619 C618 1.400 . S
C619 C620 1.398 . S
C619 C625 1.485 1_556 S
C620 H611 0.950 . S
C620 C619 1.398 . S
C620 C621 1.391 . S
C621 H609 0.950 . S
C621 C617 1.393 . S
C621 C620 1.391 . S
C622 H612 0.950 . S
C622 C623 1.386 . S
C622 C624 1.391 . S
C623 C622 1.386 . S
C623 C627 1.393 . S
C624 H613 0.950 . S
C624 C622 1.391 . S
C624 C625 1.405 . S
C625 C619 1.485 1_554 S
C625 C624 1.405 . S
C625 C626 1.399 . S
C626 H614 0.950 1_554 S
C626 C625 1.399 . S
C626 C627 1.391 . S
C627 H615 0.950 . S
C627 C623 1.393 . S
C627 C626 1.391 . S
H628 C636 0.950 . S
H629 C641 0.950 . S
H630 C638 0.950 1_554 S
H631 C640 0.950 . S
H632 C642 0.950 . S
H633 C644 0.950 . S
H634 C646 0.950 . S
H635 C647 0.950 . S
C636 H628 0.950 . S
C636 C637 1.386 . S
C636 C638 1.391 . S
C637 C636 1.386 . S
C637 C641 1.393 . S
C638 H630 0.950 1_556 S
C638 C636 1.391 . S
C638 C639 1.400 . S
C639 C638 1.400 . S
C639 C640 1.398 . S
C639 C645 1.493 . S
C640 H631 0.950 . S
C640 C639 1.398 . S
C640 C641 1.391 . S
C641 H629 0.950 . S
C641 C637 1.393 . S
C641 C640 1.391 . S
C642 H632 0.950 . S
C642 C643 1.386 . S
C642 C644 1.391 1_554 S
C643 C642 1.386 . S
C643 C647 1.393 . S
C644 H633 0.950 . S
C644 C642 1.391 1_556 S
C644 C645 1.401 . S
C645 C639 1.493 . S
C645 C644 1.401 . S
C645 C646 1.394 1_556 S
C646 H634 0.950 . S
C646 C645 1.394 1_554 S
C646 C647 1.391 . S
C647 H635 0.950 . S
C647 C643 1.393 . S
C647 C646 1.391 . S
H648 C656 0.950 . S
H649 C661 0.950 . S
H650 C658 0.950 . S
H651 C660 0.950 . S
H652 C662 0.950 . S
H653 C664 0.950 . S
H654 C666 0.950 . S
H655 C667 0.950 . S
C656 H648 0.950 . S
C656 C657 1.386 . S
C656 C658 1.391 . S
C657 C656 1.386 . S
C657 C661 1.393 . S
C658 H650 0.950 . S
C658 C656 1.391 . S
C658 C659 1.400 . S
C659 C658 1.400 . S
C659 C660 1.398 . S
C659 C665 1.491 . S
C660 H651 0.950 . S
C660 C659 1.398 . S
C660 C661 1.391 . S
C661 H649 0.950 . S
C661 C657 1.393 . S
C661 C660 1.391 . S
C662 H652 0.950 . S
C662 C663 1.386 . S
C662 C664 1.391 . S
C663 C662 1.386 . S
C663 C667 1.393 . S
C664 H653 0.950 . S
C664 C662 1.391 . S
C664 C665 1.400 . S
C665 C659 1.491 . S
C665 C664 1.400 . S
C665 C666 1.398 . S
C666 H654 0.950 . S
C666 C665 1.398 . S
C666 C667 1.391 . S
C667 H655 0.950 . S
C667 C663 1.393 . S
C667 C666 1.391 . S
H668 C676 0.950 . S
H669 C681 0.950 . S
H670 C678 0.950 . S
H671 C680 0.950 . S
H672 C682 0.950 . S
H673 C684 0.950 . S
H674 C686 0.950 . S
H675 C687 0.950 . S
C676 H668 0.950 . S
C676 C677 1.386 . S
C676 C678 1.391 . S
C677 C676 1.386 . S
C677 C681 1.393 . S
C678 H670 0.950 . S
C678 C676 1.391 . S
C678 C679 1.400 . S
C679 C678 1.400 . S
C679 C680 1.398 . S
C679 C685 1.491 . S
C680 H671 0.950 . S
C680 C679 1.398 . S
C680 C681 1.391 . S
C681 H669 0.950 . S
C681 C677 1.393 . S
C681 C680 1.391 . S
C682 H672 0.950 . S
C682 C683 1.386 . S
C682 C684 1.391 . S
C683 C682 1.386 . S
C683 C687 1.393 . S
C684 H673 0.950 . S
C684 C682 1.391 . S
C684 C685 1.400 . S
C685 C679 1.491 . S
C685 C684 1.400 . S
C685 C686 1.398 . S
C686 H674 0.950 . S
C686 C685 1.398 . S
C686 C687 1.391 . S
C687 H675 0.950 . S
C687 C683 1.393 . S
C687 C686 1.391 . S
H688 C696 0.950 . S
H689 C701 0.950 . S
H690 C698 0.917 1_556 S
H691 C700 0.950 . S
H692 C702 0.950 . S
H693 C704 0.950 . S
H694 C706 0.950 . S
H695 C707 0.950 . S
C696 H688 0.950 . S
C696 C697 1.386 . S
C696 C698 1.391 . S
C697 C696 1.386 . S
C697 C701 1.393 . S
C698 H690 0.917 1_554 S
C698 C696 1.391 . S
C698 C699 1.400 . S
C699 C698 1.400 . S
C699 C700 1.398 . S
C699 C705 1.487 1_554 S
C700 H691 0.950 . S
C700 C699 1.398 . S
C700 C701 1.391 . S
C701 H689 0.950 . S
C701 C697 1.393 . S
C701 C700 1.391 . S
C702 H692 0.950 . S
C702 C703 1.386 . S
C702 C704 1.391 1_556 S
C703 C702 1.386 . S
C703 C707 1.393 . S
C704 H693 0.950 . S
C704 C702 1.391 1_554 S
C704 C705 1.399 1_554 S
C705 C699 1.487 1_556 S
C705 C704 1.399 1_556 S
C705 C706 1.403 . S
C706 H694 0.950 . S
C706 C705 1.403 . S
C706 C707 1.391 . S
C707 H695 0.950 . S
C707 C703 1.393 . S
C707 C706 1.391 . S
H708 C716 0.950 . S
H709 C721 0.950 . S
H710 C718 0.915 1_556 S
H711 C720 0.950 . S
H712 C722 0.950 . S
H713 C724 0.950 . S
H714 C726 0.950 . S
H715 C727 0.950 . S
C716 H708 0.950 . S
C716 C717 1.386 . S
C716 C718 1.391 . S
C717 C716 1.386 . S
C717 C721 1.393 . S
C718 H710 0.915 1_554 S
C718 C716 1.391 . S
C718 C719 1.400 . S
C719 C718 1.400 . S
C719 C720 1.398 . S
C719 C725 1.487 1_554 S
C720 H711 0.950 . S
C720 C719 1.398 . S
C720 C721 1.391 . S
C721 H709 0.950 . S
C721 C717 1.393 . S
C721 C720 1.391 . S
C722 H712 0.950 . S
C722 C723 1.386 . S
C722 C724 1.391 1_556 S
C723 C722 1.386 . S
C723 C727 1.393 . S
C724 H713 0.950 . S
C724 C722 1.391 1_554 S
C724 C725 1.399 1_554 S
C725 C719 1.487 1_556 S
C725 C724 1.399 1_556 S
C725 C726 1.403 . S
C726 H714 0.950 . S
C726 C725 1.403 . S
C726 C727 1.391 . S
C727 H715 0.950 . S
C727 C723 1.393 . S
C727 C726 1.391 . S
H728 C736 0.950 . S
H729 C741 0.950 . S
H730 C738 0.950 . S
H731 C740 0.950 . S
H732 C742 0.950 . S
H733 C744 0.950 . S
H734 C746 0.950 . S
H735 C747 0.950 . S
C736 H728 0.950 . S
C736 C737 1.386 . S
C736 C738 1.391 . S
C737 C736 1.386 . S
C737 C741 1.393 . S
C738 H730 0.950 . S
C738 C736 1.391 . S
C738 C739 1.400 . S
C739 C738 1.400 . S
C739 C740 1.398 . S
C739 C745 1.491 . S
C740 H731 0.950 . S
C740 C739 1.398 . S
C740 C741 1.391 . S
C741 H729 0.950 . S
C741 C737 1.393 . S
C741 C740 1.391 . S
C742 H732 0.950 . S
C742 C743 1.386 . S
C742 C744 1.391 . S
C743 C742 1.386 . S
C743 C747 1.393 . S
C744 H733 0.950 . S
C744 C742 1.391 . S
C744 C745 1.400 . S
C745 C739 1.491 . S
C745 C744 1.400 . S
C745 C746 1.398 . S
C746 H734 0.950 . S
C746 C745 1.398 . S
C746 C747 1.391 . S
C747 H735 0.950 . S
C747 C743 1.393 . S
C747 C746 1.391 . S
H748 C756 0.950 . S
H749 C761 0.950 . S
H750 C758 0.950 . S
H751 C760 0.950 . S
H752 C762 0.950 . S
H753 C764 0.950 . S
H754 C766 0.950 . S
H755 C767 0.950 . S
C756 H748 0.950 . S
C756 C757 1.386 . S
C756 C758 1.391 . S
C757 C756 1.386 . S
C757 C761 1.393 . S
C758 H750 0.950 . S
C758 C756 1.391 . S
C758 C759 1.400 . S
C759 C758 1.400 . S
C759 C760 1.398 . S
C759 C765 1.491 . S
C760 H751 0.950 . S
C760 C759 1.398 . S
C760 C761 1.391 . S
C761 H749 0.950 . S
C761 C757 1.393 . S
C761 C760 1.391 . S
C762 H752 0.950 . S
C762 C763 1.386 . S
C762 C764 1.391 . S
C763 C762 1.386 . S
C763 C767 1.393 . S
C764 H753 0.950 . S
C764 C762 1.391 . S
C764 C765 1.400 . S
C765 C759 1.491 . S
C765 C764 1.400 . S
C765 C766 1.398 . S
C766 H754 0.950 . S
C766 C765 1.398 . S
C766 C767 1.391 . S
C767 H755 0.950 . S
C767 C763 1.393 . S
C767 C766 1.391 . S
H768 C776 0.950 . S
H769 C781 0.950 . S
H770 C778 0.950 . S
H771 C780 0.950 1_554 S
H772 C782 0.950 . S
H773 C784 0.950 . S
H774 C786 0.950 . S
H775 C787 0.950 . S
C776 H768 0.950 . S
C776 C777 1.386 . S
C776 C778 1.391 . S
C777 C776 1.386 . S
C777 C781 1.393 . S
C778 H770 0.950 . S
C778 C776 1.391 . S
C778 C779 1.400 . S
C779 C778 1.400 . S
C779 C780 1.398 . S
C779 C785 1.495 . S
C780 H771 0.950 1_556 S
C780 C779 1.398 . S
C780 C781 1.391 . S
C781 H769 0.950 . S
C781 C777 1.393 . S
C781 C780 1.391 . S
C782 H772 0.950 . S
C782 C783 1.386 . S
C782 C784 1.391 . S
C783 C782 1.386 . S
C783 C787 1.393 . S
C784 H773 0.950 . S
C784 C782 1.391 . S
C784 C785 1.393 1_554 S
C785 C779 1.495 . S
C785 C784 1.393 1_556 S
C785 C786 1.401 . S
C786 H774 0.950 . S
C786 C785 1.401 . S
C786 C787 1.391 1_556 S
C787 H775 0.950 . S
C787 C783 1.393 . S
C787 C786 1.391 1_554 S
H788 C796 0.950 . S
H789 C801 0.950 . S
H790 C798 0.950 . S
H791 C800 0.950 1_554 S
H792 C802 0.950 . S
H793 C804 0.950 . S
H794 C806 0.950 . S
H795 C807 0.950 . S
C796 H788 0.950 . S
C796 C797 1.386 . S
C796 C798 1.391 . S
C797 C796 1.386 . S
C797 C801 1.393 . S
C798 H790 0.950 . S
C798 C796 1.391 . S
C798 C799 1.400 . S
C799 C798 1.400 . S
C799 C800 1.398 . S
C799 C805 1.491 . S
C800 H791 0.950 1_556 S
C800 C799 1.398 . S
C800 C801 1.391 . S
C801 H789 0.950 . S
C801 C797 1.393 . S
C801 C800 1.391 . S
C802 H792 0.950 . S
C802 C803 1.386 . S
C802 C804 1.391 . S
C803 C802 1.386 . S
C803 C807 1.393 . S
C804 H793 0.950 . S
C804 C802 1.391 . S
C804 C805 1.400 1_554 S
C805 C799 1.491 . S
C805 C804 1.400 1_556 S
C805 C806 1.398 . S
C806 H794 0.950 . S
C806 C805 1.398 . S
C806 C807 1.391 1_556 S
C807 H795 0.950 . S
C807 C803 1.393 . S
C807 C806 1.391 1_554 S
H808 C816 0.950 . S
H809 C821 0.950 . S
H810 C818 0.950 . S
H811 C820 0.950 . S
H812 C822 0.950 . S
H813 C824 0.950 . S
H814 C826 0.950 . S
H815 C827 0.950 . S
C816 H808 0.950 . S
C816 C817 1.386 . S
C816 C818 1.391 . S
C817 C816 1.386 . S
C817 C821 1.393 . S
C818 H810 0.950 . S
C818 C816 1.391 . S
C818 C819 1.400 . S
C819 C818 1.400 . S
C819 C820 1.398 . S
C819 C825 1.491 . S
C820 H811 0.950 . S
C820 C819 1.398 . S
C820 C821 1.391 . S
C821 H809 0.950 . S
C821 C817 1.393 . S
C821 C820 1.391 . S
C822 H812 0.950 . S
C822 C823 1.386 . S
C822 C824 1.391 . S
C823 C822 1.386 . S
C823 C827 1.393 . S
C824 H813 0.950 . S
C824 C822 1.391 . S
C824 C825 1.400 . S
C825 C819 1.491 . S
C825 C824 1.400 . S
C825 C826 1.398 . S
C826 H814 0.950 . S
C826 C825 1.398 . S
C826 C827 1.391 . S
C827 H815 0.950 . S
C827 C823 1.393 . S
C827 C826 1.391 . S
H828 C836 0.950 . S
H829 C841 0.950 . S
H830 C838 0.950 . S
H831 C840 0.950 . S
H832 C842 0.950 . S
H833 C844 0.950 . S
H834 C846 0.950 . S
H835 C847 0.950 . S
C836 H828 0.950 . S
C836 C837 1.386 . S
C836 C838 1.391 . S
C837 C836 1.386 . S
C837 C841 1.393 . S
C838 H830 0.950 . S
C838 C836 1.391 . S
C838 C839 1.400 . S
C839 C838 1.400 . S
C839 C840 1.398 . S
C839 C845 1.491 . S
C840 H831 0.950 . S
C840 C839 1.398 . S
C840 C841 1.391 . S
C841 H829 0.950 . S
C841 C837 1.393 . S
C841 C840 1.391 . S
C842 H832 0.950 . S
C842 C843 1.386 . S
C842 C844 1.391 . S
C843 C842 1.386 . S
C843 C847 1.393 . S
C844 H833 0.950 . S
C844 C842 1.391 . S
C844 C845 1.400 . S
C845 C839 1.491 . S
C845 C844 1.400 . S
C845 C846 1.398 . S
C846 H834 0.950 . S
C846 C845 1.398 . S
C846 C847 1.391 . S
C847 H835 0.950 . S
C847 C843 1.393 . S
C847 C846 1.391 . S
H848 C856 0.950 . S
H849 C861 0.950 . S
H850 C858 0.950 . S
H851 C860 0.950 . S
H852 C862 0.950 . S
H853 C864 0.950 . S
H854 C866 0.950 . S
H855 C867 0.950 . S
C856 H848 0.950 . S
C856 C857 1.386 . S
C856 C858 1.391 . S
C857 C856 1.386 . S
C857 C861 1.393 . S
C858 H850 0.950 . S
C858 C856 1.391 . S
C858 C859 1.400 . S
C859 C858 1.400 . S
C859 C860 1.398 . S
C859 C865 1.491 1_545 S
C860 H851 0.950 . S
C860 C859 1.398 . S
C860 C861 1.391 . S
C861 H849 0.950 . S
C861 C857 1.393 . S
C861 C860 1.391 . S
C862 H852 0.950 . S
C862 C863 1.386 . S
C862 C864 1.391 . S
C863 C862 1.386 . S
C863 C867 1.393 . S
C864 H853 0.950 . S
C864 C862 1.391 . S
C864 C865 1.400 . S
C865 C859 1.491 1_565 S
C865 C864 1.400 . S
C865 C866 1.398 . S
C866 H854 0.950 . S
C866 C865 1.398 . S
C866 C867 1.391 . S
C867 H855 0.950 . S
C867 C863 1.393 . S
C867 C866 1.391 . S
H868 C876 0.950 . S
H869 C881 0.950 . S
H870 C878 0.950 . S
H871 C880 0.950 1_545 S
H872 C882 0.950 . S
H873 C884 0.950 . S
H874 C886 0.950 1_565 S
H875 C887 0.950 . S
C876 H868 0.950 . S
C876 C877 1.386 . S
C876 C878 1.391 . S
C877 C876 1.386 . S
C877 C881 1.393 . S
C878 H870 0.950 . S
C878 C876 1.391 . S
C878 C879 1.400 . S
C879 C878 1.400 . S
C879 C880 1.398 . S
C879 C885 1.491 1_565 S
C880 H871 0.950 1_565 S
C880 C879 1.398 . S
C880 C881 1.391 . S
C881 H869 0.950 . S
C881 C877 1.393 . S
C881 C880 1.391 . S
C882 H872 0.950 . S
C882 C883 1.386 . S
C882 C884 1.391 . S
C883 C882 1.386 . S
C883 C887 1.393 . S
C884 H873 0.950 . S
C884 C882 1.391 . S
C884 C885 1.400 . S
C885 C879 1.491 1_545 S
C885 C884 1.400 . S
C885 C886 1.398 . S
C886 H874 0.950 1_545 S
C886 C885 1.398 . S
C886 C887 1.391 . S
C887 H875 0.950 . S
C887 C883 1.393 . S
C887 C886 1.391 . S
H888 C896 0.950 . S
H889 C901 0.950 . S
H890 C898 0.950 1_565 S
H891 C900 0.950 . S
H892 C902 0.950 . S
H893 C904 0.950 1_545 S
H894 C906 0.950 . S
H895 C907 0.950 . S
C896 H888 0.950 . S
C896 C897 1.386 . S
C896 C898 1.391 . S
C897 C896 1.386 . S
C897 C901 1.393 . S
C898 H890 0.950 1_545 S
C898 C896 1.391 . S
C898 C899 1.400 . S
C899 C898 1.400 . S
C899 C900 1.398 . S
C899 C905 1.491 1_545 S
C900 H891 0.950 . S
C900 C899 1.398 . S
C900 C901 1.391 . S
C901 H889 0.950 . S
C901 C897 1.393 . S
C901 C900 1.391 . S
C902 H892 0.950 . S
C902 C903 1.386 . S
C902 C904 1.391 . S
C903 C902 1.386 . S
C903 C907 1.393 . S
C904 H893 0.950 1_565 S
C904 C902 1.391 . S
C904 C905 1.400 . S
C905 C899 1.491 1_565 S
C905 C904 1.400 . S
C905 C906 1.398 . S
C906 H894 0.950 . S
C906 C905 1.398 . S
C906 C907 1.391 . S
C907 H895 0.950 . S
C907 C903 1.393 . S
C907 C906 1.391 . S
H908 C916 0.950 . S
H909 C921 0.950 . S
H910 C918 0.950 . S
H911 C920 0.950 1_545 S
H912 C922 0.950 . S
H913 C924 0.950 . S
H914 C926 0.950 1_565 S
H915 C927 0.950 . S
C916 H908 0.950 . S
C916 C917 1.386 . S
C916 C918 1.391 . S
C917 C916 1.386 . S
C917 C921 1.393 . S
C918 H910 0.950 . S
C918 C916 1.391 . S
C918 C919 1.400 . S
C919 C918 1.400 . S
C919 C920 1.398 . S
C919 C925 1.491 1_565 S
C920 H911 0.950 1_565 S
C920 C919 1.398 . S
C920 C921 1.391 . S
C921 H909 0.950 . S
C921 C917 1.393 . S
C921 C920 1.391 . S
C922 H912 0.950 . S
C922 C923 1.386 . S
C922 C924 1.391 . S
C923 C922 1.386 . S
C923 C927 1.393 . S
C924 H913 0.950 . S
C924 C922 1.391 . S
C924 C925 1.400 . S
C925 C919 1.491 1_545 S
C925 C924 1.400 . S
C925 C926 1.398 . S
C926 H914 0.950 1_545 S
C926 C925 1.398 . S
C926 C927 1.391 . S
C927 H915 0.950 . S
C927 C923 1.393 . S
C927 C926 1.391 . S
H928 C936 0.950 . S
H929 C941 0.950 . S
H930 C938 0.950 . S
H931 C940 0.950 . S
H932 C942 0.950 . S
H933 C944 0.950 . S
H934 C946 0.950 . S
H935 C947 0.950 . S
C936 H928 0.950 . S
C936 C937 1.386 . S
C936 C938 1.391 . S
C937 C936 1.386 . S
C937 C941 1.393 . S
C938 H930 0.950 . S
C938 C936 1.391 . S
C938 C939 1.400 . S
C939 C938 1.400 . S
C939 C940 1.398 . S
C939 C945 1.491 . S
C940 H931 0.950 . S
C940 C939 1.398 . S
C940 C941 1.391 . S
C941 H929 0.950 . S
C941 C937 1.393 . S
C941 C940 1.391 . S
C942 H932 0.950 . S
C942 C943 1.386 . S
C942 C944 1.391 . S
C943 C942 1.386 . S
C943 C947 1.393 . S
C944 H933 0.950 . S
C944 C942 1.391 . S
C944 C945 1.400 . S
C945 C939 1.491 . S
C945 C944 1.400 . S
C945 C946 1.398 . S
C946 H934 0.950 . S
C946 C945 1.398 . S
C946 C947 1.391 . S
C947 H935 0.950 . S
C947 C943 1.393 . S
C947 C946 1.391 . S
H948 C956 0.950 . S
H949 C961 0.950 . S
H950 C958 0.950 . S
H951 C960 0.950 . S
H952 C962 0.950 . S
H953 C964 0.950 . S
H954 C966 0.950 . S
H955 C967 0.950 . S
C956 H948 0.950 . S
C956 C957 1.386 . S
C956 C958 1.391 . S
C957 C956 1.386 . S
C957 C961 1.393 . S
C958 H950 0.950 . S
C958 C956 1.391 . S
C958 C959 1.400 . S
C959 C958 1.400 . S
C959 C960 1.398 . S
C959 C965 1.491 . S
C960 H951 0.950 . S
C960 C959 1.398 . S
C960 C961 1.391 . S
C961 H949 0.950 . S
C961 C957 1.393 . S
C961 C960 1.391 . S
C962 H952 0.950 . S
C962 C963 1.386 . S
C962 C964 1.391 . S
C963 C962 1.386 . S
C963 C967 1.393 . S
C964 H953 0.950 . S
C964 C962 1.391 . S
C964 C965 1.400 . S
C965 C959 1.491 . S
C965 C964 1.400 . S
C965 C966 1.398 . S
C966 H954 0.950 . S
C966 C965 1.398 . S
C966 C967 1.391 . S
C967 H955 0.950 . S
C967 C963 1.393 . S
C967 C966 1.391 . S
H968 C976 0.950 . S
H969 C981 0.950 . S
H970 C978 0.950 . S
H971 C980 0.950 . S
H972 C982 0.950 . S
H973 C984 0.950 . S
H974 C986 0.950 . S
H975 C987 0.950 . S
C976 H968 0.950 . S
C976 C977 1.386 . S
C976 C978 1.391 . S
C977 C976 1.386 . S
C977 C981 1.393 . S
C978 H970 0.950 . S
C978 C976 1.391 . S
C978 C979 1.400 . S
C979 C978 1.400 . S
C979 C980 1.398 . S
C979 C985 1.491 . S
C980 H971 0.950 . S
C980 C979 1.398 . S
C980 C981 1.391 . S
C981 H969 0.950 . S
C981 C977 1.393 . S
C981 C980 1.391 . S
C982 H972 0.950 . S
C982 C983 1.386 . S
C982 C984 1.391 . S
C983 C982 1.386 . S
C983 C987 1.393 . S
C984 H973 0.950 . S
C984 C982 1.391 . S
C984 C985 1.400 . S
C985 C979 1.491 . S
C985 C984 1.400 . S
C985 C986 1.398 . S
C986 H974 0.950 . S
C986 C985 1.398 . S
C986 C987 1.391 . S
C987 H975 0.950 . S
C987 C983 1.393 . S
C987 C986 1.391 . S
H988 C996 0.950 . S
H989 C1001 0.950 . S
H990 C998 0.950 . S
H991 C1000 0.950 . S
H992 C1002 0.950 . S
H993 C1004 0.950 . S
H994 C1006 0.950 . S
H995 C1007 0.950 . S
C996 H988 0.950 . S
C996 C997 1.386 . S
C996 C998 1.391 . S
C997 C996 1.386 . S
C997 C1001 1.393 . S
C998 H990 0.950 . S
C998 C996 1.391 . S
C998 C999 1.400 . S
C999 C998 1.400 . S
C999 C1000 1.398 . S
C999 C1005 1.491 . S
C1000 H991 0.950 . S
C1000 C999 1.398 . S
C1000 C1001 1.391 . S
C1001 H989 0.950 . S
C1001 C997 1.393 . S
C1001 C1000 1.391 . S
C1002 H992 0.950 . S
C1002 C1003 1.386 . S
C1002 C1004 1.391 . S
C1003 C1002 1.386 . S
C1003 C1007 1.393 . S
C1004 H993 0.950 . S
C1004 C1002 1.391 . S
C1004 C1005 1.400 . S
C1005 C999 1.491 . S
C1005 C1004 1.400 . S
C1005 C1006 1.398 . S
C1006 H994 0.950 . S
C1006 C1005 1.398 . S
C1006 C1007 1.391 . S
C1007 H995 0.950 . S
C1007 C1003 1.393 . S
C1007 C1006 1.391 . S
H1008 C1016 0.950 . S
H1009 C1021 0.950 . S
H1010 C1018 0.950 . S
H1011 C1020 0.948 1_455 S
H1012 C1022 0.950 . S
H1013 C1024 0.950 . S
H1014 C1026 0.948 1_655 S
H1015 C1027 0.950 . S
C1016 H1008 0.950 . S
C1016 C1017 1.386 . S
C1016 C1018 1.391 . S
C1017 C1016 1.386 . S
C1017 C1021 1.393 . S
C1018 H1010 0.950 . S
C1018 C1016 1.391 . S
C1018 C1019 1.400 . S
C1019 C1018 1.400 . S
C1019 C1020 1.398 . S
C1019 C1025 1.491 1_655 S
C1020 H1011 0.948 1_655 S
C1020 C1019 1.398 . S
C1020 C1021 1.391 . S
C1021 H1009 0.950 . S
C1021 C1017 1.393 . S
C1021 C1020 1.391 . S
C1022 H1012 0.950 . S
C1022 C1023 1.386 . S
C1022 C1024 1.391 . S
C1023 C1022 1.386 . S
C1023 C1027 1.393 . S
C1024 H1013 0.950 . S
C1024 C1022 1.391 . S
C1024 C1025 1.400 . S
C1025 C1019 1.491 1_455 S
C1025 C1024 1.400 . S
C1025 C1026 1.398 . S
C1026 H1014 0.948 1_455 S
C1026 C1025 1.398 . S
C1026 C1027 1.391 . S
C1027 H1015 0.950 . S
C1027 C1023 1.393 . S
C1027 C1026 1.391 . S
H1028 C1036 0.950 . S
H1029 C1041 0.950 . S
H1030 C1038 0.950 . S
H1031 C1040 0.950 . S
H1032 C1042 0.950 . S
H1033 C1044 0.950 . S
H1034 C1046 0.950 . S
H1035 C1047 0.950 . S
C1036 H1028 0.950 . S
C1036 C1037 1.386 . S
C1036 C1038 1.391 . S
C1037 C1036 1.386 . S
C1037 C1041 1.393 . S
C1038 H1030 0.950 . S
C1038 C1036 1.391 . S
C1038 C1039 1.400 . S
C1039 C1038 1.400 . S
C1039 C1040 1.398 . S
C1039 C1045 1.491 . S
C1040 H1031 0.950 . S
C1040 C1039 1.398 . S
C1040 C1041 1.391 . S
C1041 H1029 0.950 . S
C1041 C1037 1.393 . S
C1041 C1040 1.391 . S
C1042 H1032 0.950 . S
C1042 C1043 1.386 . S
C1042 C1044 1.391 . S
C1043 C1042 1.386 . S
C1043 C1047 1.393 . S
C1044 H1033 0.950 . S
C1044 C1042 1.391 . S
C1044 C1045 1.400 . S
C1045 C1039 1.491 . S
C1045 C1044 1.400 . S
C1045 C1046 1.398 . S
C1046 H1034 0.950 . S
C1046 C1045 1.398 . S
C1046 C1047 1.391 . S
C1047 H1035 0.950 . S
C1047 C1043 1.393 . S
C1047 C1046 1.391 . S
H1048 C1056 0.950 . S
H1049 C1061 0.950 . S
H1050 C1058 0.950 . S
H1051 C1060 0.950 . S
H1052 C1062 0.950 . S
H1053 C1064 0.950 . S
H1054 C1066 0.950 . S
H1055 C1067 0.950 . S
C1056 H1048 0.950 . S
C1056 C1057 1.386 . S
C1056 C1058 1.391 . S
C1057 C1056 1.386 . S
C1057 C1061 1.393 . S
C1058 H1050 0.950 . S
C1058 C1056 1.391 . S
C1058 C1059 1.400 . S
C1059 C1058 1.400 . S
C1059 C1060 1.398 . S
C1059 C1065 1.491 . S
C1060 H1051 0.950 . S
C1060 C1059 1.398 . S
C1060 C1061 1.391 . S
C1061 H1049 0.950 . S
C1061 C1057 1.393 . S
C1061 C1060 1.391 . S
C1062 H1052 0.950 . S
C1062 C1063 1.386 . S
C1062 C1064 1.391 . S
C1063 C1062 1.386 . S
C1063 C1067 1.393 . S
C1064 H1053 0.950 . S
C1064 C1062 1.391 . S
C1064 C1065 1.400 . S
C1065 C1059 1.491 . S
C1065 C1064 1.400 . S
C1065 C1066 1.398 . S
C1066 H1054 0.950 . S
C1066 C1065 1.398 . S
C1066 C1067 1.391 . S
C1067 H1055 0.950 . S
C1067 C1063 1.393 . S
C1067 C1066 1.391 . S
H1068 C1076 0.950 . S
H1069 C1081 0.950 . S
H1070 C1078 0.950 . S
H1071 C1080 0.950 . S
H1072 C1082 0.950 . S
H1073 C1084 0.950 . S
H1074 C1086 0.950 . S
H1075 C1087 0.950 . S
C1076 H1068 0.950 . S
C1076 C1077 1.386 1_655 S
C1076 C1078 1.391 . S
C1077 C1076 1.386 1_455 S
C1077 C1081 1.393 . S
C1078 H1070 0.950 . S
C1078 C1076 1.391 . S
C1078 C1079 1.400 1_655 S
C1079 C1078 1.400 1_455 S
C1079 C1080 1.398 . S
C1079 C1085 1.491 1_455 S
C1080 H1071 0.950 . S
C1080 C1079 1.398 . S
C1080 C1081 1.391 . S
C1081 H1069 0.950 . S
C1081 C1077 1.393 . S
C1081 C1080 1.391 . S
C1082 H1072 0.950 . S
C1082 C1083 1.386 1_455 S
C1082 C1084 1.391 . S
C1083 C1082 1.386 1_655 S
C1083 C1087 1.393 . S
C1084 H1073 0.950 . S
C1084 C1082 1.391 . S
C1084 C1085 1.400 1_455 S
C1085 C1079 1.491 1_655 S
C1085 C1084 1.400 1_655 S
C1085 C1086 1.398 . S
C1086 H1074 0.950 . S
C1086 C1085 1.398 . S
C1086 C1087 1.391 . S
C1087 H1075 0.950 . S
C1087 C1083 1.393 . S
C1087 C1086 1.391 . S
H1088 C1096 0.950 . S
H1089 C1101 0.950 . S
H1090 C1098 0.950 . S
H1091 C1100 0.950 . S
H1092 C1102 0.950 . S
H1093 C1104 0.950 . S
H1094 C1106 0.950 . S
H1095 C1107 0.950 . S
C1096 H1088 0.950 . S
C1096 C1097 1.386 . S
C1096 C1098 1.391 . S
C1097 C1096 1.386 . S
C1097 C1101 1.393 1_655 S
C1098 H1090 0.950 . S
C1098 C1096 1.391 . S
C1098 C1099 1.400 . S
C1099 C1098 1.400 . S
C1099 C1100 1.398 1_655 S
C1099 C1105 1.491 1_655 S
C1100 H1091 0.950 . S
C1100 C1099 1.398 1_455 S
C1100 C1101 1.391 . S
C1101 H1089 0.950 . S
C1101 C1097 1.393 1_455 S
C1101 C1100 1.391 . S
C1102 H1092 0.950 . S
C1102 C1103 1.386 . S
C1102 C1104 1.391 . S
C1103 C1102 1.386 . S
C1103 C1107 1.393 1_455 S
C1104 H1093 0.950 . S
C1104 C1102 1.391 . S
C1104 C1105 1.400 . S
C1105 C1099 1.491 1_455 S
C1105 C1104 1.400 . S
C1105 C1106 1.398 1_455 S
C1106 H1094 0.950 . S
C1106 C1105 1.398 1_655 S
C1106 C1107 1.391 . S
C1107 H1095 0.950 . S
C1107 C1103 1.393 1_655 S
C1107 C1106 1.391 . S
H1108 C1116 0.950 . S
H1109 C1121 0.950 . S
H1110 C1118 0.950 . S
H1111 C1120 0.950 . S
H1112 C1122 0.950 . S
H1113 C1124 0.950 . S
H1114 C1126 0.950 . S
H1115 C1127 0.950 . S
C1116 H1108 0.950 . S
C1116 C1117 1.386 . S
C1116 C1118 1.391 . S
C1117 C1116 1.386 . S
C1117 C1121 1.393 . S
C1118 H1110 0.950 . S
C1118 C1116 1.391 . S
C1118 C1119 1.400 . S
C1119 C1118 1.400 . S
C1119 C1120 1.398 . S
C1119 C1125 1.491 . S
C1120 H1111 0.950 . S
C1120 C1119 1.398 . S
C1120 C1121 1.391 . S
C1121 H1109 0.950 . S
C1121 C1117 1.393 . S
C1121 C1120 1.391 . S
C1122 H1112 0.950 . S
C1122 C1123 1.386 . S
C1122 C1124 1.391 . S
C1123 C1122 1.386 . S
C1123 C1127 1.393 . S
C1124 H1113 0.950 . S
C1124 C1122 1.391 . S
C1124 C1125 1.400 . S
C1125 C1119 1.491 . S
C1125 C1124 1.400 . S
C1125 C1126 1.398 . S
C1126 H1114 0.950 . S
C1126 C1125 1.398 . S
C1126 C1127 1.391 . S
C1127 H1115 0.950 . S
C1127 C1123 1.393 . S
C1127 C1126 1.391 . S
H1128 C1136 0.950 . S
H1129 C1141 0.950 . S
H1130 C1138 0.950 . S
H1131 C1140 0.950 . S
H1132 C1142 0.950 . S
H1133 C1144 0.950 . S
H1134 C1146 0.950 . S
H1135 C1147 0.950 . S
C1136 H1128 0.950 . S
C1136 C1137 1.386 . S
C1136 C1138 1.391 . S
C1137 C1136 1.386 . S
C1137 C1141 1.393 . S
C1138 H1130 0.950 . S
C1138 C1136 1.391 . S
C1138 C1139 1.400 . S
C1139 C1138 1.400 . S
C1139 C1140 1.398 . S
C1139 C1145 1.491 . S
C1140 H1131 0.950 . S
C1140 C1139 1.398 . S
C1140 C1141 1.391 . S
C1141 H1129 0.950 . S
C1141 C1137 1.393 . S
C1141 C1140 1.391 . S
C1142 H1132 0.950 . S
C1142 C1143 1.386 . S
C1142 C1144 1.391 . S
C1143 C1142 1.386 . S
C1143 C1147 1.393 . S
C1144 H1133 0.950 . S
C1144 C1142 1.391 . S
C1144 C1145 1.400 . S
C1145 C1139 1.491 . S
C1145 C1144 1.400 . S
C1145 C1146 1.398 . S
C1146 H1134 0.950 . S
C1146 C1145 1.398 . S
C1146 C1147 1.391 . S
C1147 H1135 0.950 . S
C1147 C1143 1.393 . S
C1147 C1146 1.391 . S
H1148 C1156 0.950 . S
H1149 C1161 0.950 . S
H1150 C1158 0.950 . S
H1151 C1160 0.950 . S
H1152 C1162 0.950 . S
H1153 C1164 0.950 . S
H1154 C1166 0.950 . S
H1155 C1167 0.950 . S
C1156 H1148 0.950 . S
C1156 C1157 1.386 . S
C1156 C1158 1.391 . S
C1157 C1156 1.386 . S
C1157 C1161 1.393 . S
C1158 H1150 0.950 . S
C1158 C1156 1.391 . S
C1158 C1159 1.400 . S
C1159 C1158 1.400 . S
C1159 C1160 1.398 . S
C1159 C1165 1.491 1_655 S
C1160 H1151 0.950 . S
C1160 C1159 1.398 . S
C1160 C1161 1.391 . S
C1161 H1149 0.950 . S
C1161 C1157 1.393 . S
C1161 C1160 1.391 . S
C1162 H1152 0.950 . S
C1162 C1163 1.386 . S
C1162 C1164 1.391 . S
C1163 C1162 1.386 . S
C1163 C1167 1.393 . S
C1164 H1153 0.950 . S
C1164 C1162 1.391 . S
C1164 C1165 1.400 . S
C1165 C1159 1.491 1_455 S
C1165 C1164 1.400 . S
C1165 C1166 1.398 . S
C1166 H1154 0.950 . S
C1166 C1165 1.398 . S
C1166 C1167 1.391 . S
C1167 H1155 0.950 . S
C1167 C1163 1.393 . S
C1167 C1166 1.391 . S
H1168 C1176 0.950 . S
H1169 C1181 0.950 . S
H1170 C1178 0.950 . S
H1171 C1180 0.950 . S
H1172 C1182 0.950 . S
H1173 C1184 0.950 . S
H1174 C1186 0.950 . S
H1175 C1187 0.950 . S
C1176 H1168 0.950 . S
C1176 C1177 1.386 . S
C1176 C1178 1.391 . S
C1177 C1176 1.386 . S
C1177 C1181 1.393 1_455 S
C1178 H1170 0.950 . S
C1178 C1176 1.391 . S
C1178 C1179 1.400 . S
C1179 C1178 1.400 . S
C1179 C1180 1.398 1_455 S
C1179 C1185 1.491 1_455 S
C1180 H1171 0.950 . S
C1180 C1179 1.398 1_655 S
C1180 C1181 1.391 . S
C1181 H1169 0.950 . S
C1181 C1177 1.393 1_655 S
C1181 C1180 1.391 . S
C1182 H1172 0.950 . S
C1182 C1183 1.386 . S
C1182 C1184 1.391 . S
C1183 C1182 1.386 . S
C1183 C1187 1.393 1_655 S
C1184 H1173 0.950 . S
C1184 C1182 1.391 . S
C1184 C1185 1.400 . S
C1185 C1179 1.491 1_655 S
C1185 C1184 1.400 . S
C1185 C1186 1.398 1_655 S
C1186 H1174 0.950 . S
C1186 C1185 1.398 1_455 S
C1186 C1187 1.391 . S
C1187 H1175 0.950 . S
C1187 C1183 1.393 1_455 S
C1187 C1186 1.391 . S
H1188 C1196 0.950 . S
H1189 C1201 0.950 . S
H1190 C1198 0.950 . S
H1191 C1200 0.950 . S
H1192 C1202 0.950 . S
H1193 C1204 0.950 . S
H1194 C1206 0.950 . S
H1195 C1207 0.950 . S
C1196 H1188 0.950 . S
C1196 C1197 1.386 . S
C1196 C1198 1.391 . S
C1197 C1196 1.386 . S
C1197 C1201 1.393 . S
C1198 H1190 0.950 . S
C1198 C1196 1.391 . S
C1198 C1199 1.400 . S
C1199 C1198 1.400 . S
C1199 C1200 1.398 . S
C1199 C1205 1.491 . S
C1200 H1191 0.950 . S
C1200 C1199 1.398 . S
C1200 C1201 1.391 . S
C1201 H1189 0.950 . S
C1201 C1197 1.393 . S
C1201 C1200 1.391 . S
C1202 H1192 0.950 . S
C1202 C1203 1.386 . S
C1202 C1204 1.391 . S
C1203 C1202 1.386 . S
C1203 C1207 1.393 . S
C1204 H1193 0.950 . S
C1204 C1202 1.391 . S
C1204 C1205 1.400 . S
C1205 C1199 1.491 . S
C1205 C1204 1.400 . S
C1205 C1206 1.398 . S
C1206 H1194 0.950 . S
C1206 C1205 1.398 . S
C1206 C1207 1.391 . S
C1207 H1195 0.950 . S
C1207 C1203 1.393 . S
C1207 C1206 1.391 . S
H1208 C1216 0.950 . S
H1209 C1221 0.950 1_455 S
H1210 C1218 0.950 . S
H1211 C1220 0.950 . S
H1212 C1222 0.950 . S
H1213 C1224 0.950 . S
H1214 C1226 0.950 . S
H1215 C1227 0.950 1_655 S
C1216 H1208 0.950 . S
C1216 C1217 1.386 . S
C1216 C1218 1.391 . S
C1217 C1216 1.386 . S
C1217 C1221 1.393 . S
C1218 H1210 0.950 . S
C1218 C1216 1.391 . S
C1218 C1219 1.400 . S
C1219 C1218 1.400 . S
C1219 C1220 1.398 1_655 S
C1219 C1225 1.491 1_655 S
C1220 H1211 0.950 . S
C1220 C1219 1.398 1_455 S
C1220 C1221 1.391 1_455 S
C1221 H1209 0.950 1_655 S
C1221 C1217 1.393 . S
C1221 C1220 1.391 1_655 S
C1222 H1212 0.950 . S
C1222 C1223 1.386 . S
C1222 C1224 1.391 . S
C1223 C1222 1.386 . S
C1223 C1227 1.393 . S
C1224 H1213 0.950 . S
C1224 C1222 1.391 . S
C1224 C1225 1.400 . S
C1225 C1219 1.491 1_455 S
C1225 C1224 1.400 . S
C1225 C1226 1.398 1_455 S
C1226 H1214 0.950 . S
C1226 C1225 1.398 1_655 S
C1226 C1227 1.391 1_655 S
C1227 H1215 0.950 1_455 S
C1227 C1223 1.393 . S
C1227 C1226 1.391 1_455 S
H1228 C1236 0.950 . S
H1229 C1241 0.950 . S
H1230 C1238 0.950 . S
H1231 C1240 0.950 . S
H1232 C1242 0.950 . S
H1233 C1244 0.950 . S
H1234 C1246 0.950 . S
H1235 C1247 0.950 . S
C1236 H1228 0.950 . S
C1236 C1237 1.386 . S
C1236 C1238 1.391 . S
C1237 C1236 1.386 . S
C1237 C1241 1.393 . S
C1238 H1230 0.950 . S
C1238 C1236 1.391 . S
C1238 C1239 1.400 . S
C1239 C1238 1.400 . S
C1239 C1240 1.398 . S
C1239 C1245 1.491 . S
C1240 H1231 0.950 . S
C1240 C1239 1.398 . S
C1240 C1241 1.391 . S
C1241 H1229 0.950 . S
C1241 C1237 1.393 . S
C1241 C1240 1.391 . S
C1242 H1232 0.950 . S
C1242 C1243 1.386 . S
C1242 C1244 1.391 . S
C1243 C1242 1.386 . S
C1243 C1247 1.393 . S
C1244 H1233 0.950 . S
C1244 C1242 1.391 . S
C1244 C1245 1.400 . S
C1245 C1239 1.491 . S
C1245 C1244 1.400 . S
C1245 C1246 1.398 . S
C1246 H1234 0.950 . S
C1246 C1245 1.398 . S
C1246 C1247 1.391 . S
C1247 H1235 0.950 . S
C1247 C1243 1.393 . S
C1247 C1246 1.391 . S
H1248 C1256 0.950 . S
H1249 C1261 0.950 . S
H1250 C1258 0.950 . S
H1251 C1260 0.950 . S
H1252 C1262 0.950 . S
H1253 C1264 0.950 . S
H1254 C1266 0.950 . S
H1255 C1267 0.950 . S
C1256 H1248 0.950 . S
C1256 C1257 1.386 . S
C1256 C1258 1.391 . S
C1257 C1256 1.386 . S
C1257 C1261 1.393 . S
C1258 H1250 0.950 . S
C1258 C1256 1.391 . S
C1258 C1259 1.400 . S
C1259 C1258 1.400 . S
C1259 C1260 1.398 . S
C1259 C1265 1.491 . S
C1260 H1251 0.950 . S
C1260 C1259 1.398 . S
C1260 C1261 1.391 . S
C1261 H1249 0.950 . S
C1261 C1257 1.393 . S
C1261 C1260 1.391 . S
C1262 H1252 0.950 . S
C1262 C1263 1.386 . S
C1262 C1264 1.391 . S
C1263 C1262 1.386 . S
C1263 C1267 1.393 . S
C1264 H1253 0.950 . S
C1264 C1262 1.391 . S
C1264 C1265 1.400 . S
C1265 C1259 1.491 . S
C1265 C1264 1.400 . S
C1265 C1266 1.398 . S
C1266 H1254 0.950 . S
C1266 C1265 1.398 . S
C1266 C1267 1.391 . S
C1267 H1255 0.950 . S
C1267 C1263 1.393 . S
C1267 C1266 1.391 . S
H1268 C1276 0.950 . S
H1269 C1281 0.950 . S
H1270 C1278 0.950 . S
H1271 C1280 0.950 . S
H1272 C1282 0.950 . S
H1273 C1284 0.950 . S
H1274 C1286 0.950 . S
H1275 C1287 0.950 . S
C1276 H1268 0.950 . S
C1276 C1277 1.386 1_655 S
C1276 C1278 1.391 . S
C1277 C1276 1.386 1_455 S
C1277 C1281 1.393 . S
C1278 H1270 0.950 . S
C1278 C1276 1.391 . S
C1278 C1279 1.400 1_655 S
C1279 C1278 1.400 1_455 S
C1279 C1280 1.398 . S
C1279 C1285 1.491 1_455 S
C1280 H1271 0.950 . S
C1280 C1279 1.398 . S
C1280 C1281 1.391 . S
C1281 H1269 0.950 . S
C1281 C1277 1.393 . S
C1281 C1280 1.391 . S
C1282 H1272 0.950 . S
C1282 C1283 1.386 1_455 S
C1282 C1284 1.391 . S
C1283 C1282 1.386 1_655 S
C1283 C1287 1.393 . S
C1284 H1273 0.950 . S
C1284 C1282 1.391 . S
C1284 C1285 1.400 1_455 S
C1285 C1279 1.491 1_655 S
C1285 C1284 1.400 1_655 S
C1285 C1286 1.398 . S
C1286 H1274 0.950 . S
C1286 C1285 1.398 . S
C1286 C1287 1.391 . S
C1287 H1275 0.950 . S
C1287 C1283 1.393 . S
C1287 C1286 1.391 . S
H1288 C1296 0.950 . S
H1289 C1301 0.950 . S
H1290 C1298 0.950 . S
H1291 C1300 0.950 . S
H1292 C1302 0.950 . S
H1293 C1304 0.950 . S
H1294 C1306 0.950 . S
H1295 C1307 0.950 . S
C1296 H1288 0.950 . S
C1296 C1297 1.386 . S
C1296 C1298 1.391 . S
C1297 C1296 1.386 . S
C1297 C1301 1.393 . S
C1298 H1290 0.950 . S
C1298 C1296 1.391 . S
C1298 C1299 1.400 . S
C1299 C1298 1.400 . S
C1299 C1300 1.398 . S
C1299 C1305 1.491 . S
C1300 H1291 0.950 . S
C1300 C1299 1.398 . S
C1300 C1301 1.391 . S
C1301 H1289 0.950 . S
C1301 C1297 1.393 . S
C1301 C1300 1.391 . S
C1302 H1292 0.950 . S
C1302 C1303 1.386 . S
C1302 C1304 1.391 . S
C1303 C1302 1.386 . S
C1303 C1307 1.393 . S
C1304 H1293 0.950 . S
C1304 C1302 1.391 . S
C1304 C1305 1.400 . S
C1305 C1299 1.491 . S
C1305 C1304 1.400 . S
C1305 C1306 1.398 . S
C1306 H1294 0.950 . S
C1306 C1305 1.398 . S
C1306 C1307 1.391 . S
C1307 H1295 0.950 . S
C1307 C1303 1.393 . S
C1307 C1306 1.391 . S
H1308 C1316 0.950 . S
H1309 C1321 0.950 . S
H1310 C1318 0.950 . S
H1311 C1320 0.950 . S
H1312 C1322 0.950 . S
H1313 C1324 0.950 . S
H1314 C1326 0.950 . S
H1315 C1327 0.950 . S
C1316 H1308 0.950 . S
C1316 C1317 1.386 . S
C1316 C1318 1.391 . S
C1317 C1316 1.386 . S
C1317 C1321 1.393 . S
C1318 H1310 0.950 . S
C1318 C1316 1.391 . S
C1318 C1319 1.400 . S
C1319 C1318 1.400 . S
C1319 C1320 1.398 1_455 S
C1319 C1325 1.491 1_455 S
C1320 H1311 0.950 . S
C1320 C1319 1.398 1_655 S
C1320 C1321 1.391 1_655 S
C1321 H1309 0.950 . S
C1321 C1317 1.393 . S
C1321 C1320 1.391 1_455 S
C1322 H1312 0.950 . S
C1322 C1323 1.386 . S
C1322 C1324 1.391 . S
C1323 C1322 1.386 . S
C1323 C1327 1.393 . S
C1324 H1313 0.950 . S
C1324 C1322 1.391 . S
C1324 C1325 1.400 . S
C1325 C1319 1.491 1_655 S
C1325 C1324 1.400 . S
C1325 C1326 1.398 1_655 S
C1326 H1314 0.950 . S
C1326 C1325 1.398 1_455 S
C1326 C1327 1.391 1_455 S
C1327 H1315 0.950 . S
C1327 C1323 1.393 . S
C1327 C1326 1.391 1_655 S
C537 C186 1.040 . S
C543 C18 1.035 . S
C557 C153 1.048 . S
C563 C51 1.050 . S
C577 C84 1.043 . S
C583 C252 1.042 . S
C597 C117 1.042 . S
C603 C219 1.048 . S
C617 C150 1.058 . S
C623 C54 1.058 . S
C637 C183 1.035 . S
C643 C21 1.037 . S
C657 C120 1.060 . S
C663 C216 1.060 . S
C677 C249 1.053 . S
C683 C87 1.058 . S
C697 C282 1.059 . S
C703 C450 1.059 . S
C717 C315 1.059 . S
C723 C417 1.059 . S
C737 C348 1.058 . S
C743 C516 1.061 . S
C757 C381 1.054 . S
C763 C483 1.052 . S
C777 C414 1.053 . S
C783 C318 1.058 . S
C797 C447 1.057 . S
C803 C285 1.060 . S
C817 C384 1.061 . S
C823 C480 1.060 . S
C837 C351 1.061 . S
C843 C513 1.060 . S
C857 N13 1.677 . S
C863 N46 1.671 . S
C877 N79 1.678 . S
C883 N112 1.684 . S
C897 N178 1.669 . S
C903 N145 1.684 . S
C917 N244 1.681 . S
C923 N211 1.669 . S
C937 N310 1.669 . S
C943 N277 1.684 . S
C957 N376 1.680 . S
C963 N343 1.670 . S
C977 N409 1.676 . S
C983 N442 1.672 . S
C997 N475 1.669 . S
C1003 N508 1.682 . S
C1017 N299 1.541 . S
C1023 N2 1.540 . S
C1037 N35 1.538 . S
C1043 N266 1.542 . S
C1057 N68 1.521 . S
C1063 N365 1.532 . S
C1077 N332 1.542 . S
C1083 N101 1.525 . S
C1097 N134 1.544 . S
C1103 N431 1.530 . S
C1117 N167 1.539 . S
C1123 N398 1.522 . S
C1137 N200 1.539 . S
C1143 N497 1.541 . S
C1157 N464 1.527 . S
C1163 N233 1.523 . S
C1177 C7 1.454 . S
C1183 C106 1.458 . S
C1197 C40 1.458 . S
C1203 C73 1.454 . S
C1217 C139 1.462 . S
C1223 C238 1.458 . S
C1237 C172 1.460 . S
C1243 C205 1.463 . S
C1257 C370 1.457 . S
C1263 C271 1.461 . S
C1277 C337 1.454 . S
C1283 C304 1.451 . S
C1297 C403 1.449 . S
C1303 C502 1.451 . S
C1317 C436 1.449 . S
C1323 C469 1.448 . S
