# Generated by pormake.
# Topology qtz-x, (6)-cn, num edge types: 1
# Building blocks:
#     Node 0, Type 0, BuildingBlock: LEVNOQ01_clean_sbu_1, # of connection points: 6
#     Node 1, Type 0, BuildingBlock: LEVNOQ01_clean_sbu_1, # of connection points: 6
#     Node 2, Type 0, BuildingBlock: LEVNOQ01_clean_sbu_1, # of connection points: 6
#     Edge 3, Type (0, 0), BuildingBlock: UVAHIK_clean_linker_0, # of connection points: 2
#     Edge 4, Type (0, 0), BuildingBlock: UVAHIK_clean_linker_0, # of connection points: 2
#     Edge 5, Type (0, 0), BuildingBlock: UVAHIK_clean_linker_0, # of connection points: 2
#     Edge 6, Type (0, 0), BuildingBlock: UVAHIK_clean_linker_0, # of connection points: 2
#     Edge 7, Type (0, 0), BuildingBlock: UVAHIK_clean_linker_0, # of connection points: 2
#     Edge 8, Type (0, 0), BuildingBlock: UVAHIK_clean_linker_0, # of connection points: 2
#     Edge 9, Type (0, 0), BuildingBlock: UVAHIK_clean_linker_0, # of connection points: 2
#     Edge 10, Type (0, 0), BuildingBlock: UVAHIK_clean_linker_0, # of connection points: 2
#     Edge 11, Type (0, 0), BuildingBlock: UVAHIK_clean_linker_0, # of connection points: 2
# Relax obj value: 0.265
# Max RMSD: 0.265
# Mean RMSD: 0.262
data_MOF--net-qtz-x--node1-LEVNOQ01_clean_sbu_1--edge1-UVAHIK_clean_linker_0
_symmetry_space_group_name_H-M    P1
_symmetry_Int_Tables_number       1
_symmetry_cell_setting            triclinic
loop_
_symmetry_equiv_pos_as_xyz
'x, y, z'
_cell_length_a     19.841291
_cell_length_b     19.876007
_cell_length_c     49.351001
_cell_angle_alpha  94.848379
_cell_angle_beta   94.774123
_cell_angle_gamma 120.25604
loop_
_atom_site_label
_atom_site_type_symbol
_atom_site_fract_x
_atom_site_fract_y
_atom_site_fract_z
_atom_type_partial_charge
O0 O 0.92036 0.35477 0.08762 0.0
Mg1 Mg 0.03237 0.37061 0.10243 0.0
O2 O 0.91002 0.42865 0.12191 0.0
Mg3 Mg 0.0138 0.46751 0.15775 0.0
O4 O 0.02966 0.36874 0.14262 0.0
O5 O 0.04344 0.28054 0.11782 0.0
O6 O 0.11976 0.5059 0.1924 0.0
O7 O 0.9236 0.36746 0.18173 0.0
Mg8 Mg 0.96732 0.50034 0.19911 0.0
O9 O 0.00348 0.57994 0.17218 0.0
O10 O 0.04722 0.48373 0.22538 0.0
O11 O 0.84744 0.41225 0.19157 0.0
O12 O 0.98108 0.60286 0.21517 0.0
C13 C 0.14056 0.54859 0.11183 0.0
C14 C 0.88434 0.386 0.09819 0.0
C15 C 0.03615 0.30763 0.14132 0.0
C16 C 0.11165 0.49824 0.2175 0.0
C17 C 0.85927 0.35563 0.18948 0.0
C18 C -0.00081 0.62537 0.19177 0.0
O19 O 0.12996 0.48317 0.10083 0.0
O20 O 0.10107 0.55298 0.13043 0.0
O21 O 0.52 0.94917 0.42529 0.0
Mg22 Mg 0.46859 0.90459 0.46094 0.0
O23 O 0.5957 0.06892 0.44809 0.0
Mg24 Mg 0.57902 0.01852 0.48901 0.0
O25 O 0.43891 0.97437 0.48209 0.0
O26 O 0.35362 0.86282 0.4532 0.0
O27 O 0.55825 0.96278 0.52936 0.0
O28 O 0.58299 0.13073 0.5127 0.0
Mg29 Mg 0.72712 0.12003 0.53498 0.0
O30 O 0.71339 0.0703 0.49601 0.0
O31 O 0.66664 0.03261 0.55988 0.0
O32 O 0.70312 0.21055 0.53551 0.0
O33 O 0.83036 0.14011 0.52271 0.0
C34 C 0.54421 0.83852 0.46585 0.0
C35 C 0.56851 0.0219 0.42543 0.0
C36 C 0.36759 0.92387 0.46959 0.0
C37 C 0.59629 0.9753 0.55322 0.0
C38 C 0.63428 0.19619 0.52758 0.0
C39 C 0.78899 0.09883 0.49949 0.0
O40 O 0.4835 0.81673 0.47732 0.0
O41 O 0.58855 0.91234 0.46611 0.0
O42 O 0.38241 0.65857 0.85268 0.0
Mg43 Mg 0.45964 0.61493 0.85816 0.0
O44 O 0.32656 0.53263 0.85114 0.0
Mg45 Mg 0.41448 0.52306 0.82155 0.0
O46 O 0.54492 0.64342 0.83432 0.0
O47 O 0.56227 0.70644 0.87668 0.0
O48 O 0.47856 0.49706 0.7876 0.0
O49 O 0.38087 0.59003 0.79151 0.0
Mg50 Mg 0.28171 0.41068 0.7672 0.0
O51 O 0.30273 0.40759 0.80736 0.0
O52 O 0.3832 0.42125 0.75224 0.0
O53 O 0.26786 0.50847 0.76425 0.0
O54 O 0.19846 0.30836 0.78104 0.0
C55 C 0.44733 0.47353 0.87754 0.0
C56 C 0.32479 0.59526 0.85725 0.0
C57 C 0.59036 0.69841 0.85488 0.0
C58 C 0.45513 0.45812 0.76323 0.0
C59 C 0.32412 0.57779 0.77349 0.0
C60 C 0.24051 0.3389 0.80492 0.0
O61 O 0.4387 0.53044 0.88568 0.0
O62 O 0.45008 0.45943 0.85213 0.0
C63 C 0.96568 0.70964 0.16637 0.0
C64 C 0.01208 0.70268 0.1876 0.0
C65 C 0.96652 0.78026 0.16596 0.0
C66 C 0.02387 0.96532 0.21235 0.0
H67 H -0.01376 0.03098 0.14382 0.0
C68 C 0.09464 0.26719 0.17762 0.0
C69 C 0.02759 0.26362 0.16423 0.0
C70 C 0.08724 0.20289 0.18947 0.0
C71 C -0.00408 0.01256 0.1631 0.0
H72 H 0.09891 0.76339 0.22402 0.0
H73 H 0.10534 0.88855 0.22223 0.0
H74 H -0.00851 0.91128 0.14274 0.0
H75 H 0.90029 0.19583 0.15513 0.0
H76 H 0.88739 0.08253 0.17543 0.0
H77 H 0.03326 0.07084 0.23234 0.0
C78 C 0.06521 0.83914 0.20666 0.0
C79 C -0.00133 0.94388 0.16254 0.0
C80 C 0.06265 0.768 0.20746 0.0
C81 C 0.95252 0.19985 0.16577 0.0
C82 C 0.94514 0.13516 0.17728 0.0
C83 C 0.02285 0.03526 0.21284 0.0
C84 C 0.01527 0.84554 0.18644 0.0
C85 C 0.01266 0.91916 0.18714 0.0
C86 C 0.01286 0.13455 0.18753 0.0
C87 C 0.00848 0.05881 0.18818 0.0
H88 H 0.92528 0.6592 0.15115 0.0
H89 H 0.92641 0.78228 0.15025 0.0
H90 H 0.03317 0.94749 0.23176 0.0
H91 H 0.15303 0.31551 0.17615 0.0
H92 H 0.1401 0.20291 0.19704 0.0
C93 C 0.31661 0.01521 0.47797 0.0
C94 C 0.30224 0.93856 0.47144 0.0
C95 C 0.25438 0.02951 0.47456 0.0
C96 C 0.03861 0.93208 0.46872 0.0
H97 H 0.06775 0.1109 0.43394 0.0
C98 C 0.79846 0.00462 0.46572 0.0
C99 C 0.82923 0.08179 0.47875 0.0
C100 C 0.84839 0.98314 0.45434 0.0
C101 C 0.05857 0.06042 0.44351 0.0
H102 H 0.21142 0.81636 0.45763 0.0
H103 H 0.10365 0.84124 0.45196 0.0
H104 H 0.17474 0.08337 0.43943 0.0
H105 H 0.93207 0.19935 0.4869 0.0
H106 H 0.01896 0.16245 0.46747 0.0
H107 H 0.92432 0.91071 0.47402 0.0
C108 C 0.16253 0.89033 0.45955 0.0
C109 C 0.12 0.04515 0.44687 0.0
C110 C 0.22439 0.87617 0.4628 0.0
C111 C 0.90735 0.13921 0.4771 0.0
C112 C 0.95708 0.11798 0.46579 0.0
C113 C 0.9775 0.94751 0.46551 0.0
C114 C 0.17699 0.96724 0.46484 0.0
C115 C 0.11111 0.98182 0.46006 0.0
C116 C 0.92946 0.03869 0.45604 0.0
C117 C -0.01263 0.01301 0.4535 0.0
H118 H 0.3761 0.06443 0.48449 0.0
H119 H 0.26686 0.08927 0.47923 0.0
H120 H 0.03018 0.88302 0.47906 0.0
H121 H 0.73857 0.95932 0.46693 0.0
H122 H 0.82506 0.92183 0.44641 0.0
C123 C 0.70494 0.7752 0.82982 0.0
C124 C 0.67501 0.75246 0.85436 0.0
C125 C 0.78374 0.83479 0.83063 0.0
C126 C 0.93955 0.00733 0.8779 0.0
H127 H 0.06589 0.02032 0.8206 0.0
C128 C 0.23559 0.23473 0.82967 0.0
C129 C 0.21693 0.29352 0.82764 0.0
C130 C 0.18804 0.16934 0.84207 0.0
C131 C 0.03245 0.01713 0.83721 0.0
H132 H 0.70497 0.7686 0.89868 0.0
H133 H 0.84185 0.87038 0.89998 0.0
H134 H 0.94381 0.89745 0.82183 0.0
H135 H 0.14042 0.33562 0.83906 0.0
H136 H 0.05734 0.22207 0.86086 0.0
H137 H 0.02716 0.12761 0.89286 0.0
C138 C 0.80453 0.84471 0.88023 0.0
C139 C 0.96177 0.94701 0.83759 0.0
C140 C 0.72611 0.78622 0.87944 0.0
C141 C 0.15626 0.29119 0.84087 0.0
C142 C 0.10864 0.2259 0.85326 0.0
C143 C 0.01025 0.07739 0.87753 0.0
C144 C 0.83368 0.8716 0.85598 0.0
C145 C 0.91343 0.94207 0.85746 0.0
C146 C 0.12093 0.16193 0.8523 0.0
C147 C 0.05623 0.08385 0.85668 0.0
H148 H 0.66669 0.74995 0.81024 0.0
H149 H 0.80436 0.85457 0.81156 0.0
H150 H 0.90345 0.00581 0.8934 0.0
H151 H 0.28179 0.23537 0.81921 0.0
H152 H 0.19973 0.1216 0.8415 0.0
C153 C 0.28881 0.67247 0.88918 0.0
C154 C 0.27493 0.59881 0.87735 0.0
C155 C 0.26473 0.68067 0.91443 0.0
C156 C 0.24102 0.58507 0.97545 0.0
H157 H 0.19288 0.73922 0.00648 0.0
C158 C 0.25516 0.62929 0.08916 0.0
C159 C 0.18284 0.61461 0.09664 0.0
C160 C 0.27546 0.65363 0.06384 0.0
C161 C 0.20669 0.69623 -0.00193 0.0
H162 H 0.21379 0.47411 0.88041 0.0
H163 H 0.16957 0.48803 0.92402 0.0
H164 H 0.18937 0.71594 0.9566 0.0
H165 H 0.08122 0.62563 0.08594 0.0
H166 H 0.11559 0.66659 0.04152 0.0
H167 H 0.25684 0.56359 0.01632 0.0
C168 C 0.20205 0.54002 0.91437 0.0
C169 C 0.20451 0.68276 0.96955 0.0
C170 C 0.22669 0.53188 0.88922 0.0
C171 C 0.13769 0.63718 0.08067 0.0
C172 C 0.15711 0.65997 0.05502 0.0
C173 C 0.2434 0.59857 0.00372 0.0
C174 C 0.22559 0.61519 0.92812 0.0
C175 C 0.22131 0.62662 0.95794 0.0
C176 C 0.22273 0.66178 0.04546 0.0
C177 C 0.22667 0.65448 0.01548 0.0
H178 H 0.32483 0.72516 0.88032 0.0
H179 H 0.28327 0.7393 0.92429 0.0
H180 H 0.25615 0.54276 0.96738 0.0
H181 H 0.29084 0.61217 0.10115 0.0
H182 H 0.32797 0.65732 0.05741 0.0
C183 C 0.6402 0.12998 0.39731 0.0
C184 C 0.59463 0.04943 0.39927 0.0
C185 C 0.66489 0.15429 0.37231 0.0
C186 C 0.61773 0.08739 0.29772 0.0
H187 H 0.83398 0.2516 0.29648 0.0
C188 C 0.8505 0.25414 0.21762 0.0
C189 C 0.81333 0.28902 0.20421 0.0
C190 C 0.81748 0.21022 0.23857 0.0
C191 C 0.77367 0.20498 0.29653 0.0
H192 H 0.54055 0.93121 0.37671 0.0
H193 H 0.58381 0.97377 0.33346 0.0
H194 H 0.79081 0.21058 0.34025 0.0
H195 H 0.70857 0.29788 0.19978 0.0
H196 H 0.64987 0.21918 0.23591 0.0
H197 H 0.60051 0.0832 0.25396 0.0
C198 C 0.59922 0.01808 0.35099 0.0
C199 C 0.74875 0.18235 0.32157 0.0
C200 C 0.57465 -0.00616 0.37585 0.0
C201 C 0.73849 0.27181 0.20989 0.0
C202 C 0.70494 0.22687 0.23054 0.0
C203 C 0.64245 0.11079 0.27269 0.0
C204 C 0.64441 0.09844 0.34893 0.0
C205 C 0.67055 0.12336 0.32242 0.0
C206 C 0.74624 0.19937 0.24598 0.0
C207 C 0.72067 0.16964 0.27191 0.0
H208 H 0.65647 0.17409 0.415 0.0
H209 H 0.69927 0.21673 0.37119 0.0
H210 H 0.55692 0.0421 0.29783 0.0
H211 H 0.90839 0.26668 0.21379 0.0
H212 H 0.84985 0.18871 0.25006 0.0
C213 C 0.26901 0.62883 0.73893 0.0
C214 C 0.33188 0.64201 0.75844 0.0
C215 C 0.28251 0.67673 0.71847 0.0
C216 C 0.43604 0.85495 0.69306 0.0
H217 H 0.35455 0.71849 0.62274 0.0
C218 C 0.59883 0.94081 0.60056 0.0
C219 C 0.55549 0.92962 0.57487 0.0
C220 C 0.56041 0.90914 0.62267 0.0
C221 C 0.37671 0.75763 0.64212 0.0
H222 H 0.45589 0.72181 0.77397 0.0
H223 H 0.47958 0.80472 0.73827 0.0
H224 H 0.30365 0.66527 0.66406 0.0
H225 H 0.43758 0.87271 0.55189 0.0
H226 H 0.37028 0.81626 0.59072 0.0
H227 H 0.51174 0.94634 0.67115 0.0
C228 C 0.41982 0.75743 0.73862 0.0
C229 C 0.34729 0.72737 0.66584 0.0
C230 C 0.40627 0.7097 0.75915 0.0
C231 C 0.47272 0.88227 0.5714 0.0
C232 C 0.43414 0.85028 0.59363 0.0
C233 C 0.46561 0.88508 0.66937 0.0
C234 C 0.35907 0.73865 0.71716 0.0
C235 C 0.3785 0.77507 0.69171 0.0
C236 C 0.47772 0.86536 0.61966 0.0
C237 C 0.43816 0.83602 0.64384 0.0
H238 H 0.21057 0.57789 0.73813 0.0
H239 H 0.23408 0.66209 0.70263 0.0
H240 H 0.4603 0.89348 0.71258 0.0
H241 H 0.66265 0.97624 0.6039 0.0
H242 H 0.59557 0.91976 0.64229 0.0
C243 C 0.5221 0.41237 0.89565 0.0
C244 C 0.46497 0.43329 0.89839 0.0
C245 C 0.55239 0.3921 0.91814 0.0
C246 C 0.57353 0.42152 -0.00528 0.0
H247 H 0.66905 0.29384 0.98696 0.0
C248 C 0.8053 0.44254 0.0797 0.0
C249 C 0.81537 0.37782 0.08091 0.0
C250 C 0.75029 0.4396 0.05916 0.0
C251 C 0.64152 0.32859 0.98979 0.0
H252 H 0.38968 0.44294 0.92586 0.0
H253 H 0.43862 0.40306 0.96448 0.0
H254 H 0.59191 0.29887 0.94734 0.0
H255 H 0.77186 0.25732 0.06313 0.0
H256 H 0.67275 0.25016 0.02852 0.0
H257 H 0.62086 0.44911 0.03737 0.0
C258 C 0.46318 0.40575 0.94554 0.0
C259 C 0.59819 0.33257 0.96677 0.0
C260 C 0.43422 0.42759 0.92328 0.0
C261 C 0.76568 0.30833 0.06251 0.0
C262 C 0.70953 0.3047 0.04242 0.0
C263 C 0.61574 0.41647 0.01784 0.0
C264 C 0.52506 0.39091 0.94371 0.0
C265 C 0.56476 0.38028 0.96874 0.0
C266 C 0.70305 0.37125 0.0397 0.0
C267 C 0.65169 0.37111 0.01566 0.0
H268 H 0.5475 0.4172 0.87679 0.0
H269 H 0.6004 0.38188 0.91581 0.0
H270 H 0.54994 0.45994 -0.0028 0.0
H271 H 0.84353 0.49717 0.09344 0.0
H272 H 0.74804 0.49249 0.05773 0.0
C273 C 0.2566 0.56383 0.23524 0.0
C274 C 0.17758 0.51246 0.23829 0.0
C275 C 0.31718 0.5876 0.25726 0.0
C276 C 0.36326 0.54526 0.32647 0.0
H277 H 0.49122 0.77228 0.34481 0.0
C278 C 0.47696 0.70572 0.43709 0.0
C279 C 0.5404 0.7841 0.4423 0.0
C280 C 0.45357 0.66305 0.41061 0.0
C281 C 0.45791 0.70871 0.33985 0.0
H282 H 0.10075 0.44102 0.26598 0.0
H283 H 0.20572 0.4814 0.30399 0.0
H284 H 0.41023 0.7141 0.30011 0.0
H285 H 0.63624 0.87443 0.42451 0.0
H286 H 0.59705 0.79918 0.3787 0.0
H287 H 0.40893 0.5399 0.3666 0.0
C288 C 0.22138 0.50387 0.2848 0.0
C289 C 0.4111 0.67528 0.31409 0.0
C290 C 0.16102 0.48112 0.26304 0.0
C291 C 0.58649 0.81459 0.42129 0.0
C292 C 0.56326 0.77174 0.39481 0.0
C293 C 0.41056 0.57866 0.35218 0.0
C294 C 0.29994 0.55931 0.28254 0.0
C295 C 0.36102 0.59328 0.30746 0.0
C296 C 0.49363 0.69734 0.38873 0.0
C297 C 0.45637 0.66099 0.35964 0.0
H298 H 0.27116 0.58902 0.21643 0.0
H299 H 0.37722 0.62994 0.2548 0.0
H300 H 0.32623 0.48178 0.32182 0.0
H301 H 0.44044 0.6799 0.45278 0.0
H302 H 0.39982 0.60594 0.40693 0.0
C303 C 0.53091 0.51694 0.7261 0.0
C304 C 0.51145 0.46298 0.7449 0.0
C305 C 0.55602 0.50429 0.70156 0.0
C306 C 0.52069 0.40666 0.64467 0.0
H307 H 0.68449 0.3589 0.63447 0.0
C308 C 0.53692 0.21709 0.5505 0.0
C309 C 0.61151 0.24862 0.54191 0.0
C310 C 0.52588 0.25739 0.57282 0.0
C311 C 0.63883 0.37264 0.63705 0.0
H312 H 0.50677 0.35612 0.75372 0.0
H313 H 0.55489 0.33599 0.71132 0.0
H314 H 0.67363 0.40444 0.68076 0.0
H315 H 0.72955 0.35134 0.54749 0.0
H316 H 0.71022 0.4206 0.58638 0.0
H317 H 0.48352 0.37104 0.60109 0.0
C318 C 0.55041 0.38786 0.71555 0.0
C319 C 0.63259 0.39838 0.66347 0.0
C320 C 0.5238 0.39976 0.73991 0.0
C321 C 0.67156 0.32514 0.55379 0.0
C322 C 0.66086 0.36465 0.5762 0.0
C323 C 0.52579 0.37912 0.6183 0.0
C324 C 0.56293 0.43791 0.69559 0.0
C325 C 0.57345 0.4156 0.66753 0.0
C326 C 0.58933 0.32931 0.5868 0.0
C327 C 0.58494 0.36191 0.61428 0.0
H328 H 0.51971 0.56487 0.72921 0.0
H329 H 0.56568 0.54385 0.68655 0.0
H330 H 0.47392 0.41866 0.64735 0.0
H331 H 0.48969 0.15813 0.54193 0.0
H332 H 0.46999 0.22917 0.58063 0.0
loop_
_geom_bond_atom_site_label_1
_geom_bond_atom_site_label_2
_geom_bond_distance
_geom_bond_site_symmetry_2
_ccdc_geom_bond_type
O0 Mg1 1.990 1_655 S
O0 C14 1.253 . S
Mg1 O0 1.990 1_455 S
Mg1 O4 2.180 . S
Mg1 O5 2.117 1_455 S
Mg1 O19 2.030 . S
O2 Mg3 2.072 1_655 S
O2 C14 1.260 . S
Mg3 O2 2.072 1_455 S
Mg3 O4 2.099 . S
Mg3 O6 2.079 . S
Mg3 O7 2.072 1_455 S
Mg3 O9 2.099 . S
Mg3 O20 2.079 . S
O4 Mg1 2.180 . S
O4 Mg3 2.099 . S
O4 C15 1.279 1_455 S
O5 Mg1 2.117 1_655 S
O5 C15 1.250 . S
O6 Mg3 2.079 . S
O6 C16 1.264 . S
O7 Mg3 2.072 1_655 S
O7 C17 1.260 . S
Mg8 O9 2.180 . S
Mg8 O10 2.030 . S
Mg8 O11 1.990 1_455 S
Mg8 O12 2.117 1_455 S
O9 Mg3 2.099 . S
O9 Mg8 2.180 . S
O9 C18 1.279 1_455 S
O10 Mg8 2.030 . S
O10 C16 1.248 . S
O11 Mg8 1.990 1_655 S
O11 C17 1.253 . S
O12 Mg8 2.117 1_655 S
O12 C18 1.250 . S
C13 O19 1.248 . S
C13 O20 1.264 . S
C14 O0 1.253 . S
C14 O2 1.260 . S
C15 O4 1.279 1_655 S
C15 O5 1.250 . S
C16 O6 1.264 . S
C16 O10 1.248 . S
C17 O7 1.260 . S
C17 O11 1.253 . S
C18 O9 1.279 1_655 S
C18 O12 1.250 . S
O19 Mg1 2.030 . S
O19 C13 1.248 . S
O20 Mg3 2.079 . S
O20 C13 1.264 . S
O21 Mg22 1.990 . S
O21 C35 1.253 . S
Mg22 O21 1.990 . S
Mg22 O25 2.180 1_545 S
Mg22 O26 2.117 . S
Mg22 O40 2.030 1_545 S
O23 Mg24 2.072 . S
O23 C35 1.260 . S
Mg24 O23 2.072 . S
Mg24 O25 2.099 1_545 S
Mg24 O27 2.079 1_545 S
Mg24 O28 2.072 . S
Mg24 O30 2.099 . S
Mg24 O41 2.079 1_545 S
O25 Mg22 2.180 1_565 S
O25 Mg24 2.099 1_565 S
O25 C36 1.279 1_565 S
O26 Mg22 2.117 . S
O26 C36 1.250 . S
O27 Mg24 2.079 1_565 S
O27 C37 1.264 . S
O28 Mg24 2.072 . S
O28 C38 1.260 . S
Mg29 O30 2.180 . S
Mg29 O31 2.030 1_545 S
Mg29 O32 1.990 . S
Mg29 O33 2.117 . S
O30 Mg24 2.099 . S
O30 Mg29 2.180 . S
O30 C39 1.279 . S
O31 Mg29 2.030 1_565 S
O31 C37 1.248 . S
O32 Mg29 1.990 . S
O32 C38 1.253 . S
O33 Mg29 2.117 . S
O33 C39 1.250 . S
C34 O40 1.248 . S
C34 O41 1.264 . S
C35 O21 1.253 . S
C35 O23 1.260 . S
C36 O25 1.279 1_545 S
C36 O26 1.250 . S
C37 O27 1.264 . S
C37 O31 1.248 . S
C38 O28 1.260 . S
C38 O32 1.253 . S
C39 O30 1.279 . S
C39 O33 1.250 . S
O40 Mg22 2.030 1_565 S
O40 C34 1.248 . S
O41 Mg24 2.079 1_565 S
O41 C34 1.264 . S
O42 Mg43 1.990 . S
O42 C56 1.253 . S
Mg43 O42 1.990 . S
Mg43 O46 2.180 . S
Mg43 O47 2.117 . S
Mg43 O61 2.030 . S
O44 Mg45 2.072 . S
O44 C56 1.260 . S
Mg45 O44 2.072 . S
Mg45 O46 2.099 . S
Mg45 O48 2.079 . S
Mg45 O49 2.072 . S
Mg45 O51 2.099 . S
Mg45 O62 2.079 . S
O46 Mg43 2.180 . S
O46 Mg45 2.099 . S
O46 C57 1.279 . S
O47 Mg43 2.117 . S
O47 C57 1.250 . S
O48 Mg45 2.079 . S
O48 C58 1.264 . S
O49 Mg45 2.072 . S
O49 C59 1.260 . S
Mg50 O51 2.180 . S
Mg50 O52 2.030 . S
Mg50 O53 1.990 . S
Mg50 O54 2.117 . S
O51 Mg45 2.099 . S
O51 Mg50 2.180 . S
O51 C60 1.279 . S
O52 Mg50 2.030 . S
O52 C58 1.248 . S
O53 Mg50 1.990 . S
O53 C59 1.253 . S
O54 Mg50 2.117 . S
O54 C60 1.250 . S
C55 O61 1.248 . S
C55 O62 1.264 . S
C56 O42 1.253 . S
C56 O44 1.260 . S
C57 O46 1.279 . S
C57 O47 1.250 . S
C58 O48 1.264 . S
C58 O52 1.248 . S
C59 O49 1.260 . S
C59 O53 1.253 . S
C60 O51 1.279 . S
C60 O54 1.250 . S
O61 Mg43 2.030 . S
O61 C55 1.248 . S
O62 Mg45 2.079 . S
O62 C55 1.264 . S
C63 C64 1.349 . S
C63 C65 1.327 . S
C63 H88 0.950 . S
C64 C63 1.349 . S
C64 C80 1.349 1_655 S
C65 C63 1.327 . S
C65 C84 1.429 . S
C65 H89 0.950 . S
C66 C83 1.574 1_565 S
C66 C85 1.368 1_455 S
C66 H90 0.949 . S
H67 C71 0.949 . S
C68 C69 1.349 1_455 S
C68 C70 1.327 . S
C68 H91 0.950 . S
C69 C68 1.349 1_655 S
C69 C81 1.349 . S
C70 C68 1.327 . S
C70 C86 1.429 1_455 S
C70 H92 0.950 . S
C71 H67 0.949 . S
C71 C79 1.574 . S
C71 C87 1.368 1_565 S
H72 C80 0.950 . S
H73 C78 0.950 . S
H74 C79 0.949 . S
H75 C81 0.950 . S
H76 C82 0.950 . S
H77 C83 0.949 . S
C78 H73 0.950 . S
C78 C80 1.327 . S
C78 C84 1.429 1_455 S
C79 C71 1.574 . S
C79 H74 0.949 . S
C79 C85 1.368 . S
C80 C64 1.349 1_455 S
C80 H72 0.950 . S
C80 C78 1.327 . S
C81 C69 1.349 . S
C81 H75 0.950 . S
C81 C82 1.327 . S
C82 H76 0.950 . S
C82 C81 1.327 . S
C82 C86 1.429 . S
C83 C66 1.574 1_545 S
C83 H77 0.949 . S
C83 C87 1.368 1_455 S
C84 C65 1.429 . S
C84 C78 1.429 1_655 S
C84 C85 1.523 . S
C85 C66 1.368 1_655 S
C85 C79 1.368 . S
C85 C84 1.523 . S
C86 C70 1.429 1_655 S
C86 C82 1.429 . S
C86 C87 1.523 . S
C87 C71 1.368 1_545 S
C87 C83 1.368 1_655 S
C87 C86 1.523 . S
H88 C63 0.950 . S
H89 C65 0.950 . S
H90 C66 0.949 . S
H91 C68 0.950 . S
H92 C70 0.950 . S
C93 C94 1.349 . S
C93 C95 1.327 . S
C93 H118 0.950 . S
C94 C93 1.349 . S
C94 C110 1.349 1_545 S
C95 C93 1.327 . S
C95 C114 1.429 . S
C95 H119 0.950 . S
C96 C113 1.574 1_455 S
C96 C115 1.368 1_565 S
C96 H120 0.949 . S
H97 C101 0.949 . S
C98 C99 1.349 1_565 S
C98 C100 1.327 . S
C98 H121 0.950 . S
C99 C98 1.349 1_545 S
C99 C111 1.349 . S
C100 C98 1.327 . S
C100 C116 1.429 1_565 S
C100 H122 0.950 . S
C101 H97 0.949 . S
C101 C109 1.574 . S
C101 C117 1.368 1_455 S
H102 C110 0.950 . S
H103 C108 0.950 . S
H104 C109 0.949 . S
H105 C111 0.950 . S
H106 C112 0.950 . S
H107 C113 0.949 . S
C108 H103 0.950 . S
C108 C110 1.327 . S
C108 C114 1.429 1_565 S
C109 C101 1.574 . S
C109 H104 0.949 . S
C109 C115 1.368 . S
C110 C94 1.349 1_565 S
C110 H102 0.950 . S
C110 C108 1.327 . S
C111 C99 1.349 . S
C111 H105 0.950 . S
C111 C112 1.327 . S
C112 H106 0.950 . S
C112 C111 1.327 . S
C112 C116 1.429 . S
C113 C96 1.574 1_655 S
C113 H107 0.949 . S
C113 C117 1.368 1_565 S
C114 C95 1.429 . S
C114 C108 1.429 1_545 S
C114 C115 1.523 . S
C115 C96 1.368 1_545 S
C115 C109 1.368 . S
C115 C114 1.523 . S
C116 C100 1.429 1_545 S
C116 C112 1.429 . S
C116 C117 1.523 . S
C117 C101 1.368 1_655 S
C117 C113 1.368 1_545 S
C117 C116 1.523 . S
H118 C93 0.950 . S
H119 C95 0.950 . S
H120 C96 0.949 . S
H121 C98 0.950 . S
H122 C100 0.950 . S
C123 C124 1.349 . S
C123 C125 1.327 . S
C123 H148 0.950 . S
C124 C123 1.349 . S
C124 C140 1.349 . S
C125 C123 1.327 . S
C125 C144 1.429 . S
C125 H149 0.950 . S
C126 C143 1.579 1_655 S
C126 C145 1.371 1_545 S
C126 H150 0.942 1_545 S
H127 C131 0.949 . S
C128 C129 1.349 . S
C128 C130 1.327 . S
C128 H151 0.950 . S
C129 C128 1.349 . S
C129 C141 1.349 . S
C130 C128 1.327 . S
C130 C146 1.429 . S
C130 H152 0.950 . S
C131 H127 0.949 . S
C131 C139 1.574 . S
C131 C147 1.368 1_655 S
H132 C140 0.950 . S
H133 C138 0.950 . S
H134 C139 0.949 . S
H135 C141 0.950 . S
H136 C142 0.950 . S
H137 C143 0.949 . S
C138 H133 0.950 . S
C138 C140 1.327 . S
C138 C144 1.429 . S
C139 C131 1.574 . S
C139 H134 0.949 . S
C139 C145 1.368 1_545 S
C140 C124 1.349 . S
C140 H132 0.950 . S
C140 C138 1.327 . S
C141 C129 1.349 . S
C141 H135 0.950 . S
C141 C142 1.327 . S
C142 H136 0.950 . S
C142 C141 1.327 . S
C142 C146 1.429 . S
C143 C126 1.579 1_455 S
C143 H137 0.949 . S
C143 C147 1.368 . S
C144 C125 1.429 . S
C144 C138 1.429 . S
C144 C145 1.523 . S
C145 C126 1.371 1_565 S
C145 C139 1.368 1_565 S
C145 C144 1.523 . S
C146 C130 1.429 . S
C146 C142 1.429 . S
C146 C147 1.523 . S
C147 C131 1.368 1_455 S
C147 C143 1.368 . S
C147 C146 1.523 . S
H148 C123 0.950 . S
H149 C125 0.950 . S
H150 C126 0.942 1_565 S
H151 C128 0.950 . S
H152 C130 0.950 . S
C153 C154 1.349 . S
C153 C155 1.327 . S
C153 H178 0.950 . S
C154 C153 1.349 . S
C154 C170 1.349 . S
C155 C153 1.327 . S
C155 C174 1.429 . S
C155 H179 0.950 . S
C156 C173 1.574 1_556 S
C156 C175 1.368 . S
C156 H180 0.949 . S
H157 C161 0.949 . S
C158 C159 1.349 . S
C158 C160 1.327 . S
C158 H181 0.950 . S
C159 C158 1.349 . S
C159 C171 1.349 . S
C160 C158 1.327 . S
C160 C176 1.429 . S
C160 H182 0.950 . S
C161 H157 0.949 . S
C161 C169 1.574 1_554 S
C161 C177 1.368 . S
H162 C170 0.950 . S
H163 C168 0.950 . S
H164 C169 0.949 . S
H165 C171 0.950 . S
H166 C172 0.950 . S
H167 C173 0.949 . S
C168 H163 0.950 . S
C168 C170 1.327 . S
C168 C174 1.429 . S
C169 C161 1.574 1_556 S
C169 H164 0.949 . S
C169 C175 1.368 . S
C170 C154 1.349 . S
C170 H162 0.950 . S
C170 C168 1.327 . S
C171 C159 1.349 . S
C171 H165 0.950 . S
C171 C172 1.327 . S
C172 H166 0.950 . S
C172 C171 1.327 . S
C172 C176 1.429 . S
C173 C156 1.574 1_554 S
C173 H167 0.949 . S
C173 C177 1.368 . S
C174 C155 1.429 . S
C174 C168 1.429 . S
C174 C175 1.523 . S
C175 C156 1.368 . S
C175 C169 1.368 . S
C175 C174 1.523 . S
C176 C160 1.429 . S
C176 C172 1.429 . S
C176 C177 1.523 . S
C177 C161 1.368 . S
C177 C173 1.368 . S
C177 C176 1.523 . S
H178 C153 0.950 . S
H179 C155 0.950 . S
H180 C156 0.949 . S
H181 C158 0.950 . S
H182 C160 0.950 . S
C183 C184 1.349 . S
C183 C185 1.327 . S
C183 H208 0.950 . S
C184 C183 1.349 . S
C184 C200 1.349 . S
C185 C183 1.327 . S
C185 C204 1.429 . S
C185 H209 0.950 . S
C186 C203 1.574 . S
C186 C205 1.368 . S
C186 H210 0.949 . S
H187 C191 0.949 . S
C188 C189 1.349 . S
C188 C190 1.327 . S
C188 H211 0.950 . S
C189 C188 1.349 . S
C189 C201 1.349 . S
C190 C188 1.327 . S
C190 C206 1.429 . S
C190 H212 0.950 . S
C191 H187 0.949 . S
C191 C199 1.574 . S
C191 C207 1.368 . S
H192 C200 0.950 . S
H193 C198 0.950 . S
H194 C199 0.949 . S
H195 C201 0.950 . S
H196 C202 0.950 . S
H197 C203 0.949 . S
C198 H193 0.950 . S
C198 C200 1.327 . S
C198 C204 1.429 . S
C199 C191 1.574 . S
C199 H194 0.949 . S
C199 C205 1.368 . S
C200 C184 1.349 . S
C200 H192 0.950 . S
C200 C198 1.327 . S
C201 C189 1.349 . S
C201 H195 0.950 . S
C201 C202 1.327 . S
C202 H196 0.950 . S
C202 C201 1.327 . S
C202 C206 1.429 . S
C203 C186 1.574 . S
C203 H197 0.949 . S
C203 C207 1.368 . S
C204 C185 1.429 . S
C204 C198 1.429 . S
C204 C205 1.523 . S
C205 C186 1.368 . S
C205 C199 1.368 . S
C205 C204 1.523 . S
C206 C190 1.429 . S
C206 C202 1.429 . S
C206 C207 1.523 . S
C207 C191 1.368 . S
C207 C203 1.368 . S
C207 C206 1.523 . S
H208 C183 0.950 . S
H209 C185 0.950 . S
H210 C186 0.949 . S
H211 C188 0.950 . S
H212 C190 0.950 . S
C213 C214 1.349 . S
C213 C215 1.327 . S
C213 H238 0.950 . S
C214 C213 1.349 . S
C214 C230 1.349 . S
C215 C213 1.327 . S
C215 C234 1.429 . S
C215 H239 0.950 . S
C216 C233 1.574 . S
C216 C235 1.368 . S
C216 H240 0.949 . S
H217 C221 0.949 . S
C218 C219 1.349 . S
C218 C220 1.327 . S
C218 H241 0.950 . S
C219 C218 1.349 . S
C219 C231 1.349 . S
C220 C218 1.327 . S
C220 C236 1.429 . S
C220 H242 0.950 . S
C221 H217 0.949 . S
C221 C229 1.574 . S
C221 C237 1.368 . S
H222 C230 0.950 . S
H223 C228 0.950 . S
H224 C229 0.949 . S
H225 C231 0.950 . S
H226 C232 0.950 . S
H227 C233 0.949 . S
C228 H223 0.950 . S
C228 C230 1.327 . S
C228 C234 1.429 . S
C229 C221 1.574 . S
C229 H224 0.949 . S
C229 C235 1.368 . S
C230 C214 1.349 . S
C230 H222 0.950 . S
C230 C228 1.327 . S
C231 C219 1.349 . S
C231 H225 0.950 . S
C231 C232 1.327 . S
C232 H226 0.950 . S
C232 C231 1.327 . S
C232 C236 1.429 . S
C233 C216 1.574 . S
C233 H227 0.949 . S
C233 C237 1.368 . S
C234 C215 1.429 . S
C234 C228 1.429 . S
C234 C235 1.523 . S
C235 C216 1.368 . S
C235 C229 1.368 . S
C235 C234 1.523 . S
C236 C220 1.429 . S
C236 C232 1.429 . S
C236 C237 1.523 . S
C237 C221 1.368 . S
C237 C233 1.368 . S
C237 C236 1.523 . S
H238 C213 0.950 . S
H239 C215 0.950 . S
H240 C216 0.949 . S
H241 C218 0.950 . S
H242 C220 0.950 . S
C243 C244 1.349 . S
C243 C245 1.327 . S
C243 H268 0.950 . S
C244 C243 1.349 . S
C244 C260 1.349 . S
C245 C243 1.327 . S
C245 C264 1.429 . S
C245 H269 0.950 . S
C246 C263 1.574 1_556 S
C246 C265 1.368 . S
C246 H270 0.949 . S
H247 C251 0.949 . S
C248 C249 1.349 . S
C248 C250 1.327 . S
C248 H271 0.950 . S
C249 C248 1.349 . S
C249 C261 1.349 . S
C250 C248 1.327 . S
C250 C266 1.429 . S
C250 H272 0.950 . S
C251 H247 0.949 . S
C251 C259 1.574 1_554 S
C251 C267 1.368 . S
H252 C260 0.950 . S
H253 C258 0.950 . S
H254 C259 0.949 . S
H255 C261 0.950 . S
H256 C262 0.950 . S
H257 C263 0.949 . S
C258 H253 0.950 . S
C258 C260 1.327 . S
C258 C264 1.429 . S
C259 C251 1.574 1_556 S
C259 H254 0.949 . S
C259 C265 1.368 . S
C260 C244 1.349 . S
C260 H252 0.950 . S
C260 C258 1.327 . S
C261 C249 1.349 . S
C261 H255 0.950 . S
C261 C262 1.327 . S
C262 H256 0.950 . S
C262 C261 1.327 . S
C262 C266 1.429 . S
C263 C246 1.574 1_554 S
C263 H257 0.949 . S
C263 C267 1.368 . S
C264 C245 1.429 . S
C264 C258 1.429 . S
C264 C265 1.523 . S
C265 C246 1.368 . S
C265 C259 1.368 . S
C265 C264 1.523 . S
C266 C250 1.429 . S
C266 C262 1.429 . S
C266 C267 1.523 . S
C267 C251 1.368 . S
C267 C263 1.368 . S
C267 C266 1.523 . S
H268 C243 0.950 . S
H269 C245 0.950 . S
H270 C246 0.949 . S
H271 C248 0.950 . S
H272 C250 0.950 . S
C273 C274 1.349 . S
C273 C275 1.327 . S
C273 H298 0.950 . S
C274 C273 1.349 . S
C274 C290 1.349 . S
C275 C273 1.327 . S
C275 C294 1.429 . S
C275 H299 0.950 . S
C276 C293 1.574 . S
C276 C295 1.368 . S
C276 H300 0.949 . S
H277 C281 0.949 . S
C278 C279 1.349 . S
C278 C280 1.327 . S
C278 H301 0.950 . S
C279 C278 1.349 . S
C279 C291 1.349 . S
C280 C278 1.327 . S
C280 C296 1.429 . S
C280 H302 0.950 . S
C281 H277 0.949 . S
C281 C289 1.574 . S
C281 C297 1.368 . S
H282 C290 0.950 . S
H283 C288 0.950 . S
H284 C289 0.949 . S
H285 C291 0.950 . S
H286 C292 0.950 . S
H287 C293 0.949 . S
C288 H283 0.950 . S
C288 C290 1.327 . S
C288 C294 1.429 . S
C289 C281 1.574 . S
C289 H284 0.949 . S
C289 C295 1.368 . S
C290 C274 1.349 . S
C290 H282 0.950 . S
C290 C288 1.327 . S
C291 C279 1.349 . S
C291 H285 0.950 . S
C291 C292 1.327 . S
C292 H286 0.950 . S
C292 C291 1.327 . S
C292 C296 1.429 . S
C293 C276 1.574 . S
C293 H287 0.949 . S
C293 C297 1.368 . S
C294 C275 1.429 . S
C294 C288 1.429 . S
C294 C295 1.523 . S
C295 C276 1.368 . S
C295 C289 1.368 . S
C295 C294 1.523 . S
C296 C280 1.429 . S
C296 C292 1.429 . S
C296 C297 1.523 . S
C297 C281 1.368 . S
C297 C293 1.368 . S
C297 C296 1.523 . S
H298 C273 0.950 . S
H299 C275 0.950 . S
H300 C276 0.949 . S
H301 C278 0.950 . S
H302 C280 0.950 . S
C303 C304 1.349 . S
C303 C305 1.327 . S
C303 H328 0.950 . S
C304 C303 1.349 . S
C304 C320 1.349 . S
C305 C303 1.327 . S
C305 C324 1.429 . S
C305 H329 0.950 . S
C306 C323 1.574 . S
C306 C325 1.368 . S
C306 H330 0.949 . S
H307 C311 0.949 . S
C308 C309 1.349 . S
C308 C310 1.327 . S
C308 H331 0.950 . S
C309 C308 1.349 . S
C309 C321 1.349 . S
C310 C308 1.327 . S
C310 C326 1.429 . S
C310 H332 0.950 . S
C311 H307 0.949 . S
C311 C319 1.574 . S
C311 C327 1.368 . S
H312 C320 0.950 . S
H313 C318 0.950 . S
H314 C319 0.949 . S
H315 C321 0.950 . S
H316 C322 0.950 . S
H317 C323 0.949 . S
C318 H313 0.950 . S
C318 C320 1.327 . S
C318 C324 1.429 . S
C319 C311 1.574 . S
C319 H314 0.949 . S
C319 C325 1.368 . S
C320 C304 1.349 . S
C320 H312 0.950 . S
C320 C318 1.327 . S
C321 C309 1.349 . S
C321 H315 0.950 . S
C321 C322 1.327 . S
C322 H316 0.950 . S
C322 C321 1.327 . S
C322 C326 1.429 . S
C323 C306 1.574 . S
C323 H317 0.949 . S
C323 C327 1.368 . S
C324 C305 1.429 . S
C324 C318 1.429 . S
C324 C325 1.523 . S
C325 C306 1.368 . S
C325 C319 1.368 . S
C325 C324 1.523 . S
C326 C310 1.429 . S
C326 C322 1.429 . S
C326 C327 1.523 . S
C327 C311 1.368 . S
C327 C323 1.368 . S
C327 C326 1.523 . S
H328 C303 0.950 . S
H329 C305 0.950 . S
H330 C306 0.949 . S
H331 C308 0.950 . S
H332 C310 0.950 . S
C64 C18 1.173 . S
C69 C15 1.173 . S
C94 C36 1.173 . S
C99 C39 1.173 . S
C124 C57 1.185 . S
C129 C60 1.185 . S
C154 C56 0.998 . S
C159 C13 0.962 . S
C184 C35 1.407 . S
C189 C17 1.407 . S
C214 C59 0.998 . S
C219 C37 0.962 . S
C244 C55 0.974 . S
C249 C14 1.018 . S
C274 C16 0.668 . S
C279 C34 0.668 . S
C304 C58 0.974 . S
C309 C38 1.018 . S
