# Generated by pormake.
# Topology loh, (5)-cn, num edge types: 1
# Building blocks:
#     Node 0, Type 0, BuildingBlock: XOMCOT_clean_sbu_1, # of connection points: 5
#     Node 1, Type 0, BuildingBlock: XOMCOT_clean_sbu_1, # of connection points: 5
#     Node 2, Type 0, BuildingBlock: XOMCOT_clean_sbu_1, # of connection points: 5
#     Node 3, Type 0, BuildingBlock: XOMCOT_clean_sbu_1, # of connection points: 5
#     Node 4, Type 0, BuildingBlock: XOMCOT_clean_sbu_1, # of connection points: 5
#     Node 5, Type 0, BuildingBlock: XOMCOT_clean_sbu_1, # of connection points: 5
#     Node 6, Type 0, BuildingBlock: XOMCOT_clean_sbu_1, # of connection points: 5
#     Node 7, Type 0, BuildingBlock: XOMCOT_clean_sbu_1, # of connection points: 5
#     Edge 8, Type (0, 0), BuildingBlock: UVAHIK_clean_linker_0, # of connection points: 2
#     Edge 9, Type (0, 0), BuildingBlock: UVAHIK_clean_linker_0, # of connection points: 2
#     Edge 10, Type (0, 0), BuildingBlock: UVAHIK_clean_linker_0, # of connection points: 2
#     Edge 11, Type (0, 0), BuildingBlock: UVAHIK_clean_linker_0, # of connection points: 2
#     Edge 12, Type (0, 0), BuildingBlock: UVAHIK_clean_linker_0, # of connection points: 2
#     Edge 13, Type (0, 0), BuildingBlock: UVAHIK_clean_linker_0, # of connection points: 2
#     Edge 14, Type (0, 0), BuildingBlock: UVAHIK_clean_linker_0, # of connection points: 2
#     Edge 15, Type (0, 0), BuildingBlock: UVAHIK_clean_linker_0, # of connection points: 2
#     Edge 16, Type (0, 0), BuildingBlock: UVAHIK_clean_linker_0, # of connection points: 2
#     Edge 17, Type (0, 0), BuildingBlock: UVAHIK_clean_linker_0, # of connection points: 2
#     Edge 18, Type (0, 0), BuildingBlock: UVAHIK_clean_linker_0, # of connection points: 2
#     Edge 19, Type (0, 0), BuildingBlock: UVAHIK_clean_linker_0, # of connection points: 2
#     Edge 20, Type (0, 0), BuildingBlock: UVAHIK_clean_linker_0, # of connection points: 2
#     Edge 21, Type (0, 0), BuildingBlock: UVAHIK_clean_linker_0, # of connection points: 2
#     Edge 22, Type (0, 0), BuildingBlock: UVAHIK_clean_linker_0, # of connection points: 2
#     Edge 23, Type (0, 0), BuildingBlock: UVAHIK_clean_linker_0, # of connection points: 2
#     Edge 24, Type (0, 0), BuildingBlock: UVAHIK_clean_linker_0, # of connection points: 2
#     Edge 25, Type (0, 0), BuildingBlock: UVAHIK_clean_linker_0, # of connection points: 2
#     Edge 26, Type (0, 0), BuildingBlock: UVAHIK_clean_linker_0, # of connection points: 2
#     Edge 27, Type (0, 0), BuildingBlock: UVAHIK_clean_linker_0, # of connection points: 2
# Relax obj value: 0.196
# Max RMSD: 0.135
# Mean RMSD: 0.135
data_MOF--net-loh--node1-XOMCOT_clean_sbu_1--edge1-UVAHIK_clean_linker_0
_symmetry_space_group_name_H-M    P1
_symmetry_Int_Tables_number       1
_symmetry_cell_setting            triclinic
loop_
_symmetry_equiv_pos_as_xyz
'x, y, z'
_cell_length_a     34.92228
_cell_length_b     31.276172
_cell_length_c     51.940174
_cell_angle_alpha  90.059485
_cell_angle_beta   89.786133
_cell_angle_gamma 89.643573
loop_
_atom_site_label
_atom_site_type_symbol
_atom_site_fract_x
_atom_site_fract_y
_atom_site_fract_z
_atom_type_partial_charge
C0 C 1.00008 0.14958 0.13231 0.0
C1 C 1.00667 0.11124 0.1443 0.0
N2 N 1.01968 0.11911 0.16811 0.0
N3 N 1.00964 0.18231 0.14808 0.0
C4 C 1.02102 0.16229 0.17005 0.0
H5 H 0.98789 0.15278 0.11333 0.0
Co6 Co 1.00214 0.24219 0.14168 0.0
C7 C 1.0159 0.26515 0.19172 0.0
O8 O 0.9803 0.25224 0.19394 0.0
N9 N 0.99349 0.29975 0.13639 0.0
C10 C 0.96399 0.36264 0.13826 0.0
C11 C 0.96519 0.32192 0.14811 0.0
C12 C 1.00937 0.3275 0.11966 0.0
N13 N 0.99172 0.36596 0.12028 0.0
O14 O 0.04886 0.24438 0.11956 0.0
H15 H 0.94568 0.30872 0.16217 0.0
H16 H 1.03175 0.31903 0.10611 0.0
O17 O 0.0336 0.2577 0.17063 0.0
C18 C 0.06374 0.2211 0.10179 0.0
O19 O 0.04585 0.18672 0.09404 0.0
N20 N 0.96815 0.23084 0.1141 0.0
C21 C 0.90619 0.23059 0.07954 0.0
C22 C 0.90159 0.21759 0.10528 0.0
C23 C 0.93278 0.21819 0.12216 0.0
C24 C 0.97349 0.24321 0.08911 0.0
C25 C 0.94316 0.24253 0.0715 0.0
H26 H 0.92834 0.2105 0.14225 0.0
H27 H 1.00052 0.25609 0.08285 0.0
H28 H 1.02965 0.17879 0.18735 0.0
H29 H 1.00075 0.07989 0.13646 0.0
H30 H 0.94353 0.3874 0.14333 0.0
H31 H 0.87373 0.20909 0.11281 0.0
H32 H 0.94858 0.25263 0.05191 0.0
C33 C 0.5815 0.87649 0.63159 0.0
C34 C 0.57542 0.91535 0.64316 0.0
N35 N 0.56242 0.90855 0.66714 0.0
N36 N 0.57164 0.84446 0.64781 0.0
C37 C 0.56054 0.86547 0.6696 0.0
H38 H 0.59382 0.87246 0.61264 0.0
Co39 Co 0.57868 0.7842 0.64209 0.0
C40 C 0.56489 0.76425 0.69242 0.0
O41 O 0.60005 0.7787 0.69422 0.0
N42 N 0.58679 0.72628 0.63748 0.0
C43 C 0.61393 0.66245 0.64166 0.0
C44 C 0.61314 0.70371 0.65068 0.0
C45 C 0.57176 0.69823 0.6206 0.0
N46 N 0.58804 0.65912 0.62259 0.0
O47 O 0.5321 0.78177 0.62004 0.0
H48 H 0.63146 0.7168 0.66541 0.0
H49 H 0.55082 0.7068 0.60618 0.0
O50 O 0.547 0.77003 0.67132 0.0
C51 C 0.51834 0.80431 0.60163 0.0
O52 O 0.53742 0.83743 0.59316 0.0
N53 N 0.6131 0.79424 0.6144 0.0
C54 C 0.6756 0.794 0.57997 0.0
C55 C 0.67974 0.80762 0.60562 0.0
C56 C 0.64829 0.80724 0.62245 0.0
C57 C 0.60825 0.78105 0.58953 0.0
C58 C 0.63885 0.7815 0.57197 0.0
H59 H 0.65237 0.81556 0.64247 0.0
H60 H 0.58139 0.76785 0.58331 0.0
H61 H 0.55183 0.84979 0.68716 0.0
H62 H 0.58187 0.9463 0.63495 0.0
H63 H 0.63281 0.63719 0.64823 0.0
H64 H 0.70742 0.81653 0.61315 0.0
H65 H 0.63379 0.77087 0.55245 0.0
C66 C 1.0018 0.87762 0.89964 0.0
C67 C 1.00859 0.91595 0.8878 0.0
N68 N 1.02229 0.90812 0.86407 0.0
N69 N 1.01184 0.84489 0.88387 0.0
C70 C 1.02377 0.86492 0.86202 0.0
H71 H 0.98915 0.87446 0.91854 0.0
Co72 Co 1.00494 0.7851 0.89057 0.0
C73 C 1.01955 0.76155 0.84091 0.0
O74 O 0.9841 0.77531 0.83861 0.0
N75 N 0.99705 0.72759 0.89631 0.0
C76 C 0.9673 0.66517 0.89649 0.0
C77 C 0.96867 0.70502 0.88539 0.0
C78 C 1.01298 0.70084 0.91364 0.0
N79 N 0.99515 0.66279 0.91431 0.0
O80 O 0.05106 0.78369 0.91294 0.0
H81 H 0.94889 0.71764 0.87131 0.0
H82 H 0.0351 0.71005 0.92704 0.0
O83 O 0.03713 0.76907 0.86192 0.0
C84 C 0.06478 0.80657 0.93113 0.0
O85 O 0.04579 0.84031 0.93924 0.0
N86 N 0.97003 0.79679 0.91782 0.0
C87 C 0.9064 0.79553 0.95099 0.0
C88 C 0.90271 0.80854 0.92527 0.0
C89 C 0.93482 0.80884 0.90905 0.0
C90 C 0.97439 0.78457 0.94294 0.0
C91 C 0.94305 0.78456 0.95994 0.0
H92 H 0.93127 0.81654 0.8889 0.0
H93 H 1.0013 0.77188 0.94967 0.0
H94 H 0.03301 0.84842 0.84477 0.0
H95 H 1.00241 0.94731 0.8957 0.0
H96 H 0.9463 0.64067 0.89269 0.0
H97 H 0.87497 0.8171 0.9175 0.0
H98 H 0.94704 0.7733 0.97947 0.0
C99 C 0.60672 0.14286 0.39672 0.0
C100 C 0.59862 0.10644 0.38323 0.0
N101 N 0.58513 0.11776 0.36005 0.0
N102 N 0.59768 0.17787 0.38259 0.0
C103 C 0.58512 0.16112 0.35994 0.0
H104 H 0.61884 0.14309 0.41581 0.0
Co105 Co 0.60545 0.23638 0.39246 0.0
C106 C 0.59736 0.26903 0.34491 0.0
O107 O 0.63356 0.25731 0.34523 0.0
N108 N 0.61426 0.29282 0.40145 0.0
C109 C 0.64641 0.35277 0.4081 0.0
C110 C 0.64627 0.31437 0.39519 0.0
C111 C 0.59511 0.31882 0.41785 0.0
N112 N 0.6142 0.35533 0.42236 0.0
O113 O 0.55789 0.23637 0.41365 0.0
H114 H 0.66909 0.3018 0.3832 0.0
H115 H 0.56933 0.30995 0.42802 0.0
O116 O 0.57602 0.25699 0.36353 0.0
C117 C 0.54194 0.2108 0.42961 0.0
O118 O 0.55882 0.17454 0.4354 0.0
N119 N 0.63783 0.22011 0.41994 0.0
C120 C 0.69982 0.21761 0.45413 0.0
C121 C 0.70438 0.20578 0.42822 0.0
C122 C 0.67318 0.20763 0.41147 0.0
C123 C 0.63231 0.23034 0.4453 0.0
C124 C 0.66288 0.22867 0.46279 0.0
H125 H 0.67765 0.20148 0.39118 0.0
H126 H 0.6052 0.24311 0.45184 0.0
H127 H 0.57614 0.18012 0.34363 0.0
H128 H 0.6032 0.07393 0.38972 0.0
H129 H 0.66922 0.37606 0.40797 0.0
H130 H 0.73225 0.19691 0.42064 0.0
H131 H 0.65816 0.23894 0.48247 0.0
C132 C 0.49571 0.64501 0.13553 0.0
C133 C 0.49924 0.60804 0.14947 0.0
N134 N 0.51559 0.61751 0.17207 0.0
N135 N 0.50961 0.67852 0.14911 0.0
C136 C 0.52189 0.66021 0.17142 0.0
H137 H 0.48261 0.64682 0.11677 0.0
Co138 Co 0.5039 0.738 0.14038 0.0
C139 C 0.51755 0.76451 0.18964 0.0
O140 O 0.48212 0.75119 0.19224 0.0
N141 N 0.49697 0.79512 0.13272 0.0
C142 C 0.4685 0.85864 0.13142 0.0
C143 C 0.47025 0.82012 0.14407 0.0
C144 C 0.51148 0.81908 0.11347 0.0
N145 N 0.49436 0.85775 0.11213 0.0
O146 O 0.55049 0.73628 0.1185 0.0
H147 H 0.45172 0.81003 0.15961 0.0
H148 H 0.53196 0.80739 0.09942 0.0
O149 O 0.53542 0.75554 0.16883 0.0
C150 C 0.56551 0.70977 0.10256 0.0
O151 O 0.54795 0.67383 0.0974 0.0
N152 N 0.46973 0.72507 0.11318 0.0
C153 C 0.40777 0.72279 0.07872 0.0
C154 C 0.40247 0.71548 0.1052 0.0
C155 C 0.43367 0.71705 0.122 0.0
C156 C 0.47577 0.73196 0.08749 0.0
C157 C 0.44531 0.73034 0.06997 0.0
H158 H 0.42887 0.71368 0.14249 0.0
H159 H 0.50355 0.74115 0.0804 0.0
H160 H 0.53337 0.67786 0.1875 0.0
H161 H 0.4897 0.57659 0.14369 0.0
H162 H 0.44858 0.88451 0.13534 0.0
H163 H 0.37418 0.71067 0.11322 0.0
H164 H 0.45113 0.73616 0.04979 0.0
C165 C 0.09632 0.377 0.6315 0.0
C166 C 0.08831 0.41515 0.64342 0.0
N167 N 0.07903 0.40724 0.66807 0.0
N168 N 0.09152 0.34427 0.64822 0.0
C169 C 0.08143 0.36417 0.67058 0.0
H170 H 0.10741 0.37425 0.61218 0.0
Co171 Co 0.10242 0.28492 0.64234 0.0
C172 C 0.08631 0.25997 0.69186 0.0
O173 O 0.1216 0.27316 0.69517 0.0
N174 N 0.11407 0.22768 0.63772 0.0
C175 C 0.14809 0.16767 0.63898 0.0
C176 C 0.1452 0.20885 0.64803 0.0
C177 C 0.098 0.19733 0.62285 0.0
N178 N 0.11851 0.16062 0.62297 0.0
O179 O 0.05713 0.28015 0.61923 0.0
H180 H 0.1654 0.22477 0.66046 0.0
H181 H 0.07338 0.20288 0.6107 0.0
O182 O 0.06984 0.26804 0.6705 0.0
C183 C 0.04565 0.29877 0.59865 0.0
O184 O 0.06692 0.32825 0.58794 0.0
N185 N 0.13758 0.29788 0.61532 0.0
C186 C 0.20169 0.30085 0.58232 0.0
C187 C 0.20179 0.32158 0.60638 0.0
C188 C 0.16978 0.31908 0.62268 0.0
C189 C 0.13659 0.27829 0.59178 0.0
C190 C 0.16803 0.27971 0.57501 0.0
H191 H 0.17129 0.33266 0.64181 0.0
H192 H 0.1124 0.25904 0.58634 0.0
H193 H 0.07652 0.34767 0.68855 0.0
H194 H 0.09108 0.44658 0.63492 0.0
H195 H 0.17097 0.14524 0.6431 0.0
H196 H 0.22679 0.33859 0.613 0.0
H197 H 0.1666 0.26209 0.55709 0.0
C198 C 0.52525 0.37433 0.90369 0.0
C199 C 0.53088 0.41357 0.89249 0.0
N200 N 0.52315 0.41049 0.86715 0.0
N201 N 0.51422 0.34608 0.88558 0.0
C202 C 0.51286 0.36918 0.86351 0.0
H203 H 0.52866 0.36694 0.92389 0.0
Co204 Co 0.50124 0.28865 0.89178 0.0
C205 C 0.51293 0.26195 0.84161 0.0
O206 O 0.47788 0.2769 0.8392 0.0
N207 N 0.48729 0.23273 0.89755 0.0
C208 C 0.45244 0.17374 0.89681 0.0
C209 C 0.45594 0.21456 0.88735 0.0
C210 C 0.50259 0.20256 0.913 0.0
N211 N 0.48182 0.16636 0.91297 0.0
O212 O 0.54671 0.28178 0.91405 0.0
H213 H 0.43631 0.23049 0.87442 0.0
H214 H 0.52734 0.20758 0.92504 0.0
O215 O 0.53071 0.26882 0.8626 0.0
C216 C 0.58146 0.29146 0.90887 0.0
O217 O 0.58965 0.30873 0.88648 0.0
N218 N 0.4695 0.30523 0.91958 0.0
C219 C 0.40954 0.30926 0.95575 0.0
C220 C 0.40358 0.32036 0.92982 0.0
C221 C 0.43391 0.31813 0.91213 0.0
C222 C 0.47663 0.29645 0.94488 0.0
C223 C 0.44713 0.29866 0.96326 0.0
H224 H 0.42838 0.32378 0.89193 0.0
H225 H 0.50447 0.28521 0.95091 0.0
H226 H 0.50462 0.35598 0.84512 0.0
H227 H 0.53924 0.44241 0.90248 0.0
H228 H 0.42967 0.15156 0.89252 0.0
H229 H 0.37525 0.32814 0.92279 0.0
H230 H 0.45356 0.29055 0.98304 0.0
C231 C 0.05838 0.65276 0.40279 0.0
C232 C 0.05301 0.61371 0.39133 0.0
N233 N 0.06126 0.61715 0.36605 0.0
N234 N 0.06975 0.68134 0.38494 0.0
C235 C 0.0716 0.65855 0.36272 0.0
H236 H 0.05471 0.65975 0.42305 0.0
Co237 Co 0.08283 0.73854 0.39219 0.0
C238 C 0.0712 0.76635 0.34251 0.0
O239 O 0.10586 0.7503 0.33989 0.0
N240 N 0.09679 0.79421 0.39923 0.0
C241 C 0.13191 0.85303 0.40048 0.0
C242 C 0.12641 0.81463 0.38813 0.0
C243 C 0.08449 0.82071 0.41807 0.0
N244 N 0.10549 0.85663 0.41932 0.0
O245 O 0.03752 0.74423 0.41495 0.0
H246 H 0.14411 0.80144 0.37292 0.0
H247 H 0.06246 0.81263 0.43187 0.0
O248 O 0.05328 0.75996 0.36359 0.0
C249 C 1.00274 0.73506 0.40968 0.0
O250 O 0.99455 0.71902 0.38698 0.0
N251 N 0.11489 0.72039 0.4192 0.0
C252 C 0.17656 0.71688 0.45348 0.0
C253 C 0.18159 0.70724 0.42727 0.0
C254 C 0.15039 0.70913 0.41051 0.0
C255 C 0.10865 0.72718 0.44489 0.0
C256 C 0.13918 0.72522 0.46241 0.0
H257 H 0.15505 0.7048 0.39007 0.0
H258 H 0.08079 0.73715 0.4518 0.0
H259 H 0.0804 0.67192 0.34448 0.0
H260 H 0.04466 0.58469 0.40113 0.0
H261 H 0.15444 0.87575 0.39654 0.0
H262 H 0.20978 0.70019 0.41955 0.0
H263 H 0.13399 0.73316 0.48243 0.0
C264 C 0.37578 0.27254 0.99274 0.0
C265 C 0.37637 0.30525 0.97412 0.0
C266 C 0.34364 0.26632 1.00852 0.0
C267 C 0.25124 0.31658 0.03057 0.0
H268 H 0.22435 0.19894 0.04483 0.0
C269 C 0.11412 0.20863 0.06799 0.0
C270 C 0.10009 0.2335 0.0886 0.0
C271 C 0.14819 0.21923 0.05535 0.0
C272 C 0.23112 0.23205 0.04093 0.0
H273 H 0.34334 0.35813 0.9585 0.0
H274 H 0.28702 0.34642 0.98534 0.0
H275 H 0.28196 0.2143 0.02043 0.0
H276 H 0.11121 0.28966 0.11182 0.0
H277 H 0.17129 0.30789 0.08997 0.0
H278 H 0.19935 0.33404 0.05036 0.0
C279 C 0.3117 0.32581 0.988 0.0
C280 C 0.26471 0.24094 0.02718 0.0
C281 C 0.34399 0.33221 0.97229 0.0
C282 C 0.12113 0.26968 0.09608 0.0
C283 C 0.15551 0.28027 0.08341 0.0
C284 C 0.21744 0.30763 0.0443 0.0
C285 C 0.31077 0.29233 1.00612 0.0
C286 C 0.2753 0.28332 0.02164 0.0
C287 C 0.16969 0.25496 0.06295 0.0
C288 C 0.20666 0.26515 0.04946 0.0
H289 H 0.39971 0.25062 0.99467 0.0
H290 H 0.34454 0.24069 0.0225 0.0
H291 H 0.2585 0.34966 0.02702 0.0
H292 H 0.0987 0.18075 0.06143 0.0
H293 H 0.15744 0.19944 0.03936 0.0
C294 C 0.45723 0.76105 0.59831 0.0
C295 C 0.48215 0.79219 0.58834 0.0
C296 C 0.42277 0.75129 0.58563 0.0
C297 C 0.35609 0.79596 0.53568 0.0
H298 H 0.31601 0.68075 0.53307 0.0
C299 C 0.24223 0.74606 0.46178 0.0
C300 C 0.21055 0.72255 0.47057 0.0
C301 C 0.27374 0.75328 0.47773 0.0
C302 C 0.32668 0.71317 0.53384 0.0
H303 H 0.49069 0.83623 0.55661 0.0
H304 H 0.43214 0.81855 0.53442 0.0
H305 H 0.3741 0.69532 0.55781 0.0
H306 H 0.18756 0.68779 0.50314 0.0
H307 H 0.24327 0.6998 0.53102 0.0
H308 H 0.30945 0.81352 0.51111 0.0
C309 C 0.43811 0.80254 0.55244 0.0
C310 C 0.35998 0.72162 0.5481 0.0
C311 C 0.47211 0.81252 0.56516 0.0
C312 C 0.21147 0.70604 0.49578 0.0
C313 C 0.24343 0.71272 0.51168 0.0
C314 C 0.32326 0.78742 0.52124 0.0
C315 C 0.41253 0.77223 0.56257 0.0
C316 C 0.37557 0.76309 0.5489 0.0
C317 C 0.27479 0.73685 0.50291 0.0
C318 C 0.30837 0.74585 0.51982 0.0
H319 H 0.46406 0.74469 0.6161 0.0
H320 H 0.40388 0.72792 0.59419 0.0
H321 H 0.36624 0.82858 0.53637 0.0
H322 H 0.24235 0.75976 0.44263 0.0
H323 H 0.29748 0.77171 0.47028 0.0
C324 C 0.34149 0.69966 0.06493 0.0
C325 C 0.37404 0.72525 0.06088 0.0
C326 C 0.3088 0.70439 0.04958 0.0
C327 C 0.27322 0.747 0.98735 0.0
H328 H 0.17578 0.75491 0.02311 0.0
C329 C 0.12527 0.76184 0.93492 0.0
C330 C 0.10058 0.79371 0.94474 0.0
C331 C 0.15902 0.7506 0.94806 0.0
C332 C 0.20274 0.75272 1.0128 0.0
H333 H 0.39722 0.77564 0.03678 0.0
H334 H 0.34068 0.783 1.00974 0.0
H335 H 0.23411 0.74036 0.04741 0.0
H336 H 0.09214 0.83831 0.97635 0.0
H337 H 0.1502 0.81836 0.99919 0.0
H338 H 0.24164 0.75982 0.95273 0.0
C339 C 0.34061 0.75915 0.02484 0.0
C340 C 0.23618 0.74403 0.02672 0.0
C341 C 0.3732 0.75475 0.04037 0.0
C342 C 0.11036 0.81368 0.9681 0.0
C343 C 0.14363 0.80207 0.98134 0.0
C344 C 0.23961 0.75514 0.97335 0.0
C345 C 0.30774 0.73451 0.02949 0.0
C346 C 0.27196 0.74153 1.01425 0.0
C347 C 0.16847 0.77045 0.97154 0.0
C348 C 0.204 0.7587 0.98596 0.0
H349 H 0.3411 0.67595 0.0801 0.0
H350 H 0.28423 0.6844 0.05346 0.0
H351 H 0.30024 0.74499 0.9771 0.0
H352 H 0.11865 0.74577 0.91701 0.0
H353 H 0.17746 0.72596 0.94005 0.0
C354 C 0.48771 0.19288 0.45944 0.0
C355 C 0.50583 0.22283 0.44337 0.0
C356 C 0.4549 0.20389 0.47354 0.0
C357 C 0.3762 0.28486 0.47918 0.0
H358 H 0.36567 0.23487 0.54707 0.0
C359 C 0.23485 0.29656 0.53882 0.0
C360 C 0.23714 0.29821 0.56589 0.0
C361 C 0.2678 0.29054 0.52365 0.0
C362 C 0.36817 0.24969 0.52832 0.0
H363 H 0.50259 0.28789 0.42914 0.0
H364 H 0.44582 0.30755 0.45431 0.0
H365 H 0.42224 0.21932 0.52149 0.0
H366 H 0.27687 0.29547 0.59792 0.0
H367 H 0.33396 0.28695 0.57164 0.0
H368 H 0.32246 0.31624 0.48646 0.0
C369 C 0.45681 0.27521 0.45576 0.0
C370 C 0.40055 0.24013 0.51336 0.0
C371 C 0.48963 0.26402 0.44141 0.0
C372 C 0.27363 0.29495 0.57721 0.0
C373 C 0.30656 0.28927 0.56205 0.0
C374 C 0.34381 0.29465 0.49426 0.0
C375 C 0.43919 0.24539 0.47228 0.0
C376 C 0.40498 0.25718 0.48845 0.0
C377 C 0.30416 0.28623 0.53504 0.0
C378 C 0.33918 0.27703 0.51904 0.0
H379 H 0.49894 0.16068 0.46127 0.0
H380 H 0.44177 0.17958 0.48542 0.0
H381 H 0.37829 0.29844 0.46007 0.0
H382 H 0.20749 0.29954 0.52925 0.0
H383 H 0.26451 0.28808 0.50298 0.0
C384 C 0.62547 0.75367 0.09633 0.0
C385 C 0.60116 0.72067 0.08816 0.0
C386 C 0.65934 0.76286 0.08273 0.0
C387 C 0.72542 0.71594 0.03244 0.0
H388 H 0.76444 0.83153 0.02856 0.0
C389 C 0.84005 0.76713 0.95814 0.0
C390 C 0.8718 0.78964 0.96759 0.0
C391 C 0.80806 0.75967 0.97381 0.0
C392 C 0.75401 0.79904 0.02963 0.0
H393 H 0.59294 0.6725 0.05868 0.0
H394 H 0.65037 0.68946 0.03458 0.0
H395 H 0.70659 0.81711 0.05366 0.0
H396 H 0.8945 0.82251 1.00087 0.0
H397 H 0.83791 0.81041 0.02815 0.0
H398 H 0.77211 0.69837 1.00758 0.0
C399 C 0.64454 0.70733 0.05203 0.0
C400 C 0.72085 0.79062 0.04415 0.0
C401 C 0.61118 0.69774 0.06581 0.0
C402 C 0.87051 0.80505 0.99305 0.0
C403 C 0.83808 0.7983 1.00861 0.0
C404 C 0.75805 0.72453 0.0176 0.0
C405 C 0.66953 0.73971 0.06035 0.0
C406 C 0.70578 0.74892 0.04564 0.0
C407 C 0.80664 0.77511 0.99924 0.0
C408 C 0.77265 0.76617 1.01588 0.0
H409 H 0.61866 0.77196 0.11348 0.0
H410 H 0.67778 0.7877 0.09007 0.0
H411 H 0.71577 0.68318 0.03357 0.0
H412 H 0.84027 0.75442 0.93873 0.0
H413 H 0.78425 0.7419 0.96598 0.0
C414 C 0.98187 0.2602 0.59788 0.0
C415 C 1.00901 0.2868 0.58592 0.0
C416 C 0.94687 0.25109 0.58569 0.0
C417 C 0.88355 0.29266 0.53323 0.0
H418 H 0.83599 0.18112 0.53635 0.0
C419 C 0.76703 0.24289 0.46153 0.0
C420 C 0.73403 0.22268 0.47109 0.0
C421 C 0.79883 0.24954 0.47729 0.0
C422 C 0.84875 0.21257 0.53552 0.0
H423 H 1.02094 0.32317 0.55127 0.0
H424 H 0.96129 0.30664 0.5301 0.0
H425 H 0.89483 0.19446 0.56062 0.0
H426 H 0.70898 0.19317 0.50485 0.0
H427 H 0.76508 0.20438 0.53247 0.0
H428 H 0.83822 0.31048 0.50769 0.0
C429 C 0.96608 0.29379 0.54917 0.0
C430 C 0.88246 0.22029 0.54948 0.0
C431 C 1.00066 0.30306 0.56132 0.0
C432 C 0.7339 0.20889 0.49689 0.0
C433 C 0.76609 0.21507 0.51265 0.0
C434 C 0.85024 0.28484 0.51916 0.0
C435 C 0.9383 0.26825 0.56125 0.0
C436 C 0.90076 0.26028 0.54815 0.0
C437 C 0.79879 0.23594 0.50309 0.0
C438 C 0.83271 0.24454 0.51975 0.0
H439 H 0.98736 0.24705 0.6168 0.0
H440 H 0.92623 0.23138 0.59568 0.0
H441 H 0.89592 0.32428 0.53225 0.0
H442 H 0.76804 0.25449 0.4419 0.0
H443 H 0.82362 0.26535 0.46921 0.0
C444 C 0.84085 0.20665 0.0639 0.0
C445 C 0.87233 0.23447 0.06184 0.0
C446 C 0.80841 0.21193 0.04828 0.0
C447 C 0.75995 0.29287 1.00594 0.0
H448 H 0.70142 0.19532 0.98269 0.0
C449 C 0.64822 0.30486 0.92444 0.0
C450 C 0.61273 0.28455 0.92793 0.0
C451 C 0.67824 0.29845 0.94181 0.0
C452 C 0.71724 0.22292 0.98925 0.0
H453 H 0.89356 0.2899 0.0412 0.0
H454 H 0.8385 0.29757 1.01335 0.0
H455 H 0.75735 0.18418 1.01005 0.0
H456 H 0.58123 0.24127 0.95261 0.0
H457 H 0.63418 0.22937 0.98282 0.0
H458 H 0.72044 0.3314 0.98445 0.0
C459 C 0.83827 0.27222 0.02751 0.0
C460 C 0.74938 0.2166 1.00504 0.0
C461 C 0.87046 0.26724 0.04328 0.0
C462 C 0.60812 0.25747 0.94933 0.0
C463 C 0.63852 0.25049 0.96657 0.0
C464 C 0.7282 0.29909 0.98993 0.0
C465 C 0.80645 0.24499 0.02991 0.0
C466 C 0.77147 0.25148 1.0135 0.0
C467 C 0.67393 0.27107 0.96306 0.0
C468 C 0.70655 0.26422 0.98122 0.0
H469 H 0.84112 0.18065 0.07764 0.0
H470 H 0.78458 0.19043 0.05102 0.0
H471 H 0.77531 0.32077 1.01249 0.0
H472 H 0.6529 0.326 0.90824 0.0
H473 H 0.70518 0.31448 0.93835 0.0
C474 C 0.74092 0.81839 0.5643 0.0
C475 C 0.70973 0.79017 0.56234 0.0
C476 C 0.77362 0.81321 0.54877 0.0
C477 C 0.82336 0.73211 0.50686 0.0
H478 H 0.88147 0.82994 0.48338 0.0
C479 C 0.93605 0.7208 0.42534 0.0
C480 C 0.97139 0.74134 0.42889 0.0
C481 C 0.90583 0.72692 0.44274 0.0
C482 C 0.86576 0.80227 0.49001 0.0
H483 H 0.68927 0.73417 0.54194 0.0
H484 H 0.74478 0.72665 0.51419 0.0
H485 H 0.82501 0.84089 0.51057 0.0
H486 H 1.00244 0.78462 0.45372 0.0
H487 H 0.94911 0.79604 0.48398 0.0
H488 H 0.8635 0.6937 0.48556 0.0
C489 C 0.74459 0.75224 0.52824 0.0
C490 C 0.83333 0.80848 0.50569 0.0
C491 C 0.71214 0.75712 0.54395 0.0
C492 C 0.97568 0.76825 0.45041 0.0
C493 C 0.94506 0.77497 0.46766 0.0
C494 C 0.8554 0.726 0.49093 0.0
C495 C 0.77613 0.77985 0.53056 0.0
C496 C 0.81139 0.77349 0.51425 0.0
C497 C 0.90978 0.75424 0.46406 0.0
C498 C 0.8769 0.76097 0.48216 0.0
H499 H 0.74021 0.84464 0.5779 0.0
H500 H 0.79722 0.83501 0.55144 0.0
H501 H 0.80812 0.70414 0.51348 0.0
H502 H 0.93165 0.69978 0.40905 0.0
H503 H 0.87899 0.71077 0.43923 0.0
C504 C 1.01321 0.29946 0.23522 0.0
C505 C 1.03111 0.29577 0.21103 0.0
C506 C 1.02236 0.33288 0.25199 0.0
C507 C 0.05984 0.44312 0.25183 0.0
H508 H 0.05896 0.42761 0.32585 0.0
C509 C 0.08335 0.58317 0.32507 0.0
C510 C 0.06003 0.58285 0.34725 0.0
C511 C 0.08352 0.54834 0.30791 0.0
C512 C 0.059 0.43266 0.30523 0.0
H513 H 0.07371 0.32386 0.18585 0.0
H514 H 0.09001 0.38219 0.21531 0.0
H515 H 0.05471 0.36555 0.29771 0.0
H516 H 1.01711 0.54627 0.3678 0.0
H517 H 1.01744 0.48622 0.33822 0.0
H518 H 0.06358 0.51045 0.25948 0.0
C519 C 0.0686 0.35926 0.2212 0.0
C520 C 0.05662 0.39695 0.28905 0.0
C521 C 0.05962 0.32548 0.20444 0.0
C522 C 0.0362 0.54736 0.35136 0.0
C523 C 0.03641 0.51272 0.33433 0.0
C524 C 0.06224 0.47896 0.26807 0.0
C525 C 0.04956 0.36385 0.24503 0.0
C526 C 0.05626 0.40166 0.26212 0.0
C527 C 0.06042 0.51233 0.31254 0.0
C528 C 0.06106 0.47427 0.29501 0.0
H529 H 0.991 0.27731 0.24088 0.0
H530 H 1.00675 0.33546 0.26998 0.0
H531 H 0.05927 0.44811 0.23121 0.0
H532 H 0.10224 0.60976 0.32132 0.0
H533 H 0.10247 0.54915 0.29137 0.0
C534 C 0.5242 0.70151 0.70569 0.0
C535 C 0.55123 0.73303 0.71195 0.0
C536 C 0.51767 0.66688 0.72236 0.0
C537 C 0.5682 0.60628 0.77335 0.0
H538 H 0.46985 0.55368 0.78646 0.0
C539 C 0.54966 0.47977 0.85268 0.0
C540 C 0.52538 0.44475 0.84841 0.0
C541 C 0.5512 0.51378 0.83528 0.0
C542 C 0.49761 0.56764 0.78274 0.0
H543 H 0.59055 0.75432 0.74142 0.0
H544 H 0.57861 0.69495 0.77053 0.0
H545 H 0.47371 0.61642 0.75838 0.0
H546 H 0.48366 0.4184 0.82209 0.0
H547 H 0.48676 0.47771 0.79138 0.0
H548 H 0.59228 0.55778 0.79744 0.0
C549 C 0.56315 0.69614 0.75251 0.0
C550 C 0.4998 0.60372 0.76668 0.0
C551 C 0.56972 0.7305 0.7359 0.0
C552 C 0.50288 0.44461 0.82596 0.0
C553 C 0.50436 0.47889 0.80848 0.0
C554 C 0.56604 0.57035 0.78928 0.0
C555 C 0.53803 0.66307 0.74563 0.0
C556 C 0.5351 0.6239 0.76207 0.0
C557 C 0.5286 0.51397 0.81291 0.0
C558 C 0.5307 0.55079 0.79453 0.0
H559 H 0.50974 0.70221 0.68729 0.0
H560 H 0.49815 0.64203 0.7164 0.0
H561 H 0.59606 0.6201 0.76972 0.0
H562 H 0.5678 0.48093 0.8695 0.0
H563 H 0.56986 0.54034 0.83961 0.0
C564 C 0.08506 0.43526 0.71272 0.0
C565 C 0.07125 0.43944 0.68743 0.0
C566 C 0.08083 0.46898 0.73048 0.0
C567 C 1.02377 0.56724 0.74328 0.0
H568 H 0.11117 0.60431 0.78314 0.0
C569 C 1.01829 0.72725 0.79745 0.0
C570 C 0.03407 0.72916 0.82226 0.0
C571 C 1.02551 0.6922 0.78134 0.0
C572 C 0.08631 0.59416 0.77241 0.0
H573 H 0.04096 0.4815 0.66134 0.0
H574 H 0.03316 0.53973 0.69212 0.0
H575 H 0.11654 0.54071 0.75583 0.0
H576 H 0.07106 0.69624 0.84926 0.0
H577 H 0.08334 0.63467 0.82129 0.0
H578 H 0.99326 0.61996 0.75984 0.0
C579 C 0.04742 0.5107 0.69834 0.0
C580 C 0.08941 0.5576 0.75675 0.0
C581 C 0.05208 0.47739 0.68061 0.0
C582 C 0.05886 0.69606 0.83011 0.0
C583 C 0.06578 0.66061 0.81405 0.0
C584 C 1.02058 0.60347 0.759 0.0
C585 C 0.06212 0.50726 0.72343 0.0
C586 C 0.0583 0.54404 0.74171 0.0
C587 C 0.04827 0.65759 0.7897 0.0
C588 C 0.05194 0.61797 0.77352 0.0
H589 H 0.10025 0.40656 0.71847 0.0
H590 H 0.09224 0.46515 0.7497 0.0
H591 H 0.99901 0.55732 0.73234 0.0
H592 H 0.9992 0.75228 0.79077 0.0
H593 H 1.01241 0.69185 0.76248 0.0
C594 C 0.54648 0.31622 0.32453 0.0
C595 C 0.58497 0.30308 0.32663 0.0
C596 C 0.53639 0.35116 0.30883 0.0
C597 C 0.57508 0.45092 0.28282 0.0
H598 H 0.49908 0.44177 0.22907 0.0
C599 C 0.55665 0.58303 0.20496 0.0
C600 C 0.52093 0.58787 0.19303 0.0
C601 C 0.56283 0.54995 0.22281 0.0
C602 C 0.51982 0.44554 0.24431 0.0
H603 H 0.64286 0.31657 0.31362 0.0
H604 H 0.62531 0.37743 0.28701 0.0
H605 H 0.51123 0.38106 0.25729 0.0
H606 H 0.46314 0.56381 0.19136 0.0
H607 H 0.47285 0.50808 0.2234 0.0
H608 H 0.58327 0.51549 0.27055 0.0
C609 C 0.60294 0.36066 0.29731 0.0
C610 C 0.52687 0.41041 0.26042 0.0
C611 C 0.61289 0.32543 0.31246 0.0
C612 C 0.49106 0.56042 0.20016 0.0
C613 C 0.49689 0.52808 0.21835 0.0
C614 C 0.56754 0.48637 0.26708 0.0
C615 C 0.5647 0.37421 0.29544 0.0
C616 C 0.55494 0.4125 0.27962 0.0
C617 C 0.53315 0.52143 0.22952 0.0
C618 C 0.5401 0.48419 0.24729 0.0
H619 H 0.5243 0.29991 0.33526 0.0
H620 H 0.50663 0.36092 0.30772 0.0
H621 H 0.5967 0.4536 0.29764 0.0
H622 H 0.5802 0.60354 0.19954 0.0
H623 H 0.59134 0.54593 0.23057 0.0
C624 C 0.55756 0.82938 0.1993 0.0
C625 C 0.5318 0.7978 0.20762 0.0
C626 C 0.56462 0.86559 0.21459 0.0
C627 C 0.51887 0.92807 0.2678 0.0
H628 H 0.61669 0.98557 0.27166 0.0
C629 C 0.55357 0.05136 0.34655 0.0
C630 C 0.57444 0.08808 0.34007 0.0
C631 C 0.54739 0.01907 0.32845 0.0
C632 C 0.58904 0.97021 0.27048 0.0
H633 H 0.49522 0.77825 0.23918 0.0
H634 H 0.50855 0.84002 0.26612 0.0
H635 H 0.61035 0.9214 0.24502 0.0
H636 H 0.60479 0.12014 0.30939 0.0
H637 H 0.5943 0.06311 0.27741 0.0
H638 H 0.4978 0.97618 0.29367 0.0
C639 C 0.52237 0.83788 0.24746 0.0
C640 C 0.58539 0.93331 0.25523 0.0
C641 C 0.51507 0.80205 0.23213 0.0
C642 C 0.58823 0.09237 0.31476 0.0
C643 C 0.58258 0.05955 0.29662 0.0
C644 C 0.5226 0.96462 0.28312 0.0
C645 C 0.54624 0.87093 0.23861 0.0
C646 C 0.55036 0.91128 0.25399 0.0
C647 C 0.56239 0.02227 0.30337 0.0
C648 C 0.55783 0.98587 0.28498 0.0
H649 H 0.57056 0.82738 0.18037 0.0
H650 H 0.58308 0.89029 0.20701 0.0
H651 H 0.4911 0.91298 0.2668 0.0
H652 H 0.54273 0.04724 0.36595 0.0
H653 H 0.53203 0.99077 0.33444 0.0
C654 C 0.04668 0.97943 0.85266 0.0
C655 C 1.03059 0.94041 0.845 0.0
C656 C 0.05049 0.01323 0.83527 0.0
C657 C 0.04766 0.04216 0.76547 0.0
H658 H 1.03189 0.15602 0.79341 0.0
C659 C 0.04649 0.195 0.70131 0.0
C660 C 0.07048 0.22792 0.71004 0.0
C661 C 0.03776 0.16018 0.71731 0.0
C662 C 0.03648 0.12447 0.78529 0.0
H663 H 1.0068 0.90582 0.8128 0.0
H664 H 1.01274 0.96524 0.78226 0.0
H665 H 1.02552 0.09409 0.82136 0.0
H666 H 0.10273 0.25093 0.74273 0.0
H667 H 0.08663 0.19111 0.7708 0.0
H668 H 0.05819 0.07308 0.72924 0.0
C669 C 1.023 0.96958 0.80172 0.0
C670 C 0.03309 0.0888 0.80138 0.0
C671 C 1.01961 0.93541 0.81917 0.0
C672 C 0.08396 0.22626 0.73549 0.0
C673 C 0.07473 0.19193 0.75158 0.0
C674 C 0.05067 0.07796 0.74928 0.0
C675 C 0.03779 1.00935 0.80969 0.0
C676 C 0.03935 0.04708 0.79187 0.0
C677 C 0.05228 0.15792 0.74253 0.0
C678 C 0.04572 0.11961 0.7591 0.0
H679 H 0.0559 0.98399 0.87235 0.0
H680 H 0.06319 0.04263 0.84206 0.0
H681 H 0.05298 1.01076 0.75738 0.0
H682 H 0.03611 0.19498 0.68168 0.0
H683 H 1.02015 0.13468 0.70982 0.0
C684 C 0.54031 0.98109 0.67879 0.0
C685 C 0.55571 0.94142 0.68624 0.0
C686 C 0.53778 0.01508 0.69623 0.0
C687 C 0.54356 0.04361 0.76611 0.0
H688 H 0.55984 0.15713 0.73829 0.0
C689 C 0.55093 0.19564 0.83081 0.0
C690 C 0.52694 0.22943 0.82289 0.0
C691 C 0.55815 0.16073 0.81442 0.0
C692 C 0.55514 0.12567 0.74637 0.0
H693 H 0.57977 0.90599 0.71811 0.0
H694 H 0.57619 0.96566 0.74868 0.0
H695 H 0.564 0.09522 0.70998 0.0
H696 H 0.49313 0.25386 0.79121 0.0
H697 H 0.5066 0.19382 0.76245 0.0
H698 H 0.53525 0.07457 0.80265 0.0
C699 C 0.56537 0.9704 0.72938 0.0
C700 C 0.55724 0.09002 0.73009 0.0
C701 C 0.56743 0.93608 0.7119 0.0
C702 C 0.51191 0.2285 0.79783 0.0
C703 C 0.51964 0.19404 0.78134 0.0
C704 C 0.5419 0.07935 0.78248 0.0
C705 C 0.55115 1.01072 0.72164 0.0
C706 C 0.5508 0.04843 0.73957 0.0
C707 C 0.54209 0.15922 0.78962 0.0
C708 C 0.5471 0.12088 0.77273 0.0
H709 H 0.53056 0.98596 0.65924 0.0
H710 H 0.52549 0.04496 0.68962 0.0
H711 H 0.53809 0.01234 0.7742 0.0
H712 H 0.56255 0.19509 0.85011 0.0
H713 H 0.57582 0.13458 0.8213 0.0
C714 C 0.04375 0.04759 0.18017 0.0
C715 C 1.02749 0.08704 0.18743 0.0
C716 C 0.04806 0.01452 0.19803 0.0
C717 C 1.00799 0.97195 0.25814 0.0
H718 H 0.10127 0.90423 0.25913 0.0
C719 C 0.03487 0.83381 0.33182 0.0
C720 C 0.05808 0.79929 0.32387 0.0
C721 C 1.0291 0.86919 0.31559 0.0
C722 C 0.07469 0.92221 0.25888 0.0
H723 H 1.00331 0.12284 0.21931 0.0
H724 H 1.01054 0.06459 0.25076 0.0
H725 H 0.09689 0.96626 0.23111 0.0
H726 H 0.09132 0.77364 0.29209 0.0
H727 H 0.07993 0.8339 0.26349 0.0
H728 H 0.98542 0.92729 0.2855 0.0
C729 C 1.02003 0.05946 0.23112 0.0
C730 C 0.07234 0.9581 0.24289 0.0
C731 C 1.01626 0.09294 0.21323 0.0
C732 C 0.07346 0.79981 0.29885 0.0
C733 C 0.06731 0.83477 0.28256 0.0
C734 C 1.01019 0.93568 0.27402 0.0
C735 C 0.03578 0.01973 0.22366 0.0
C736 C 0.03888 0.98326 0.24211 0.0
C737 C 0.04613 0.87069 0.29094 0.0
C738 C 0.04348 0.90995 0.27443 0.0
H739 H 0.05278 0.04217 0.16046 0.0
H740 H 0.06004 0.98433 0.19155 0.0
H741 H 0.98165 0.99041 0.25782 0.0
H742 H 1.02301 0.83467 0.35111 0.0
H743 H 1.01278 0.89615 0.32289 0.0
C744 C 0.03587 0.62138 0.944 0.0
C745 C 0.99951 0.63093 0.93396 0.0
C746 C 0.03962 0.59371 0.96498 0.0
C747 C 0.98784 0.55948 0.02152 0.0
H748 H 0.05059 0.45678 0.02066 0.0
C749 C 0.96581 0.42521 0.09439 0.0
C750 C 0.99721 0.40051 0.10246 0.0
C751 C 0.97028 0.45629 0.07545 0.0
C752 C 0.03357 0.48581 0.02146 0.0
H753 H 0.93869 0.619 0.9377 0.0
H754 H 0.94519 0.57104 0.97449 0.0
H755 H 0.05104 0.5047 0.98349 0.0
H756 H 0.05819 0.38999 0.09781 0.0
H757 H 0.06634 0.44517 0.06495 0.0
H758 H 0.97048 0.54131 0.05938 0.0
C759 C 0.97073 0.58471 0.96603 0.0
C760 C 0.03372 0.51302 1.00012 0.0
C761 C 0.96707 0.61171 0.94485 0.0
C762 C 0.03346 0.40836 0.09172 0.0
C763 C 0.03805 0.43982 0.07288 0.0
C764 C 0.98811 0.53273 0.04295 0.0
C765 C 1.00695 0.57596 0.97645 0.0
C766 C 1.01007 0.5494 0.99978 0.0
C767 C 1.00637 0.46377 0.06429 0.0
C768 C 1.01012 0.49493 0.04291 0.0
H769 H 0.06125 0.63585 0.93584 0.0
H770 H 0.06782 0.58732 0.97276 0.0
H771 H 0.96989 0.58786 0.02179 0.0
H772 H 0.9374 0.41935 0.10193 0.0
H773 H 0.94506 0.47338 0.06894 0.0
C774 C 0.54832 0.61779 0.59216 0.0
C775 C 0.58291 0.62338 0.60549 0.0
C776 C 0.54459 0.58486 0.57411 0.0
C777 C 0.55629 0.53391 0.52456 0.0
H778 H 0.61054 0.42637 0.5335 0.0
C779 C 0.56748 0.39752 0.44766 0.0
C780 C 0.60559 0.3858 0.44227 0.0
C781 C 0.55897 0.42471 0.46833 0.0
C782 C 0.59512 0.4562 0.53083 0.0
H783 H 0.64058 0.59857 0.61034 0.0
H784 H 0.6343 0.54185 0.57899 0.0
H785 H 0.6041 0.47544 0.5698 0.0
H786 H 0.66458 0.39285 0.45421 0.0
H787 H 0.64974 0.43991 0.49046 0.0
H788 H 0.54767 0.51432 0.4854 0.0
C789 C 0.60965 0.56209 0.58281 0.0
C790 C 0.59154 0.48435 0.55153 0.0
C791 C 0.61331 0.59478 0.60083 0.0
C792 C 0.63505 0.4019 0.45773 0.0
C793 C 0.62653 0.42836 0.4786 0.0
C794 C 0.55948 0.50539 0.5039 0.0
C795 C 0.57542 0.55695 0.56903 0.0
C796 C 0.5733 0.52421 0.54839 0.0
C797 C 0.58845 0.43971 0.48419 0.0
C798 C 0.58003 0.46701 0.5067 0.0
H799 H 0.52422 0.63901 0.59557 0.0
H800 H 0.5177 0.58146 0.56401 0.0
H801 H 0.54229 0.56445 0.52143 0.0
H802 H 0.54435 0.38541 0.43595 0.0
H803 H 0.52941 0.43315 0.47232 0.0
C804 C 0.45575 0.10699 0.93857 0.0
C805 C 0.48739 0.12974 0.92926 0.0
C806 C 0.46078 0.07355 0.95597 0.0
C807 C 0.4783 0.99235 0.98447 0.0
H808 H 0.55015 1.00953 0.04028 0.0
C809 C 0.5332 0.89487 0.07939 0.0
C810 C 0.49765 0.88772 0.09134 0.0
C811 C 0.53583 0.92212 0.05814 0.0
C812 C 0.53037 1.00412 0.02461 0.0
H813 H 0.54925 0.13427 0.92996 0.0
H814 H 0.55826 0.07515 0.9601 0.0
H815 H 0.54772 0.06076 1.00485 0.0
H816 H 0.43705 0.90288 0.0904 0.0
H817 H 0.44157 0.95016 0.05321 0.0
H818 H 0.45974 0.93685 1.005 0.0
C819 C 0.52944 0.08381 0.95439 0.0
C820 C 0.52904 0.03328 1.00426 0.0
C821 C 0.52433 0.11757 0.93711 0.0
C822 C 0.46486 0.90833 0.08178 0.0
C823 C 0.46737 0.93493 0.06035 0.0
C824 C 0.47932 0.9636 1.00494 0.0
C825 C 0.49765 0.06178 0.96428 0.0
C826 C 0.50237 0.02823 0.98424 0.0
C827 C 0.5028 0.94186 0.04827 0.0
C828 C 0.50479 0.96975 0.02542 0.0
H829 H 0.42691 0.11609 0.93322 0.0
H830 H 0.43557 0.05796 0.96358 0.0
H831 H 0.45809 0.98692 0.96907 0.0
H832 H 0.55884 0.87929 0.08649 0.0
H833 H 0.56345 0.92707 0.04909 0.0
C834 C 0.06857 0.8993 0.45083 0.0
C835 C 0.10381 0.88817 0.43943 0.0
C836 C 0.06723 0.92743 0.47173 0.0
C837 C 0.12543 0.9648 0.52521 0.0
H838 H 0.05728 0.06312 0.52689 0.0
C839 C 0.14601 0.10281 0.59633 0.0
C840 C 0.11381 0.12491 0.60583 0.0
C841 C 0.14197 0.07099 0.57776 0.0
C842 C 0.07595 0.03535 0.52699 0.0
H843 H 0.16516 0.89777 0.44081 0.0
H844 H 0.16285 0.94685 0.47737 0.0
H845 H 0.05541 0.01404 0.49033 0.0
H846 H 0.05198 0.12978 0.60416 0.0
H847 H 0.04471 0.0734 0.57194 0.0
H848 H 0.1459 0.9856 0.56181 0.0
C849 C 0.13631 0.93383 0.47011 0.0
C850 C 0.07498 1.00743 0.50598 0.0
C851 C 0.1376 0.90618 0.44903 0.0
C852 C 0.07731 0.11354 0.59696 0.0
C853 C 0.0732 0.0814 0.57846 0.0
C854 C 0.12612 0.99238 0.54631 0.0
C855 C 0.10117 0.94436 0.48179 0.0
C856 C 0.10024 0.97241 0.50471 0.0
C857 C 0.10558 0.0602 0.56837 0.0
C858 C 0.10195 0.02848 0.54723 0.0
H859 H 0.04213 0.88594 0.44368 0.0
H860 H 0.03979 0.93504 0.48046 0.0
H861 H 0.14471 0.93753 0.52487 0.0
H862 H 0.17457 0.11134 0.60239 0.0
H863 H 0.16761 0.05599 0.57008 0.0
loop_
_geom_bond_atom_site_label_1
_geom_bond_atom_site_label_2
_geom_bond_distance
_geom_bond_site_symmetry_2
_ccdc_geom_bond_type
C0 C1 1.351 . S
C0 N3 1.368 . S
C0 H5 0.931 . S
C1 C0 1.351 . S
C1 N2 1.373 . S
C1 H29 0.930 . S
N2 C1 1.373 . S
N2 C4 1.340 . S
N3 C0 1.368 . S
N3 C4 1.321 . S
N3 Co6 2.135 . S
C4 N2 1.340 . S
C4 N3 1.321 . S
C4 H28 0.930 . S
H5 C0 0.931 . S
Co6 N3 2.135 . S
Co6 N9 2.121 . S
Co6 O14 2.055 . S
Co6 O17 2.039 . S
Co6 N20 2.140 1_455 S
C7 O8 1.227 1_455 S
C7 O17 1.265 . S
O8 C7 1.227 1_655 S
N9 Co6 2.121 . S
N9 C11 1.375 . S
N9 C12 1.313 . S
C10 C11 1.338 . S
C10 N13 1.377 . S
C10 H30 0.942 . S
C11 N9 1.375 . S
C11 C10 1.338 . S
C11 H15 0.931 1_455 S
C12 N9 1.313 . S
C12 N13 1.344 . S
C12 H16 0.930 . S
N13 C10 1.377 . S
N13 C12 1.344 . S
O14 Co6 2.055 . S
O14 C18 1.253 . S
H15 C11 0.931 1_655 S
H16 C12 0.930 . S
O17 Co6 2.039 . S
O17 C7 1.265 . S
C18 O14 1.253 . S
C18 O19 1.227 . S
O19 C18 1.227 . S
N20 Co6 2.140 1_655 S
N20 C23 1.346 . S
N20 C24 1.345 . S
C21 C22 1.387 . S
C21 C25 1.391 . S
C22 C21 1.387 . S
C22 C23 1.369 . S
C22 H31 0.929 . S
C23 N20 1.346 . S
C23 C22 1.369 . S
C23 H26 0.928 . S
C24 N20 1.345 . S
C24 C25 1.371 . S
C24 H27 0.933 . S
C25 C21 1.391 . S
C25 C24 1.371 . S
C25 H32 0.930 . S
H26 C23 0.928 . S
H27 C24 0.933 . S
H28 C4 0.930 . S
H29 C1 0.930 . S
H30 C10 0.942 . S
H31 C22 0.929 . S
H32 C25 0.930 . S
C33 C34 1.351 . S
C33 N36 1.368 . S
C33 H38 0.931 . S
C34 C33 1.351 . S
C34 N35 1.373 . S
C34 H62 0.930 . S
N35 C34 1.373 . S
N35 C37 1.340 . S
N36 C33 1.368 . S
N36 C37 1.321 . S
N36 Co39 2.135 . S
C37 N35 1.340 . S
C37 N36 1.321 . S
C37 H61 0.930 . S
H38 C33 0.931 . S
Co39 N36 2.135 . S
Co39 N42 2.121 . S
Co39 O47 2.055 . S
Co39 O50 2.039 . S
Co39 N53 2.140 . S
C40 O41 1.227 . S
C40 O50 1.265 . S
O41 C40 1.227 . S
N42 Co39 2.121 . S
N42 C44 1.375 . S
N42 C45 1.313 . S
C43 C44 1.338 . S
C43 N46 1.377 . S
C43 H63 0.930 . S
C44 N42 1.375 . S
C44 C43 1.338 . S
C44 H48 0.931 . S
C45 N42 1.313 . S
C45 N46 1.344 . S
C45 H49 0.930 . S
N46 C43 1.377 . S
N46 C45 1.344 . S
O47 Co39 2.055 . S
O47 C51 1.253 . S
H48 C44 0.931 . S
H49 C45 0.930 . S
O50 Co39 2.039 . S
O50 C40 1.265 . S
C51 O47 1.253 . S
C51 O52 1.227 . S
O52 C51 1.227 . S
N53 Co39 2.140 . S
N53 C56 1.346 . S
N53 C57 1.345 . S
C54 C55 1.387 . S
C54 C58 1.391 . S
C55 C54 1.387 . S
C55 C56 1.369 . S
C55 H64 0.929 . S
C56 N53 1.346 . S
C56 C55 1.369 . S
C56 H59 0.928 . S
C57 N53 1.345 . S
C57 C58 1.371 . S
C57 H60 0.931 . S
C58 C54 1.391 . S
C58 C57 1.371 . S
C58 H65 0.930 . S
H59 C56 0.928 . S
H60 C57 0.931 . S
H61 C37 0.930 . S
H62 C34 0.930 . S
H63 C43 0.930 . S
H64 C55 0.929 . S
H65 C58 0.930 . S
C66 C67 1.351 . S
C66 N69 1.368 . S
C66 H71 0.931 . S
C67 C66 1.351 . S
C67 N68 1.373 . S
C67 H95 0.930 . S
N68 C67 1.373 . S
N68 C70 1.340 . S
N69 C66 1.368 . S
N69 C70 1.321 . S
N69 Co72 2.135 . S
C70 N68 1.340 . S
C70 N69 1.321 . S
C70 H94 0.930 . S
H71 C66 0.931 . S
Co72 N69 2.135 . S
Co72 N75 2.121 . S
Co72 O80 2.055 . S
Co72 O83 2.039 . S
Co72 N86 2.140 1_455 S
C73 O74 1.227 1_455 S
C73 O83 1.265 . S
O74 C73 1.227 1_655 S
N75 Co72 2.121 . S
N75 C77 1.375 . S
N75 C78 1.313 . S
C76 C77 1.338 . S
C76 N79 1.377 . S
C76 H96 0.942 . S
C77 N75 1.375 . S
C77 C76 1.338 . S
C77 H81 0.931 1_455 S
C78 N75 1.313 . S
C78 N79 1.344 . S
C78 H82 0.930 . S
N79 C76 1.377 . S
N79 C78 1.344 . S
O80 Co72 2.055 . S
O80 C84 1.253 . S
H81 C77 0.931 1_655 S
H82 C78 0.930 . S
O83 Co72 2.039 . S
O83 C73 1.265 . S
C84 O80 1.253 . S
C84 O85 1.227 . S
O85 C84 1.227 . S
N86 Co72 2.140 1_655 S
N86 C89 1.346 . S
N86 C90 1.345 . S
C87 C88 1.387 . S
C87 C91 1.391 . S
C88 C87 1.387 . S
C88 C89 1.369 . S
C88 H97 0.929 . S
C89 N86 1.346 . S
C89 C88 1.369 . S
C89 H92 0.928 . S
C90 N86 1.345 . S
C90 C91 1.371 . S
C90 H93 0.933 . S
C91 C87 1.391 . S
C91 C90 1.371 . S
C91 H98 0.930 . S
H92 C89 0.928 . S
H93 C90 0.933 . S
H94 C70 0.930 . S
H95 C67 0.930 . S
H96 C76 0.942 . S
H97 C88 0.929 . S
H98 C91 0.930 . S
C99 C100 1.351 . S
C99 N102 1.368 . S
C99 H104 0.931 . S
C100 C99 1.351 . S
C100 N101 1.373 . S
C100 H128 0.930 . S
N101 C100 1.373 . S
N101 C103 1.340 . S
N102 C99 1.368 . S
N102 C103 1.321 . S
N102 Co105 2.135 . S
C103 N101 1.340 . S
C103 N102 1.321 . S
C103 H127 0.930 . S
H104 C99 0.931 . S
Co105 N102 2.135 . S
Co105 N108 2.121 . S
Co105 O113 2.055 . S
Co105 O116 2.039 . S
Co105 N119 2.140 . S
C106 O107 1.227 . S
C106 O116 1.265 . S
O107 C106 1.227 . S
N108 Co105 2.121 . S
N108 C110 1.375 . S
N108 C111 1.313 . S
C109 C110 1.338 . S
C109 N112 1.377 . S
C109 H129 0.930 . S
C110 N108 1.375 . S
C110 C109 1.338 . S
C110 H114 0.931 . S
C111 N108 1.313 . S
C111 N112 1.344 . S
C111 H115 0.930 . S
N112 C109 1.377 . S
N112 C111 1.344 . S
O113 Co105 2.055 . S
O113 C117 1.253 . S
H114 C110 0.931 . S
H115 C111 0.930 . S
O116 Co105 2.039 . S
O116 C106 1.265 . S
C117 O113 1.253 . S
C117 O118 1.227 . S
O118 C117 1.227 . S
N119 Co105 2.140 . S
N119 C122 1.346 . S
N119 C123 1.345 . S
C120 C121 1.387 . S
C120 C124 1.391 . S
C121 C120 1.387 . S
C121 C122 1.369 . S
C121 H130 0.929 . S
C122 N119 1.346 . S
C122 C121 1.369 . S
C122 H125 0.928 . S
C123 N119 1.345 . S
C123 C124 1.371 . S
C123 H126 0.931 . S
C124 C120 1.391 . S
C124 C123 1.371 . S
C124 H131 0.930 . S
H125 C122 0.928 . S
H126 C123 0.931 . S
H127 C103 0.930 . S
H128 C100 0.930 . S
H129 C109 0.930 . S
H130 C121 0.929 . S
H131 C124 0.930 . S
C132 C133 1.351 . S
C132 N135 1.368 . S
C132 H137 0.931 . S
C133 C132 1.351 . S
C133 N134 1.373 . S
C133 H161 0.930 . S
N134 C133 1.373 . S
N134 C136 1.340 . S
N135 C132 1.368 . S
N135 C136 1.321 . S
N135 Co138 2.135 . S
C136 N134 1.340 . S
C136 N135 1.321 . S
C136 H160 0.930 . S
H137 C132 0.931 . S
Co138 N135 2.135 . S
Co138 N141 2.121 . S
Co138 O146 2.055 . S
Co138 O149 2.039 . S
Co138 N152 2.140 . S
C139 O140 1.227 . S
C139 O149 1.265 . S
O140 C139 1.227 . S
N141 Co138 2.121 . S
N141 C143 1.375 . S
N141 C144 1.313 . S
C142 C143 1.338 . S
C142 N145 1.377 . S
C142 H162 0.930 . S
C143 N141 1.375 . S
C143 C142 1.338 . S
C143 H147 0.931 . S
C144 N141 1.313 . S
C144 N145 1.344 . S
C144 H148 0.930 . S
N145 C142 1.377 . S
N145 C144 1.344 . S
O146 Co138 2.055 . S
O146 C150 1.253 . S
H147 C143 0.931 . S
H148 C144 0.930 . S
O149 Co138 2.039 . S
O149 C139 1.265 . S
C150 O146 1.253 . S
C150 O151 1.227 . S
O151 C150 1.227 . S
N152 Co138 2.140 . S
N152 C155 1.346 . S
N152 C156 1.345 . S
C153 C154 1.387 . S
C153 C157 1.391 . S
C154 C153 1.387 . S
C154 C155 1.369 . S
C154 H163 0.929 . S
C155 N152 1.346 . S
C155 C154 1.369 . S
C155 H158 0.928 . S
C156 N152 1.345 . S
C156 C157 1.371 . S
C156 H159 0.931 . S
C157 C153 1.391 . S
C157 C156 1.371 . S
C157 H164 0.930 . S
H158 C155 0.928 . S
H159 C156 0.931 . S
H160 C136 0.930 . S
H161 C133 0.930 . S
H162 C142 0.930 . S
H163 C154 0.929 . S
H164 C157 0.930 . S
C165 C166 1.351 . S
C165 N168 1.368 . S
C165 H170 0.931 . S
C166 C165 1.351 . S
C166 N167 1.373 . S
C166 H194 0.930 . S
N167 C166 1.373 . S
N167 C169 1.340 . S
N168 C165 1.368 . S
N168 C169 1.321 . S
N168 Co171 2.135 . S
C169 N167 1.340 . S
C169 N168 1.321 . S
C169 H193 0.930 1_655 S
H170 C165 0.931 . S
Co171 N168 2.135 . S
Co171 N174 2.121 . S
Co171 O179 2.055 . S
Co171 O182 2.039 . S
Co171 N185 2.140 1_655 S
C172 O173 1.227 . S
C172 O182 1.265 1_455 S
O173 C172 1.227 . S
N174 Co171 2.121 . S
N174 C176 1.375 1_655 S
N174 C177 1.313 . S
C175 C176 1.338 . S
C175 N178 1.377 1_455 S
C175 H195 0.930 . S
C176 N174 1.375 1_455 S
C176 C175 1.338 . S
C176 H180 0.931 . S
C177 N174 1.313 . S
C177 N178 1.344 . S
C177 H181 0.930 . S
N178 C175 1.377 1_655 S
N178 C177 1.344 . S
O179 Co171 2.055 . S
O179 C183 1.253 . S
H180 C176 0.931 . S
H181 C177 0.930 . S
O182 Co171 2.039 . S
O182 C172 1.265 1_655 S
C183 O179 1.253 . S
C183 O184 1.227 . S
O184 C183 1.227 . S
N185 Co171 2.140 1_455 S
N185 C188 1.346 . S
N185 C189 1.345 . S
C186 C187 1.387 . S
C186 C190 1.391 . S
C187 C186 1.387 . S
C187 C188 1.369 . S
C187 H196 0.929 . S
C188 N185 1.346 . S
C188 C187 1.369 . S
C188 H191 0.928 . S
C189 N185 1.345 . S
C189 C190 1.371 . S
C189 H192 0.931 . S
C190 C186 1.391 . S
C190 C189 1.371 . S
C190 H197 0.930 . S
H191 C188 0.928 . S
H192 C189 0.931 . S
H193 C169 0.930 1_455 S
H194 C166 0.930 . S
H195 C175 0.930 . S
H196 C187 0.929 . S
H197 C190 0.930 . S
C198 C199 1.351 . S
C198 N201 1.368 . S
C198 H203 0.931 . S
C199 C198 1.351 . S
C199 N200 1.373 . S
C199 H227 0.930 . S
N200 C199 1.373 . S
N200 C202 1.340 . S
N201 C198 1.368 . S
N201 C202 1.321 . S
N201 Co204 2.135 . S
C202 N200 1.340 . S
C202 N201 1.321 . S
C202 H226 0.930 . S
H203 C198 0.931 . S
Co204 N201 2.135 . S
Co204 N207 2.121 . S
Co204 O212 2.055 . S
Co204 O215 2.039 . S
Co204 N218 2.140 . S
C205 O206 1.227 . S
C205 O215 1.265 . S
O206 C205 1.227 . S
N207 Co204 2.121 . S
N207 C209 1.375 . S
N207 C210 1.313 . S
C208 C209 1.338 . S
C208 N211 1.377 . S
C208 H228 0.930 . S
C209 N207 1.375 . S
C209 C208 1.338 . S
C209 H213 0.931 . S
C210 N207 1.313 . S
C210 N211 1.344 . S
C210 H214 0.930 . S
N211 C208 1.377 . S
N211 C210 1.344 . S
O212 Co204 2.055 . S
O212 C216 1.253 . S
H213 C209 0.931 . S
H214 C210 0.930 . S
O215 Co204 2.039 . S
O215 C205 1.265 . S
C216 O212 1.253 . S
C216 O217 1.227 . S
O217 C216 1.227 . S
N218 Co204 2.140 . S
N218 C221 1.346 . S
N218 C222 1.345 . S
C219 C220 1.387 . S
C219 C223 1.391 . S
C220 C219 1.387 . S
C220 C221 1.369 . S
C220 H229 0.929 . S
C221 N218 1.346 . S
C221 C220 1.369 . S
C221 H224 0.928 . S
C222 N218 1.345 . S
C222 C223 1.371 . S
C222 H225 0.931 . S
C223 C219 1.391 . S
C223 C222 1.371 . S
C223 H230 0.930 . S
H224 C221 0.928 . S
H225 C222 0.931 . S
H226 C202 0.930 . S
H227 C199 0.930 . S
H228 C208 0.930 . S
H229 C220 0.929 . S
H230 C223 0.930 . S
C231 C232 1.351 . S
C231 N234 1.368 . S
C231 H236 0.931 . S
C232 C231 1.351 . S
C232 N233 1.373 . S
C232 H260 0.930 . S
N233 C232 1.373 . S
N233 C235 1.340 . S
N234 C231 1.368 . S
N234 C235 1.321 . S
N234 Co237 2.135 . S
C235 N233 1.340 . S
C235 N234 1.321 . S
C235 H259 0.930 1_655 S
H236 C231 0.931 . S
Co237 N234 2.135 . S
Co237 N240 2.121 . S
Co237 O245 2.055 . S
Co237 O248 2.039 . S
Co237 N251 2.140 1_655 S
C238 O239 1.227 . S
C238 O248 1.265 1_455 S
O239 C238 1.227 . S
N240 Co237 2.121 . S
N240 C242 1.375 1_655 S
N240 C243 1.313 . S
C241 C242 1.338 . S
C241 N244 1.377 1_455 S
C241 H261 0.930 . S
C242 N240 1.375 1_455 S
C242 C241 1.338 . S
C242 H246 0.931 . S
C243 N240 1.313 . S
C243 N244 1.344 . S
C243 H247 0.930 . S
N244 C241 1.377 1_655 S
N244 C243 1.344 . S
O245 Co237 2.055 . S
O245 C249 1.253 . S
H246 C242 0.931 . S
H247 C243 0.930 . S
O248 Co237 2.039 . S
O248 C238 1.265 1_655 S
C249 O245 1.253 . S
C249 O250 1.227 . S
O250 C249 1.227 . S
N251 Co237 2.140 1_455 S
N251 C254 1.346 . S
N251 C255 1.345 . S
C252 C253 1.387 . S
C252 C256 1.391 . S
C253 C252 1.387 . S
C253 C254 1.369 . S
C253 H262 0.929 . S
C254 N251 1.346 . S
C254 C253 1.369 . S
C254 H257 0.928 . S
C255 N251 1.345 . S
C255 C256 1.371 . S
C255 H258 0.931 . S
C256 C252 1.391 . S
C256 C255 1.371 . S
C256 H263 0.930 . S
H257 C254 0.928 . S
H258 C255 0.931 . S
H259 C235 0.930 1_455 S
H260 C232 0.930 . S
H261 C241 0.930 . S
H262 C253 0.929 . S
H263 C256 0.930 . S
C264 C265 1.349 . S
C264 C266 1.327 . S
C264 H289 0.950 . S
C265 C264 1.349 . S
C265 C281 1.349 . S
C266 C264 1.327 . S
C266 C285 1.429 . S
C266 H290 0.950 . S
C267 C284 1.574 . S
C267 C286 1.368 . S
C267 H291 0.949 . S
H268 C272 0.949 . S
C269 C270 1.349 . S
C269 C271 1.327 . S
C269 H292 0.950 . S
C270 C269 1.349 . S
C270 C282 1.349 . S
C271 C269 1.327 . S
C271 C287 1.429 . S
C271 H293 0.950 . S
C272 H268 0.949 . S
C272 C280 1.574 . S
C272 C288 1.368 . S
H273 C281 0.950 . S
H274 C279 0.950 . S
H275 C280 0.949 . S
H276 C282 0.950 . S
H277 C283 0.950 . S
H278 C284 0.949 . S
C279 H274 0.950 . S
C279 C281 1.327 . S
C279 C285 1.429 . S
C280 C272 1.574 . S
C280 H275 0.949 . S
C280 C286 1.368 1_554 S
C281 C265 1.349 . S
C281 H273 0.950 . S
C281 C279 1.327 . S
C282 C270 1.349 . S
C282 H276 0.950 . S
C282 C283 1.327 . S
C283 H277 0.950 . S
C283 C282 1.327 . S
C283 C287 1.429 . S
C284 C267 1.574 . S
C284 H278 0.949 . S
C284 C288 1.368 1_556 S
C285 C266 1.429 . S
C285 C279 1.429 . S
C285 C286 1.523 . S
C286 C267 1.368 . S
C286 C280 1.368 1_556 S
C286 C285 1.523 . S
C287 C271 1.429 . S
C287 C283 1.429 . S
C287 C288 1.523 . S
C288 C272 1.368 . S
C288 C284 1.368 1_554 S
C288 C287 1.523 . S
H289 C264 0.950 . S
H290 C266 0.950 . S
H291 C267 0.949 . S
H292 C269 0.950 . S
H293 C271 0.950 . S
C294 C295 1.349 . S
C294 C296 1.327 . S
C294 H319 0.950 . S
C295 C294 1.349 . S
C295 C311 1.349 . S
C296 C294 1.327 . S
C296 C315 1.429 . S
C296 H320 0.950 . S
C297 C314 1.574 . S
C297 C316 1.368 . S
C297 H321 0.949 . S
H298 C302 0.949 . S
C299 C300 1.349 . S
C299 C301 1.327 . S
C299 H322 0.950 . S
C300 C299 1.349 . S
C300 C312 1.349 . S
C301 C299 1.327 . S
C301 C317 1.429 . S
C301 H323 0.950 . S
C302 H298 0.949 . S
C302 C310 1.574 . S
C302 C318 1.368 . S
H303 C311 0.950 . S
H304 C309 0.950 . S
H305 C310 0.949 . S
H306 C312 0.950 . S
H307 C313 0.950 . S
H308 C314 0.949 . S
C309 H304 0.950 . S
C309 C311 1.327 . S
C309 C315 1.429 . S
C310 C302 1.574 . S
C310 H305 0.949 . S
C310 C316 1.368 . S
C311 C295 1.349 . S
C311 H303 0.950 . S
C311 C309 1.327 . S
C312 C300 1.349 . S
C312 H306 0.950 . S
C312 C313 1.327 . S
C313 H307 0.950 . S
C313 C312 1.327 . S
C313 C317 1.429 . S
C314 C297 1.574 . S
C314 H308 0.949 . S
C314 C318 1.368 . S
C315 C296 1.429 . S
C315 C309 1.429 . S
C315 C316 1.523 . S
C316 C297 1.368 . S
C316 C310 1.368 . S
C316 C315 1.523 . S
C317 C301 1.429 . S
C317 C313 1.429 . S
C317 C318 1.523 . S
C318 C302 1.368 . S
C318 C314 1.368 . S
C318 C317 1.523 . S
H319 C294 0.950 . S
H320 C296 0.950 . S
H321 C297 0.949 . S
H322 C299 0.950 . S
H323 C301 0.950 . S
C324 C325 1.349 . S
C324 C326 1.327 . S
C324 H349 0.950 . S
C325 C324 1.349 . S
C325 C341 1.349 . S
C326 C324 1.327 . S
C326 C345 1.429 . S
C326 H350 0.950 . S
C327 C344 1.574 . S
C327 C346 1.368 1_556 S
C327 H351 0.949 . S
H328 C332 0.949 . S
C329 C330 1.349 . S
C329 C331 1.327 . S
C329 H352 0.950 . S
C330 C329 1.349 . S
C330 C342 1.349 . S
C331 C329 1.327 . S
C331 C347 1.429 . S
C331 H353 0.950 . S
C332 H328 0.949 . S
C332 C340 1.574 . S
C332 C348 1.368 1_554 S
H333 C341 0.950 . S
H334 C339 0.950 . S
H335 C340 0.949 . S
H336 C342 0.950 . S
H337 C343 0.950 . S
H338 C344 0.949 . S
C339 H334 0.950 . S
C339 C341 1.327 . S
C339 C345 1.429 . S
C340 C332 1.574 . S
C340 H335 0.949 . S
C340 C346 1.368 . S
C341 C325 1.349 . S
C341 H333 0.950 . S
C341 C339 1.327 . S
C342 C330 1.349 . S
C342 H336 0.950 . S
C342 C343 1.327 . S
C343 H337 0.950 . S
C343 C342 1.327 . S
C343 C347 1.429 . S
C344 C327 1.574 . S
C344 H338 0.949 . S
C344 C348 1.368 . S
C345 C326 1.429 . S
C345 C339 1.429 . S
C345 C346 1.523 . S
C346 C327 1.368 1_554 S
C346 C340 1.368 . S
C346 C345 1.523 . S
C347 C331 1.429 . S
C347 C343 1.429 . S
C347 C348 1.523 . S
C348 C332 1.368 1_556 S
C348 C344 1.368 . S
C348 C347 1.523 . S
H349 C324 0.950 . S
H350 C326 0.950 . S
H351 C327 0.949 . S
H352 C329 0.950 . S
H353 C331 0.950 . S
C354 C355 1.349 . S
C354 C356 1.327 . S
C354 H379 0.950 . S
C355 C354 1.349 . S
C355 C371 1.349 . S
C356 C354 1.327 . S
C356 C375 1.429 . S
C356 H380 0.950 . S
C357 C374 1.574 . S
C357 C376 1.368 . S
C357 H381 0.949 . S
H358 C362 0.949 . S
C359 C360 1.349 . S
C359 C361 1.327 . S
C359 H382 0.950 . S
C360 C359 1.349 . S
C360 C372 1.349 . S
C361 C359 1.327 . S
C361 C377 1.429 . S
C361 H383 0.950 . S
C362 H358 0.949 . S
C362 C370 1.574 . S
C362 C378 1.368 . S
H363 C371 0.950 . S
H364 C369 0.950 . S
H365 C370 0.949 . S
H366 C372 0.950 . S
H367 C373 0.950 . S
H368 C374 0.949 . S
C369 H364 0.950 . S
C369 C371 1.327 . S
C369 C375 1.429 . S
C370 C362 1.574 . S
C370 H365 0.949 . S
C370 C376 1.368 . S
C371 C355 1.349 . S
C371 H363 0.950 . S
C371 C369 1.327 . S
C372 C360 1.349 . S
C372 H366 0.950 . S
C372 C373 1.327 . S
C373 H367 0.950 . S
C373 C372 1.327 . S
C373 C377 1.429 . S
C374 C357 1.574 . S
C374 H368 0.949 . S
C374 C378 1.368 . S
C375 C356 1.429 . S
C375 C369 1.429 . S
C375 C376 1.523 . S
C376 C357 1.368 . S
C376 C370 1.368 . S
C376 C375 1.523 . S
C377 C361 1.429 . S
C377 C373 1.429 . S
C377 C378 1.523 . S
C378 C362 1.368 . S
C378 C374 1.368 . S
C378 C377 1.523 . S
H379 C354 0.950 . S
H380 C356 0.950 . S
H381 C357 0.949 . S
H382 C359 0.950 . S
H383 C361 0.950 . S
C384 C385 1.349 . S
C384 C386 1.327 . S
C384 H409 0.950 . S
C385 C384 1.349 . S
C385 C401 1.349 . S
C386 C384 1.327 . S
C386 C405 1.429 . S
C386 H410 0.950 . S
C387 C404 1.574 . S
C387 C406 1.368 1_556 S
C387 H411 0.949 . S
H388 C392 0.949 . S
C389 C390 1.349 . S
C389 C391 1.327 . S
C389 H412 0.950 . S
C390 C389 1.349 . S
C390 C402 1.349 . S
C391 C389 1.327 . S
C391 C407 1.429 . S
C391 H413 0.950 . S
C392 H388 0.949 . S
C392 C400 1.574 . S
C392 C408 1.368 1_554 S
H393 C401 0.950 . S
H394 C399 0.950 . S
H395 C400 0.949 . S
H396 C402 0.950 . S
H397 C403 0.950 . S
H398 C404 0.949 . S
C399 H394 0.950 . S
C399 C401 1.327 . S
C399 C405 1.429 . S
C400 C392 1.574 . S
C400 H395 0.949 . S
C400 C406 1.368 . S
C401 C385 1.349 . S
C401 H393 0.950 . S
C401 C399 1.327 . S
C402 C390 1.349 . S
C402 H396 0.950 . S
C402 C403 1.327 . S
C403 H397 0.950 . S
C403 C402 1.327 . S
C403 C407 1.429 . S
C404 C387 1.574 . S
C404 H398 0.949 . S
C404 C408 1.368 . S
C405 C386 1.429 . S
C405 C399 1.429 . S
C405 C406 1.523 . S
C406 C387 1.368 1_554 S
C406 C400 1.368 . S
C406 C405 1.523 . S
C407 C391 1.429 . S
C407 C403 1.429 . S
C407 C408 1.523 . S
C408 C392 1.368 1_556 S
C408 C404 1.368 . S
C408 C407 1.523 . S
H409 C384 0.950 . S
H410 C386 0.950 . S
H411 C387 0.949 . S
H412 C389 0.950 . S
H413 C391 0.950 . S
C414 C415 1.349 . S
C414 C416 1.327 . S
C414 H439 0.950 . S
C415 C414 1.349 . S
C415 C431 1.349 . S
C416 C414 1.327 . S
C416 C435 1.429 . S
C416 H440 0.950 . S
C417 C434 1.574 . S
C417 C436 1.368 . S
C417 H441 0.949 . S
H418 C422 0.949 . S
C419 C420 1.349 . S
C419 C421 1.327 . S
C419 H442 0.950 . S
C420 C419 1.349 . S
C420 C432 1.349 . S
C421 C419 1.327 . S
C421 C437 1.429 . S
C421 H443 0.950 . S
C422 H418 0.949 . S
C422 C430 1.574 . S
C422 C438 1.368 . S
H423 C431 0.950 . S
H424 C429 0.950 . S
H425 C430 0.949 . S
H426 C432 0.950 . S
H427 C433 0.950 . S
H428 C434 0.949 . S
C429 H424 0.950 . S
C429 C431 1.327 . S
C429 C435 1.429 . S
C430 C422 1.574 . S
C430 H425 0.949 . S
C430 C436 1.368 . S
C431 C415 1.349 . S
C431 H423 0.950 . S
C431 C429 1.327 . S
C432 C420 1.349 . S
C432 H426 0.950 . S
C432 C433 1.327 . S
C433 H427 0.950 . S
C433 C432 1.327 . S
C433 C437 1.429 . S
C434 C417 1.574 . S
C434 H428 0.949 . S
C434 C438 1.368 . S
C435 C416 1.429 . S
C435 C429 1.429 . S
C435 C436 1.523 . S
C436 C417 1.368 . S
C436 C430 1.368 . S
C436 C435 1.523 . S
C437 C421 1.429 . S
C437 C433 1.429 . S
C437 C438 1.523 . S
C438 C422 1.368 . S
C438 C434 1.368 . S
C438 C437 1.523 . S
H439 C414 0.950 . S
H440 C416 0.950 . S
H441 C417 0.949 . S
H442 C419 0.950 . S
H443 C421 0.950 . S
C444 C445 1.349 . S
C444 C446 1.327 . S
C444 H469 0.950 . S
C445 C444 1.349 . S
C445 C461 1.349 . S
C446 C444 1.327 . S
C446 C465 1.429 . S
C446 H470 0.950 . S
C447 C464 1.574 . S
C447 C466 1.368 1_556 S
C447 H471 0.949 . S
H448 C452 0.949 . S
C449 C450 1.349 . S
C449 C451 1.327 . S
C449 H472 0.950 . S
C450 C449 1.349 . S
C450 C462 1.349 . S
C451 C449 1.327 . S
C451 C467 1.429 . S
C451 H473 0.950 . S
C452 H448 0.949 . S
C452 C460 1.574 . S
C452 C468 1.368 1_554 S
H453 C461 0.950 . S
H454 C459 0.950 . S
H455 C460 0.949 . S
H456 C462 0.950 . S
H457 C463 0.950 . S
H458 C464 0.949 . S
C459 H454 0.950 . S
C459 C461 1.327 . S
C459 C465 1.429 . S
C460 C452 1.574 . S
C460 H455 0.949 . S
C460 C466 1.368 . S
C461 C445 1.349 . S
C461 H453 0.950 . S
C461 C459 1.327 . S
C462 C450 1.349 . S
C462 H456 0.950 . S
C462 C463 1.327 . S
C463 H457 0.950 . S
C463 C462 1.327 . S
C463 C467 1.429 . S
C464 C447 1.574 . S
C464 H458 0.949 . S
C464 C468 1.368 . S
C465 C446 1.429 . S
C465 C459 1.429 . S
C465 C466 1.523 . S
C466 C447 1.368 1_554 S
C466 C460 1.368 . S
C466 C465 1.523 . S
C467 C451 1.429 . S
C467 C463 1.429 . S
C467 C468 1.523 . S
C468 C452 1.368 1_556 S
C468 C464 1.368 . S
C468 C467 1.523 . S
H469 C444 0.950 . S
H470 C446 0.950 . S
H471 C447 0.949 . S
H472 C449 0.950 . S
H473 C451 0.950 . S
C474 C475 1.349 . S
C474 C476 1.327 . S
C474 H499 0.950 . S
C475 C474 1.349 . S
C475 C491 1.349 . S
C476 C474 1.327 . S
C476 C495 1.429 . S
C476 H500 0.950 . S
C477 C494 1.574 . S
C477 C496 1.368 . S
C477 H501 0.949 . S
H478 C482 0.949 . S
C479 C480 1.349 . S
C479 C481 1.327 . S
C479 H502 0.950 . S
C480 C479 1.349 . S
C480 C492 1.349 . S
C481 C479 1.327 . S
C481 C497 1.429 . S
C481 H503 0.950 . S
C482 H478 0.949 . S
C482 C490 1.574 . S
C482 C498 1.368 . S
H483 C491 0.950 . S
H484 C489 0.950 . S
H485 C490 0.949 . S
H486 C492 0.950 . S
H487 C493 0.950 . S
H488 C494 0.949 . S
C489 H484 0.950 . S
C489 C491 1.327 . S
C489 C495 1.429 . S
C490 C482 1.574 . S
C490 H485 0.949 . S
C490 C496 1.368 . S
C491 C475 1.349 . S
C491 H483 0.950 . S
C491 C489 1.327 . S
C492 C480 1.349 . S
C492 H486 0.950 . S
C492 C493 1.327 . S
C493 H487 0.950 . S
C493 C492 1.327 . S
C493 C497 1.429 . S
C494 C477 1.574 . S
C494 H488 0.949 . S
C494 C498 1.368 . S
C495 C476 1.429 . S
C495 C489 1.429 . S
C495 C496 1.523 . S
C496 C477 1.368 . S
C496 C490 1.368 . S
C496 C495 1.523 . S
C497 C481 1.429 . S
C497 C493 1.429 . S
C497 C498 1.523 . S
C498 C482 1.368 . S
C498 C494 1.368 . S
C498 C497 1.523 . S
H499 C474 0.950 . S
H500 C476 0.950 . S
H501 C477 0.949 . S
H502 C479 0.950 . S
H503 C481 0.950 . S
C504 C505 1.349 1_655 S
C504 C506 1.327 . S
C504 H529 0.950 . S
C505 C504 1.349 1_455 S
C505 C521 1.349 . S
C506 C504 1.327 . S
C506 C525 1.429 1_655 S
C506 H530 0.950 . S
C507 C524 1.574 . S
C507 C526 1.368 . S
C507 H531 0.949 . S
H508 C512 0.949 . S
C509 C510 1.370 . S
C509 C511 1.327 . S
C509 H532 0.950 . S
C510 C509 1.370 . S
C510 C522 1.330 1_455 S
C511 C509 1.327 . S
C511 C527 1.429 . S
C511 H533 0.950 . S
C512 H508 0.949 . S
C512 C520 1.574 . S
C512 C528 1.368 1_655 S
H513 C521 0.950 . S
H514 C519 0.950 . S
H515 C520 0.949 . S
H516 C522 0.950 . S
H517 C523 0.950 . S
H518 C524 0.949 . S
C519 H514 0.950 . S
C519 C521 1.327 . S
C519 C525 1.429 . S
C520 C512 1.574 . S
C520 H515 0.949 . S
C520 C526 1.368 1_655 S
C521 C505 1.349 . S
C521 H513 0.950 . S
C521 C519 1.327 . S
C522 C510 1.330 1_655 S
C522 H516 0.950 . S
C522 C523 1.327 . S
C523 H517 0.950 . S
C523 C522 1.327 . S
C523 C527 1.429 1_655 S
C524 C507 1.574 . S
C524 H518 0.949 . S
C524 C528 1.368 . S
C525 C506 1.429 1_455 S
C525 C519 1.429 . S
C525 C526 1.523 . S
C526 C507 1.368 . S
C526 C520 1.368 1_455 S
C526 C525 1.523 . S
C527 C511 1.429 . S
C527 C523 1.429 1_455 S
C527 C528 1.523 . S
C528 C512 1.368 1_455 S
C528 C524 1.368 . S
C528 C527 1.523 . S
H529 C504 0.950 . S
H530 C506 0.950 . S
H531 C507 0.949 . S
H532 C509 0.950 . S
H533 C511 0.950 . S
C534 C535 1.349 . S
C534 C536 1.327 . S
C534 H559 0.950 . S
C535 C534 1.349 . S
C535 C551 1.349 . S
C536 C534 1.327 . S
C536 C555 1.429 . S
C536 H560 0.950 . S
C537 C554 1.574 . S
C537 C556 1.368 . S
C537 H561 0.949 . S
H538 C542 0.949 . S
C539 C540 1.349 . S
C539 C541 1.327 . S
C539 H562 0.950 . S
C540 C539 1.349 . S
C540 C552 1.349 . S
C541 C539 1.327 . S
C541 C557 1.429 . S
C541 H563 0.950 . S
C542 H538 0.949 . S
C542 C550 1.574 . S
C542 C558 1.368 . S
H543 C551 0.950 . S
H544 C549 0.950 . S
H545 C550 0.949 . S
H546 C552 0.950 . S
H547 C553 0.950 . S
H548 C554 0.949 . S
C549 H544 0.950 . S
C549 C551 1.327 . S
C549 C555 1.429 . S
C550 C542 1.574 . S
C550 H545 0.949 . S
C550 C556 1.368 . S
C551 C535 1.349 . S
C551 H543 0.950 . S
C551 C549 1.327 . S
C552 C540 1.349 . S
C552 H546 0.950 . S
C552 C553 1.327 . S
C553 H547 0.950 . S
C553 C552 1.327 . S
C553 C557 1.429 . S
C554 C537 1.574 . S
C554 H548 0.949 . S
C554 C558 1.368 . S
C555 C536 1.429 . S
C555 C549 1.429 . S
C555 C556 1.523 . S
C556 C537 1.368 . S
C556 C550 1.368 . S
C556 C555 1.523 . S
C557 C541 1.429 . S
C557 C553 1.429 . S
C557 C558 1.523 . S
C558 C542 1.368 . S
C558 C554 1.368 . S
C558 C557 1.523 . S
H559 C534 0.950 . S
H560 C536 0.950 . S
H561 C537 0.949 . S
H562 C539 0.950 . S
H563 C541 0.950 . S
C564 C565 1.358 . S
C564 C566 1.327 . S
C564 H589 0.950 . S
C565 C564 1.358 . S
C565 C581 1.342 1_455 S
C566 C564 1.327 . S
C566 C585 1.429 . S
C566 H590 0.950 . S
C567 C584 1.573 1_655 S
C567 C586 1.368 1_655 S
C567 H591 0.949 . S
H568 C572 0.949 . S
C569 C570 1.349 . S
C569 C571 1.327 . S
C569 H592 0.950 . S
C570 C569 1.349 . S
C570 C582 1.349 . S
C571 C569 1.327 . S
C571 C587 1.429 . S
C571 H593 0.950 1_455 S
C572 H568 0.949 . S
C572 C580 1.574 . S
C572 C588 1.368 . S
H573 C581 0.950 . S
H574 C579 0.950 . S
H575 C580 0.949 . S
H576 C582 0.950 . S
H577 C583 0.950 . S
H578 C584 0.948 1_655 S
C579 H574 0.950 . S
C579 C581 1.327 . S
C579 C585 1.429 1_655 S
C580 C572 1.574 . S
C580 H575 0.949 . S
C580 C586 1.368 . S
C581 C565 1.342 1_655 S
C581 H573 0.950 . S
C581 C579 1.327 . S
C582 C570 1.349 . S
C582 H576 0.950 . S
C582 C583 1.327 . S
C583 H577 0.950 . S
C583 C582 1.327 . S
C583 C587 1.429 . S
C584 C567 1.573 1_455 S
C584 H578 0.948 1_455 S
C584 C588 1.370 . S
C585 C566 1.429 . S
C585 C579 1.429 1_455 S
C585 C586 1.523 . S
C586 C567 1.368 1_455 S
C586 C580 1.368 . S
C586 C585 1.523 . S
C587 C571 1.429 . S
C587 C583 1.429 . S
C587 C588 1.523 . S
C588 C572 1.368 . S
C588 C584 1.370 . S
C588 C587 1.523 . S
H589 C564 0.950 . S
H590 C566 0.950 . S
H591 C567 0.949 . S
H592 C569 0.950 . S
H593 C571 0.950 1_655 S
C594 C595 1.349 . S
C594 C596 1.327 . S
C594 H619 0.950 . S
C595 C594 1.349 . S
C595 C611 1.349 . S
C596 C594 1.327 . S
C596 C615 1.429 . S
C596 H620 0.950 . S
C597 C614 1.574 . S
C597 C616 1.368 . S
C597 H621 0.949 . S
H598 C602 0.949 . S
C599 C600 1.349 . S
C599 C601 1.327 . S
C599 H622 0.950 . S
C600 C599 1.349 . S
C600 C612 1.349 . S
C601 C599 1.327 . S
C601 C617 1.429 . S
C601 H623 0.950 . S
C602 H598 0.949 . S
C602 C610 1.574 . S
C602 C618 1.368 . S
H603 C611 0.950 . S
H604 C609 0.950 . S
H605 C610 0.949 . S
H606 C612 0.950 . S
H607 C613 0.950 . S
H608 C614 0.949 . S
C609 H604 0.950 . S
C609 C611 1.327 . S
C609 C615 1.429 . S
C610 C602 1.574 . S
C610 H605 0.949 . S
C610 C616 1.368 . S
C611 C595 1.349 . S
C611 H603 0.950 . S
C611 C609 1.327 . S
C612 C600 1.349 . S
C612 H606 0.950 . S
C612 C613 1.327 . S
C613 H607 0.950 . S
C613 C612 1.327 . S
C613 C617 1.429 . S
C614 C597 1.574 . S
C614 H608 0.949 . S
C614 C618 1.368 . S
C615 C596 1.429 . S
C615 C609 1.429 . S
C615 C616 1.523 . S
C616 C597 1.368 . S
C616 C610 1.368 . S
C616 C615 1.523 . S
C617 C601 1.429 . S
C617 C613 1.429 . S
C617 C618 1.523 . S
C618 C602 1.368 . S
C618 C614 1.368 . S
C618 C617 1.523 . S
H619 C594 0.950 . S
H620 C596 0.950 . S
H621 C597 0.949 . S
H622 C599 0.950 . S
H623 C601 0.950 . S
C624 C625 1.349 . S
C624 C626 1.327 . S
C624 H649 0.950 . S
C625 C624 1.349 . S
C625 C641 1.349 . S
C626 C624 1.327 . S
C626 C645 1.429 . S
C626 H650 0.950 . S
C627 C644 1.574 . S
C627 C646 1.368 1_545 S
C627 H651 0.949 . S
H628 C632 0.949 . S
C629 C630 1.349 . S
C629 C631 1.327 . S
C629 H652 0.950 . S
C630 C629 1.349 . S
C630 C642 1.349 . S
C631 C629 1.327 . S
C631 C647 1.429 . S
C631 H653 0.950 . S
C632 H628 0.949 . S
C632 C640 1.574 1_545 S
C632 C648 1.368 . S
H633 C641 0.950 . S
H634 C639 0.950 . S
H635 C640 0.949 . S
H636 C642 0.950 . S
H637 C643 0.950 . S
H638 C644 0.949 . S
C639 H634 0.950 . S
C639 C641 1.327 . S
C639 C645 1.429 . S
C640 C632 1.574 1_565 S
C640 H635 0.949 . S
C640 C646 1.368 . S
C641 C625 1.349 . S
C641 H633 0.950 . S
C641 C639 1.327 . S
C642 C630 1.349 . S
C642 H636 0.950 . S
C642 C643 1.327 . S
C643 H637 0.950 . S
C643 C642 1.327 . S
C643 C647 1.429 . S
C644 C627 1.574 . S
C644 H638 0.949 . S
C644 C648 1.368 . S
C645 C626 1.429 . S
C645 C639 1.429 . S
C645 C646 1.523 . S
C646 C627 1.368 1_565 S
C646 C640 1.368 . S
C646 C645 1.523 . S
C647 C631 1.429 . S
C647 C643 1.429 . S
C647 C648 1.523 . S
C648 C632 1.368 . S
C648 C644 1.368 . S
C648 C647 1.523 . S
H649 C624 0.950 . S
H650 C626 0.950 . S
H651 C627 0.949 . S
H652 C629 0.950 . S
H653 C631 0.950 . S
C654 C655 1.349 . S
C654 C656 1.327 . S
C654 H679 0.950 . S
C655 C654 1.349 . S
C655 C671 1.349 . S
C656 C654 1.327 . S
C656 C675 1.429 . S
C656 H680 0.950 . S
C657 C674 1.573 1_455 S
C657 C676 1.368 . S
C657 H681 0.949 1_455 S
H658 C662 0.949 . S
C659 C660 1.349 1_655 S
C659 C661 1.327 . S
C659 H682 0.950 . S
C660 C659 1.349 1_455 S
C660 C672 1.349 . S
C661 C659 1.327 . S
C661 C677 1.429 1_655 S
C661 H683 0.950 . S
C662 H658 0.949 . S
C662 C670 1.574 1_545 S
C662 C678 1.368 . S
H663 C671 0.950 1_655 S
H664 C669 0.950 1_655 S
H665 C670 0.949 . S
H666 C672 0.950 . S
H667 C673 0.950 . S
H668 C674 0.961 . S
C669 H664 0.950 1_455 S
C669 C671 1.327 . S
C669 C675 1.429 . S
C670 C662 1.574 1_565 S
C670 H665 0.949 . S
C670 C676 1.368 . S
C671 C655 1.349 . S
C671 H663 0.950 1_455 S
C671 C669 1.327 . S
C672 C660 1.349 . S
C672 H666 0.950 . S
C672 C673 1.327 . S
C673 H667 0.950 . S
C673 C672 1.327 . S
C673 C677 1.429 . S
C674 C657 1.573 1_655 S
C674 H668 0.961 . S
C674 C678 1.357 1_665 S
C675 C656 1.429 . S
C675 C669 1.429 . S
C675 C676 1.523 . S
C676 C657 1.368 . S
C676 C670 1.368 . S
C676 C675 1.523 . S
C677 C661 1.429 1_455 S
C677 C673 1.429 . S
C677 C678 1.523 . S
C678 C662 1.368 . S
C678 C674 1.357 1_445 S
C678 C677 1.523 . S
H679 C654 0.950 . S
H680 C656 0.950 . S
H681 C657 0.949 1_655 S
H682 C659 0.950 . S
H683 C661 0.950 . S
C684 C685 1.349 . S
C684 C686 1.327 . S
C684 H709 0.950 . S
C685 C684 1.349 . S
C685 C701 1.349 . S
C686 C684 1.327 . S
C686 C705 1.429 . S
C686 H710 0.950 . S
C687 C704 1.574 . S
C687 C706 1.368 . S
C687 H711 0.949 . S
H688 C692 0.949 . S
C689 C690 1.349 . S
C689 C691 1.327 . S
C689 H712 0.950 . S
C690 C689 1.349 . S
C690 C702 1.349 . S
C691 C689 1.327 . S
C691 C707 1.429 . S
C691 H713 0.950 . S
C692 H688 0.949 . S
C692 C700 1.574 1_545 S
C692 C708 1.368 . S
H693 C701 0.950 . S
H694 C699 0.950 . S
H695 C700 0.949 . S
H696 C702 0.950 . S
H697 C703 0.950 . S
H698 C704 0.949 . S
C699 H694 0.950 . S
C699 C701 1.327 . S
C699 C705 1.429 . S
C700 C692 1.574 1_565 S
C700 H695 0.949 . S
C700 C706 1.368 . S
C701 C685 1.349 . S
C701 H693 0.950 . S
C701 C699 1.327 . S
C702 C690 1.349 . S
C702 H696 0.950 . S
C702 C703 1.327 . S
C703 H697 0.950 . S
C703 C702 1.327 . S
C703 C707 1.429 . S
C704 C687 1.574 . S
C704 H698 0.949 . S
C704 C708 1.368 1_565 S
C705 C686 1.429 . S
C705 C699 1.429 . S
C705 C706 1.523 . S
C706 C687 1.368 . S
C706 C700 1.368 . S
C706 C705 1.523 . S
C707 C691 1.429 . S
C707 C703 1.429 . S
C707 C708 1.523 . S
C708 C692 1.368 . S
C708 C704 1.368 1_545 S
C708 C707 1.523 . S
H709 C684 0.950 . S
H710 C686 0.950 . S
H711 C687 0.949 . S
H712 C689 0.950 . S
H713 C691 0.950 . S
C714 C715 1.349 . S
C714 C716 1.327 . S
C714 H739 0.950 . S
C715 C714 1.349 . S
C715 C731 1.349 1_455 S
C716 C714 1.327 . S
C716 C735 1.429 . S
C716 H740 0.950 . S
C717 C734 1.574 1_545 S
C717 C736 1.368 1_655 S
C717 H741 0.949 . S
H718 C722 0.949 . S
C719 C720 1.349 1_655 S
C719 C721 1.327 . S
C719 H742 0.950 . S
C720 C719 1.349 1_455 S
C720 C732 1.349 . S
C721 C719 1.327 . S
C721 C737 1.429 1_655 S
C721 H743 0.950 . S
C722 H718 0.949 . S
C722 C730 1.574 1_565 S
C722 C738 1.368 . S
H723 C731 0.950 . S
H724 C729 0.950 . S
H725 C730 0.949 . S
H726 C732 0.950 . S
H727 C733 0.950 . S
H728 C734 0.949 . S
C729 H724 0.950 . S
C729 C731 1.327 . S
C729 C735 1.429 1_655 S
C730 C722 1.574 1_545 S
C730 H725 0.949 . S
C730 C736 1.368 . S
C731 C715 1.349 1_655 S
C731 H723 0.950 . S
C731 C729 1.327 . S
C732 C720 1.349 . S
C732 H726 0.950 . S
C732 C733 1.327 . S
C733 H727 0.950 . S
C733 C732 1.327 . S
C733 C737 1.429 . S
C734 C717 1.574 1_565 S
C734 H728 0.949 . S
C734 C738 1.368 1_655 S
C735 C716 1.429 . S
C735 C729 1.429 1_455 S
C735 C736 1.523 . S
C736 C717 1.368 1_455 S
C736 C730 1.368 . S
C736 C735 1.523 . S
C737 C721 1.429 1_455 S
C737 C733 1.429 . S
C737 C738 1.523 . S
C738 C722 1.368 . S
C738 C734 1.368 1_455 S
C738 C737 1.523 . S
H739 C714 0.950 . S
H740 C716 0.950 . S
H741 C717 0.949 . S
H742 C719 0.950 . S
H743 C721 0.950 . S
C744 C745 1.349 . S
C744 C746 1.327 . S
C744 H769 0.950 . S
C745 C744 1.349 . S
C745 C761 1.349 . S
C746 C744 1.327 . S
C746 C765 1.429 . S
C746 H770 0.950 . S
C747 C764 1.574 1_556 S
C747 C766 1.368 . S
C747 H771 0.949 1_455 S
H748 C752 0.949 . S
C749 C750 1.349 . S
C749 C751 1.327 . S
C749 H772 0.950 1_455 S
C750 C749 1.349 . S
C750 C762 1.349 . S
C751 C749 1.327 . S
C751 C767 1.429 . S
C751 H773 0.950 1_455 S
C752 H748 0.949 . S
C752 C760 1.574 1_554 S
C752 C768 1.368 . S
H753 C761 0.950 1_655 S
H754 C759 0.950 1_655 S
H755 C760 0.949 . S
H756 C762 0.950 . S
H757 C763 0.950 . S
H758 C764 0.949 1_655 S
C759 H754 0.950 1_455 S
C759 C761 1.327 . S
C759 C765 1.429 . S
C760 C752 1.574 1_556 S
C760 H755 0.949 . S
C760 C766 1.368 . S
C761 C745 1.349 . S
C761 H753 0.950 1_455 S
C761 C759 1.327 . S
C762 C750 1.349 . S
C762 H756 0.950 . S
C762 C763 1.327 . S
C763 H757 0.950 . S
C763 C762 1.327 . S
C763 C767 1.429 . S
C764 C747 1.574 1_554 S
C764 H758 0.949 1_455 S
C764 C768 1.368 . S
C765 C746 1.429 . S
C765 C759 1.429 . S
C765 C766 1.523 . S
C766 C747 1.368 . S
C766 C760 1.368 . S
C766 C765 1.523 . S
C767 C751 1.429 . S
C767 C763 1.429 . S
C767 C768 1.523 . S
C768 C752 1.368 . S
C768 C764 1.368 . S
C768 C767 1.523 . S
H769 C744 0.950 . S
H770 C746 0.950 . S
H771 C747 0.949 1_655 S
H772 C749 0.950 1_655 S
H773 C751 0.950 1_655 S
C774 C775 1.349 . S
C774 C776 1.327 . S
C774 H799 0.950 . S
C775 C774 1.349 . S
C775 C791 1.349 . S
C776 C774 1.327 . S
C776 C795 1.429 . S
C776 H800 0.950 . S
C777 C794 1.574 . S
C777 C796 1.368 . S
C777 H801 0.949 . S
H778 C782 0.949 . S
C779 C780 1.349 . S
C779 C781 1.327 . S
C779 H802 0.950 . S
C780 C779 1.349 . S
C780 C792 1.349 . S
C781 C779 1.327 . S
C781 C797 1.429 . S
C781 H803 0.950 . S
C782 H778 0.949 . S
C782 C790 1.574 . S
C782 C798 1.368 . S
H783 C791 0.950 . S
H784 C789 0.950 . S
H785 C790 0.949 . S
H786 C792 0.950 . S
H787 C793 0.950 . S
H788 C794 0.949 . S
C789 H784 0.950 . S
C789 C791 1.327 . S
C789 C795 1.429 . S
C790 C782 1.574 . S
C790 H785 0.949 . S
C790 C796 1.368 . S
C791 C775 1.349 . S
C791 H783 0.950 . S
C791 C789 1.327 . S
C792 C780 1.349 . S
C792 H786 0.950 . S
C792 C793 1.327 . S
C793 H787 0.950 . S
C793 C792 1.327 . S
C793 C797 1.429 . S
C794 C777 1.574 . S
C794 H788 0.949 . S
C794 C798 1.368 . S
C795 C776 1.429 . S
C795 C789 1.429 . S
C795 C796 1.523 . S
C796 C777 1.368 . S
C796 C790 1.368 . S
C796 C795 1.523 . S
C797 C781 1.429 . S
C797 C793 1.429 . S
C797 C798 1.523 . S
C798 C782 1.368 . S
C798 C794 1.368 . S
C798 C797 1.523 . S
H799 C774 0.950 . S
H800 C776 0.950 . S
H801 C777 0.949 . S
H802 C779 0.950 . S
H803 C781 0.950 . S
C804 C805 1.349 . S
C804 C806 1.327 . S
C804 H829 0.950 . S
C805 C804 1.349 . S
C805 C821 1.349 . S
C806 C804 1.327 . S
C806 C825 1.429 . S
C806 H830 0.950 . S
C807 C824 1.574 1_546 S
C807 C826 1.368 . S
C807 H831 0.949 . S
H808 C812 0.949 . S
C809 C810 1.349 . S
C809 C811 1.327 . S
C809 H832 0.950 . S
C810 C809 1.349 . S
C810 C822 1.349 . S
C811 C809 1.327 . S
C811 C827 1.429 . S
C811 H833 0.950 . S
C812 H808 0.949 . S
C812 C820 1.574 1_564 S
C812 C828 1.368 . S
H813 C821 0.950 . S
H814 C819 0.950 . S
H815 C820 0.949 . S
H816 C822 0.950 . S
H817 C823 0.950 . S
H818 C824 0.949 . S
C819 H814 0.950 . S
C819 C821 1.327 . S
C819 C825 1.429 . S
C820 C812 1.574 1_546 S
C820 H815 0.949 . S
C820 C826 1.368 . S
C821 C805 1.349 . S
C821 H813 0.950 . S
C821 C819 1.327 . S
C822 C810 1.349 . S
C822 H816 0.950 . S
C822 C823 1.327 . S
C823 H817 0.950 . S
C823 C822 1.327 . S
C823 C827 1.429 . S
C824 C807 1.574 1_564 S
C824 H818 0.949 . S
C824 C828 1.368 . S
C825 C806 1.429 . S
C825 C819 1.429 . S
C825 C826 1.523 . S
C826 C807 1.368 . S
C826 C820 1.368 . S
C826 C825 1.523 . S
C827 C811 1.429 . S
C827 C823 1.429 . S
C827 C828 1.523 . S
C828 C812 1.368 . S
C828 C824 1.368 . S
C828 C827 1.523 . S
H829 C804 0.950 . S
H830 C806 0.950 . S
H831 C807 0.949 . S
H832 C809 0.950 . S
H833 C811 0.950 . S
C834 C835 1.349 . S
C834 C836 1.327 . S
C834 H859 0.950 . S
C835 C834 1.349 . S
C835 C851 1.349 1_655 S
C836 C834 1.327 . S
C836 C855 1.429 . S
C836 H860 0.950 . S
C837 C854 1.574 1_565 S
C837 C856 1.368 1_455 S
C837 H861 0.949 . S
H838 C842 0.949 . S
C839 C840 1.349 1_455 S
C839 C841 1.327 . S
C839 H862 0.950 . S
C840 C839 1.349 1_655 S
C840 C852 1.349 . S
C841 C839 1.327 . S
C841 C857 1.429 1_455 S
C841 H863 0.950 . S
C842 H838 0.949 . S
C842 C850 1.574 1_545 S
C842 C858 1.368 . S
H843 C851 0.950 . S
H844 C849 0.950 . S
H845 C850 0.949 . S
H846 C852 0.950 . S
H847 C853 0.950 . S
H848 C854 0.949 . S
C849 H844 0.950 . S
C849 C851 1.327 . S
C849 C855 1.429 1_455 S
C850 C842 1.574 1_565 S
C850 H845 0.949 . S
C850 C856 1.368 . S
C851 C835 1.349 1_455 S
C851 H843 0.950 . S
C851 C849 1.327 . S
C852 C840 1.349 . S
C852 H846 0.950 . S
C852 C853 1.327 . S
C853 H847 0.950 . S
C853 C852 1.327 . S
C853 C857 1.429 . S
C854 C837 1.574 1_545 S
C854 H848 0.949 . S
C854 C858 1.368 1_455 S
C855 C836 1.429 . S
C855 C849 1.429 1_655 S
C855 C856 1.523 . S
C856 C837 1.368 1_655 S
C856 C850 1.368 . S
C856 C855 1.523 . S
C857 C841 1.429 1_655 S
C857 C853 1.429 . S
C857 C858 1.523 . S
C858 C842 1.368 . S
C858 C854 1.368 1_655 S
C858 C857 1.523 . S
H859 C834 0.950 . S
H860 C836 0.950 . S
H861 C837 0.949 . S
H862 C839 0.950 . S
H863 C841 0.950 . S
C265 C219 1.776 . S
C270 C18 1.783 . S
C295 C51 1.783 . S
C300 C252 1.776 . S
C325 C153 1.776 . S
C330 C84 1.783 . S
C355 C117 1.783 . S
C360 C186 1.776 . S
C385 C150 1.783 . S
C390 C87 1.776 . S
C415 C183 1.783 . S
C420 C120 1.776 . S
C445 C21 1.776 . S
C450 C216 1.783 . S
C475 C54 1.776 . S
C480 C249 1.783 . S
C505 C7 2.067 . S
C510 N233 2.019 1_455 S
C535 C40 2.067 . S
C540 N200 2.024 . S
C565 N167 2.019 1_455 S
C570 C73 2.067 . S
C595 C106 2.067 . S
C600 N134 2.024 . S
C625 C139 2.067 . S
C630 N101 2.024 . S
C655 N68 2.024 . S
C660 C172 2.067 . S
C685 N35 2.024 . S
C690 C205 2.067 . S
C715 N2 2.024 . S
C720 C238 2.067 . S
C745 N79 1.036 . S
C750 N13 1.036 . S
C775 N46 1.036 . S
C780 N112 1.036 . S
C805 N211 1.036 . S
C810 N145 1.036 . S
C835 N244 1.036 . S
C840 N178 1.036 . S
