# Generated by pormake.
# Topology yfz, (5)-cn, num edge types: 1
# Building blocks:
#     Node 0, Type 0, BuildingBlock: BEQFEK_clean_sbu_0, # of connection points: 5
#     Node 1, Type 0, BuildingBlock: BEQFEK_clean_sbu_0, # of connection points: 5
#     Node 2, Type 0, BuildingBlock: BEQFEK_clean_sbu_0, # of connection points: 5
#     Node 3, Type 0, BuildingBlock: BEQFEK_clean_sbu_0, # of connection points: 5
#     Node 4, Type 0, BuildingBlock: BEQFEK_clean_sbu_0, # of connection points: 5
#     Node 5, Type 0, BuildingBlock: BEQFEK_clean_sbu_0, # of connection points: 5
#     Node 6, Type 0, BuildingBlock: BEQFEK_clean_sbu_0, # of connection points: 5
#     Node 7, Type 0, BuildingBlock: BEQFEK_clean_sbu_0, # of connection points: 5
#     Edge 8, Type (0, 0), BuildingBlock: XIVTED_clean_linker_0, # of connection points: 2
#     Edge 9, Type (0, 0), BuildingBlock: XIVTED_clean_linker_0, # of connection points: 2
#     Edge 10, Type (0, 0), BuildingBlock: XIVTED_clean_linker_0, # of connection points: 2
#     Edge 11, Type (0, 0), BuildingBlock: XIVTED_clean_linker_0, # of connection points: 2
#     Edge 12, Type (0, 0), BuildingBlock: XIVTED_clean_linker_0, # of connection points: 2
#     Edge 13, Type (0, 0), BuildingBlock: XIVTED_clean_linker_0, # of connection points: 2
#     Edge 14, Type (0, 0), BuildingBlock: XIVTED_clean_linker_0, # of connection points: 2
#     Edge 15, Type (0, 0), BuildingBlock: XIVTED_clean_linker_0, # of connection points: 2
#     Edge 16, Type (0, 0), BuildingBlock: XIVTED_clean_linker_0, # of connection points: 2
#     Edge 17, Type (0, 0), BuildingBlock: XIVTED_clean_linker_0, # of connection points: 2
#     Edge 18, Type (0, 0), BuildingBlock: XIVTED_clean_linker_0, # of connection points: 2
#     Edge 19, Type (0, 0), BuildingBlock: XIVTED_clean_linker_0, # of connection points: 2
#     Edge 20, Type (0, 0), BuildingBlock: XIVTED_clean_linker_0, # of connection points: 2
#     Edge 21, Type (0, 0), BuildingBlock: XIVTED_clean_linker_0, # of connection points: 2
#     Edge 22, Type (0, 0), BuildingBlock: XIVTED_clean_linker_0, # of connection points: 2
#     Edge 23, Type (0, 0), BuildingBlock: XIVTED_clean_linker_0, # of connection points: 2
#     Edge 24, Type (0, 0), BuildingBlock: XIVTED_clean_linker_0, # of connection points: 2
#     Edge 25, Type (0, 0), BuildingBlock: XIVTED_clean_linker_0, # of connection points: 2
#     Edge 26, Type (0, 0), BuildingBlock: XIVTED_clean_linker_0, # of connection points: 2
#     Edge 27, Type (0, 0), BuildingBlock: XIVTED_clean_linker_0, # of connection points: 2
# Relax obj value: 0.193
# Max RMSD: 0.175
# Mean RMSD: 0.175
data_MOF--net-yfz--node1-BEQFEK_clean_sbu_0--edge1-XIVTED_clean_linker_0
_symmetry_space_group_name_H-M    P1
_symmetry_Int_Tables_number       1
_symmetry_cell_setting            triclinic
loop_
_symmetry_equiv_pos_as_xyz
'x, y, z'
_cell_length_a     52.262254
_cell_length_b     52.349461
_cell_length_c     18.990852
_cell_angle_alpha  89.99516
_cell_angle_beta   89.923281
_cell_angle_gamma 89.961063
loop_
_atom_site_label
_atom_site_type_symbol
_atom_site_fract_x
_atom_site_fract_y
_atom_site_fract_z
_atom_type_partial_charge
Co0 Co 0.59882 0.09533 0.24456 0.0
Co1 Co 0.61026 0.11239 0.39937 0.0
C2 C 0.65223 0.0962 0.30285 0.0
O3 O 0.63616 0.09291 0.25357 0.0
O4 O 0.64507 0.10318 0.3641 0.0
C5 C 0.60502 0.06764 0.11596 0.0
O6 O 0.62516 0.05809 0.14782 0.0
C7 C 0.61936 0.10494 0.55055 0.0
C8 C 0.60065 0.13941 0.5938 0.0
C9 C 0.61175 0.11641 0.61316 0.0
N10 N 0.61228 0.12017 0.49698 0.0
N11 N 0.60182 0.14107 0.52331 0.0
C12 C 0.63038 0.07878 0.54072 0.0
H13 H 0.62769 0.07221 0.48565 0.0
H14 H 0.62151 0.06501 0.57784 0.0
H15 H 0.6512 0.07945 0.552 0.0
C16 C 0.56485 0.05878 0.31877 0.0
N17 N 0.58219 0.0778 0.31852 0.0
N18 N 0.58579 0.08589 0.38345 0.0
C19 C 0.57 0.07286 0.42669 0.0
C20 C 0.55675 0.0549 0.38753 0.0
C21 C 0.55651 0.04468 0.25429 0.0
H22 H 0.57349 0.03961 0.22212 0.0
H23 H 0.5458 0.02706 0.26785 0.0
H24 H 0.54415 0.05735 0.2221 0.0
O25 O 0.58908 0.13195 0.24418 0.0
O26 O 0.59865 0.14398 0.35294 0.0
H27 H 0.54459 0.07459 0.51632 0.0
H28 H 0.57752 0.06909 0.53696 0.0
C29 C 0.56449 0.07979 0.50174 0.0
H30 H 0.56691 0.10056 0.50998 0.0
H31 H 0.59393 0.15571 0.49299 0.0
O32 O 0.58992 0.08214 0.15015 0.0
C33 C 0.59044 0.1491 0.29153 0.0
Co34 Co 0.39235 0.60048 0.74744 0.0
Co35 Co 0.377 0.61139 0.9036 0.0
C36 C 0.39666 0.65288 0.81149 0.0
O37 O 0.39836 0.63719 0.76068 0.0
O38 O 0.38912 0.64569 0.87219 0.0
C39 C 0.42086 0.60543 0.61944 0.0
O40 O 0.43186 0.62462 0.65202 0.0
C41 C 0.38409 0.61994 0.05512 0.0
C42 C 0.35043 0.59945 0.09738 0.0
C43 C 0.37288 0.61152 0.1173 0.0
N44 N 0.36927 0.61238 0.00121 0.0
N45 N 0.34882 0.60086 0.02694 0.0
C46 C 0.40973 0.63224 0.04595 0.0
H47 H 0.41663 0.6299 0.99102 0.0
H48 H 0.42384 0.62401 0.08323 0.0
H49 H 0.40797 0.65295 0.05738 0.0
C50 C 0.42539 0.56195 0.8156 0.0
N51 N 0.40822 0.58109 0.81858 0.0
N52 N 0.40125 0.58481 0.88445 0.0
C53 C 0.41331 0.56748 0.92535 0.0
C54 C 0.42912 0.55263 0.88312 0.0
C55 C 0.43699 0.5522 0.74876 0.0
H56 H 0.42156 0.54757 0.71079 0.0
H57 H 0.44896 0.56744 0.72496 0.0
H58 H 0.44887 0.53494 0.7579 0.0
O59 O 0.35501 0.59425 0.74647 0.0
O60 O 0.34428 0.60343 0.85655 0.0
H61 H 0.38961 0.56634 0.01753 0.0
H62 H 0.41819 0.54743 0.02488 0.0
C63 C 0.41015 0.56537 0.00353 0.0
H64 H 0.42042 0.58131 0.02907 0.0
H65 H 0.33459 0.59247 -0.00381 0.0
O66 O 0.40489 0.5916 0.65256 0.0
C67 C 0.33819 0.59662 0.79452 0.0
Co68 Co 0.88749 0.39082 0.25666 0.0
Co69 Co 0.87535 0.37488 0.41192 0.0
C70 C 0.83386 0.39083 0.31426 0.0
O71 O 0.85018 0.39363 0.26527 0.0
O72 O 0.84069 0.38418 0.37601 0.0
C73 C 0.88189 0.41871 0.12849 0.0
O74 O 0.86191 0.42855 0.16063 0.0
C75 C 0.8658 0.38301 0.56256 0.0
C76 C 0.88408 0.34857 0.60728 0.0
C77 C 0.87304 0.37171 0.62568 0.0
N78 N 0.87302 0.36754 0.50964 0.0
N79 N 0.88324 0.34667 0.53682 0.0
C80 C 0.85496 0.40919 0.55164 0.0
H81 H 0.85796 0.41554 0.49647 0.0
H82 H 0.86374 0.42305 0.58861 0.0
H83 H 0.83409 0.40867 0.56232 0.0
C84 C 0.92203 0.42702 0.32919 0.0
N85 N 0.90418 0.40848 0.32995 0.0
N86 N 0.90015 0.40106 0.39531 0.0
C87 C 0.91609 0.41412 0.43797 0.0
C88 C 0.92998 0.43131 0.39778 0.0
C89 C 0.93105 0.44021 0.26386 0.0
H90 H 0.9422 0.42652 0.23142 0.0
H91 H 0.91428 0.4464 0.23242 0.0
H92 H 0.9431 0.45705 0.27623 0.0
O93 O 0.89685 0.35414 0.2576 0.0
O94 O 0.88676 0.34292 0.36676 0.0
H95 H 0.91834 0.3873 0.52355 0.0
H96 H 0.94082 0.41316 0.52898 0.0
C97 C 0.921 0.40795 0.51379 0.0
H98 H 0.90777 0.4191 0.54744 0.0
H99 H 0.89115 0.33187 0.50713 0.0
O100 O 0.89665 0.40377 0.1622 0.0
C101 C 0.89511 0.33731 0.30576 0.0
Co102 Co 0.09582 0.88908 0.7471 0.0
Co103 Co 0.111 0.87472 0.90083 0.0
C104 C 0.09261 0.83519 0.79986 0.0
O105 O 0.09045 0.85193 0.75177 0.0
O106 O 0.09999 0.8412 0.86162 0.0
C107 C 0.06816 0.88769 0.61755 0.0
O108 O 0.05491 0.8695 0.64823 0.0
C109 C 0.10352 0.86225 0.05075 0.0
C110 C 0.13751 0.88108 0.0963 0.0
C111 C 0.11503 0.86866 0.11446 0.0
N112 N 0.11819 0.87138 -0.00177 0.0
N113 N 0.13874 0.88205 0.02581 0.0
C114 C 0.07953 0.84723 0.039 0.0
H115 H 0.0807 0.8367 0.98846 0.0
H116 H 0.06288 0.86029 0.03588 0.0
H117 H 0.07638 0.83349 0.08269 0.0
C118 C 0.0609 0.92442 0.82263 0.0
N119 N 0.07891 0.90601 0.82155 0.0
N120 N 0.08596 0.90075 0.88651 0.0
C121 C 0.0731 0.91625 0.93092 0.0
C122 C 0.05652 0.93135 0.89211 0.0
C123 C 0.048 0.93464 0.75825 0.0
H124 H 0.06209 0.94562 0.72669 0.0
H125 H 0.04123 0.9185 0.72538 0.0
H126 H 0.03155 0.94711 0.77177 0.0
O127 O 0.13306 0.89609 0.74869 0.0
O128 O 0.14368 0.88483 0.85717 0.0
H129 H 0.0994 0.91699 0.01771 0.0
H130 H 0.07252 0.93809 0.02762 0.0
C131 C 0.07865 0.91909 0.0079 0.0
H132 H 0.06808 0.90435 0.03789 0.0
H133 H 0.153 0.89115 -0.00338 0.0
O134 O 0.08439 0.90021 0.65341 0.0
C135 C 0.14979 0.89317 0.7966 0.0
Co136 Co 0.59495 0.38765 0.22956 0.0
Co137 Co 0.60874 0.37175 0.07568 0.0
C138 C 0.64912 0.38814 0.1764 0.0
O139 O 0.63237 0.39106 0.2243 0.0
O140 O 0.64289 0.38114 0.11447 0.0
C141 C 0.59819 0.41518 0.3591 0.0
O142 O 0.6167 0.42772 0.32756 0.0
C143 C 0.62155 0.37777 0.92507 0.0
C144 C 0.60083 0.34463 0.88112 0.0
C145 C 0.61462 0.36616 0.86195 0.0
N146 N 0.61151 0.36408 0.9783 0.0
N147 N 0.59965 0.34403 0.95165 0.0
C148 C 0.63803 0.40085 0.93553 0.0
H149 H 0.64839 0.39949 0.98628 0.0
H150 H 0.62599 0.41827 0.93735 0.0
H151 H 0.652 0.40278 0.89178 0.0
C152 C 0.56131 0.42411 0.15407 0.0
N153 N 0.57887 0.40528 0.15514 0.0
N154 N 0.58392 0.39804 0.09016 0.0
C155 C 0.56912 0.41166 0.04573 0.0
C156 C 0.55471 0.42886 0.08458 0.0
C157 C 0.55153 0.43735 0.21849 0.0
H158 H 0.56793 0.44346 0.25144 0.0
H159 H 0.53969 0.45425 0.20501 0.0
H160 H 0.53996 0.42372 0.24995 0.0
O161 O 0.58601 0.35094 0.22811 0.0
O162 O 0.59711 0.33971 0.11992 0.0
H163 H 0.54769 0.41366 0.94847 0.0
H164 H 0.58174 0.41609 0.93919 0.0
C165 C 0.56624 0.40641 0.9686 0.0
H166 H 0.56715 0.38561 0.95854 0.0
H167 H 0.58972 0.33055 0.98147 0.0
O168 O 0.58469 0.39963 0.32365 0.0
C169 C 0.5883 0.33408 0.18033 0.0
Co170 Co 0.09735 0.59818 0.73332 0.0
Co171 Co 0.11229 0.60938 0.57702 0.0
C172 C 0.0927 0.65069 0.66962 0.0
O173 O 0.09124 0.63487 0.72019 0.0
O174 O 0.10008 0.64366 0.60862 0.0
C175 C 0.06877 0.60311 0.86112 0.0
O176 O 0.05759 0.62215 0.82822 0.0
C177 C 0.10545 0.61814 0.42532 0.0
C178 C 0.13878 0.59697 0.38349 0.0
C179 C 0.11658 0.60946 0.36329 0.0
N180 N 0.12006 0.61031 0.47943 0.0
N181 N 0.14032 0.59838 0.45393 0.0
C182 C 0.08006 0.63101 0.43414 0.0
H183 H 0.07305 0.62889 0.48902 0.0
H184 H 0.06583 0.62306 0.39679 0.0
H185 H 0.08227 0.65167 0.42253 0.0
C186 C 0.0639 0.56005 0.66533 0.0
N187 N 0.08137 0.57888 0.66229 0.0
N188 N 0.08807 0.58277 0.5963 0.0
C189 C 0.07546 0.56588 0.5553 0.0
C190 C 0.05961 0.55113 0.59766 0.0
C191 C 0.05221 0.55045 0.73222 0.0
H192 H 0.06758 0.54601 0.77057 0.0
H193 H 0.04008 0.56569 0.75541 0.0
H194 H 0.04046 0.53311 0.72327 0.0
O195 O 0.13468 0.59205 0.73397 0.0
O196 O 0.14511 0.60156 0.62391 0.0
H197 H 0.09826 0.56507 0.46142 0.0
H198 H 0.06929 0.5468 0.45486 0.0
C199 C 0.07785 0.56438 0.47681 0.0
H200 H 0.06764 0.58074 0.45309 0.0
H201 H 0.15435 0.58972 0.48486 0.0
O202 O 0.08489 0.58935 0.82827 0.0
C203 C 0.15139 0.59466 0.68573 0.0
Co204 Co 0.89142 0.09894 0.23799 0.0
Co205 Co 0.8802 0.11417 0.08199 0.0
C206 C 0.83824 0.09756 0.17677 0.0
O207 O 0.85423 0.09531 0.2267 0.0
O208 O 0.84541 0.10414 0.11523 0.0
C209 C 0.88513 0.0708 0.36562 0.0
O210 O 0.86529 0.061 0.33299 0.0
C211 C 0.87028 0.10759 0.93082 0.0
C212 C 0.8927 0.13978 0.88765 0.0
C213 C 0.87906 0.11822 0.86824 0.0
N214 N 0.87914 0.12183 0.98439 0.0
N215 N 0.89185 0.14145 0.95814 0.0
C216 C 0.85627 0.0829 0.94056 0.0
H217 H 0.85834 0.07593 -0.00453 0.0
H218 H 0.8634 0.06824 0.90315 0.0
H219 H 0.83565 0.08605 0.92976 0.0
C220 C 0.92769 0.06364 0.16863 0.0
N221 N 0.90938 0.08171 0.1662 0.0
N222 N 0.90547 0.0885 0.10033 0.0
C223 C 0.92181 0.07534 0.05878 0.0
C224 C 0.93624 0.05907 0.10067 0.0
C225 C 0.93751 0.05204 0.23532 0.0
H226 H 0.9429 0.06744 0.27256 0.0
H227 H 0.92202 0.04071 0.26026 0.0
H228 H 0.95432 0.03956 0.22564 0.0
O229 O 0.89994 0.13573 0.23794 0.0
O230 O 0.89032 0.14641 0.12816 0.0
H231 H 0.9238 0.09834 0.96555 0.0
H232 H 0.94032 0.06833 0.95778 0.0
C233 C 0.92332 0.0779 0.98034 0.0
H234 H 0.9063 0.06883 0.95663 0.0
H235 H 0.90135 0.15507 0.9885 0.0
O236 O 0.89989 0.08595 0.33263 0.0
C237 C 0.89805 0.1524 0.18945 0.0
Co238 Co 0.39051 0.89152 0.74423 0.0
Co239 Co 0.37622 0.87792 0.5896 0.0
C240 C 0.3948 0.83787 0.68699 0.0
O241 O 0.39633 0.85437 0.73596 0.0
O242 O 0.38767 0.8441 0.62516 0.0
C243 C 0.41832 0.88894 0.87351 0.0
O244 O 0.43119 0.87055 0.84243 0.0
C245 C 0.37965 0.86475 0.43815 0.0
C246 C 0.35122 0.89208 0.39628 0.0
C247 C 0.36962 0.87451 0.37586 0.0
N248 N 0.36831 0.87689 0.4923 0.0
N249 N 0.3509 0.89266 0.46685 0.0
C250 C 0.39921 0.84407 0.44672 0.0
H251 H 0.39481 0.8325 0.49406 0.0
H252 H 0.41843 0.8526 0.45411 0.0
H253 H 0.39962 0.83143 0.39981 0.0
C254 C 0.42465 0.92835 0.67188 0.0
N255 N 0.40709 0.90954 0.67153 0.0
N256 N 0.4012 0.90381 0.60607 0.0
C257 C 0.41488 0.91891 0.5625 0.0
C258 C 0.43008 0.935 0.60271 0.0
C259 C 0.43524 0.94012 0.73741 0.0
H260 H 0.41947 0.94393 0.77513 0.0
H261 H 0.4486 0.92641 0.7626 0.0
H262 H 0.44553 0.95818 0.72596 0.0
O263 O 0.35336 0.8982 0.74378 0.0
O264 O 0.34338 0.88709 0.63484 0.0
H265 H 0.39544 0.92232 0.46389 0.0
H266 H 0.42925 0.92909 0.45858 0.0
C267 C 0.41459 0.91688 0.48387 0.0
H268 H 0.41856 0.89692 0.46855 0.0
H269 H 0.33971 0.90483 0.49767 0.0
O270 O 0.40214 0.90172 0.8382 0.0
C271 C 0.33687 0.89508 0.69545 0.0
H272 H 0.48064 0.9392 0.63565 0.0
H273 H 0.50771 0.04619 0.34321 0.0
H274 H 0.42136 0.97361 0.50974 0.0
H275 H 0.56366 0.02197 0.49579 0.0
H276 H 0.4763 0.0175 0.39799 0.0
H277 H 0.51189 0.96827 0.58227 0.0
C278 C 0.47423 0.95313 0.59732 0.0
C279 C 0.44857 0.95404 0.57652 0.0
C280 C 0.49548 0.01841 0.41936 0.0
C281 C 0.48402 0.9869 0.51441 0.0
C282 C 0.51339 0.03455 0.38769 0.0
C283 C 0.53817 0.03624 0.41514 0.0
C284 C 0.50256 0.00387 0.47853 0.0
C285 C 0.54463 0.02116 0.47343 0.0
C286 C 0.49203 0.96957 0.56653 0.0
C287 C 0.44113 0.97222 0.52639 0.0
N288 N 0.52693 0.00558 0.50325 0.0
N289 N 0.45881 0.98784 0.49656 0.0
H290 H 0.56416 0.46479 0.9853 0.0
H291 H 0.4181 0.50853 0.95314 0.0
H292 H 0.50426 0.4352 0.1183 0.0
H293 H 0.48072 0.5516 0.86548 0.0
H294 H 0.44883 0.47814 0.00325 0.0
H295 H 0.53336 0.49413 0.93142 0.0
C296 C 0.54448 0.46468 0.00333 0.0
C297 C 0.5366 0.44782 0.05634 0.0
C298 C 0.45586 0.4942 0.97294 0.0
C299 C 0.50131 0.48088 -0.00532 0.0
C300 C 0.43838 0.51143 0.94433 0.0
C301 C 0.44708 0.53264 0.9063 0.0
C302 C 0.48217 0.49811 0.9625 0.0
C303 C 0.47339 0.53545 0.89486 0.0
C304 C 0.52695 0.48134 0.97265 0.0
C305 C 0.511 0.4482 0.07801 0.0
N306 N 0.49008 0.51841 0.92315 0.0
N307 N 0.49416 0.46442 0.04677 0.0
H308 H 0.97972 0.43687 0.35568 0.0
H309 H 0.0083 0.55198 0.62039 0.0
H310 H 0.92364 0.46646 0.50092 0.0
H311 H 0.06789 0.50748 0.52237 0.0
H312 H 0.97634 0.52271 0.57145 0.0
H313 H 0.01187 0.46542 0.40762 0.0
C314 C 0.9742 0.44963 0.39796 0.0
C315 C 0.94914 0.44957 0.42408 0.0
C316 C -0.00359 0.51926 0.56087 0.0
C317 C 0.98552 0.48183 0.484 0.0
C318 C 0.01458 0.53585 0.58903 0.0
C319 C 0.04058 0.53216 0.57446 0.0
C320 C 0.00438 0.49901 0.51749 0.0
C321 C 0.0479 0.51111 0.53357 0.0
C322 C 0.99251 0.46568 0.428 0.0
C323 C 0.94286 0.46606 0.47955 0.0
N324 N 0.02985 0.49541 0.50583 0.0
N325 N 0.96092 0.48161 0.50764 0.0
H326 H 0.93566 0.0077 0.12122 0.0
H327 H 0.05196 0.98175 0.85662 0.0
H328 H 0.98003 0.06795 0.0265 0.0
H329 H 0.02057 0.92387 -0.00707 0.0
H330 H 0.02345 0.01337 0.91128 0.0
H331 H 0.96519 0.97619 0.07066 0.0
C332 C 0.95182 0.01421 0.09028 0.0
C333 C 0.95539 0.04026 0.07701 0.0
C334 C 0.02278 -0.00626 0.92916 0.0
C335 C 0.98886 0.00463 0.0183 0.0
C336 C 0.03883 0.97574 0.89756 0.0
C337 C 0.03838 0.95032 0.92036 0.0
C338 C 0.00612 0.9861 0.98343 0.0
C339 C 0.02138 0.94338 0.97416 0.0
C340 C 0.96856 -0.00369 0.06119 0.0
C341 C 0.97651 0.0479 0.03673 0.0
N342 N 0.00586 0.96117 0.00385 0.0
N343 N 0.99235 0.03014 0.00811 0.0
H344 H 0.58053 0.16977 0.16158 0.0
H345 H 0.57631 0.31292 0.30831 0.0
H346 H 0.58538 0.18945 0.38203 0.0
H347 H 0.58655 0.2937 0.08887 0.0
H348 H 0.5712 0.26756 0.33514 0.0
H349 H 0.57436 0.21493 0.13357 0.0
C350 C 0.58002 0.18352 0.20417 0.0
C351 C 0.58385 0.17584 0.27418 0.0
C352 C 0.57434 0.27332 0.28104 0.0
C353 C 0.57682 0.2275 0.24244 0.0
C354 C 0.5772 0.29922 0.26563 0.0
C355 C 0.58223 0.30711 0.19636 0.0
C356 C 0.57645 0.2552 0.2268 0.0
C357 C 0.58303 0.28848 0.14318 0.0
C358 C 0.57655 0.2093 0.1881 0.0
C359 C 0.58286 0.19452 0.32721 0.0
N360 N 0.58038 0.26338 0.15961 0.0
N361 N 0.57963 0.21949 0.31019 0.0
H362 H 0.17331 0.58651 0.81494 0.0
H363 H 0.3165 0.58853 0.66496 0.0
H364 H 0.19191 0.59403 0.59421 0.0
H365 H 0.29764 0.59497 0.88578 0.0
H366 H 0.27097 0.58443 0.63813 0.0
H367 H 0.21893 0.58343 0.84156 0.0
C368 C 0.18695 0.58731 0.772 0.0
C369 C 0.17875 0.59077 0.70228 0.0
C370 C 0.27684 0.58661 0.69247 0.0
C371 C 0.23099 0.58729 0.73247 0.0
C372 C 0.30283 0.5889 0.70787 0.0
C373 C 0.31091 0.59233 0.77769 0.0
C374 C 0.25879 0.58765 0.74727 0.0
C375 C 0.2923 0.59259 0.83111 0.0
C376 C 0.213 0.58562 0.78728 0.0
C377 C 0.19733 0.59161 0.64881 0.0
N378 N 0.26712 0.59039 0.81475 0.0
N379 N 0.22257 0.59 0.66506 0.0
H380 H 0.90154 0.19224 0.09664 0.0
H381 H 0.89973 0.29756 0.39839 0.0
H382 H 0.90679 0.17442 0.31822 0.0
H383 H 0.90473 0.31563 0.1769 0.0
H384 H 0.90561 0.25251 0.37018 0.0
H385 H 0.906 0.23747 0.12476 0.0
C386 C 0.90383 0.19781 0.15121 0.0
C387 C 0.90346 0.17951 0.20526 0.0
C388 C 0.90568 0.26634 0.32777 0.0
C389 C 0.90844 0.23134 0.23779 0.0
C390 C 0.90227 0.29209 0.34382 0.0
C391 C 0.90141 0.31039 0.28982 0.0
C392 C 0.90801 0.25875 0.25716 0.0
C393 C 0.90509 0.30218 0.22018 0.0
C394 C 0.90643 0.22366 0.1672 0.0
C395 C 0.90679 0.18785 0.27488 0.0
N396 N 0.90793 0.27692 0.20579 0.0
N397 N 0.90884 0.21319 0.28921 0.0
H398 H 0.31432 0.90463 0.82322 0.0
H399 H 0.17198 0.90281 0.66833 0.0
H400 H 0.29695 0.89576 0.60226 0.0
H401 H 0.18974 0.89511 0.88938 0.0
H402 H 0.21764 0.90748 0.6432 0.0
H403 H 0.26858 0.9084 0.84794 0.0
C404 C 0.30093 0.9037 0.7798 0.0
C405 C 0.30948 0.8996 0.71063 0.0
C406 C 0.21149 0.90493 0.69723 0.0
C407 C 0.25713 0.9039 0.73864 0.0
C408 C 0.18543 0.90234 0.71166 0.0
C409 C 0.17703 0.8983 0.781 0.0
C410 C 0.22925 0.90362 0.75255 0.0
C411 C 0.19535 0.89792 0.83503 0.0
C412 C 0.27481 0.90579 0.79401 0.0
C413 C 0.29122 0.89864 0.65649 0.0
N414 N 0.2206 0.90042 0.81961 0.0
N415 N 0.2659 0.90064 0.6717 0.0
H416 H 0.39791 0.79698 0.59672 0.0
H417 H 0.39521 0.69344 0.90383 0.0
H418 H 0.40285 0.81689 0.81703 0.0
H419 H 0.40895 0.67479 0.6854 0.0
H420 H 0.39872 0.73883 0.87408 0.0
H421 H 0.40254 0.75199 0.62854 0.0
C422 C 0.40016 0.79194 0.65168 0.0
C423 C 0.3998 0.81076 0.70423 0.0
C424 C 0.40123 0.72474 0.8329 0.0
C425 C 0.40489 0.75928 0.74113 0.0
C426 C 0.39922 0.69884 0.84987 0.0
C427 C 0.40155 0.68024 0.79702 0.0
C428 C 0.40533 0.73206 0.76254 0.0
C429 C 0.40684 0.68839 0.72796 0.0
C430 C 0.40285 0.76624 0.66985 0.0
C431 C 0.40291 0.80306 0.77466 0.0
N432 N 0.40827 0.71365 0.71266 0.0
N433 N 0.40506 0.7779 0.79109 0.0
H434 H 0.79221 0.38873 0.40311 0.0
H435 H 0.69098 0.38801 0.08862 0.0
H436 H 0.81291 0.39939 0.18474 0.0
H437 H 0.66941 0.39604 0.3072 0.0
H438 H 0.73596 0.39124 0.12301 0.0
H439 H 0.74701 0.39055 0.36952 0.0
C440 C 0.78729 0.39163 0.3483 0.0
C441 C 0.80642 0.3938 0.29674 0.0
C442 C 0.72134 0.39247 0.16333 0.0
C443 C 0.75483 0.39567 0.25789 0.0
C444 C 0.69567 0.39059 0.14371 0.0
C445 C 0.67638 0.39166 0.19504 0.0
C446 C 0.72777 0.39517 0.23483 0.0
C447 C 0.68361 0.39508 0.26571 0.0
C448 C 0.7615 0.39268 0.32914 0.0
C449 C 0.79889 0.39757 0.22643 0.0
N450 N 0.70871 0.39651 0.28354 0.0
N451 N 0.77372 0.39818 0.20908 0.0
H452 H 0.09022 0.79389 0.8887 0.0
H453 H 0.09398 0.69162 0.5784 0.0
H454 H 0.08483 0.81472 0.66912 0.0
H455 H 0.08021 0.67206 0.79621 0.0
H456 H 0.09013 0.73689 0.60949 0.0
H457 H 0.08621 0.74898 0.85537 0.0
C458 C 0.08802 0.78905 0.83358 0.0
C459 C 0.08804 0.8081 0.78167 0.0
C460 C 0.08769 0.72261 0.65022 0.0
C461 C 0.08365 0.75675 0.74304 0.0
C462 C 0.0899 0.69678 0.63249 0.0
C463 C 0.08766 0.67797 0.68479 0.0
C464 C 0.08348 0.72963 0.72077 0.0
C465 C 0.08227 0.68582 0.75405 0.0
C466 C 0.08567 0.76341 0.81454 0.0
C467 C 0.08499 0.80069 0.711 0.0
N468 N 0.08064 0.71101 0.77008 0.0
N469 N 0.08319 0.77559 0.69371 0.0
H470 H 0.79736 0.09795 0.08548 0.0
H471 H 0.69319 0.09785 0.39358 0.0
H472 H 0.8164 0.08938 0.30554 0.0
H473 H 0.67408 0.08808 0.17398 0.0
H474 H 0.7386 0.09563 0.36234 0.0
H475 H 0.75194 0.09513 0.11651 0.0
C476 C 0.79204 0.0953 0.14014 0.0
C477 C 0.81075 0.094 0.1929 0.0
C478 C 0.72442 0.09379 0.32113 0.0
C479 C 0.7589 0.09099 0.22884 0.0
C480 C 0.69851 0.09509 0.33896 0.0
C481 C 0.67977 0.09324 0.2864 0.0
C482 C 0.73163 0.09088 0.2502 0.0
C483 C 0.68781 0.08962 0.21639 0.0
C484 C 0.76612 0.09368 0.15785 0.0
C485 C 0.8027 0.09052 0.26295 0.0
N486 N 0.7131 0.08876 0.20032 0.0
N487 N 0.77742 0.08935 0.27888 0.0
H488 H 0.57153 0.12035 0.70223 0.0
H489 H 0.64063 0.04988 0.02165 0.0
H490 H 0.64641 0.08621 0.68455 0.0
H491 H 0.56559 0.08418 0.03332 0.0
H492 H 0.64095 0.05735 0.89453 0.0
H493 H 0.56737 0.10264 0.82001 0.0
C494 C 0.58714 0.10908 0.72328 0.0
C495 C 0.60941 0.10482 0.68374 0.0
C496 C 0.62427 0.06288 0.92479 0.0
C497 C 0.60478 0.08437 0.81903 0.0
C498 C 0.62399 0.05848 -0.00265 0.0
C499 C 0.6032 0.06681 0.03837 0.0
C500 C 0.60363 0.07568 0.89326 0.0
C501 C 0.58217 0.07778 0.00397 0.0
C502 C 0.58468 0.0988 0.79044 0.0
C503 C 0.62885 0.08976 0.71314 0.0
N504 N 0.58307 0.08218 0.93362 0.0
N505 N 0.62619 0.08024 0.77946 0.0
H506 H 0.43932 0.64072 0.52556 0.0
H507 H 0.37084 0.57071 0.20431 0.0
H508 H 0.40459 0.56603 0.53698 0.0
H509 H 0.40143 0.64706 0.19023 0.0
H510 H 0.38876 0.56668 0.32182 0.0
H511 H 0.43231 0.64088 0.39818 0.0
C512 C 0.43075 0.62411 0.50112 0.0
C513 C 0.42212 0.60349 0.54203 0.0
C514 C 0.39176 0.58429 0.29309 0.0
C515 C 0.4138 0.60373 0.39685 0.0
C516 C 0.38137 0.58667 0.22611 0.0
C517 C 0.38456 0.60931 0.18772 0.0
C518 C 0.40523 0.60483 0.32261 0.0
C519 C 0.39871 0.62922 0.21797 0.0
C520 C 0.4266 0.62431 0.42848 0.0
C521 C 0.41118 0.58249 0.5076 0.0
N522 N 0.40837 0.62661 0.28411 0.0
N523 N 0.40706 0.58329 0.43717 0.0
H524 H 0.92214 0.40403 0.04611 0.0
H525 H 0.83829 0.40263 0.69464 0.0
H526 H 0.84586 0.43545 0.0344 0.0
H527 H 0.91253 0.36746 0.71676 0.0
H528 H 0.84279 0.42064 0.81334 0.0
H529 H 0.92154 0.39742 0.91915 0.0
C530 C 0.90541 0.40993 0.01663 0.0
C531 C 0.88386 0.4199 0.05102 0.0
C532 C 0.85817 0.40917 0.7918 0.0
C533 C 0.88282 0.41193 0.9057 0.0
C534 C 0.85563 0.39897 0.72408 0.0
C535 C 0.87504 0.3835 0.69605 0.0
C536 C 0.88028 0.40382 0.83131 0.0
C537 C 0.89695 0.37901 0.73676 0.0
C538 C 0.90502 0.40605 0.9441 0.0
C539 C 0.86283 0.42749 0.01005 0.0
N540 N 0.89893 0.38905 0.80226 0.0
N541 N 0.86265 0.42296 0.93957 0.0
H542 H 0.0644 0.86849 0.16047 0.0
H543 H 0.10181 0.91516 0.53814 0.0
H544 H 0.14249 0.86919 0.23508 0.0
H545 H 0.03872 0.86224 0.52008 0.0
H546 H 0.1109 0.90925 0.41344 0.0
H547 H 0.04961 0.87395 0.28176 0.0
C548 C 0.07847 0.86893 0.20198 0.0
C549 C 0.10485 0.86785 0.18724 0.0
C550 C 0.09488 0.89921 0.4368 0.0
C551 C 0.08789 0.87586 0.32491 0.0
C552 C 0.08949 0.9027 0.50779 0.0
C553 C 0.06972 0.8888 0.53996 0.0
C554 C 0.08014 0.88211 0.3973 0.0
C555 C 0.05433 0.87309 0.49747 0.0
C556 C 0.06992 0.87249 0.2711 0.0
C557 C 0.12202 0.86991 0.2437 0.0
N558 N 0.05996 0.87 0.42799 0.0
N559 N 0.11326 0.87417 0.30982 0.0
H560 H 0.62428 0.44441 0.45575 0.0
H561 H 0.61434 0.33757 0.74335 0.0
H562 H 0.57187 0.3809 0.43921 0.0
H563 H 0.61701 0.41612 0.81278 0.0
H564 H 0.60901 0.35245 0.62265 0.0
H565 H 0.62993 0.43447 0.5815 0.0
C566 C 0.61364 0.42873 0.47866 0.0
C567 C 0.59778 0.41331 0.43671 0.0
C568 C 0.61113 0.36637 0.66446 0.0
C569 C 0.60483 0.40154 0.57858 0.0
C570 C 0.61435 0.35794 0.73324 0.0
C571 C 0.61639 0.37555 0.78859 0.0
C572 C 0.61024 0.39261 0.65049 0.0
C573 C 0.61626 0.40177 0.77206 0.0
C574 C 0.61696 0.42306 0.55007 0.0
C575 C 0.58442 0.39323 0.46915 0.0
N576 N 0.6132 0.40956 0.70419 0.0
N577 N 0.58865 0.38764 0.53778 0.0
H578 H 0.0504 0.63863 0.95451 0.0
H579 H 0.11798 0.5684 0.27711 0.0
H580 H 0.08487 0.56376 0.94403 0.0
H581 H 0.08866 0.64534 0.28953 0.0
H582 H 0.10007 0.56439 0.15962 0.0
H583 H 0.05735 0.63894 0.08192 0.0
C584 C 0.0589 0.62201 0.97917 0.0
C585 C 0.06747 0.60129 0.93853 0.0
C586 C 0.09735 0.58214 0.18797 0.0
C587 C 0.07572 0.60169 0.08372 0.0
C588 C 0.10774 0.5845 0.25495 0.0
C589 C 0.10491 0.6073 0.29287 0.0
C590 C 0.08424 0.60284 0.15798 0.0
C591 C 0.0911 0.62738 0.26215 0.0
C592 C 0.06302 0.6223 0.05182 0.0
C593 C 0.07833 0.58029 0.97321 0.0
N594 N 0.08143 0.62477 0.19602 0.0
N595 N 0.08241 0.58117 0.04365 0.0
H596 H 0.92606 0.08292 0.44789 0.0
H597 H 0.8415 0.09156 0.79733 0.0
H598 H 0.84804 0.05624 0.45938 0.0
H599 H 0.91932 0.11822 0.77876 0.0
H600 H 0.84478 0.07322 0.67869 0.0
H601 H 0.92571 0.08957 0.57482 0.0
C602 C 0.90899 0.07805 0.47738 0.0
C603 C 0.88693 0.06941 0.44298 0.0
C604 C 0.86119 0.08288 0.701 0.0
C605 C 0.88614 0.07749 0.58818 0.0
C606 C 0.85933 0.09328 0.76868 0.0
C607 C 0.88014 0.10645 0.7977 0.0
C608 C 0.88402 0.08577 0.66251 0.0
C609 C 0.90268 0.10851 0.75798 0.0
C610 C 0.90873 0.08195 0.54987 0.0
C611 C 0.86542 0.06311 0.48383 0.0
N612 N 0.90398 0.09836 0.69248 0.0
N613 N 0.8654 0.06771 0.55428 0.0
H614 H 0.41896 0.86505 0.32841 0.0
H615 H 0.38846 0.92032 0.95332 0.0
H616 H 0.34222 0.88121 0.25668 0.0
H617 H 0.44442 0.85982 0.97051 0.0
H618 H 0.37846 0.91515 0.07768 0.0
H619 H 0.43425 0.86913 0.20708 0.0
C620 C 0.40514 0.86857 0.28728 0.0
C621 C 0.37907 0.87226 0.30276 0.0
C622 C 0.39312 0.90322 0.05422 0.0
C623 C 0.39687 0.87865 0.16541 0.0
C624 C 0.39904 0.90627 0.98343 0.0
C625 C 0.41696 0.8901 0.95106 0.0
C626 C 0.40547 0.88418 0.0933 0.0
C627 C 0.43025 0.87247 -0.00675 0.0
C628 C 0.41404 0.87134 0.21826 0.0
C629 C 0.36242 0.87815 0.24723 0.0
N630 N 0.42409 0.86979 0.0625 0.0
N631 N 0.37165 0.88149 0.18122 0.0
loop_
_geom_bond_atom_site_label_1
_geom_bond_atom_site_label_2
_geom_bond_distance
_geom_bond_site_symmetry_2
_ccdc_geom_bond_type
Co0 O3 1.970 . S
Co0 N17 1.989 . S
Co0 O25 1.967 . S
Co0 O32 1.920 . S
Co1 O4 1.966 . S
Co1 N10 2.022 . S
Co1 N18 1.993 . S
Co1 O26 1.941 . S
C2 O3 1.258 . S
C2 O4 1.263 . S
O3 Co0 1.970 . S
O3 C2 1.258 . S
O4 Co1 1.966 . S
O4 C2 1.263 . S
C5 O6 1.235 . S
C5 O32 1.289 . S
O6 C5 1.235 . S
C7 C9 1.400 . S
C7 N10 1.351 . S
C7 C12 1.501 . S
C8 C9 1.387 . S
C8 N11 1.341 . S
C9 C7 1.400 . S
C9 C8 1.387 . S
N10 Co1 2.022 . S
N10 C7 1.351 . S
N10 N11 1.365 . S
N11 C8 1.341 . S
N11 N10 1.365 . S
N11 H31 0.862 . S
C12 C7 1.501 . S
C12 H13 0.961 . S
C12 H14 0.961 . S
C12 H15 0.960 . S
H13 C12 0.961 . S
H14 C12 0.961 . S
H15 C12 0.960 . S
C16 N17 1.342 . S
C16 C20 1.401 . S
C16 C21 1.499 . S
N17 Co0 1.989 . S
N17 C16 1.342 . S
N17 N18 1.388 . S
N18 Co1 1.993 . S
N18 N17 1.388 . S
N18 C19 1.346 . S
C19 N18 1.346 . S
C19 C20 1.396 . S
C19 C29 1.510 . S
C20 C16 1.401 . S
C20 C19 1.396 . S
C21 C16 1.499 . S
C21 H22 0.959 . S
C21 H23 0.960 . S
C21 H24 0.961 . S
H22 C21 0.959 . S
H23 C21 0.960 . S
H24 C21 0.961 . S
O25 Co0 1.967 . S
O25 C33 1.258 . S
O26 Co1 1.941 . S
O26 C33 1.266 . S
H27 C29 0.959 . S
H28 C29 0.961 . S
C29 C19 1.510 . S
C29 H27 0.959 . S
C29 H28 0.961 . S
C29 H30 0.960 . S
H30 C29 0.960 . S
H31 N11 0.862 . S
O32 Co0 1.920 . S
O32 C5 1.289 . S
C33 O25 1.258 . S
C33 O26 1.266 . S
Co34 O37 1.970 . S
Co34 N51 1.989 . S
Co34 O59 1.967 . S
Co34 O66 1.920 . S
Co35 O38 1.966 . S
Co35 N44 2.022 1_556 S
Co35 N52 1.993 . S
Co35 O60 1.941 . S
C36 O37 1.258 . S
C36 O38 1.263 . S
O37 Co34 1.970 . S
O37 C36 1.258 . S
O38 Co35 1.966 . S
O38 C36 1.263 . S
C39 O40 1.235 . S
C39 O66 1.289 . S
O40 C39 1.235 . S
C41 C43 1.400 . S
C41 N44 1.351 . S
C41 C46 1.501 . S
C42 C43 1.387 . S
C42 N45 1.341 . S
C43 C41 1.400 . S
C43 C42 1.387 . S
N44 Co35 2.022 1_554 S
N44 C41 1.351 . S
N44 N45 1.365 . S
N45 C42 1.341 . S
N45 N44 1.365 . S
N45 H65 0.862 . S
C46 C41 1.501 . S
C46 H47 0.961 . S
C46 H48 0.961 . S
C46 H49 0.960 . S
H47 C46 0.961 . S
H48 C46 0.961 . S
H49 C46 0.960 . S
C50 N51 1.342 . S
C50 C54 1.401 . S
C50 C55 1.499 . S
N51 Co34 1.989 . S
N51 C50 1.342 . S
N51 N52 1.388 . S
N52 Co35 1.993 . S
N52 N51 1.388 . S
N52 C53 1.346 . S
C53 N52 1.346 . S
C53 C54 1.396 . S
C53 C63 1.510 1_556 S
C54 C50 1.401 . S
C54 C53 1.396 . S
C55 C50 1.499 . S
C55 H56 0.959 . S
C55 H57 0.960 . S
C55 H58 0.961 . S
H56 C55 0.959 . S
H57 C55 0.960 . S
H58 C55 0.961 . S
O59 Co34 1.967 . S
O59 C67 1.258 . S
O60 Co35 1.941 . S
O60 C67 1.266 . S
H61 C63 0.959 . S
H62 C63 0.961 . S
C63 C53 1.510 1_554 S
C63 H61 0.959 . S
C63 H62 0.961 . S
C63 H64 0.960 . S
H64 C63 0.960 . S
H65 N45 0.862 . S
O66 Co34 1.920 . S
O66 C39 1.289 . S
C67 O59 1.258 . S
C67 O60 1.266 . S
Co68 O71 1.970 . S
Co68 N85 1.989 . S
Co68 O93 1.967 . S
Co68 O100 1.920 . S
Co69 O72 1.966 . S
Co69 N78 2.022 . S
Co69 N86 1.993 . S
Co69 O94 1.941 . S
C70 O71 1.258 . S
C70 O72 1.263 . S
O71 Co68 1.970 . S
O71 C70 1.258 . S
O72 Co69 1.966 . S
O72 C70 1.263 . S
C73 O74 1.235 . S
C73 O100 1.289 . S
O74 C73 1.235 . S
C75 C77 1.400 . S
C75 N78 1.351 . S
C75 C80 1.501 . S
C76 C77 1.387 . S
C76 N79 1.341 . S
C77 C75 1.400 . S
C77 C76 1.387 . S
N78 Co69 2.022 . S
N78 C75 1.351 . S
N78 N79 1.365 . S
N79 C76 1.341 . S
N79 N78 1.365 . S
N79 H99 0.862 . S
C80 C75 1.501 . S
C80 H81 0.961 . S
C80 H82 0.961 . S
C80 H83 0.960 . S
H81 C80 0.961 . S
H82 C80 0.961 . S
H83 C80 0.960 . S
C84 N85 1.342 . S
C84 C88 1.401 . S
C84 C89 1.499 . S
N85 Co68 1.989 . S
N85 C84 1.342 . S
N85 N86 1.388 . S
N86 Co69 1.993 . S
N86 N85 1.388 . S
N86 C87 1.346 . S
C87 N86 1.346 . S
C87 C88 1.396 . S
C87 C97 1.510 . S
C88 C84 1.401 . S
C88 C87 1.396 . S
C89 C84 1.499 . S
C89 H90 0.959 . S
C89 H91 0.960 . S
C89 H92 0.961 . S
H90 C89 0.959 . S
H91 C89 0.960 . S
H92 C89 0.961 . S
O93 Co68 1.967 . S
O93 C101 1.258 . S
O94 Co69 1.941 . S
O94 C101 1.266 . S
H95 C97 0.959 . S
H96 C97 0.961 . S
C97 C87 1.510 . S
C97 H95 0.959 . S
C97 H96 0.961 . S
C97 H98 0.960 . S
H98 C97 0.960 . S
H99 N79 0.862 . S
O100 Co68 1.920 . S
O100 C73 1.289 . S
C101 O93 1.258 . S
C101 O94 1.266 . S
Co102 O105 1.970 . S
Co102 N119 1.989 . S
Co102 O127 1.967 . S
Co102 O134 1.920 . S
Co103 O106 1.966 . S
Co103 N112 2.022 1_556 S
Co103 N120 1.993 . S
Co103 O128 1.941 . S
C104 O105 1.258 . S
C104 O106 1.263 . S
O105 Co102 1.970 . S
O105 C104 1.258 . S
O106 Co103 1.966 . S
O106 C104 1.263 . S
C107 O108 1.235 . S
C107 O134 1.289 . S
O108 C107 1.235 . S
C109 C111 1.400 . S
C109 N112 1.351 . S
C109 C114 1.501 . S
C110 C111 1.387 . S
C110 N113 1.341 . S
C111 C109 1.400 . S
C111 C110 1.387 . S
N112 Co103 2.022 1_554 S
N112 C109 1.351 . S
N112 N113 1.365 . S
N113 C110 1.341 . S
N113 N112 1.365 . S
N113 H133 0.862 . S
C114 C109 1.501 . S
C114 H115 0.961 . S
C114 H116 0.961 . S
C114 H117 0.960 . S
H115 C114 0.961 . S
H116 C114 0.961 . S
H117 C114 0.960 . S
C118 N119 1.342 . S
C118 C122 1.401 . S
C118 C123 1.499 . S
N119 Co102 1.989 . S
N119 C118 1.342 . S
N119 N120 1.388 . S
N120 Co103 1.993 . S
N120 N119 1.388 . S
N120 C121 1.346 . S
C121 N120 1.346 . S
C121 C122 1.396 . S
C121 C131 1.510 1_556 S
C122 C118 1.401 . S
C122 C121 1.396 . S
C123 C118 1.499 . S
C123 H124 0.959 . S
C123 H125 0.960 . S
C123 H126 0.961 . S
H124 C123 0.959 . S
H125 C123 0.960 . S
H126 C123 0.961 . S
O127 Co102 1.967 . S
O127 C135 1.258 . S
O128 Co103 1.941 . S
O128 C135 1.266 . S
H129 C131 0.959 . S
H130 C131 0.961 . S
C131 C121 1.510 1_554 S
C131 H129 0.959 . S
C131 H130 0.961 . S
C131 H132 0.960 . S
H132 C131 0.960 . S
H133 N113 0.862 . S
O134 Co102 1.920 . S
O134 C107 1.289 . S
C135 O127 1.258 . S
C135 O128 1.266 . S
Co136 O139 1.970 . S
Co136 N153 1.989 . S
Co136 O161 1.967 . S
Co136 O168 1.920 . S
Co137 O140 1.966 . S
Co137 N146 2.022 1_554 S
Co137 N154 1.993 . S
Co137 O162 1.941 . S
C138 O139 1.258 . S
C138 O140 1.263 . S
O139 Co136 1.970 . S
O139 C138 1.258 . S
O140 Co137 1.966 . S
O140 C138 1.263 . S
C141 O142 1.235 . S
C141 O168 1.289 . S
O142 C141 1.235 . S
C143 C145 1.400 . S
C143 N146 1.351 . S
C143 C148 1.501 . S
C144 C145 1.387 . S
C144 N147 1.341 . S
C145 C143 1.400 . S
C145 C144 1.387 . S
N146 Co137 2.022 1_556 S
N146 C143 1.351 . S
N146 N147 1.365 . S
N147 C144 1.341 . S
N147 N146 1.365 . S
N147 H167 0.862 . S
C148 C143 1.501 . S
C148 H149 0.961 . S
C148 H150 0.961 . S
C148 H151 0.960 . S
H149 C148 0.961 . S
H150 C148 0.961 . S
H151 C148 0.960 . S
C152 N153 1.342 . S
C152 C156 1.401 . S
C152 C157 1.499 . S
N153 Co136 1.989 . S
N153 C152 1.342 . S
N153 N154 1.388 . S
N154 Co137 1.993 . S
N154 N153 1.388 . S
N154 C155 1.346 . S
C155 N154 1.346 . S
C155 C156 1.396 . S
C155 C165 1.510 1_554 S
C156 C152 1.401 . S
C156 C155 1.396 . S
C157 C152 1.499 . S
C157 H158 0.959 . S
C157 H159 0.960 . S
C157 H160 0.961 . S
H158 C157 0.959 . S
H159 C157 0.960 . S
H160 C157 0.961 . S
O161 Co136 1.967 . S
O161 C169 1.258 . S
O162 Co137 1.941 . S
O162 C169 1.266 . S
H163 C165 0.959 . S
H164 C165 0.961 . S
C165 C155 1.510 1_556 S
C165 H163 0.959 . S
C165 H164 0.961 . S
C165 H166 0.960 . S
H166 C165 0.960 . S
H167 N147 0.862 . S
O168 Co136 1.920 . S
O168 C141 1.289 . S
C169 O161 1.258 . S
C169 O162 1.266 . S
Co170 O173 1.970 . S
Co170 N187 1.989 . S
Co170 O195 1.967 . S
Co170 O202 1.920 . S
Co171 O174 1.966 . S
Co171 N180 2.022 . S
Co171 N188 1.993 . S
Co171 O196 1.941 . S
C172 O173 1.258 . S
C172 O174 1.263 . S
O173 Co170 1.970 . S
O173 C172 1.258 . S
O174 Co171 1.966 . S
O174 C172 1.263 . S
C175 O176 1.235 . S
C175 O202 1.289 . S
O176 C175 1.235 . S
C177 C179 1.400 . S
C177 N180 1.351 . S
C177 C182 1.501 . S
C178 C179 1.387 . S
C178 N181 1.341 . S
C179 C177 1.400 . S
C179 C178 1.387 . S
N180 Co171 2.022 . S
N180 C177 1.351 . S
N180 N181 1.365 . S
N181 C178 1.341 . S
N181 N180 1.365 . S
N181 H201 0.862 . S
C182 C177 1.501 . S
C182 H183 0.961 . S
C182 H184 0.961 . S
C182 H185 0.960 . S
H183 C182 0.961 . S
H184 C182 0.961 . S
H185 C182 0.960 . S
C186 N187 1.342 . S
C186 C190 1.401 . S
C186 C191 1.499 . S
N187 Co170 1.989 . S
N187 C186 1.342 . S
N187 N188 1.388 . S
N188 Co171 1.993 . S
N188 N187 1.388 . S
N188 C189 1.346 . S
C189 N188 1.346 . S
C189 C190 1.396 . S
C189 C199 1.510 . S
C190 C186 1.401 . S
C190 C189 1.396 . S
C191 C186 1.499 . S
C191 H192 0.959 . S
C191 H193 0.960 . S
C191 H194 0.961 . S
H192 C191 0.959 . S
H193 C191 0.960 . S
H194 C191 0.961 . S
O195 Co170 1.967 . S
O195 C203 1.258 . S
O196 Co171 1.941 . S
O196 C203 1.266 . S
H197 C199 0.959 . S
H198 C199 0.961 . S
C199 C189 1.510 . S
C199 H197 0.959 . S
C199 H198 0.961 . S
C199 H200 0.960 . S
H200 C199 0.960 . S
H201 N181 0.862 . S
O202 Co170 1.920 . S
O202 C175 1.289 . S
C203 O195 1.258 . S
C203 O196 1.266 . S
Co204 O207 1.970 . S
Co204 N221 1.989 . S
Co204 O229 1.967 . S
Co204 O236 1.920 . S
Co205 O208 1.966 . S
Co205 N214 2.022 1_554 S
Co205 N222 1.993 . S
Co205 O230 1.941 . S
C206 O207 1.258 . S
C206 O208 1.263 . S
O207 Co204 1.970 . S
O207 C206 1.258 . S
O208 Co205 1.966 . S
O208 C206 1.263 . S
C209 O210 1.235 . S
C209 O236 1.289 . S
O210 C209 1.235 . S
C211 C213 1.400 . S
C211 N214 1.351 . S
C211 C216 1.501 . S
C212 C213 1.387 . S
C212 N215 1.341 . S
C213 C211 1.400 . S
C213 C212 1.387 . S
N214 Co205 2.022 1_556 S
N214 C211 1.351 . S
N214 N215 1.365 . S
N215 C212 1.341 . S
N215 N214 1.365 . S
N215 H235 0.862 . S
C216 C211 1.501 . S
C216 H217 0.961 . S
C216 H218 0.961 . S
C216 H219 0.960 . S
H217 C216 0.961 . S
H218 C216 0.961 . S
H219 C216 0.960 . S
C220 N221 1.342 . S
C220 C224 1.401 . S
C220 C225 1.499 . S
N221 Co204 1.989 . S
N221 C220 1.342 . S
N221 N222 1.388 . S
N222 Co205 1.993 . S
N222 N221 1.388 . S
N222 C223 1.346 . S
C223 N222 1.346 . S
C223 C224 1.396 . S
C223 C233 1.510 1_554 S
C224 C220 1.401 . S
C224 C223 1.396 . S
C225 C220 1.499 . S
C225 H226 0.959 . S
C225 H227 0.960 . S
C225 H228 0.961 . S
H226 C225 0.959 . S
H227 C225 0.960 . S
H228 C225 0.961 . S
O229 Co204 1.967 . S
O229 C237 1.258 . S
O230 Co205 1.941 . S
O230 C237 1.266 . S
H231 C233 0.959 . S
H232 C233 0.961 . S
C233 C223 1.510 1_556 S
C233 H231 0.959 . S
C233 H232 0.961 . S
C233 H234 0.960 . S
H234 C233 0.960 . S
H235 N215 0.862 . S
O236 Co204 1.920 . S
O236 C209 1.289 . S
C237 O229 1.258 . S
C237 O230 1.266 . S
Co238 O241 1.970 . S
Co238 N255 1.989 . S
Co238 O263 1.967 . S
Co238 O270 1.920 . S
Co239 O242 1.966 . S
Co239 N248 2.022 . S
Co239 N256 1.993 . S
Co239 O264 1.941 . S
C240 O241 1.258 . S
C240 O242 1.263 . S
O241 Co238 1.970 . S
O241 C240 1.258 . S
O242 Co239 1.966 . S
O242 C240 1.263 . S
C243 O244 1.235 . S
C243 O270 1.289 . S
O244 C243 1.235 . S
C245 C247 1.400 . S
C245 N248 1.351 . S
C245 C250 1.501 . S
C246 C247 1.387 . S
C246 N249 1.341 . S
C247 C245 1.400 . S
C247 C246 1.387 . S
N248 Co239 2.022 . S
N248 C245 1.351 . S
N248 N249 1.365 . S
N249 C246 1.341 . S
N249 N248 1.365 . S
N249 H269 0.862 . S
C250 C245 1.501 . S
C250 H251 0.961 . S
C250 H252 0.961 . S
C250 H253 0.960 . S
H251 C250 0.961 . S
H252 C250 0.961 . S
H253 C250 0.960 . S
C254 N255 1.342 . S
C254 C258 1.401 . S
C254 C259 1.499 . S
N255 Co238 1.989 . S
N255 C254 1.342 . S
N255 N256 1.388 . S
N256 Co239 1.993 . S
N256 N255 1.388 . S
N256 C257 1.346 . S
C257 N256 1.346 . S
C257 C258 1.396 . S
C257 C267 1.510 . S
C258 C254 1.401 . S
C258 C257 1.396 . S
C259 C254 1.499 . S
C259 H260 0.959 . S
C259 H261 0.960 . S
C259 H262 0.961 . S
H260 C259 0.959 . S
H261 C259 0.960 . S
H262 C259 0.961 . S
O263 Co238 1.967 . S
O263 C271 1.258 . S
O264 Co239 1.941 . S
O264 C271 1.266 . S
H265 C267 0.959 . S
H266 C267 0.961 . S
C267 C257 1.510 . S
C267 H265 0.959 . S
C267 H266 0.961 . S
C267 H268 0.960 . S
H268 C267 0.960 . S
H269 N249 0.862 . S
O270 Co238 1.920 . S
O270 C243 1.289 . S
C271 O263 1.258 . S
C271 O264 1.266 . S
H272 C278 0.930 . S
H273 C282 0.930 . S
H274 C287 0.929 . S
H275 C285 0.929 . S
H276 C280 0.929 . S
H277 C286 0.930 . S
C278 H272 0.930 . S
C278 C279 1.367 . S
C278 C286 1.378 . S
C279 C278 1.367 . S
C279 C287 1.433 . S
C280 H276 0.929 . S
C280 C282 1.378 . S
C280 C284 1.350 . S
C281 C284 1.463 . S
C281 C286 1.350 1_545 S
C281 N289 1.427 1_545 S
C282 H273 0.930 . S
C282 C280 1.378 . S
C282 C283 1.367 . S
C283 C282 1.367 . S
C283 C285 1.433 . S
C284 C280 1.350 . S
C284 C281 1.463 . S
C284 N288 1.427 . S
C285 H275 0.929 . S
C285 C283 1.433 . S
C285 N288 1.384 . S
C286 H277 0.930 . S
C286 C278 1.378 . S
C286 C281 1.350 1_565 S
C287 H274 0.929 . S
C287 C279 1.433 . S
C287 N289 1.384 . S
N288 C284 1.427 . S
N288 C285 1.384 . S
N289 C281 1.427 1_565 S
N289 C287 1.384 . S
H290 C296 0.930 1_556 S
H291 C300 0.930 1_554 S
H292 C305 0.929 . S
H293 C303 0.929 . S
H294 C298 0.929 . S
H295 C304 0.929 . S
C296 H290 0.930 1_554 S
C296 C297 1.367 . S
C296 C304 1.378 1_554 S
C297 C296 1.367 . S
C297 C305 1.433 . S
C298 H294 0.929 . S
C298 C300 1.378 1_554 S
C298 C302 1.350 1_554 S
C299 C302 1.463 1_554 S
C299 C304 1.350 1_554 S
C299 N307 1.427 . S
C300 H291 0.930 1_556 S
C300 C298 1.378 1_556 S
C300 C301 1.367 . S
C301 C300 1.367 . S
C301 C303 1.433 . S
C302 C298 1.350 1_556 S
C302 C299 1.463 1_556 S
C302 N306 1.427 . S
C303 H293 0.929 . S
C303 C301 1.433 . S
C303 N306 1.384 . S
C304 H295 0.929 . S
C304 C296 1.378 1_556 S
C304 C299 1.350 1_556 S
C305 H292 0.929 . S
C305 C297 1.433 . S
C305 N307 1.384 . S
N306 C302 1.427 . S
N306 C303 1.384 . S
N307 C299 1.427 . S
N307 C305 1.384 . S
H308 C314 0.940 . S
H309 C318 0.930 . S
H310 C323 0.929 . S
H311 C321 0.929 . S
H312 C316 0.929 1_655 S
H313 C322 0.929 . S
C314 H308 0.940 . S
C314 C315 1.367 . S
C314 C322 1.378 1_655 S
C315 C314 1.367 . S
C315 C323 1.433 . S
C316 H312 0.929 1_455 S
C316 C318 1.378 . S
C316 C320 1.350 . S
C317 C320 1.463 . S
C317 C322 1.350 . S
C317 N325 1.427 1_455 S
C318 H309 0.930 . S
C318 C316 1.378 . S
C318 C319 1.367 . S
C319 C318 1.367 . S
C319 C321 1.433 . S
C320 C316 1.350 . S
C320 C317 1.463 . S
C320 N324 1.427 . S
C321 H311 0.929 . S
C321 C319 1.433 . S
C321 N324 1.384 . S
C322 H313 0.929 . S
C322 C314 1.378 1_455 S
C322 C317 1.350 . S
C323 H310 0.929 . S
C323 C315 1.433 . S
C323 N325 1.384 . S
N324 C320 1.427 . S
N324 C321 1.384 . S
N325 C317 1.427 1_655 S
N325 C323 1.384 . S
H326 C332 0.930 . S
H327 C336 0.930 1_545 S
H328 C341 0.929 . S
H329 C339 0.929 . S
H330 C334 0.929 . S
H331 C340 0.929 1_565 S
C332 H326 0.930 . S
C332 C333 1.367 . S
C332 C340 1.378 . S
C333 C332 1.367 . S
C333 C341 1.433 . S
C334 H330 0.929 . S
C334 C336 1.378 1_545 S
C334 C338 1.350 . S
C335 C338 1.463 1_554 S
C335 C340 1.350 1_455 S
C335 N343 1.430 1_554 S
C336 H327 0.930 1_565 S
C336 C334 1.378 1_565 S
C336 C337 1.367 . S
C337 C336 1.367 . S
C337 C339 1.433 . S
C338 C334 1.350 . S
C338 C335 1.463 1_556 S
C338 N342 1.427 1_546 S
C339 H329 0.929 . S
C339 C337 1.433 . S
C339 N342 1.384 1_556 S
C340 H331 0.929 1_545 S
C340 C332 1.378 . S
C340 C335 1.350 1_655 S
C341 H328 0.929 . S
C341 C333 1.433 . S
C341 N343 1.358 1_654 S
N342 C338 1.427 1_564 S
N342 C339 1.384 1_554 S
N343 C335 1.430 1_556 S
N343 C341 1.358 1_456 S
H344 C350 0.930 . S
H345 C354 0.930 . S
H346 C359 0.929 . S
H347 C357 0.929 . S
H348 C352 0.929 . S
H349 C358 0.929 . S
C350 H344 0.930 . S
C350 C351 1.367 . S
C350 C358 1.378 . S
C351 C350 1.367 . S
C351 C359 1.433 . S
C352 H348 0.929 . S
C352 C354 1.378 . S
C352 C356 1.350 . S
C353 C356 1.463 . S
C353 C358 1.350 . S
C353 N361 1.427 . S
C354 H345 0.930 . S
C354 C352 1.378 . S
C354 C355 1.367 . S
C355 C354 1.367 . S
C355 C357 1.433 . S
C356 C352 1.350 . S
C356 C353 1.463 . S
C356 N360 1.427 . S
C357 H347 0.929 . S
C357 C355 1.433 . S
C357 N360 1.384 . S
C358 H349 0.929 . S
C358 C350 1.378 . S
C358 C353 1.350 . S
C359 H346 0.929 . S
C359 C351 1.433 . S
C359 N361 1.384 . S
N360 C356 1.427 . S
N360 C357 1.384 . S
N361 C353 1.427 . S
N361 C359 1.384 . S
H362 C368 0.930 . S
H363 C372 0.930 . S
H364 C377 0.929 . S
H365 C375 0.929 . S
H366 C370 0.929 . S
H367 C376 0.929 . S
C368 H362 0.930 . S
C368 C369 1.367 . S
C368 C376 1.378 . S
C369 C368 1.367 . S
C369 C377 1.433 . S
C370 H366 0.929 . S
C370 C372 1.378 . S
C370 C374 1.350 . S
C371 C374 1.463 . S
C371 C376 1.350 . S
C371 N379 1.427 . S
C372 H363 0.930 . S
C372 C370 1.378 . S
C372 C373 1.367 . S
C373 C372 1.367 . S
C373 C375 1.433 . S
C374 C370 1.350 . S
C374 C371 1.463 . S
C374 N378 1.427 . S
C375 H365 0.929 . S
C375 C373 1.433 . S
C375 N378 1.384 . S
C376 H367 0.929 . S
C376 C368 1.378 . S
C376 C371 1.350 . S
C377 H364 0.929 . S
C377 C369 1.433 . S
C377 N379 1.384 . S
N378 C374 1.427 . S
N378 C375 1.384 . S
N379 C371 1.427 . S
N379 C377 1.384 . S
H380 C386 0.930 . S
H381 C390 0.930 . S
H382 C395 0.929 . S
H383 C393 0.929 . S
H384 C388 0.929 . S
H385 C394 0.929 . S
C386 H380 0.930 . S
C386 C387 1.367 . S
C386 C394 1.378 . S
C387 C386 1.367 . S
C387 C395 1.433 . S
C388 H384 0.929 . S
C388 C390 1.378 . S
C388 C392 1.350 . S
C389 C392 1.463 . S
C389 C394 1.350 . S
C389 N397 1.427 . S
C390 H381 0.930 . S
C390 C388 1.378 . S
C390 C391 1.367 . S
C391 C390 1.367 . S
C391 C393 1.433 . S
C392 C388 1.350 . S
C392 C389 1.463 . S
C392 N396 1.427 . S
C393 H383 0.929 . S
C393 C391 1.433 . S
C393 N396 1.384 . S
C394 H385 0.929 . S
C394 C386 1.378 . S
C394 C389 1.350 . S
C395 H382 0.929 . S
C395 C387 1.433 . S
C395 N397 1.384 . S
N396 C392 1.427 . S
N396 C393 1.384 . S
N397 C389 1.427 . S
N397 C395 1.384 . S
H398 C404 0.930 . S
H399 C408 0.930 . S
H400 C413 0.929 . S
H401 C411 0.929 . S
H402 C406 0.929 . S
H403 C412 0.929 . S
C404 H398 0.930 . S
C404 C405 1.367 . S
C404 C412 1.378 . S
C405 C404 1.367 . S
C405 C413 1.433 . S
C406 H402 0.929 . S
C406 C408 1.378 . S
C406 C410 1.350 . S
C407 C410 1.463 . S
C407 C412 1.350 . S
C407 N415 1.427 . S
C408 H399 0.930 . S
C408 C406 1.378 . S
C408 C409 1.367 . S
C409 C408 1.367 . S
C409 C411 1.433 . S
C410 C406 1.350 . S
C410 C407 1.463 . S
C410 N414 1.427 . S
C411 H401 0.929 . S
C411 C409 1.433 . S
C411 N414 1.384 . S
C412 H403 0.929 . S
C412 C404 1.378 . S
C412 C407 1.350 . S
C413 H400 0.929 . S
C413 C405 1.433 . S
C413 N415 1.384 . S
N414 C410 1.427 . S
N414 C411 1.384 . S
N415 C407 1.427 . S
N415 C413 1.384 . S
H416 C422 0.930 . S
H417 C426 0.930 . S
H418 C431 0.929 . S
H419 C429 0.929 . S
H420 C424 0.929 . S
H421 C430 0.929 . S
C422 H416 0.930 . S
C422 C423 1.367 . S
C422 C430 1.378 . S
C423 C422 1.367 . S
C423 C431 1.433 . S
C424 H420 0.929 . S
C424 C426 1.378 . S
C424 C428 1.350 . S
C425 C428 1.463 . S
C425 C430 1.350 . S
C425 N433 1.427 . S
C426 H417 0.930 . S
C426 C424 1.378 . S
C426 C427 1.367 . S
C427 C426 1.367 . S
C427 C429 1.433 . S
C428 C424 1.350 . S
C428 C425 1.463 . S
C428 N432 1.427 . S
C429 H419 0.929 . S
C429 C427 1.433 . S
C429 N432 1.384 . S
C430 H421 0.929 . S
C430 C422 1.378 . S
C430 C425 1.350 . S
C431 H418 0.929 . S
C431 C423 1.433 . S
C431 N433 1.384 . S
N432 C428 1.427 . S
N432 C429 1.384 . S
N433 C425 1.427 . S
N433 C431 1.384 . S
H434 C440 0.930 . S
H435 C444 0.930 . S
H436 C449 0.929 . S
H437 C447 0.929 . S
H438 C442 0.929 . S
H439 C448 0.929 . S
C440 H434 0.930 . S
C440 C441 1.367 . S
C440 C448 1.378 . S
C441 C440 1.367 . S
C441 C449 1.433 . S
C442 H438 0.929 . S
C442 C444 1.378 . S
C442 C446 1.350 . S
C443 C446 1.463 . S
C443 C448 1.350 . S
C443 N451 1.427 . S
C444 H435 0.930 . S
C444 C442 1.378 . S
C444 C445 1.367 . S
C445 C444 1.367 . S
C445 C447 1.433 . S
C446 C442 1.350 . S
C446 C443 1.463 . S
C446 N450 1.427 . S
C447 H437 0.929 . S
C447 C445 1.433 . S
C447 N450 1.384 . S
C448 H439 0.929 . S
C448 C440 1.378 . S
C448 C443 1.350 . S
C449 H436 0.929 . S
C449 C441 1.433 . S
C449 N451 1.384 . S
N450 C446 1.427 . S
N450 C447 1.384 . S
N451 C443 1.427 . S
N451 C449 1.384 . S
H452 C458 0.930 . S
H453 C462 0.930 . S
H454 C467 0.929 . S
H455 C465 0.929 . S
H456 C460 0.929 . S
H457 C466 0.929 . S
C458 H452 0.930 . S
C458 C459 1.367 . S
C458 C466 1.378 . S
C459 C458 1.367 . S
C459 C467 1.433 . S
C460 H456 0.929 . S
C460 C462 1.378 . S
C460 C464 1.350 . S
C461 C464 1.463 . S
C461 C466 1.350 . S
C461 N469 1.427 . S
C462 H453 0.930 . S
C462 C460 1.378 . S
C462 C463 1.367 . S
C463 C462 1.367 . S
C463 C465 1.433 . S
C464 C460 1.350 . S
C464 C461 1.463 . S
C464 N468 1.427 . S
C465 H455 0.929 . S
C465 C463 1.433 . S
C465 N468 1.384 . S
C466 H457 0.929 . S
C466 C458 1.378 . S
C466 C461 1.350 . S
C467 H454 0.929 . S
C467 C459 1.433 . S
C467 N469 1.384 . S
N468 C464 1.427 . S
N468 C465 1.384 . S
N469 C461 1.427 . S
N469 C467 1.384 . S
H470 C476 0.930 . S
H471 C480 0.930 . S
H472 C485 0.929 . S
H473 C483 0.929 . S
H474 C478 0.929 . S
H475 C484 0.929 . S
C476 H470 0.930 . S
C476 C477 1.367 . S
C476 C484 1.378 . S
C477 C476 1.367 . S
C477 C485 1.433 . S
C478 H474 0.929 . S
C478 C480 1.378 . S
C478 C482 1.350 . S
C479 C482 1.463 . S
C479 C484 1.350 . S
C479 N487 1.427 . S
C480 H471 0.930 . S
C480 C478 1.378 . S
C480 C481 1.367 . S
C481 C480 1.367 . S
C481 C483 1.433 . S
C482 C478 1.350 . S
C482 C479 1.463 . S
C482 N486 1.427 . S
C483 H473 0.929 . S
C483 C481 1.433 . S
C483 N486 1.384 . S
C484 H475 0.929 . S
C484 C476 1.378 . S
C484 C479 1.350 . S
C485 H472 0.929 . S
C485 C477 1.433 . S
C485 N487 1.384 . S
N486 C482 1.427 . S
N486 C483 1.384 . S
N487 C479 1.427 . S
N487 C485 1.384 . S
H488 C494 0.930 . S
H489 C498 0.930 . S
H490 C503 0.929 . S
H491 C501 0.929 . S
H492 C496 0.929 . S
H493 C502 0.929 . S
C494 H488 0.930 . S
C494 C495 1.367 . S
C494 C502 1.378 . S
C495 C494 1.367 . S
C495 C503 1.433 . S
C496 H492 0.929 . S
C496 C498 1.378 1_556 S
C496 C500 1.350 . S
C497 C500 1.463 . S
C497 C502 1.350 . S
C497 N505 1.427 . S
C498 H489 0.930 . S
C498 C496 1.378 1_554 S
C498 C499 1.367 . S
C499 C498 1.367 . S
C499 C501 1.433 . S
C500 C496 1.350 . S
C500 C497 1.463 . S
C500 N504 1.427 . S
C501 H491 0.929 . S
C501 C499 1.433 . S
C501 N504 1.384 1_554 S
C502 H493 0.929 . S
C502 C494 1.378 . S
C502 C497 1.350 . S
C503 H490 0.929 . S
C503 C495 1.433 . S
C503 N505 1.384 . S
N504 C500 1.427 . S
N504 C501 1.384 1_556 S
N505 C497 1.427 . S
N505 C503 1.384 . S
H506 C512 0.930 . S
H507 C516 0.930 . S
H508 C521 0.929 . S
H509 C519 0.929 . S
H510 C514 0.929 . S
H511 C520 0.929 . S
C512 H506 0.930 . S
C512 C513 1.367 . S
C512 C520 1.378 . S
C513 C512 1.367 . S
C513 C521 1.433 . S
C514 H510 0.929 . S
C514 C516 1.378 . S
C514 C518 1.350 . S
C515 C518 1.463 . S
C515 C520 1.350 . S
C515 N523 1.427 . S
C516 H507 0.930 . S
C516 C514 1.378 . S
C516 C517 1.367 . S
C517 C516 1.367 . S
C517 C519 1.433 . S
C518 C514 1.350 . S
C518 C515 1.463 . S
C518 N522 1.427 . S
C519 H509 0.929 . S
C519 C517 1.433 . S
C519 N522 1.384 . S
C520 H511 0.929 . S
C520 C512 1.378 . S
C520 C515 1.350 . S
C521 H508 0.929 . S
C521 C513 1.433 . S
C521 N523 1.384 . S
N522 C518 1.427 . S
N522 C519 1.384 . S
N523 C515 1.427 . S
N523 C521 1.384 . S
H524 C530 0.930 . S
H525 C534 0.930 . S
H526 C539 0.929 . S
H527 C537 0.929 . S
H528 C532 0.929 . S
H529 C538 0.929 . S
C530 H524 0.930 . S
C530 C531 1.367 . S
C530 C538 1.378 1_554 S
C531 C530 1.367 . S
C531 C539 1.433 . S
C532 H528 0.929 . S
C532 C534 1.378 . S
C532 C536 1.350 . S
C533 C536 1.463 . S
C533 C538 1.350 . S
C533 N541 1.427 . S
C534 H525 0.930 . S
C534 C532 1.378 . S
C534 C535 1.367 . S
C535 C534 1.367 . S
C535 C537 1.433 . S
C536 C532 1.350 . S
C536 C533 1.463 . S
C536 N540 1.427 . S
C537 H527 0.929 . S
C537 C535 1.433 . S
C537 N540 1.384 . S
C538 H529 0.929 . S
C538 C530 1.378 1_556 S
C538 C533 1.350 . S
C539 H526 0.929 . S
C539 C531 1.433 . S
C539 N541 1.384 1_554 S
N540 C536 1.427 . S
N540 C537 1.384 . S
N541 C533 1.427 . S
N541 C539 1.384 1_556 S
H542 C548 0.930 . S
H543 C552 0.930 . S
H544 C557 0.929 . S
H545 C555 0.929 . S
H546 C550 0.929 . S
H547 C556 0.929 . S
C548 H542 0.930 . S
C548 C549 1.367 . S
C548 C556 1.378 . S
C549 C548 1.367 . S
C549 C557 1.433 . S
C550 H546 0.929 . S
C550 C552 1.378 . S
C550 C554 1.350 . S
C551 C554 1.463 . S
C551 C556 1.350 . S
C551 N559 1.427 . S
C552 H543 0.930 . S
C552 C550 1.378 . S
C552 C553 1.367 . S
C553 C552 1.367 . S
C553 C555 1.433 . S
C554 C550 1.350 . S
C554 C551 1.463 . S
C554 N558 1.427 . S
C555 H545 0.929 . S
C555 C553 1.433 . S
C555 N558 1.384 . S
C556 H547 0.929 . S
C556 C548 1.378 . S
C556 C551 1.350 . S
C557 H544 0.929 . S
C557 C549 1.433 . S
C557 N559 1.384 . S
N558 C554 1.427 . S
N558 C555 1.384 . S
N559 C551 1.427 . S
N559 C557 1.384 . S
H560 C566 0.930 . S
H561 C570 0.930 . S
H562 C575 0.929 . S
H563 C573 0.929 . S
H564 C568 0.929 . S
H565 C574 0.929 . S
C566 H560 0.930 . S
C566 C567 1.367 . S
C566 C574 1.378 . S
C567 C566 1.367 . S
C567 C575 1.433 . S
C568 H564 0.929 . S
C568 C570 1.378 . S
C568 C572 1.350 . S
C569 C572 1.463 . S
C569 C574 1.350 . S
C569 N577 1.427 . S
C570 H561 0.930 . S
C570 C568 1.378 . S
C570 C571 1.367 . S
C571 C570 1.367 . S
C571 C573 1.433 . S
C572 C568 1.350 . S
C572 C569 1.463 . S
C572 N576 1.427 . S
C573 H563 0.929 . S
C573 C571 1.433 . S
C573 N576 1.384 . S
C574 H565 0.929 . S
C574 C566 1.378 . S
C574 C569 1.350 . S
C575 H562 0.929 . S
C575 C567 1.433 . S
C575 N577 1.384 . S
N576 C572 1.427 . S
N576 C573 1.384 . S
N577 C569 1.427 . S
N577 C575 1.384 . S
H578 C584 0.930 . S
H579 C588 0.930 . S
H580 C593 0.929 . S
H581 C591 0.929 . S
H582 C586 0.929 . S
H583 C592 0.929 . S
C584 H578 0.930 . S
C584 C585 1.367 . S
C584 C592 1.378 1_556 S
C585 C584 1.367 . S
C585 C593 1.433 . S
C586 H582 0.929 . S
C586 C588 1.378 . S
C586 C590 1.350 . S
C587 C590 1.463 . S
C587 C592 1.350 . S
C587 N595 1.427 . S
C588 H579 0.930 . S
C588 C586 1.378 . S
C588 C589 1.367 . S
C589 C588 1.367 . S
C589 C591 1.433 . S
C590 C586 1.350 . S
C590 C587 1.463 . S
C590 N594 1.427 . S
C591 H581 0.929 . S
C591 C589 1.433 . S
C591 N594 1.384 . S
C592 H583 0.929 . S
C592 C584 1.378 1_554 S
C592 C587 1.350 . S
C593 H580 0.929 . S
C593 C585 1.433 . S
C593 N595 1.384 1_556 S
N594 C590 1.427 . S
N594 C591 1.384 . S
N595 C587 1.427 . S
N595 C593 1.384 1_554 S
H596 C602 0.930 . S
H597 C606 0.930 . S
H598 C611 0.929 . S
H599 C609 0.929 . S
H600 C604 0.929 . S
H601 C610 0.929 . S
C602 H596 0.930 . S
C602 C603 1.367 . S
C602 C610 1.378 . S
C603 C602 1.367 . S
C603 C611 1.433 . S
C604 H600 0.929 . S
C604 C606 1.378 . S
C604 C608 1.350 . S
C605 C608 1.463 . S
C605 C610 1.350 . S
C605 N613 1.427 . S
C606 H597 0.930 . S
C606 C604 1.378 . S
C606 C607 1.367 . S
C607 C606 1.367 . S
C607 C609 1.433 . S
C608 C604 1.350 . S
C608 C605 1.463 . S
C608 N612 1.427 . S
C609 H599 0.929 . S
C609 C607 1.433 . S
C609 N612 1.384 . S
C610 H601 0.929 . S
C610 C602 1.378 . S
C610 C605 1.350 . S
C611 H598 0.929 . S
C611 C603 1.433 . S
C611 N613 1.384 . S
N612 C608 1.427 . S
N612 C609 1.384 . S
N613 C605 1.427 . S
N613 C611 1.384 . S
H614 C620 0.930 . S
H615 C624 0.930 . S
H616 C629 0.929 . S
H617 C627 0.929 . S
H618 C622 0.929 . S
H619 C628 0.929 . S
C620 H614 0.930 . S
C620 C621 1.367 . S
C620 C628 1.378 . S
C621 C620 1.367 . S
C621 C629 1.433 . S
C622 H618 0.929 . S
C622 C624 1.378 1_554 S
C622 C626 1.350 . S
C623 C626 1.463 . S
C623 C628 1.350 . S
C623 N631 1.427 . S
C624 H615 0.930 . S
C624 C622 1.378 1_556 S
C624 C625 1.367 . S
C625 C624 1.367 . S
C625 C627 1.433 . S
C626 C622 1.350 . S
C626 C623 1.463 . S
C626 N630 1.427 . S
C627 H617 0.929 . S
C627 C625 1.433 . S
C627 N630 1.384 1_556 S
C628 H619 0.929 . S
C628 C620 1.378 . S
C628 C623 1.350 . S
C629 H616 0.929 . S
C629 C621 1.433 . S
C629 N631 1.384 . S
N630 C626 1.427 . S
N630 C627 1.384 1_554 S
N631 C623 1.427 . S
N631 C629 1.384 . S
C279 C258 1.551 . S
C283 C20 1.554 . S
C297 C156 1.544 . S
C301 C54 1.547 . S
C315 C88 1.552 . S
C319 C190 1.546 . S
C333 C224 1.549 . S
C337 C122 1.554 . S
C351 C33 1.194 . S
C355 C169 1.192 . S
C369 C203 1.191 . S
C373 C67 1.197 . S
C387 C237 1.194 . S
C391 C101 1.199 . S
C405 C271 1.191 . S
C409 C135 1.197 . S
C423 C240 1.682 . S
C427 C36 1.682 . S
C441 C70 1.682 . S
C445 C138 1.682 . S
C459 C104 1.683 . S
C463 C172 1.683 . S
C477 C206 1.680 . S
C481 C2 1.680 . S
C495 C9 1.102 . S
C499 C5 1.166 . S
C513 C39 1.165 . S
C517 C43 1.102 . S
C531 C73 1.177 . S
C535 C77 1.119 . S
C549 C111 1.116 . S
C553 C107 1.166 . S
C567 C141 1.168 . S
C571 C145 1.104 . S
C585 C175 1.166 . S
C589 C179 1.114 . S
C603 C209 1.177 . S
C607 C213 1.118 . S
C621 C247 1.128 . S
C625 C243 1.175 . S
