# Generated by pormake.
# Topology snz, (6)-cn, num edge types: 1
# Building blocks:
#     Node 0, Type 0, BuildingBlock: KUMBOL_clean_sbu_1, # of connection points: 6
#     Node 1, Type 0, BuildingBlock: KUMBOL_clean_sbu_1, # of connection points: 6
#     Node 2, Type 0, BuildingBlock: KUMBOL_clean_sbu_1, # of connection points: 6
#     Node 3, Type 0, BuildingBlock: KUMBOL_clean_sbu_1, # of connection points: 6
#     Node 4, Type 0, BuildingBlock: KUMBOL_clean_sbu_1, # of connection points: 6
#     Node 5, Type 0, BuildingBlock: KUMBOL_clean_sbu_1, # of connection points: 6
#     Node 6, Type 0, BuildingBlock: KUMBOL_clean_sbu_1, # of connection points: 6
#     Node 7, Type 0, BuildingBlock: KUMBOL_clean_sbu_1, # of connection points: 6
#     Node 8, Type 0, BuildingBlock: KUMBOL_clean_sbu_1, # of connection points: 6
#     Edge 9, Type (0, 0), BuildingBlock: OJICUG_clean_linker_0, # of connection points: 2
#     Edge 10, Type (0, 0), BuildingBlock: OJICUG_clean_linker_0, # of connection points: 2
#     Edge 11, Type (0, 0), BuildingBlock: OJICUG_clean_linker_0, # of connection points: 2
#     Edge 12, Type (0, 0), BuildingBlock: OJICUG_clean_linker_0, # of connection points: 2
#     Edge 13, Type (0, 0), BuildingBlock: OJICUG_clean_linker_0, # of connection points: 2
#     Edge 14, Type (0, 0), BuildingBlock: OJICUG_clean_linker_0, # of connection points: 2
#     Edge 15, Type (0, 0), BuildingBlock: OJICUG_clean_linker_0, # of connection points: 2
#     Edge 16, Type (0, 0), BuildingBlock: OJICUG_clean_linker_0, # of connection points: 2
#     Edge 17, Type (0, 0), BuildingBlock: OJICUG_clean_linker_0, # of connection points: 2
#     Edge 18, Type (0, 0), BuildingBlock: OJICUG_clean_linker_0, # of connection points: 2
#     Edge 19, Type (0, 0), BuildingBlock: OJICUG_clean_linker_0, # of connection points: 2
#     Edge 20, Type (0, 0), BuildingBlock: OJICUG_clean_linker_0, # of connection points: 2
#     Edge 21, Type (0, 0), BuildingBlock: OJICUG_clean_linker_0, # of connection points: 2
#     Edge 22, Type (0, 0), BuildingBlock: OJICUG_clean_linker_0, # of connection points: 2
#     Edge 23, Type (0, 0), BuildingBlock: OJICUG_clean_linker_0, # of connection points: 2
#     Edge 24, Type (0, 0), BuildingBlock: OJICUG_clean_linker_0, # of connection points: 2
#     Edge 25, Type (0, 0), BuildingBlock: OJICUG_clean_linker_0, # of connection points: 2
#     Edge 26, Type (0, 0), BuildingBlock: OJICUG_clean_linker_0, # of connection points: 2
#     Edge 27, Type (0, 0), BuildingBlock: OJICUG_clean_linker_0, # of connection points: 2
#     Edge 28, Type (0, 0), BuildingBlock: OJICUG_clean_linker_0, # of connection points: 2
#     Edge 29, Type (0, 0), BuildingBlock: OJICUG_clean_linker_0, # of connection points: 2
#     Edge 30, Type (0, 0), BuildingBlock: OJICUG_clean_linker_0, # of connection points: 2
#     Edge 31, Type (0, 0), BuildingBlock: OJICUG_clean_linker_0, # of connection points: 2
#     Edge 32, Type (0, 0), BuildingBlock: OJICUG_clean_linker_0, # of connection points: 2
#     Edge 33, Type (0, 0), BuildingBlock: OJICUG_clean_linker_0, # of connection points: 2
#     Edge 34, Type (0, 0), BuildingBlock: OJICUG_clean_linker_0, # of connection points: 2
#     Edge 35, Type (0, 0), BuildingBlock: OJICUG_clean_linker_0, # of connection points: 2
# Relax obj value: 0.381
# Max RMSD: 0.186
# Mean RMSD: 0.127
data_MOF--net-snz--node1-KUMBOL_clean_sbu_1--edge1-OJICUG_clean_linker_0
_symmetry_space_group_name_H-M    P1
_symmetry_Int_Tables_number       1
_symmetry_cell_setting            triclinic
loop_
_symmetry_equiv_pos_as_xyz
'x, y, z'
_cell_length_a     53.514622
_cell_length_b     40.112962
_cell_length_c     12.694627
_cell_angle_alpha  96.636815
_cell_angle_beta   94.59182
_cell_angle_gamma 121.7799
loop_
_atom_site_label
_atom_site_type_symbol
_atom_site_fract_x
_atom_site_fract_y
_atom_site_fract_z
_atom_type_partial_charge
C0 C 0.16043 0.52159 0.13106 0.0
C1 C 0.19937 0.57552 0.26893 0.0
C2 C 0.16911 0.54541 0.23193 0.0
C3 C 0.2202 0.5839 0.19912 0.0
C4 C 0.18166 0.52801 1.06361 0.0
C5 C 0.21133 0.56029 0.0964 0.0
N6 N 0.13195 0.4895 0.10419 0.0
C7 C 0.12385 0.46101 1.01534 0.0
C8 C 0.17283 0.50051 0.96808 0.0
C9 C 0.14394 0.46648 0.94487 0.0
Gd10 Gd 0.03466 0.4988 0.20699 0.0
Gd11 Gd 0.09935 0.48422 0.22448 0.0
N12 N 0.14855 0.53604 0.29825 0.0
C13 C 0.2081 0.59444 0.377 0.0
C14 C 0.15725 0.55253 0.40528 0.0
C15 C 0.18709 0.58222 0.44599 0.0
H16 H 0.14108 0.5433 0.45894 0.0
H17 H 0.19381 0.59579 0.53041 0.0
H18 H 0.994 0.43507 0.97471 0.0
H19 H 0.1015 0.43466 0.99719 0.0
H20 H 0.9428 0.37664 0.90933 0.0
H21 H 0.23121 0.61712 0.40911 0.0
H22 H 0.24346 0.60738 0.22553 0.0
H23 H 0.03042 0.5466 0.43423 0.0
H24 H 0.18847 0.50441 0.91404 0.0
H25 H 0.13716 0.44442 0.87291 0.0
H26 H 0.89274 0.36563 0.21269 0.0
H27 H 0.22788 0.56601 1.0451 0.0
H28 H 0.94544 0.46956 0.52349 0.0
H29 H 0.99549 0.53198 0.56389 0.0
N30 N 1.00188 0.49066 0.32902 0.0
C31 C 0.97412 0.45687 0.30297 0.0
C32 C 0.00888 0.51877 0.41752 0.0
C33 C 0.961 0.47524 0.46793 0.0
C34 C 0.98908 0.51073 0.49046 0.0
C35 C 0.95283 0.44843 0.37152 0.0
H36 H 0.90721 0.40746 0.39168 0.0
N37 N 0.98645 0.44362 0.13475 0.0
C38 C 0.96603 0.43289 0.20227 0.0
C39 C 0.92831 0.37928 1.0619 0.0
C40 C 0.9364 0.40036 0.16752 0.0
C41 C 0.97805 0.42517 1.0292 0.0
C42 C 0.94909 0.39213 0.99193 0.0
O43 O 0.11574 0.55213 0.26127 0.0
O44 O 0.07626 0.55634 0.30245 0.0
O45 O 0.04618 0.55032 0.13131 0.0
O46 O 1.00235 0.51516 0.17142 0.0
O47 O 0.08693 0.48922 0.40409 0.0
O48 O 0.04826 0.49899 0.39573 0.0
O49 O 0.02123 0.43297 0.18257 0.0
O50 O 0.05812 0.4333 0.10458 0.0
O51 O 0.08258 0.42858 0.28824 0.0
O52 O 0.12843 0.46347 0.26959 0.0
O53 O 0.04717 0.49399 1.02683 0.0
O54 O 0.08788 0.48818 1.03726 0.0
C55 C 0.10484 0.57388 0.29538 0.0
C56 C 0.06763 0.49399 0.45693 0.0
C57 C 0.0205 0.5831 0.17243 0.0
C58 C 1.00294 0.62824 0.14969 0.0
C59 C 0.03973 0.6433 0.30472 0.0
C60 C 0.0385 0.60818 0.2695 0.0
C61 C 0.0225 0.65348 0.24507 0.0
C62 C 1.00215 0.59275 0.11359 0.0
C63 C 0.02043 0.54659 0.13405 0.0
C64 C 0.91552 0.39084 0.23758 0.0
C65 C 0.92377 0.41464 0.33961 0.0
H66 H 0.90584 0.35385 1.03285 0.0
C67 C 0.02999 0.41409 0.11882 0.0
C68 C 0.06768 0.49161 0.97522 0.0
C69 C 0.10882 0.39455 0.2653 0.0
C70 C 0.12585 0.34816 0.29496 0.0
C71 C 0.09968 0.34298 0.11939 0.0
C72 C 0.09665 0.37418 0.15921 0.0
C73 C 0.11447 0.33081 0.18464 0.0
C74 C 0.12324 0.3812 0.33405 0.0
C75 C 0.10822 0.43131 0.29934 0.0
H76 H 0.05413 0.6628 0.37895 0.0
H77 H 0.05187 0.6008 0.31781 0.0
H78 H 0.02425 0.68107 0.27507 0.0
H79 H 0.98776 0.5731 1.03944 0.0
H80 H 0.0909 0.3284 1.03594 0.0
H81 H 0.08539 0.38317 0.1058 0.0
H82 H 0.11721 0.30787 0.14551 0.0
H83 H 0.13232 0.39661 0.41665 0.0
C84 C 0.61801 0.44636 0.10641 0.0
C85 C 0.59684 0.3908 0.95578 0.0
C86 C 0.60362 0.42919 1.00019 0.0
C87 C 0.60398 0.36965 1.01946 0.0
C88 C 0.62626 0.42563 0.16891 0.0
C89 C 0.6187 0.38704 0.12554 0.0
N90 N 0.62555 0.48412 0.14647 0.0
C91 C 0.64258 0.50322 0.24616 0.0
C92 C 0.64261 0.44464 0.27244 0.0
C93 C 0.65105 0.48373 0.3107 0.0
Gd94 Gd 0.54584 0.52264 1.0086 0.0
Gd95 Gd 0.60874 0.51312 1.0309 0.0
N96 N 0.5971 0.45041 0.93936 0.0
C97 C 0.58361 0.37497 0.84778 0.0
C98 C 0.58549 0.43562 0.83221 0.0
C99 C 0.5782 0.39763 0.78562 0.0
H100 H 0.58046 0.45188 0.7823 0.0
H101 H 0.56827 0.38579 0.70161 0.0
H102 H 0.57116 0.59563 0.22612 0.0
H103 H 0.64897 0.53324 0.27806 0.0
H104 H 0.5691 0.65474 0.28295 0.0
H105 H 0.57798 0.34557 0.81111 0.0
H106 H 0.59878 0.34011 0.98664 0.0
H107 H 0.49661 0.47367 0.78184 0.0
H108 H 0.64933 0.42969 0.32265 0.0
H109 H 0.66405 0.49889 0.39017 0.0
H110 H 0.51064 0.65716 0.98061 0.0
H111 H 0.62469 0.37067 0.17273 0.0
H112 H 0.46537 0.5462 0.68615 0.0
H113 H 0.46554 0.4843 0.65244 0.0
N114 N 0.51443 0.52948 0.88541 0.0
C115 C 0.51425 0.56325 0.90634 0.0
C116 C 0.4968 0.50089 0.79665 0.0
C117 C 0.47923 0.54184 0.74252 0.0
C118 C 0.4792 0.50681 0.72336 0.0
C119 C 0.49654 0.57033 0.83574 0.0
H120 H 0.48267 0.61103 0.80852 0.0
N121 N 0.54607 0.5806 1.06993 0.0
C122 C 0.53036 0.58947 1.0022 0.0
C123 C 0.54298 0.6469 0.13335 0.0
C124 C 0.52869 0.62315 1.03145 0.0
C125 C 0.55926 0.60306 0.1709 0.0
C126 C 0.55827 0.63677 0.20348 0.0
O127 O 0.56226 0.45278 1.0133 0.0
O128 O 0.53446 0.46446 0.90084 0.0
O129 O 0.52617 0.4777 0.10773 0.0
O130 O 0.50034 0.49936 1.0327 0.0
O131 O 0.59769 0.51855 0.84473 0.0
O132 O 0.55553 0.52016 0.82596 0.0
O133 O 0.58934 0.58469 1.02977 0.0
O134 O 0.62146 0.57492 0.12808 0.0
O135 O 0.64651 0.56506 0.98431 0.0
O136 O 0.64978 0.51582 1.01495 0.0
O137 O 0.56169 0.52886 0.20041 0.0
O138 O 0.59957 0.51799 0.21418 0.0
C139 C 0.53798 0.43807 0.94087 0.0
C140 C 0.57723 0.52016 0.77862 0.0
C141 C 0.47391 0.43395 1.07054 0.0
C142 C 0.43406 0.38079 0.14215 0.0
C143 C 0.43628 0.37209 0.95148 0.0
C144 C 0.46176 0.41066 0.96692 0.0
C145 C 0.42217 0.35729 1.03853 0.0
C146 C 0.46023 0.41874 0.15786 0.0
C147 C 0.50044 0.47449 0.09085 0.0
C148 C 0.51194 0.63119 0.95991 0.0
C149 C 0.49599 0.60491 0.86198 0.0
H150 H 0.54153 0.67231 0.1599 0.0
C151 C 0.61462 0.60004 0.0962 0.0
C152 C 0.58044 0.52358 0.26463 0.0
C153 C 0.69465 0.57822 1.04981 0.0
C154 C 0.74851 0.60931 1.05504 0.0
C155 C 0.72797 0.60513 0.22077 0.0
C156 C 0.69957 0.58791 0.16209 0.0
C157 C 0.75227 0.61566 0.1679 0.0
C158 C 0.71934 0.58988 0.99582 0.0
C159 C 0.66375 0.55123 0.99151 0.0
H160 H 0.4272 0.35391 0.87171 0.0
H161 H 0.4719 0.4223 0.89847 0.0
H162 H 0.40188 0.32788 1.02504 0.0
H163 H 0.46926 0.43714 0.23768 0.0
H164 H 0.73119 0.61077 0.30776 0.0
H165 H 0.68129 0.58131 0.20439 0.0
H166 H 0.77424 0.62992 0.21547 0.0
H167 H 0.71582 0.58275 0.9088 0.0
C168 C 0.51399 0.97124 0.69759 0.0
C169 C 0.52288 0.92789 0.78956 0.0
C170 C 0.52607 0.96503 0.78785 0.0
C171 C 0.50942 0.89831 0.69601 0.0
C172 C 0.49869 0.94072 0.60582 0.0
C173 C 0.49737 0.90474 0.60417 0.0
N174 N 0.51474 1.00574 0.70358 0.0
C175 C 0.49883 1.01054 0.62376 0.0
C176 C 0.484 0.94658 0.52059 0.0
C177 C 0.48367 0.98139 0.53041 0.0
Gd178 Gd 0.61429 0.15214 0.918 0.0
Gd179 Gd 0.54317 0.05481 0.85882 0.0
N180 N 0.53828 0.99391 0.87739 0.0
C181 C 0.53185 0.92087 0.88673 0.0
C182 C 0.54468 0.98595 0.97426 0.0
C183 C 0.54214 0.94969 0.98001 0.0
H184 H 0.55269 1.00807 1.04673 0.0
H185 H 0.54821 0.94407 1.0563 0.0
H186 H 0.59123 0.18463 0.71661 0.0
H187 H 0.49859 0.03748 0.63096 0.0
H188 H 0.59422 0.24544 0.68522 0.0
H189 H 0.52975 0.89273 0.8915 0.0
H190 H 0.50714 0.86979 0.69525 0.0
H191 H 0.6564 0.17758 0.15719 0.0
H192 H 0.47201 0.92387 0.44863 0.0
H193 H 0.47174 0.98578 0.4662 0.0
H194 H 0.65109 0.34013 1.01079 0.0
H195 H 0.48603 0.8811 0.53393 0.0
H196 H 0.68907 0.29919 0.28837 0.0
H197 H 0.68557 0.23601 0.30423 0.0
N198 N 0.64363 0.20729 1.05861 0.0
C199 C 0.64563 0.24178 1.04772 0.0
C200 C 0.65802 0.20509 0.14883 0.0
C201 C 0.67634 0.27365 0.22337 0.0
C202 C 0.67447 0.23809 0.23254 0.0
C203 C 0.66195 0.27592 0.13 0.0
H204 H 0.67586 0.33766 0.17877 0.0
N205 N 0.61682 0.20983 0.87501 0.0
C206 C 0.63183 0.24314 0.95302 0.0
C207 C 0.62 0.27943 0.84088 0.0
C208 C 0.63378 0.27877 0.93822 0.0
C209 C 0.60377 0.21075 0.7789 0.0
C210 C 0.60504 0.2453 0.7608 0.0
O211 O 0.58407 0.04983 0.88771 0.0
O212 O 0.61506 0.10697 1.00782 0.0
O213 O 0.6375 0.12819 0.83211 0.0
O214 O 0.66258 0.18885 0.91688 0.0
O215 O 0.55749 0.07376 1.05508 0.0
O216 O 0.60028 0.13658 0.09385 0.0
O217 O 0.57099 0.15577 0.91045 0.0
O218 O 0.53871 0.10114 0.78475 0.0
O219 O 0.51907 0.0719 0.9586 0.0
O220 O 0.49714 1.01131 0.86711 0.0
O221 O 0.60001 0.13371 0.72293 0.0
O222 O 0.55627 0.07214 0.68461 0.0
C223 C 0.60625 0.07002 0.96914 0.0
C224 C 0.57824 0.10547 0.1318 0.0
C225 C 0.68956 0.15537 0.90758 0.0
C226 C 0.73621 0.15372 0.90239 0.0
C227 C 0.71124 0.14131 1.05927 0.0
C228 C 0.68973 0.14701 1.01147 0.0
C229 C 0.73389 0.14435 1.0057 0.0
C230 C 0.71357 0.15931 0.85252 0.0
C231 C 0.66438 0.16043 0.8632 0.0
C232 C 0.64949 0.31262 1.02061 0.0
C233 C 0.66358 0.31122 0.11626 0.0
H234 H 0.62087 0.30612 0.82665 0.0
C235 C 0.54538 0.13531 0.84043 0.0
C236 C 0.57829 0.10298 0.64682 0.0
C237 C 0.46652 0.03538 0.90485 0.0
C238 C 0.41652 1.01254 0.94249 0.0
C239 C 0.43303 0.04389 0.7875 0.0
C240 C 0.46052 0.04794 0.81309 0.0
C241 C 0.41097 0.02592 0.85116 0.0
C242 C 0.44463 0.01808 0.96958 0.0
C243 C 0.49429 0.0367 0.93043 0.0
H244 H 0.71046 0.13468 0.13967 0.0
H245 H 0.67301 0.14507 1.05669 0.0
H246 H 0.75021 0.13994 1.04664 0.0
H247 H 0.71461 0.16654 0.7728 0.0
H248 H 0.42851 0.05368 0.71652 0.0
H249 H 0.47677 0.05993 0.7603 0.0
H250 H 0.38947 0.02183 0.82794 0.0
H251 H 0.449 1.00692 1.03799 0.0
C252 C 0.8251 0.93654 0.3098 0.0
C253 C 0.847 0.96722 0.49696 0.0
C254 C 0.82326 0.93619 0.41842 0.0
C255 C 0.87209 0.99843 0.4651 0.0
C256 C 0.85098 0.9671 0.27813 0.0
C257 C 0.87438 0.99781 0.35626 0.0
N258 N 0.80201 0.90644 0.2352 0.0
C259 C 0.805 0.90342 0.129 0.0
C260 C 0.85298 0.96549 0.16882 0.0
C261 C 0.83007 0.9332 0.09415 0.0
Gd262 Gd 0.6944 0.86889 0.27762 0.0
Gd263 Gd 0.76043 0.85755 0.30209 0.0
N264 N 0.79903 0.90484 0.44741 0.0
C265 C 0.84544 0.96521 0.60549 0.0
C266 C 0.7997 0.90082 0.55334 0.0
C267 C 0.82209 0.93138 0.6336 0.0
H268 H 0.78412 0.8736 0.57816 0.0
H269 H 0.82178 0.92822 0.71712 0.0
H270 H 0.65402 0.81413 1.03818 0.0
H271 H 0.78882 0.87766 1.06995 0.0
H272 H 0.60256 0.75849 0.9616 0.0
H273 H 0.86285 0.9885 0.66816 0.0
H274 H 0.89032 0.0226 0.52398 0.0
H275 H 0.68749 0.91184 0.50712 0.0
H276 H 0.87251 0.98836 0.14158 0.0
H277 H 0.83195 0.93079 1.00971 0.0
H278 H 0.55154 0.73288 0.2653 0.0
H279 H 0.89449 0.02122 0.33329 0.0
H280 H 0.60185 0.83145 0.58622 0.0
H281 H 0.65086 0.89538 0.63073 0.0
N282 N 0.66028 0.85661 0.39774 0.0
C283 C 0.63281 0.82262 0.36846 0.0
C284 C 0.66622 0.88369 0.48754 0.0
C285 C 0.61802 0.83823 0.53266 0.0
C286 C 0.64558 0.87445 0.55774 0.0
C287 C 0.61093 0.81244 0.43525 0.0
H288 H 0.56509 0.77002 0.44999 0.0
N289 N 0.64619 0.81452 0.1999 0.0
C290 C 0.62539 0.80098 0.26541 0.0
C291 C 0.58774 0.75319 0.11511 0.0
C292 C 0.59569 0.76938 0.22523 0.0
C293 C 0.6379 0.80111 0.09106 0.0
C294 C 0.60878 0.76971 1.04743 0.0
O295 O 0.76852 0.92016 0.29808 0.0
O296 O 0.73573 0.91883 0.399 0.0
O297 O 0.70943 0.92554 0.22098 0.0
O298 O 0.66355 0.88691 0.23368 0.0
O299 O 0.7404 0.84701 0.47 0.0
O300 O 0.70737 0.86713 0.46675 0.0
O301 O 0.68405 0.80532 0.20349 0.0
O302 O 0.7169 0.79868 0.30873 0.0
O303 O 0.79157 0.84274 0.3685 0.0
O304 O 0.76853 0.81662 0.20596 0.0
O305 O 0.70941 0.86907 0.102 0.0
O306 O 0.74159 0.84762 0.10997 0.0
C307 C 0.76266 0.93906 0.3743 0.0
C308 C 0.7237 0.85661 0.52572 0.0
C309 C 0.68011 0.95503 0.24313 0.0
C310 C 0.66141 0.99931 0.21166 0.0
C311 C 0.68292 1.001 0.39215 0.0
C312 C 0.6887 0.97243 0.35216 0.0
C313 C 0.66905 0.01359 0.3241 0.0
C314 C 0.66661 0.9688 0.17208 0.0
C315 C 0.68303 0.92038 0.20756 0.0
C316 C 0.57441 0.75723 0.29418 0.0
C317 C 0.5821 0.77853 0.3994 0.0
H318 H 0.56505 0.7296 1.08041 0.0
C319 C 0.69156 0.78167 0.24167 0.0
C320 C 0.72546 0.85787 1.04838 0.0
C321 C 0.78288 0.77927 0.30016 0.0
C322 C 0.80212 0.74215 0.3784 0.0
C323 C 0.75346 0.70678 0.26488 0.0
C324 C 0.75703 0.74281 0.24975 0.0
C325 C 0.77576 0.70648 0.32903 0.0
C326 C 0.80553 0.77878 0.36498 0.0
C327 C 0.78663 0.81763 0.28328 0.0
H328 H 0.68886 0.01318 0.4775 0.0
H329 H 0.69925 0.96308 0.40734 0.0
H330 H 0.66404 0.03445 0.36188 0.0
H331 H 0.66027 0.95579 0.0873 0.0
H332 H 0.73315 0.67901 0.22718 0.0
H333 H 0.73945 0.74207 0.19889 0.0
H334 H 0.77239 0.67846 0.34282 0.0
H335 H 0.82563 0.80662 0.40445 0.0
C336 C 0.27898 0.78364 0.59148 0.0
C337 C 0.26108 0.72434 0.45732 0.0
C338 C 0.26219 0.75982 0.49308 0.0
C339 C 0.27598 0.71237 0.52405 0.0
C340 C 0.29477 0.77239 0.65725 0.0
C341 C 0.2927 0.73627 0.62394 0.0
N342 N 0.28126 0.81892 0.62014 0.0
C343 C 0.29953 0.8449 0.71211 0.0
C344 C 0.31289 0.79835 0.75306 0.0
C345 C 0.31553 0.83494 0.77992 0.0
Gd346 Gd 0.18877 0.84044 0.48005 0.0
Gd347 Gd 0.25291 0.8327 0.50365 0.0
N348 N 0.24822 0.77237 0.43001 0.0
C349 C 0.2458 0.70255 0.35422 0.0
C350 C 0.23422 0.75186 0.32758 0.0
C351 C 0.23252 0.71654 0.28886 0.0
H352 H 0.22355 0.76188 0.27593 0.0
H353 H 0.22095 0.70014 0.20851 0.0
H354 H 0.2171 0.9025 0.72735 0.0
H355 H 0.30181 0.87342 0.73255 0.0
H356 H 0.22865 0.96839 0.80682 0.0
H357 H 0.24473 0.67545 0.32328 0.0
H358 H 0.27527 0.68514 0.49819 0.0
H359 H 0.1467 0.81787 0.23713 0.0
H360 H 0.32546 0.79086 0.80554 0.0
H361 H 0.33015 0.85557 0.85221 0.0
H362 H 0.19695 1.01222 0.51985 0.0
H363 H 0.30456 0.72705 0.67362 0.0
H364 H 0.1467 0.92135 0.1849 0.0
H365 H 0.13219 0.85202 0.12011 0.0
N366 N 0.17067 0.8682 0.3652 0.0
C367 C 0.17783 0.90579 0.40397 0.0
C368 C 0.15373 0.84851 0.26549 0.0
C369 C 0.15344 0.90671 0.23626 0.0
C370 C 0.14521 0.86758 0.19937 0.0
C371 C 0.16952 0.9261 0.34006 0.0
H372 H 0.17098 0.98088 0.33388 0.0
N373 N 0.19939 0.90278 0.57067 0.0
C374 C 0.19226 0.92337 0.50968 0.0
C375 C 0.21242 0.97816 0.66053 0.0
C376 C 0.19894 0.96179 0.55291 0.0
C377 C 0.21147 0.91821 0.67733 0.0
C378 C 0.21842 0.95609 0.72317 0.0
O379 O 0.2092 0.77114 0.48978 0.0
O380 O 0.17742 0.77961 0.3855 0.0
O381 O 0.15563 0.79502 0.55835 0.0
O382 O 0.14333 0.82685 0.46311 0.0
O383 O 0.23867 0.83022 0.31344 0.0
O384 O 0.19742 0.83386 0.29647 0.0
O385 O 0.23461 0.90135 0.49716 0.0
O386 O 0.26343 0.89072 0.60893 0.0
O387 O 0.27638 0.87954 0.41212 0.0
O388 O 0.29924 0.85541 0.49334 0.0
O389 O 0.20049 0.83579 0.66669 0.0
O390 O 0.24402 0.83733 0.68715 0.0
C391 C 0.18379 0.75506 0.4235 0.0
C392 C 0.21837 0.8322 0.24782 0.0
C393 C 0.11855 0.80611 0.61035 0.0
C394 C 0.07187 0.78935 0.67329 0.0
C395 C 0.11956 0.83988 0.78374 0.0
C396 C 0.13454 0.83425 0.70555 0.0
C397 C 0.08846 0.81764 0.76779 0.0
C398 C 0.08702 0.78356 0.59421 0.0
C399 C 0.13478 0.80123 0.52709 0.0
C400 C 0.19167 0.98256 0.48812 0.0
C401 C 0.17696 0.96475 0.38212 0.0
H402 H 0.21794 1.00758 0.6964 0.0
C403 C 0.25924 0.9165 0.56818 0.0
C404 C 0.22169 0.83584 0.7337 0.0
C405 C 0.31064 0.87229 0.32358 0.0
C406 C 0.33378 0.89872 0.16983 0.0
C407 C 0.31219 0.82868 0.17834 0.0
C408 C 0.30433 0.83453 0.27758 0.0
C409 C 0.32671 0.86047 0.12443 0.0
C410 C 0.32559 0.90444 0.26975 0.0
C411 C 0.30014 0.87764 0.42411 0.0
H412 H 0.13211 0.86165 0.85694 0.0
H413 H 0.15863 0.85194 0.71938 0.0
H414 H 0.07729 0.82253 0.82944 0.0
H415 H 0.0744 0.76194 0.52064 0.0
H416 H 0.30716 0.79946 0.14334 0.0
H417 H 0.29325 0.80947 0.318 0.0
H418 H 0.33322 0.85538 1.04863 0.0
H419 H 0.33063 0.93369 0.30503 0.0
C420 C 0.15225 0.11072 0.45599 0.0
C421 C 0.16542 0.07586 0.56936 0.0
C422 C 0.1663 0.11062 0.55207 0.0
C423 C 0.15035 0.04153 0.48843 0.0
C424 C 0.13676 0.07614 0.37484 0.0
C425 C 0.13606 0.04168 0.39137 0.0
N426 N 0.15324 0.14441 0.44242 0.0
C427 C 0.13876 0.14533 0.35019 0.0
C428 C 0.12224 0.07713 0.2797 0.0
C429 C 0.12318 0.11187 0.26753 0.0
Gd430 Gd 0.24937 0.29957 0.64258 0.0
Gd431 Gd 0.18083 0.20024 0.58264 0.0
N432 N 0.1806 0.14431 0.62885 0.0
C433 C 0.17961 0.0765 0.66759 0.0
C434 C 0.19415 0.14468 0.72571 0.0
C435 C 0.19398 0.11105 0.74608 0.0
H436 H 0.20632 0.17117 0.78688 0.0
H437 H 0.2052 0.11196 0.82223 0.0
H438 H 0.23795 0.34552 0.45721 0.0
H439 H 0.13969 0.17219 0.33917 0.0
H440 H 0.24081 0.40864 0.44945 0.0
H441 H 0.17957 0.05052 0.68364 0.0
H442 H 0.14941 0.01461 0.50043 0.0
H443 H 0.29448 0.31784 0.87042 0.0
H444 H 0.11014 0.05122 0.21551 0.0
H445 H 0.112 0.11298 0.19433 0.0
H446 H 0.28105 0.48218 0.81146 0.0
H447 H 0.12437 0.0149 0.3299 0.0
H448 H 0.31876 0.43002 1.05508 0.0
H449 H 0.32072 0.36936 1.03566 0.0
N450 N 0.27711 0.34847 0.79893 0.0
C451 C 0.27689 0.38231 0.80605 0.0
C452 C 0.29355 0.34427 0.87825 0.0
C453 C 0.30706 0.40739 0.98283 0.0
C454 C 0.30834 0.3733 0.97196 0.0
C455 C 0.29178 0.41269 0.89829 0.0
H456 H 0.30311 0.47154 0.97166 0.0
N457 N 0.25247 0.35951 0.6264 0.0
C458 C 0.26424 0.38812 0.71646 0.0
C459 C 0.25703 0.43156 0.61919 0.0
C460 C 0.26647 0.42473 0.71584 0.0
C461 C 0.24559 0.36736 0.53007 0.0
C462 C 0.24722 0.40312 0.52535 0.0
O463 O 0.22528 0.19925 0.59256 0.0
O464 O 0.25708 0.25541 0.71483 0.0
O465 O 0.27446 0.28458 0.54177 0.0
O466 O 0.29437 0.34524 0.63199 0.0
O467 O 0.19452 0.21901 0.77789 0.0
O468 O 0.23679 0.28194 0.81662 0.0
O469 O 0.20718 0.30152 0.61375 0.0
O470 O 0.17771 0.24421 0.49273 0.0
O471 O 0.15557 0.22135 0.66589 0.0
O472 O 0.13276 0.16064 0.58242 0.0
O473 O 0.23527 0.28079 0.4462 0.0
O474 O 0.19469 0.21621 0.40723 0.0
C475 C 0.25126 0.22144 0.66051 0.0
C476 C 0.21552 0.25037 0.8542 0.0
C477 C 0.32752 0.32627 0.58534 0.0
C478 C 0.37245 0.34366 0.50854 0.0
C479 C 0.37293 0.34629 0.70206 0.0
C480 C 0.34301 0.3341 0.68844 0.0
C481 C 0.3878 0.35192 0.61358 0.0
C482 C 0.34179 0.32922 0.49627 0.0
C483 C 0.29813 0.32092 0.56792 0.0
C484 C 0.27951 0.45408 0.80986 0.0
C485 C 0.29211 0.44804 0.90106 0.0
H486 H 0.25842 0.45931 0.61524 0.0
C487 C 0.18523 0.28067 0.53187 0.0
C488 C 0.21566 0.24831 0.36942 0.0
C489 C 0.10324 0.19038 0.58665 0.0
C490 C 0.055 0.18795 0.58706 0.0
C491 C 0.07906 0.19793 0.42813 0.0
C492 C 0.10203 0.19587 0.47999 0.0
C493 C 0.05602 0.19408 0.48053 0.0
C494 C 0.07913 0.18621 0.64114 0.0
C495 C 0.12942 0.18792 0.63415 0.0
H496 H 0.38495 0.35299 0.78211 0.0
H497 H 0.33234 0.33203 0.75829 0.0
H498 H 0.41141 0.36377 0.62916 0.0
H499 H 0.32865 0.32109 0.41761 0.0
H500 H 0.07903 0.20238 0.34562 0.0
H501 H 0.11906 0.19838 0.43575 0.0
H502 H 0.03857 0.19571 0.43671 0.0
H503 H 0.07903 0.18143 0.72333 0.0
C504 C 0.44804 0.17529 0.48183 0.0
C505 C 0.4206 0.11598 0.34187 0.0
C506 C 0.42105 0.14222 0.42762 0.0
C507 C 0.44749 0.12307 0.31259 0.0
C508 C 0.4751 0.1828 0.45108 0.0
C509 C 0.47466 0.15641 0.36695 0.0
N510 N 0.44791 0.20015 0.56424 0.0
C511 C 0.47407 0.23415 0.61462 0.0
C512 C 0.50188 0.21678 0.50537 0.0
C513 C 0.50132 0.2427 0.58681 0.0
Gd514 Gd 0.39465 0.17534 0.89518 0.0
Gd515 Gd 0.40054 0.18117 0.60769 0.0
N516 N 0.39524 0.13622 0.45662 0.0
C517 C 0.39311 0.0834 0.28747 0.0
C518 C 0.36832 0.10535 0.40012 0.0
C519 C 0.3669 0.07818 0.31657 0.0
H520 H 0.34775 0.1013 0.4195 0.0
H521 H 0.34558 0.05313 0.27476 0.0
H522 H 0.45385 0.2331 0.08912 0.0
H523 H 0.47446 0.25473 0.67752 0.0
H524 H 0.4675 0.28043 0.25928 0.0
H525 H 0.39189 0.06236 0.22226 0.0
H526 H 0.4475 0.10313 0.24727 0.0
H527 H 0.31936 0.12381 0.83891 0.0
H528 H 0.52308 0.2235 0.48424 0.0
H529 H 0.52191 0.26935 0.62845 0.0
H530 H 0.37843 0.27966 0.29327 0.0
H531 H 0.49523 0.16167 0.3428 0.0
H532 H 0.29111 0.1887 1.03226 0.0
H533 H 0.27934 0.13336 0.88693 0.0
N534 N 0.35365 0.17573 0.94826 0.0
C535 C 0.36017 0.20421 1.03396 0.0
C536 C 0.32465 0.14815 0.90205 0.0
C537 C 0.30875 0.1849 1.01061 0.0
C538 C 0.302 0.15355 0.92874 0.0
C539 C 0.3378 0.20936 1.06807 0.0
H540 H 0.32803 0.24214 0.18765 0.0
N541 N 0.40981 0.22041 1.05711 0.0
C542 C 0.389 0.2268 0.09108 0.0
C543 C 0.42443 0.27311 0.2477 0.0
C544 C 0.39584 0.2537 0.18673 0.0
C545 C 0.43772 0.23917 0.11602 0.0
C546 C 0.44545 0.26581 0.21219 0.0
O547 O 0.43117 0.16195 0.68767 0.0
O548 O 0.44081 0.18684 0.86801 0.0
O549 O 0.39308 0.15549 1.04807 0.0
O550 O 0.38988 0.11839 0.90193 0.0
O551 O 0.3611 0.117 0.60981 0.0
O552 O 0.36101 0.11309 0.7885 0.0
O553 O 0.36925 0.20102 0.80919 0.0
O554 O 0.35368 0.16417 0.64181 0.0
O555 O 0.39501 0.19225 0.44664 0.0
O556 O 0.39641 0.2311 0.58352 0.0
O557 O 0.43825 0.23537 0.89152 0.0
O558 O 0.42841 0.24384 0.72097 0.0
C559 C 0.44738 0.17146 0.7845 0.0
C560 C 0.35092 0.0956 0.68599 0.0
C561 C 0.35937 0.08523 1.02732 0.0
C562 C 0.31059 0.05544 0.08498 0.0
C563 C 0.32966 0.01421 1.03113 0.0
C564 C 0.3557 0.04761 1.0117 0.0
C565 C 0.30725 0.01806 1.06847 0.0
C566 C 0.33664 0.08879 1.06371 0.0
C567 C 0.38647 0.12023 1.0029 0.0
C568 C 0.37373 0.25938 0.21995 0.0
C569 C 0.34491 0.23776 0.15997 0.0
H570 H 0.4303 0.29305 0.32338 0.0
C571 C 0.34998 0.18604 0.71738 0.0
C572 C 0.44355 0.25927 0.82078 0.0
C573 C 0.35876 0.20932 0.43417 0.0
C574 C 0.30783 0.15898 0.34394 0.0
C575 C 0.32036 0.2247 0.42535 0.0
C576 C 0.3498 0.23604 0.46038 0.0
C577 C 0.29935 0.18626 0.36701 0.0
C578 C 0.33769 0.17139 0.37385 0.0
C579 C 0.38858 0.21848 0.47965 0.0
H580 H 0.32699 0.98533 1.01876 0.0
H581 H 0.37291 0.04411 0.98393 0.0
H582 H 0.28772 0.99224 0.08675 0.0
H583 H 0.33967 0.11792 1.07988 0.0
H584 H 0.31357 0.24537 0.44552 0.0
H585 H 0.36541 0.26532 0.50865 0.0
H586 H 0.27662 0.17769 0.34183 0.0
H587 H 0.34437 0.15083 0.35037 0.0
C588 C 0.95422 0.13381 0.86711 0.0
C589 C 0.99822 0.19169 0.97884 0.0
C590 C 0.96779 0.17143 0.93168 0.0
C591 C 0.01492 0.17494 0.95553 0.0
C592 C 0.97074 0.11613 0.84825 0.0
C593 C 1.00119 0.13718 0.89099 0.0
N594 N 0.92495 0.11451 0.82205 0.0
C595 C 0.91063 0.07673 0.76191 0.0
C596 C 0.95627 0.07778 0.7862 0.0
C597 C 0.92609 0.0579 0.74378 0.0
Gd598 Gd 0.89752 0.20734 0.64824 0.0
Gd599 Gd 0.90055 0.14826 0.8617 0.0
N600 N 0.95103 0.18696 0.95445 0.0
C601 C 0.01076 0.22738 1.05236 0.0
C602 C 0.9625 0.21879 1.03792 0.0
C603 C 0.99256 0.24033 0.08439 0.0
H604 H 0.94848 0.22725 1.07251 0.0
H605 H 1.00142 0.26625 0.14731 0.0
H606 H 0.86142 0.14561 0.4065 0.0
H607 H 0.8873 0.06149 0.72768 0.0
H608 H 0.81392 0.11824 0.28624 0.0
H609 H 0.03397 0.24377 0.08987 0.0
H610 H 0.03831 0.1904 0.99002 0.0
H611 H 0.90838 0.28745 0.81584 0.0
H612 H 0.96822 0.06325 0.77054 0.0
H613 H 0.91493 0.02815 0.69659 0.0
H614 H 0.77202 0.18769 0.44493 0.0
H615 H 0.01426 0.12429 0.87562 0.0
H616 H 0.83242 0.29526 0.74077 0.0
H617 H 0.88215 0.32239 0.84598 0.0
N618 N 0.87352 0.24074 0.69483 0.0
C619 C 0.84707 0.22685 0.63062 0.0
C620 C 0.88667 0.27549 0.76909 0.0
C621 C 0.84385 0.27992 0.72656 0.0
C622 C 0.87192 0.29532 0.7864 0.0
C623 C 0.8312 0.24561 0.64701 0.0
H624 H 0.79103 0.24405 0.59441 0.0
N625 N 0.8534 0.1797 0.52387 0.0
C626 C 0.83644 0.195 0.54495 0.0
C627 C 0.80087 0.15219 0.38409 0.0
C628 C 0.80955 0.18127 0.47568 0.0
C629 C 0.84633 0.15421 0.42922 0.0
C630 C 0.81967 0.13921 0.35968 0.0
O631 O 0.92201 0.14608 0.71258 0.0
O632 O 0.94005 0.20574 0.66146 0.0
O633 O 0.90908 0.22517 0.49586 0.0
O634 O 0.92501 0.27022 0.63979 0.0
O635 O 0.91802 0.21645 0.91864 0.0
O636 O 0.93873 0.24074 0.77553 0.0
O637 O 0.87093 0.2021 0.78608 0.0
O638 O 0.85445 0.1408 0.8237 0.0
O639 O 0.88549 0.14115 1.01503 0.0
O640 O 0.8864 0.09354 0.92506 0.0
O641 O 0.8738 0.13758 0.5813 0.0
O642 O 0.861 0.10661 0.7284 0.0
C643 C 0.94368 0.17681 0.67952 0.0
C644 C 0.93807 0.24723 0.87781 0.0
C645 C 0.91553 0.28788 0.47777 0.0
C646 C 0.90279 0.27722 0.29054 0.0
C647 C 0.94093 0.3436 0.38574 0.0
C648 C 0.93844 0.32777 0.48019 0.0
C649 C 0.92344 0.3176 0.28863 0.0
C650 C 0.89289 0.26865 0.38837 0.0
C651 C 0.92237 0.26322 0.53628 0.0
C652 C 0.79284 0.19823 0.49666 0.0
C653 C 0.8037 0.2304 0.5817 0.0
H654 H 0.78042 0.14097 0.3291 0.0
C655 C 0.84927 0.16891 0.80967 0.0
C656 C 0.85699 0.10483 0.62341 0.0
C657 C 0.89627 0.10282 0.11359 0.0
C658 C 0.92117 0.1514 0.27225 0.0
C659 C 0.88465 0.08314 0.28468 0.0
C660 C 0.87845 0.07368 0.17201 0.0
C661 C 0.90489 0.123 0.33538 0.0
C662 C 0.92256 0.13692 0.16942 0.0
C663 C 0.88233 0.10668 1.01508 0.0
H664 H 0.95884 0.37388 0.38507 0.0
H665 H 0.95588 0.34478 0.54968 0.0
H666 H 0.92913 0.32694 0.21312 0.0
H667 H 0.8745 0.23868 0.38958 0.0
H668 H 0.87104 0.06129 0.33086 0.0
H669 H 0.85847 0.04583 0.13198 0.0
H670 H 0.90463 0.13235 0.41854 0.0
H671 H 0.93668 0.15825 0.12381 0.0
C672 C 0.81471 0.58423 0.65298 0.0
C673 C 0.7994 0.5878 0.47253 0.0
C674 C 0.82189 0.59925 0.56029 0.0
C675 C 0.76932 0.56333 0.48348 0.0
C676 C 0.78475 0.55724 0.66194 0.0
C677 C 0.76199 0.54806 0.57829 0.0
N678 N 0.83734 0.59293 0.72993 0.0
C679 C 0.8318 0.57261 0.8132 0.0
C680 C 0.77875 0.53883 0.75203 0.0
C681 C 0.80243 0.54585 0.82674 0.0
Gd682 Gd 0.9245 0.75473 0.88984 0.0
Gd683 Gd 0.88591 0.6426 0.71039 0.0
N684 N 0.85112 0.62183 0.55239 0.0
C685 C 0.80789 0.59961 0.37509 0.0
C686 C 0.85952 0.63091 0.45552 0.0
C687 C 0.83809 0.62057 0.36593 0.0
H688 H 0.88289 0.64743 0.44857 0.0
H689 H 0.84487 0.62887 0.2901 0.0
H690 H 0.99574 0.788 0.96823 0.0
H691 H 0.85011 0.57819 0.87132 0.0
H692 H 0.04516 0.83615 0.92479 0.0
H693 H 0.79131 0.59128 0.30551 0.0
H694 H 0.75165 0.5547 0.41765 0.0
H695 H 0.88309 0.79294 0.83537 0.0
H696 H 0.75604 0.51796 0.76228 0.0
H697 H 0.7981 0.53083 0.8949 0.0
H698 H 0.02382 0.90135 0.66947 0.0
H699 H 0.73878 0.52787 0.58417 0.0
H700 H 0.92597 0.87903 0.63368 0.0
H701 H 0.88283 0.83952 0.72371 0.0
N702 N 0.92437 0.80303 0.7993 0.0
C703 C 0.94919 0.82695 0.75863 0.0
C704 C 0.90162 0.80936 0.79392 0.0
C705 C 0.92586 0.85804 0.68056 0.0
C706 C 0.90153 0.83592 0.73159 0.0
C707 C 0.95063 0.85486 0.69723 0.0
H708 H 0.97878 0.90146 0.61172 0.0
N709 N 0.97229 0.80232 0.85842 0.0
C710 C 0.97429 0.82687 0.79045 0.0
C711 C 0.02755 0.85725 0.80954 0.0
C712 C 1.00186 0.85473 0.76277 0.0
C713 C 0.99744 0.8064 0.90981 0.0
C714 C 0.02538 0.83352 0.88518 0.0
O715 O 0.87086 0.65365 0.86569 0.0
O716 O 0.87415 0.71313 0.87745 0.0
O717 O 0.91286 0.74902 1.04875 0.0
O718 O 0.94399 0.80738 1.0164 0.0
O719 O 0.88773 0.69185 0.62823 0.0
O720 O 0.88452 0.73239 0.76232 0.0
O721 O 0.95065 0.7317 0.81418 0.0
O722 O 0.92397 0.69395 0.65058 0.0
O723 O 0.9213 0.63168 0.73375 0.0
O724 O 0.88071 0.58821 0.62583 0.0
O725 O 0.94259 0.71644 0.93202 0.0
O726 O 0.90199 0.65214 0.88952 0.0
C727 C 0.85906 0.6749 0.88266 0.0
C728 C 0.87848 0.71537 0.66108 0.0
C729 C 0.95416 0.79301 0.1826 0.0
C730 C 0.97649 0.76536 0.288 0.0
C731 C 0.98688 0.83179 0.35193 0.0
C732 C 0.96805 0.82771 0.26143 0.0
C733 C 0.99082 0.80061 0.36597 0.0
C734 C 0.95992 0.76333 0.19396 0.0
C735 C 0.93277 0.78629 0.08988 0.0
C736 C 1.00299 0.88029 0.69371 0.0
C737 C 0.97733 0.88029 0.66069 0.0
H738 H 0.04922 0.87831 0.79072 0.0
C739 C 0.94941 0.72153 0.71135 0.0
C740 C 0.92943 0.67833 0.93953 0.0
C741 C 0.92584 0.59764 0.58414 0.0
C742 C 0.95537 0.62871 0.44811 0.0
C743 C 0.95758 0.5766 0.5181 0.0
C744 C 0.93726 0.57327 0.58583 0.0
C745 C 0.96703 0.60467 0.45019 0.0
C746 C 0.93458 0.62466 0.51405 0.0
C747 C 0.90774 0.59883 0.66317 0.0
H748 H 0.99755 0.8585 0.41325 0.0
H749 H 0.96415 0.85126 0.25348 0.0
H750 H 1.00397 0.80357 0.43946 0.0
H751 H 0.94985 0.73713 0.13175 0.0
H752 H 0.96636 0.55788 0.51959 0.0
H753 H 0.93097 0.55241 0.64065 0.0
H754 H 0.9831 0.6074 0.3995 0.0
H755 H 0.92599 0.64379 0.5136 0.0
C756 C 0.04688 0.4953 0.76966 0.0
C757 C 0.06767 0.49214 0.84209 0.0
H758 H 0.02978 0.49831 0.60996 0.0
C759 C 0.0885 0.48976 0.77985 0.0
H760 H 0.02974 0.49732 0.80394 0.0
C761 C 0.08851 0.49038 0.66264 0.0
C762 C 0.06776 0.49363 0.59024 0.0
H763 H 0.10563 0.48736 0.82252 0.0
H764 H 0.1056 0.48826 0.62829 0.0
C765 C 0.04693 0.496 0.65254 0.0
C766 C 0.55795 0.52495 0.57319 0.0
C767 C 0.57822 0.52128 0.64676 0.0
H768 H 0.542 0.5288 0.41242 0.0
C769 C 0.59934 0.51872 0.58714 0.0
H770 H 0.5407 0.52711 0.60604 0.0
C771 C 0.60005 0.5196 0.4706 0.0
C772 C 0.57988 0.52345 0.39708 0.0
H773 H 0.616 0.51575 0.6313 0.0
H774 H 0.61716 0.51713 0.43777 0.0
C775 C 0.55876 0.52604 0.45673 0.0
C776 C 0.60027 0.13591 0.46758 0.0
C777 C 0.57825 0.10361 0.51448 0.0
H778 H 0.61832 0.16288 0.32827 0.0
C779 C 0.55622 0.07198 0.42782 0.0
H780 H 0.61832 0.16192 0.52258 0.0
C781 C 0.55621 0.07255 0.31095 0.0
C782 C 0.57822 0.10487 0.26408 0.0
H783 H 0.5382 0.04557 0.45017 0.0
H784 H 0.53818 0.04652 0.25593 0.0
C785 C 0.60026 0.1365 0.35069 0.0
C786 C 0.70873 0.86902 0.72814 0.0
C787 C 0.72373 0.85611 0.65962 0.0
H788 H 0.69678 0.87992 0.88487 0.0
C789 C 0.73929 0.84345 0.72749 0.0
H790 H 0.69614 0.87968 0.69025 0.0
C791 C 0.7399 0.8439 0.84558 0.0
C792 C 0.72487 0.85682 0.91391 0.0
H793 H 0.75153 0.8325 0.68878 0.0
H794 H 0.75269 0.83354 0.88387 0.0
C795 C 0.7092 0.86926 0.84601 0.0
C796 C 0.24241 0.83441 0.9412 0.0
C797 C 0.22078 0.8349 0.86575 0.0
H798 H 0.25942 0.83312 0.10341 0.0
C799 C 0.19828 0.83427 0.92361 0.0
H800 H 0.26081 0.83489 0.90998 0.0
C801 C 0.19752 0.83331 1.04013 0.0
C802 C 0.21906 0.83263 0.11549 0.0
H803 H 0.18046 0.83458 0.87802 0.0
H804 H 0.17923 0.83309 1.07145 0.0
C805 C 0.24158 0.83331 1.05765 0.0
C806 C 0.23671 0.28235 1.07315 0.0
C807 C 0.21557 0.24983 0.98658 0.0
H808 H 0.25403 0.30865 0.245 0.0
C809 C 0.19449 0.21676 1.03363 0.0
H810 H 0.25396 0.30941 1.05068 0.0
C811 C 0.19454 0.21628 0.15058 0.0
C812 C 0.21567 0.24883 0.2371 0.0
H813 H 0.17719 0.19002 0.97872 0.0
H814 H 0.17726 0.18925 0.17311 0.0
C815 C 0.23674 0.28191 0.19008 0.0
C816 C 0.27895 0.11358 0.17174 0.0
C817 C 0.28726 0.11802 0.28225 0.0
H818 H 0.27883 0.08655 1.01549 0.0
C819 C 0.28801 0.08698 0.32057 0.0
H820 H 0.27624 0.13568 0.14092 0.0
C821 C 0.28979 0.05926 0.24956 0.0
C822 C 0.29007 0.06237 0.14069 0.0
H823 H 0.29324 0.08903 0.40617 0.0
H824 H 0.29597 0.04037 0.28247 0.0
C825 C 0.28051 0.08569 0.10041 0.0
C826 C 0.88497 0.20753 0.21589 0.0
C827 C 0.90897 0.24736 0.24284 0.0
H828 H 0.86989 0.14672 0.21691 0.0
C829 C 0.93799 0.25533 0.2717 0.0
H830 H 0.86246 0.20041 0.19418 0.0
C831 C 0.9422 0.22453 0.28704 0.0
C832 C 0.91756 0.18541 0.27346 0.0
H833 H 0.95714 0.28571 0.29299 0.0
H834 H 0.96451 0.23125 0.31078 0.0
C835 C 0.8891 0.17712 0.23422 0.0
C836 C 0.99265 0.69529 0.41037 0.0
C837 C 0.96466 0.65945 0.38143 0.0
H838 H 0.01909 0.75723 0.39911 0.0
C839 C 0.94257 0.65724 0.30891 0.0
H840 H 0.00992 0.69741 0.46686 0.0
C841 C 0.94712 0.69135 0.27491 0.0
C842 C 0.97434 0.72838 0.30984 0.0
H843 H 0.92067 0.62993 0.28708 0.0
H844 H 0.92826 0.68885 0.2277 0.0
C845 C 0.99763 0.72953 0.3734 0.0
C846 C 0.1497 0.27754 0.38016 0.0
C847 C 0.16967 0.29854 0.47737 0.0
H848 H 0.1186 0.27303 0.25645 0.0
C849 C 0.1743 0.33612 0.51833 0.0
H850 H 0.14547 0.24892 0.3436 0.0
C851 C 0.16032 0.35239 0.46162 0.0
C852 C 0.14034 0.33117 0.36307 0.0
H853 H 0.1891 0.35336 0.59377 0.0
H854 H 0.1656 0.38185 0.49494 0.0
C855 C 0.13475 0.29261 0.32696 0.0
C856 C 0.66082 0.66618 0.21506 0.0
C857 C 0.63478 0.64652 0.13532 0.0
H858 H 0.69791 0.72158 0.31154 0.0
C859 C 0.62792 0.67258 0.09242 0.0
H860 H 0.66757 0.64848 0.25185 0.0
C861 C 0.64582 0.71513 0.12596 0.0
C862 C 0.67177 0.73495 0.20582 0.0
H863 H 0.60845 0.66004 1.0311 0.0
H864 H 0.63925 0.73258 0.08761 0.0
C865 C 0.67858 0.7089 0.24957 0.0
C866 C 0.39836 0.99477 0.11609 0.0
C867 C 0.39245 0.98876 1.00325 0.0
H868 H 0.38406 0.9709 0.2579 0.0
C869 C 0.36469 0.9564 0.9481 0.0
H870 H 0.4194 0.01986 0.1607 0.0
C871 C 0.34443 0.9286 1.00384 0.0
C872 C 0.35159 0.93263 0.11539 0.0
H873 H 0.35941 0.95108 0.86123 0.0
H874 H 0.32369 0.90295 0.95926 0.0
C875 C 0.37806 0.96696 0.17178 0.0
C876 C 0.50271 0.13641 0.72707 0.0
C877 C 0.52235 0.14835 0.82599 0.0
H878 H 0.46537 0.13356 0.63605 0.0
C879 C 0.51733 0.16958 0.91058 0.0
H880 H 0.50496 0.11999 0.65855 0.0
C881 C 0.49377 0.17714 0.8977 0.0
C882 C 0.47382 0.16452 0.79891 0.0
H883 H 0.53113 0.17947 0.9888 0.0
H884 H 0.49108 0.19284 0.96665 0.0
C885 C 0.47946 0.14428 0.71389 0.0
C886 C 0.95824 0.30562 1.04239 0.0
C887 C 0.96194 0.28909 0.94483 0.0
H888 H 0.97614 0.3565 0.1723 0.0
C889 C 0.98908 0.31424 0.90788 0.0
H890 H 0.93792 0.28818 1.07401 0.0
C891 C 0.01114 0.35353 0.96462 0.0
C892 C 1.00716 0.37043 1.06087 0.0
H893 H 0.99342 0.30348 0.83376 0.0
H894 H 0.03117 0.3711 0.93118 0.0
C895 C 0.98023 0.34524 0.09859 0.0
C896 C 0.80891 0.66567 0.88854 0.0
C897 C 0.83022 0.6571 0.92297 0.0
H898 H 0.76583 0.65624 0.90081 0.0
C899 C 0.82366 0.63095 0.996 0.0
H900 H 0.81333 0.68554 0.83173 0.0
C901 C 0.79668 0.61435 1.0355 0.0
C902 C 0.77539 0.62313 1.00216 0.0
H903 H 0.8397 0.62393 1.02436 0.0
H904 H 0.79261 0.59496 0.09349 0.0
C905 C 0.78161 0.64852 0.92694 0.0
C906 C 0.93581 0.62417 0.99835 0.0
C907 C 0.94769 0.66464 0.99287 0.0
H908 H 0.94367 0.58078 1.05097 0.0
C909 C 0.97801 0.69232 1.03561 0.0
H910 H 0.91265 0.60185 0.96581 0.0
C911 C 0.99576 0.68022 0.08327 0.0
C912 C 0.98396 0.63992 0.09034 0.0
H913 H 0.98825 0.72366 1.03237 0.0
H914 H 0.01896 0.70274 0.1146 0.0
C915 C 0.95372 0.61197 1.04625 0.0
C916 C 0.49331 0.37448 0.81181 0.0
C917 C 0.51426 0.39207 0.90891 0.0
H918 H 0.45598 0.32143 0.7084 0.0
C919 C 0.51163 0.36465 0.97588 0.0
H920 H 0.49394 0.3934 0.75641 0.0
C921 C 0.48913 0.32267 0.94878 0.0
C922 C 0.46811 0.30508 0.85171 0.0
H923 H 0.52685 0.37579 1.05125 0.0
H924 H 0.4884 0.30383 1.00458 0.0
C925 C 0.47115 0.33245 0.78388 0.0
C926 C 0.81794 0.19845 0.85868 0.0
C927 C 0.81953 0.16467 0.82662 0.0
H928 H 0.79125 0.2221 0.90242 0.0
C929 C 0.79218 0.12726 0.8098 0.0
H930 H 0.83821 0.22772 0.87735 0.0
C931 C 0.76486 0.12397 0.82509 0.0
C932 C 0.76329 0.15789 0.85626 0.0
H933 H 0.79187 0.10023 0.78581 0.0
H934 H 0.74491 0.09445 0.81618 0.0
C935 C 0.79064 0.19522 0.87276 0.0
C936 C 0.63978 0.0713 0.12413 0.0
C937 C 0.62059 0.05101 1.02497 0.0
H938 H 0.66939 0.07421 0.25154 0.0
C939 C 0.61573 0.01335 0.98357 0.0
H940 H 0.64411 0.09995 0.16101 0.0
C941 C 0.62896 0.99644 1.04137 0.0
C942 C 0.64814 0.01702 0.14166 0.0
H943 H 0.60136 0.99661 0.90704 0.0
H944 H 0.62367 0.96696 1.00799 0.0
C945 C 0.65385 0.05549 0.17879 0.0
C946 C 0.17148 0.68307 0.42692 0.0
C947 C 0.16336 0.70864 0.38898 0.0
H948 H 0.16071 0.62331 0.43049 0.0
C949 C 0.13556 0.68863 0.31881 0.0
H950 H 0.19227 0.696 0.48144 0.0
C951 C 0.11716 0.6459 0.28912 0.0
C952 C 0.12536 0.62038 0.32706 0.0
H953 H 0.12784 0.70604 0.28628 0.0
H954 H 0.09652 0.63277 0.23382 0.0
C955 C 0.1532 0.64049 0.39647 0.0
C956 C 0.39023 0.36451 0.22903 0.0
C957 C 0.41772 0.36817 0.23242 0.0
H958 H 0.35586 0.35756 0.31316 0.0
C959 C 0.43072 0.36405 0.32616 0.0
H960 H 0.38035 0.36896 0.15845 0.0
C961 C 0.41586 0.35505 0.41464 0.0
C962 C 0.38823 0.35183 0.41295 0.0
H963 H 0.45226 0.36742 0.33044 0.0
H964 H 0.42613 0.35031 0.4832 0.0
C965 C 0.37602 0.35739 0.3186 0.0
C966 C 0.85973 0.71874 0.47404 0.0
C967 C 0.85974 0.72285 0.58563 0.0
H968 H 0.84145 0.72181 0.32041 0.0
C969 C 0.84182 0.73553 0.62742 0.0
H970 H 0.87348 0.70963 0.43899 0.0
C971 C 0.82472 0.74425 0.56066 0.0
C972 C 0.82443 0.73972 0.44951 0.0
H973 H 0.84055 0.73819 0.71233 0.0
H974 H 0.81076 0.75307 0.59554 0.0
C975 C 0.84189 0.72653 0.40647 0.0
C976 C 0.32594 0.02259 0.72069 0.0
C977 C 0.32695 0.04977 0.65595 0.0
H978 H 0.30557 0.96157 0.74569 0.0
C979 C 0.30502 0.03188 0.56159 0.0
H980 H 0.34237 0.03396 0.79247 0.0
C981 C 0.28316 0.98974 0.53501 0.0
C982 C 0.28242 0.96253 0.59927 0.0
H983 H 0.30447 0.05064 0.50805 0.0
H984 H 0.26695 0.97835 0.46219 0.0
C985 C 0.30463 0.98036 0.69281 0.0
C986 C 0.97273 0.14493 0.6196 0.0
C987 C 0.97258 0.17899 0.66206 0.0
H988 H 0.99825 0.12052 0.5667 0.0
C989 C 1.00075 0.21532 0.69027 0.0
H990 H 0.9518 0.11644 0.59503 0.0
C991 C 0.02769 0.21753 0.67576 0.0
C992 C 0.02788 0.18351 0.63278 0.0
H993 H 1.00202 0.24239 0.72333 0.0
H994 H 0.04843 0.24646 0.69407 0.0
C995 C 0.99966 0.14718 0.60473 0.0
C996 C 0.29756 0.16974 0.62356 0.0
C997 C 0.32405 0.19396 0.70163 0.0
H998 H 0.25477 0.15783 0.54923 0.0
C999 C 0.32513 0.22621 0.76649 0.0
H1000 H 0.29481 0.14431 0.5714 0.0
C1001 C 0.30193 0.23416 0.75327 0.0
C1002 C 0.2755 0.21031 0.67495 0.0
H1003 H 0.34439 0.24601 0.82829 0.0
H1004 H 0.30493 0.2597 0.80581 0.0
C1005 C 0.27406 0.17752 0.61093 0.0
C1006 C 0.80516 0.0138 0.38291 0.0
C1007 C 0.78652 0.98205 0.43522 0.0
H1008 H 0.83934 0.07651 0.39617 0.0
C1009 C 0.79121 0.99206 0.54858 0.0
H1010 H 0.80256 1.00826 0.296 0.0
C1011 C 0.81374 0.03094 0.60649 0.0
C1012 C 0.83247 0.06305 0.55506 0.0
H1013 H 0.77784 0.96926 0.59365 0.0
H1014 H 0.81629 0.03575 0.69339 0.0
C1015 C 0.82686 0.05342 0.4411 0.0
C1016 C 0.99329 0.767 0.63058 0.0
C1017 C 0.97786 0.73247 0.6748 0.0
H1018 H 0.03571 0.81265 0.59775 0.0
C1019 C 0.9928 0.71419 0.70685 0.0
H1020 H 0.9824 0.78203 0.60753 0.0
C1021 C 0.02298 0.73107 0.69863 0.0
C1022 C 0.03884 0.76684 0.6597 0.0
H1023 H 0.98161 0.68814 0.74403 0.0
H1024 H 0.03438 0.71749 0.72852 0.0
C1025 C 0.02366 0.7844 0.62472 0.0
loop_
_geom_bond_atom_site_label_1
_geom_bond_atom_site_label_2
_geom_bond_distance
_geom_bond_site_symmetry_2
_ccdc_geom_bond_type
C0 C2 1.422 . S
C0 C4 1.415 . S
C0 N6 1.369 . S
C1 C2 1.421 . S
C1 C3 1.417 . S
C1 C13 1.422 . S
C2 C0 1.422 . S
C2 C1 1.421 . S
C2 N12 1.359 . S
C3 C1 1.417 . S
C3 C5 1.329 . S
C3 H22 0.930 . S
C4 C0 1.415 . S
C4 C5 1.437 . S
C4 C8 1.413 . S
C5 C3 1.329 . S
C5 C4 1.437 . S
C5 H27 0.929 . S
N6 C0 1.369 . S
N6 C7 1.338 . S
N6 Gd11 2.622 . S
C7 N6 1.338 . S
C7 C9 1.378 1_554 S
C7 H19 0.929 1_554 S
C8 C4 1.413 . S
C8 C9 1.348 1_554 S
C8 H24 0.931 . S
C9 C7 1.378 1_556 S
C9 C8 1.348 1_556 S
C9 H25 0.930 . S
Gd10 N30 2.622 . S
Gd10 N37 2.570 . S
Gd10 O44 2.353 1_655 S
Gd10 O45 2.468 . S
Gd10 O46 2.427 . S
Gd10 O48 2.388 1_655 S
Gd10 O49 2.386 . S
Gd10 O53 2.307 1_655 S
Gd10 C63 2.805 . S
Gd11 N6 2.622 . S
Gd11 N12 2.570 . S
Gd11 O43 2.386 . S
Gd11 O47 2.307 . S
Gd11 O50 2.353 . S
Gd11 O51 2.468 . S
Gd11 O52 2.427 . S
Gd11 O54 2.388 1_554 S
Gd11 C75 2.805 . S
N12 C2 1.359 . S
N12 Gd11 2.570 . S
N12 C14 1.343 . S
C13 C1 1.422 . S
C13 C15 1.321 . S
C13 H21 0.931 . S
C14 N12 1.343 . S
C14 C15 1.390 . S
C14 H16 0.931 . S
C15 C13 1.321 . S
C15 C14 1.390 . S
C15 H17 0.930 . S
H16 C14 0.931 . S
H17 C15 0.930 . S
H18 C41 0.931 . S
H19 C7 0.929 1_556 S
H20 C42 0.930 . S
H21 C13 0.931 . S
H22 C3 0.930 . S
H23 C32 0.929 . S
H24 C8 0.931 . S
H25 C9 0.930 . S
H26 C64 0.930 . S
H27 C5 0.929 . S
H28 C33 0.931 . S
H29 C34 0.930 . S
N30 Gd10 2.622 . S
N30 C31 1.369 . S
N30 C32 1.338 . S
C31 N30 1.369 . S
C31 C35 1.415 . S
C31 C38 1.422 . S
C32 H23 0.929 . S
C32 N30 1.338 . S
C32 C34 1.378 . S
C33 H28 0.931 . S
C33 C34 1.348 . S
C33 C35 1.413 . S
C34 H29 0.930 . S
C34 C32 1.378 . S
C34 C33 1.348 . S
C35 C31 1.415 . S
C35 C33 1.413 . S
C35 C65 1.437 . S
H36 C65 0.929 . S
N37 Gd10 2.570 . S
N37 C38 1.359 . S
N37 C41 1.343 1_554 S
C38 C31 1.422 . S
C38 N37 1.359 . S
C38 C40 1.421 1_554 S
C39 C40 1.422 . S
C39 C42 1.321 . S
C39 H66 0.931 . S
C40 C38 1.421 1_556 S
C40 C39 1.422 . S
C40 C64 1.417 . S
C41 H18 0.931 . S
C41 N37 1.343 1_556 S
C41 C42 1.390 . S
C42 H20 0.930 . S
C42 C39 1.321 . S
C42 C41 1.390 . S
O43 Gd11 2.386 . S
O43 C55 1.265 . S
O44 Gd10 2.353 1_455 S
O44 C55 1.242 . S
O45 Gd10 2.468 . S
O45 C63 1.263 . S
O46 Gd10 2.427 . S
O46 C63 1.252 . S
O47 Gd11 2.307 . S
O47 C56 1.261 . S
O48 Gd10 2.388 1_455 S
O48 C56 1.252 . S
O49 Gd10 2.386 . S
O49 C67 1.265 . S
O50 Gd11 2.353 . S
O50 C67 1.242 1_455 S
O51 Gd11 2.468 . S
O51 C75 1.263 . S
O52 Gd11 2.427 . S
O52 C75 1.252 . S
O53 Gd10 2.307 1_455 S
O53 C68 1.261 1_554 S
O54 Gd11 2.388 1_556 S
O54 C68 1.252 . S
C55 O43 1.265 . S
C55 O44 1.242 . S
C56 O47 1.261 . S
C56 O48 1.252 . S
C57 C60 1.394 . S
C57 C62 1.370 . S
C57 C63 1.500 . S
C58 C61 1.383 1_556 S
C58 C62 1.395 1_556 S
C59 C60 1.396 . S
C59 C61 1.365 . S
C59 H76 0.929 . S
C60 C57 1.394 . S
C60 C59 1.396 . S
C60 H77 0.930 . S
C61 C58 1.383 1_554 S
C61 C59 1.365 . S
C61 H78 0.931 . S
C62 C57 1.370 . S
C62 C58 1.395 1_554 S
C62 H79 0.930 1_554 S
C63 Gd10 2.805 . S
C63 O45 1.263 . S
C63 O46 1.252 . S
C63 C57 1.500 . S
C64 H26 0.930 . S
C64 C40 1.417 . S
C64 C65 1.329 1_556 S
C65 C35 1.437 . S
C65 H36 0.929 . S
C65 C64 1.329 1_554 S
H66 C39 0.931 . S
C67 O49 1.265 . S
C67 O50 1.242 1_655 S
C68 O53 1.261 1_556 S
C68 O54 1.252 . S
C69 C72 1.394 . S
C69 C74 1.370 . S
C69 C75 1.500 . S
C70 C73 1.383 . S
C70 C74 1.395 . S
C71 C72 1.396 . S
C71 C73 1.365 . S
C71 H80 0.929 . S
C72 C69 1.394 . S
C72 C71 1.396 . S
C72 H81 0.930 . S
C73 C70 1.383 . S
C73 C71 1.365 . S
C73 H82 0.931 . S
C74 C69 1.370 . S
C74 C70 1.395 . S
C74 H83 0.930 . S
C75 Gd11 2.805 . S
C75 O51 1.263 . S
C75 O52 1.252 . S
C75 C69 1.500 . S
H76 C59 0.929 . S
H77 C60 0.930 . S
H78 C61 0.931 . S
H79 C62 0.930 1_556 S
H80 C71 0.929 . S
H81 C72 0.930 . S
H82 C73 0.931 . S
H83 C74 0.930 . S
C84 C86 1.422 . S
C84 C88 1.415 . S
C84 N90 1.369 . S
C85 C86 1.421 1_556 S
C85 C87 1.417 . S
C85 C97 1.422 . S
C86 C84 1.422 . S
C86 C85 1.421 1_554 S
C86 N96 1.359 1_554 S
C87 C85 1.417 . S
C87 C89 1.329 1_556 S
C87 H106 0.930 . S
C88 C84 1.415 . S
C88 C89 1.437 . S
C88 C92 1.413 . S
C89 C87 1.329 1_554 S
C89 C88 1.437 . S
C89 H111 0.929 . S
N90 C84 1.369 . S
N90 C91 1.338 . S
N90 Gd95 2.622 . S
C91 N90 1.338 . S
C91 C93 1.378 . S
C91 H103 0.929 . S
C92 C88 1.413 . S
C92 C93 1.348 . S
C92 H108 0.931 . S
C93 C91 1.378 . S
C93 C92 1.348 . S
C93 H109 0.930 . S
Gd94 N114 2.622 1_554 S
Gd94 N121 2.570 . S
Gd94 O128 2.353 . S
Gd94 O129 2.468 . S
Gd94 O130 2.427 1_554 S
Gd94 O132 2.388 1_554 S
Gd94 O133 2.386 . S
Gd94 O137 2.307 . S
Gd94 C147 2.805 . S
Gd95 N90 2.622 . S
Gd95 N96 2.570 1_554 S
Gd95 O127 2.386 . S
Gd95 O131 2.307 1_554 S
Gd95 O134 2.353 . S
Gd95 O135 2.468 1_554 S
Gd95 O136 2.427 . S
Gd95 O138 2.388 . S
Gd95 C159 2.805 . S
N96 C86 1.359 1_556 S
N96 Gd95 2.570 1_556 S
N96 C98 1.343 . S
C97 C85 1.422 . S
C97 C99 1.321 . S
C97 H105 0.931 . S
C98 N96 1.343 . S
C98 C99 1.390 . S
C98 H100 0.931 . S
C99 C97 1.321 . S
C99 C98 1.390 . S
C99 H101 0.930 . S
H100 C98 0.931 . S
H101 C99 0.930 . S
H102 C125 0.931 . S
H103 C91 0.929 . S
H104 C126 0.930 . S
H105 C97 0.931 . S
H106 C87 0.930 . S
H107 C116 0.929 . S
H108 C92 0.931 . S
H109 C93 0.930 . S
H110 C148 0.930 . S
H111 C89 0.929 . S
H112 C117 0.931 . S
H113 C118 0.930 . S
N114 Gd94 2.622 1_556 S
N114 C115 1.369 1_556 S
N114 C116 1.338 . S
C115 N114 1.369 1_554 S
C115 C119 1.415 1_554 S
C115 C122 1.422 . S
C116 H107 0.929 . S
C116 N114 1.338 . S
C116 C118 1.378 . S
C117 H112 0.931 . S
C117 C118 1.348 . S
C117 C119 1.413 . S
C118 H113 0.930 . S
C118 C116 1.378 . S
C118 C117 1.348 . S
C119 C115 1.415 1_556 S
C119 C117 1.413 . S
C119 C149 1.437 1_556 S
H120 C149 0.929 . S
N121 Gd94 2.570 . S
N121 C122 1.359 . S
N121 C125 1.343 . S
C122 C115 1.422 . S
C122 N121 1.359 . S
C122 C124 1.421 . S
C123 C124 1.422 . S
C123 C126 1.321 . S
C123 H150 0.931 . S
C124 C122 1.421 . S
C124 C123 1.422 . S
C124 C148 1.417 . S
C125 H102 0.931 . S
C125 N121 1.343 . S
C125 C126 1.390 . S
C126 H104 0.930 . S
C126 C123 1.321 . S
C126 C125 1.390 . S
O127 Gd95 2.386 . S
O127 C139 1.265 . S
O128 Gd94 2.353 . S
O128 C139 1.242 . S
O129 Gd94 2.468 . S
O129 C147 1.263 . S
O130 Gd94 2.427 1_556 S
O130 C147 1.252 1_556 S
O131 Gd95 2.307 1_556 S
O131 C140 1.261 . S
O132 Gd94 2.388 1_556 S
O132 C140 1.252 . S
O133 Gd94 2.386 . S
O133 C151 1.265 . S
O134 Gd95 2.353 . S
O134 C151 1.242 . S
O135 Gd95 2.468 1_556 S
O135 C159 1.263 1_556 S
O136 Gd95 2.427 . S
O136 C159 1.252 . S
O137 Gd94 2.307 . S
O137 C152 1.261 . S
O138 Gd95 2.388 . S
O138 C152 1.252 . S
C139 O127 1.265 . S
C139 O128 1.242 . S
C140 O131 1.261 . S
C140 O132 1.252 . S
C141 C144 1.394 1_554 S
C141 C146 1.370 . S
C141 C147 1.500 . S
C142 C145 1.383 . S
C142 C146 1.395 . S
C143 C144 1.396 1_554 S
C143 C145 1.365 . S
C143 H160 0.929 1_554 S
C144 C141 1.394 1_556 S
C144 C143 1.396 1_556 S
C144 H161 0.930 . S
C145 C142 1.383 . S
C145 C143 1.365 . S
C145 H162 0.931 . S
C146 C141 1.370 . S
C146 C142 1.395 . S
C146 H163 0.930 . S
C147 Gd94 2.805 . S
C147 O129 1.263 . S
C147 O130 1.252 1_554 S
C147 C141 1.500 . S
C148 H110 0.930 . S
C148 C124 1.417 . S
C148 C149 1.329 . S
C149 C119 1.437 1_554 S
C149 H120 0.929 . S
C149 C148 1.329 . S
H150 C123 0.931 . S
C151 O133 1.265 . S
C151 O134 1.242 . S
C152 O137 1.261 . S
C152 O138 1.252 . S
C153 C156 1.394 . S
C153 C158 1.370 1_554 S
C153 C159 1.500 . S
C154 C157 1.383 1_556 S
C154 C158 1.395 . S
C155 C156 1.396 . S
C155 C157 1.365 . S
C155 H164 0.929 . S
C156 C153 1.394 . S
C156 C155 1.396 . S
C156 H165 0.930 . S
C157 C154 1.383 1_554 S
C157 C155 1.365 . S
C157 H166 0.931 . S
C158 C153 1.370 1_556 S
C158 C154 1.395 . S
C158 H167 0.930 . S
C159 Gd95 2.805 . S
C159 O135 1.263 1_554 S
C159 O136 1.252 . S
C159 C153 1.500 . S
H160 C143 0.929 1_556 S
H161 C144 0.930 . S
H162 C145 0.931 . S
H163 C146 0.930 . S
H164 C155 0.929 . S
H165 C156 0.930 . S
H166 C157 0.931 . S
H167 C158 0.930 . S
C168 C170 1.422 . S
C168 C172 1.415 . S
C168 N174 1.369 . S
C169 C170 1.421 1_554 S
C169 C171 1.417 1_554 S
C169 C181 1.422 . S
C170 C168 1.422 . S
C170 C169 1.421 1_556 S
C170 N180 1.359 1_556 S
C171 C169 1.417 1_556 S
C171 C173 1.329 . S
C171 H190 0.924 1_556 S
C172 C168 1.415 . S
C172 C173 1.437 . S
C172 C176 1.413 . S
C173 C171 1.329 . S
C173 C172 1.437 . S
C173 H195 0.929 . S
N174 C168 1.369 . S
N174 C175 1.338 . S
N174 Gd179 2.622 1_565 S
C175 N174 1.338 . S
C175 C177 1.378 . S
C175 H187 0.929 . S
C176 C172 1.413 . S
C176 C177 1.348 . S
C176 H192 0.931 . S
C177 C175 1.378 . S
C177 C176 1.348 . S
C177 H193 0.930 . S
Gd178 N198 2.622 . S
Gd178 N205 2.570 1_554 S
Gd178 O212 2.353 . S
Gd178 O213 2.468 1_554 S
Gd178 O214 2.427 . S
Gd178 O216 2.388 . S
Gd178 O217 2.386 . S
Gd178 O221 2.307 1_554 S
Gd178 C231 2.805 . S
Gd179 N174 2.622 1_545 S
Gd179 N180 2.570 1_546 S
Gd179 O211 2.386 . S
Gd179 O215 2.307 1_556 S
Gd179 O218 2.353 . S
Gd179 O219 2.468 1_556 S
Gd179 O220 2.427 . S
Gd179 O222 2.388 . S
Gd179 C243 2.805 . S
N180 C170 1.359 1_554 S
N180 Gd179 2.570 1_564 S
N180 C182 1.343 . S
C181 C169 1.422 . S
C181 C183 1.321 . S
C181 H189 0.931 . S
C182 N180 1.343 . S
C182 C183 1.390 . S
C182 H184 0.931 1_565 S
C183 C181 1.321 . S
C183 C182 1.390 . S
C183 H185 0.930 . S
H184 C182 0.931 1_545 S
H185 C183 0.930 . S
H186 C209 0.931 . S
H187 C175 0.929 . S
H188 C210 0.930 . S
H189 C181 0.931 . S
H190 C171 0.924 1_554 S
H191 C200 0.929 . S
H192 C176 0.931 . S
H193 C177 0.930 . S
H194 C232 0.930 . S
H195 C173 0.929 . S
H196 C201 0.931 . S
H197 C202 0.930 . S
N198 Gd178 2.622 . S
N198 C199 1.369 . S
N198 C200 1.338 . S
C199 N198 1.369 . S
C199 C203 1.415 . S
C199 C206 1.422 . S
C200 H191 0.929 . S
C200 N198 1.338 . S
C200 C202 1.378 . S
C201 H196 0.931 . S
C201 C202 1.348 . S
C201 C203 1.413 . S
C202 H197 0.930 . S
C202 C200 1.378 . S
C202 C201 1.348 . S
C203 C199 1.415 . S
C203 C201 1.413 . S
C203 C233 1.437 . S
H204 C233 0.929 . S
N205 Gd178 2.570 1_556 S
N205 C206 1.359 1_556 S
N205 C209 1.343 . S
C206 C199 1.422 . S
C206 N205 1.359 1_554 S
C206 C208 1.421 1_554 S
C207 C208 1.422 . S
C207 C210 1.321 . S
C207 H234 0.931 . S
C208 C206 1.421 1_556 S
C208 C207 1.422 . S
C208 C232 1.417 1_556 S
C209 H186 0.931 . S
C209 N205 1.343 . S
C209 C210 1.390 . S
C210 H188 0.930 . S
C210 C207 1.321 . S
C210 C209 1.390 . S
O211 Gd179 2.386 . S
O211 C223 1.265 1_556 S
O212 Gd178 2.353 . S
O212 C223 1.242 . S
O213 Gd178 2.468 1_556 S
O213 C231 1.263 1_556 S
O214 Gd178 2.427 . S
O214 C231 1.252 . S
O215 Gd179 2.307 1_554 S
O215 C224 1.261 . S
O216 Gd178 2.388 . S
O216 C224 1.252 . S
O217 Gd178 2.386 . S
O217 C235 1.265 . S
O218 Gd179 2.353 . S
O218 C235 1.242 1_556 S
O219 Gd179 2.468 1_554 S
O219 C243 1.263 1_554 S
O220 Gd179 2.427 . S
O220 C243 1.252 . S
O221 Gd178 2.307 1_556 S
O221 C236 1.261 . S
O222 Gd179 2.388 . S
O222 C236 1.252 . S
C223 O211 1.265 1_554 S
C223 O212 1.242 . S
C224 O215 1.261 . S
C224 O216 1.252 . S
C225 C228 1.394 . S
C225 C230 1.370 1_554 S
C225 C231 1.500 . S
C226 C229 1.383 1_556 S
C226 C230 1.395 . S
C227 C228 1.396 . S
C227 C229 1.365 . S
C227 H244 0.929 . S
C228 C225 1.394 . S
C228 C227 1.396 . S
C228 H245 0.930 . S
C229 C226 1.383 1_554 S
C229 C227 1.365 . S
C229 H246 0.931 . S
C230 C225 1.370 1_556 S
C230 C226 1.395 . S
C230 H247 0.930 . S
C231 Gd178 2.805 . S
C231 O213 1.263 1_554 S
C231 O214 1.252 . S
C231 C225 1.500 . S
C232 H194 0.930 . S
C232 C208 1.417 1_554 S
C232 C233 1.329 . S
C233 C203 1.437 . S
C233 H204 0.929 . S
C233 C232 1.329 . S
H234 C207 0.931 . S
C235 O217 1.265 . S
C235 O218 1.242 1_554 S
C236 O221 1.261 . S
C236 O222 1.252 . S
C237 C240 1.394 . S
C237 C242 1.369 1_566 S
C237 C243 1.501 1_565 S
C238 C241 1.383 1_554 S
C238 C242 1.395 1_565 S
C239 C240 1.396 . S
C239 C241 1.365 . S
C239 H248 0.929 . S
C240 C237 1.394 . S
C240 C239 1.396 . S
C240 H249 0.930 . S
C241 C238 1.383 1_556 S
C241 C239 1.365 . S
C241 H250 0.931 . S
C242 C237 1.369 1_544 S
C242 C238 1.395 1_545 S
C242 H251 0.930 . S
C243 Gd179 2.805 . S
C243 O219 1.263 1_556 S
C243 O220 1.252 . S
C243 C237 1.501 1_545 S
H244 C227 0.929 . S
H245 C228 0.930 . S
H246 C229 0.931 . S
H247 C230 0.930 . S
H248 C239 0.929 . S
H249 C240 0.930 . S
H250 C241 0.931 . S
H251 C242 0.930 . S
C252 C254 1.422 . S
C252 C256 1.415 . S
C252 N258 1.369 . S
C253 C254 1.421 . S
C253 C255 1.417 . S
C253 C265 1.422 . S
C254 C252 1.422 . S
C254 C253 1.421 . S
C254 N264 1.359 . S
C255 C253 1.417 . S
C255 C257 1.329 . S
C255 H274 0.930 1_565 S
C256 C252 1.415 . S
C256 C257 1.437 . S
C256 C260 1.413 . S
C257 C255 1.329 . S
C257 C256 1.437 . S
C257 H279 0.929 1_565 S
N258 C252 1.369 . S
N258 C259 1.338 . S
N258 Gd263 2.622 . S
C259 N258 1.338 . S
C259 C261 1.378 . S
C259 H271 0.929 . S
C260 C256 1.413 . S
C260 C261 1.348 . S
C260 H276 0.931 . S
C261 C259 1.378 . S
C261 C260 1.348 . S
C261 H277 0.930 1_554 S
Gd262 N282 2.622 . S
Gd262 N289 2.570 . S
Gd262 O296 2.353 . S
Gd262 O297 2.468 . S
Gd262 O298 2.427 . S
Gd262 O300 2.388 . S
Gd262 O301 2.386 . S
Gd262 O305 2.307 . S
Gd262 C315 2.805 . S
Gd263 N258 2.622 . S
Gd263 N264 2.570 . S
Gd263 O295 2.386 . S
Gd263 O299 2.307 . S
Gd263 O302 2.353 . S
Gd263 O303 2.468 . S
Gd263 O304 2.427 . S
Gd263 O306 2.388 . S
Gd263 C327 2.805 . S
N264 C254 1.359 . S
N264 Gd263 2.570 . S
N264 C266 1.343 . S
C265 C253 1.422 . S
C265 C267 1.321 . S
C265 H273 0.931 . S
C266 N264 1.343 . S
C266 C267 1.390 . S
C266 H268 0.931 . S
C267 C265 1.321 . S
C267 C266 1.390 . S
C267 H269 0.930 . S
H268 C266 0.931 . S
H269 C267 0.930 . S
H270 C293 0.931 . S
H271 C259 0.929 . S
H272 C294 0.930 . S
H273 C265 0.931 . S
H274 C255 0.930 1_545 S
H275 C284 0.929 . S
H276 C260 0.931 . S
H277 C261 0.930 1_556 S
H278 C316 0.930 . S
H279 C257 0.929 1_545 S
H280 C285 0.931 . S
H281 C286 0.930 . S
N282 Gd262 2.622 . S
N282 C283 1.369 . S
N282 C284 1.338 . S
C283 N282 1.369 . S
C283 C287 1.415 . S
C283 C290 1.422 . S
C284 H275 0.929 . S
C284 N282 1.338 . S
C284 C286 1.378 . S
C285 H280 0.931 . S
C285 C286 1.348 . S
C285 C287 1.413 . S
C286 H281 0.930 . S
C286 C284 1.378 . S
C286 C285 1.348 . S
C287 C283 1.415 . S
C287 C285 1.413 . S
C287 C317 1.437 . S
H288 C317 0.929 . S
N289 Gd262 2.570 . S
N289 C290 1.359 . S
N289 C293 1.343 1_554 S
C290 C283 1.422 . S
C290 N289 1.359 . S
C290 C292 1.421 . S
C291 C292 1.422 1_556 S
C291 C294 1.321 . S
C291 H318 0.931 . S
C292 C290 1.421 . S
C292 C291 1.422 1_554 S
C292 C316 1.417 . S
C293 H270 0.931 . S
C293 N289 1.343 1_556 S
C293 C294 1.390 . S
C294 H272 0.930 . S
C294 C291 1.321 . S
C294 C293 1.390 . S
O295 Gd263 2.386 . S
O295 C307 1.265 . S
O296 Gd262 2.353 . S
O296 C307 1.242 . S
O297 Gd262 2.468 . S
O297 C315 1.263 . S
O298 Gd262 2.427 . S
O298 C315 1.252 . S
O299 Gd263 2.307 . S
O299 C308 1.261 . S
O300 Gd262 2.388 . S
O300 C308 1.252 . S
O301 Gd262 2.386 . S
O301 C319 1.265 . S
O302 Gd263 2.353 . S
O302 C319 1.242 . S
O303 Gd263 2.468 . S
O303 C327 1.263 . S
O304 Gd263 2.427 . S
O304 C327 1.252 . S
O305 Gd262 2.307 . S
O305 C320 1.261 . S
O306 Gd263 2.388 . S
O306 C320 1.252 . S
C307 O295 1.265 . S
C307 O296 1.242 . S
C308 O299 1.261 . S
C308 O300 1.252 . S
C309 C312 1.394 . S
C309 C314 1.370 . S
C309 C315 1.500 . S
C310 C313 1.383 . S
C310 C314 1.395 . S
C311 C312 1.396 . S
C311 C313 1.365 . S
C311 H328 0.929 . S
C312 C309 1.394 . S
C312 C311 1.396 . S
C312 H329 0.930 . S
C313 C310 1.383 . S
C313 C311 1.365 . S
C313 H330 0.931 1_565 S
C314 C309 1.370 . S
C314 C310 1.395 . S
C314 H331 0.930 . S
C315 Gd262 2.805 . S
C315 O297 1.263 . S
C315 O298 1.252 . S
C315 C309 1.500 . S
C316 H278 0.930 . S
C316 C292 1.417 . S
C316 C317 1.329 . S
C317 C287 1.437 . S
C317 H288 0.929 . S
C317 C316 1.329 . S
H318 C291 0.931 . S
C319 O301 1.265 . S
C319 O302 1.242 . S
C320 O305 1.261 . S
C320 O306 1.252 . S
C321 C324 1.394 . S
C321 C326 1.370 . S
C321 C327 1.500 . S
C322 C325 1.383 . S
C322 C326 1.395 . S
C323 C324 1.396 . S
C323 C325 1.365 . S
C323 H332 0.929 . S
C324 C321 1.394 . S
C324 C323 1.396 . S
C324 H333 0.930 . S
C325 C322 1.383 . S
C325 C323 1.365 . S
C325 H334 0.931 . S
C326 C321 1.370 . S
C326 C322 1.395 . S
C326 H335 0.930 . S
C327 Gd263 2.805 . S
C327 O303 1.263 . S
C327 O304 1.252 . S
C327 C321 1.500 . S
H328 C311 0.929 . S
H329 C312 0.930 . S
H330 C313 0.931 1_545 S
H331 C314 0.930 . S
H332 C323 0.929 . S
H333 C324 0.930 . S
H334 C325 0.931 . S
H335 C326 0.930 . S
C336 C338 1.422 . S
C336 C340 1.415 . S
C336 N342 1.369 . S
C337 C338 1.421 . S
C337 C339 1.417 . S
C337 C349 1.422 . S
C338 C336 1.422 . S
C338 C337 1.421 . S
C338 N348 1.359 . S
C339 C337 1.417 . S
C339 C341 1.329 . S
C339 H358 0.930 . S
C340 C336 1.415 . S
C340 C341 1.437 . S
C340 C344 1.413 . S
C341 C339 1.329 . S
C341 C340 1.437 . S
C341 H363 0.929 . S
N342 C336 1.369 . S
N342 C343 1.338 . S
N342 Gd347 2.622 . S
C343 N342 1.338 . S
C343 C345 1.378 . S
C343 H355 0.929 . S
C344 C340 1.413 . S
C344 C345 1.348 . S
C344 H360 0.931 . S
C345 C343 1.378 . S
C345 C344 1.348 . S
C345 H361 0.930 . S
Gd346 N366 2.622 . S
Gd346 N373 2.570 . S
Gd346 O380 2.353 . S
Gd346 O381 2.468 . S
Gd346 O382 2.427 . S
Gd346 O384 2.388 . S
Gd346 O385 2.386 . S
Gd346 O389 2.307 . S
Gd346 C399 2.805 . S
Gd347 N342 2.622 . S
Gd347 N348 2.570 . S
Gd347 O379 2.386 . S
Gd347 O383 2.307 . S
Gd347 O386 2.353 . S
Gd347 O387 2.468 . S
Gd347 O388 2.427 . S
Gd347 O390 2.388 . S
Gd347 C411 2.805 . S
N348 C338 1.359 . S
N348 Gd347 2.570 . S
N348 C350 1.343 . S
C349 C337 1.422 . S
C349 C351 1.321 . S
C349 H357 0.931 . S
C350 N348 1.343 . S
C350 C351 1.390 . S
C350 H352 0.931 . S
C351 C349 1.321 . S
C351 C350 1.390 . S
C351 H353 0.930 1_554 S
H352 C350 0.931 . S
H353 C351 0.930 1_556 S
H354 C377 0.931 . S
H355 C343 0.929 . S
H356 C378 0.930 . S
H357 C349 0.931 . S
H358 C339 0.930 . S
H359 C368 0.929 . S
H360 C344 0.931 . S
H361 C345 0.930 . S
H362 C400 0.930 1_545 S
H363 C341 0.929 . S
H364 C369 0.931 . S
H365 C370 0.919 1_556 S
N366 Gd346 2.622 . S
N366 C367 1.369 . S
N366 C368 1.338 . S
C367 N366 1.369 . S
C367 C371 1.415 . S
C367 C374 1.422 . S
C368 H359 0.929 . S
C368 N366 1.338 . S
C368 C370 1.378 . S
C369 H364 0.931 . S
C369 C370 1.348 . S
C369 C371 1.413 . S
C370 H365 0.919 1_554 S
C370 C368 1.378 . S
C370 C369 1.348 . S
C371 C367 1.415 . S
C371 C369 1.413 . S
C371 C401 1.437 . S
H372 C401 0.929 1_545 S
N373 Gd346 2.570 . S
N373 C374 1.359 . S
N373 C377 1.343 . S
C374 C367 1.422 . S
C374 N373 1.359 . S
C374 C376 1.421 . S
C375 C376 1.422 . S
C375 C378 1.321 . S
C375 H402 0.931 . S
C376 C374 1.421 . S
C376 C375 1.422 . S
C376 C400 1.417 . S
C377 H354 0.931 . S
C377 N373 1.343 . S
C377 C378 1.390 . S
C378 H356 0.930 . S
C378 C375 1.321 . S
C378 C377 1.390 . S
O379 Gd347 2.386 . S
O379 C391 1.265 . S
O380 Gd346 2.353 . S
O380 C391 1.242 . S
O381 Gd346 2.468 . S
O381 C399 1.263 . S
O382 Gd346 2.427 . S
O382 C399 1.252 . S
O383 Gd347 2.307 . S
O383 C392 1.261 . S
O384 Gd346 2.388 . S
O384 C392 1.252 . S
O385 Gd346 2.386 . S
O385 C403 1.265 . S
O386 Gd347 2.353 . S
O386 C403 1.242 . S
O387 Gd347 2.468 . S
O387 C411 1.263 . S
O388 Gd347 2.427 . S
O388 C411 1.252 . S
O389 Gd346 2.307 . S
O389 C404 1.261 . S
O390 Gd347 2.388 . S
O390 C404 1.252 . S
C391 O379 1.265 . S
C391 O380 1.242 . S
C392 O383 1.261 . S
C392 O384 1.252 . S
C393 C396 1.394 . S
C393 C398 1.370 . S
C393 C399 1.500 . S
C394 C397 1.383 1_455 S
C394 C398 1.395 . S
C395 C396 1.396 1_655 S
C395 C397 1.365 . S
C395 H412 0.929 . S
C396 C393 1.394 . S
C396 C395 1.396 1_455 S
C396 H413 0.930 . S
C397 C394 1.383 1_655 S
C397 C395 1.365 . S
C397 H414 0.931 . S
C398 C393 1.370 . S
C398 C394 1.395 . S
C398 H415 0.930 . S
C399 Gd346 2.805 . S
C399 O381 1.263 . S
C399 O382 1.252 . S
C399 C393 1.500 . S
C400 H362 0.930 1_565 S
C400 C376 1.417 . S
C400 C401 1.329 . S
C401 C371 1.437 . S
C401 H372 0.929 1_565 S
C401 C400 1.329 . S
H402 C375 0.931 . S
C403 O385 1.265 . S
C403 O386 1.242 . S
C404 O389 1.261 . S
C404 O390 1.252 . S
C405 C408 1.394 . S
C405 C410 1.370 . S
C405 C411 1.500 . S
C406 C409 1.383 . S
C406 C410 1.395 . S
C407 C408 1.396 . S
C407 C409 1.365 . S
C407 H416 0.929 . S
C408 C405 1.394 . S
C408 C407 1.396 . S
C408 H417 0.930 . S
C409 C406 1.383 . S
C409 C407 1.365 . S
C409 H418 0.931 . S
C410 C405 1.370 . S
C410 C406 1.395 . S
C410 H419 0.930 . S
C411 Gd347 2.805 . S
C411 O387 1.263 . S
C411 O388 1.252 . S
C411 C405 1.500 . S
H412 C395 0.929 . S
H413 C396 0.930 . S
H414 C397 0.931 . S
H415 C398 0.930 . S
H416 C407 0.929 . S
H417 C408 0.930 . S
H418 C409 0.931 . S
H419 C410 0.930 . S
C420 C422 1.422 . S
C420 C424 1.415 . S
C420 N426 1.369 . S
C421 C422 1.421 . S
C421 C423 1.417 . S
C421 C433 1.422 . S
C422 C420 1.422 . S
C422 C421 1.421 . S
C422 N432 1.359 . S
C423 C421 1.417 . S
C423 C425 1.329 . S
C423 H442 0.930 1_545 S
C424 C420 1.415 . S
C424 C425 1.437 . S
C424 C428 1.413 . S
C425 C423 1.329 . S
C425 C424 1.437 . S
C425 H447 0.929 1_545 S
N426 C420 1.369 . S
N426 C427 1.338 . S
N426 Gd431 2.622 . S
C427 N426 1.338 . S
C427 C429 1.378 . S
C427 H439 0.929 . S
C428 C424 1.413 . S
C428 C429 1.348 . S
C428 H444 0.931 . S
C429 C427 1.378 . S
C429 C428 1.348 . S
C429 H445 0.930 1_554 S
Gd430 N450 2.622 . S
Gd430 N457 2.570 . S
Gd430 O464 2.353 . S
Gd430 O465 2.468 . S
Gd430 O466 2.427 . S
Gd430 O468 2.388 . S
Gd430 O469 2.386 . S
Gd430 O473 2.307 . S
Gd430 C483 2.805 . S
Gd431 N426 2.622 . S
Gd431 N432 2.570 . S
Gd431 O463 2.386 . S
Gd431 O467 2.307 . S
Gd431 O470 2.353 . S
Gd431 O471 2.468 . S
Gd431 O472 2.427 . S
Gd431 O474 2.388 . S
Gd431 C495 2.805 . S
N432 C422 1.359 . S
N432 Gd431 2.570 . S
N432 C434 1.343 . S
C433 C421 1.422 . S
C433 C435 1.321 . S
C433 H441 0.931 . S
C434 N432 1.343 . S
C434 C435 1.390 . S
C434 H436 0.931 . S
C435 C433 1.321 . S
C435 C434 1.390 . S
C435 H437 0.930 . S
H436 C434 0.931 . S
H437 C435 0.930 . S
H438 C461 0.931 . S
H439 C427 0.929 . S
H440 C462 0.930 . S
H441 C433 0.931 . S
H442 C423 0.930 1_565 S
H443 C452 0.929 . S
H444 C428 0.931 . S
H445 C429 0.930 1_556 S
H446 C484 0.930 . S
H447 C425 0.929 1_565 S
H448 C453 0.931 . S
H449 C454 0.930 . S
N450 Gd430 2.622 . S
N450 C451 1.369 . S
N450 C452 1.338 . S
C451 N450 1.369 . S
C451 C455 1.415 . S
C451 C458 1.422 . S
C452 H443 0.929 . S
C452 N450 1.338 . S
C452 C454 1.378 . S
C453 H448 0.931 . S
C453 C454 1.348 . S
C453 C455 1.413 . S
C454 H449 0.930 . S
C454 C452 1.378 . S
C454 C453 1.348 . S
C455 C451 1.415 . S
C455 C453 1.413 . S
C455 C485 1.437 . S
H456 C485 0.929 . S
N457 Gd430 2.570 . S
N457 C458 1.359 . S
N457 C461 1.343 . S
C458 C451 1.422 . S
C458 N457 1.359 . S
C458 C460 1.421 . S
C459 C460 1.422 . S
C459 C462 1.321 . S
C459 H486 0.931 . S
C460 C458 1.421 . S
C460 C459 1.422 . S
C460 C484 1.417 . S
C461 H438 0.931 . S
C461 N457 1.343 . S
C461 C462 1.390 . S
C462 H440 0.930 . S
C462 C459 1.321 . S
C462 C461 1.390 . S
O463 Gd431 2.386 . S
O463 C475 1.265 . S
O464 Gd430 2.353 . S
O464 C475 1.242 . S
O465 Gd430 2.468 . S
O465 C483 1.263 . S
O466 Gd430 2.427 . S
O466 C483 1.252 . S
O467 Gd431 2.307 . S
O467 C476 1.261 . S
O468 Gd430 2.388 . S
O468 C476 1.252 . S
O469 Gd430 2.386 . S
O469 C487 1.265 . S
O470 Gd431 2.353 . S
O470 C487 1.242 . S
O471 Gd431 2.468 . S
O471 C495 1.263 . S
O472 Gd431 2.427 . S
O472 C495 1.252 . S
O473 Gd430 2.307 . S
O473 C488 1.261 . S
O474 Gd431 2.388 . S
O474 C488 1.252 . S
C475 O463 1.265 . S
C475 O464 1.242 . S
C476 O467 1.261 . S
C476 O468 1.252 . S
C477 C480 1.394 . S
C477 C482 1.370 . S
C477 C483 1.500 . S
C478 C481 1.383 . S
C478 C482 1.395 . S
C479 C480 1.396 . S
C479 C481 1.365 . S
C479 H496 0.929 . S
C480 C477 1.394 . S
C480 C479 1.396 . S
C480 H497 0.930 . S
C481 C478 1.383 . S
C481 C479 1.365 . S
C481 H498 0.931 . S
C482 C477 1.370 . S
C482 C478 1.395 . S
C482 H499 0.930 . S
C483 Gd430 2.805 . S
C483 O465 1.263 . S
C483 O466 1.252 . S
C483 C477 1.500 . S
C484 H446 0.930 . S
C484 C460 1.417 . S
C484 C485 1.329 . S
C485 C455 1.437 . S
C485 H456 0.929 . S
C485 C484 1.329 . S
H486 C459 0.931 . S
C487 O469 1.265 . S
C487 O470 1.242 . S
C488 O473 1.261 . S
C488 O474 1.252 . S
C489 C492 1.394 . S
C489 C494 1.370 . S
C489 C495 1.500 . S
C490 C493 1.383 1_455 S
C490 C494 1.395 . S
C491 C492 1.396 . S
C491 C493 1.365 1_455 S
C491 H500 0.929 1_455 S
C492 C489 1.394 . S
C492 C491 1.396 . S
C492 H501 0.930 . S
C493 C490 1.383 1_655 S
C493 C491 1.365 1_655 S
C493 H502 0.931 . S
C494 C489 1.370 . S
C494 C490 1.395 . S
C494 H503 0.930 . S
C495 Gd431 2.805 . S
C495 O471 1.263 . S
C495 O472 1.252 . S
C495 C489 1.500 . S
H496 C479 0.929 . S
H497 C480 0.930 . S
H498 C481 0.931 . S
H499 C482 0.930 . S
H500 C491 0.929 1_655 S
H501 C492 0.930 . S
H502 C493 0.931 . S
H503 C494 0.930 . S
C504 C506 1.422 . S
C504 C508 1.415 . S
C504 N510 1.369 . S
C505 C506 1.421 . S
C505 C507 1.417 . S
C505 C517 1.422 . S
C506 C504 1.422 . S
C506 C505 1.421 . S
C506 N516 1.359 . S
C507 C505 1.417 . S
C507 C509 1.329 . S
C507 H526 0.930 . S
C508 C504 1.415 . S
C508 C509 1.437 . S
C508 C512 1.413 . S
C509 C507 1.329 . S
C509 C508 1.437 . S
C509 H531 0.929 . S
N510 C504 1.369 . S
N510 C511 1.338 . S
N510 Gd515 2.622 . S
C511 N510 1.338 . S
C511 C513 1.378 . S
C511 H523 0.929 . S
C512 C508 1.413 . S
C512 C513 1.348 . S
C512 H528 0.931 . S
C513 C511 1.378 . S
C513 C512 1.348 . S
C513 H529 0.930 . S
Gd514 N534 2.622 . S
Gd514 N541 2.570 . S
Gd514 O548 2.353 . S
Gd514 O549 2.468 . S
Gd514 O550 2.427 . S
Gd514 O552 2.388 . S
Gd514 O553 2.386 . S
Gd514 O557 2.307 . S
Gd514 C567 2.805 . S
Gd515 N510 2.622 . S
Gd515 N516 2.570 . S
Gd515 O547 2.386 . S
Gd515 O551 2.307 . S
Gd515 O554 2.353 . S
Gd515 O555 2.468 . S
Gd515 O556 2.427 . S
Gd515 O558 2.388 . S
Gd515 C579 2.805 . S
N516 C506 1.359 . S
N516 Gd515 2.570 . S
N516 C518 1.343 . S
C517 C505 1.422 . S
C517 C519 1.321 . S
C517 H525 0.931 . S
C518 N516 1.343 . S
C518 C519 1.390 . S
C518 H520 0.931 . S
C519 C517 1.321 . S
C519 C518 1.390 . S
C519 H521 0.930 . S
H520 C518 0.931 . S
H521 C519 0.930 . S
H522 C545 0.931 . S
H523 C511 0.929 . S
H524 C546 0.930 . S
H525 C517 0.931 . S
H526 C507 0.930 . S
H527 C536 0.929 . S
H528 C512 0.931 . S
H529 C513 0.930 . S
H530 C568 0.930 . S
H531 C509 0.929 . S
H532 C537 0.931 . S
H533 C538 0.930 . S
N534 Gd514 2.622 . S
N534 C535 1.369 . S
N534 C536 1.338 . S
C535 N534 1.369 . S
C535 C539 1.415 . S
C535 C542 1.422 . S
C536 H527 0.929 . S
C536 N534 1.338 . S
C536 C538 1.378 . S
C537 H532 0.931 . S
C537 C538 1.348 . S
C537 C539 1.413 . S
C538 H533 0.930 . S
C538 C536 1.378 . S
C538 C537 1.348 . S
C539 C535 1.415 . S
C539 C537 1.413 . S
C539 C569 1.437 . S
H540 C569 0.929 . S
N541 Gd514 2.570 . S
N541 C542 1.359 . S
N541 C545 1.343 . S
C542 C535 1.422 . S
C542 N541 1.359 . S
C542 C544 1.421 . S
C543 C544 1.422 . S
C543 C546 1.321 . S
C543 H570 0.931 . S
C544 C542 1.421 . S
C544 C543 1.422 . S
C544 C568 1.417 . S
C545 H522 0.931 . S
C545 N541 1.343 . S
C545 C546 1.390 . S
C546 H524 0.930 . S
C546 C543 1.321 . S
C546 C545 1.390 . S
O547 Gd515 2.386 . S
O547 C559 1.265 . S
O548 Gd514 2.353 . S
O548 C559 1.242 . S
O549 Gd514 2.468 . S
O549 C567 1.263 . S
O550 Gd514 2.427 . S
O550 C567 1.252 . S
O551 Gd515 2.307 . S
O551 C560 1.261 . S
O552 Gd514 2.388 . S
O552 C560 1.252 . S
O553 Gd514 2.386 . S
O553 C571 1.265 . S
O554 Gd515 2.353 . S
O554 C571 1.242 . S
O555 Gd515 2.468 . S
O555 C579 1.263 . S
O556 Gd515 2.427 . S
O556 C579 1.252 . S
O557 Gd514 2.307 . S
O557 C572 1.261 . S
O558 Gd515 2.388 . S
O558 C572 1.252 . S
C559 O547 1.265 . S
C559 O548 1.242 . S
C560 O551 1.261 . S
C560 O552 1.252 . S
C561 C564 1.394 . S
C561 C566 1.370 . S
C561 C567 1.500 1_554 S
C562 C565 1.383 . S
C562 C566 1.395 . S
C563 C564 1.396 . S
C563 C565 1.365 . S
C563 H580 0.929 . S
C564 C561 1.394 . S
C564 C563 1.396 . S
C564 H581 0.930 . S
C565 C562 1.383 . S
C565 C563 1.365 . S
C565 H582 0.931 . S
C566 C561 1.370 . S
C566 C562 1.395 . S
C566 H583 0.930 . S
C567 Gd514 2.805 . S
C567 O549 1.263 . S
C567 O550 1.252 . S
C567 C561 1.500 1_556 S
C568 H530 0.930 . S
C568 C544 1.417 . S
C568 C569 1.329 . S
C569 C539 1.437 . S
C569 H540 0.929 . S
C569 C568 1.329 . S
H570 C543 0.931 . S
C571 O553 1.265 . S
C571 O554 1.242 . S
C572 O557 1.261 . S
C572 O558 1.252 . S
C573 C576 1.394 . S
C573 C578 1.370 . S
C573 C579 1.500 . S
C574 C577 1.383 . S
C574 C578 1.395 . S
C575 C576 1.396 . S
C575 C577 1.365 . S
C575 H584 0.929 . S
C576 C573 1.394 . S
C576 C575 1.396 . S
C576 H585 0.930 . S
C577 C574 1.383 . S
C577 C575 1.365 . S
C577 H586 0.931 . S
C578 C573 1.370 . S
C578 C574 1.395 . S
C578 H587 0.930 . S
C579 Gd515 2.805 . S
C579 O555 1.263 . S
C579 O556 1.252 . S
C579 C573 1.500 . S
H580 C563 0.929 . S
H581 C564 0.930 . S
H582 C565 0.931 . S
H583 C566 0.930 . S
H584 C575 0.929 . S
H585 C576 0.930 . S
H586 C577 0.931 . S
H587 C578 0.930 . S
C588 C590 1.422 . S
C588 C592 1.415 . S
C588 N594 1.369 . S
C589 C590 1.421 . S
C589 C591 1.407 1_655 S
C589 C601 1.422 1_655 S
C590 C588 1.422 . S
C590 C589 1.421 . S
C590 N600 1.359 . S
C591 C589 1.407 1_455 S
C591 C593 1.327 1_455 S
C591 H610 0.943 . S
C592 C588 1.415 . S
C592 C593 1.437 . S
C592 C596 1.413 . S
C593 C591 1.327 1_655 S
C593 C592 1.437 . S
C593 H615 0.929 . S
N594 C588 1.369 . S
N594 C595 1.338 . S
N594 Gd599 2.622 . S
C595 N594 1.338 . S
C595 C597 1.378 . S
C595 H607 0.929 . S
C596 C592 1.413 . S
C596 C597 1.348 . S
C596 H612 0.931 . S
C597 C595 1.378 . S
C597 C596 1.348 . S
C597 H613 0.930 1_545 S
Gd598 N618 2.622 . S
Gd598 N625 2.570 . S
Gd598 O632 2.353 . S
Gd598 O633 2.468 . S
Gd598 O634 2.427 . S
Gd598 O636 2.388 . S
Gd598 O637 2.386 . S
Gd598 O641 2.307 . S
Gd598 C651 2.805 . S
Gd599 N594 2.622 . S
Gd599 N600 2.570 . S
Gd599 O631 2.386 . S
Gd599 O635 2.307 . S
Gd599 O638 2.353 . S
Gd599 O639 2.468 . S
Gd599 O640 2.427 . S
Gd599 O642 2.388 . S
Gd599 C663 2.805 . S
N600 C590 1.359 . S
N600 Gd599 2.570 . S
N600 C602 1.343 . S
C601 C589 1.422 1_455 S
C601 C603 1.321 . S
C601 H609 0.931 . S
C602 N600 1.343 . S
C602 C603 1.390 1_655 S
C602 H604 0.931 . S
C603 C601 1.321 . S
C603 C602 1.390 1_455 S
C603 H605 0.930 . S
H604 C602 0.931 . S
H605 C603 0.930 . S
H606 C629 0.931 . S
H607 C595 0.929 . S
H608 C630 0.930 . S
H609 C601 0.931 . S
H610 C591 0.943 . S
H611 C620 0.929 . S
H612 C596 0.931 . S
H613 C597 0.930 1_565 S
H614 C652 0.930 . S
H615 C593 0.929 . S
H616 C621 0.931 . S
H617 C622 0.930 . S
N618 Gd598 2.622 . S
N618 C619 1.369 . S
N618 C620 1.338 . S
C619 N618 1.369 . S
C619 C623 1.415 . S
C619 C626 1.422 . S
C620 H611 0.929 . S
C620 N618 1.338 . S
C620 C622 1.378 . S
C621 H616 0.931 . S
C621 C622 1.348 . S
C621 C623 1.413 . S
C622 H617 0.930 . S
C622 C620 1.378 . S
C622 C621 1.348 . S
C623 C619 1.415 . S
C623 C621 1.413 . S
C623 C653 1.437 . S
H624 C653 0.929 . S
N625 Gd598 2.570 . S
N625 C626 1.359 . S
N625 C629 1.343 . S
C626 C619 1.422 . S
C626 N625 1.359 . S
C626 C628 1.421 . S
C627 C628 1.422 . S
C627 C630 1.321 . S
C627 H654 0.931 . S
C628 C626 1.421 . S
C628 C627 1.422 . S
C628 C652 1.417 . S
C629 H606 0.931 . S
C629 N625 1.343 . S
C629 C630 1.390 . S
C630 H608 0.930 . S
C630 C627 1.321 . S
C630 C629 1.390 . S
O631 Gd599 2.386 . S
O631 C643 1.265 . S
O632 Gd598 2.353 . S
O632 C643 1.242 . S
O633 Gd598 2.468 . S
O633 C651 1.263 . S
O634 Gd598 2.427 . S
O634 C651 1.252 . S
O635 Gd599 2.307 . S
O635 C644 1.261 . S
O636 Gd598 2.388 . S
O636 C644 1.252 . S
O637 Gd598 2.386 . S
O637 C655 1.265 . S
O638 Gd599 2.353 . S
O638 C655 1.242 . S
O639 Gd599 2.468 . S
O639 C663 1.263 . S
O640 Gd599 2.427 . S
O640 C663 1.252 . S
O641 Gd598 2.307 . S
O641 C656 1.261 . S
O642 Gd599 2.388 . S
O642 C656 1.252 . S
C643 O631 1.265 . S
C643 O632 1.242 . S
C644 O635 1.261 . S
C644 O636 1.252 . S
C645 C648 1.394 . S
C645 C650 1.370 . S
C645 C651 1.500 . S
C646 C649 1.383 . S
C646 C650 1.395 . S
C647 C648 1.396 . S
C647 C649 1.365 . S
C647 H664 0.929 . S
C648 C645 1.394 . S
C648 C647 1.396 . S
C648 H665 0.930 . S
C649 C646 1.383 . S
C649 C647 1.365 . S
C649 H666 0.931 . S
C650 C645 1.370 . S
C650 C646 1.395 . S
C650 H667 0.930 . S
C651 Gd598 2.805 . S
C651 O633 1.263 . S
C651 O634 1.252 . S
C651 C645 1.500 . S
C652 H614 0.930 . S
C652 C628 1.417 . S
C652 C653 1.329 . S
C653 C623 1.437 . S
C653 H624 0.929 . S
C653 C652 1.329 . S
H654 C627 0.931 . S
C655 O637 1.265 . S
C655 O638 1.242 . S
C656 O641 1.261 . S
C656 O642 1.252 . S
C657 C660 1.394 . S
C657 C662 1.370 . S
C657 C663 1.500 1_554 S
C658 C661 1.383 . S
C658 C662 1.395 . S
C659 C660 1.396 . S
C659 C661 1.365 . S
C659 H668 0.929 . S
C660 C657 1.394 . S
C660 C659 1.396 . S
C660 H669 0.930 . S
C661 C658 1.383 . S
C661 C659 1.365 . S
C661 H670 0.931 . S
C662 C657 1.370 . S
C662 C658 1.395 . S
C662 H671 0.930 . S
C663 Gd599 2.805 . S
C663 O639 1.263 . S
C663 O640 1.252 . S
C663 C657 1.500 1_556 S
H664 C647 0.929 . S
H665 C648 0.930 . S
H666 C649 0.931 . S
H667 C650 0.930 . S
H668 C659 0.929 . S
H669 C660 0.930 . S
H670 C661 0.931 . S
H671 C662 0.930 . S
C672 C674 1.422 . S
C672 C676 1.415 . S
C672 N678 1.369 . S
C673 C674 1.421 . S
C673 C675 1.417 . S
C673 C685 1.422 . S
C674 C672 1.422 . S
C674 C673 1.421 . S
C674 N684 1.359 . S
C675 C673 1.417 . S
C675 C677 1.329 . S
C675 H694 0.930 . S
C676 C672 1.415 . S
C676 C677 1.437 . S
C676 C680 1.413 . S
C677 C675 1.329 . S
C677 C676 1.437 . S
C677 H699 0.929 . S
N678 C672 1.369 . S
N678 C679 1.338 . S
N678 Gd683 2.622 . S
C679 N678 1.338 . S
C679 C681 1.378 . S
C679 H691 0.929 . S
C680 C676 1.413 . S
C680 C681 1.348 . S
C680 H696 0.931 . S
C681 C679 1.378 . S
C681 C680 1.348 . S
C681 H697 0.930 . S
Gd682 N702 2.622 . S
Gd682 N709 2.570 . S
Gd682 O716 2.353 . S
Gd682 O717 2.468 . S
Gd682 O718 2.427 . S
Gd682 O720 2.388 . S
Gd682 O721 2.386 . S
Gd682 O725 2.307 . S
Gd682 C735 2.805 . S
Gd683 N678 2.622 . S
Gd683 N684 2.570 . S
Gd683 O715 2.386 . S
Gd683 O719 2.307 . S
Gd683 O722 2.353 . S
Gd683 O723 2.468 . S
Gd683 O724 2.427 . S
Gd683 O726 2.388 . S
Gd683 C747 2.805 . S
N684 C674 1.359 . S
N684 Gd683 2.570 . S
N684 C686 1.343 . S
C685 C673 1.422 . S
C685 C687 1.321 . S
C685 H693 0.931 . S
C686 N684 1.343 . S
C686 C687 1.390 . S
C686 H688 0.931 . S
C687 C685 1.321 . S
C687 C686 1.390 . S
C687 H689 0.930 . S
H688 C686 0.931 . S
H689 C687 0.930 . S
H690 C713 0.931 . S
H691 C679 0.929 . S
H692 C714 0.930 . S
H693 C685 0.931 . S
H694 C675 0.930 . S
H695 C704 0.929 . S
H696 C680 0.931 . S
H697 C681 0.930 . S
H698 C736 0.930 . S
H699 C677 0.929 . S
H700 C705 0.931 . S
H701 C706 0.930 . S
N702 Gd682 2.622 . S
N702 C703 1.369 . S
N702 C704 1.338 . S
C703 N702 1.369 . S
C703 C707 1.415 . S
C703 C710 1.422 . S
C704 H695 0.929 . S
C704 N702 1.338 . S
C704 C706 1.378 . S
C705 H700 0.931 . S
C705 C706 1.348 . S
C705 C707 1.413 . S
C706 H701 0.930 . S
C706 C704 1.378 . S
C706 C705 1.348 . S
C707 C703 1.415 . S
C707 C705 1.413 . S
C707 C737 1.437 1_655 S
H708 C737 0.929 . S
N709 Gd682 2.570 . S
N709 C710 1.359 . S
N709 C713 1.343 . S
C710 C703 1.422 . S
C710 N709 1.359 . S
C710 C712 1.421 1_655 S
C711 C712 1.422 . S
C711 C714 1.321 . S
C711 H738 0.931 . S
C712 C710 1.421 1_455 S
C712 C711 1.422 . S
C712 C736 1.417 . S
C713 H690 0.931 . S
C713 N709 1.343 . S
C713 C714 1.390 1_655 S
C714 H692 0.930 . S
C714 C711 1.321 . S
C714 C713 1.390 1_455 S
O715 Gd683 2.386 . S
O715 C727 1.265 . S
O716 Gd682 2.353 . S
O716 C727 1.242 . S
O717 Gd682 2.468 . S
O717 C735 1.263 . S
O718 Gd682 2.427 . S
O718 C735 1.252 . S
O719 Gd683 2.307 . S
O719 C728 1.261 . S
O720 Gd682 2.388 . S
O720 C728 1.252 . S
O721 Gd682 2.386 . S
O721 C739 1.265 . S
O722 Gd683 2.353 . S
O722 C739 1.242 . S
O723 Gd683 2.468 . S
O723 C747 1.263 . S
O724 Gd683 2.427 . S
O724 C747 1.252 . S
O725 Gd682 2.307 . S
O725 C740 1.261 . S
O726 Gd683 2.388 . S
O726 C740 1.252 . S
C727 O715 1.265 . S
C727 O716 1.242 . S
C728 O719 1.261 . S
C728 O720 1.252 . S
C729 C732 1.394 . S
C729 C734 1.370 . S
C729 C735 1.500 1_554 S
C730 C733 1.383 . S
C730 C734 1.395 . S
C731 C732 1.396 . S
C731 C733 1.365 . S
C731 H748 0.929 . S
C732 C729 1.394 . S
C732 C731 1.396 . S
C732 H749 0.930 . S
C733 C730 1.383 . S
C733 C731 1.365 . S
C733 H750 0.931 . S
C734 C729 1.370 . S
C734 C730 1.395 . S
C734 H751 0.930 . S
C735 Gd682 2.805 . S
C735 O717 1.263 . S
C735 O718 1.252 . S
C735 C729 1.500 1_556 S
C736 H698 0.930 . S
C736 C712 1.417 . S
C736 C737 1.329 . S
C737 C707 1.437 1_455 S
C737 H708 0.929 . S
C737 C736 1.329 . S
H738 C711 0.931 . S
C739 O721 1.265 . S
C739 O722 1.242 . S
C740 O725 1.261 . S
C740 O726 1.252 . S
C741 C744 1.394 . S
C741 C746 1.370 . S
C741 C747 1.500 . S
C742 C745 1.383 . S
C742 C746 1.395 . S
C743 C744 1.396 . S
C743 C745 1.365 . S
C743 H752 0.929 . S
C744 C741 1.394 . S
C744 C743 1.396 . S
C744 H753 0.930 . S
C745 C742 1.383 . S
C745 C743 1.365 . S
C745 H754 0.931 . S
C746 C741 1.370 . S
C746 C742 1.395 . S
C746 H755 0.930 . S
C747 Gd683 2.805 . S
C747 O723 1.263 . S
C747 O724 1.252 . S
C747 C741 1.500 . S
H748 C731 0.929 . S
H749 C732 0.930 . S
H750 C733 0.931 . S
H751 C734 0.930 . S
H752 C743 0.929 . S
H753 C744 0.930 . S
H754 C745 0.931 . S
H755 C746 0.930 . S
C756 C757 1.387 . S
C756 H760 0.950 . S
C756 C765 1.390 . S
C757 C756 1.387 . S
C757 C759 1.387 . S
H758 C765 0.950 . S
C759 C757 1.387 . S
C759 C761 1.390 . S
C759 H763 0.950 . S
H760 C756 0.950 . S
C761 C759 1.390 . S
C761 C762 1.387 . S
C761 H764 0.950 . S
C762 C761 1.387 . S
C762 C765 1.387 . S
H763 C759 0.950 . S
H764 C761 0.950 . S
C765 C756 1.390 . S
C765 H758 0.950 . S
C765 C762 1.387 . S
C766 C767 1.387 . S
C766 H770 0.950 . S
C766 C775 1.390 . S
C767 C766 1.387 . S
C767 C769 1.387 . S
H768 C775 0.950 . S
C769 C767 1.387 . S
C769 C771 1.390 . S
C769 H773 0.950 . S
H770 C766 0.950 . S
C771 C769 1.390 . S
C771 C772 1.387 . S
C771 H774 0.950 . S
C772 C771 1.387 . S
C772 C775 1.387 . S
H773 C769 0.950 . S
H774 C771 0.950 . S
C775 C766 1.390 . S
C775 H768 0.950 . S
C775 C772 1.387 . S
C776 C777 1.387 . S
C776 H780 0.950 . S
C776 C785 1.390 . S
C777 C776 1.387 . S
C777 C779 1.387 . S
H778 C785 0.950 . S
C779 C777 1.387 . S
C779 C781 1.390 . S
C779 H783 0.950 . S
H780 C776 0.950 . S
C781 C779 1.390 . S
C781 C782 1.387 . S
C781 H784 0.950 . S
C782 C781 1.387 . S
C782 C785 1.387 . S
H783 C779 0.950 . S
H784 C781 0.950 . S
C785 C776 1.390 . S
C785 H778 0.950 . S
C785 C782 1.387 . S
C786 C787 1.387 . S
C786 H790 0.950 . S
C786 C795 1.390 . S
C787 C786 1.387 . S
C787 C789 1.387 . S
H788 C795 0.950 . S
C789 C787 1.387 . S
C789 C791 1.390 . S
C789 H793 0.950 . S
H790 C786 0.950 . S
C791 C789 1.390 . S
C791 C792 1.387 . S
C791 H794 0.950 . S
C792 C791 1.387 . S
C792 C795 1.387 . S
H793 C789 0.950 . S
H794 C791 0.950 . S
C795 C786 1.390 . S
C795 H788 0.950 . S
C795 C792 1.387 . S
C796 C797 1.387 . S
C796 H800 0.950 . S
C796 C805 1.390 . S
C797 C796 1.387 . S
C797 C799 1.387 . S
H798 C805 0.950 . S
C799 C797 1.387 . S
C799 C801 1.390 . S
C799 H803 0.950 . S
H800 C796 0.950 . S
C801 C799 1.390 . S
C801 C802 1.387 . S
C801 H804 0.950 . S
C802 C801 1.387 . S
C802 C805 1.387 . S
H803 C799 0.950 . S
H804 C801 0.950 . S
C805 C796 1.390 . S
C805 H798 0.950 . S
C805 C802 1.387 . S
C806 C807 1.387 . S
C806 H810 0.950 . S
C806 C815 1.390 . S
C807 C806 1.387 . S
C807 C809 1.387 . S
H808 C815 0.950 . S
C809 C807 1.387 . S
C809 C811 1.390 . S
C809 H813 0.950 . S
H810 C806 0.950 . S
C811 C809 1.390 . S
C811 C812 1.387 . S
C811 H814 0.950 . S
C812 C811 1.387 . S
C812 C815 1.387 . S
H813 C809 0.950 . S
H814 C811 0.950 . S
C815 C806 1.390 . S
C815 H808 0.950 . S
C815 C812 1.387 . S
C816 C817 1.387 . S
C816 H820 0.950 . S
C816 C825 1.390 . S
C817 C816 1.387 . S
C817 C819 1.387 . S
H818 C825 0.950 . S
C819 C817 1.387 . S
C819 C821 1.390 . S
C819 H823 0.950 . S
H820 C816 0.950 . S
C821 C819 1.390 . S
C821 C822 1.387 . S
C821 H824 0.950 . S
C822 C821 1.387 . S
C822 C825 1.387 . S
H823 C819 0.950 . S
H824 C821 0.950 . S
C825 C816 1.390 . S
C825 H818 0.950 . S
C825 C822 1.387 . S
C826 C827 1.387 . S
C826 H830 0.950 . S
C826 C835 1.390 . S
C827 C826 1.387 . S
C827 C829 1.387 . S
H828 C835 0.950 . S
C829 C827 1.387 . S
C829 C831 1.390 . S
C829 H833 0.950 . S
H830 C826 0.950 . S
C831 C829 1.390 . S
C831 C832 1.387 . S
C831 H834 0.950 . S
C832 C831 1.387 . S
C832 C835 1.387 . S
H833 C829 0.950 . S
H834 C831 0.950 . S
C835 C826 1.390 . S
C835 H828 0.950 . S
C835 C832 1.387 . S
C836 C837 1.387 . S
C836 H840 0.950 . S
C836 C845 1.390 . S
C837 C836 1.387 . S
C837 C839 1.387 . S
H838 C845 0.950 . S
C839 C837 1.387 . S
C839 C841 1.390 . S
C839 H843 0.950 . S
H840 C836 0.950 . S
C841 C839 1.390 . S
C841 C842 1.387 . S
C841 H844 0.950 . S
C842 C841 1.387 . S
C842 C845 1.387 . S
H843 C839 0.950 . S
H844 C841 0.950 . S
C845 C836 1.390 . S
C845 H838 0.950 . S
C845 C842 1.387 . S
C846 C847 1.387 . S
C846 H850 0.950 . S
C846 C855 1.390 . S
C847 C846 1.387 . S
C847 C849 1.387 . S
H848 C855 0.950 . S
C849 C847 1.387 . S
C849 C851 1.390 . S
C849 H853 0.950 . S
H850 C846 0.950 . S
C851 C849 1.390 . S
C851 C852 1.387 . S
C851 H854 0.950 . S
C852 C851 1.387 . S
C852 C855 1.387 . S
H853 C849 0.950 . S
H854 C851 0.950 . S
C855 C846 1.390 . S
C855 H848 0.950 . S
C855 C852 1.387 . S
C856 C857 1.387 . S
C856 H860 0.950 . S
C856 C865 1.390 . S
C857 C856 1.387 . S
C857 C859 1.387 . S
H858 C865 0.950 . S
C859 C857 1.387 . S
C859 C861 1.390 . S
C859 H863 0.943 1_554 S
H860 C856 0.950 . S
C861 C859 1.390 . S
C861 C862 1.387 . S
C861 H864 0.950 1_554 S
C862 C861 1.387 . S
C862 C865 1.387 . S
H863 C859 0.943 1_556 S
H864 C861 0.950 1_556 S
C865 C856 1.390 . S
C865 H858 0.950 . S
C865 C862 1.387 . S
C866 C867 1.387 . S
C866 H870 0.950 1_565 S
C866 C875 1.390 . S
C867 C866 1.387 . S
C867 C869 1.387 . S
H868 C875 0.950 . S
C869 C867 1.387 . S
C869 C871 1.390 . S
C869 H873 0.950 1_554 S
H870 C866 0.950 1_545 S
C871 C869 1.390 . S
C871 C872 1.387 . S
C871 H874 0.950 . S
C872 C871 1.387 . S
C872 C875 1.387 . S
H873 C869 0.950 1_556 S
H874 C871 0.950 . S
C875 C866 1.390 . S
C875 H868 0.950 . S
C875 C872 1.387 . S
C876 C877 1.387 . S
C876 H880 0.950 . S
C876 C885 1.390 . S
C877 C876 1.387 . S
C877 C879 1.387 . S
H878 C885 0.950 . S
C879 C877 1.387 . S
C879 C881 1.390 . S
C879 H883 0.950 . S
H880 C876 0.950 . S
C881 C879 1.390 . S
C881 C882 1.387 . S
C881 H884 0.950 . S
C882 C881 1.387 . S
C882 C885 1.387 . S
H883 C879 0.950 . S
H884 C881 0.950 . S
C885 C876 1.390 . S
C885 H878 0.950 . S
C885 C882 1.387 . S
C886 C887 1.387 . S
C886 H890 0.950 . S
C886 C895 1.390 . S
C887 C886 1.387 . S
C887 C889 1.387 . S
H888 C895 0.952 . S
C889 C887 1.387 . S
C889 C891 1.390 . S
C889 H893 0.950 . S
H890 C886 0.950 . S
C891 C889 1.390 . S
C891 C892 1.387 1_556 S
C891 H894 0.950 1_656 S
C892 C891 1.387 1_554 S
C892 C895 1.387 1_554 S
H893 C889 0.950 . S
H894 C891 0.950 1_454 S
C895 C886 1.390 . S
C895 H888 0.952 . S
C895 C892 1.387 1_556 S
C896 C897 1.387 . S
C896 H900 0.950 . S
C896 C905 1.390 . S
C897 C896 1.387 . S
C897 C899 1.387 . S
H898 C905 0.960 . S
C899 C897 1.387 . S
C899 C901 1.390 . S
C899 H903 0.950 . S
H900 C896 0.950 . S
C901 C899 1.390 . S
C901 C902 1.387 . S
C901 H904 0.950 . S
C902 C901 1.387 . S
C902 C905 1.387 . S
H903 C899 0.950 . S
H904 C901 0.950 . S
C905 C896 1.390 . S
C905 H898 0.960 . S
C905 C902 1.387 . S
C906 C907 1.387 . S
C906 H910 0.950 . S
C906 C915 1.390 . S
C907 C906 1.387 . S
C907 C909 1.387 . S
H908 C915 0.950 . S
C909 C907 1.387 . S
C909 C911 1.390 . S
C909 H913 0.950 . S
H910 C906 0.950 . S
C911 C909 1.390 . S
C911 C912 1.387 . S
C911 H914 0.950 1_556 S
C912 C911 1.387 . S
C912 C915 1.387 . S
H913 C909 0.950 . S
H914 C911 0.950 1_554 S
C915 C906 1.390 . S
C915 H908 0.950 . S
C915 C912 1.387 . S
C916 C917 1.387 . S
C916 H920 0.950 . S
C916 C925 1.390 . S
C917 C916 1.387 . S
C917 C919 1.387 . S
H918 C925 0.950 . S
C919 C917 1.387 . S
C919 C921 1.390 . S
C919 H923 0.950 1_556 S
H920 C916 0.950 . S
C921 C919 1.390 . S
C921 C922 1.387 . S
C921 H924 0.950 . S
C922 C921 1.387 . S
C922 C925 1.387 . S
H923 C919 0.950 1_554 S
H924 C921 0.950 . S
C925 C916 1.390 . S
C925 H918 0.950 . S
C925 C922 1.387 . S
C926 C927 1.387 . S
C926 H930 0.950 . S
C926 C935 1.390 . S
C927 C926 1.387 . S
C927 C929 1.387 . S
H928 C935 0.950 . S
C929 C927 1.387 . S
C929 C931 1.390 . S
C929 H933 0.950 . S
H930 C926 0.950 . S
C931 C929 1.390 . S
C931 C932 1.387 . S
C931 H934 0.950 . S
C932 C931 1.387 . S
C932 C935 1.387 . S
H933 C929 0.950 . S
H934 C931 0.950 . S
C935 C926 1.390 . S
C935 H928 0.950 . S
C935 C932 1.387 . S
C936 C937 1.387 . S
C936 H940 0.950 . S
C936 C945 1.390 . S
C937 C936 1.387 . S
C937 C939 1.387 1_554 S
H938 C945 0.950 . S
C939 C937 1.387 1_556 S
C939 C941 1.390 1_545 S
C939 H943 0.950 1_545 S
H940 C936 0.950 . S
C941 C939 1.390 1_565 S
C941 C942 1.387 1_556 S
C941 H944 0.950 . S
C942 C941 1.387 1_554 S
C942 C945 1.387 1_565 S
H943 C939 0.950 1_565 S
H944 C941 0.950 . S
C945 C936 1.390 . S
C945 H938 0.950 . S
C945 C942 1.387 1_545 S
C946 C947 1.387 . S
C946 H950 0.950 . S
C946 C955 1.390 . S
C947 C946 1.387 . S
C947 C949 1.387 . S
H948 C955 0.950 . S
C949 C947 1.387 . S
C949 C951 1.390 . S
C949 H953 0.950 . S
H950 C946 0.950 . S
C951 C949 1.390 . S
C951 C952 1.387 . S
C951 H954 0.950 . S
C952 C951 1.387 . S
C952 C955 1.387 . S
H953 C949 0.950 . S
H954 C951 0.950 . S
C955 C946 1.390 . S
C955 H948 0.950 . S
C955 C952 1.387 . S
C956 C957 1.387 . S
C956 H960 0.950 . S
C956 C965 1.390 . S
C957 C956 1.387 . S
C957 C959 1.387 . S
H958 C965 0.950 . S
C959 C957 1.387 . S
C959 C961 1.390 . S
C959 H963 0.950 . S
H960 C956 0.950 . S
C961 C959 1.390 . S
C961 C962 1.387 . S
C961 H964 0.950 . S
C962 C961 1.387 . S
C962 C965 1.387 . S
H963 C959 0.950 . S
H964 C961 0.950 . S
C965 C956 1.390 . S
C965 H958 0.950 . S
C965 C962 1.387 . S
C966 C967 1.387 . S
C966 H970 0.950 . S
C966 C975 1.390 . S
C967 C966 1.387 . S
C967 C969 1.387 . S
H968 C975 0.950 . S
C969 C967 1.387 . S
C969 C971 1.390 . S
C969 H973 0.950 . S
H970 C966 0.950 . S
C971 C969 1.390 . S
C971 C972 1.387 . S
C971 H974 0.950 . S
C972 C971 1.387 . S
C972 C975 1.387 . S
H973 C969 0.950 . S
H974 C971 0.950 . S
C975 C966 1.390 . S
C975 H968 0.950 . S
C975 C972 1.387 . S
C976 C977 1.387 . S
C976 H980 0.932 1_545 S
C976 C985 1.390 1_545 S
C977 C976 1.387 . S
C977 C979 1.387 . S
H978 C985 0.950 . S
C979 C977 1.387 . S
C979 C981 1.390 . S
C979 H983 0.950 . S
H980 C976 0.932 1_565 S
C981 C979 1.390 . S
C981 C982 1.387 1_545 S
C981 H984 0.950 . S
C982 C981 1.387 1_565 S
C982 C985 1.387 . S
H983 C979 0.950 . S
H984 C981 0.950 . S
C985 C976 1.390 1_565 S
C985 H978 0.950 . S
C985 C982 1.387 . S
C986 C987 1.387 . S
C986 H990 0.950 . S
C986 C995 1.390 . S
C987 C986 1.387 . S
C987 C989 1.387 . S
H988 C995 0.950 . S
C989 C987 1.387 . S
C989 C991 1.390 . S
C989 H993 0.950 . S
H990 C986 0.950 . S
C991 C989 1.390 . S
C991 C992 1.413 . S
C991 H994 0.950 . S
C992 C991 1.413 . S
C992 C995 1.400 . S
H993 C989 0.950 . S
H994 C991 0.950 . S
C995 C986 1.390 . S
C995 H988 0.950 . S
C995 C992 1.400 . S
C996 C997 1.387 . S
C996 H1000 0.950 . S
C996 C1005 1.390 . S
C997 C996 1.387 . S
C997 C999 1.387 . S
H998 C1005 0.950 . S
C999 C997 1.387 . S
C999 C1001 1.390 . S
C999 H1003 0.950 . S
H1000 C996 0.950 . S
C1001 C999 1.390 . S
C1001 C1002 1.387 . S
C1001 H1004 0.950 . S
C1002 C1001 1.387 . S
C1002 C1005 1.387 . S
H1003 C999 0.950 . S
H1004 C1001 0.950 . S
C1005 C996 1.390 . S
C1005 H998 0.950 . S
C1005 C1002 1.387 . S
C1006 C1007 1.387 1_545 S
C1006 H1010 0.950 1_545 S
C1006 C1015 1.390 . S
C1007 C1006 1.387 1_565 S
C1007 C1009 1.387 1_565 S
H1008 C1015 0.950 . S
C1009 C1007 1.387 1_545 S
C1009 C1011 1.390 . S
C1009 H1013 0.950 1_545 S
H1010 C1006 0.950 1_565 S
C1011 C1009 1.390 . S
C1011 C1012 1.387 . S
C1011 H1014 0.950 . S
C1012 C1011 1.387 . S
C1012 C1015 1.387 . S
H1013 C1009 0.950 1_565 S
H1014 C1011 0.950 . S
C1015 C1006 1.390 . S
C1015 H1008 0.950 . S
C1015 C1012 1.387 . S
C1016 C1017 1.387 . S
C1016 H1020 0.950 . S
C1016 C1025 1.392 . S
C1017 C1016 1.387 . S
C1017 C1019 1.387 . S
H1018 C1025 0.949 1_455 S
C1019 C1017 1.387 . S
C1019 C1021 1.390 . S
C1019 H1023 0.950 . S
H1020 C1016 0.950 . S
C1021 C1019 1.390 . S
C1021 C1022 1.387 . S
C1021 H1024 0.950 . S
C1022 C1021 1.387 . S
C1022 C1025 1.386 . S
H1023 C1019 0.950 . S
H1024 C1021 0.950 . S
C1025 C1016 1.392 . S
C1025 H1018 0.949 1_655 S
C1025 C1022 1.386 . S
C757 C68 3.551 . S
C762 C56 3.551 . S
C767 C140 3.577 . S
C772 C152 3.577 . S
C777 C236 3.606 . S
C782 C224 3.606 . S
C787 C308 3.551 . S
C792 C320 3.551 1_556 S
C797 C404 3.577 . S
C802 C392 3.577 1_556 S
C807 C476 3.605 . S
C812 C488 3.605 1_556 S
C817 C574 0.441 . S
C822 C562 0.441 . S
C827 C646 1.007 . S
C832 C658 1.007 . S
C837 C742 0.736 . S
C842 C730 0.736 . S
C847 C487 1.589 . S
C852 C70 1.276 . S
C857 C151 2.142 . S
C862 C319 2.142 . S
C867 C238 0.958 . S
C872 C406 0.975 . S
C877 C235 2.534 1_556 S
C882 C559 2.539 . S
C887 C644 1.671 . S
C892 C67 1.646 . S
C897 C727 1.346 . S
C902 C154 1.372 . S
C907 C740 1.090 . S
C912 C58 1.066 . S
C917 C139 2.091 1_556 S
C922 C572 2.110 . S
C927 C655 2.052 . S
C932 C226 2.034 . S
C937 C223 1.589 . S
C942 C310 1.273 . S
C947 C391 2.142 . S
C952 C55 2.141 . S
C957 C142 0.975 . S
C962 C478 0.961 . S
C967 C728 1.089 . S
C972 C322 1.064 . S
C977 C560 2.111 . S
C982 C403 2.092 . S
C987 C643 2.055 . S
C992 C490 1.999 1_655 S
C997 C571 2.539 . S
C1002 C475 2.534 . S
C1007 C307 1.643 . S
C1012 C656 1.671 . S
C1017 C739 1.345 . S
C1022 C394 1.372 1_655 S
