# Generated by pormake.
# Topology wmi, (6)-cn, num edge types: 1
# Building blocks:
#     Node 0, Type 0, BuildingBlock: PAMTOO_clean_sbu_0, # of connection points: 6
#     Node 1, Type 0, BuildingBlock: PAMTOO_clean_sbu_0, # of connection points: 6
#     Node 2, Type 0, BuildingBlock: PAMTOO_clean_sbu_0, # of connection points: 6
#     Node 3, Type 0, BuildingBlock: PAMTOO_clean_sbu_0, # of connection points: 6
#     Node 4, Type 0, BuildingBlock: PAMTOO_clean_sbu_0, # of connection points: 6
#     Node 5, Type 0, BuildingBlock: PAMTOO_clean_sbu_0, # of connection points: 6
#     Node 6, Type 0, BuildingBlock: PAMTOO_clean_sbu_0, # of connection points: 6
#     Node 7, Type 0, BuildingBlock: PAMTOO_clean_sbu_0, # of connection points: 6
#     Node 8, Type 0, BuildingBlock: PAMTOO_clean_sbu_0, # of connection points: 6
#     Node 9, Type 0, BuildingBlock: PAMTOO_clean_sbu_0, # of connection points: 6
#     Node 10, Type 0, BuildingBlock: PAMTOO_clean_sbu_0, # of connection points: 6
#     Node 11, Type 0, BuildingBlock: PAMTOO_clean_sbu_0, # of connection points: 6
#     Node 12, Type 0, BuildingBlock: PAMTOO_clean_sbu_0, # of connection points: 6
#     Node 13, Type 0, BuildingBlock: PAMTOO_clean_sbu_0, # of connection points: 6
#     Node 14, Type 0, BuildingBlock: PAMTOO_clean_sbu_0, # of connection points: 6
#     Node 15, Type 0, BuildingBlock: PAMTOO_clean_sbu_0, # of connection points: 6
#     Node 16, Type 0, BuildingBlock: PAMTOO_clean_sbu_0, # of connection points: 6
#     Node 17, Type 0, BuildingBlock: PAMTOO_clean_sbu_0, # of connection points: 6
#     Edge 18, Type (0, 0), BuildingBlock: XIVTED_clean_linker_0, # of connection points: 2
#     Edge 19, Type (0, 0), BuildingBlock: XIVTED_clean_linker_0, # of connection points: 2
#     Edge 20, Type (0, 0), BuildingBlock: XIVTED_clean_linker_0, # of connection points: 2
#     Edge 21, Type (0, 0), BuildingBlock: XIVTED_clean_linker_0, # of connection points: 2
#     Edge 22, Type (0, 0), BuildingBlock: XIVTED_clean_linker_0, # of connection points: 2
#     Edge 23, Type (0, 0), BuildingBlock: XIVTED_clean_linker_0, # of connection points: 2
#     Edge 24, Type (0, 0), BuildingBlock: XIVTED_clean_linker_0, # of connection points: 2
#     Edge 25, Type (0, 0), BuildingBlock: XIVTED_clean_linker_0, # of connection points: 2
#     Edge 26, Type (0, 0), BuildingBlock: XIVTED_clean_linker_0, # of connection points: 2
#     Edge 27, Type (0, 0), BuildingBlock: XIVTED_clean_linker_0, # of connection points: 2
#     Edge 28, Type (0, 0), BuildingBlock: XIVTED_clean_linker_0, # of connection points: 2
#     Edge 29, Type (0, 0), BuildingBlock: XIVTED_clean_linker_0, # of connection points: 2
#     Edge 30, Type (0, 0), BuildingBlock: XIVTED_clean_linker_0, # of connection points: 2
#     Edge 31, Type (0, 0), BuildingBlock: XIVTED_clean_linker_0, # of connection points: 2
#     Edge 32, Type (0, 0), BuildingBlock: XIVTED_clean_linker_0, # of connection points: 2
#     Edge 33, Type (0, 0), BuildingBlock: XIVTED_clean_linker_0, # of connection points: 2
#     Edge 34, Type (0, 0), BuildingBlock: XIVTED_clean_linker_0, # of connection points: 2
#     Edge 35, Type (0, 0), BuildingBlock: XIVTED_clean_linker_0, # of connection points: 2
#     Edge 36, Type (0, 0), BuildingBlock: XIVTED_clean_linker_0, # of connection points: 2
#     Edge 37, Type (0, 0), BuildingBlock: XIVTED_clean_linker_0, # of connection points: 2
#     Edge 38, Type (0, 0), BuildingBlock: XIVTED_clean_linker_0, # of connection points: 2
#     Edge 39, Type (0, 0), BuildingBlock: XIVTED_clean_linker_0, # of connection points: 2
#     Edge 40, Type (0, 0), BuildingBlock: XIVTED_clean_linker_0, # of connection points: 2
#     Edge 41, Type (0, 0), BuildingBlock: XIVTED_clean_linker_0, # of connection points: 2
#     Edge 42, Type (0, 0), BuildingBlock: XIVTED_clean_linker_0, # of connection points: 2
#     Edge 43, Type (0, 0), BuildingBlock: XIVTED_clean_linker_0, # of connection points: 2
#     Edge 44, Type (0, 0), BuildingBlock: XIVTED_clean_linker_0, # of connection points: 2
#     Edge 45, Type (0, 0), BuildingBlock: XIVTED_clean_linker_0, # of connection points: 2
#     Edge 46, Type (0, 0), BuildingBlock: XIVTED_clean_linker_0, # of connection points: 2
#     Edge 47, Type (0, 0), BuildingBlock: XIVTED_clean_linker_0, # of connection points: 2
#     Edge 48, Type (0, 0), BuildingBlock: XIVTED_clean_linker_0, # of connection points: 2
#     Edge 49, Type (0, 0), BuildingBlock: XIVTED_clean_linker_0, # of connection points: 2
#     Edge 50, Type (0, 0), BuildingBlock: XIVTED_clean_linker_0, # of connection points: 2
#     Edge 51, Type (0, 0), BuildingBlock: XIVTED_clean_linker_0, # of connection points: 2
#     Edge 52, Type (0, 0), BuildingBlock: XIVTED_clean_linker_0, # of connection points: 2
#     Edge 53, Type (0, 0), BuildingBlock: XIVTED_clean_linker_0, # of connection points: 2
#     Edge 54, Type (0, 0), BuildingBlock: XIVTED_clean_linker_0, # of connection points: 2
#     Edge 55, Type (0, 0), BuildingBlock: XIVTED_clean_linker_0, # of connection points: 2
#     Edge 56, Type (0, 0), BuildingBlock: XIVTED_clean_linker_0, # of connection points: 2
#     Edge 57, Type (0, 0), BuildingBlock: XIVTED_clean_linker_0, # of connection points: 2
#     Edge 58, Type (0, 0), BuildingBlock: XIVTED_clean_linker_0, # of connection points: 2
#     Edge 59, Type (0, 0), BuildingBlock: XIVTED_clean_linker_0, # of connection points: 2
#     Edge 60, Type (0, 0), BuildingBlock: XIVTED_clean_linker_0, # of connection points: 2
#     Edge 61, Type (0, 0), BuildingBlock: XIVTED_clean_linker_0, # of connection points: 2
#     Edge 62, Type (0, 0), BuildingBlock: XIVTED_clean_linker_0, # of connection points: 2
#     Edge 63, Type (0, 0), BuildingBlock: XIVTED_clean_linker_0, # of connection points: 2
#     Edge 64, Type (0, 0), BuildingBlock: XIVTED_clean_linker_0, # of connection points: 2
#     Edge 65, Type (0, 0), BuildingBlock: XIVTED_clean_linker_0, # of connection points: 2
#     Edge 66, Type (0, 0), BuildingBlock: XIVTED_clean_linker_0, # of connection points: 2
#     Edge 67, Type (0, 0), BuildingBlock: XIVTED_clean_linker_0, # of connection points: 2
#     Edge 68, Type (0, 0), BuildingBlock: XIVTED_clean_linker_0, # of connection points: 2
#     Edge 69, Type (0, 0), BuildingBlock: XIVTED_clean_linker_0, # of connection points: 2
#     Edge 70, Type (0, 0), BuildingBlock: XIVTED_clean_linker_0, # of connection points: 2
#     Edge 71, Type (0, 0), BuildingBlock: XIVTED_clean_linker_0, # of connection points: 2
# Relax obj value: 0.082
# Max RMSD: 0.206
# Mean RMSD: 0.206
data_MOF--net-wmi--node1-PAMTOO_clean_sbu_0--edge1-XIVTED_clean_linker_0
_symmetry_space_group_name_H-M    P1
_symmetry_Int_Tables_number       1
_symmetry_cell_setting            triclinic
loop_
_symmetry_equiv_pos_as_xyz
'x, y, z'
_cell_length_a     40.344251
_cell_length_b     40.308849
_cell_length_c     81.348161
_cell_angle_alpha  90.177974
_cell_angle_beta   89.747351
_cell_angle_gamma 119.79175
loop_
_atom_site_label
_atom_site_type_symbol
_atom_site_fract_x
_atom_site_fract_y
_atom_site_fract_z
_atom_type_partial_charge
Dy0 Dy 0.45939 1.00038 0.09029 0.0
Dy1 Dy 0.54799 0.05304 0.10431 0.0
C2 C 0.47483 0.02642 0.12643 0.0
O3 O 0.47586 0.06002 0.08204 0.0
O4 O 0.52924 0.09485 0.09832 0.0
O5 O 0.39998 0.96794 0.09696 0.0
O6 O 0.41671 0.97159 0.07138 0.0
O7 O 0.55055 0.05641 0.07673 0.0
O8 O 0.49851 0.99771 0.0717 0.0
O9 O 0.53885 0.99442 0.10212 0.0
O10 O 0.47327 0.95891 0.10265 0.0
O11 O 0.60624 0.06461 0.10505 0.0
O12 O 0.58917 0.09831 0.11991 0.0
C13 C 0.50285 0.09268 0.08823 0.0
O14 O 0.46047 0.03137 0.11297 0.0
O15 O 0.50725 0.02615 0.12567 0.0
C16 C 0.36415 0.91351 0.08095 0.0
C17 C 0.3149 0.83401 0.08447 0.0
C18 C 0.35477 0.84942 0.08444 0.0
C19 C 0.37919 0.88891 0.08276 0.0
C20 C 0.32453 0.89807 0.08016 0.0
C21 C 0.30013 0.85871 0.08186 0.0
C22 C 0.38897 0.95522 0.08208 0.0
C23 C 0.53071 0.02718 0.0669 0.0
C24 C 0.50714 0.96179 0.10382 0.0
C25 C 0.65309 0.12849 0.11001 0.0
C26 C 0.72272 0.19276 0.1002 0.0
C27 C 0.68777 0.18594 0.09344 0.0
C28 C 0.65326 0.15399 0.09825 0.0
C29 C 0.68775 0.13519 0.11678 0.0
C30 C 0.72221 0.16695 0.11194 0.0
C31 C 0.6175 0.09387 0.11484 0.0
H32 H 0.36707 0.83126 0.08651 0.0
H33 H 0.40976 0.90046 0.08351 0.0
H34 H 0.3124 0.91662 0.07886 0.0
H35 H 0.26958 0.84769 0.08153 0.0
H36 H 0.68713 0.20502 0.08426 0.0
H37 H 0.62678 0.14904 0.09274 0.0
H38 H 0.68819 0.11571 0.12582 0.0
H39 H 0.74842 0.17157 0.1176 0.0
Dy40 Dy 0.07006 0.47299 0.08778 0.0
Dy41 Dy 0.023 0.51441 0.10291 0.0
C42 C 0.05099 0.46867 0.12473 0.0
O43 O 1.00886 0.43212 0.08104 0.0
O44 O 0.97852 0.45398 0.09855 0.0
O45 O 0.10076 0.4438 0.09386 0.0
O46 O 0.09349 0.45385 0.06831 0.0
O47 O 1.01663 0.51245 0.07535 0.0
O48 O 0.07269 0.51389 0.06892 0.0
O49 O 0.0821 0.56176 0.09936 0.0
O50 O 0.11575 0.52946 0.09786 0.0
O51 O 1.0123 0.56175 0.10355 0.0
O52 O 0.98242 0.51448 0.12045 0.0
C53 C 0.97783 0.42833 0.08833 0.0
O54 O 0.04307 0.44736 0.11166 0.0
O55 O 0.05243 0.50188 0.12359 0.0
C56 C 0.15119 0.45617 0.07618 0.0
C57 C 0.23002 0.48126 0.07731 0.0
C58 C 0.20311 0.44214 0.07567 0.0
C59 C 0.16405 0.42974 0.07515 0.0
C60 C 0.17789 0.49536 0.07705 0.0
C61 C 0.21705 0.50785 0.07754 0.0
C62 C 0.11029 0.44229 0.07866 0.0
C63 C 0.04423 0.51911 0.06485 0.0
C64 C 0.11433 0.56128 0.09943 0.0
C65 C 0.95086 0.54798 0.11208 0.0
C66 C 0.88562 0.55516 0.10636 0.0
C67 C 0.89671 0.536 0.09498 0.0
C68 C 0.92906 0.53245 0.09782 0.0
C69 C 0.93976 0.56671 0.12351 0.0
C70 C 0.90748 0.57026 0.1207 0.0
C71 C 0.98614 0.54654 0.11493 0.0
H72 H 0.21221 0.421 0.07521 0.0
H73 H 0.14381 0.39936 0.07459 0.0
H74 H 0.16839 0.51613 0.07804 0.0
H75 H 0.23698 0.53812 0.07893 0.0
H76 H 0.88081 0.52434 0.08374 0.0
H77 H 0.93733 0.51805 0.0888 0.0
H78 H 0.95627 0.57888 0.13459 0.0
H79 H 0.89949 0.58458 0.12986 0.0
Dy80 Dy 0.59599 0.61334 0.08938 0.0
Dy81 Dy 0.55875 0.52521 0.10251 0.0
C82 C 0.58328 0.59626 0.12651 0.0
O83 O 0.64509 0.6048 0.09697 0.0
O84 O 0.61571 0.54022 0.09247 0.0
O85 O 0.63268 0.67364 0.09405 0.0
O86 O 0.60087 0.65453 0.07127 0.0
O87 O 0.54926 0.52273 0.07503 0.0
O88 O 0.60067 0.58087 0.06845 0.0
O89 O 0.51354 0.54103 0.10574 0.0
O90 O 0.53285 0.58448 0.08481 0.0
O91 O 0.51099 0.46762 0.1038 0.0
O92 O 0.56309 0.48247 0.11692 0.0
C93 C 0.64681 0.57325 0.09468 0.0
O94 O 0.57357 0.6108 0.11444 0.0
O95 O 0.58657 0.56575 0.12399 0.0
C96 C 0.60564 0.70926 0.0839 0.0
C97 C 0.57688 0.75881 0.09094 0.0
C98 C 0.55338 0.71905 0.09261 0.0
C99 C 0.5677 0.6945 0.08919 0.0
C100 C 0.62907 0.74878 0.08204 0.0
C101 C 0.61483 0.77338 0.08553 0.0
C102 C 0.62107 0.68352 0.08096 0.0
C103 C 0.57342 0.54685 0.06414 0.0
C104 C 0.50599 0.55995 0.09468 0.0
C105 C 0.52752 0.41867 0.1066 0.0
C106 C 0.52124 0.34789 0.09726 0.0
C107 C 0.49581 0.35904 0.091 0.0
C108 C 0.49889 0.39398 0.09562 0.0
C109 C 0.5528 0.40743 0.1129 0.0
C110 C 0.5498 0.37259 0.10826 0.0
C111 C 0.52981 0.45489 0.11221 0.0
H112 H 0.52421 0.70696 0.09691 0.0
H113 H 0.54928 0.664 0.09086 0.0
H114 H 0.65842 0.76063 0.07801 0.0
H115 H 0.63351 0.80384 0.08393 0.0
H116 H 0.47365 0.34087 0.08244 0.0
H117 H 0.47861 0.40148 0.09065 0.0
H118 H 0.57473 0.42538 0.1216 0.0
H119 H 0.56943 0.36465 0.11358 0.0
Dy120 Dy 1.01271 0.44865 0.92039 0.0
Dy121 Dy 0.06238 0.53748 0.90609 0.0
C122 C 0.0342 0.46407 0.8839 0.0
O123 O 0.07315 0.46732 0.92795 0.0
O124 O 0.10567 0.52006 0.91106 0.0
O125 O 0.98113 0.38922 0.91369 0.0
O126 O 0.98747 0.40549 0.93941 0.0
O127 O 0.06668 0.54052 0.93373 0.0
O128 O 1.0095 0.48676 0.9393 0.0
O129 O 1.00341 0.5269 0.9089 0.0
O130 O 0.96882 0.4611 0.90943 0.0
O131 O 0.0738 0.59571 0.9057 0.0
O132 O 0.10498 0.5784 0.88934 0.0
C133 C 0.10499 0.49445 0.92124 0.0
O134 O 0.04193 0.45078 0.89701 0.0
O135 O 0.03341 0.4962 0.88505 0.0
C136 C 0.92962 0.35133 0.93088 0.0
C137 C 0.85048 0.29916 0.92965 0.0
C138 C 0.86413 0.33878 0.92997 0.0
C139 C 0.90344 0.36468 0.9305 0.0
C140 C 0.91608 0.31193 0.93126 0.0
C141 C 0.87689 0.28606 0.93068 0.0
C142 C 0.97074 0.37772 0.92875 0.0
C143 C 0.03827 0.5197 0.94387 0.0
C144 C 0.97099 0.49468 0.90798 0.0
C145 C 0.1359 0.64335 0.89803 0.0
C146 C 0.19986 0.71593 0.90473 0.0
C147 C 0.1896 0.68494 0.9155 0.0
C148 C 0.15784 0.64898 0.91219 0.0
C149 C 0.14632 0.6739 0.88717 0.0
C150 C 0.17792 0.70978 0.89046 0.0
C151 C 0.10091 0.6067 0.89475 0.0
H152 H 0.84456 0.34977 0.92907 0.0
H153 H 0.91346 0.39507 0.93 0.0
H154 H 0.9359 0.30114 0.93143 0.0
H155 H 0.86726 0.25573 0.93069 0.0
H156 H 0.2056 0.68866 0.92666 0.0
H157 H 0.15008 0.62575 0.92079 0.0
H158 H 0.1297 0.67012 0.87618 0.0
H159 H 0.18529 0.73268 0.88174 0.0
Dy160 Dy 0.62584 0.59075 0.91806 0.0
Dy161 Dy 0.53757 0.55441 0.90534 0.0
C162 C 0.60789 0.57871 0.88091 0.0
O163 O 0.61775 0.64042 0.91085 0.0
O164 O 0.55328 0.61141 0.91565 0.0
O165 O 0.68632 0.62625 0.91325 0.0
O166 O 0.66665 0.59511 0.9362 0.0
O167 O 0.53551 0.54381 0.93273 0.0
O168 O 0.59362 0.59512 0.93916 0.0
O169 O 0.55328 0.50924 0.90147 0.0
O170 O 0.59632 0.52747 0.92244 0.0
O171 O 0.48022 0.50623 0.9038 0.0
O172 O 0.49436 0.55948 0.89174 0.0
C173 C 0.58644 0.6424 0.91342 0.0
O174 O 0.62295 0.56913 0.89282 0.0
O175 O 0.57756 0.58216 0.88368 0.0
C176 C 0.7213 0.59877 0.92388 0.0
C177 C 0.7705 0.56909 0.9177 0.0
C178 C 0.73065 0.54506 0.91722 0.0
C179 C 0.70627 0.55982 0.92019 0.0
C180 C 0.76094 0.62273 0.92455 0.0
C181 C 0.78534 0.60806 0.92148 0.0
C182 C 0.69578 0.61466 0.92648 0.0
C183 C 0.55998 0.56741 0.94365 0.0
C184 C 0.57192 0.50106 0.91241 0.0
C185 C 0.43098 0.52141 0.90157 0.0
C186 C 0.36046 0.51333 0.91214 0.0
C187 C 0.39506 0.54107 0.91927 0.0
C188 C 0.43001 0.54501 0.91406 0.0
C189 C 0.39664 0.49347 0.89458 0.0
C190 C 0.36174 0.48943 0.8998 0.0
C191 C 0.4673 0.52521 0.89567 0.0
H192 H 0.71834 0.51505 0.91418 0.0
H193 H 0.67567 0.5409 0.91945 0.0
H194 H 0.77303 0.65285 0.92734 0.0
H195 H 0.8159 0.62723 0.92214 0.0
H196 H 0.39513 0.55968 0.92892 0.0
H197 H 0.45624 0.56655 0.91972 0.0
H198 H 0.39683 0.47495 0.88495 0.0
H199 H 0.33582 0.46817 0.89386 0.0
Dy200 Dy 0.48381 0.0642 0.92473 0.0
Dy201 Dy 0.52107 0.01588 0.90752 0.0
C202 C 0.49181 0.06369 0.88682 0.0
O203 O 0.4353 1.00577 0.91783 0.0
O204 O 0.46779 0.97296 0.91989 0.0
O205 O 0.44192 0.08254 0.92346 0.0
O206 O 0.48181 0.10082 0.94375 0.0
O207 O 0.53725 0.02248 0.93432 0.0
O208 O 0.48948 0.03151 0.94521 0.0
O209 O 0.56491 0.07724 0.90457 0.0
O210 O 0.54753 0.10103 0.92656 0.0
O211 O 0.56908 1.00716 0.90288 0.0
O212 O 0.51437 0.97001 0.89153 0.0
C213 C 0.43554 0.97332 0.91928 0.0
O214 O 0.50136 0.08637 0.89952 0.0
O215 O 0.49022 0.03033 0.88803 0.0
C216 C 0.4671 0.14595 0.93292 0.0
C217 C 0.491 0.22387 0.92778 0.0
C218 C 0.49428 0.20178 0.91515 0.0
C219 C 0.48265 0.16327 0.91773 0.0
C220 C 0.46357 0.16776 0.94554 0.0
C221 C 0.47548 0.20644 0.94301 0.0
C222 C 0.45653 0.10585 0.93591 0.0
C223 C 0.51797 0.0249 0.94695 0.0
C224 C 0.57322 0.10362 0.91583 0.0
C225 C 0.5537 0.94292 0.89804 0.0
C226 C 0.56455 0.87958 0.90384 0.0
C227 C 0.52757 0.87498 0.90345 0.0
C228 C 0.52219 0.90626 0.90061 0.0
C229 C 0.59059 0.94763 0.89851 0.0
C230 C 0.59599 0.91643 0.90142 0.0
C231 C 0.54889 0.97626 0.89424 0.0
H232 H 0.5066 0.21447 0.90337 0.0
H233 H 0.48619 0.14714 0.90789 0.0
H234 H 0.4519 0.15497 0.95738 0.0
H235 H 0.47229 0.22264 0.95293 0.0
H236 H 0.50259 0.84704 0.90499 0.0
H237 H 0.49334 0.90156 0.90027 0.0
H238 H 0.61537 0.97556 0.89652 0.0
H239 H 0.62489 0.92131 0.90188 0.0
Dy240 Dy 0.1123 0.34013 0.42504 0.0
Dy241 Dy 0.20296 0.39047 0.43649 0.0
C242 C 0.13354 0.36556 0.46059 0.0
O243 O 0.12866 0.39967 0.41693 0.0
O244 O 0.18566 0.43389 0.43103 0.0
O245 O 0.05493 0.30798 0.43439 0.0
O246 O 0.06505 0.31328 0.40801 0.0
O247 O 0.20276 0.39096 0.40878 0.0
O248 O 0.14638 0.33498 0.40479 0.0
O249 O 0.1925 0.33139 0.43407 0.0
O250 O 0.12683 0.29705 0.43526 0.0
O251 O 0.26078 0.40089 0.43588 0.0
O252 O 0.2463 0.43532 0.4516 0.0
C253 C 0.15755 0.43218 0.42224 0.0
O254 O 0.11951 0.37323 0.44776 0.0
O255 O 0.16471 0.36332 0.45866 0.0
C256 C 1.01454 0.25477 0.41853 0.0
C257 C 0.96597 0.17466 0.41989 0.0
C258 C 0.95302 0.19977 0.42494 0.0
C259 C 0.97697 0.23928 0.42419 0.0
C260 C 0.0279 0.23012 0.41346 0.0
C261 C 1.00374 0.19037 0.41406 0.0
C262 C 0.04021 0.2963 0.41984 0.0
C263 C 0.17969 0.36182 0.39944 0.0
C264 C 0.16041 0.29903 0.43556 0.0
C265 C 0.3096 0.4652 0.44021 0.0
C266 C 0.38018 0.53014 0.43148 0.0
C267 C 0.37111 0.49344 0.42605 0.0
C268 C 0.33636 0.4614 0.43041 0.0
C269 C 0.31855 0.50187 0.44561 0.0
C270 C 0.35335 0.53393 0.44127 0.0
C271 C 0.27375 0.4307 0.44548 0.0
H272 H 0.92457 0.18897 0.42993 0.0
H273 H 0.96643 0.25782 0.42851 0.0
H274 H 0.05714 0.24157 0.40932 0.0
H275 H 1.01468 0.17202 0.40999 0.0
H276 H 0.39081 0.4894 0.41837 0.0
H277 H 0.33062 0.43353 0.42619 0.0
H278 H 0.29891 0.50583 0.45338 0.0
H279 H 0.35958 0.56162 0.44594 0.0
Dy280 Dy 0.72804 0.81152 0.42358 0.0
Dy281 Dy 0.67855 0.85183 0.43659 0.0
C282 C 0.7052 0.8075 0.45973 0.0
O283 O 0.66783 0.76975 0.41583 0.0
O284 O 0.63492 0.79127 0.43195 0.0
O285 O 0.75897 0.78357 0.43113 0.0
O286 O 0.75369 0.79214 0.40516 0.0
O287 O 0.67444 0.8487 0.40895 0.0
O288 O 0.73179 0.85154 0.40404 0.0
O289 O 0.73705 0.89954 0.43271 0.0
O290 O 0.77196 0.86871 0.43396 0.0
O291 O 0.66719 0.89871 0.436 0.0
O292 O 0.63673 0.85236 0.4533 0.0
C293 C 0.63583 0.76566 0.4222 0.0
O294 O 0.69771 0.78572 0.44687 0.0
O295 O 0.70786 0.84111 0.45797 0.0
C296 C 0.81118 0.79621 0.41447 0.0
C297 C 0.88973 0.82006 0.41571 0.0
C298 C 0.87644 0.84497 0.42053 0.0
C299 C 0.83752 0.83314 0.4199 0.0
C300 C 0.82433 0.77185 0.40899 0.0
C301 C 0.8633 0.78369 0.40953 0.0
C302 C 0.76998 0.78162 0.41623 0.0
C303 C 0.70335 0.85597 0.39914 0.0
C304 C 0.76965 0.9002 0.43421 0.0
C305 C 0.606 0.88659 0.44442 0.0
C306 C 0.54217 0.89656 0.43913 0.0
C307 C 0.55387 0.87948 0.42698 0.0
C308 C 0.58553 0.87451 0.42961 0.0
C309 C 0.59441 0.90352 0.4565 0.0
C310 C 0.56299 0.90853 0.4539 0.0
C311 C 0.64081 0.8842 0.44731 0.0
H312 H 0.89583 0.87299 0.4255 0.0
H313 H 0.82779 0.85225 0.42429 0.0
H314 H 0.80436 0.74322 0.40478 0.0
H315 H 0.87261 0.76405 0.40541 0.0
H316 H 0.53837 0.86964 0.41553 0.0
H317 H 0.5942 0.86153 0.42008 0.0
H318 H 0.6101 0.91345 0.46792 0.0
H319 H 0.55542 0.92244 0.46341 0.0
Dy320 Dy 0.2495 0.95072 0.4191 0.0
Dy321 Dy 0.22736 0.86926 0.43782 0.0
C322 C 0.24852 0.94588 0.45893 0.0
O323 O 0.2985 0.9389 0.416 0.0
O324 O 0.28867 0.91133 0.44111 0.0
O325 O 0.28805 1.01102 0.41507 0.0
O326 O 0.23608 0.9812 0.40088 0.0
O327 O 0.23325 0.86152 0.41069 0.0
O328 O 0.21647 0.90446 0.40129 0.0
O329 O 0.17249 0.86586 0.43068 0.0
O330 O 0.19225 0.9299 0.43072 0.0
O331 O 0.18892 0.81594 0.45026 0.0
O332 O 0.24674 0.82993 0.44413 0.0
C333 C 0.3112 0.92808 0.4286 0.0
O334 O 0.25903 0.96633 0.44542 0.0
O335 O 0.23321 0.90822 0.45903 0.0
C336 C 0.25342 0.04318 0.40979 0.0
C337 C 0.22691 0.09403 0.41837 0.0
C338 C 0.23795 0.0769 0.4306 0.0
C339 C 0.25087 0.05161 0.42636 0.0
C340 C 0.24263 0.06032 0.39754 0.0
C341 C 0.22945 0.08548 0.40178 0.0
C342 C 0.26427 0.01432 0.40529 0.0
C343 C 0.2198 0.87418 0.39908 0.0
C344 C 0.1649 0.89398 0.43099 0.0
C345 C 0.19979 0.7645 0.44337 0.0
C346 C 0.18119 0.68994 0.43321 0.0
C347 C 0.20007 0.72122 0.42246 0.0
C348 C 0.20912 0.75807 0.42745 0.0
C349 C 0.17972 0.7332 0.45391 0.0
C350 C 0.17036 0.69625 0.44887 0.0
C351 C 0.21346 0.80378 0.44956 0.0
H352 H 0.23591 0.08248 0.44349 0.0
H353 H 0.25839 0.03824 0.43606 0.0
H354 H 0.24399 0.0539 0.3847 0.0
H355 H 0.22157 0.09851 0.39206 0.0
H356 H 0.20838 0.7173 0.41025 0.0
H357 H 0.22439 0.78169 0.41902 0.0
H358 H 0.17233 0.73748 0.46625 0.0
H359 H 0.15609 0.67291 0.45751 0.0
Dy360 Dy 0.68032 0.77475 0.25595 0.0
Dy361 Dy 0.73202 0.86109 0.24015 0.0
C362 C 0.68447 0.78645 0.21822 0.0
O363 O 0.7386 0.78311 0.24968 0.0
O364 O 0.77228 0.84789 0.25322 0.0
O365 O 0.65698 0.7138 0.25286 0.0
O366 O 0.64503 0.73603 0.27501 0.0
O367 O 0.72215 0.86925 0.26684 0.0
O368 O 0.71148 0.81156 0.27708 0.0
O369 O 0.67131 0.8455 0.23627 0.0
O370 O 0.64475 0.80323 0.25765 0.0
O371 O 0.74155 0.91791 0.23532 0.0
O372 O 0.78118 0.90097 0.22589 0.0
C373 C 0.77121 0.81495 0.25206 0.0
O374 O 0.66063 0.77318 0.23053 0.0
O375 O 0.71847 0.81683 0.22011 0.0
C376 C 0.59527 0.67837 0.26424 0.0
C377 C 0.51692 0.62566 0.25968 0.0
C378 C 0.53032 0.66522 0.25954 0.0
C379 C 0.56917 0.69133 0.2617 0.0
C380 C 0.58205 0.63899 0.26443 0.0
C381 C 0.54324 0.61285 0.26214 0.0
C382 C 0.63634 0.70569 0.2662 0.0
C383 C 0.71768 0.84642 0.27925 0.0
C384 C 0.64378 0.82733 0.24705 0.0
C385 C 0.80574 0.96675 0.23192 0.0
C386 C 0.86696 0.04047 0.23957 0.0
C387 C 0.85694 1.00936 0.25025 0.0
C388 C 0.82657 0.97285 0.24647 0.0
C389 C 0.81544 0.9976 0.22131 0.0
C390 C 0.84567 0.03403 0.22507 0.0
C391 C 0.77365 0.92876 0.22757 0.0
H392 H 0.51089 0.67601 0.25745 0.0
H393 H 0.57884 0.72167 0.26129 0.0
H394 H 0.60178 0.62846 0.2663 0.0
H395 H 0.53376 0.58257 0.26246 0.0
H396 H 0.87237 0.01327 0.26161 0.0
H397 H 0.81934 0.94941 0.25488 0.0
H398 H 0.79969 0.99346 0.21002 0.0
H399 H 0.85283 0.05701 0.21642 0.0
Dy400 Dy 0.29822 0.92195 0.25678 0.0
Dy401 Dy 0.21178 0.88464 0.24126 0.0
C402 C 0.2869 0.91219 0.21917 0.0
O403 O 0.28848 0.9705 0.2495 0.0
O404 O 0.22383 0.93904 0.2533 0.0
O405 O 0.35841 0.9624 0.25437 0.0
O406 O 0.33733 0.9251 0.27561 0.0
O407 O 0.20534 0.86822 0.26812 0.0
O408 O 0.26128 0.91871 0.27747 0.0
O409 O 0.22895 0.84047 0.23759 0.0
O410 O 0.27105 0.85808 0.25905 0.0
O411 O 0.15481 0.83675 0.23777 0.0
O412 O 0.17122 0.89116 0.22627 0.0
C413 C 0.25633 0.97099 0.25168 0.0
O414 O 0.30054 0.90266 0.23164 0.0
O415 O 0.25542 0.91421 0.22088 0.0
C416 C 0.39613 0.9372 0.26449 0.0
C417 C 0.44857 0.91077 0.26022 0.0
C418 C 0.42359 0.90721 0.24746 0.0
C419 C 0.39747 0.9201 0.24961 0.0
C420 C 0.42118 0.9411 0.27719 0.0
C421 C 0.44715 0.92794 0.27509 0.0
C422 C 0.36731 0.94894 0.26716 0.0
C423 C 0.22795 0.88853 0.28025 0.0
C424 C 0.24747 0.83218 0.24858 0.0
C425 C 0.10553 0.85214 0.234 0.0
C426 C 0.03167 0.84123 0.24081 0.0
C427 C 0.03802 0.80993 0.24015 0.0
C428 C 0.07443 0.81533 0.23673 0.0
C429 C 0.09941 0.88355 0.23482 0.0
C430 C 0.06295 0.87815 0.23818 0.0
C431 C 0.14332 0.85678 0.22947 0.0
H432 H 0.42364 0.89368 0.23595 0.0
H433 H 0.378 0.91626 0.23971 0.0
H434 H 0.42037 0.95396 0.28879 0.0
H435 H 0.46627 0.93141 0.28509 0.0
H436 H 1.01488 0.78116 0.24233 0.0
H437 H 0.07819 0.79055 0.23608 0.0
H438 H 0.12263 0.9123 0.23265 0.0
H439 H 0.05918 0.90293 0.23832 0.0
Dy440 Dy 0.15029 0.39109 0.2572 0.0
Dy441 Dy 0.18642 0.34194 0.23989 0.0
C442 C 0.15679 0.38942 0.21904 0.0
O443 O 0.10071 0.33325 0.25031 0.0
O444 O 0.1323 0.29939 0.25189 0.0
O445 O 0.11016 0.41174 0.25632 0.0
O446 O 0.15003 0.42788 0.27656 0.0
O447 O 0.20287 0.34966 0.26672 0.0
O448 O 0.15295 0.35536 0.27718 0.0
O449 O 0.23009 0.40302 0.23625 0.0
O450 O 0.21428 0.42683 0.25868 0.0
O451 O 0.2342 0.33269 0.2356 0.0
O452 O 0.17948 0.29525 0.22435 0.0
C453 C 0.10036 0.30044 0.25149 0.0
O454 O 0.16621 0.41218 0.23173 0.0
O455 O 0.15594 0.35637 0.22019 0.0
C456 C 0.13757 0.47502 0.26625 0.0
C457 C 0.16377 0.55367 0.26168 0.0
C458 C 0.16846 0.53207 0.24922 0.0
C459 C 0.15568 0.4932 0.25152 0.0
C460 C 0.13272 0.49635 0.2787 0.0
C461 C 0.14576 0.53537 0.27646 0.0
C462 C 0.12548 0.43442 0.26892 0.0
C463 C 0.18168 0.34929 0.27916 0.0
C464 C 0.23926 0.42944 0.24755 0.0
C465 C 0.21834 0.26793 0.23157 0.0
C466 C 0.22882 0.20461 0.23831 0.0
C467 C 0.26012 0.24209 0.238 0.0
C468 C 0.25495 0.27326 0.23462 0.0
C469 C 0.18694 0.23056 0.23197 0.0
C470 C 0.19213 0.19934 0.23529 0.0
C471 C 0.21386 0.30131 0.22727 0.0
H472 H 0.18267 0.54537 0.23779 0.0
H473 H 0.16028 0.47743 0.24183 0.0
H474 H 0.11907 0.48289 0.2902 0.0
H475 H 0.14144 0.55115 0.28624 0.0
H476 H 0.28872 0.24747 0.24048 0.0
H477 H 0.27974 0.30166 0.23429 0.0
H478 H 0.15835 0.22527 0.22954 0.0
H479 H 0.16736 0.17094 0.23515 0.0
Dy480 Dy 0.77859 0.6663 0.74922 0.0
Dy481 Dy 0.8651 0.71854 0.76395 0.0
C482 C 0.79197 0.67213 0.78678 0.0
O483 O 0.78643 0.72446 0.75557 0.0
O484 O 0.85099 0.75884 0.75146 0.0
O485 O 0.71778 0.64166 0.75309 0.0
O486 O 0.73923 0.63045 0.73052 0.0
O487 O 0.87211 0.70891 0.73709 0.0
O488 O 0.81372 0.69768 0.72771 0.0
O489 O 0.84951 0.65798 0.76839 0.0
O490 O 0.80745 0.63108 0.74713 0.0
O491 O 0.92171 0.7273 0.76826 0.0
O492 O 0.90591 0.76778 0.77783 0.0
C493 C 0.81796 0.75737 0.75309 0.0
O494 O 0.77837 0.64763 0.77474 0.0
O495 O 0.82204 0.70611 0.78442 0.0
C496 C 0.68405 0.57956 0.74211 0.0
C497 C 0.63579 0.49999 0.74596 0.0
C498 C 0.67468 0.51736 0.75012 0.0
C499 C 0.69857 0.55679 0.74823 0.0
C500 C 0.64528 0.56259 0.73818 0.0
C501 C 0.62133 0.52319 0.74011 0.0
C502 C 0.70936 0.62086 0.73979 0.0
C503 C 0.84848 0.70415 0.725 0.0
C504 C 0.83146 0.6302 0.75776 0.0
C505 C 0.97157 0.79086 0.7721 0.0
C506 C 0.04596 0.85221 0.76609 0.0
C507 C 1.01589 0.84474 0.75525 0.0
C508 C 0.97887 0.81429 0.75826 0.0
C509 C 1.00169 0.79755 0.78259 0.0
C510 C 0.03845 0.82784 0.77963 0.0
C511 C 0.93307 0.75938 0.77609 0.0
H512 H 0.68685 0.50041 0.75453 0.0
H513 H 0.7285 0.5695 0.7514 0.0
H514 H 0.63355 0.57979 0.73358 0.0
H515 H 0.59138 0.51094 0.73709 0.0
H516 H 0.02071 0.86312 0.74477 0.0
H517 H 0.95592 0.80937 0.74997 0.0
H518 H 0.99667 0.77953 0.79323 0.0
H519 H 0.06104 0.83239 0.78807 0.0
Dy520 Dy 0.39434 0.13757 0.75661 0.0
Dy521 Dy 0.34825 0.18 0.77135 0.0
C522 C 0.38014 0.13907 0.79371 0.0
O523 O 0.33251 0.09494 0.75145 0.0
O524 O 0.30505 0.11831 0.76972 0.0
O525 O 0.42586 0.10942 0.76311 0.0
O526 O 0.41827 0.11813 0.73746 0.0
O527 O 0.33658 0.17235 0.74412 0.0
O528 O 0.39218 0.17371 0.73664 0.0
O529 O 0.40465 0.22643 0.76318 0.0
O530 O 0.43963 0.19594 0.7652 0.0
O531 O 0.33822 0.22784 0.77183 0.0
O532 O 0.30842 0.1813 0.78898 0.0
C533 C 0.30292 0.09118 0.76 0.0
O534 O 0.37034 0.11569 0.78128 0.0
O535 O 0.3819 0.17227 0.7917 0.0
C536 C 0.47663 0.12198 0.74553 0.0
C537 C 0.55583 0.14835 0.74634 0.0
C538 C 0.54225 0.17446 0.74633 0.0
C539 C 0.50292 0.16135 0.74601 0.0
C540 C 0.49009 0.096 0.74477 0.0
C541 C 0.52931 0.10902 0.74515 0.0
C542 C 0.43555 0.10753 0.74799 0.0
C543 C 0.36288 0.178 0.73307 0.0
C544 C 0.43746 0.22727 0.76356 0.0
C545 C 0.27704 0.21486 0.78044 0.0
C546 C 0.21158 0.22179 0.77476 0.0
C547 C 0.22185 0.20133 0.76373 0.0
C548 C 0.2543 0.19793 0.76653 0.0
C549 C 0.26682 0.23497 0.79152 0.0
C550 C 0.23446 0.23842 0.78873 0.0
C551 C 0.31227 0.21325 0.7833 0.0
H552 H 0.56188 0.20488 0.74737 0.0
H553 H 0.49302 0.18185 0.7468 0.0
H554 H 0.47022 0.06551 0.74451 0.0
H555 H 0.53885 0.08821 0.74489 0.0
H556 H 0.20517 0.18848 0.75276 0.0
H557 H 0.26188 0.18246 0.75778 0.0
H558 H 0.28405 0.24824 0.80232 0.0
H559 H 0.22716 0.25381 0.79763 0.0
Dy560 Dy 0.92322 0.28109 0.75557 0.0
Dy561 Dy 0.88461 0.19487 0.77143 0.0
C562 C 0.91249 0.27058 0.79329 0.0
O563 O 0.9718 0.27248 0.76396 0.0
O564 O 0.94112 0.2072 0.76171 0.0
O565 O 0.96264 0.34163 0.7576 0.0
O566 O 0.92678 0.31899 0.73603 0.0
O567 O 0.87352 0.18874 0.74401 0.0
O568 O 0.92635 0.24439 0.73612 0.0
O569 O 0.84114 0.21314 0.7741 0.0
O570 O 0.85968 0.25286 0.75182 0.0
O571 O 0.8356 0.13819 0.7741 0.0
O572 O 0.88817 0.15312 0.78686 0.0
C573 C 0.97269 0.24024 0.76296 0.0
O574 O 0.90367 0.28431 0.7806 0.0
O575 O 0.91319 0.23829 0.79195 0.0
C576 C 0.93753 0.37826 0.74612 0.0
C577 C 0.91119 0.43115 0.74881 0.0
C578 C 0.90621 0.4063 0.76188 0.0
C579 C 0.91905 0.37996 0.76051 0.0
C580 C 0.94269 0.40305 0.73308 0.0
C581 C 0.92957 0.42923 0.73439 0.0
C582 C 0.94981 0.34958 0.74434 0.0
C583 C 0.89794 0.21042 0.73261 0.0
C584 C 0.83325 0.23041 0.76239 0.0
C585 C 0.84948 0.08802 0.77825 0.0
C586 C 0.83862 0.01444 0.77059 0.0
C587 C 0.80722 0.02041 0.77227 0.0
C588 C 0.81261 0.05667 0.7761 0.0
C589 C 0.88099 0.08232 0.77644 0.0
C590 C 0.87561 0.046 0.77268 0.0
C591 C 0.8541 0.12576 0.78291 0.0
H592 H 0.89173 0.40672 0.77305 0.0
H593 H 0.91422 0.36068 0.77064 0.0
H594 H 0.95664 0.40197 0.72184 0.0
H595 H 0.93413 0.44823 0.72418 0.0
H596 H 0.77836 0.99711 0.77052 0.0
H597 H 0.78779 0.06017 0.77746 0.0
H598 H 0.90982 0.1058 0.77808 0.0
H599 H 0.90051 0.04256 0.77175 0.0
Dy600 Dy 0.34125 0.11183 0.58652 0.0
Dy601 Dy 0.39167 0.20258 0.57515 0.0
C602 C 0.36565 0.13355 0.55103 0.0
O603 O 0.40071 0.12854 0.59501 0.0
O604 O 0.43468 0.18467 0.58022 0.0
O605 O 0.31301 0.0546 0.5769 0.0
O606 O 0.31124 0.06382 0.60312 0.0
O607 O 0.3925 0.20167 0.60282 0.0
O608 O 0.33645 0.14543 0.60708 0.0
O609 O 0.33279 0.19213 0.57779 0.0
O610 O 0.29842 0.12649 0.57601 0.0
O611 O 0.40326 0.2608 0.5763 0.0
O612 O 0.43574 0.24571 0.55964 0.0
C613 C 0.43318 0.15714 0.58941 0.0
O614 O 0.37453 0.12027 0.56376 0.0
O615 O 0.3638 0.1649 0.55298 0.0
C616 C 0.25609 1.01257 0.59036 0.0
C617 C 0.17669 0.96339 0.58605 0.0
C618 C 0.20348 0.95699 0.57753 0.0
C619 C 0.24257 0.98106 0.57977 0.0
C620 C 0.22967 0.01943 0.59887 0.0
C621 C 0.1903 0.99492 0.5968 0.0
C622 C 0.29764 0.03929 0.59099 0.0
C623 C 0.36364 0.17863 0.61233 0.0
C624 C 0.30053 0.16018 0.57582 0.0
C625 C 0.46763 0.30879 0.57114 0.0
C626 C 0.53412 0.37876 0.57897 0.0
C627 C 0.49916 0.36825 0.58682 0.0
C628 C 0.46632 0.33376 0.58293 0.0
C629 C 0.5026 0.31918 0.56335 0.0
C630 C 0.53544 0.35366 0.56725 0.0
C631 C 0.43225 0.27345 0.56623 0.0
H632 H 0.19438 0.93375 0.56881 0.0
H633 H 0.26239 0.97559 0.57286 0.0
H634 H 0.23935 0.0439 0.60696 0.0
H635 H 0.17061 1.00061 0.60367 0.0
H636 H 0.49713 0.38666 0.59601 0.0
H637 H 0.43979 0.32692 0.58906 0.0
H638 H 0.50451 0.30096 0.55402 0.0
H639 H 0.56169 0.36108 0.56073 0.0
Dy640 Dy 0.95406 0.25347 0.58752 0.0
Dy641 Dy 0.8662 0.21601 0.5738 0.0
C642 C 0.93867 0.24091 0.55035 0.0
O643 O 0.94573 0.30241 0.57939 0.0
O644 O 0.88111 0.27307 0.58375 0.0
O645 O 1.01457 0.28984 0.58314 0.0
O646 O 0.99451 0.25803 0.60591 0.0
O647 O 0.86306 0.20603 0.60129 0.0
O648 O 0.92058 0.25782 0.60811 0.0
O649 O 0.88282 0.1713 0.57073 0.0
O650 O 0.9245 0.19039 0.59228 0.0
O651 O 0.80906 0.16752 0.57189 0.0
O652 O 0.82329 0.2206 0.55969 0.0
C653 C 0.91415 0.30413 0.58146 0.0
O654 O 0.95225 0.23076 0.56263 0.0
O655 O 0.90766 0.24361 0.55248 0.0
C656 C 0.04967 0.2625 0.59372 0.0
C657 C 0.09947 0.23365 0.58723 0.0
C658 C 0.05971 0.20977 0.58594 0.0
C659 C 0.03504 0.22413 0.58907 0.0
C660 C 0.0892 0.28628 0.59523 0.0
C661 C 0.1139 0.27202 0.59201 0.0
C662 C 0.02386 0.27806 0.59635 0.0
C663 C 0.88686 0.22984 0.61236 0.0
C664 C 0.90109 0.16375 0.5821 0.0
C665 C 0.75935 0.18199 0.56896 0.0
C666 C 0.68771 0.17268 0.57877 0.0
C667 C 0.72176 0.20026 0.58636 0.0
C668 C 0.75722 0.20481 0.58153 0.0
C669 C 0.72557 0.15431 0.56147 0.0
C670 C 0.69016 0.14966 0.56631 0.0
C671 C 0.79624 0.18625 0.56351 0.0
H672 H 0.04771 0.18025 0.58213 0.0
H673 H 1.00455 0.20539 0.58768 0.0
H674 H 0.10099 0.31597 0.59876 0.0
H675 H 0.14435 0.29104 0.5933 0.0
H676 H 0.721 0.21821 0.59612 0.0
H677 H 0.78296 0.22616 0.58757 0.0
H678 H 0.7266 0.13638 0.55176 0.0
H679 H 0.66476 0.12856 0.56 0.0
Dy680 Dy 0.816 0.72717 0.58355 0.0
Dy681 Dy 0.85394 0.67854 0.56705 0.0
C682 C 0.80718 0.70744 0.54659 0.0
O683 O 0.77544 0.66642 0.59109 0.0
O684 O 0.79368 0.63512 0.57239 0.0
O685 O 0.78566 0.75752 0.57915 0.0
O686 O 0.80224 0.75303 0.60397 0.0
O687 O 0.85326 0.67154 0.59456 0.0
O688 O 0.85919 0.72944 0.60102 0.0
O689 O 0.90215 0.73696 0.57074 0.0
O690 O 0.87105 0.77163 0.57189 0.0
O691 O 0.90188 0.66899 0.56484 0.0
O692 O 0.85135 0.63587 0.55003 0.0
C693 C 0.76994 0.63505 0.58353 0.0
O694 O 0.78735 0.70039 0.56009 0.0
O695 O 0.84028 0.70855 0.54692 0.0
C696 C 0.80615 0.81122 0.59596 0.0
C697 C 0.83396 0.89055 0.59601 0.0
C698 C 0.85239 0.87503 0.58672 0.0
C699 C 0.83872 0.83575 0.58675 0.0
C700 C 0.78852 0.82668 0.60578 0.0
C701 C 0.80247 0.86619 0.60588 0.0
C702 C 0.78917 0.7696 0.59427 0.0
C703 C 0.86256 0.69983 0.60499 0.0
C704 C 0.90245 0.76956 0.57024 0.0
C705 C 0.88773 0.60631 0.558 0.0
C706 C 0.89657 0.54199 0.56424 0.0
C707 C 0.85992 0.53819 0.56335 0.0
C708 C 0.85554 0.57001 0.5603 0.0
C709 C 0.92422 0.61017 0.55887 0.0
C710 C 0.92863 0.5785 0.562 0.0
C711 C 0.88446 0.64063 0.55459 0.0
H712 H 0.87697 0.89323 0.57916 0.0
H713 H 0.85282 0.82443 0.57912 0.0
H714 H 0.76333 0.80814 0.61294 0.0
H715 H 0.78768 0.87748 0.61309 0.0
H716 H 0.83452 0.51051 0.56478 0.0
H717 H 0.82701 0.56614 0.55971 0.0
H718 H 0.94949 0.63789 0.55717 0.0
H719 H 0.95727 0.58281 0.56287 0.0
H720 H 0.56507 0.95828 0.11882 0.0
H721 H 0.50701 0.75137 0.08347 0.0
H722 H 0.4589 0.88779 0.09354 0.0
H723 H 0.61318 0.82604 0.10802 0.0
H724 H 0.48492 0.79683 0.08963 0.0
H725 H 0.57848 0.90579 0.11807 0.0
C726 C 0.54427 0.93145 0.11329 0.0
C727 C 0.511 0.92751 0.10607 0.0
C728 C 0.51293 0.8031 0.09375 0.0
C729 C 0.52656 0.86723 0.10486 0.0
C730 C 0.52554 0.77715 0.09028 0.0
C731 C 0.5622 0.78513 0.09507 0.0
C732 C 0.53713 0.83718 0.10214 0.0
C733 C 0.58504 0.81905 0.10378 0.0
C734 C 0.55201 0.90147 0.11282 0.0
C735 C 0.48488 0.89201 0.09924 0.0
N736 N 0.5722 0.8438 0.10695 0.0
N737 N 0.49348 0.86332 0.09857 0.0
H738 H 0.25295 0.80406 0.10483 0.0
H739 H 0.18481 0.58452 0.08515 0.0
H740 H 0.31748 0.77043 0.07331 0.0
H741 H 0.12353 0.62409 0.11552 0.0
H742 H 0.2377 0.65093 0.08292 0.0
H743 H 0.20872 0.73718 0.11071 0.0
C744 C 0.25769 0.78252 0.09904 0.0
C745 C 0.28865 0.79294 0.08833 0.0
C746 C 0.21287 0.64488 0.09025 0.0
C747 C 0.23801 0.71565 0.0952 0.0
C748 C 0.18288 0.60699 0.09165 0.0
C749 C 0.14965 0.59888 0.10042 0.0
C750 C 0.20944 0.67456 0.09777 0.0
C751 C 0.14843 0.62909 0.10847 0.0
C752 C 0.23253 0.7442 0.10252 0.0
C753 C 0.2939 0.76367 0.0816 0.0
N754 N 0.17763 0.66543 0.10685 0.0
N755 N 0.26862 0.72629 0.08503 0.0
H756 H 0.26014 0.44809 0.09692 0.0
H757 H 0.47832 0.59423 0.0739 0.0
H758 H 0.29339 0.5434 0.06405 0.0
H759 H 0.44244 0.50643 0.11096 0.0
H760 H 0.41137 0.57655 0.06979 0.0
H761 H 0.32725 0.46887 0.10158 0.0
C762 C 0.28159 0.47325 0.09055 0.0
C763 C 0.27105 0.49382 0.07995 0.0
C764 C 0.41824 0.56133 0.07887 0.0
C765 C 0.34835 0.51823 0.08543 0.0
C766 C 0.45646 0.5714 0.08123 0.0
C767 C 0.46608 0.5517 0.09275 0.0
C768 C 0.38946 0.5312 0.08803 0.0
C769 C 0.4365 0.52244 0.10193 0.0
C770 C 0.31999 0.48532 0.09333 0.0
C771 C 0.30022 0.52675 0.07236 0.0
N772 N 0.39963 0.51299 0.0993 0.0
N773 N 0.33756 0.53786 0.07519 0.0
H774 H 0.89796 0.44696 0.91968 0.0
H775 H 0.83482 0.60173 0.89864 0.0
H776 H 0.96548 0.55047 0.89202 0.0
H777 H 0.76552 0.50174 0.9281 0.0
H778 H 0.87941 0.57862 0.89365 0.0
H779 H 0.8451 0.46103 0.92013 0.0
C780 C 0.90135 0.47213 0.91342 0.0
C781 C 0.93624 0.49781 0.90596 0.0
C782 C 0.85441 0.56152 0.90117 0.0
C783 C 0.87644 0.51425 0.90655 0.0
C784 C 0.82904 0.5749 0.9041 0.0
C785 C 0.79665 0.55394 0.91399 0.0
C786 C 0.84768 0.52693 0.90824 0.0
C787 C 0.79016 0.51883 0.92041 0.0
C788 C 0.87135 0.48032 0.91378 0.0
C789 C 0.93926 0.53015 0.89811 0.0
N790 N 0.81565 0.50658 0.91756 0.0
N791 N 0.90997 0.53755 0.89872 0.0
H792 H 0.4795 0.25719 0.90074 0.0
H793 H 0.59706 0.47058 0.93614 0.0
H794 H 0.53235 0.28423 0.94858 0.0
H795 H 0.52726 0.44012 0.89253 0.0
H796 H 0.57888 0.40338 0.93964 0.0
H797 H 0.50171 0.32502 0.89636 0.0
C798 C 0.49593 0.27744 0.9103 0.0
C799 C 0.50401 0.265 0.92507 0.0
C800 C 0.56765 0.41145 0.92928 0.0
C801 C 0.52948 0.34277 0.92016 0.0
C802 C 0.57814 0.44985 0.92723 0.0
C803 C 0.56352 0.46104 0.91406 0.0
C804 C 0.54255 0.38404 0.91803 0.0
C805 C 0.5391 0.43285 0.90291 0.0
C806 C 0.50846 0.31615 0.90783 0.0
C807 C 0.52506 0.29249 0.9371 0.0
N808 N 0.52936 0.3957 0.90517 0.0
N809 N 0.53714 0.33008 0.93437 0.0
H810 H 0.60287 0.16463 0.93724 0.0
H811 H 0.81849 0.23716 0.90926 0.0
H812 H 0.63483 0.11535 0.89727 0.0
H813 H 0.7884 0.29854 0.94426 0.0
H814 H 0.75092 0.19171 0.90526 0.0
H815 H 0.67004 0.21391 0.94027 0.0
C816 C 0.62388 0.1643 0.92902 0.0
C817 C 0.61309 0.13564 0.91701 0.0
C818 C 0.75897 0.2151 0.91381 0.0
C819 C 0.69004 0.19176 0.92053 0.0
C820 C 0.79763 0.24092 0.91621 0.0
C821 C 0.80918 0.27153 0.92723 0.0
C822 C 0.73138 0.21963 0.92256 0.0
C823 C 0.78076 0.27542 0.93561 0.0
C824 C 0.66224 0.19244 0.93078 0.0
C825 C 0.64166 0.13673 0.90672 0.0
N826 N 0.74316 0.24964 0.93317 0.0
N827 N 0.67873 0.16411 0.90879 0.0
H828 H 0.25631 0.15066 0.44161 0.0
H829 H 0.11064 0.22727 0.42353 0.0
H830 H 0.16651 0.09907 0.40556 0.0
H831 H 0.21757 0.29147 0.44915 0.0
H832 H 0.12315 0.17358 0.42095 0.0
H833 H 0.23509 0.19619 0.44842 0.0
C834 C 0.23188 0.14867 0.43522 0.0
C835 C 0.21333 0.1211 0.42292 0.0
C836 C 0.14357 0.19929 0.42732 0.0
C837 C 0.18891 0.17343 0.43062 0.0
C838 C 0.13627 0.22972 0.42893 0.0
C839 C 0.16324 0.26389 0.43648 0.0
C840 C 0.17781 0.20305 0.4335 0.0
C841 C 0.19618 0.26575 0.44311 0.0
C842 C 0.21987 0.17481 0.43906 0.0
C843 C 0.18203 0.12021 0.41495 0.0
N844 N 0.20259 0.2359 0.44141 0.0
N845 N 0.17084 0.14604 0.41891 0.0
H846 H 0.88907 0.13444 0.41413 0.0
H847 H 0.84476 0.92296 0.42549 0.0
H848 H 0.98322 0.11814 0.42808 0.0
H849 H 0.7727 0.96545 0.4444 0.0
H850 H 0.89668 0.98984 0.42191 0.0
H851 H 0.84535 0.06699 0.41911 0.0
C852 C 0.90067 0.11681 0.41829 0.0
C853 C 0.93996 0.13248 0.42108 0.0
C854 C 0.86956 0.98414 0.42706 0.0
C855 C 0.88971 0.05452 0.42638 0.0
C856 C 0.84009 0.94614 0.42919 0.0
C857 C 0.80412 0.93861 0.43499 0.0
C858 C 0.86242 0.01422 0.43053 0.0
C859 C 0.79959 0.96975 0.43955 0.0
C860 C 0.87563 0.0782 0.42106 0.0
C861 C 0.95318 0.10744 0.42581 0.0
N862 N 0.82805 1.006 0.43697 0.0
N863 N 0.92805 0.06957 0.42837 0.0
H864 H 0.1368 0.94281 0.4259 0.0
H865 H 0.91853 0.77496 0.42623 0.0
H866 H 0.1009 0.82385 0.43415 0.0
H867 H 0.95397 0.89036 0.41092 0.0
H868 H 0.98515 0.7935 0.43078 0.0
H869 H 0.06983 0.92547 0.4225 0.0
C870 C 0.11487 0.91311 0.42714 0.0
C871 C 0.12454 0.88472 0.43027 0.0
C872 C 0.97841 0.81479 0.42639 0.0
C873 C 0.04792 0.86472 0.42629 0.0
C874 C 0.94031 0.80413 0.42364 0.0
C875 C 0.93049 0.83104 0.41805 0.0
C876 C 1.00712 0.85273 0.42361 0.0
C877 C 0.96009 0.8687 0.41535 0.0
C878 C 0.07666 0.90323 0.42511 0.0
C879 C 0.09488 0.8467 0.43168 0.0
N880 N 0.99705 0.87842 0.41816 0.0
N881 N 0.05799 0.83784 0.42966 0.0
H882 H 0.46562 0.86981 0.28207 0.0
H883 H 0.62786 0.86946 0.22541 0.0
H884 H 0.49322 0.91857 0.23339 0.0
H885 H 0.58778 0.80521 0.27055 0.0
H886 H 0.57881 0.88778 0.22814 0.0
H887 H 0.5109 0.8467 0.2783 0.0
C888 C 0.48133 0.87578 0.27061 0.0
C889 C 0.47574 0.89629 0.25805 0.0
C890 C 0.58056 0.86947 0.23739 0.0
C891 C 0.52743 0.86968 0.2536 0.0
C892 C 0.60859 0.85897 0.23585 0.0
C893 C 0.61209 0.83586 0.24781 0.0
C894 C 0.55599 0.85709 0.25107 0.0
C895 C 0.58618 0.82307 0.26103 0.0
C896 C 0.50696 0.86234 0.26842 0.0
C897 C 0.49642 0.90264 0.24335 0.0
N898 N 0.55943 0.83409 0.26237 0.0
N899 N 0.52148 0.88957 0.24157 0.0
H900 H 0.26934 0.79996 0.27287 0.0
H901 H 0.15726 0.58926 0.23423 0.0
H902 H 0.20682 0.77294 0.22726 0.0
H903 H 0.20233 0.61256 0.28353 0.0
H904 H 0.18068 0.65748 0.23039 0.0
H905 H 0.25089 0.73253 0.2758 0.0
C906 C 0.25206 0.77997 0.26339 0.0
C907 C 0.23951 0.79219 0.24983 0.0
C908 C 0.18549 0.64771 0.24205 0.0
C909 C 0.21814 0.71489 0.25316 0.0
C910 C 0.17227 0.60876 0.24423 0.0
C911 C 0.17776 0.59512 0.25924 0.0
C912 C 0.20461 0.6734 0.25494 0.0
C913 C 0.19703 0.62173 0.27183 0.0
C914 C 0.24137 0.74143 0.26512 0.0
C915 C 0.21704 0.76488 0.23797 0.0
N916 N 0.20981 0.65957 0.26939 0.0
N917 N 0.20704 0.72758 0.23993 0.0
H918 H 0.48512 0.56131 0.24046 0.0
H919 H 0.26982 0.49207 0.26804 0.0
H920 H 0.45482 0.62676 0.27305 0.0
H921 H 0.30033 0.43906 0.2291 0.0
H922 H 0.33714 0.54133 0.27044 0.0
H923 H 0.41735 0.51536 0.23675 0.0
C924 C 0.46419 0.56594 0.24689 0.0
C925 C 0.4757 0.59786 0.25714 0.0
C926 C 0.32901 0.51903 0.26131 0.0
C927 C 0.39787 0.5454 0.25288 0.0
C928 C 0.29057 0.49089 0.25992 0.0
C929 C 0.27931 0.46125 0.24838 0.0
C930 C 0.35647 0.51735 0.25118 0.0
C931 C 0.30754 0.46128 0.23819 0.0
C932 C 0.42546 0.53983 0.24468 0.0
C933 C 0.44724 0.6027 0.26495 0.0
N934 N 0.34474 0.48868 0.23991 0.0
N935 N 0.40967 0.57665 0.26273 0.0
H936 H 0.87212 0.61418 0.78007 0.0
H937 H 0.87294 0.44891 0.7258 0.0
H938 H 0.81004 0.57365 0.73454 0.0
H939 H 0.91757 0.47658 0.77511 0.0
H940 H 0.85086 0.49534 0.7284 0.0
H941 H 0.88956 0.56437 0.77827 0.0
C942 C 0.86195 0.59468 0.76973 0.0
C943 C 0.83968 0.59825 0.7574 0.0
C944 C 0.86535 0.49115 0.73867 0.0
C945 C 0.85989 0.54119 0.7552 0.0
C946 C 0.87821 0.46486 0.73715 0.0
C947 C 0.89723 0.45892 0.75025 0.0
C948 C 0.87185 0.51196 0.75333 0.0
C949 C 0.90276 0.47998 0.76476 0.0
C950 C 0.87193 0.56619 0.76871 0.0
C951 C 0.82725 0.572 0.74432 0.0
N952 N 0.89032 0.50566 0.76588 0.0
N953 N 0.83777 0.54476 0.7435 0.0
H954 H 0.57982 0.45216 0.72477 0.0
H955 H 0.50971 0.26056 0.77738 0.0
H956 H 0.63416 0.45145 0.77026 0.0
H957 H 0.44231 0.27808 0.7411 0.0
H958 H 0.56241 0.32635 0.77221 0.0
H959 H 0.53583 0.38401 0.72789 0.0
C960 C 0.58244 0.43773 0.73547 0.0
C961 C 0.61037 0.45786 0.74741 0.0
C962 C 0.53611 0.31548 0.76534 0.0
C963 C 0.56019 0.37923 0.75096 0.0
C964 C 0.50628 0.27804 0.76821 0.0
C965 C 0.47162 0.26428 0.7598 0.0
C966 C 0.53113 0.33856 0.75376 0.0
C967 C 0.4684 0.28787 0.74805 0.0
C968 C 0.55743 0.39868 0.7372 0.0
C969 C 0.61308 0.43715 0.76075 0.0
N970 N 0.49764 0.32373 0.74541 0.0
N971 N 0.58809 0.39896 0.76224 0.0
H972 H 0.58757 0.11749 0.76635 0.0
H973 H 0.80422 0.26069 0.74008 0.0
H974 H 0.61825 0.20988 0.73211 0.0
H975 H 0.77075 0.18058 0.7803 0.0
H976 H 0.73695 0.24237 0.73623 0.0
H977 H 0.65505 0.13931 0.77057 0.0
C978 C 0.60853 0.14223 0.7596 0.0
C979 C 0.59714 0.16166 0.74874 0.0
C980 C 0.74445 0.22903 0.74595 0.0
C981 C 0.67492 0.18726 0.75369 0.0
C982 C 0.78285 0.23948 0.74817 0.0
C983 C 0.79326 0.2221 0.76051 0.0
C984 C 0.71627 0.2008 0.75606 0.0
C985 C 0.76425 0.19479 0.77061 0.0
C986 C 0.64716 0.15491 0.76213 0.0
C987 C 0.62574 0.19411 0.74063 0.0
N988 N 0.72721 0.18488 0.76809 0.0
N989 N 0.66333 0.20579 0.7432 0.0
H990 H 0.16555 0.26907 0.56936 0.0
H991 H 0.22665 0.11091 0.58618 0.0
H992 H 0.09359 0.16479 0.59585 0.0
H993 H 0.29631 0.21831 0.56144 0.0
H994 H 0.17385 0.12512 0.58703 0.0
H995 H 0.21049 0.24662 0.56391 0.0
C996 C 0.15926 0.24144 0.57409 0.0
C997 C 0.12599 0.21905 0.58327 0.0
C998 C 0.20057 0.14526 0.58123 0.0
C999 C 0.17744 0.19279 0.57696 0.0
C1000 C 0.23053 0.137 0.58062 0.0
C1001 C 0.26596 0.16367 0.57388 0.0
C1002 C 0.20626 0.18025 0.57495 0.0
C1003 C 0.26963 0.19717 0.56696 0.0
C1004 C 0.18484 0.22845 0.57088 0.0
C1005 C 0.11891 0.183 0.58871 0.0
N1006 N 0.24037 0.20458 0.56779 0.0
N1007 N 0.1446 0.17111 0.58561 0.0
H1008 H 0.8476 0.94267 0.62056 0.0
H1009 H 0.87054 0.10637 0.55935 0.0
H1010 H 0.84719 0.9314 0.5678 0.0
H1011 H 0.915 0.13122 0.60877 0.0
H1012 H 0.85591 0.04027 0.56285 0.0
H1013 H 0.86636 1.01037 0.61721 0.0
C1014 C 0.8515 0.9545 0.6083 0.0
C1015 C 0.84604 0.9316 0.59443 0.0
C1016 C 0.86906 0.06025 0.57289 0.0
C1017 C 0.86702 1.00842 0.59052 0.0
C1018 C 0.87732 0.09794 0.57092 0.0
C1019 C 0.894 0.12429 0.58379 0.0
C1020 C 0.87692 0.04864 0.58793 0.0
C1021 C 0.90229 0.11183 0.59851 0.0
C1022 C 0.86236 0.99305 0.6064 0.0
C1023 C 0.85154 0.94823 0.57881 0.0
N1024 N 0.89334 0.07474 0.60024 0.0
N1025 N 0.86146 0.98555 0.57727 0.0
H1026 H 0.14 0.88597 0.58127 0.0
H1027 H 0.92646 0.84186 0.58292 0.0
H1028 H 0.11765 0.97997 0.58543 0.0
H1029 H 0.96539 0.77567 0.5556 0.0
H1030 H 0.99365 0.89282 0.58616 0.0
H1031 H 0.07312 0.84349 0.5752 0.0
C1032 C 0.12118 0.8979 0.58078 0.0
C1033 C 0.13497 0.93697 0.58356 0.0
C1034 C 0.98718 0.86735 0.57922 0.0
C1035 C 0.05741 0.88772 0.57698 0.0
C1036 C 0.94895 0.83848 0.57726 0.0
C1037 C 0.94045 0.8043 0.56918 0.0
C1038 C 1.01659 0.86147 0.57318 0.0
C1039 C 0.97065 0.80123 0.56218 0.0
C1040 C 0.08281 0.87347 0.57735 0.0
C1041 C 0.10843 0.95009 0.58341 0.0
N1042 N 1.00725 0.82907 0.56455 0.0
N1043 N 0.07081 0.92547 0.58018 0.0
H1044 H 0.57444 0.09018 0.04783 0.0
H1045 H 0.52342 0.96919 0.96413 0.0
H1046 H 0.51169 0.96689 0.04631 0.0
H1047 H 0.54276 0.08412 0.96783 0.0
H1048 H 0.53736 0.97095 0.99375 0.0
H1049 H 0.58194 0.09107 0.01787 0.0
C1050 C 0.56302 0.06333 0.04125 0.0
C1051 C 0.54191 0.02844 0.0495 0.0
C1052 C 0.5392 0.99597 0.98796 0.0
C1053 C 0.55035 0.02923 0.01536 0.0
C1054 C 0.53142 0.99498 0.97113 0.0
C1055 C 0.53173 0.02645 0.96376 0.0
C1056 C 0.54785 0.02888 0.9972 0.0
C1057 C 0.54198 0.05921 0.97323 0.0
C1058 C 0.56712 0.06384 0.02417 0.0
C1059 C 0.52765 0.99445 0.04036 0.0
N1060 N 0.5495 0.05956 0.98948 0.0
N1061 N 0.53182 0.99567 0.02376 0.0
H1062 H 0.10063 0.56873 0.96235 0.0
H1063 H 0.98152 0.50662 0.04677 0.0
H1064 H 0.97834 0.49565 0.96515 0.0
H1065 H 0.10384 0.55592 0.04361 0.0
H1066 H 0.97987 0.5159 0.01702 0.0
H1067 H 0.10203 0.57776 0.99225 0.0
C1068 C 0.07403 0.5552 0.96919 0.0
C1069 C 0.03942 0.53097 0.96129 0.0
C1070 C 1.00711 0.52515 0.02291 0.0
C1071 C 0.04076 0.54101 0.99542 0.0
C1072 C 1.00805 0.52004 0.03989 0.0
C1073 C 0.04277 0.52999 0.04761 0.0
C1074 C 0.04116 0.54062 0.01368 0.0
C1075 C 0.07634 0.54725 0.0381 0.0
C1076 C 0.07484 0.56018 0.98626 0.0
C1077 C 1.00578 0.51411 0.97078 0.0
N1078 N 0.07467 0.55172 0.02164 0.0
N1079 N 1.00733 0.51917 0.98733 0.0
H1080 H 0.50648 0.50213 0.95998 0.0
H1081 H 0.62873 0.57444 0.04098 0.0
H1082 H 0.59839 0.61736 0.96813 0.0
H1083 H 0.50697 0.50191 0.0468 0.0
H1084 H 0.62014 0.57507 0.01144 0.0
H1085 H 0.5061 0.48967 0.98976 0.0
C1086 C 0.52597 0.52494 0.96801 0.0
C1087 C 0.55289 0.56069 0.96152 0.0
C1088 C 0.59529 0.5586 0.01915 0.0
C1089 C 0.55328 0.54626 0.99509 0.0
C1090 C 0.60018 0.55801 0.03599 0.0
C1091 C 0.56845 0.5386 0.04635 0.0
C1092 C 0.55841 0.53968 0.01251 0.0
C1093 C 0.53214 0.5173 0.03917 0.0
C1094 C 0.52587 0.5177 0.9849 0.0
C1095 C 0.57759 0.58916 0.97246 0.0
N1096 N 0.52792 0.51879 0.02259 0.0
N1097 N 0.57756 0.58113 0.98859 0.0
H1098 H 0.23358 0.4181 0.37929 0.0
H1099 H 0.14482 0.28894 0.29966 0.0
H1100 H 0.14865 0.29827 0.38023 0.0
H1101 H 0.23958 0.40394 0.29721 0.0
H1102 H 0.15221 0.28987 0.3295 0.0
H1103 H 0.24249 0.41243 0.34968 0.0
C1104 C 0.21725 0.39055 0.37335 0.0
C1105 C 0.18983 0.35881 0.38218 0.0
C1106 C 0.17201 0.31472 0.32248 0.0
C1107 C 0.19976 0.3521 0.34845 0.0
C1108 C 0.16791 0.31397 0.30545 0.0
C1109 C 0.192 0.34615 0.29611 0.0
C1110 C 0.19967 0.34839 0.33025 0.0
C1111 C 0.22093 0.37834 0.3041 0.0
C1112 C 0.2223 0.38731 0.35646 0.0
C1113 C 0.16956 0.32375 0.37388 0.0
N1114 N 0.22364 0.37892 0.32079 0.0
N1115 N 0.17466 0.32147 0.35752 0.0
H1116 H 0.76506 0.90107 0.38015 0.0
H1117 H 0.65643 0.80743 0.2987 0.0
H1118 H 0.64222 0.83326 0.37846 0.0
H1119 H 0.76779 0.90824 0.2979 0.0
H1120 H 0.64993 0.81866 0.32775 0.0
H1121 H 0.76663 0.90744 0.35025 0.0
C1122 C 0.73833 0.88812 0.37347 0.0
C1123 C 0.70345 0.86626 0.38173 0.0
C1124 C 0.67556 0.83877 0.32122 0.0
C1125 C 0.70513 0.87281 0.3475 0.0
C1126 C 0.67935 0.83225 0.30469 0.0
C1127 C 0.71281 0.85682 0.29606 0.0
C1128 C 0.70592 0.86955 0.32934 0.0
C1129 C 0.74161 0.88869 0.30423 0.0
C1130 C 0.73927 0.89185 0.35641 0.0
C1131 C 0.66969 0.85032 0.37255 0.0
N1132 N 0.73784 0.89377 0.32057 0.0
N1133 N 0.67141 0.85322 0.35586 0.0
H1134 H 0.1593 0.85511 0.29711 0.0
H1135 H 0.26079 0.84974 0.38081 0.0
H1136 H 0.2783 0.8886 0.30187 0.0
H1137 H 0.16123 0.86305 0.37942 0.0
H1138 H 0.25652 0.84075 0.35084 0.0
H1139 H 0.14996 0.83684 0.32643 0.0
C1140 C 0.18322 0.85817 0.30427 0.0
C1141 C 0.21976 0.87423 0.29728 0.0
C1142 C 0.23504 0.84465 0.35719 0.0
C1143 C 0.20926 0.85256 0.33033 0.0
C1144 C 0.23729 0.84939 0.37427 0.0
C1145 C 0.21162 0.8576 0.38245 0.0
C1146 C 0.20677 0.84788 0.34841 0.0
C1147 C 0.18185 0.85724 0.37343 0.0
C1148 C 0.17794 0.84772 0.32091 0.0
C1149 C 0.24986 0.87725 0.30696 0.0
N1150 N 0.18049 0.85302 0.35684 0.0
N1151 N 0.24399 0.86669 0.32298 0.0
H1152 H 0.80459 0.64807 0.70387 0.0
H1153 H 0.91091 0.75824 0.62479 0.0
H1154 H 0.91407 0.75084 0.7074 0.0
H1155 H 0.83517 0.63625 0.6245 0.0
H1156 H 0.91534 0.75651 0.65474 0.0
H1157 H 0.81652 0.64303 0.6748 0.0
C1158 C 0.83133 0.6695 0.69847 0.0
C1159 C 0.85823 0.70019 0.70791 0.0
C1160 C 0.89851 0.72999 0.64811 0.0
C1161 C 0.87194 0.69484 0.67458 0.0
C1162 C 0.89592 0.73093 0.63104 0.0
C1163 C 0.8724 0.69733 0.62222 0.0
C1164 C 0.87659 0.69535 0.65646 0.0
C1165 C 0.85365 0.66275 0.63085 0.0
C1166 C 0.83826 0.66642 0.68192 0.0
C1167 C 0.89261 0.72687 0.70045 0.0
N1168 N 0.85545 0.66276 0.64756 0.0
N1169 N 0.89821 0.72405 0.68407 0.0
H1170 H 0.42164 0.23233 0.63151 0.0
H1171 H 0.29853 0.15695 0.7145 0.0
H1172 H 0.30205 0.14694 0.63295 0.0
H1173 H 0.42155 0.2224 0.71271 0.0
H1174 H 0.29698 0.16542 0.68462 0.0
H1175 H 0.41958 0.2411 0.66125 0.0
C1176 C 0.39486 0.21586 0.63802 0.0
C1177 C 0.36218 0.1884 0.62978 0.0
C1178 C 0.32426 0.17842 0.69085 0.0
C1179 C 0.35956 0.19823 0.66376 0.0
C1180 C 0.32509 0.17379 0.70787 0.0
C1181 C 0.3602 0.18849 0.71596 0.0
C1182 C 0.35879 0.19816 0.682 0.0
C1183 C 0.39387 0.21002 0.70684 0.0
C1184 C 0.3937 0.22078 0.655 0.0
C1185 C 0.32816 0.16795 0.63885 0.0
N1186 N 0.39235 0.21391 0.69035 0.0
N1187 N 0.32782 0.17302 0.65535 0.0
H1188 H 0.83132 0.16499 0.6283 0.0
H1189 H 0.95242 0.22979 0.70944 0.0
H1190 H 0.92576 0.27851 0.6372 0.0
H1191 H 0.83004 0.16911 0.71577 0.0
H1192 H 0.94383 0.22932 0.67982 0.0
H1193 H 0.8294 0.15157 0.65807 0.0
C1194 C 0.85108 0.18724 0.63648 0.0
C1195 C 0.87911 0.22277 0.6302 0.0
C1196 C 0.91882 0.2155 0.68767 0.0
C1197 C 0.87772 0.20717 0.66374 0.0
C1198 C 0.92367 0.21551 0.70454 0.0
C1199 C 0.8919 0.19994 0.71505 0.0
C1200 C 0.88195 0.19983 0.68116 0.0
C1201 C 0.85524 0.18144 0.70803 0.0
C1202 C 0.85007 0.17944 0.65336 0.0
C1203 C 0.90407 0.2505 0.64135 0.0
N1204 N 0.85114 0.18238 0.6914 0.0
N1205 N 0.90317 0.24188 0.65746 0.0
H1206 H 0.34343 0.89746 0.21047 0.0
H1207 H 0.41507 0.03788 0.13305 0.0
H1208 H 0.28691 0.95841 0.19409 0.0
H1209 H 0.47716 0.98597 0.15323 0.0
H1210 H 0.36773 1.009 0.15497 0.0
H1211 H 0.39062 0.92743 0.18873 0.0
C1212 C 0.34065 0.91689 0.20216 0.0
C1213 C 0.31111 0.92552 0.20418 0.0
C1214 C 0.39183 1.00414 0.15471 0.0
C1215 C 0.36577 0.96046 0.1792 0.0
C1216 C 0.41904 0.02078 0.14224 0.0
C1217 C 0.4502 0.01432 0.14128 0.0
C1218 C 0.39546 0.9805 0.16631 0.0
C1219 C 0.4538 0.99195 0.15354 0.0
C1220 C 0.36786 0.93419 0.18978 0.0
C1221 C 0.309 0.95074 0.19295 0.0
N1222 N 0.42657 0.97558 0.16546 0.0
N1223 N 0.33613 0.96751 0.18099 0.0
H1224 H 0.08809 0.51137 0.15215 0.0
H1225 H 0.11722 0.34526 0.19225 0.0
H1226 H 0.04332 0.39879 0.13108 0.0
H1227 H 0.16573 0.45948 0.21198 0.0
H1228 H 0.08979 0.36406 0.16966 0.0
H1229 H 0.11494 0.49209 0.17477 0.0
C1230 C 0.08347 0.4825 0.15238 0.0
C1231 C 0.06347 0.45676 0.13966 0.0
C1232 C 0.10661 0.38502 0.17892 0.0
C1233 C 0.09458 0.43458 0.16536 0.0
C1234 C 0.12251 0.37434 0.19174 0.0
C1235 C 0.14373 0.4007 0.20409 0.0
C1236 C 0.11195 0.42233 0.17845 0.0
C1237 C 0.14935 0.43799 0.20284 0.0
C1238 C 0.09906 0.47156 0.16522 0.0
C1239 C 0.05867 0.41974 0.14056 0.0
N1240 N 0.13348 0.44758 0.19035 0.0
N1241 N 0.07418 0.40986 0.1531 0.0
H1242 H 0.61592 0.75699 0.20343 0.0
H1243 H 0.64442 0.61108 0.14629 0.0
H1244 H 0.72474 0.76187 0.19919 0.0
H1245 H 0.55241 0.63541 0.14071 0.0
H1246 H 0.67175 0.66034 0.16798 0.0
H1247 H 0.59052 0.70844 0.18191 0.0
C1248 C 0.63471 0.74835 0.19766 0.0
C1249 C 0.67261 0.76386 0.20288 0.0
C1250 C 0.64537 0.65452 0.16209 0.0
C1251 C 0.64329 0.70697 0.17861 0.0
C1252 C 0.62946 0.62602 0.14995 0.0
C1253 C 0.5959 0.61894 0.14185 0.0
C1254 C 0.62726 0.67559 0.16622 0.0
C1255 C 0.57819 0.6398 0.14672 0.0
C1256 C 0.62012 0.72038 0.18547 0.0
C1257 C 0.69557 0.75115 0.19523 0.0
N1258 N 0.59402 0.66706 0.15854 0.0
N1259 N 0.68042 0.72305 0.18357 0.0
H1260 H 0.99295 0.46752 0.85761 0.0
H1261 H 0.95511 0.26736 0.81913 0.0
H1262 H 0.04059 0.4011 0.8774 0.0
H1263 H 0.90382 0.33177 0.80083 0.0
H1264 H 0.98629 0.31559 0.8408 0.0
H1265 H 0.96161 0.41894 0.83612 0.0
C1266 C 0.99732 0.44309 0.85729 0.0
C1267 C 1.01944 0.43846 0.86935 0.0
C1268 C 0.96798 0.31898 0.83209 0.0
C1269 C 0.98311 0.38231 0.84498 0.0
C1270 C 0.94988 0.29122 0.81981 0.0
C1271 C 0.92685 0.29545 0.80809 0.0
C1272 C 0.96304 0.35122 0.83262 0.0
C1273 C 0.9215 0.32732 0.80951 0.0
C1274 C 0.97912 0.41513 0.84512 0.0
C1275 C 0.0237 0.40589 0.86841 0.0
N1276 N 0.93956 0.35395 0.82143 0.0
N1277 N 1.00565 0.3791 0.85653 0.0
H1278 H 0.62309 0.63978 0.86095 0.0
H1279 H 0.76092 0.60356 0.80178 0.0
H1280 H 0.64399 0.54536 0.86615 0.0
H1281 H 0.7704 0.71453 0.80608 0.0
H1282 H 0.71366 0.58007 0.82386 0.0
H1283 H 0.67074 0.66512 0.83853 0.0
C1284 C 0.63691 0.62388 0.85706 0.0
C1285 C 0.62938 0.59024 0.86525 0.0
C1286 C 0.72632 0.60972 0.82018 0.0
C1287 C 0.68418 0.61928 0.84006 0.0
C1288 C 0.75354 0.62321 0.80766 0.0
C1289 C 0.76994 0.66115 0.80229 0.0
C1290 C 0.71462 0.63407 0.82724 0.0
C1291 C 0.75892 0.68526 0.81012 0.0
C1292 C 0.66451 0.63865 0.8445 0.0
C1293 C 0.64879 0.57126 0.86007 0.0
N1294 N 0.73154 0.6712 0.82212 0.0
N1295 N 0.67519 0.586 0.84785 0.0
H1296 H 0.42449 0.18578 0.81905 0.0
H1297 H 0.44919 0.01863 0.8609 0.0
H1298 H 0.36804 0.06878 0.80218 0.0
H1299 H 0.50322 0.13445 0.87916 0.0
H1300 H 0.42076 0.03719 0.8387 0.0
H1301 H 0.45339 0.16785 0.8414 0.0
C1302 C 0.41774 0.1563 0.82018 0.0
C1303 C 0.39391 0.12883 0.8087 0.0
C1304 C 0.43899 0.05858 0.84754 0.0
C1305 C 0.42729 0.1082 0.83397 0.0
C1306 C 0.4555 0.04802 0.86012 0.0
C1307 C 0.47848 0.07491 0.87197 0.0
C1308 C 0.44557 0.09631 0.84677 0.0
C1309 C 0.48539 0.1126 0.8704 0.0
C1310 C 0.43448 0.1461 0.83283 0.0
C1311 C 0.38644 0.09106 0.81067 0.0
N1312 N 0.46892 0.12211 0.85813 0.0
N1313 N 0.40316 0.08195 0.82295 0.0
H1314 H 0.93883 0.28901 0.52617 0.0
H1315 H 0.13387 0.31873 0.48523 0.0
H1316 H 0.99595 0.22762 0.5411 0.0
H1317 H 0.07492 0.37736 0.46902 0.0
H1318 H 0.08464 0.28655 0.50646 0.0
H1319 H 0.98783 0.32114 0.50483 0.0
C1320 C 0.96117 0.28173 0.52477 0.0
C1321 C 0.96321 0.25559 0.53546 0.0
C1322 C 0.08266 0.30669 0.49832 0.0
C1323 C 0.01993 0.29287 0.51137 0.0
C1324 C 0.11104 0.32538 0.48633 0.0
C1325 C 0.10857 0.35078 0.47533 0.0
C1326 C 0.05163 0.31348 0.49932 0.0
C1327 C 0.07795 0.35789 0.4772 0.0
C1328 C 0.98942 0.30039 0.51271 0.0
C1329 C 0.99323 0.24769 0.5332 0.0
N1330 N 0.05069 0.33926 0.48885 0.0
N1331 N 0.02041 0.26636 0.52152 0.0
H1332 H 0.76896 0.85043 0.47861 0.0
H1333 H 0.7347 0.67472 0.5354 0.0
H1334 H 0.67161 0.73743 0.47363 0.0
H1335 H 0.84777 0.76868 0.52596 0.0
H1336 H 0.70901 0.70068 0.51521 0.0
H1337 H 0.79575 0.82544 0.4992 0.0
C1338 C 0.75274 0.82068 0.48223 0.0
C1339 C 0.71776 0.79601 0.47464 0.0
C1340 C 0.73951 0.71545 0.51736 0.0
C1341 C 0.7484 0.7672 0.49776 0.0
C1342 C 0.75421 0.70047 0.52879 0.0
C1343 C 0.79347 0.71922 0.53212 0.0
C1344 C 0.76405 0.7501 0.50944 0.0
C1345 C 0.81743 0.75294 0.52346 0.0
C1346 C 0.7683 0.80631 0.49372 0.0
C1347 C 0.69844 0.75745 0.47935 0.0
N1348 N 0.80228 0.76761 0.51263 0.0
N1349 N 0.71391 0.74429 0.4906 0.0
H1350 H 0.27444 0.93343 0.48825 0.0
H1351 H 0.32415 0.13857 0.52513 0.0
H1352 H 0.24441 1.01012 0.46435 0.0
H1353 H 0.36782 0.06837 0.54463 0.0
H1354 H 0.29049 0.09001 0.50381 0.0
H1355 H 0.30212 0.9794 0.51099 0.0
C1356 C 0.27283 0.95945 0.48799 0.0
C1357 C 0.25733 0.96809 0.47439 0.0
C1358 C 0.30758 0.08538 0.51275 0.0
C1359 C 0.28959 0.02116 0.50006 0.0
C1360 C 0.32707 0.11329 0.52481 0.0
C1361 C 0.34894 0.10768 0.53668 0.0
C1362 C 0.30984 0.05159 0.51261 0.0
C1363 C 0.35128 0.07402 0.53577 0.0
C1364 C 0.28907 0.98596 0.50084 0.0
C1365 C 0.25647 1.00255 0.47455 0.0
N1366 N 0.33191 0.04731 0.52405 0.0
N1367 N 0.2726 0.02789 0.48709 0.0
H1368 H 0.57885 0.33262 0.09032 0.0
H1369 H 0.44248 0.10544 0.08298 0.0
H1370 H 0.45601 0.27779 0.09352 0.0
H1371 H 0.56535 0.16307 0.08612 0.0
H1372 H 0.44588 0.16819 0.08241 0.0
H1373 H 0.57346 0.27072 0.08472 0.0
C1374 C 0.55069 0.30755 0.08985 0.0
C1375 C 0.51788 0.31049 0.09262 0.0
C1376 C 0.47207 0.16699 0.083 0.0
C1377 C 0.51139 0.23908 0.08604 0.0
C1378 C 0.47013 0.13123 0.08317 0.0
C1379 C 0.50366 0.1291 0.08473 0.0
C1380 C 0.50778 0.20063 0.08424 0.0
C1381 C 0.53875 0.16338 0.0851 0.0
C1382 C 0.54759 0.27213 0.08655 0.0
C1383 C 0.4821 0.27697 0.09143 0.0
N1384 N 0.53985 0.19756 0.08497 0.0
N1385 N 0.47981 0.24262 0.08838 0.0
H1386 H 0.73711 0.26602 0.09509 0.0
H1387 H 0.96264 0.3553 0.08073 0.0
H1388 H 0.79244 0.19787 0.09441 0.0
H1389 H 0.90753 0.42148 0.09091 0.0
H1390 H 0.89964 0.29685 0.08109 0.0
H1391 H 0.79842 0.32265 0.08897 0.0
C1392 C 0.76205 0.26283 0.09346 0.0
C1393 C 0.75953 0.22706 0.0954 0.0
C1394 C 0.90141 0.32426 0.08306 0.0
C1395 C 0.83022 0.29213 0.08853 0.0
C1396 C 0.9373 0.3576 0.08273 0.0
C1397 C 0.94036 0.39326 0.08593 0.0
C1398 C 0.86847 0.32677 0.08644 0.0
C1399 C 0.9066 0.39457 0.08858 0.0
C1400 C 0.79716 0.29528 0.09007 0.0
C1401 C 0.79308 0.22494 0.09331 0.0
N1402 N 0.87222 0.3619 0.08884 0.0
N1403 N 0.82702 0.25699 0.09006 0.0
H1404 H 0.71792 0.63188 0.10388 0.0
H1405 H 0.81661 0.50228 0.09327 0.0
H1406 H 0.66023 0.51549 0.08616 0.0
H1407 H 0.87606 0.61711 0.11271 0.0
H1408 H 0.76025 0.50869 0.0891 0.0
H1409 H 0.77731 0.62914 0.10578 0.0
C1410 C 0.71776 0.60591 0.10027 0.0
C1411 C 0.68391 0.57383 0.09493 0.0
C1412 C 0.78562 0.53258 0.09425 0.0
C1413 C 0.75161 0.57044 0.09712 0.0
C1414 C 0.81798 0.529 0.09654 0.0
C1415 C 0.85126 0.55914 0.1034 0.0
C1416 C 0.78629 0.56657 0.09883 0.0
C1417 C 0.85092 0.59286 0.10762 0.0
C1418 C 0.75162 0.60431 0.10141 0.0
C1419 C 0.68544 0.5409 0.09046 0.0
N1420 N 0.81898 0.59565 0.1053 0.0
N1421 N 0.71856 0.54007 0.0917 0.0
H1422 H 0.34562 0.57153 0.91856 0.0
H1423 H 0.11895 0.43549 0.92818 0.0
H1424 H 0.29044 0.44842 0.91653 0.0
H1425 H 0.17545 0.5575 0.92082 0.0
H1426 H 0.18186 0.43946 0.92877 0.0
H1427 H 0.2839 0.56653 0.92427 0.0
C1428 C 0.32063 0.54339 0.91954 0.0
C1429 C 0.32334 0.51037 0.91694 0.0
C1430 C 0.18039 0.46536 0.92722 0.0
C1431 C 0.25212 0.50442 0.92328 0.0
C1432 C 0.14455 0.46313 0.92701 0.0
C1433 C 0.14198 0.49615 0.9243 0.0
C1434 C 0.21373 0.50091 0.9249 0.0
C1435 C 0.17605 0.53123 0.92274 0.0
C1436 C 0.28526 0.54055 0.92269 0.0
C1437 C 0.28967 0.47469 0.91816 0.0
N1438 N 0.21035 0.53263 0.92298 0.0
N1439 N 0.25546 0.47266 0.92116 0.0
H1440 H 0.52395 0.81779 0.92419 0.0
H1441 H 0.64197 0.71196 0.90116 0.0
H1442 H 0.61822 0.86459 0.88982 0.0
H1443 H 0.53273 0.65779 0.92589 0.0
H1444 H 0.63911 0.77146 0.89977 0.0
H1445 H 0.53182 0.76203 0.92761 0.0
C1446 C 0.54623 0.81638 0.91729 0.0
C1447 C 0.5702 0.84603 0.90657 0.0
C1448 C 0.61592 0.74653 0.90557 0.0
C1449 C 0.57983 0.78212 0.9107 0.0
C1450 C 0.61763 0.71266 0.90644 0.0
C1451 C 0.58747 0.67974 0.91357 0.0
C1452 C 0.58401 0.74754 0.91203 0.0
C1453 C 0.55654 0.68228 0.92015 0.0
C1454 C 0.55087 0.78454 0.91934 0.0
C1455 C 0.59923 0.84275 0.89834 0.0
N1456 N 0.55562 0.71545 0.91921 0.0
N1457 N 0.60315 0.81138 0.90053 0.0
H1458 H 0.42619 0.90298 0.92637 0.0
H1459 H 0.20612 0.78649 0.90014 0.0
H1460 H 0.36249 0.95804 0.91188 0.0
H1461 H 0.26991 0.73367 0.9174 0.0
H1462 H 0.262 0.84939 0.90496 0.0
H1463 H 0.36834 0.84108 0.92406 0.0
C1464 C 0.39995 0.90215 0.92279 0.0
C1465 C 0.39938 0.93597 0.91925 0.0
C1466 C 0.26372 0.82405 0.90776 0.0
C1467 C 0.33259 0.86454 0.91645 0.0
C1468 C 0.23188 0.78804 0.90491 0.0
C1469 C 0.23324 0.75452 0.90826 0.0
C1470 C 0.29741 0.82676 0.91397 0.0
C1471 C 0.26727 0.75854 0.91474 0.0
C1472 C 0.36682 0.86663 0.92147 0.0
C1473 C 0.36434 0.93281 0.91475 0.0
N1474 N 0.29794 0.79389 0.91729 0.0
N1475 N 0.33242 0.89773 0.91337 0.0
H1476 H 0.23165 0.67311 0.41795 0.0
H1477 H 0.09673 0.44524 0.42113 0.0
H1478 H 0.11754 0.61906 0.43808 0.0
H1479 H 0.21963 0.50264 0.41804 0.0
H1480 H 0.10016 0.508 0.42156 0.0
H1481 H 0.2237 0.61005 0.41217 0.0
C1482 C 0.20468 0.64799 0.42095 0.0
C1483 C 0.17526 0.6515 0.42857 0.0
C1484 C 0.12628 0.50672 0.42057 0.0
C1485 C 0.16604 0.57891 0.42203 0.0
C1486 C 0.12431 0.47097 0.42016 0.0
C1487 C 0.15795 0.46876 0.41958 0.0
C1488 C 0.16209 0.54035 0.42012 0.0
C1489 C 0.19299 0.50302 0.41858 0.0
C1490 C 0.20026 0.61195 0.41774 0.0
C1491 C 0.14114 0.61774 0.43237 0.0
N1492 N 0.19414 0.53728 0.41891 0.0
N1493 N 0.13746 0.58287 0.42908 0.0
H1494 H 0.62231 0.69241 0.41664 0.0
H1495 H 0.39509 0.60249 0.42357 0.0
H1496 H 0.56531 0.75844 0.42171 0.0
H1497 H 0.45109 0.53576 0.42964 0.0
H1498 H 0.45708 0.65885 0.41831 0.0
H1499 H 0.55954 0.63363 0.41645 0.0
C1500 C 0.59663 0.69457 0.41738 0.0
C1501 C 0.59899 0.73029 0.41932 0.0
C1502 C 0.45582 0.63184 0.42072 0.0
C1503 C 0.52743 0.6635 0.41921 0.0
C1504 C 0.42038 0.59963 0.42383 0.0
C1505 C 0.4177 0.56425 0.42725 0.0
C1506 C 0.4891 0.6289 0.42099 0.0
C1507 C 0.45159 0.56229 0.42697 0.0
C1508 C 0.56088 0.66106 0.41742 0.0
C1509 C 0.56484 0.73147 0.42037 0.0
N1510 N 0.48586 0.59417 0.424 0.0
N1511 N 0.53061 0.69866 0.42038 0.0
H1512 H 0.48794 0.88711 0.46181 0.0
H1513 H 0.35841 0.93356 0.40251 0.0
H1514 H 0.5187 0.91759 0.41096 0.0
H1515 H 0.35037 0.9279 0.45544 0.0
H1516 H 0.41613 0.92716 0.40423 0.0
H1517 H 0.43512 0.89919 0.45859 0.0
C1518 C 0.4838 0.89663 0.44995 0.0
C1519 C 0.50834 0.90182 0.43672 0.0
C1520 C 0.40182 0.92775 0.41543 0.0
C1521 C 0.44689 0.91537 0.43282 0.0
C1522 C 0.36912 0.93169 0.41446 0.0
C1523 C 0.34935 0.93097 0.42884 0.0
C1524 C 0.41451 0.92295 0.43088 0.0
C1525 C 0.3643 0.92814 0.44399 0.0
C1526 C 0.45341 0.90346 0.44809 0.0
C1527 C 0.5005 0.91307 0.42151 0.0
N1528 N 0.39558 0.92396 0.44458 0.0
N1529 N 0.47049 0.91954 0.41997 0.0
H1530 H 0.78635 0.7583 0.24207 0.0
H1531 H 1.01147 0.88637 0.25887 0.0
H1532 H 0.84033 0.87207 0.26262 0.0
H1533 H 0.96227 0.7827 0.23003 0.0
H1534 H 0.94773 0.87778 0.26295 0.0
H1535 H 0.84921 0.76259 0.24046 0.0
C1536 C 0.81127 0.78395 0.24642 0.0
C1537 C 0.80801 0.81492 0.25242 0.0
C1538 C 0.95084 0.85682 0.25576 0.0
C1539 C 0.87996 0.82007 0.25056 0.0
C1540 C 0.98736 0.86185 0.25333 0.0
C1541 C 0.99257 0.83542 0.24397 0.0
C1542 C 0.91897 0.82503 0.24885 0.0
C1543 C 0.95983 0.80369 0.23747 0.0
C1544 C 0.84717 0.78647 0.24541 0.0
C1545 C 0.84139 0.84754 0.2578 0.0
N1546 N 0.92453 0.79946 0.23998 0.0
N1547 N 0.87582 0.84926 0.25671 0.0
H1548 H 0.31283 0.04245 0.24173 0.0
H1549 H 0.18239 0.13913 0.25579 0.0
H1550 H 0.1977 0.98271 0.26082 0.0
H1551 H 0.2881 0.19349 0.22832 0.0
H1552 H 0.19085 0.08394 0.26014 0.0
H1553 H 0.30789 0.10061 0.23941 0.0
C1554 C 0.2867 0.04161 0.24559 0.0
C1555 C 0.25561 1.00752 0.25142 0.0
C1556 C 0.21226 0.10797 0.25319 0.0
C1557 C 0.24973 0.07391 0.24876 0.0
C1558 C 0.20733 0.13951 0.2506 0.0
C1559 C 0.2344 0.17117 0.24156 0.0
C1560 C 0.24461 0.10786 0.24677 0.0
C1561 C 0.2666 0.17007 0.23551 0.0
C1562 C 0.28383 0.07477 0.24418 0.0
C1563 C 0.22238 1.00817 0.25616 0.0
N1564 N 0.27075 0.13897 0.23818 0.0
N1565 N 0.22034 0.04069 0.25471 0.0
H1566 H 0.93649 0.05851 0.25282 0.0
H1567 H 0.02727 0.28598 0.24458 0.0
H1568 H 0.87325 0.11108 0.23457 0.0
H1569 H 0.0902 0.23001 0.25893 0.0
H1570 H 0.96897 0.2231 0.24307 0.0
H1571 H 0.99133 0.12191 0.25746 0.0
C1572 C 0.93392 0.08334 0.24994 0.0
C1573 C 0.90005 0.07921 0.24322 0.0
C1574 C 0.99555 0.22471 0.24664 0.0
C1575 C 0.96334 0.15241 0.24833 0.0
C1576 C 0.02881 0.26061 0.24757 0.0
C1577 C 0.06383 0.2634 0.2518 0.0
C1578 C 0.99731 0.19139 0.25005 0.0
C1579 C 0.06404 0.22944 0.25549 0.0
C1580 C 0.96543 0.11966 0.25249 0.0
C1581 C 0.89888 0.11272 0.23953 0.0
N1582 N 0.03147 0.19504 0.25448 0.0
N1583 N 0.93002 0.14782 0.24208 0.0
H1584 H 0.87341 0.82688 0.74196 0.0
H1585 H 0.78141 0.94437 0.78161 0.0
H1586 H 0.76249 0.77206 0.76524 0.0
H1587 H 0.88251 0.99514 0.75107 0.0
H1588 H 0.77335 0.88125 0.77574 0.0
H1589 H 0.87652 0.88848 0.74509 0.0
C1590 C 0.84948 0.82771 0.74763 0.0
C1591 C 0.81764 0.7941 0.75338 0.0
C1592 C 0.79719 0.9062 0.77027 0.0
C1593 C 0.82129 0.86514 0.75721 0.0
C1594 C 0.80177 0.94237 0.77355 0.0
C1595 C 0.83282 0.97549 0.76688 0.0
C1596 C 0.82393 0.90289 0.76032 0.0
C1597 C 0.85853 0.97075 0.75676 0.0
C1598 C 0.85131 0.86303 0.74942 0.0
C1599 C 0.78752 0.79715 0.76056 0.0
N1600 N 0.85358 0.9353 0.75387 0.0
N1601 N 0.79023 0.83208 0.76241 0.0
H1602 H 0.24925 0.06579 0.78396 0.0
H1603 H 0.08937 0.88082 0.73779 0.0
H1604 H 0.27233 0.03313 0.73654 0.0
H1605 H 0.09034 0.90198 0.78985 0.0
H1606 H 0.15327 0.938 0.73546 0.0
H1607 H 0.18801 1.00774 0.78467 0.0
C1608 C 0.24142 0.0464 0.7736 0.0
C1609 C 0.26609 0.0546 0.76011 0.0
C1610 C 0.13945 0.92983 0.74737 0.0
C1611 C 0.19505 0.98718 0.7609 0.0
C1612 C 0.10296 0.89744 0.7487 0.0
C1613 C 0.08453 0.88646 0.76406 0.0
C1614 C 0.15719 0.9516 0.76147 0.0
C1615 C 0.10354 0.90892 0.7778 0.0
C1616 C 0.20631 0.01297 0.77408 0.0
C1617 C 0.25423 0.02789 0.74719 0.0
N1618 N 0.13855 0.94032 0.77615 0.0
N1619 N 0.21931 0.99536 0.74784 0.0
H1620 H 0.14153 0.16753 0.76304 0.0
H1621 H 0.04495 0.29983 0.77004 0.0
H1622 H 0.20261 0.28454 0.77987 0.0
H1623 H 0.98442 0.18018 0.75697 0.0
H1624 H 0.10412 0.29672 0.77205 0.0
H1625 H 0.08491 0.17361 0.75897 0.0
C1626 C 0.1432 0.19464 0.76576 0.0
C1627 C 0.17703 0.22551 0.77185 0.0
C1628 C 0.07785 0.27123 0.76868 0.0
C1629 C 0.11178 0.23259 0.76738 0.0
C1630 C 0.04409 0.27303 0.76749 0.0
C1631 C 1.00953 0.24022 0.7634 0.0
C1632 C 0.07706 0.23643 0.76569 0.0
C1633 C 1.01021 0.20623 0.76026 0.0
C1634 C 0.11069 0.19803 0.76353 0.0
C1635 C 0.17707 0.25975 0.77538 0.0
N1636 N 0.04328 0.20526 0.7615 0.0
N1637 N 0.14501 0.26236 0.77311 0.0
H1638 H 0.50326 0.22019 0.59198 0.0
H1639 H 0.61777 0.10683 0.58183 0.0
H1640 H 0.4474 0.09709 0.59279 0.0
H1641 H 0.67116 0.22951 0.58606 0.0
H1642 H 0.55566 0.10176 0.58736 0.0
H1643 H 0.56505 0.22323 0.59191 0.0
C1644 C 0.50402 0.1937 0.59237 0.0
C1645 C 0.47005 0.1583 0.59232 0.0
C1646 C 0.58102 0.12974 0.58723 0.0
C1647 C 0.54121 0.16157 0.59192 0.0
C1648 C 0.61653 0.13273 0.58395 0.0
C1649 C 0.64995 0.16872 0.58335 0.0
C1650 C 0.5787 0.163 0.58983 0.0
C1651 C 0.64644 0.20113 0.58651 0.0
C1652 C 0.53942 0.19547 0.59229 0.0
C1653 C 0.47287 0.12498 0.59291 0.0
N1654 N 0.61156 0.19749 0.58947 0.0
N1655 N 0.50786 0.1274 0.59245 0.0
H1656 H 0.85975 0.31972 0.59285 0.0
H1657 H 0.9503 0.52582 0.55129 0.0
H1658 H 0.96905 0.37264 0.56817 0.0
H1659 H 0.85407 0.4807 0.58462 0.0
H1660 H 0.95755 0.47019 0.55682 0.0
H1661 H 0.85716 0.37837 0.5895 0.0
C1662 C 0.8834 0.34381 0.58679 0.0
C1663 C 0.91465 0.34115 0.58073 0.0
C1664 C 0.93496 0.47258 0.56296 0.0
C1665 C 0.91162 0.40866 0.5767 0.0
C1666 C 0.93083 0.50446 0.55987 0.0
C1667 C 0.90142 0.50816 0.56747 0.0
C1668 C 0.90935 0.44389 0.57364 0.0
C1669 C 0.87674 0.47898 0.57822 0.0
C1670 C 0.88189 0.37738 0.5849 0.0
C1671 C 0.94448 0.37345 0.57308 0.0
N1672 N 0.8812 0.44814 0.58092 0.0
N1673 N 0.94208 0.40579 0.57115 0.0
H1674 H 0.6081 0.39396 0.58195 0.0
H1675 H 0.69845 0.62044 0.59357 0.0
H1676 H 0.53961 0.44884 0.58446 0.0
H1677 H 0.76276 0.56471 0.58078 0.0
H1678 H 0.6402 0.55732 0.59504 0.0
H1679 H 0.66526 0.45594 0.58602 0.0
C1680 C 0.60503 0.41903 0.58334 0.0
C1681 C 0.5689 0.41609 0.58264 0.0
C1682 C 0.6672 0.55902 0.59208 0.0
C1683 C 0.63451 0.48744 0.58752 0.0
C1684 C 0.70042 0.59496 0.59136 0.0
C1685 C 0.73538 0.59781 0.5869 0.0
C1686 C 0.66923 0.52588 0.5885 0.0
C1687 C 0.73632 0.56391 0.58406 0.0
C1688 C 0.63772 0.45446 0.58576 0.0
C1689 C 0.56678 0.44961 0.58497 0.0
N1690 N 0.70381 0.52951 0.58484 0.0
N1691 N 0.59913 0.48391 0.58719 0.0
loop_
_geom_bond_atom_site_label_1
_geom_bond_atom_site_label_2
_geom_bond_distance
_geom_bond_site_symmetry_2
_ccdc_geom_bond_type
Dy0 O3 2.307 1_565 S
Dy0 O5 2.395 . S
Dy0 O6 2.379 . S
Dy0 O8 2.339 . S
Dy0 O10 2.298 . S
Dy0 O14 2.275 . S
Dy0 C22 2.738 . S
Dy1 O4 2.298 . S
Dy1 O7 2.275 . S
Dy1 O9 2.307 1_545 S
Dy1 O11 2.395 . S
Dy1 O12 2.379 . S
Dy1 O15 2.339 . S
Dy1 C31 2.738 . S
C2 O14 1.254 1_545 S
C2 O15 1.259 . S
O3 Dy0 2.307 1_545 S
O3 C13 1.266 . S
O4 Dy1 2.298 . S
O4 C13 1.236 . S
O5 Dy0 2.395 . S
O5 C22 1.255 . S
O6 Dy0 2.379 . S
O6 C22 1.249 . S
O7 Dy1 2.275 . S
O7 C23 1.254 . S
O8 Dy0 2.339 . S
O8 C23 1.257 1_565 S
O9 Dy1 2.307 1_565 S
O9 C24 1.266 . S
O10 Dy0 2.298 . S
O10 C24 1.236 . S
O11 Dy1 2.395 . S
O11 C31 1.255 . S
O12 Dy1 2.379 . S
O12 C31 1.249 . S
C13 O3 1.266 . S
C13 O4 1.236 . S
O14 Dy0 2.275 . S
O14 C2 1.254 1_565 S
O15 Dy1 2.339 . S
O15 C2 1.259 . S
C16 C19 1.344 . S
C16 C20 1.328 . S
C16 C22 1.516 . S
C17 C18 1.304 . S
C17 C21 1.323 . S
C18 C17 1.304 . S
C18 C19 1.371 . S
C18 H32 0.930 . S
C19 C16 1.344 . S
C19 C18 1.371 . S
C19 H33 0.931 . S
C20 C16 1.328 . S
C20 C21 1.433 . S
C20 H34 0.931 . S
C21 C17 1.323 . S
C21 C20 1.433 . S
C21 H35 0.933 . S
C22 Dy0 2.738 . S
C22 O5 1.255 . S
C22 O6 1.249 . S
C22 C16 1.516 . S
C23 O7 1.254 . S
C23 O8 1.257 1_545 S
C24 O9 1.266 . S
C24 O10 1.236 . S
C25 C28 1.344 . S
C25 C29 1.328 . S
C25 C31 1.516 . S
C26 C27 1.304 . S
C26 C30 1.323 . S
C27 C26 1.304 . S
C27 C28 1.371 . S
C27 H36 0.930 . S
C28 C25 1.344 . S
C28 C27 1.371 . S
C28 H37 0.931 . S
C29 C25 1.328 . S
C29 C30 1.433 . S
C29 H38 0.931 . S
C30 C26 1.323 . S
C30 C29 1.433 . S
C30 H39 0.933 . S
C31 Dy1 2.738 . S
C31 O11 1.255 . S
C31 O12 1.249 . S
C31 C25 1.516 . S
H32 C18 0.930 . S
H33 C19 0.931 . S
H34 C20 0.931 . S
H35 C21 0.933 . S
H36 C27 0.930 . S
H37 C28 0.931 . S
H38 C29 0.931 . S
H39 C30 0.933 . S
Dy40 O43 2.307 1_455 S
Dy40 O45 2.395 . S
Dy40 O46 2.379 . S
Dy40 O48 2.339 . S
Dy40 O50 2.298 . S
Dy40 O54 2.275 . S
Dy40 C62 2.738 . S
Dy41 O44 2.298 1_455 S
Dy41 O47 2.275 . S
Dy41 O49 2.307 . S
Dy41 O51 2.395 1_455 S
Dy41 O52 2.379 1_455 S
Dy41 O55 2.339 . S
Dy41 C71 2.738 1_455 S
C42 O54 1.254 . S
C42 O55 1.257 . S
O43 Dy40 2.307 1_655 S
O43 C53 1.266 . S
O44 Dy41 2.298 1_655 S
O44 C53 1.236 . S
O45 Dy40 2.395 . S
O45 C62 1.255 . S
O46 Dy40 2.379 . S
O46 C62 1.249 . S
O47 Dy41 2.275 . S
O47 C63 1.254 . S
O48 Dy40 2.339 . S
O48 C63 1.257 . S
O49 Dy41 2.307 . S
O49 C64 1.266 . S
O50 Dy40 2.298 . S
O50 C64 1.236 . S
O51 Dy41 2.395 1_655 S
O51 C71 1.255 . S
O52 Dy41 2.379 1_655 S
O52 C71 1.249 . S
C53 O43 1.266 . S
C53 O44 1.236 . S
O54 Dy40 2.275 . S
O54 C42 1.254 . S
O55 Dy41 2.339 . S
O55 C42 1.257 . S
C56 C59 1.344 . S
C56 C60 1.328 . S
C56 C62 1.516 . S
C57 C58 1.304 . S
C57 C61 1.323 . S
C58 C57 1.304 . S
C58 C59 1.371 . S
C58 H72 0.930 . S
C59 C56 1.344 . S
C59 C58 1.371 . S
C59 H73 0.931 . S
C60 C56 1.328 . S
C60 C61 1.433 . S
C60 H74 0.931 . S
C61 C57 1.323 . S
C61 C60 1.433 . S
C61 H75 0.933 . S
C62 Dy40 2.738 . S
C62 O45 1.255 . S
C62 O46 1.249 . S
C62 C56 1.516 . S
C63 O47 1.254 . S
C63 O48 1.257 . S
C64 O49 1.266 . S
C64 O50 1.236 . S
C65 C68 1.344 . S
C65 C69 1.328 . S
C65 C71 1.516 . S
C66 C67 1.304 . S
C66 C70 1.323 . S
C67 C66 1.304 . S
C67 C68 1.371 . S
C67 H76 0.930 . S
C68 C65 1.344 . S
C68 C67 1.371 . S
C68 H77 0.931 . S
C69 C65 1.328 . S
C69 C70 1.433 . S
C69 H78 0.931 . S
C70 C66 1.323 . S
C70 C69 1.433 . S
C70 H79 0.933 . S
C71 Dy41 2.738 1_655 S
C71 O51 1.255 . S
C71 O52 1.249 . S
C71 C65 1.516 . S
H72 C58 0.930 . S
H73 C59 0.931 . S
H74 C60 0.931 . S
H75 C61 0.933 . S
H76 C67 0.930 . S
H77 C68 0.931 . S
H78 C69 0.931 . S
H79 C70 0.933 . S
Dy80 O83 2.307 . S
Dy80 O85 2.395 . S
Dy80 O86 2.379 . S
Dy80 O88 2.339 . S
Dy80 O90 2.298 . S
Dy80 O94 2.275 . S
Dy80 C102 2.738 . S
Dy81 O84 2.298 . S
Dy81 O87 2.275 . S
Dy81 O89 2.307 . S
Dy81 O91 2.395 . S
Dy81 O92 2.379 . S
Dy81 O95 2.339 . S
Dy81 C111 2.738 . S
C82 O94 1.254 . S
C82 O95 1.257 . S
O83 Dy80 2.307 . S
O83 C93 1.266 . S
O84 Dy81 2.298 . S
O84 C93 1.236 . S
O85 Dy80 2.395 . S
O85 C102 1.255 . S
O86 Dy80 2.379 . S
O86 C102 1.249 . S
O87 Dy81 2.275 . S
O87 C103 1.254 . S
O88 Dy80 2.339 . S
O88 C103 1.257 . S
O89 Dy81 2.307 . S
O89 C104 1.266 . S
O90 Dy80 2.298 . S
O90 C104 1.236 . S
O91 Dy81 2.395 . S
O91 C111 1.255 . S
O92 Dy81 2.379 . S
O92 C111 1.249 . S
C93 O83 1.266 . S
C93 O84 1.236 . S
O94 Dy80 2.275 . S
O94 C82 1.254 . S
O95 Dy81 2.339 . S
O95 C82 1.257 . S
C96 C99 1.344 . S
C96 C100 1.328 . S
C96 C102 1.516 . S
C97 C98 1.304 . S
C97 C101 1.323 . S
C98 C97 1.304 . S
C98 C99 1.371 . S
C98 H112 0.930 . S
C99 C96 1.344 . S
C99 C98 1.371 . S
C99 H113 0.931 . S
C100 C96 1.328 . S
C100 C101 1.433 . S
C100 H114 0.931 . S
C101 C97 1.323 . S
C101 C100 1.433 . S
C101 H115 0.933 . S
C102 Dy80 2.738 . S
C102 O85 1.255 . S
C102 O86 1.249 . S
C102 C96 1.516 . S
C103 O87 1.254 . S
C103 O88 1.257 . S
C104 O89 1.266 . S
C104 O90 1.236 . S
C105 C108 1.344 . S
C105 C109 1.328 . S
C105 C111 1.516 . S
C106 C107 1.304 . S
C106 C110 1.323 . S
C107 C106 1.304 . S
C107 C108 1.371 . S
C107 H116 0.930 . S
C108 C105 1.344 . S
C108 C107 1.371 . S
C108 H117 0.931 . S
C109 C105 1.328 . S
C109 C110 1.433 . S
C109 H118 0.931 . S
C110 C106 1.323 . S
C110 C109 1.433 . S
C110 H119 0.933 . S
C111 Dy81 2.738 . S
C111 O91 1.255 . S
C111 O92 1.249 . S
C111 C105 1.516 . S
H112 C98 0.930 . S
H113 C99 0.931 . S
H114 C100 0.931 . S
H115 C101 0.933 . S
H116 C107 0.930 . S
H117 C108 0.931 . S
H118 C109 0.931 . S
H119 C110 0.933 . S
Dy120 O123 2.307 1_655 S
Dy120 O125 2.395 . S
Dy120 O126 2.379 . S
Dy120 O128 2.339 . S
Dy120 O130 2.298 . S
Dy120 O134 2.275 . S
Dy120 C142 2.738 . S
Dy121 O124 2.298 . S
Dy121 O127 2.275 . S
Dy121 O129 2.307 1_455 S
Dy121 O131 2.395 . S
Dy121 O132 2.379 . S
Dy121 O135 2.339 . S
Dy121 C151 2.738 . S
C122 O134 1.254 1_455 S
C122 O135 1.259 . S
O123 Dy120 2.307 1_455 S
O123 C133 1.266 . S
O124 Dy121 2.298 . S
O124 C133 1.236 . S
O125 Dy120 2.395 . S
O125 C142 1.255 . S
O126 Dy120 2.379 . S
O126 C142 1.249 . S
O127 Dy121 2.275 . S
O127 C143 1.254 . S
O128 Dy120 2.339 . S
O128 C143 1.257 1_655 S
O129 Dy121 2.307 1_655 S
O129 C144 1.266 . S
O130 Dy120 2.298 . S
O130 C144 1.236 . S
O131 Dy121 2.395 . S
O131 C151 1.255 . S
O132 Dy121 2.379 . S
O132 C151 1.249 . S
C133 O123 1.266 . S
C133 O124 1.236 . S
O134 Dy120 2.275 . S
O134 C122 1.254 1_655 S
O135 Dy121 2.339 . S
O135 C122 1.259 . S
C136 C139 1.344 . S
C136 C140 1.328 . S
C136 C142 1.516 . S
C137 C138 1.304 . S
C137 C141 1.323 . S
C138 C137 1.304 . S
C138 C139 1.371 . S
C138 H152 0.930 . S
C139 C136 1.344 . S
C139 C138 1.371 . S
C139 H153 0.931 . S
C140 C136 1.328 . S
C140 C141 1.433 . S
C140 H154 0.931 . S
C141 C137 1.323 . S
C141 C140 1.433 . S
C141 H155 0.933 . S
C142 Dy120 2.738 . S
C142 O125 1.255 . S
C142 O126 1.249 . S
C142 C136 1.516 . S
C143 O127 1.254 . S
C143 O128 1.257 1_455 S
C144 O129 1.266 . S
C144 O130 1.236 . S
C145 C148 1.344 . S
C145 C149 1.328 . S
C145 C151 1.516 . S
C146 C147 1.304 . S
C146 C150 1.323 . S
C147 C146 1.304 . S
C147 C148 1.371 . S
C147 H156 0.930 . S
C148 C145 1.344 . S
C148 C147 1.371 . S
C148 H157 0.931 . S
C149 C145 1.328 . S
C149 C150 1.433 . S
C149 H158 0.931 . S
C150 C146 1.323 . S
C150 C149 1.433 . S
C150 H159 0.933 . S
C151 Dy121 2.738 . S
C151 O131 1.255 . S
C151 O132 1.249 . S
C151 C145 1.516 . S
H152 C138 0.930 . S
H153 C139 0.931 . S
H154 C140 0.931 . S
H155 C141 0.933 . S
H156 C147 0.930 . S
H157 C148 0.931 . S
H158 C149 0.931 . S
H159 C150 0.933 . S
Dy160 O163 2.307 . S
Dy160 O165 2.395 . S
Dy160 O166 2.379 . S
Dy160 O168 2.339 . S
Dy160 O170 2.298 . S
Dy160 O174 2.275 . S
Dy160 C182 2.738 . S
Dy161 O164 2.298 . S
Dy161 O167 2.275 . S
Dy161 O169 2.307 . S
Dy161 O171 2.395 . S
Dy161 O172 2.379 . S
Dy161 O175 2.339 . S
Dy161 C191 2.738 . S
C162 O174 1.254 . S
C162 O175 1.257 . S
O163 Dy160 2.307 . S
O163 C173 1.266 . S
O164 Dy161 2.298 . S
O164 C173 1.236 . S
O165 Dy160 2.395 . S
O165 C182 1.255 . S
O166 Dy160 2.379 . S
O166 C182 1.249 . S
O167 Dy161 2.275 . S
O167 C183 1.254 . S
O168 Dy160 2.339 . S
O168 C183 1.257 . S
O169 Dy161 2.307 . S
O169 C184 1.266 . S
O170 Dy160 2.298 . S
O170 C184 1.236 . S
O171 Dy161 2.395 . S
O171 C191 1.255 . S
O172 Dy161 2.379 . S
O172 C191 1.249 . S
C173 O163 1.266 . S
C173 O164 1.236 . S
O174 Dy160 2.275 . S
O174 C162 1.254 . S
O175 Dy161 2.339 . S
O175 C162 1.257 . S
C176 C179 1.344 . S
C176 C180 1.328 . S
C176 C182 1.516 . S
C177 C178 1.304 . S
C177 C181 1.323 . S
C178 C177 1.304 . S
C178 C179 1.371 . S
C178 H192 0.930 . S
C179 C176 1.344 . S
C179 C178 1.371 . S
C179 H193 0.931 . S
C180 C176 1.328 . S
C180 C181 1.433 . S
C180 H194 0.931 . S
C181 C177 1.323 . S
C181 C180 1.433 . S
C181 H195 0.933 . S
C182 Dy160 2.738 . S
C182 O165 1.255 . S
C182 O166 1.249 . S
C182 C176 1.516 . S
C183 O167 1.254 . S
C183 O168 1.257 . S
C184 O169 1.266 . S
C184 O170 1.236 . S
C185 C188 1.344 . S
C185 C189 1.328 . S
C185 C191 1.516 . S
C186 C187 1.304 . S
C186 C190 1.323 . S
C187 C186 1.304 . S
C187 C188 1.371 . S
C187 H196 0.930 . S
C188 C185 1.344 . S
C188 C187 1.371 . S
C188 H197 0.931 . S
C189 C185 1.328 . S
C189 C190 1.433 . S
C189 H198 0.931 . S
C190 C186 1.323 . S
C190 C189 1.433 . S
C190 H199 0.933 . S
C191 Dy161 2.738 . S
C191 O171 1.255 . S
C191 O172 1.249 . S
C191 C185 1.516 . S
H192 C178 0.930 . S
H193 C179 0.931 . S
H194 C180 0.931 . S
H195 C181 0.933 . S
H196 C187 0.930 . S
H197 C188 0.931 . S
H198 C189 0.931 . S
H199 C190 0.933 . S
Dy200 O203 2.307 1_545 S
Dy200 O205 2.395 . S
Dy200 O206 2.379 . S
Dy200 O208 2.339 . S
Dy200 O210 2.298 . S
Dy200 O214 2.275 . S
Dy200 C222 2.738 . S
Dy201 O204 2.298 1_545 S
Dy201 O207 2.275 . S
Dy201 O209 2.307 . S
Dy201 O211 2.395 1_545 S
Dy201 O212 2.379 1_545 S
Dy201 O215 2.339 . S
Dy201 C231 2.738 1_545 S
C202 O214 1.254 . S
C202 O215 1.257 . S
O203 Dy200 2.307 1_565 S
O203 C213 1.266 . S
O204 Dy201 2.298 1_565 S
O204 C213 1.236 . S
O205 Dy200 2.395 . S
O205 C222 1.255 . S
O206 Dy200 2.379 . S
O206 C222 1.249 . S
O207 Dy201 2.275 . S
O207 C223 1.254 . S
O208 Dy200 2.339 . S
O208 C223 1.257 . S
O209 Dy201 2.307 . S
O209 C224 1.266 . S
O210 Dy200 2.298 . S
O210 C224 1.236 . S
O211 Dy201 2.395 1_565 S
O211 C231 1.255 . S
O212 Dy201 2.379 1_565 S
O212 C231 1.249 . S
C213 O203 1.266 . S
C213 O204 1.236 . S
O214 Dy200 2.275 . S
O214 C202 1.254 . S
O215 Dy201 2.339 . S
O215 C202 1.257 . S
C216 C219 1.344 . S
C216 C220 1.328 . S
C216 C222 1.516 . S
C217 C218 1.304 . S
C217 C221 1.323 . S
C218 C217 1.304 . S
C218 C219 1.371 . S
C218 H232 0.930 . S
C219 C216 1.344 . S
C219 C218 1.371 . S
C219 H233 0.931 . S
C220 C216 1.328 . S
C220 C221 1.433 . S
C220 H234 0.931 . S
C221 C217 1.323 . S
C221 C220 1.433 . S
C221 H235 0.933 . S
C222 Dy200 2.738 . S
C222 O205 1.255 . S
C222 O206 1.249 . S
C222 C216 1.516 . S
C223 O207 1.254 . S
C223 O208 1.257 . S
C224 O209 1.266 . S
C224 O210 1.236 . S
C225 C228 1.344 . S
C225 C229 1.328 . S
C225 C231 1.516 . S
C226 C227 1.304 . S
C226 C230 1.323 . S
C227 C226 1.304 . S
C227 C228 1.371 . S
C227 H236 0.930 . S
C228 C225 1.344 . S
C228 C227 1.371 . S
C228 H237 0.931 . S
C229 C225 1.328 . S
C229 C230 1.433 . S
C229 H238 0.931 . S
C230 C226 1.323 . S
C230 C229 1.433 . S
C230 H239 0.933 . S
C231 Dy201 2.738 1_565 S
C231 O211 1.255 . S
C231 O212 1.249 . S
C231 C225 1.516 . S
H232 C218 0.930 . S
H233 C219 0.931 . S
H234 C220 0.931 . S
H235 C221 0.933 . S
H236 C227 0.930 . S
H237 C228 0.931 . S
H238 C229 0.931 . S
H239 C230 0.933 . S
Dy240 O243 2.307 . S
Dy240 O245 2.395 . S
Dy240 O246 2.379 . S
Dy240 O248 2.339 . S
Dy240 O250 2.298 . S
Dy240 O254 2.275 . S
Dy240 C262 2.738 . S
Dy241 O244 2.298 . S
Dy241 O247 2.275 . S
Dy241 O249 2.307 . S
Dy241 O251 2.395 . S
Dy241 O252 2.379 . S
Dy241 O255 2.339 . S
Dy241 C271 2.738 . S
C242 O254 1.254 . S
C242 O255 1.257 . S
O243 Dy240 2.307 . S
O243 C253 1.266 . S
O244 Dy241 2.298 . S
O244 C253 1.236 . S
O245 Dy240 2.395 . S
O245 C262 1.255 . S
O246 Dy240 2.379 . S
O246 C262 1.249 . S
O247 Dy241 2.275 . S
O247 C263 1.254 . S
O248 Dy240 2.339 . S
O248 C263 1.257 . S
O249 Dy241 2.307 . S
O249 C264 1.266 . S
O250 Dy240 2.298 . S
O250 C264 1.236 . S
O251 Dy241 2.395 . S
O251 C271 1.255 . S
O252 Dy241 2.379 . S
O252 C271 1.249 . S
C253 O243 1.266 . S
C253 O244 1.236 . S
O254 Dy240 2.275 . S
O254 C242 1.254 . S
O255 Dy241 2.339 . S
O255 C242 1.257 . S
C256 C259 1.344 1_455 S
C256 C260 1.328 1_455 S
C256 C262 1.516 . S
C257 C258 1.304 . S
C257 C261 1.323 . S
C258 C257 1.304 . S
C258 C259 1.371 . S
C258 H272 0.930 . S
C259 C256 1.344 1_655 S
C259 C258 1.371 . S
C259 H273 0.931 1_655 S
C260 C256 1.328 1_655 S
C260 C261 1.433 . S
C260 H274 0.934 . S
C261 C257 1.323 . S
C261 C260 1.433 . S
C261 H275 0.933 . S
C262 Dy240 2.738 . S
C262 O245 1.255 . S
C262 O246 1.249 . S
C262 C256 1.516 . S
C263 O247 1.254 . S
C263 O248 1.257 . S
C264 O249 1.266 . S
C264 O250 1.236 . S
C265 C268 1.344 . S
C265 C269 1.328 . S
C265 C271 1.516 . S
C266 C267 1.304 . S
C266 C270 1.323 . S
C267 C266 1.304 . S
C267 C268 1.371 . S
C267 H276 0.930 . S
C268 C265 1.344 . S
C268 C267 1.371 . S
C268 H277 0.931 . S
C269 C265 1.328 . S
C269 C270 1.433 . S
C269 H278 0.931 . S
C270 C266 1.323 . S
C270 C269 1.433 . S
C270 H279 0.933 . S
C271 Dy241 2.738 . S
C271 O251 1.255 . S
C271 O252 1.249 . S
C271 C265 1.516 . S
H272 C258 0.930 . S
H273 C259 0.931 1_455 S
H274 C260 0.934 . S
H275 C261 0.933 . S
H276 C267 0.930 . S
H277 C268 0.931 . S
H278 C269 0.931 . S
H279 C270 0.933 . S
Dy280 O283 2.307 . S
Dy280 O285 2.395 . S
Dy280 O286 2.379 . S
Dy280 O288 2.339 . S
Dy280 O290 2.298 . S
Dy280 O294 2.275 . S
Dy280 C302 2.738 . S
Dy281 O284 2.298 . S
Dy281 O287 2.275 . S
Dy281 O289 2.307 . S
Dy281 O291 2.395 . S
Dy281 O292 2.379 . S
Dy281 O295 2.339 . S
Dy281 C311 2.738 . S
C282 O294 1.254 . S
C282 O295 1.257 . S
O283 Dy280 2.307 . S
O283 C293 1.266 . S
O284 Dy281 2.298 . S
O284 C293 1.236 . S
O285 Dy280 2.395 . S
O285 C302 1.255 . S
O286 Dy280 2.379 . S
O286 C302 1.249 . S
O287 Dy281 2.275 . S
O287 C303 1.254 . S
O288 Dy280 2.339 . S
O288 C303 1.257 . S
O289 Dy281 2.307 . S
O289 C304 1.266 . S
O290 Dy280 2.298 . S
O290 C304 1.236 . S
O291 Dy281 2.395 . S
O291 C311 1.255 . S
O292 Dy281 2.379 . S
O292 C311 1.249 . S
C293 O283 1.266 . S
C293 O284 1.236 . S
O294 Dy280 2.275 . S
O294 C282 1.254 . S
O295 Dy281 2.339 . S
O295 C282 1.257 . S
C296 C299 1.344 . S
C296 C300 1.328 . S
C296 C302 1.516 . S
C297 C298 1.304 . S
C297 C301 1.323 . S
C298 C297 1.304 . S
C298 C299 1.371 . S
C298 H312 0.930 . S
C299 C296 1.344 . S
C299 C298 1.371 . S
C299 H313 0.931 . S
C300 C296 1.328 . S
C300 C301 1.433 . S
C300 H314 0.931 . S
C301 C297 1.323 . S
C301 C300 1.433 . S
C301 H315 0.933 . S
C302 Dy280 2.738 . S
C302 O285 1.255 . S
C302 O286 1.249 . S
C302 C296 1.516 . S
C303 O287 1.254 . S
C303 O288 1.257 . S
C304 O289 1.266 . S
C304 O290 1.236 . S
C305 C308 1.344 . S
C305 C309 1.328 . S
C305 C311 1.516 . S
C306 C307 1.304 . S
C306 C310 1.323 . S
C307 C306 1.304 . S
C307 C308 1.371 . S
C307 H316 0.930 . S
C308 C305 1.344 . S
C308 C307 1.371 . S
C308 H317 0.931 . S
C309 C305 1.328 . S
C309 C310 1.433 . S
C309 H318 0.931 . S
C310 C306 1.323 . S
C310 C309 1.433 . S
C310 H319 0.933 . S
C311 Dy281 2.738 . S
C311 O291 1.255 . S
C311 O292 1.249 . S
C311 C305 1.516 . S
H312 C298 0.930 . S
H313 C299 0.931 . S
H314 C300 0.931 . S
H315 C301 0.933 . S
H316 C307 0.930 . S
H317 C308 0.931 . S
H318 C309 0.931 . S
H319 C310 0.933 . S
Dy320 O323 2.307 . S
Dy320 O325 2.395 . S
Dy320 O326 2.379 . S
Dy320 O328 2.339 . S
Dy320 O330 2.298 . S
Dy320 O334 2.275 . S
Dy320 C342 2.738 . S
Dy321 O324 2.298 . S
Dy321 O327 2.275 . S
Dy321 O329 2.307 . S
Dy321 O331 2.395 . S
Dy321 O332 2.379 . S
Dy321 O335 2.339 . S
Dy321 C351 2.738 . S
C322 O334 1.254 . S
C322 O335 1.257 . S
O323 Dy320 2.307 . S
O323 C333 1.266 . S
O324 Dy321 2.298 . S
O324 C333 1.236 . S
O325 Dy320 2.395 . S
O325 C342 1.255 . S
O326 Dy320 2.379 . S
O326 C342 1.249 . S
O327 Dy321 2.275 . S
O327 C343 1.254 . S
O328 Dy320 2.339 . S
O328 C343 1.257 . S
O329 Dy321 2.307 . S
O329 C344 1.266 . S
O330 Dy320 2.298 . S
O330 C344 1.236 . S
O331 Dy321 2.395 . S
O331 C351 1.255 . S
O332 Dy321 2.379 . S
O332 C351 1.249 . S
C333 O323 1.266 . S
C333 O324 1.236 . S
O334 Dy320 2.275 . S
O334 C322 1.254 . S
O335 Dy321 2.339 . S
O335 C322 1.257 . S
C336 C339 1.344 . S
C336 C340 1.328 . S
C336 C342 1.516 1_545 S
C337 C338 1.304 . S
C337 C341 1.323 . S
C338 C337 1.304 . S
C338 C339 1.371 . S
C338 H352 0.930 . S
C339 C336 1.344 . S
C339 C338 1.371 . S
C339 H353 0.931 . S
C340 C336 1.328 . S
C340 C341 1.433 . S
C340 H354 0.931 . S
C341 C337 1.323 . S
C341 C340 1.433 . S
C341 H355 0.933 . S
C342 Dy320 2.738 . S
C342 O325 1.255 . S
C342 O326 1.249 . S
C342 C336 1.516 1_565 S
C343 O327 1.254 . S
C343 O328 1.257 . S
C344 O329 1.266 . S
C344 O330 1.236 . S
C345 C348 1.344 . S
C345 C349 1.328 . S
C345 C351 1.516 . S
C346 C347 1.304 . S
C346 C350 1.323 . S
C347 C346 1.304 . S
C347 C348 1.371 . S
C347 H356 0.930 . S
C348 C345 1.344 . S
C348 C347 1.371 . S
C348 H357 0.931 . S
C349 C345 1.328 . S
C349 C350 1.433 . S
C349 H358 0.931 . S
C350 C346 1.323 . S
C350 C349 1.433 . S
C350 H359 0.933 . S
C351 Dy321 2.738 . S
C351 O331 1.255 . S
C351 O332 1.249 . S
C351 C345 1.516 . S
H352 C338 0.930 . S
H353 C339 0.931 . S
H354 C340 0.931 . S
H355 C341 0.933 . S
H356 C347 0.930 . S
H357 C348 0.931 . S
H358 C349 0.931 . S
H359 C350 0.933 . S
Dy360 O363 2.307 . S
Dy360 O365 2.395 . S
Dy360 O366 2.379 . S
Dy360 O368 2.339 . S
Dy360 O370 2.298 . S
Dy360 O374 2.275 . S
Dy360 C382 2.738 . S
Dy361 O364 2.298 . S
Dy361 O367 2.275 . S
Dy361 O369 2.307 . S
Dy361 O371 2.395 . S
Dy361 O372 2.379 . S
Dy361 O375 2.339 . S
Dy361 C391 2.738 . S
C362 O374 1.254 . S
C362 O375 1.257 . S
O363 Dy360 2.307 . S
O363 C373 1.266 . S
O364 Dy361 2.298 . S
O364 C373 1.236 . S
O365 Dy360 2.395 . S
O365 C382 1.255 . S
O366 Dy360 2.379 . S
O366 C382 1.249 . S
O367 Dy361 2.275 . S
O367 C383 1.254 . S
O368 Dy360 2.339 . S
O368 C383 1.257 . S
O369 Dy361 2.307 . S
O369 C384 1.266 . S
O370 Dy360 2.298 . S
O370 C384 1.236 . S
O371 Dy361 2.395 . S
O371 C391 1.255 . S
O372 Dy361 2.379 . S
O372 C391 1.249 . S
C373 O363 1.266 . S
C373 O364 1.236 . S
O374 Dy360 2.275 . S
O374 C362 1.254 . S
O375 Dy361 2.339 . S
O375 C362 1.257 . S
C376 C379 1.344 . S
C376 C380 1.328 . S
C376 C382 1.516 . S
C377 C378 1.304 . S
C377 C381 1.323 . S
C378 C377 1.304 . S
C378 C379 1.371 . S
C378 H392 0.930 . S
C379 C376 1.344 . S
C379 C378 1.371 . S
C379 H393 0.931 . S
C380 C376 1.328 . S
C380 C381 1.433 . S
C380 H394 0.931 . S
C381 C377 1.323 . S
C381 C380 1.433 . S
C381 H395 0.933 . S
C382 Dy360 2.738 . S
C382 O365 1.255 . S
C382 O366 1.249 . S
C382 C376 1.516 . S
C383 O367 1.254 . S
C383 O368 1.257 . S
C384 O369 1.266 . S
C384 O370 1.236 . S
C385 C388 1.344 . S
C385 C389 1.328 . S
C385 C391 1.516 . S
C386 C387 1.304 . S
C386 C390 1.323 . S
C387 C386 1.304 . S
C387 C388 1.371 1_545 S
C387 H396 0.930 . S
C388 C385 1.344 . S
C388 C387 1.371 1_565 S
C388 H397 0.931 . S
C389 C385 1.328 . S
C389 C390 1.433 1_565 S
C389 H398 0.931 . S
C390 C386 1.323 . S
C390 C389 1.433 1_545 S
C390 H399 0.933 . S
C391 Dy361 2.738 . S
C391 O371 1.255 . S
C391 O372 1.249 . S
C391 C385 1.516 . S
H392 C378 0.930 . S
H393 C379 0.931 . S
H394 C380 0.931 . S
H395 C381 0.933 . S
H396 C387 0.930 . S
H397 C388 0.931 . S
H398 C389 0.931 . S
H399 C390 0.933 . S
Dy400 O403 2.307 . S
Dy400 O405 2.395 . S
Dy400 O406 2.379 . S
Dy400 O408 2.339 . S
Dy400 O410 2.298 . S
Dy400 O414 2.275 . S
Dy400 C422 2.738 . S
Dy401 O404 2.298 . S
Dy401 O407 2.275 . S
Dy401 O409 2.307 . S
Dy401 O411 2.395 . S
Dy401 O412 2.379 . S
Dy401 O415 2.339 . S
Dy401 C431 2.738 . S
C402 O414 1.254 . S
C402 O415 1.257 . S
O403 Dy400 2.307 . S
O403 C413 1.266 . S
O404 Dy401 2.298 . S
O404 C413 1.236 . S
O405 Dy400 2.395 . S
O405 C422 1.255 . S
O406 Dy400 2.379 . S
O406 C422 1.249 . S
O407 Dy401 2.275 . S
O407 C423 1.254 . S
O408 Dy400 2.339 . S
O408 C423 1.257 . S
O409 Dy401 2.307 . S
O409 C424 1.266 . S
O410 Dy400 2.298 . S
O410 C424 1.236 . S
O411 Dy401 2.395 . S
O411 C431 1.255 . S
O412 Dy401 2.379 . S
O412 C431 1.249 . S
C413 O403 1.266 . S
C413 O404 1.236 . S
O414 Dy400 2.275 . S
O414 C402 1.254 . S
O415 Dy401 2.339 . S
O415 C402 1.257 . S
C416 C419 1.344 . S
C416 C420 1.328 . S
C416 C422 1.516 . S
C417 C418 1.304 . S
C417 C421 1.323 . S
C418 C417 1.304 . S
C418 C419 1.371 . S
C418 H432 0.930 . S
C419 C416 1.344 . S
C419 C418 1.371 . S
C419 H433 0.931 . S
C420 C416 1.328 . S
C420 C421 1.433 . S
C420 H434 0.931 . S
C421 C417 1.323 . S
C421 C420 1.433 . S
C421 H435 0.933 . S
C422 Dy400 2.738 . S
C422 O405 1.255 . S
C422 O406 1.249 . S
C422 C416 1.516 . S
C423 O407 1.254 . S
C423 O408 1.257 . S
C424 O409 1.266 . S
C424 O410 1.236 . S
C425 C428 1.344 . S
C425 C429 1.328 . S
C425 C431 1.516 . S
C426 C427 1.304 . S
C426 C430 1.323 . S
C427 C426 1.304 . S
C427 C428 1.371 . S
C427 H436 0.930 . S
C428 C425 1.344 . S
C428 C427 1.371 . S
C428 H437 0.931 . S
C429 C425 1.328 . S
C429 C430 1.433 . S
C429 H438 0.931 . S
C430 C426 1.323 . S
C430 C429 1.433 . S
C430 H439 0.933 . S
C431 Dy401 2.738 . S
C431 O411 1.255 . S
C431 O412 1.249 . S
C431 C425 1.516 . S
H432 C418 0.930 . S
H433 C419 0.931 . S
H434 C420 0.931 . S
H435 C421 0.933 . S
H436 C427 0.930 . S
H437 C428 0.931 . S
H438 C429 0.931 . S
H439 C430 0.933 . S
Dy440 O443 2.307 . S
Dy440 O445 2.395 . S
Dy440 O446 2.379 . S
Dy440 O448 2.339 . S
Dy440 O450 2.298 . S
Dy440 O454 2.275 . S
Dy440 C462 2.738 . S
Dy441 O444 2.298 . S
Dy441 O447 2.275 . S
Dy441 O449 2.307 . S
Dy441 O451 2.395 . S
Dy441 O452 2.379 . S
Dy441 O455 2.339 . S
Dy441 C471 2.738 . S
C442 O454 1.254 . S
C442 O455 1.257 . S
O443 Dy440 2.307 . S
O443 C453 1.266 . S
O444 Dy441 2.298 . S
O444 C453 1.236 . S
O445 Dy440 2.395 . S
O445 C462 1.255 . S
O446 Dy440 2.379 . S
O446 C462 1.249 . S
O447 Dy441 2.275 . S
O447 C463 1.254 . S
O448 Dy440 2.339 . S
O448 C463 1.257 . S
O449 Dy441 2.307 . S
O449 C464 1.266 . S
O450 Dy440 2.298 . S
O450 C464 1.236 . S
O451 Dy441 2.395 . S
O451 C471 1.255 . S
O452 Dy441 2.379 . S
O452 C471 1.249 . S
C453 O443 1.266 . S
C453 O444 1.236 . S
O454 Dy440 2.275 . S
O454 C442 1.254 . S
O455 Dy441 2.339 . S
O455 C442 1.257 . S
C456 C459 1.344 . S
C456 C460 1.328 . S
C456 C462 1.516 . S
C457 C458 1.304 . S
C457 C461 1.323 . S
C458 C457 1.304 . S
C458 C459 1.371 . S
C458 H472 0.930 . S
C459 C456 1.344 . S
C459 C458 1.371 . S
C459 H473 0.931 . S
C460 C456 1.328 . S
C460 C461 1.433 . S
C460 H474 0.931 . S
C461 C457 1.323 . S
C461 C460 1.433 . S
C461 H475 0.933 . S
C462 Dy440 2.738 . S
C462 O445 1.255 . S
C462 O446 1.249 . S
C462 C456 1.516 . S
C463 O447 1.254 . S
C463 O448 1.257 . S
C464 O449 1.266 . S
C464 O450 1.236 . S
C465 C468 1.344 . S
C465 C469 1.328 . S
C465 C471 1.516 . S
C466 C467 1.304 . S
C466 C470 1.323 . S
C467 C466 1.304 . S
C467 C468 1.371 . S
C467 H476 0.930 . S
C468 C465 1.344 . S
C468 C467 1.371 . S
C468 H477 0.931 . S
C469 C465 1.328 . S
C469 C470 1.433 . S
C469 H478 0.931 . S
C470 C466 1.323 . S
C470 C469 1.433 . S
C470 H479 0.933 . S
C471 Dy441 2.738 . S
C471 O451 1.255 . S
C471 O452 1.249 . S
C471 C465 1.516 . S
H472 C458 0.930 . S
H473 C459 0.931 . S
H474 C460 0.931 . S
H475 C461 0.933 . S
H476 C467 0.930 . S
H477 C468 0.931 . S
H478 C469 0.931 . S
H479 C470 0.933 . S
Dy480 O483 2.307 . S
Dy480 O485 2.395 . S
Dy480 O486 2.379 . S
Dy480 O488 2.339 . S
Dy480 O490 2.298 . S
Dy480 O494 2.275 . S
Dy480 C502 2.738 . S
Dy481 O484 2.298 . S
Dy481 O487 2.275 . S
Dy481 O489 2.307 . S
Dy481 O491 2.395 . S
Dy481 O492 2.379 . S
Dy481 O495 2.339 . S
Dy481 C511 2.738 . S
C482 O494 1.254 . S
C482 O495 1.257 . S
O483 Dy480 2.307 . S
O483 C493 1.266 . S
O484 Dy481 2.298 . S
O484 C493 1.236 . S
O485 Dy480 2.395 . S
O485 C502 1.255 . S
O486 Dy480 2.379 . S
O486 C502 1.249 . S
O487 Dy481 2.275 . S
O487 C503 1.254 . S
O488 Dy480 2.339 . S
O488 C503 1.257 . S
O489 Dy481 2.307 . S
O489 C504 1.266 . S
O490 Dy480 2.298 . S
O490 C504 1.236 . S
O491 Dy481 2.395 . S
O491 C511 1.255 . S
O492 Dy481 2.379 . S
O492 C511 1.249 . S
C493 O483 1.266 . S
C493 O484 1.236 . S
O494 Dy480 2.275 . S
O494 C482 1.254 . S
O495 Dy481 2.339 . S
O495 C482 1.257 . S
C496 C499 1.344 . S
C496 C500 1.328 . S
C496 C502 1.516 . S
C497 C498 1.304 . S
C497 C501 1.323 . S
C498 C497 1.304 . S
C498 C499 1.371 . S
C498 H512 0.930 . S
C499 C496 1.344 . S
C499 C498 1.371 . S
C499 H513 0.931 . S
C500 C496 1.328 . S
C500 C501 1.433 . S
C500 H514 0.931 . S
C501 C497 1.323 . S
C501 C500 1.433 . S
C501 H515 0.933 . S
C502 Dy480 2.738 . S
C502 O485 1.255 . S
C502 O486 1.249 . S
C502 C496 1.516 . S
C503 O487 1.254 . S
C503 O488 1.257 . S
C504 O489 1.266 . S
C504 O490 1.236 . S
C505 C508 1.344 . S
C505 C509 1.328 . S
C505 C511 1.516 . S
C506 C507 1.304 . S
C506 C510 1.323 . S
C507 C506 1.304 . S
C507 C508 1.371 1_455 S
C507 H516 0.930 . S
C508 C505 1.344 . S
C508 C507 1.371 1_655 S
C508 H517 0.931 . S
C509 C505 1.328 . S
C509 C510 1.433 1_655 S
C509 H518 0.931 . S
C510 C506 1.323 . S
C510 C509 1.433 1_455 S
C510 H519 0.933 . S
C511 Dy481 2.738 . S
C511 O491 1.255 . S
C511 O492 1.249 . S
C511 C505 1.516 . S
H512 C498 0.930 . S
H513 C499 0.931 . S
H514 C500 0.931 . S
H515 C501 0.933 . S
H516 C507 0.930 . S
H517 C508 0.931 . S
H518 C509 0.931 . S
H519 C510 0.933 . S
Dy520 O523 2.307 . S
Dy520 O525 2.395 . S
Dy520 O526 2.379 . S
Dy520 O528 2.339 . S
Dy520 O530 2.298 . S
Dy520 O534 2.275 . S
Dy520 C542 2.738 . S
Dy521 O524 2.298 . S
Dy521 O527 2.275 . S
Dy521 O529 2.307 . S
Dy521 O531 2.395 . S
Dy521 O532 2.379 . S
Dy521 O535 2.339 . S
Dy521 C551 2.738 . S
C522 O534 1.254 . S
C522 O535 1.257 . S
O523 Dy520 2.307 . S
O523 C533 1.266 . S
O524 Dy521 2.298 . S
O524 C533 1.236 . S
O525 Dy520 2.395 . S
O525 C542 1.255 . S
O526 Dy520 2.379 . S
O526 C542 1.249 . S
O527 Dy521 2.275 . S
O527 C543 1.254 . S
O528 Dy520 2.339 . S
O528 C543 1.257 . S
O529 Dy521 2.307 . S
O529 C544 1.266 . S
O530 Dy520 2.298 . S
O530 C544 1.236 . S
O531 Dy521 2.395 . S
O531 C551 1.255 . S
O532 Dy521 2.379 . S
O532 C551 1.249 . S
C533 O523 1.266 . S
C533 O524 1.236 . S
O534 Dy520 2.275 . S
O534 C522 1.254 . S
O535 Dy521 2.339 . S
O535 C522 1.257 . S
C536 C539 1.344 . S
C536 C540 1.328 . S
C536 C542 1.516 . S
C537 C538 1.304 . S
C537 C541 1.323 . S
C538 C537 1.304 . S
C538 C539 1.371 . S
C538 H552 0.930 . S
C539 C536 1.344 . S
C539 C538 1.371 . S
C539 H553 0.931 . S
C540 C536 1.328 . S
C540 C541 1.433 . S
C540 H554 0.931 . S
C541 C537 1.323 . S
C541 C540 1.433 . S
C541 H555 0.933 . S
C542 Dy520 2.738 . S
C542 O525 1.255 . S
C542 O526 1.249 . S
C542 C536 1.516 . S
C543 O527 1.254 . S
C543 O528 1.257 . S
C544 O529 1.266 . S
C544 O530 1.236 . S
C545 C548 1.344 . S
C545 C549 1.328 . S
C545 C551 1.516 . S
C546 C547 1.304 . S
C546 C550 1.323 . S
C547 C546 1.304 . S
C547 C548 1.371 . S
C547 H556 0.930 . S
C548 C545 1.344 . S
C548 C547 1.371 . S
C548 H557 0.931 . S
C549 C545 1.328 . S
C549 C550 1.433 . S
C549 H558 0.931 . S
C550 C546 1.323 . S
C550 C549 1.433 . S
C550 H559 0.933 . S
C551 Dy521 2.738 . S
C551 O531 1.255 . S
C551 O532 1.249 . S
C551 C545 1.516 . S
H552 C538 0.930 . S
H553 C539 0.931 . S
H554 C540 0.931 . S
H555 C541 0.933 . S
H556 C547 0.930 . S
H557 C548 0.931 . S
H558 C549 0.931 . S
H559 C550 0.933 . S
Dy560 O563 2.307 . S
Dy560 O565 2.395 . S
Dy560 O566 2.379 . S
Dy560 O568 2.339 . S
Dy560 O570 2.298 . S
Dy560 O574 2.275 . S
Dy560 C582 2.738 . S
Dy561 O564 2.298 . S
Dy561 O567 2.275 . S
Dy561 O569 2.307 . S
Dy561 O571 2.395 . S
Dy561 O572 2.379 . S
Dy561 O575 2.339 . S
Dy561 C591 2.738 . S
C562 O574 1.254 . S
C562 O575 1.257 . S
O563 Dy560 2.307 . S
O563 C573 1.266 . S
O564 Dy561 2.298 . S
O564 C573 1.236 . S
O565 Dy560 2.395 . S
O565 C582 1.255 . S
O566 Dy560 2.379 . S
O566 C582 1.249 . S
O567 Dy561 2.275 . S
O567 C583 1.254 . S
O568 Dy560 2.339 . S
O568 C583 1.257 . S
O569 Dy561 2.307 . S
O569 C584 1.266 . S
O570 Dy560 2.298 . S
O570 C584 1.236 . S
O571 Dy561 2.395 . S
O571 C591 1.255 . S
O572 Dy561 2.379 . S
O572 C591 1.249 . S
C573 O563 1.266 . S
C573 O564 1.236 . S
O574 Dy560 2.275 . S
O574 C562 1.254 . S
O575 Dy561 2.339 . S
O575 C562 1.257 . S
C576 C579 1.344 . S
C576 C580 1.328 . S
C576 C582 1.516 . S
C577 C578 1.304 . S
C577 C581 1.323 . S
C578 C577 1.304 . S
C578 C579 1.371 . S
C578 H592 0.930 . S
C579 C576 1.344 . S
C579 C578 1.371 . S
C579 H593 0.931 . S
C580 C576 1.328 . S
C580 C581 1.433 . S
C580 H594 0.931 . S
C581 C577 1.323 . S
C581 C580 1.433 . S
C581 H595 0.933 . S
C582 Dy560 2.738 . S
C582 O565 1.255 . S
C582 O566 1.249 . S
C582 C576 1.516 . S
C583 O567 1.254 . S
C583 O568 1.257 . S
C584 O569 1.266 . S
C584 O570 1.236 . S
C585 C588 1.344 . S
C585 C589 1.328 . S
C585 C591 1.516 . S
C586 C587 1.304 . S
C586 C590 1.323 . S
C587 C586 1.304 . S
C587 C588 1.371 . S
C587 H596 0.930 . S
C588 C585 1.344 . S
C588 C587 1.371 . S
C588 H597 0.931 . S
C589 C585 1.328 . S
C589 C590 1.433 . S
C589 H598 0.931 . S
C590 C586 1.323 . S
C590 C589 1.433 . S
C590 H599 0.933 . S
C591 Dy561 2.738 . S
C591 O571 1.255 . S
C591 O572 1.249 . S
C591 C585 1.516 . S
H592 C578 0.930 . S
H593 C579 0.931 . S
H594 C580 0.931 . S
H595 C581 0.933 . S
H596 C587 0.930 . S
H597 C588 0.931 . S
H598 C589 0.931 . S
H599 C590 0.933 . S
Dy600 O603 2.307 . S
Dy600 O605 2.395 . S
Dy600 O606 2.379 . S
Dy600 O608 2.339 . S
Dy600 O610 2.298 . S
Dy600 O614 2.275 . S
Dy600 C622 2.738 . S
Dy601 O604 2.298 . S
Dy601 O607 2.275 . S
Dy601 O609 2.307 . S
Dy601 O611 2.395 . S
Dy601 O612 2.379 . S
Dy601 O615 2.339 . S
Dy601 C631 2.738 . S
C602 O614 1.254 . S
C602 O615 1.257 . S
O603 Dy600 2.307 . S
O603 C613 1.266 . S
O604 Dy601 2.298 . S
O604 C613 1.236 . S
O605 Dy600 2.395 . S
O605 C622 1.255 . S
O606 Dy600 2.379 . S
O606 C622 1.249 . S
O607 Dy601 2.275 . S
O607 C623 1.254 . S
O608 Dy600 2.339 . S
O608 C623 1.257 . S
O609 Dy601 2.307 . S
O609 C624 1.266 . S
O610 Dy600 2.298 . S
O610 C624 1.236 . S
O611 Dy601 2.395 . S
O611 C631 1.255 . S
O612 Dy601 2.379 . S
O612 C631 1.249 . S
C613 O603 1.266 . S
C613 O604 1.236 . S
O614 Dy600 2.275 . S
O614 C602 1.254 . S
O615 Dy601 2.339 . S
O615 C602 1.257 . S
C616 C619 1.344 1_545 S
C616 C620 1.328 1_545 S
C616 C622 1.516 . S
C617 C618 1.304 . S
C617 C621 1.323 . S
C618 C617 1.304 . S
C618 C619 1.371 . S
C618 H632 0.930 . S
C619 C616 1.344 1_565 S
C619 C618 1.371 . S
C619 H633 0.931 1_565 S
C620 C616 1.328 1_565 S
C620 C621 1.433 . S
C620 H634 0.934 . S
C621 C617 1.323 . S
C621 C620 1.433 . S
C621 H635 0.933 . S
C622 Dy600 2.738 . S
C622 O605 1.255 . S
C622 O606 1.249 . S
C622 C616 1.516 . S
C623 O607 1.254 . S
C623 O608 1.257 . S
C624 O609 1.266 . S
C624 O610 1.236 . S
C625 C628 1.344 . S
C625 C629 1.328 . S
C625 C631 1.516 . S
C626 C627 1.304 . S
C626 C630 1.323 . S
C627 C626 1.304 . S
C627 C628 1.371 . S
C627 H636 0.930 . S
C628 C625 1.344 . S
C628 C627 1.371 . S
C628 H637 0.931 . S
C629 C625 1.328 . S
C629 C630 1.433 . S
C629 H638 0.931 . S
C630 C626 1.323 . S
C630 C629 1.433 . S
C630 H639 0.933 . S
C631 Dy601 2.738 . S
C631 O611 1.255 . S
C631 O612 1.249 . S
C631 C625 1.516 . S
H632 C618 0.930 . S
H633 C619 0.931 1_545 S
H634 C620 0.934 . S
H635 C621 0.933 . S
H636 C627 0.930 . S
H637 C628 0.931 . S
H638 C629 0.931 . S
H639 C630 0.933 . S
Dy640 O643 2.307 . S
Dy640 O645 2.395 . S
Dy640 O646 2.379 . S
Dy640 O648 2.339 . S
Dy640 O650 2.298 . S
Dy640 O654 2.275 . S
Dy640 C662 2.738 . S
Dy641 O644 2.298 . S
Dy641 O647 2.275 . S
Dy641 O649 2.307 . S
Dy641 O651 2.395 . S
Dy641 O652 2.379 . S
Dy641 O655 2.339 . S
Dy641 C671 2.738 . S
C642 O654 1.254 . S
C642 O655 1.257 . S
O643 Dy640 2.307 . S
O643 C653 1.266 . S
O644 Dy641 2.298 . S
O644 C653 1.236 . S
O645 Dy640 2.395 . S
O645 C662 1.255 . S
O646 Dy640 2.379 . S
O646 C662 1.249 . S
O647 Dy641 2.275 . S
O647 C663 1.254 . S
O648 Dy640 2.339 . S
O648 C663 1.257 . S
O649 Dy641 2.307 . S
O649 C664 1.266 . S
O650 Dy640 2.298 . S
O650 C664 1.236 . S
O651 Dy641 2.395 . S
O651 C671 1.255 . S
O652 Dy641 2.379 . S
O652 C671 1.249 . S
C653 O643 1.266 . S
C653 O644 1.236 . S
O654 Dy640 2.275 . S
O654 C642 1.254 . S
O655 Dy641 2.339 . S
O655 C642 1.257 . S
C656 C659 1.344 . S
C656 C660 1.328 . S
C656 C662 1.516 1_455 S
C657 C658 1.304 . S
C657 C661 1.323 . S
C658 C657 1.304 . S
C658 C659 1.371 . S
C658 H672 0.930 . S
C659 C656 1.344 . S
C659 C658 1.371 . S
C659 H673 0.931 . S
C660 C656 1.328 . S
C660 C661 1.433 . S
C660 H674 0.931 . S
C661 C657 1.323 . S
C661 C660 1.433 . S
C661 H675 0.933 . S
C662 Dy640 2.738 . S
C662 O645 1.255 . S
C662 O646 1.249 . S
C662 C656 1.516 1_655 S
C663 O647 1.254 . S
C663 O648 1.257 . S
C664 O649 1.266 . S
C664 O650 1.236 . S
C665 C668 1.344 . S
C665 C669 1.328 . S
C665 C671 1.516 . S
C666 C667 1.304 . S
C666 C670 1.323 . S
C667 C666 1.304 . S
C667 C668 1.371 . S
C667 H676 0.930 . S
C668 C665 1.344 . S
C668 C667 1.371 . S
C668 H677 0.931 . S
C669 C665 1.328 . S
C669 C670 1.433 . S
C669 H678 0.931 . S
C670 C666 1.323 . S
C670 C669 1.433 . S
C670 H679 0.933 . S
C671 Dy641 2.738 . S
C671 O651 1.255 . S
C671 O652 1.249 . S
C671 C665 1.516 . S
H672 C658 0.930 . S
H673 C659 0.931 . S
H674 C660 0.931 . S
H675 C661 0.933 . S
H676 C667 0.930 . S
H677 C668 0.931 . S
H678 C669 0.931 . S
H679 C670 0.933 . S
Dy680 O683 2.307 . S
Dy680 O685 2.395 . S
Dy680 O686 2.379 . S
Dy680 O688 2.339 . S
Dy680 O690 2.298 . S
Dy680 O694 2.275 . S
Dy680 C702 2.738 . S
Dy681 O684 2.298 . S
Dy681 O687 2.275 . S
Dy681 O689 2.307 . S
Dy681 O691 2.395 . S
Dy681 O692 2.379 . S
Dy681 O695 2.339 . S
Dy681 C711 2.738 . S
C682 O694 1.254 . S
C682 O695 1.257 . S
O683 Dy680 2.307 . S
O683 C693 1.266 . S
O684 Dy681 2.298 . S
O684 C693 1.236 . S
O685 Dy680 2.395 . S
O685 C702 1.255 . S
O686 Dy680 2.379 . S
O686 C702 1.249 . S
O687 Dy681 2.275 . S
O687 C703 1.254 . S
O688 Dy680 2.339 . S
O688 C703 1.257 . S
O689 Dy681 2.307 . S
O689 C704 1.266 . S
O690 Dy680 2.298 . S
O690 C704 1.236 . S
O691 Dy681 2.395 . S
O691 C711 1.255 . S
O692 Dy681 2.379 . S
O692 C711 1.249 . S
C693 O683 1.266 . S
C693 O684 1.236 . S
O694 Dy680 2.275 . S
O694 C682 1.254 . S
O695 Dy681 2.339 . S
O695 C682 1.257 . S
C696 C699 1.344 . S
C696 C700 1.328 . S
C696 C702 1.516 . S
C697 C698 1.304 . S
C697 C701 1.323 . S
C698 C697 1.304 . S
C698 C699 1.371 . S
C698 H712 0.930 . S
C699 C696 1.344 . S
C699 C698 1.371 . S
C699 H713 0.931 . S
C700 C696 1.328 . S
C700 C701 1.433 . S
C700 H714 0.931 . S
C701 C697 1.323 . S
C701 C700 1.433 . S
C701 H715 0.933 . S
C702 Dy680 2.738 . S
C702 O685 1.255 . S
C702 O686 1.249 . S
C702 C696 1.516 . S
C703 O687 1.254 . S
C703 O688 1.257 . S
C704 O689 1.266 . S
C704 O690 1.236 . S
C705 C708 1.344 . S
C705 C709 1.328 . S
C705 C711 1.516 . S
C706 C707 1.304 . S
C706 C710 1.323 . S
C707 C706 1.304 . S
C707 C708 1.371 . S
C707 H716 0.930 . S
C708 C705 1.344 . S
C708 C707 1.371 . S
C708 H717 0.931 . S
C709 C705 1.328 . S
C709 C710 1.433 . S
C709 H718 0.931 . S
C710 C706 1.323 . S
C710 C709 1.433 . S
C710 H719 0.933 . S
C711 Dy681 2.738 . S
C711 O691 1.255 . S
C711 O692 1.249 . S
C711 C705 1.516 . S
H712 C698 0.930 . S
H713 C699 0.931 . S
H714 C700 0.931 . S
H715 C701 0.933 . S
H716 C707 0.930 . S
H717 C708 0.931 . S
H718 C709 0.931 . S
H719 C710 0.933 . S
H720 C726 0.930 . S
H721 C730 0.930 . S
H722 C735 0.929 . S
H723 C733 0.929 . S
H724 C728 0.929 . S
H725 C734 0.929 . S
C726 H720 0.930 . S
C726 C727 1.367 . S
C726 C734 1.378 . S
C727 C726 1.367 . S
C727 C735 1.433 . S
C728 H724 0.929 . S
C728 C730 1.378 . S
C728 C732 1.350 . S
C729 C732 1.463 . S
C729 C734 1.350 . S
C729 N737 1.427 . S
C730 H721 0.930 . S
C730 C728 1.378 . S
C730 C731 1.367 . S
C731 C730 1.367 . S
C731 C733 1.433 . S
C732 C728 1.350 . S
C732 C729 1.463 . S
C732 N736 1.427 . S
C733 H723 0.929 . S
C733 C731 1.433 . S
C733 N736 1.384 . S
C734 H725 0.929 . S
C734 C726 1.378 . S
C734 C729 1.350 . S
C735 H722 0.929 . S
C735 C727 1.433 . S
C735 N737 1.384 . S
N736 C732 1.427 . S
N736 C733 1.384 . S
N737 C729 1.427 . S
N737 C735 1.384 . S
H738 C744 0.930 . S
H739 C748 0.930 . S
H740 C753 0.929 . S
H741 C751 0.929 . S
H742 C746 0.929 . S
H743 C752 0.929 . S
C744 H738 0.930 . S
C744 C745 1.367 . S
C744 C752 1.378 . S
C745 C744 1.367 . S
C745 C753 1.433 . S
C746 H742 0.929 . S
C746 C748 1.378 . S
C746 C750 1.350 . S
C747 C750 1.463 . S
C747 C752 1.350 . S
C747 N755 1.427 . S
C748 H739 0.930 . S
C748 C746 1.378 . S
C748 C749 1.367 . S
C749 C748 1.367 . S
C749 C751 1.433 . S
C750 C746 1.350 . S
C750 C747 1.463 . S
C750 N754 1.427 . S
C751 H741 0.929 . S
C751 C749 1.433 . S
C751 N754 1.384 . S
C752 H743 0.929 . S
C752 C744 1.378 . S
C752 C747 1.350 . S
C753 H740 0.929 . S
C753 C745 1.433 . S
C753 N755 1.384 . S
N754 C750 1.427 . S
N754 C751 1.384 . S
N755 C747 1.427 . S
N755 C753 1.384 . S
H756 C762 0.930 . S
H757 C766 0.930 . S
H758 C771 0.929 . S
H759 C769 0.929 . S
H760 C764 0.929 . S
H761 C770 0.929 . S
C762 H756 0.930 . S
C762 C763 1.367 . S
C762 C770 1.378 . S
C763 C762 1.367 . S
C763 C771 1.433 . S
C764 H760 0.929 . S
C764 C766 1.378 . S
C764 C768 1.350 . S
C765 C768 1.463 . S
C765 C770 1.350 . S
C765 N773 1.427 . S
C766 H757 0.930 . S
C766 C764 1.378 . S
C766 C767 1.367 . S
C767 C766 1.367 . S
C767 C769 1.433 . S
C768 C764 1.350 . S
C768 C765 1.463 . S
C768 N772 1.427 . S
C769 H759 0.929 . S
C769 C767 1.433 . S
C769 N772 1.384 . S
C770 H761 0.929 . S
C770 C762 1.378 . S
C770 C765 1.350 . S
C771 H758 0.929 . S
C771 C763 1.433 . S
C771 N773 1.384 . S
N772 C768 1.427 . S
N772 C769 1.384 . S
N773 C765 1.427 . S
N773 C771 1.384 . S
H774 C780 0.930 . S
H775 C784 0.930 . S
H776 C789 0.929 . S
H777 C787 0.929 . S
H778 C782 0.929 . S
H779 C788 0.929 . S
C780 H774 0.930 . S
C780 C781 1.367 . S
C780 C788 1.378 . S
C781 C780 1.367 . S
C781 C789 1.433 . S
C782 H778 0.929 . S
C782 C784 1.378 . S
C782 C786 1.350 . S
C783 C786 1.463 . S
C783 C788 1.350 . S
C783 N791 1.427 . S
C784 H775 0.930 . S
C784 C782 1.378 . S
C784 C785 1.367 . S
C785 C784 1.367 . S
C785 C787 1.433 . S
C786 C782 1.350 . S
C786 C783 1.463 . S
C786 N790 1.427 . S
C787 H777 0.929 . S
C787 C785 1.433 . S
C787 N790 1.384 . S
C788 H779 0.929 . S
C788 C780 1.378 . S
C788 C783 1.350 . S
C789 H776 0.929 . S
C789 C781 1.433 . S
C789 N791 1.384 . S
N790 C786 1.427 . S
N790 C787 1.384 . S
N791 C783 1.427 . S
N791 C789 1.384 . S
H792 C798 0.930 . S
H793 C802 0.930 . S
H794 C807 0.929 . S
H795 C805 0.929 . S
H796 C800 0.929 . S
H797 C806 0.929 . S
C798 H792 0.930 . S
C798 C799 1.367 . S
C798 C806 1.378 . S
C799 C798 1.367 . S
C799 C807 1.433 . S
C800 H796 0.929 . S
C800 C802 1.378 . S
C800 C804 1.350 . S
C801 C804 1.463 . S
C801 C806 1.350 . S
C801 N809 1.427 . S
C802 H793 0.930 . S
C802 C800 1.378 . S
C802 C803 1.367 . S
C803 C802 1.367 . S
C803 C805 1.433 . S
C804 C800 1.350 . S
C804 C801 1.463 . S
C804 N808 1.427 . S
C805 H795 0.929 . S
C805 C803 1.433 . S
C805 N808 1.384 . S
C806 H797 0.929 . S
C806 C798 1.378 . S
C806 C801 1.350 . S
C807 H794 0.929 . S
C807 C799 1.433 . S
C807 N809 1.384 . S
N808 C804 1.427 . S
N808 C805 1.384 . S
N809 C801 1.427 . S
N809 C807 1.384 . S
H810 C816 0.930 . S
H811 C820 0.930 . S
H812 C825 0.929 . S
H813 C823 0.929 . S
H814 C818 0.929 . S
H815 C824 0.929 . S
C816 H810 0.930 . S
C816 C817 1.367 . S
C816 C824 1.378 . S
C817 C816 1.367 . S
C817 C825 1.433 . S
C818 H814 0.929 . S
C818 C820 1.378 . S
C818 C822 1.350 . S
C819 C822 1.463 . S
C819 C824 1.350 . S
C819 N827 1.427 . S
C820 H811 0.930 . S
C820 C818 1.378 . S
C820 C821 1.367 . S
C821 C820 1.367 . S
C821 C823 1.433 . S
C822 C818 1.350 . S
C822 C819 1.463 . S
C822 N826 1.427 . S
C823 H813 0.929 . S
C823 C821 1.433 . S
C823 N826 1.384 . S
C824 H815 0.929 . S
C824 C816 1.378 . S
C824 C819 1.350 . S
C825 H812 0.929 . S
C825 C817 1.433 . S
C825 N827 1.384 . S
N826 C822 1.427 . S
N826 C823 1.384 . S
N827 C819 1.427 . S
N827 C825 1.384 . S
H828 C834 0.930 . S
H829 C838 0.930 . S
H830 C843 0.929 . S
H831 C841 0.929 . S
H832 C836 0.929 . S
H833 C842 0.929 . S
C834 H828 0.930 . S
C834 C835 1.367 . S
C834 C842 1.378 . S
C835 C834 1.367 . S
C835 C843 1.433 . S
C836 H832 0.929 . S
C836 C838 1.378 . S
C836 C840 1.350 . S
C837 C840 1.463 . S
C837 C842 1.350 . S
C837 N845 1.427 . S
C838 H829 0.930 . S
C838 C836 1.378 . S
C838 C839 1.367 . S
C839 C838 1.367 . S
C839 C841 1.433 . S
C840 C836 1.350 . S
C840 C837 1.463 . S
C840 N844 1.427 . S
C841 H831 0.929 . S
C841 C839 1.433 . S
C841 N844 1.384 . S
C842 H833 0.929 . S
C842 C834 1.378 . S
C842 C837 1.350 . S
C843 H830 0.929 . S
C843 C835 1.433 . S
C843 N845 1.384 . S
N844 C840 1.427 . S
N844 C841 1.384 . S
N845 C837 1.427 . S
N845 C843 1.384 . S
H846 C852 0.930 . S
H847 C856 0.930 . S
H848 C861 0.929 . S
H849 C859 0.929 . S
H850 C854 0.929 . S
H851 C860 0.929 . S
C852 H846 0.930 . S
C852 C853 1.367 . S
C852 C860 1.378 . S
C853 C852 1.367 . S
C853 C861 1.433 . S
C854 H850 0.929 . S
C854 C856 1.378 . S
C854 C858 1.350 . S
C855 C858 1.463 1_545 S
C855 C860 1.350 . S
C855 N863 1.427 . S
C856 H847 0.930 . S
C856 C854 1.378 . S
C856 C857 1.367 . S
C857 C856 1.367 . S
C857 C859 1.433 . S
C858 C854 1.350 . S
C858 C855 1.463 1_565 S
C858 N862 1.427 . S
C859 H849 0.929 . S
C859 C857 1.433 . S
C859 N862 1.384 . S
C860 H851 0.929 . S
C860 C852 1.378 . S
C860 C855 1.350 . S
C861 H848 0.929 . S
C861 C853 1.433 . S
C861 N863 1.384 . S
N862 C858 1.427 . S
N862 C859 1.384 . S
N863 C855 1.427 . S
N863 C861 1.384 . S
H864 C870 0.930 . S
H865 C874 0.930 . S
H866 C879 0.929 . S
H867 C877 0.929 . S
H868 C872 0.929 . S
H869 C878 0.929 . S
C870 H864 0.930 . S
C870 C871 1.367 . S
C870 C878 1.378 . S
C871 C870 1.367 . S
C871 C879 1.433 . S
C872 H868 0.929 . S
C872 C874 1.378 . S
C872 C876 1.350 1_655 S
C873 C876 1.463 . S
C873 C878 1.350 . S
C873 N881 1.427 . S
C874 H865 0.930 . S
C874 C872 1.378 . S
C874 C875 1.367 . S
C875 C874 1.367 . S
C875 C877 1.433 . S
C876 C872 1.350 1_455 S
C876 C873 1.463 . S
C876 N880 1.427 1_455 S
C877 H867 0.929 . S
C877 C875 1.433 . S
C877 N880 1.384 . S
C878 H869 0.929 . S
C878 C870 1.378 . S
C878 C873 1.350 . S
C879 H866 0.929 . S
C879 C871 1.433 . S
C879 N881 1.384 . S
N880 C876 1.427 1_655 S
N880 C877 1.384 . S
N881 C873 1.427 . S
N881 C879 1.384 . S
H882 C888 0.930 . S
H883 C892 0.930 . S
H884 C897 0.929 . S
H885 C895 0.929 . S
H886 C890 0.929 . S
H887 C896 0.929 . S
C888 H882 0.930 . S
C888 C889 1.367 . S
C888 C896 1.378 . S
C889 C888 1.367 . S
C889 C897 1.433 . S
C890 H886 0.929 . S
C890 C892 1.378 . S
C890 C894 1.350 . S
C891 C894 1.463 . S
C891 C896 1.350 . S
C891 N899 1.427 . S
C892 H883 0.930 . S
C892 C890 1.378 . S
C892 C893 1.367 . S
C893 C892 1.367 . S
C893 C895 1.433 . S
C894 C890 1.350 . S
C894 C891 1.463 . S
C894 N898 1.427 . S
C895 H885 0.929 . S
C895 C893 1.433 . S
C895 N898 1.384 . S
C896 H887 0.929 . S
C896 C888 1.378 . S
C896 C891 1.350 . S
C897 H884 0.929 . S
C897 C889 1.433 . S
C897 N899 1.384 . S
N898 C894 1.427 . S
N898 C895 1.384 . S
N899 C891 1.427 . S
N899 C897 1.384 . S
H900 C906 0.930 . S
H901 C910 0.930 . S
H902 C915 0.929 . S
H903 C913 0.929 . S
H904 C908 0.929 . S
H905 C914 0.929 . S
C906 H900 0.930 . S
C906 C907 1.367 . S
C906 C914 1.378 . S
C907 C906 1.367 . S
C907 C915 1.433 . S
C908 H904 0.929 . S
C908 C910 1.378 . S
C908 C912 1.350 . S
C909 C912 1.463 . S
C909 C914 1.350 . S
C909 N917 1.427 . S
C910 H901 0.930 . S
C910 C908 1.378 . S
C910 C911 1.367 . S
C911 C910 1.367 . S
C911 C913 1.433 . S
C912 C908 1.350 . S
C912 C909 1.463 . S
C912 N916 1.427 . S
C913 H903 0.929 . S
C913 C911 1.433 . S
C913 N916 1.384 . S
C914 H905 0.929 . S
C914 C906 1.378 . S
C914 C909 1.350 . S
C915 H902 0.929 . S
C915 C907 1.433 . S
C915 N917 1.384 . S
N916 C912 1.427 . S
N916 C913 1.384 . S
N917 C909 1.427 . S
N917 C915 1.384 . S
H918 C924 0.930 . S
H919 C928 0.930 . S
H920 C933 0.929 . S
H921 C931 0.929 . S
H922 C926 0.929 . S
H923 C932 0.929 . S
C924 H918 0.930 . S
C924 C925 1.367 . S
C924 C932 1.378 . S
C925 C924 1.367 . S
C925 C933 1.433 . S
C926 H922 0.929 . S
C926 C928 1.378 . S
C926 C930 1.350 . S
C927 C930 1.463 . S
C927 C932 1.350 . S
C927 N935 1.427 . S
C928 H919 0.930 . S
C928 C926 1.378 . S
C928 C929 1.367 . S
C929 C928 1.367 . S
C929 C931 1.433 . S
C930 C926 1.350 . S
C930 C927 1.463 . S
C930 N934 1.427 . S
C931 H921 0.929 . S
C931 C929 1.433 . S
C931 N934 1.384 . S
C932 H923 0.929 . S
C932 C924 1.378 . S
C932 C927 1.350 . S
C933 H920 0.929 . S
C933 C925 1.433 . S
C933 N935 1.384 . S
N934 C930 1.427 . S
N934 C931 1.384 . S
N935 C927 1.427 . S
N935 C933 1.384 . S
H936 C942 0.930 . S
H937 C946 0.930 . S
H938 C951 0.929 . S
H939 C949 0.929 . S
H940 C944 0.929 . S
H941 C950 0.929 . S
C942 H936 0.930 . S
C942 C943 1.367 . S
C942 C950 1.378 . S
C943 C942 1.367 . S
C943 C951 1.433 . S
C944 H940 0.929 . S
C944 C946 1.378 . S
C944 C948 1.350 . S
C945 C948 1.463 . S
C945 C950 1.350 . S
C945 N953 1.427 . S
C946 H937 0.930 . S
C946 C944 1.378 . S
C946 C947 1.367 . S
C947 C946 1.367 . S
C947 C949 1.433 . S
C948 C944 1.350 . S
C948 C945 1.463 . S
C948 N952 1.427 . S
C949 H939 0.929 . S
C949 C947 1.433 . S
C949 N952 1.384 . S
C950 H941 0.929 . S
C950 C942 1.378 . S
C950 C945 1.350 . S
C951 H938 0.929 . S
C951 C943 1.433 . S
C951 N953 1.384 . S
N952 C948 1.427 . S
N952 C949 1.384 . S
N953 C945 1.427 . S
N953 C951 1.384 . S
H954 C960 0.930 . S
H955 C964 0.930 . S
H956 C969 0.929 . S
H957 C967 0.929 . S
H958 C962 0.929 . S
H959 C968 0.929 . S
C960 H954 0.930 . S
C960 C961 1.367 . S
C960 C968 1.378 . S
C961 C960 1.367 . S
C961 C969 1.433 . S
C962 H958 0.929 . S
C962 C964 1.378 . S
C962 C966 1.350 . S
C963 C966 1.463 . S
C963 C968 1.350 . S
C963 N971 1.427 . S
C964 H955 0.930 . S
C964 C962 1.378 . S
C964 C965 1.367 . S
C965 C964 1.367 . S
C965 C967 1.433 . S
C966 C962 1.350 . S
C966 C963 1.463 . S
C966 N970 1.427 . S
C967 H957 0.929 . S
C967 C965 1.433 . S
C967 N970 1.384 . S
C968 H959 0.929 . S
C968 C960 1.378 . S
C968 C963 1.350 . S
C969 H956 0.929 . S
C969 C961 1.433 . S
C969 N971 1.384 . S
N970 C966 1.427 . S
N970 C967 1.384 . S
N971 C963 1.427 . S
N971 C969 1.384 . S
H972 C978 0.930 . S
H973 C982 0.930 . S
H974 C987 0.929 . S
H975 C985 0.929 . S
H976 C980 0.929 . S
H977 C986 0.929 . S
C978 H972 0.930 . S
C978 C979 1.367 . S
C978 C986 1.378 . S
C979 C978 1.367 . S
C979 C987 1.433 . S
C980 H976 0.929 . S
C980 C982 1.378 . S
C980 C984 1.350 . S
C981 C984 1.463 . S
C981 C986 1.350 . S
C981 N989 1.427 . S
C982 H973 0.930 . S
C982 C980 1.378 . S
C982 C983 1.367 . S
C983 C982 1.367 . S
C983 C985 1.433 . S
C984 C980 1.350 . S
C984 C981 1.463 . S
C984 N988 1.427 . S
C985 H975 0.929 . S
C985 C983 1.433 . S
C985 N988 1.384 . S
C986 H977 0.929 . S
C986 C978 1.378 . S
C986 C981 1.350 . S
C987 H974 0.929 . S
C987 C979 1.433 . S
C987 N989 1.384 . S
N988 C984 1.427 . S
N988 C985 1.384 . S
N989 C981 1.427 . S
N989 C987 1.384 . S
H990 C996 0.930 . S
H991 C1000 0.930 . S
H992 C1005 0.929 . S
H993 C1003 0.929 . S
H994 C998 0.929 . S
H995 C1004 0.929 . S
C996 H990 0.930 . S
C996 C997 1.367 . S
C996 C1004 1.378 . S
C997 C996 1.367 . S
C997 C1005 1.433 . S
C998 H994 0.929 . S
C998 C1000 1.378 . S
C998 C1002 1.350 . S
C999 C1002 1.463 . S
C999 C1004 1.350 . S
C999 N1007 1.427 . S
C1000 H991 0.930 . S
C1000 C998 1.378 . S
C1000 C1001 1.367 . S
C1001 C1000 1.367 . S
C1001 C1003 1.433 . S
C1002 C998 1.350 . S
C1002 C999 1.463 . S
C1002 N1006 1.427 . S
C1003 H993 0.929 . S
C1003 C1001 1.433 . S
C1003 N1006 1.384 . S
C1004 H995 0.929 . S
C1004 C996 1.378 . S
C1004 C999 1.350 . S
C1005 H992 0.929 . S
C1005 C997 1.433 . S
C1005 N1007 1.384 . S
N1006 C1002 1.427 . S
N1006 C1003 1.384 . S
N1007 C999 1.427 . S
N1007 C1005 1.384 . S
H1008 C1014 0.930 . S
H1009 C1018 0.930 . S
H1010 C1023 0.929 . S
H1011 C1021 0.929 . S
H1012 C1016 0.929 . S
H1013 C1022 0.929 1_545 S
C1014 H1008 0.930 . S
C1014 C1015 1.367 . S
C1014 C1022 1.378 . S
C1015 C1014 1.367 . S
C1015 C1023 1.433 . S
C1016 H1012 0.929 . S
C1016 C1018 1.378 . S
C1016 C1020 1.350 . S
C1017 C1020 1.463 . S
C1017 C1022 1.350 1_545 S
C1017 N1025 1.427 1_545 S
C1018 H1009 0.930 . S
C1018 C1016 1.378 . S
C1018 C1019 1.367 . S
C1019 C1018 1.367 . S
C1019 C1021 1.433 . S
C1020 C1016 1.350 . S
C1020 C1017 1.463 . S
C1020 N1024 1.427 . S
C1021 H1011 0.929 . S
C1021 C1019 1.433 . S
C1021 N1024 1.384 . S
C1022 H1013 0.929 1_565 S
C1022 C1014 1.378 . S
C1022 C1017 1.350 1_565 S
C1023 H1010 0.929 . S
C1023 C1015 1.433 . S
C1023 N1025 1.384 . S
N1024 C1020 1.427 . S
N1024 C1021 1.384 . S
N1025 C1017 1.427 1_565 S
N1025 C1023 1.384 . S
H1026 C1032 0.930 . S
H1027 C1036 0.930 . S
H1028 C1041 0.929 . S
H1029 C1039 0.929 . S
H1030 C1034 0.929 . S
H1031 C1040 0.929 . S
C1032 H1026 0.930 . S
C1032 C1033 1.367 . S
C1032 C1040 1.378 . S
C1033 C1032 1.367 . S
C1033 C1041 1.433 . S
C1034 H1030 0.929 . S
C1034 C1036 1.378 . S
C1034 C1038 1.350 . S
C1035 C1038 1.463 1_455 S
C1035 C1040 1.350 . S
C1035 N1043 1.427 . S
C1036 H1027 0.930 . S
C1036 C1034 1.378 . S
C1036 C1037 1.367 . S
C1037 C1036 1.367 . S
C1037 C1039 1.433 . S
C1038 C1034 1.350 . S
C1038 C1035 1.463 1_655 S
C1038 N1042 1.427 . S
C1039 H1029 0.929 . S
C1039 C1037 1.433 . S
C1039 N1042 1.384 . S
C1040 H1031 0.929 . S
C1040 C1032 1.378 . S
C1040 C1035 1.350 . S
C1041 H1028 0.929 . S
C1041 C1033 1.433 . S
C1041 N1043 1.384 . S
N1042 C1038 1.427 . S
N1042 C1039 1.384 . S
N1043 C1035 1.427 . S
N1043 C1041 1.384 . S
H1044 C1050 0.930 . S
H1045 C1054 0.930 . S
H1046 C1059 0.929 . S
H1047 C1057 0.929 . S
H1048 C1052 0.929 . S
H1049 C1058 0.929 . S
C1050 H1044 0.930 . S
C1050 C1051 1.367 . S
C1050 C1058 1.378 . S
C1051 C1050 1.367 . S
C1051 C1059 1.433 1_545 S
C1052 H1048 0.929 . S
C1052 C1054 1.378 . S
C1052 C1056 1.350 1_565 S
C1053 C1056 1.463 1_554 S
C1053 C1058 1.350 . S
C1053 N1061 1.427 1_545 S
C1054 H1045 0.930 . S
C1054 C1052 1.378 . S
C1054 C1055 1.367 1_565 S
C1055 C1054 1.367 1_545 S
C1055 C1057 1.433 . S
C1056 C1052 1.350 1_545 S
C1056 C1053 1.463 1_556 S
C1056 N1060 1.427 . S
C1057 H1047 0.929 . S
C1057 C1055 1.433 . S
C1057 N1060 1.384 . S
C1058 H1049 0.929 . S
C1058 C1050 1.378 . S
C1058 C1053 1.350 . S
C1059 H1046 0.929 . S
C1059 C1051 1.433 1_565 S
C1059 N1061 1.384 . S
N1060 C1056 1.427 . S
N1060 C1057 1.384 . S
N1061 C1053 1.427 1_565 S
N1061 C1059 1.384 . S
H1062 C1068 0.930 . S
H1063 C1072 0.930 . S
H1064 C1077 0.952 . S
H1065 C1075 0.929 . S
H1066 C1070 0.929 . S
H1067 C1076 0.929 . S
C1068 H1062 0.930 . S
C1068 C1069 1.367 . S
C1068 C1076 1.378 . S
C1069 C1068 1.367 . S
C1069 C1077 1.409 1_455 S
C1070 H1066 0.929 . S
C1070 C1072 1.378 . S
C1070 C1074 1.350 1_655 S
C1071 C1074 1.463 1_556 S
C1071 C1076 1.350 . S
C1071 N1079 1.427 1_455 S
C1072 H1063 0.930 . S
C1072 C1070 1.378 . S
C1072 C1073 1.367 1_655 S
C1073 C1072 1.367 1_455 S
C1073 C1075 1.433 . S
C1074 C1070 1.350 1_455 S
C1074 C1071 1.463 1_554 S
C1074 N1078 1.427 . S
C1075 H1065 0.929 . S
C1075 C1073 1.433 . S
C1075 N1078 1.384 . S
C1076 H1067 0.929 . S
C1076 C1068 1.378 . S
C1076 C1071 1.350 . S
C1077 H1064 0.952 . S
C1077 C1069 1.409 1_655 S
C1077 N1079 1.384 . S
N1078 C1074 1.427 . S
N1078 C1075 1.384 . S
N1079 C1071 1.427 1_655 S
N1079 C1077 1.384 . S
H1080 C1086 0.930 . S
H1081 C1090 0.930 . S
H1082 C1095 0.929 . S
H1083 C1093 0.929 . S
H1084 C1088 0.929 . S
H1085 C1094 0.929 . S
C1086 H1080 0.930 . S
C1086 C1087 1.367 . S
C1086 C1094 1.378 . S
C1087 C1086 1.367 . S
C1087 C1095 1.433 . S
C1088 H1084 0.929 . S
C1088 C1090 1.378 . S
C1088 C1092 1.350 . S
C1089 C1092 1.463 1_556 S
C1089 C1094 1.350 . S
C1089 N1097 1.427 . S
C1090 H1081 0.930 . S
C1090 C1088 1.378 . S
C1090 C1091 1.367 . S
C1091 C1090 1.367 . S
C1091 C1093 1.433 . S
C1092 C1088 1.350 . S
C1092 C1089 1.463 1_554 S
C1092 N1096 1.427 . S
C1093 H1083 0.929 . S
C1093 C1091 1.433 . S
C1093 N1096 1.384 . S
C1094 H1085 0.929 . S
C1094 C1086 1.378 . S
C1094 C1089 1.350 . S
C1095 H1082 0.929 . S
C1095 C1087 1.433 . S
C1095 N1097 1.384 . S
N1096 C1092 1.427 . S
N1096 C1093 1.384 . S
N1097 C1089 1.427 . S
N1097 C1095 1.384 . S
H1098 C1104 0.930 . S
H1099 C1108 0.930 . S
H1100 C1113 0.929 . S
H1101 C1111 0.929 . S
H1102 C1106 0.929 . S
H1103 C1112 0.929 . S
C1104 H1098 0.930 . S
C1104 C1105 1.367 . S
C1104 C1112 1.378 . S
C1105 C1104 1.367 . S
C1105 C1113 1.433 . S
C1106 H1102 0.929 . S
C1106 C1108 1.378 . S
C1106 C1110 1.350 . S
C1107 C1110 1.463 . S
C1107 C1112 1.350 . S
C1107 N1115 1.427 . S
C1108 H1099 0.930 . S
C1108 C1106 1.378 . S
C1108 C1109 1.367 . S
C1109 C1108 1.367 . S
C1109 C1111 1.433 . S
C1110 C1106 1.350 . S
C1110 C1107 1.463 . S
C1110 N1114 1.427 . S
C1111 H1101 0.929 . S
C1111 C1109 1.433 . S
C1111 N1114 1.384 . S
C1112 H1103 0.929 . S
C1112 C1104 1.378 . S
C1112 C1107 1.350 . S
C1113 H1100 0.929 . S
C1113 C1105 1.433 . S
C1113 N1115 1.384 . S
N1114 C1110 1.427 . S
N1114 C1111 1.384 . S
N1115 C1107 1.427 . S
N1115 C1113 1.384 . S
H1116 C1122 0.930 . S
H1117 C1126 0.930 . S
H1118 C1131 0.929 . S
H1119 C1129 0.929 . S
H1120 C1124 0.929 . S
H1121 C1130 0.929 . S
C1122 H1116 0.930 . S
C1122 C1123 1.367 . S
C1122 C1130 1.378 . S
C1123 C1122 1.367 . S
C1123 C1131 1.433 . S
C1124 H1120 0.929 . S
C1124 C1126 1.378 . S
C1124 C1128 1.350 . S
C1125 C1128 1.463 . S
C1125 C1130 1.350 . S
C1125 N1133 1.427 . S
C1126 H1117 0.930 . S
C1126 C1124 1.378 . S
C1126 C1127 1.367 . S
C1127 C1126 1.367 . S
C1127 C1129 1.433 . S
C1128 C1124 1.350 . S
C1128 C1125 1.463 . S
C1128 N1132 1.427 . S
C1129 H1119 0.929 . S
C1129 C1127 1.433 . S
C1129 N1132 1.384 . S
C1130 H1121 0.929 . S
C1130 C1122 1.378 . S
C1130 C1125 1.350 . S
C1131 H1118 0.929 . S
C1131 C1123 1.433 . S
C1131 N1133 1.384 . S
N1132 C1128 1.427 . S
N1132 C1129 1.384 . S
N1133 C1125 1.427 . S
N1133 C1131 1.384 . S
H1134 C1140 0.930 . S
H1135 C1144 0.930 . S
H1136 C1149 0.929 . S
H1137 C1147 0.929 . S
H1138 C1142 0.929 . S
H1139 C1148 0.929 . S
C1140 H1134 0.930 . S
C1140 C1141 1.367 . S
C1140 C1148 1.378 . S
C1141 C1140 1.367 . S
C1141 C1149 1.433 . S
C1142 H1138 0.929 . S
C1142 C1144 1.378 . S
C1142 C1146 1.350 . S
C1143 C1146 1.463 . S
C1143 C1148 1.350 . S
C1143 N1151 1.427 . S
C1144 H1135 0.930 . S
C1144 C1142 1.378 . S
C1144 C1145 1.367 . S
C1145 C1144 1.367 . S
C1145 C1147 1.433 . S
C1146 C1142 1.350 . S
C1146 C1143 1.463 . S
C1146 N1150 1.427 . S
C1147 H1137 0.929 . S
C1147 C1145 1.433 . S
C1147 N1150 1.384 . S
C1148 H1139 0.929 . S
C1148 C1140 1.378 . S
C1148 C1143 1.350 . S
C1149 H1136 0.929 . S
C1149 C1141 1.433 . S
C1149 N1151 1.384 . S
N1150 C1146 1.427 . S
N1150 C1147 1.384 . S
N1151 C1143 1.427 . S
N1151 C1149 1.384 . S
H1152 C1158 0.930 . S
H1153 C1162 0.930 . S
H1154 C1167 0.929 . S
H1155 C1165 0.929 . S
H1156 C1160 0.929 . S
H1157 C1166 0.929 . S
C1158 H1152 0.930 . S
C1158 C1159 1.367 . S
C1158 C1166 1.378 . S
C1159 C1158 1.367 . S
C1159 C1167 1.433 . S
C1160 H1156 0.929 . S
C1160 C1162 1.378 . S
C1160 C1164 1.350 . S
C1161 C1164 1.463 . S
C1161 C1166 1.350 . S
C1161 N1169 1.427 . S
C1162 H1153 0.930 . S
C1162 C1160 1.378 . S
C1162 C1163 1.367 . S
C1163 C1162 1.367 . S
C1163 C1165 1.433 . S
C1164 C1160 1.350 . S
C1164 C1161 1.463 . S
C1164 N1168 1.427 . S
C1165 H1155 0.929 . S
C1165 C1163 1.433 . S
C1165 N1168 1.384 . S
C1166 H1157 0.929 . S
C1166 C1158 1.378 . S
C1166 C1161 1.350 . S
C1167 H1154 0.929 . S
C1167 C1159 1.433 . S
C1167 N1169 1.384 . S
N1168 C1164 1.427 . S
N1168 C1165 1.384 . S
N1169 C1161 1.427 . S
N1169 C1167 1.384 . S
H1170 C1176 0.930 . S
H1171 C1180 0.930 . S
H1172 C1185 0.929 . S
H1173 C1183 0.929 . S
H1174 C1178 0.929 . S
H1175 C1184 0.929 . S
C1176 H1170 0.930 . S
C1176 C1177 1.367 . S
C1176 C1184 1.378 . S
C1177 C1176 1.367 . S
C1177 C1185 1.433 . S
C1178 H1174 0.929 . S
C1178 C1180 1.378 . S
C1178 C1182 1.350 . S
C1179 C1182 1.463 . S
C1179 C1184 1.350 . S
C1179 N1187 1.427 . S
C1180 H1171 0.930 . S
C1180 C1178 1.378 . S
C1180 C1181 1.367 . S
C1181 C1180 1.367 . S
C1181 C1183 1.433 . S
C1182 C1178 1.350 . S
C1182 C1179 1.463 . S
C1182 N1186 1.427 . S
C1183 H1173 0.929 . S
C1183 C1181 1.433 . S
C1183 N1186 1.384 . S
C1184 H1175 0.929 . S
C1184 C1176 1.378 . S
C1184 C1179 1.350 . S
C1185 H1172 0.929 . S
C1185 C1177 1.433 . S
C1185 N1187 1.384 . S
N1186 C1182 1.427 . S
N1186 C1183 1.384 . S
N1187 C1179 1.427 . S
N1187 C1185 1.384 . S
H1188 C1194 0.930 . S
H1189 C1198 0.930 . S
H1190 C1203 0.929 . S
H1191 C1201 0.929 . S
H1192 C1196 0.929 . S
H1193 C1202 0.929 . S
C1194 H1188 0.930 . S
C1194 C1195 1.367 . S
C1194 C1202 1.378 . S
C1195 C1194 1.367 . S
C1195 C1203 1.433 . S
C1196 H1192 0.929 . S
C1196 C1198 1.378 . S
C1196 C1200 1.350 . S
C1197 C1200 1.463 . S
C1197 C1202 1.350 . S
C1197 N1205 1.427 . S
C1198 H1189 0.930 . S
C1198 C1196 1.378 . S
C1198 C1199 1.367 . S
C1199 C1198 1.367 . S
C1199 C1201 1.433 . S
C1200 C1196 1.350 . S
C1200 C1197 1.463 . S
C1200 N1204 1.427 . S
C1201 H1191 0.929 . S
C1201 C1199 1.433 . S
C1201 N1204 1.384 . S
C1202 H1193 0.929 . S
C1202 C1194 1.378 . S
C1202 C1197 1.350 . S
C1203 H1190 0.929 . S
C1203 C1195 1.433 . S
C1203 N1205 1.384 . S
N1204 C1200 1.427 . S
N1204 C1201 1.384 . S
N1205 C1197 1.427 . S
N1205 C1203 1.384 . S
H1206 C1212 0.930 . S
H1207 C1216 0.930 1_545 S
H1208 C1221 0.929 . S
H1209 C1219 0.929 . S
H1210 C1214 0.929 . S
H1211 C1220 0.929 . S
C1212 H1206 0.930 . S
C1212 C1213 1.367 . S
C1212 C1220 1.378 . S
C1213 C1212 1.367 . S
C1213 C1221 1.433 . S
C1214 H1210 0.929 . S
C1214 C1216 1.378 . S
C1214 C1218 1.350 . S
C1215 C1218 1.463 . S
C1215 C1220 1.350 . S
C1215 N1223 1.427 . S
C1216 H1207 0.930 1_565 S
C1216 C1214 1.378 . S
C1216 C1217 1.367 . S
C1217 C1216 1.367 . S
C1217 C1219 1.433 . S
C1218 C1214 1.350 . S
C1218 C1215 1.463 . S
C1218 N1222 1.427 . S
C1219 H1209 0.929 . S
C1219 C1217 1.433 . S
C1219 N1222 1.384 . S
C1220 H1211 0.929 . S
C1220 C1212 1.378 . S
C1220 C1215 1.350 . S
C1221 H1208 0.929 . S
C1221 C1213 1.433 . S
C1221 N1223 1.384 . S
N1222 C1218 1.427 . S
N1222 C1219 1.384 . S
N1223 C1215 1.427 . S
N1223 C1221 1.384 . S
H1224 C1230 0.930 . S
H1225 C1234 0.930 . S
H1226 C1239 0.929 . S
H1227 C1237 0.929 . S
H1228 C1232 0.929 . S
H1229 C1238 0.929 . S
C1230 H1224 0.930 . S
C1230 C1231 1.367 . S
C1230 C1238 1.378 . S
C1231 C1230 1.367 . S
C1231 C1239 1.433 . S
C1232 H1228 0.929 . S
C1232 C1234 1.378 . S
C1232 C1236 1.350 . S
C1233 C1236 1.463 . S
C1233 C1238 1.350 . S
C1233 N1241 1.427 . S
C1234 H1225 0.930 . S
C1234 C1232 1.378 . S
C1234 C1235 1.367 . S
C1235 C1234 1.367 . S
C1235 C1237 1.433 . S
C1236 C1232 1.350 . S
C1236 C1233 1.463 . S
C1236 N1240 1.427 . S
C1237 H1227 0.929 . S
C1237 C1235 1.433 . S
C1237 N1240 1.384 . S
C1238 H1229 0.929 . S
C1238 C1230 1.378 . S
C1238 C1233 1.350 . S
C1239 H1226 0.929 . S
C1239 C1231 1.433 . S
C1239 N1241 1.384 . S
N1240 C1236 1.427 . S
N1240 C1237 1.384 . S
N1241 C1233 1.427 . S
N1241 C1239 1.384 . S
H1242 C1248 0.930 . S
H1243 C1252 0.930 . S
H1244 C1257 0.929 . S
H1245 C1255 0.929 . S
H1246 C1250 0.929 . S
H1247 C1256 0.929 . S
C1248 H1242 0.930 . S
C1248 C1249 1.367 . S
C1248 C1256 1.378 . S
C1249 C1248 1.367 . S
C1249 C1257 1.433 . S
C1250 H1246 0.929 . S
C1250 C1252 1.378 . S
C1250 C1254 1.350 . S
C1251 C1254 1.463 . S
C1251 C1256 1.350 . S
C1251 N1259 1.427 . S
C1252 H1243 0.930 . S
C1252 C1250 1.378 . S
C1252 C1253 1.367 . S
C1253 C1252 1.367 . S
C1253 C1255 1.433 . S
C1254 C1250 1.350 . S
C1254 C1251 1.463 . S
C1254 N1258 1.427 . S
C1255 H1245 0.929 . S
C1255 C1253 1.433 . S
C1255 N1258 1.384 . S
C1256 H1247 0.929 . S
C1256 C1248 1.378 . S
C1256 C1251 1.350 . S
C1257 H1244 0.929 . S
C1257 C1249 1.433 . S
C1257 N1259 1.384 . S
N1258 C1254 1.427 . S
N1258 C1255 1.384 . S
N1259 C1251 1.427 . S
N1259 C1257 1.384 . S
H1260 C1266 0.930 . S
H1261 C1270 0.930 . S
H1262 C1275 0.929 1_455 S
H1263 C1273 0.929 . S
H1264 C1268 0.929 . S
H1265 C1274 0.929 . S
C1266 H1260 0.930 . S
C1266 C1267 1.367 . S
C1266 C1274 1.378 . S
C1267 C1266 1.367 . S
C1267 C1275 1.433 . S
C1268 H1264 0.929 . S
C1268 C1270 1.378 . S
C1268 C1272 1.350 . S
C1269 C1272 1.463 . S
C1269 C1274 1.350 . S
C1269 N1277 1.427 . S
C1270 H1261 0.930 . S
C1270 C1268 1.378 . S
C1270 C1271 1.367 . S
C1271 C1270 1.367 . S
C1271 C1273 1.433 . S
C1272 C1268 1.350 . S
C1272 C1269 1.463 . S
C1272 N1276 1.427 . S
C1273 H1263 0.929 . S
C1273 C1271 1.433 . S
C1273 N1276 1.384 . S
C1274 H1265 0.929 . S
C1274 C1266 1.378 . S
C1274 C1269 1.350 . S
C1275 H1262 0.929 1_655 S
C1275 C1267 1.433 . S
C1275 N1277 1.384 . S
N1276 C1272 1.427 . S
N1276 C1273 1.384 . S
N1277 C1269 1.427 . S
N1277 C1275 1.384 . S
H1278 C1284 0.930 . S
H1279 C1288 0.930 . S
H1280 C1293 0.929 . S
H1281 C1291 0.929 . S
H1282 C1286 0.929 . S
H1283 C1292 0.929 . S
C1284 H1278 0.930 . S
C1284 C1285 1.367 . S
C1284 C1292 1.378 . S
C1285 C1284 1.367 . S
C1285 C1293 1.433 . S
C1286 H1282 0.929 . S
C1286 C1288 1.378 . S
C1286 C1290 1.350 . S
C1287 C1290 1.463 . S
C1287 C1292 1.350 . S
C1287 N1295 1.427 . S
C1288 H1279 0.930 . S
C1288 C1286 1.378 . S
C1288 C1289 1.367 . S
C1289 C1288 1.367 . S
C1289 C1291 1.433 . S
C1290 C1286 1.350 . S
C1290 C1287 1.463 . S
C1290 N1294 1.427 . S
C1291 H1281 0.929 . S
C1291 C1289 1.433 . S
C1291 N1294 1.384 . S
C1292 H1283 0.929 . S
C1292 C1284 1.378 . S
C1292 C1287 1.350 . S
C1293 H1280 0.929 . S
C1293 C1285 1.433 . S
C1293 N1295 1.384 . S
N1294 C1290 1.427 . S
N1294 C1291 1.384 . S
N1295 C1287 1.427 . S
N1295 C1293 1.384 . S
H1296 C1302 0.930 . S
H1297 C1306 0.930 . S
H1298 C1311 0.929 . S
H1299 C1309 0.929 . S
H1300 C1304 0.929 . S
H1301 C1310 0.929 . S
C1302 H1296 0.930 . S
C1302 C1303 1.367 . S
C1302 C1310 1.378 . S
C1303 C1302 1.367 . S
C1303 C1311 1.433 . S
C1304 H1300 0.929 . S
C1304 C1306 1.378 . S
C1304 C1308 1.350 . S
C1305 C1308 1.463 . S
C1305 C1310 1.350 . S
C1305 N1313 1.427 . S
C1306 H1297 0.930 . S
C1306 C1304 1.378 . S
C1306 C1307 1.367 . S
C1307 C1306 1.367 . S
C1307 C1309 1.433 . S
C1308 C1304 1.350 . S
C1308 C1305 1.463 . S
C1308 N1312 1.427 . S
C1309 H1299 0.929 . S
C1309 C1307 1.433 . S
C1309 N1312 1.384 . S
C1310 H1301 0.929 . S
C1310 C1302 1.378 . S
C1310 C1305 1.350 . S
C1311 H1298 0.929 . S
C1311 C1303 1.433 . S
C1311 N1313 1.384 . S
N1312 C1308 1.427 . S
N1312 C1309 1.384 . S
N1313 C1305 1.427 . S
N1313 C1311 1.384 . S
H1314 C1320 0.930 . S
H1315 C1324 0.930 . S
H1316 C1329 0.929 . S
H1317 C1327 0.929 . S
H1318 C1322 0.929 . S
H1319 C1328 0.929 1_455 S
C1320 H1314 0.930 . S
C1320 C1321 1.367 . S
C1320 C1328 1.378 . S
C1321 C1320 1.367 . S
C1321 C1329 1.433 . S
C1322 H1318 0.929 . S
C1322 C1324 1.378 . S
C1322 C1326 1.350 . S
C1323 C1326 1.463 . S
C1323 C1328 1.350 1_455 S
C1323 N1331 1.427 1_455 S
C1324 H1315 0.930 . S
C1324 C1322 1.378 . S
C1324 C1325 1.367 . S
C1325 C1324 1.367 . S
C1325 C1327 1.433 . S
C1326 C1322 1.350 . S
C1326 C1323 1.463 . S
C1326 N1330 1.427 . S
C1327 H1317 0.929 . S
C1327 C1325 1.433 . S
C1327 N1330 1.384 . S
C1328 H1319 0.929 1_655 S
C1328 C1320 1.378 . S
C1328 C1323 1.350 1_655 S
C1329 H1316 0.929 . S
C1329 C1321 1.433 . S
C1329 N1331 1.384 . S
N1330 C1326 1.427 . S
N1330 C1327 1.384 . S
N1331 C1323 1.427 1_655 S
N1331 C1329 1.384 . S
H1332 C1338 0.930 . S
H1333 C1342 0.930 . S
H1334 C1347 0.929 . S
H1335 C1345 0.929 . S
H1336 C1340 0.929 . S
H1337 C1346 0.929 . S
C1338 H1332 0.930 . S
C1338 C1339 1.367 . S
C1338 C1346 1.378 . S
C1339 C1338 1.367 . S
C1339 C1347 1.433 . S
C1340 H1336 0.929 . S
C1340 C1342 1.378 . S
C1340 C1344 1.350 . S
C1341 C1344 1.463 . S
C1341 C1346 1.350 . S
C1341 N1349 1.427 . S
C1342 H1333 0.930 . S
C1342 C1340 1.378 . S
C1342 C1343 1.367 . S
C1343 C1342 1.367 . S
C1343 C1345 1.433 . S
C1344 C1340 1.350 . S
C1344 C1341 1.463 . S
C1344 N1348 1.427 . S
C1345 H1335 0.929 . S
C1345 C1343 1.433 . S
C1345 N1348 1.384 . S
C1346 H1337 0.929 . S
C1346 C1338 1.378 . S
C1346 C1341 1.350 . S
C1347 H1334 0.929 . S
C1347 C1339 1.433 . S
C1347 N1349 1.384 . S
N1348 C1344 1.427 . S
N1348 C1345 1.384 . S
N1349 C1341 1.427 . S
N1349 C1347 1.384 . S
H1350 C1356 0.930 . S
H1351 C1360 0.930 . S
H1352 C1365 0.929 . S
H1353 C1363 0.929 . S
H1354 C1358 0.929 . S
H1355 C1364 0.929 1_545 S
C1356 H1350 0.930 . S
C1356 C1357 1.367 . S
C1356 C1364 1.378 . S
C1357 C1356 1.367 . S
C1357 C1365 1.433 . S
C1358 H1354 0.929 . S
C1358 C1360 1.378 . S
C1358 C1362 1.350 . S
C1359 C1362 1.463 . S
C1359 C1364 1.350 1_545 S
C1359 N1367 1.427 1_545 S
C1360 H1351 0.930 . S
C1360 C1358 1.378 . S
C1360 C1361 1.367 . S
C1361 C1360 1.367 . S
C1361 C1363 1.433 . S
C1362 C1358 1.350 . S
C1362 C1359 1.463 . S
C1362 N1366 1.427 . S
C1363 H1353 0.929 . S
C1363 C1361 1.433 . S
C1363 N1366 1.384 . S
C1364 H1355 0.929 1_565 S
C1364 C1356 1.378 . S
C1364 C1359 1.350 1_565 S
C1365 H1352 0.929 . S
C1365 C1357 1.433 . S
C1365 N1367 1.384 . S
N1366 C1362 1.427 . S
N1366 C1363 1.384 . S
N1367 C1359 1.427 1_565 S
N1367 C1365 1.384 . S
H1368 C1374 0.930 . S
H1369 C1378 0.930 . S
H1370 C1383 0.929 . S
H1371 C1381 0.929 . S
H1372 C1376 0.929 . S
H1373 C1382 0.929 . S
C1374 H1368 0.930 . S
C1374 C1375 1.367 . S
C1374 C1382 1.378 . S
C1375 C1374 1.367 . S
C1375 C1383 1.433 . S
C1376 H1372 0.929 . S
C1376 C1378 1.378 . S
C1376 C1380 1.350 . S
C1377 C1380 1.463 . S
C1377 C1382 1.350 . S
C1377 N1385 1.427 . S
C1378 H1369 0.930 . S
C1378 C1376 1.378 . S
C1378 C1379 1.367 . S
C1379 C1378 1.367 . S
C1379 C1381 1.433 . S
C1380 C1376 1.350 . S
C1380 C1377 1.463 . S
C1380 N1384 1.427 . S
C1381 H1371 0.929 . S
C1381 C1379 1.433 . S
C1381 N1384 1.384 . S
C1382 H1373 0.929 . S
C1382 C1374 1.378 . S
C1382 C1377 1.350 . S
C1383 H1370 0.929 . S
C1383 C1375 1.433 . S
C1383 N1385 1.384 . S
N1384 C1380 1.427 . S
N1384 C1381 1.384 . S
N1385 C1377 1.427 . S
N1385 C1383 1.384 . S
H1386 C1392 0.930 . S
H1387 C1396 0.930 . S
H1388 C1401 0.929 . S
H1389 C1399 0.929 . S
H1390 C1394 0.929 . S
H1391 C1400 0.929 . S
C1392 H1386 0.930 . S
C1392 C1393 1.367 . S
C1392 C1400 1.378 . S
C1393 C1392 1.367 . S
C1393 C1401 1.433 . S
C1394 H1390 0.929 . S
C1394 C1396 1.378 . S
C1394 C1398 1.350 . S
C1395 C1398 1.463 . S
C1395 C1400 1.350 . S
C1395 N1403 1.427 . S
C1396 H1387 0.930 . S
C1396 C1394 1.378 . S
C1396 C1397 1.367 . S
C1397 C1396 1.367 . S
C1397 C1399 1.433 . S
C1398 C1394 1.350 . S
C1398 C1395 1.463 . S
C1398 N1402 1.427 . S
C1399 H1389 0.929 . S
C1399 C1397 1.433 . S
C1399 N1402 1.384 . S
C1400 H1391 0.929 . S
C1400 C1392 1.378 . S
C1400 C1395 1.350 . S
C1401 H1388 0.929 . S
C1401 C1393 1.433 . S
C1401 N1403 1.384 . S
N1402 C1398 1.427 . S
N1402 C1399 1.384 . S
N1403 C1395 1.427 . S
N1403 C1401 1.384 . S
H1404 C1410 0.930 . S
H1405 C1414 0.930 . S
H1406 C1419 0.929 . S
H1407 C1417 0.929 . S
H1408 C1412 0.929 . S
H1409 C1418 0.929 . S
C1410 H1404 0.930 . S
C1410 C1411 1.367 . S
C1410 C1418 1.378 . S
C1411 C1410 1.367 . S
C1411 C1419 1.433 . S
C1412 H1408 0.929 . S
C1412 C1414 1.378 . S
C1412 C1416 1.350 . S
C1413 C1416 1.463 . S
C1413 C1418 1.350 . S
C1413 N1421 1.427 . S
C1414 H1405 0.930 . S
C1414 C1412 1.378 . S
C1414 C1415 1.367 . S
C1415 C1414 1.367 . S
C1415 C1417 1.433 . S
C1416 C1412 1.350 . S
C1416 C1413 1.463 . S
C1416 N1420 1.427 . S
C1417 H1407 0.929 . S
C1417 C1415 1.433 . S
C1417 N1420 1.384 . S
C1418 H1409 0.929 . S
C1418 C1410 1.378 . S
C1418 C1413 1.350 . S
C1419 H1406 0.929 . S
C1419 C1411 1.433 . S
C1419 N1421 1.384 . S
N1420 C1416 1.427 . S
N1420 C1417 1.384 . S
N1421 C1413 1.427 . S
N1421 C1419 1.384 . S
H1422 C1428 0.930 . S
H1423 C1432 0.930 . S
H1424 C1437 0.929 . S
H1425 C1435 0.929 . S
H1426 C1430 0.929 . S
H1427 C1436 0.929 . S
C1428 H1422 0.930 . S
C1428 C1429 1.367 . S
C1428 C1436 1.378 . S
C1429 C1428 1.367 . S
C1429 C1437 1.433 . S
C1430 H1426 0.929 . S
C1430 C1432 1.378 . S
C1430 C1434 1.350 . S
C1431 C1434 1.463 . S
C1431 C1436 1.350 . S
C1431 N1439 1.427 . S
C1432 H1423 0.930 . S
C1432 C1430 1.378 . S
C1432 C1433 1.367 . S
C1433 C1432 1.367 . S
C1433 C1435 1.433 . S
C1434 C1430 1.350 . S
C1434 C1431 1.463 . S
C1434 N1438 1.427 . S
C1435 H1425 0.929 . S
C1435 C1433 1.433 . S
C1435 N1438 1.384 . S
C1436 H1427 0.929 . S
C1436 C1428 1.378 . S
C1436 C1431 1.350 . S
C1437 H1424 0.929 . S
C1437 C1429 1.433 . S
C1437 N1439 1.384 . S
N1438 C1434 1.427 . S
N1438 C1435 1.384 . S
N1439 C1431 1.427 . S
N1439 C1437 1.384 . S
H1440 C1446 0.930 . S
H1441 C1450 0.930 . S
H1442 C1455 0.929 . S
H1443 C1453 0.929 . S
H1444 C1448 0.929 . S
H1445 C1454 0.929 . S
C1446 H1440 0.930 . S
C1446 C1447 1.367 . S
C1446 C1454 1.378 . S
C1447 C1446 1.367 . S
C1447 C1455 1.433 . S
C1448 H1444 0.929 . S
C1448 C1450 1.378 . S
C1448 C1452 1.350 . S
C1449 C1452 1.463 . S
C1449 C1454 1.350 . S
C1449 N1457 1.427 . S
C1450 H1441 0.930 . S
C1450 C1448 1.378 . S
C1450 C1451 1.367 . S
C1451 C1450 1.367 . S
C1451 C1453 1.433 . S
C1452 C1448 1.350 . S
C1452 C1449 1.463 . S
C1452 N1456 1.427 . S
C1453 H1443 0.929 . S
C1453 C1451 1.433 . S
C1453 N1456 1.384 . S
C1454 H1445 0.929 . S
C1454 C1446 1.378 . S
C1454 C1449 1.350 . S
C1455 H1442 0.929 . S
C1455 C1447 1.433 . S
C1455 N1457 1.384 . S
N1456 C1452 1.427 . S
N1456 C1453 1.384 . S
N1457 C1449 1.427 . S
N1457 C1455 1.384 . S
H1458 C1464 0.930 . S
H1459 C1468 0.930 . S
H1460 C1473 0.929 . S
H1461 C1471 0.929 . S
H1462 C1466 0.929 . S
H1463 C1472 0.929 . S
C1464 H1458 0.930 . S
C1464 C1465 1.367 . S
C1464 C1472 1.378 . S
C1465 C1464 1.367 . S
C1465 C1473 1.433 . S
C1466 H1462 0.929 . S
C1466 C1468 1.378 . S
C1466 C1470 1.350 . S
C1467 C1470 1.463 . S
C1467 C1472 1.350 . S
C1467 N1475 1.427 . S
C1468 H1459 0.930 . S
C1468 C1466 1.378 . S
C1468 C1469 1.367 . S
C1469 C1468 1.367 . S
C1469 C1471 1.433 . S
C1470 C1466 1.350 . S
C1470 C1467 1.463 . S
C1470 N1474 1.427 . S
C1471 H1461 0.929 . S
C1471 C1469 1.433 . S
C1471 N1474 1.384 . S
C1472 H1463 0.929 . S
C1472 C1464 1.378 . S
C1472 C1467 1.350 . S
C1473 H1460 0.929 . S
C1473 C1465 1.433 . S
C1473 N1475 1.384 . S
N1474 C1470 1.427 . S
N1474 C1471 1.384 . S
N1475 C1467 1.427 . S
N1475 C1473 1.384 . S
H1476 C1482 0.930 . S
H1477 C1486 0.930 . S
H1478 C1491 0.929 . S
H1479 C1489 0.929 . S
H1480 C1484 0.929 . S
H1481 C1490 0.929 . S
C1482 H1476 0.930 . S
C1482 C1483 1.367 . S
C1482 C1490 1.378 . S
C1483 C1482 1.367 . S
C1483 C1491 1.433 . S
C1484 H1480 0.929 . S
C1484 C1486 1.378 . S
C1484 C1488 1.350 . S
C1485 C1488 1.463 . S
C1485 C1490 1.350 . S
C1485 N1493 1.427 . S
C1486 H1477 0.930 . S
C1486 C1484 1.378 . S
C1486 C1487 1.367 . S
C1487 C1486 1.367 . S
C1487 C1489 1.433 . S
C1488 C1484 1.350 . S
C1488 C1485 1.463 . S
C1488 N1492 1.427 . S
C1489 H1479 0.929 . S
C1489 C1487 1.433 . S
C1489 N1492 1.384 . S
C1490 H1481 0.929 . S
C1490 C1482 1.378 . S
C1490 C1485 1.350 . S
C1491 H1478 0.929 . S
C1491 C1483 1.433 . S
C1491 N1493 1.384 . S
N1492 C1488 1.427 . S
N1492 C1489 1.384 . S
N1493 C1485 1.427 . S
N1493 C1491 1.384 . S
H1494 C1500 0.930 . S
H1495 C1504 0.930 . S
H1496 C1509 0.929 . S
H1497 C1507 0.929 . S
H1498 C1502 0.929 . S
H1499 C1508 0.929 . S
C1500 H1494 0.930 . S
C1500 C1501 1.367 . S
C1500 C1508 1.378 . S
C1501 C1500 1.367 . S
C1501 C1509 1.433 . S
C1502 H1498 0.929 . S
C1502 C1504 1.378 . S
C1502 C1506 1.350 . S
C1503 C1506 1.463 . S
C1503 C1508 1.350 . S
C1503 N1511 1.427 . S
C1504 H1495 0.930 . S
C1504 C1502 1.378 . S
C1504 C1505 1.367 . S
C1505 C1504 1.367 . S
C1505 C1507 1.433 . S
C1506 C1502 1.350 . S
C1506 C1503 1.463 . S
C1506 N1510 1.427 . S
C1507 H1497 0.929 . S
C1507 C1505 1.433 . S
C1507 N1510 1.384 . S
C1508 H1499 0.929 . S
C1508 C1500 1.378 . S
C1508 C1503 1.350 . S
C1509 H1496 0.929 . S
C1509 C1501 1.433 . S
C1509 N1511 1.384 . S
N1510 C1506 1.427 . S
N1510 C1507 1.384 . S
N1511 C1503 1.427 . S
N1511 C1509 1.384 . S
H1512 C1518 0.930 . S
H1513 C1522 0.930 . S
H1514 C1527 0.929 . S
H1515 C1525 0.929 . S
H1516 C1520 0.929 . S
H1517 C1526 0.929 . S
C1518 H1512 0.930 . S
C1518 C1519 1.367 . S
C1518 C1526 1.378 . S
C1519 C1518 1.367 . S
C1519 C1527 1.433 . S
C1520 H1516 0.929 . S
C1520 C1522 1.378 . S
C1520 C1524 1.350 . S
C1521 C1524 1.463 . S
C1521 C1526 1.350 . S
C1521 N1529 1.427 . S
C1522 H1513 0.930 . S
C1522 C1520 1.378 . S
C1522 C1523 1.367 . S
C1523 C1522 1.367 . S
C1523 C1525 1.433 . S
C1524 C1520 1.350 . S
C1524 C1521 1.463 . S
C1524 N1528 1.427 . S
C1525 H1515 0.929 . S
C1525 C1523 1.433 . S
C1525 N1528 1.384 . S
C1526 H1517 0.929 . S
C1526 C1518 1.378 . S
C1526 C1521 1.350 . S
C1527 H1514 0.929 . S
C1527 C1519 1.433 . S
C1527 N1529 1.384 . S
N1528 C1524 1.427 . S
N1528 C1525 1.384 . S
N1529 C1521 1.427 . S
N1529 C1527 1.384 . S
H1530 C1536 0.930 . S
H1531 C1540 0.930 . S
H1532 C1545 0.929 . S
H1533 C1543 0.929 . S
H1534 C1538 0.929 . S
H1535 C1544 0.929 . S
C1536 H1530 0.930 . S
C1536 C1537 1.367 . S
C1536 C1544 1.378 . S
C1537 C1536 1.367 . S
C1537 C1545 1.433 . S
C1538 H1534 0.929 . S
C1538 C1540 1.378 . S
C1538 C1542 1.350 . S
C1539 C1542 1.463 . S
C1539 C1544 1.350 . S
C1539 N1547 1.427 . S
C1540 H1531 0.930 . S
C1540 C1538 1.378 . S
C1540 C1541 1.367 . S
C1541 C1540 1.367 . S
C1541 C1543 1.433 . S
C1542 C1538 1.350 . S
C1542 C1539 1.463 . S
C1542 N1546 1.427 . S
C1543 H1533 0.929 . S
C1543 C1541 1.433 . S
C1543 N1546 1.384 . S
C1544 H1535 0.929 . S
C1544 C1536 1.378 . S
C1544 C1539 1.350 . S
C1545 H1532 0.929 . S
C1545 C1537 1.433 . S
C1545 N1547 1.384 . S
N1546 C1542 1.427 . S
N1546 C1543 1.384 . S
N1547 C1539 1.427 . S
N1547 C1545 1.384 . S
H1548 C1554 0.930 . S
H1549 C1558 0.930 . S
H1550 C1563 0.929 . S
H1551 C1561 0.929 . S
H1552 C1556 0.929 . S
H1553 C1562 0.929 . S
C1554 H1548 0.930 . S
C1554 C1555 1.367 1_545 S
C1554 C1562 1.378 . S
C1555 C1554 1.367 1_565 S
C1555 C1563 1.433 . S
C1556 H1552 0.929 . S
C1556 C1558 1.378 . S
C1556 C1560 1.350 . S
C1557 C1560 1.463 . S
C1557 C1562 1.350 . S
C1557 N1565 1.445 . S
C1558 H1549 0.930 . S
C1558 C1556 1.378 . S
C1558 C1559 1.367 . S
C1559 C1558 1.367 . S
C1559 C1561 1.433 . S
C1560 C1556 1.350 . S
C1560 C1557 1.463 . S
C1560 N1564 1.427 . S
C1561 H1551 0.929 . S
C1561 C1559 1.433 . S
C1561 N1564 1.384 . S
C1562 H1553 0.929 . S
C1562 C1554 1.378 . S
C1562 C1557 1.350 . S
C1563 H1550 0.929 . S
C1563 C1555 1.433 . S
C1563 N1565 1.357 1_565 S
N1564 C1560 1.427 . S
N1564 C1561 1.384 . S
N1565 C1557 1.445 . S
N1565 C1563 1.357 1_545 S
H1566 C1572 0.930 . S
H1567 C1576 0.930 . S
H1568 C1581 0.929 . S
H1569 C1579 0.929 . S
H1570 C1574 0.929 1_655 S
H1571 C1580 0.929 1_455 S
C1572 H1566 0.930 . S
C1572 C1573 1.367 . S
C1572 C1580 1.378 . S
C1573 C1572 1.367 . S
C1573 C1581 1.433 . S
C1574 H1570 0.929 1_455 S
C1574 C1576 1.378 . S
C1574 C1578 1.350 . S
C1575 C1578 1.463 1_655 S
C1575 C1580 1.350 . S
C1575 N1583 1.427 . S
C1576 H1567 0.930 . S
C1576 C1574 1.378 . S
C1576 C1577 1.367 . S
C1577 C1576 1.367 . S
C1577 C1579 1.433 . S
C1578 C1574 1.350 . S
C1578 C1575 1.463 1_455 S
C1578 N1582 1.427 . S
C1579 H1569 0.929 . S
C1579 C1577 1.433 . S
C1579 N1582 1.384 . S
C1580 H1571 0.929 1_655 S
C1580 C1572 1.378 . S
C1580 C1575 1.350 . S
C1581 H1568 0.929 . S
C1581 C1573 1.433 . S
C1581 N1583 1.384 . S
N1582 C1578 1.427 . S
N1582 C1579 1.384 . S
N1583 C1575 1.427 . S
N1583 C1581 1.384 . S
H1584 C1590 0.930 . S
H1585 C1594 0.930 . S
H1586 C1599 0.929 . S
H1587 C1597 0.929 . S
H1588 C1592 0.929 . S
H1589 C1598 0.929 . S
C1590 H1584 0.930 . S
C1590 C1591 1.367 . S
C1590 C1598 1.378 . S
C1591 C1590 1.367 . S
C1591 C1599 1.433 . S
C1592 H1588 0.929 . S
C1592 C1594 1.378 . S
C1592 C1596 1.350 . S
C1593 C1596 1.463 . S
C1593 C1598 1.350 . S
C1593 N1601 1.427 . S
C1594 H1585 0.930 . S
C1594 C1592 1.378 . S
C1594 C1595 1.367 . S
C1595 C1594 1.367 . S
C1595 C1597 1.433 . S
C1596 C1592 1.350 . S
C1596 C1593 1.463 . S
C1596 N1600 1.427 . S
C1597 H1587 0.929 . S
C1597 C1595 1.433 . S
C1597 N1600 1.384 . S
C1598 H1589 0.929 . S
C1598 C1590 1.378 . S
C1598 C1593 1.350 . S
C1599 H1586 0.929 . S
C1599 C1591 1.433 . S
C1599 N1601 1.384 . S
N1600 C1596 1.427 . S
N1600 C1597 1.384 . S
N1601 C1593 1.427 . S
N1601 C1599 1.384 . S
H1602 C1608 0.930 . S
H1603 C1612 0.930 . S
H1604 C1617 0.929 . S
H1605 C1615 0.929 . S
H1606 C1610 0.929 . S
H1607 C1616 0.929 . S
C1608 H1602 0.930 . S
C1608 C1609 1.367 . S
C1608 C1616 1.378 . S
C1609 C1608 1.367 . S
C1609 C1617 1.433 . S
C1610 H1606 0.929 . S
C1610 C1612 1.378 . S
C1610 C1614 1.350 . S
C1611 C1614 1.463 1_545 S
C1611 C1616 1.350 . S
C1611 N1619 1.427 . S
C1612 H1603 0.930 . S
C1612 C1610 1.378 . S
C1612 C1613 1.367 . S
C1613 C1612 1.367 . S
C1613 C1615 1.433 . S
C1614 C1610 1.350 . S
C1614 C1611 1.463 1_565 S
C1614 N1618 1.427 . S
C1615 H1605 0.929 . S
C1615 C1613 1.433 . S
C1615 N1618 1.384 . S
C1616 H1607 0.929 . S
C1616 C1608 1.378 . S
C1616 C1611 1.350 . S
C1617 H1604 0.929 . S
C1617 C1609 1.433 . S
C1617 N1619 1.384 . S
N1618 C1614 1.427 . S
N1618 C1615 1.384 . S
N1619 C1611 1.427 . S
N1619 C1617 1.384 . S
H1620 C1626 0.930 . S
H1621 C1630 0.912 1_655 S
H1622 C1635 0.929 . S
H1623 C1633 0.929 . S
H1624 C1628 0.929 . S
H1625 C1634 0.929 . S
C1626 H1620 0.930 . S
C1626 C1627 1.367 . S
C1626 C1634 1.378 . S
C1627 C1626 1.367 . S
C1627 C1635 1.433 . S
C1628 H1624 0.929 . S
C1628 C1630 1.386 . S
C1628 C1632 1.350 . S
C1629 C1632 1.463 . S
C1629 C1634 1.350 . S
C1629 N1637 1.427 . S
C1630 H1621 0.912 1_455 S
C1630 C1628 1.386 . S
C1630 C1631 1.363 1_455 S
C1631 C1630 1.363 1_655 S
C1631 C1633 1.433 . S
C1632 C1628 1.350 . S
C1632 C1629 1.463 . S
C1632 N1636 1.427 . S
C1633 H1623 0.929 . S
C1633 C1631 1.433 . S
C1633 N1636 1.384 1_655 S
C1634 H1625 0.929 . S
C1634 C1626 1.378 . S
C1634 C1629 1.350 . S
C1635 H1622 0.929 . S
C1635 C1627 1.433 . S
C1635 N1637 1.384 . S
N1636 C1632 1.427 . S
N1636 C1633 1.384 1_455 S
N1637 C1629 1.427 . S
N1637 C1635 1.384 . S
H1638 C1644 0.930 . S
H1639 C1648 0.930 . S
H1640 C1653 0.929 . S
H1641 C1651 0.929 . S
H1642 C1646 0.929 . S
H1643 C1652 0.929 . S
C1644 H1638 0.930 . S
C1644 C1645 1.367 . S
C1644 C1652 1.378 . S
C1645 C1644 1.367 . S
C1645 C1653 1.433 . S
C1646 H1642 0.929 . S
C1646 C1648 1.378 . S
C1646 C1650 1.350 . S
C1647 C1650 1.463 . S
C1647 C1652 1.350 . S
C1647 N1655 1.427 . S
C1648 H1639 0.930 . S
C1648 C1646 1.378 . S
C1648 C1649 1.367 . S
C1649 C1648 1.367 . S
C1649 C1651 1.433 . S
C1650 C1646 1.350 . S
C1650 C1647 1.463 . S
C1650 N1654 1.427 . S
C1651 H1641 0.929 . S
C1651 C1649 1.433 . S
C1651 N1654 1.384 . S
C1652 H1643 0.929 . S
C1652 C1644 1.378 . S
C1652 C1647 1.350 . S
C1653 H1640 0.929 . S
C1653 C1645 1.433 . S
C1653 N1655 1.384 . S
N1654 C1650 1.427 . S
N1654 C1651 1.384 . S
N1655 C1647 1.427 . S
N1655 C1653 1.384 . S
H1656 C1662 0.930 . S
H1657 C1666 0.930 . S
H1658 C1671 0.929 . S
H1659 C1669 0.929 . S
H1660 C1664 0.929 . S
H1661 C1670 0.929 . S
C1662 H1656 0.930 . S
C1662 C1663 1.367 . S
C1662 C1670 1.378 . S
C1663 C1662 1.367 . S
C1663 C1671 1.433 . S
C1664 H1660 0.929 . S
C1664 C1666 1.378 . S
C1664 C1668 1.350 . S
C1665 C1668 1.463 . S
C1665 C1670 1.350 . S
C1665 N1673 1.427 . S
C1666 H1657 0.930 . S
C1666 C1664 1.378 . S
C1666 C1667 1.367 . S
C1667 C1666 1.367 . S
C1667 C1669 1.433 . S
C1668 C1664 1.350 . S
C1668 C1665 1.463 . S
C1668 N1672 1.427 . S
C1669 H1659 0.929 . S
C1669 C1667 1.433 . S
C1669 N1672 1.384 . S
C1670 H1661 0.929 . S
C1670 C1662 1.378 . S
C1670 C1665 1.350 . S
C1671 H1658 0.929 . S
C1671 C1663 1.433 . S
C1671 N1673 1.384 . S
N1672 C1668 1.427 . S
N1672 C1669 1.384 . S
N1673 C1665 1.427 . S
N1673 C1671 1.384 . S
H1674 C1680 0.930 . S
H1675 C1684 0.930 . S
H1676 C1689 0.929 . S
H1677 C1687 0.929 . S
H1678 C1682 0.929 . S
H1679 C1688 0.929 . S
C1680 H1674 0.930 . S
C1680 C1681 1.367 . S
C1680 C1688 1.378 . S
C1681 C1680 1.367 . S
C1681 C1689 1.433 . S
C1682 H1678 0.929 . S
C1682 C1684 1.378 . S
C1682 C1686 1.350 . S
C1683 C1686 1.463 . S
C1683 C1688 1.350 . S
C1683 N1691 1.427 . S
C1684 H1675 0.930 . S
C1684 C1682 1.378 . S
C1684 C1685 1.367 . S
C1685 C1684 1.367 . S
C1685 C1687 1.433 . S
C1686 C1682 1.350 . S
C1686 C1683 1.463 . S
C1686 N1690 1.427 . S
C1687 H1677 0.929 . S
C1687 C1685 1.433 . S
C1687 N1690 1.384 . S
C1688 H1679 0.929 . S
C1688 C1680 1.378 . S
C1688 C1683 1.350 . S
C1689 H1676 0.929 . S
C1689 C1681 1.433 . S
C1689 N1691 1.384 . S
N1690 C1686 1.427 . S
N1690 C1687 1.384 . S
N1691 C1683 1.427 . S
N1691 C1689 1.384 . S
C727 C24 1.042 . S
C731 C97 1.042 . S
C745 C17 1.059 . S
C749 C64 1.059 . S
C763 C57 1.042 . S
C767 C104 1.042 . S
C781 C144 1.055 . S
C785 C177 1.055 . S
C799 C217 1.046 . S
C803 C184 1.046 . S
C817 C224 1.059 . S
C821 C137 1.059 . S
C835 C337 1.045 . S
C839 C264 1.045 . S
C853 C257 1.052 . S
C857 C304 1.052 . S
C871 C344 1.059 . S
C875 C297 1.059 . S
C889 C417 1.056 . S
C893 C384 1.056 . S
C907 C424 1.043 . S
C911 C457 1.043 . S
C925 C377 1.057 . S
C929 C464 1.057 . S
C943 C504 1.056 . S
C947 C577 1.056 . S
C961 C497 1.058 . S
C965 C544 1.058 . S
C979 C537 1.054 . S
C983 C584 1.054 . S
C997 C657 1.059 . S
C1001 C624 1.059 . S
C1015 C697 1.052 . S
C1019 C664 1.052 . S
C1033 C617 1.051 . S
C1037 C704 1.051 . S
C1051 C23 1.711 . S
C1055 C223 1.719 . S
C1069 C143 1.710 . S
C1073 C63 1.719 . S
C1087 C183 1.718 . S
C1091 C103 1.708 . S
C1105 C263 1.718 . S
C1109 C463 1.715 . S
C1123 C303 1.709 . S
C1127 C383 1.703 . S
C1141 C423 1.714 . S
C1145 C343 1.719 . S
C1159 C503 1.703 . S
C1163 C703 1.709 . S
C1177 C623 1.717 . S
C1181 C543 1.706 . S
C1195 C663 1.709 . S
C1199 C583 1.703 . S
C1213 C402 2.276 . S
C1217 C2 2.273 1_565 S
C1231 C42 2.272 . S
C1235 C442 2.270 . S
C1249 C362 2.274 . S
C1253 C82 2.271 . S
C1267 C122 2.271 1_655 S
C1271 C562 2.270 . S
C1285 C162 2.270 . S
C1289 C482 2.271 . S
C1303 C522 2.276 . S
C1307 C202 2.275 . S
C1321 C642 2.270 . S
C1325 C242 2.273 . S
C1339 C282 2.274 . S
C1343 C682 2.271 . S
C1357 C322 2.271 . S
C1361 C602 2.274 . S
C1375 C106 1.722 . S
C1379 C13 1.722 . S
C1393 C26 1.719 . S
C1397 C53 1.719 . S
C1411 C93 1.718 . S
C1415 C66 1.718 . S
C1429 C186 1.719 . S
C1433 C133 1.719 . S
C1447 C226 1.715 . S
C1451 C173 1.715 . S
C1465 C213 1.719 . S
C1469 C146 1.719 . S
C1483 C346 1.716 . S
C1487 C253 1.716 . S
C1501 C293 1.721 . S
C1505 C266 1.721 . S
C1519 C306 1.723 . S
C1523 C333 1.723 . S
C1537 C373 1.723 . S
C1541 C426 1.723 1_655 S
C1555 C413 1.722 . S
C1559 C466 1.723 . S
C1573 C386 1.719 . S
C1577 C453 1.719 . S
C1591 C493 1.714 . S
C1595 C586 1.714 1_565 S
C1609 C533 1.715 . S
C1613 C506 1.715 . S
C1627 C546 1.717 . S
C1631 C573 1.717 . S
C1645 C613 1.721 . S
C1649 C666 1.721 . S
C1663 C653 1.722 . S
C1667 C706 1.722 . S
C1681 C626 1.722 . S
C1685 C693 1.722 . S
