# Generated by pormake.
# Topology qtz-e, (6)-cn, num edge types: 1
# Building blocks:
#     Node 0, Type 0, BuildingBlock: CUWYAW_clean_sbu_0, # of connection points: 6
#     Node 1, Type 0, BuildingBlock: CUWYAW_clean_sbu_0, # of connection points: 6
#     Node 2, Type 0, BuildingBlock: CUWYAW_clean_sbu_0, # of connection points: 6
#     Node 3, Type 0, BuildingBlock: CUWYAW_clean_sbu_0, # of connection points: 6
#     Node 4, Type 0, BuildingBlock: CUWYAW_clean_sbu_0, # of connection points: 6
#     Node 5, Type 0, BuildingBlock: CUWYAW_clean_sbu_0, # of connection points: 6
#     Edge 6, Type (0, 0), BuildingBlock: FUNLAD_clean_linker_0, # of connection points: 2
#     Edge 7, Type (0, 0), BuildingBlock: FUNLAD_clean_linker_0, # of connection points: 2
#     Edge 8, Type (0, 0), BuildingBlock: FUNLAD_clean_linker_0, # of connection points: 2
#     Edge 9, Type (0, 0), BuildingBlock: FUNLAD_clean_linker_0, # of connection points: 2
#     Edge 10, Type (0, 0), BuildingBlock: FUNLAD_clean_linker_0, # of connection points: 2
#     Edge 11, Type (0, 0), BuildingBlock: FUNLAD_clean_linker_0, # of connection points: 2
#     Edge 12, Type (0, 0), BuildingBlock: FUNLAD_clean_linker_0, # of connection points: 2
#     Edge 13, Type (0, 0), BuildingBlock: FUNLAD_clean_linker_0, # of connection points: 2
#     Edge 14, Type (0, 0), BuildingBlock: FUNLAD_clean_linker_0, # of connection points: 2
#     Edge 15, Type (0, 0), BuildingBlock: FUNLAD_clean_linker_0, # of connection points: 2
#     Edge 16, Type (0, 0), BuildingBlock: FUNLAD_clean_linker_0, # of connection points: 2
#     Edge 17, Type (0, 0), BuildingBlock: FUNLAD_clean_linker_0, # of connection points: 2
#     Edge 18, Type (0, 0), BuildingBlock: FUNLAD_clean_linker_0, # of connection points: 2
#     Edge 19, Type (0, 0), BuildingBlock: FUNLAD_clean_linker_0, # of connection points: 2
#     Edge 20, Type (0, 0), BuildingBlock: FUNLAD_clean_linker_0, # of connection points: 2
#     Edge 21, Type (0, 0), BuildingBlock: FUNLAD_clean_linker_0, # of connection points: 2
#     Edge 22, Type (0, 0), BuildingBlock: FUNLAD_clean_linker_0, # of connection points: 2
#     Edge 23, Type (0, 0), BuildingBlock: FUNLAD_clean_linker_0, # of connection points: 2
# Relax obj value: 0.142
# Max RMSD: 0.204
# Mean RMSD: 0.203
data_MOF--net-qtz-e--node1-CUWYAW_clean_sbu_0--edge1-FUNLAD_clean_linker_0
_symmetry_space_group_name_H-M    P1
_symmetry_Int_Tables_number       1
_symmetry_cell_setting            triclinic
loop_
_symmetry_equiv_pos_as_xyz
'x, y, z'
_cell_length_a     29.597283
_cell_length_b     29.339406
_cell_length_c     57.80408
_cell_angle_alpha  89.555061
_cell_angle_beta   89.818628
_cell_angle_gamma 120.18184
loop_
_atom_site_label
_atom_site_type_symbol
_atom_site_fract_x
_atom_site_fract_y
_atom_site_fract_z
_atom_type_partial_charge
C0 C 0.21898 0.30529 0.02739 0.0
Eu1 Eu 0.19366 0.37392 0.04092 0.0
C2 C 0.23289 0.29448 1.00422 0.0
C3 C 0.19851 0.24751 0.99285 0.0
C4 C 0.20755 0.23995 0.96978 0.0
C5 C 0.25123 0.27925 0.95761 0.0
C6 C 0.28686 0.32513 0.96936 0.0
C7 C 0.27786 0.33266 0.99238 0.0
C8 C 0.10151 0.36705 0.02971 0.0
C9 C 0.2303 0.46214 0.99897 0.0
C10 C 0.16122 0.53924 0.06121 0.0
Eu11 Eu 0.18762 0.47161 0.04749 0.0
C12 C 0.16672 0.56082 0.0846 0.0
C13 C 0.19218 0.54771 0.10159 0.0
C14 C 0.19975 0.56896 0.1237 0.0
C15 C 0.18206 0.6039 0.12936 0.0
C16 C 0.15565 0.61627 0.1124 0.0
C17 C 0.14815 0.59495 0.09014 0.0
C18 C 0.2813 0.48417 0.05916 0.0
C19 C 0.15074 0.38228 0.0894 0.0
O20 O 0.25222 0.3502 0.03689 0.0
O21 O 0.17056 0.29415 0.02998 0.0
O22 O 0.10427 0.33068 0.04144 0.0
O23 O 0.1464 0.40388 0.02488 0.0
O24 O 0.23715 0.42585 1.00953 0.0
O25 O 0.20314 0.48111 1.00906 0.0
O26 O 0.12764 0.48881 0.05935 0.0
O27 O 0.20542 0.55292 0.05063 0.0
O28 O 0.27457 0.51984 0.04918 0.0
O29 O 0.23796 0.44343 0.06361 0.0
O30 O 0.14612 0.42033 0.07924 0.0
O31 O 0.17532 0.36099 0.07899 0.0
H32 H 0.1636 0.21738 1.00155 0.0
H33 H 0.17925 0.20421 0.96123 0.0
H34 H 0.32144 0.35574 0.96064 0.0
H35 H 0.30538 0.36926 1.0006 0.0
H36 H 0.2067 0.52129 0.09766 0.0
H37 H 0.21935 0.55783 0.13642 0.0
H38 H 0.14178 0.64327 0.11619 0.0
H39 H 0.12842 0.60548 0.07724 0.0
C40 C 0.89223 0.19201 0.35503 0.0
Eu41 Eu 0.80182 0.17711 0.36836 0.0
C42 C 0.91794 0.20424 0.33199 0.0
C43 C 0.94863 0.18251 0.32519 0.0
C44 C 0.97268 0.19423 0.30326 0.0
C45 C 0.96662 0.22811 0.28779 0.0
C46 C 0.9354 0.24929 0.29466 0.0
C47 C 0.91132 0.23742 0.31643 0.0
C48 C 0.70734 0.09902 0.35383 0.0
C49 C 0.74467 0.21888 0.3342 0.0
C50 C 0.61802 0.16498 0.40477 0.0
Eu51 Eu 0.7052 0.18208 0.38565 0.0
C52 C 0.59864 0.15889 0.42872 0.0
C53 C 0.57162 0.18461 0.4353 0.0
C54 C 0.55924 0.18588 0.45853 0.0
C55 C 0.57379 0.16149 0.47566 0.0
C56 C 0.59907 0.1339 0.4689 0.0
C57 C 0.61145 0.13267 0.44562 0.0
C58 C 0.79653 0.27399 0.38661 0.0
C59 C 0.76467 0.14405 0.42179 0.0
O60 O 0.88548 0.22916 0.36395 0.0
O61 O 0.8512 0.14484 0.35783 0.0
O62 O 0.74871 0.12054 0.34073 0.0
O63 O 0.7187 0.119 0.37356 0.0
O64 O 0.79043 0.22697 0.34158 0.0
O65 O 0.70182 0.19319 0.34707 0.0
O66 O 0.62469 0.12739 0.39647 0.0
O67 O 0.65664 0.21186 0.39948 0.0
O68 O 0.75233 0.2705 0.3814 0.0
O69 O 0.79029 0.22948 0.39189 0.0
O70 O 0.73018 0.15958 0.41855 0.0
O71 O 0.79563 0.14482 0.40491 0.0
H72 H 0.95412 0.15664 0.33685 0.0
H73 H -0.00332 0.17745 0.29857 0.0
H74 H 0.92906 0.27472 0.28308 0.0
H75 H 0.88751 0.25438 0.32112 0.0
H76 H 0.56151 0.20517 0.42252 0.0
H77 H 0.53894 0.20665 0.46313 0.0
H78 H 0.61109 0.115 0.48168 0.0
H79 H 0.63243 0.11265 0.44094 0.0
C80 C 0.67842 0.91809 0.69356 0.0
Eu81 Eu 0.60877 0.82287 0.70662 0.0
C82 C 0.69574 0.94323 0.67056 0.0
C83 C 0.68827 0.9125 0.65088 0.0
C84 C 0.70154 0.9359 0.62887 0.0
C85 C 0.7227 -0.00937 0.62605 0.0
C86 C 0.73109 0.02137 0.64593 0.0
C87 C 0.71759 -0.00216 0.66795 0.0
C88 C 0.61898 0.7373 0.69943 0.0
C89 C 0.53032 0.76829 0.66217 0.0
C90 C 0.44518 0.62111 0.7257 0.0
Eu91 Eu 0.51052 0.71676 0.71175 0.0
C92 C 0.42447 0.60127 0.7492 0.0
C93 C 0.41909 0.63424 0.76509 0.0
C94 C 0.40186 0.61689 0.7877 0.0
C95 C 0.39022 0.56631 0.79517 0.0
C96 C 0.39594 0.53341 0.77918 0.0
C97 C 0.41292 0.55077 0.75642 0.0
C98 C 0.49491 0.7986 0.718 0.0
C99 C 0.58829 0.77319 0.75648 0.0
O100 O 0.63058 0.90469 0.69953 0.0
O101 O 0.6897 0.88143 0.69862 0.0
O102 O 0.65227 0.77738 0.71137 0.0
O103 O 0.58337 0.74478 0.69234 0.0
O104 O 0.56502 0.81183 0.67274 0.0
O105 O 0.50795 0.72203 0.67295 0.0
O106 O 0.49517 0.63879 0.72282 0.0
O107 O 0.43043 0.65214 0.71618 0.0
O108 O 0.46188 0.75495 0.70811 0.0
O109 O 0.53381 0.79637 0.7255 0.0
O110 O 0.5524 0.72982 0.74626 0.0
O111 O 0.61259 0.81878 0.74528 0.0
H112 H 0.67111 0.87014 0.65249 0.0
H113 H 0.69373 0.91083 0.61401 0.0
H114 H 0.74798 0.06369 0.64448 0.0
H115 H 0.72366 0.02222 0.68291 0.0
H116 H 0.42852 0.67374 0.76006 0.0
H117 H 0.39727 0.64317 0.79926 0.0
H118 H 0.38822 0.49457 0.78433 0.0
H119 H 0.41765 0.52503 0.74456 0.0
C120 C 0.80525 0.72292 1.01581 0.0
Eu121 Eu 0.7935 0.63715 0.0352 0.0
C122 C 0.78139 0.73428 0.99591 0.0
C123 C 0.80977 0.78224 0.98386 0.0
C124 C 0.79015 0.79134 0.96343 0.0
C125 C 0.74184 0.7524 0.95458 0.0
C126 C 0.71292 0.70482 0.96708 0.0
C127 C 0.73249 0.69587 0.98756 0.0
C128 C 0.85933 0.59869 0.03217 0.0
C129 C 0.72082 0.53744 1.00205 0.0
C130 C 0.72947 0.42991 0.06714 0.0
Eu131 Eu 0.75253 0.5241 0.05424 0.0
C132 C 0.71942 0.40325 0.08987 0.0
C133 C 0.69144 0.41214 0.10722 0.0
C134 C 0.68607 0.3903 0.12934 0.0
C135 C 0.70909 0.35969 0.13462 0.0
C136 C 0.73632 0.35015 0.1171 0.0
C137 C 0.74134 0.37168 0.09491 0.0
C138 C 0.70297 0.57366 0.07063 0.0
C139 C 0.82728 0.62328 0.08578 0.0
O140 O 0.77524 0.70053 0.03399 0.0
O141 O 0.83389 0.70201 1.01058 0.0
O142 O 0.87522 0.64745 0.03735 0.0
O143 O 0.81122 0.57422 0.02852 0.0
O144 O 0.74408 0.58886 1.00533 0.0
O145 O 0.72045 0.50459 0.01797 0.0
O146 O 0.77764 0.46824 0.0636 0.0
O147 O 0.69442 0.44147 0.05983 0.0
O148 O 0.71157 0.54161 0.08277 0.0
O149 O 0.71801 0.57552 0.05007 0.0
O150 O 0.81611 0.5755 0.07934 0.0
O151 O 0.81471 0.65272 0.0729 0.0
H152 H 0.84782 0.81213 0.98992 0.0
H153 H 0.81373 0.82814 0.95413 0.0
H154 H 0.67532 0.67426 0.96092 0.0
H155 H 0.70993 0.65851 0.99659 0.0
H156 H 0.67475 0.43698 0.10387 0.0
H157 H 0.66547 0.39893 0.14254 0.0
H158 H 0.75413 0.32638 0.1206 0.0
H159 H 0.76335 0.36463 0.08182 0.0
C160 C 0.06966 0.78261 0.35252 0.0
Eu161 Eu 0.1602 0.80479 0.36887 0.0
C162 C 0.05013 0.77093 0.32872 0.0
C163 C 0.08537 0.78245 0.31029 0.0
C164 C 0.06718 0.76821 0.28776 0.0
C165 C 0.01331 0.74219 0.28319 0.0
C166 C 0.97811 0.73134 0.3017 0.0
C167 C -0.00358 0.74546 0.32431 0.0
C168 C 0.25006 0.89194 0.35528 0.0
C169 C 0.20794 0.75627 0.33183 0.0
C170 C 0.35102 0.82784 0.39501 0.0
Eu171 Eu 0.25932 0.80445 0.37995 0.0
C172 C 0.36592 0.82148 0.41858 0.0
C173 C 0.32697 0.78775 0.43433 0.0
C174 C 0.33999 0.78071 0.45673 0.0
C175 C 0.39229 0.80787 0.46409 0.0
C176 C 0.43125 0.84218 0.44827 0.0
C177 C 0.41813 0.84886 0.42568 0.0
C178 C 0.17255 0.71449 0.39241 0.0
C179 C 0.20657 0.84845 0.41789 0.0
O180 O 0.07853 0.7474 0.3621 0.0
O181 O 0.10755 0.8308 0.35608 0.0
O182 O 0.21172 0.89446 0.36484 0.0
O183 O 0.23934 0.84519 0.35358 0.0
O184 O 0.16566 0.75284 0.34132 0.0
O185 O 0.2539 0.78366 0.34197 0.0
O186 O 0.3364 0.86298 0.39259 0.0
O187 O 0.31972 0.7837 0.38452 0.0
O188 O 0.2152 0.71682 0.38539 0.0
O189 O 0.17857 0.75992 0.39448 0.0
O190 O 0.24929 0.84988 0.40981 0.0
O191 O 0.16256 0.82569 0.40616 0.0
H192 H 0.12706 0.80199 0.31336 0.0
H193 H 0.09536 0.77772 0.27391 0.0
H194 H 0.93635 0.7108 0.29878 0.0
H195 H 0.96868 0.73579 0.33838 0.0
H196 H 0.28631 0.76644 0.42922 0.0
H197 H 0.30895 0.75328 0.46815 0.0
H198 H 0.47182 0.86434 0.45339 0.0
H199 H 0.44865 0.87542 0.41382 0.0
C200 C 0.23988 0.09125 0.68189 0.0
Eu201 Eu 0.32284 0.1589 0.70402 0.0
C202 C 0.2322 0.05855 0.66135 0.0
C203 C 0.19914 0.05694 0.64365 0.0
C204 C 0.19717 0.03286 0.62258 0.0
C205 C 0.22828 0.00978 0.61874 0.0
C206 C 0.25991 0.00974 0.63689 0.0
C207 C 0.26202 0.03404 0.65792 0.0
C208 C 0.36665 0.26498 0.70088 0.0
C209 C 0.42343 0.17712 0.67287 0.0
C210 C 0.52566 0.29612 0.73772 0.0
Eu211 Eu 0.43384 0.22573 0.72356 0.0
C212 C 0.5468 0.31291 0.76113 0.0
C213 C 0.5331 0.27579 0.77916 0.0
C214 C 0.5475 0.29236 0.8019 0.0
C215 C 0.57535 0.34639 0.80715 0.0
C216 C 0.59009 0.38344 0.78893 0.0
C217 C 0.57592 0.3668 0.76615 0.0
C218 C 0.38031 0.12471 0.73947 0.0
C219 C 0.33435 0.20287 0.75487 0.0
O220 O 0.25586 0.07925 0.70094 0.0
O221 O 0.26418 0.14202 0.67773 0.0
O222 O 0.31789 0.234 0.70644 0.0
O223 O 0.38861 0.23871 0.69725 0.0
O224 O 0.37216 0.15166 0.67594 0.0
O225 O 0.45596 0.21052 0.68825 0.0
O226 O 0.48946 0.30723 0.73195 0.0
O227 O 0.51433 0.24854 0.73158 0.0
O228 O 0.41229 0.16455 0.75183 0.0
O229 O 0.38021 0.13992 0.71906 0.0
O230 O 0.38234 0.23878 0.74841 0.0
O231 O 0.30454 0.16176 0.74177 0.0
H232 H 0.17629 0.07614 0.64581 0.0
H233 H 0.17283 0.03428 0.60897 0.0
H234 H 0.28381 -0.00829 0.63472 0.0
H235 H 0.2883 0.03515 0.67119 0.0
H236 H 0.51007 0.23393 0.77582 0.0
H237 H 0.53625 0.26274 0.81541 0.0
H238 H 0.61096 0.42533 0.79236 0.0
H239 H 0.58615 0.39606 0.75253 0.0
C240 C 0.24726 0.74309 0.29547 0.0
C241 C 0.20312 0.73355 0.30849 0.0
C242 C 0.2418 0.72428 0.27279 0.0
C243 C 0.19192 0.69558 0.26267 0.0
C244 C 0.14799 0.68522 0.276 0.0
C245 C 0.15343 0.70392 0.29852 0.0
C246 C 0.183 0.67509 0.23854 0.0
C247 C 0.2206 0.68944 0.22224 0.0
C248 C 0.20965 0.66816 0.19829 0.0
C249 C 0.24925 0.66571 0.18594 0.0
C250 C 0.24038 0.64531 0.16357 0.0
C251 C 0.19178 0.62741 0.15285 0.0
H252 H 0.13037 0.65432 0.19598 0.0
C253 C 0.15257 0.6313 0.16491 0.0
C254 C 0.16135 0.65144 0.18738 0.0
H255 H 0.11475 0.61793 0.15715 0.0
H256 H 0.28608 0.76571 0.30265 0.0
H257 H 0.2768 0.73233 0.26348 0.0
H258 H 0.10905 0.66302 0.26886 0.0
H259 H 0.1184 0.69552 0.30799 0.0
H260 H 0.14292 0.64683 0.23404 0.0
H261 H 0.2611 0.71653 0.22645 0.0
H262 H 0.28704 0.67897 0.19373 0.0
H263 H 0.27178 0.64379 0.1546 0.0
C264 C 0.49628 0.20195 0.64408 0.0
C265 C 0.44425 0.16808 0.65113 0.0
C266 C 0.51444 0.1946 0.62281 0.0
C267 C 0.48085 0.15306 0.60825 0.0
C268 C 0.42961 0.1182 0.61576 0.0
C269 C 0.41136 0.1258 0.63683 0.0
C270 C 0.49728 0.14484 0.58507 0.0
C271 C 0.53385 0.18442 0.57192 0.0
C272 C 0.54521 0.17736 0.54755 0.0
C273 C 0.56484 0.22078 0.53235 0.0
C274 C 0.57407 0.21554 0.50909 0.0
C275 C 0.56439 0.16676 0.5005 0.0
H276 H 0.52313 0.09472 0.55044 0.0
C277 C 0.54621 0.12356 0.51584 0.0
C278 C 0.53674 0.12875 0.53913 0.0
H279 H 0.53858 0.08551 0.50977 0.0
H280 H 0.52274 0.23467 0.65477 0.0
H281 H 0.55471 0.22137 0.61791 0.0
H282 H 0.40312 0.08559 0.60503 0.0
H283 H 0.37127 0.09858 0.6418 0.0
H284 H 0.47474 0.10572 0.57778 0.0
H285 H 0.55284 0.22443 0.57841 0.0
H286 H 0.57229 0.2588 0.5384 0.0
H287 H 0.5892 0.24989 0.49784 0.0
C288 C 0.27341 0.45363 0.96306 0.0
C289 C 0.25121 0.47923 0.97509 0.0
C290 C 0.29268 0.46898 0.94049 0.0
C291 C 0.29022 0.51045 0.92932 0.0
C292 C 0.26878 0.53657 0.94145 0.0
C293 C 0.24913 0.52093 0.964 0.0
C294 C 0.31143 0.52874 0.90548 0.0
C295 C 0.31429 0.49721 0.88934 0.0
C296 C 0.33484 0.51567 0.86543 0.0
C297 C 0.31616 0.47946 0.84721 0.0
C298 C 0.3342 0.49561 0.8245 0.0
C299 C 0.37214 0.54834 0.81949 0.0
H300 H 0.39037 0.59676 0.87425 0.0
C301 C 0.39205 0.58416 0.83793 0.0
C302 C 0.37357 0.56812 0.86056 0.0
H303 H 0.4224 0.62469 0.83495 0.0
H304 H 0.27597 0.42158 0.97107 0.0
H305 H 0.3104 0.44895 0.93206 0.0
H306 H 0.26685 0.56901 0.93339 0.0
H307 H 0.23255 0.54172 0.97275 0.0
H308 H 0.32261 0.569 0.90078 0.0
H309 H 0.29838 0.4556 0.89324 0.0
H310 H 0.28672 0.43867 0.85048 0.0
H311 H 0.31755 0.46689 0.81084 0.0
C312 C 0.69381 0.22427 0.30041 0.0
C313 C 0.7419 0.23697 0.3105 0.0
C314 C 0.69185 0.23894 0.27744 0.0
C315 C 0.73805 0.26655 0.26415 0.0
C316 C 0.78587 0.27943 0.27436 0.0
C317 C 0.78786 0.26523 0.29723 0.0
C318 C 0.73855 0.28089 0.23938 0.0
C319 C 0.70189 0.28888 0.22945 0.0
C320 C 0.70461 0.30606 0.20484 0.0
C321 C 0.65938 0.30103 0.19455 0.0
C322 C 0.6605 0.31785 0.17171 0.0
C323 C 0.70698 0.34008 0.15861 0.0
H324 H 0.78774 0.33572 0.19893 0.0
C325 C 0.75227 0.34531 0.16886 0.0
C326 C 0.7513 0.32893 0.1917 0.0
H327 H 0.78899 0.36347 0.1594 0.0
H328 H 0.65761 0.20207 0.31008 0.0
H329 H 0.65408 0.2272 0.27003 0.0
H330 H 0.82205 0.30057 0.26457 0.0
H331 H 0.82565 0.27599 0.30437 0.0
H332 H 0.77182 0.28634 0.22925 0.0
H333 H 0.66858 0.28312 0.2397 0.0
H334 H 0.62296 0.28403 0.20421 0.0
H335 H 0.62491 0.31323 0.16427 0.0
C336 C 0.47544 0.73069 0.62653 0.0
C337 C 0.51861 0.77229 0.63755 0.0
C338 C 0.46447 0.7358 0.60338 0.0
C339 C 0.49693 0.78242 0.59075 0.0
C340 C 0.54061 0.82331 0.60163 0.0
C341 C 0.55093 0.81863 0.6248 0.0
C342 C 0.48698 0.78964 0.56619 0.0
C343 C 0.43856 0.76961 0.55752 0.0
C344 C 0.42851 0.78072 0.53351 0.0
C345 C 0.38265 0.78204 0.52905 0.0
C346 C 0.37158 0.79203 0.50671 0.0
C347 C 0.40565 0.79986 0.4881 0.0
H348 H 0.49808 0.7869 0.51772 0.0
C349 C 0.4516 0.79834 0.49258 0.0
C350 C 0.46297 0.78896 0.51503 0.0
H351 H 0.47827 0.80312 0.47867 0.0
H352 H 0.44985 0.69443 0.63584 0.0
H353 H 0.43107 0.70305 0.59532 0.0
H354 H 0.5664 0.8595 0.5923 0.0
H355 H 0.58446 0.85149 0.63267 0.0
H356 H 0.52052 0.81607 0.55554 0.0
H357 H 0.40496 0.74764 0.5689 0.0
H358 H 0.35546 0.7759 0.54296 0.0
H359 H 0.3363 0.79383 0.5041 0.0
C360 C 0.67771 0.46337 0.97374 0.0
C361 C 0.69828 0.5169 0.979 0.0
C362 C 0.6612 0.4452 0.9513 0.0
C363 C 0.66462 0.4802 0.93365 0.0
C364 C 0.68404 0.53336 0.93908 0.0
C365 C 0.70045 0.55149 0.96147 0.0
C366 C 0.65186 0.46376 0.90915 0.0
C367 C 0.61985 0.4136 0.90262 0.0
C368 C 0.60921 0.39776 0.87798 0.0
C369 C 0.56164 0.35302 0.87225 0.0
C370 C 0.55062 0.33649 0.84931 0.0
C371 C 0.58737 0.36391 0.83158 0.0
H372 H 0.68408 0.45867 0.86416 0.0
C373 C 0.63535 0.40835 0.83739 0.0
C374 C 0.64622 0.42507 0.86032 0.0
H375 H 0.66494 0.42977 0.82426 0.0
H376 H 0.67577 0.4357 0.98676 0.0
H377 H 0.64772 0.4042 0.94777 0.0
H378 H 0.68731 0.56125 0.92584 0.0
H379 H 0.7161 0.59302 0.96483 0.0
H380 H 0.66865 0.4947 0.89602 0.0
H381 H 0.59889 0.38318 0.91565 0.0
H382 H 0.53259 0.33108 0.88552 0.0
H383 H 0.51294 0.30257 0.84546 0.0
C384 C 0.34219 0.45987 0.07803 0.0
C385 C 0.32981 0.49828 0.07139 0.0
C386 C 0.39103 0.47513 0.08764 0.0
C387 C 0.42764 0.52882 0.09081 0.0
C388 C 0.41307 0.56663 0.086 0.0
C389 C 0.36492 0.55153 0.07608 0.0
C390 C 0.48209 0.54438 0.09673 0.0
C391 C 0.5231 0.58964 0.08869 0.0
C392 C 0.5758 0.59632 0.08697 0.0
C393 C 0.6049 0.61867 0.06662 0.0
C394 C 0.64884 0.61445 0.06183 0.0
C395 C 0.66452 0.58857 0.07756 0.0
H396 H 0.57364 0.5591 0.11985 0.0
C397 C 0.6388 0.57142 0.09902 0.0
C398 C 0.59454 0.57512 0.1037 0.0
H399 H 0.65086 0.55219 0.11162 0.0
H400 H 0.3152 0.41851 0.07489 0.0
H401 H 0.40117 0.44519 0.09148 0.0
H402 H 0.43926 0.60808 0.08922 0.0
H403 H 0.35552 0.58182 0.07178 0.0
H404 H 0.48868 0.51417 0.10426 0.0
H405 H 0.51659 0.61769 0.07904 0.0
H406 H 0.59138 0.63574 0.05361 0.0
H407 H 0.66849 0.62853 0.04527 0.0
C408 C 0.13048 0.62008 0.40297 0.0
C409 C 0.12637 0.66527 0.39992 0.0
C410 C 0.08619 0.57147 0.40743 0.0
C411 C 0.03655 0.56688 0.40819 0.0
C412 C 0.03302 0.61285 0.40682 0.0
C413 C 0.07776 0.66189 0.40285 0.0
C414 C -0.01227 0.51494 0.40877 0.0
C415 C -0.01426 0.47018 0.40195 0.0
C416 C 0.93622 0.42023 0.39888 0.0
C417 C 0.93554 0.37246 0.40211 0.0
C418 C 0.88998 0.32463 0.39815 0.0
C419 C 0.84483 0.32405 0.39042 0.0
H420 H 0.89079 0.45579 0.38763 0.0
C421 C 0.84566 0.3718 0.38686 0.0
C422 C 0.89097 0.41957 0.39108 0.0
H423 H 0.81132 0.37229 0.38079 0.0
H424 H 0.16792 0.62204 0.40148 0.0
H425 H 0.09134 0.53778 0.40972 0.0
H426 H -0.00463 0.61057 0.40781 0.0
H427 H 0.07399 0.69659 0.40111 0.0
H428 H 0.9517 0.51428 0.41321 0.0
H429 H 0.02106 0.46957 0.39758 0.0
H430 H 0.97023 0.37219 0.40782 0.0
H431 H 0.89011 0.28821 0.40116 0.0
C432 C 0.33999 0.03007 0.72929 0.0
C433 C 0.36796 0.07074 0.74505 0.0
C434 C 0.33943 0.98242 0.73156 0.0
C435 C 0.36765 0.97545 0.74931 0.0
C436 C 0.39102 0.014 0.76642 0.0
C437 C 0.39086 0.0613 0.76437 0.0
C438 C 0.37817 0.93154 0.74761 0.0
C439 C 0.42695 0.93982 0.75025 0.0
C440 C 0.44344 0.90252 0.74222 0.0
C441 C 0.48974 0.90676 0.75086 0.0
C442 C 0.50769 0.87387 0.7427 0.0
C443 C 0.47957 0.83647 0.72569 0.0
H444 H 0.38204 0.86296 0.71668 0.0
C445 C 0.43414 0.83316 0.71664 0.0
C446 C 0.41634 0.86592 0.7247 0.0
H447 H 0.41214 0.80508 0.70326 0.0
H448 H 0.32156 0.03631 0.71439 0.0
H449 H 0.32071 0.95285 0.71832 0.0
H450 H 0.41185 0.0088 0.78062 0.0
H451 H 0.41204 0.09183 0.77697 0.0
H452 H 0.34735 0.89466 0.74075 0.0
H453 H 0.45731 0.97722 0.75702 0.0
H454 H 0.51194 0.93543 0.764 0.0
H455 H 0.54295 0.87716 0.74989 0.0
C456 C 0.62396 0.66515 0.72051 0.0
C457 C 0.61103 0.68393 0.70066 0.0
C458 C 0.60234 0.61071 0.72396 0.0
C459 C 0.56734 0.57529 0.70774 0.0
C460 C 0.55837 0.59461 0.68706 0.0
C461 C 0.58014 0.64846 0.68353 0.0
C462 C 0.53809 0.51815 0.71244 0.0
C463 C 0.48604 0.49052 0.70924 0.0
C464 C 0.45604 0.43245 0.70831 0.0
C465 C 0.40293 0.40512 0.71469 0.0
C466 C 0.37307 0.35036 0.71219 0.0
C467 C 0.3959 0.32267 0.70281 0.0
H468 H 0.51876 0.42473 0.69283 0.0
C469 C 0.44856 0.35035 0.69582 0.0
C470 C 0.47849 0.40457 0.69875 0.0
H471 H 0.46688 0.32999 0.68817 0.0
H472 H 0.64734 0.69197 0.73402 0.0
H473 H 0.61019 0.59627 0.73987 0.0
H474 H 0.53267 0.56789 0.67401 0.0
H475 H 0.56992 0.66223 0.66804 0.0
H476 H 0.55943 0.49873 0.7178 0.0
H477 H 0.46494 0.51141 0.706 0.0
H478 H 0.38465 0.42615 0.72167 0.0
H479 H 0.33245 0.3298 0.71761 0.0
C480 C 0.05848 0.41265 1.01329 0.0
C481 C 0.05679 0.37543 0.02915 0.0
C482 C 0.02454 0.432 1.01564 0.0
C483 C -0.01178 0.41447 0.03393 0.0
C484 C -0.01675 0.37381 0.04862 0.0
C485 C 0.01777 0.35451 0.04635 0.0
C486 C 0.95645 0.43954 0.03785 0.0
C487 C 0.97757 0.49209 0.0354 0.0
C488 C 0.94637 0.51858 0.0357 0.0
C489 C 0.97026 0.57201 0.04177 0.0
C490 C 0.94227 0.59874 0.04068 0.0
C491 C 0.89035 0.57241 0.03314 0.0
H492 H 0.87545 0.45204 0.0224 0.0
C493 C 0.8669 0.51932 0.02669 0.0
C494 C 0.89447 0.49257 0.02804 0.0
H495 H 0.82709 0.49831 0.02046 0.0
H496 H 0.08801 0.42892 0.99974 0.0
H497 H 0.02779 0.4619 1.00353 0.0
H498 H 0.95475 0.3592 0.06259 0.0
H499 H 0.0161 0.32598 0.05885 0.0
H500 H 0.91582 0.41474 0.04303 0.0
H501 H 0.01951 0.51678 0.03264 0.0
H502 H 0.01057 0.59303 0.04736 0.0
H503 H 0.96114 0.63975 0.04567 0.0
C504 C 0.32811 0.92762 0.33031 0.0
C505 C 0.30098 0.93601 0.34814 0.0
C506 C 0.38107 0.9626 0.32666 0.0
C507 C 0.40812 0.00664 0.34099 0.0
C508 C 0.37972 0.01737 0.35752 0.0
C509 C 0.32625 0.98236 0.36101 0.0
C510 C 0.466 0.03546 0.34226 0.0
C511 C 0.4973 0.03058 0.3267 0.0
C512 C 0.55105 0.04411 0.33277 0.0
C513 C 0.59141 0.06648 0.3162 0.0
C514 C 0.64263 0.08126 0.32243 0.0
C515 C 0.65356 0.07316 0.34524 0.0
H516 H 0.53089 0.01288 0.36785 0.0
C517 C 0.61246 0.04672 0.36114 0.0
C518 C 0.5617 0.03247 0.35502 0.0
H519 H 0.61996 0.03911 0.37868 0.0
H520 H 0.30906 0.89207 0.32009 0.0
H521 H 0.40095 0.95217 0.31388 0.0
H522 H 0.39962 0.05094 0.36884 0.0
H523 H 0.30593 0.9893 0.37493 0.0
H524 H 0.48318 0.05687 0.35812 0.0
H525 H 0.48311 0.01417 0.30974 0.0
H526 H 0.5837 0.0745 0.29878 0.0
H527 H 0.67389 0.10164 0.30987 0.0
C528 C 0.3474 0.25188 0.79177 0.0
C529 C 0.31542 0.20824 0.77792 0.0
C530 C 0.3321 0.2556 0.81421 0.0
C531 C 0.28403 0.21592 0.82339 0.0
C532 C 0.2518 0.17253 0.80949 0.0
C533 C 0.26716 0.16879 0.78695 0.0
C534 C 0.26811 0.21705 0.84778 0.0
C535 C 0.28663 0.26186 0.86001 0.0
C536 C 0.27444 0.26384 0.88488 0.0
C537 C 0.28348 0.31203 0.89386 0.0
C538 C 0.27556 0.31679 0.91734 0.0
C539 C 0.25876 0.27351 0.93255 0.0
H540 H 0.25128 0.18285 0.89405 0.0
C541 C 0.24932 0.22509 0.92359 0.0
C542 C 0.25727 0.2203 0.90005 0.0
H543 H 0.237 0.19118 0.9349 0.0
H544 H 0.38508 0.28285 0.78551 0.0
H545 H 0.35905 0.28885 0.82448 0.0
H546 H 0.2148 0.14113 0.81616 0.0
H547 H 0.24171 0.13447 0.77683 0.0
H548 H 0.23956 0.17974 0.85563 0.0
H549 H 0.3113 0.29948 0.85139 0.0
H550 H 0.29689 0.34632 0.88267 0.0
H551 H 0.28233 0.3544 0.92356 0.0
C552 C 0.01595 0.29373 0.25597 0.0
C553 C -0.00736 0.24175 0.26459 0.0
C554 C 0.03854 0.30657 0.23385 0.0
C555 C 0.03792 0.26754 0.21958 0.0
C556 C 0.01599 0.21591 0.22847 0.0
C557 C -0.00645 0.20309 0.25068 0.0
C558 C 0.06042 0.27941 0.1956 0.0
C559 C 0.06599 0.32069 0.18279 0.0
C560 C 0.08751 0.33396 0.15866 0.0
C561 C 0.08262 0.37282 0.14643 0.0
C562 C 0.10282 0.38802 0.12403 0.0
C563 C 0.12875 0.36486 0.11312 0.0
H564 H 0.11928 0.28133 0.15656 0.0
C565 C 0.13382 0.32592 0.12524 0.0
C566 C 0.11358 0.31068 0.14778 0.0
H567 H 0.15383 0.30746 0.1174 0.0
H568 H 0.01715 0.32478 0.26644 0.0
H569 H 0.05693 0.34731 0.22824 0.0
H570 H 0.01539 0.18508 0.21805 0.0
H571 H 0.97582 0.16264 0.25674 0.0
H572 H 0.07018 0.25166 0.18811 0.0
H573 H 0.05233 0.34573 0.18997 0.0
H574 H 0.06308 0.39179 0.15426 0.0
H575 H 0.0982 0.41825 0.11534 0.0
C576 C 0.755 -0.00193 0.5849 0.0
C577 C 0.73404 0.01515 0.60246 0.0
C578 C 0.76385 0.02004 0.56256 0.0
C579 C 0.75178 0.05966 0.55723 0.0
C580 C 0.73163 0.07714 0.57492 0.0
C581 C 0.72273 0.05517 0.59716 0.0
C582 C 0.75865 0.08382 0.53369 0.0
C583 C 0.76811 0.06526 0.51402 0.0
C584 C 0.76925 0.08798 0.49066 0.0
C585 C 0.79647 0.08089 0.47233 0.0
C586 C 0.79619 0.09989 0.44998 0.0
C587 C 0.76808 0.12586 0.44546 0.0
H588 H 0.71816 0.1189 0.49927 0.0
C589 C 0.74108 0.13303 0.46385 0.0
C590 C 0.74129 0.1141 0.48603 0.0
H591 H 0.71909 0.15296 0.46116 0.0
H592 H 0.76497 0.96791 0.58845 0.0
H593 H 0.78037 0.00588 0.54975 0.0
H594 H 0.72184 0.1075 0.57145 0.0
H595 H 0.70582 0.06885 0.61008 0.0
H596 H 0.75423 0.11832 0.53261 0.0
H597 H 0.77464 0.03209 0.51469 0.0
H598 H 0.81788 0.0604 0.47528 0.0
H599 H 0.8172 0.09344 0.43622 0.0
C600 C 0.64442 0.81137 0.7917 0.0
C601 C 0.60104 0.76941 0.78098 0.0
C602 C 0.65771 0.8061 0.81443 0.0
C603 C 0.62745 0.75878 0.82704 0.0
C604 C 0.58366 0.71734 0.81635 0.0
C605 C 0.57059 0.7225 0.79367 0.0
C606 C 0.64122 0.74946 0.85076 0.0
C607 C 0.67582 0.78756 0.86477 0.0
C608 C 0.69037 0.77671 0.88804 0.0
C609 C 0.71279 0.81769 0.90417 0.0
C610 C 0.72874 0.80972 0.92586 0.0
C611 C 0.72289 0.76051 0.93193 0.0
H612 H 0.66942 0.69524 0.88201 0.0
C613 C 0.70048 0.71946 0.91581 0.0
C614 C 0.68465 0.72745 0.89411 0.0
H615 H 0.69653 0.68143 0.91969 0.0
H616 H 0.6689 0.84791 0.78236 0.0
H617 H 0.69243 0.83876 0.82166 0.0
H618 H 0.5596 0.68038 0.8255 0.0
H619 H 0.53676 0.68933 0.78605 0.0
H620 H 0.6207 0.70898 0.85704 0.0
H621 H 0.69338 0.82858 0.85949 0.0
H622 H 0.71806 0.85614 0.89997 0.0
H623 H 0.74556 0.84211 0.9379 0.0
C624 C 0.95316 0.73201 0.25051 0.0
C625 C -0.00587 0.72595 0.25924 0.0
C626 C 0.93546 0.71703 0.22791 0.0
C627 C 0.95857 0.69581 0.21347 0.0
C628 C -0.00102 0.68909 0.22233 0.0
C629 C 0.01674 0.70418 0.24489 0.0
C630 C 0.9402 0.67813 0.18952 0.0
C631 C 0.9151 0.69688 0.17661 0.0
C632 C 0.89533 0.67813 0.1529 0.0
C633 C 0.88469 0.71005 0.13831 0.0
C634 C 0.86371 0.69287 0.11632 0.0
C635 C 0.85253 0.64308 0.10846 0.0
H636 H 0.89039 0.60173 0.15581 0.0
C637 C 0.86349 0.61123 0.12297 0.0
C638 C 0.88441 0.62837 0.14496 0.0
H639 H 0.85493 0.5724 0.11759 0.0
H640 H 0.935 0.74877 0.2611 0.0
H641 H 0.90314 0.72136 0.22205 0.0
H642 H 0.01703 0.67221 0.21174 0.0
H643 H 0.04776 0.69812 0.2512 0.0
H644 H 0.94971 0.65012 0.18206 0.0
H645 H 0.91001 0.7285 0.1833 0.0
H646 H 0.89231 0.74837 0.14401 0.0
H647 H 0.85557 0.71836 0.10565 0.0
C648 C 0.18397 0.96119 0.5823 0.0
C649 C 0.22958 0.98824 0.59558 0.0
C650 C 0.18578 0.94304 0.56017 0.0
C651 C 0.23343 0.95172 0.5507 0.0
C652 C 0.2787 0.97763 0.56418 0.0
C653 C 0.27691 -0.0041 0.58625 0.0
C654 C 0.23737 0.93323 0.5272 0.0
C655 C 0.20364 0.92549 0.50996 0.0
C656 C 0.20652 0.90674 0.48634 0.0
C657 C 0.16231 0.8875 0.47216 0.0
C658 C 0.16253 0.86913 0.44994 0.0
C659 C 0.20724 0.86982 0.44118 0.0
H660 H 0.28722 0.92403 0.48735 0.0
C661 C 0.25193 0.88991 0.45514 0.0
C662 C 0.25169 0.90827 0.47743 0.0
H663 H 0.28716 0.89126 0.44893 0.0
H664 H 0.14662 0.95352 0.5891 0.0
H665 H 0.14958 0.92151 0.55079 0.0
H666 H 0.31588 0.98456 0.55746 0.0
H667 H 0.31294 0.01702 0.5958 0.0
H668 H 0.26995 0.92689 0.52415 0.0
H669 H 0.17164 0.93271 0.51319 0.0
H670 H 0.12707 0.88614 0.47838 0.0
H671 H 0.12742 0.85411 0.43969 0.0
loop_
_geom_bond_atom_site_label_1
_geom_bond_atom_site_label_2
_geom_bond_distance
_geom_bond_site_symmetry_2
_ccdc_geom_bond_type
C0 Eu1 2.835 1_556 S
C0 C2 1.500 . S
C0 O20 1.257 . S
C0 O21 1.260 . S
Eu1 C0 2.835 1_554 S
Eu1 O20 2.473 1_554 S
Eu1 O21 2.480 1_554 S
Eu1 O22 2.430 . S
Eu1 O23 2.670 . S
Eu1 O24 2.394 1_554 S
Eu1 O29 2.355 . S
Eu1 O31 2.374 . S
C2 C0 1.500 . S
C2 C3 1.377 . S
C2 C7 1.377 . S
C3 C2 1.377 . S
C3 C4 1.395 . S
C3 H32 0.931 . S
C4 C3 1.395 . S
C4 C5 1.383 . S
C4 H33 0.931 . S
C5 C4 1.383 . S
C5 C6 1.394 . S
C6 C5 1.394 . S
C6 C7 1.378 . S
C6 H34 0.931 . S
C7 C2 1.377 . S
C7 C6 1.378 . S
C7 H35 0.931 . S
C8 O22 1.259 . S
C8 O23 1.270 . S
C9 O24 1.251 . S
C9 O25 1.251 1_556 S
C10 Eu11 2.835 . S
C10 C12 1.500 . S
C10 O26 1.257 . S
C10 O27 1.260 . S
Eu11 C10 2.835 . S
Eu11 O23 2.355 . S
Eu11 O25 2.374 . S
Eu11 O26 2.473 . S
Eu11 O27 2.480 . S
Eu11 O28 2.430 . S
Eu11 O29 2.670 . S
Eu11 O30 2.394 . S
C12 C10 1.500 . S
C12 C13 1.377 . S
C12 C17 1.377 . S
C13 C12 1.377 . S
C13 C14 1.395 . S
C13 H36 0.931 . S
C14 C13 1.395 . S
C14 C15 1.383 . S
C14 H37 0.931 . S
C15 C14 1.383 . S
C15 C16 1.394 . S
C16 C15 1.394 . S
C16 C17 1.378 . S
C16 H38 0.931 . S
C17 C12 1.377 . S
C17 C16 1.378 . S
C17 H39 0.931 . S
C18 O28 1.259 . S
C18 O29 1.270 . S
C19 O30 1.251 . S
C19 O31 1.251 . S
O20 C0 1.257 . S
O20 Eu1 2.473 1_556 S
O21 C0 1.260 . S
O21 Eu1 2.480 1_556 S
O22 Eu1 2.430 . S
O22 C8 1.259 . S
O23 Eu1 2.670 . S
O23 C8 1.270 . S
O23 Eu11 2.355 . S
O24 Eu1 2.394 1_556 S
O24 C9 1.251 . S
O25 C9 1.251 1_554 S
O25 Eu11 2.374 . S
O26 C10 1.257 . S
O26 Eu11 2.473 . S
O27 C10 1.260 . S
O27 Eu11 2.480 . S
O28 Eu11 2.430 . S
O28 C18 1.259 . S
O29 Eu1 2.355 . S
O29 Eu11 2.670 . S
O29 C18 1.270 . S
O30 Eu11 2.394 . S
O30 C19 1.251 . S
O31 Eu1 2.374 . S
O31 C19 1.251 . S
H32 C3 0.931 . S
H33 C4 0.931 . S
H34 C6 0.931 . S
H35 C7 0.931 . S
H36 C13 0.931 . S
H37 C14 0.931 . S
H38 C16 0.931 . S
H39 C17 0.931 . S
C40 Eu41 2.835 . S
C40 C42 1.500 . S
C40 O60 1.257 . S
C40 O61 1.260 . S
Eu41 C40 2.835 . S
Eu41 O60 2.473 . S
Eu41 O61 2.480 . S
Eu41 O62 2.430 . S
Eu41 O63 2.670 . S
Eu41 O64 2.394 . S
Eu41 O69 2.355 . S
Eu41 O71 2.374 . S
C42 C40 1.500 . S
C42 C43 1.377 . S
C42 C47 1.377 . S
C43 C42 1.377 . S
C43 C44 1.395 . S
C43 H72 0.931 . S
C44 C43 1.395 . S
C44 C45 1.383 . S
C44 H73 0.931 . S
C45 C44 1.383 . S
C45 C46 1.394 . S
C46 C45 1.394 . S
C46 C47 1.378 . S
C46 H74 0.931 1_655 S
C47 C42 1.377 . S
C47 C46 1.378 . S
C47 H75 0.931 . S
C48 O62 1.259 . S
C48 O63 1.270 . S
C49 O64 1.251 . S
C49 O65 1.251 . S
C50 Eu51 2.835 . S
C50 C52 1.500 . S
C50 O66 1.257 . S
C50 O67 1.260 . S
Eu51 C50 2.835 . S
Eu51 O63 2.355 . S
Eu51 O65 2.374 . S
Eu51 O66 2.473 . S
Eu51 O67 2.480 . S
Eu51 O68 2.430 . S
Eu51 O69 2.670 . S
Eu51 O70 2.394 . S
C52 C50 1.500 . S
C52 C53 1.377 . S
C52 C57 1.377 . S
C53 C52 1.377 . S
C53 C54 1.395 . S
C53 H76 0.931 . S
C54 C53 1.395 . S
C54 C55 1.383 . S
C54 H77 0.931 . S
C55 C54 1.383 . S
C55 C56 1.394 . S
C56 C55 1.394 . S
C56 C57 1.378 . S
C56 H78 0.931 . S
C57 C52 1.377 . S
C57 C56 1.378 . S
C57 H79 0.931 . S
C58 O68 1.259 . S
C58 O69 1.270 . S
C59 O70 1.251 . S
C59 O71 1.251 . S
O60 C40 1.257 . S
O60 Eu41 2.473 . S
O61 C40 1.260 . S
O61 Eu41 2.480 . S
O62 Eu41 2.430 . S
O62 C48 1.259 . S
O63 Eu41 2.670 . S
O63 C48 1.270 . S
O63 Eu51 2.355 . S
O64 Eu41 2.394 . S
O64 C49 1.251 . S
O65 C49 1.251 . S
O65 Eu51 2.374 . S
O66 C50 1.257 . S
O66 Eu51 2.473 . S
O67 C50 1.260 . S
O67 Eu51 2.480 . S
O68 Eu51 2.430 . S
O68 C58 1.259 . S
O69 Eu41 2.355 . S
O69 Eu51 2.670 . S
O69 C58 1.270 . S
O70 Eu51 2.394 . S
O70 C59 1.251 . S
O71 Eu41 2.374 . S
O71 C59 1.251 . S
H72 C43 0.931 . S
H73 C44 0.931 . S
H74 C46 0.931 1_455 S
H75 C47 0.931 . S
H76 C53 0.931 . S
H77 C54 0.931 . S
H78 C56 0.931 . S
H79 C57 0.931 . S
C80 Eu81 2.835 . S
C80 C82 1.500 . S
C80 O100 1.257 . S
C80 O101 1.260 . S
Eu81 C80 2.835 . S
Eu81 O100 2.473 . S
Eu81 O101 2.480 . S
Eu81 O102 2.430 . S
Eu81 O103 2.670 . S
Eu81 O104 2.394 . S
Eu81 O109 2.355 . S
Eu81 O111 2.374 . S
C82 C80 1.500 . S
C82 C83 1.377 . S
C82 C87 1.377 . S
C83 C82 1.377 . S
C83 C84 1.395 . S
C83 H112 0.931 . S
C84 C83 1.395 . S
C84 C85 1.383 . S
C84 H113 0.931 . S
C85 C84 1.383 . S
C85 C86 1.394 . S
C86 C85 1.394 . S
C86 C87 1.378 . S
C86 H114 0.931 1_565 S
C87 C82 1.377 . S
C87 C86 1.378 . S
C87 H115 0.931 . S
C88 O102 1.259 . S
C88 O103 1.270 . S
C89 O104 1.251 . S
C89 O105 1.251 . S
C90 Eu91 2.835 . S
C90 C92 1.500 . S
C90 O106 1.257 . S
C90 O107 1.260 . S
Eu91 C90 2.835 . S
Eu91 O103 2.355 . S
Eu91 O105 2.374 . S
Eu91 O106 2.473 . S
Eu91 O107 2.480 . S
Eu91 O108 2.430 . S
Eu91 O109 2.670 . S
Eu91 O110 2.394 . S
C92 C90 1.500 . S
C92 C93 1.377 . S
C92 C97 1.377 . S
C93 C92 1.377 . S
C93 C94 1.395 . S
C93 H116 0.931 . S
C94 C93 1.395 . S
C94 C95 1.383 . S
C94 H117 0.931 . S
C95 C94 1.383 . S
C95 C96 1.394 . S
C96 C95 1.394 . S
C96 C97 1.378 . S
C96 H118 0.931 . S
C97 C92 1.377 . S
C97 C96 1.378 . S
C97 H119 0.931 . S
C98 O108 1.259 . S
C98 O109 1.270 . S
C99 O110 1.251 . S
C99 O111 1.251 . S
O100 C80 1.257 . S
O100 Eu81 2.473 . S
O101 C80 1.260 . S
O101 Eu81 2.480 . S
O102 Eu81 2.430 . S
O102 C88 1.259 . S
O103 Eu81 2.670 . S
O103 C88 1.270 . S
O103 Eu91 2.355 . S
O104 Eu81 2.394 . S
O104 C89 1.251 . S
O105 C89 1.251 . S
O105 Eu91 2.374 . S
O106 C90 1.257 . S
O106 Eu91 2.473 . S
O107 C90 1.260 . S
O107 Eu91 2.480 . S
O108 Eu91 2.430 . S
O108 C98 1.259 . S
O109 Eu81 2.355 . S
O109 Eu91 2.670 . S
O109 C98 1.270 . S
O110 Eu91 2.394 . S
O110 C99 1.251 . S
O111 Eu81 2.374 . S
O111 C99 1.251 . S
H112 C83 0.931 . S
H113 C84 0.931 . S
H114 C86 0.931 1_545 S
H115 C87 0.931 . S
H116 C93 0.931 . S
H117 C94 0.931 . S
H118 C96 0.931 . S
H119 C97 0.931 . S
C120 Eu121 2.835 1_556 S
C120 C122 1.500 . S
C120 O140 1.257 . S
C120 O141 1.260 . S
Eu121 C120 2.835 1_554 S
Eu121 O140 2.473 1_554 S
Eu121 O141 2.480 1_554 S
Eu121 O142 2.430 . S
Eu121 O143 2.670 . S
Eu121 O144 2.394 1_554 S
Eu121 O149 2.355 . S
Eu121 O151 2.374 . S
C122 C120 1.500 . S
C122 C123 1.377 . S
C122 C127 1.377 . S
C123 C122 1.377 . S
C123 C124 1.395 . S
C123 H152 0.931 . S
C124 C123 1.395 . S
C124 C125 1.383 . S
C124 H153 0.931 . S
C125 C124 1.383 . S
C125 C126 1.394 . S
C126 C125 1.394 . S
C126 C127 1.378 . S
C126 H154 0.931 . S
C127 C122 1.377 . S
C127 C126 1.378 . S
C127 H155 0.931 . S
C128 O142 1.259 . S
C128 O143 1.270 . S
C129 O144 1.251 . S
C129 O145 1.251 1_556 S
C130 Eu131 2.835 . S
C130 C132 1.500 . S
C130 O146 1.257 . S
C130 O147 1.260 . S
Eu131 C130 2.835 . S
Eu131 O143 2.355 . S
Eu131 O145 2.374 . S
Eu131 O146 2.473 . S
Eu131 O147 2.480 . S
Eu131 O148 2.430 . S
Eu131 O149 2.670 . S
Eu131 O150 2.394 . S
C132 C130 1.500 . S
C132 C133 1.377 . S
C132 C137 1.377 . S
C133 C132 1.377 . S
C133 C134 1.395 . S
C133 H156 0.931 . S
C134 C133 1.395 . S
C134 C135 1.383 . S
C134 H157 0.931 . S
C135 C134 1.383 . S
C135 C136 1.394 . S
C136 C135 1.394 . S
C136 C137 1.378 . S
C136 H158 0.931 . S
C137 C132 1.377 . S
C137 C136 1.378 . S
C137 H159 0.931 . S
C138 O148 1.259 . S
C138 O149 1.270 . S
C139 O150 1.251 . S
C139 O151 1.251 . S
O140 C120 1.257 . S
O140 Eu121 2.473 1_556 S
O141 C120 1.260 . S
O141 Eu121 2.480 1_556 S
O142 Eu121 2.430 . S
O142 C128 1.259 . S
O143 Eu121 2.670 . S
O143 C128 1.270 . S
O143 Eu131 2.355 . S
O144 Eu121 2.394 1_556 S
O144 C129 1.251 . S
O145 C129 1.251 1_554 S
O145 Eu131 2.374 . S
O146 C130 1.257 . S
O146 Eu131 2.473 . S
O147 C130 1.260 . S
O147 Eu131 2.480 . S
O148 Eu131 2.430 . S
O148 C138 1.259 . S
O149 Eu121 2.355 . S
O149 Eu131 2.670 . S
O149 C138 1.270 . S
O150 Eu131 2.394 . S
O150 C139 1.251 . S
O151 Eu121 2.374 . S
O151 C139 1.251 . S
H152 C123 0.931 . S
H153 C124 0.931 . S
H154 C126 0.931 . S
H155 C127 0.931 . S
H156 C133 0.931 . S
H157 C134 0.931 . S
H158 C136 0.931 . S
H159 C137 0.931 . S
C160 Eu161 2.835 . S
C160 C162 1.500 . S
C160 O180 1.257 . S
C160 O181 1.260 . S
Eu161 C160 2.835 . S
Eu161 O180 2.473 . S
Eu161 O181 2.480 . S
Eu161 O182 2.430 . S
Eu161 O183 2.670 . S
Eu161 O184 2.394 . S
Eu161 O189 2.355 . S
Eu161 O191 2.374 . S
C162 C160 1.500 . S
C162 C163 1.377 . S
C162 C167 1.377 . S
C163 C162 1.377 . S
C163 C164 1.395 . S
C163 H192 0.931 . S
C164 C163 1.395 . S
C164 C165 1.383 . S
C164 H193 0.931 . S
C165 C164 1.383 . S
C165 C166 1.394 . S
C166 C165 1.394 . S
C166 C167 1.378 . S
C166 H194 0.931 1_455 S
C167 C162 1.377 . S
C167 C166 1.378 . S
C167 H195 0.931 . S
C168 O182 1.259 . S
C168 O183 1.270 . S
C169 O184 1.251 . S
C169 O185 1.251 . S
C170 Eu171 2.835 . S
C170 C172 1.500 . S
C170 O186 1.257 . S
C170 O187 1.260 . S
Eu171 C170 2.835 . S
Eu171 O183 2.355 . S
Eu171 O185 2.374 . S
Eu171 O186 2.473 . S
Eu171 O187 2.480 . S
Eu171 O188 2.430 . S
Eu171 O189 2.670 . S
Eu171 O190 2.394 . S
C172 C170 1.500 . S
C172 C173 1.377 . S
C172 C177 1.377 . S
C173 C172 1.377 . S
C173 C174 1.395 . S
C173 H196 0.931 . S
C174 C173 1.395 . S
C174 C175 1.383 . S
C174 H197 0.931 . S
C175 C174 1.383 . S
C175 C176 1.394 . S
C176 C175 1.394 . S
C176 C177 1.378 . S
C176 H198 0.931 . S
C177 C172 1.377 . S
C177 C176 1.378 . S
C177 H199 0.931 . S
C178 O188 1.259 . S
C178 O189 1.270 . S
C179 O190 1.251 . S
C179 O191 1.251 . S
O180 C160 1.257 . S
O180 Eu161 2.473 . S
O181 C160 1.260 . S
O181 Eu161 2.480 . S
O182 Eu161 2.430 . S
O182 C168 1.259 . S
O183 Eu161 2.670 . S
O183 C168 1.270 . S
O183 Eu171 2.355 . S
O184 Eu161 2.394 . S
O184 C169 1.251 . S
O185 C169 1.251 . S
O185 Eu171 2.374 . S
O186 C170 1.257 . S
O186 Eu171 2.473 . S
O187 C170 1.260 . S
O187 Eu171 2.480 . S
O188 Eu171 2.430 . S
O188 C178 1.259 . S
O189 Eu161 2.355 . S
O189 Eu171 2.670 . S
O189 C178 1.270 . S
O190 Eu171 2.394 . S
O190 C179 1.251 . S
O191 Eu161 2.374 . S
O191 C179 1.251 . S
H192 C163 0.931 . S
H193 C164 0.931 . S
H194 C166 0.931 1_655 S
H195 C167 0.931 . S
H196 C173 0.931 . S
H197 C174 0.931 . S
H198 C176 0.931 . S
H199 C177 0.931 . S
C200 Eu201 2.835 . S
C200 C202 1.500 . S
C200 O220 1.257 . S
C200 O221 1.260 . S
Eu201 C200 2.835 . S
Eu201 O220 2.473 . S
Eu201 O221 2.480 . S
Eu201 O222 2.430 . S
Eu201 O223 2.670 . S
Eu201 O224 2.394 . S
Eu201 O229 2.355 . S
Eu201 O231 2.374 . S
C202 C200 1.500 . S
C202 C203 1.377 . S
C202 C207 1.377 . S
C203 C202 1.377 . S
C203 C204 1.395 . S
C203 H232 0.931 . S
C204 C203 1.395 . S
C204 C205 1.383 . S
C204 H233 0.931 . S
C205 C204 1.383 . S
C205 C206 1.394 . S
C206 C205 1.394 . S
C206 C207 1.378 . S
C206 H234 0.931 1_545 S
C207 C202 1.377 . S
C207 C206 1.378 . S
C207 H235 0.931 . S
C208 O222 1.259 . S
C208 O223 1.270 . S
C209 O224 1.251 . S
C209 O225 1.251 . S
C210 Eu211 2.835 . S
C210 C212 1.500 . S
C210 O226 1.257 . S
C210 O227 1.260 . S
Eu211 C210 2.835 . S
Eu211 O223 2.355 . S
Eu211 O225 2.374 . S
Eu211 O226 2.473 . S
Eu211 O227 2.480 . S
Eu211 O228 2.430 . S
Eu211 O229 2.670 . S
Eu211 O230 2.394 . S
C212 C210 1.500 . S
C212 C213 1.377 . S
C212 C217 1.377 . S
C213 C212 1.377 . S
C213 C214 1.395 . S
C213 H236 0.931 . S
C214 C213 1.395 . S
C214 C215 1.383 . S
C214 H237 0.931 . S
C215 C214 1.383 . S
C215 C216 1.394 . S
C216 C215 1.394 . S
C216 C217 1.378 . S
C216 H238 0.931 . S
C217 C212 1.377 . S
C217 C216 1.378 . S
C217 H239 0.931 . S
C218 O228 1.259 . S
C218 O229 1.270 . S
C219 O230 1.251 . S
C219 O231 1.251 . S
O220 C200 1.257 . S
O220 Eu201 2.473 . S
O221 C200 1.260 . S
O221 Eu201 2.480 . S
O222 Eu201 2.430 . S
O222 C208 1.259 . S
O223 Eu201 2.670 . S
O223 C208 1.270 . S
O223 Eu211 2.355 . S
O224 Eu201 2.394 . S
O224 C209 1.251 . S
O225 C209 1.251 . S
O225 Eu211 2.374 . S
O226 C210 1.257 . S
O226 Eu211 2.473 . S
O227 C210 1.260 . S
O227 Eu211 2.480 . S
O228 Eu211 2.430 . S
O228 C218 1.259 . S
O229 Eu201 2.355 . S
O229 Eu211 2.670 . S
O229 C218 1.270 . S
O230 Eu211 2.394 . S
O230 C219 1.251 . S
O231 Eu201 2.374 . S
O231 C219 1.251 . S
H232 C203 0.931 . S
H233 C204 0.931 . S
H234 C206 0.931 1_565 S
H235 C207 0.931 . S
H236 C213 0.931 . S
H237 C214 0.931 . S
H238 C216 0.931 . S
H239 C217 0.931 . S
C240 C241 1.386 . S
C240 C242 1.383 . S
C240 H256 0.951 . S
C241 C240 1.386 . S
C241 C245 1.383 . S
C242 C240 1.383 . S
C242 C243 1.402 . S
C242 H257 0.951 . S
C243 C242 1.402 . S
C243 C244 1.375 . S
C243 C246 1.481 . S
C244 C243 1.375 . S
C244 C245 1.367 . S
C244 H258 0.951 . S
C245 C241 1.383 . S
C245 C244 1.367 . S
C245 H259 0.950 . S
C246 C243 1.481 . S
C246 C247 1.297 . S
C246 H260 0.950 . S
C247 C246 1.297 . S
C247 C248 1.479 . S
C247 H261 0.950 . S
C248 C247 1.479 . S
C248 C249 1.375 . S
C248 C254 1.404 . S
C249 C248 1.375 . S
C249 C250 1.369 . S
C249 H262 0.950 . S
C250 C249 1.369 . S
C250 C251 1.392 . S
C250 H263 0.951 . S
C251 C250 1.392 . S
C251 C253 1.384 . S
H252 C254 0.949 . S
C253 C251 1.384 . S
C253 C254 1.385 . S
C253 H255 0.950 . S
C254 C248 1.404 . S
C254 H252 0.949 . S
C254 C253 1.385 . S
H255 C253 0.950 . S
H256 C240 0.951 . S
H257 C242 0.951 . S
H258 C244 0.951 . S
H259 C245 0.950 . S
H260 C246 0.950 . S
H261 C247 0.950 . S
H262 C249 0.950 . S
H263 C250 0.951 . S
C264 C265 1.386 . S
C264 C266 1.383 . S
C264 H280 0.951 . S
C265 C264 1.386 . S
C265 C269 1.383 . S
C266 C264 1.383 . S
C266 C267 1.402 . S
C266 H281 0.951 . S
C267 C266 1.402 . S
C267 C268 1.375 . S
C267 C270 1.481 . S
C268 C267 1.375 . S
C268 C269 1.367 . S
C268 H282 0.951 . S
C269 C265 1.383 . S
C269 C268 1.367 . S
C269 H283 0.950 . S
C270 C267 1.481 . S
C270 C271 1.297 . S
C270 H284 0.950 . S
C271 C270 1.297 . S
C271 C272 1.479 . S
C271 H285 0.950 . S
C272 C271 1.479 . S
C272 C273 1.375 . S
C272 C278 1.404 . S
C273 C272 1.375 . S
C273 C274 1.369 . S
C273 H286 0.950 . S
C274 C273 1.369 . S
C274 C275 1.392 . S
C274 H287 0.951 . S
C275 C274 1.392 . S
C275 C277 1.384 . S
H276 C278 0.949 . S
C277 C275 1.384 . S
C277 C278 1.385 . S
C277 H279 0.950 . S
C278 C272 1.404 . S
C278 H276 0.949 . S
C278 C277 1.385 . S
H279 C277 0.950 . S
H280 C264 0.951 . S
H281 C266 0.951 . S
H282 C268 0.951 . S
H283 C269 0.950 . S
H284 C270 0.950 . S
H285 C271 0.950 . S
H286 C273 0.950 . S
H287 C274 0.951 . S
C288 C289 1.386 . S
C288 C290 1.383 . S
C288 H304 0.951 . S
C289 C288 1.386 . S
C289 C293 1.383 . S
C290 C288 1.383 . S
C290 C291 1.402 . S
C290 H305 0.951 . S
C291 C290 1.402 . S
C291 C292 1.375 . S
C291 C294 1.481 . S
C292 C291 1.375 . S
C292 C293 1.367 . S
C292 H306 0.951 . S
C293 C289 1.383 . S
C293 C292 1.367 . S
C293 H307 0.950 . S
C294 C291 1.481 . S
C294 C295 1.297 . S
C294 H308 0.950 . S
C295 C294 1.297 . S
C295 C296 1.479 . S
C295 H309 0.950 . S
C296 C295 1.479 . S
C296 C297 1.375 . S
C296 C302 1.404 . S
C297 C296 1.375 . S
C297 C298 1.369 . S
C297 H310 0.950 . S
C298 C297 1.369 . S
C298 C299 1.392 . S
C298 H311 0.951 . S
C299 C298 1.392 . S
C299 C301 1.384 . S
H300 C302 0.949 . S
C301 C299 1.384 . S
C301 C302 1.385 . S
C301 H303 0.950 . S
C302 C296 1.404 . S
C302 H300 0.949 . S
C302 C301 1.385 . S
H303 C301 0.950 . S
H304 C288 0.951 . S
H305 C290 0.951 . S
H306 C292 0.951 . S
H307 C293 0.950 . S
H308 C294 0.950 . S
H309 C295 0.950 . S
H310 C297 0.950 . S
H311 C298 0.951 . S
C312 C313 1.386 . S
C312 C314 1.383 . S
C312 H328 0.951 . S
C313 C312 1.386 . S
C313 C317 1.383 . S
C314 C312 1.383 . S
C314 C315 1.402 . S
C314 H329 0.951 . S
C315 C314 1.402 . S
C315 C316 1.375 . S
C315 C318 1.481 . S
C316 C315 1.375 . S
C316 C317 1.367 . S
C316 H330 0.951 . S
C317 C313 1.383 . S
C317 C316 1.367 . S
C317 H331 0.950 . S
C318 C315 1.481 . S
C318 C319 1.297 . S
C318 H332 0.950 . S
C319 C318 1.297 . S
C319 C320 1.479 . S
C319 H333 0.950 . S
C320 C319 1.479 . S
C320 C321 1.375 . S
C320 C326 1.404 . S
C321 C320 1.375 . S
C321 C322 1.369 . S
C321 H334 0.950 . S
C322 C321 1.369 . S
C322 C323 1.392 . S
C322 H335 0.951 . S
C323 C322 1.392 . S
C323 C325 1.384 . S
H324 C326 0.949 . S
C325 C323 1.384 . S
C325 C326 1.385 . S
C325 H327 0.950 . S
C326 C320 1.404 . S
C326 H324 0.949 . S
C326 C325 1.385 . S
H327 C325 0.950 . S
H328 C312 0.951 . S
H329 C314 0.951 . S
H330 C316 0.951 . S
H331 C317 0.950 . S
H332 C318 0.950 . S
H333 C319 0.950 . S
H334 C321 0.950 . S
H335 C322 0.951 . S
C336 C337 1.386 . S
C336 C338 1.383 . S
C336 H352 0.951 . S
C337 C336 1.386 . S
C337 C341 1.383 . S
C338 C336 1.383 . S
C338 C339 1.402 . S
C338 H353 0.951 . S
C339 C338 1.402 . S
C339 C340 1.375 . S
C339 C342 1.481 . S
C340 C339 1.375 . S
C340 C341 1.367 . S
C340 H354 0.951 . S
C341 C337 1.383 . S
C341 C340 1.367 . S
C341 H355 0.950 . S
C342 C339 1.481 . S
C342 C343 1.297 . S
C342 H356 0.950 . S
C343 C342 1.297 . S
C343 C344 1.479 . S
C343 H357 0.950 . S
C344 C343 1.479 . S
C344 C345 1.375 . S
C344 C350 1.404 . S
C345 C344 1.375 . S
C345 C346 1.369 . S
C345 H358 0.950 . S
C346 C345 1.369 . S
C346 C347 1.392 . S
C346 H359 0.951 . S
C347 C346 1.392 . S
C347 C349 1.384 . S
H348 C350 0.949 . S
C349 C347 1.384 . S
C349 C350 1.385 . S
C349 H351 0.950 . S
C350 C344 1.404 . S
C350 H348 0.949 . S
C350 C349 1.385 . S
H351 C349 0.950 . S
H352 C336 0.951 . S
H353 C338 0.951 . S
H354 C340 0.951 . S
H355 C341 0.950 . S
H356 C342 0.950 . S
H357 C343 0.950 . S
H358 C345 0.950 . S
H359 C346 0.951 . S
C360 C361 1.386 . S
C360 C362 1.383 . S
C360 H376 0.951 . S
C361 C360 1.386 . S
C361 C365 1.383 . S
C362 C360 1.383 . S
C362 C363 1.402 . S
C362 H377 0.951 . S
C363 C362 1.402 . S
C363 C364 1.375 . S
C363 C366 1.481 . S
C364 C363 1.375 . S
C364 C365 1.367 . S
C364 H378 0.951 . S
C365 C361 1.383 . S
C365 C364 1.367 . S
C365 H379 0.950 . S
C366 C363 1.481 . S
C366 C367 1.297 . S
C366 H380 0.950 . S
C367 C366 1.297 . S
C367 C368 1.479 . S
C367 H381 0.950 . S
C368 C367 1.479 . S
C368 C369 1.375 . S
C368 C374 1.404 . S
C369 C368 1.375 . S
C369 C370 1.369 . S
C369 H382 0.950 . S
C370 C369 1.369 . S
C370 C371 1.392 . S
C370 H383 0.951 . S
C371 C370 1.392 . S
C371 C373 1.384 . S
H372 C374 0.949 . S
C373 C371 1.384 . S
C373 C374 1.385 . S
C373 H375 0.950 . S
C374 C368 1.404 . S
C374 H372 0.949 . S
C374 C373 1.385 . S
H375 C373 0.950 . S
H376 C360 0.951 . S
H377 C362 0.951 . S
H378 C364 0.951 . S
H379 C365 0.950 . S
H380 C366 0.950 . S
H381 C367 0.950 . S
H382 C369 0.950 . S
H383 C370 0.951 . S
C384 C385 1.386 . S
C384 C386 1.383 . S
C384 H400 0.951 . S
C385 C384 1.386 . S
C385 C389 1.383 . S
C386 C384 1.383 . S
C386 C387 1.402 . S
C386 H401 0.951 . S
C387 C386 1.402 . S
C387 C388 1.375 . S
C387 C390 1.481 . S
C388 C387 1.375 . S
C388 C389 1.367 . S
C388 H402 0.951 . S
C389 C385 1.383 . S
C389 C388 1.367 . S
C389 H403 0.950 . S
C390 C387 1.481 . S
C390 C391 1.297 . S
C390 H404 0.950 . S
C391 C390 1.297 . S
C391 C392 1.479 . S
C391 H405 0.950 . S
C392 C391 1.479 . S
C392 C393 1.375 . S
C392 C398 1.404 . S
C393 C392 1.375 . S
C393 C394 1.369 . S
C393 H406 0.950 . S
C394 C393 1.369 . S
C394 C395 1.392 . S
C394 H407 0.951 . S
C395 C394 1.392 . S
C395 C397 1.384 . S
H396 C398 0.949 . S
C397 C395 1.384 . S
C397 C398 1.385 . S
C397 H399 0.950 . S
C398 C392 1.404 . S
C398 H396 0.949 . S
C398 C397 1.385 . S
H399 C397 0.950 . S
H400 C384 0.951 . S
H401 C386 0.951 . S
H402 C388 0.951 . S
H403 C389 0.950 . S
H404 C390 0.950 . S
H405 C391 0.950 . S
H406 C393 0.950 . S
H407 C394 0.951 . S
C408 C409 1.386 . S
C408 C410 1.383 . S
C408 H424 0.951 . S
C409 C408 1.386 . S
C409 C413 1.383 . S
C410 C408 1.383 . S
C410 C411 1.402 . S
C410 H425 0.951 1_455 S
C411 C410 1.402 . S
C411 C412 1.375 . S
C411 C414 1.481 . S
C412 C411 1.375 . S
C412 C413 1.367 . S
C412 H426 0.951 . S
C413 C409 1.383 . S
C413 C412 1.367 . S
C413 H427 0.950 . S
C414 C411 1.481 . S
C414 C415 1.297 1_455 S
C414 H428 0.950 . S
C415 C414 1.297 1_655 S
C415 C416 1.479 . S
C415 H429 0.950 . S
C416 C415 1.479 . S
C416 C417 1.375 . S
C416 C422 1.404 . S
C417 C416 1.375 . S
C417 C418 1.369 . S
C417 H430 0.950 . S
C418 C417 1.369 . S
C418 C419 1.392 . S
C418 H431 0.951 . S
C419 C418 1.392 . S
C419 C421 1.384 . S
H420 C422 0.949 1_455 S
C421 C419 1.384 . S
C421 C422 1.385 . S
C421 H423 0.950 . S
C422 C416 1.404 . S
C422 H420 0.949 1_655 S
C422 C421 1.385 . S
H423 C421 0.950 . S
H424 C408 0.951 . S
H425 C410 0.951 1_655 S
H426 C412 0.951 . S
H427 C413 0.950 . S
H428 C414 0.950 . S
H429 C415 0.950 . S
H430 C417 0.950 . S
H431 C418 0.951 . S
C432 C433 1.386 . S
C432 C434 1.383 . S
C432 H448 0.951 . S
C433 C432 1.386 . S
C433 C437 1.383 . S
C434 C432 1.383 . S
C434 C435 1.402 . S
C434 H449 0.951 . S
C435 C434 1.402 . S
C435 C436 1.375 . S
C435 C438 1.481 1_545 S
C436 C435 1.375 . S
C436 C437 1.367 . S
C436 H450 0.951 1_545 S
C437 C433 1.383 . S
C437 C436 1.367 . S
C437 H451 0.950 . S
C438 C435 1.481 1_565 S
C438 C439 1.297 1_565 S
C438 H452 0.950 . S
C439 C438 1.297 1_545 S
C439 C440 1.479 1_545 S
C439 H453 0.950 . S
C440 C439 1.479 1_565 S
C440 C441 1.375 . S
C440 C446 1.404 . S
C441 C440 1.375 . S
C441 C442 1.369 . S
C441 H454 0.950 1_565 S
C442 C441 1.369 . S
C442 C443 1.392 . S
C442 H455 0.951 . S
C443 C442 1.392 . S
C443 C445 1.384 . S
H444 C446 0.949 . S
C445 C443 1.384 . S
C445 C446 1.385 . S
C445 H447 0.950 . S
C446 C440 1.404 . S
C446 H444 0.949 . S
C446 C445 1.385 . S
H447 C445 0.950 . S
H448 C432 0.951 . S
H449 C434 0.951 . S
H450 C436 0.951 1_565 S
H451 C437 0.950 . S
H452 C438 0.950 . S
H453 C439 0.950 . S
H454 C441 0.950 1_545 S
H455 C442 0.951 . S
C456 C457 1.386 . S
C456 C458 1.383 . S
C456 H472 0.951 . S
C457 C456 1.386 . S
C457 C461 1.383 . S
C458 C456 1.383 . S
C458 C459 1.402 . S
C458 H473 0.951 . S
C459 C458 1.402 . S
C459 C460 1.375 . S
C459 C462 1.481 . S
C460 C459 1.375 . S
C460 C461 1.367 . S
C460 H474 0.951 . S
C461 C457 1.383 . S
C461 C460 1.367 . S
C461 H475 0.950 . S
C462 C459 1.481 . S
C462 C463 1.297 . S
C462 H476 0.950 . S
C463 C462 1.297 . S
C463 C464 1.479 . S
C463 H477 0.950 . S
C464 C463 1.479 . S
C464 C465 1.375 . S
C464 C470 1.404 . S
C465 C464 1.375 . S
C465 C466 1.369 . S
C465 H478 0.950 . S
C466 C465 1.369 . S
C466 C467 1.392 . S
C466 H479 0.951 . S
C467 C466 1.392 . S
C467 C469 1.384 . S
H468 C470 0.949 . S
C469 C467 1.384 . S
C469 C470 1.385 . S
C469 H471 0.950 . S
C470 C464 1.404 . S
C470 H468 0.949 . S
C470 C469 1.385 . S
H471 C469 0.950 . S
H472 C456 0.951 . S
H473 C458 0.951 . S
H474 C460 0.951 . S
H475 C461 0.950 . S
H476 C462 0.950 . S
H477 C463 0.950 . S
H478 C465 0.950 . S
H479 C466 0.951 . S
C480 C481 1.386 . S
C480 C482 1.383 . S
C480 H496 0.951 1_554 S
C481 C480 1.386 . S
C481 C485 1.383 . S
C482 C480 1.383 . S
C482 C483 1.402 . S
C482 H497 0.951 1_554 S
C483 C482 1.402 . S
C483 C484 1.375 . S
C483 C486 1.481 1_455 S
C484 C483 1.375 . S
C484 C485 1.367 . S
C484 H498 0.951 1_455 S
C485 C481 1.383 . S
C485 C484 1.367 . S
C485 H499 0.950 . S
C486 C483 1.481 1_655 S
C486 C487 1.297 . S
C486 H500 0.950 . S
C487 C486 1.297 . S
C487 C488 1.479 . S
C487 H501 0.950 1_654 S
C488 C487 1.479 . S
C488 C489 1.374 . S
C488 C494 1.404 . S
C489 C488 1.374 . S
C489 C490 1.368 . S
C489 H502 0.952 1_554 S
C490 C489 1.368 . S
C490 C491 1.392 . S
C490 H503 0.951 1_554 S
C491 C490 1.392 . S
C491 C493 1.384 . S
H492 C494 0.949 . S
C493 C491 1.384 . S
C493 C494 1.385 . S
C493 H495 0.950 . S
C494 C488 1.404 . S
C494 H492 0.949 . S
C494 C493 1.385 . S
H495 C493 0.950 . S
H496 C480 0.951 1_556 S
H497 C482 0.951 1_556 S
H498 C484 0.951 1_655 S
H499 C485 0.950 . S
H500 C486 0.950 . S
H501 C487 0.950 1_456 S
H502 C489 0.952 1_556 S
H503 C490 0.951 1_556 S
C504 C505 1.386 . S
C504 C506 1.383 . S
C504 H520 0.951 . S
C505 C504 1.386 . S
C505 C509 1.383 . S
C506 C504 1.383 . S
C506 C507 1.402 . S
C506 H521 0.951 . S
C507 C506 1.402 . S
C507 C508 1.375 . S
C507 C510 1.481 1_565 S
C508 C507 1.375 . S
C508 C509 1.367 . S
C508 H522 0.951 1_565 S
C509 C505 1.383 . S
C509 C508 1.367 . S
C509 H523 0.950 . S
C510 C507 1.481 1_545 S
C510 C511 1.297 . S
C510 H524 0.950 . S
C511 C510 1.297 . S
C511 C512 1.479 . S
C511 H525 0.950 1_545 S
C512 C511 1.479 . S
C512 C513 1.375 . S
C512 C518 1.404 . S
C513 C512 1.375 . S
C513 C514 1.369 . S
C513 H526 0.950 . S
C514 C513 1.369 . S
C514 C515 1.392 . S
C514 H527 0.951 . S
C515 C514 1.392 . S
C515 C517 1.384 . S
H516 C518 0.949 . S
C517 C515 1.384 . S
C517 C518 1.385 . S
C517 H519 0.950 . S
C518 C512 1.404 . S
C518 H516 0.949 . S
C518 C517 1.385 . S
H519 C517 0.950 . S
H520 C504 0.951 . S
H521 C506 0.951 . S
H522 C508 0.951 1_545 S
H523 C509 0.950 . S
H524 C510 0.950 . S
H525 C511 0.950 1_565 S
H526 C513 0.950 . S
H527 C514 0.951 . S
C528 C529 1.386 . S
C528 C530 1.383 . S
C528 H544 0.951 . S
C529 C528 1.386 . S
C529 C533 1.383 . S
C530 C528 1.383 . S
C530 C531 1.402 . S
C530 H545 0.951 . S
C531 C530 1.402 . S
C531 C532 1.375 . S
C531 C534 1.481 . S
C532 C531 1.375 . S
C532 C533 1.367 . S
C532 H546 0.951 . S
C533 C529 1.383 . S
C533 C532 1.367 . S
C533 H547 0.950 . S
C534 C531 1.481 . S
C534 C535 1.297 . S
C534 H548 0.950 . S
C535 C534 1.297 . S
C535 C536 1.479 . S
C535 H549 0.950 . S
C536 C535 1.479 . S
C536 C537 1.375 . S
C536 C542 1.404 . S
C537 C536 1.375 . S
C537 C538 1.369 . S
C537 H550 0.950 . S
C538 C537 1.369 . S
C538 C539 1.392 . S
C538 H551 0.951 . S
C539 C538 1.392 . S
C539 C541 1.384 . S
H540 C542 0.949 . S
C541 C539 1.384 . S
C541 C542 1.385 . S
C541 H543 0.950 . S
C542 C536 1.404 . S
C542 H540 0.949 . S
C542 C541 1.385 . S
H543 C541 0.950 . S
H544 C528 0.951 . S
H545 C530 0.951 . S
H546 C532 0.951 . S
H547 C533 0.950 . S
H548 C534 0.950 . S
H549 C535 0.950 . S
H550 C537 0.950 . S
H551 C538 0.951 . S
C552 C553 1.386 1_455 S
C552 C554 1.383 . S
C552 H568 0.951 . S
C553 C552 1.386 1_655 S
C553 C557 1.383 . S
C554 C552 1.383 . S
C554 C555 1.402 . S
C554 H569 0.951 . S
C555 C554 1.402 . S
C555 C556 1.375 1_455 S
C555 C558 1.481 . S
C556 C555 1.375 1_655 S
C556 C557 1.367 . S
C556 H570 0.951 . S
C557 C553 1.383 . S
C557 C556 1.367 . S
C557 H571 0.950 . S
C558 C555 1.481 . S
C558 C559 1.297 . S
C558 H572 0.950 . S
C559 C558 1.297 . S
C559 C560 1.479 . S
C559 H573 0.950 . S
C560 C559 1.479 . S
C560 C561 1.375 . S
C560 C566 1.404 . S
C561 C560 1.375 . S
C561 C562 1.369 . S
C561 H574 0.950 . S
C562 C561 1.369 . S
C562 C563 1.392 . S
C562 H575 0.951 . S
C563 C562 1.392 . S
C563 C565 1.384 . S
H564 C566 0.949 . S
C565 C563 1.384 . S
C565 C566 1.385 . S
C565 H567 0.950 . S
C566 C560 1.404 . S
C566 H564 0.949 . S
C566 C565 1.385 . S
H567 C565 0.950 . S
H568 C552 0.951 . S
H569 C554 0.951 . S
H570 C556 0.951 . S
H571 C557 0.950 . S
H572 C558 0.950 . S
H573 C559 0.950 . S
H574 C561 0.950 . S
H575 C562 0.951 . S
C576 C577 1.386 . S
C576 C578 1.383 1_565 S
C576 H592 0.951 . S
C577 C576 1.386 . S
C577 C581 1.383 1_565 S
C578 C576 1.383 1_545 S
C578 C579 1.402 . S
C578 H593 0.951 . S
C579 C578 1.402 . S
C579 C580 1.375 . S
C579 C582 1.481 . S
C580 C579 1.375 . S
C580 C581 1.367 . S
C580 H594 0.951 . S
C581 C577 1.383 1_545 S
C581 C580 1.367 . S
C581 H595 0.950 . S
C582 C579 1.481 . S
C582 C583 1.297 . S
C582 H596 0.950 . S
C583 C582 1.297 . S
C583 C584 1.479 . S
C583 H597 0.950 . S
C584 C583 1.479 . S
C584 C585 1.375 . S
C584 C590 1.404 . S
C585 C584 1.375 . S
C585 C586 1.369 . S
C585 H598 0.950 . S
C586 C585 1.369 . S
C586 C587 1.392 . S
C586 H599 0.951 . S
C587 C586 1.392 . S
C587 C589 1.384 . S
H588 C590 0.949 . S
C589 C587 1.384 . S
C589 C590 1.385 . S
C589 H591 0.950 . S
C590 C584 1.404 . S
C590 H588 0.949 . S
C590 C589 1.385 . S
H591 C589 0.950 . S
H592 C576 0.951 . S
H593 C578 0.951 . S
H594 C580 0.951 . S
H595 C581 0.950 . S
H596 C582 0.950 . S
H597 C583 0.950 . S
H598 C585 0.950 . S
H599 C586 0.951 . S
C600 C601 1.386 . S
C600 C602 1.383 . S
C600 H616 0.951 . S
C601 C600 1.386 . S
C601 C605 1.383 . S
C602 C600 1.383 . S
C602 C603 1.402 . S
C602 H617 0.951 . S
C603 C602 1.402 . S
C603 C604 1.375 . S
C603 C606 1.481 . S
C604 C603 1.375 . S
C604 C605 1.367 . S
C604 H618 0.951 . S
C605 C601 1.383 . S
C605 C604 1.367 . S
C605 H619 0.950 . S
C606 C603 1.481 . S
C606 C607 1.297 . S
C606 H620 0.950 . S
C607 C606 1.297 . S
C607 C608 1.479 . S
C607 H621 0.950 . S
C608 C607 1.479 . S
C608 C609 1.375 . S
C608 C614 1.404 . S
C609 C608 1.375 . S
C609 C610 1.369 . S
C609 H622 0.950 . S
C610 C609 1.369 . S
C610 C611 1.392 . S
C610 H623 0.951 . S
C611 C610 1.392 . S
C611 C613 1.384 . S
H612 C614 0.949 . S
C613 C611 1.384 . S
C613 C614 1.385 . S
C613 H615 0.950 . S
C614 C608 1.404 . S
C614 H612 0.949 . S
C614 C613 1.385 . S
H615 C613 0.950 . S
H616 C600 0.951 . S
H617 C602 0.951 . S
H618 C604 0.951 . S
H619 C605 0.950 . S
H620 C606 0.950 . S
H621 C607 0.950 . S
H622 C609 0.950 . S
H623 C610 0.951 . S
C624 C625 1.386 1_655 S
C624 C626 1.383 . S
C624 H640 0.951 . S
C625 C624 1.386 1_455 S
C625 C629 1.383 . S
C626 C624 1.383 . S
C626 C627 1.402 . S
C626 H641 0.951 . S
C627 C626 1.402 . S
C627 C628 1.375 1_655 S
C627 C630 1.481 . S
C628 C627 1.375 1_455 S
C628 C629 1.367 . S
C628 H642 0.951 . S
C629 C625 1.383 . S
C629 C628 1.367 . S
C629 H643 0.950 . S
C630 C627 1.481 . S
C630 C631 1.297 . S
C630 H644 0.950 . S
C631 C630 1.297 . S
C631 C632 1.479 . S
C631 H645 0.950 . S
C632 C631 1.479 . S
C632 C633 1.375 . S
C632 C638 1.404 . S
C633 C632 1.375 . S
C633 C634 1.369 . S
C633 H646 0.950 . S
C634 C633 1.369 . S
C634 C635 1.392 . S
C634 H647 0.951 . S
C635 C634 1.392 . S
C635 C637 1.384 . S
H636 C638 0.949 . S
C637 C635 1.384 . S
C637 C638 1.385 . S
C637 H639 0.950 . S
C638 C632 1.404 . S
C638 H636 0.949 . S
C638 C637 1.385 . S
H639 C637 0.950 . S
H640 C624 0.951 . S
H641 C626 0.951 . S
H642 C628 0.951 . S
H643 C629 0.950 . S
H644 C630 0.950 . S
H645 C631 0.950 . S
H646 C633 0.950 . S
H647 C634 0.951 . S
C648 C649 1.386 1_565 S
C648 C650 1.383 . S
C648 H664 0.951 . S
C649 C648 1.386 1_545 S
C649 C653 1.383 . S
C650 C648 1.383 . S
C650 C651 1.402 . S
C650 H665 0.951 . S
C651 C650 1.402 . S
C651 C652 1.375 1_565 S
C651 C654 1.481 . S
C652 C651 1.375 1_545 S
C652 C653 1.367 . S
C652 H666 0.951 . S
C653 C649 1.383 . S
C653 C652 1.367 . S
C653 H667 0.950 . S
C654 C651 1.481 . S
C654 C655 1.297 . S
C654 H668 0.950 . S
C655 C654 1.297 . S
C655 C656 1.479 . S
C655 H669 0.950 . S
C656 C655 1.479 . S
C656 C657 1.375 . S
C656 C662 1.404 . S
C657 C656 1.375 . S
C657 C658 1.369 . S
C657 H670 0.950 . S
C658 C657 1.369 . S
C658 C659 1.392 . S
C658 H671 0.951 . S
C659 C658 1.392 . S
C659 C661 1.384 . S
H660 C662 0.949 . S
C661 C659 1.384 . S
C661 C662 1.385 . S
C661 H663 0.950 . S
C662 C656 1.404 . S
C662 H660 0.949 . S
C662 C661 1.385 . S
H663 C661 0.950 . S
H664 C648 0.951 . S
H665 C650 0.951 . S
H666 C652 0.951 . S
H667 C653 0.950 . S
H668 C654 0.950 . S
H669 C655 0.950 . S
H670 C657 0.950 . S
H671 C658 0.951 . S
C241 C169 1.126 . S
C251 C15 1.095 . S
C265 C209 1.126 . S
C275 C55 1.101 . S
C289 C9 1.111 . S
C299 C95 1.110 . S
C313 C49 1.126 . S
C323 C135 1.095 . S
C337 C89 1.121 . S
C347 C175 1.112 . S
C361 C129 1.116 . S
C371 C215 1.119 . S
C385 C18 0.674 . S
C395 C138 0.897 . S
C409 C178 0.710 . S
C419 C58 0.633 . S
C433 C218 0.764 . S
C443 C98 0.848 . S
C457 C88 0.829 . S
C467 C208 0.823 . S
C481 C8 0.825 . S
C491 C128 0.828 . S
C505 C168 0.825 . S
C515 C48 0.828 . S
C529 C219 1.144 . S
C539 C5 1.093 . S
C553 C45 1.136 . S
C563 C19 1.132 . S
C577 C85 1.096 . S
C587 C59 1.142 . S
C601 C99 1.136 . S
C611 C125 1.098 . S
C625 C165 1.133 . S
C635 C139 1.134 . S
C649 C205 1.110 . S
C659 C179 1.142 . S
