# Generated by pormake.
# Topology uog, (4)-cn, num edge types: 1
# Building blocks:
#     Node 0, Type 0, BuildingBlock: NAWXER_clean_sbu_0, # of connection points: 4
#     Node 1, Type 0, BuildingBlock: NAWXER_clean_sbu_0, # of connection points: 4
#     Node 2, Type 0, BuildingBlock: NAWXER_clean_sbu_0, # of connection points: 4
#     Node 3, Type 0, BuildingBlock: NAWXER_clean_sbu_0, # of connection points: 4
#     Node 4, Type 0, BuildingBlock: NAWXER_clean_sbu_0, # of connection points: 4
#     Node 5, Type 0, BuildingBlock: NAWXER_clean_sbu_0, # of connection points: 4
#     Edge 6, Type (0, 0), BuildingBlock: ZUJKAS_clean_linker_0, # of connection points: 2
#     Edge 7, Type (0, 0), BuildingBlock: ZUJKAS_clean_linker_0, # of connection points: 2
#     Edge 8, Type (0, 0), BuildingBlock: ZUJKAS_clean_linker_0, # of connection points: 2
#     Edge 9, Type (0, 0), BuildingBlock: ZUJKAS_clean_linker_0, # of connection points: 2
#     Edge 10, Type (0, 0), BuildingBlock: ZUJKAS_clean_linker_0, # of connection points: 2
#     Edge 11, Type (0, 0), BuildingBlock: ZUJKAS_clean_linker_0, # of connection points: 2
#     Edge 12, Type (0, 0), BuildingBlock: ZUJKAS_clean_linker_0, # of connection points: 2
#     Edge 13, Type (0, 0), BuildingBlock: ZUJKAS_clean_linker_0, # of connection points: 2
#     Edge 14, Type (0, 0), BuildingBlock: ZUJKAS_clean_linker_0, # of connection points: 2
#     Edge 15, Type (0, 0), BuildingBlock: ZUJKAS_clean_linker_0, # of connection points: 2
#     Edge 16, Type (0, 0), BuildingBlock: ZUJKAS_clean_linker_0, # of connection points: 2
#     Edge 17, Type (0, 0), BuildingBlock: ZUJKAS_clean_linker_0, # of connection points: 2
# Relax obj value: 0.013
# Max RMSD: 0.240
# Mean RMSD: 0.240
data_MOF--net-uog--node1-NAWXER_clean_sbu_0--edge1-ZUJKAS_clean_linker_0
_symmetry_space_group_name_H-M    P1
_symmetry_Int_Tables_number       1
_symmetry_cell_setting            triclinic
loop_
_symmetry_equiv_pos_as_xyz
'x, y, z'
_cell_length_a     37.972574
_cell_length_b     37.949322
_cell_length_c     56.581138
_cell_angle_alpha  89.945179
_cell_angle_beta   90.00796
_cell_angle_gamma 120.02098
loop_
_atom_site_label
_atom_site_type_symbol
_atom_site_fract_x
_atom_site_fract_y
_atom_site_fract_z
_atom_type_partial_charge
C0 C 0.54874 0.33891 0.16936 0.0
C1 C 0.54824 0.21113 0.17541 0.0
O2 O 0.51897 0.30285 0.17077 0.0
Zn3 Zn 0.54976 0.2756 0.1728 0.0
O4 O 0.58517 0.34489 0.16949 0.0
Zn5 Zn 0.613 0.30698 0.17171 0.0
O6 O 0.64303 0.31915 0.14305 0.0
O7 O 0.57663 0.28432 0.13757 0.0
O8 O 0.58472 0.24112 0.17346 0.0
O9 O 0.51866 0.21769 0.17631 0.0
O10 O 0.57917 0.29479 0.20691 0.0
O11 O 0.645 0.32562 0.19993 0.0
C12 C 0.61295 0.30171 0.12911 0.0
C13 C 0.61592 0.31365 0.21455 0.0
C14 C 0.30419 0.61143 0.54791 0.0
C15 C 0.31504 0.61005 0.4625 0.0
O16 O 0.32103 0.64081 0.53343 0.0
Zn17 Zn 0.30914 0.60932 0.50521 0.0
O18 O 0.28713 0.57474 0.54011 0.0
Zn19 Zn 0.27799 0.54607 0.50565 0.0
O20 O 0.30538 0.5156 0.50843 0.0
O21 O 0.34735 0.58186 0.50809 0.0
O22 O 0.29615 0.57363 0.47078 0.0
O23 O 0.32764 0.63991 0.47659 0.0
O24 O 0.24328 0.58054 0.50257 0.0
O25 O 0.22014 0.51446 0.50327 0.0
C26 C 0.34143 0.54546 0.50911 0.0
C27 C 0.21325 0.54385 0.50207 0.0
C28 C 0.69491 0.30041 0.88086 0.0
C29 C 0.70873 0.31206 0.79556 0.0
O30 O 0.68207 0.31679 0.86627 0.0
Zn31 Zn 0.70223 0.30519 0.83818 0.0
O32 O 0.71505 0.28382 0.8732 0.0
Zn33 Zn 0.73518 0.27494 0.83885 0.0
O34 O 0.79291 0.30276 0.84203 0.0
O35 O 0.76796 0.34418 0.8413 0.0
O36 O 0.72706 0.29408 0.80398 0.0
O37 O 0.68979 0.32304 0.80944 0.0
O38 O 0.66591 0.23943 0.83563 0.0
O39 O 0.70932 0.21698 0.83629 0.0
C40 C 0.79868 0.33868 0.84255 0.0
C41 C 0.67293 0.20967 0.83513 0.0
C42 C 0.39802 0.69268 0.21425 0.0
C43 C 0.4019 0.70608 0.12889 0.0
O44 O 0.36911 0.68017 0.19948 0.0
Zn45 Zn 0.40142 0.7001 0.17145 0.0
O46 O 0.43487 0.71267 0.2068 0.0
Zn47 Zn 0.46459 0.7332 0.1728 0.0
O48 O 0.49418 0.79095 0.17664 0.0
O49 O 0.42789 0.76588 0.17357 0.0
O50 O 0.43807 0.72486 0.13752 0.0
O51 O 0.37173 0.68701 0.14261 0.0
O52 O 0.43105 0.66395 0.16929 0.0
O53 O 0.49688 0.70749 0.17057 0.0
C54 C 0.46397 0.79654 0.17573 0.0
C55 C 0.46786 0.67106 0.16912 0.0
C56 C 0.67449 0.46627 0.5083 0.0
C57 C 0.80102 0.46446 0.50155 0.0
O58 O 0.71079 0.49562 0.50733 0.0
Zn59 Zn 0.7372 0.46403 0.50491 0.0
O60 O 0.66781 0.4296 0.50773 0.0
Zn61 Zn 0.70462 0.40075 0.50533 0.0
O62 O 0.69189 0.37014 0.53398 0.0
O63 O 0.72865 0.43638 0.5397 0.0
O64 O 0.77044 0.42809 0.50258 0.0
O65 O 0.79499 0.49445 0.50211 0.0
O66 O 0.71809 0.43538 0.47041 0.0
O67 O 0.68526 0.3693 0.47709 0.0
C68 C 0.71041 0.39996 0.54798 0.0
C69 C 0.69835 0.39871 0.4626 0.0
C70 C 0.34034 0.79688 0.83471 0.0
C71 C 0.2114 0.67109 0.84219 0.0
O72 O 0.30444 0.79109 0.83543 0.0
Zn73 Zn 0.2767 0.73335 0.83843 0.0
O74 O 0.34585 0.76613 0.83576 0.0
Zn75 Zn 0.30681 0.70029 0.83872 0.0
O76 O 0.31823 0.68043 0.81045 0.0
O77 O 0.28557 0.71383 0.80389 0.0
O78 O 0.24107 0.66395 0.84147 0.0
O79 O 0.21883 0.70755 0.84114 0.0
O80 O 0.29596 0.72475 0.87315 0.0
O81 O 0.32483 0.68751 0.86728 0.0
C82 C 0.30205 0.69372 0.79601 0.0
C83 C 0.31394 0.70627 0.88134 0.0
H84 H 0.57898 0.17685 0.14591 0.0
H85 H 0.56226 0.1056 0.14497 0.0
H86 H 0.48615 0.08083 0.20657 0.0
H87 H 0.50009 0.15116 0.20609 0.0
H88 H 0.57515 0.06085 0.17111 0.0
H89 H 0.40804 0.98973 0.16832 0.0
H90 H 0.44097 0.04389 0.16548 0.0
H91 H 0.42748 0.02033 0.19431 0.0
C92 C 0.55848 0.15595 0.15911 0.0
C93 C 0.54045 0.16908 0.17593 0.0
C94 C 0.54892 0.11526 0.15861 0.0
C95 C 0.52197 0.08723 0.17532 0.0
C96 C 0.50551 0.10111 0.19283 0.0
H97 H 0.51954 0.85982 0.20208 0.0
H98 H 0.53247 0.92973 0.20247 0.0
C99 C 0.51389 0.14142 0.19277 0.0
C100 C 0.51211 0.04394 0.17477 0.0
H101 H 0.43395 0.94578 0.17867 0.0
C102 C 0.54417 0.03574 0.17249 0.0
C103 C 0.47165 0.01083 0.17604 0.0
C104 C 0.43513 0.01667 0.17588 0.0
C105 C 0.53709 0.99574 0.17173 0.0
C106 C 0.49696 0.96275 0.1748 0.0
C107 C 0.46483 0.9709 0.17674 0.0
C108 C 0.48751 0.91963 0.17571 0.0
C109 C 0.57274 0.98957 0.16685 0.0
C110 C 0.45604 0.88977 0.16176 0.0
C111 C 0.44742 0.84936 0.16235 0.0
C112 C 0.47069 0.83828 0.1765 0.0
C113 C 0.50159 0.86782 0.19076 0.0
C114 C 0.50931 0.90789 0.19075 0.0
H115 H 0.59685 0.01551 0.15669 0.0
H116 H 0.58636 0.98787 0.18386 0.0
H117 H 0.5634 0.9612 0.15673 0.0
H118 H 0.43853 0.89781 0.15011 0.0
H119 H 0.42349 0.82707 0.15116 0.0
H120 H 0.33877 0.47234 0.51242 0.0
H121 H 0.39596 0.45996 0.51376 0.0
H122 H 0.47992 0.5891 0.50987 0.0
H123 H 0.42283 0.60191 0.50882 0.0
H124 H 0.45643 0.48152 0.47974 0.0
H125 H 0.52273 0.55351 0.56616 0.0
H126 H 0.47207 0.54083 0.55723 0.0
H127 H 0.51555 0.58564 0.54573 0.0
C128 C 0.36938 0.4982 0.51202 0.0
C129 C 0.37622 0.53816 0.51058 0.0
C130 C 0.40203 0.49102 0.51277 0.0
C131 C 0.44215 0.5236 0.51221 0.0
C132 C 0.44917 0.56355 0.51079 0.0
H133 H 0.67819 0.54013 0.50813 0.0
H134 H 0.6215 0.55339 0.50898 0.0
C135 C 0.4165 0.57079 0.51006 0.0
C136 C 0.4765 0.5155 0.51219 0.0
H137 H 0.56088 0.53237 0.54299 0.0
C138 C 0.47919 0.49247 0.49361 0.0
C139 C 0.50617 0.52995 0.53028 0.0
C140 C 0.50395 0.55356 0.55111 0.0
C141 C 0.51112 0.48397 0.49244 0.0
C142 C 0.54072 0.49828 0.51058 0.0
C143 C 0.5381 0.52141 0.52913 0.0
C144 C 0.57488 0.48989 0.51049 0.0
C145 C 0.51338 0.46054 0.47152 0.0
C146 C 0.56746 0.44978 0.51144 0.0
C147 C 0.5998 0.44205 0.51089 0.0
C148 C 0.64018 0.47434 0.50956 0.0
C149 C 0.64748 0.51453 0.5091 0.0
C150 C 0.61513 0.5222 0.5096 0.0
H151 H 0.49487 0.46099 0.45643 0.0
H152 H 0.54529 0.47313 0.46549 0.0
H153 H 0.50145 0.42834 0.47673 0.0
H154 H 0.53664 0.42443 0.51262 0.0
H155 H 0.59311 0.41076 0.51143 0.0
H156 H 0.82275 0.41991 0.84386 0.0
H157 H 0.89241 0.47757 0.84521 0.0
H158 H 0.939 0.39469 0.84559 0.0
H159 H 0.86969 0.33695 0.84459 0.0
H160 H 0.97632 0.45717 0.87874 0.0
H161 H 0.97281 0.51772 0.78985 0.0
H162 H 0.93277 0.51135 0.80941 0.0
H163 H 0.93487 0.46747 0.79948 0.0
C164 C 0.84781 0.41394 0.84426 0.0
C165 C 0.84063 0.3738 0.844 0.0
C166 C 0.88759 0.44693 0.84489 0.0
C167 C 0.92086 0.44038 0.84512 0.0
C168 C 0.91376 0.4004 0.84531 0.0
H169 H 0.18422 0.58927 0.84401 0.0
H170 H 0.11366 0.53353 0.84561 0.0
C171 C 0.87408 0.36744 0.84471 0.0
C172 C 0.96316 0.47507 0.84526 0.0
H173 H 0.03158 0.55705 0.81302 0.0
C174 C 0.98846 0.47901 0.86437 0.0
C175 C 0.97887 0.50344 0.82647 0.0
C176 C 0.95361 0.49974 0.80502 0.0
C177 C 0.02899 0.51088 0.86533 0.0
C178 C 0.04474 0.53912 0.84649 0.0
C179 C 0.01937 0.53533 0.82745 0.0
C180 C 0.08754 0.5728 0.84608 0.0
C181 C 0.0544 0.51443 0.88667 0.0
C182 C 0.09621 0.6133 0.84537 0.0
C183 C 0.13644 0.6452 0.84434 0.0
C184 C 0.16883 0.63718 0.84383 0.0
C185 C 0.16003 0.59652 0.84451 0.0
C186 C 0.11973 0.56462 0.84555 0.0
H187 H 0.03521 0.49713 0.902 0.0
H188 H 0.07446 0.50188 0.88231 0.0
H189 H 0.07395 0.54675 0.89193 0.0
H190 H 0.07178 0.62023 0.84564 0.0
H191 H 0.14209 0.67613 0.84379 0.0
H192 H 0.14345 0.46988 0.50029 0.0
H193 H 0.07344 0.45623 0.49853 0.0
H194 H 0.1167 0.58514 0.49905 0.0
H195 H 0.18699 0.59922 0.50053 0.0
H196 H 0.03379 0.47926 0.53131 0.0
H197 H 0.03823 0.5445 0.44274 0.0
H198 H 0.07667 0.53313 0.45263 0.0
H199 H 0.07751 0.57851 0.46258 0.0
C200 C 0.13817 0.49541 0.49987 0.0
C201 C 0.17087 0.53568 0.50047 0.0
C202 C 0.09811 0.4875 0.49888 0.0
C203 C 0.08991 0.51965 0.49834 0.0
C204 C 0.1224 0.55989 0.49897 0.0
H205 H 0.87185 0.53753 0.50009 0.0
H206 H 0.94131 0.54954 0.49924 0.0
C207 C 0.16255 0.56787 0.49995 0.0
C208 C 0.04725 0.51091 0.49801 0.0
H209 H 0.97923 0.52521 0.46595 0.0
C210 C 0.02174 0.48908 0.51697 0.0
C211 C 0.03172 0.52383 0.47928 0.0
C212 C 0.05728 0.54599 0.45803 0.0
C213 C 0.98128 0.48054 0.51795 0.0
C214 C 0.96576 0.49355 0.49924 0.0
C215 C 0.99123 0.51525 0.48024 0.0
C216 C 0.92342 0.48574 0.49932 0.0
C217 C 0.95585 0.45862 0.53929 0.0
C218 C 0.89028 0.44582 0.49927 0.0
C219 C 0.85043 0.43878 0.49981 0.0
C220 C 0.84306 0.4716 0.50025 0.0
C221 C 0.87639 0.51154 0.49983 0.0
C222 C 0.91615 0.5185 0.49932 0.0
H223 H 0.97493 0.4597 0.55447 0.0
H224 H 0.937 0.47198 0.54488 0.0
H225 H 0.93511 0.42619 0.53476 0.0
H226 H 0.89523 0.42009 0.4988 0.0
H227 H 0.82547 0.40767 0.49999 0.0
H228 H 0.33835 0.86764 0.83136 0.0
H229 H 0.39584 0.93706 0.82997 0.0
H230 H 0.4791 0.89112 0.83371 0.0
H231 H 0.42164 0.82129 0.83483 0.0
H232 H 0.4564 0.97542 0.8641 0.0
H233 H 0.52221 0.96991 0.77742 0.0
H234 H 0.47143 0.93213 0.78633 0.0
H235 H 0.51466 0.9304 0.7978 0.0
C236 C 0.36886 0.87217 0.83172 0.0
C237 C 0.37538 0.83885 0.83315 0.0
C238 C 0.40168 0.91191 0.83094 0.0
C239 C 0.4417 0.91921 0.83146 0.0
C240 C 0.44844 0.8861 0.83284 0.0
H241 H 0.67743 0.13995 0.83507 0.0
H242 H 0.62118 0.06969 0.83427 0.0
C243 C 0.41556 0.84624 0.8336 0.0
C244 C 0.4762 0.96162 0.83151 0.0
H245 H 0.56016 0.0294 0.80043 0.0
C246 C 0.47903 0.9873 0.85015 0.0
C247 C 0.50569 0.97692 0.81332 0.0
C248 C 0.50332 0.95109 0.79245 0.0
C249 C 0.51087 0.0278 0.85124 0.0
C250 C 0.54023 0.04321 0.83296 0.0
C251 C 0.53754 0.01748 0.81438 0.0
C252 C 0.57413 0.08592 0.83291 0.0
C253 C 0.51327 0.05347 0.87221 0.0
C254 C 0.56632 0.11836 0.83201 0.0
C255 C 0.5984 0.1586 0.83252 0.0
C256 C 0.63891 0.16712 0.83378 0.0
C257 C 0.6466 0.1345 0.83417 0.0
C258 C 0.61451 0.0943 0.83368 0.0
H259 H 0.49504 0.03446 0.88737 0.0
H260 H 0.54524 0.07298 0.87807 0.0
H261 H 0.50109 0.07357 0.86712 0.0
H262 H 0.53538 0.11254 0.83092 0.0
H263 H 0.59141 0.18298 0.83204 0.0
H264 H 0.54215 0.67589 0.16728 0.0
H265 H 0.55633 0.61981 0.16556 0.0
H266 H 0.42766 0.53341 0.16646 0.0
H267 H 0.4131 0.58929 0.16784 0.0
H268 H 0.53464 0.55768 0.19818 0.0
H269 H 0.46743 0.49506 0.11036 0.0
H270 H 0.47827 0.54479 0.12011 0.0
H271 H 0.43341 0.49993 0.13036 0.0
C272 C 0.51681 0.64498 0.16695 0.0
C273 C 0.47645 0.63709 0.16761 0.0
C274 C 0.525 0.61297 0.16598 0.0
C275 C 0.49306 0.57248 0.16554 0.0
C276 C 0.45276 0.56445 0.16627 0.0
H277 H 0.47555 0.33648 0.16906 0.0
H278 H 0.46339 0.39391 0.16803 0.0
C279 C 0.4445 0.59645 0.1672 0.0
C280 C 0.50203 0.53868 0.16524 0.0
H281 H 0.48668 0.4554 0.13377 0.0
C282 C 0.52441 0.53545 0.18403 0.0
C283 C 0.48857 0.50972 0.14676 0.0
C284 C 0.4659 0.51263 0.12563 0.0
C285 C 0.53294 0.50352 0.18511 0.0
C286 C 0.5193 0.47444 0.1667 0.0
C287 C 0.49708 0.47776 0.14786 0.0
C288 C 0.52711 0.43989 0.16691 0.0
C289 C 0.55555 0.50055 0.20627 0.0
C290 C 0.567 0.4467 0.16626 0.0
C291 C 0.57411 0.41393 0.16688 0.0
C292 C 0.5414 0.37371 0.16804 0.0
C293 C 0.50146 0.36704 0.16825 0.0
C294 C 0.49441 0.39981 0.16763 0.0
H295 H 0.55517 0.51914 0.22132 0.0
H296 H 0.54223 0.46849 0.21222 0.0
H297 H 0.58774 0.51189 0.20133 0.0
H298 H 0.59265 0.47739 0.16524 0.0
H299 H 0.60522 0.42014 0.16655 0.0
H300 H 0.65343 0.33305 0.90248 0.0
H301 H 0.63878 0.33247 0.94454 0.0
H302 H 0.70196 0.26697 0.95928 0.0
H303 H 0.71646 0.26697 0.91709 0.0
H304 H 0.62607 0.235 0.98224 0.0
H305 H 0.72128 0.40178 0.99565 0.0
H306 H 0.68507 0.38744 0.97203 0.0
H307 H 0.72578 0.37638 0.96984 0.0
C308 C 0.66436 0.31859 0.91463 0.0
C309 C 0.68633 0.30023 0.90641 0.0
C310 C 0.65608 0.31846 0.93869 0.0
C311 C 0.66978 0.30019 0.95503 0.0
C312 C 0.69129 0.2814 0.94692 0.0
H313 H 0.68588 0.33205 0.10647 0.0
H314 H 0.6981 0.33008 0.06431 0.0
C315 C 0.69962 0.28152 0.92283 0.0
C316 C 0.66128 0.30039 0.98058 0.0
H317 H 0.67813 0.36359 0.02737 0.0
C318 C 0.63749 0.26307 0.99216 0.0
C319 C 0.67659 0.33707 0.99347 0.0
C320 C 0.70392 0.37796 0.98222 0.0
C321 C 0.6282 0.26146 0.01631 0.0
C322 C 0.64262 0.2982 0.02906 0.0
C323 C 0.66676 0.33548 0.0175 0.0
C324 C 0.63445 0.29874 0.05465 0.0
C325 C 0.6038 0.22046 0.02806 0.0
C326 C 0.59454 0.28211 0.06321 0.0
C327 C 0.58737 0.28304 0.08742 0.0
C328 C 0.62005 0.30095 0.10342 0.0
C329 C 0.65997 0.31799 0.09467 0.0
C330 C 0.66706 0.31692 0.07056 0.0
H331 H 0.60377 0.19582 0.01745 0.0
H332 H 0.61592 0.22053 0.04593 0.0
H333 H 0.57181 0.21331 0.03003 0.0
H334 H 0.56896 0.26867 0.05117 0.0
H335 H 0.55629 0.26984 0.09355 0.0
H336 H 0.45235 0.71619 0.25088 0.0
H337 H 0.43733 0.70064 0.2929 0.0
H338 H 0.309 0.63305 0.27733 0.0
H339 H 0.32361 0.64889 0.23538 0.0
H340 H 0.32724 0.68537 0.31502 0.0
H341 H 0.4008 0.59148 0.32545 0.0
H342 H 0.43359 0.64118 0.31333 0.0
H343 H 0.38983 0.60497 0.29688 0.0
C344 C 0.42093 0.69795 0.25638 0.0
C345 C 0.38919 0.68368 0.23974 0.0
C346 C 0.41242 0.68887 0.28039 0.0
C347 C 0.37208 0.66513 0.28818 0.0
C348 C 0.34035 0.65124 0.27167 0.0
H349 H 0.29252 0.55353 0.42709 0.0
H350 H 0.30498 0.56628 0.38462 0.0
C351 C 0.3488 0.66033 0.24769 0.0
C352 C 0.36277 0.65553 0.31361 0.0
H353 H 0.3793 0.6093 0.3607 0.0
C354 C 0.3385 0.66862 0.325 0.0
C355 C 0.37702 0.63317 0.32649 0.0
C356 C 0.40143 0.61651 0.3149 0.0
C357 C 0.32873 0.66064 0.34906 0.0
C358 C 0.34419 0.63956 0.36214 0.0
C359 C 0.36778 0.62575 0.35065 0.0
C360 C 0.33651 0.63187 0.38782 0.0
C361 C 0.30151 0.67439 0.36018 0.0
C362 C 0.35053 0.66453 0.40368 0.0
C363 C 0.34342 0.65738 0.4279 0.0
C364 C 0.32235 0.61738 0.43677 0.0
C365 C 0.30871 0.58469 0.42084 0.0
C366 C 0.31585 0.5919 0.39658 0.0
H367 H 0.2836 0.67998 0.34668 0.0
H368 H 0.28014 0.65145 0.37299 0.0
H369 H 0.32051 0.70329 0.36984 0.0
H370 H 0.36727 0.69561 0.39734 0.0
H371 H 0.3546 0.68329 0.43966 0.0
H372 H 0.76294 0.31448 0.76284 0.0
H373 H 0.76714 0.33237 0.72093 0.0
H374 H 0.66113 0.34538 0.72851 0.0
H375 H 0.65786 0.32928 0.77051 0.0
H376 H 0.71791 0.29789 0.68525 0.0
H377 H 0.73645 0.45079 0.6972 0.0
H378 H 0.7397 0.42186 0.72155 0.0
H379 H 0.69089 0.41248 0.71114 0.0
C380 C 0.74061 0.32127 0.75555 0.0
C381 C 0.7103 0.32086 0.77 0.0
C382 C 0.74306 0.33153 0.73162 0.0
C383 C 0.71506 0.34123 0.72165 0.0
C384 C 0.68396 0.33945 0.73592 0.0
H385 H 0.65924 0.33154 0.57277 0.0
H386 H 0.66194 0.31836 0.61478 0.0
C387 C 0.6819 0.32988 0.7599 0.0
C388 C 0.71763 0.3521 0.69622 0.0
H389 H 0.71813 0.42241 0.6583 0.0
C390 C 0.71834 0.32533 0.67938 0.0
C391 C 0.71908 0.38832 0.6885 0.0
C392 C 0.72196 0.4202 0.70557 0.0
C393 C 0.71927 0.33314 0.65506 0.0
C394 C 0.71794 0.36798 0.64733 0.0
C395 C 0.71847 0.39537 0.66418 0.0
C396 C 0.71573 0.37646 0.62189 0.0
C397 C 0.72234 0.30424 0.638 0.0
C398 C 0.74385 0.4143 0.61206 0.0
C399 C 0.74172 0.42232 0.58812 0.0
C400 C 0.71163 0.39249 0.57354 0.0
C401 C 0.68312 0.35493 0.58349 0.0
C402 C 0.68485 0.34721 0.60748 0.0
H403 H 0.73672 0.2881 0.64642 0.0
H404 H 0.69133 0.28089 0.63232 0.0
H405 H 0.74028 0.32043 0.62208 0.0
H406 H 0.76776 0.43749 0.62286 0.0
H407 H 0.76412 0.45154 0.58095 0.0
H408 H 0.3311 0.6548 0.90582 0.0
H409 H 0.34613 0.65645 0.94789 0.0
H410 H 0.33365 0.76266 0.95648 0.0
H411 H 0.31682 0.76007 0.91452 0.0
H412 H 0.40636 0.71102 0.97334 0.0
H413 H 0.26255 0.69351 0.00898 0.0
H414 H 0.26903 0.68649 0.97811 0.0
H415 H 0.28852 0.7369 0.98997 0.0
C416 C 0.33123 0.67833 0.9167 0.0
C417 C 0.32248 0.70713 0.9069 0.0
C418 C 0.33992 0.67929 0.94076 0.0
C419 C 0.34043 0.70929 0.95549 0.0
C420 C 0.33231 0.73851 0.94566 0.0
H421 H 0.45335 0.76039 0.09596 0.0
H422 H 0.43989 0.76299 0.05384 0.0
C423 C 0.32291 0.73715 0.92164 0.0
C424 C 0.35042 0.71029 0.98097 0.0
H425 H 0.31558 0.70999 0.03663 0.0
C426 C 0.38643 0.71066 0.98719 0.0
C427 C 0.3242 0.70934 0.99906 0.0
C428 C 0.28373 0.70611 0.99373 0.0
C429 C 0.39688 0.70992 0.01092 0.0
C430 C 0.37131 0.71027 0.029 0.0
C431 C 0.33539 0.71009 0.02279 0.0
C432 C 0.38012 0.70905 0.05449 0.0
C433 C 0.43449 0.70737 0.01627 0.0
C434 C 0.35064 0.67862 0.06906 0.0
C435 C 0.35791 0.67764 0.09317 0.0
C436 C 0.39501 0.70685 0.10322 0.0
C437 C 0.42468 0.73718 0.08864 0.0
C438 C 0.4171 0.73855 0.06454 0.0
H439 H 0.44356 0.69531 1.00098 0.0
H440 H 0.4601 0.73831 0.02018 0.0
H441 H 0.42975 0.6876 0.03181 0.0
H442 H 0.32188 0.65554 0.06176 0.0
H443 H 0.33446 0.65383 0.10392 0.0
H444 H 0.72182 0.4541 0.42643 0.0
H445 H 0.70796 0.44002 0.38418 0.0
H446 H 0.64293 0.31113 0.39861 0.0
H447 H 0.65702 0.32479 0.44074 0.0
H448 H 0.69725 0.33239 0.3613 0.0
H449 H 0.59853 0.40073 0.35099 0.0
H450 H 0.64757 0.43418 0.36364 0.0
H451 H 0.61177 0.38938 0.37952 0.0
C452 C 0.70452 0.42276 0.42062 0.0
C453 C 0.69041 0.39058 0.43699 0.0
C454 C 0.69643 0.41478 0.39649 0.0
C455 C 0.67391 0.37455 0.38832 0.0
C456 C 0.66021 0.34241 0.40457 0.0
H457 H 0.56101 0.29081 0.25082 0.0
H458 H 0.57542 0.30495 0.293 0.0
C459 C 0.66828 0.35031 0.42866 0.0
C460 C 0.66513 0.36571 0.36281 0.0
H461 H 0.61691 0.37973 0.31587 0.0
C462 C 0.67966 0.3427 0.35135 0.0
C463 C 0.6417 0.37872 0.34999 0.0
C464 C 0.62362 0.40181 0.36165 0.0
C465 C 0.67179 0.33273 0.32732 0.0
C466 C 0.64934 0.34674 0.31432 0.0
C467 C 0.63438 0.36932 0.32585 0.0
C468 C 0.64082 0.33804 0.28878 0.0
C469 C 0.68692 0.30666 0.31616 0.0
C470 C 0.67282 0.35231 0.27242 0.0
C471 C 0.66473 0.34417 0.24834 0.0
C472 C 0.62441 0.32186 0.24012 0.0
C473 C 0.5924 0.30796 0.25655 0.0
C474 C 0.60055 0.31606 0.28066 0.0
H475 H 0.69387 0.28972 0.32966 0.0
H476 H 0.66418 0.28445 0.30361 0.0
H477 H 0.7153 0.32642 0.30622 0.0
H478 H 0.7041 0.37004 0.27826 0.0
H479 H 0.69011 0.35559 0.23616 0.0
H480 H 0.33324 0.6512 0.77404 0.0
H481 H 0.33323 0.63786 0.73184 0.0
H482 H 0.27139 0.70484 0.71761 0.0
H483 H 0.27076 0.71799 0.75994 0.0
H484 H 0.23788 0.6301 0.69388 0.0
H485 H 0.40516 0.72019 0.6815 0.0
H486 H 0.38931 0.68304 0.70473 0.0
H487 H 0.38012 0.72496 0.70741 0.0
C488 C 0.31972 0.66325 0.76197 0.0
C489 C 0.30216 0.68587 0.77038 0.0
C490 C 0.31994 0.65574 0.73783 0.0
C491 C 0.30289 0.67089 0.72158 0.0
C492 C 0.28491 0.69307 0.72988 0.0
H493 H 0.33649 0.6854 0.5697 0.0
H494 H 0.33483 0.69911 0.61171 0.0
C495 C 0.28464 0.7006 0.75406 0.0
C496 C 0.30326 0.66298 0.69597 0.0
H497 H 0.36664 0.67785 0.64952 0.0
C498 C 0.266 0.64064 0.68413 0.0
C499 C 0.34001 0.67716 0.68327 0.0
C500 C 0.38095 0.703 0.69479 0.0
C501 C 0.2645 0.63151 0.65997 0.0
C502 C 0.30125 0.64457 0.64747 0.0
C503 C 0.3385 0.66748 0.65922 0.0
C504 C 0.30182 0.63571 0.622 0.0
C505 C 0.22362 0.60855 0.64797 0.0
C506 C 0.28422 0.59546 0.61388 0.0
C507 C 0.28505 0.58745 0.58981 0.0
C508 C 0.30374 0.61961 0.57347 0.0
C509 C 0.32177 0.65989 0.58177 0.0
C510 C 0.32089 0.66783 0.60579 0.0
H511 H 0.19942 0.60977 0.65836 0.0
H512 H 0.22469 0.62097 0.63004 0.0
H513 H 0.2151 0.57613 0.6461 0.0
H514 H 0.27007 0.57024 0.62617 0.0
H515 H 0.27106 0.5561 0.58404 0.0
loop_
_geom_bond_atom_site_label_1
_geom_bond_atom_site_label_2
_geom_bond_distance
_geom_bond_site_symmetry_2
_ccdc_geom_bond_type
C0 O2 1.247 . S
C0 O4 1.258 . S
C1 O8 1.247 . S
C1 O9 1.258 . S
O2 C0 1.247 . S
O2 Zn3 2.028 . S
Zn3 O2 2.028 . S
Zn3 O7 2.035 . S
Zn3 O9 2.035 . S
Zn3 O10 2.028 . S
O4 C0 1.258 . S
O4 Zn5 2.035 . S
Zn5 O4 2.035 . S
Zn5 O6 2.028 . S
Zn5 O8 2.028 . S
Zn5 O11 2.035 . S
O6 Zn5 2.028 . S
O6 C12 1.247 . S
O7 Zn3 2.035 . S
O7 C12 1.258 . S
O8 C1 1.247 . S
O8 Zn5 2.028 . S
O9 C1 1.258 . S
O9 Zn3 2.035 . S
O10 Zn3 2.028 . S
O10 C13 1.247 . S
O11 Zn5 2.035 . S
O11 C13 1.258 . S
C12 O6 1.247 . S
C12 O7 1.258 . S
C13 O10 1.247 . S
C13 O11 1.258 . S
C14 O16 1.247 . S
C14 O18 1.258 . S
C15 O22 1.247 . S
C15 O23 1.258 . S
O16 C14 1.247 . S
O16 Zn17 2.028 . S
Zn17 O16 2.028 . S
Zn17 O21 2.035 . S
Zn17 O23 2.035 . S
Zn17 O24 2.028 . S
O18 C14 1.258 . S
O18 Zn19 2.035 . S
Zn19 O18 2.035 . S
Zn19 O20 2.028 . S
Zn19 O22 2.028 . S
Zn19 O25 2.035 . S
O20 Zn19 2.028 . S
O20 C26 1.247 . S
O21 Zn17 2.035 . S
O21 C26 1.258 . S
O22 C15 1.247 . S
O22 Zn19 2.028 . S
O23 C15 1.258 . S
O23 Zn17 2.035 . S
O24 Zn17 2.028 . S
O24 C27 1.247 . S
O25 Zn19 2.035 . S
O25 C27 1.258 . S
C26 O20 1.247 . S
C26 O21 1.258 . S
C27 O24 1.247 . S
C27 O25 1.258 . S
C28 O30 1.247 . S
C28 O32 1.258 . S
C29 O36 1.247 . S
C29 O37 1.258 . S
O30 C28 1.247 . S
O30 Zn31 2.028 . S
Zn31 O30 2.028 . S
Zn31 O35 2.035 . S
Zn31 O37 2.035 . S
Zn31 O38 2.028 . S
O32 C28 1.258 . S
O32 Zn33 2.035 . S
Zn33 O32 2.035 . S
Zn33 O34 2.028 . S
Zn33 O36 2.028 . S
Zn33 O39 2.035 . S
O34 Zn33 2.028 . S
O34 C40 1.247 . S
O35 Zn31 2.035 . S
O35 C40 1.258 . S
O36 C29 1.247 . S
O36 Zn33 2.028 . S
O37 C29 1.258 . S
O37 Zn31 2.035 . S
O38 Zn31 2.028 . S
O38 C41 1.247 . S
O39 Zn33 2.035 . S
O39 C41 1.258 . S
C40 O34 1.247 . S
C40 O35 1.258 . S
C41 O38 1.247 . S
C41 O39 1.258 . S
C42 O44 1.247 . S
C42 O46 1.258 . S
C43 O50 1.247 . S
C43 O51 1.258 . S
O44 C42 1.247 . S
O44 Zn45 2.028 . S
Zn45 O44 2.028 . S
Zn45 O49 2.035 . S
Zn45 O51 2.035 . S
Zn45 O52 2.028 . S
O46 C42 1.258 . S
O46 Zn47 2.035 . S
Zn47 O46 2.035 . S
Zn47 O48 2.028 . S
Zn47 O50 2.028 . S
Zn47 O53 2.035 . S
O48 Zn47 2.028 . S
O48 C54 1.247 . S
O49 Zn45 2.035 . S
O49 C54 1.258 . S
O50 C43 1.247 . S
O50 Zn47 2.028 . S
O51 C43 1.258 . S
O51 Zn45 2.035 . S
O52 Zn45 2.028 . S
O52 C55 1.247 . S
O53 Zn47 2.035 . S
O53 C55 1.258 . S
C54 O48 1.247 . S
C54 O49 1.258 . S
C55 O52 1.247 . S
C55 O53 1.258 . S
C56 O58 1.247 . S
C56 O60 1.258 . S
C57 O64 1.247 . S
C57 O65 1.258 . S
O58 C56 1.247 . S
O58 Zn59 2.028 . S
Zn59 O58 2.028 . S
Zn59 O63 2.035 . S
Zn59 O65 2.035 . S
Zn59 O66 2.028 . S
O60 C56 1.258 . S
O60 Zn61 2.035 . S
Zn61 O60 2.035 . S
Zn61 O62 2.028 . S
Zn61 O64 2.028 . S
Zn61 O67 2.035 . S
O62 Zn61 2.028 . S
O62 C68 1.247 . S
O63 Zn59 2.035 . S
O63 C68 1.258 . S
O64 C57 1.247 . S
O64 Zn61 2.028 . S
O65 C57 1.258 . S
O65 Zn59 2.035 . S
O66 Zn59 2.028 . S
O66 C69 1.247 . S
O67 Zn61 2.035 . S
O67 C69 1.258 . S
C68 O62 1.247 . S
C68 O63 1.258 . S
C69 O66 1.247 . S
C69 O67 1.258 . S
C70 O72 1.247 . S
C70 O74 1.258 . S
C71 O78 1.247 . S
C71 O79 1.258 . S
O72 C70 1.247 . S
O72 Zn73 2.028 . S
Zn73 O72 2.028 . S
Zn73 O77 2.035 . S
Zn73 O79 2.035 . S
Zn73 O80 2.028 . S
O74 C70 1.258 . S
O74 Zn75 2.035 . S
Zn75 O74 2.035 . S
Zn75 O76 2.028 . S
Zn75 O78 2.028 . S
Zn75 O81 2.035 . S
O76 Zn75 2.028 . S
O76 C82 1.247 . S
O77 Zn73 2.035 . S
O77 C82 1.258 . S
O78 C71 1.247 . S
O78 Zn75 2.028 . S
O79 C71 1.258 . S
O79 Zn73 2.035 . S
O80 Zn73 2.028 . S
O80 C83 1.247 . S
O81 Zn75 2.035 . S
O81 C83 1.258 . S
C82 O76 1.247 . S
C82 O77 1.258 . S
C83 O80 1.247 . S
C83 O81 1.258 . S
H84 C92 0.929 . S
H85 C94 0.930 . S
H86 C96 0.930 . S
H87 C99 0.929 . S
H88 C102 0.930 . S
H89 C104 0.968 . S
H90 C104 0.960 . S
H91 C104 0.960 . S
C92 H84 0.929 . S
C92 C93 1.377 . S
C92 C94 1.384 . S
C93 C92 1.377 . S
C93 C99 1.390 . S
C94 H85 0.930 . S
C94 C92 1.384 . S
C94 C95 1.372 . S
C95 C94 1.372 . S
C95 C96 1.400 . S
C95 C100 1.490 . S
C96 H86 0.930 . S
C96 C95 1.400 . S
C96 C99 1.386 . S
H97 C113 0.930 . S
H98 C114 0.931 . S
C99 H87 0.929 . S
C99 C93 1.390 . S
C99 C96 1.386 . S
C100 C95 1.490 . S
C100 C102 1.395 . S
C100 C103 1.403 . S
H101 C107 0.930 . S
C102 H88 0.930 . S
C102 C100 1.395 . S
C102 C105 1.403 1_545 S
C103 C100 1.403 . S
C103 C104 1.524 . S
C103 C107 1.400 1_545 S
C104 H89 0.968 . S
C104 H90 0.960 . S
C104 H91 0.960 . S
C104 C103 1.524 . S
C105 C102 1.403 1_565 S
C105 C106 1.392 . S
C105 C109 1.495 . S
C106 C105 1.392 . S
C106 C107 1.385 . S
C106 C108 1.478 . S
C107 H101 0.930 . S
C107 C103 1.400 1_565 S
C107 C106 1.385 . S
C108 C106 1.478 . S
C108 C110 1.381 . S
C108 C114 1.383 . S
C109 C105 1.495 . S
C109 H115 0.959 . S
C109 H116 0.961 . S
C109 H117 0.960 . S
C110 C108 1.381 . S
C110 C111 1.394 . S
C110 H118 0.930 . S
C111 C110 1.394 . S
C111 C112 1.383 . S
C111 H119 0.929 . S
C112 C111 1.383 . S
C112 C113 1.377 . S
C113 H97 0.930 . S
C113 C112 1.377 . S
C113 C114 1.379 . S
C114 H98 0.931 . S
C114 C108 1.383 . S
C114 C113 1.379 . S
H115 C109 0.959 . S
H116 C109 0.961 . S
H117 C109 0.960 . S
H118 C110 0.930 . S
H119 C111 0.929 . S
H120 C128 0.929 . S
H121 C130 0.930 . S
H122 C132 0.930 . S
H123 C135 0.929 . S
H124 C138 0.930 . S
H125 C140 0.960 . S
H126 C140 0.960 . S
H127 C140 0.960 . S
C128 H120 0.929 . S
C128 C129 1.377 . S
C128 C130 1.384 . S
C129 C128 1.377 . S
C129 C135 1.390 . S
C130 H121 0.930 . S
C130 C128 1.384 . S
C130 C131 1.372 . S
C131 C130 1.372 . S
C131 C132 1.400 . S
C131 C136 1.490 . S
C132 H122 0.930 . S
C132 C131 1.400 . S
C132 C135 1.386 . S
H133 C149 0.930 . S
H134 C150 0.931 . S
C135 H123 0.929 . S
C135 C129 1.390 . S
C135 C132 1.386 . S
C136 C131 1.490 . S
C136 C138 1.395 . S
C136 C139 1.403 . S
H137 C143 0.930 . S
C138 H124 0.930 . S
C138 C136 1.395 . S
C138 C141 1.403 . S
C139 C136 1.403 . S
C139 C140 1.524 . S
C139 C143 1.400 . S
C140 H125 0.960 . S
C140 H126 0.960 . S
C140 H127 0.960 . S
C140 C139 1.524 . S
C141 C138 1.403 . S
C141 C142 1.392 . S
C141 C145 1.495 . S
C142 C141 1.392 . S
C142 C143 1.385 . S
C142 C144 1.478 . S
C143 H137 0.930 . S
C143 C139 1.400 . S
C143 C142 1.385 . S
C144 C142 1.478 . S
C144 C146 1.381 . S
C144 C150 1.383 . S
C145 C141 1.495 . S
C145 H151 0.959 . S
C145 H152 0.961 . S
C145 H153 0.960 . S
C146 C144 1.381 . S
C146 C147 1.394 . S
C146 H154 0.930 . S
C147 C146 1.394 . S
C147 C148 1.383 . S
C147 H155 0.929 . S
C148 C147 1.383 . S
C148 C149 1.377 . S
C149 H133 0.930 . S
C149 C148 1.377 . S
C149 C150 1.379 . S
C150 H134 0.931 . S
C150 C144 1.383 . S
C150 C149 1.379 . S
H151 C145 0.959 . S
H152 C145 0.961 . S
H153 C145 0.960 . S
H154 C146 0.930 . S
H155 C147 0.929 . S
H156 C164 0.929 . S
H157 C166 0.930 . S
H158 C168 0.930 . S
H159 C171 0.929 . S
H160 C174 0.930 . S
H161 C176 0.960 . S
H162 C176 0.960 . S
H163 C176 0.960 . S
C164 H156 0.929 . S
C164 C165 1.377 . S
C164 C166 1.384 . S
C165 C164 1.377 . S
C165 C171 1.390 . S
C166 H157 0.930 . S
C166 C164 1.384 . S
C166 C167 1.372 . S
C167 C166 1.372 . S
C167 C168 1.400 . S
C167 C172 1.490 . S
C168 H158 0.930 . S
C168 C167 1.400 . S
C168 C171 1.386 . S
H169 C185 0.930 . S
H170 C186 0.931 . S
C171 H159 0.929 . S
C171 C165 1.390 . S
C171 C168 1.386 . S
C172 C167 1.490 . S
C172 C174 1.395 . S
C172 C175 1.403 . S
H173 C179 0.930 . S
C174 H160 0.930 . S
C174 C172 1.395 . S
C174 C177 1.403 1_655 S
C175 C172 1.403 . S
C175 C176 1.524 . S
C175 C179 1.400 1_655 S
C176 H161 0.960 . S
C176 H162 0.960 . S
C176 H163 0.960 . S
C176 C175 1.524 . S
C177 C174 1.403 1_455 S
C177 C178 1.392 . S
C177 C181 1.495 . S
C178 C177 1.392 . S
C178 C179 1.385 . S
C178 C180 1.478 . S
C179 H173 0.930 . S
C179 C175 1.400 1_455 S
C179 C178 1.385 . S
C180 C178 1.478 . S
C180 C182 1.381 . S
C180 C186 1.383 . S
C181 C177 1.495 . S
C181 H187 0.959 . S
C181 H188 0.961 . S
C181 H189 0.960 . S
C182 C180 1.381 . S
C182 C183 1.394 . S
C182 H190 0.930 . S
C183 C182 1.394 . S
C183 C184 1.383 . S
C183 H191 0.929 . S
C184 C183 1.383 . S
C184 C185 1.377 . S
C185 H169 0.930 . S
C185 C184 1.377 . S
C185 C186 1.379 . S
C186 H170 0.931 . S
C186 C180 1.383 . S
C186 C185 1.379 . S
H187 C181 0.959 . S
H188 C181 0.961 . S
H189 C181 0.960 . S
H190 C182 0.930 . S
H191 C183 0.929 . S
H192 C200 0.929 . S
H193 C202 0.930 . S
H194 C204 0.930 . S
H195 C207 0.929 . S
H196 C210 0.930 . S
H197 C212 0.960 . S
H198 C212 0.960 . S
H199 C212 0.960 . S
C200 H192 0.929 . S
C200 C201 1.377 . S
C200 C202 1.384 . S
C201 C200 1.377 . S
C201 C207 1.390 . S
C202 H193 0.930 . S
C202 C200 1.384 . S
C202 C203 1.372 . S
C203 C202 1.372 . S
C203 C204 1.400 . S
C203 C208 1.490 . S
C204 H194 0.930 . S
C204 C203 1.400 . S
C204 C207 1.386 . S
H205 C221 0.930 . S
H206 C222 0.931 . S
C207 H195 0.929 . S
C207 C201 1.390 . S
C207 C204 1.386 . S
C208 C203 1.490 . S
C208 C210 1.395 . S
C208 C211 1.403 . S
H209 C215 0.930 . S
C210 H196 0.930 . S
C210 C208 1.395 . S
C210 C213 1.403 1_455 S
C211 C208 1.403 . S
C211 C212 1.524 . S
C211 C215 1.400 1_455 S
C212 H197 0.960 . S
C212 H198 0.960 . S
C212 H199 0.960 . S
C212 C211 1.524 . S
C213 C210 1.403 1_655 S
C213 C214 1.392 . S
C213 C217 1.495 . S
C214 C213 1.392 . S
C214 C215 1.385 . S
C214 C216 1.478 . S
C215 H209 0.930 . S
C215 C211 1.400 1_655 S
C215 C214 1.385 . S
C216 C214 1.478 . S
C216 C218 1.381 . S
C216 C222 1.383 . S
C217 C213 1.495 . S
C217 H223 0.959 . S
C217 H224 0.961 . S
C217 H225 0.960 . S
C218 C216 1.381 . S
C218 C219 1.394 . S
C218 H226 0.930 . S
C219 C218 1.394 . S
C219 C220 1.383 . S
C219 H227 0.929 . S
C220 C219 1.383 . S
C220 C221 1.377 . S
C221 H205 0.930 . S
C221 C220 1.377 . S
C221 C222 1.379 . S
C222 H206 0.931 . S
C222 C216 1.383 . S
C222 C221 1.379 . S
H223 C217 0.959 . S
H224 C217 0.961 . S
H225 C217 0.960 . S
H226 C218 0.930 . S
H227 C219 0.929 . S
H228 C236 0.929 . S
H229 C238 0.930 . S
H230 C240 0.930 . S
H231 C243 0.929 . S
H232 C246 0.930 . S
H233 C248 0.960 . S
H234 C248 0.960 . S
H235 C248 0.960 . S
C236 H228 0.929 . S
C236 C237 1.377 . S
C236 C238 1.384 . S
C237 C236 1.377 . S
C237 C243 1.390 . S
C238 H229 0.930 . S
C238 C236 1.384 . S
C238 C239 1.372 . S
C239 C238 1.372 . S
C239 C240 1.400 . S
C239 C244 1.490 . S
C240 H230 0.930 . S
C240 C239 1.400 . S
C240 C243 1.386 . S
H241 C257 0.930 . S
H242 C258 0.931 . S
C243 H231 0.929 . S
C243 C237 1.390 . S
C243 C240 1.386 . S
C244 C239 1.490 . S
C244 C246 1.395 . S
C244 C247 1.403 . S
H245 C251 0.930 . S
C246 H232 0.930 . S
C246 C244 1.395 . S
C246 C249 1.403 1_565 S
C247 C244 1.403 . S
C247 C248 1.524 . S
C247 C251 1.400 1_565 S
C248 H233 0.960 . S
C248 H234 0.960 . S
C248 H235 0.960 . S
C248 C247 1.524 . S
C249 C246 1.403 1_545 S
C249 C250 1.392 . S
C249 C253 1.495 . S
C250 C249 1.392 . S
C250 C251 1.385 . S
C250 C252 1.478 . S
C251 H245 0.930 . S
C251 C247 1.400 1_545 S
C251 C250 1.385 . S
C252 C250 1.478 . S
C252 C254 1.381 . S
C252 C258 1.383 . S
C253 C249 1.495 . S
C253 H259 0.959 . S
C253 H260 0.961 . S
C253 H261 0.960 . S
C254 C252 1.381 . S
C254 C255 1.394 . S
C254 H262 0.930 . S
C255 C254 1.394 . S
C255 C256 1.383 . S
C255 H263 0.929 . S
C256 C255 1.383 . S
C256 C257 1.377 . S
C257 H241 0.930 . S
C257 C256 1.377 . S
C257 C258 1.379 . S
C258 H242 0.931 . S
C258 C252 1.383 . S
C258 C257 1.379 . S
H259 C253 0.959 . S
H260 C253 0.961 . S
H261 C253 0.960 . S
H262 C254 0.930 . S
H263 C255 0.929 . S
H264 C272 0.929 . S
H265 C274 0.930 . S
H266 C276 0.930 . S
H267 C279 0.929 . S
H268 C282 0.930 . S
H269 C284 0.960 . S
H270 C284 0.960 . S
H271 C284 0.960 . S
C272 H264 0.929 . S
C272 C273 1.377 . S
C272 C274 1.384 . S
C273 C272 1.377 . S
C273 C279 1.390 . S
C274 H265 0.930 . S
C274 C272 1.384 . S
C274 C275 1.372 . S
C275 C274 1.372 . S
C275 C276 1.400 . S
C275 C280 1.490 . S
C276 H266 0.930 . S
C276 C275 1.400 . S
C276 C279 1.386 . S
H277 C293 0.930 . S
H278 C294 0.931 . S
C279 H267 0.929 . S
C279 C273 1.390 . S
C279 C276 1.386 . S
C280 C275 1.490 . S
C280 C282 1.395 . S
C280 C283 1.403 . S
H281 C287 0.930 . S
C282 H268 0.930 . S
C282 C280 1.395 . S
C282 C285 1.403 . S
C283 C280 1.403 . S
C283 C284 1.524 . S
C283 C287 1.400 . S
C284 H269 0.960 . S
C284 H270 0.960 . S
C284 H271 0.960 . S
C284 C283 1.524 . S
C285 C282 1.403 . S
C285 C286 1.392 . S
C285 C289 1.495 . S
C286 C285 1.392 . S
C286 C287 1.385 . S
C286 C288 1.478 . S
C287 H281 0.930 . S
C287 C283 1.400 . S
C287 C286 1.385 . S
C288 C286 1.478 . S
C288 C290 1.381 . S
C288 C294 1.383 . S
C289 C285 1.495 . S
C289 H295 0.959 . S
C289 H296 0.961 . S
C289 H297 0.960 . S
C290 C288 1.381 . S
C290 C291 1.394 . S
C290 H298 0.930 . S
C291 C290 1.394 . S
C291 C292 1.383 . S
C291 H299 0.929 . S
C292 C291 1.383 . S
C292 C293 1.377 . S
C293 H277 0.930 . S
C293 C292 1.377 . S
C293 C294 1.379 . S
C294 H278 0.931 . S
C294 C288 1.383 . S
C294 C293 1.379 . S
H295 C289 0.959 . S
H296 C289 0.961 . S
H297 C289 0.960 . S
H298 C290 0.930 . S
H299 C291 0.929 . S
H300 C308 0.929 . S
H301 C310 0.930 . S
H302 C312 0.930 . S
H303 C315 0.929 . S
H304 C318 0.930 . S
H305 C320 0.960 1_554 S
H306 C320 0.960 . S
H307 C320 0.960 . S
C308 H300 0.929 . S
C308 C309 1.377 . S
C308 C310 1.384 . S
C309 C308 1.377 . S
C309 C315 1.390 . S
C310 H301 0.930 . S
C310 C308 1.384 . S
C310 C311 1.372 . S
C311 C310 1.372 . S
C311 C312 1.400 . S
C311 C316 1.490 . S
C312 H302 0.930 . S
C312 C311 1.400 . S
C312 C315 1.386 . S
H313 C329 0.930 . S
H314 C330 0.931 . S
C315 H303 0.929 . S
C315 C309 1.390 . S
C315 C312 1.386 . S
C316 C311 1.490 . S
C316 C318 1.395 . S
C316 C319 1.403 . S
H317 C323 0.930 . S
C318 H304 0.930 . S
C318 C316 1.395 . S
C318 C321 1.403 1_556 S
C319 C316 1.403 . S
C319 C320 1.524 . S
C319 C323 1.400 1_556 S
C320 H305 0.960 1_556 S
C320 H306 0.960 . S
C320 H307 0.960 . S
C320 C319 1.524 . S
C321 C318 1.403 1_554 S
C321 C322 1.392 . S
C321 C325 1.495 . S
C322 C321 1.392 . S
C322 C323 1.385 . S
C322 C324 1.478 . S
C323 H317 0.930 . S
C323 C319 1.400 1_554 S
C323 C322 1.385 . S
C324 C322 1.478 . S
C324 C326 1.381 . S
C324 C330 1.383 . S
C325 C321 1.495 . S
C325 H331 0.959 1_554 S
C325 H332 0.961 . S
C325 H333 0.960 . S
C326 C324 1.381 . S
C326 C327 1.394 . S
C326 H334 0.930 . S
C327 C326 1.394 . S
C327 C328 1.383 . S
C327 H335 0.929 . S
C328 C327 1.383 . S
C328 C329 1.377 . S
C329 H313 0.930 . S
C329 C328 1.377 . S
C329 C330 1.379 . S
C330 H314 0.931 . S
C330 C324 1.383 . S
C330 C329 1.379 . S
H331 C325 0.959 1_556 S
H332 C325 0.961 . S
H333 C325 0.960 . S
H334 C326 0.930 . S
H335 C327 0.929 . S
H336 C344 0.929 . S
H337 C346 0.930 . S
H338 C348 0.930 . S
H339 C351 0.929 . S
H340 C354 0.930 . S
H341 C356 0.960 . S
H342 C356 0.960 . S
H343 C356 0.960 . S
C344 H336 0.929 . S
C344 C345 1.377 . S
C344 C346 1.384 . S
C345 C344 1.377 . S
C345 C351 1.390 . S
C346 H337 0.930 . S
C346 C344 1.384 . S
C346 C347 1.372 . S
C347 C346 1.372 . S
C347 C348 1.400 . S
C347 C352 1.490 . S
C348 H338 0.930 . S
C348 C347 1.400 . S
C348 C351 1.386 . S
H349 C365 0.930 . S
H350 C366 0.931 . S
C351 H339 0.929 . S
C351 C345 1.390 . S
C351 C348 1.386 . S
C352 C347 1.490 . S
C352 C354 1.395 . S
C352 C355 1.403 . S
H353 C359 0.930 . S
C354 H340 0.930 . S
C354 C352 1.395 . S
C354 C357 1.403 . S
C355 C352 1.403 . S
C355 C356 1.524 . S
C355 C359 1.400 . S
C356 H341 0.960 . S
C356 H342 0.960 . S
C356 H343 0.960 . S
C356 C355 1.524 . S
C357 C354 1.403 . S
C357 C358 1.392 . S
C357 C361 1.495 . S
C358 C357 1.392 . S
C358 C359 1.385 . S
C358 C360 1.478 . S
C359 H353 0.930 . S
C359 C355 1.400 . S
C359 C358 1.385 . S
C360 C358 1.478 . S
C360 C362 1.381 . S
C360 C366 1.383 . S
C361 C357 1.495 . S
C361 H367 0.959 . S
C361 H368 0.961 . S
C361 H369 0.960 . S
C362 C360 1.381 . S
C362 C363 1.394 . S
C362 H370 0.930 . S
C363 C362 1.394 . S
C363 C364 1.383 . S
C363 H371 0.929 . S
C364 C363 1.383 . S
C364 C365 1.377 . S
C365 H349 0.930 . S
C365 C364 1.377 . S
C365 C366 1.379 . S
C366 H350 0.931 . S
C366 C360 1.383 . S
C366 C365 1.379 . S
H367 C361 0.959 . S
H368 C361 0.961 . S
H369 C361 0.960 . S
H370 C362 0.930 . S
H371 C363 0.929 . S
H372 C380 0.929 . S
H373 C382 0.930 . S
H374 C384 0.930 . S
H375 C387 0.929 . S
H376 C390 0.930 . S
H377 C392 0.960 . S
H378 C392 0.960 . S
H379 C392 0.960 . S
C380 H372 0.929 . S
C380 C381 1.377 . S
C380 C382 1.384 . S
C381 C380 1.377 . S
C381 C387 1.390 . S
C382 H373 0.930 . S
C382 C380 1.384 . S
C382 C383 1.372 . S
C383 C382 1.372 . S
C383 C384 1.400 . S
C383 C388 1.490 . S
C384 H374 0.930 . S
C384 C383 1.400 . S
C384 C387 1.386 . S
H385 C401 0.930 . S
H386 C402 0.931 . S
C387 H375 0.929 . S
C387 C381 1.390 . S
C387 C384 1.386 . S
C388 C383 1.490 . S
C388 C390 1.395 . S
C388 C391 1.403 . S
H389 C395 0.930 . S
C390 H376 0.930 . S
C390 C388 1.395 . S
C390 C393 1.403 . S
C391 C388 1.403 . S
C391 C392 1.524 . S
C391 C395 1.400 . S
C392 H377 0.960 . S
C392 H378 0.960 . S
C392 H379 0.960 . S
C392 C391 1.524 . S
C393 C390 1.403 . S
C393 C394 1.392 . S
C393 C397 1.495 . S
C394 C393 1.392 . S
C394 C395 1.385 . S
C394 C396 1.478 . S
C395 H389 0.930 . S
C395 C391 1.400 . S
C395 C394 1.385 . S
C396 C394 1.478 . S
C396 C398 1.381 . S
C396 C402 1.383 . S
C397 C393 1.495 . S
C397 H403 0.959 . S
C397 H404 0.961 . S
C397 H405 0.960 . S
C398 C396 1.381 . S
C398 C399 1.394 . S
C398 H406 0.930 . S
C399 C398 1.394 . S
C399 C400 1.383 . S
C399 H407 0.929 . S
C400 C399 1.383 . S
C400 C401 1.377 . S
C401 H385 0.930 . S
C401 C400 1.377 . S
C401 C402 1.379 . S
C402 H386 0.931 . S
C402 C396 1.383 . S
C402 C401 1.379 . S
H403 C397 0.959 . S
H404 C397 0.961 . S
H405 C397 0.960 . S
H406 C398 0.930 . S
H407 C399 0.929 . S
H408 C416 0.929 . S
H409 C418 0.930 . S
H410 C420 0.930 . S
H411 C423 0.929 . S
H412 C426 0.930 . S
H413 C428 0.960 1_554 S
H414 C428 0.960 . S
H415 C428 0.960 . S
C416 H408 0.929 . S
C416 C417 1.377 . S
C416 C418 1.384 . S
C417 C416 1.377 . S
C417 C423 1.390 . S
C418 H409 0.930 . S
C418 C416 1.384 . S
C418 C419 1.372 . S
C419 C418 1.372 . S
C419 C420 1.400 . S
C419 C424 1.490 . S
C420 H410 0.930 . S
C420 C419 1.400 . S
C420 C423 1.386 . S
H421 C437 0.930 . S
H422 C438 0.931 . S
C423 H411 0.929 . S
C423 C417 1.390 . S
C423 C420 1.386 . S
C424 C419 1.490 . S
C424 C426 1.395 . S
C424 C427 1.403 . S
H425 C431 0.930 . S
C426 H412 0.930 . S
C426 C424 1.395 . S
C426 C429 1.403 1_556 S
C427 C424 1.403 . S
C427 C428 1.524 . S
C427 C431 1.400 1_556 S
C428 H413 0.960 1_556 S
C428 H414 0.960 . S
C428 H415 0.960 . S
C428 C427 1.524 . S
C429 C426 1.403 1_554 S
C429 C430 1.392 . S
C429 C433 1.495 . S
C430 C429 1.392 . S
C430 C431 1.385 . S
C430 C432 1.478 . S
C431 H425 0.930 . S
C431 C427 1.400 1_554 S
C431 C430 1.385 . S
C432 C430 1.478 . S
C432 C434 1.381 . S
C432 C438 1.383 . S
C433 C429 1.495 . S
C433 H439 0.959 1_554 S
C433 H440 0.961 . S
C433 H441 0.960 . S
C434 C432 1.381 . S
C434 C435 1.394 . S
C434 H442 0.930 . S
C435 C434 1.394 . S
C435 C436 1.383 . S
C435 H443 0.929 . S
C436 C435 1.383 . S
C436 C437 1.377 . S
C437 H421 0.930 . S
C437 C436 1.377 . S
C437 C438 1.379 . S
C438 H422 0.931 . S
C438 C432 1.383 . S
C438 C437 1.379 . S
H439 C433 0.959 1_556 S
H440 C433 0.961 . S
H441 C433 0.960 . S
H442 C434 0.930 . S
H443 C435 0.929 . S
H444 C452 0.929 . S
H445 C454 0.930 . S
H446 C456 0.930 . S
H447 C459 0.929 . S
H448 C462 0.930 . S
H449 C464 0.960 . S
H450 C464 0.960 . S
H451 C464 0.960 . S
C452 H444 0.929 . S
C452 C453 1.377 . S
C452 C454 1.384 . S
C453 C452 1.377 . S
C453 C459 1.390 . S
C454 H445 0.930 . S
C454 C452 1.384 . S
C454 C455 1.372 . S
C455 C454 1.372 . S
C455 C456 1.400 . S
C455 C460 1.490 . S
C456 H446 0.930 . S
C456 C455 1.400 . S
C456 C459 1.386 . S
H457 C473 0.930 . S
H458 C474 0.931 . S
C459 H447 0.929 . S
C459 C453 1.390 . S
C459 C456 1.386 . S
C460 C455 1.490 . S
C460 C462 1.395 . S
C460 C463 1.403 . S
H461 C467 0.930 . S
C462 H448 0.930 . S
C462 C460 1.395 . S
C462 C465 1.403 . S
C463 C460 1.403 . S
C463 C464 1.524 . S
C463 C467 1.400 . S
C464 H449 0.960 . S
C464 H450 0.960 . S
C464 H451 0.960 . S
C464 C463 1.524 . S
C465 C462 1.403 . S
C465 C466 1.392 . S
C465 C469 1.495 . S
C466 C465 1.392 . S
C466 C467 1.385 . S
C466 C468 1.478 . S
C467 H461 0.930 . S
C467 C463 1.400 . S
C467 C466 1.385 . S
C468 C466 1.478 . S
C468 C470 1.381 . S
C468 C474 1.383 . S
C469 C465 1.495 . S
C469 H475 0.959 . S
C469 H476 0.961 . S
C469 H477 0.960 . S
C470 C468 1.381 . S
C470 C471 1.394 . S
C470 H478 0.930 . S
C471 C470 1.394 . S
C471 C472 1.383 . S
C471 H479 0.929 . S
C472 C471 1.383 . S
C472 C473 1.377 . S
C473 H457 0.930 . S
C473 C472 1.377 . S
C473 C474 1.379 . S
C474 H458 0.931 . S
C474 C468 1.383 . S
C474 C473 1.379 . S
H475 C469 0.959 . S
H476 C469 0.961 . S
H477 C469 0.960 . S
H478 C470 0.930 . S
H479 C471 0.929 . S
H480 C488 0.929 . S
H481 C490 0.930 . S
H482 C492 0.930 . S
H483 C495 0.929 . S
H484 C498 0.930 . S
H485 C500 0.960 . S
H486 C500 0.960 . S
H487 C500 0.960 . S
C488 H480 0.929 . S
C488 C489 1.377 . S
C488 C490 1.384 . S
C489 C488 1.377 . S
C489 C495 1.390 . S
C490 H481 0.930 . S
C490 C488 1.384 . S
C490 C491 1.372 . S
C491 C490 1.372 . S
C491 C492 1.400 . S
C491 C496 1.490 . S
C492 H482 0.930 . S
C492 C491 1.400 . S
C492 C495 1.386 . S
H493 C509 0.930 . S
H494 C510 0.931 . S
C495 H483 0.929 . S
C495 C489 1.390 . S
C495 C492 1.386 . S
C496 C491 1.490 . S
C496 C498 1.395 . S
C496 C499 1.403 . S
H497 C503 0.930 . S
C498 H484 0.930 . S
C498 C496 1.395 . S
C498 C501 1.403 . S
C499 C496 1.403 . S
C499 C500 1.524 . S
C499 C503 1.400 . S
C500 H485 0.960 . S
C500 H486 0.960 . S
C500 H487 0.960 . S
C500 C499 1.524 . S
C501 C498 1.403 . S
C501 C502 1.392 . S
C501 C505 1.495 . S
C502 C501 1.392 . S
C502 C503 1.385 . S
C502 C504 1.478 . S
C503 H497 0.930 . S
C503 C499 1.400 . S
C503 C502 1.385 . S
C504 C502 1.478 . S
C504 C506 1.381 . S
C504 C510 1.383 . S
C505 C501 1.495 . S
C505 H511 0.959 . S
C505 H512 0.961 . S
C505 H513 0.960 . S
C506 C504 1.381 . S
C506 C507 1.394 . S
C506 H514 0.930 . S
C507 C506 1.394 . S
C507 C508 1.383 . S
C507 H515 0.929 . S
C508 C507 1.383 . S
C508 C509 1.377 . S
C509 H493 0.930 . S
C509 C508 1.377 . S
C509 C510 1.379 . S
C510 H494 0.931 . S
C510 C504 1.383 . S
C510 C509 1.379 . S
H511 C505 0.959 . S
H512 C505 0.961 . S
H513 C505 0.960 . S
H514 C506 0.930 . S
H515 C507 0.929 . S
C93 C1 1.719 . S
C112 C54 1.703 . S
C129 C26 1.721 . S
C148 C56 1.730 . S
C165 C40 1.722 . S
C184 C71 1.723 . S
C201 C27 1.720 . S
C220 C57 1.731 . S
C237 C70 1.719 . S
C256 C41 1.732 . S
C273 C55 1.720 . S
C292 C0 1.731 . S
C309 C28 1.812 . S
C328 C12 1.825 . S
C345 C42 1.817 . S
C364 C15 1.811 . S
C381 C29 1.819 . S
C400 C68 1.800 . S
C417 C83 1.818 . S
C436 C43 1.821 . S
C453 C69 1.819 . S
C472 C13 1.801 . S
C489 C82 1.813 . S
C508 C14 1.815 . S
