# Generated by pormake.
# Topology ske, (6)-cn, num edge types: 1
# Building blocks:
#     Node 0, Type 0, BuildingBlock: INOVEN_clean_sbu_0, # of connection points: 6
#     Node 1, Type 0, BuildingBlock: INOVEN_clean_sbu_0, # of connection points: 6
#     Node 2, Type 0, BuildingBlock: INOVEN_clean_sbu_0, # of connection points: 6
#     Node 3, Type 0, BuildingBlock: INOVEN_clean_sbu_0, # of connection points: 6
#     Node 4, Type 0, BuildingBlock: INOVEN_clean_sbu_0, # of connection points: 6
#     Node 5, Type 0, BuildingBlock: INOVEN_clean_sbu_0, # of connection points: 6
#     Node 6, Type 0, BuildingBlock: INOVEN_clean_sbu_0, # of connection points: 6
#     Node 7, Type 0, BuildingBlock: INOVEN_clean_sbu_0, # of connection points: 6
#     Edge 8, Type (0, 0), BuildingBlock: UVAHIK_clean_linker_0, # of connection points: 2
#     Edge 9, Type (0, 0), BuildingBlock: UVAHIK_clean_linker_0, # of connection points: 2
#     Edge 10, Type (0, 0), BuildingBlock: UVAHIK_clean_linker_0, # of connection points: 2
#     Edge 11, Type (0, 0), BuildingBlock: UVAHIK_clean_linker_0, # of connection points: 2
#     Edge 12, Type (0, 0), BuildingBlock: UVAHIK_clean_linker_0, # of connection points: 2
#     Edge 13, Type (0, 0), BuildingBlock: UVAHIK_clean_linker_0, # of connection points: 2
#     Edge 14, Type (0, 0), BuildingBlock: UVAHIK_clean_linker_0, # of connection points: 2
#     Edge 15, Type (0, 0), BuildingBlock: UVAHIK_clean_linker_0, # of connection points: 2
#     Edge 16, Type (0, 0), BuildingBlock: UVAHIK_clean_linker_0, # of connection points: 2
#     Edge 17, Type (0, 0), BuildingBlock: UVAHIK_clean_linker_0, # of connection points: 2
#     Edge 18, Type (0, 0), BuildingBlock: UVAHIK_clean_linker_0, # of connection points: 2
#     Edge 19, Type (0, 0), BuildingBlock: UVAHIK_clean_linker_0, # of connection points: 2
#     Edge 20, Type (0, 0), BuildingBlock: UVAHIK_clean_linker_0, # of connection points: 2
#     Edge 21, Type (0, 0), BuildingBlock: UVAHIK_clean_linker_0, # of connection points: 2
#     Edge 22, Type (0, 0), BuildingBlock: UVAHIK_clean_linker_0, # of connection points: 2
#     Edge 23, Type (0, 0), BuildingBlock: UVAHIK_clean_linker_0, # of connection points: 2
#     Edge 24, Type (0, 0), BuildingBlock: UVAHIK_clean_linker_0, # of connection points: 2
#     Edge 25, Type (0, 0), BuildingBlock: UVAHIK_clean_linker_0, # of connection points: 2
#     Edge 26, Type (0, 0), BuildingBlock: UVAHIK_clean_linker_0, # of connection points: 2
#     Edge 27, Type (0, 0), BuildingBlock: UVAHIK_clean_linker_0, # of connection points: 2
#     Edge 28, Type (0, 0), BuildingBlock: UVAHIK_clean_linker_0, # of connection points: 2
#     Edge 29, Type (0, 0), BuildingBlock: UVAHIK_clean_linker_0, # of connection points: 2
#     Edge 30, Type (0, 0), BuildingBlock: UVAHIK_clean_linker_0, # of connection points: 2
#     Edge 31, Type (0, 0), BuildingBlock: UVAHIK_clean_linker_0, # of connection points: 2
# Relax obj value: 0.197
# Max RMSD: 0.206
# Mean RMSD: 0.199
data_MOF--net-ske--node1-INOVEN_clean_sbu_0--edge1-UVAHIK_clean_linker_0
_symmetry_space_group_name_H-M    P1
_symmetry_Int_Tables_number       1
_symmetry_cell_setting            triclinic
loop_
_symmetry_equiv_pos_as_xyz
'x, y, z'
_cell_length_a     120.0226
_cell_length_b     37.793043
_cell_length_c     20.085486
_cell_angle_alpha  89.894502
_cell_angle_beta   90.030642
_cell_angle_gamma 82.227222
loop_
_atom_site_label
_atom_site_type_symbol
_atom_site_fract_x
_atom_site_fract_y
_atom_site_fract_z
_atom_type_partial_charge
Gd0 Gd 0.15191 0.25777 0.54079 0.0
Gd1 Gd 0.12708 0.24865 0.54632 0.0
C2 C 0.14015 0.2493 0.68391 0.0
C3 C 0.17146 0.27956 0.55025 0.0
C4 C 0.18214 0.27511 0.58817 0.0
C5 C 0.18791 0.2412 0.60369 0.0
C6 C 0.18716 0.30548 0.60393 0.0
C7 C 0.20385 0.26825 0.64662 0.0
C8 C 0.19786 0.30215 0.63288 0.0
C9 C 0.19865 0.23783 0.63255 0.0
C10 C 0.14789 0.18891 0.53396 0.0
C11 C 0.13911 0.25459 0.40288 0.0
C12 C 0.10738 0.2276 0.54117 0.0
C13 C 0.09573 0.23411 0.51565 0.0
C14 C 0.09 0.26876 0.50725 0.0
C15 C 0.08983 0.20485 0.5074 0.0
C16 C 0.07236 0.24464 0.48784 0.0
C17 C 0.07829 0.20999 0.49372 0.0
C18 C 0.07843 0.27397 0.49331 0.0
C19 C 0.13131 0.31774 0.54881 0.0
O20 O 0.14809 0.26308 0.65106 0.0
O21 O 0.13218 0.23534 0.65194 0.0
O22 O 0.16942 0.25298 0.51256 0.0
O23 O 0.16244 0.29567 0.57966 0.0
O24 O 0.15641 0.20079 0.50651 0.0
O25 O 0.14261 0.2129 0.56978 0.0
O26 O 0.13109 0.24141 0.43636 0.0
O27 O 0.1471 0.26893 0.43412 0.0
O28 O 0.11028 0.25006 0.58524 0.0
O29 O 0.11552 0.21605 0.50006 0.0
O30 O 0.12285 0.30657 0.57825 0.0
O31 O 0.13637 0.29278 0.51471 0.0
H32 H 0.18424 0.21728 0.5922 0.0
H33 H 0.18292 0.33189 0.59193 0.0
H34 H 0.20161 0.32616 0.64222 0.0
H35 H 0.20292 0.21133 0.64335 0.0
H36 H 0.09438 0.2918 0.51351 0.0
H37 H 0.09406 0.17789 0.5144 0.0
H38 H 0.07395 0.18673 0.49083 0.0
H39 H 0.07421 0.30102 0.48802 0.0
Gd40 Gd 0.87127 0.25387 0.53911 0.0
Gd41 Gd 0.89604 0.26292 0.5462 0.0
C42 C 0.88279 0.26285 0.68299 0.0
C43 C 0.85158 0.23302 0.54818 0.0
C44 C 0.8409 0.23746 0.58632 0.0
C45 C 0.83422 0.27087 0.59248 0.0
C46 C 0.83677 0.20707 0.61133 0.0
C47 C 0.81917 0.24291 0.64421 0.0
C48 C 0.82606 0.20973 0.64006 0.0
C49 C 0.82348 0.27355 0.62114 0.0
C50 C 0.87544 0.32248 0.53021 0.0
C51 C 0.88431 0.25573 0.40195 0.0
C52 C 0.91575 0.28388 0.54174 0.0
C53 C 0.92738 0.27862 0.51559 0.0
C54 C 0.93411 0.24514 0.51747 0.0
C55 C 0.93232 0.30877 0.49721 0.0
C56 C 0.95075 0.27283 0.4893 0.0
C57 C 0.94386 0.30595 0.48416 0.0
C58 C 0.94568 0.24227 0.50423 0.0
C59 C 0.89177 0.1939 0.55018 0.0
O60 O 0.87487 0.24912 0.64986 0.0
O61 O 0.89084 0.27656 0.65129 0.0
O62 O 0.85373 0.25976 0.51109 0.0
O63 O 0.86057 0.21612 0.57683 0.0
O64 O 0.86717 0.31025 0.5007 0.0
O65 O 0.88048 0.29888 0.56798 0.0
O66 O 0.8923 0.26899 0.43554 0.0
O67 O 0.87625 0.24172 0.43316 0.0
O68 O 0.91295 0.26024 0.58397 0.0
O69 O 0.90748 0.29679 0.50234 0.0
O70 O 0.90014 0.20525 0.58032 0.0
O71 O 0.88682 0.21862 0.51494 0.0
H72 H 0.83713 0.29483 0.57343 0.0
H73 H 0.84171 0.18098 0.60698 0.0
H74 H 0.82313 0.18565 0.65833 0.0
H75 H 0.81841 0.2995 0.62289 0.0
H76 H 0.93054 0.22143 0.53186 0.0
H77 H 0.92733 0.3349 0.49576 0.0
H78 H 0.94744 0.32992 0.47164 0.0
H79 H 0.95073 0.21638 0.50896 0.0
Gd80 Gd 0.12707 0.74898 0.48281 0.0
Gd81 Gd 0.15188 0.75817 0.48866 0.0
C82 C 0.13901 0.75579 0.6263 0.0
C83 C 0.10746 0.72722 0.48788 0.0
C84 C 0.09582 0.73343 0.51346 0.0
C85 C 0.09007 0.76799 0.52252 0.0
C86 C 0.08993 0.70407 0.52093 0.0
C87 C 0.07244 0.74362 0.54096 0.0
C88 C 0.07839 0.70904 0.53446 0.0
C89 C 0.0785 0.77302 0.53629 0.0
C90 C 0.13111 0.81821 0.47976 0.0
C91 C 0.14017 0.74984 0.34531 0.0
C92 C 0.17156 0.77906 0.47933 0.0
C93 C 0.18225 0.7745 0.44154 0.0
C94 C 0.18801 0.74057 0.4264 0.0
C95 C 0.18728 0.80484 0.42548 0.0
C96 C 0.20395 0.76753 0.38316 0.0
C97 C 0.19798 0.80144 0.39657 0.0
C98 C 0.19875 0.73713 0.39756 0.0
C99 C 0.14768 0.68947 0.49717 0.0
O100 O 0.13104 0.74225 0.59299 0.0
O101 O 0.14697 0.7702 0.59482 0.0
O102 O 0.11028 0.74991 0.44385 0.0
O103 O 0.11565 0.71576 0.52892 0.0
O104 O 0.12254 0.80692 0.45173 0.0
O105 O 0.13635 0.79336 0.51361 0.0
O106 O 0.14814 0.76335 0.37826 0.0
O107 O 0.13213 0.7361 0.37714 0.0
O108 O 0.16942 0.75243 0.51671 0.0
O109 O 0.16259 0.79562 0.44998 0.0
O110 O 0.15601 0.70157 0.52633 0.0
O111 O 0.14263 0.71327 0.45988 0.0
H112 H 0.09443 0.7911 0.51684 0.0
H113 H 0.09418 0.67719 0.5134 0.0
H114 H 0.07406 0.68573 0.53673 0.0
H115 H 0.07426 0.80001 0.54208 0.0
H116 H 0.18433 0.71667 0.43814 0.0
H117 H 0.18305 0.83127 0.43719 0.0
H118 H 0.20174 0.82544 0.38701 0.0
H119 H 0.20301 0.71062 0.38703 0.0
Gd120 Gd 0.896 0.76302 0.48274 0.0
Gd121 Gd 0.87124 0.7539 0.48966 0.0
C122 C 0.88426 0.7558 0.6269 0.0
C123 C 0.91571 0.78407 0.48728 0.0
C124 C 0.92737 0.77856 0.51309 0.0
C125 C 0.93407 0.74504 0.51071 0.0
C126 C 0.93237 0.80854 0.53169 0.0
C127 C 0.95078 0.77238 0.53891 0.0
C128 C 0.94392 0.80552 0.54451 0.0
C129 C 0.94565 0.74197 0.52371 0.0
C130 C 0.89182 0.69397 0.47916 0.0
C131 C 0.88274 0.76307 0.34585 0.0
C132 C 0.85154 0.73303 0.48101 0.0
C133 C 0.8409 0.73718 0.44259 0.0
C134 C 0.8353 0.77094 0.42464 0.0
C135 C 0.83575 0.70681 0.42897 0.0
C136 C 0.81924 0.74383 0.38362 0.0
C137 C 0.82507 0.71003 0.39976 0.0
C138 C 0.82458 0.77422 0.39551 0.0
C139 C 0.87546 0.82249 0.49865 0.0
O140 O 0.89225 0.76912 0.59331 0.0
O141 O 0.87621 0.74174 0.59573 0.0
O142 O 0.91287 0.76082 0.44453 0.0
O143 O 0.90748 0.79657 0.52716 0.0
O144 O 0.90019 0.7054 0.44923 0.0
O145 O 0.88678 0.71862 0.51409 0.0
O146 O 0.87482 0.74929 0.37895 0.0
O147 O 0.89079 0.77675 0.37758 0.0
O148 O 0.85366 0.7602 0.51682 0.0
O149 O 0.86054 0.7159 0.45302 0.0
O150 O 0.8672 0.81022 0.52831 0.0
O151 O 0.88043 0.79893 0.46076 0.0
H152 H 0.93046 0.72146 0.49612 0.0
H153 H 0.9274 0.8347 0.53353 0.0
H154 H 0.94753 0.82938 0.55725 0.0
H155 H 0.95067 0.71607 0.51862 0.0
H156 H 0.83907 0.79487 0.43445 0.0
H157 H 0.83986 0.68052 0.44287 0.0
H158 H 0.82121 0.68607 0.39214 0.0
H159 H 0.82043 0.80062 0.38283 0.0
Gd160 Gd 0.65201 0.75703 0.04527 0.0
Gd161 Gd 0.62724 0.74809 0.05217 0.0
C162 C 0.64052 0.74773 0.18903 0.0
C163 C 0.67169 0.77795 0.05423 0.0
C164 C 0.68228 0.7738 0.09307 0.0
C165 C 0.68785 0.74005 0.11144 0.0
C166 C 0.68744 0.80416 0.1068 0.0
C167 C 0.70387 0.76712 0.15304 0.0
C168 C 0.69808 0.80092 0.1365 0.0
C169 C 0.69853 0.73676 0.14105 0.0
C170 C 0.64782 0.68847 0.03592 0.0
C171 C 0.639 0.75499 0.908 0.0
C172 C 0.6075 0.72728 0.04798 0.0
C173 C 0.59584 0.73358 0.02261 0.0
C174 C 0.59004 0.76817 1.01426 0.0
C175 C 0.58997 0.70421 0.01477 0.0
C176 C 0.57243 0.74377 0.99581 0.0
C177 C 0.57841 0.70918 1.00158 0.0
C178 C 0.57846 0.7732 1.00083 0.0
C179 C 0.63153 0.81715 0.05542 0.0
O180 O 0.64843 0.76153 0.15599 0.0
O181 O 0.63247 0.73412 0.15722 0.0
O182 O 0.6696 0.75073 0.01847 0.0
O183 O 0.66267 0.79514 0.08188 0.0
O184 O 0.65609 0.70082 1.00657 0.0
O185 O 0.64278 0.71192 0.07387 0.0
O186 O 0.63101 0.74173 0.94165 0.0
O187 O 0.64705 0.76908 0.93914 0.0
O188 O 0.61043 0.75014 0.09118 0.0
O189 O 0.61563 0.71519 1.00719 0.0
O190 O 0.62315 0.80585 0.08555 0.0
O191 O 0.63648 0.79234 0.0206 0.0
H192 H 0.68406 0.71614 0.10158 0.0
H193 H 0.68336 0.83045 0.09261 0.0
H194 H 0.70195 0.82487 0.14419 0.0
H195 H 0.70264 0.71036 0.15402 0.0
H196 H 0.59439 0.79129 0.02024 0.0
H197 H 0.59424 0.67731 0.02178 0.0
H198 H 0.5741 0.68585 0.99902 0.0
H199 H 0.5742 0.8002 0.9956 0.0
Gd200 Gd 0.3711 0.75505 0.0447 0.0
Gd201 Gd 0.39588 0.76382 0.05174 0.0
C202 C 0.3826 0.76413 0.18852 0.0
C203 C 0.3514 0.73425 0.05375 0.0
C204 C 0.34081 0.73848 0.09259 0.0
C205 C 0.33511 0.7723 0.10913 0.0
C206 C 0.3358 0.70804 0.10815 0.0
C207 C 0.31924 0.74508 0.15253 0.0
C208 C 0.32516 0.71125 0.13785 0.0
C209 C 0.32444 0.77555 0.13871 0.0
C210 C 0.37533 0.82358 0.0352 0.0
C211 C 0.38412 0.75702 0.9075 0.0
C212 C 0.41564 0.78446 0.04752 0.0
C213 C 0.42733 0.77888 0.02222 0.0
C214 C 0.43398 0.74529 0.02477 0.0
C215 C 0.43238 0.80884 1.00403 0.0
C216 C 0.45076 0.77251 0.99753 0.0
C217 C 0.44394 0.80573 0.99177 0.0
C218 C 0.44558 0.74213 1.01232 0.0
C219 C 0.39154 0.69482 0.05528 0.0
O220 O 0.37468 0.75045 0.15546 0.0
O221 O 0.39068 0.77767 0.15676 0.0
O222 O 0.35351 0.76144 0.01773 0.0
O223 O 0.36042 0.71701 0.08151 0.0
O224 O 0.36705 0.81131 1.0058 0.0
O225 O 0.38035 0.80006 0.07325 0.0
O226 O 0.39213 0.77015 0.94112 0.0
O227 O 0.37604 0.74304 0.93865 0.0
O228 O 0.41274 0.76125 0.09028 0.0
O229 O 0.40746 0.79709 1.00731 0.0
O230 O 0.39992 0.70604 0.0855 0.0
O231 O 0.38661 0.71968 0.02027 0.0
H232 H 0.33878 0.79627 0.09784 0.0
H233 H 0.33998 0.6817 0.09539 0.0
H234 H 0.3214 0.68722 0.147 0.0
H235 H 0.32022 0.80198 0.15022 0.0
H236 H 0.43033 0.72172 0.03907 0.0
H237 H 0.42744 0.83505 1.00209 0.0
H238 H 0.4476 0.82957 0.97935 0.0
H239 H 0.45057 0.71616 0.0175 0.0
Gd240 Gd 0.62717 0.24832 0.97807 0.0
Gd241 Gd 0.65194 0.25708 0.98496 0.0
C242 C 0.63895 0.25517 0.1222 0.0
C243 C 0.60744 0.22744 0.98238 0.0
C244 C 0.59579 0.2337 1.00772 0.0
C245 C 0.58999 0.26828 0.01596 0.0
C246 C 0.58992 0.20432 0.01563 0.0
C247 C 0.57238 0.24384 0.03444 0.0
C248 C 0.57837 0.20927 0.02878 0.0
C249 C 0.57841 0.27329 0.02935 0.0
C250 C 0.63143 0.31736 0.97463 0.0
C251 C 0.64041 0.24811 0.84121 0.0
C252 C 0.67168 0.27758 0.97571 0.0
C253 C 0.6823 0.27329 0.93692 0.0
C254 C 0.689 0.23994 0.9304 0.0
C255 C 0.68636 0.30376 0.91169 0.0
C256 C 0.70394 0.26812 0.8779 0.0
C257 C 0.69702 0.30123 0.88239 0.0
C258 C 0.69969 0.2374 0.90118 0.0
C259 C 0.64766 0.18856 0.99463 0.0
O260 O 0.63096 0.2419 0.08863 0.0
O261 O 0.647 0.26925 0.09097 0.0
O262 O 0.61036 0.25033 0.93905 0.0
O263 O 0.61559 0.21536 0.02324 0.0
O264 O 0.62304 0.30609 0.94468 0.0
O265 O 0.63645 0.29255 1.00943 0.0
O266 O 0.64834 0.26182 0.87424 0.0
O267 O 0.63236 0.23451 0.87303 0.0
O268 O 0.66953 0.25057 1.01207 0.0
O269 O 0.66267 0.29492 0.94801 0.0
O270 O 0.65592 0.20082 0.02418 0.0
O271 O 0.6427 0.21209 0.95642 0.0
H272 H 0.59434 0.29141 1.00993 0.0
H273 H 0.59419 0.17743 1.00871 0.0
H274 H 0.57405 0.18593 0.03139 0.0
H275 H 0.57415 0.30028 0.0345 0.0
H276 H 0.68615 0.21592 0.94961 0.0
H277 H 0.68139 0.3298 0.9163 0.0
H278 H 0.6999 0.32537 0.86399 0.0
H279 H 0.70479 0.2115 0.89918 0.0
Gd280 Gd 0.39584 0.26396 0.97815 0.0
Gd281 Gd 0.37109 0.25507 0.98501 0.0
C282 C 0.38409 0.25696 0.12229 0.0
C283 C 0.41557 0.28482 0.98252 0.0
C284 C 0.42727 0.27918 1.00776 0.0
C285 C 0.43392 0.24557 1.00528 0.0
C286 C 0.43233 0.3091 0.02585 0.0
C287 C 0.45071 0.27271 0.03241 0.0
C288 C 0.4439 0.30594 0.03808 0.0
C289 C 0.44552 0.24236 0.01771 0.0
C290 C 0.39161 0.1949 0.97491 0.0
C291 C 0.38259 0.26424 0.84124 0.0
C292 C 0.35137 0.2344 0.97596 0.0
C293 C 0.34078 0.23874 0.93707 0.0
C294 C 0.33507 0.2726 0.92065 0.0
C295 C 0.33577 0.20834 0.92136 0.0
C296 C 0.31919 0.24551 0.87709 0.0
C297 C 0.32512 0.21164 0.89163 0.0
C298 C 0.32439 0.27594 0.89105 0.0
C299 C 0.37534 0.32361 0.99442 0.0
O300 O 0.39208 0.27023 0.08867 0.0
O301 O 0.37604 0.24289 0.09111 0.0
O302 O 0.41268 0.26181 0.93949 0.0
O303 O 0.4074 0.29714 0.02291 0.0
O304 O 0.39999 0.20625 0.94488 0.0
O305 O 0.38659 0.21965 1.00966 0.0
O306 O 0.37467 0.25049 0.87431 0.0
O307 O 0.39064 0.27783 0.87302 0.0
O308 O 0.3535 0.26152 1.01191 0.0
O309 O 0.36038 0.21713 0.9483 0.0
O310 O 0.36708 0.31129 0.02398 0.0
O311 O 0.3803 0.30012 0.95632 0.0
H312 H 0.43025 0.22204 0.99106 0.0
H313 H 0.42741 0.33532 0.02774 0.0
H314 H 0.44757 0.32975 0.05043 0.0
H315 H 0.4505 0.21639 1.0126 0.0
H316 H 0.33874 0.29655 0.93205 0.0
H317 H 0.33995 0.18196 0.93402 0.0
H318 H 0.32136 0.18763 0.88237 0.0
H319 H 0.32016 0.30241 0.87963 0.0
C320 C 0.22394 0.23814 0.6486 0.0
C321 C 0.21561 0.26479 0.67288 0.0
C322 C 0.23508 0.23594 0.6707 0.0
C323 C 0.25507 0.28995 0.75025 0.0
H324 H 0.27288 0.19787 0.78053 0.0
C325 C 0.29913 0.27574 0.87399 0.0
C326 C 0.30747 0.24898 0.85025 0.0
C327 C 0.288 0.27794 0.85145 0.0
C328 C 0.26808 0.22383 0.77152 0.0
H329 H 0.21252 0.3094 0.7412 0.0
H330 H 0.23192 0.3055 0.77985 0.0
H331 H 0.25337 0.20072 0.74459 0.0
H332 H 0.31061 0.20418 0.78242 0.0
H333 H 0.29126 0.20811 0.74291 0.0
H334 H 0.26977 0.31306 0.77716 0.0
C335 C 0.22987 0.28666 0.74271 0.0
C336 C 0.25687 0.22546 0.75093 0.0
C337 C 0.21872 0.28887 0.72059 0.0
C338 C 0.3044 0.2248 0.80259 0.0
C339 C 0.29328 0.22703 0.78 0.0
C340 C 0.26628 0.28832 0.77082 0.0
C341 C 0.23823 0.26032 0.71774 0.0
C342 C 0.25019 0.25854 0.74005 0.0
C343 C 0.2849 0.25347 0.80445 0.0
C344 C 0.27296 0.25523 0.78179 0.0
H345 H 0.22191 0.21949 0.61104 0.0
H346 H 0.2413 0.21561 0.64959 0.0
H347 H 0.25027 0.3159 0.74129 0.0
H348 H 0.30111 0.29447 0.91149 0.0
H349 H 0.28178 0.29835 0.8722 0.0
C350 C 0.72038 0.23694 0.81232 0.0
C351 C 0.71569 0.26591 0.85177 0.0
C352 C 0.73151 0.23454 0.7896 0.0
C353 C 0.75864 0.26818 0.82448 0.0
H354 H 0.76637 0.23402 0.64637 0.0
C355 C 0.80268 0.27429 0.70918 0.0
C356 C 0.80739 0.24527 0.66987 0.0
C357 C 0.79154 0.27678 0.73163 0.0
C358 C 0.7644 0.24323 0.69656 0.0
H359 H 0.71918 0.31496 0.89851 0.0
H360 H 0.7384 0.3112 0.85778 0.0
H361 H 0.74694 0.23838 0.68421 0.0
H362 H 0.80388 0.19626 0.62301 0.0
H363 H 0.78463 0.20018 0.66329 0.0
H364 H 0.7761 0.27302 0.83685 0.0
C365 C 0.73353 0.29008 0.8449 0.0
C366 C 0.75323 0.24573 0.7183 0.0
C367 C 0.72242 0.29248 0.86754 0.0
C368 C 0.80064 0.21877 0.6539 0.0
C369 C 0.78951 0.22127 0.67628 0.0
C370 C 0.76981 0.26568 0.80275 0.0
C371 C 0.73826 0.26101 0.80583 0.0
C372 C 0.75018 0.25826 0.78257 0.0
C373 C 0.78478 0.25036 0.71529 0.0
C374 C 0.77285 0.25315 0.73848 0.0
H375 H 0.71545 0.21611 0.79864 0.0
H376 H 0.73487 0.21159 0.76016 0.0
H377 H 0.75667 0.27738 0.87468 0.0
H378 H 0.80763 0.29507 0.723 0.0
H379 H 0.78818 0.29975 0.76102 0.0
C380 C 0.30446 0.72414 0.22692 0.0
C381 C 0.30752 0.74847 0.17937 0.0
C382 C 0.29335 0.7263 0.24954 0.0
C383 C 0.26636 0.78762 0.25891 0.0
H384 H 0.25345 0.69998 0.28512 0.0
C385 C 0.21882 0.78812 0.309 0.0
C386 C 0.21571 0.76402 0.35684 0.0
C387 C 0.22996 0.78592 0.28689 0.0
C388 C 0.25695 0.72473 0.27878 0.0
H389 H 0.30115 0.79416 0.11832 0.0
H390 H 0.28183 0.79793 0.15762 0.0
H391 H 0.27294 0.6972 0.24914 0.0
H392 H 0.22202 0.71865 0.41884 0.0
H393 H 0.2414 0.71476 0.38024 0.0
H394 H 0.25036 0.81515 0.28846 0.0
C395 C 0.28806 0.77746 0.1783 0.0
C396 C 0.26816 0.72314 0.25817 0.0
C397 C 0.29918 0.77532 0.15575 0.0
C398 C 0.22404 0.73732 0.38119 0.0
C399 C 0.23518 0.73512 0.35907 0.0
C400 C 0.25515 0.78921 0.27948 0.0
C401 C 0.28496 0.75284 0.2252 0.0
C402 C 0.27303 0.75456 0.2479 0.0
C403 C 0.23832 0.75955 0.31195 0.0
C404 C 0.25028 0.7578 0.28968 0.0
H405 H 0.31069 0.70344 0.24701 0.0
H406 H 0.29135 0.70727 0.28655 0.0
H407 H 0.26985 0.81238 0.25259 0.0
H408 H 0.21261 0.80869 0.28831 0.0
H409 H 0.232 0.80479 0.24968 0.0
C410 C 0.71877 0.78852 0.22588 0.0
C411 C 0.71559 0.76362 0.17994 0.0
C412 C 0.72989 0.78625 0.24842 0.0
C413 C 0.75666 0.72411 0.26142 0.0
H414 H 0.76997 0.81143 0.28125 0.0
C415 C 0.80428 0.72242 0.31128 0.0
C416 C 0.80749 0.74729 0.35716 0.0
C417 C 0.79314 0.72468 0.2891 0.0
C418 C 0.76637 0.78678 0.27672 0.0
H419 H 0.72178 0.71677 0.12176 0.0
H420 H 0.74112 0.71279 0.161 0.0
H421 H 0.75046 0.81441 0.24541 0.0
H422 H 0.80134 0.79406 0.41566 0.0
H423 H 0.78196 0.79802 0.37701 0.0
H424 H 0.77257 0.69648 0.29269 0.0
C425 C 0.73497 0.73383 0.18043 0.0
C426 C 0.75515 0.78849 0.25618 0.0
C427 C 0.72384 0.73609 0.15793 0.0
C428 C 0.79925 0.77477 0.37951 0.0
C429 C 0.78811 0.77702 0.35736 0.0
C430 C 0.76788 0.7224 0.28194 0.0
C431 C 0.73818 0.75902 0.22565 0.0
C432 C 0.75013 0.75718 0.24821 0.0
C433 C 0.78487 0.75186 0.31217 0.0
C434 C 0.7729 0.75371 0.28987 0.0
H435 H 0.71263 0.80976 0.24474 0.0
H436 H 0.73198 0.80575 0.28414 0.0
H437 H 0.75306 0.69946 0.25687 0.0
H438 H 0.81041 0.70123 0.29216 0.0
H439 H 0.79102 0.7052 0.25339 0.0
C440 C 0.14275 0.86595 0.51164 0.0
C441 C 0.13271 0.85631 0.48555 0.0
C442 C 0.14423 0.90199 0.5172 0.0
C443 C 0.13122 0.98918 0.55208 0.0
H444 H 0.15177 0.02799 0.43214 0.0
C445 C 0.13555 0.14076 0.55026 0.0
C446 C 0.14593 0.15103 0.53179 0.0
C447 C 0.1337 0.10496 0.54494 0.0
C448 C 0.14616 0.01769 0.46715 0.0
H449 H 0.1163 0.87687 0.44591 0.0
H450 H 0.11879 0.93997 0.45794 0.0
H451 H 0.14928 0.96521 0.4244 0.0
H452 H 0.16263 0.13178 0.49561 0.0
H453 H 0.15974 0.06957 0.49018 0.0
H454 H 0.1284 0.04083 0.5972 0.0
C455 C 0.12553 0.91951 0.47299 0.0
C456 C 0.14468 0.98167 0.46206 0.0
C457 C 0.12414 0.88346 0.46595 0.0
C458 C 0.1545 0.12474 0.50957 0.0
C459 C 0.15276 0.08894 0.50578 0.0
C460 C 0.13288 0.02508 0.55829 0.0
C461 C 0.13561 0.92904 0.49834 0.0
C462 C 0.13718 0.96715 0.50431 0.0
C463 C 0.14228 0.07839 0.52243 0.0
C464 C 0.14039 0.04001 0.51587 0.0
H465 H 0.14947 0.84563 0.52744 0.0
H466 H 0.15208 0.90878 0.53691 0.0
H467 H 0.12542 0.97843 0.58538 0.0
H468 H 0.12879 0.1605 0.56749 0.0
H469 H 0.12545 0.09838 0.5574 0.0
C470 C 0.88622 0.37253 0.56295 0.0
C471 C 0.87756 0.36017 0.52621 0.0
C472 C 0.88797 0.40847 0.55903 0.0
C473 C 0.89356 0.48151 0.51276 0.0
H474 H 0.86746 0.55401 0.50251 0.0
C475 C 0.89717 0.62943 0.44978 0.0
C476 C 0.89011 0.65594 0.48422 0.0
C477 C 0.89575 0.59337 0.45602 0.0
C478 C 0.87486 0.53421 0.50587 0.0
H479 H 0.8641 0.37553 0.45568 0.0
H480 H 0.86718 0.43777 0.44831 0.0
H481 H 0.86491 0.49146 0.51342 0.0
H482 H 0.87598 0.66551 0.55187 0.0
H483 H 0.87354 0.60267 0.56326 0.0
H484 H 0.9035 0.52443 0.5063 0.0
C485 C 0.87251 0.4201 0.48114 0.0
C486 C 0.8734 0.49819 0.51134 0.0
C487 C 0.87078 0.3843 0.48503 0.0
C488 C 0.88154 0.64568 0.5246 0.0
C489 C 0.88011 0.60964 0.53084 0.0
C490 C 0.89503 0.51758 0.50719 0.0
C491 C 0.88108 0.4328 0.51834 0.0
C492 C 0.88272 0.47129 0.5145 0.0
C493 C 0.88722 0.58293 0.49678 0.0
C494 C 0.88569 0.54445 0.50345 0.0
H495 H 0.89159 0.35449 0.59499 0.0
H496 H 0.89459 0.41732 0.58875 0.0
H497 H 0.90094 0.46157 0.51453 0.0
H498 H 0.90382 0.63654 0.41809 0.0
H499 H 0.90127 0.57369 0.42821 0.0
C500 C 0.88623 0.87258 0.4657 0.0
C501 C 0.87759 0.86016 0.50254 0.0
C502 C 0.88797 0.90853 0.46955 0.0
C503 C 0.89357 0.98152 0.51585 0.0
H504 H 0.86745 0.05395 0.52588 0.0
C505 C 0.89711 0.12928 0.57948 0.0
C506 C 0.89007 0.15588 0.54496 0.0
C507 C 0.89571 0.09323 0.57306 0.0
C508 C 0.87485 0.03417 0.52258 0.0
H509 H 0.86415 0.87541 0.57313 0.0
H510 H 0.86723 0.93763 0.58032 0.0
H511 H 0.86492 0.9914 0.51487 0.0
H512 H 0.87596 0.16562 0.477 0.0
H513 H 0.87354 0.1028 0.4653 0.0
H514 H 0.9035 0.02446 0.52252 0.0
C515 C 0.87255 0.92002 0.5475 0.0
C516 C 0.8734 0.99815 0.51704 0.0
C517 C 0.87083 0.88422 0.5437 0.0
C518 C 0.88151 0.14572 0.50432 0.0
C519 C 0.8801 0.10969 0.49791 0.0
C520 C 0.89503 0.01759 0.5215 0.0
C521 C 0.8811 0.93279 0.51022 0.0
C522 C 0.88273 0.97128 0.51398 0.0
C523 C 0.8872 0.0829 0.53202 0.0
C524 C 0.88568 0.04443 0.52518 0.0
H525 H 0.89159 0.8546 0.43368 0.0
H526 H 0.89459 0.91743 0.43978 0.0
H527 H 0.90095 0.9616 0.51414 0.0
H528 H 0.90375 0.13632 0.61137 0.0
H529 H 0.90122 0.07348 0.60091 0.0
C530 C 0.13689 0.63946 0.46409 0.0
C531 C 0.14557 0.65173 0.50075 0.0
C532 C 0.13515 0.60347 0.46764 0.0
C533 C 0.12961 0.53021 0.51313 0.0
H534 H 0.15571 0.45773 0.52352 0.0
C535 C 0.12595 0.38244 0.57693 0.0
C536 C 0.13305 0.35575 0.54312 0.0
C537 C 0.12738 0.41847 0.57024 0.0
C538 C 0.14832 0.47751 0.52008 0.0
H539 H 0.15909 0.63614 0.57073 0.0
H540 H 0.15604 0.57387 0.5775 0.0
H541 H 0.15826 0.52028 0.51253 0.0
H542 H 0.14726 0.34587 0.47613 0.0
H543 H 0.14971 0.40868 0.4639 0.0
H544 H 0.11967 0.48728 0.51959 0.0
C545 C 0.15068 0.59163 0.54497 0.0
C546 C 0.14978 0.51355 0.51458 0.0
C547 C 0.15239 0.62746 0.54144 0.0
C548 C 0.14166 0.36583 0.5029 0.0
C549 C 0.1431 0.40187 0.49619 0.0
C550 C 0.12815 0.49412 0.5187 0.0
C551 C 0.14209 0.579 0.50787 0.0
C552 C 0.14045 0.54047 0.51145 0.0
C553 C 0.13595 0.42875 0.52962 0.0
C554 C 0.13748 0.46725 0.52256 0.0
H555 H 0.13148 0.6576 0.4324 0.0
H556 H 0.12851 0.59472 0.43799 0.0
H557 H 0.12223 0.55013 0.51137 0.0
H558 H 0.11926 0.37548 0.60851 0.0
H559 H 0.12183 0.43826 0.59763 0.0
C560 C 0.65241 0.62705 0.98934 0.0
C561 C 0.64566 0.65084 0.03105 0.0
C562 C 0.65065 0.59132 0.98445 0.0
C563 C 0.62958 0.52964 1.01408 0.0
H564 H 0.65569 0.45729 1.00188 0.0
C565 C 0.6417 0.36534 0.02117 0.0
C566 C 0.63311 0.3554 0.98056 0.0
C567 C 0.64309 0.40134 0.02842 0.0
C568 C 0.64829 0.47703 1.00578 0.0
H569 H 0.63163 0.65598 0.09973 0.0
H570 H 0.62858 0.59323 0.09174 0.0
H571 H 0.65823 0.51969 0.01476 0.0
H572 H 0.61933 0.37535 0.91508 0.0
H573 H 0.62183 0.43816 0.92697 0.0
H574 H 0.61965 0.48677 1.00619 0.0
C575 C 0.63521 0.60231 0.06238 0.0
C576 C 0.64975 0.51299 1.01238 0.0
C577 C 0.63699 0.6382 0.06731 0.0
C578 C 0.626 0.3822 0.94691 0.0
C579 C 0.62739 0.41824 0.95417 0.0
C580 C 0.62812 0.49362 1.00738 0.0
C581 C 0.64208 0.57831 0.02116 0.0
C582 C 0.64043 0.53986 0.01626 0.0
C583 C 0.63594 0.42835 0.99517 0.0
C584 C 0.63746 0.46679 1.00292 0.0
H585 H 0.6591 0.63603 0.96031 0.0
H586 H 0.65596 0.57395 0.95121 0.0
H587 H 0.62221 0.54955 0.01639 0.0
H588 H 0.6473 0.34529 0.04786 0.0
H589 H 0.64968 0.40802 0.06102 0.0
C590 C 0.37072 0.88512 0.98878 0.0
C591 C 0.37748 0.86123 0.03046 0.0
C592 C 0.37247 0.92087 0.98404 0.0
C593 C 0.39351 0.98252 1.01401 0.0
H594 H 0.36739 0.05486 1.00201 0.0
C595 C 0.38137 0.1468 0.02147 0.0
C596 C 0.38994 0.15685 0.98083 0.0
C597 C 0.37998 0.11077 0.02868 0.0
C598 C 0.37479 0.03512 1.00585 0.0
H599 H 0.39151 0.85593 0.09923 0.0
H600 H 0.39454 0.91871 0.0915 0.0
H601 H 0.36486 0.9924 1.01467 0.0
H602 H 0.40369 0.13709 0.91525 0.0
H603 H 0.4012 0.07424 0.92706 0.0
H604 H 0.40343 0.02545 1.00626 0.0
C605 C 0.38791 0.9097 0.06205 0.0
C606 C 0.37334 0.99914 1.01234 0.0
C607 C 0.38615 0.87378 0.06684 0.0
C608 C 0.39703 0.13014 0.94711 0.0
C609 C 0.39565 0.09408 0.95432 0.0
C610 C 0.39496 0.01858 1.00742 0.0
C611 C 0.38103 0.9338 0.02087 0.0
C612 C 0.38267 0.97227 0.01613 0.0
C613 C 0.38712 0.08386 0.99535 0.0
C614 C 0.38562 0.04539 1.00303 0.0
H615 H 0.36403 0.87621 0.95965 0.0
H616 H 0.36714 0.93834 0.95082 0.0
H617 H 0.40089 0.96262 0.01626 0.0
H618 H 0.37578 0.16677 0.04822 0.0
H619 H 0.3734 0.10399 0.06129 0.0
C620 C 0.37072 0.38511 0.04049 0.0
C621 C 0.37748 0.36126 0.99895 0.0
C622 C 0.37245 0.42086 0.04507 0.0
C623 C 0.3733 0.49915 0.01643 0.0
H624 H 0.40338 0.52551 0.02337 0.0
C625 C 0.38133 0.64688 1.0081 0.0
C626 C 0.38986 0.6568 0.04913 0.0
C627 C 0.37994 0.61087 1.00065 0.0
C628 C 0.39492 0.51863 0.02195 0.0
H629 H 0.3915 0.35604 0.93025 0.0
H630 H 0.39452 0.41885 0.93774 0.0
H631 H 0.40086 0.46269 1.01318 0.0
H632 H 0.40356 0.63683 0.11514 0.0
H633 H 0.40109 0.57402 0.10288 0.0
H634 H 0.36734 0.55485 0.02668 0.0
C635 C 0.38789 0.40979 0.96718 0.0
C636 C 0.39348 0.48258 0.01526 0.0
C637 C 0.38614 0.37386 0.96253 0.0
C638 C 0.39693 0.62999 0.08299 0.0
C639 C 0.39556 0.59395 0.07552 0.0
C640 C 0.37474 0.53513 0.023 0.0
C641 C 0.38101 0.43384 1.00822 0.0
C642 C 0.38264 0.47232 1.01287 0.0
C643 C 0.38706 0.58385 0.03409 0.0
C644 C 0.38557 0.54541 0.02616 0.0
H645 H 0.36404 0.37616 0.06964 0.0
H646 H 0.36713 0.43829 0.07818 0.0
H647 H 0.36483 0.4924 1.01388 0.0
H648 H 0.37576 0.66694 0.98125 0.0
H649 H 0.37339 0.60419 0.96775 0.0
C650 C 0.63687 0.13834 0.96264 0.0
C651 C 0.64552 0.15089 0.99917 0.0
C652 C 0.63512 0.1024 0.96726 0.0
C653 C 0.62954 0.02949 0.01524 0.0
H654 H 0.65569 0.95724 0.02705 0.0
C655 C 0.62611 0.88194 0.08293 0.0
C656 C 0.63319 0.85519 0.04922 0.0
C657 C 0.62747 0.91799 0.07545 0.0
C658 C 0.64828 0.97696 0.02325 0.0
H659 H 0.65896 0.13588 0.07003 0.0
H660 H 0.65587 0.07372 0.07853 0.0
H661 H 0.65819 0.01973 1.0143 0.0
H662 H 0.64731 0.84521 0.98159 0.0
H663 H 0.64967 0.90798 0.96807 0.0
H664 H 0.61964 0.98652 0.02318 0.0
C665 C 0.65055 0.0912 0.04536 0.0
C666 C 0.64972 0.01296 0.01671 0.0
C667 C 0.65228 0.12697 0.0408 0.0
C668 C 0.64173 0.86521 1.00832 0.0
C669 C 0.64311 0.90123 1.00086 0.0
C670 C 0.62811 0.99343 0.02189 0.0
C671 C 0.642 0.07828 1.00839 0.0
C672 C 0.64038 0.03979 1.01302 0.0
C673 C 0.63598 0.92818 0.03417 0.0
C674 C 0.63746 0.96665 0.02625 0.0
H675 H 0.6315 0.15621 0.93029 0.0
H676 H 0.6285 0.09338 0.93774 0.0
H677 H 0.62215 0.04937 1.01305 0.0
H678 H 0.61947 0.87502 0.11498 0.0
H679 H 0.62193 0.93786 0.10271 0.0
C680 C 0.14735 0.26882 0.29295 0.0
C681 C 0.13898 0.25439 0.32903 0.0
C682 C 0.14741 0.26819 0.22338 0.0
C683 C 0.13686 0.22181 0.07929 0.0
H684 H 0.14424 0.30387 0.9808 0.0
C685 C 0.13194 0.23399 0.7934 0.0
C686 C 0.14032 0.24864 0.75777 0.0
C687 C 0.13186 0.23427 0.863 0.0
C688 C 0.1423 0.28055 1.00753 0.0
H689 H 0.12407 0.22808 0.31992 0.0
H690 H 0.12412 0.2273 0.19841 0.0
H691 H 0.14372 0.30559 0.10207 0.0
H692 H 0.15525 0.2748 0.7677 0.0
H693 H 0.15516 0.27497 0.88914 0.0
H694 H 0.13543 0.19678 0.98469 0.0
C695 C 0.13072 0.23874 0.22407 0.0
C696 C 0.14199 0.28155 0.0771 0.0
C697 C 0.13065 0.2394 0.29377 0.0
C698 C 0.14866 0.26334 0.79348 0.0
C699 C 0.14857 0.26365 0.86316 0.0
C700 C 0.13717 0.22081 1.00968 0.0
C701 C 0.13911 0.2531 0.18802 0.0
C702 C 0.13928 0.25218 0.11389 0.0
C703 C 0.14014 0.24924 0.89879 0.0
C704 C 0.1399 0.25016 0.97292 0.0
H705 H 0.15393 0.28046 0.31837 0.0
H706 H 0.15409 0.27903 0.19732 0.0
H707 H 0.13492 0.1985 0.10603 0.0
H708 H 0.12536 0.22256 0.7676 0.0
H709 H 0.12517 0.22335 0.88876 0.0
C710 C 0.89277 0.2709 0.29272 0.0
C711 C 0.88448 0.2557 0.32809 0.0
C712 C 0.89266 0.27168 0.22301 0.0
C713 C 0.88129 0.22924 0.07599 0.0
H714 H 0.88751 0.31471 0.9841 0.0
C715 C 0.87429 0.24855 0.79254 0.0
C716 C 0.88258 0.26351 0.75685 0.0
C717 C 0.87441 0.24803 0.86224 0.0
C718 C 0.88587 0.29049 1.00894 0.0
H719 H 0.8696 0.22926 0.31761 0.0
H720 H 0.86938 0.23089 0.1966 0.0
H721 H 0.88823 0.31236 0.10539 0.0
H722 H 0.89747 0.28995 0.76674 0.0
H723 H 0.89772 0.28879 0.88784 0.0
H724 H 0.87893 0.20736 0.97957 0.0
C725 C 0.87605 0.24183 0.22255 0.0
C726 C 0.88629 0.28913 0.07852 0.0
C727 C 0.87615 0.24108 0.29211 0.0
C728 C 0.89092 0.27829 0.79251 0.0
C729 C 0.89104 0.27781 0.8621 0.0
C730 C 0.88086 0.2306 1.00643 0.0
C731 C 0.88427 0.25723 0.18707 0.0
C732 C 0.884 0.2585 0.11294 0.0
C733 C 0.88282 0.26251 0.89788 0.0
C734 C 0.88314 0.26125 0.97201 0.0
H735 H 0.89932 0.28238 0.31879 0.0
H736 H 0.8992 0.28336 0.19724 0.0
H737 H 0.87965 0.20501 0.10081 0.0
H738 H 0.86773 0.23697 0.76673 0.0
H739 H 0.86787 0.23645 0.88824 0.0
C740 C 0.1487 0.76399 0.23581 0.0
C741 C 0.14034 0.74927 0.27145 0.0
C742 C 0.14861 0.76441 0.16612 0.0
C743 C 0.1372 0.72183 0.01957 0.0
H744 H 0.14371 0.80678 0.92706 0.0
C745 C 0.13057 0.74072 0.73556 0.0
C746 C 0.13888 0.75576 0.70016 0.0
C747 C 0.13066 0.74005 0.80526 0.0
C748 C 0.14199 0.7827 0.95206 0.0
H749 H 0.12537 0.72325 0.26149 0.0
H750 H 0.12519 0.72424 0.14033 0.0
H751 H 0.14427 0.80484 0.04834 0.0
H752 H 0.1538 0.78196 0.71055 0.0
H753 H 0.154 0.78051 0.83163 0.0
H754 H 0.13492 0.69967 0.92327 0.0
C755 C 0.13189 0.73509 0.16615 0.0
C756 C 0.14232 0.78157 0.02164 0.0
C757 C 0.13197 0.7347 0.23575 0.0
C758 C 0.14724 0.77028 0.73609 0.0
C759 C 0.14732 0.76963 0.80567 0.0
C760 C 0.13687 0.72294 0.94997 0.0
C761 C 0.14018 0.75009 0.13043 0.0
C762 C 0.13993 0.75112 0.05629 0.0
C763 C 0.13905 0.75444 0.84117 0.0
C764 C 0.13926 0.75339 0.91532 0.0
H765 H 0.15529 0.77538 0.26165 0.0
H766 H 0.1552 0.77575 0.14018 0.0
H767 H 0.13547 0.69775 0.0446 0.0
H768 H 0.12399 0.72933 0.70953 0.0
H769 H 0.12408 0.72854 0.83102 0.0
C770 C 0.87609 0.74121 0.7368 0.0
C771 C 0.88441 0.75589 0.70077 0.0
C772 C 0.87594 0.7422 0.80635 0.0
C773 C 0.89376 0.75283 0.95332 0.0
H774 H 0.86512 0.77494 0.04376 0.0
C775 C 0.89087 0.77871 0.23639 0.0
C776 C 0.88254 0.7638 0.27199 0.0
C777 C 0.891 0.77825 0.16681 0.0
C778 C 0.87318 0.76834 0.01935 0.0
H779 H 0.89916 0.78295 0.70997 0.0
H780 H 0.89886 0.78486 0.83144 0.0
H781 H 0.86568 0.77295 0.92248 0.0
H782 H 0.86776 0.73695 0.26199 0.0
H783 H 0.86804 0.73594 0.14052 0.0
H784 H 0.90126 0.74817 0.05019 0.0
C785 C 0.8925 0.77225 0.80578 0.0
C786 C 0.8735 0.7672 0.94976 0.0
C787 C 0.89265 0.77129 0.73609 0.0
C788 C 0.87427 0.74878 0.23622 0.0
C789 C 0.87441 0.74834 0.16652 0.0
C790 C 0.89344 0.75396 0.02291 0.0
C791 C 0.8841 0.75788 0.84175 0.0
C792 C 0.88379 0.75938 0.91586 0.0
C793 C 0.88282 0.76287 0.13095 0.0
C794 C 0.88314 0.76172 0.05683 0.0
H795 H 0.86962 0.72902 0.71136 0.0
H796 H 0.86945 0.73038 0.83242 0.0
H797 H 0.90181 0.7462 0.9289 0.0
H798 H 0.89736 0.79061 0.26221 0.0
H799 H 0.8975 0.79018 0.14108 0.0
C800 C 0.64901 0.76185 0.29871 0.0
C801 C 0.64072 0.74693 0.2629 0.0
C802 C 0.64887 0.76225 0.36841 0.0
C803 C 0.62983 0.75673 0.512 0.0
H804 H 0.65758 0.73753 0.61242 0.0
C805 C 0.63061 0.73948 0.79886 0.0
C806 C 0.63886 0.75483 0.83414 0.0
C807 C 0.63075 0.73848 0.72917 0.0
C808 C 0.64976 0.74334 0.58514 0.0
H809 H 0.62587 0.72025 0.2726 0.0
H810 H 0.62573 0.72061 0.39375 0.0
H811 H 0.65813 0.73554 0.49113 0.0
H812 H 0.65368 0.78158 0.82348 0.0
H813 H 0.65384 0.78016 0.70243 0.0
H814 H 0.62146 0.76455 0.60602 0.0
C815 C 0.63224 0.7325 0.36804 0.0
C816 C 0.65008 0.7422 0.51555 0.0
C817 C 0.63238 0.73208 0.29846 0.0
C818 C 0.6472 0.76942 0.79807 0.0
C819 C 0.64735 0.7684 0.72853 0.0
C820 C 0.62951 0.75786 0.5816 0.0
C821 C 0.64044 0.74778 0.40394 0.0
C822 C 0.64012 0.7489 0.47808 0.0
C823 C 0.63917 0.75276 0.69316 0.0
C824 C 0.63947 0.75124 0.61905 0.0
H825 H 0.65553 0.77363 0.27298 0.0
H826 H 0.65525 0.77457 0.39443 0.0
H827 H 0.62201 0.76258 0.48473 0.0
H828 H 0.62409 0.72788 0.82501 0.0
H829 H 0.62439 0.72591 0.70354 0.0
C830 C 0.39258 0.77218 0.79829 0.0
C831 C 0.38428 0.75708 0.83363 0.0
C832 C 0.39247 0.77301 0.72858 0.0
C833 C 0.38103 0.7308 0.58154 0.0
H834 H 0.38741 0.81609 0.48963 0.0
C835 C 0.37406 0.75012 0.29811 0.0
C836 C 0.38239 0.76489 0.26238 0.0
C837 C 0.37418 0.74966 0.36781 0.0
C838 C 0.38571 0.79193 0.51447 0.0
H839 H 0.36935 0.7309 0.82311 0.0
H840 H 0.36911 0.73263 0.7021 0.0
H841 H 0.38811 0.81375 0.61093 0.0
H842 H 0.39734 0.79106 0.27221 0.0
H843 H 0.39757 0.79001 0.39333 0.0
H844 H 0.37863 0.70897 0.48513 0.0
C845 C 0.3758 0.74343 0.72808 0.0
C846 C 0.38614 0.79056 0.58406 0.0
C847 C 0.37591 0.74263 0.79763 0.0
C848 C 0.39076 0.77956 0.29801 0.0
C849 C 0.39087 0.77913 0.36761 0.0
C850 C 0.38061 0.73216 0.51198 0.0
C851 C 0.38406 0.75872 0.69262 0.0
C852 C 0.38379 0.75999 0.61848 0.0
C853 C 0.38262 0.764 0.40342 0.0
C854 C 0.38294 0.76275 0.47755 0.0
H855 H 0.39916 0.78353 0.82438 0.0
H856 H 0.39903 0.7846 0.70283 0.0
H857 H 0.37935 0.70662 0.60635 0.0
H858 H 0.36748 0.73865 0.27233 0.0
H859 H 0.36761 0.73822 0.39382 0.0
C860 C 0.64715 0.26966 0.23205 0.0
C861 C 0.63881 0.25506 0.19606 0.0
C862 C 0.64729 0.2687 0.3016 0.0
C863 C 0.62943 0.25832 0.44847 0.0
H864 H 0.65804 0.23599 0.53941 0.0
C865 C 0.63226 0.23256 0.7318 0.0
C866 C 0.64061 0.24739 0.76735 0.0
C867 C 0.63213 0.233 0.66222 0.0
C868 C 0.64999 0.24266 0.51485 0.0
H869 H 0.62403 0.22813 0.20533 0.0
H870 H 0.62432 0.22626 0.32682 0.0
H871 H 0.65751 0.23791 0.41811 0.0
H872 H 0.65542 0.27407 0.75725 0.0
H873 H 0.65515 0.27505 0.63579 0.0
H874 H 0.62192 0.26311 0.54521 0.0
C875 C 0.63069 0.2388 0.30112 0.0
C876 C 0.64968 0.24376 0.44526 0.0
C877 C 0.63055 0.23974 0.23142 0.0
C878 C 0.6489 0.26231 0.73153 0.0
C879 C 0.64877 0.26273 0.66182 0.0
C880 C 0.62974 0.25722 0.51807 0.0
C881 C 0.6391 0.2531 0.33705 0.0
C882 C 0.6394 0.25165 0.41117 0.0
C883 C 0.64034 0.24828 0.62631 0.0
C884 C 0.64003 0.24939 0.55216 0.0
H885 H 0.65363 0.2818 0.20656 0.0
H886 H 0.65378 0.28047 0.32764 0.0
H887 H 0.62139 0.26501 0.4239 0.0
H888 H 0.62576 0.22074 0.75767 0.0
H889 H 0.62563 0.22113 0.63652 0.0
C890 C 0.39248 0.27246 0.23144 0.0
C891 C 0.38423 0.25709 0.19615 0.0
C892 C 0.39233 0.27345 0.30113 0.0
C893 C 0.37333 0.26855 0.44515 0.0
H894 H 0.40109 0.24934 0.54554 0.0
C895 C 0.3741 0.25008 0.73159 0.0
C896 C 0.38239 0.26501 0.76737 0.0
C897 C 0.37423 0.24967 0.66189 0.0
C898 C 0.39327 0.25519 0.51827 0.0
H899 H 0.36942 0.23032 0.20678 0.0
H900 H 0.36925 0.23173 0.32784 0.0
H901 H 0.40163 0.24736 0.42424 0.0
H902 H 0.39723 0.2917 0.75762 0.0
H903 H 0.39736 0.29132 0.63648 0.0
H904 H 0.36496 0.27635 0.53916 0.0
C905 C 0.37574 0.2435 0.30175 0.0
C906 C 0.39358 0.25405 0.44868 0.0
C907 C 0.37589 0.24248 0.23221 0.0
C908 C 0.39072 0.27987 0.73179 0.0
C909 C 0.39085 0.27944 0.66221 0.0
C910 C 0.37301 0.2697 0.51474 0.0
C911 C 0.38392 0.25915 0.33713 0.0
C912 C 0.38362 0.26066 0.41123 0.0
C913 C 0.38265 0.26414 0.62633 0.0
C914 C 0.38297 0.26301 0.5522 0.0
H915 H 0.399 0.28407 0.2053 0.0
H916 H 0.3987 0.28603 0.32677 0.0
H917 H 0.36551 0.27435 0.41788 0.0
H918 H 0.36757 0.2383 0.75734 0.0
H919 H 0.36785 0.23734 0.63588 0.0
C920 C 0.05317 0.27763 0.51433 0.0
C921 C 0.05984 0.24994 0.48024 0.0
C922 C 0.04141 0.28097 0.51159 0.0
C923 C 0.01745 0.2513 0.41775 0.0
H924 H 1.0011 0.27804 0.58041 0.0
C925 C 0.96967 0.24228 0.45021 0.0
C926 C 0.96324 0.27073 0.4836 0.0
C927 C 0.98143 0.24005 0.44715 0.0
C928 C 1.00551 0.27089 0.53432 0.0
H929 H 0.0592 0.20482 0.41434 0.0
H930 H 0.03876 0.21004 0.41107 0.0
H931 H 0.0215 0.27408 0.57926 0.0
H932 H 0.96422 0.31892 0.54057 0.0
H933 H 0.98461 0.31523 0.53465 0.0
H934 H 1.00139 0.24767 0.37327 0.0
C935 C 0.04262 0.22947 0.43949 0.0
C936 C 0.01725 0.26871 0.53358 0.0
C937 C 0.05438 0.22621 0.44201 0.0
C938 C 0.96887 0.29689 0.51364 0.0
C939 C 0.98059 0.29455 0.51096 0.0
C940 C 1.0057 0.25331 0.41863 0.0
C941 C 0.03595 0.25663 0.47493 0.0
C942 C 0.0234 0.25904 0.47523 0.0
C943 C 0.98704 0.26603 0.47798 0.0
C944 C 0.99957 0.26329 0.47687 0.0
H945 H 0.05701 0.29622 0.5449 0.0
H946 H 0.0366 0.30262 0.53865 0.0
H947 H 0.02185 0.2442 0.37164 0.0
H948 H 0.96562 0.22176 0.42624 0.0
H949 H 0.98613 0.21759 0.42173 0.0
C950 C 0.9697 0.74137 0.57743 0.0
C951 C 0.96327 0.7701 0.54451 0.0
C952 C 0.98146 0.73902 0.58046 0.0
C953 C 1.00556 0.77033 0.49399 0.0
H954 H 0.02194 0.74218 0.65621 0.0
C955 C 0.05324 0.77676 0.51476 0.0
C956 C 0.05991 0.7488 0.54835 0.0
C957 C 0.04148 0.78007 0.51735 0.0
C958 C 0.01752 0.74969 0.61021 0.0
H959 H 0.96428 0.81864 0.48831 0.0
H960 H 0.98467 0.81472 0.4942 0.0
H961 H 1.00147 0.74579 0.65447 0.0
H962 H 0.05928 0.70312 0.61318 0.0
H963 H 0.03884 0.70831 0.61621 0.0
H964 H 0.02154 0.7738 0.44928 0.0
C965 C 0.98065 0.79392 0.51754 0.0
C966 C 1.00577 0.75178 0.60928 0.0
C967 C 0.96892 0.79639 0.51488 0.0
C968 C 0.05446 0.72474 0.58591 0.0
C969 C 0.04269 0.72797 0.5883 0.0
C970 C 0.0173 0.76807 0.4948 0.0
C971 C 0.98709 0.76514 0.55007 0.0
C972 C 0.99963 0.76229 0.55121 0.0
C973 C 0.03602 0.75543 0.55336 0.0
C974 C 0.02347 0.75787 0.55298 0.0
H975 H 0.96563 0.72075 0.60108 0.0
H976 H 0.98616 0.71635 0.60552 0.0
H977 H 1.00114 0.77788 0.44803 0.0
H978 H 0.05708 0.79562 0.4847 0.0
H979 H 0.03667 0.80195 0.4907 0.0
C980 C 0.55442 0.72505 0.95088 0.0
C981 C 0.55989 0.74889 0.98876 0.0
C982 C 0.54266 0.72822 0.9487 0.0
C983 C 0.5173 0.76759 0.04293 0.0
H984 H 0.50141 0.74636 0.88285 0.0
C985 C 0.46891 0.79618 0.02259 0.0
C986 C 0.46326 0.7701 0.99245 0.0
C987 C 0.48064 0.79364 0.02022 0.0
C988 C 0.50573 0.75205 0.92815 0.0
H989 H 0.55708 0.79523 0.05329 0.0
H990 H 0.53667 0.80147 0.04765 0.0
H991 H 0.52188 0.74281 0.88111 0.0
H992 H 0.4656 0.72105 0.93536 0.0
H993 H 0.48613 0.71654 0.93138 0.0
H994 H 0.50116 0.77708 0.08979 0.0
C995 C 0.54147 0.77981 0.02057 0.0
C996 C 0.51749 0.74999 0.92722 0.0
C997 C 0.55323 0.77656 0.02296 0.0
C998 C 0.46968 0.7415 0.95939 0.0
C999 C 0.48144 0.73909 0.95662 0.0
C1000 C 0.50556 0.76982 0.04374 0.0
C1001 C 0.536 0.7554 0.98416 0.0
C1002 C 0.52345 0.7578 0.9846 0.0
C1003 C 0.48708 0.76501 0.98745 0.0
C1004 C 0.49961 0.76216 0.98636 0.0
H1005 H 0.55923 0.70367 0.92315 0.0
H1006 H 0.53879 0.70873 0.92048 0.0
H1007 H 0.52156 0.77303 0.08855 0.0
H1008 H 0.46428 0.81832 0.04928 0.0
H1009 H 0.48468 0.81429 0.04391 0.0
C1010 C 0.46963 0.24161 0.07064 0.0
C1011 C 0.46321 0.27026 0.03749 0.0
C1012 C 0.48139 0.23916 0.07342 0.0
C1013 C 0.50551 0.26995 0.98625 0.0
H1014 H 0.52185 0.24275 0.14901 0.0
C1015 C 0.55318 0.27666 1.00714 0.0
C1016 C 0.55985 0.24895 0.04144 0.0
C1017 C 0.54142 0.27991 1.00948 0.0
C1018 C 0.51745 0.24998 0.10286 0.0
H1019 H 0.46423 0.31853 0.9805 0.0
H1020 H 0.48463 0.31445 0.98589 0.0
H1021 H 0.50139 0.24632 0.14721 0.0
H1022 H 0.5592 0.20365 0.10717 0.0
H1023 H 0.53876 0.20871 0.10977 0.0
H1024 H 0.5215 0.27319 0.94146 0.0
C1025 C 0.4806 0.29378 1.00964 0.0
C1026 C 0.5057 0.25205 0.1019 0.0
C1027 C 0.46887 0.29635 1.00726 0.0
C1028 C 0.55438 0.22507 0.07938 0.0
C1029 C 0.54262 0.22823 0.08151 0.0
C1030 C 0.51725 0.26771 0.98709 0.0
C1031 C 0.48703 0.26511 0.04252 0.0
C1032 C 0.49957 0.26223 0.04363 0.0
C1033 C 0.53596 0.25545 0.04594 0.0
C1034 C 0.5234 0.25785 0.04546 0.0
H1035 H 0.46556 0.22114 0.09472 0.0
H1036 H 0.48609 0.21657 0.09874 0.0
H1037 H 0.5011 0.27726 0.94016 0.0
H1038 H 0.55703 0.29537 0.97676 0.0
H1039 H 0.53662 0.30159 0.98232 0.0
loop_
_geom_bond_atom_site_label_1
_geom_bond_atom_site_label_2
_geom_bond_distance
_geom_bond_site_symmetry_2
_ccdc_geom_bond_type
Gd0 C3 2.818 . S
Gd0 O20 2.377 . S
Gd0 O22 2.448 . S
Gd0 O23 2.506 . S
Gd0 O24 2.435 . S
Gd0 O25 2.717 . S
Gd0 O27 2.395 . S
Gd0 O31 2.327 . S
Gd1 C12 2.818 . S
Gd1 O21 2.395 . S
Gd1 O25 2.327 . S
Gd1 O26 2.377 . S
Gd1 O28 2.448 . S
Gd1 O29 2.506 . S
Gd1 O30 2.435 . S
Gd1 O31 2.717 . S
C2 O20 1.240 . S
C2 O21 1.240 . S
C3 Gd0 2.818 . S
C3 C4 1.510 . S
C3 O22 1.249 . S
C3 O23 1.252 . S
C4 C3 1.510 . S
C4 C5 1.404 . S
C4 C6 1.352 . S
C5 C4 1.404 . S
C5 C9 1.389 . S
C5 H32 0.930 . S
C6 C4 1.352 . S
C6 C8 1.374 . S
C6 H33 0.931 . S
C7 C8 1.359 . S
C7 C9 1.364 . S
C8 C6 1.374 . S
C8 C7 1.359 . S
C8 H34 0.931 . S
C9 C5 1.389 . S
C9 C7 1.364 . S
C9 H35 0.931 . S
C10 O24 1.256 . S
C10 O25 1.257 . S
C11 O26 1.240 . S
C11 O27 1.240 . S
C12 Gd1 2.818 . S
C12 C13 1.510 . S
C12 O28 1.249 . S
C12 O29 1.252 . S
C13 C12 1.510 . S
C13 C14 1.404 . S
C13 C15 1.352 . S
C14 C13 1.404 . S
C14 C18 1.389 . S
C14 H36 0.930 . S
C15 C13 1.352 . S
C15 C17 1.374 . S
C15 H37 0.931 . S
C16 C17 1.359 . S
C16 C18 1.364 . S
C17 C15 1.374 . S
C17 C16 1.359 . S
C17 H38 0.931 . S
C18 C14 1.389 . S
C18 C16 1.364 . S
C18 H39 0.931 . S
C19 O30 1.256 . S
C19 O31 1.257 . S
O20 Gd0 2.377 . S
O20 C2 1.240 . S
O21 Gd1 2.395 . S
O21 C2 1.240 . S
O22 Gd0 2.448 . S
O22 C3 1.249 . S
O23 Gd0 2.506 . S
O23 C3 1.252 . S
O24 Gd0 2.435 . S
O24 C10 1.256 . S
O25 Gd0 2.717 . S
O25 Gd1 2.327 . S
O25 C10 1.257 . S
O26 Gd1 2.377 . S
O26 C11 1.240 . S
O27 Gd0 2.395 . S
O27 C11 1.240 . S
O28 Gd1 2.448 . S
O28 C12 1.249 . S
O29 Gd1 2.506 . S
O29 C12 1.252 . S
O30 Gd1 2.435 . S
O30 C19 1.256 . S
O31 Gd0 2.327 . S
O31 Gd1 2.717 . S
O31 C19 1.257 . S
H32 C5 0.930 . S
H33 C6 0.931 . S
H34 C8 0.931 . S
H35 C9 0.931 . S
H36 C14 0.930 . S
H37 C15 0.931 . S
H38 C17 0.931 . S
H39 C18 0.931 . S
Gd40 C43 2.818 . S
Gd40 O60 2.377 . S
Gd40 O62 2.448 . S
Gd40 O63 2.506 . S
Gd40 O64 2.435 . S
Gd40 O65 2.717 . S
Gd40 O67 2.395 . S
Gd40 O71 2.327 . S
Gd41 C52 2.818 . S
Gd41 O61 2.395 . S
Gd41 O65 2.327 . S
Gd41 O66 2.377 . S
Gd41 O68 2.448 . S
Gd41 O69 2.506 . S
Gd41 O70 2.435 . S
Gd41 O71 2.717 . S
C42 O60 1.240 . S
C42 O61 1.240 . S
C43 Gd40 2.818 . S
C43 C44 1.510 . S
C43 O62 1.249 . S
C43 O63 1.252 . S
C44 C43 1.510 . S
C44 C45 1.404 . S
C44 C46 1.352 . S
C45 C44 1.404 . S
C45 C49 1.389 . S
C45 H72 0.930 . S
C46 C44 1.352 . S
C46 C48 1.374 . S
C46 H73 0.931 . S
C47 C48 1.359 . S
C47 C49 1.364 . S
C48 C46 1.374 . S
C48 C47 1.359 . S
C48 H74 0.931 . S
C49 C45 1.389 . S
C49 C47 1.364 . S
C49 H75 0.931 . S
C50 O64 1.256 . S
C50 O65 1.257 . S
C51 O66 1.240 . S
C51 O67 1.240 . S
C52 Gd41 2.818 . S
C52 C53 1.510 . S
C52 O68 1.249 . S
C52 O69 1.252 . S
C53 C52 1.510 . S
C53 C54 1.404 . S
C53 C55 1.352 . S
C54 C53 1.404 . S
C54 C58 1.389 . S
C54 H76 0.930 . S
C55 C53 1.352 . S
C55 C57 1.374 . S
C55 H77 0.931 . S
C56 C57 1.359 . S
C56 C58 1.364 . S
C57 C55 1.374 . S
C57 C56 1.359 . S
C57 H78 0.931 . S
C58 C54 1.389 . S
C58 C56 1.364 . S
C58 H79 0.931 . S
C59 O70 1.256 . S
C59 O71 1.257 . S
O60 Gd40 2.377 . S
O60 C42 1.240 . S
O61 Gd41 2.395 . S
O61 C42 1.240 . S
O62 Gd40 2.448 . S
O62 C43 1.249 . S
O63 Gd40 2.506 . S
O63 C43 1.252 . S
O64 Gd40 2.435 . S
O64 C50 1.256 . S
O65 Gd40 2.717 . S
O65 Gd41 2.327 . S
O65 C50 1.257 . S
O66 Gd41 2.377 . S
O66 C51 1.240 . S
O67 Gd40 2.395 . S
O67 C51 1.240 . S
O68 Gd41 2.448 . S
O68 C52 1.249 . S
O69 Gd41 2.506 . S
O69 C52 1.252 . S
O70 Gd41 2.435 . S
O70 C59 1.256 . S
O71 Gd40 2.327 . S
O71 Gd41 2.717 . S
O71 C59 1.257 . S
H72 C45 0.930 . S
H73 C46 0.931 . S
H74 C48 0.931 . S
H75 C49 0.931 . S
H76 C54 0.930 . S
H77 C55 0.931 . S
H78 C57 0.931 . S
H79 C58 0.931 . S
Gd80 C83 2.818 . S
Gd80 O100 2.377 . S
Gd80 O102 2.448 . S
Gd80 O103 2.506 . S
Gd80 O104 2.435 . S
Gd80 O105 2.717 . S
Gd80 O107 2.395 . S
Gd80 O111 2.327 . S
Gd81 C92 2.818 . S
Gd81 O101 2.395 . S
Gd81 O105 2.327 . S
Gd81 O106 2.377 . S
Gd81 O108 2.448 . S
Gd81 O109 2.506 . S
Gd81 O110 2.435 . S
Gd81 O111 2.717 . S
C82 O100 1.240 . S
C82 O101 1.240 . S
C83 Gd80 2.818 . S
C83 C84 1.510 . S
C83 O102 1.249 . S
C83 O103 1.252 . S
C84 C83 1.510 . S
C84 C85 1.404 . S
C84 C86 1.352 . S
C85 C84 1.404 . S
C85 C89 1.389 . S
C85 H112 0.930 . S
C86 C84 1.352 . S
C86 C88 1.374 . S
C86 H113 0.931 . S
C87 C88 1.359 . S
C87 C89 1.364 . S
C88 C86 1.374 . S
C88 C87 1.359 . S
C88 H114 0.931 . S
C89 C85 1.389 . S
C89 C87 1.364 . S
C89 H115 0.931 . S
C90 O104 1.256 . S
C90 O105 1.257 . S
C91 O106 1.240 . S
C91 O107 1.240 . S
C92 Gd81 2.818 . S
C92 C93 1.510 . S
C92 O108 1.249 . S
C92 O109 1.252 . S
C93 C92 1.510 . S
C93 C94 1.404 . S
C93 C95 1.352 . S
C94 C93 1.404 . S
C94 C98 1.389 . S
C94 H116 0.930 . S
C95 C93 1.352 . S
C95 C97 1.374 . S
C95 H117 0.931 . S
C96 C97 1.359 . S
C96 C98 1.364 . S
C97 C95 1.374 . S
C97 C96 1.359 . S
C97 H118 0.931 . S
C98 C94 1.389 . S
C98 C96 1.364 . S
C98 H119 0.931 . S
C99 O110 1.256 . S
C99 O111 1.257 . S
O100 Gd80 2.377 . S
O100 C82 1.240 . S
O101 Gd81 2.395 . S
O101 C82 1.240 . S
O102 Gd80 2.448 . S
O102 C83 1.249 . S
O103 Gd80 2.506 . S
O103 C83 1.252 . S
O104 Gd80 2.435 . S
O104 C90 1.256 . S
O105 Gd80 2.717 . S
O105 Gd81 2.327 . S
O105 C90 1.257 . S
O106 Gd81 2.377 . S
O106 C91 1.240 . S
O107 Gd80 2.395 . S
O107 C91 1.240 . S
O108 Gd81 2.448 . S
O108 C92 1.249 . S
O109 Gd81 2.506 . S
O109 C92 1.252 . S
O110 Gd81 2.435 . S
O110 C99 1.256 . S
O111 Gd80 2.327 . S
O111 Gd81 2.717 . S
O111 C99 1.257 . S
H112 C85 0.930 . S
H113 C86 0.931 . S
H114 C88 0.931 . S
H115 C89 0.931 . S
H116 C94 0.930 . S
H117 C95 0.931 . S
H118 C97 0.931 . S
H119 C98 0.931 . S
Gd120 C123 2.818 . S
Gd120 O140 2.377 . S
Gd120 O142 2.448 . S
Gd120 O143 2.506 . S
Gd120 O144 2.435 . S
Gd120 O145 2.717 . S
Gd120 O147 2.395 . S
Gd120 O151 2.327 . S
Gd121 C132 2.818 . S
Gd121 O141 2.395 . S
Gd121 O145 2.327 . S
Gd121 O146 2.377 . S
Gd121 O148 2.448 . S
Gd121 O149 2.506 . S
Gd121 O150 2.435 . S
Gd121 O151 2.717 . S
C122 O140 1.240 . S
C122 O141 1.240 . S
C123 Gd120 2.818 . S
C123 C124 1.510 . S
C123 O142 1.249 . S
C123 O143 1.252 . S
C124 C123 1.510 . S
C124 C125 1.404 . S
C124 C126 1.352 . S
C125 C124 1.404 . S
C125 C129 1.389 . S
C125 H152 0.930 . S
C126 C124 1.352 . S
C126 C128 1.374 . S
C126 H153 0.931 . S
C127 C128 1.359 . S
C127 C129 1.364 . S
C128 C126 1.374 . S
C128 C127 1.359 . S
C128 H154 0.931 . S
C129 C125 1.389 . S
C129 C127 1.364 . S
C129 H155 0.931 . S
C130 O144 1.256 . S
C130 O145 1.257 . S
C131 O146 1.240 . S
C131 O147 1.240 . S
C132 Gd121 2.818 . S
C132 C133 1.510 . S
C132 O148 1.249 . S
C132 O149 1.252 . S
C133 C132 1.510 . S
C133 C134 1.404 . S
C133 C135 1.352 . S
C134 C133 1.404 . S
C134 C138 1.389 . S
C134 H156 0.930 . S
C135 C133 1.352 . S
C135 C137 1.374 . S
C135 H157 0.931 . S
C136 C137 1.359 . S
C136 C138 1.364 . S
C137 C135 1.374 . S
C137 C136 1.359 . S
C137 H158 0.931 . S
C138 C134 1.389 . S
C138 C136 1.364 . S
C138 H159 0.931 . S
C139 O150 1.256 . S
C139 O151 1.257 . S
O140 Gd120 2.377 . S
O140 C122 1.240 . S
O141 Gd121 2.395 . S
O141 C122 1.240 . S
O142 Gd120 2.448 . S
O142 C123 1.249 . S
O143 Gd120 2.506 . S
O143 C123 1.252 . S
O144 Gd120 2.435 . S
O144 C130 1.256 . S
O145 Gd120 2.717 . S
O145 Gd121 2.327 . S
O145 C130 1.257 . S
O146 Gd121 2.377 . S
O146 C131 1.240 . S
O147 Gd120 2.395 . S
O147 C131 1.240 . S
O148 Gd121 2.448 . S
O148 C132 1.249 . S
O149 Gd121 2.506 . S
O149 C132 1.252 . S
O150 Gd121 2.435 . S
O150 C139 1.256 . S
O151 Gd120 2.327 . S
O151 Gd121 2.717 . S
O151 C139 1.257 . S
H152 C125 0.930 . S
H153 C126 0.931 . S
H154 C128 0.931 . S
H155 C129 0.931 . S
H156 C134 0.930 . S
H157 C135 0.931 . S
H158 C137 0.931 . S
H159 C138 0.931 . S
Gd160 C163 2.818 1_556 S
Gd160 O180 2.377 1_556 S
Gd160 O182 2.448 1_556 S
Gd160 O183 2.506 1_556 S
Gd160 O184 2.435 . S
Gd160 O185 2.717 . S
Gd160 O187 2.395 . S
Gd160 O191 2.327 1_556 S
Gd161 C172 2.818 1_554 S
Gd161 O181 2.395 . S
Gd161 O185 2.327 1_554 S
Gd161 O186 2.377 1_554 S
Gd161 O188 2.448 1_554 S
Gd161 O189 2.506 1_554 S
Gd161 O190 2.435 . S
Gd161 O191 2.717 . S
C162 O180 1.240 . S
C162 O181 1.240 . S
C163 Gd160 2.818 1_554 S
C163 C164 1.510 . S
C163 O182 1.249 . S
C163 O183 1.252 . S
C164 C163 1.510 . S
C164 C165 1.404 . S
C164 C166 1.352 . S
C165 C164 1.404 . S
C165 C169 1.389 . S
C165 H192 0.930 . S
C166 C164 1.352 . S
C166 C168 1.374 . S
C166 H193 0.931 . S
C167 C168 1.359 . S
C167 C169 1.364 . S
C168 C166 1.374 . S
C168 C167 1.359 . S
C168 H194 0.931 . S
C169 C165 1.389 . S
C169 C167 1.364 . S
C169 H195 0.931 . S
C170 O184 1.256 . S
C170 O185 1.257 . S
C171 O186 1.240 . S
C171 O187 1.240 . S
C172 Gd161 2.818 1_556 S
C172 C173 1.510 . S
C172 O188 1.249 . S
C172 O189 1.252 . S
C173 C172 1.510 . S
C173 C174 1.404 . S
C173 C175 1.352 . S
C174 C173 1.404 . S
C174 C178 1.389 . S
C174 H196 0.930 . S
C175 C173 1.352 . S
C175 C177 1.374 . S
C175 H197 0.931 . S
C176 C177 1.359 . S
C176 C178 1.364 . S
C177 C175 1.374 . S
C177 C176 1.359 . S
C177 H198 0.931 . S
C178 C174 1.389 . S
C178 C176 1.364 . S
C178 H199 0.931 . S
C179 O190 1.256 . S
C179 O191 1.257 . S
O180 Gd160 2.377 1_554 S
O180 C162 1.240 . S
O181 Gd161 2.395 . S
O181 C162 1.240 . S
O182 Gd160 2.448 1_554 S
O182 C163 1.249 . S
O183 Gd160 2.506 1_554 S
O183 C163 1.252 . S
O184 Gd160 2.435 . S
O184 C170 1.256 . S
O185 Gd160 2.717 . S
O185 Gd161 2.327 1_556 S
O185 C170 1.257 . S
O186 Gd161 2.377 1_556 S
O186 C171 1.240 . S
O187 Gd160 2.395 . S
O187 C171 1.240 . S
O188 Gd161 2.448 1_556 S
O188 C172 1.249 . S
O189 Gd161 2.506 1_556 S
O189 C172 1.252 . S
O190 Gd161 2.435 . S
O190 C179 1.256 . S
O191 Gd160 2.327 1_554 S
O191 Gd161 2.717 . S
O191 C179 1.257 . S
H192 C165 0.930 . S
H193 C166 0.931 . S
H194 C168 0.931 . S
H195 C169 0.931 . S
H196 C174 0.930 . S
H197 C175 0.931 . S
H198 C177 0.931 . S
H199 C178 0.931 . S
Gd200 C203 2.818 1_556 S
Gd200 O220 2.377 1_556 S
Gd200 O222 2.448 1_556 S
Gd200 O223 2.506 1_556 S
Gd200 O224 2.435 . S
Gd200 O225 2.717 . S
Gd200 O227 2.395 . S
Gd200 O231 2.327 1_556 S
Gd201 C212 2.818 1_554 S
Gd201 O221 2.395 . S
Gd201 O225 2.327 1_554 S
Gd201 O226 2.377 1_554 S
Gd201 O228 2.448 1_554 S
Gd201 O229 2.506 1_554 S
Gd201 O230 2.435 . S
Gd201 O231 2.717 . S
C202 O220 1.240 . S
C202 O221 1.240 . S
C203 Gd200 2.818 1_554 S
C203 C204 1.510 . S
C203 O222 1.249 . S
C203 O223 1.252 . S
C204 C203 1.510 . S
C204 C205 1.404 . S
C204 C206 1.352 . S
C205 C204 1.404 . S
C205 C209 1.389 . S
C205 H232 0.930 . S
C206 C204 1.352 . S
C206 C208 1.374 . S
C206 H233 0.931 . S
C207 C208 1.359 . S
C207 C209 1.364 . S
C208 C206 1.374 . S
C208 C207 1.359 . S
C208 H234 0.931 . S
C209 C205 1.389 . S
C209 C207 1.364 . S
C209 H235 0.931 . S
C210 O224 1.256 . S
C210 O225 1.257 . S
C211 O226 1.240 . S
C211 O227 1.240 . S
C212 Gd201 2.818 1_556 S
C212 C213 1.510 . S
C212 O228 1.249 . S
C212 O229 1.252 . S
C213 C212 1.510 . S
C213 C214 1.404 . S
C213 C215 1.352 . S
C214 C213 1.404 . S
C214 C218 1.389 . S
C214 H236 0.930 . S
C215 C213 1.352 . S
C215 C217 1.374 . S
C215 H237 0.931 . S
C216 C217 1.359 . S
C216 C218 1.364 . S
C217 C215 1.374 . S
C217 C216 1.359 . S
C217 H238 0.931 . S
C218 C214 1.389 . S
C218 C216 1.364 . S
C218 H239 0.931 . S
C219 O230 1.256 . S
C219 O231 1.257 . S
O220 Gd200 2.377 1_554 S
O220 C202 1.240 . S
O221 Gd201 2.395 . S
O221 C202 1.240 . S
O222 Gd200 2.448 1_554 S
O222 C203 1.249 . S
O223 Gd200 2.506 1_554 S
O223 C203 1.252 . S
O224 Gd200 2.435 . S
O224 C210 1.256 . S
O225 Gd200 2.717 . S
O225 Gd201 2.327 1_556 S
O225 C210 1.257 . S
O226 Gd201 2.377 1_556 S
O226 C211 1.240 . S
O227 Gd200 2.395 . S
O227 C211 1.240 . S
O228 Gd201 2.448 1_556 S
O228 C212 1.249 . S
O229 Gd201 2.506 1_556 S
O229 C212 1.252 . S
O230 Gd201 2.435 . S
O230 C219 1.256 . S
O231 Gd200 2.327 1_554 S
O231 Gd201 2.717 . S
O231 C219 1.257 . S
H232 C205 0.930 . S
H233 C206 0.931 . S
H234 C208 0.931 . S
H235 C209 0.931 . S
H236 C214 0.930 . S
H237 C215 0.931 . S
H238 C217 0.931 . S
H239 C218 0.931 . S
Gd240 C243 2.818 1_556 S
Gd240 O260 2.377 1_556 S
Gd240 O262 2.448 1_556 S
Gd240 O263 2.506 1_556 S
Gd240 O264 2.435 . S
Gd240 O265 2.717 . S
Gd240 O267 2.395 . S
Gd240 O271 2.327 1_556 S
Gd241 C252 2.818 1_554 S
Gd241 O261 2.395 . S
Gd241 O265 2.327 1_554 S
Gd241 O266 2.377 1_554 S
Gd241 O268 2.448 1_554 S
Gd241 O269 2.506 1_554 S
Gd241 O270 2.435 . S
Gd241 O271 2.717 . S
C242 O260 1.240 . S
C242 O261 1.240 . S
C243 Gd240 2.818 1_554 S
C243 C244 1.510 . S
C243 O262 1.249 . S
C243 O263 1.252 . S
C244 C243 1.510 . S
C244 C245 1.404 . S
C244 C246 1.352 . S
C245 C244 1.404 . S
C245 C249 1.389 . S
C245 H272 0.930 . S
C246 C244 1.352 . S
C246 C248 1.374 . S
C246 H273 0.931 . S
C247 C248 1.359 . S
C247 C249 1.364 . S
C248 C246 1.374 . S
C248 C247 1.359 . S
C248 H274 0.931 . S
C249 C245 1.389 . S
C249 C247 1.364 . S
C249 H275 0.931 . S
C250 O264 1.256 . S
C250 O265 1.257 . S
C251 O266 1.240 . S
C251 O267 1.240 . S
C252 Gd241 2.818 1_556 S
C252 C253 1.510 . S
C252 O268 1.249 . S
C252 O269 1.252 . S
C253 C252 1.510 . S
C253 C254 1.404 . S
C253 C255 1.352 . S
C254 C253 1.404 . S
C254 C258 1.389 . S
C254 H276 0.930 . S
C255 C253 1.352 . S
C255 C257 1.374 . S
C255 H277 0.931 . S
C256 C257 1.359 . S
C256 C258 1.364 . S
C257 C255 1.374 . S
C257 C256 1.359 . S
C257 H278 0.931 . S
C258 C254 1.389 . S
C258 C256 1.364 . S
C258 H279 0.931 . S
C259 O270 1.256 . S
C259 O271 1.257 . S
O260 Gd240 2.377 1_554 S
O260 C242 1.240 . S
O261 Gd241 2.395 . S
O261 C242 1.240 . S
O262 Gd240 2.448 1_554 S
O262 C243 1.249 . S
O263 Gd240 2.506 1_554 S
O263 C243 1.252 . S
O264 Gd240 2.435 . S
O264 C250 1.256 . S
O265 Gd240 2.717 . S
O265 Gd241 2.327 1_556 S
O265 C250 1.257 . S
O266 Gd241 2.377 1_556 S
O266 C251 1.240 . S
O267 Gd240 2.395 . S
O267 C251 1.240 . S
O268 Gd241 2.448 1_556 S
O268 C252 1.249 . S
O269 Gd241 2.506 1_556 S
O269 C252 1.252 . S
O270 Gd241 2.435 . S
O270 C259 1.256 . S
O271 Gd240 2.327 1_554 S
O271 Gd241 2.717 . S
O271 C259 1.257 . S
H272 C245 0.930 . S
H273 C246 0.931 . S
H274 C248 0.931 . S
H275 C249 0.931 . S
H276 C254 0.930 . S
H277 C255 0.931 . S
H278 C257 0.931 . S
H279 C258 0.931 . S
Gd280 C283 2.818 1_556 S
Gd280 O300 2.377 1_556 S
Gd280 O302 2.448 1_556 S
Gd280 O303 2.506 1_556 S
Gd280 O304 2.435 . S
Gd280 O305 2.717 . S
Gd280 O307 2.395 . S
Gd280 O311 2.327 1_556 S
Gd281 C292 2.818 1_554 S
Gd281 O301 2.395 . S
Gd281 O305 2.327 1_554 S
Gd281 O306 2.377 1_554 S
Gd281 O308 2.448 1_554 S
Gd281 O309 2.506 1_554 S
Gd281 O310 2.435 . S
Gd281 O311 2.717 . S
C282 O300 1.240 . S
C282 O301 1.240 . S
C283 Gd280 2.818 1_554 S
C283 C284 1.510 . S
C283 O302 1.249 . S
C283 O303 1.252 . S
C284 C283 1.510 . S
C284 C285 1.404 . S
C284 C286 1.352 . S
C285 C284 1.404 . S
C285 C289 1.389 . S
C285 H312 0.930 . S
C286 C284 1.352 . S
C286 C288 1.374 . S
C286 H313 0.931 . S
C287 C288 1.359 . S
C287 C289 1.364 . S
C288 C286 1.374 . S
C288 C287 1.359 . S
C288 H314 0.931 . S
C289 C285 1.389 . S
C289 C287 1.364 . S
C289 H315 0.931 . S
C290 O304 1.256 . S
C290 O305 1.257 . S
C291 O306 1.240 . S
C291 O307 1.240 . S
C292 Gd281 2.818 1_556 S
C292 C293 1.510 . S
C292 O308 1.249 . S
C292 O309 1.252 . S
C293 C292 1.510 . S
C293 C294 1.404 . S
C293 C295 1.352 . S
C294 C293 1.404 . S
C294 C298 1.389 . S
C294 H316 0.930 . S
C295 C293 1.352 . S
C295 C297 1.374 . S
C295 H317 0.931 . S
C296 C297 1.359 . S
C296 C298 1.364 . S
C297 C295 1.374 . S
C297 C296 1.359 . S
C297 H318 0.931 . S
C298 C294 1.389 . S
C298 C296 1.364 . S
C298 H319 0.931 . S
C299 O310 1.256 . S
C299 O311 1.257 . S
O300 Gd280 2.377 1_554 S
O300 C282 1.240 . S
O301 Gd281 2.395 . S
O301 C282 1.240 . S
O302 Gd280 2.448 1_554 S
O302 C283 1.249 . S
O303 Gd280 2.506 1_554 S
O303 C283 1.252 . S
O304 Gd280 2.435 . S
O304 C290 1.256 . S
O305 Gd280 2.717 . S
O305 Gd281 2.327 1_556 S
O305 C290 1.257 . S
O306 Gd281 2.377 1_556 S
O306 C291 1.240 . S
O307 Gd280 2.395 . S
O307 C291 1.240 . S
O308 Gd281 2.448 1_556 S
O308 C292 1.249 . S
O309 Gd281 2.506 1_556 S
O309 C292 1.252 . S
O310 Gd281 2.435 . S
O310 C299 1.256 . S
O311 Gd280 2.327 1_554 S
O311 Gd281 2.717 . S
O311 C299 1.257 . S
H312 C285 0.930 . S
H313 C286 0.931 . S
H314 C288 0.931 . S
H315 C289 0.931 . S
H316 C294 0.930 . S
H317 C295 0.931 . S
H318 C297 0.931 . S
H319 C298 0.931 . S
C320 C321 1.349 . S
C320 C322 1.327 . S
C320 H345 0.950 . S
C321 C320 1.349 . S
C321 C337 1.349 . S
C322 C320 1.327 . S
C322 C341 1.429 . S
C322 H346 0.950 . S
C323 C340 1.574 . S
C323 C342 1.368 . S
C323 H347 0.949 . S
H324 C328 0.949 . S
C325 C326 1.349 . S
C325 C327 1.327 . S
C325 H348 0.950 . S
C326 C325 1.349 . S
C326 C338 1.349 . S
C327 C325 1.327 . S
C327 C343 1.429 . S
C327 H349 0.950 . S
C328 H324 0.949 . S
C328 C336 1.574 . S
C328 C344 1.368 . S
H329 C337 0.950 . S
H330 C335 0.950 . S
H331 C336 0.949 . S
H332 C338 0.950 . S
H333 C339 0.950 . S
H334 C340 0.949 . S
C335 H330 0.950 . S
C335 C337 1.327 . S
C335 C341 1.429 . S
C336 C328 1.574 . S
C336 H331 0.949 . S
C336 C342 1.368 . S
C337 C321 1.349 . S
C337 H329 0.950 . S
C337 C335 1.327 . S
C338 C326 1.349 . S
C338 H332 0.950 . S
C338 C339 1.327 . S
C339 H333 0.950 . S
C339 C338 1.327 . S
C339 C343 1.429 . S
C340 C323 1.574 . S
C340 H334 0.949 . S
C340 C344 1.368 . S
C341 C322 1.429 . S
C341 C335 1.429 . S
C341 C342 1.523 . S
C342 C323 1.368 . S
C342 C336 1.368 . S
C342 C341 1.523 . S
C343 C327 1.429 . S
C343 C339 1.429 . S
C343 C344 1.523 . S
C344 C328 1.368 . S
C344 C340 1.368 . S
C344 C343 1.523 . S
H345 C320 0.950 . S
H346 C322 0.950 . S
H347 C323 0.949 . S
H348 C325 0.950 . S
H349 C327 0.950 . S
C350 C351 1.349 . S
C350 C352 1.327 . S
C350 H375 0.950 . S
C351 C350 1.349 . S
C351 C367 1.349 . S
C352 C350 1.327 . S
C352 C371 1.429 . S
C352 H376 0.950 . S
C353 C370 1.574 . S
C353 C372 1.368 . S
C353 H377 0.949 . S
H354 C358 0.949 . S
C355 C356 1.349 . S
C355 C357 1.327 . S
C355 H378 0.950 . S
C356 C355 1.349 . S
C356 C368 1.349 . S
C357 C355 1.327 . S
C357 C373 1.429 . S
C357 H379 0.950 . S
C358 H354 0.949 . S
C358 C366 1.574 . S
C358 C374 1.368 . S
H359 C367 0.950 . S
H360 C365 0.950 . S
H361 C366 0.949 . S
H362 C368 0.950 . S
H363 C369 0.950 . S
H364 C370 0.949 . S
C365 H360 0.950 . S
C365 C367 1.327 . S
C365 C371 1.429 . S
C366 C358 1.574 . S
C366 H361 0.949 . S
C366 C372 1.368 . S
C367 C351 1.349 . S
C367 H359 0.950 . S
C367 C365 1.327 . S
C368 C356 1.349 . S
C368 H362 0.950 . S
C368 C369 1.327 . S
C369 H363 0.950 . S
C369 C368 1.327 . S
C369 C373 1.429 . S
C370 C353 1.574 . S
C370 H364 0.949 . S
C370 C374 1.368 . S
C371 C352 1.429 . S
C371 C365 1.429 . S
C371 C372 1.523 . S
C372 C353 1.368 . S
C372 C366 1.368 . S
C372 C371 1.523 . S
C373 C357 1.429 . S
C373 C369 1.429 . S
C373 C374 1.523 . S
C374 C358 1.368 . S
C374 C370 1.368 . S
C374 C373 1.523 . S
H375 C350 0.950 . S
H376 C352 0.950 . S
H377 C353 0.949 . S
H378 C355 0.950 . S
H379 C357 0.950 . S
C380 C381 1.349 . S
C380 C382 1.327 . S
C380 H405 0.950 . S
C381 C380 1.349 . S
C381 C397 1.349 . S
C382 C380 1.327 . S
C382 C401 1.429 . S
C382 H406 0.950 . S
C383 C400 1.574 . S
C383 C402 1.368 . S
C383 H407 0.949 . S
H384 C388 0.949 . S
C385 C386 1.349 . S
C385 C387 1.327 . S
C385 H408 0.950 . S
C386 C385 1.349 . S
C386 C398 1.349 . S
C387 C385 1.327 . S
C387 C403 1.429 . S
C387 H409 0.950 . S
C388 H384 0.949 . S
C388 C396 1.574 . S
C388 C404 1.368 . S
H389 C397 0.950 . S
H390 C395 0.950 . S
H391 C396 0.949 . S
H392 C398 0.950 . S
H393 C399 0.950 . S
H394 C400 0.949 . S
C395 H390 0.950 . S
C395 C397 1.327 . S
C395 C401 1.429 . S
C396 C388 1.574 . S
C396 H391 0.949 . S
C396 C402 1.368 . S
C397 C381 1.349 . S
C397 H389 0.950 . S
C397 C395 1.327 . S
C398 C386 1.349 . S
C398 H392 0.950 . S
C398 C399 1.327 . S
C399 H393 0.950 . S
C399 C398 1.327 . S
C399 C403 1.429 . S
C400 C383 1.574 . S
C400 H394 0.949 . S
C400 C404 1.368 . S
C401 C382 1.429 . S
C401 C395 1.429 . S
C401 C402 1.523 . S
C402 C383 1.368 . S
C402 C396 1.368 . S
C402 C401 1.523 . S
C403 C387 1.429 . S
C403 C399 1.429 . S
C403 C404 1.523 . S
C404 C388 1.368 . S
C404 C400 1.368 . S
C404 C403 1.523 . S
H405 C380 0.950 . S
H406 C382 0.950 . S
H407 C383 0.949 . S
H408 C385 0.950 . S
H409 C387 0.950 . S
C410 C411 1.349 . S
C410 C412 1.327 . S
C410 H435 0.950 . S
C411 C410 1.349 . S
C411 C427 1.349 . S
C412 C410 1.327 . S
C412 C431 1.429 . S
C412 H436 0.950 . S
C413 C430 1.574 . S
C413 C432 1.368 . S
C413 H437 0.949 . S
H414 C418 0.949 . S
C415 C416 1.349 . S
C415 C417 1.327 . S
C415 H438 0.950 . S
C416 C415 1.349 . S
C416 C428 1.349 . S
C417 C415 1.327 . S
C417 C433 1.429 . S
C417 H439 0.950 . S
C418 H414 0.949 . S
C418 C426 1.574 . S
C418 C434 1.368 . S
H419 C427 0.950 . S
H420 C425 0.950 . S
H421 C426 0.949 . S
H422 C428 0.950 . S
H423 C429 0.950 . S
H424 C430 0.949 . S
C425 H420 0.950 . S
C425 C427 1.327 . S
C425 C431 1.429 . S
C426 C418 1.574 . S
C426 H421 0.949 . S
C426 C432 1.368 . S
C427 C411 1.349 . S
C427 H419 0.950 . S
C427 C425 1.327 . S
C428 C416 1.349 . S
C428 H422 0.950 . S
C428 C429 1.327 . S
C429 H423 0.950 . S
C429 C428 1.327 . S
C429 C433 1.429 . S
C430 C413 1.574 . S
C430 H424 0.949 . S
C430 C434 1.368 . S
C431 C412 1.429 . S
C431 C425 1.429 . S
C431 C432 1.523 . S
C432 C413 1.368 . S
C432 C426 1.368 . S
C432 C431 1.523 . S
C433 C417 1.429 . S
C433 C429 1.429 . S
C433 C434 1.523 . S
C434 C418 1.368 . S
C434 C430 1.368 . S
C434 C433 1.523 . S
H435 C410 0.950 . S
H436 C412 0.950 . S
H437 C413 0.949 . S
H438 C415 0.950 . S
H439 C417 0.950 . S
C440 C441 1.349 . S
C440 C442 1.327 . S
C440 H465 0.950 . S
C441 C440 1.349 . S
C441 C457 1.349 . S
C442 C440 1.327 . S
C442 C461 1.429 . S
C442 H466 0.950 . S
C443 C460 1.574 1_565 S
C443 C462 1.368 . S
C443 H467 0.949 . S
H444 C448 0.949 . S
C445 C446 1.349 . S
C445 C447 1.327 . S
C445 H468 0.950 . S
C446 C445 1.349 . S
C446 C458 1.349 . S
C447 C445 1.327 . S
C447 C463 1.429 . S
C447 H469 0.950 . S
C448 H444 0.949 . S
C448 C456 1.574 1_545 S
C448 C464 1.368 . S
H449 C457 0.950 . S
H450 C455 0.950 . S
H451 C456 0.949 . S
H452 C458 0.950 . S
H453 C459 0.950 . S
H454 C460 0.949 . S
C455 H450 0.950 . S
C455 C457 1.327 . S
C455 C461 1.429 . S
C456 C448 1.574 1_565 S
C456 H451 0.949 . S
C456 C462 1.368 . S
C457 C441 1.349 . S
C457 H449 0.950 . S
C457 C455 1.327 . S
C458 C446 1.349 . S
C458 H452 0.950 . S
C458 C459 1.327 . S
C459 H453 0.950 . S
C459 C458 1.327 . S
C459 C463 1.429 . S
C460 C443 1.574 1_545 S
C460 H454 0.949 . S
C460 C464 1.368 . S
C461 C442 1.429 . S
C461 C455 1.429 . S
C461 C462 1.523 . S
C462 C443 1.368 . S
C462 C456 1.368 . S
C462 C461 1.523 . S
C463 C447 1.429 . S
C463 C459 1.429 . S
C463 C464 1.523 . S
C464 C448 1.368 . S
C464 C460 1.368 . S
C464 C463 1.523 . S
H465 C440 0.950 . S
H466 C442 0.950 . S
H467 C443 0.949 . S
H468 C445 0.950 . S
H469 C447 0.950 . S
C470 C471 1.349 . S
C470 C472 1.327 . S
C470 H495 0.950 . S
C471 C470 1.349 . S
C471 C487 1.349 . S
C472 C470 1.327 . S
C472 C491 1.429 . S
C472 H496 0.950 . S
C473 C490 1.574 . S
C473 C492 1.368 . S
C473 H497 0.949 . S
H474 C478 0.949 . S
C475 C476 1.349 . S
C475 C477 1.327 . S
C475 H498 0.950 . S
C476 C475 1.349 . S
C476 C488 1.349 . S
C477 C475 1.327 . S
C477 C493 1.429 . S
C477 H499 0.950 . S
C478 H474 0.949 . S
C478 C486 1.574 . S
C478 C494 1.368 . S
H479 C487 0.950 . S
H480 C485 0.950 . S
H481 C486 0.949 . S
H482 C488 0.950 . S
H483 C489 0.950 . S
H484 C490 0.949 . S
C485 H480 0.950 . S
C485 C487 1.327 . S
C485 C491 1.429 . S
C486 C478 1.574 . S
C486 H481 0.949 . S
C486 C492 1.368 . S
C487 C471 1.349 . S
C487 H479 0.950 . S
C487 C485 1.327 . S
C488 C476 1.349 . S
C488 H482 0.950 . S
C488 C489 1.327 . S
C489 H483 0.950 . S
C489 C488 1.327 . S
C489 C493 1.429 . S
C490 C473 1.574 . S
C490 H484 0.949 . S
C490 C494 1.368 . S
C491 C472 1.429 . S
C491 C485 1.429 . S
C491 C492 1.523 . S
C492 C473 1.368 . S
C492 C486 1.368 . S
C492 C491 1.523 . S
C493 C477 1.429 . S
C493 C489 1.429 . S
C493 C494 1.523 . S
C494 C478 1.368 . S
C494 C490 1.368 . S
C494 C493 1.523 . S
H495 C470 0.950 . S
H496 C472 0.950 . S
H497 C473 0.949 . S
H498 C475 0.950 . S
H499 C477 0.950 . S
C500 C501 1.349 . S
C500 C502 1.327 . S
C500 H525 0.950 . S
C501 C500 1.349 . S
C501 C517 1.349 . S
C502 C500 1.327 . S
C502 C521 1.429 . S
C502 H526 0.950 . S
C503 C520 1.574 1_565 S
C503 C522 1.368 . S
C503 H527 0.949 . S
H504 C508 0.949 . S
C505 C506 1.349 . S
C505 C507 1.327 . S
C505 H528 0.950 . S
C506 C505 1.349 . S
C506 C518 1.349 . S
C507 C505 1.327 . S
C507 C523 1.429 . S
C507 H529 0.950 . S
C508 H504 0.949 . S
C508 C516 1.574 1_545 S
C508 C524 1.368 . S
H509 C517 0.950 . S
H510 C515 0.950 . S
H511 C516 0.949 . S
H512 C518 0.950 . S
H513 C519 0.950 . S
H514 C520 0.949 . S
C515 H510 0.950 . S
C515 C517 1.327 . S
C515 C521 1.429 . S
C516 C508 1.574 1_565 S
C516 H511 0.949 . S
C516 C522 1.368 . S
C517 C501 1.349 . S
C517 H509 0.950 . S
C517 C515 1.327 . S
C518 C506 1.349 . S
C518 H512 0.950 . S
C518 C519 1.327 . S
C519 H513 0.950 . S
C519 C518 1.327 . S
C519 C523 1.429 . S
C520 C503 1.574 1_545 S
C520 H514 0.949 . S
C520 C524 1.368 . S
C521 C502 1.429 . S
C521 C515 1.429 . S
C521 C522 1.523 . S
C522 C503 1.368 . S
C522 C516 1.368 . S
C522 C521 1.523 . S
C523 C507 1.429 . S
C523 C519 1.429 . S
C523 C524 1.523 . S
C524 C508 1.368 . S
C524 C520 1.368 . S
C524 C523 1.523 . S
H525 C500 0.950 . S
H526 C502 0.950 . S
H527 C503 0.949 . S
H528 C505 0.950 . S
H529 C507 0.950 . S
C530 C531 1.349 . S
C530 C532 1.327 . S
C530 H555 0.950 . S
C531 C530 1.349 . S
C531 C547 1.349 . S
C532 C530 1.327 . S
C532 C551 1.429 . S
C532 H556 0.950 . S
C533 C550 1.574 . S
C533 C552 1.368 . S
C533 H557 0.949 . S
H534 C538 0.949 . S
C535 C536 1.349 . S
C535 C537 1.327 . S
C535 H558 0.950 . S
C536 C535 1.349 . S
C536 C548 1.349 . S
C537 C535 1.327 . S
C537 C553 1.429 . S
C537 H559 0.950 . S
C538 H534 0.949 . S
C538 C546 1.574 . S
C538 C554 1.368 . S
H539 C547 0.950 . S
H540 C545 0.950 . S
H541 C546 0.949 . S
H542 C548 0.950 . S
H543 C549 0.950 . S
H544 C550 0.949 . S
C545 H540 0.950 . S
C545 C547 1.327 . S
C545 C551 1.429 . S
C546 C538 1.574 . S
C546 H541 0.949 . S
C546 C552 1.368 . S
C547 C531 1.349 . S
C547 H539 0.950 . S
C547 C545 1.327 . S
C548 C536 1.349 . S
C548 H542 0.950 . S
C548 C549 1.327 . S
C549 H543 0.950 . S
C549 C548 1.327 . S
C549 C553 1.429 . S
C550 C533 1.574 . S
C550 H544 0.949 . S
C550 C554 1.368 . S
C551 C532 1.429 . S
C551 C545 1.429 . S
C551 C552 1.523 . S
C552 C533 1.368 . S
C552 C546 1.368 . S
C552 C551 1.523 . S
C553 C537 1.429 . S
C553 C549 1.429 . S
C553 C554 1.523 . S
C554 C538 1.368 . S
C554 C550 1.368 . S
C554 C553 1.523 . S
H555 C530 0.950 . S
H556 C532 0.950 . S
H557 C533 0.949 . S
H558 C535 0.950 . S
H559 C537 0.950 . S
C560 C561 1.349 . S
C560 C562 1.327 . S
C560 H585 0.950 . S
C561 C560 1.349 . S
C561 C577 1.349 1_556 S
C562 C560 1.327 . S
C562 C581 1.429 . S
C562 H586 0.950 . S
C563 C580 1.574 . S
C563 C582 1.368 1_554 S
C563 H587 0.949 . S
H564 C568 0.949 . S
C565 C566 1.349 1_554 S
C565 C567 1.327 . S
C565 H588 0.950 . S
C566 C565 1.349 1_556 S
C566 C578 1.349 . S
C567 C565 1.327 . S
C567 C583 1.429 1_554 S
C567 H589 0.950 . S
C568 H564 0.949 . S
C568 C576 1.574 . S
C568 C584 1.368 . S
H569 C577 0.950 . S
H570 C575 0.950 . S
H571 C576 0.949 . S
H572 C578 0.950 . S
H573 C579 0.950 . S
H574 C580 0.949 . S
C575 H570 0.950 . S
C575 C577 1.327 . S
C575 C581 1.429 1_554 S
C576 C568 1.574 . S
C576 H571 0.949 . S
C576 C582 1.368 . S
C577 C561 1.349 1_554 S
C577 H569 0.950 . S
C577 C575 1.327 . S
C578 C566 1.349 . S
C578 H572 0.950 . S
C578 C579 1.327 . S
C579 H573 0.950 . S
C579 C578 1.327 . S
C579 C583 1.429 . S
C580 C563 1.574 . S
C580 H574 0.949 . S
C580 C584 1.368 1_554 S
C581 C562 1.429 . S
C581 C575 1.429 1_556 S
C581 C582 1.523 . S
C582 C563 1.368 1_556 S
C582 C576 1.368 . S
C582 C581 1.523 . S
C583 C567 1.429 1_556 S
C583 C579 1.429 . S
C583 C584 1.523 . S
C584 C568 1.368 . S
C584 C580 1.368 1_556 S
C584 C583 1.523 . S
H585 C560 0.950 . S
H586 C562 0.950 . S
H587 C563 0.949 . S
H588 C565 0.950 . S
H589 C567 0.950 . S
C590 C591 1.349 . S
C590 C592 1.327 . S
C590 H615 0.950 . S
C591 C590 1.349 . S
C591 C607 1.349 1_556 S
C592 C590 1.327 . S
C592 C611 1.429 . S
C592 H616 0.950 . S
C593 C610 1.574 1_565 S
C593 C612 1.368 1_554 S
C593 H617 0.949 . S
H594 C598 0.949 . S
C595 C596 1.349 1_554 S
C595 C597 1.327 . S
C595 H618 0.950 . S
C596 C595 1.349 1_556 S
C596 C608 1.349 . S
C597 C595 1.327 . S
C597 C613 1.429 1_554 S
C597 H619 0.950 . S
C598 H594 0.949 . S
C598 C606 1.574 1_545 S
C598 C614 1.368 . S
H599 C607 0.950 . S
H600 C605 0.950 . S
H601 C606 0.949 . S
H602 C608 0.950 . S
H603 C609 0.950 . S
H604 C610 0.949 . S
C605 H600 0.950 . S
C605 C607 1.327 . S
C605 C611 1.429 1_554 S
C606 C598 1.574 1_565 S
C606 H601 0.949 . S
C606 C612 1.368 . S
C607 C591 1.349 1_554 S
C607 H599 0.950 . S
C607 C605 1.327 . S
C608 C596 1.349 . S
C608 H602 0.950 . S
C608 C609 1.327 . S
C609 H603 0.950 . S
C609 C608 1.327 . S
C609 C613 1.429 . S
C610 C593 1.574 1_545 S
C610 H604 0.949 . S
C610 C614 1.368 1_554 S
C611 C592 1.429 . S
C611 C605 1.429 1_556 S
C611 C612 1.523 . S
C612 C593 1.368 1_556 S
C612 C606 1.368 . S
C612 C611 1.523 . S
C613 C597 1.429 1_556 S
C613 C609 1.429 . S
C613 C614 1.523 . S
C614 C598 1.368 . S
C614 C610 1.368 1_556 S
C614 C613 1.523 . S
H615 C590 0.950 . S
H616 C592 0.950 . S
H617 C593 0.949 . S
H618 C595 0.950 . S
H619 C597 0.950 . S
C620 C621 1.349 . S
C620 C622 1.327 . S
C620 H645 0.950 . S
C621 C620 1.349 . S
C621 C637 1.349 1_554 S
C622 C620 1.327 . S
C622 C641 1.429 . S
C622 H646 0.950 . S
C623 C640 1.574 . S
C623 C642 1.368 1_556 S
C623 H647 0.949 . S
H624 C628 0.949 . S
C625 C626 1.349 1_556 S
C625 C627 1.327 . S
C625 H648 0.950 . S
C626 C625 1.349 1_554 S
C626 C638 1.349 . S
C627 C625 1.327 . S
C627 C643 1.429 1_556 S
C627 H649 0.950 . S
C628 H624 0.949 . S
C628 C636 1.574 . S
C628 C644 1.368 . S
H629 C637 0.950 . S
H630 C635 0.950 . S
H631 C636 0.949 . S
H632 C638 0.950 . S
H633 C639 0.950 . S
H634 C640 0.949 . S
C635 H630 0.950 . S
C635 C637 1.327 . S
C635 C641 1.429 1_556 S
C636 C628 1.574 . S
C636 H631 0.949 . S
C636 C642 1.368 . S
C637 C621 1.349 1_556 S
C637 H629 0.950 . S
C637 C635 1.327 . S
C638 C626 1.349 . S
C638 H632 0.950 . S
C638 C639 1.327 . S
C639 H633 0.950 . S
C639 C638 1.327 . S
C639 C643 1.429 . S
C640 C623 1.574 . S
C640 H634 0.949 . S
C640 C644 1.368 1_556 S
C641 C622 1.429 . S
C641 C635 1.429 1_554 S
C641 C642 1.523 . S
C642 C623 1.368 1_554 S
C642 C636 1.368 . S
C642 C641 1.523 . S
C643 C627 1.429 1_554 S
C643 C639 1.429 . S
C643 C644 1.523 . S
C644 C628 1.368 . S
C644 C640 1.368 1_554 S
C644 C643 1.523 . S
H645 C620 0.950 . S
H646 C622 0.950 . S
H647 C623 0.949 . S
H648 C625 0.950 . S
H649 C627 0.950 . S
C650 C651 1.349 1_556 S
C650 C652 1.327 . S
C650 H675 0.950 . S
C651 C650 1.349 1_554 S
C651 C667 1.349 . S
C652 C650 1.327 . S
C652 C671 1.429 1_556 S
C652 H676 0.950 . S
C653 C670 1.574 1_545 S
C653 C672 1.368 . S
C653 H677 0.949 . S
H654 C658 0.949 . S
C655 C656 1.349 . S
C655 C657 1.327 . S
C655 H678 0.950 . S
C656 C655 1.349 . S
C656 C668 1.349 1_554 S
C657 C655 1.327 . S
C657 C673 1.429 . S
C657 H679 0.950 . S
C658 H654 0.949 . S
C658 C666 1.574 1_565 S
C658 C674 1.368 1_556 S
H659 C667 0.950 . S
H660 C665 0.950 . S
H661 C666 0.949 . S
H662 C668 0.950 . S
H663 C669 0.950 . S
H664 C670 0.949 . S
C665 H660 0.950 . S
C665 C667 1.327 . S
C665 C671 1.429 . S
C666 C658 1.574 1_545 S
C666 H661 0.949 . S
C666 C672 1.368 1_556 S
C667 C651 1.349 . S
C667 H659 0.950 . S
C667 C665 1.327 . S
C668 C656 1.349 1_556 S
C668 H662 0.950 . S
C668 C669 1.327 . S
C669 H663 0.950 . S
C669 C668 1.327 . S
C669 C673 1.429 1_556 S
C670 C653 1.574 1_565 S
C670 H664 0.949 . S
C670 C674 1.368 . S
C671 C652 1.429 1_554 S
C671 C665 1.429 . S
C671 C672 1.523 . S
C672 C653 1.368 . S
C672 C666 1.368 1_554 S
C672 C671 1.523 . S
C673 C657 1.429 . S
C673 C669 1.429 1_554 S
C673 C674 1.523 . S
C674 C658 1.368 1_554 S
C674 C670 1.368 . S
C674 C673 1.523 . S
H675 C650 0.950 . S
H676 C652 0.950 . S
H677 C653 0.949 . S
H678 C655 0.950 . S
H679 C657 0.950 . S
C680 C681 1.349 . S
C680 C682 1.327 . S
C680 H705 0.950 . S
C681 C680 1.349 . S
C681 C697 1.349 . S
C682 C680 1.327 . S
C682 C701 1.429 . S
C682 H706 0.950 . S
C683 C700 1.574 . S
C683 C702 1.368 1_556 S
C683 H707 0.949 . S
H684 C688 0.949 . S
C685 C686 1.349 . S
C685 C687 1.327 . S
C685 H708 0.950 . S
C686 C685 1.349 . S
C686 C698 1.349 . S
C687 C685 1.327 . S
C687 C703 1.429 . S
C687 H709 0.950 . S
C688 H684 0.949 . S
C688 C696 1.574 . S
C688 C704 1.368 . S
H689 C697 0.950 . S
H690 C695 0.950 . S
H691 C696 0.949 1_554 S
H692 C698 0.950 . S
H693 C699 0.950 . S
H694 C700 0.949 . S
C695 H690 0.950 . S
C695 C697 1.327 . S
C695 C701 1.429 . S
C696 C688 1.574 . S
C696 H691 0.949 1_556 S
C696 C702 1.368 1_556 S
C697 C681 1.349 . S
C697 H689 0.950 . S
C697 C695 1.327 . S
C698 C686 1.349 . S
C698 H692 0.950 . S
C698 C699 1.327 . S
C699 H693 0.950 . S
C699 C698 1.327 . S
C699 C703 1.429 . S
C700 C683 1.574 . S
C700 H694 0.949 . S
C700 C704 1.368 . S
C701 C682 1.429 . S
C701 C695 1.429 . S
C701 C702 1.523 . S
C702 C683 1.368 1_554 S
C702 C696 1.368 1_554 S
C702 C701 1.523 . S
C703 C687 1.429 . S
C703 C699 1.429 . S
C703 C704 1.523 . S
C704 C688 1.368 . S
C704 C700 1.368 . S
C704 C703 1.523 . S
H705 C680 0.950 . S
H706 C682 0.950 . S
H707 C683 0.949 . S
H708 C685 0.950 . S
H709 C687 0.950 . S
C710 C711 1.349 . S
C710 C712 1.327 . S
C710 H735 0.950 . S
C711 C710 1.349 . S
C711 C727 1.349 . S
C712 C710 1.327 . S
C712 C731 1.429 . S
C712 H736 0.950 . S
C713 C730 1.574 . S
C713 C732 1.368 1_556 S
C713 H737 0.949 1_556 S
H714 C718 0.949 . S
C715 C716 1.349 . S
C715 C717 1.327 . S
C715 H738 0.950 . S
C716 C715 1.349 . S
C716 C728 1.349 . S
C717 C715 1.327 . S
C717 C733 1.429 . S
C717 H739 0.950 . S
C718 H714 0.949 . S
C718 C726 1.574 . S
C718 C734 1.368 . S
H719 C727 0.950 . S
H720 C725 0.950 . S
H721 C726 0.949 . S
H722 C728 0.950 . S
H723 C729 0.950 . S
H724 C730 0.949 . S
C725 H720 0.950 . S
C725 C727 1.327 . S
C725 C731 1.429 . S
C726 C718 1.574 . S
C726 H721 0.949 . S
C726 C732 1.368 1_556 S
C727 C711 1.349 . S
C727 H719 0.950 . S
C727 C725 1.327 . S
C728 C716 1.349 . S
C728 H722 0.950 . S
C728 C729 1.327 . S
C729 H723 0.950 . S
C729 C728 1.327 . S
C729 C733 1.429 . S
C730 C713 1.574 . S
C730 H724 0.949 . S
C730 C734 1.368 . S
C731 C712 1.429 . S
C731 C725 1.429 . S
C731 C732 1.523 . S
C732 C713 1.368 1_554 S
C732 C726 1.368 1_554 S
C732 C731 1.523 . S
C733 C717 1.429 . S
C733 C729 1.429 . S
C733 C734 1.523 . S
C734 C718 1.368 . S
C734 C730 1.368 . S
C734 C733 1.523 . S
H735 C710 0.950 . S
H736 C712 0.950 . S
H737 C713 0.949 1_554 S
H738 C715 0.950 . S
H739 C717 0.950 . S
C740 C741 1.349 . S
C740 C742 1.327 . S
C740 H765 0.950 . S
C741 C740 1.349 . S
C741 C757 1.349 . S
C742 C740 1.327 . S
C742 C761 1.429 . S
C742 H766 0.950 . S
C743 C760 1.574 . S
C743 C762 1.368 . S
C743 H767 0.949 . S
H744 C748 0.949 1_556 S
C745 C746 1.349 . S
C745 C747 1.327 . S
C745 H768 0.950 . S
C746 C745 1.349 . S
C746 C758 1.349 . S
C747 C745 1.327 . S
C747 C763 1.429 . S
C747 H769 0.950 . S
C748 H744 0.949 1_554 S
C748 C756 1.574 . S
C748 C764 1.368 1_554 S
H749 C757 0.950 . S
H750 C755 0.950 . S
H751 C756 0.949 . S
H752 C758 0.950 . S
H753 C759 0.950 . S
H754 C760 0.949 . S
C755 H750 0.950 . S
C755 C757 1.327 . S
C755 C761 1.429 . S
C756 C748 1.574 . S
C756 H751 0.949 . S
C756 C762 1.368 . S
C757 C741 1.349 . S
C757 H749 0.950 . S
C757 C755 1.327 . S
C758 C746 1.349 . S
C758 H752 0.950 . S
C758 C759 1.327 . S
C759 H753 0.950 . S
C759 C758 1.327 . S
C759 C763 1.429 . S
C760 C743 1.574 . S
C760 H754 0.949 . S
C760 C764 1.368 1_554 S
C761 C742 1.429 . S
C761 C755 1.429 . S
C761 C762 1.523 . S
C762 C743 1.368 . S
C762 C756 1.368 . S
C762 C761 1.523 . S
C763 C747 1.429 . S
C763 C759 1.429 . S
C763 C764 1.523 . S
C764 C748 1.368 1_556 S
C764 C760 1.368 1_556 S
C764 C763 1.523 . S
H765 C740 0.950 . S
H766 C742 0.950 . S
H767 C743 0.949 . S
H768 C745 0.950 . S
H769 C747 0.950 . S
C770 C771 1.349 . S
C770 C772 1.327 . S
C770 H795 0.950 . S
C771 C770 1.349 . S
C771 C787 1.349 . S
C772 C770 1.327 . S
C772 C791 1.429 . S
C772 H796 0.950 . S
C773 C790 1.574 . S
C773 C792 1.368 1_554 S
C773 H797 0.949 1_554 S
H774 C778 0.949 . S
C775 C776 1.349 . S
C775 C777 1.327 . S
C775 H798 0.950 . S
C776 C775 1.349 . S
C776 C788 1.349 . S
C777 C775 1.327 . S
C777 C793 1.429 . S
C777 H799 0.950 . S
C778 H774 0.949 . S
C778 C786 1.574 . S
C778 C794 1.368 . S
H779 C787 0.950 . S
H780 C785 0.950 . S
H781 C786 0.949 1_556 S
H782 C788 0.950 . S
H783 C789 0.950 . S
H784 C790 0.949 . S
C785 H780 0.950 . S
C785 C787 1.327 . S
C785 C791 1.429 . S
C786 C778 1.574 . S
C786 H781 0.949 1_554 S
C786 C792 1.368 1_554 S
C787 C771 1.349 . S
C787 H779 0.950 . S
C787 C785 1.327 . S
C788 C776 1.349 . S
C788 H782 0.950 . S
C788 C789 1.327 . S
C789 H783 0.950 . S
C789 C788 1.327 . S
C789 C793 1.429 . S
C790 C773 1.574 . S
C790 H784 0.949 . S
C790 C794 1.368 . S
C791 C772 1.429 . S
C791 C785 1.429 . S
C791 C792 1.523 . S
C792 C773 1.368 1_556 S
C792 C786 1.368 1_556 S
C792 C791 1.523 . S
C793 C777 1.429 . S
C793 C789 1.429 . S
C793 C794 1.523 . S
C794 C778 1.368 . S
C794 C790 1.368 . S
C794 C793 1.523 . S
H795 C770 0.950 . S
H796 C772 0.950 . S
H797 C773 0.949 1_556 S
H798 C775 0.950 . S
H799 C777 0.950 . S
C800 C801 1.349 . S
C800 C802 1.327 . S
C800 H825 0.950 . S
C801 C800 1.349 . S
C801 C817 1.349 . S
C802 C800 1.327 . S
C802 C821 1.429 . S
C802 H826 0.950 . S
C803 C820 1.574 . S
C803 C822 1.368 . S
C803 H827 0.949 . S
H804 C808 0.949 . S
C805 C806 1.349 . S
C805 C807 1.327 . S
C805 H828 0.950 . S
C806 C805 1.349 . S
C806 C818 1.349 . S
C807 C805 1.327 . S
C807 C823 1.429 . S
C807 H829 0.950 . S
C808 H804 0.949 . S
C808 C816 1.574 . S
C808 C824 1.368 . S
H809 C817 0.950 . S
H810 C815 0.950 . S
H811 C816 0.949 . S
H812 C818 0.950 . S
H813 C819 0.950 . S
H814 C820 0.949 . S
C815 H810 0.950 . S
C815 C817 1.327 . S
C815 C821 1.429 . S
C816 C808 1.574 . S
C816 H811 0.949 . S
C816 C822 1.368 . S
C817 C801 1.349 . S
C817 H809 0.950 . S
C817 C815 1.327 . S
C818 C806 1.349 . S
C818 H812 0.950 . S
C818 C819 1.327 . S
C819 H813 0.950 . S
C819 C818 1.327 . S
C819 C823 1.429 . S
C820 C803 1.574 . S
C820 H814 0.949 . S
C820 C824 1.368 . S
C821 C802 1.429 . S
C821 C815 1.429 . S
C821 C822 1.523 . S
C822 C803 1.368 . S
C822 C816 1.368 . S
C822 C821 1.523 . S
C823 C807 1.429 . S
C823 C819 1.429 . S
C823 C824 1.523 . S
C824 C808 1.368 . S
C824 C820 1.368 . S
C824 C823 1.523 . S
H825 C800 0.950 . S
H826 C802 0.950 . S
H827 C803 0.949 . S
H828 C805 0.950 . S
H829 C807 0.950 . S
C830 C831 1.349 . S
C830 C832 1.327 . S
C830 H855 0.950 . S
C831 C830 1.349 . S
C831 C847 1.349 . S
C832 C830 1.327 . S
C832 C851 1.429 . S
C832 H856 0.950 . S
C833 C850 1.574 . S
C833 C852 1.368 . S
C833 H857 0.949 . S
H834 C838 0.949 . S
C835 C836 1.349 . S
C835 C837 1.327 . S
C835 H858 0.950 . S
C836 C835 1.349 . S
C836 C848 1.349 . S
C837 C835 1.327 . S
C837 C853 1.429 . S
C837 H859 0.950 . S
C838 H834 0.949 . S
C838 C846 1.574 . S
C838 C854 1.368 . S
H839 C847 0.950 . S
H840 C845 0.950 . S
H841 C846 0.949 . S
H842 C848 0.950 . S
H843 C849 0.950 . S
H844 C850 0.949 . S
C845 H840 0.950 . S
C845 C847 1.327 . S
C845 C851 1.429 . S
C846 C838 1.574 . S
C846 H841 0.949 . S
C846 C852 1.368 . S
C847 C831 1.349 . S
C847 H839 0.950 . S
C847 C845 1.327 . S
C848 C836 1.349 . S
C848 H842 0.950 . S
C848 C849 1.327 . S
C849 H843 0.950 . S
C849 C848 1.327 . S
C849 C853 1.429 . S
C850 C833 1.574 . S
C850 H844 0.949 . S
C850 C854 1.368 . S
C851 C832 1.429 . S
C851 C845 1.429 . S
C851 C852 1.523 . S
C852 C833 1.368 . S
C852 C846 1.368 . S
C852 C851 1.523 . S
C853 C837 1.429 . S
C853 C849 1.429 . S
C853 C854 1.523 . S
C854 C838 1.368 . S
C854 C850 1.368 . S
C854 C853 1.523 . S
H855 C830 0.950 . S
H856 C832 0.950 . S
H857 C833 0.949 . S
H858 C835 0.950 . S
H859 C837 0.950 . S
C860 C861 1.349 . S
C860 C862 1.327 . S
C860 H885 0.950 . S
C861 C860 1.349 . S
C861 C877 1.349 . S
C862 C860 1.327 . S
C862 C881 1.429 . S
C862 H886 0.950 . S
C863 C880 1.574 . S
C863 C882 1.368 . S
C863 H887 0.949 . S
H864 C868 0.949 . S
C865 C866 1.349 . S
C865 C867 1.327 . S
C865 H888 0.950 . S
C866 C865 1.349 . S
C866 C878 1.349 . S
C867 C865 1.327 . S
C867 C883 1.429 . S
C867 H889 0.950 . S
C868 H864 0.949 . S
C868 C876 1.574 . S
C868 C884 1.368 . S
H869 C877 0.950 . S
H870 C875 0.950 . S
H871 C876 0.949 . S
H872 C878 0.950 . S
H873 C879 0.950 . S
H874 C880 0.949 . S
C875 H870 0.950 . S
C875 C877 1.327 . S
C875 C881 1.429 . S
C876 C868 1.574 . S
C876 H871 0.949 . S
C876 C882 1.368 . S
C877 C861 1.349 . S
C877 H869 0.950 . S
C877 C875 1.327 . S
C878 C866 1.349 . S
C878 H872 0.950 . S
C878 C879 1.327 . S
C879 H873 0.950 . S
C879 C878 1.327 . S
C879 C883 1.429 . S
C880 C863 1.574 . S
C880 H874 0.949 . S
C880 C884 1.368 . S
C881 C862 1.429 . S
C881 C875 1.429 . S
C881 C882 1.523 . S
C882 C863 1.368 . S
C882 C876 1.368 . S
C882 C881 1.523 . S
C883 C867 1.429 . S
C883 C879 1.429 . S
C883 C884 1.523 . S
C884 C868 1.368 . S
C884 C880 1.368 . S
C884 C883 1.523 . S
H885 C860 0.950 . S
H886 C862 0.950 . S
H887 C863 0.949 . S
H888 C865 0.950 . S
H889 C867 0.950 . S
C890 C891 1.349 . S
C890 C892 1.327 . S
C890 H915 0.950 . S
C891 C890 1.349 . S
C891 C907 1.349 . S
C892 C890 1.327 . S
C892 C911 1.429 . S
C892 H916 0.950 . S
C893 C910 1.574 . S
C893 C912 1.368 . S
C893 H917 0.949 . S
H894 C898 0.949 . S
C895 C896 1.349 . S
C895 C897 1.327 . S
C895 H918 0.950 . S
C896 C895 1.349 . S
C896 C908 1.349 . S
C897 C895 1.327 . S
C897 C913 1.429 . S
C897 H919 0.950 . S
C898 H894 0.949 . S
C898 C906 1.574 . S
C898 C914 1.368 . S
H899 C907 0.950 . S
H900 C905 0.950 . S
H901 C906 0.949 . S
H902 C908 0.950 . S
H903 C909 0.950 . S
H904 C910 0.949 . S
C905 H900 0.950 . S
C905 C907 1.327 . S
C905 C911 1.429 . S
C906 C898 1.574 . S
C906 H901 0.949 . S
C906 C912 1.368 . S
C907 C891 1.349 . S
C907 H899 0.950 . S
C907 C905 1.327 . S
C908 C896 1.349 . S
C908 H902 0.950 . S
C908 C909 1.327 . S
C909 H903 0.950 . S
C909 C908 1.327 . S
C909 C913 1.429 . S
C910 C893 1.574 . S
C910 H904 0.949 . S
C910 C914 1.368 . S
C911 C892 1.429 . S
C911 C905 1.429 . S
C911 C912 1.523 . S
C912 C893 1.368 . S
C912 C906 1.368 . S
C912 C911 1.523 . S
C913 C897 1.429 . S
C913 C909 1.429 . S
C913 C914 1.523 . S
C914 C898 1.368 . S
C914 C910 1.368 . S
C914 C913 1.523 . S
H915 C890 0.950 . S
H916 C892 0.950 . S
H917 C893 0.949 . S
H918 C895 0.950 . S
H919 C897 0.950 . S
C920 C921 1.349 . S
C920 C922 1.327 . S
C920 H945 0.950 . S
C921 C920 1.349 . S
C921 C937 1.349 . S
C922 C920 1.327 . S
C922 C941 1.429 . S
C922 H946 0.950 . S
C923 C940 1.574 1_455 S
C923 C942 1.368 . S
C923 H947 0.949 . S
H924 C928 0.949 . S
C925 C926 1.349 . S
C925 C927 1.327 . S
C925 H948 0.950 . S
C926 C925 1.349 . S
C926 C938 1.349 . S
C927 C925 1.327 . S
C927 C943 1.429 . S
C927 H949 0.950 . S
C928 H924 0.949 . S
C928 C936 1.574 1_655 S
C928 C944 1.368 . S
H929 C937 0.950 . S
H930 C935 0.950 . S
H931 C936 0.949 . S
H932 C938 0.950 . S
H933 C939 0.950 . S
H934 C940 0.949 . S
C935 H930 0.950 . S
C935 C937 1.327 . S
C935 C941 1.429 . S
C936 C928 1.574 1_455 S
C936 H931 0.949 . S
C936 C942 1.368 . S
C937 C921 1.349 . S
C937 H929 0.950 . S
C937 C935 1.327 . S
C938 C926 1.349 . S
C938 H932 0.950 . S
C938 C939 1.327 . S
C939 H933 0.950 . S
C939 C938 1.327 . S
C939 C943 1.429 . S
C940 C923 1.574 1_655 S
C940 H934 0.949 . S
C940 C944 1.368 . S
C941 C922 1.429 . S
C941 C935 1.429 . S
C941 C942 1.523 . S
C942 C923 1.368 . S
C942 C936 1.368 . S
C942 C941 1.523 . S
C943 C927 1.429 . S
C943 C939 1.429 . S
C943 C944 1.523 . S
C944 C928 1.368 . S
C944 C940 1.368 . S
C944 C943 1.523 . S
H945 C920 0.950 . S
H946 C922 0.950 . S
H947 C923 0.949 . S
H948 C925 0.950 . S
H949 C927 0.950 . S
C950 C951 1.349 . S
C950 C952 1.327 . S
C950 H975 0.950 . S
C951 C950 1.349 . S
C951 C967 1.349 . S
C952 C950 1.327 . S
C952 C971 1.429 . S
C952 H976 0.950 . S
C953 C970 1.574 1_655 S
C953 C972 1.368 . S
C953 H977 0.949 . S
H954 C958 0.949 . S
C955 C956 1.349 . S
C955 C957 1.327 . S
C955 H978 0.950 . S
C956 C955 1.349 . S
C956 C968 1.349 . S
C957 C955 1.327 . S
C957 C973 1.429 . S
C957 H979 0.950 . S
C958 H954 0.949 . S
C958 C966 1.574 1_455 S
C958 C974 1.368 . S
H959 C967 0.950 . S
H960 C965 0.950 . S
H961 C966 0.949 . S
H962 C968 0.950 . S
H963 C969 0.950 . S
H964 C970 0.949 . S
C965 H960 0.950 . S
C965 C967 1.327 . S
C965 C971 1.429 . S
C966 C958 1.574 1_655 S
C966 H961 0.949 . S
C966 C972 1.368 . S
C967 C951 1.349 . S
C967 H959 0.950 . S
C967 C965 1.327 . S
C968 C956 1.349 . S
C968 H962 0.950 . S
C968 C969 1.327 . S
C969 H963 0.950 . S
C969 C968 1.327 . S
C969 C973 1.429 . S
C970 C953 1.574 1_455 S
C970 H964 0.949 . S
C970 C974 1.368 . S
C971 C952 1.429 . S
C971 C965 1.429 . S
C971 C972 1.523 . S
C972 C953 1.368 . S
C972 C966 1.368 . S
C972 C971 1.523 . S
C973 C957 1.429 . S
C973 C969 1.429 . S
C973 C974 1.523 . S
C974 C958 1.368 . S
C974 C970 1.368 . S
C974 C973 1.523 . S
H975 C950 0.950 . S
H976 C952 0.950 . S
H977 C953 0.949 . S
H978 C955 0.950 . S
H979 C957 0.950 . S
C980 C981 1.349 . S
C980 C982 1.327 . S
C980 H1005 0.950 . S
C981 C980 1.349 . S
C981 C997 1.349 . S
C982 C980 1.327 . S
C982 C1001 1.429 . S
C982 H1006 0.950 . S
C983 C1000 1.574 . S
C983 C1002 1.368 . S
C983 H1007 0.949 . S
H984 C988 0.949 . S
C985 C986 1.349 . S
C985 C987 1.327 . S
C985 H1008 0.950 . S
C986 C985 1.349 . S
C986 C998 1.349 . S
C987 C985 1.327 . S
C987 C1003 1.429 . S
C987 H1009 0.950 . S
C988 H984 0.949 . S
C988 C996 1.574 . S
C988 C1004 1.368 . S
H989 C997 0.950 . S
H990 C995 0.950 . S
H991 C996 0.949 . S
H992 C998 0.950 . S
H993 C999 0.950 . S
H994 C1000 0.949 . S
C995 H990 0.950 . S
C995 C997 1.327 . S
C995 C1001 1.429 . S
C996 C988 1.574 . S
C996 H991 0.949 . S
C996 C1002 1.368 . S
C997 C981 1.349 . S
C997 H989 0.950 . S
C997 C995 1.327 . S
C998 C986 1.349 . S
C998 H992 0.950 . S
C998 C999 1.327 . S
C999 H993 0.950 . S
C999 C998 1.327 . S
C999 C1003 1.429 . S
C1000 C983 1.574 . S
C1000 H994 0.949 . S
C1000 C1004 1.368 . S
C1001 C982 1.429 . S
C1001 C995 1.429 . S
C1001 C1002 1.523 . S
C1002 C983 1.368 . S
C1002 C996 1.368 . S
C1002 C1001 1.523 . S
C1003 C987 1.429 . S
C1003 C999 1.429 . S
C1003 C1004 1.523 . S
C1004 C988 1.368 . S
C1004 C1000 1.368 . S
C1004 C1003 1.523 . S
H1005 C980 0.950 . S
H1006 C982 0.950 . S
H1007 C983 0.949 . S
H1008 C985 0.950 . S
H1009 C987 0.950 . S
C1010 C1011 1.349 . S
C1010 C1012 1.327 . S
C1010 H1035 0.950 . S
C1011 C1010 1.349 . S
C1011 C1027 1.349 . S
C1012 C1010 1.327 . S
C1012 C1031 1.429 . S
C1012 H1036 0.950 . S
C1013 C1030 1.574 . S
C1013 C1032 1.368 . S
C1013 H1037 0.949 . S
H1014 C1018 0.949 . S
C1015 C1016 1.349 . S
C1015 C1017 1.327 . S
C1015 H1038 0.950 . S
C1016 C1015 1.349 . S
C1016 C1028 1.349 . S
C1017 C1015 1.327 . S
C1017 C1033 1.429 . S
C1017 H1039 0.950 . S
C1018 H1014 0.949 . S
C1018 C1026 1.574 . S
C1018 C1034 1.368 . S
H1019 C1027 0.950 . S
H1020 C1025 0.950 . S
H1021 C1026 0.949 . S
H1022 C1028 0.950 . S
H1023 C1029 0.950 . S
H1024 C1030 0.949 . S
C1025 H1020 0.950 . S
C1025 C1027 1.327 . S
C1025 C1031 1.429 . S
C1026 C1018 1.574 . S
C1026 H1021 0.949 . S
C1026 C1032 1.368 . S
C1027 C1011 1.349 . S
C1027 H1019 0.950 . S
C1027 C1025 1.327 . S
C1028 C1016 1.349 . S
C1028 H1022 0.950 . S
C1028 C1029 1.327 . S
C1029 H1023 0.950 . S
C1029 C1028 1.327 . S
C1029 C1033 1.429 . S
C1030 C1013 1.574 . S
C1030 H1024 0.949 . S
C1030 C1034 1.368 . S
C1031 C1012 1.429 . S
C1031 C1025 1.429 . S
C1031 C1032 1.523 . S
C1032 C1013 1.368 . S
C1032 C1026 1.368 . S
C1032 C1031 1.523 . S
C1033 C1017 1.429 . S
C1033 C1029 1.429 . S
C1033 C1034 1.523 . S
C1034 C1018 1.368 . S
C1034 C1030 1.368 . S
C1034 C1033 1.523 . S
H1035 C1010 0.950 . S
H1036 C1012 0.950 . S
H1037 C1013 0.949 . S
H1038 C1015 0.950 . S
H1039 C1017 0.950 . S
C321 C7 1.703 . S
C326 C296 1.703 . S
C351 C256 1.703 . S
C356 C47 1.703 . S
C381 C207 1.703 . S
C386 C96 1.703 . S
C411 C167 1.703 . S
C416 C136 1.703 . S
C441 C90 1.546 . S
C446 C10 1.549 . S
C471 C50 1.549 . S
C476 C130 1.546 . S
C501 C139 1.549 . S
C506 C59 1.546 . S
C531 C99 1.549 . S
C536 C19 1.546 . S
C561 C170 1.450 . S
C566 C250 1.450 . S
C591 C210 1.450 . S
C596 C290 1.450 . S
C621 C299 1.451 . S
C626 C219 1.451 . S
C651 C259 1.450 . S
C656 C179 1.451 . S
C681 C11 2.088 . S
C686 C2 2.088 . S
C711 C51 2.088 . S
C716 C42 2.088 . S
C741 C91 2.088 . S
C746 C82 2.088 . S
C771 C122 2.088 . S
C776 C131 2.088 . S
C801 C162 2.088 . S
C806 C171 2.088 . S
C831 C211 2.088 . S
C836 C202 2.088 . S
C861 C242 2.088 . S
C866 C251 2.088 . S
C891 C282 2.088 . S
C896 C291 2.088 . S
C921 C16 2.374 . S
C926 C56 2.374 . S
C951 C127 2.374 . S
C956 C87 2.374 . S
C981 C176 2.375 . S
C986 C216 2.375 . S
C1011 C287 2.375 . S
C1016 C247 2.375 . S
