# Generated by pormake.
# Topology fne, (5)-cn, num edge types: 1
# Building blocks:
#     Node 0, Type 0, BuildingBlock: XOMCOT_clean_sbu_0, # of connection points: 5
#     Node 1, Type 0, BuildingBlock: XOMCOT_clean_sbu_0, # of connection points: 5
#     Node 2, Type 0, BuildingBlock: XOMCOT_clean_sbu_0, # of connection points: 5
#     Node 3, Type 0, BuildingBlock: XOMCOT_clean_sbu_0, # of connection points: 5
#     Node 4, Type 0, BuildingBlock: XOMCOT_clean_sbu_0, # of connection points: 5
#     Node 5, Type 0, BuildingBlock: XOMCOT_clean_sbu_0, # of connection points: 5
#     Edge 6, Type (0, 0), BuildingBlock: AJUNOK_clean_linker_0, # of connection points: 2
#     Edge 7, Type (0, 0), BuildingBlock: AJUNOK_clean_linker_0, # of connection points: 2
#     Edge 8, Type (0, 0), BuildingBlock: AJUNOK_clean_linker_0, # of connection points: 2
#     Edge 9, Type (0, 0), BuildingBlock: AJUNOK_clean_linker_0, # of connection points: 2
#     Edge 10, Type (0, 0), BuildingBlock: AJUNOK_clean_linker_0, # of connection points: 2
#     Edge 11, Type (0, 0), BuildingBlock: AJUNOK_clean_linker_0, # of connection points: 2
#     Edge 12, Type (0, 0), BuildingBlock: AJUNOK_clean_linker_0, # of connection points: 2
#     Edge 13, Type (0, 0), BuildingBlock: AJUNOK_clean_linker_0, # of connection points: 2
#     Edge 14, Type (0, 0), BuildingBlock: AJUNOK_clean_linker_0, # of connection points: 2
#     Edge 15, Type (0, 0), BuildingBlock: AJUNOK_clean_linker_0, # of connection points: 2
#     Edge 16, Type (0, 0), BuildingBlock: AJUNOK_clean_linker_0, # of connection points: 2
#     Edge 17, Type (0, 0), BuildingBlock: AJUNOK_clean_linker_0, # of connection points: 2
#     Edge 18, Type (0, 0), BuildingBlock: AJUNOK_clean_linker_0, # of connection points: 2
#     Edge 19, Type (0, 0), BuildingBlock: AJUNOK_clean_linker_0, # of connection points: 2
#     Edge 20, Type (0, 0), BuildingBlock: AJUNOK_clean_linker_0, # of connection points: 2
# Relax obj value: 0.072
# Max RMSD: 0.102
# Mean RMSD: 0.102
data_MOF--net-fne--node1-XOMCOT_clean_sbu_0--edge1-AJUNOK_clean_linker_0
_symmetry_space_group_name_H-M    P1
_symmetry_Int_Tables_number       1
_symmetry_cell_setting            triclinic
loop_
_symmetry_equiv_pos_as_xyz
'x, y, z'
_cell_length_a     34.435656
_cell_length_b     34.599743
_cell_length_c     13.456788
_cell_angle_alpha  90.041958
_cell_angle_beta   89.895953
_cell_angle_gamma 120.09829
loop_
_atom_site_label
_atom_site_type_symbol
_atom_site_fract_x
_atom_site_fract_y
_atom_site_fract_z
_atom_type_partial_charge
Co0 Co 0.37838 0.10772 0.0677 0.0
C1 C 0.3797 0.09998 0.2871 0.0
C2 C 0.31556 0.05357 0.22624 0.0
C3 C 0.31195 0.05229 0.3282 0.0
N4 N 0.35837 0.08281 0.20004 0.0
N5 N 0.35225 0.08196 0.36615 0.0
H6 H 0.41325 0.12818 0.29317 0.0
H7 H 0.28793 0.03653 0.17498 0.0
C8 C 0.32335 1.00911 0.02601 0.0
O9 O 0.34436 1.00247 0.09963 0.0
N10 N 0.39737 0.13285 0.93673 0.0
C11 C 0.43919 0.16391 0.90906 0.0
C12 C 0.44072 0.16675 0.80679 0.0
C13 C 0.37392 0.11761 0.85161 0.0
N14 N 0.39963 0.13762 0.77108 0.0
C15 C 0.46088 0.11362 0.13016 0.0
C16 C 0.46202 0.05453 0.99382 0.0
C17 C 0.49698 0.07436 0.06346 0.0
C18 C 0.49667 0.10546 0.12988 0.0
C19 C 0.4274 0.06471 0.99483 0.0
N20 N 0.42562 0.09191 0.0664 0.0
H21 H 0.46269 0.13892 0.17949 0.0
H22 H 0.40242 0.05102 0.93694 0.0
H23 H 0.4672 0.18135 0.95934 0.0
H24 H 0.33962 0.09037 0.84805 0.0
O25 O 0.41206 0.16665 0.12564 0.0
O26 O 0.34104 0.13492 0.07962 0.0
O27 O 0.33274 0.04889 1.00472 0.0
C28 C 0.37547 0.16876 0.12125 0.0
H29 H 0.28157 0.03238 0.37063 0.0
H30 H 0.47012 0.18737 0.76198 0.0
H31 H 0.46134 0.03138 0.93873 0.0
H32 H 0.52439 0.1243 0.18017 0.0
Co33 Co 0.32341 0.3627 0.40505 0.0
C34 C 0.33238 0.364 0.62458 0.0
C35 C 0.31783 0.30105 0.56372 0.0
C36 C 0.31543 0.29747 0.66577 0.0
N37 N 0.32947 0.34318 0.53733 0.0
N38 N 0.32412 0.33704 0.70369 0.0
H39 H 0.33583 0.39667 0.63079 0.0
H40 H 0.30822 0.27358 0.51283 0.0
C41 C 0.36401 0.30542 0.35466 0.0
O42 O 0.39501 0.32705 0.42225 0.0
N43 N 0.31608 0.38129 0.27437 0.0
C44 C 0.32668 0.42289 0.24688 0.0
C45 C 0.32504 0.42435 0.14463 0.0
C46 C 0.30765 0.35797 0.189 0.0
N47 N 0.31312 0.38349 0.10855 0.0
C48 C 0.40398 0.44176 0.46609 0.0
C49 C 0.45832 0.44382 0.3124 0.0
C50 C 0.47595 0.47827 0.38281 0.0
C51 C 0.44817 0.477 0.46016 0.0
C52 C 0.41354 0.40939 0.3203 0.0
N53 N 0.38727 0.4077 0.39862 0.0
H54 H 0.38281 0.44315 0.52296 0.0
H55 H 0.3998 0.38473 0.26187 0.0
H56 H 0.33758 0.45084 0.29715 0.0
H57 H 0.30086 0.32397 0.18503 0.0
O58 O 0.30144 0.39886 0.46466 0.0
O59 O 0.25865 0.32801 0.4222 0.0
O60 O 0.33323 0.3152 0.34078 0.0
C61 C 0.26174 0.36351 0.46373 0.0
H62 H 0.30616 0.26752 0.70824 0.0
H63 H 0.3338 0.45366 0.10008 0.0
H64 H 0.47854 0.44426 0.25017 0.0
H65 H 0.46041 0.50336 0.51526 0.0
Co66 Co 1.01282 0.3061 0.73913 0.0
C67 C 1.02056 0.3151 0.9585 0.0
C68 C 0.06723 0.29786 0.89716 0.0
C69 C 0.06852 0.29555 0.99911 0.0
N70 N 1.03781 0.31109 0.87129 0.0
N71 N 1.03869 0.30588 0.03735 0.0
H72 H 0.99224 0.32022 0.9648 0.0
H73 H 0.08439 0.28751 0.84567 0.0
C74 C 0.11207 0.35056 0.69721 0.0
O75 O 0.11887 0.37801 0.77127 0.0
N76 N 0.98764 0.29993 0.60829 0.0
C77 C 0.95638 0.31033 0.58093 0.0
C78 C 0.95352 0.30898 0.47866 0.0
C79 C 1.00296 0.29189 0.52302 0.0
N80 N 0.98283 0.29736 0.44267 0.0
C81 C 1.00593 0.38168 0.80257 0.0
C82 C 0.06579 0.44284 0.66804 0.0
C83 C 0.04527 0.45725 0.73757 0.0
C84 C 1.0138 0.42537 0.80306 0.0
C85 C 0.05588 0.39828 0.66822 0.0
N86 N 1.02829 0.36885 0.73893 0.0
H87 H 0.98033 0.35781 0.85118 0.0
H88 H 0.07004 0.38753 0.61029 0.0
H89 H 0.9388 0.32064 0.63141 0.0
H90 H 1.03033 0.28507 0.51924 0.0
O91 O 0.95354 0.27999 0.79719 0.0
O92 O 0.98595 0.2417 0.74996 0.0
O93 O 0.07206 0.32019 0.67581 0.0
C94 C 0.95177 0.24163 0.79195 0.0
H95 H 0.08857 0.28534 0.04132 0.0
H96 H 0.93276 0.3175 0.43405 0.0
H97 H 0.08925 0.46569 0.61361 0.0
H98 H 0.99443 0.43366 0.85314 0.0
Co99 Co 0.75721 0.99377 0.07035 0.0
C100 C 0.75542 1.00314 0.28903 0.0
C101 C 0.82051 0.04703 0.2284 0.0
C102 C 0.82361 0.04901 0.33045 0.0
N103 N 0.77746 1.01901 0.20204 0.0
N104 N 0.78261 1.02121 0.36817 0.0
H105 H 0.72114 0.97636 0.29524 0.0
H106 H 0.84854 0.06228 0.1774 0.0
C107 C 0.81618 0.09204 0.02535 0.0
O108 O 0.79608 0.10107 0.09728 0.0
N109 N 0.73801 0.96848 0.93975 0.0
C110 C 0.69573 0.93963 0.91046 0.0
C111 C 0.69475 0.93826 0.80793 0.0
C112 C 0.76218 0.98363 0.85549 0.0
N113 N 0.73646 0.96657 0.7739 0.0
C114 C 0.67601 0.99114 0.13046 0.0
C115 C 0.67806 0.0519 0.99469 0.0
C116 C 0.64271 0.03292 0.06386 0.0
C117 C 0.64138 1.00097 0.12988 0.0
C118 C 0.71156 0.04011 0.99607 0.0
N119 N 0.71179 1.01207 0.06747 0.0
H120 H 0.6728 0.96518 0.17946 0.0
H121 H 0.73684 0.05317 0.93856 0.0
H122 H 0.66713 0.92328 0.95977 0.0
H123 H 0.79752 1.00815 0.85362 0.0
O124 O 0.72139 0.9355 0.12934 0.0
O125 O 0.79229 0.9641 0.08463 0.0
O126 O 0.80469 0.05148 1.00648 0.0
C127 C 0.7569 0.9315 0.12689 0.0
H128 H 0.85422 0.06667 0.37325 0.0
H129 H 0.66517 0.92033 0.76204 0.0
H130 H 0.67985 0.07557 0.93968 0.0
H131 H 0.61321 0.98269 0.17961 0.0
Co132 Co 0.81331 0.74112 0.40655 0.0
C133 C 0.80381 0.73919 0.62621 0.0
C134 C 0.81785 0.80202 0.56567 0.0
C135 C 0.82027 0.80558 0.66763 0.0
N136 N 0.80646 0.75996 0.53909 0.0
N137 N 0.81198 0.76614 0.70538 0.0
H138 H 0.80074 0.70667 0.63217 0.0
H139 H 0.82734 0.82949 0.51486 0.0
C140 C 0.76991 0.7956 0.36006 0.0
O141 O 0.74036 0.77291 0.42972 0.0
N142 N 0.8216 0.72331 0.27575 0.0
C143 C 0.81234 0.6821 0.24831 0.0
C144 C 0.81409 0.68067 0.14609 0.0
C145 C 0.82937 0.7465 0.19037 0.0
N146 N 0.82473 0.72118 0.10999 0.0
C147 C 0.73266 0.66133 0.46677 0.0
C148 C 0.67925 0.65906 0.31123 0.0
C149 C 0.66087 0.62512 0.38284 0.0
C150 C 0.68834 0.62622 0.46056 0.0
C151 C 0.724 0.6933 0.31953 0.0
N152 N 0.74974 0.69528 0.39897 0.0
H153 H 0.75352 0.6601 0.52443 0.0
H154 H 0.73808 0.71785 0.26088 0.0
H155 H 0.80222 0.65428 0.29861 0.0
H156 H 0.83501 0.78013 0.18638 0.0
O157 O 0.83598 0.70559 0.46569 0.0
O158 O 0.87802 0.77673 0.42463 0.0
O159 O 0.80197 0.78787 0.34322 0.0
C160 C 0.87538 0.74134 0.4657 0.0
H161 H 0.82938 0.8355 0.71012 0.0
H162 H 0.80622 0.65157 0.10156 0.0
H163 H 0.65952 0.65856 0.2481 0.0
H164 H 0.67569 0.60004 0.51614 0.0
Co165 Co 0.12293 0.79602 0.74388 0.0
C166 C 0.11521 0.78737 0.9634 0.0
C167 C 0.0697 0.80615 0.9026 0.0
C168 C 0.06858 0.80863 1.00457 0.0
N169 N 0.09824 0.79182 0.87636 0.0
N170 N 0.09768 0.7973 0.04245 0.0
H171 H 0.14302 0.78145 0.96945 0.0
H172 H 0.05308 0.81715 0.85136 0.0
C173 C 1.02416 0.75455 0.70225 0.0
O174 O 1.01679 0.72685 0.77609 0.0
N175 N 0.14791 0.80148 0.61284 0.0
C176 C 0.17823 0.78979 0.58519 0.0
C177 C 0.18118 0.79116 0.48292 0.0
C178 C 0.13323 0.81029 0.52773 0.0
N179 N 0.15286 0.80407 0.44721 0.0
C180 C 0.12552 0.71819 0.80708 0.0
C181 C 0.0658 0.65897 0.66982 0.0
C182 C 0.08471 0.64313 0.73987 0.0
C183 C 0.11607 0.67399 0.80687 0.0
C184 C 0.07723 0.704 0.67086 0.0
N185 N 0.10481 0.73254 0.74273 0.0
H186 H 0.15111 0.74119 0.85672 0.0
H187 H 0.06428 0.71586 0.6127 0.0
H188 H 0.19505 0.7786 0.63546 0.0
H189 H 0.1066 0.81818 0.52417 0.0
O190 O 0.18176 0.8193 0.80138 0.0
O191 O 0.15274 0.86082 0.75621 0.0
O192 O 0.06444 0.78447 0.68105 0.0
C193 C 0.18577 0.85863 0.79784 0.0
H194 H 0.04918 0.81961 0.04704 0.0
H195 H 0.20128 0.78178 0.43812 0.0
H196 H 1.04253 0.6369 0.61425 0.0
H197 H 0.13427 0.66453 0.8575 0.0
C198 C 0.5529 0.05917 0.97577 0.0
C199 C 0.53421 0.06386 0.06512 0.0
C200 C 0.58814 0.04973 0.97582 0.0
C201 C 0.60646 0.04479 0.06523 0.0
H202 H 0.54049 0.06318 0.90489 0.0
H203 H 0.60062 0.0456 0.90502 0.0
S204 S 0.57023 0.0545 0.31988 0.0
N205 N 0.53629 0.06172 0.24575 0.0
N206 N 0.60427 0.04724 0.24581 0.0
C207 C 0.58855 0.05009 0.15511 0.0
C208 C 0.55214 0.05885 0.15508 0.0
C209 C 0.60353 0.54335 0.37888 0.0
C210 C 0.61356 0.58813 0.37619 0.0
C211 C 0.55893 0.50789 0.37754 0.0
C212 C 0.52281 0.51599 0.37536 0.0
H213 H 0.6304 0.53572 0.3825 0.0
H214 H 0.55263 0.47393 0.38111 0.0
S215 S 0.53097 0.62694 0.36524 0.0
N216 N 0.58367 0.63846 0.36863 0.0
N217 N 0.49993 0.5719 0.36742 0.0
C218 C 0.53238 0.56053 0.37118 0.0
C219 C 0.57772 0.59657 0.37113 0.0
C220 C 0.06039 0.52816 0.65073 0.0
C221 C 0.05536 0.50467 0.73983 0.0
C222 C 0.06938 0.57253 0.65124 0.0
C223 C 0.07345 0.59534 0.74087 0.0
H224 H 0.05699 0.51206 0.57966 0.0
H225 H 0.07381 0.58923 0.58061 0.0
S226 S 0.0626 0.54897 0.99503 0.0
N227 N 0.05632 0.50835 0.92053 0.0
N228 N 0.06988 0.59018 0.92136 0.0
C229 C 0.06783 0.57203 0.83051 0.0
C230 C 0.05956 0.52719 0.83003 0.0
C231 C 0.40593 0.10746 0.50542 0.0
C232 C 0.3633 0.09589 0.4682 0.0
C233 C 0.41785 0.12174 0.60389 0.0
C234 C 0.38756 0.12499 0.66885 0.0
H235 H 0.43002 0.10485 0.45827 0.0
H236 H 0.45065 0.12936 0.63001 0.0
S237 S 0.27367 0.10333 0.60547 0.0
N238 N 0.29199 0.09198 0.50223 0.0
N239 N 0.31435 0.11838 0.68754 0.0
C240 C 0.34519 0.1144 0.63219 0.0
C241 C 0.33306 0.09996 0.53185 0.0
C242 C 0.35021 0.39074 0.84267 0.0
C243 C 0.32051 0.34779 0.80569 0.0
C244 C 0.34714 0.40243 0.94099 0.0
C245 C 0.31414 0.37161 1.00618 0.0
H246 H 0.37648 0.41532 0.79545 0.0
H247 H 0.37144 0.43552 0.9668 0.0
S248 S 0.2251 0.25644 0.94315 0.0
N249 N 0.25485 0.27541 0.84005 0.0
N250 N 0.24926 0.29736 0.02491 0.0
C251 C 0.2836 0.32886 0.96963 0.0
C252 C 0.28672 0.31694 0.86944 0.0
C253 C 1.01302 0.33373 0.17691 0.0
C254 C 1.02472 0.30294 0.13951 0.0
C255 C 0.99868 0.3313 0.27547 0.0
C256 C 0.9955 0.29797 0.34035 0.0
H257 H 1.01558 0.36028 0.12983 0.0
H258 H 0.99096 0.35628 0.30172 0.0
S259 S 1.0175 0.20646 0.27653 0.0
N260 N 1.02882 0.23601 0.17331 0.0
N261 N 1.00231 0.23184 0.35878 0.0
C262 C 1.00622 0.26646 0.30351 0.0
C263 C 1.02072 0.26883 0.20307 0.0
C264 C 0.73162 0.94957 0.59479 0.0
C265 C 0.7491 0.98082 0.67258 0.0
C266 C 0.74272 0.96293 0.49549 0.0
C267 C 0.77157 1.00807 0.4705 0.0
H268 H 0.70953 0.91451 0.61108 0.0
H269 H 0.72909 0.93767 0.43797 0.0
S270 S 0.82288 0.10354 0.64551 0.0
N271 N 0.79437 0.05936 0.71724 0.0
N272 N 0.81546 0.0842 0.53074 0.0
C273 C 0.78887 0.03969 0.54738 0.0
C274 C 0.77754 1.02616 0.6484 0.0
C275 C 0.78693 0.71268 0.84479 0.0
C276 C 0.81612 0.75567 0.80719 0.0
C277 C 0.7904 0.70139 0.94313 0.0
C278 C 0.82327 0.73267 1.00765 0.0
H279 H 0.76075 0.68778 0.79808 0.0
H280 H 0.76651 0.66824 0.96952 0.0
S281 S 0.91109 0.84811 0.94289 0.0
N282 N 0.88129 0.82856 0.84023 0.0
N283 N 0.88748 0.80735 0.02523 0.0
C284 C 0.85331 0.77544 0.97049 0.0
C285 C 0.84984 0.78695 0.87028 0.0
C286 C 0.13633 0.77024 0.27991 0.0
C287 C 0.14046 0.80393 0.34497 0.0
C288 C 0.12216 0.76826 0.1815 0.0
C289 C 0.11157 0.79986 0.14443 0.0
H290 H 0.14315 0.74463 0.30592 0.0
H291 H 0.11883 0.74141 0.13429 0.0
S292 S 0.12167 0.89754 0.28189 0.0
N293 N 0.13583 0.87128 0.36384 0.0
N294 N 0.1096 0.86791 0.17862 0.0
C295 C 0.11656 0.83434 0.20813 0.0
C296 C 0.13091 0.83628 0.30842 0.0
C297 C 0.40811 0.23545 0.23337 0.0
C298 C 0.37222 0.20505 0.17332 0.0
C299 C 0.40501 0.26751 0.29135 0.0
C300 C 0.36596 0.27091 0.29168 0.0
H301 H 0.43878 0.23402 0.23749 0.0
H302 H 0.43362 0.28978 0.33645 0.0
S303 S 0.2625 0.19993 0.14579 0.0
N304 N 0.29648 0.18095 0.11642 0.0
N305 N 0.29053 0.2411 0.22517 0.0
C306 C 0.32996 0.24117 0.2307 0.0
C307 C 0.33311 0.20833 0.17172 0.0
C308 C 0.17978 0.32577 0.5085 0.0
C309 C 0.22356 0.36233 0.5187 0.0
C310 C 0.14397 0.3225 0.56552 0.0
C311 C 0.15052 0.35538 0.63619 0.0
H312 H 0.17309 0.29919 0.45662 0.0
H313 H 0.111 0.29353 0.55496 0.0
S314 S 0.25888 0.45806 0.6916 0.0
N315 N 0.27135 0.43244 0.60455 0.0
N316 N 0.20453 0.42613 0.71178 0.0
C317 C 0.19415 0.39231 0.64652 0.0
C318 C 0.23048 0.39584 0.58781 0.0
C319 C 0.85394 0.17123 0.96492 0.0
C320 C 0.8503 0.12888 0.96216 0.0
C321 C 0.8857 0.20676 0.90687 0.0
C322 C 0.91558 0.20175 0.8438 0.0
H323 H 0.83207 0.1772 1.0125 0.0
H324 H 0.88739 0.23878 0.91344 0.0
S325 S 0.9196 0.09749 0.80697 0.0
N326 N 0.87913 0.08381 0.88923 0.0
N327 N 0.93875 0.1506 0.7803 0.0
C328 C 0.912 0.15945 0.83904 0.0
C329 C 0.87944 0.12308 0.89804 0.0
C330 C 0.79582 0.88888 0.17353 0.0
C331 C 0.75833 0.89475 0.18144 0.0
C332 C 0.79915 0.8566 0.2307 0.0
C333 C 0.76537 0.82917 0.29909 0.0
H334 H 0.82308 0.90966 0.12348 0.0
H335 H 0.82881 0.85361 0.22194 0.0
S336 S 0.66 0.831 0.34776 0.0
N337 N 0.68636 0.86987 0.2626 0.0
N338 N 0.69276 0.80993 0.3699 0.0
C339 C 0.72751 0.83451 0.307 0.0
C340 C 0.72395 0.86703 0.24827 0.0
C341 C 0.99268 0.78339 0.57145 0.0
C342 C 0.98605 0.74998 0.64066 0.0
C343 C 0.95709 0.78006 0.51364 0.0
C344 C 0.9135 0.74289 0.52151 0.0
H345 H 1.02553 0.81276 0.56266 0.0
H346 H 0.96377 0.80702 0.46296 0.0
S347 S 0.87821 0.64558 0.68963 0.0
N348 N 0.93223 0.67809 0.71217 0.0
N349 N 0.86591 0.67163 0.60354 0.0
C350 C 0.90657 0.70889 0.58916 0.0
C351 C 0.94262 0.7125 0.64867 0.0
C352 C 0.22846 0.9403 0.8432 0.0
C353 C 0.22312 0.89731 0.85052 0.0
C354 C 0.26124 0.9763 0.89902 0.0
C355 C 0.28968 0.97071 0.96555 0.0
H356 H 0.20682 0.94615 0.79484 0.0
H357 H 0.26372 1.00862 0.8911 0.0
S358 S 0.29023 0.86505 1.0106 0.0
N359 N 0.25004 0.85158 0.92819 0.0
N360 N 0.31092 0.91873 0.03299 0.0
C361 C 0.28505 0.928 0.97249 0.0
C362 C 0.25204 0.8915 0.91506 0.0
loop_
_geom_bond_atom_site_label_1
_geom_bond_atom_site_label_2
_geom_bond_distance
_geom_bond_site_symmetry_2
_ccdc_geom_bond_type
Co0 N4 2.148 . S
Co0 N10 2.128 1_554 S
Co0 N20 2.194 . S
Co0 O25 2.351 . S
Co0 O26 2.155 . S
Co0 O27 2.096 1_545 S
C1 N4 1.301 . S
C1 N5 1.328 . S
C1 H6 0.930 . S
C2 C3 1.333 . S
C2 N4 1.317 1_565 S
C2 H7 0.930 . S
C3 C2 1.333 . S
C3 N5 1.350 1_565 S
C3 H29 0.931 . S
N4 Co0 2.148 . S
N4 C1 1.301 . S
N4 C2 1.317 1_545 S
N5 C1 1.328 . S
N5 C3 1.350 1_545 S
H6 C1 0.930 . S
H7 C2 0.930 . S
C8 O9 1.224 . S
C8 O27 1.247 1_556 S
O9 C8 1.224 . S
N10 Co0 2.128 1_556 S
N10 C11 1.355 . S
N10 C13 1.311 . S
C11 N10 1.355 . S
C11 C12 1.363 . S
C11 H23 0.929 . S
C12 C11 1.363 . S
C12 N14 1.375 . S
C12 H30 0.931 . S
C13 N10 1.311 . S
C13 N14 1.347 . S
C13 H24 0.929 . S
N14 C12 1.375 . S
N14 C13 1.347 . S
C15 C18 1.365 . S
C15 N20 1.328 . S
C15 H21 0.929 . S
C16 C17 1.362 1_565 S
C16 C19 1.378 . S
C16 H31 0.929 . S
C17 C16 1.362 1_545 S
C17 C18 1.366 . S
C18 C15 1.365 . S
C18 C17 1.366 . S
C18 H32 0.930 . S
C19 C16 1.378 . S
C19 N20 1.315 1_565 S
C19 H22 0.930 . S
N20 Co0 2.194 . S
N20 C15 1.328 . S
N20 C19 1.315 1_545 S
H21 C15 0.929 . S
H22 C19 0.930 . S
H23 C11 0.929 . S
H24 C13 0.929 . S
O25 Co0 2.351 . S
O25 C28 1.244 . S
O26 Co0 2.155 . S
O26 C28 1.240 . S
O27 Co0 2.096 1_565 S
O27 C8 1.247 1_554 S
C28 O25 1.244 . S
C28 O26 1.240 . S
H29 C3 0.931 . S
H30 C12 0.931 . S
H31 C16 0.929 . S
H32 C18 0.930 . S
Co33 N37 2.148 . S
Co33 N43 2.128 . S
Co33 N53 2.194 . S
Co33 O58 2.351 . S
Co33 O59 2.155 . S
Co33 O60 2.096 . S
C34 N37 1.301 . S
C34 N38 1.328 . S
C34 H39 0.930 . S
C35 C36 1.333 . S
C35 N37 1.317 . S
C35 H40 0.930 . S
C36 C35 1.333 . S
C36 N38 1.350 . S
C36 H62 0.931 . S
N37 Co33 2.148 . S
N37 C34 1.301 . S
N37 C35 1.317 . S
N38 C34 1.328 . S
N38 C36 1.350 . S
H39 C34 0.930 . S
H40 C35 0.930 . S
C41 O42 1.224 . S
C41 O60 1.247 . S
O42 C41 1.224 . S
N43 Co33 2.128 . S
N43 C44 1.355 . S
N43 C46 1.311 . S
C44 N43 1.355 . S
C44 C45 1.363 . S
C44 H56 0.929 . S
C45 C44 1.363 . S
C45 N47 1.375 . S
C45 H63 0.931 . S
C46 N43 1.311 . S
C46 N47 1.347 . S
C46 H57 0.929 . S
N47 C45 1.375 . S
N47 C46 1.347 . S
C48 C51 1.365 . S
C48 N53 1.328 . S
C48 H54 0.929 . S
C49 C50 1.362 . S
C49 C52 1.378 . S
C49 H64 0.929 . S
C50 C49 1.362 . S
C50 C51 1.366 . S
C51 C48 1.365 . S
C51 C50 1.366 . S
C51 H65 0.930 . S
C52 C49 1.378 . S
C52 N53 1.315 . S
C52 H55 0.930 . S
N53 Co33 2.194 . S
N53 C48 1.328 . S
N53 C52 1.315 . S
H54 C48 0.929 . S
H55 C52 0.930 . S
H56 C44 0.929 . S
H57 C46 0.929 . S
O58 Co33 2.351 . S
O58 C61 1.244 . S
O59 Co33 2.155 . S
O59 C61 1.240 . S
O60 Co33 2.096 . S
O60 C41 1.247 . S
C61 O58 1.244 . S
C61 O59 1.240 . S
H62 C36 0.931 . S
H63 C45 0.931 . S
H64 C49 0.929 . S
H65 C51 0.930 . S
Co66 N70 2.148 . S
Co66 N76 2.128 . S
Co66 N86 2.194 . S
Co66 O91 2.351 1_455 S
Co66 O92 2.155 1_455 S
Co66 O93 2.096 . S
C67 N70 1.301 . S
C67 N71 1.328 1_556 S
C67 H72 0.930 1_455 S
C68 C69 1.333 1_556 S
C68 N70 1.317 . S
C68 H73 0.930 . S
C69 C68 1.333 1_554 S
C69 N71 1.350 . S
C69 H95 0.931 . S
N70 Co66 2.148 . S
N70 C67 1.301 . S
N70 C68 1.317 . S
N71 C67 1.328 1_554 S
N71 C69 1.350 . S
H72 C67 0.930 1_655 S
H73 C68 0.930 . S
C74 O75 1.224 . S
C74 O93 1.247 . S
O75 C74 1.224 . S
N76 Co66 2.128 . S
N76 C77 1.355 1_455 S
N76 C79 1.311 . S
C77 N76 1.355 1_655 S
C77 C78 1.363 . S
C77 H89 0.929 . S
C78 C77 1.363 . S
C78 N80 1.375 1_655 S
C78 H96 0.931 . S
C79 N76 1.311 . S
C79 N80 1.347 . S
C79 H90 0.929 . S
N80 C78 1.375 1_455 S
N80 C79 1.347 . S
C81 C84 1.365 . S
C81 N86 1.328 1_655 S
C81 H87 0.929 . S
C82 C83 1.362 . S
C82 C85 1.378 . S
C82 H97 0.929 . S
C83 C82 1.362 . S
C83 C84 1.366 1_455 S
C84 C81 1.365 . S
C84 C83 1.366 1_655 S
C84 H98 0.930 . S
C85 C82 1.378 . S
C85 N86 1.315 . S
C85 H88 0.930 . S
N86 Co66 2.194 . S
N86 C81 1.328 1_455 S
N86 C85 1.315 . S
H87 C81 0.929 . S
H88 C85 0.930 . S
H89 C77 0.929 . S
H90 C79 0.929 . S
O91 Co66 2.351 1_655 S
O91 C94 1.244 . S
O92 Co66 2.155 1_655 S
O92 C94 1.240 . S
O93 Co66 2.096 . S
O93 C74 1.247 . S
C94 O91 1.244 . S
C94 O92 1.240 . S
H95 C69 0.931 . S
H96 C78 0.931 . S
H97 C82 0.929 . S
H98 C84 0.930 . S
Co99 N103 2.148 . S
Co99 N109 2.128 1_554 S
Co99 N119 2.194 . S
Co99 O124 2.351 1_545 S
Co99 O125 2.155 1_545 S
Co99 O126 2.096 . S
C100 N103 1.301 . S
C100 N104 1.328 . S
C100 H105 0.930 1_545 S
C101 C102 1.333 . S
C101 N103 1.317 . S
C101 H106 0.930 . S
C102 C101 1.333 . S
C102 N104 1.350 . S
C102 H128 0.931 . S
N103 Co99 2.148 . S
N103 C100 1.301 . S
N103 C101 1.317 . S
N104 C100 1.328 . S
N104 C102 1.350 . S
H105 C100 0.930 1_565 S
H106 C101 0.930 . S
C107 O108 1.224 . S
C107 O126 1.247 1_556 S
O108 C107 1.224 . S
N109 Co99 2.128 1_556 S
N109 C110 1.355 1_545 S
N109 C112 1.311 . S
C110 N109 1.355 1_565 S
C110 C111 1.363 . S
C110 H122 0.929 . S
C111 C110 1.363 . S
C111 N113 1.375 1_565 S
C111 H129 0.931 . S
C112 N109 1.311 . S
C112 N113 1.347 . S
C112 H123 0.929 . S
N113 C111 1.375 1_545 S
N113 C112 1.347 . S
C114 C117 1.365 . S
C114 N119 1.328 1_565 S
C114 H120 0.929 . S
C115 C116 1.362 . S
C115 C118 1.378 . S
C115 H130 0.929 . S
C116 C115 1.362 . S
C116 C117 1.366 1_545 S
C117 C114 1.365 . S
C117 C116 1.366 1_565 S
C117 H131 0.930 . S
C118 C115 1.378 . S
C118 N119 1.315 . S
C118 H121 0.930 . S
N119 Co99 2.194 . S
N119 C114 1.328 1_545 S
N119 C118 1.315 . S
H120 C114 0.929 . S
H121 C118 0.930 . S
H122 C110 0.929 . S
H123 C112 0.929 . S
O124 Co99 2.351 1_565 S
O124 C127 1.244 . S
O125 Co99 2.155 1_565 S
O125 C127 1.240 . S
O126 Co99 2.096 . S
O126 C107 1.247 1_554 S
C127 O124 1.244 . S
C127 O125 1.240 . S
H128 C102 0.931 . S
H129 C111 0.931 . S
H130 C115 0.929 . S
H131 C117 0.930 . S
Co132 N136 2.148 . S
Co132 N142 2.128 . S
Co132 N152 2.194 . S
Co132 O157 2.351 . S
Co132 O158 2.155 . S
Co132 O159 2.096 . S
C133 N136 1.301 . S
C133 N137 1.328 . S
C133 H138 0.930 . S
C134 C135 1.333 . S
C134 N136 1.317 . S
C134 H139 0.930 . S
C135 C134 1.333 . S
C135 N137 1.350 . S
C135 H161 0.931 . S
N136 Co132 2.148 . S
N136 C133 1.301 . S
N136 C134 1.317 . S
N137 C133 1.328 . S
N137 C135 1.350 . S
H138 C133 0.930 . S
H139 C134 0.930 . S
C140 O141 1.224 . S
C140 O159 1.247 . S
O141 C140 1.224 . S
N142 Co132 2.128 . S
N142 C143 1.355 . S
N142 C145 1.311 . S
C143 N142 1.355 . S
C143 C144 1.363 . S
C143 H155 0.929 . S
C144 C143 1.363 . S
C144 N146 1.375 . S
C144 H162 0.931 . S
C145 N142 1.311 . S
C145 N146 1.347 . S
C145 H156 0.929 . S
N146 C144 1.375 . S
N146 C145 1.347 . S
C147 C150 1.365 . S
C147 N152 1.328 . S
C147 H153 0.929 . S
C148 C149 1.362 . S
C148 C151 1.378 . S
C148 H163 0.929 . S
C149 C148 1.362 . S
C149 C150 1.366 . S
C150 C147 1.365 . S
C150 C149 1.366 . S
C150 H164 0.930 . S
C151 C148 1.378 . S
C151 N152 1.315 . S
C151 H154 0.930 . S
N152 Co132 2.194 . S
N152 C147 1.328 . S
N152 C151 1.315 . S
H153 C147 0.929 . S
H154 C151 0.930 . S
H155 C143 0.929 . S
H156 C145 0.929 . S
O157 Co132 2.351 . S
O157 C160 1.244 . S
O158 Co132 2.155 . S
O158 C160 1.240 . S
O159 Co132 2.096 . S
O159 C140 1.247 . S
C160 O157 1.244 . S
C160 O158 1.240 . S
H161 C135 0.931 . S
H162 C144 0.931 . S
H163 C148 0.929 . S
H164 C150 0.930 . S
Co165 N169 2.148 . S
Co165 N175 2.128 . S
Co165 N185 2.194 . S
Co165 O190 2.351 . S
Co165 O191 2.155 . S
Co165 O192 2.096 1_455 S
C166 N169 1.301 . S
C166 N170 1.328 1_556 S
C166 H171 0.930 . S
C167 C168 1.333 1_556 S
C167 N169 1.317 1_655 S
C167 H172 0.930 . S
C168 C167 1.333 1_554 S
C168 N170 1.350 1_655 S
C168 H194 0.931 . S
N169 Co165 2.148 . S
N169 C166 1.301 . S
N169 C167 1.317 1_455 S
N170 C166 1.328 1_554 S
N170 C168 1.350 1_455 S
H171 C166 0.930 . S
H172 C167 0.930 . S
C173 O174 1.224 . S
C173 O192 1.247 . S
O174 C173 1.224 . S
N175 Co165 2.128 . S
N175 C176 1.355 . S
N175 C178 1.311 . S
C176 N175 1.355 . S
C176 C177 1.363 . S
C176 H188 0.929 . S
C177 C176 1.363 . S
C177 N179 1.375 . S
C177 H195 0.931 . S
C178 N175 1.311 . S
C178 N179 1.347 . S
C178 H189 0.929 . S
N179 C177 1.375 . S
N179 C178 1.347 . S
C180 C183 1.365 . S
C180 N185 1.328 . S
C180 H186 0.929 . S
C181 C182 1.362 1_655 S
C181 C184 1.378 . S
C181 H196 0.929 . S
C182 C181 1.362 1_455 S
C182 C183 1.366 . S
C183 C180 1.365 . S
C183 C182 1.366 . S
C183 H197 0.930 . S
C184 C181 1.378 . S
C184 N185 1.315 1_655 S
C184 H187 0.930 . S
N185 Co165 2.194 . S
N185 C180 1.328 . S
N185 C184 1.315 1_455 S
H186 C180 0.929 . S
H187 C184 0.930 . S
H188 C176 0.929 . S
H189 C178 0.929 . S
O190 Co165 2.351 . S
O190 C193 1.244 . S
O191 Co165 2.155 . S
O191 C193 1.240 . S
O192 Co165 2.096 1_655 S
O192 C173 1.247 . S
C193 O190 1.244 . S
C193 O191 1.240 . S
H194 C168 0.931 . S
H195 C177 0.931 . S
H196 C181 0.929 . S
H197 C183 0.930 . S
C198 C199 1.369 . S
C198 C200 1.419 . S
C198 H202 0.930 1_554 S
C199 C198 1.369 . S
C199 C208 1.429 1_545 S
C200 C198 1.419 . S
C200 C201 1.363 . S
C200 H203 0.929 1_554 S
C201 C200 1.363 . S
C201 C207 1.428 1_545 S
H202 C198 0.930 1_556 S
H203 C200 0.929 1_556 S
S204 N205 1.613 . S
S204 N206 1.610 . S
N205 S204 1.613 . S
N205 C208 1.350 . S
N206 S204 1.610 . S
N206 C207 1.351 . S
C207 C201 1.428 1_565 S
C207 N206 1.351 . S
C207 C208 1.434 . S
C208 C199 1.429 1_565 S
C208 N205 1.350 . S
C208 C207 1.434 . S
C209 C210 1.369 . S
C209 C211 1.419 . S
C209 H213 0.930 . S
C210 C209 1.369 . S
C210 C219 1.429 . S
C211 C209 1.419 . S
C211 C212 1.363 . S
C211 H214 0.929 . S
C212 C211 1.363 . S
C212 C218 1.428 . S
H213 C209 0.930 . S
H214 C211 0.929 . S
S215 N216 1.613 . S
S215 N217 1.610 . S
N216 S215 1.613 . S
N216 C219 1.350 . S
N217 S215 1.610 . S
N217 C218 1.351 . S
C218 C212 1.428 . S
C218 N217 1.351 . S
C218 C219 1.434 . S
C219 C210 1.429 . S
C219 N216 1.350 . S
C219 C218 1.434 . S
C220 C221 1.369 . S
C220 C222 1.419 . S
C220 H224 0.930 . S
C221 C220 1.369 . S
C221 C230 1.429 1_455 S
C222 C220 1.419 . S
C222 C223 1.363 . S
C222 H225 0.929 . S
C223 C222 1.363 . S
C223 C229 1.428 1_455 S
H224 C220 0.930 . S
H225 C222 0.929 . S
S226 N227 1.613 . S
S226 N228 1.610 . S
N227 S226 1.613 . S
N227 C230 1.350 . S
N228 S226 1.610 . S
N228 C229 1.351 . S
C229 C223 1.428 1_655 S
C229 N228 1.351 . S
C229 C230 1.434 . S
C230 C221 1.429 1_655 S
C230 N227 1.350 . S
C230 C229 1.434 . S
C231 C232 1.369 . S
C231 C233 1.419 . S
C231 H235 0.930 . S
C232 C231 1.369 . S
C232 C241 1.429 . S
C233 C231 1.419 . S
C233 C234 1.363 . S
C233 H236 0.929 . S
C234 C233 1.363 . S
C234 C240 1.428 . S
H235 C231 0.930 . S
H236 C233 0.929 . S
S237 N238 1.613 . S
S237 N239 1.610 . S
N238 S237 1.613 . S
N238 C241 1.350 . S
N239 S237 1.610 . S
N239 C240 1.351 . S
C240 C234 1.428 . S
C240 N239 1.351 . S
C240 C241 1.434 . S
C241 C232 1.429 . S
C241 N238 1.350 . S
C241 C240 1.434 . S
C242 C243 1.369 . S
C242 C244 1.419 . S
C242 H246 0.930 . S
C243 C242 1.369 . S
C243 C252 1.429 . S
C244 C242 1.419 . S
C244 C245 1.363 . S
C244 H247 0.929 . S
C245 C244 1.363 . S
C245 C251 1.428 . S
H246 C242 0.930 . S
H247 C244 0.929 . S
S248 N249 1.613 . S
S248 N250 1.610 . S
N249 S248 1.613 . S
N249 C252 1.350 . S
N250 S248 1.610 . S
N250 C251 1.351 . S
C251 C245 1.428 . S
C251 N250 1.351 . S
C251 C252 1.434 . S
C252 C243 1.429 . S
C252 N249 1.350 . S
C252 C251 1.434 . S
C253 C254 1.369 . S
C253 C255 1.419 . S
C253 H257 0.930 . S
C254 C253 1.369 . S
C254 C263 1.429 . S
C255 C253 1.419 . S
C255 C256 1.363 . S
C255 H258 0.929 . S
C256 C255 1.363 . S
C256 C262 1.428 1_455 S
H257 C253 0.930 . S
H258 C255 0.929 . S
S259 N260 1.613 . S
S259 N261 1.610 . S
N260 S259 1.613 . S
N260 C263 1.350 1_655 S
N261 S259 1.610 . S
N261 C262 1.351 . S
C262 C256 1.428 1_655 S
C262 N261 1.351 . S
C262 C263 1.434 1_655 S
C263 C254 1.429 . S
C263 N260 1.350 1_455 S
C263 C262 1.434 1_455 S
C264 C265 1.369 1_565 S
C264 C266 1.419 1_565 S
C264 H268 0.930 . S
C265 C264 1.369 1_545 S
C265 C274 1.429 . S
C266 C264 1.419 1_545 S
C266 C267 1.363 . S
C266 H269 0.929 1_545 S
C267 C266 1.363 . S
C267 C273 1.428 . S
H268 C264 0.930 . S
H269 C266 0.929 1_565 S
S270 N271 1.613 . S
S270 N272 1.610 . S
N271 S270 1.613 . S
N271 C274 1.350 . S
N272 S270 1.610 . S
N272 C273 1.351 . S
C273 C267 1.428 . S
C273 N272 1.351 . S
C273 C274 1.434 . S
C274 C265 1.429 . S
C274 N271 1.350 . S
C274 C273 1.434 . S
C275 C276 1.369 . S
C275 C277 1.419 . S
C275 H279 0.930 . S
C276 C275 1.369 . S
C276 C285 1.429 . S
C277 C275 1.419 . S
C277 C278 1.363 . S
C277 H280 0.929 . S
C278 C277 1.363 . S
C278 C284 1.428 . S
H279 C275 0.930 . S
H280 C277 0.929 . S
S281 N282 1.613 . S
S281 N283 1.610 1_556 S
N282 S281 1.613 . S
N282 C285 1.350 . S
N283 S281 1.610 1_554 S
N283 C284 1.351 1_554 S
C284 C278 1.428 . S
C284 N283 1.351 1_556 S
C284 C285 1.434 . S
C285 C276 1.429 . S
C285 N282 1.350 . S
C285 C284 1.434 . S
C286 C287 1.369 . S
C286 C288 1.419 . S
C286 H290 0.930 . S
C287 C286 1.369 . S
C287 C296 1.429 . S
C288 C286 1.419 . S
C288 C289 1.363 . S
C288 H291 0.929 . S
C289 C288 1.363 . S
C289 C295 1.428 1_455 S
H290 C286 0.930 . S
H291 C288 0.929 . S
S292 N293 1.613 . S
S292 N294 1.610 . S
N293 S292 1.613 . S
N293 C296 1.350 1_655 S
N294 S292 1.610 . S
N294 C295 1.351 . S
C295 C289 1.428 1_655 S
C295 N294 1.351 . S
C295 C296 1.434 1_655 S
C296 C287 1.429 . S
C296 N293 1.350 1_455 S
C296 C295 1.434 1_455 S
C297 C298 1.369 . S
C297 C299 1.419 . S
C297 H301 0.930 . S
C298 C297 1.369 . S
C298 C307 1.429 . S
C299 C297 1.419 . S
C299 C300 1.363 . S
C299 H302 0.929 . S
C300 C299 1.363 . S
C300 C306 1.428 . S
H301 C297 0.930 . S
H302 C299 0.929 . S
S303 N304 1.613 . S
S303 N305 1.610 . S
N304 S303 1.613 . S
N304 C307 1.350 . S
N305 S303 1.610 . S
N305 C306 1.351 . S
C306 C300 1.428 . S
C306 N305 1.351 . S
C306 C307 1.434 . S
C307 C298 1.429 . S
C307 N304 1.350 . S
C307 C306 1.434 . S
C308 C309 1.369 . S
C308 C310 1.419 . S
C308 H312 0.930 . S
C309 C308 1.369 . S
C309 C318 1.429 . S
C310 C308 1.419 . S
C310 C311 1.363 . S
C310 H313 0.929 . S
C311 C310 1.363 . S
C311 C317 1.428 . S
H312 C308 0.930 . S
H313 C310 0.929 . S
S314 N315 1.613 . S
S314 N316 1.610 . S
N315 S314 1.613 . S
N315 C318 1.350 . S
N316 S314 1.610 . S
N316 C317 1.351 . S
C317 C311 1.428 . S
C317 N316 1.351 . S
C317 C318 1.434 . S
C318 C309 1.429 . S
C318 N315 1.350 . S
C318 C317 1.434 . S
C319 C320 1.369 . S
C319 C321 1.419 . S
C319 H323 0.930 . S
C320 C319 1.369 . S
C320 C329 1.429 . S
C321 C319 1.419 . S
C321 C322 1.363 . S
C321 H324 0.929 . S
C322 C321 1.363 . S
C322 C328 1.428 . S
H323 C319 0.930 . S
H324 C321 0.929 . S
S325 N326 1.613 . S
S325 N327 1.610 . S
N326 S325 1.613 . S
N326 C329 1.350 . S
N327 S325 1.610 . S
N327 C328 1.351 . S
C328 C322 1.428 . S
C328 N327 1.351 . S
C328 C329 1.434 . S
C329 C320 1.429 . S
C329 N326 1.350 . S
C329 C328 1.434 . S
C330 C331 1.369 . S
C330 C332 1.419 . S
C330 H334 0.930 . S
C331 C330 1.369 . S
C331 C340 1.429 . S
C332 C330 1.419 . S
C332 C333 1.363 . S
C332 H335 0.929 . S
C333 C332 1.363 . S
C333 C339 1.428 . S
H334 C330 0.930 . S
H335 C332 0.929 . S
S336 N337 1.613 . S
S336 N338 1.610 . S
N337 S336 1.613 . S
N337 C340 1.350 . S
N338 S336 1.610 . S
N338 C339 1.351 . S
C339 C333 1.428 . S
C339 N338 1.351 . S
C339 C340 1.434 . S
C340 C331 1.429 . S
C340 N337 1.350 . S
C340 C339 1.434 . S
C341 C342 1.369 . S
C341 C343 1.419 . S
C341 H345 0.930 . S
C342 C341 1.369 . S
C342 C351 1.429 . S
C343 C341 1.419 . S
C343 C344 1.363 . S
C343 H346 0.929 . S
C344 C343 1.363 . S
C344 C350 1.428 . S
H345 C341 0.930 . S
H346 C343 0.929 . S
S347 N348 1.613 . S
S347 N349 1.610 . S
N348 S347 1.613 . S
N348 C351 1.350 . S
N349 S347 1.610 . S
N349 C350 1.351 . S
C350 C344 1.428 . S
C350 N349 1.351 . S
C350 C351 1.434 . S
C351 C342 1.429 . S
C351 N348 1.350 . S
C351 C350 1.434 . S
C352 C353 1.369 . S
C352 C354 1.419 . S
C352 H356 0.930 . S
C353 C352 1.369 . S
C353 C362 1.429 . S
C354 C352 1.419 . S
C354 C355 1.363 . S
C354 H357 0.929 . S
C355 C354 1.363 . S
C355 C361 1.428 . S
H356 C352 0.930 . S
H357 C354 0.929 . S
S358 N359 1.613 . S
S358 N360 1.610 . S
N359 S358 1.613 . S
N359 C362 1.350 . S
N360 S358 1.610 . S
N360 C361 1.351 . S
C361 C355 1.428 . S
C361 N360 1.351 . S
C361 C362 1.434 . S
C362 C353 1.429 . S
C362 N359 1.350 . S
C362 C361 1.434 . S
C199 C17 1.567 . S
C201 C116 1.567 . S
C210 C149 1.567 . S
C212 C50 1.568 . S
C221 C83 1.567 . S
C223 C182 1.567 . S
C232 N5 1.317 . S
C234 N14 1.316 . S
C243 N38 1.317 . S
C245 N47 1.316 1_556 S
C254 N71 1.318 . S
C256 N80 1.316 . S
C265 N113 1.315 . S
C267 N104 1.318 . S
C276 N137 1.317 . S
C278 N146 1.316 1_556 S
C287 N179 1.316 . S
C289 N170 1.318 . S
C298 C28 1.552 . S
C300 C41 1.539 . S
C309 C61 1.548 . S
C311 C74 1.543 . S
C320 C107 1.543 . S
C322 C94 1.549 . S
C331 C127 1.552 . S
C333 C140 1.539 . S
C342 C173 1.540 . S
C344 C160 1.550 . S
C353 C193 1.550 . S
C355 C8 1.541 . S
