# Generated by pormake.
# Topology crb, (4)-cn, num edge types: 1
# Building blocks:
#     Node 0, Type 0, BuildingBlock: CEKHIL_clean_sbu_0, # of connection points: 4
#     Node 1, Type 0, BuildingBlock: CEKHIL_clean_sbu_0, # of connection points: 4
#     Node 2, Type 0, BuildingBlock: CEKHIL_clean_sbu_0, # of connection points: 4
#     Node 3, Type 0, BuildingBlock: CEKHIL_clean_sbu_0, # of connection points: 4
#     Node 4, Type 0, BuildingBlock: CEKHIL_clean_sbu_0, # of connection points: 4
#     Node 5, Type 0, BuildingBlock: CEKHIL_clean_sbu_0, # of connection points: 4
#     Node 6, Type 0, BuildingBlock: CEKHIL_clean_sbu_0, # of connection points: 4
#     Node 7, Type 0, BuildingBlock: CEKHIL_clean_sbu_0, # of connection points: 4
#     Edge 8, Type (0, 0), BuildingBlock: UVAHIK_clean_linker_0, # of connection points: 2
#     Edge 9, Type (0, 0), BuildingBlock: UVAHIK_clean_linker_0, # of connection points: 2
#     Edge 10, Type (0, 0), BuildingBlock: UVAHIK_clean_linker_0, # of connection points: 2
#     Edge 11, Type (0, 0), BuildingBlock: UVAHIK_clean_linker_0, # of connection points: 2
#     Edge 12, Type (0, 0), BuildingBlock: UVAHIK_clean_linker_0, # of connection points: 2
#     Edge 13, Type (0, 0), BuildingBlock: UVAHIK_clean_linker_0, # of connection points: 2
#     Edge 14, Type (0, 0), BuildingBlock: UVAHIK_clean_linker_0, # of connection points: 2
#     Edge 15, Type (0, 0), BuildingBlock: UVAHIK_clean_linker_0, # of connection points: 2
#     Edge 16, Type (0, 0), BuildingBlock: UVAHIK_clean_linker_0, # of connection points: 2
#     Edge 17, Type (0, 0), BuildingBlock: UVAHIK_clean_linker_0, # of connection points: 2
#     Edge 18, Type (0, 0), BuildingBlock: UVAHIK_clean_linker_0, # of connection points: 2
#     Edge 19, Type (0, 0), BuildingBlock: UVAHIK_clean_linker_0, # of connection points: 2
#     Edge 20, Type (0, 0), BuildingBlock: UVAHIK_clean_linker_0, # of connection points: 2
#     Edge 21, Type (0, 0), BuildingBlock: UVAHIK_clean_linker_0, # of connection points: 2
#     Edge 22, Type (0, 0), BuildingBlock: UVAHIK_clean_linker_0, # of connection points: 2
#     Edge 23, Type (0, 0), BuildingBlock: UVAHIK_clean_linker_0, # of connection points: 2
# Relax obj value: 0.118
# Max RMSD: 0.159
# Mean RMSD: 0.159
data_MOF--net-crb--node1-CEKHIL_clean_sbu_0--edge1-UVAHIK_clean_linker_0
_symmetry_space_group_name_H-M    P1
_symmetry_Int_Tables_number       1
_symmetry_cell_setting            triclinic
loop_
_symmetry_equiv_pos_as_xyz
'x, y, z'
_cell_length_a     56.839506
_cell_length_b     55.662701
_cell_length_c     29.794297
_cell_angle_alpha  89.953493
_cell_angle_beta   90.00672
_cell_angle_gamma 89.999473
loop_
_atom_site_label
_atom_site_type_symbol
_atom_site_fract_x
_atom_site_fract_y
_atom_site_fract_z
_atom_type_partial_charge
Co0 Co 0.3264 0.32968 0.03918 0.0
O1 O 0.29579 0.32587 0.0669 0.0
O2 O 0.32785 0.30556 0.08535 0.0
C3 C 0.32702 0.37017 0.04018 0.0
O4 O 0.36118 0.32906 0.02239 0.0
Co5 Co 0.33509 0.35541 0.9482 0.0
O6 O 0.36887 0.35314 0.96366 0.0
C7 C 0.31495 0.30649 0.94937 0.0
C8 C 0.30578 0.31006 0.09284 0.0
C9 C 0.37564 0.33956 0.99553 0.0
O10 O 0.31802 0.3048 0.99212 0.0
O11 O 0.31937 0.32544 0.9266 0.0
O12 O 0.33231 0.35804 0.07609 0.0
O13 O 0.31983 0.35768 0.00634 0.0
Co14 Co 0.67492 0.32997 0.01702 0.0
O15 O 0.70538 0.32608 0.98893 0.0
O16 O 0.6734 0.3053 0.9719 0.0
C17 C 0.67416 0.37042 0.01438 0.0
O18 O 0.64023 0.32945 0.03466 0.0
Co19 Co 0.66699 0.35668 0.10726 0.0
O20 O 0.63315 0.35441 0.09234 0.0
C21 C 0.68663 0.30756 0.1076 0.0
C22 C 0.6954 0.3099 0.96389 0.0
C23 C 0.62605 0.34041 0.06141 0.0
O24 O 0.68356 0.30559 0.06489 0.0
O25 O 0.68235 0.32671 0.12983 0.0
O26 O 0.6687 0.35791 0.97906 0.0
O27 O 0.68161 0.35831 0.04851 0.0
Co28 Co 0.67437 0.66857 0.03669 0.0
O29 O 0.70511 0.67155 0.06386 0.0
O30 O 0.67364 0.69253 0.08338 0.0
C31 C 0.67295 0.62811 0.0378 0.0
O32 O 0.63956 0.66991 0.01977 0.0
Co33 Co 0.66562 0.64303 0.94551 0.0
O34 O 0.63194 0.64578 0.96107 0.0
C35 C 0.6861 0.69183 0.94689 0.0
C36 C 0.69564 0.68739 0.09032 0.0
C37 C 0.62515 0.65952 0.99264 0.0
O38 O 0.68324 0.69335 0.98972 0.0
O39 O 0.68135 0.67302 0.92398 0.0
O40 O 0.66789 0.64037 0.07362 0.0
O41 O 0.68043 0.64042 0.00393 0.0
Co42 Co 0.32517 0.66832 0.01698 0.0
O43 O 0.29412 0.67152 0.99108 0.0
O44 O 0.32539 0.69264 0.97091 0.0
C45 C 0.32656 0.62786 0.01491 0.0
O46 O 0.36015 0.66956 0.03226 0.0
Co47 Co 0.33526 0.64214 0.10704 0.0
O48 O 0.36876 0.6452 0.09016 0.0
C49 C 0.31474 0.69093 0.10785 0.0
C50 C 0.30334 0.68753 0.96458 0.0
C51 C 0.37501 0.65914 0.05845 0.0
O52 O 0.31695 0.69278 0.06493 0.0
O53 O 0.31982 0.67196 0.13006 0.0
O54 O 0.33117 0.64038 0.97915 0.0
O55 O 0.31954 0.63993 0.0494 0.0
Co56 Co 0.82528 0.82953 0.53696 0.0
O57 O 0.79484 0.82566 0.5651 0.0
O58 O 0.8271 0.80568 0.58368 0.0
C59 C 0.82567 0.87003 0.53768 0.0
O60 O 0.85996 0.82913 0.51928 0.0
Co61 Co 0.83298 0.85528 0.44553 0.0
O62 O 0.86683 0.85352 0.4606 0.0
C63 C 0.81348 0.80606 0.44755 0.0
C64 C 0.80506 0.8102 0.59141 0.0
C65 C 0.87405 0.83992 0.49209 0.0
O66 O 0.81682 0.80446 0.49025 0.0
O67 O 0.81751 0.82505 0.4246 0.0
O68 O 0.83124 0.85799 0.57353 0.0
O69 O 0.8183 0.85743 0.50413 0.0
Co70 Co 0.17399 0.82902 0.51654 0.0
O71 O 0.20498 0.82602 0.49039 0.0
O72 O 0.17362 0.80521 0.46963 0.0
C73 C 0.17261 0.86949 0.51581 0.0
O74 O 0.13906 0.82773 0.53208 0.0
Co75 Co 0.16437 0.85414 0.60773 0.0
O76 O 0.13077 0.85127 0.59127 0.0
C77 C 0.18555 0.80573 0.60624 0.0
C78 C 0.19569 0.8103 0.46346 0.0
C79 C 0.12434 0.83785 0.55894 0.0
O80 O 0.18234 0.80407 0.56354 0.0
O81 O 0.18096 0.82458 0.62912 0.0
O82 O 0.16793 0.85733 0.47969 0.0
O83 O 0.17975 0.85707 0.54984 0.0
Co84 Co 0.1748 0.16757 0.54096 0.0
O85 O 0.20537 0.17006 0.56893 0.0
O86 O 0.17407 0.19152 0.58764 0.0
C87 C 0.17278 0.12712 0.54174 0.0
O88 O 0.1402 0.16943 0.52303 0.0
Co89 Co 0.16664 0.14244 0.44918 0.0
O90 O 0.13278 0.14608 0.46316 0.0
C91 C 0.18974 0.18982 0.4525 0.0
C92 C 0.19596 0.1861 0.59505 0.0
C93 C 0.12589 0.15959 0.49504 0.0
O94 O 0.18446 0.19222 0.49433 0.0
O95 O 0.18588 0.17072 0.42988 0.0
O96 O 0.16762 0.13936 0.57755 0.0
O97 O 0.18069 0.13944 0.50825 0.0
Co98 Co 0.82646 0.16767 0.51532 0.0
O99 O 0.79573 0.16985 0.48786 0.0
O100 O 0.82641 0.19247 0.47014 0.0
C101 C 0.82952 0.12735 0.51208 0.0
O102 O 0.86104 0.17009 0.53283 0.0
Co103 Co 0.8356 0.14111 0.6054 0.0
O104 O 0.86935 0.14647 0.592 0.0
C105 C 0.8089 0.18645 0.60374 0.0
C106 C 0.80467 0.18654 0.46254 0.0
C107 C 0.87572 0.16044 0.56035 0.0
O108 O 0.81631 0.19106 0.56376 0.0
O109 O 0.81253 0.16646 0.62377 0.0
O110 O 0.83421 0.14032 0.4769 0.0
O111 O 0.82146 0.13886 0.54634 0.0
C112 C 0.32859 0.40799 0.9953 0.0
C113 C 0.32985 0.39649 0.03718 0.0
C114 C 0.33043 0.43293 0.99215 0.0
C115 C 0.34842 0.48744 0.05594 0.0
H116 H 0.30838 0.5196 0.96923 0.0
C117 C 0.32879 0.58942 0.05802 0.0
C118 C 0.32965 0.60154 0.01667 0.0
C119 C 0.33084 0.56443 0.05977 0.0
C120 C 0.31986 0.51085 0.99323 0.0
H121 H 0.33423 0.40201 0.10866 0.0
H122 H 0.33667 0.44571 0.10349 0.0
H123 H 0.30778 0.47597 0.9744 0.0
H124 H 0.33358 0.59711 0.94478 0.0
H125 H 0.33678 0.55328 0.94782 0.0
H126 H 0.35981 0.52261 0.07564 0.0
C127 C 0.33482 0.43545 0.07284 0.0
C128 C 0.31959 0.48581 0.99617 0.0
C129 C 0.33328 0.41041 0.0759 0.0
C130 C 0.33286 0.58823 0.97712 0.0
C131 C 0.33459 0.56318 0.97883 0.0
C132 C 0.34846 0.51253 0.05334 0.0
C133 C 0.33323 0.44705 0.03092 0.0
C134 C 0.33386 0.47375 0.02756 0.0
C135 C 0.33348 0.55105 0.02017 0.0
C136 C 0.33416 0.52445 0.02198 0.0
H137 H 0.32617 0.39773 0.96478 0.0
H138 H 0.32967 0.44112 0.95921 0.0
H139 H 0.35992 0.4788 0.07999 0.0
H140 H 0.32637 0.5992 0.08908 0.0
H141 H 0.32973 0.55552 0.09204 0.0
C142 C 0.41008 0.33105 0.04547 0.0
C143 C 0.40118 0.33612 0.00247 0.0
C144 C 0.43434 0.32938 0.05261 0.0
C145 C 0.4904 0.31645 0.99947 0.0
H146 H 0.5174 0.36009 0.08673 0.0
C147 C 0.59091 0.33092 0.0138 0.0
C148 C 0.60042 0.3369 0.05584 0.0
C149 C 0.56654 0.32917 0.00802 0.0
C150 C 0.51023 0.34737 0.06291 0.0
H151 H 0.41064 0.34254 0.93297 0.0
H152 H 0.45307 0.33888 0.94534 0.0
H153 H 0.47497 0.35909 0.07596 0.0
H154 H 0.59196 0.34466 0.12524 0.0
H155 H 0.54969 0.34045 0.11589 0.0
H156 H 0.52542 0.30413 0.9871 0.0
C157 C 0.44122 0.33652 0.97348 0.0
C158 C 0.48589 0.34696 0.05661 0.0
C159 C 0.41699 0.33873 0.96651 0.0
C160 C 0.58513 0.34032 0.09229 0.0
C161 C 0.56083 0.33808 0.08676 0.0
C162 C 0.51475 0.31648 0.00638 0.0
C163 C 0.4501 0.33219 0.0167 0.0
C164 C 0.47579 0.33166 0.0246 0.0
C165 C 0.55111 0.3329 0.04438 0.0
C166 C 0.52506 0.3321 0.03797 0.0
H167 H 0.39833 0.32906 0.07386 0.0
H168 H 0.44082 0.32597 0.08622 0.0
H169 H 0.48294 0.30438 0.97476 0.0
H170 H 0.60226 0.32834 0.985 0.0
H171 H 0.55985 0.32553 0.9747 0.0
C172 C 0.67238 0.40856 0.05801 0.0
C173 C 0.67126 0.39674 0.01647 0.0
C174 C 0.67052 0.43351 0.06037 0.0
C175 C 0.65276 0.48757 0.99498 0.0
H176 H 0.69219 0.52017 0.08204 0.0
C177 C 0.67142 0.58991 0.99394 0.0
C178 C 0.67005 0.6018 0.03545 0.0
C179 C 0.66965 0.56491 0.99173 0.0
C180 C 0.6809 0.51128 0.05791 0.0
H181 H 0.6671 0.40168 0.94479 0.0
H182 H 0.66465 0.44544 0.94859 0.0
H183 H 0.69318 0.47655 0.07719 0.0
H184 H 0.66545 0.59694 0.10711 0.0
H185 H 0.66277 0.55312 0.1033 0.0
H186 H 0.64118 0.52264 0.97486 0.0
C187 C 0.6664 0.43541 0.97956 0.0
C188 C 0.68138 0.48626 0.05516 0.0
C189 C 0.66794 0.41034 0.97729 0.0
C190 C 0.66657 0.58825 0.07466 0.0
C191 C 0.66514 0.56321 0.07252 0.0
C192 C 0.65252 0.51266 0.99738 0.0
C193 C 0.66787 0.44733 0.02115 0.0
C194 C 0.66726 0.47404 0.02379 0.0
C195 C 0.66681 0.55131 0.03105 0.0
C196 C 0.66655 0.52473 0.02896 0.0
H197 H 0.67471 0.39855 0.08887 0.0
H198 H 0.67116 0.44195 0.09308 0.0
H199 H 0.6414 0.4788 0.97087 0.0
H200 H 0.67405 0.59989 0.96313 0.0
H201 H 0.67117 0.55617 0.95939 0.0
C202 C 0.40913 0.66863 0.00822 0.0
C203 C 0.40045 0.66317 0.0512 0.0
C204 C 0.43335 0.67073 1.0009 0.0
C205 C 0.4895 0.68367 0.05453 0.0
H206 H 0.51666 0.64122 0.96545 0.0
C207 C 0.59003 0.66884 0.04052 0.0
C208 C 0.59958 0.66342 0.99826 0.0
C209 C 0.56565 0.67075 0.04616 0.0
C210 C 0.50945 0.65362 0.9898 0.0
H211 H 0.4102 0.65657 0.12051 0.0
H212 H 0.4525 0.66094 0.10783 0.0
H213 H 0.47423 0.64205 0.97596 0.0
H214 H 0.59122 0.65695 0.92834 0.0
H215 H 0.54898 0.66142 0.93752 0.0
H216 H 0.52452 0.69576 0.06782 0.0
C217 C 0.44056 0.66329 0.07983 0.0
C218 C 0.48509 0.65395 0.99592 0.0
C219 C 0.4164 0.66066 0.08697 0.0
C220 C 0.58435 0.66082 0.96147 0.0
C221 C 0.56007 0.6632 0.96688 0.0
C222 C 0.51387 0.68372 0.04783 0.0
C223 C 0.44926 0.66797 0.03662 0.0
C224 C 0.47493 0.6688 0.02859 0.0
C225 C 0.55029 0.66773 0.00945 0.0
C226 C 0.52423 0.66851 0.01562 0.0
H227 H 0.39726 0.67056 0.97999 0.0
H228 H 0.43969 0.6744 0.9673 0.0
H229 H 0.48201 0.69538 0.07979 0.0
H230 H 0.60134 0.67079 0.06956 0.0
H231 H 0.55889 0.67389 0.0796 0.0
C232 C 0.83291 0.91025 0.5727 0.0
C233 C 0.82877 0.8963 0.53428 0.0
C234 C 0.83506 0.93522 0.56928 0.0
C235 C 0.82074 0.98584 0.49252 0.0
H236 H 0.86283 0.02141 0.5704 0.0
C237 C 0.83615 0.08796 0.47355 0.0
C238 C 0.83308 0.1011 0.51333 0.0
C239 C 0.83774 0.06289 0.47488 0.0
C240 C 0.851 0.01166 0.54848 0.0
H241 H 0.82428 0.8974 0.46204 0.0
H242 H 0.82882 0.94067 0.45581 0.0
H243 H 0.86162 0.97763 0.57501 0.0
H244 H 0.83011 0.09847 0.58576 0.0
H245 H 0.83327 0.0548 0.58807 0.0
H246 H 0.81036 0.01994 0.46576 0.0
C247 C 0.82972 0.93257 0.48882 0.0
C248 C 0.85017 0.9866 0.55127 0.0
C249 C 0.82728 0.90769 0.49233 0.0
C250 C 0.83241 0.08882 0.55452 0.0
C251 C 0.83435 0.06383 0.55591 0.0
C252 C 0.82179 0.01084 0.48937 0.0
C253 C 0.83338 0.94672 0.52728 0.0
C254 C 0.83488 0.97336 0.52356 0.0
C255 C 0.83666 0.0506 0.51608 0.0
C256 C 0.83678 0.024 0.51757 0.0
H257 H 0.83405 0.90193 0.60551 0.0
H258 H 0.83752 0.94552 0.59973 0.0
H259 H 0.80839 0.97636 0.47127 0.0
H260 H 0.83671 0.09698 0.44134 0.0
H261 H 0.83966 0.05307 0.44371 0.0
C262 C 0.09011 0.82986 0.50817 0.0
C263 C 0.09887 0.83425 0.55151 0.0
C264 C 0.06586 0.8283 0.5007 0.0
C265 C 0.00959 0.81486 0.55303 0.0
H266 H 0.98292 0.85979 0.46756 0.0
C267 C 0.90923 0.83033 0.53959 0.0
C268 C 0.89971 0.83659 0.49768 0.0
C269 C 0.93359 0.82848 0.54529 0.0
C270 C 0.99 0.84673 0.49086 0.0
H271 H 0.08921 0.83951 0.62124 0.0
H272 H 0.04684 0.83604 0.60826 0.0
H273 H 0.02535 0.8583 0.47822 0.0
H274 H 0.90818 0.84487 0.42845 0.0
H275 H 0.95045 0.84058 0.4377 0.0
H276 H 0.97446 0.80274 0.56503 0.0
C277 C 0.05876 0.83413 0.58011 0.0
C278 C 0.01434 0.84602 0.49709 0.0
C279 C 0.08296 0.83622 0.58745 0.0
C280 C 0.915 0.8403 0.46131 0.0
C281 C 0.9393 0.838 0.46677 0.0
C282 C 0.98524 0.81521 0.54619 0.0
C283 C 0.05 0.83054 0.53659 0.0
C284 C 0.02432 0.83025 0.52848 0.0
C285 C 0.94901 0.83242 0.50899 0.0
C286 C 0.97505 0.83132 0.51528 0.0
H287 H 0.10195 0.82838 0.47981 0.0
H288 H 0.05947 0.82547 0.46686 0.0
H289 H 0.01694 0.80244 0.57726 0.0
H290 H 0.89789 0.82753 0.56834 0.0
H291 H 0.9403 0.82456 0.5785 0.0
C292 C 0.16612 0.08703 0.5778 0.0
C293 C 0.16967 0.10084 0.53894 0.0
C294 C 0.16461 0.06199 0.57506 0.0
C295 C 0.18029 0.01152 0.49916 0.0
H296 H 0.13996 0.97465 0.57842 0.0
C297 C 0.16649 0.90939 0.47898 0.0
C298 C 0.16968 0.8958 0.51824 0.0
C299 C 0.16493 0.93442 0.48118 0.0
C300 C 0.15135 0.98476 0.5562 0.0
H301 H 0.17352 0.09944 0.4666 0.0
H302 H 0.17005 0.05601 0.46155 0.0
H303 H 0.13975 0.01848 0.58261 0.0
H304 H 0.17306 0.89762 0.59067 0.0
H305 H 0.16998 0.94134 0.59451 0.0
H306 H 0.19159 0.97775 0.4724 0.0
C307 C 0.16919 0.06429 0.49438 0.0
C308 C 0.15133 0.00985 0.5587 0.0
C309 C 0.171 0.08925 0.49721 0.0
C310 C 0.17067 0.90764 0.55983 0.0
C311 C 0.16878 0.93263 0.56208 0.0
C312 C 0.18007 0.98649 0.49632 0.0
C313 C 0.16635 0.05027 0.5333 0.0
C314 C 0.16588 0.02356 0.5303 0.0
C315 C 0.16619 0.94628 0.52273 0.0
C316 C 0.16569 0.97286 0.52492 0.0
H317 H 0.16512 0.09552 0.61045 0.0
H318 H 0.16271 0.0518 0.60582 0.0
H319 H 0.19213 0.02137 0.47744 0.0
H320 H 0.16566 0.90074 0.44647 0.0
H321 H 0.16276 0.94453 0.45037 0.0
C322 C 0.91701 0.16239 0.58973 0.0
C323 C 0.90116 0.16484 0.55378 0.0
C324 C 0.94121 0.16494 0.58278 0.0
C325 C 0.98572 0.15501 0.4989 0.0
H326 H 0.02559 0.19674 0.57005 0.0
C327 C 0.08505 0.16101 0.46376 0.0
C328 C 0.10032 0.16365 0.50048 0.0
C329 C 0.06077 0.16357 0.46921 0.0
C330 C 0.01481 0.1847 0.55027 0.0
H331 H 0.89824 0.17213 0.48246 0.0
H332 H 0.94065 0.17588 0.47018 0.0
H333 H 0.98311 0.19667 0.58243 0.0
H334 H 0.10213 0.17122 0.57173 0.0
H335 H 0.05976 0.17465 0.58181 0.0
H336 H 0.01712 0.142 0.46821 0.0
C337 C 0.93423 0.1723 0.50376 0.0
C338 C 0.99047 0.18484 0.55722 0.0
C339 C 0.91 0.17027 0.51087 0.0
C340 C 0.09081 0.16925 0.5427 0.0
C341 C 0.06646 0.17135 0.54838 0.0
C342 C 0.01006 0.1545 0.49253 0.0
C343 C 0.95004 0.16948 0.53959 0.0
C344 C 0.97573 0.17001 0.53155 0.0
C345 C 0.05105 0.16834 0.51176 0.0
C346 C 0.025 0.16936 0.51808 0.0
H347 H 0.91072 0.15829 0.62319 0.0
H348 H 0.9531 0.16257 0.61087 0.0
H349 H 0.97472 0.14316 0.47912 0.0
H350 H 0.09188 0.15697 0.43066 0.0
H351 H 0.04965 0.16175 0.43992 0.0
C352 C 0.18893 0.22461 0.40028 0.0
C353 C 0.20176 0.20935 0.42865 0.0
C354 C 0.20054 0.23867 0.36821 0.0
C355 C 0.25336 0.23515 0.29927 0.0
H356 H 0.23816 0.30027 0.26329 0.0
C357 C 0.30547 0.28358 0.16059 0.0
C358 C 0.29325 0.29876 0.13098 0.0
C359 C 0.29427 0.2739 0.1982 0.0
C360 C 0.2424 0.28196 0.27256 0.0
H361 H 0.23653 0.19717 0.44727 0.0
H362 H 0.25696 0.22187 0.39153 0.0
H363 H 0.21916 0.28277 0.32938 0.0
H364 H 0.25955 0.31548 0.11737 0.0
H365 H 0.23975 0.29807 0.18258 0.0
H366 H 0.27602 0.23388 0.24216 0.0
C367 C 0.23799 0.22308 0.39398 0.0
C368 C 0.23161 0.27202 0.31058 0.0
C369 C 0.22637 0.20919 0.4262 0.0
C370 C 0.26944 0.30382 0.13955 0.0
C371 C 0.25817 0.29402 0.17716 0.0
C372 C 0.26396 0.24497 0.26119 0.0
C373 C 0.22514 0.2373 0.36357 0.0
C374 C 0.23708 0.24853 0.32443 0.0
C375 C 0.27048 0.27899 0.20708 0.0
C376 C 0.25872 0.26854 0.24736 0.0
H377 H 0.16987 0.22454 0.40108 0.0
H378 H 0.19016 0.24932 0.34509 0.0
H379 H 0.25752 0.2168 0.30841 0.0
H380 H 0.32387 0.27945 0.15521 0.0
H381 H 0.30446 0.26275 0.22078 0.0
C382 C 0.71953 0.2804 0.12908 0.0
C383 C 0.6959 0.28718 0.13344 0.0
C384 C 0.73006 0.2657 0.16157 0.0
C385 C 0.72143 0.24954 0.28153 0.0
H386 H 0.7756 0.20872 0.26096 0.0
C387 C 0.76674 0.19433 0.42214 0.0
C388 C 0.79127 0.19713 0.42485 0.0
C389 C 0.75429 0.20343 0.38535 0.0
C390 C 0.76049 0.22011 0.2671 0.0
H391 H 0.66421 0.28288 0.17272 0.0
H392 H 0.68196 0.256 0.22777 0.0
H393 H 0.75454 0.22583 0.19694 0.0
H394 H 0.82201 0.21145 0.39102 0.0
H395 H 0.80026 0.22701 0.32644 0.0
H396 H 0.72729 0.2435 0.35166 0.0
C397 C 0.6928 0.26265 0.20059 0.0
C398 C 0.74844 0.23 0.23047 0.0
C399 C 0.68248 0.27773 0.16871 0.0
C400 C 0.8031 0.20915 0.39002 0.0
C401 C 0.7907 0.21786 0.35287 0.0
C402 C 0.73322 0.23936 0.31799 0.0
C403 C 0.717 0.25733 0.1987 0.0
C404 C 0.72888 0.24509 0.23718 0.0
C405 C 0.76619 0.21509 0.35018 0.0
C406 C 0.75303 0.2248 0.3112 0.0
H407 H 0.73027 0.28788 0.10247 0.0
H408 H 0.74874 0.26222 0.15896 0.0
H409 H 0.70688 0.26153 0.2884 0.0
H410 H 0.75717 0.1851 0.44844 0.0
H411 H 0.73539 0.20102 0.38403 0.0
C412 C 0.78032 0.77919 0.42645 0.0
C413 C 0.8041 0.78548 0.42245 0.0
C414 C 0.76965 0.76469 0.39384 0.0
C415 C 0.77833 0.74907 0.27389 0.0
H416 H 0.72368 0.70869 0.29296 0.0
C417 C 0.73338 0.6955 0.13111 0.0
C418 C 0.70881 0.69784 0.12845 0.0
C419 C 0.74565 0.70438 0.16828 0.0
C420 C 0.7389 0.71999 0.28722 0.0
H421 H 0.83587 0.78051 0.38368 0.0
H422 H 0.8178 0.75403 0.32838 0.0
H423 H 0.74469 0.72519 0.35758 0.0
H424 H 0.6778 0.71117 0.16277 0.0
H425 H 0.69924 0.72642 0.22793 0.0
H426 H 0.77261 0.74366 0.20358 0.0
C427 C 0.80701 0.76086 0.35545 0.0
C428 C 0.75093 0.72949 0.32421 0.0
C429 C 0.8175 0.77569 0.38749 0.0
C430 C 0.69675 0.70922 0.16372 0.0
C431 C 0.70898 0.71776 0.20121 0.0
C432 C 0.76652 0.73932 0.23707 0.0
C433 C 0.78268 0.75611 0.35691 0.0
C434 C 0.77071 0.74435 0.31805 0.0
C435 C 0.73354 0.71542 0.20387 0.0
C436 C 0.74655 0.72489 0.24328 0.0
H437 H 0.7696 0.78696 0.45276 0.0
H438 H 0.75088 0.76161 0.39611 0.0
H439 H 0.79305 0.76093 0.26748 0.0
H440 H 0.74314 0.68676 0.10451 0.0
H441 H 0.76458 0.70228 0.16954 0.0
C442 C 0.23373 0.80185 0.42392 0.0
C443 C 0.2091 0.7999 0.42562 0.0
C444 C 0.24623 0.7929 0.38709 0.0
C445 C 0.24065 0.77798 0.26777 0.0
H446 H 0.29299 0.73493 0.28934 0.0
C447 C 0.28203 0.71853 0.12879 0.0
C448 C 0.30546 0.71118 0.13404 0.0
C449 C 0.27135 0.73303 0.1614 0.0
C450 C 0.27881 0.74737 0.28242 0.0
H451 H 0.17824 0.78726 0.3899 0.0
H452 H 0.20009 0.77195 0.32532 0.0
H453 H 0.27238 0.75266 0.35255 0.0
H454 H 0.33671 0.71444 0.17493 0.0
H455 H 0.31876 0.74097 0.23017 0.0
H456 H 0.24718 0.77297 0.19761 0.0
C457 C 0.20969 0.78033 0.35255 0.0
C458 C 0.26689 0.75739 0.31885 0.0
C459 C 0.19723 0.7889 0.3897 0.0
C460 C 0.31859 0.71997 0.17028 0.0
C461 C 0.30814 0.73486 0.20226 0.0
C462 C 0.25282 0.76824 0.23118 0.0
C463 C 0.23431 0.78223 0.35089 0.0
C464 C 0.24755 0.77258 0.31195 0.0
C465 C 0.28407 0.74066 0.19949 0.0
C466 C 0.27197 0.7526 0.23799 0.0
H467 H 0.24335 0.81029 0.45105 0.0
H468 H 0.26521 0.79463 0.38659 0.0
H469 H 0.2259 0.78985 0.26154 0.0
H470 H 0.2715 0.71161 0.10138 0.0
H471 H 0.25278 0.73694 0.15807 0.0
C472 C 0.18188 0.77355 0.66326 0.0
C473 C 0.19563 0.78545 0.63118 0.0
C474 C 0.19243 0.75868 0.69529 0.0
C475 C 0.24977 0.73104 0.73038 0.0
H476 H 0.22353 0.73964 0.84949 0.0
C477 C 0.30169 0.71111 0.89309 0.0
C478 C 0.28995 0.69807 0.92674 0.0
C479 C 0.28948 0.71958 0.85553 0.0
C480 C 0.23092 0.73683 0.8164 0.0
H481 H 0.2309 0.79084 0.60607 0.0
H482 H 0.2496 0.76545 0.66264 0.0
H483 H 0.20343 0.75678 0.78498 0.0
H484 H 0.25612 0.68403 0.94775 0.0
H485 H 0.23468 0.69929 0.88246 0.0
H486 H 0.27784 0.71191 0.76264 0.0
C487 C 0.23061 0.76684 0.66259 0.0
C488 C 0.21932 0.74653 0.77921 0.0
C489 C 0.21995 0.78139 0.63006 0.0
C490 C 0.26564 0.69408 0.92245 0.0
C491 C 0.25337 0.70281 0.88511 0.0
C492 C 0.26153 0.72159 0.76773 0.0
C493 C 0.21706 0.75598 0.69666 0.0
C494 C 0.22864 0.74392 0.73565 0.0
C495 C 0.26522 0.71544 0.85104 0.0
C496 C 0.2523 0.72455 0.81116 0.0
H497 H 0.16308 0.77667 0.66488 0.0
H498 H 0.18132 0.75013 0.72012 0.0
H499 H 0.25734 0.72832 0.69743 0.0
H500 H 0.32043 0.71443 0.8953 0.0
H501 H 0.29901 0.72953 0.83011 0.0
C502 C 0.31853 0.27622 0.889 0.0
C503 C 0.30532 0.28608 0.92414 0.0
C504 C 0.30785 0.26132 0.85729 0.0
C505 C 0.25157 0.22987 0.82761 0.0
H506 H 0.27296 0.24302 0.70639 0.0
C507 C 0.19712 0.20845 0.66789 0.0
C508 C 0.20912 0.19664 0.63306 0.0
C509 C 0.20937 0.21727 0.70511 0.0
C510 C 0.26694 0.23897 0.74006 0.0
H511 H 0.27098 0.28768 0.9551 0.0
H512 H 0.25193 0.26229 0.89895 0.0
H513 H 0.29357 0.26079 0.76957 0.0
H514 H 0.2434 0.18506 0.60962 0.0
H515 H 0.26489 0.20106 0.67416 0.0
H516 H 0.2242 0.20888 0.79721 0.0
C517 C 0.27068 0.26533 0.89631 0.0
C518 C 0.27886 0.24901 0.77647 0.0
C519 C 0.28155 0.27986 0.92861 0.0
C520 C 0.23367 0.19411 0.6359 0.0
C521 C 0.24597 0.20328 0.67277 0.0
C522 C 0.23943 0.2201 0.79101 0.0
C523 C 0.28353 0.25659 0.85925 0.0
C524 C 0.27137 0.24464 0.82083 0.0
C525 C 0.23392 0.21479 0.70789 0.0
C526 C 0.24699 0.22461 0.74689 0.0
H527 H 0.33689 0.28095 0.88487 0.0
H528 H 0.31851 0.25436 0.83015 0.0
H529 H 0.24542 0.22582 0.86116 0.0
H530 H 0.17818 0.21056 0.66677 0.0
H531 H 0.19968 0.22629 0.73148 0.0
C532 C 0.73004 0.30656 0.9119 0.0
C533 C 0.70795 0.29817 0.92628 0.0
C534 C 0.74109 0.2963 0.87451 0.0
C535 C 0.74223 0.24096 0.80725 0.0
H536 H 0.7698 0.28059 0.71385 0.0
C537 C 0.7729 0.19762 0.64493 0.0
C538 C 0.79506 0.20433 0.62862 0.0
C539 C 0.76158 0.21148 0.6773 0.0
C540 C 0.76236 0.26929 0.73983 0.0
H541 H 0.68025 0.27234 0.91301 0.0
H542 H 0.69959 0.25434 0.84833 0.0
H543 H 0.75233 0.29956 0.78019 0.0
H544 H 0.82246 0.23124 0.6314 0.0
H545 H 0.80282 0.25554 0.68911 0.0
H546 H 0.75241 0.21073 0.76787 0.0
C547 C 0.70841 0.26879 0.8659 0.0
C548 C 0.75239 0.28014 0.77781 0.0
C549 C 0.6973 0.27916 0.90292 0.0
C550 C 0.80519 0.22595 0.64319 0.0
C551 C 0.79396 0.23976 0.67628 0.0
C552 C 0.75225 0.23016 0.76962 0.0
C553 C 0.73038 0.27729 0.85113 0.0
C554 C 0.74199 0.26606 0.81167 0.0
C555 C 0.77243 0.23212 0.69494 0.0
C556 C 0.76216 0.24415 0.73508 0.0
H557 H 0.73863 0.32128 0.9291 0.0
H558 H 0.75811 0.30308 0.86415 0.0
H559 H 0.73481 0.2296 0.83316 0.0
H560 H 0.7648 0.18098 0.63408 0.0
H561 H 0.7447 0.20544 0.68988 0.0
C562 C 0.71871 0.72084 0.93252 0.0
C563 C 0.69621 0.71216 0.92188 0.0
C564 C 0.73075 0.73561 0.90211 0.0
C565 C 0.725 0.77428 0.80254 0.0
H566 H 0.78275 0.74421 0.7622 0.0
C567 C 0.7682 0.80068 0.63415 0.0
C568 C 0.7928 0.7997 0.63059 0.0
C569 C 0.75685 0.79188 0.67249 0.0
C570 C 0.76697 0.75327 0.77344 0.0
H571 H 0.66796 0.71319 0.87323 0.0
H572 H 0.68854 0.7398 0.82106 0.0
H573 H 0.7624 0.72836 0.82761 0.0
H574 H 0.82486 0.78903 0.66457 0.0
H575 H 0.80533 0.7746 0.7319 0.0
H576 H 0.72955 0.79938 0.74891 0.0
C577 C 0.697 0.73506 0.85243 0.0
C578 C 0.7553 0.74411 0.81103 0.0
C579 C 0.68524 0.71987 0.88221 0.0
C580 C 0.80584 0.78975 0.66608 0.0
C581 C 0.79456 0.78138 0.70472 0.0
C582 C 0.7369 0.78376 0.76541 0.0
C583 C 0.7202 0.74231 0.86126 0.0
C584 C 0.73402 0.75426 0.82547 0.0
C585 C 0.76989 0.7823 0.70857 0.0
C586 C 0.75784 0.77311 0.74977 0.0
H587 H 0.7276 0.71481 0.96266 0.0
H588 H 0.74863 0.74101 0.90964 0.0
H589 H 0.70861 0.78244 0.81311 0.0
H590 H 0.75769 0.80819 0.60725 0.0
H591 H 0.73783 0.79244 0.67356 0.0
loop_
_geom_bond_atom_site_label_1
_geom_bond_atom_site_label_2
_geom_bond_distance
_geom_bond_site_symmetry_2
_ccdc_geom_bond_type
Co0 O1 2.216 . S
Co0 O2 2.091 . S
Co0 O4 2.004 . S
Co0 O10 2.021 . S
Co0 O12 2.137 . S
Co0 O13 2.244 . S
O1 Co0 2.216 . S
O1 C8 1.247 . S
O2 Co0 2.091 . S
O2 C8 1.261 . S
C3 O12 1.247 . S
C3 O13 1.272 . S
O4 Co0 2.004 . S
O4 C9 1.259 . S
Co5 O6 2.061 . S
Co5 O11 2.052 . S
Co5 O13 2.135 1_556 S
O6 Co5 2.061 . S
O6 C9 1.235 1_556 S
C7 O10 1.238 1_556 S
C7 O11 1.241 . S
C8 O1 1.247 . S
C8 O2 1.261 . S
C9 O4 1.259 . S
C9 O6 1.235 1_554 S
O10 Co0 2.021 . S
O10 C7 1.238 1_554 S
O11 Co5 2.052 . S
O11 C7 1.241 . S
O12 Co0 2.137 . S
O12 C3 1.247 . S
O13 Co0 2.244 . S
O13 C3 1.272 . S
O13 Co5 2.135 1_554 S
Co14 O15 2.216 . S
Co14 O16 2.091 . S
Co14 O18 2.004 1_556 S
Co14 O24 2.021 1_556 S
Co14 O26 2.137 . S
Co14 O27 2.244 1_556 S
O15 Co14 2.216 . S
O15 C22 1.247 . S
O16 Co14 2.091 . S
O16 C22 1.261 . S
C17 O26 1.247 1_554 S
C17 O27 1.272 . S
O18 Co14 2.004 1_554 S
O18 C23 1.259 . S
Co19 O20 2.061 . S
Co19 O25 2.052 . S
Co19 O27 2.135 . S
O20 Co19 2.061 . S
O20 C23 1.235 . S
C21 O24 1.238 . S
C21 O25 1.241 . S
C22 O15 1.247 . S
C22 O16 1.261 . S
C23 O18 1.259 . S
C23 O20 1.235 . S
O24 Co14 2.021 1_554 S
O24 C21 1.238 . S
O25 Co19 2.052 . S
O25 C21 1.241 . S
O26 Co14 2.137 . S
O26 C17 1.247 1_556 S
O27 Co14 2.244 1_554 S
O27 C17 1.272 . S
O27 Co19 2.135 . S
Co28 O29 2.216 . S
Co28 O30 2.091 . S
Co28 O32 2.004 . S
Co28 O38 2.021 . S
Co28 O40 2.137 . S
Co28 O41 2.244 . S
O29 Co28 2.216 . S
O29 C36 1.247 . S
O30 Co28 2.091 . S
O30 C36 1.261 . S
C31 O40 1.247 . S
C31 O41 1.272 . S
O32 Co28 2.004 . S
O32 C37 1.259 . S
Co33 O34 2.061 . S
Co33 O39 2.052 . S
Co33 O41 2.135 1_556 S
O34 Co33 2.061 . S
O34 C37 1.235 1_556 S
C35 O38 1.238 1_556 S
C35 O39 1.241 . S
C36 O29 1.247 . S
C36 O30 1.261 . S
C37 O32 1.259 . S
C37 O34 1.235 1_554 S
O38 Co28 2.021 . S
O38 C35 1.238 1_554 S
O39 Co33 2.052 . S
O39 C35 1.241 . S
O40 Co28 2.137 . S
O40 C31 1.247 . S
O41 Co28 2.244 . S
O41 C31 1.272 . S
O41 Co33 2.135 1_554 S
Co42 O43 2.216 . S
Co42 O44 2.091 . S
Co42 O46 2.004 1_556 S
Co42 O52 2.021 1_556 S
Co42 O54 2.137 . S
Co42 O55 2.244 1_556 S
O43 Co42 2.216 . S
O43 C50 1.247 . S
O44 Co42 2.091 . S
O44 C50 1.261 . S
C45 O54 1.247 1_554 S
C45 O55 1.272 . S
O46 Co42 2.004 1_554 S
O46 C51 1.259 . S
Co47 O48 2.061 . S
Co47 O53 2.052 . S
Co47 O55 2.135 . S
O48 Co47 2.061 . S
O48 C51 1.235 . S
C49 O52 1.238 . S
C49 O53 1.241 . S
C50 O43 1.247 . S
C50 O44 1.261 . S
C51 O46 1.259 . S
C51 O48 1.235 . S
O52 Co42 2.021 1_554 S
O52 C49 1.238 . S
O53 Co47 2.052 . S
O53 C49 1.241 . S
O54 Co42 2.137 . S
O54 C45 1.247 1_556 S
O55 Co42 2.244 1_554 S
O55 C45 1.272 . S
O55 Co47 2.135 . S
Co56 O57 2.216 . S
Co56 O58 2.091 . S
Co56 O60 2.004 . S
Co56 O66 2.021 . S
Co56 O68 2.137 . S
Co56 O69 2.244 . S
O57 Co56 2.216 . S
O57 C64 1.247 . S
O58 Co56 2.091 . S
O58 C64 1.261 . S
C59 O68 1.247 . S
C59 O69 1.272 . S
O60 Co56 2.004 . S
O60 C65 1.259 . S
Co61 O62 2.061 . S
Co61 O67 2.052 . S
Co61 O69 2.135 . S
O62 Co61 2.061 . S
O62 C65 1.235 . S
C63 O66 1.238 . S
C63 O67 1.241 . S
C64 O57 1.247 . S
C64 O58 1.261 . S
C65 O60 1.259 . S
C65 O62 1.235 . S
O66 Co56 2.021 . S
O66 C63 1.238 . S
O67 Co61 2.052 . S
O67 C63 1.241 . S
O68 Co56 2.137 . S
O68 C59 1.247 . S
O69 Co56 2.244 . S
O69 C59 1.272 . S
O69 Co61 2.135 . S
Co70 O71 2.216 . S
Co70 O72 2.091 . S
Co70 O74 2.004 . S
Co70 O80 2.021 . S
Co70 O82 2.137 . S
Co70 O83 2.244 . S
O71 Co70 2.216 . S
O71 C78 1.247 . S
O72 Co70 2.091 . S
O72 C78 1.261 . S
C73 O82 1.247 . S
C73 O83 1.272 . S
O74 Co70 2.004 . S
O74 C79 1.259 . S
Co75 O76 2.061 . S
Co75 O81 2.052 . S
Co75 O83 2.135 . S
O76 Co75 2.061 . S
O76 C79 1.235 . S
C77 O80 1.238 . S
C77 O81 1.241 . S
C78 O71 1.247 . S
C78 O72 1.261 . S
C79 O74 1.259 . S
C79 O76 1.235 . S
O80 Co70 2.021 . S
O80 C77 1.238 . S
O81 Co75 2.052 . S
O81 C77 1.241 . S
O82 Co70 2.137 . S
O82 C73 1.247 . S
O83 Co70 2.244 . S
O83 C73 1.272 . S
O83 Co75 2.135 . S
Co84 O85 2.216 . S
Co84 O86 2.091 . S
Co84 O88 2.004 . S
Co84 O94 2.021 . S
Co84 O96 2.137 . S
Co84 O97 2.244 . S
O85 Co84 2.216 . S
O85 C92 1.247 . S
O86 Co84 2.091 . S
O86 C92 1.261 . S
C87 O96 1.247 . S
C87 O97 1.272 . S
O88 Co84 2.004 . S
O88 C93 1.259 . S
Co89 O90 2.061 . S
Co89 O95 2.052 . S
Co89 O97 2.135 . S
O90 Co89 2.061 . S
O90 C93 1.235 . S
C91 O94 1.238 . S
C91 O95 1.241 . S
C92 O85 1.247 . S
C92 O86 1.261 . S
C93 O88 1.259 . S
C93 O90 1.235 . S
O94 Co84 2.021 . S
O94 C91 1.238 . S
O95 Co89 2.052 . S
O95 C91 1.241 . S
O96 Co84 2.137 . S
O96 C87 1.247 . S
O97 Co84 2.244 . S
O97 C87 1.272 . S
O97 Co89 2.135 . S
Co98 O99 2.216 . S
Co98 O100 2.091 . S
Co98 O102 2.004 . S
Co98 O108 2.021 . S
Co98 O110 2.137 . S
Co98 O111 2.244 . S
O99 Co98 2.216 . S
O99 C106 1.247 . S
O100 Co98 2.091 . S
O100 C106 1.261 . S
C101 O110 1.247 . S
C101 O111 1.272 . S
O102 Co98 2.004 . S
O102 C107 1.259 . S
Co103 O104 2.061 . S
Co103 O109 2.052 . S
Co103 O111 2.135 . S
O104 Co103 2.061 . S
O104 C107 1.235 . S
C105 O108 1.238 . S
C105 O109 1.241 . S
C106 O99 1.247 . S
C106 O100 1.261 . S
C107 O102 1.259 . S
C107 O104 1.235 . S
O108 Co98 2.021 . S
O108 C105 1.238 . S
O109 Co103 2.052 . S
O109 C105 1.241 . S
O110 Co98 2.137 . S
O110 C101 1.247 . S
O111 Co98 2.244 . S
O111 C101 1.272 . S
O111 Co103 2.135 . S
C112 C113 1.349 . S
C112 C114 1.327 . S
C112 H137 0.950 1_554 S
C113 C112 1.349 . S
C113 C129 1.349 . S
C114 C112 1.327 . S
C114 C133 1.429 . S
C114 H138 0.950 1_554 S
C115 C132 1.574 . S
C115 C134 1.368 . S
C115 H139 0.949 . S
H116 C120 0.949 . S
C117 C118 1.349 . S
C117 C119 1.327 . S
C117 H140 0.950 . S
C118 C117 1.349 . S
C118 C130 1.349 1_554 S
C119 C117 1.327 . S
C119 C135 1.429 . S
C119 H141 0.950 . S
C120 H116 0.949 . S
C120 C128 1.574 . S
C120 C136 1.368 1_556 S
H121 C129 0.950 . S
H122 C127 0.950 . S
H123 C128 0.949 . S
H124 C130 0.950 . S
H125 C131 0.950 . S
H126 C132 0.949 . S
C127 H122 0.950 . S
C127 C129 1.327 . S
C127 C133 1.429 . S
C128 C120 1.574 . S
C128 H123 0.949 . S
C128 C134 1.368 1_556 S
C129 C113 1.349 . S
C129 H121 0.950 . S
C129 C127 1.327 . S
C130 C118 1.349 1_556 S
C130 H124 0.950 . S
C130 C131 1.327 . S
C131 H125 0.950 . S
C131 C130 1.327 . S
C131 C135 1.429 1_556 S
C132 C115 1.574 . S
C132 H126 0.949 . S
C132 C136 1.368 . S
C133 C114 1.429 . S
C133 C127 1.429 . S
C133 C134 1.523 . S
C134 C115 1.368 . S
C134 C128 1.368 1_554 S
C134 C133 1.523 . S
C135 C119 1.429 . S
C135 C131 1.429 1_554 S
C135 C136 1.523 . S
C136 C120 1.368 1_554 S
C136 C132 1.368 . S
C136 C135 1.523 . S
H137 C112 0.950 1_556 S
H138 C114 0.950 1_556 S
H139 C115 0.949 . S
H140 C117 0.950 . S
H141 C119 0.950 . S
C142 C143 1.349 . S
C142 C144 1.327 . S
C142 H167 0.950 . S
C143 C142 1.349 . S
C143 C159 1.349 1_554 S
C144 C142 1.327 . S
C144 C163 1.429 . S
C144 H168 0.950 . S
C145 C162 1.573 1_556 S
C145 C164 1.367 1_556 S
C145 H169 0.951 . S
H146 C150 0.949 . S
C147 C148 1.349 . S
C147 C149 1.327 . S
C147 H170 0.950 1_554 S
C148 C147 1.349 . S
C148 C160 1.349 . S
C149 C147 1.327 . S
C149 C165 1.429 . S
C149 H171 0.950 1_554 S
C150 H146 0.949 . S
C150 C158 1.574 . S
C150 C166 1.368 . S
H151 C159 0.950 . S
H152 C157 0.950 . S
H153 C158 0.949 . S
H154 C160 0.950 . S
H155 C161 0.950 . S
H156 C162 0.949 1_556 S
C157 H152 0.950 . S
C157 C159 1.327 . S
C157 C163 1.429 1_556 S
C158 C150 1.574 . S
C158 H153 0.949 . S
C158 C164 1.368 . S
C159 C143 1.349 1_556 S
C159 H151 0.950 . S
C159 C157 1.327 . S
C160 C148 1.349 . S
C160 H154 0.950 . S
C160 C161 1.327 . S
C161 H155 0.950 . S
C161 C160 1.327 . S
C161 C165 1.429 . S
C162 C145 1.573 1_554 S
C162 H156 0.949 1_554 S
C162 C166 1.368 . S
C163 C144 1.429 . S
C163 C157 1.429 1_554 S
C163 C164 1.523 . S
C164 C145 1.367 1_554 S
C164 C158 1.368 . S
C164 C163 1.523 . S
C165 C149 1.429 . S
C165 C161 1.429 . S
C165 C166 1.523 . S
C166 C150 1.368 . S
C166 C162 1.368 . S
C166 C165 1.523 . S
H167 C142 0.950 . S
H168 C144 0.950 . S
H169 C145 0.951 . S
H170 C147 0.950 1_556 S
H171 C149 0.950 1_556 S
C172 C173 1.349 . S
C172 C174 1.327 . S
C172 H197 0.950 . S
C173 C172 1.349 . S
C173 C189 1.349 1_554 S
C174 C172 1.327 . S
C174 C193 1.429 . S
C174 H198 0.950 . S
C175 C192 1.574 . S
C175 C194 1.368 1_556 S
C175 H199 0.949 . S
H176 C180 0.949 . S
C177 C178 1.349 . S
C177 C179 1.327 . S
C177 H200 0.950 1_554 S
C178 C177 1.349 . S
C178 C190 1.349 . S
C179 C177 1.327 . S
C179 C195 1.429 . S
C179 H201 0.950 1_554 S
C180 H176 0.949 . S
C180 C188 1.574 . S
C180 C196 1.368 . S
H181 C189 0.950 . S
H182 C187 0.950 . S
H183 C188 0.949 . S
H184 C190 0.950 . S
H185 C191 0.950 . S
H186 C192 0.949 . S
C187 H182 0.950 . S
C187 C189 1.327 . S
C187 C193 1.429 1_556 S
C188 C180 1.574 . S
C188 H183 0.949 . S
C188 C194 1.368 . S
C189 C173 1.349 1_556 S
C189 H181 0.950 . S
C189 C187 1.327 . S
C190 C178 1.349 . S
C190 H184 0.950 . S
C190 C191 1.327 . S
C191 H185 0.950 . S
C191 C190 1.327 . S
C191 C195 1.429 . S
C192 C175 1.574 . S
C192 H186 0.949 . S
C192 C196 1.368 1_556 S
C193 C174 1.429 . S
C193 C187 1.429 1_554 S
C193 C194 1.523 . S
C194 C175 1.368 1_554 S
C194 C188 1.368 . S
C194 C193 1.523 . S
C195 C179 1.429 . S
C195 C191 1.429 . S
C195 C196 1.523 . S
C196 C180 1.368 . S
C196 C192 1.368 1_554 S
C196 C195 1.523 . S
H197 C172 0.950 . S
H198 C174 0.950 . S
H199 C175 0.949 . S
H200 C177 0.950 1_556 S
H201 C179 0.950 1_556 S
C202 C203 1.349 . S
C202 C204 1.327 . S
C202 H227 0.950 1_554 S
C203 C202 1.349 . S
C203 C219 1.349 . S
C204 C202 1.327 . S
C204 C223 1.429 . S
C204 H228 0.950 1_554 S
C205 C222 1.574 . S
C205 C224 1.368 . S
C205 H229 0.949 . S
H206 C210 0.951 . S
C207 C208 1.349 . S
C207 C209 1.327 . S
C207 H230 0.950 . S
C208 C207 1.349 . S
C208 C220 1.349 1_554 S
C209 C207 1.327 . S
C209 C225 1.429 . S
C209 H231 0.950 . S
C210 H206 0.951 . S
C210 C218 1.573 1_556 S
C210 C226 1.367 1_556 S
H211 C219 0.950 . S
H212 C217 0.950 . S
H213 C218 0.949 1_556 S
H214 C220 0.950 . S
H215 C221 0.950 . S
H216 C222 0.949 . S
C217 H212 0.950 . S
C217 C219 1.327 . S
C217 C223 1.429 . S
C218 C210 1.573 1_554 S
C218 H213 0.949 1_554 S
C218 C224 1.368 . S
C219 C203 1.349 . S
C219 H211 0.950 . S
C219 C217 1.327 . S
C220 C208 1.349 1_556 S
C220 H214 0.950 . S
C220 C221 1.327 . S
C221 H215 0.950 . S
C221 C220 1.327 . S
C221 C225 1.429 1_556 S
C222 C205 1.574 . S
C222 H216 0.949 . S
C222 C226 1.368 . S
C223 C204 1.429 . S
C223 C217 1.429 . S
C223 C224 1.523 . S
C224 C205 1.368 . S
C224 C218 1.368 . S
C224 C223 1.523 . S
C225 C209 1.429 . S
C225 C221 1.429 1_554 S
C225 C226 1.523 . S
C226 C210 1.367 1_554 S
C226 C222 1.368 . S
C226 C225 1.523 . S
H227 C202 0.950 1_556 S
H228 C204 0.950 1_556 S
H229 C205 0.949 . S
H230 C207 0.950 . S
H231 C209 0.950 . S
C232 C233 1.349 . S
C232 C234 1.327 . S
C232 H257 0.950 . S
C233 C232 1.349 . S
C233 C249 1.349 . S
C234 C232 1.327 . S
C234 C253 1.429 . S
C234 H258 0.950 . S
C235 C252 1.574 1_565 S
C235 C254 1.368 . S
C235 H259 0.949 . S
H236 C240 0.949 . S
C237 C238 1.349 . S
C237 C239 1.327 . S
C237 H260 0.950 . S
C238 C237 1.349 . S
C238 C250 1.349 . S
C239 C237 1.327 . S
C239 C255 1.429 . S
C239 H261 0.950 . S
C240 H236 0.949 . S
C240 C248 1.574 1_545 S
C240 C256 1.368 . S
H241 C249 0.950 . S
H242 C247 0.950 . S
H243 C248 0.949 . S
H244 C250 0.950 . S
H245 C251 0.950 . S
H246 C252 0.949 . S
C247 H242 0.950 . S
C247 C249 1.327 . S
C247 C253 1.429 . S
C248 C240 1.574 1_565 S
C248 H243 0.949 . S
C248 C254 1.368 . S
C249 C233 1.349 . S
C249 H241 0.950 . S
C249 C247 1.327 . S
C250 C238 1.349 . S
C250 H244 0.950 . S
C250 C251 1.327 . S
C251 H245 0.950 . S
C251 C250 1.327 . S
C251 C255 1.429 . S
C252 C235 1.574 1_545 S
C252 H246 0.949 . S
C252 C256 1.368 . S
C253 C234 1.429 . S
C253 C247 1.429 . S
C253 C254 1.523 . S
C254 C235 1.368 . S
C254 C248 1.368 . S
C254 C253 1.523 . S
C255 C239 1.429 . S
C255 C251 1.429 . S
C255 C256 1.523 . S
C256 C240 1.368 . S
C256 C252 1.368 . S
C256 C255 1.523 . S
H257 C232 0.950 . S
H258 C234 0.950 . S
H259 C235 0.949 . S
H260 C237 0.950 . S
H261 C239 0.950 . S
C262 C263 1.349 . S
C262 C264 1.327 . S
C262 H287 0.950 . S
C263 C262 1.349 . S
C263 C279 1.349 . S
C264 C262 1.327 . S
C264 C283 1.429 . S
C264 H288 0.950 . S
C265 C282 1.574 1_455 S
C265 C284 1.368 . S
C265 H289 0.949 . S
H266 C270 0.949 . S
C267 C268 1.349 . S
C267 C269 1.327 . S
C267 H290 0.950 . S
C268 C267 1.349 . S
C268 C280 1.349 . S
C269 C267 1.327 . S
C269 C285 1.429 . S
C269 H291 0.950 . S
C270 H266 0.949 . S
C270 C278 1.574 1_655 S
C270 C286 1.368 . S
H271 C279 0.950 . S
H272 C277 0.950 . S
H273 C278 0.949 . S
H274 C280 0.950 . S
H275 C281 0.950 . S
H276 C282 0.949 . S
C277 H272 0.950 . S
C277 C279 1.327 . S
C277 C283 1.429 . S
C278 C270 1.574 1_455 S
C278 H273 0.949 . S
C278 C284 1.368 . S
C279 C263 1.349 . S
C279 H271 0.950 . S
C279 C277 1.327 . S
C280 C268 1.349 . S
C280 H274 0.950 . S
C280 C281 1.327 . S
C281 H275 0.950 . S
C281 C280 1.327 . S
C281 C285 1.429 . S
C282 C265 1.574 1_655 S
C282 H276 0.949 . S
C282 C286 1.368 . S
C283 C264 1.429 . S
C283 C277 1.429 . S
C283 C284 1.523 . S
C284 C265 1.368 . S
C284 C278 1.368 . S
C284 C283 1.523 . S
C285 C269 1.429 . S
C285 C281 1.429 . S
C285 C286 1.523 . S
C286 C270 1.368 . S
C286 C282 1.368 . S
C286 C285 1.523 . S
H287 C262 0.950 . S
H288 C264 0.950 . S
H289 C265 0.949 . S
H290 C267 0.950 . S
H291 C269 0.950 . S
C292 C293 1.349 . S
C292 C294 1.327 . S
C292 H317 0.950 . S
C293 C292 1.349 . S
C293 C309 1.349 . S
C294 C292 1.327 . S
C294 C313 1.429 . S
C294 H318 0.950 . S
C295 C312 1.574 1_545 S
C295 C314 1.368 . S
C295 H319 0.949 . S
H296 C300 0.949 . S
C297 C298 1.349 . S
C297 C299 1.327 . S
C297 H320 0.950 . S
C298 C297 1.349 . S
C298 C310 1.349 . S
C299 C297 1.327 . S
C299 C315 1.429 . S
C299 H321 0.950 . S
C300 H296 0.949 . S
C300 C308 1.574 1_565 S
C300 C316 1.368 . S
H301 C309 0.950 . S
H302 C307 0.950 . S
H303 C308 0.949 . S
H304 C310 0.950 . S
H305 C311 0.950 . S
H306 C312 0.949 . S
C307 H302 0.950 . S
C307 C309 1.327 . S
C307 C313 1.429 . S
C308 C300 1.574 1_545 S
C308 H303 0.949 . S
C308 C314 1.368 . S
C309 C293 1.349 . S
C309 H301 0.950 . S
C309 C307 1.327 . S
C310 C298 1.349 . S
C310 H304 0.950 . S
C310 C311 1.327 . S
C311 H305 0.950 . S
C311 C310 1.327 . S
C311 C315 1.429 . S
C312 C295 1.574 1_565 S
C312 H306 0.949 . S
C312 C316 1.368 . S
C313 C294 1.429 . S
C313 C307 1.429 . S
C313 C314 1.523 . S
C314 C295 1.368 . S
C314 C308 1.368 . S
C314 C313 1.523 . S
C315 C299 1.429 . S
C315 C311 1.429 . S
C315 C316 1.523 . S
C316 C300 1.368 . S
C316 C312 1.368 . S
C316 C315 1.523 . S
H317 C292 0.950 . S
H318 C294 0.950 . S
H319 C295 0.949 . S
H320 C297 0.950 . S
H321 C299 0.950 . S
C322 C323 1.349 . S
C322 C324 1.327 . S
C322 H347 0.950 . S
C323 C322 1.349 . S
C323 C339 1.349 . S
C324 C322 1.327 . S
C324 C343 1.429 . S
C324 H348 0.950 . S
C325 C342 1.574 1_655 S
C325 C344 1.368 . S
C325 H349 0.949 . S
H326 C330 0.949 . S
C327 C328 1.349 . S
C327 C329 1.327 . S
C327 H350 0.950 . S
C328 C327 1.349 . S
C328 C340 1.349 . S
C329 C327 1.327 . S
C329 C345 1.429 . S
C329 H351 0.950 . S
C330 H326 0.949 . S
C330 C338 1.574 1_455 S
C330 C346 1.368 . S
H331 C339 0.950 . S
H332 C337 0.950 . S
H333 C338 0.949 . S
H334 C340 0.950 . S
H335 C341 0.950 . S
H336 C342 0.949 . S
C337 H332 0.950 . S
C337 C339 1.327 . S
C337 C343 1.429 . S
C338 C330 1.574 1_655 S
C338 H333 0.949 . S
C338 C344 1.368 . S
C339 C323 1.349 . S
C339 H331 0.950 . S
C339 C337 1.327 . S
C340 C328 1.349 . S
C340 H334 0.950 . S
C340 C341 1.327 . S
C341 H335 0.950 . S
C341 C340 1.327 . S
C341 C345 1.429 . S
C342 C325 1.574 1_455 S
C342 H336 0.949 . S
C342 C346 1.368 . S
C343 C324 1.429 . S
C343 C337 1.429 . S
C343 C344 1.523 . S
C344 C325 1.368 . S
C344 C338 1.368 . S
C344 C343 1.523 . S
C345 C329 1.429 . S
C345 C341 1.429 . S
C345 C346 1.523 . S
C346 C330 1.368 . S
C346 C342 1.368 . S
C346 C345 1.523 . S
H347 C322 0.950 . S
H348 C324 0.950 . S
H349 C325 0.949 . S
H350 C327 0.950 . S
H351 C329 0.950 . S
C352 C353 1.349 . S
C352 C354 1.327 . S
C352 H377 0.950 . S
C353 C352 1.349 . S
C353 C369 1.349 . S
C354 C352 1.327 . S
C354 C373 1.429 . S
C354 H378 0.950 . S
C355 C372 1.574 . S
C355 C374 1.368 . S
C355 H379 0.949 . S
H356 C360 0.949 . S
C357 C358 1.349 . S
C357 C359 1.327 . S
C357 H380 0.950 . S
C358 C357 1.349 . S
C358 C370 1.349 . S
C359 C357 1.327 . S
C359 C375 1.429 . S
C359 H381 0.950 . S
C360 H356 0.949 . S
C360 C368 1.574 . S
C360 C376 1.368 . S
H361 C369 0.950 . S
H362 C367 0.950 . S
H363 C368 0.949 . S
H364 C370 0.950 . S
H365 C371 0.950 . S
H366 C372 0.949 . S
C367 H362 0.950 . S
C367 C369 1.327 . S
C367 C373 1.429 . S
C368 C360 1.574 . S
C368 H363 0.949 . S
C368 C374 1.368 . S
C369 C353 1.349 . S
C369 H361 0.950 . S
C369 C367 1.327 . S
C370 C358 1.349 . S
C370 H364 0.950 . S
C370 C371 1.327 . S
C371 H365 0.950 . S
C371 C370 1.327 . S
C371 C375 1.429 . S
C372 C355 1.574 . S
C372 H366 0.949 . S
C372 C376 1.368 . S
C373 C354 1.429 . S
C373 C367 1.429 . S
C373 C374 1.523 . S
C374 C355 1.368 . S
C374 C368 1.368 . S
C374 C373 1.523 . S
C375 C359 1.429 . S
C375 C371 1.429 . S
C375 C376 1.523 . S
C376 C360 1.368 . S
C376 C372 1.368 . S
C376 C375 1.523 . S
H377 C352 0.950 . S
H378 C354 0.950 . S
H379 C355 0.949 . S
H380 C357 0.950 . S
H381 C359 0.950 . S
C382 C383 1.349 . S
C382 C384 1.327 . S
C382 H407 0.950 . S
C383 C382 1.349 . S
C383 C399 1.349 . S
C384 C382 1.327 . S
C384 C403 1.429 . S
C384 H408 0.950 . S
C385 C402 1.574 . S
C385 C404 1.368 . S
C385 H409 0.949 . S
H386 C390 0.949 . S
C387 C388 1.349 . S
C387 C389 1.327 . S
C387 H410 0.950 . S
C388 C387 1.349 . S
C388 C400 1.349 . S
C389 C387 1.327 . S
C389 C405 1.429 . S
C389 H411 0.950 . S
C390 H386 0.949 . S
C390 C398 1.574 . S
C390 C406 1.368 . S
H391 C399 0.950 . S
H392 C397 0.950 . S
H393 C398 0.949 . S
H394 C400 0.950 . S
H395 C401 0.950 . S
H396 C402 0.949 . S
C397 H392 0.950 . S
C397 C399 1.327 . S
C397 C403 1.429 . S
C398 C390 1.574 . S
C398 H393 0.949 . S
C398 C404 1.368 . S
C399 C383 1.349 . S
C399 H391 0.950 . S
C399 C397 1.327 . S
C400 C388 1.349 . S
C400 H394 0.950 . S
C400 C401 1.327 . S
C401 H395 0.950 . S
C401 C400 1.327 . S
C401 C405 1.429 . S
C402 C385 1.574 . S
C402 H396 0.949 . S
C402 C406 1.368 . S
C403 C384 1.429 . S
C403 C397 1.429 . S
C403 C404 1.523 . S
C404 C385 1.368 . S
C404 C398 1.368 . S
C404 C403 1.523 . S
C405 C389 1.429 . S
C405 C401 1.429 . S
C405 C406 1.523 . S
C406 C390 1.368 . S
C406 C402 1.368 . S
C406 C405 1.523 . S
H407 C382 0.950 . S
H408 C384 0.950 . S
H409 C385 0.949 . S
H410 C387 0.950 . S
H411 C389 0.950 . S
C412 C413 1.349 . S
C412 C414 1.327 . S
C412 H437 0.950 . S
C413 C412 1.349 . S
C413 C429 1.349 . S
C414 C412 1.327 . S
C414 C433 1.429 . S
C414 H438 0.950 . S
C415 C432 1.574 . S
C415 C434 1.368 . S
C415 H439 0.949 . S
H416 C420 0.949 . S
C417 C418 1.349 . S
C417 C419 1.327 . S
C417 H440 0.950 . S
C418 C417 1.349 . S
C418 C430 1.349 . S
C419 C417 1.327 . S
C419 C435 1.429 . S
C419 H441 0.950 . S
C420 H416 0.949 . S
C420 C428 1.574 . S
C420 C436 1.368 . S
H421 C429 0.950 . S
H422 C427 0.950 . S
H423 C428 0.949 . S
H424 C430 0.950 . S
H425 C431 0.950 . S
H426 C432 0.949 . S
C427 H422 0.950 . S
C427 C429 1.327 . S
C427 C433 1.429 . S
C428 C420 1.574 . S
C428 H423 0.949 . S
C428 C434 1.368 . S
C429 C413 1.349 . S
C429 H421 0.950 . S
C429 C427 1.327 . S
C430 C418 1.349 . S
C430 H424 0.950 . S
C430 C431 1.327 . S
C431 H425 0.950 . S
C431 C430 1.327 . S
C431 C435 1.429 . S
C432 C415 1.574 . S
C432 H426 0.949 . S
C432 C436 1.368 . S
C433 C414 1.429 . S
C433 C427 1.429 . S
C433 C434 1.523 . S
C434 C415 1.368 . S
C434 C428 1.368 . S
C434 C433 1.523 . S
C435 C419 1.429 . S
C435 C431 1.429 . S
C435 C436 1.523 . S
C436 C420 1.368 . S
C436 C432 1.368 . S
C436 C435 1.523 . S
H437 C412 0.950 . S
H438 C414 0.950 . S
H439 C415 0.949 . S
H440 C417 0.950 . S
H441 C419 0.950 . S
C442 C443 1.349 . S
C442 C444 1.327 . S
C442 H467 0.950 . S
C443 C442 1.349 . S
C443 C459 1.349 . S
C444 C442 1.327 . S
C444 C463 1.429 . S
C444 H468 0.950 . S
C445 C462 1.574 . S
C445 C464 1.368 . S
C445 H469 0.949 . S
H446 C450 0.949 . S
C447 C448 1.349 . S
C447 C449 1.327 . S
C447 H470 0.950 . S
C448 C447 1.349 . S
C448 C460 1.349 . S
C449 C447 1.327 . S
C449 C465 1.429 . S
C449 H471 0.950 . S
C450 H446 0.949 . S
C450 C458 1.574 . S
C450 C466 1.368 . S
H451 C459 0.950 . S
H452 C457 0.950 . S
H453 C458 0.949 . S
H454 C460 0.950 . S
H455 C461 0.950 . S
H456 C462 0.949 . S
C457 H452 0.950 . S
C457 C459 1.327 . S
C457 C463 1.429 . S
C458 C450 1.574 . S
C458 H453 0.949 . S
C458 C464 1.368 . S
C459 C443 1.349 . S
C459 H451 0.950 . S
C459 C457 1.327 . S
C460 C448 1.349 . S
C460 H454 0.950 . S
C460 C461 1.327 . S
C461 H455 0.950 . S
C461 C460 1.327 . S
C461 C465 1.429 . S
C462 C445 1.574 . S
C462 H456 0.949 . S
C462 C466 1.368 . S
C463 C444 1.429 . S
C463 C457 1.429 . S
C463 C464 1.523 . S
C464 C445 1.368 . S
C464 C458 1.368 . S
C464 C463 1.523 . S
C465 C449 1.429 . S
C465 C461 1.429 . S
C465 C466 1.523 . S
C466 C450 1.368 . S
C466 C462 1.368 . S
C466 C465 1.523 . S
H467 C442 0.950 . S
H468 C444 0.950 . S
H469 C445 0.949 . S
H470 C447 0.950 . S
H471 C449 0.950 . S
C472 C473 1.349 . S
C472 C474 1.327 . S
C472 H497 0.950 . S
C473 C472 1.349 . S
C473 C489 1.349 . S
C474 C472 1.327 . S
C474 C493 1.429 . S
C474 H498 0.950 . S
C475 C492 1.574 . S
C475 C494 1.368 . S
C475 H499 0.949 . S
H476 C480 0.949 . S
C477 C478 1.349 . S
C477 C479 1.327 . S
C477 H500 0.950 . S
C478 C477 1.349 . S
C478 C490 1.349 . S
C479 C477 1.327 . S
C479 C495 1.429 . S
C479 H501 0.950 . S
C480 H476 0.949 . S
C480 C488 1.574 . S
C480 C496 1.368 . S
H481 C489 0.950 . S
H482 C487 0.950 . S
H483 C488 0.949 . S
H484 C490 0.950 . S
H485 C491 0.950 . S
H486 C492 0.949 . S
C487 H482 0.950 . S
C487 C489 1.327 . S
C487 C493 1.429 . S
C488 C480 1.574 . S
C488 H483 0.949 . S
C488 C494 1.368 . S
C489 C473 1.349 . S
C489 H481 0.950 . S
C489 C487 1.327 . S
C490 C478 1.349 . S
C490 H484 0.950 . S
C490 C491 1.327 . S
C491 H485 0.950 . S
C491 C490 1.327 . S
C491 C495 1.429 . S
C492 C475 1.574 . S
C492 H486 0.949 . S
C492 C496 1.368 . S
C493 C474 1.429 . S
C493 C487 1.429 . S
C493 C494 1.523 . S
C494 C475 1.368 . S
C494 C488 1.368 . S
C494 C493 1.523 . S
C495 C479 1.429 . S
C495 C491 1.429 . S
C495 C496 1.523 . S
C496 C480 1.368 . S
C496 C492 1.368 . S
C496 C495 1.523 . S
H497 C472 0.950 . S
H498 C474 0.950 . S
H499 C475 0.949 . S
H500 C477 0.950 . S
H501 C479 0.950 . S
C502 C503 1.349 . S
C502 C504 1.327 . S
C502 H527 0.950 . S
C503 C502 1.349 . S
C503 C519 1.349 . S
C504 C502 1.327 . S
C504 C523 1.429 . S
C504 H528 0.950 . S
C505 C522 1.574 . S
C505 C524 1.368 . S
C505 H529 0.949 . S
H506 C510 0.949 . S
C507 C508 1.349 . S
C507 C509 1.327 . S
C507 H530 0.950 . S
C508 C507 1.349 . S
C508 C520 1.349 . S
C509 C507 1.327 . S
C509 C525 1.429 . S
C509 H531 0.950 . S
C510 H506 0.949 . S
C510 C518 1.574 . S
C510 C526 1.368 . S
H511 C519 0.950 . S
H512 C517 0.950 . S
H513 C518 0.949 . S
H514 C520 0.950 . S
H515 C521 0.950 . S
H516 C522 0.949 . S
C517 H512 0.950 . S
C517 C519 1.327 . S
C517 C523 1.429 . S
C518 C510 1.574 . S
C518 H513 0.949 . S
C518 C524 1.368 . S
C519 C503 1.349 . S
C519 H511 0.950 . S
C519 C517 1.327 . S
C520 C508 1.349 . S
C520 H514 0.950 . S
C520 C521 1.327 . S
C521 H515 0.950 . S
C521 C520 1.327 . S
C521 C525 1.429 . S
C522 C505 1.574 . S
C522 H516 0.949 . S
C522 C526 1.368 . S
C523 C504 1.429 . S
C523 C517 1.429 . S
C523 C524 1.523 . S
C524 C505 1.368 . S
C524 C518 1.368 . S
C524 C523 1.523 . S
C525 C509 1.429 . S
C525 C521 1.429 . S
C525 C526 1.523 . S
C526 C510 1.368 . S
C526 C522 1.368 . S
C526 C525 1.523 . S
H527 C502 0.950 . S
H528 C504 0.950 . S
H529 C505 0.949 . S
H530 C507 0.950 . S
H531 C509 0.950 . S
C532 C533 1.349 . S
C532 C534 1.327 . S
C532 H557 0.950 . S
C533 C532 1.349 . S
C533 C549 1.349 . S
C534 C532 1.327 . S
C534 C553 1.429 . S
C534 H558 0.950 . S
C535 C552 1.574 . S
C535 C554 1.368 . S
C535 H559 0.949 . S
H536 C540 0.949 . S
C537 C538 1.349 . S
C537 C539 1.327 . S
C537 H560 0.950 . S
C538 C537 1.349 . S
C538 C550 1.349 . S
C539 C537 1.327 . S
C539 C555 1.429 . S
C539 H561 0.950 . S
C540 H536 0.949 . S
C540 C548 1.574 . S
C540 C556 1.368 . S
H541 C549 0.950 . S
H542 C547 0.950 . S
H543 C548 0.949 . S
H544 C550 0.950 . S
H545 C551 0.950 . S
H546 C552 0.949 . S
C547 H542 0.950 . S
C547 C549 1.327 . S
C547 C553 1.429 . S
C548 C540 1.574 . S
C548 H543 0.949 . S
C548 C554 1.368 . S
C549 C533 1.349 . S
C549 H541 0.950 . S
C549 C547 1.327 . S
C550 C538 1.349 . S
C550 H544 0.950 . S
C550 C551 1.327 . S
C551 H545 0.950 . S
C551 C550 1.327 . S
C551 C555 1.429 . S
C552 C535 1.574 . S
C552 H546 0.949 . S
C552 C556 1.368 . S
C553 C534 1.429 . S
C553 C547 1.429 . S
C553 C554 1.523 . S
C554 C535 1.368 . S
C554 C548 1.368 . S
C554 C553 1.523 . S
C555 C539 1.429 . S
C555 C551 1.429 . S
C555 C556 1.523 . S
C556 C540 1.368 . S
C556 C552 1.368 . S
C556 C555 1.523 . S
H557 C532 0.950 . S
H558 C534 0.950 . S
H559 C535 0.949 . S
H560 C537 0.950 . S
H561 C539 0.950 . S
C562 C563 1.349 . S
C562 C564 1.327 . S
C562 H587 0.950 . S
C563 C562 1.349 . S
C563 C579 1.349 . S
C564 C562 1.327 . S
C564 C583 1.429 . S
C564 H588 0.950 . S
C565 C582 1.574 . S
C565 C584 1.368 . S
C565 H589 0.949 . S
H566 C570 0.949 . S
C567 C568 1.349 . S
C567 C569 1.327 . S
C567 H590 0.950 . S
C568 C567 1.349 . S
C568 C580 1.349 . S
C569 C567 1.327 . S
C569 C585 1.429 . S
C569 H591 0.950 . S
C570 H566 0.949 . S
C570 C578 1.574 . S
C570 C586 1.368 . S
H571 C579 0.950 . S
H572 C577 0.950 . S
H573 C578 0.949 . S
H574 C580 0.950 . S
H575 C581 0.950 . S
H576 C582 0.949 . S
C577 H572 0.950 . S
C577 C579 1.327 . S
C577 C583 1.429 . S
C578 C570 1.574 . S
C578 H573 0.949 . S
C578 C584 1.368 . S
C579 C563 1.349 . S
C579 H571 0.950 . S
C579 C577 1.327 . S
C580 C568 1.349 . S
C580 H574 0.950 . S
C580 C581 1.327 . S
C581 H575 0.950 . S
C581 C580 1.327 . S
C581 C585 1.429 . S
C582 C565 1.574 . S
C582 H576 0.949 . S
C582 C586 1.368 . S
C583 C564 1.429 . S
C583 C577 1.429 . S
C583 C584 1.523 . S
C584 C565 1.368 . S
C584 C578 1.368 . S
C584 C583 1.523 . S
C585 C569 1.429 . S
C585 C581 1.429 . S
C585 C586 1.523 . S
C586 C570 1.368 . S
C586 C582 1.368 . S
C586 C585 1.523 . S
H587 C562 0.950 . S
H588 C564 0.950 . S
H589 C565 0.949 . S
H590 C567 0.950 . S
H591 C569 0.950 . S
C113 C3 1.515 . S
C118 C45 1.515 . S
C143 C9 1.517 . S
C148 C23 1.517 . S
C173 C17 1.515 . S
C178 C31 1.515 . S
C203 C51 1.517 . S
C208 C37 1.517 . S
C233 C59 1.515 . S
C238 C101 1.515 . S
C263 C79 1.517 . S
C268 C65 1.517 . S
C293 C87 1.515 . S
C298 C73 1.515 . S
C323 C107 1.517 . S
C328 C93 1.517 . S
C353 C91 1.447 . S
C358 C8 1.477 . S
C383 C21 1.447 . S
C388 C106 1.477 . S
C413 C63 1.447 . S
C418 C36 1.477 . S
C443 C78 1.477 . S
C448 C49 1.447 . S
C473 C77 1.447 . S
C478 C50 1.477 . S
C503 C7 1.447 . S
C508 C92 1.477 . S
C533 C22 1.477 . S
C538 C105 1.447 . S
C563 C35 1.447 . S
C568 C64 1.477 . S
