# Generated by pormake.
# Topology umc, (4)-cn, num edge types: 1
# Building blocks:
#     Node 0, Type 0, BuildingBlock: QUQFOY_clean_sbu_1, # of connection points: 4
#     Node 1, Type 0, BuildingBlock: QUQFOY_clean_sbu_1, # of connection points: 4
#     Node 2, Type 0, BuildingBlock: QUQFOY_clean_sbu_1, # of connection points: 4
#     Node 3, Type 0, BuildingBlock: QUQFOY_clean_sbu_1, # of connection points: 4
#     Node 4, Type 0, BuildingBlock: QUQFOY_clean_sbu_1, # of connection points: 4
#     Node 5, Type 0, BuildingBlock: QUQFOY_clean_sbu_1, # of connection points: 4
#     Node 6, Type 0, BuildingBlock: QUQFOY_clean_sbu_1, # of connection points: 4
#     Node 7, Type 0, BuildingBlock: QUQFOY_clean_sbu_1, # of connection points: 4
#     Node 8, Type 0, BuildingBlock: QUQFOY_clean_sbu_1, # of connection points: 4
#     Node 9, Type 0, BuildingBlock: QUQFOY_clean_sbu_1, # of connection points: 4
#     Node 10, Type 0, BuildingBlock: QUQFOY_clean_sbu_1, # of connection points: 4
#     Node 11, Type 0, BuildingBlock: QUQFOY_clean_sbu_1, # of connection points: 4
#     Node 12, Type 0, BuildingBlock: QUQFOY_clean_sbu_1, # of connection points: 4
#     Node 13, Type 0, BuildingBlock: QUQFOY_clean_sbu_1, # of connection points: 4
#     Node 14, Type 0, BuildingBlock: QUQFOY_clean_sbu_1, # of connection points: 4
#     Node 15, Type 0, BuildingBlock: QUQFOY_clean_sbu_1, # of connection points: 4
#     Edge 16, Type (0, 0), BuildingBlock: UVAHIK_clean_linker_0, # of connection points: 2
#     Edge 17, Type (0, 0), BuildingBlock: UVAHIK_clean_linker_0, # of connection points: 2
#     Edge 18, Type (0, 0), BuildingBlock: UVAHIK_clean_linker_0, # of connection points: 2
#     Edge 19, Type (0, 0), BuildingBlock: UVAHIK_clean_linker_0, # of connection points: 2
#     Edge 20, Type (0, 0), BuildingBlock: UVAHIK_clean_linker_0, # of connection points: 2
#     Edge 21, Type (0, 0), BuildingBlock: UVAHIK_clean_linker_0, # of connection points: 2
#     Edge 22, Type (0, 0), BuildingBlock: UVAHIK_clean_linker_0, # of connection points: 2
#     Edge 23, Type (0, 0), BuildingBlock: UVAHIK_clean_linker_0, # of connection points: 2
#     Edge 24, Type (0, 0), BuildingBlock: UVAHIK_clean_linker_0, # of connection points: 2
#     Edge 25, Type (0, 0), BuildingBlock: UVAHIK_clean_linker_0, # of connection points: 2
#     Edge 26, Type (0, 0), BuildingBlock: UVAHIK_clean_linker_0, # of connection points: 2
#     Edge 27, Type (0, 0), BuildingBlock: UVAHIK_clean_linker_0, # of connection points: 2
#     Edge 28, Type (0, 0), BuildingBlock: UVAHIK_clean_linker_0, # of connection points: 2
#     Edge 29, Type (0, 0), BuildingBlock: UVAHIK_clean_linker_0, # of connection points: 2
#     Edge 30, Type (0, 0), BuildingBlock: UVAHIK_clean_linker_0, # of connection points: 2
#     Edge 31, Type (0, 0), BuildingBlock: UVAHIK_clean_linker_0, # of connection points: 2
#     Edge 32, Type (0, 0), BuildingBlock: UVAHIK_clean_linker_0, # of connection points: 2
#     Edge 33, Type (0, 0), BuildingBlock: UVAHIK_clean_linker_0, # of connection points: 2
#     Edge 34, Type (0, 0), BuildingBlock: UVAHIK_clean_linker_0, # of connection points: 2
#     Edge 35, Type (0, 0), BuildingBlock: UVAHIK_clean_linker_0, # of connection points: 2
#     Edge 36, Type (0, 0), BuildingBlock: UVAHIK_clean_linker_0, # of connection points: 2
#     Edge 37, Type (0, 0), BuildingBlock: UVAHIK_clean_linker_0, # of connection points: 2
#     Edge 38, Type (0, 0), BuildingBlock: UVAHIK_clean_linker_0, # of connection points: 2
#     Edge 39, Type (0, 0), BuildingBlock: UVAHIK_clean_linker_0, # of connection points: 2
#     Edge 40, Type (0, 0), BuildingBlock: UVAHIK_clean_linker_0, # of connection points: 2
#     Edge 41, Type (0, 0), BuildingBlock: UVAHIK_clean_linker_0, # of connection points: 2
#     Edge 42, Type (0, 0), BuildingBlock: UVAHIK_clean_linker_0, # of connection points: 2
#     Edge 43, Type (0, 0), BuildingBlock: UVAHIK_clean_linker_0, # of connection points: 2
#     Edge 44, Type (0, 0), BuildingBlock: UVAHIK_clean_linker_0, # of connection points: 2
#     Edge 45, Type (0, 0), BuildingBlock: UVAHIK_clean_linker_0, # of connection points: 2
#     Edge 46, Type (0, 0), BuildingBlock: UVAHIK_clean_linker_0, # of connection points: 2
#     Edge 47, Type (0, 0), BuildingBlock: UVAHIK_clean_linker_0, # of connection points: 2
# Relax obj value: 0.041
# Max RMSD: 0.117
# Mean RMSD: 0.117
data_MOF--net-umc--node1-QUQFOY_clean_sbu_1--edge1-UVAHIK_clean_linker_0
_symmetry_space_group_name_H-M    P1
_symmetry_Int_Tables_number       1
_symmetry_cell_setting            triclinic
loop_
_symmetry_equiv_pos_as_xyz
'x, y, z'
_cell_length_a     52.281009
_cell_length_b     51.972875
_cell_length_c     74.103542
_cell_angle_alpha  89.986734
_cell_angle_beta   89.990451
_cell_angle_gamma 89.998974
loop_
_atom_site_label
_atom_site_type_symbol
_atom_site_fract_x
_atom_site_fract_y
_atom_site_fract_z
_atom_type_partial_charge
O0 O 0.32286 0.09512 0.40381 0.0
Cd1 Cd 0.33635 0.10257 0.37813 0.0
Cd2 Cd 0.31896 0.05421 0.37378 0.0
O3 O 0.30364 0.05786 0.39942 0.0
O4 O 0.33997 0.14093 0.37751 0.0
O5 O 0.31223 0.11976 0.36065 0.0
C6 C 0.32141 0.14149 0.36605 0.0
C7 C 0.29587 0.04563 0.34761 0.0
C8 C 0.30937 0.07658 0.40972 0.0
C9 C 0.37568 0.06218 0.3703 0.0
O10 O 0.35744 0.04622 0.37214 0.0
O11 O 0.37129 0.08628 0.37094 0.0
O12 O 0.30096 0.02759 0.35905 0.0
O13 O 0.30255 0.06886 0.35168 0.0
O14 O 0.68327 0.92447 0.40466 0.0
Cd15 Cd 0.67002 0.91755 0.37886 0.0
Cd16 Cd 0.68848 0.96531 0.37458 0.0
O17 O 0.7037 0.96105 0.4002 0.0
O18 O 0.66621 0.87925 0.37779 0.0
O19 O 0.69433 0.90068 0.36137 0.0
C20 C 0.68498 0.87887 0.36648 0.0
C21 C 0.71175 0.97511 0.34867 0.0
C22 C 0.69733 0.94259 0.41054 0.0
C23 C 0.63159 0.95867 0.37102 0.0
O24 O 0.65018 0.97418 0.373 0.0
O25 O 0.63543 0.93447 0.37155 0.0
O26 O 0.70692 0.99248 0.36066 0.0
O27 O 0.70474 0.95175 0.35203 0.0
O28 O 0.32376 0.92357 0.10853 0.0
Cd29 Cd 0.33688 0.91681 0.13439 0.0
Cd30 Cd 0.31829 0.96455 0.13846 0.0
O31 O 0.30312 0.96007 0.11283 0.0
O32 O 0.34074 0.87853 0.13556 0.0
O33 O 0.31249 0.89998 0.15184 0.0
C34 C 0.32191 0.87816 0.1468 0.0
C35 C 0.295 0.97444 0.16434 0.0
C36 C 0.30963 0.94159 0.10256 0.0
C37 C 0.37518 0.95805 0.14214 0.0
O38 O 0.35657 0.9735 0.14004 0.0
O39 O 0.37139 0.93384 0.14173 0.0
O40 O 0.29978 0.99175 0.1523 0.0
O41 O 0.30205 0.95107 0.16104 0.0
O42 O 0.68341 0.09548 0.1093 0.0
Cd43 Cd 0.67 0.10277 0.13501 0.0
Cd44 Cd 0.68754 0.05442 0.13922 0.0
O45 O 0.70276 0.05825 0.11356 0.0
O46 O 0.6663 0.14112 0.13572 0.0
O47 O 0.69415 0.11993 0.15249 0.0
C48 C 0.68491 0.14167 0.14714 0.0
C49 C 0.71073 0.04588 0.16535 0.0
C50 C 0.69695 0.07701 0.10332 0.0
C51 C 0.63081 0.06223 0.14283 0.0
O52 O 0.64908 0.04633 0.14091 0.0
O53 O 0.63514 0.08635 0.14224 0.0
O54 O 0.70568 0.02783 0.1539 0.0
O55 O 0.70396 0.06909 0.1613 0.0
O56 O 0.68397 0.92514 0.60934 0.0
Cd57 Cd 0.67049 0.91794 0.63506 0.0
Cd58 Cd 0.68802 0.9663 0.63917 0.0
O59 O 0.70332 0.96238 0.61355 0.0
O60 O 0.66675 0.87959 0.63581 0.0
O61 O 0.69455 0.90079 0.6526 0.0
C62 C 0.68531 0.87905 0.64727 0.0
C63 C 0.71111 0.97483 0.66534 0.0
C64 C 0.69752 0.94358 0.60334 0.0
C65 C 0.63129 0.95853 0.64273 0.0
O66 O 0.64956 0.97442 0.64078 0.0
O67 O 0.63562 0.93441 0.64221 0.0
O68 O 0.70614 0.99288 0.65387 0.0
O69 O 0.70432 0.95163 0.66129 0.0
O70 O 0.32308 0.09523 0.60832 0.0
Cd71 Cd 0.33659 0.10266 0.63399 0.0
Cd72 Cd 0.31837 0.05464 0.63854 0.0
O73 O 0.30317 0.05837 0.61287 0.0
O74 O 0.34039 0.141 0.63466 0.0
O75 O 0.31247 0.1199 0.65143 0.0
C76 C 0.32176 0.14161 0.64606 0.0
C77 C 0.2952 0.04619 0.66471 0.0
C78 C 0.30925 0.07689 0.60249 0.0
C79 C 0.37525 0.06177 0.64202 0.0
O80 O 0.35673 0.04614 0.64023 0.0
O81 O 0.3713 0.08594 0.64128 0.0
O82 O 0.3001 0.02814 0.65323 0.0
O83 O 0.30207 0.06937 0.66066 0.0
O84 O 0.68343 0.09645 0.90459 0.0
Cd85 Cd 0.67039 0.10359 0.87876 0.0
Cd86 Cd 0.68803 0.05551 0.87456 0.0
O87 O 0.70324 0.05952 0.9002 0.0
O88 O 0.66684 0.14191 0.87783 0.0
O89 O 0.69489 0.12046 0.86138 0.0
C90 C 0.68564 0.14229 0.86656 0.0
C91 C 0.71127 0.04559 0.84867 0.0
C92 C 0.69716 0.0781 0.91052 0.0
C93 C 0.63132 0.06306 0.87087 0.0
O94 O 0.6496 0.04721 0.87292 0.0
O95 O 0.6356 0.08718 0.87137 0.0
O96 O 0.70618 0.02821 0.86061 0.0
O97 O 0.70451 0.06901 0.85207 0.0
O98 O 0.32422 0.92395 0.90375 0.0
Cd99 Cd 0.33748 0.9173 0.87792 0.0
Cd100 Cd 0.31887 0.96506 0.87386 0.0
O101 O 0.30365 0.9605 0.89947 0.0
O102 O 0.3414 0.87903 0.8767 0.0
O103 O 0.31322 0.90051 0.86037 0.0
C104 C 0.32263 0.87869 0.8654 0.0
C105 C 0.29558 0.97498 0.84799 0.0
C106 C 0.31008 0.94196 0.90973 0.0
C107 C 0.3758 0.95859 0.87029 0.0
O108 O 0.35716 0.97403 0.87232 0.0
O109 O 0.37203 0.93438 0.8707 0.0
O110 O 0.30036 0.99227 0.86004 0.0
O111 O 0.30266 0.95161 0.85127 0.0
O112 O 0.8242 0.59691 0.40453 0.0
Cd113 Cd 0.83719 0.60366 0.37864 0.0
Cd114 Cd 0.81856 0.55594 0.3746 0.0
O115 O 0.8035 0.56044 0.40026 0.0
O116 O 0.84105 0.64195 0.37744 0.0
O117 O 0.81272 0.62047 0.36124 0.0
C118 C 0.82215 0.6423 0.36625 0.0
C119 C 0.79517 0.54602 0.34878 0.0
C120 C 0.81007 0.5789 0.41053 0.0
C121 C 0.87544 0.5624 0.3708 0.0
O122 O 0.85682 0.54697 0.37294 0.0
O123 O 0.87167 0.58662 0.37121 0.0
O124 O 0.79999 0.52872 0.36082 0.0
O125 O 0.80223 0.56939 0.35205 0.0
O126 O 0.18363 0.42513 0.40367 0.0
Cd127 Cd 0.17022 0.41768 0.37797 0.0
Cd128 Cd 0.18774 0.466 0.3736 0.0
O129 O 0.20297 0.46233 0.39926 0.0
O130 O 0.16656 0.37933 0.37735 0.0
O131 O 0.19439 0.40047 0.36053 0.0
C132 C 0.18517 0.37874 0.36592 0.0
C133 C 0.2109 0.4745 0.34744 0.0
C134 C 0.19716 0.44365 0.40957 0.0
C135 C 0.13101 0.45815 0.37004 0.0
O136 O 0.14928 0.47407 0.37191 0.0
O137 O 0.13535 0.43404 0.3707 0.0
O138 O 0.20584 0.49256 0.35887 0.0
O139 O 0.20417 0.45129 0.35152 0.0
O140 O 0.82277 0.42521 0.10932 0.0
Cd141 Cd 0.83625 0.41773 0.135 0.0
Cd142 Cd 0.81885 0.46608 0.13939 0.0
O143 O 0.80355 0.46247 0.11374 0.0
O144 O 0.83985 0.37937 0.13561 0.0
O145 O 0.81212 0.40054 0.15248 0.0
C146 C 0.82129 0.37881 0.14707 0.0
C147 C 0.79576 0.47466 0.16557 0.0
C148 C 0.80928 0.44377 0.10343 0.0
C149 C 0.87557 0.4581 0.14286 0.0
O150 O 0.85733 0.47406 0.14104 0.0
O151 O 0.87118 0.434 0.1422 0.0
O152 O 0.80085 0.4927 0.15412 0.0
O153 O 0.80243 0.45143 0.1615 0.0
O154 O 0.18287 0.5963 0.10834 0.0
Cd155 Cd 0.16973 0.60303 0.1342 0.0
Cd156 Cd 0.18827 0.55525 0.13825 0.0
O157 O 0.20344 0.55975 0.11263 0.0
O158 O 0.16588 0.64131 0.13539 0.0
O159 O 0.1941 0.61982 0.15167 0.0
C160 C 0.1847 0.64165 0.14664 0.0
C161 C 0.21159 0.54538 0.16413 0.0
C162 C 0.19697 0.57827 0.10236 0.0
C163 C 0.13139 0.5618 0.14195 0.0
O164 O 0.14999 0.54633 0.13985 0.0
O165 O 0.1352 0.586 0.14154 0.0
O166 O 0.20679 0.52806 0.1521 0.0
O167 O 0.20453 0.56874 0.16082 0.0
O168 O 0.18368 0.42512 0.60827 0.0
Cd169 Cd 0.17031 0.41772 0.63398 0.0
Cd170 Cd 0.18864 0.46571 0.63847 0.0
O171 O 0.20371 0.46193 0.61276 0.0
O172 O 0.16652 0.37937 0.63471 0.0
O173 O 0.19454 0.40051 0.65137 0.0
C174 C 0.18522 0.37879 0.64606 0.0
C175 C 0.21192 0.47415 0.66458 0.0
C176 C 0.19752 0.44343 0.6024 0.0
C177 C 0.13176 0.45865 0.64212 0.0
O178 O 0.1503 0.47426 0.64026 0.0
O179 O 0.13566 0.43448 0.64137 0.0
O180 O 0.207 0.4922 0.6531 0.0
O181 O 0.20502 0.45098 0.66056 0.0
O182 O 0.82426 0.59683 0.60947 0.0
Cd183 Cd 0.83723 0.60364 0.63535 0.0
Cd184 Cd 0.81941 0.55558 0.63926 0.0
O185 O 0.80421 0.55997 0.61364 0.0
O186 O 0.84091 0.64194 0.63646 0.0
O187 O 0.81274 0.62042 0.65277 0.0
C188 C 0.82207 0.64226 0.6477 0.0
C189 C 0.79614 0.5456 0.66513 0.0
C190 C 0.81043 0.57863 0.60343 0.0
C191 C 0.87615 0.56287 0.64302 0.0
O192 O 0.85781 0.54711 0.64084 0.0
O193 O 0.87194 0.58701 0.64269 0.0
O194 O 0.80112 0.52827 0.65314 0.0
O195 O 0.80302 0.56901 0.6618 0.0
O196 O 0.1834 0.59678 0.9035 0.0
Cd197 Cd 0.17031 0.60364 0.87765 0.0
Cd198 Cd 0.18798 0.55553 0.87369 0.0
O199 O 0.20326 0.55983 0.8993 0.0
O200 O 0.1667 0.64195 0.87657 0.0
O201 O 0.19472 0.6204 0.86016 0.0
C202 C 0.18546 0.64225 0.86526 0.0
C203 C 0.21118 0.54546 0.84781 0.0
C204 C 0.19716 0.57851 0.90952 0.0
C205 C 0.13125 0.56299 0.87005 0.0
O206 O 0.14956 0.54718 0.87216 0.0
O207 O 0.13552 0.58712 0.87041 0.0
O208 O 0.20615 0.52816 0.85981 0.0
O209 O 0.20438 0.56889 0.85113 0.0
O210 O 0.82323 0.42563 0.90479 0.0
Cd211 Cd 0.83681 0.4183 0.87912 0.0
Cd212 Cd 0.81852 0.46633 0.87462 0.0
O213 O 0.80333 0.46252 0.9003 0.0
O214 O 0.84071 0.37997 0.87841 0.0
O215 O 0.8128 0.40105 0.86161 0.0
C216 C 0.82213 0.37935 0.86696 0.0
C217 C 0.79533 0.47472 0.84846 0.0
C218 C 0.80941 0.44397 0.91065 0.0
C219 C 0.87541 0.45928 0.87112 0.0
O220 O 0.85686 0.47489 0.87292 0.0
O221 O 0.87149 0.4351 0.87186 0.0
O222 O 0.80019 0.49278 0.85993 0.0
O223 O 0.80225 0.45156 0.85252 0.0
C224 C 0.29461 0.05358 0.43782 0.0
C225 C 0.30202 0.07642 0.42905 0.0
C226 C 0.29121 0.05314 0.4566 0.0
C227 C 0.31375 0.08818 0.49669 0.0
H228 H 0.26136 0.05054 0.52269 0.0
C229 C 0.30455 0.09925 0.57287 0.0
C230 C 0.30193 0.07669 0.58316 0.0
C231 C 0.30106 0.09879 0.55422 0.0
C232 C 0.27621 0.06097 0.51559 0.0
H233 H 0.30979 0.11705 0.43296 0.0
H234 H 0.30346 0.11635 0.46541 0.0
H235 H 0.26139 0.05046 0.48956 0.0
H236 H 0.29221 0.03617 0.582 0.0
H237 H 0.28643 0.03527 0.54919 0.0
H238 H 0.32883 0.09852 0.52243 0.0
C239 C 0.30097 0.09862 0.45794 0.0
C240 C 0.27622 0.06093 0.49664 0.0
C241 C 0.30448 0.09903 0.43929 0.0
C242 C 0.29439 0.05388 0.57444 0.0
C243 C 0.29102 0.05337 0.55566 0.0
C244 C 0.31375 0.08821 0.51549 0.0
C245 C 0.2951 0.07554 0.46692 0.0
C246 C 0.29486 0.07481 0.487 0.0
C247 C 0.29506 0.0757 0.54529 0.0
C248 C 0.29484 0.07489 0.52521 0.0
H249 H 0.29255 0.03583 0.4303 0.0
H250 H 0.28671 0.03504 0.46311 0.0
H251 H 0.32883 0.09846 0.48972 0.0
H252 H 0.30996 0.11726 0.57917 0.0
H253 H 0.30365 0.11648 0.54671 0.0
C254 C 0.7021 0.92089 0.57383 0.0
C255 C 0.70483 0.94354 0.584 0.0
C256 C 0.70557 0.92115 0.55518 0.0
C257 C 0.73071 0.95825 0.51634 0.0
H258 H 0.67748 0.92133 0.49072 0.0
C259 C 0.7126 0.96533 0.43858 0.0
C260 C 0.7046 0.94265 0.42988 0.0
C261 C 0.71598 0.9658 0.45736 0.0
C262 C 0.69274 0.93143 0.49761 0.0
H263 H 0.71474 0.98401 0.58261 0.0
H264 H 0.72053 0.98453 0.54979 0.0
H265 H 0.67758 0.92154 0.52343 0.0
H266 H 0.69574 0.90227 0.43391 0.0
H267 H 0.70209 0.90298 0.46637 0.0
H268 H 0.74566 0.96828 0.49026 0.0
C269 C 0.71584 0.96652 0.55637 0.0
C270 C 0.69278 0.93156 0.51641 0.0
C271 C 0.71247 0.96624 0.57515 0.0
C272 C 0.70152 0.92017 0.44019 0.0
C273 C 0.70503 0.92061 0.45884 0.0
C274 C 0.73068 0.95811 0.4974 0.0
C275 C 0.71168 0.94411 0.54613 0.0
C276 C 0.71189 0.94471 0.52605 0.0
C277 C 0.71151 0.94358 0.46775 0.0
C278 C 0.71181 0.94443 0.48783 0.0
H279 H 0.6966 0.90297 0.58022 0.0
H280 H 0.70286 0.9034 0.54776 0.0
H281 H 0.74571 0.96854 0.52338 0.0
H282 H 0.71513 0.98297 0.43101 0.0
H283 H 0.72094 0.98382 0.46381 0.0
C284 C 0.30588 0.91902 0.07294 0.0
C285 C 0.30245 0.94149 0.0832 0.0
C286 C 0.30246 0.91934 0.05429 0.0
C287 C 0.27639 0.95618 0.01559 0.0
H288 H 0.33036 0.9206 0.98979 0.0
C289 C 0.29452 0.9643 0.93785 0.0
C290 C 0.30282 0.94179 0.92907 0.0
C291 C 0.29113 0.96458 0.95664 0.0
C292 C 0.31491 0.93033 0.99674 0.0
H293 H 0.29138 0.98166 0.08196 0.0
H294 H 0.2857 0.9823 0.04915 0.0
H295 H 0.33028 0.92053 0.0225 0.0
H296 H 0.3122 0.9015 0.93295 0.0
H297 H 0.30586 0.90189 0.96541 0.0
H298 H 0.26125 0.96615 0.98955 0.0
C299 C 0.29088 0.96438 0.05565 0.0
C300 C 0.31486 0.93029 0.01554 0.0
C301 C 0.29419 0.96403 0.07444 0.0
C302 C 0.30619 0.91928 0.9393 0.0
C303 C 0.30268 0.91952 0.95795 0.0
C304 C 0.27643 0.95622 0.99665 0.0
C305 C 0.2957 0.94218 0.04532 0.0
C306 C 0.29549 0.94294 0.02524 0.0
C307 C 0.29589 0.94234 0.96694 0.0
C308 C 0.29558 0.94302 0.98702 0.0
H309 H 0.31187 0.90122 0.07927 0.0
H310 H 0.30568 0.90173 0.0468 0.0
H311 H 0.26117 0.96608 0.02267 0.0
H312 H 0.29175 0.98197 0.93035 0.0
H313 H 0.28592 0.98247 0.96315 0.0
C314 C 0.70147 0.10043 0.94018 0.0
C315 C 0.70436 0.07793 0.92987 0.0
C316 C 0.70492 0.09994 0.95884 0.0
C317 C 0.73014 0.06222 0.99741 0.0
H318 H 0.67721 0.09914 0.02336 0.0
C319 C 0.7118 0.05426 0.07516 0.0
C320 C 0.70425 0.077 0.08398 0.0
C321 C 0.71518 0.05394 0.05637 0.0
C322 C 0.69237 0.08901 0.01637 0.0
H323 H 0.71448 0.0375 0.931 0.0
H324 H 0.72018 0.03657 0.96381 0.0
H325 H 0.6772 0.09936 0.99066 0.0
H326 H 0.69619 0.1176 0.08017 0.0
H327 H 0.70248 0.11711 0.04771 0.0
H328 H 0.74504 0.0517 0.02342 0.0
C329 C 0.71542 0.05464 0.95736 0.0
C330 C 0.69237 0.08915 0.99757 0.0
C331 C 0.71209 0.05516 0.93857 0.0
C332 C 0.70162 0.09965 0.0738 0.0
C333 C 0.7051 0.09936 0.05514 0.0
C334 C 0.73013 0.06208 0.01636 0.0
C335 C 0.71114 0.0769 0.96774 0.0
C336 C 0.71138 0.07603 0.98782 0.0
C337 C 0.71113 0.07636 0.04612 0.0
C338 C 0.71137 0.07575 0.02603 0.0
H339 H 0.6959 0.1184 0.9339 0.0
H340 H 0.70214 0.11759 0.96636 0.0
H341 H 0.74507 0.05195 0.9903 0.0
H342 H 0.71399 0.03649 0.08263 0.0
H343 H 0.7198 0.03591 0.04982 0.0
C344 C 0.79508 0.55619 0.57528 0.0
C345 C 0.80328 0.57873 0.58406 0.0
C346 C 0.79175 0.55588 0.55649 0.0
C347 C 0.81557 0.59007 0.51638 0.0
H348 H 0.7618 0.55439 0.49045 0.0
C349 C 0.80652 0.60144 0.44017 0.0
C350 C 0.80298 0.57899 0.42991 0.0
C351 C 0.80315 0.6011 0.45884 0.0
C352 C 0.77703 0.56427 0.49753 0.0
H353 H 0.8126 0.61904 0.58015 0.0
H354 H 0.8064 0.61858 0.54768 0.0
H355 H 0.76187 0.55431 0.52357 0.0
H356 H 0.79179 0.53885 0.43114 0.0
H357 H 0.78621 0.53818 0.46396 0.0
H358 H 0.83096 0.59985 0.49062 0.0
C359 C 0.80322 0.60095 0.55516 0.0
C360 C 0.77707 0.56422 0.51647 0.0
C361 C 0.80665 0.60124 0.57381 0.0
C362 C 0.79468 0.55647 0.43867 0.0
C363 C 0.79143 0.5561 0.45747 0.0
C364 C 0.81553 0.59011 0.49758 0.0
C365 C 0.7965 0.57811 0.54618 0.0
C366 C 0.79622 0.5774 0.5261 0.0
C367 C 0.79635 0.57827 0.4678 0.0
C368 C 0.79614 0.57748 0.48788 0.0
H369 H 0.79232 0.53853 0.58279 0.0
H370 H 0.7866 0.53796 0.54998 0.0
H371 H 0.83102 0.59979 0.52333 0.0
H372 H 0.81254 0.61923 0.43385 0.0
H373 H 0.80644 0.61869 0.46633 0.0
C374 C 0.20189 0.4211 0.57274 0.0
C375 C 0.20473 0.44361 0.58304 0.0
C376 C 0.20531 0.42157 0.55409 0.0
C377 C 0.23035 0.45921 0.51543 0.0
H378 H 0.17737 0.42217 0.48963 0.0
C379 C 0.21201 0.46661 0.43765 0.0
C380 C 0.20444 0.44381 0.42892 0.0
C381 C 0.21538 0.46708 0.45643 0.0
C382 C 0.19254 0.43233 0.49658 0.0
H383 H 0.21475 0.48407 0.58188 0.0
H384 H 0.2204 0.48498 0.54906 0.0
H385 H 0.17742 0.42213 0.52234 0.0
H386 H 0.19634 0.40325 0.43289 0.0
H387 H 0.20261 0.404 0.46535 0.0
H388 H 0.24523 0.46957 0.48939 0.0
C389 C 0.21569 0.4669 0.55553 0.0
C390 C 0.19257 0.43231 0.51538 0.0
C391 C 0.2124 0.46639 0.57432 0.0
C392 C 0.20178 0.42125 0.43919 0.0
C393 C 0.20526 0.42169 0.45784 0.0
C394 C 0.23032 0.45925 0.49649 0.0
C395 C 0.21144 0.44462 0.54516 0.0
C396 C 0.21161 0.44546 0.52508 0.0
C397 C 0.2113 0.44475 0.46678 0.0
C398 C 0.21154 0.44552 0.48686 0.0
H399 H 0.19638 0.40312 0.57904 0.0
H400 H 0.20254 0.40391 0.54658 0.0
H401 H 0.2453 0.46951 0.52251 0.0
H402 H 0.21422 0.48433 0.43011 0.0
H403 H 0.22002 0.48516 0.46292 0.0
C404 C 0.79449 0.46688 0.93872 0.0
C405 C 0.80207 0.4441 0.92998 0.0
C406 C 0.79111 0.46733 0.95751 0.0
C407 C 0.81383 0.43241 0.99765 0.0
H408 H 0.76138 0.47003 0.02359 0.0
C409 C 0.80446 0.42138 0.07383 0.0
C410 C 0.80196 0.44397 0.08409 0.0
C411 C 0.80097 0.42184 0.05518 0.0
C412 C 0.77624 0.4596 0.01651 0.0
H413 H 0.81016 0.40353 0.93392 0.0
H414 H 0.80382 0.40422 0.96637 0.0
H415 H 0.76141 0.47004 0.99047 0.0
H416 H 0.79244 0.48455 0.08289 0.0
H417 H 0.78665 0.48541 0.05008 0.0
H418 H 0.82889 0.42212 0.02341 0.0
C419 C 0.80121 0.42193 0.95889 0.0
C420 C 0.77625 0.45961 0.99756 0.0
C421 C 0.80472 0.42152 0.94024 0.0
C422 C 0.79453 0.46682 0.07535 0.0
C423 C 0.79116 0.4673 0.05657 0.0
C424 C 0.8138 0.4324 0.01645 0.0
C425 C 0.79517 0.44498 0.96785 0.0
C426 C 0.79492 0.44574 0.98793 0.0
C427 C 0.79509 0.44494 0.04623 0.0
C428 C 0.79488 0.44572 0.02615 0.0
H429 H 0.79229 0.48461 0.93119 0.0
H430 H 0.78648 0.48541 0.964 0.0
H431 H 0.82893 0.42214 0.9907 0.0
H432 H 0.80978 0.40336 0.08014 0.0
H433 H 0.8035 0.40413 0.04768 0.0
C434 C 0.20087 0.60091 0.07278 0.0
C435 C 0.20418 0.57839 0.08301 0.0
C436 C 0.20435 0.60064 0.05412 0.0
C437 C 0.23034 0.56374 0.01542 0.0
H438 H 0.17676 0.59983 0.98957 0.0
C439 C 0.21237 0.55594 0.93765 0.0
C440 C 0.20436 0.57856 0.92887 0.0
C441 C 0.21569 0.55559 0.95644 0.0
C442 C 0.1921 0.58995 0.99653 0.0
H443 H 0.21507 0.53817 0.08173 0.0
H444 H 0.22082 0.53761 0.04892 0.0
H445 H 0.1767 0.59979 0.02228 0.0
H446 H 0.19541 0.61895 0.93277 0.0
H447 H 0.20161 0.61842 0.96524 0.0
H448 H 0.24549 0.55371 0.98939 0.0
C449 C 0.2157 0.55554 0.05544 0.0
C450 C 0.19207 0.58993 0.01533 0.0
C451 C 0.21236 0.55584 0.07423 0.0
C452 C 0.2012 0.60109 0.93911 0.0
C453 C 0.20463 0.60076 0.95777 0.0
C454 C 0.23037 0.56375 0.99648 0.0
C455 C 0.21102 0.57779 0.04513 0.0
C456 C 0.21131 0.5771 0.02505 0.0
C457 C 0.21114 0.57786 0.96675 0.0
C458 C 0.21137 0.57712 0.98683 0.0
H459 H 0.19495 0.61872 0.07913 0.0
H460 H 0.20123 0.61829 0.04666 0.0
H461 H 0.24545 0.55369 0.02251 0.0
H462 H 0.21497 0.53826 0.93014 0.0
H463 H 0.22068 0.53762 0.96296 0.0
C464 C 0.5839 0.95292 0.36802 0.0
C465 C 0.60537 0.96919 0.36871 0.0
C466 C 0.5592 0.96325 0.36677 0.0
C467 C 0.52317 0.02307 0.3761 0.0
H468 H 0.47095 0.99175 0.34618 0.0
C469 C 0.42319 0.06916 0.3673 0.0
C470 C 0.40216 0.05233 0.36804 0.0
C471 C 0.44816 0.0595 0.36612 0.0
C472 C 0.48526 1.00062 0.35472 0.0
H473 H 0.61762 1.00912 0.36813 0.0
H474 H 0.57479 0.02694 0.36579 0.0
H475 H 0.514 0.9736 0.3466 0.0
H476 H 0.391 0.01207 0.36777 0.0
H477 H 0.43431 0.99538 0.36591 0.0
H478 H 0.49444 0.04992 0.38437 0.0
C479 C 0.57694 1.00624 0.36652 0.0
C480 C 0.50994 0.99018 0.35497 0.0
C481 C 0.60156 0.99596 0.36776 0.0
C482 C 0.40669 0.02566 0.36722 0.0
C483 C 0.43158 0.01604 0.36603 0.0
C484 C 0.49851 0.03349 0.37586 0.0
C485 C 0.55542 0.99006 0.36621 0.0
C486 C 0.52918 1.00124 0.36571 0.0
C487 C 0.45266 0.0328 0.36561 0.0
C488 C 0.4792 0.02234 0.36523 0.0
H489 H 0.58612 0.93223 0.36875 0.0
H490 H 0.54302 0.95023 0.36671 0.0
H491 H 0.5374 0.03183 0.38476 0.0
H492 H 0.42041 0.0898 0.36785 0.0
H493 H 0.46394 0.07297 0.3656 0.0
C494 C 0.42288 0.95242 0.1452 0.0
C495 C 0.40137 0.96864 0.14447 0.0
C496 C 0.44756 0.96281 0.14645 0.0
C497 C 0.48345 0.02271 0.13706 0.0
H498 H 0.53574 0.99155 0.16701 0.0
C499 C 0.58329 0.06908 0.14587 0.0
C500 C 0.60436 0.0523 0.14511 0.0
C501 C 0.55835 0.05935 0.14706 0.0
C502 C 0.5214 1.00037 0.15846 0.0
H503 H 0.38903 1.00853 0.14497 0.0
H504 H 0.43181 0.02647 0.14732 0.0
H505 H 0.49273 0.97329 0.1666 0.0
H506 H 0.61564 0.01208 0.14536 0.0
H507 H 0.57237 0.99527 0.14725 0.0
H508 H 0.51211 0.04963 0.12878 0.0
C509 C 0.42971 1.00576 0.14661 0.0
C510 C 0.49675 0.98987 0.15822 0.0
C511 C 0.40512 0.99542 0.14537 0.0
C512 C 0.59991 0.02562 0.14593 0.0
C513 C 0.57504 0.01593 0.14713 0.0
C514 C 0.50807 0.03319 0.1373 0.0
C515 C 0.45127 0.98963 0.14697 0.0
C516 C 0.47748 1.00087 0.14747 0.0
C517 C 0.55392 0.03263 0.14756 0.0
C518 C 0.52741 0.0221 0.14794 0.0
H519 H 0.42071 0.93172 0.14451 0.0
H520 H 0.46376 0.94983 0.14654 0.0
H521 H 0.4692 0.03143 0.12839 0.0
H522 H 0.58601 0.08972 0.14532 0.0
H523 H 0.54252 0.07277 0.14758 0.0
C524 C 0.60035 0.99515 0.64556 0.0
C525 C 0.60483 0.96847 0.64496 0.0
C526 C 0.57547 1.00483 0.64673 0.0
C527 C 0.50846 0.98726 0.63726 0.0
H528 H 0.49316 0.04767 0.66604 0.0
C529 C 0.40544 0.02467 0.64555 0.0
C530 C 0.40153 0.05141 0.64435 0.0
C531 C 0.4301 0.0145 0.64677 0.0
C532 C 0.49718 0.03094 0.6578 0.0
H533 H 0.58653 0.93103 0.64552 0.0
H534 H 0.54304 0.94795 0.64775 0.0
H535 H 0.53624 0.02955 0.66645 0.0
H536 H 0.42066 0.08843 0.64385 0.0
H537 H 0.46384 0.07061 0.64585 0.0
H538 H 0.4695 0.98872 0.62851 0.0
C539 C 0.55884 0.96139 0.64706 0.0
C540 C 0.52186 0.02052 0.65805 0.0
C541 C 0.58379 0.95168 0.6459 0.0
C542 C 0.42295 0.06776 0.64478 0.0
C543 C 0.44771 0.05754 0.646 0.0
C544 C 0.48379 0.99765 0.63703 0.0
C545 C 0.55437 0.98811 0.64735 0.0
C546 C 0.52785 0.9986 0.64771 0.0
C547 C 0.45157 0.03076 0.6468 0.0
C548 C 0.47784 0.01966 0.64726 0.0
H549 H 0.61605 1.0087 0.64484 0.0
H550 H 0.57277 0.02549 0.64668 0.0
H551 H 0.51247 0.97067 0.62888 0.0
H552 H 0.38943 0.01146 0.64539 0.0
H553 H 0.43233 0.99383 0.64769 0.0
C554 C 0.60049 0.02637 0.86777 0.0
C555 C 0.6049 0.05307 0.86851 0.0
C556 C 0.57566 0.01664 0.86644 0.0
C557 C 0.50853 0.03388 0.87576 0.0
H558 H 0.49366 0.97383 0.84651 0.0
C559 C 0.40572 0.99598 0.8671 0.0
C560 C 0.40199 0.9692 0.86806 0.0
C561 C 0.43032 1.00634 0.86598 0.0
C562 C 0.49755 0.99046 0.85488 0.0
H563 H 0.5865 0.09046 0.86805 0.0
H564 H 0.54308 0.07344 0.86557 0.0
H565 H 0.53666 0.99211 0.84636 0.0
H566 H 0.42137 0.9323 0.86822 0.0
H567 H 0.46443 0.95044 0.8664 0.0
H568 H 0.46953 0.03214 0.88439 0.0
C569 C 0.55891 0.06004 0.86626 0.0
C570 C 0.5222 1.00097 0.85478 0.0
C571 C 0.58382 0.06981 0.86756 0.0
C572 C 0.42353 0.953 0.86748 0.0
C573 C 0.44821 0.9634 0.86636 0.0
C574 C 0.48391 0.02338 0.87585 0.0
C575 C 0.55452 0.03332 0.86582 0.0
C576 C 0.52803 0.02275 0.86529 0.0
C577 C 0.4519 0.99023 0.8658 0.0
C578 C 0.47811 1.00149 0.86546 0.0
H579 H 0.61623 0.01286 0.86848 0.0
H580 H 0.57301 0.99598 0.86638 0.0
H581 H 0.51243 0.05036 0.88426 0.0
H582 H 0.38962 1.00908 0.86739 0.0
H583 H 0.43241 0.02704 0.86524 0.0
C584 C 0.90533 0.52501 0.36753 0.0
C585 C 0.90161 0.5518 0.36843 0.0
C586 C 0.92991 0.51465 0.36625 0.0
C587 C 0.99695 0.53045 0.35457 0.0
H588 H 0.01231 0.47077 0.38408 0.0
C589 C 0.1001 0.49474 0.36687 0.0
C590 C 0.10456 0.46806 0.36774 0.0
C591 C 0.07524 0.50442 0.36565 0.0
C592 C 0.00827 0.48718 0.37554 0.0
H593 H 0.92098 0.58869 0.36833 0.0
H594 H 0.96401 0.57054 0.36625 0.0
H595 H 0.96941 0.48898 0.38447 0.0
H596 H 0.08622 0.43064 0.36762 0.0
H597 H 0.04273 0.44757 0.36532 0.0
H598 H 0.03592 0.52873 0.34575 0.0
C599 C 0.9478 0.55758 0.36637 0.0
C600 C 0.98365 0.49767 0.37578 0.0
C601 C 0.92313 0.56799 0.36764 0.0
C602 C 0.08349 0.45128 0.36702 0.0
C603 C 0.05855 0.461 0.36582 0.0
C604 C 0.0216 0.51993 0.35432 0.0
C605 C 0.95148 0.53075 0.36586 0.0
C606 C 0.97768 0.51949 0.36535 0.0
C607 C 0.05411 0.48771 0.36526 0.0
C608 C 0.0276 0.49824 0.36487 0.0
H609 H 0.88923 0.51191 0.36797 0.0
H610 H 0.93199 0.49394 0.36556 0.0
H611 H 0.99292 0.54701 0.34617 0.0
H612 H 0.11583 0.50828 0.3674 0.0
H613 H 0.07256 0.52508 0.36549 0.0
C614 C 0.08371 0.56747 0.14509 0.0
C615 C 0.1052 0.55123 0.14429 0.0
C616 C 0.05902 0.55712 0.14635 0.0
C617 C 0.02301 0.49732 0.13692 0.0
H618 H 0.97088 0.52843 0.16704 0.0
C619 C 0.92309 0.45112 0.14579 0.0
C620 C 0.90205 0.46795 0.14512 0.0
C621 C 0.94805 0.46078 0.14696 0.0
C622 C 0.98516 0.51962 0.15844 0.0
H623 H 0.11749 0.51132 0.1447 0.0
H624 H 0.07468 0.49343 0.14708 0.0
H625 H 0.01392 0.54661 0.16658 0.0
H626 H 0.89087 0.5082 0.1455 0.0
H627 H 0.93418 0.5249 0.14735 0.0
H628 H 0.99427 0.4705 0.12863 0.0
C629 C 0.07681 0.51414 0.14641 0.0
C630 C 0.00983 0.53007 0.15817 0.0
C631 C 0.10142 0.52445 0.14515 0.0
C632 C 0.90657 0.49462 0.146 0.0
C633 C 0.93146 0.50424 0.14718 0.0
C634 C 0.99836 0.48688 0.13718 0.0
C635 C 0.05527 0.5303 0.14683 0.0
C636 C 0.02905 0.51909 0.14736 0.0
C637 C 0.95255 0.48749 0.14752 0.0
C638 C 0.97908 0.49796 0.14788 0.0
H639 H 0.0859 0.58817 0.14442 0.0
H640 H 0.04283 0.57012 0.1465 0.0
H641 H 0.03721 0.48861 0.1282 0.0
H642 H 0.92032 0.43049 0.14519 0.0
H643 H 0.96385 0.44732 0.14742 0.0
C644 C 0.92365 0.56945 0.6464 0.0
C645 C 0.90253 0.55277 0.64529 0.0
C646 C 0.94854 0.55961 0.64758 0.0
C647 C 0.98523 0.5002 0.65827 0.0
H648 H 0.03782 0.53216 0.62899 0.0
C649 C 0.08405 0.45278 0.64488 0.0
C650 C 0.10552 0.46907 0.64452 0.0
C651 C 0.05932 0.46306 0.64616 0.0
C652 C 0.02346 0.52318 0.63744 0.0
H653 H 0.89113 0.51259 0.64489 0.0
H654 H 0.93433 0.49558 0.64675 0.0
H655 H 0.99491 0.55036 0.62939 0.0
H656 H 0.11775 0.50897 0.64575 0.0
H657 H 0.0749 0.52671 0.64815 0.0
H658 H 0.01381 0.47286 0.66616 0.0
C659 C 0.93172 0.51625 0.64693 0.0
C660 C 0.99884 0.53365 0.63768 0.0
C661 C 0.9069 0.52606 0.64574 0.0
C662 C 0.10169 0.4958 0.64586 0.0
C663 C 0.07706 0.50604 0.64712 0.0
C664 C 0.00989 0.4897 0.65801 0.0
C665 C 0.95289 0.53287 0.6477 0.0
C666 C 0.97937 0.52226 0.64805 0.0
C667 C 0.05554 0.48985 0.64708 0.0
C668 C 0.0293 0.50103 0.64756 0.0
H669 H 0.921 0.59011 0.64615 0.0
H670 H 0.9644 0.57297 0.64839 0.0
H671 H 0.97079 0.49112 0.66659 0.0
H672 H 0.08628 0.43211 0.64386 0.0
H673 H 0.04315 0.45005 0.64594 0.0
C674 C 0.08374 0.5697 0.86681 0.0
C675 C 0.10482 0.55296 0.86784 0.0
C676 C 0.05882 0.55992 0.86568 0.0
C677 C 0.02196 0.50065 0.85494 0.0
H678 H 0.96955 0.53257 0.88439 0.0
C679 C 0.92312 0.45335 0.86836 0.0
C680 C 0.90167 0.46968 0.86877 0.0
C681 C 0.94785 0.4636 0.8671 0.0
C682 C 0.98386 0.5236 0.8759 0.0
H683 H 0.11614 0.51276 0.86813 0.0
H684 H 0.07289 0.49586 0.86634 0.0
H685 H 0.01249 0.55068 0.88395 0.0
H686 H 0.8895 0.5096 0.86765 0.0
H687 H 0.93238 0.52729 0.86528 0.0
H688 H 0.9933 0.47341 0.84704 0.0
C689 C 0.07555 0.51652 0.8662 0.0
C690 C 0.0085 0.53403 0.87562 0.0
C691 C 0.1004 0.52626 0.86735 0.0
C692 C 0.90554 0.49641 0.86751 0.0
C693 C 0.93018 0.50661 0.86626 0.0
C694 C 0.99728 0.4902 0.85522 0.0
C695 C 0.05441 0.5332 0.86551 0.0
C696 C 0.02791 0.52265 0.8652 0.0
C697 C 0.95168 0.49039 0.86624 0.0
C698 C 0.97794 0.50152 0.86574 0.0
H699 H 0.08644 0.59036 0.8671 0.0
H700 H 0.04299 0.57332 0.86493 0.0
H701 H 0.03635 0.49159 0.84656 0.0
H702 H 0.92085 0.43268 0.86933 0.0
H703 H 0.96401 0.45056 0.86727 0.0
C704 C 0.21796 0.35331 0.34866 0.0
C705 C 0.19696 0.35394 0.3605 0.0
C706 C 0.23096 0.33021 0.34534 0.0
C707 C 0.2266 0.25889 0.35151 0.0
H708 H 0.30064 0.26282 0.35151 0.0
C709 C 0.31789 0.18943 0.36849 0.0
C710 C 0.30962 0.16629 0.36061 0.0
C711 C 0.30485 0.21245 0.36522 0.0
C712 C 0.27998 0.26133 0.35153 0.0
H713 H 0.17261 0.33058 0.37763 0.0
H714 H 0.1954 0.29062 0.37214 0.0
H715 H 0.27554 0.30223 0.35202 0.0
H716 H 0.28183 0.14944 0.3424 0.0
H717 H 0.25938 0.18974 0.33636 0.0
H718 H 0.23104 0.21799 0.35202 0.0
C719 C 0.2017 0.30778 0.36514 0.0
C720 C 0.26554 0.284 0.35157 0.0
C721 C 0.18866 0.3308 0.36839 0.0
C722 C 0.28864 0.16691 0.34875 0.0
C723 C 0.27564 0.19 0.34541 0.0
C724 C 0.24105 0.23622 0.35157 0.0
C725 C 0.22333 0.30722 0.35384 0.0
C726 C 0.23863 0.2831 0.3519 0.0
C727 C 0.28325 0.213 0.3539 0.0
C728 C 0.26795 0.23711 0.35192 0.0
H729 H 0.2248 0.37078 0.34231 0.0
H730 H 0.24725 0.33047 0.33631 0.0
H731 H 0.20594 0.2574 0.35147 0.0
H732 H 0.33392 0.18967 0.37775 0.0
H733 H 0.31113 0.22962 0.37221 0.0
C734 C 0.68859 0.83092 0.36871 0.0
C735 C 0.69682 0.85415 0.36092 0.0
C736 C 0.70171 0.80796 0.36538 0.0
C737 C 0.76563 0.78451 0.35162 0.0
H738 H 0.73141 0.71836 0.35225 0.0
C739 C 0.78911 0.66745 0.349 0.0
C740 C 0.81027 0.66701 0.36071 0.0
C741 C 0.77601 0.69047 0.34562 0.0
C742 C 0.74135 0.73663 0.35174 0.0
H743 H 0.7246 0.87122 0.3428 0.0
H744 H 0.74716 0.83103 0.33662 0.0
H745 H 0.70616 0.75764 0.35174 0.0
H746 H 0.83476 0.69064 0.37754 0.0
H747 H 0.81178 0.73046 0.37197 0.0
H748 H 0.80082 0.76349 0.35141 0.0
C749 C 0.73089 0.83065 0.34566 0.0
C750 C 0.72681 0.75923 0.35171 0.0
C751 C 0.71782 0.85368 0.34908 0.0
C752 C 0.8186 0.69026 0.36839 0.0
C753 C 0.80545 0.71321 0.36511 0.0
C754 C 0.78017 0.7619 0.35153 0.0
C755 C 0.72334 0.80756 0.35407 0.0
C756 C 0.73873 0.78351 0.35205 0.0
C757 C 0.78367 0.71359 0.35394 0.0
C758 C 0.76825 0.73763 0.35199 0.0
H759 H 0.67255 0.83057 0.37796 0.0
H760 H 0.69547 0.79074 0.37232 0.0
H761 H 0.77557 0.80278 0.35203 0.0
H762 H 0.78224 0.64989 0.3428 0.0
H763 H 0.75962 0.69006 0.3367 0.0
C764 C 0.21762 0.66678 0.16401 0.0
C765 C 0.19655 0.66635 0.15222 0.0
C766 C 0.2307 0.6898 0.16743 0.0
C767 C 0.22661 0.76123 0.1615 0.0
H768 H 0.30062 0.75694 0.16158 0.0
C769 C 0.31834 0.83021 0.14463 0.0
C770 C 0.31005 0.85345 0.15236 0.0
C771 C 0.3052 0.80725 0.14793 0.0
C772 C 0.27997 0.75854 0.16153 0.0
H773 H 0.1722 0.69 0.13529 0.0
H774 H 0.19515 0.72981 0.14094 0.0
H775 H 0.27536 0.71767 0.16098 0.0
H776 H 0.28212 0.87054 0.17036 0.0
H777 H 0.25952 0.83036 0.17649 0.0
H778 H 0.23123 0.80211 0.161 0.0
C779 C 0.20142 0.71256 0.14783 0.0
C780 C 0.26542 0.73594 0.16145 0.0
C781 C 0.18828 0.68961 0.1445 0.0
C782 C 0.28896 0.85299 0.16413 0.0
C783 C 0.27587 0.82996 0.16752 0.0
C784 C 0.24116 0.78384 0.16146 0.0
C785 C 0.22311 0.71292 0.15908 0.0
C786 C 0.23852 0.73696 0.16109 0.0
C787 C 0.28348 0.80687 0.15915 0.0
C788 C 0.26806 0.78282 0.16113 0.0
H789 H 0.22443 0.64922 0.17024 0.0
H790 H 0.24702 0.68938 0.17642 0.0
H791 H 0.20596 0.76283 0.16153 0.0
H792 H 0.33444 0.82984 0.13544 0.0
H793 H 0.31149 0.79002 0.14103 0.0
C794 C 0.71772 0.16705 0.16441 0.0
C795 C 0.6967 0.16645 0.15259 0.0
C796 C 0.73074 0.19013 0.16775 0.0
C797 C 0.72642 0.26147 0.16164 0.0
H798 H 0.80045 0.25748 0.16157 0.0
C799 C 0.81773 0.33087 0.14461 0.0
C800 C 0.80949 0.35402 0.15251 0.0
C801 C 0.80468 0.30786 0.14788 0.0
C802 C 0.77979 0.25899 0.16157 0.0
H803 H 0.67235 0.18986 0.1355 0.0
H804 H 0.69516 0.2298 0.14102 0.0
H805 H 0.77532 0.2181 0.16106 0.0
H806 H 0.78172 0.37087 0.17075 0.0
H807 H 0.75925 0.33059 0.17679 0.0
H808 H 0.73088 0.30237 0.16114 0.0
C809 C 0.70146 0.21263 0.14799 0.0
C810 C 0.76533 0.23633 0.16153 0.0
C811 C 0.68841 0.18961 0.14474 0.0
C812 C 0.78852 0.3534 0.16439 0.0
C813 C 0.77551 0.33032 0.16773 0.0
C814 C 0.74088 0.28413 0.16157 0.0
C815 C 0.7231 0.21315 0.15928 0.0
C816 C 0.73843 0.23725 0.16123 0.0
C817 C 0.78309 0.30732 0.15923 0.0
C818 C 0.76778 0.28322 0.1612 0.0
H819 H 0.72456 0.14957 0.17074 0.0
H820 H 0.74703 0.18985 0.17676 0.0
H821 H 0.70576 0.26298 0.1617 0.0
H822 H 0.83375 0.33064 0.13534 0.0
H823 H 0.81094 0.29069 0.14088 0.0
C824 C 0.68892 0.83112 0.64485 0.0
C825 C 0.69704 0.85427 0.6528 0.0
C826 C 0.70194 0.80811 0.6482 0.0
C827 C 0.72672 0.75924 0.66194 0.0
H828 H 0.80073 0.76337 0.66274 0.0
C829 C 0.78889 0.66736 0.66485 0.0
C830 C 0.81015 0.66695 0.65322 0.0
C831 C 0.77577 0.69038 0.6682 0.0
C832 C 0.78008 0.76182 0.66249 0.0
H833 H 0.72453 0.87113 0.67123 0.0
H834 H 0.74693 0.83086 0.67742 0.0
H835 H 0.77555 0.8027 0.66207 0.0
H836 H 0.83481 0.69063 0.63654 0.0
H837 H 0.81182 0.73045 0.64208 0.0
H838 H 0.73127 0.71836 0.66133 0.0
C839 C 0.73081 0.83058 0.66825 0.0
C840 C 0.76558 0.78445 0.66237 0.0
C841 C 0.71783 0.85366 0.66482 0.0
C842 C 0.81857 0.69023 0.64561 0.0
C843 C 0.80541 0.71317 0.64888 0.0
C844 C 0.74122 0.7366 0.66195 0.0
C845 C 0.72337 0.80758 0.65969 0.0
C846 C 0.73869 0.78349 0.66175 0.0
C847 C 0.78354 0.71352 0.65996 0.0
C848 C 0.76813 0.73757 0.66189 0.0
H849 H 0.67303 0.83088 0.63546 0.0
H850 H 0.6958 0.79095 0.64114 0.0
H851 H 0.70607 0.75769 0.66176 0.0
H852 H 0.78195 0.64978 0.67099 0.0
H853 H 0.7593 0.68996 0.67705 0.0
C854 C 0.18873 0.33084 0.6436 0.0
C855 C 0.19703 0.35399 0.65147 0.0
C856 C 0.20182 0.30783 0.64681 0.0
C857 C 0.22684 0.25896 0.6604 0.0
H858 H 0.30087 0.26299 0.66034 0.0
C859 C 0.28898 0.16707 0.66331 0.0
C860 C 0.30997 0.16642 0.65146 0.0
C861 C 0.27595 0.19016 0.66661 0.0
C862 C 0.28021 0.26147 0.66033 0.0
H863 H 0.22493 0.37084 0.6696 0.0
H864 H 0.24745 0.33056 0.67555 0.0
H865 H 0.27572 0.30236 0.65981 0.0
H866 H 0.33427 0.18976 0.63429 0.0
H867 H 0.31144 0.22972 0.63973 0.0
H868 H 0.23133 0.21807 0.65993 0.0
C869 C 0.23113 0.33029 0.66655 0.0
C870 C 0.26574 0.28413 0.66028 0.0
C871 C 0.21808 0.35337 0.66326 0.0
C872 C 0.31824 0.18955 0.64354 0.0
C873 C 0.30517 0.21257 0.64676 0.0
C874 C 0.24131 0.23631 0.66035 0.0
C875 C 0.22349 0.30729 0.65807 0.0
C876 C 0.23884 0.28319 0.65999 0.0
C877 C 0.28355 0.21314 0.65807 0.0
C878 C 0.26821 0.23724 0.65999 0.0
H879 H 0.17265 0.33061 0.63439 0.0
H880 H 0.19551 0.29067 0.63983 0.0
H881 H 0.20618 0.25744 0.66046 0.0
H882 H 0.28216 0.14962 0.6697 0.0
H883 H 0.25968 0.18991 0.67564 0.0
C884 C 0.68918 0.19024 0.86877 0.0
C885 C 0.69759 0.16699 0.86111 0.0
C886 C 0.70233 0.2132 0.86553 0.0
C887 C 0.72758 0.2619 0.85193 0.0
H888 H 0.8016 0.25789 0.85265 0.0
C889 C 0.78966 0.35384 0.84947 0.0
C890 C 0.81046 0.35452 0.86148 0.0
C891 C 0.77673 0.33072 0.84607 0.0
C892 C 0.78094 0.25941 0.85247 0.0
H893 H 0.72579 0.14991 0.84331 0.0
H894 H 0.74844 0.19011 0.83732 0.0
H895 H 0.77645 0.21852 0.85309 0.0
H896 H 0.83452 0.33122 0.87884 0.0
H897 H 0.81184 0.29123 0.87323 0.0
H898 H 0.73204 0.30279 0.85233 0.0
C899 C 0.73197 0.1905 0.84617 0.0
C900 C 0.76647 0.23675 0.85247 0.0
C901 C 0.71885 0.16746 0.84949 0.0
C902 C 0.81864 0.3314 0.86946 0.0
C903 C 0.80565 0.30836 0.86615 0.0
C904 C 0.74204 0.28456 0.85205 0.0
C905 C 0.72419 0.2136 0.85446 0.0
C906 C 0.73957 0.23768 0.85254 0.0
C907 C 0.78422 0.30776 0.85467 0.0
C908 C 0.76893 0.28364 0.85266 0.0
H909 H 0.67294 0.1906 0.87784 0.0
H910 H 0.69591 0.23044 0.87237 0.0
H911 H 0.70692 0.26342 0.85169 0.0
H912 H 0.78292 0.37128 0.84303 0.0
H913 H 0.7606 0.33095 0.83691 0.0
C914 C 0.18912 0.6902 0.8674 0.0
C915 C 0.19737 0.66693 0.85969 0.0
C916 C 0.20228 0.71313 0.86407 0.0
C917 C 0.22749 0.76178 0.85038 0.0
H918 H 0.3015 0.75749 0.85041 0.0
C919 C 0.28981 0.85355 0.84795 0.0
C920 C 0.31083 0.85398 0.85977 0.0
C921 C 0.27676 0.83052 0.84449 0.0
C922 C 0.28085 0.75908 0.85043 0.0
H923 H 0.22526 0.64976 0.84169 0.0
H924 H 0.2479 0.68991 0.83551 0.0
H925 H 0.27623 0.71821 0.85096 0.0
H926 H 0.33516 0.83034 0.87672 0.0
H927 H 0.31227 0.79052 0.87102 0.0
H928 H 0.2321 0.80265 0.85089 0.0
C929 C 0.23156 0.69034 0.84449 0.0
C930 C 0.2663 0.73648 0.85048 0.0
C931 C 0.21845 0.66733 0.84791 0.0
C932 C 0.31911 0.83072 0.86749 0.0
C933 C 0.306 0.80777 0.86412 0.0
C934 C 0.24204 0.78438 0.85045 0.0
C935 C 0.22398 0.71347 0.85282 0.0
C936 C 0.2394 0.7375 0.85081 0.0
C937 C 0.28434 0.8074 0.85284 0.0
C938 C 0.26893 0.78336 0.85082 0.0
H939 H 0.17302 0.6906 0.8766 0.0
H940 H 0.19601 0.73038 0.87095 0.0
H941 H 0.20684 0.76338 0.85032 0.0
H942 H 0.28299 0.87111 0.84172 0.0
H943 H 0.26046 0.83094 0.83548 0.0
C944 C 0.28055 0.05913 0.31696 0.0
C945 C 0.28531 0.03947 0.32955 0.0
C946 C 0.27458 0.05314 0.29904 0.0
C947 C 0.25699 0.99928 0.26795 0.0
H948 H 0.2951 0.03963 0.23312 0.0
C949 C 0.28291 0.96359 0.19622 0.0
C950 C 0.28443 0.98175 0.18219 0.0
C951 C 0.27717 0.97137 0.21384 0.0
C952 C 0.2839 0.02842 0.24258 0.0
H953 H 0.28612 0.99811 0.33341 0.0
H954 H 0.27616 0.98769 0.30219 0.0
H955 H 0.29539 0.05213 0.26466 0.0
H956 H 0.27937 0.02205 0.17546 0.0
H957 H 0.26908 0.03553 0.20611 0.0
H958 H 0.24631 0.97504 0.24578 0.0
C959 C 0.27671 1.00775 0.30613 0.0
C960 C 0.28404 0.03563 0.26073 0.0
C961 C 0.28255 0.01373 0.32407 0.0
C962 C 0.27854 1.00758 0.18596 0.0
C963 C 0.2728 0.01535 0.20357 0.0
C964 C 0.25693 0.99201 0.24975 0.0
C965 C 0.27337 0.02737 0.29326 0.0
C966 C 0.2709 0.02097 0.27372 0.0
C967 C 0.27283 0.99748 0.21782 0.0
C968 C 0.27067 1.00632 0.23688 0.0
H969 H 0.28234 0.07917 0.32077 0.0
H970 H 0.27159 0.06876 0.2896 0.0
H971 H 0.24637 0.98774 0.27754 0.0
H972 H 0.28735 0.94353 0.19378 0.0
H973 H 0.27751 0.95711 0.2245 0.0
C974 C 0.72413 0.014 0.1889 0.0
C975 C 0.72137 0.03974 0.18339 0.0
C976 C 0.73001 1.00805 0.20683 0.0
C977 C 0.72276 0.03603 0.25219 0.0
H978 H 0.76044 0.97544 0.26722 0.0
C979 C 0.72826 1.00817 0.32699 0.0
C980 C 0.72233 0.98236 0.33081 0.0
C981 C 0.73401 0.01588 0.30938 0.0
C982 C 0.74984 0.99241 0.26323 0.0
H983 H 0.72439 0.07944 0.19212 0.0
H984 H 0.73522 0.06908 0.22329 0.0
H985 H 0.76037 0.98806 0.23544 0.0
H986 H 0.71938 0.94411 0.31929 0.0
H987 H 0.72924 0.95759 0.28854 0.0
H988 H 0.71172 0.0401 0.2798 0.0
C989 C 0.7322 0.05345 0.21386 0.0
C990 C 0.74976 0.99964 0.24501 0.0
C991 C 0.72618 0.05941 0.19595 0.0
C992 C 0.72384 0.96416 0.31681 0.0
C993 C 0.72959 0.97188 0.29918 0.0
C994 C 0.7229 0.02886 0.27036 0.0
C995 C 0.7334 0.02769 0.21967 0.0
C996 C 0.73588 0.02133 0.23922 0.0
C997 C 0.73396 0.99797 0.29516 0.0
C998 C 0.73611 1.00676 0.27608 0.0
H999 H 0.72052 0.99837 0.17958 0.0
H1000 H 0.73055 0.988 0.2108 0.0
H1001 H 0.71142 0.05253 0.24824 0.0
H1002 H 0.72744 0.02267 0.33747 0.0
H1003 H 0.73776 0.03605 0.3068 0.0
C1004 C 0.72355 0.05653 0.81685 0.0
C1005 C 0.72188 0.03832 0.83083 0.0
C1006 C 0.72936 0.0488 0.79922 0.0
C1007 C 0.72264 0.99187 0.77036 0.0
H1008 H 0.76044 0.03258 0.73556 0.0
C1009 C 0.72638 0.9613 0.69598 0.0
C1010 C 0.72166 0.98097 0.6834 0.0
C1011 C 0.73229 0.96725 0.71392 0.0
C1012 C 0.74974 0.02103 0.7451 0.0
H1013 H 0.72677 0.99797 0.83749 0.0
H1014 H 0.7372 0.98459 0.80684 0.0
H1015 H 0.76034 0.04519 0.76735 0.0
H1016 H 0.72091 0.02234 0.67956 0.0
H1017 H 0.73076 0.0327 0.71081 0.0
H1018 H 0.71124 0.96824 0.74822 0.0
C1019 C 0.73352 1.00477 0.80942 0.0
C1020 C 0.74971 0.02825 0.76332 0.0
C1021 C 0.7277 0.01248 0.82702 0.0
C1022 C 0.72444 1.0067 0.6889 0.0
C1023 C 0.73022 0.01266 0.70685 0.0
C1024 C 0.7226 0.98471 0.7522 0.0
C1025 C 0.73364 0.0227 0.7952 0.0
C1026 C 0.73587 0.01393 0.77613 0.0
C1027 C 0.73349 0.99301 0.71971 0.0
C1028 C 0.73584 0.99937 0.73927 0.0
H1029 H 0.71917 0.07659 0.81932 0.0
H1030 H 0.72913 0.06311 0.78859 0.0
H1031 H 0.71136 0.98065 0.77977 0.0
H1032 H 0.72458 0.94126 0.69216 0.0
H1033 H 0.73522 0.95162 0.72336 0.0
C1034 C 0.28332 0.96416 0.81614 0.0
C1035 C 0.28495 0.98231 0.83017 0.0
C1036 C 0.27747 0.97195 0.79854 0.0
C1037 C 0.28401 0.02898 0.76975 0.0
H1038 H 0.24607 0.98838 0.73499 0.0
C1039 C 0.28007 0.05972 0.69539 0.0
C1040 C 0.28467 0.04006 0.68278 0.0
C1041 C 0.27422 0.05374 0.71333 0.0
C1042 C 0.2568 0.9999 0.74452 0.0
H1043 H 0.27997 0.02262 0.8369 0.0
H1044 H 0.26948 0.03611 0.80629 0.0
H1045 H 0.2463 0.97566 0.76675 0.0
H1046 H 0.2853 0.99869 0.67892 0.0
H1047 H 0.27556 0.98829 0.71018 0.0
H1048 H 0.29533 0.05267 0.74761 0.0
C1049 C 0.27321 0.01593 0.80882 0.0
C1050 C 0.25691 0.99262 0.76272 0.0
C1051 C 0.27906 1.00815 0.8264 0.0
C1052 C 0.28185 0.01432 0.68828 0.0
C1053 C 0.27614 1.00834 0.70624 0.0
C1054 C 0.28398 0.03619 0.7516 0.0
C1055 C 0.27311 0.99806 0.79457 0.0
C1056 C 0.2708 1.00689 0.77552 0.0
C1057 C 0.27298 0.02797 0.71912 0.0
C1058 C 0.27069 0.02157 0.73868 0.0
H1059 H 0.28776 0.94409 0.81857 0.0
H1060 H 0.27771 0.95769 0.78788 0.0
H1061 H 0.29532 0.04016 0.77915 0.0
H1062 H 0.28192 0.07975 0.69158 0.0
H1063 H 0.27137 0.06936 0.72279 0.0
C1064 C 0.78046 0.46117 0.19623 0.0
C1065 C 0.7852 0.48082 0.18363 0.0
C1066 C 0.7745 0.46716 0.21415 0.0
C1067 C 0.75693 0.52103 0.24524 0.0
H1068 H 0.79511 0.48074 0.28005 0.0
C1069 C 0.78297 0.55682 0.31692 0.0
C1070 C 0.78454 0.53869 0.33096 0.0
C1071 C 0.77719 0.54901 0.2993 0.0
C1072 C 0.78389 0.49193 0.2706 0.0
H1073 H 0.78598 0.52218 0.17976 0.0
H1074 H 0.77605 0.53261 0.21098 0.0
H1075 H 0.79536 0.46821 0.24852 0.0
H1076 H 0.77951 0.49839 0.33772 0.0
H1077 H 0.76914 0.48487 0.3071 0.0
H1078 H 0.74627 0.54529 0.26741 0.0
C1079 C 0.7766 0.51255 0.20705 0.0
C1080 C 0.784 0.4847 0.25245 0.0
C1081 C 0.78243 0.50656 0.18911 0.0
C1082 C 0.77865 0.51285 0.32721 0.0
C1083 C 0.77287 0.50505 0.30962 0.0
C1084 C 0.75689 0.52832 0.26344 0.0
C1085 C 0.77329 0.49293 0.21992 0.0
C1086 C 0.77083 0.49934 0.23947 0.0
C1087 C 0.77285 0.5229 0.29535 0.0
C1088 C 0.77066 0.51404 0.2763 0.0
H1089 H 0.78226 0.44113 0.19242 0.0
H1090 H 0.77154 0.45155 0.2236 0.0
H1091 H 0.74629 0.53256 0.23566 0.0
H1092 H 0.78742 0.57689 0.31933 0.0
H1093 H 0.7775 0.56326 0.28864 0.0
C1094 C 0.22428 0.50634 0.32386 0.0
C1095 C 0.22149 0.48061 0.32938 0.0
C1096 C 0.23012 0.51228 0.30592 0.0
C1097 C 0.22272 0.48432 0.26056 0.0
H1098 H 0.26046 0.54486 0.2455 0.0
C1099 C 0.22808 0.51226 0.18576 0.0
C1100 C 0.22219 0.53809 0.18197 0.0
C1101 C 0.23385 0.50451 0.20336 0.0
C1102 C 0.24984 0.5279 0.2495 0.0
H1103 H 0.22443 0.4409 0.32065 0.0
H1104 H 0.23519 0.45124 0.28946 0.0
H1105 H 0.26044 0.53221 0.27727 0.0
H1106 H 0.21931 0.57632 0.19353 0.0
H1107 H 0.22922 0.56277 0.22424 0.0
H1108 H 0.21161 0.48028 0.23297 0.0
C1109 C 0.23222 0.46687 0.29889 0.0
C1110 C 0.2498 0.52066 0.26771 0.0
C1111 C 0.22624 0.46093 0.31682 0.0
C1112 C 0.22375 0.55626 0.19598 0.0
C1113 C 0.22953 0.5485 0.2136 0.0
C1114 C 0.22283 0.49149 0.2424 0.0
C1115 C 0.23344 0.49263 0.29307 0.0
C1116 C 0.23589 0.49899 0.27352 0.0
C1117 C 0.23387 0.5224 0.2176 0.0
C1118 C 0.23606 0.51358 0.23666 0.0
H1119 H 0.22072 0.52198 0.33319 0.0
H1120 H 0.23068 0.53233 0.30195 0.0
H1121 H 0.21136 0.46783 0.26452 0.0
H1122 H 0.22722 0.49778 0.17527 0.0
H1123 H 0.23757 0.48433 0.20592 0.0
C1124 C 0.22357 0.55625 0.81597 0.0
C1125 C 0.22181 0.53809 0.82999 0.0
C1126 C 0.22946 0.54845 0.79838 0.0
C1127 C 0.22285 0.49143 0.76958 0.0
H1128 H 0.26103 0.53194 0.73487 0.0
C1129 C 0.22704 0.46064 0.69526 0.0
C1130 C 0.22247 0.48029 0.68264 0.0
C1131 C 0.23287 0.46662 0.7132 0.0
C1132 C 0.25023 0.52045 0.74439 0.0
H1133 H 0.22658 0.49776 0.83673 0.0
H1134 H 0.23714 0.48424 0.80614 0.0
H1135 H 0.26069 0.54466 0.76663 0.0
H1136 H 0.22189 0.52165 0.67875 0.0
H1137 H 0.23159 0.53207 0.71001 0.0
H1138 H 0.21158 0.46775 0.74743 0.0
C1139 C 0.23348 0.50444 0.80866 0.0
C1140 C 0.25006 0.52773 0.76259 0.0
C1141 C 0.22759 0.51222 0.82624 0.0
C1142 C 0.22532 0.50603 0.68812 0.0
C1143 C 0.231 0.51201 0.70607 0.0
C1144 C 0.22294 0.48421 0.75143 0.0
C1145 C 0.23371 0.52232 0.79442 0.0
C1146 C 0.23608 0.51349 0.77537 0.0
C1147 C 0.23411 0.49239 0.71897 0.0
C1148 C 0.23633 0.4988 0.73853 0.0
H1149 H 0.21922 0.57633 0.8184 0.0
H1150 H 0.22931 0.56272 0.78772 0.0
H1151 H 0.21147 0.48027 0.77896 0.0
H1152 H 0.22519 0.4406 0.69146 0.0
H1153 H 0.23568 0.451 0.72268 0.0
C1154 C 0.78373 0.55646 0.69695 0.0
C1155 C 0.78548 0.53828 0.68295 0.0
C1156 C 0.77783 0.5487 0.71455 0.0
C1157 C 0.78441 0.49175 0.74342 0.0
H1158 H 0.74626 0.53235 0.77808 0.0
C1159 C 0.78025 0.46113 0.81779 0.0
C1160 C 0.7848 0.48081 0.83038 0.0
C1161 C 0.77443 0.46707 0.79984 0.0
C1162 C 0.75705 0.52083 0.76858 0.0
H1163 H 0.78067 0.49793 0.67626 0.0
H1164 H 0.77009 0.48449 0.70688 0.0
H1165 H 0.74658 0.54499 0.7463 0.0
H1166 H 0.78537 0.52218 0.83422 0.0
H1167 H 0.77569 0.53253 0.80294 0.0
H1168 H 0.79569 0.46812 0.76561 0.0
C1169 C 0.77377 0.50468 0.70432 0.0
C1170 C 0.75721 0.52807 0.75037 0.0
C1171 C 0.77967 0.51243 0.68674 0.0
C1172 C 0.78196 0.50654 0.82487 0.0
C1173 C 0.77628 0.51248 0.8069 0.0
C1174 C 0.78433 0.48457 0.76158 0.0
C1175 C 0.77355 0.52259 0.71855 0.0
C1176 C 0.77119 0.51379 0.73761 0.0
C1177 C 0.77318 0.49283 0.79403 0.0
C1178 C 0.77095 0.4992 0.77446 0.0
H1179 H 0.78811 0.57653 0.6945 0.0
H1180 H 0.77799 0.56299 0.72519 0.0
H1181 H 0.79579 0.48057 0.73405 0.0
H1182 H 0.78211 0.4411 0.82162 0.0
H1183 H 0.77162 0.45143 0.79039 0.0
loop_
_geom_bond_atom_site_label_1
_geom_bond_atom_site_label_2
_geom_bond_distance
_geom_bond_site_symmetry_2
_ccdc_geom_bond_type
O0 Cd1 2.223 . S
O0 C8 1.315 . S
Cd1 O0 2.223 . S
Cd1 O4 2.297 . S
Cd1 O5 2.439 . S
Cd1 O11 2.240 . S
Cd2 O3 2.240 . S
Cd2 O10 2.223 . S
Cd2 O12 2.297 . S
Cd2 O13 2.439 . S
O3 Cd2 2.240 . S
O3 C8 1.279 . S
O4 Cd1 2.297 . S
O4 C6 1.247 . S
O5 Cd1 2.439 . S
O5 C6 1.208 . S
C6 O4 1.247 . S
C6 O5 1.208 . S
C7 O12 1.247 . S
C7 O13 1.208 . S
C8 O0 1.315 . S
C8 O3 1.279 . S
C9 O10 1.315 . S
C9 O11 1.279 . S
O10 Cd2 2.223 . S
O10 C9 1.315 . S
O11 Cd1 2.240 . S
O11 C9 1.279 . S
O12 Cd2 2.297 . S
O12 C7 1.247 . S
O13 Cd2 2.439 . S
O13 C7 1.208 . S
O14 Cd15 2.223 . S
O14 C22 1.315 . S
Cd15 O14 2.223 . S
Cd15 O18 2.297 . S
Cd15 O19 2.439 . S
Cd15 O25 2.240 . S
Cd16 O17 2.240 . S
Cd16 O24 2.223 . S
Cd16 O26 2.297 . S
Cd16 O27 2.439 . S
O17 Cd16 2.240 . S
O17 C22 1.279 . S
O18 Cd15 2.297 . S
O18 C20 1.247 . S
O19 Cd15 2.439 . S
O19 C20 1.208 . S
C20 O18 1.247 . S
C20 O19 1.208 . S
C21 O26 1.247 . S
C21 O27 1.208 . S
C22 O14 1.315 . S
C22 O17 1.279 . S
C23 O24 1.315 . S
C23 O25 1.279 . S
O24 Cd16 2.223 . S
O24 C23 1.315 . S
O25 Cd15 2.240 . S
O25 C23 1.279 . S
O26 Cd16 2.297 . S
O26 C21 1.247 . S
O27 Cd16 2.439 . S
O27 C21 1.208 . S
O28 Cd29 2.223 . S
O28 C36 1.315 . S
Cd29 O28 2.223 . S
Cd29 O32 2.297 . S
Cd29 O33 2.439 . S
Cd29 O39 2.240 . S
Cd30 O31 2.240 . S
Cd30 O38 2.223 . S
Cd30 O40 2.297 . S
Cd30 O41 2.439 . S
O31 Cd30 2.240 . S
O31 C36 1.279 . S
O32 Cd29 2.297 . S
O32 C34 1.247 . S
O33 Cd29 2.439 . S
O33 C34 1.208 . S
C34 O32 1.247 . S
C34 O33 1.208 . S
C35 O40 1.247 . S
C35 O41 1.208 . S
C36 O28 1.315 . S
C36 O31 1.279 . S
C37 O38 1.315 . S
C37 O39 1.279 . S
O38 Cd30 2.223 . S
O38 C37 1.315 . S
O39 Cd29 2.240 . S
O39 C37 1.279 . S
O40 Cd30 2.297 . S
O40 C35 1.247 . S
O41 Cd30 2.439 . S
O41 C35 1.208 . S
O42 Cd43 2.223 . S
O42 C50 1.315 . S
Cd43 O42 2.223 . S
Cd43 O46 2.297 . S
Cd43 O47 2.439 . S
Cd43 O53 2.240 . S
Cd44 O45 2.240 . S
Cd44 O52 2.223 . S
Cd44 O54 2.297 . S
Cd44 O55 2.439 . S
O45 Cd44 2.240 . S
O45 C50 1.279 . S
O46 Cd43 2.297 . S
O46 C48 1.247 . S
O47 Cd43 2.439 . S
O47 C48 1.208 . S
C48 O46 1.247 . S
C48 O47 1.208 . S
C49 O54 1.247 . S
C49 O55 1.208 . S
C50 O42 1.315 . S
C50 O45 1.279 . S
C51 O52 1.315 . S
C51 O53 1.279 . S
O52 Cd44 2.223 . S
O52 C51 1.315 . S
O53 Cd43 2.240 . S
O53 C51 1.279 . S
O54 Cd44 2.297 . S
O54 C49 1.247 . S
O55 Cd44 2.439 . S
O55 C49 1.208 . S
O56 Cd57 2.223 . S
O56 C64 1.315 . S
Cd57 O56 2.223 . S
Cd57 O60 2.297 . S
Cd57 O61 2.439 . S
Cd57 O67 2.240 . S
Cd58 O59 2.240 . S
Cd58 O66 2.223 . S
Cd58 O68 2.297 . S
Cd58 O69 2.439 . S
O59 Cd58 2.240 . S
O59 C64 1.279 . S
O60 Cd57 2.297 . S
O60 C62 1.247 . S
O61 Cd57 2.439 . S
O61 C62 1.208 . S
C62 O60 1.247 . S
C62 O61 1.208 . S
C63 O68 1.247 . S
C63 O69 1.208 . S
C64 O56 1.315 . S
C64 O59 1.279 . S
C65 O66 1.315 . S
C65 O67 1.279 . S
O66 Cd58 2.223 . S
O66 C65 1.315 . S
O67 Cd57 2.240 . S
O67 C65 1.279 . S
O68 Cd58 2.297 . S
O68 C63 1.247 . S
O69 Cd58 2.439 . S
O69 C63 1.208 . S
O70 Cd71 2.223 . S
O70 C78 1.315 . S
Cd71 O70 2.223 . S
Cd71 O74 2.297 . S
Cd71 O75 2.439 . S
Cd71 O81 2.240 . S
Cd72 O73 2.240 . S
Cd72 O80 2.223 . S
Cd72 O82 2.297 . S
Cd72 O83 2.439 . S
O73 Cd72 2.240 . S
O73 C78 1.279 . S
O74 Cd71 2.297 . S
O74 C76 1.247 . S
O75 Cd71 2.439 . S
O75 C76 1.208 . S
C76 O74 1.247 . S
C76 O75 1.208 . S
C77 O82 1.247 . S
C77 O83 1.208 . S
C78 O70 1.315 . S
C78 O73 1.279 . S
C79 O80 1.315 . S
C79 O81 1.279 . S
O80 Cd72 2.223 . S
O80 C79 1.315 . S
O81 Cd71 2.240 . S
O81 C79 1.279 . S
O82 Cd72 2.297 . S
O82 C77 1.247 . S
O83 Cd72 2.439 . S
O83 C77 1.208 . S
O84 Cd85 2.223 . S
O84 C92 1.315 . S
Cd85 O84 2.223 . S
Cd85 O88 2.297 . S
Cd85 O89 2.439 . S
Cd85 O95 2.240 . S
Cd86 O87 2.240 . S
Cd86 O94 2.223 . S
Cd86 O96 2.297 . S
Cd86 O97 2.439 . S
O87 Cd86 2.240 . S
O87 C92 1.279 . S
O88 Cd85 2.297 . S
O88 C90 1.247 . S
O89 Cd85 2.439 . S
O89 C90 1.208 . S
C90 O88 1.247 . S
C90 O89 1.208 . S
C91 O96 1.247 . S
C91 O97 1.208 . S
C92 O84 1.315 . S
C92 O87 1.279 . S
C93 O94 1.315 . S
C93 O95 1.279 . S
O94 Cd86 2.223 . S
O94 C93 1.315 . S
O95 Cd85 2.240 . S
O95 C93 1.279 . S
O96 Cd86 2.297 . S
O96 C91 1.247 . S
O97 Cd86 2.439 . S
O97 C91 1.208 . S
O98 Cd99 2.223 . S
O98 C106 1.315 . S
Cd99 O98 2.223 . S
Cd99 O102 2.297 . S
Cd99 O103 2.439 . S
Cd99 O109 2.240 . S
Cd100 O101 2.240 . S
Cd100 O108 2.223 . S
Cd100 O110 2.297 . S
Cd100 O111 2.439 . S
O101 Cd100 2.240 . S
O101 C106 1.279 . S
O102 Cd99 2.297 . S
O102 C104 1.247 . S
O103 Cd99 2.439 . S
O103 C104 1.208 . S
C104 O102 1.247 . S
C104 O103 1.208 . S
C105 O110 1.247 . S
C105 O111 1.208 . S
C106 O98 1.315 . S
C106 O101 1.279 . S
C107 O108 1.315 . S
C107 O109 1.279 . S
O108 Cd100 2.223 . S
O108 C107 1.315 . S
O109 Cd99 2.240 . S
O109 C107 1.279 . S
O110 Cd100 2.297 . S
O110 C105 1.247 . S
O111 Cd100 2.439 . S
O111 C105 1.208 . S
O112 Cd113 2.223 . S
O112 C120 1.315 . S
Cd113 O112 2.223 . S
Cd113 O116 2.297 . S
Cd113 O117 2.439 . S
Cd113 O123 2.240 . S
Cd114 O115 2.240 . S
Cd114 O122 2.223 . S
Cd114 O124 2.297 . S
Cd114 O125 2.439 . S
O115 Cd114 2.240 . S
O115 C120 1.279 . S
O116 Cd113 2.297 . S
O116 C118 1.247 . S
O117 Cd113 2.439 . S
O117 C118 1.208 . S
C118 O116 1.247 . S
C118 O117 1.208 . S
C119 O124 1.247 . S
C119 O125 1.208 . S
C120 O112 1.315 . S
C120 O115 1.279 . S
C121 O122 1.315 . S
C121 O123 1.279 . S
O122 Cd114 2.223 . S
O122 C121 1.315 . S
O123 Cd113 2.240 . S
O123 C121 1.279 . S
O124 Cd114 2.297 . S
O124 C119 1.247 . S
O125 Cd114 2.439 . S
O125 C119 1.208 . S
O126 Cd127 2.223 . S
O126 C134 1.315 . S
Cd127 O126 2.223 . S
Cd127 O130 2.297 . S
Cd127 O131 2.439 . S
Cd127 O137 2.240 . S
Cd128 O129 2.240 . S
Cd128 O136 2.223 . S
Cd128 O138 2.297 . S
Cd128 O139 2.439 . S
O129 Cd128 2.240 . S
O129 C134 1.279 . S
O130 Cd127 2.297 . S
O130 C132 1.247 . S
O131 Cd127 2.439 . S
O131 C132 1.208 . S
C132 O130 1.247 . S
C132 O131 1.208 . S
C133 O138 1.247 . S
C133 O139 1.208 . S
C134 O126 1.315 . S
C134 O129 1.279 . S
C135 O136 1.315 . S
C135 O137 1.279 . S
O136 Cd128 2.223 . S
O136 C135 1.315 . S
O137 Cd127 2.240 . S
O137 C135 1.279 . S
O138 Cd128 2.297 . S
O138 C133 1.247 . S
O139 Cd128 2.439 . S
O139 C133 1.208 . S
O140 Cd141 2.223 . S
O140 C148 1.315 . S
Cd141 O140 2.223 . S
Cd141 O144 2.297 . S
Cd141 O145 2.439 . S
Cd141 O151 2.240 . S
Cd142 O143 2.240 . S
Cd142 O150 2.223 . S
Cd142 O152 2.297 . S
Cd142 O153 2.439 . S
O143 Cd142 2.240 . S
O143 C148 1.279 . S
O144 Cd141 2.297 . S
O144 C146 1.247 . S
O145 Cd141 2.439 . S
O145 C146 1.208 . S
C146 O144 1.247 . S
C146 O145 1.208 . S
C147 O152 1.247 . S
C147 O153 1.208 . S
C148 O140 1.315 . S
C148 O143 1.279 . S
C149 O150 1.315 . S
C149 O151 1.279 . S
O150 Cd142 2.223 . S
O150 C149 1.315 . S
O151 Cd141 2.240 . S
O151 C149 1.279 . S
O152 Cd142 2.297 . S
O152 C147 1.247 . S
O153 Cd142 2.439 . S
O153 C147 1.208 . S
O154 Cd155 2.223 . S
O154 C162 1.315 . S
Cd155 O154 2.223 . S
Cd155 O158 2.297 . S
Cd155 O159 2.439 . S
Cd155 O165 2.240 . S
Cd156 O157 2.240 . S
Cd156 O164 2.223 . S
Cd156 O166 2.297 . S
Cd156 O167 2.439 . S
O157 Cd156 2.240 . S
O157 C162 1.279 . S
O158 Cd155 2.297 . S
O158 C160 1.247 . S
O159 Cd155 2.439 . S
O159 C160 1.208 . S
C160 O158 1.247 . S
C160 O159 1.208 . S
C161 O166 1.247 . S
C161 O167 1.208 . S
C162 O154 1.315 . S
C162 O157 1.279 . S
C163 O164 1.315 . S
C163 O165 1.279 . S
O164 Cd156 2.223 . S
O164 C163 1.315 . S
O165 Cd155 2.240 . S
O165 C163 1.279 . S
O166 Cd156 2.297 . S
O166 C161 1.247 . S
O167 Cd156 2.439 . S
O167 C161 1.208 . S
O168 Cd169 2.223 . S
O168 C176 1.315 . S
Cd169 O168 2.223 . S
Cd169 O172 2.297 . S
Cd169 O173 2.439 . S
Cd169 O179 2.240 . S
Cd170 O171 2.240 . S
Cd170 O178 2.223 . S
Cd170 O180 2.297 . S
Cd170 O181 2.439 . S
O171 Cd170 2.240 . S
O171 C176 1.279 . S
O172 Cd169 2.297 . S
O172 C174 1.247 . S
O173 Cd169 2.439 . S
O173 C174 1.208 . S
C174 O172 1.247 . S
C174 O173 1.208 . S
C175 O180 1.247 . S
C175 O181 1.208 . S
C176 O168 1.315 . S
C176 O171 1.279 . S
C177 O178 1.315 . S
C177 O179 1.279 . S
O178 Cd170 2.223 . S
O178 C177 1.315 . S
O179 Cd169 2.240 . S
O179 C177 1.279 . S
O180 Cd170 2.297 . S
O180 C175 1.247 . S
O181 Cd170 2.439 . S
O181 C175 1.208 . S
O182 Cd183 2.223 . S
O182 C190 1.315 . S
Cd183 O182 2.223 . S
Cd183 O186 2.297 . S
Cd183 O187 2.439 . S
Cd183 O193 2.240 . S
Cd184 O185 2.240 . S
Cd184 O192 2.223 . S
Cd184 O194 2.297 . S
Cd184 O195 2.439 . S
O185 Cd184 2.240 . S
O185 C190 1.279 . S
O186 Cd183 2.297 . S
O186 C188 1.247 . S
O187 Cd183 2.439 . S
O187 C188 1.208 . S
C188 O186 1.247 . S
C188 O187 1.208 . S
C189 O194 1.247 . S
C189 O195 1.208 . S
C190 O182 1.315 . S
C190 O185 1.279 . S
C191 O192 1.315 . S
C191 O193 1.279 . S
O192 Cd184 2.223 . S
O192 C191 1.315 . S
O193 Cd183 2.240 . S
O193 C191 1.279 . S
O194 Cd184 2.297 . S
O194 C189 1.247 . S
O195 Cd184 2.439 . S
O195 C189 1.208 . S
O196 Cd197 2.223 . S
O196 C204 1.315 . S
Cd197 O196 2.223 . S
Cd197 O200 2.297 . S
Cd197 O201 2.439 . S
Cd197 O207 2.240 . S
Cd198 O199 2.240 . S
Cd198 O206 2.223 . S
Cd198 O208 2.297 . S
Cd198 O209 2.439 . S
O199 Cd198 2.240 . S
O199 C204 1.279 . S
O200 Cd197 2.297 . S
O200 C202 1.247 . S
O201 Cd197 2.439 . S
O201 C202 1.208 . S
C202 O200 1.247 . S
C202 O201 1.208 . S
C203 O208 1.247 . S
C203 O209 1.208 . S
C204 O196 1.315 . S
C204 O199 1.279 . S
C205 O206 1.315 . S
C205 O207 1.279 . S
O206 Cd198 2.223 . S
O206 C205 1.315 . S
O207 Cd197 2.240 . S
O207 C205 1.279 . S
O208 Cd198 2.297 . S
O208 C203 1.247 . S
O209 Cd198 2.439 . S
O209 C203 1.208 . S
O210 Cd211 2.223 . S
O210 C218 1.315 . S
Cd211 O210 2.223 . S
Cd211 O214 2.297 . S
Cd211 O215 2.439 . S
Cd211 O221 2.240 . S
Cd212 O213 2.240 . S
Cd212 O220 2.223 . S
Cd212 O222 2.297 . S
Cd212 O223 2.439 . S
O213 Cd212 2.240 . S
O213 C218 1.279 . S
O214 Cd211 2.297 . S
O214 C216 1.247 . S
O215 Cd211 2.439 . S
O215 C216 1.208 . S
C216 O214 1.247 . S
C216 O215 1.208 . S
C217 O222 1.247 . S
C217 O223 1.208 . S
C218 O210 1.315 . S
C218 O213 1.279 . S
C219 O220 1.315 . S
C219 O221 1.279 . S
O220 Cd212 2.223 . S
O220 C219 1.315 . S
O221 Cd211 2.240 . S
O221 C219 1.279 . S
O222 Cd212 2.297 . S
O222 C217 1.247 . S
O223 Cd212 2.439 . S
O223 C217 1.208 . S
C224 C225 1.349 . S
C224 C226 1.327 . S
C224 H249 0.950 . S
C225 C224 1.349 . S
C225 C241 1.349 . S
C226 C224 1.327 . S
C226 C245 1.429 . S
C226 H250 0.950 . S
C227 C244 1.574 . S
C227 C246 1.368 . S
C227 H251 0.949 . S
H228 C232 0.949 . S
C229 C230 1.349 . S
C229 C231 1.327 . S
C229 H252 0.950 . S
C230 C229 1.349 . S
C230 C242 1.349 . S
C231 C229 1.327 . S
C231 C247 1.429 . S
C231 H253 0.950 . S
C232 H228 0.949 . S
C232 C240 1.574 . S
C232 C248 1.368 . S
H233 C241 0.950 . S
H234 C239 0.950 . S
H235 C240 0.949 . S
H236 C242 0.950 . S
H237 C243 0.950 . S
H238 C244 0.949 . S
C239 H234 0.950 . S
C239 C241 1.327 . S
C239 C245 1.429 . S
C240 C232 1.574 . S
C240 H235 0.949 . S
C240 C246 1.368 . S
C241 C225 1.349 . S
C241 H233 0.950 . S
C241 C239 1.327 . S
C242 C230 1.349 . S
C242 H236 0.950 . S
C242 C243 1.327 . S
C243 H237 0.950 . S
C243 C242 1.327 . S
C243 C247 1.429 . S
C244 C227 1.574 . S
C244 H238 0.949 . S
C244 C248 1.368 . S
C245 C226 1.429 . S
C245 C239 1.429 . S
C245 C246 1.523 . S
C246 C227 1.368 . S
C246 C240 1.368 . S
C246 C245 1.523 . S
C247 C231 1.429 . S
C247 C243 1.429 . S
C247 C248 1.523 . S
C248 C232 1.368 . S
C248 C244 1.368 . S
C248 C247 1.523 . S
H249 C224 0.950 . S
H250 C226 0.950 . S
H251 C227 0.949 . S
H252 C229 0.950 . S
H253 C231 0.950 . S
C254 C255 1.349 . S
C254 C256 1.327 . S
C254 H279 0.950 . S
C255 C254 1.349 . S
C255 C271 1.349 . S
C256 C254 1.327 . S
C256 C275 1.429 . S
C256 H280 0.950 . S
C257 C274 1.574 . S
C257 C276 1.368 . S
C257 H281 0.949 . S
H258 C262 0.949 . S
C259 C260 1.349 . S
C259 C261 1.327 . S
C259 H282 0.950 . S
C260 C259 1.349 . S
C260 C272 1.349 . S
C261 C259 1.327 . S
C261 C277 1.429 . S
C261 H283 0.950 . S
C262 H258 0.949 . S
C262 C270 1.574 . S
C262 C278 1.368 . S
H263 C271 0.950 . S
H264 C269 0.950 . S
H265 C270 0.949 . S
H266 C272 0.950 . S
H267 C273 0.950 . S
H268 C274 0.949 . S
C269 H264 0.950 . S
C269 C271 1.327 . S
C269 C275 1.429 . S
C270 C262 1.574 . S
C270 H265 0.949 . S
C270 C276 1.368 . S
C271 C255 1.349 . S
C271 H263 0.950 . S
C271 C269 1.327 . S
C272 C260 1.349 . S
C272 H266 0.950 . S
C272 C273 1.327 . S
C273 H267 0.950 . S
C273 C272 1.327 . S
C273 C277 1.429 . S
C274 C257 1.574 . S
C274 H268 0.949 . S
C274 C278 1.368 . S
C275 C256 1.429 . S
C275 C269 1.429 . S
C275 C276 1.523 . S
C276 C257 1.368 . S
C276 C270 1.368 . S
C276 C275 1.523 . S
C277 C261 1.429 . S
C277 C273 1.429 . S
C277 C278 1.523 . S
C278 C262 1.368 . S
C278 C274 1.368 . S
C278 C277 1.523 . S
H279 C254 0.950 . S
H280 C256 0.950 . S
H281 C257 0.949 . S
H282 C259 0.950 . S
H283 C261 0.950 . S
C284 C285 1.349 . S
C284 C286 1.327 . S
C284 H309 0.950 . S
C285 C284 1.349 . S
C285 C301 1.349 . S
C286 C284 1.327 . S
C286 C305 1.429 . S
C286 H310 0.950 . S
C287 C304 1.574 1_554 S
C287 C306 1.368 . S
C287 H311 0.949 . S
H288 C292 0.949 . S
C289 C290 1.349 . S
C289 C291 1.327 . S
C289 H312 0.950 . S
C290 C289 1.349 . S
C290 C302 1.349 . S
C291 C289 1.327 . S
C291 C307 1.429 . S
C291 H313 0.950 . S
C292 H288 0.949 . S
C292 C300 1.574 1_556 S
C292 C308 1.368 . S
H293 C301 0.950 . S
H294 C299 0.950 . S
H295 C300 0.949 . S
H296 C302 0.950 . S
H297 C303 0.950 . S
H298 C304 0.949 . S
C299 H294 0.950 . S
C299 C301 1.327 . S
C299 C305 1.429 . S
C300 C292 1.574 1_554 S
C300 H295 0.949 . S
C300 C306 1.368 . S
C301 C285 1.349 . S
C301 H293 0.950 . S
C301 C299 1.327 . S
C302 C290 1.349 . S
C302 H296 0.950 . S
C302 C303 1.327 . S
C303 H297 0.950 . S
C303 C302 1.327 . S
C303 C307 1.429 . S
C304 C287 1.574 1_556 S
C304 H298 0.949 . S
C304 C308 1.368 . S
C305 C286 1.429 . S
C305 C299 1.429 . S
C305 C306 1.523 . S
C306 C287 1.368 . S
C306 C300 1.368 . S
C306 C305 1.523 . S
C307 C291 1.429 . S
C307 C303 1.429 . S
C307 C308 1.523 . S
C308 C292 1.368 . S
C308 C304 1.368 . S
C308 C307 1.523 . S
H309 C284 0.950 . S
H310 C286 0.950 . S
H311 C287 0.949 . S
H312 C289 0.950 . S
H313 C291 0.950 . S
C314 C315 1.349 . S
C314 C316 1.327 . S
C314 H339 0.950 . S
C315 C314 1.349 . S
C315 C331 1.349 . S
C316 C314 1.327 . S
C316 C335 1.429 . S
C316 H340 0.950 . S
C317 C334 1.574 1_556 S
C317 C336 1.368 . S
C317 H341 0.949 . S
H318 C322 0.949 . S
C319 C320 1.349 . S
C319 C321 1.327 . S
C319 H342 0.950 . S
C320 C319 1.349 . S
C320 C332 1.349 . S
C321 C319 1.327 . S
C321 C337 1.429 . S
C321 H343 0.950 . S
C322 H318 0.949 . S
C322 C330 1.574 1_554 S
C322 C338 1.368 . S
H323 C331 0.950 . S
H324 C329 0.950 . S
H325 C330 0.949 . S
H326 C332 0.950 . S
H327 C333 0.950 . S
H328 C334 0.949 . S
C329 H324 0.950 . S
C329 C331 1.327 . S
C329 C335 1.429 . S
C330 C322 1.574 1_556 S
C330 H325 0.949 . S
C330 C336 1.368 . S
C331 C315 1.349 . S
C331 H323 0.950 . S
C331 C329 1.327 . S
C332 C320 1.349 . S
C332 H326 0.950 . S
C332 C333 1.327 . S
C333 H327 0.950 . S
C333 C332 1.327 . S
C333 C337 1.429 . S
C334 C317 1.574 1_554 S
C334 H328 0.949 . S
C334 C338 1.368 . S
C335 C316 1.429 . S
C335 C329 1.429 . S
C335 C336 1.523 . S
C336 C317 1.368 . S
C336 C330 1.368 . S
C336 C335 1.523 . S
C337 C321 1.429 . S
C337 C333 1.429 . S
C337 C338 1.523 . S
C338 C322 1.368 . S
C338 C334 1.368 . S
C338 C337 1.523 . S
H339 C314 0.950 . S
H340 C316 0.950 . S
H341 C317 0.949 . S
H342 C319 0.950 . S
H343 C321 0.950 . S
C344 C345 1.349 . S
C344 C346 1.327 . S
C344 H369 0.950 . S
C345 C344 1.349 . S
C345 C361 1.349 . S
C346 C344 1.327 . S
C346 C365 1.429 . S
C346 H370 0.950 . S
C347 C364 1.574 . S
C347 C366 1.368 . S
C347 H371 0.949 . S
H348 C352 0.949 . S
C349 C350 1.349 . S
C349 C351 1.327 . S
C349 H372 0.950 . S
C350 C349 1.349 . S
C350 C362 1.349 . S
C351 C349 1.327 . S
C351 C367 1.429 . S
C351 H373 0.950 . S
C352 H348 0.949 . S
C352 C360 1.574 . S
C352 C368 1.368 . S
H353 C361 0.950 . S
H354 C359 0.950 . S
H355 C360 0.949 . S
H356 C362 0.950 . S
H357 C363 0.950 . S
H358 C364 0.949 . S
C359 H354 0.950 . S
C359 C361 1.327 . S
C359 C365 1.429 . S
C360 C352 1.574 . S
C360 H355 0.949 . S
C360 C366 1.368 . S
C361 C345 1.349 . S
C361 H353 0.950 . S
C361 C359 1.327 . S
C362 C350 1.349 . S
C362 H356 0.950 . S
C362 C363 1.327 . S
C363 H357 0.950 . S
C363 C362 1.327 . S
C363 C367 1.429 . S
C364 C347 1.574 . S
C364 H358 0.949 . S
C364 C368 1.368 . S
C365 C346 1.429 . S
C365 C359 1.429 . S
C365 C366 1.523 . S
C366 C347 1.368 . S
C366 C360 1.368 . S
C366 C365 1.523 . S
C367 C351 1.429 . S
C367 C363 1.429 . S
C367 C368 1.523 . S
C368 C352 1.368 . S
C368 C364 1.368 . S
C368 C367 1.523 . S
H369 C344 0.950 . S
H370 C346 0.950 . S
H371 C347 0.949 . S
H372 C349 0.950 . S
H373 C351 0.950 . S
C374 C375 1.349 . S
C374 C376 1.327 . S
C374 H399 0.950 . S
C375 C374 1.349 . S
C375 C391 1.349 . S
C376 C374 1.327 . S
C376 C395 1.429 . S
C376 H400 0.950 . S
C377 C394 1.574 . S
C377 C396 1.368 . S
C377 H401 0.949 . S
H378 C382 0.949 . S
C379 C380 1.349 . S
C379 C381 1.327 . S
C379 H402 0.950 . S
C380 C379 1.349 . S
C380 C392 1.349 . S
C381 C379 1.327 . S
C381 C397 1.429 . S
C381 H403 0.950 . S
C382 H378 0.949 . S
C382 C390 1.574 . S
C382 C398 1.368 . S
H383 C391 0.950 . S
H384 C389 0.950 . S
H385 C390 0.949 . S
H386 C392 0.950 . S
H387 C393 0.950 . S
H388 C394 0.949 . S
C389 H384 0.950 . S
C389 C391 1.327 . S
C389 C395 1.429 . S
C390 C382 1.574 . S
C390 H385 0.949 . S
C390 C396 1.368 . S
C391 C375 1.349 . S
C391 H383 0.950 . S
C391 C389 1.327 . S
C392 C380 1.349 . S
C392 H386 0.950 . S
C392 C393 1.327 . S
C393 H387 0.950 . S
C393 C392 1.327 . S
C393 C397 1.429 . S
C394 C377 1.574 . S
C394 H388 0.949 . S
C394 C398 1.368 . S
C395 C376 1.429 . S
C395 C389 1.429 . S
C395 C396 1.523 . S
C396 C377 1.368 . S
C396 C390 1.368 . S
C396 C395 1.523 . S
C397 C381 1.429 . S
C397 C393 1.429 . S
C397 C398 1.523 . S
C398 C382 1.368 . S
C398 C394 1.368 . S
C398 C397 1.523 . S
H399 C374 0.950 . S
H400 C376 0.950 . S
H401 C377 0.949 . S
H402 C379 0.950 . S
H403 C381 0.950 . S
C404 C405 1.349 . S
C404 C406 1.327 . S
C404 H429 0.950 . S
C405 C404 1.349 . S
C405 C421 1.349 . S
C406 C404 1.327 . S
C406 C425 1.429 . S
C406 H430 0.950 . S
C407 C424 1.574 1_556 S
C407 C426 1.368 . S
C407 H431 0.949 . S
H408 C412 0.949 . S
C409 C410 1.349 . S
C409 C411 1.327 . S
C409 H432 0.950 . S
C410 C409 1.349 . S
C410 C422 1.349 . S
C411 C409 1.327 . S
C411 C427 1.429 . S
C411 H433 0.950 . S
C412 H408 0.949 . S
C412 C420 1.574 1_554 S
C412 C428 1.368 . S
H413 C421 0.950 . S
H414 C419 0.950 . S
H415 C420 0.949 . S
H416 C422 0.950 . S
H417 C423 0.950 . S
H418 C424 0.949 . S
C419 H414 0.950 . S
C419 C421 1.327 . S
C419 C425 1.429 . S
C420 C412 1.574 1_556 S
C420 H415 0.949 . S
C420 C426 1.368 . S
C421 C405 1.349 . S
C421 H413 0.950 . S
C421 C419 1.327 . S
C422 C410 1.349 . S
C422 H416 0.950 . S
C422 C423 1.327 . S
C423 H417 0.950 . S
C423 C422 1.327 . S
C423 C427 1.429 . S
C424 C407 1.574 1_554 S
C424 H418 0.949 . S
C424 C428 1.368 . S
C425 C406 1.429 . S
C425 C419 1.429 . S
C425 C426 1.523 . S
C426 C407 1.368 . S
C426 C420 1.368 . S
C426 C425 1.523 . S
C427 C411 1.429 . S
C427 C423 1.429 . S
C427 C428 1.523 . S
C428 C412 1.368 . S
C428 C424 1.368 . S
C428 C427 1.523 . S
H429 C404 0.950 . S
H430 C406 0.950 . S
H431 C407 0.949 . S
H432 C409 0.950 . S
H433 C411 0.950 . S
C434 C435 1.349 . S
C434 C436 1.327 . S
C434 H459 0.950 . S
C435 C434 1.349 . S
C435 C451 1.349 . S
C436 C434 1.327 . S
C436 C455 1.429 . S
C436 H460 0.950 . S
C437 C454 1.574 1_554 S
C437 C456 1.368 . S
C437 H461 0.949 . S
H438 C442 0.949 . S
C439 C440 1.349 . S
C439 C441 1.327 . S
C439 H462 0.950 . S
C440 C439 1.349 . S
C440 C452 1.349 . S
C441 C439 1.327 . S
C441 C457 1.429 . S
C441 H463 0.950 . S
C442 H438 0.949 . S
C442 C450 1.574 1_556 S
C442 C458 1.368 . S
H443 C451 0.950 . S
H444 C449 0.950 . S
H445 C450 0.949 . S
H446 C452 0.950 . S
H447 C453 0.950 . S
H448 C454 0.949 . S
C449 H444 0.950 . S
C449 C451 1.327 . S
C449 C455 1.429 . S
C450 C442 1.574 1_554 S
C450 H445 0.949 . S
C450 C456 1.368 . S
C451 C435 1.349 . S
C451 H443 0.950 . S
C451 C449 1.327 . S
C452 C440 1.349 . S
C452 H446 0.950 . S
C452 C453 1.327 . S
C453 H447 0.950 . S
C453 C452 1.327 . S
C453 C457 1.429 . S
C454 C437 1.574 1_556 S
C454 H448 0.949 . S
C454 C458 1.368 . S
C455 C436 1.429 . S
C455 C449 1.429 . S
C455 C456 1.523 . S
C456 C437 1.368 . S
C456 C450 1.368 . S
C456 C455 1.523 . S
C457 C441 1.429 . S
C457 C453 1.429 . S
C457 C458 1.523 . S
C458 C442 1.368 . S
C458 C454 1.368 . S
C458 C457 1.523 . S
H459 C434 0.950 . S
H460 C436 0.950 . S
H461 C437 0.949 . S
H462 C439 0.950 . S
H463 C441 0.950 . S
C464 C465 1.349 . S
C464 C466 1.327 . S
C464 H489 0.950 . S
C465 C464 1.349 . S
C465 C481 1.349 . S
C466 C464 1.327 . S
C466 C485 1.429 . S
C466 H490 0.950 . S
C467 C484 1.574 . S
C467 C486 1.368 1_545 S
C467 H491 0.949 . S
H468 C472 0.949 . S
C469 C470 1.349 . S
C469 C471 1.327 . S
C469 H492 0.950 . S
C470 C469 1.349 . S
C470 C482 1.349 . S
C471 C469 1.327 . S
C471 C487 1.429 . S
C471 H493 0.950 . S
C472 H468 0.949 . S
C472 C480 1.574 . S
C472 C488 1.368 1_565 S
H473 C481 0.950 . S
H474 C479 0.969 . S
H475 C480 0.949 . S
H476 C482 0.950 . S
H477 C483 0.969 . S
H478 C484 0.949 . S
C479 H474 0.969 . S
C479 C481 1.327 . S
C479 C485 1.429 . S
C480 C472 1.574 . S
C480 H475 0.949 . S
C480 C486 1.368 . S
C481 C465 1.349 . S
C481 H473 0.950 . S
C481 C479 1.327 . S
C482 C470 1.349 . S
C482 H476 0.950 . S
C482 C483 1.327 . S
C483 H477 0.969 . S
C483 C482 1.327 . S
C483 C487 1.429 . S
C484 C467 1.574 . S
C484 H478 0.949 . S
C484 C488 1.368 . S
C485 C466 1.429 . S
C485 C479 1.429 . S
C485 C486 1.523 . S
C486 C467 1.368 1_565 S
C486 C480 1.368 . S
C486 C485 1.523 . S
C487 C471 1.429 . S
C487 C483 1.429 . S
C487 C488 1.523 . S
C488 C472 1.368 1_545 S
C488 C484 1.368 . S
C488 C487 1.523 . S
H489 C464 0.950 . S
H490 C466 0.950 . S
H491 C467 0.949 . S
H492 C469 0.950 . S
H493 C471 0.950 . S
C494 C495 1.349 . S
C494 C496 1.327 . S
C494 H519 0.950 . S
C495 C494 1.349 . S
C495 C511 1.349 . S
C496 C494 1.327 . S
C496 C515 1.429 . S
C496 H520 0.950 . S
C497 C514 1.574 . S
C497 C516 1.368 1_545 S
C497 H521 0.949 . S
H498 C502 0.949 . S
C499 C500 1.349 . S
C499 C501 1.327 . S
C499 H522 0.950 . S
C500 C499 1.349 . S
C500 C512 1.349 . S
C501 C499 1.327 . S
C501 C517 1.429 . S
C501 H523 0.950 . S
C502 H498 0.949 . S
C502 C510 1.574 . S
C502 C518 1.368 1_565 S
H503 C511 0.950 . S
H504 C509 0.969 . S
H505 C510 0.949 . S
H506 C512 0.950 . S
H507 C513 0.969 . S
H508 C514 0.949 . S
C509 H504 0.969 . S
C509 C511 1.327 . S
C509 C515 1.429 . S
C510 C502 1.574 . S
C510 H505 0.949 . S
C510 C516 1.368 . S
C511 C495 1.349 . S
C511 H503 0.950 . S
C511 C509 1.327 . S
C512 C500 1.349 . S
C512 H506 0.950 . S
C512 C513 1.327 . S
C513 H507 0.969 . S
C513 C512 1.327 . S
C513 C517 1.429 . S
C514 C497 1.574 . S
C514 H508 0.949 . S
C514 C518 1.368 . S
C515 C496 1.429 . S
C515 C509 1.429 . S
C515 C516 1.523 . S
C516 C497 1.368 1_565 S
C516 C510 1.368 . S
C516 C515 1.523 . S
C517 C501 1.429 . S
C517 C513 1.429 . S
C517 C518 1.523 . S
C518 C502 1.368 1_545 S
C518 C514 1.368 . S
C518 C517 1.523 . S
H519 C494 0.950 . S
H520 C496 0.950 . S
H521 C497 0.949 . S
H522 C499 0.950 . S
H523 C501 0.950 . S
C524 C525 1.349 . S
C524 C526 1.327 . S
C524 H549 0.950 . S
C525 C524 1.349 . S
C525 C541 1.349 . S
C526 C524 1.327 . S
C526 C545 1.429 . S
C526 H550 0.969 . S
C527 C544 1.574 . S
C527 C546 1.368 . S
C527 H551 0.949 . S
H528 C532 0.949 . S
C529 C530 1.349 . S
C529 C531 1.327 . S
C529 H552 0.950 . S
C530 C529 1.349 . S
C530 C542 1.349 . S
C531 C529 1.327 . S
C531 C547 1.429 . S
C531 H553 0.969 . S
C532 H528 0.949 . S
C532 C540 1.574 . S
C532 C548 1.368 . S
H533 C541 0.950 . S
H534 C539 0.950 . S
H535 C540 0.949 . S
H536 C542 0.950 . S
H537 C543 0.950 . S
H538 C544 0.949 . S
C539 H534 0.950 . S
C539 C541 1.327 . S
C539 C545 1.429 . S
C540 C532 1.574 . S
C540 H535 0.949 . S
C540 C546 1.368 1_545 S
C541 C525 1.349 . S
C541 H533 0.950 . S
C541 C539 1.327 . S
C542 C530 1.349 . S
C542 H536 0.950 . S
C542 C543 1.327 . S
C543 H537 0.950 . S
C543 C542 1.327 . S
C543 C547 1.429 . S
C544 C527 1.574 . S
C544 H538 0.949 . S
C544 C548 1.368 1_565 S
C545 C526 1.429 . S
C545 C539 1.429 . S
C545 C546 1.523 . S
C546 C527 1.368 . S
C546 C540 1.368 1_565 S
C546 C545 1.523 . S
C547 C531 1.429 . S
C547 C543 1.429 . S
C547 C548 1.523 . S
C548 C532 1.368 . S
C548 C544 1.368 1_545 S
C548 C547 1.523 . S
H549 C524 0.950 . S
H550 C526 0.969 . S
H551 C527 0.949 . S
H552 C529 0.950 . S
H553 C531 0.969 . S
C554 C555 1.349 . S
C554 C556 1.327 . S
C554 H579 0.950 . S
C555 C554 1.349 . S
C555 C571 1.349 . S
C556 C554 1.327 . S
C556 C575 1.429 . S
C556 H580 0.969 . S
C557 C574 1.574 . S
C557 C576 1.368 . S
C557 H581 0.949 . S
H558 C562 0.949 . S
C559 C560 1.349 . S
C559 C561 1.327 . S
C559 H582 0.950 . S
C560 C559 1.349 . S
C560 C572 1.349 . S
C561 C559 1.327 . S
C561 C577 1.429 . S
C561 H583 0.969 . S
C562 H558 0.949 . S
C562 C570 1.574 . S
C562 C578 1.368 . S
H563 C571 0.950 . S
H564 C569 0.950 . S
H565 C570 0.949 . S
H566 C572 0.950 . S
H567 C573 0.950 . S
H568 C574 0.949 . S
C569 H564 0.950 . S
C569 C571 1.327 . S
C569 C575 1.429 . S
C570 C562 1.574 . S
C570 H565 0.949 . S
C570 C576 1.368 1_565 S
C571 C555 1.349 . S
C571 H563 0.950 . S
C571 C569 1.327 . S
C572 C560 1.349 . S
C572 H566 0.950 . S
C572 C573 1.327 . S
C573 H567 0.950 . S
C573 C572 1.327 . S
C573 C577 1.429 . S
C574 C557 1.574 . S
C574 H568 0.949 . S
C574 C578 1.368 1_545 S
C575 C556 1.429 . S
C575 C569 1.429 . S
C575 C576 1.523 . S
C576 C557 1.368 . S
C576 C570 1.368 1_545 S
C576 C575 1.523 . S
C577 C561 1.429 . S
C577 C573 1.429 . S
C577 C578 1.523 . S
C578 C562 1.368 . S
C578 C574 1.368 1_565 S
C578 C577 1.523 . S
H579 C554 0.950 . S
H580 C556 0.969 . S
H581 C557 0.949 . S
H582 C559 0.950 . S
H583 C561 0.969 . S
C584 C585 1.349 . S
C584 C586 1.327 . S
C584 H609 0.950 . S
C585 C584 1.349 . S
C585 C601 1.349 . S
C586 C584 1.327 . S
C586 C605 1.429 . S
C586 H610 0.950 . S
C587 C604 1.574 1_655 S
C587 C606 1.368 . S
C587 H611 0.949 . S
H588 C592 0.949 . S
C589 C590 1.349 . S
C589 C591 1.327 . S
C589 H612 0.950 . S
C590 C589 1.349 . S
C590 C602 1.349 . S
C591 C589 1.327 . S
C591 C607 1.429 . S
C591 H613 0.950 . S
C592 H588 0.949 . S
C592 C600 1.574 1_455 S
C592 C608 1.368 . S
H593 C601 0.950 . S
H594 C599 0.950 . S
H595 C600 0.949 . S
H596 C602 0.950 . S
H597 C603 0.950 . S
H598 C604 0.949 . S
C599 H594 0.950 . S
C599 C601 1.327 . S
C599 C605 1.429 . S
C600 C592 1.574 1_655 S
C600 H595 0.949 . S
C600 C606 1.368 . S
C601 C585 1.349 . S
C601 H593 0.950 . S
C601 C599 1.327 . S
C602 C590 1.349 . S
C602 H596 0.950 . S
C602 C603 1.327 . S
C603 H597 0.950 . S
C603 C602 1.327 . S
C603 C607 1.429 . S
C604 C587 1.574 1_455 S
C604 H598 0.949 . S
C604 C608 1.368 . S
C605 C586 1.429 . S
C605 C599 1.429 . S
C605 C606 1.523 . S
C606 C587 1.368 . S
C606 C600 1.368 . S
C606 C605 1.523 . S
C607 C591 1.429 . S
C607 C603 1.429 . S
C607 C608 1.523 . S
C608 C592 1.368 . S
C608 C604 1.368 . S
C608 C607 1.523 . S
H609 C584 0.950 . S
H610 C586 0.950 . S
H611 C587 0.949 . S
H612 C589 0.950 . S
H613 C591 0.950 . S
C614 C615 1.349 . S
C614 C616 1.327 . S
C614 H639 0.950 . S
C615 C614 1.349 . S
C615 C631 1.349 . S
C616 C614 1.327 . S
C616 C635 1.429 . S
C616 H640 0.950 . S
C617 C634 1.574 1_455 S
C617 C636 1.368 . S
C617 H641 0.949 . S
H618 C622 0.949 . S
C619 C620 1.349 . S
C619 C621 1.327 . S
C619 H642 0.950 . S
C620 C619 1.349 . S
C620 C632 1.349 . S
C621 C619 1.327 . S
C621 C637 1.429 . S
C621 H643 0.950 . S
C622 H618 0.949 . S
C622 C630 1.574 1_655 S
C622 C638 1.368 . S
H623 C631 0.950 . S
H624 C629 0.950 . S
H625 C630 0.949 . S
H626 C632 0.950 . S
H627 C633 0.950 . S
H628 C634 0.949 . S
C629 H624 0.950 . S
C629 C631 1.327 . S
C629 C635 1.429 . S
C630 C622 1.574 1_455 S
C630 H625 0.949 . S
C630 C636 1.368 . S
C631 C615 1.349 . S
C631 H623 0.950 . S
C631 C629 1.327 . S
C632 C620 1.349 . S
C632 H626 0.950 . S
C632 C633 1.327 . S
C633 H627 0.950 . S
C633 C632 1.327 . S
C633 C637 1.429 . S
C634 C617 1.574 1_655 S
C634 H628 0.949 . S
C634 C638 1.368 . S
C635 C616 1.429 . S
C635 C629 1.429 . S
C635 C636 1.523 . S
C636 C617 1.368 . S
C636 C630 1.368 . S
C636 C635 1.523 . S
C637 C621 1.429 . S
C637 C633 1.429 . S
C637 C638 1.523 . S
C638 C622 1.368 . S
C638 C634 1.368 . S
C638 C637 1.523 . S
H639 C614 0.950 . S
H640 C616 0.950 . S
H641 C617 0.949 . S
H642 C619 0.950 . S
H643 C621 0.950 . S
C644 C645 1.349 . S
C644 C646 1.327 . S
C644 H669 0.950 . S
C645 C644 1.349 . S
C645 C661 1.349 . S
C646 C644 1.327 . S
C646 C665 1.429 . S
C646 H670 0.950 . S
C647 C664 1.574 1_655 S
C647 C666 1.368 . S
C647 H671 0.949 . S
H648 C652 0.949 . S
C649 C650 1.349 . S
C649 C651 1.327 . S
C649 H672 0.950 . S
C650 C649 1.349 . S
C650 C662 1.349 . S
C651 C649 1.327 . S
C651 C667 1.429 . S
C651 H673 0.950 . S
C652 H648 0.949 . S
C652 C660 1.574 1_455 S
C652 C668 1.368 . S
H653 C661 0.950 . S
H654 C659 0.950 . S
H655 C660 0.949 . S
H656 C662 0.950 . S
H657 C663 0.950 . S
H658 C664 0.949 . S
C659 H654 0.950 . S
C659 C661 1.327 . S
C659 C665 1.429 . S
C660 C652 1.574 1_655 S
C660 H655 0.949 . S
C660 C666 1.368 . S
C661 C645 1.349 . S
C661 H653 0.950 . S
C661 C659 1.327 . S
C662 C650 1.349 . S
C662 H656 0.950 . S
C662 C663 1.327 . S
C663 H657 0.950 . S
C663 C662 1.327 . S
C663 C667 1.429 . S
C664 C647 1.574 1_455 S
C664 H658 0.949 . S
C664 C668 1.368 . S
C665 C646 1.429 . S
C665 C659 1.429 . S
C665 C666 1.523 . S
C666 C647 1.368 . S
C666 C660 1.368 . S
C666 C665 1.523 . S
C667 C651 1.429 . S
C667 C663 1.429 . S
C667 C668 1.523 . S
C668 C652 1.368 . S
C668 C664 1.368 . S
C668 C667 1.523 . S
H669 C644 0.950 . S
H670 C646 0.950 . S
H671 C647 0.949 . S
H672 C649 0.950 . S
H673 C651 0.950 . S
C674 C675 1.349 . S
C674 C676 1.327 . S
C674 H699 0.950 . S
C675 C674 1.349 . S
C675 C691 1.349 . S
C676 C674 1.327 . S
C676 C695 1.429 . S
C676 H700 0.950 . S
C677 C694 1.574 1_455 S
C677 C696 1.368 . S
C677 H701 0.949 . S
H678 C682 0.949 . S
C679 C680 1.349 . S
C679 C681 1.327 . S
C679 H702 0.950 . S
C680 C679 1.349 . S
C680 C692 1.349 . S
C681 C679 1.327 . S
C681 C697 1.429 . S
C681 H703 0.950 . S
C682 H678 0.949 . S
C682 C690 1.574 1_655 S
C682 C698 1.368 . S
H683 C691 0.950 . S
H684 C689 0.950 . S
H685 C690 0.949 . S
H686 C692 0.950 . S
H687 C693 0.950 . S
H688 C694 0.949 . S
C689 H684 0.950 . S
C689 C691 1.327 . S
C689 C695 1.429 . S
C690 C682 1.574 1_455 S
C690 H685 0.949 . S
C690 C696 1.368 . S
C691 C675 1.349 . S
C691 H683 0.950 . S
C691 C689 1.327 . S
C692 C680 1.349 . S
C692 H686 0.950 . S
C692 C693 1.327 . S
C693 H687 0.950 . S
C693 C692 1.327 . S
C693 C697 1.429 . S
C694 C677 1.574 1_655 S
C694 H688 0.949 . S
C694 C698 1.368 . S
C695 C676 1.429 . S
C695 C689 1.429 . S
C695 C696 1.523 . S
C696 C677 1.368 . S
C696 C690 1.368 . S
C696 C695 1.523 . S
C697 C681 1.429 . S
C697 C693 1.429 . S
C697 C698 1.523 . S
C698 C682 1.368 . S
C698 C694 1.368 . S
C698 C697 1.523 . S
H699 C674 0.950 . S
H700 C676 0.950 . S
H701 C677 0.949 . S
H702 C679 0.950 . S
H703 C681 0.950 . S
C704 C705 1.349 . S
C704 C706 1.327 . S
C704 H729 0.950 . S
C705 C704 1.349 . S
C705 C721 1.349 . S
C706 C704 1.327 . S
C706 C725 1.429 . S
C706 H730 0.950 . S
C707 C724 1.574 . S
C707 C726 1.368 . S
C707 H731 0.949 . S
H708 C712 0.949 . S
C709 C710 1.349 . S
C709 C711 1.327 . S
C709 H732 0.950 . S
C710 C709 1.349 . S
C710 C722 1.349 . S
C711 C709 1.327 . S
C711 C727 1.429 . S
C711 H733 0.950 . S
C712 H708 0.949 . S
C712 C720 1.574 . S
C712 C728 1.368 . S
H713 C721 0.950 . S
H714 C719 0.950 . S
H715 C720 0.949 . S
H716 C722 0.950 . S
H717 C723 0.950 . S
H718 C724 0.949 . S
C719 H714 0.950 . S
C719 C721 1.327 . S
C719 C725 1.429 . S
C720 C712 1.574 . S
C720 H715 0.949 . S
C720 C726 1.368 . S
C721 C705 1.349 . S
C721 H713 0.950 . S
C721 C719 1.327 . S
C722 C710 1.349 . S
C722 H716 0.950 . S
C722 C723 1.327 . S
C723 H717 0.950 . S
C723 C722 1.327 . S
C723 C727 1.429 . S
C724 C707 1.574 . S
C724 H718 0.949 . S
C724 C728 1.368 . S
C725 C706 1.429 . S
C725 C719 1.429 . S
C725 C726 1.523 . S
C726 C707 1.368 . S
C726 C720 1.368 . S
C726 C725 1.523 . S
C727 C711 1.429 . S
C727 C723 1.429 . S
C727 C728 1.523 . S
C728 C712 1.368 . S
C728 C724 1.368 . S
C728 C727 1.523 . S
H729 C704 0.950 . S
H730 C706 0.950 . S
H731 C707 0.949 . S
H732 C709 0.950 . S
H733 C711 0.950 . S
C734 C735 1.349 . S
C734 C736 1.327 . S
C734 H759 0.950 . S
C735 C734 1.349 . S
C735 C751 1.349 . S
C736 C734 1.327 . S
C736 C755 1.429 . S
C736 H760 0.950 . S
C737 C754 1.574 . S
C737 C756 1.368 . S
C737 H761 0.949 . S
H738 C742 0.949 . S
C739 C740 1.349 . S
C739 C741 1.327 . S
C739 H762 0.950 . S
C740 C739 1.349 . S
C740 C752 1.349 . S
C741 C739 1.327 . S
C741 C757 1.429 . S
C741 H763 0.950 . S
C742 H738 0.949 . S
C742 C750 1.574 . S
C742 C758 1.368 . S
H743 C751 0.950 . S
H744 C749 0.950 . S
H745 C750 0.949 . S
H746 C752 0.950 . S
H747 C753 0.950 . S
H748 C754 0.949 . S
C749 H744 0.950 . S
C749 C751 1.327 . S
C749 C755 1.429 . S
C750 C742 1.574 . S
C750 H745 0.949 . S
C750 C756 1.368 . S
C751 C735 1.349 . S
C751 H743 0.950 . S
C751 C749 1.327 . S
C752 C740 1.349 . S
C752 H746 0.950 . S
C752 C753 1.327 . S
C753 H747 0.950 . S
C753 C752 1.327 . S
C753 C757 1.429 . S
C754 C737 1.574 . S
C754 H748 0.949 . S
C754 C758 1.368 . S
C755 C736 1.429 . S
C755 C749 1.429 . S
C755 C756 1.523 . S
C756 C737 1.368 . S
C756 C750 1.368 . S
C756 C755 1.523 . S
C757 C741 1.429 . S
C757 C753 1.429 . S
C757 C758 1.523 . S
C758 C742 1.368 . S
C758 C754 1.368 . S
C758 C757 1.523 . S
H759 C734 0.950 . S
H760 C736 0.950 . S
H761 C737 0.949 . S
H762 C739 0.950 . S
H763 C741 0.950 . S
C764 C765 1.349 . S
C764 C766 1.327 . S
C764 H789 0.950 . S
C765 C764 1.349 . S
C765 C781 1.349 . S
C766 C764 1.327 . S
C766 C785 1.429 . S
C766 H790 0.950 . S
C767 C784 1.574 . S
C767 C786 1.368 . S
C767 H791 0.949 . S
H768 C772 0.949 . S
C769 C770 1.349 . S
C769 C771 1.327 . S
C769 H792 0.950 . S
C770 C769 1.349 . S
C770 C782 1.349 . S
C771 C769 1.327 . S
C771 C787 1.429 . S
C771 H793 0.950 . S
C772 H768 0.949 . S
C772 C780 1.574 . S
C772 C788 1.368 . S
H773 C781 0.950 . S
H774 C779 0.950 . S
H775 C780 0.949 . S
H776 C782 0.950 . S
H777 C783 0.950 . S
H778 C784 0.949 . S
C779 H774 0.950 . S
C779 C781 1.327 . S
C779 C785 1.429 . S
C780 C772 1.574 . S
C780 H775 0.949 . S
C780 C786 1.368 . S
C781 C765 1.349 . S
C781 H773 0.950 . S
C781 C779 1.327 . S
C782 C770 1.349 . S
C782 H776 0.950 . S
C782 C783 1.327 . S
C783 H777 0.950 . S
C783 C782 1.327 . S
C783 C787 1.429 . S
C784 C767 1.574 . S
C784 H778 0.949 . S
C784 C788 1.368 . S
C785 C766 1.429 . S
C785 C779 1.429 . S
C785 C786 1.523 . S
C786 C767 1.368 . S
C786 C780 1.368 . S
C786 C785 1.523 . S
C787 C771 1.429 . S
C787 C783 1.429 . S
C787 C788 1.523 . S
C788 C772 1.368 . S
C788 C784 1.368 . S
C788 C787 1.523 . S
H789 C764 0.950 . S
H790 C766 0.950 . S
H791 C767 0.949 . S
H792 C769 0.950 . S
H793 C771 0.950 . S
C794 C795 1.349 . S
C794 C796 1.327 . S
C794 H819 0.950 . S
C795 C794 1.349 . S
C795 C811 1.349 . S
C796 C794 1.327 . S
C796 C815 1.429 . S
C796 H820 0.950 . S
C797 C814 1.574 . S
C797 C816 1.368 . S
C797 H821 0.949 . S
H798 C802 0.949 . S
C799 C800 1.349 . S
C799 C801 1.327 . S
C799 H822 0.950 . S
C800 C799 1.349 . S
C800 C812 1.349 . S
C801 C799 1.327 . S
C801 C817 1.429 . S
C801 H823 0.950 . S
C802 H798 0.949 . S
C802 C810 1.574 . S
C802 C818 1.368 . S
H803 C811 0.950 . S
H804 C809 0.950 . S
H805 C810 0.949 . S
H806 C812 0.950 . S
H807 C813 0.950 . S
H808 C814 0.949 . S
C809 H804 0.950 . S
C809 C811 1.327 . S
C809 C815 1.429 . S
C810 C802 1.574 . S
C810 H805 0.949 . S
C810 C816 1.368 . S
C811 C795 1.349 . S
C811 H803 0.950 . S
C811 C809 1.327 . S
C812 C800 1.349 . S
C812 H806 0.950 . S
C812 C813 1.327 . S
C813 H807 0.950 . S
C813 C812 1.327 . S
C813 C817 1.429 . S
C814 C797 1.574 . S
C814 H808 0.949 . S
C814 C818 1.368 . S
C815 C796 1.429 . S
C815 C809 1.429 . S
C815 C816 1.523 . S
C816 C797 1.368 . S
C816 C810 1.368 . S
C816 C815 1.523 . S
C817 C801 1.429 . S
C817 C813 1.429 . S
C817 C818 1.523 . S
C818 C802 1.368 . S
C818 C814 1.368 . S
C818 C817 1.523 . S
H819 C794 0.950 . S
H820 C796 0.950 . S
H821 C797 0.949 . S
H822 C799 0.950 . S
H823 C801 0.950 . S
C824 C825 1.349 . S
C824 C826 1.327 . S
C824 H849 0.950 . S
C825 C824 1.349 . S
C825 C841 1.349 . S
C826 C824 1.327 . S
C826 C845 1.429 . S
C826 H850 0.950 . S
C827 C844 1.574 . S
C827 C846 1.368 . S
C827 H851 0.949 . S
H828 C832 0.949 . S
C829 C830 1.349 . S
C829 C831 1.327 . S
C829 H852 0.950 . S
C830 C829 1.349 . S
C830 C842 1.349 . S
C831 C829 1.327 . S
C831 C847 1.429 . S
C831 H853 0.950 . S
C832 H828 0.949 . S
C832 C840 1.574 . S
C832 C848 1.368 . S
H833 C841 0.950 . S
H834 C839 0.950 . S
H835 C840 0.949 . S
H836 C842 0.950 . S
H837 C843 0.950 . S
H838 C844 0.949 . S
C839 H834 0.950 . S
C839 C841 1.327 . S
C839 C845 1.429 . S
C840 C832 1.574 . S
C840 H835 0.949 . S
C840 C846 1.368 . S
C841 C825 1.349 . S
C841 H833 0.950 . S
C841 C839 1.327 . S
C842 C830 1.349 . S
C842 H836 0.950 . S
C842 C843 1.327 . S
C843 H837 0.950 . S
C843 C842 1.327 . S
C843 C847 1.429 . S
C844 C827 1.574 . S
C844 H838 0.949 . S
C844 C848 1.368 . S
C845 C826 1.429 . S
C845 C839 1.429 . S
C845 C846 1.523 . S
C846 C827 1.368 . S
C846 C840 1.368 . S
C846 C845 1.523 . S
C847 C831 1.429 . S
C847 C843 1.429 . S
C847 C848 1.523 . S
C848 C832 1.368 . S
C848 C844 1.368 . S
C848 C847 1.523 . S
H849 C824 0.950 . S
H850 C826 0.950 . S
H851 C827 0.949 . S
H852 C829 0.950 . S
H853 C831 0.950 . S
C854 C855 1.349 . S
C854 C856 1.327 . S
C854 H879 0.950 . S
C855 C854 1.349 . S
C855 C871 1.349 . S
C856 C854 1.327 . S
C856 C875 1.429 . S
C856 H880 0.950 . S
C857 C874 1.574 . S
C857 C876 1.368 . S
C857 H881 0.949 . S
H858 C862 0.949 . S
C859 C860 1.349 . S
C859 C861 1.327 . S
C859 H882 0.950 . S
C860 C859 1.349 . S
C860 C872 1.349 . S
C861 C859 1.327 . S
C861 C877 1.429 . S
C861 H883 0.950 . S
C862 H858 0.949 . S
C862 C870 1.574 . S
C862 C878 1.368 . S
H863 C871 0.950 . S
H864 C869 0.950 . S
H865 C870 0.949 . S
H866 C872 0.950 . S
H867 C873 0.950 . S
H868 C874 0.949 . S
C869 H864 0.950 . S
C869 C871 1.327 . S
C869 C875 1.429 . S
C870 C862 1.574 . S
C870 H865 0.949 . S
C870 C876 1.368 . S
C871 C855 1.349 . S
C871 H863 0.950 . S
C871 C869 1.327 . S
C872 C860 1.349 . S
C872 H866 0.950 . S
C872 C873 1.327 . S
C873 H867 0.950 . S
C873 C872 1.327 . S
C873 C877 1.429 . S
C874 C857 1.574 . S
C874 H868 0.949 . S
C874 C878 1.368 . S
C875 C856 1.429 . S
C875 C869 1.429 . S
C875 C876 1.523 . S
C876 C857 1.368 . S
C876 C870 1.368 . S
C876 C875 1.523 . S
C877 C861 1.429 . S
C877 C873 1.429 . S
C877 C878 1.523 . S
C878 C862 1.368 . S
C878 C874 1.368 . S
C878 C877 1.523 . S
H879 C854 0.950 . S
H880 C856 0.950 . S
H881 C857 0.949 . S
H882 C859 0.950 . S
H883 C861 0.950 . S
C884 C885 1.349 . S
C884 C886 1.327 . S
C884 H909 0.950 . S
C885 C884 1.349 . S
C885 C901 1.349 . S
C886 C884 1.327 . S
C886 C905 1.429 . S
C886 H910 0.950 . S
C887 C904 1.574 . S
C887 C906 1.368 . S
C887 H911 0.949 . S
H888 C892 0.949 . S
C889 C890 1.349 . S
C889 C891 1.327 . S
C889 H912 0.950 . S
C890 C889 1.349 . S
C890 C902 1.349 . S
C891 C889 1.327 . S
C891 C907 1.429 . S
C891 H913 0.950 . S
C892 H888 0.949 . S
C892 C900 1.574 . S
C892 C908 1.368 . S
H893 C901 0.950 . S
H894 C899 0.950 . S
H895 C900 0.949 . S
H896 C902 0.950 . S
H897 C903 0.950 . S
H898 C904 0.949 . S
C899 H894 0.950 . S
C899 C901 1.327 . S
C899 C905 1.429 . S
C900 C892 1.574 . S
C900 H895 0.949 . S
C900 C906 1.368 . S
C901 C885 1.349 . S
C901 H893 0.950 . S
C901 C899 1.327 . S
C902 C890 1.349 . S
C902 H896 0.950 . S
C902 C903 1.327 . S
C903 H897 0.950 . S
C903 C902 1.327 . S
C903 C907 1.429 . S
C904 C887 1.574 . S
C904 H898 0.949 . S
C904 C908 1.368 . S
C905 C886 1.429 . S
C905 C899 1.429 . S
C905 C906 1.523 . S
C906 C887 1.368 . S
C906 C900 1.368 . S
C906 C905 1.523 . S
C907 C891 1.429 . S
C907 C903 1.429 . S
C907 C908 1.523 . S
C908 C892 1.368 . S
C908 C904 1.368 . S
C908 C907 1.523 . S
H909 C884 0.950 . S
H910 C886 0.950 . S
H911 C887 0.949 . S
H912 C889 0.950 . S
H913 C891 0.950 . S
C914 C915 1.349 . S
C914 C916 1.327 . S
C914 H939 0.950 . S
C915 C914 1.349 . S
C915 C931 1.349 . S
C916 C914 1.327 . S
C916 C935 1.429 . S
C916 H940 0.950 . S
C917 C934 1.574 . S
C917 C936 1.368 . S
C917 H941 0.949 . S
H918 C922 0.949 . S
C919 C920 1.349 . S
C919 C921 1.327 . S
C919 H942 0.950 . S
C920 C919 1.349 . S
C920 C932 1.349 . S
C921 C919 1.327 . S
C921 C937 1.429 . S
C921 H943 0.950 . S
C922 H918 0.949 . S
C922 C930 1.574 . S
C922 C938 1.368 . S
H923 C931 0.950 . S
H924 C929 0.950 . S
H925 C930 0.949 . S
H926 C932 0.950 . S
H927 C933 0.950 . S
H928 C934 0.949 . S
C929 H924 0.950 . S
C929 C931 1.327 . S
C929 C935 1.429 . S
C930 C922 1.574 . S
C930 H925 0.949 . S
C930 C936 1.368 . S
C931 C915 1.349 . S
C931 H923 0.950 . S
C931 C929 1.327 . S
C932 C920 1.349 . S
C932 H926 0.950 . S
C932 C933 1.327 . S
C933 H927 0.950 . S
C933 C932 1.327 . S
C933 C937 1.429 . S
C934 C917 1.574 . S
C934 H928 0.949 . S
C934 C938 1.368 . S
C935 C916 1.429 . S
C935 C929 1.429 . S
C935 C936 1.523 . S
C936 C917 1.368 . S
C936 C930 1.368 . S
C936 C935 1.523 . S
C937 C921 1.429 . S
C937 C933 1.429 . S
C937 C938 1.523 . S
C938 C922 1.368 . S
C938 C934 1.368 . S
C938 C937 1.523 . S
H939 C914 0.950 . S
H940 C916 0.950 . S
H941 C917 0.949 . S
H942 C919 0.950 . S
H943 C921 0.950 . S
C944 C945 1.349 . S
C944 C946 1.327 . S
C944 H969 0.950 . S
C945 C944 1.349 . S
C945 C961 1.349 . S
C946 C944 1.327 . S
C946 C965 1.429 . S
C946 H970 0.950 . S
C947 C964 1.574 . S
C947 C966 1.368 1_565 S
C947 H971 0.949 . S
H948 C952 0.949 . S
C949 C950 1.349 . S
C949 C951 1.327 . S
C949 H972 0.950 . S
C950 C949 1.349 . S
C950 C962 1.349 . S
C951 C949 1.327 . S
C951 C967 1.429 . S
C951 H973 0.950 . S
C952 H948 0.949 . S
C952 C960 1.574 . S
C952 C968 1.368 1_545 S
H953 C961 0.950 1_565 S
H954 C959 0.950 . S
H955 C960 0.949 . S
H956 C962 0.950 1_545 S
H957 C963 0.950 . S
H958 C964 0.949 . S
C959 H954 0.950 . S
C959 C961 1.327 1_565 S
C959 C965 1.429 1_565 S
C960 C952 1.574 . S
C960 H955 0.949 . S
C960 C966 1.368 . S
C961 C945 1.349 . S
C961 H953 0.950 1_545 S
C961 C959 1.327 1_545 S
C962 C950 1.349 . S
C962 H956 0.950 1_565 S
C962 C963 1.327 1_565 S
C963 H957 0.950 . S
C963 C962 1.327 1_545 S
C963 C967 1.429 1_545 S
C964 C947 1.574 . S
C964 H958 0.949 . S
C964 C968 1.368 . S
C965 C946 1.429 . S
C965 C959 1.429 1_545 S
C965 C966 1.523 . S
C966 C947 1.368 1_545 S
C966 C960 1.368 . S
C966 C965 1.523 . S
C967 C951 1.429 . S
C967 C963 1.429 1_565 S
C967 C968 1.523 . S
C968 C952 1.368 1_565 S
C968 C964 1.368 . S
C968 C967 1.523 . S
H969 C944 0.950 . S
H970 C946 0.950 . S
H971 C947 0.949 . S
H972 C949 0.950 . S
H973 C951 0.950 . S
C974 C975 1.349 . S
C974 C976 1.326 . S
C974 H999 0.950 1_545 S
C975 C974 1.349 . S
C975 C991 1.349 . S
C976 C974 1.326 . S
C976 C995 1.426 . S
C976 H1000 0.953 1_545 S
C977 C994 1.574 . S
C977 C996 1.368 . S
C977 H1001 0.949 . S
H978 C982 0.949 . S
C979 C980 1.349 . S
C979 C981 1.326 . S
C979 H1002 0.950 1_565 S
C980 C979 1.349 . S
C980 C992 1.349 . S
C981 C979 1.326 . S
C981 C997 1.426 . S
C981 H1003 0.953 1_565 S
C982 H978 0.949 . S
C982 C990 1.574 . S
C982 C998 1.368 . S
H983 C991 0.950 . S
H984 C989 0.950 . S
H985 C990 0.949 . S
H986 C992 0.950 . S
H987 C993 0.950 . S
H988 C994 0.949 . S
C989 H984 0.950 . S
C989 C991 1.327 . S
C989 C995 1.429 . S
C990 C982 1.574 . S
C990 H985 0.949 . S
C990 C996 1.368 1_565 S
C991 C975 1.349 . S
C991 H983 0.950 . S
C991 C989 1.327 . S
C992 C980 1.349 . S
C992 H986 0.950 . S
C992 C993 1.327 . S
C993 H987 0.950 . S
C993 C992 1.327 . S
C993 C997 1.429 . S
C994 C977 1.574 . S
C994 H988 0.949 . S
C994 C998 1.368 1_545 S
C995 C976 1.426 . S
C995 C989 1.429 . S
C995 C996 1.523 . S
C996 C977 1.368 . S
C996 C990 1.368 1_545 S
C996 C995 1.523 . S
C997 C981 1.426 . S
C997 C993 1.429 . S
C997 C998 1.523 . S
C998 C982 1.368 . S
C998 C994 1.368 1_565 S
C998 C997 1.523 . S
H999 C974 0.950 1_565 S
H1000 C976 0.953 1_565 S
H1001 C977 0.949 . S
H1002 C979 0.950 1_545 S
H1003 C981 0.953 1_545 S
C1004 C1005 1.349 . S
C1004 C1006 1.327 . S
C1004 H1029 0.950 . S
C1005 C1004 1.349 . S
C1005 C1021 1.349 . S
C1006 C1004 1.327 . S
C1006 C1025 1.429 . S
C1006 H1030 0.950 . S
C1007 C1024 1.574 . S
C1007 C1026 1.368 1_565 S
C1007 H1031 0.949 . S
H1008 C1012 0.949 . S
C1009 C1010 1.349 . S
C1009 C1011 1.327 . S
C1009 H1032 0.950 . S
C1010 C1009 1.349 . S
C1010 C1022 1.349 . S
C1011 C1009 1.327 . S
C1011 C1027 1.429 . S
C1011 H1033 0.950 . S
C1012 H1008 0.949 . S
C1012 C1020 1.574 . S
C1012 C1028 1.368 1_545 S
H1013 C1021 0.950 1_565 S
H1014 C1019 0.950 . S
H1015 C1020 0.949 . S
H1016 C1022 0.950 1_545 S
H1017 C1023 0.950 . S
H1018 C1024 0.949 . S
C1019 H1014 0.950 . S
C1019 C1021 1.327 1_565 S
C1019 C1025 1.429 1_565 S
C1020 C1012 1.574 . S
C1020 H1015 0.949 . S
C1020 C1026 1.368 . S
C1021 C1005 1.349 . S
C1021 H1013 0.950 1_545 S
C1021 C1019 1.327 1_545 S
C1022 C1010 1.349 . S
C1022 H1016 0.950 1_565 S
C1022 C1023 1.327 1_565 S
C1023 H1017 0.950 . S
C1023 C1022 1.327 1_545 S
C1023 C1027 1.429 1_545 S
C1024 C1007 1.574 . S
C1024 H1018 0.949 . S
C1024 C1028 1.368 . S
C1025 C1006 1.429 . S
C1025 C1019 1.429 1_545 S
C1025 C1026 1.523 . S
C1026 C1007 1.368 1_545 S
C1026 C1020 1.368 . S
C1026 C1025 1.523 . S
C1027 C1011 1.429 . S
C1027 C1023 1.429 1_565 S
C1027 C1028 1.523 . S
C1028 C1012 1.368 1_565 S
C1028 C1024 1.368 . S
C1028 C1027 1.523 . S
H1029 C1004 0.950 . S
H1030 C1006 0.950 . S
H1031 C1007 0.949 . S
H1032 C1009 0.950 . S
H1033 C1011 0.950 . S
C1034 C1035 1.349 . S
C1034 C1036 1.327 . S
C1034 H1059 0.950 . S
C1035 C1034 1.349 . S
C1035 C1051 1.349 . S
C1036 C1034 1.327 . S
C1036 C1055 1.429 . S
C1036 H1060 0.950 . S
C1037 C1054 1.574 . S
C1037 C1056 1.368 1_545 S
C1037 H1061 0.949 . S
H1038 C1042 0.949 . S
C1039 C1040 1.349 . S
C1039 C1041 1.327 . S
C1039 H1062 0.950 . S
C1040 C1039 1.349 . S
C1040 C1052 1.349 . S
C1041 C1039 1.327 . S
C1041 C1057 1.429 . S
C1041 H1063 0.950 . S
C1042 H1038 0.949 . S
C1042 C1050 1.574 . S
C1042 C1058 1.368 1_565 S
H1043 C1051 0.950 1_545 S
H1044 C1049 0.950 . S
H1045 C1050 0.949 . S
H1046 C1052 0.950 1_565 S
H1047 C1053 0.950 . S
H1048 C1054 0.949 . S
C1049 H1044 0.950 . S
C1049 C1051 1.327 1_545 S
C1049 C1055 1.429 1_545 S
C1050 C1042 1.574 . S
C1050 H1045 0.949 . S
C1050 C1056 1.368 . S
C1051 C1035 1.349 . S
C1051 H1043 0.950 1_565 S
C1051 C1049 1.327 1_565 S
C1052 C1040 1.349 . S
C1052 H1046 0.950 1_545 S
C1052 C1053 1.327 1_545 S
C1053 H1047 0.950 . S
C1053 C1052 1.327 1_565 S
C1053 C1057 1.429 1_565 S
C1054 C1037 1.574 . S
C1054 H1048 0.949 . S
C1054 C1058 1.368 . S
C1055 C1036 1.429 . S
C1055 C1049 1.429 1_565 S
C1055 C1056 1.523 . S
C1056 C1037 1.368 1_565 S
C1056 C1050 1.368 . S
C1056 C1055 1.523 . S
C1057 C1041 1.429 . S
C1057 C1053 1.429 1_545 S
C1057 C1058 1.523 . S
C1058 C1042 1.368 1_545 S
C1058 C1054 1.368 . S
C1058 C1057 1.523 . S
H1059 C1034 0.950 . S
H1060 C1036 0.950 . S
H1061 C1037 0.949 . S
H1062 C1039 0.950 . S
H1063 C1041 0.950 . S
C1064 C1065 1.349 . S
C1064 C1066 1.327 . S
C1064 H1089 0.950 . S
C1065 C1064 1.349 . S
C1065 C1081 1.349 . S
C1066 C1064 1.327 . S
C1066 C1085 1.429 . S
C1066 H1090 0.950 . S
C1067 C1084 1.574 . S
C1067 C1086 1.368 . S
C1067 H1091 0.949 . S
H1068 C1072 0.949 . S
C1069 C1070 1.349 . S
C1069 C1071 1.327 . S
C1069 H1092 0.950 . S
C1070 C1069 1.349 . S
C1070 C1082 1.349 . S
C1071 C1069 1.327 . S
C1071 C1087 1.429 . S
C1071 H1093 0.950 . S
C1072 H1068 0.949 . S
C1072 C1080 1.574 . S
C1072 C1088 1.368 . S
H1073 C1081 0.950 . S
H1074 C1079 0.950 . S
H1075 C1080 0.949 . S
H1076 C1082 0.950 . S
H1077 C1083 0.950 . S
H1078 C1084 0.949 . S
C1079 H1074 0.950 . S
C1079 C1081 1.327 . S
C1079 C1085 1.429 . S
C1080 C1072 1.574 . S
C1080 H1075 0.949 . S
C1080 C1086 1.368 . S
C1081 C1065 1.349 . S
C1081 H1073 0.950 . S
C1081 C1079 1.327 . S
C1082 C1070 1.349 . S
C1082 H1076 0.950 . S
C1082 C1083 1.327 . S
C1083 H1077 0.950 . S
C1083 C1082 1.327 . S
C1083 C1087 1.429 . S
C1084 C1067 1.574 . S
C1084 H1078 0.949 . S
C1084 C1088 1.368 . S
C1085 C1066 1.429 . S
C1085 C1079 1.429 . S
C1085 C1086 1.523 . S
C1086 C1067 1.368 . S
C1086 C1080 1.368 . S
C1086 C1085 1.523 . S
C1087 C1071 1.429 . S
C1087 C1083 1.429 . S
C1087 C1088 1.523 . S
C1088 C1072 1.368 . S
C1088 C1084 1.368 . S
C1088 C1087 1.523 . S
H1089 C1064 0.950 . S
H1090 C1066 0.950 . S
H1091 C1067 0.949 . S
H1092 C1069 0.950 . S
H1093 C1071 0.950 . S
C1094 C1095 1.349 . S
C1094 C1096 1.327 . S
C1094 H1119 0.950 . S
C1095 C1094 1.349 . S
C1095 C1111 1.349 . S
C1096 C1094 1.327 . S
C1096 C1115 1.429 . S
C1096 H1120 0.950 . S
C1097 C1114 1.574 . S
C1097 C1116 1.368 . S
C1097 H1121 0.949 . S
H1098 C1102 0.949 . S
C1099 C1100 1.349 . S
C1099 C1101 1.327 . S
C1099 H1122 0.950 . S
C1100 C1099 1.349 . S
C1100 C1112 1.349 . S
C1101 C1099 1.327 . S
C1101 C1117 1.429 . S
C1101 H1123 0.950 . S
C1102 H1098 0.949 . S
C1102 C1110 1.574 . S
C1102 C1118 1.368 . S
H1103 C1111 0.950 . S
H1104 C1109 0.950 . S
H1105 C1110 0.949 . S
H1106 C1112 0.950 . S
H1107 C1113 0.950 . S
H1108 C1114 0.949 . S
C1109 H1104 0.950 . S
C1109 C1111 1.327 . S
C1109 C1115 1.429 . S
C1110 C1102 1.574 . S
C1110 H1105 0.949 . S
C1110 C1116 1.368 . S
C1111 C1095 1.349 . S
C1111 H1103 0.950 . S
C1111 C1109 1.327 . S
C1112 C1100 1.349 . S
C1112 H1106 0.950 . S
C1112 C1113 1.327 . S
C1113 H1107 0.950 . S
C1113 C1112 1.327 . S
C1113 C1117 1.429 . S
C1114 C1097 1.574 . S
C1114 H1108 0.949 . S
C1114 C1118 1.368 . S
C1115 C1096 1.429 . S
C1115 C1109 1.429 . S
C1115 C1116 1.523 . S
C1116 C1097 1.368 . S
C1116 C1110 1.368 . S
C1116 C1115 1.523 . S
C1117 C1101 1.429 . S
C1117 C1113 1.429 . S
C1117 C1118 1.523 . S
C1118 C1102 1.368 . S
C1118 C1114 1.368 . S
C1118 C1117 1.523 . S
H1119 C1094 0.950 . S
H1120 C1096 0.950 . S
H1121 C1097 0.949 . S
H1122 C1099 0.950 . S
H1123 C1101 0.950 . S
C1124 C1125 1.349 . S
C1124 C1126 1.327 . S
C1124 H1149 0.950 . S
C1125 C1124 1.349 . S
C1125 C1141 1.349 . S
C1126 C1124 1.327 . S
C1126 C1145 1.429 . S
C1126 H1150 0.950 . S
C1127 C1144 1.574 . S
C1127 C1146 1.368 . S
C1127 H1151 0.949 . S
H1128 C1132 0.949 . S
C1129 C1130 1.349 . S
C1129 C1131 1.327 . S
C1129 H1152 0.950 . S
C1130 C1129 1.349 . S
C1130 C1142 1.349 . S
C1131 C1129 1.327 . S
C1131 C1147 1.429 . S
C1131 H1153 0.950 . S
C1132 H1128 0.949 . S
C1132 C1140 1.574 . S
C1132 C1148 1.368 . S
H1133 C1141 0.950 . S
H1134 C1139 0.950 . S
H1135 C1140 0.949 . S
H1136 C1142 0.950 . S
H1137 C1143 0.950 . S
H1138 C1144 0.949 . S
C1139 H1134 0.950 . S
C1139 C1141 1.327 . S
C1139 C1145 1.429 . S
C1140 C1132 1.574 . S
C1140 H1135 0.949 . S
C1140 C1146 1.368 . S
C1141 C1125 1.349 . S
C1141 H1133 0.950 . S
C1141 C1139 1.327 . S
C1142 C1130 1.349 . S
C1142 H1136 0.950 . S
C1142 C1143 1.327 . S
C1143 H1137 0.950 . S
C1143 C1142 1.327 . S
C1143 C1147 1.429 . S
C1144 C1127 1.574 . S
C1144 H1138 0.949 . S
C1144 C1148 1.368 . S
C1145 C1126 1.429 . S
C1145 C1139 1.429 . S
C1145 C1146 1.523 . S
C1146 C1127 1.368 . S
C1146 C1140 1.368 . S
C1146 C1145 1.523 . S
C1147 C1131 1.429 . S
C1147 C1143 1.429 . S
C1147 C1148 1.523 . S
C1148 C1132 1.368 . S
C1148 C1144 1.368 . S
C1148 C1147 1.523 . S
H1149 C1124 0.950 . S
H1150 C1126 0.950 . S
H1151 C1127 0.949 . S
H1152 C1129 0.950 . S
H1153 C1131 0.950 . S
C1154 C1155 1.349 . S
C1154 C1156 1.327 . S
C1154 H1179 0.950 . S
C1155 C1154 1.349 . S
C1155 C1171 1.349 . S
C1156 C1154 1.327 . S
C1156 C1175 1.429 . S
C1156 H1180 0.950 . S
C1157 C1174 1.574 . S
C1157 C1176 1.368 . S
C1157 H1181 0.949 . S
H1158 C1162 0.949 . S
C1159 C1160 1.349 . S
C1159 C1161 1.327 . S
C1159 H1182 0.950 . S
C1160 C1159 1.349 . S
C1160 C1172 1.349 . S
C1161 C1159 1.327 . S
C1161 C1177 1.429 . S
C1161 H1183 0.950 . S
C1162 H1158 0.949 . S
C1162 C1170 1.574 . S
C1162 C1178 1.368 . S
H1163 C1171 0.950 . S
H1164 C1169 0.950 . S
H1165 C1170 0.949 . S
H1166 C1172 0.950 . S
H1167 C1173 0.950 . S
H1168 C1174 0.949 . S
C1169 H1164 0.950 . S
C1169 C1171 1.327 . S
C1169 C1175 1.429 . S
C1170 C1162 1.574 . S
C1170 H1165 0.949 . S
C1170 C1176 1.368 . S
C1171 C1155 1.349 . S
C1171 H1163 0.950 . S
C1171 C1169 1.327 . S
C1172 C1160 1.349 . S
C1172 H1166 0.950 . S
C1172 C1173 1.327 . S
C1173 H1167 0.950 . S
C1173 C1172 1.327 . S
C1173 C1177 1.429 . S
C1174 C1157 1.574 . S
C1174 H1168 0.949 . S
C1174 C1178 1.368 . S
C1175 C1156 1.429 . S
C1175 C1169 1.429 . S
C1175 C1176 1.523 . S
C1176 C1157 1.368 . S
C1176 C1170 1.368 . S
C1176 C1175 1.523 . S
C1177 C1161 1.429 . S
C1177 C1173 1.429 . S
C1177 C1178 1.523 . S
C1178 C1162 1.368 . S
C1178 C1174 1.368 . S
C1178 C1177 1.523 . S
H1179 C1154 0.950 . S
H1180 C1156 0.950 . S
H1181 C1157 0.949 . S
H1182 C1159 0.950 . S
H1183 C1161 0.950 . S
C225 C8 1.134 . S
C230 C78 1.134 . S
C255 C64 1.134 . S
C260 C22 1.134 . S
C285 C36 1.134 . S
C290 C106 1.134 . S
C315 C92 1.134 . S
C320 C50 1.134 . S
C345 C190 1.134 . S
C350 C120 1.134 . S
C375 C176 1.134 . S
C380 C134 1.134 . S
C405 C218 1.134 . S
C410 C148 1.134 . S
C435 C162 1.134 . S
C440 C204 1.134 . S
C465 C23 1.512 . S
C470 C9 1.512 . S
C495 C37 1.512 . S
C500 C51 1.512 . S
C525 C65 1.512 . S
C530 C79 1.512 . S
C555 C93 1.512 . S
C560 C107 1.512 . S
C585 C121 1.512 . S
C590 C135 1.512 . S
C615 C163 1.512 . S
C620 C149 1.512 . S
C645 C191 1.512 . S
C650 C177 1.512 . S
C675 C205 1.512 . S
C680 C219 1.512 . S
C705 C132 1.557 . S
C710 C6 1.557 . S
C735 C20 1.557 . S
C740 C118 1.557 . S
C765 C160 1.557 . S
C770 C34 1.557 . S
C795 C48 1.557 . S
C800 C146 1.557 . S
C825 C62 1.557 . S
C830 C188 1.557 . S
C855 C174 1.557 . S
C860 C76 1.557 . S
C885 C90 1.557 . S
C890 C216 1.557 . S
C915 C202 1.557 . S
C920 C104 1.557 . S
C945 C7 1.317 . S
C950 C35 1.317 . S
C975 C49 1.317 . S
C980 C21 1.317 . S
C1005 C91 1.317 . S
C1010 C63 1.317 . S
C1035 C105 1.317 . S
C1040 C77 1.317 . S
C1065 C147 1.317 . S
C1070 C119 1.317 . S
C1095 C133 1.317 . S
C1100 C161 1.317 . S
C1125 C203 1.317 . S
C1130 C175 1.317 . S
C1155 C189 1.317 . S
C1160 C217 1.317 . S
