# Generated by pormake.
# Topology lcv-e, (6)-cn, num edge types: 1
# Building blocks:
#     Node 0, Type 0, BuildingBlock: MAKGUD_clean_sbu_1, # of connection points: 6
#     Node 1, Type 0, BuildingBlock: MAKGUD_clean_sbu_1, # of connection points: 6
#     Node 2, Type 0, BuildingBlock: MAKGUD_clean_sbu_1, # of connection points: 6
#     Node 3, Type 0, BuildingBlock: MAKGUD_clean_sbu_1, # of connection points: 6
#     Node 4, Type 0, BuildingBlock: MAKGUD_clean_sbu_1, # of connection points: 6
#     Node 5, Type 0, BuildingBlock: MAKGUD_clean_sbu_1, # of connection points: 6
#     Node 6, Type 0, BuildingBlock: MAKGUD_clean_sbu_1, # of connection points: 6
#     Node 7, Type 0, BuildingBlock: MAKGUD_clean_sbu_1, # of connection points: 6
#     Node 8, Type 0, BuildingBlock: MAKGUD_clean_sbu_1, # of connection points: 6
#     Node 9, Type 0, BuildingBlock: MAKGUD_clean_sbu_1, # of connection points: 6
#     Node 10, Type 0, BuildingBlock: MAKGUD_clean_sbu_1, # of connection points: 6
#     Node 11, Type 0, BuildingBlock: MAKGUD_clean_sbu_1, # of connection points: 6
#     Node 12, Type 0, BuildingBlock: MAKGUD_clean_sbu_1, # of connection points: 6
#     Node 13, Type 0, BuildingBlock: MAKGUD_clean_sbu_1, # of connection points: 6
#     Node 14, Type 0, BuildingBlock: MAKGUD_clean_sbu_1, # of connection points: 6
#     Node 15, Type 0, BuildingBlock: MAKGUD_clean_sbu_1, # of connection points: 6
#     Node 16, Type 0, BuildingBlock: MAKGUD_clean_sbu_1, # of connection points: 6
#     Node 17, Type 0, BuildingBlock: MAKGUD_clean_sbu_1, # of connection points: 6
#     Node 18, Type 0, BuildingBlock: MAKGUD_clean_sbu_1, # of connection points: 6
#     Node 19, Type 0, BuildingBlock: MAKGUD_clean_sbu_1, # of connection points: 6
#     Node 20, Type 0, BuildingBlock: MAKGUD_clean_sbu_1, # of connection points: 6
#     Node 21, Type 0, BuildingBlock: MAKGUD_clean_sbu_1, # of connection points: 6
#     Node 22, Type 0, BuildingBlock: MAKGUD_clean_sbu_1, # of connection points: 6
#     Node 23, Type 0, BuildingBlock: MAKGUD_clean_sbu_1, # of connection points: 6
#     Edge 24, Type (0, 0), BuildingBlock: OJICUG_clean_linker_0, # of connection points: 2
#     Edge 25, Type (0, 0), BuildingBlock: OJICUG_clean_linker_0, # of connection points: 2
#     Edge 26, Type (0, 0), BuildingBlock: OJICUG_clean_linker_0, # of connection points: 2
#     Edge 27, Type (0, 0), BuildingBlock: OJICUG_clean_linker_0, # of connection points: 2
#     Edge 28, Type (0, 0), BuildingBlock: OJICUG_clean_linker_0, # of connection points: 2
#     Edge 29, Type (0, 0), BuildingBlock: OJICUG_clean_linker_0, # of connection points: 2
#     Edge 30, Type (0, 0), BuildingBlock: OJICUG_clean_linker_0, # of connection points: 2
#     Edge 31, Type (0, 0), BuildingBlock: OJICUG_clean_linker_0, # of connection points: 2
#     Edge 32, Type (0, 0), BuildingBlock: OJICUG_clean_linker_0, # of connection points: 2
#     Edge 33, Type (0, 0), BuildingBlock: OJICUG_clean_linker_0, # of connection points: 2
#     Edge 34, Type (0, 0), BuildingBlock: OJICUG_clean_linker_0, # of connection points: 2
#     Edge 35, Type (0, 0), BuildingBlock: OJICUG_clean_linker_0, # of connection points: 2
#     Edge 36, Type (0, 0), BuildingBlock: OJICUG_clean_linker_0, # of connection points: 2
#     Edge 37, Type (0, 0), BuildingBlock: OJICUG_clean_linker_0, # of connection points: 2
#     Edge 38, Type (0, 0), BuildingBlock: OJICUG_clean_linker_0, # of connection points: 2
#     Edge 39, Type (0, 0), BuildingBlock: OJICUG_clean_linker_0, # of connection points: 2
#     Edge 40, Type (0, 0), BuildingBlock: OJICUG_clean_linker_0, # of connection points: 2
#     Edge 41, Type (0, 0), BuildingBlock: OJICUG_clean_linker_0, # of connection points: 2
#     Edge 42, Type (0, 0), BuildingBlock: OJICUG_clean_linker_0, # of connection points: 2
#     Edge 43, Type (0, 0), BuildingBlock: OJICUG_clean_linker_0, # of connection points: 2
#     Edge 44, Type (0, 0), BuildingBlock: OJICUG_clean_linker_0, # of connection points: 2
#     Edge 45, Type (0, 0), BuildingBlock: OJICUG_clean_linker_0, # of connection points: 2
#     Edge 46, Type (0, 0), BuildingBlock: OJICUG_clean_linker_0, # of connection points: 2
#     Edge 47, Type (0, 0), BuildingBlock: OJICUG_clean_linker_0, # of connection points: 2
#     Edge 48, Type (0, 0), BuildingBlock: OJICUG_clean_linker_0, # of connection points: 2
#     Edge 49, Type (0, 0), BuildingBlock: OJICUG_clean_linker_0, # of connection points: 2
#     Edge 50, Type (0, 0), BuildingBlock: OJICUG_clean_linker_0, # of connection points: 2
#     Edge 51, Type (0, 0), BuildingBlock: OJICUG_clean_linker_0, # of connection points: 2
#     Edge 52, Type (0, 0), BuildingBlock: OJICUG_clean_linker_0, # of connection points: 2
#     Edge 53, Type (0, 0), BuildingBlock: OJICUG_clean_linker_0, # of connection points: 2
#     Edge 54, Type (0, 0), BuildingBlock: OJICUG_clean_linker_0, # of connection points: 2
#     Edge 55, Type (0, 0), BuildingBlock: OJICUG_clean_linker_0, # of connection points: 2
#     Edge 56, Type (0, 0), BuildingBlock: OJICUG_clean_linker_0, # of connection points: 2
#     Edge 57, Type (0, 0), BuildingBlock: OJICUG_clean_linker_0, # of connection points: 2
#     Edge 58, Type (0, 0), BuildingBlock: OJICUG_clean_linker_0, # of connection points: 2
#     Edge 59, Type (0, 0), BuildingBlock: OJICUG_clean_linker_0, # of connection points: 2
#     Edge 60, Type (0, 0), BuildingBlock: OJICUG_clean_linker_0, # of connection points: 2
#     Edge 61, Type (0, 0), BuildingBlock: OJICUG_clean_linker_0, # of connection points: 2
#     Edge 62, Type (0, 0), BuildingBlock: OJICUG_clean_linker_0, # of connection points: 2
#     Edge 63, Type (0, 0), BuildingBlock: OJICUG_clean_linker_0, # of connection points: 2
#     Edge 64, Type (0, 0), BuildingBlock: OJICUG_clean_linker_0, # of connection points: 2
#     Edge 65, Type (0, 0), BuildingBlock: OJICUG_clean_linker_0, # of connection points: 2
#     Edge 66, Type (0, 0), BuildingBlock: OJICUG_clean_linker_0, # of connection points: 2
#     Edge 67, Type (0, 0), BuildingBlock: OJICUG_clean_linker_0, # of connection points: 2
#     Edge 68, Type (0, 0), BuildingBlock: OJICUG_clean_linker_0, # of connection points: 2
#     Edge 69, Type (0, 0), BuildingBlock: OJICUG_clean_linker_0, # of connection points: 2
#     Edge 70, Type (0, 0), BuildingBlock: OJICUG_clean_linker_0, # of connection points: 2
#     Edge 71, Type (0, 0), BuildingBlock: OJICUG_clean_linker_0, # of connection points: 2
#     Edge 72, Type (0, 0), BuildingBlock: OJICUG_clean_linker_0, # of connection points: 2
#     Edge 73, Type (0, 0), BuildingBlock: OJICUG_clean_linker_0, # of connection points: 2
#     Edge 74, Type (0, 0), BuildingBlock: OJICUG_clean_linker_0, # of connection points: 2
#     Edge 75, Type (0, 0), BuildingBlock: OJICUG_clean_linker_0, # of connection points: 2
#     Edge 76, Type (0, 0), BuildingBlock: OJICUG_clean_linker_0, # of connection points: 2
#     Edge 77, Type (0, 0), BuildingBlock: OJICUG_clean_linker_0, # of connection points: 2
#     Edge 78, Type (0, 0), BuildingBlock: OJICUG_clean_linker_0, # of connection points: 2
#     Edge 79, Type (0, 0), BuildingBlock: OJICUG_clean_linker_0, # of connection points: 2
#     Edge 80, Type (0, 0), BuildingBlock: OJICUG_clean_linker_0, # of connection points: 2
#     Edge 81, Type (0, 0), BuildingBlock: OJICUG_clean_linker_0, # of connection points: 2
#     Edge 82, Type (0, 0), BuildingBlock: OJICUG_clean_linker_0, # of connection points: 2
#     Edge 83, Type (0, 0), BuildingBlock: OJICUG_clean_linker_0, # of connection points: 2
#     Edge 84, Type (0, 0), BuildingBlock: OJICUG_clean_linker_0, # of connection points: 2
#     Edge 85, Type (0, 0), BuildingBlock: OJICUG_clean_linker_0, # of connection points: 2
#     Edge 86, Type (0, 0), BuildingBlock: OJICUG_clean_linker_0, # of connection points: 2
#     Edge 87, Type (0, 0), BuildingBlock: OJICUG_clean_linker_0, # of connection points: 2
#     Edge 88, Type (0, 0), BuildingBlock: OJICUG_clean_linker_0, # of connection points: 2
#     Edge 89, Type (0, 0), BuildingBlock: OJICUG_clean_linker_0, # of connection points: 2
#     Edge 90, Type (0, 0), BuildingBlock: OJICUG_clean_linker_0, # of connection points: 2
#     Edge 91, Type (0, 0), BuildingBlock: OJICUG_clean_linker_0, # of connection points: 2
#     Edge 92, Type (0, 0), BuildingBlock: OJICUG_clean_linker_0, # of connection points: 2
#     Edge 93, Type (0, 0), BuildingBlock: OJICUG_clean_linker_0, # of connection points: 2
#     Edge 94, Type (0, 0), BuildingBlock: OJICUG_clean_linker_0, # of connection points: 2
#     Edge 95, Type (0, 0), BuildingBlock: OJICUG_clean_linker_0, # of connection points: 2
# Relax obj value: 0.242
# Max RMSD: 0.210
# Mean RMSD: 0.189
data_MOF--net-lcv-e--node1-MAKGUD_clean_sbu_1--edge1-OJICUG_clean_linker_0
_symmetry_space_group_name_H-M    P1
_symmetry_Int_Tables_number       1
_symmetry_cell_setting            triclinic
loop_
_symmetry_equiv_pos_as_xyz
'x, y, z'
_cell_length_a     45.861482
_cell_length_b     47.313005
_cell_length_c     46.537259
_cell_angle_alpha  90.6151
_cell_angle_beta   92.089658
_cell_angle_gamma 88.297806
loop_
_atom_site_label
_atom_site_type_symbol
_atom_site_fract_x
_atom_site_fract_y
_atom_site_fract_z
_atom_type_partial_charge
O0 O 0.08986 0.19316 0.362 0.0
Tb1 Tb 0.08232 0.20415 0.31644 0.0
C2 C 0.1071 0.1929 0.25623 0.0
O3 O 0.0683 0.26166 0.27454 0.0
Tb4 Tb 0.04853 0.22862 0.24743 0.0
C5 C 0.04055 0.25098 0.19567 0.0
O6 O 0.05672 0.24568 0.31873 0.0
O7 O 1.00518 0.21724 0.26027 0.0
C8 C 0.9804 0.22197 0.24515 0.0
O9 O 0.95597 0.21433 0.25626 0.0
O10 O 0.11226 0.20592 0.28098 0.0
O11 O 0.08061 0.19341 0.24416 0.0
O12 O 0.06932 0.15957 0.30549 0.0
C13 C 0.05955 0.2672 0.3007 0.0
C14 C 0.1177 0.19788 0.36351 0.0
O15 O 0.0392 0.26484 0.21977 0.0
O16 O 0.04702 0.22457 0.20062 0.0
C17 C 0.06322 0.13988 0.3247 0.0
O18 O 0.05807 0.14802 0.35113 0.0
O19 O 0.12521 0.20728 0.33878 0.0
O20 O 0.1863 0.74143 0.50382 0.0
Tb21 Tb 0.19736 0.78305 0.52216 0.0
C22 C 0.17275 0.84298 0.52231 0.0
O23 O 0.25073 0.81065 0.57591 0.0
Tb24 Tb 0.21585 0.84356 0.57162 0.0
C25 C 0.23441 0.8864 0.54238 0.0
O26 O 0.24497 0.78318 0.5338 0.0
O27 O 0.21072 0.8658 0.61291 0.0
C28 C 0.2327 0.86909 0.63167 0.0
O29 O 0.25502 0.85112 0.63107 0.0
O30 O 0.18871 0.82527 0.50737 0.0
O31 O 0.17297 0.84087 0.55051 0.0
O32 O 0.15649 0.78237 0.54608 0.0
C33 C 0.26147 0.79435 0.55506 0.0
C34 C 0.1845 0.74916 0.47695 0.0
O35 O 0.22517 0.88783 0.56823 0.0
O36 O 0.23504 0.86034 0.53323 0.0
C37 C 0.13201 0.7876 0.53056 0.0
O38 O 0.13421 0.79323 0.50318 0.0
O39 O 0.19139 0.77559 0.47569 0.0
O40 O 0.47887 0.96276 0.86745 0.0
Tb41 Tb 0.49036 0.94992 0.82327 0.0
C42 C 0.46395 0.96007 0.75902 0.0
O43 O 0.49313 0.88318 0.78609 0.0
Tb44 Tb 0.50249 0.90696 0.74748 0.0
C45 C 0.47806 0.88208 0.70059 0.0
O46 O 0.51403 0.90672 0.82569 0.0
O47 O 0.54883 0.90678 0.73659 0.0
C48 C 0.56496 0.88311 0.73825 0.0
O49 O 0.55485 0.86178 0.75233 0.0
O50 O 0.45988 0.95651 0.78662 0.0
O51 O 0.48824 0.95142 0.74683 0.0
O52 O 0.51223 0.9926 0.82551 0.0
C53 C 0.50814 0.88268 0.8109 0.0
C54 C 0.45192 0.95473 0.86612 0.0
O55 O 0.46459 0.89904 0.71823 0.0
O56 O 0.5049 0.87872 0.70982 0.0
C57 C 0.50146 1.01648 0.81311 0.0
O58 O 0.4788 1.01452 0.79522 0.0
O59 O 0.44724 0.94292 0.8411 0.0
O60 O 0.44687 0.36219 1.00862 0.0
Tb61 Tb 0.43874 0.31772 1.01687 0.0
C62 C 0.43623 0.25589 0.99472 0.0
O63 O 0.40082 0.29111 0.06347 0.0
Tb64 Tb 0.40093 0.24754 1.04969 0.0
C65 C 0.3498 0.23174 1.02746 0.0
O66 O 0.39538 0.32766 1.03374 0.0
O67 O 0.40802 0.21434 0.08151 0.0
C68 C 0.39422 0.21656 0.10585 0.0
O69 O 0.38677 0.24202 0.11505 0.0
O70 O 0.42288 0.28087 0.99311 0.0
O71 O 0.43484 0.24032 1.01813 0.0
O72 O 0.48123 0.30235 1.03658 0.0
C73 C 0.38323 0.31009 1.051 0.0
C74 C 0.44888 0.35922 0.9809 0.0
O75 O 0.35586 0.23624 0.05445 0.0
O76 O 0.37227 0.23808 1.0128 0.0
C77 C 0.50494 0.31795 1.03634 0.0
O78 O 0.50187 0.34432 1.02802 0.0
O79 O 0.44544 0.33287 0.97359 0.0
O80 O 0.09484 0.96044 0.26749 0.0
Tb81 Tb 0.09322 0.95132 0.3137 0.0
C82 C 0.12281 0.97546 0.36831 0.0
O83 O 0.10177 0.89702 0.35899 0.0
Tb84 Tb 0.08887 0.92846 0.39106 0.0
C85 C 0.11783 0.915 0.43985 0.0
O86 O 0.07333 0.90847 0.31925 0.0
O87 O 0.044 0.91616 0.39607 0.0
C88 C 0.04007 0.88896 0.39953 0.0
O89 O 0.06272 0.8715 0.39755 0.0
O90 O 0.12779 0.95986 0.34546 0.0
O91 O 0.0987 0.97191 0.38204 0.0
O92 O 0.07315 0.99498 0.31939 0.0
C93 C 0.08421 0.88897 0.33768 0.0
C94 C 0.12268 0.95468 0.2651 0.0
O95 O 0.12859 0.91436 0.4144 0.0
O96 O 0.09058 0.92326 0.43788 0.0
C97 C 0.08631 1.01712 0.30831 0.0
O98 O 0.1104 1.01191 0.29455 0.0
O99 O 0.13313 0.94545 0.28971 0.0
O100 O 0.45208 0.75147 0.61641 0.0
Tb101 Tb 0.45041 0.78473 0.58416 0.0
C102 C 0.43465 0.85118 0.58665 0.0
O103 O 0.40255 0.80854 0.53459 0.0
Tb104 Tb 0.3884 0.85253 0.53953 0.0
C105 C 0.33615 0.85579 0.56161 0.0
O106 O 0.40724 0.77165 0.56559 0.0
O107 O 0.39487 0.88695 0.50965 0.0
C108 C 0.37757 0.89103 0.4867 0.0
O109 O 0.3597 0.87102 0.47859 0.0
O110 O 0.44012 0.82804 0.57164 0.0
O111 O 0.41592 0.86921 0.5745 0.0
O112 O 0.49515 0.77936 0.56757 0.0
C113 C 0.39014 0.78833 0.54885 0.0
C114 C 0.45009 0.76834 0.6386 0.0
O115 O 0.36063 0.8507 0.57563 0.0
O116 O 0.34109 0.85848 0.53441 0.0
C117 C 0.51786 0.78548 0.58487 0.0
O118 O 0.51276 0.79267 0.61159 0.0
O119 O 0.44872 0.79455 0.63011 0.0
O120 O 0.59009 0.2081 0.86146 0.0
Tb121 Tb 0.543 0.19983 0.85675 0.0
C122 C 0.48423 0.21158 0.88928 0.0
O123 O 0.49847 0.14433 0.86077 0.0
Tb124 Tb 0.45845 0.16783 0.84799 0.0
C125 C 0.41416 0.14741 0.87591 0.0
O126 O 0.53675 0.15731 0.8341 0.0
O127 O 0.44611 0.16056 0.80264 0.0
C128 C 0.44325 0.13418 0.79366 0.0
O129 O 0.45184 0.11373 0.81114 0.0
O130 O 0.51229 0.20502 0.89115 0.0
O131 O 0.46927 0.20964 0.86464 0.0
O132 O 0.53918 0.24448 0.83909 0.0
C133 C 0.5184 0.13741 0.8422 0.0
C134 C 0.59356 0.2002 0.88817 0.0
O135 O 0.43955 0.13496 0.87316 0.0
O136 O 0.41387 0.17194 0.86357 0.0
C137 C 0.54468 0.26675 0.85646 0.0
O138 O 0.5502 0.26141 0.88379 0.0
O139 O 0.56887 0.19094 0.89642 0.0
O140 O 0.1933 0.26202 1.00035 0.0
Tb141 Tb 0.1904 0.29215 1.0357 0.0
C142 C 0.177 0.29409 0.10245 0.0
O143 O 0.13922 0.33815 0.05696 0.0
Tb144 Tb 0.1254 0.33412 0.10095 0.0
C145 C 0.0758 0.30702 0.10432 0.0
O146 O 0.1459 0.30687 1.02007 0.0
O147 O 0.12528 0.36837 0.13277 0.0
C148 C 0.10547 0.38914 0.13066 0.0
O149 O 0.09073 0.39243 0.10612 0.0
O150 O 0.17943 0.30738 0.07818 0.0
O151 O 0.15802 0.30501 0.12017 0.0
O152 O 0.23557 0.3078 1.03447 0.0
C153 C 0.12786 0.32226 1.0362 0.0
C154 C 0.19197 0.23944 1.01599 0.0
O155 O 0.07799 0.33433 0.10407 0.0
O156 O 0.10153 0.29533 0.10193 0.0
C157 C 0.25706 0.29156 1.04591 0.0
O158 O 0.25018 0.26699 0.05615 0.0
O159 O 0.1901 0.24651 1.04321 0.0
O160 O 0.22468 1.02357 0.20387 0.0
Tb161 Tb 0.22798 0.06758 0.18958 0.0
C162 C 0.20034 0.1264 0.20228 0.0
O163 O 0.23649 0.10306 0.12411 0.0
Tb164 Tb 0.24433 0.13613 0.15653 0.0
C165 C 0.22378 0.18438 0.1333 0.0
O166 O 0.25165 0.06219 0.14798 0.0
O167 O 0.29171 0.1403 0.15706 0.0
C168 C 0.30521 0.13934 0.13246 0.0
O169 O 0.29071 0.13058 0.10934 0.0
O170 O 0.1947 0.1017 0.19047 0.0
O171 O 0.22629 0.13684 0.19934 0.0
O172 O 0.2478 0.07864 0.23308 0.0
C173 C 0.24715 0.07685 0.12367 0.0
C174 C 0.19681 1.02131 0.19806 0.0
O175 O 0.25015 0.17981 0.14351 0.0
O176 O 0.20885 0.16171 0.13612 0.0
C177 C 0.23712 0.06812 0.25703 0.0
O178 O 0.21528 1.05088 0.25423 0.0
O179 O 0.187 1.04478 0.18654 0.0
O180 O 0.22925 0.13856 0.43703 0.0
Tb181 Tb 0.23885 0.0932 0.4446 0.0
C182 C 0.21763 1.03706 0.42277 0.0
O183 O 0.29411 1.05863 0.48405 0.0
Tb184 Tb 0.27806 1.0283 0.4515 0.0
C185 C 0.25956 0.98424 0.47879 0.0
O186 O 0.25455 0.08857 0.49076 0.0
O187 O 0.31934 1.00905 0.43826 0.0
C188 C 0.34022 1.0042 0.45803 0.0
O189 O 0.3403 1.01986 0.48148 0.0
O190 O 0.21144 1.05701 0.44142 0.0
O191 O 0.24509 1.03191 0.41648 0.0
O192 O 0.25736 0.08414 0.40114 0.0
C193 C 0.27756 0.07378 0.50151 0.0
C194 C 0.20084 0.13684 0.43622 0.0
O195 O 0.2521 1.01034 0.48486 0.0
O196 O 0.27718 0.98322 0.45775 0.0
C197 C 0.25213 0.10093 0.37842 0.0
O198 O 0.24069 0.12628 0.38278 0.0
O199 O 0.19432 0.11094 0.44156 0.0
O200 O 0.33362 0.09574 0.71184 0.0
Tb201 Tb 0.31873 1.0546 0.69537 0.0
C202 C 0.35858 0.99994 0.6964 0.0
O203 O 0.31022 1.02172 0.62439 0.0
Tb204 Tb 0.30611 0.98926 0.65626 0.0
C205 C 0.29735 0.94163 0.62799 0.0
O206 O 0.29909 0.06296 0.65013 0.0
O207 O 0.27165 0.99474 0.68707 0.0
C208 C 0.25065 0.97658 0.69115 0.0
O209 O 0.2313 0.98297 0.71046 0.0
O210 O 0.33859 1.01444 0.71031 0.0
O211 O 0.35151 0.98934 0.67115 0.0
O212 O 0.29416 1.05345 0.73604 0.0
C213 C 0.30227 1.04865 0.62511 0.0
C214 C 0.36148 0.09059 0.70893 0.0
O215 O 0.28785 0.96636 0.6194 0.0
O216 O 0.31193 0.94377 0.65236 0.0
C217 C 0.30979 1.0548 0.76084 0.0
O218 O 0.3381 1.05748 0.75948 0.0
O219 O 0.36481 0.06584 0.69671 0.0
O220 O 0.33011 0.99148 0.93332 0.0
Tb221 Tb 0.31144 1.0325 0.9482 0.0
C222 C 0.31982 0.09313 0.92989 0.0
O223 O 0.25382 1.05683 0.98297 0.0
Tb224 Tb 0.26502 0.09714 0.96532 0.0
C225 C 0.29127 0.13001 1.00438 0.0
O226 O 0.2956 1.03162 0.99352 0.0
O227 O 0.22665 0.12288 0.95305 0.0
C228 C 0.20578 0.12568 0.97168 0.0
O229 O 0.20195 0.10453 0.98902 0.0
O230 O 0.32883 0.07427 0.9489 0.0
O231 O 0.29193 0.1009 0.92774 0.0
O232 O 0.28919 1.03916 0.90507 0.0
C233 C 0.27132 1.0446 1.00248 0.0
C234 C 0.35754 0.99816 0.93595 0.0
O235 O 0.26349 0.1298 0.99863 0.0
O236 O 0.30388 0.1101 0.98951 0.0
C237 C 0.3061 1.03997 0.88231 0.0
O238 O 0.33442 1.03702 0.88689 0.0
O239 O 0.35869 1.02344 0.94714 0.0
O240 O 0.67847 0.23653 1.00041 0.0
Tb241 Tb 0.68982 0.27832 1.01848 0.0
C242 C 0.67433 0.34124 1.0146 0.0
O243 O 0.7374 0.29605 0.07457 0.0
Tb244 Tb 0.71694 0.33739 0.06669 0.0
C245 C 0.75615 0.36405 1.03798 0.0
O246 O 0.73768 0.27641 1.02941 0.0
O247 O 0.70572 0.36747 0.10116 0.0
C248 C 0.72452 0.37491 0.12189 0.0
O249 O 0.74831 0.35921 0.12648 0.0
O250 O 0.68791 0.32039 1.00132 0.0
O251 O 0.67523 0.34307 1.04291 0.0
O252 O 0.64905 0.28713 1.04221 0.0
C253 C 0.75205 0.28421 0.05343 0.0
C254 C 0.67437 0.24474 0.9738 0.0
O255 O 0.75435 0.36408 0.06571 0.0
O256 O 0.73602 0.34857 1.0263 0.0
C257 C 0.62501 0.27247 1.03686 0.0
O258 O 0.62731 0.24868 1.0223 0.0
O259 O 0.6803 0.27138 0.97251 0.0
O260 O 0.98548 0.46698 0.35339 0.0
Tb261 Tb 0.99876 0.45458 0.30993 0.0
C262 C 0.95078 0.46115 0.26117 0.0
O263 O 0.99108 0.38154 0.28743 0.0
Tb264 Tb 0.98312 0.40543 0.24867 0.0
C265 C 0.96703 0.37403 0.20293 0.0
O266 O 1.02369 0.41126 0.31114 0.0
O267 O 1.01884 0.42879 0.23162 0.0
C268 C 0.04497 0.4164 0.23284 0.0
O269 O 0.04954 0.39589 0.25133 0.0
O270 O 0.97614 0.47094 0.27048 0.0
O271 O 0.94744 0.43399 0.25827 0.0
O272 O 1.0232 0.49555 0.31606 0.0
C273 C 1.01404 0.38497 0.30459 0.0
C274 C 0.95833 0.45972 0.35064 0.0
O275 O 0.94955 0.38923 0.21856 0.0
O276 O 0.99338 0.37564 0.21384 0.0
C277 C 1.01086 0.52097 0.30947 0.0
O278 O 0.9845 0.52146 0.29749 0.0
O279 O 0.95439 0.44816 0.3253 0.0
O280 O 0.95051 0.84567 0.49284 0.0
Tb281 Tb 0.94572 0.80455 0.51321 0.0
C282 C 0.93956 0.7406 0.49668 0.0
O283 O 0.9055 0.77399 0.55527 0.0
Tb284 Tb 0.89751 0.73056 0.54276 0.0
C285 C 0.84536 0.72932 0.51672 0.0
O286 O 0.90268 0.81514 0.5315 0.0
O287 O 0.9014 0.69785 0.57554 0.0
C288 C 0.89325 0.70405 0.60177 0.0
O289 O 0.88702 0.73063 0.60809 0.0
O290 O 0.92569 0.76488 0.50071 0.0
O291 O 0.93118 0.7194 0.5122 0.0
O292 O 0.98747 0.79854 0.53824 0.0
C293 C 0.88905 0.79547 0.54555 0.0
C294 C 0.95848 0.83541 0.46808 0.0
O295 O 0.86969 0.73221 0.50389 0.0
O296 O 0.85052 0.72626 0.54413 0.0
C297 C 1.00819 0.78177 0.52754 0.0
O298 O 1.00165 0.76704 0.50429 0.0
O299 O 0.95828 0.80793 0.46875 0.0
O300 O 0.10414 0.71055 0.36274 0.0
Tb301 Tb 0.05712 0.70175 0.35833 0.0
C302 C 1.00246 0.71996 0.39199 0.0
O303 O 1.0064 0.64485 0.35242 0.0
Tb304 Tb 0.97558 0.68093 0.34872 0.0
C305 C 0.93055 0.66584 0.37889 0.0
O306 O 0.05013 0.6601 0.33435 0.0
O307 O 0.96083 0.67872 0.30345 0.0
C308 C 0.95678 0.65363 0.2916 0.0
O309 O 0.96471 0.63106 0.30644 0.0
O310 O 1.02831 0.70757 0.39407 0.0
O311 O 0.98901 0.72109 0.36666 0.0
O312 O 0.05345 0.74577 0.33959 0.0
C313 C 1.03105 0.63968 0.33936 0.0
C314 C 0.1081 0.70175 0.38909 0.0
O315 O 0.95776 0.65975 0.3853 0.0
O316 O 0.92865 0.68063 0.35552 0.0
C317 C 0.06324 0.76775 0.35523 0.0
O318 O 0.07263 0.76249 0.3817 0.0
O319 O 0.08377 0.69156 0.39715 0.0
O320 O 0.59092 0.46383 0.78097 0.0
Tb321 Tb 0.58556 0.4512 0.82606 0.0
C322 C 0.61453 0.47663 0.87926 0.0
O323 O 0.55844 0.39961 0.87474 0.0
Tb324 Tb 0.57026 0.43712 0.89981 0.0
C325 C 0.60726 0.41464 0.93885 0.0
O326 O 0.56885 0.40653 0.82659 0.0
O327 O 0.52803 0.44335 0.91864 0.0
C328 C 0.50462 0.43302 0.9058 0.0
O329 O 0.50511 0.42714 0.87816 0.0
O330 O 0.61922 0.45796 0.85892 0.0
O331 O 0.58914 0.47749 0.8913 0.0
O332 O 0.56337 0.49339 0.83554 0.0
C333 C 0.56017 0.39026 0.84801 0.0
C334 C 0.61916 0.45911 0.7809 0.0
O335 O 0.61093 0.41452 0.91128 0.0
O336 O 0.58271 0.4276 0.94454 0.0
C337 C 0.57366 0.51731 0.82502 0.0
O338 O 0.59591 0.51508 0.8081 0.0
O339 O 0.62755 0.44852 0.80556 0.0
O340 O 0.59147 0.69209 0.88936 0.0
Tb341 Tb 0.57121 0.70223 0.84676 0.0
C342 C 0.5783 0.68102 0.78573 0.0
O343 O 0.51304 0.74439 0.82069 0.0
Tb344 Tb 0.52465 0.71854 0.7836 0.0
C345 C 0.55281 0.748 0.74583 0.0
O346 O 0.5565 0.74851 0.84604 0.0
O347 O 0.48304 0.71273 0.76093 0.0
C348 C 0.46607 0.73539 0.75685 0.0
O349 O 0.46841 0.75615 0.77567 0.0
O350 O 0.58903 0.69888 0.80475 0.0
O351 O 0.54979 0.67879 0.78253 0.0
O352 O 0.5519 0.65919 0.83964 0.0
C353 C 0.53211 0.76049 0.83434 0.0
C354 C 0.6185 0.6918 0.88137 0.0
O355 O 0.52708 0.73798 0.74172 0.0
O356 O 0.56226 0.74263 0.77193 0.0
C357 C 0.5568 0.63719 0.8573 0.0
O358 O 0.56725 0.64214 0.88342 0.0
O359 O 0.61859 0.699 0.85451 0.0
O360 O 0.95432 0.25372 0.10774 0.0
Tb361 Tb 0.94583 0.28907 0.07809 0.0
C362 C 0.93375 0.3558 0.08427 0.0
O363 O 0.89149 0.31716 1.0352 0.0
Tb364 Tb 0.88245 0.36223 1.0436 0.0
C365 C 0.83692 0.37366 0.07566 0.0
O366 O 0.89926 0.27941 0.06538 0.0
O367 O 0.88341 0.39676 1.01215 0.0
C368 C 0.86326 0.39962 0.99118 0.0
O369 O 0.84533 0.37887 0.98609 0.0
O370 O 0.9345 0.33272 0.0685 0.0
O371 O 0.91643 0.37609 0.07413 0.0
O372 O 0.98686 0.2869 0.05359 0.0
C373 C 0.88062 0.29682 1.0507 0.0
C374 C 0.95808 0.26893 0.13109 0.0
O375 O 0.86191 0.3631 0.08463 0.0
O376 O 0.83664 0.37372 1.04768 0.0
C377 C 1.00495 0.30812 0.05768 0.0
O378 O 0.99668 0.32836 0.07522 0.0
O379 O 0.9547 0.29567 0.12453 0.0
O380 O 0.69958 0.73903 0.49739 0.0
Tb381 Tb 0.70038 0.75442 0.54245 0.0
C382 C 0.69895 0.73643 0.60887 0.0
O383 O 0.66073 0.79854 0.57889 0.0
Tb384 Tb 0.66446 0.79056 0.62466 0.0
C385 C 0.62644 0.76029 0.65105 0.0
O386 O 0.6545 0.77075 0.53988 0.0
O387 O 0.66509 0.82676 0.65469 0.0
C388 C 0.64629 0.84833 0.6514 0.0
O389 O 0.63577 0.85399 0.62545 0.0
O390 O 0.69447 0.73042 0.58133 0.0
O391 O 0.70278 0.76253 0.61868 0.0
O392 O 0.7433 0.77512 0.55029 0.0
C393 C 0.64268 0.78562 0.56083 0.0
C394 C 0.70391 0.71231 0.50352 0.0
O395 O 0.61981 0.77787 0.63032 0.0
O396 O 0.6546 0.75829 0.65498 0.0
C397 C 0.76265 0.77758 0.52984 0.0
O398 O 0.7546 0.7707 0.50336 0.0
O399 O 0.70721 0.70983 0.53119 0.0
O400 O 0.83316 0.59581 0.66261 0.0
Tb401 Tb 0.78815 0.59449 0.67776 0.0
C402 C 0.73385 0.63194 0.66386 0.0
O403 O 0.74277 0.59168 0.73863 0.0
Tb404 Tb 0.71028 0.58932 0.70307 0.0
C405 C 0.6657 0.6205 0.72245 0.0
O406 O 0.78771 0.57509 0.72149 0.0
O407 O 0.695 0.54592 0.70449 0.0
C408 C 0.69942 0.53085 0.72801 0.0
O409 O 0.71773 0.54001 0.74808 0.0
O410 O 0.7589 0.63125 0.67816 0.0
O411 O 0.71843 0.60899 0.66229 0.0
O412 O 0.77514 0.5773 0.63403 0.0
C413 C 0.76988 0.58194 0.74287 0.0
C414 C 0.83723 0.62231 0.66901 0.0
O415 O 0.69306 0.62652 0.72544 0.0
O416 O 0.66328 0.59678 0.70843 0.0
C417 C 0.79279 0.56121 0.61794 0.0
O418 O 0.81657 0.55006 0.63029 0.0
O419 O 0.81435 0.63223 0.68173 0.0
O420 O 0.74305 0.62456 0.91918 0.0
Tb421 Tb 0.75671 0.58132 0.93198 0.0
C422 C 0.71855 0.52721 0.92721 0.0
O423 O 0.77305 0.53957 0.9972 0.0
Tb424 Tb 0.77684 0.51277 0.96001 0.0
C425 C 0.78561 0.46163 0.98008 0.0
O426 O 0.77667 0.5845 0.97771 0.0
O427 O 0.81323 0.52193 0.93313 0.0
C428 C 0.83757 0.50606 0.93185 0.0
O429 O 0.85802 0.51411 0.91496 0.0
O430 O 0.73265 0.54599 0.91313 0.0
O431 O 0.73039 0.51507 0.94999 0.0
O432 O 0.78068 0.58036 0.89078 0.0
C433 C 0.77651 0.56682 1.00027 0.0
C434 C 0.71589 0.62311 0.92641 0.0
O435 O 0.79317 0.48468 0.99341 0.0
O436 O 0.77347 0.46728 0.95503 0.0
C437 C 0.76496 0.58079 0.86594 0.0
O438 O 0.73642 0.58272 0.86718 0.0
O439 O 0.71216 0.59842 0.93759 0.0
O440 O 0.84998 0.62453 0.19966 0.0
Tb441 Tb 0.83606 0.58214 0.18493 0.0
C442 C 0.85581 0.52478 0.20491 0.0
O443 O 0.78338 0.5513 0.13919 0.0
Tb444 Tb 0.79814 0.51827 0.17028 0.0
C445 C 0.81714 0.47299 0.1424 0.0
O446 O 0.82054 0.58366 0.13899 0.0
O447 O 0.75656 0.49852 0.17763 0.0
C448 C 0.74032 0.49109 0.15486 0.0
O449 O 0.74262 0.50566 0.13122 0.0
O450 O 0.86252 0.54388 0.18651 0.0
O451 O 0.82808 0.51954 0.2081 0.0
O452 O 0.81128 0.57335 0.22415 0.0
C453 C 0.79885 0.57003 0.12561 0.0
C454 C 0.878 0.61832 0.20077 0.0
O455 O 0.82246 0.49886 0.13516 0.0
O456 O 0.80243 0.47301 0.16548 0.0
C457 C 0.82067 0.58322 0.24971 0.0
O458 O 0.84305 0.59986 0.25059 0.0
O459 O 0.88177 0.59265 0.19126 0.0
O460 O 0.83714 0.50385 0.41637 0.0
Tb461 Tb 0.82094 0.54609 0.43079 0.0
C462 C 0.83597 0.60712 0.42591 0.0
O463 O 0.77833 0.58557 0.48116 0.0
Tb464 Tb 0.77172 0.60891 0.441 0.0
C465 C 0.7703 0.66163 0.461 0.0
O466 O 0.80216 0.54155 0.47409 0.0
O467 O 0.72906 0.59982 0.42158 0.0
C468 C 0.70554 0.61624 0.42504 0.0
O469 O 0.68142 0.61044 0.41039 0.0
O470 O 0.843 0.58466 0.44099 0.0
O471 O 0.80957 0.60974 0.41432 0.0
O472 O 0.80123 0.55965 0.38846 0.0
C473 C 0.78893 0.56097 0.49074 0.0
C474 C 0.86485 0.50958 0.41733 0.0
O475 O 0.77053 0.65464 0.43398 0.0
O476 O 0.77065 0.639 0.47638 0.0
C477 C 0.80058 0.54306 0.36515 0.0
O478 O 0.80522 0.51575 0.3683 0.0
O479 O 0.86754 0.53515 0.42734 0.0
C480 C 1.03135 0.29291 0.16493 0.0
C481 C 1.03822 0.26393 0.16732 0.0
H482 H 1.03621 0.33003 0.14015 0.0
C483 C 0.04703 0.24849 0.14313 0.0
H484 H 1.02354 0.30503 0.18314 0.0
C485 C 0.05426 0.26283 0.11854 0.0
C486 C 0.05277 0.29248 0.11841 0.0
H487 H 0.05153 0.22592 0.14431 0.0
H488 H 0.06503 0.25115 0.10158 0.0
C489 C 1.03809 0.30715 0.14013 0.0
C490 C 0.13105 0.87648 0.50993 0.0
C491 C 0.16036 0.86792 0.50721 0.0
H492 H 0.09412 0.89867 0.49014 0.0
C493 C 0.17649 0.87938 0.4853 0.0
H494 H 0.11821 0.86774 0.52657 0.0
C495 C 0.16294 0.89685 0.4647 0.0
C496 C 0.13296 0.90306 0.46554 0.0
H497 H 0.19919 0.87316 0.48283 0.0
H498 H 0.17555 0.90386 0.447 0.0
C499 C 0.11733 0.89403 0.48907 0.0
C500 C 0.43694 0.87686 0.66408 0.0
C501 C 0.46627 0.87158 0.67248 0.0
H502 H 0.40395 0.87409 0.63038 0.0
C503 C 0.4849 0.85808 0.65286 0.0
H504 H 0.42215 0.88741 0.67863 0.0
C505 C 0.47455 0.85078 0.62509 0.0
C506 C 0.44529 0.85624 0.61666 0.0
H507 H 0.50775 0.85409 0.65858 0.0
H508 H 0.4896 0.84191 0.60984 0.0
C509 C 0.42658 0.8693 0.63645 0.0
C510 C 0.43539 0.25177 0.94081 0.0
C511 C 0.44717 0.24297 0.96779 0.0
H512 H 0.43724 0.24821 0.89482 0.0
C513 C 0.46993 0.22251 0.96857 0.0
H514 H 0.41764 0.26738 0.93946 0.0
C515 C 0.48146 0.21197 0.94297 0.0
C516 C 0.47001 0.22111 0.91601 0.0
H517 H 0.47946 0.21534 0.98895 0.0
H518 H 0.4996 0.19679 0.94431 0.0
C519 C 0.44643 0.24068 0.9152 0.0
C520 C 0.12467 0.15394 0.22297 0.0
C521 C 0.13112 0.17607 0.24243 0.0
H522 H 0.14113 0.12078 0.19562 0.0
C523 C 0.16071 0.18162 0.24871 0.0
H524 H 0.10221 0.14885 0.21773 0.0
C525 C 0.18315 0.16578 0.23555 0.0
C526 C 0.17664 0.14349 0.21628 0.0
H527 H 0.16657 0.19846 0.26358 0.0
H528 H 0.20563 0.1708 0.24074 0.0
C529 C 0.14706 0.13771 0.21035 0.0
C530 C 0.23736 0.96209 0.52031 0.0
C531 C 0.25133 0.9593 0.4942 0.0
H532 H 0.22134 0.94064 0.55635 0.0
C533 C 0.25896 0.93235 0.48342 0.0
H534 H 0.23142 0.98274 0.52895 0.0
C535 C 0.25309 0.90834 0.49889 0.0
C536 C 0.23995 0.91119 0.52543 0.0
H537 H 0.26979 0.92983 0.4632 0.0
H538 H 0.25935 0.88769 0.49046 0.0
C539 C 0.23177 0.9381 0.53593 0.0
C540 C 0.40874 0.97572 0.69721 0.0
C541 C 0.38663 0.99103 0.7115 0.0
H542 H 0.45088 0.95442 0.70063 0.0
C543 C 0.39148 0.99777 0.74073 0.0
H544 H 0.40592 0.97038 0.67461 0.0
C545 C 0.41702 0.98852 0.75556 0.0
C546 C 0.4388 0.9725 0.74163 0.0
H547 H 0.37522 1.00972 0.75247 0.0
H548 H 0.41945 0.99362 0.77826 0.0
C549 C 0.43464 0.96671 0.71206 0.0
C550 C 0.30872 0.20072 1.03713 0.0
C551 C 0.33005 0.20949 1.01846 0.0
H552 H 0.27963 0.16779 1.04746 0.0
C553 C 0.33759 0.19235 0.99501 0.0
H554 H 0.30285 0.2136 0.05556 0.0
C555 C 0.32577 0.16586 0.99153 0.0
C556 C 0.30549 0.15649 1.01087 0.0
H557 H 0.35412 0.19851 0.98043 0.0
H558 H 0.33235 0.15279 0.97348 0.0
C559 C 0.29609 0.17441 1.03303 0.0
C560 C 0.17526 0.98944 0.37116 0.0
C561 C 0.14693 0.99168 0.38191 0.0
H562 H 0.21988 1.0017 0.37574 0.0
C563 C 0.14213 1.00915 0.40592 0.0
H564 H 0.17975 0.97618 0.35265 0.0
C565 C 0.1651 1.02396 0.41898 0.0
C566 C 0.1935 1.02143 0.40848 0.0
H567 H 0.1206 1.01143 0.41468 0.0
H568 H 0.1606 1.03719 0.43749 0.0
C569 C 0.19831 1.00401 0.38443 0.0
C570 C 0.30493 0.89007 0.62329 0.0
C571 C 0.29629 0.91585 0.61072 0.0
H572 H 0.32141 0.84811 0.61611 0.0
C573 C 0.29187 0.91757 0.58086 0.0
H574 H 0.30857 0.88836 0.64634 0.0
C575 C 0.30023 0.8948 0.56352 0.0
C576 C 0.31245 0.87024 0.57614 0.0
H577 H 0.28543 0.93745 0.57083 0.0
H578 H 0.30105 0.89796 0.54056 0.0
C579 C 0.31197 0.86697 0.606 0.0
C580 C 0.39311 0.10696 0.90011 0.0
C581 C 0.38921 0.13421 0.88896 0.0
H582 H 0.3742 0.07269 0.92102 0.0
C583 C 0.3615 0.14777 0.88973 0.0
H584 H 0.41408 0.09584 0.89951 0.0
C585 C 0.33818 0.13428 0.90212 0.0
C586 C 0.34249 0.10719 0.91391 0.0
H587 H 0.35795 0.16876 0.88098 0.0
H588 H 0.31717 0.14525 0.90314 0.0
C589 C 0.37011 0.09365 0.91239 0.0
C590 C 0.1707 0.24289 0.11003 0.0
C591 C 0.18938 0.26561 0.10748 0.0
H592 H 0.16717 0.19894 0.1196 0.0
C593 C 0.21949 0.26129 0.11214 0.0
H594 H 0.14732 0.24599 0.10671 0.0
C595 C 0.23084 0.23454 0.11973 0.0
C596 C 0.21213 0.21183 0.12275 0.0
H597 H 0.23409 0.27879 0.11082 0.0
H598 H 0.25414 0.23178 0.12386 0.0
C599 C 0.18203 0.21609 0.11733 0.0
C600 C 0.77123 0.38547 0.99266 0.0
C601 C 0.77067 0.38586 1.02275 0.0
H602 H 0.77666 0.41012 0.95492 0.0
C603 C 0.77887 0.41001 1.03822 0.0
H604 H 0.7644 0.36707 0.9804 0.0
C605 C 0.7868 0.43388 1.02396 0.0
C606 C 0.78509 0.43438 0.99396 0.0
H607 H 0.77684 0.41133 0.06129 0.0
H608 H 0.7916 0.45272 1.0365 0.0
C609 C 0.77818 0.4099 0.9782 0.0
C610 C 0.89763 0.46971 0.24987 0.0
C611 C 0.92628 0.47979 0.25032 0.0
H612 H 0.85294 0.47605 0.23557 0.0
C613 C 0.93106 0.50603 0.23786 0.0
H614 H 0.89317 0.44964 0.25954 0.0
C615 C 0.90794 0.52099 0.22374 0.0
C616 C 0.87952 0.51023 0.22222 0.0
H617 H 0.95282 0.51432 0.23782 0.0
H618 H 0.9125 0.54073 0.21347 0.0
C619 C 0.8745 0.48483 0.23618 0.0
C620 C 0.79613 0.71034 0.51729 0.0
C621 C 0.81774 0.72313 0.50191 0.0
H622 H 0.7629 0.67986 0.51539 0.0
C623 C 0.81575 0.72344 0.47176 0.0
H624 H 0.79685 0.71056 0.54059 0.0
C625 C 0.79566 0.70645 0.45722 0.0
C626 C 0.77819 0.68899 0.47304 0.0
H627 H 0.83191 0.73389 0.45957 0.0
H628 H 0.79697 0.70387 0.43414 0.0
C629 C 0.7765 0.69299 0.50284 0.0
C630 C 0.85412 0.6444 0.39385 0.0
C631 C 0.85949 0.62488 0.41613 0.0
H632 H 0.87269 0.67289 0.36455 0.0
C633 C 0.88798 0.6213 0.42793 0.0
H634 H 0.83235 0.64778 0.38447 0.0
C635 C 0.91093 0.63577 0.41664 0.0
C636 C 0.90579 0.65403 0.39335 0.0
H637 H 0.89276 0.60669 0.44535 0.0
H638 H 0.93285 0.63187 0.42548 0.0
C639 C 0.87715 0.65881 0.38249 0.0
C640 C 0.66983 0.50585 0.93316 0.0
C641 C 0.69076 0.51637 0.91501 0.0
H642 H 0.62864 0.48576 0.93602 0.0
C643 C 0.68531 0.5155 0.88511 0.0
H644 H 0.67343 0.50641 0.95629 0.0
C645 C 0.66008 0.50311 0.87358 0.0
C646 C 0.63939 0.49227 0.89172 0.0
H647 H 0.70106 0.52339 0.87061 0.0
H648 H 0.65687 0.5017 0.85042 0.0
C649 C 0.64414 0.49427 0.92162 0.0
C650 C 0.55927 0.76057 0.69489 0.0
C651 C 0.57159 0.75344 0.72201 0.0
H652 H 0.56723 0.76794 0.65049 0.0
C653 C 0.60144 0.74668 0.72502 0.0
H654 H 0.53607 0.76527 0.69211 0.0
C655 C 0.61881 0.74685 0.7012 0.0
C656 C 0.60674 0.75454 0.67413 0.0
H657 H 0.61123 0.74042 0.74561 0.0
H658 H 0.64191 0.7418 0.70423 0.0
C659 C 0.57686 0.76146 0.67108 0.0
C660 C 0.63525 0.379 1.00719 0.0
C661 C 0.65895 0.36293 0.99687 0.0
H662 H 0.59989 0.40826 0.99656 0.0
C663 C 0.66704 0.36629 0.96831 0.0
H664 H 0.62865 0.3768 1.02915 0.0
C665 C 0.65091 0.38424 0.94994 0.0
C666 C 0.62626 0.39908 0.95967 0.0
H667 H 0.68551 0.3545 0.95988 0.0
H668 H 0.6572 0.38571 0.92779 0.0
C669 C 0.61886 0.39692 0.9886 0.0
C670 C 0.97212 0.36436 0.12281 0.0
C671 C 0.94363 0.35676 0.11474 0.0
H672 H 1.00225 0.37428 0.15748 0.0
C673 C 0.9233 0.35313 0.13616 0.0
H674 H 0.98767 0.36913 0.10677 0.0
C675 C 0.93123 0.35737 0.16518 0.0
C676 C 0.95978 0.3648 0.17324 0.0
H677 H 0.90101 0.34784 0.13036 0.0
H678 H 0.9149 0.35556 0.18124 0.0
C679 C 0.98035 0.36762 0.15188 0.0
C680 C 0.96215 0.74422 0.41904 0.0
C681 C 0.9861 0.72508 0.41868 0.0
H682 H 0.9289 0.76423 0.44405 0.0
C683 C 0.99455 0.71085 0.44428 0.0
H684 H 0.95504 0.75542 0.39973 0.0
C685 C 0.97934 0.7156 0.46958 0.0
C686 C 0.95599 0.73538 0.47012 0.0
H687 H 1.01277 0.69574 0.44473 0.0
H688 H 0.98617 0.70419 0.48885 0.0
C689 C 0.9474 0.74944 0.44452 0.0
C690 C 0.64822 0.66257 0.74929 0.0
C691 C 0.64182 0.637 0.73543 0.0
H692 H 0.6331 0.69649 0.77563 0.0
C693 C 0.61329 0.6269 0.73587 0.0
H694 H 0.66993 0.67099 0.74904 0.0
C695 C 0.5918 0.64171 0.75121 0.0
C696 C 0.59883 0.66656 0.76638 0.0
H697 H 0.60789 0.60718 0.72519 0.0
H698 H 0.5702 0.63319 0.75213 0.0
C699 C 0.62703 0.67713 0.7646 0.0
C700 C 0.81697 0.39682 0.11886 0.0
C701 C 0.82694 0.3988 0.091 0.0
H702 H 0.80647 0.41927 0.15735 0.0
C703 C 0.83438 0.42523 0.08027 0.0
H704 H 0.81232 0.37646 0.1278 0.0
C705 C 0.83156 0.44952 0.09709 0.0
C706 C 0.82172 0.44757 0.125 0.0
H707 H 0.84341 0.42697 0.05917 0.0
H708 H 0.83727 0.46968 0.08836 0.0
C709 C 0.81416 0.42117 0.13574 0.0
C710 C 0.7268 0.71065 0.64845 0.0
C711 C 0.70404 0.71151 0.62754 0.0
H712 H 0.75431 0.68466 0.67606 0.0
C713 C 0.68915 0.6865 0.62089 0.0
H714 H 0.73881 0.72948 0.65379 0.0
C715 C 0.69791 0.66081 0.63358 0.0
C716 C 0.72202 0.6595 0.65295 0.0
H717 H 0.67142 0.68659 0.60484 0.0
H718 H 0.68666 0.64181 0.62719 0.0
C719 C 0.73583 0.68485 0.66089 0.0
C720 C 0.06056 1.0587 0.33438 0.0
C721 C 0.07608 1.04794 0.31092 0.0
H722 H 0.04441 0.09552 0.35708 0.0
C723 C 0.08499 0.06786 0.29067 0.0
H724 H 0.05354 1.04443 0.35063 0.0
C725 C 0.07951 0.09728 0.29412 0.0
C726 C 0.06521 0.10822 0.31824 0.0
H727 H 0.097 1.06072 0.27221 0.0
H728 H 0.08764 0.11154 0.27841 0.0
C729 C 0.05544 0.08825 0.33807 0.0
C730 C 0.33896 0.79085 0.52578 0.0
C731 C 0.3572 0.78782 0.55065 0.0
H732 H 0.29517 0.79423 0.50759 0.0
C733 C 0.34346 0.78546 0.57718 0.0
H734 H 0.34854 0.79282 0.50498 0.0
C735 C 0.31262 0.78733 0.57884 0.0
C736 C 0.29438 0.79023 0.55387 0.0
H737 H 0.35663 0.78336 0.59688 0.0
H738 H 0.30304 0.78658 0.59974 0.0
C739 C 0.3082 0.79153 0.5273 0.0
C740 C 0.51797 1.05571 0.84859 0.0
C741 C 0.51231 1.04629 0.82011 0.0
H742 H 0.52407 0.09111 0.87767 0.0
C743 C 0.51221 0.06733 0.79854 0.0
H744 H 0.51759 1.04079 0.86604 0.0
C745 C 0.51698 0.09637 0.80514 0.0
C746 C 0.52103 0.10599 0.83378 0.0
H747 H 0.5074 0.06145 0.77636 0.0
H748 H 0.51537 0.11159 0.78789 0.0
C749 C 0.5217 0.08487 0.85527 0.0
C750 C 0.33704 0.29241 0.07198 0.0
C751 C 0.35045 0.30786 1.05077 0.0
H752 H 0.29773 0.27502 0.0868 0.0
C753 C 0.33213 0.32053 1.02909 0.0
H754 H 0.35008 0.28296 0.0894 0.0
C755 C 0.30161 0.31658 1.02794 0.0
C756 C 0.28861 0.29962 1.04828 0.0
H757 H 0.34147 0.33291 1.01248 0.0
H758 H 0.28843 0.32584 1.01049 0.0
C759 C 0.30683 0.28799 0.07051 0.0
C760 C 0.28417 1.04106 0.05757 0.0
C761 C 0.26473 1.04901 1.03442 0.0
H762 H 0.29408 1.04265 0.10359 0.0
C763 C 0.23884 0.06371 1.04202 0.0
H764 H 0.30445 1.02985 0.05311 0.0
C765 C 0.23318 0.07143 0.07072 0.0
C766 C 0.25268 0.06426 0.09383 0.0
H767 H 0.22285 0.06996 1.02554 0.0
H768 H 0.21334 0.08359 0.07477 0.0
C769 C 0.27814 1.04835 0.08675 0.0
C770 C 0.25434 0.10339 0.29575 0.0
C771 C 0.24738 0.07566 0.28743 0.0
H772 H 0.26128 0.13297 0.33065 0.0
C773 C 0.24569 1.05553 0.30961 0.0
H774 H 0.25536 0.11963 0.27963 0.0
C775 C 0.24965 0.063 0.33899 0.0
C776 C 0.25476 0.09111 0.34744 0.0
H777 H 0.24015 1.03396 0.30425 0.0
H778 H 0.24679 1.04709 0.35512 0.0
C779 C 0.25762 0.11102 0.32521 0.0
C780 C 0.2655 0.08165 0.55559 0.0
C781 C 0.28506 0.07268 0.53407 0.0
H782 H 0.25519 0.08201 0.60087 0.0
C783 C 0.31141 1.05938 0.54414 0.0
H784 H 0.24478 0.09169 0.54924 0.0
C785 C 0.31735 1.05397 0.57364 0.0
C786 C 0.2975 0.06167 0.59514 0.0
H787 H 0.32737 1.05204 0.52899 0.0
H788 H 0.33741 1.04247 0.57958 0.0
C789 C 0.27158 0.07624 0.58553 0.0
C790 C 0.30328 0.07245 0.84006 0.0
C791 C 0.2957 1.04654 0.85193 0.0
H792 H 0.31265 0.09555 0.80215 0.0
C793 C 0.28743 1.0248 0.83251 0.0
H794 H 0.31089 0.08932 0.8541 0.0
C795 C 0.28832 1.02844 0.80227 0.0
C796 C 0.29778 1.05386 0.79059 0.0
H797 H 0.28271 1.00414 0.84067 0.0
H798 H 0.28425 1.01048 0.78823 0.0
C799 C 0.30433 0.07602 0.81007 0.0
C800 C 0.05319 0.28695 1.03884 0.0
C801 C 1.03469 0.31043 1.04508 0.0
H802 H 0.0973 0.27208 1.03085 0.0
C803 C 0.04665 0.33753 1.04379 0.0
H804 H 0.04502 0.26576 1.03984 0.0
C805 C 0.07639 0.34109 1.03922 0.0
C806 C 0.09545 0.31775 1.03521 0.0
H807 H 1.03329 0.35625 1.04814 0.0
H808 H 0.08479 0.36225 1.04024 0.0
C809 C 0.08326 0.29061 1.0338 0.0
C810 C 0.5416 0.27654 1.04063 0.0
C811 C 0.53548 0.30582 1.04165 0.0
H812 H 0.57431 0.24322 1.03865 0.0
C813 C 0.5595 0.3239 1.04463 0.0
H814 H 0.52396 0.26189 1.03818 0.0
C815 C 0.58858 0.31317 1.0452 0.0
C816 C 0.59468 0.28398 1.04247 0.0
H817 H 0.55587 0.34661 1.0455 0.0
H818 H 0.60624 0.32788 1.04616 0.0
C819 C 0.57066 0.26585 1.04086 0.0
C820 C 0.06752 0.32078 0.29851 0.0
C821 C 0.05101 0.29802 0.30807 0.0
H822 H 0.07074 0.36575 0.2922 0.0
C823 C 1.02457 0.30554 0.32115 0.0
H824 H 0.08793 0.31626 0.28815 0.0
C825 C 1.01417 0.33418 0.32258 0.0
C826 C 1.03013 0.35694 0.31207 0.0
H827 H 1.01078 0.28908 0.32844 0.0
H828 H 0.99256 0.3384 0.33055 0.0
C829 C 0.05762 0.34953 0.30095 0.0
C830 C 0.08424 0.80826 0.54718 0.0
C831 C 0.10192 0.78422 0.54096 0.0
H832 H 0.04058 0.82636 0.54881 0.0
C833 C 0.08804 0.75861 0.53514 0.0
H834 H 0.09416 0.82853 0.55077 0.0
C835 C 0.05743 0.75746 0.53347 0.0
C836 C 0.03964 0.78186 0.53771 0.0
H837 H 0.10085 0.73995 0.52926 0.0
H838 H 0.04766 0.73775 0.52684 0.0
C839 C 0.05345 0.80704 0.54593 0.0
C840 C 0.59678 0.80795 0.58088 0.0
C841 C 0.61005 0.78643 0.56446 0.0
H842 H 0.55804 0.82419 0.60045 0.0
C843 C 0.59173 0.76575 0.55196 0.0
H844 H 0.60971 0.82472 0.58991 0.0
C845 C 0.56144 0.7659 0.55714 0.0
C846 C 0.54878 0.78655 0.57523 0.0
H847 H 0.60093 0.74897 0.53879 0.0
H848 H 0.54825 0.7492 0.54801 0.0
C849 C 0.56693 0.80772 0.58666 0.0
C850 C 0.10071 0.83827 0.34685 0.0
C851 C 0.0789 0.85712 0.33545 0.0
H852 H 0.11303 0.79652 0.36114 0.0
C853 C 0.05195 0.84503 0.32689 0.0
H854 H 0.12176 0.84614 0.35386 0.0
C855 C 0.04688 0.81559 0.33106 0.0
C856 C 0.0686 0.79731 0.34389 0.0
H857 H 1.03423 0.85856 0.31857 0.0
H858 H 1.02544 0.80759 0.32581 0.0
C859 C 0.09568 0.80939 0.35104 0.0
C860 C 0.52915 0.31775 0.86559 0.0
C861 C 0.54375 0.29803 0.8478 0.0
H862 H 0.52177 0.3608 0.87883 0.0
C863 C 0.56161 0.3096 0.82684 0.0
H864 H 0.51554 0.31022 0.88228 0.0
C865 C 0.56561 0.33953 0.82495 0.0
C866 C 0.55194 0.35903 0.84399 0.0
H867 H 0.574 0.29547 0.81313 0.0
H868 H 0.58081 0.34716 0.80977 0.0
C869 C 0.53294 0.3472 0.86364 0.0
C870 C 0.56407 0.56888 0.81181 0.0
C871 C 0.5628 0.54713 0.83242 0.0
H872 H 0.56228 0.6136 0.80282 0.0
C873 C 0.55602 0.55552 0.86058 0.0
H874 H 0.56955 0.56356 0.78992 0.0
C875 C 0.55242 0.58456 0.86809 0.0
C876 C 0.55479 0.60638 0.84766 0.0
H877 H 0.55537 0.53979 0.87726 0.0
H878 H 0.54885 0.59001 0.89037 0.0
C879 C 0.5598 0.59783 0.81916 0.0
C880 C 0.82899 0.30095 1.02815 0.0
C881 C 0.84769 0.29357 0.05183 0.0
H882 H 0.78516 0.30302 1.00974 0.0
C883 C 0.83439 0.28296 0.0763 0.0
H884 H 0.83803 0.30927 1.00892 0.0
C885 C 0.80363 0.28021 0.07712 0.0
C886 C 0.78509 0.28683 0.05308 0.0
H887 H 0.84776 0.2772 0.09511 0.0
H888 H 0.79439 0.27245 0.09651 0.0
C889 C 0.79847 0.29718 1.02858 0.0
C890 C 1.03437 0.55808 0.34353 0.0
C891 C 1.02445 0.54972 0.31572 0.0
H892 H 0.04447 0.59262 0.37273 0.0
C893 C 1.02149 0.57142 0.29494 0.0
H894 H 1.03608 0.5426 0.36053 0.0
C895 C 1.02714 0.60015 0.30176 0.0
C896 C 1.03545 0.60883 0.3299 0.0
H897 H 1.01322 0.56638 0.27346 0.0
H898 H 1.02268 0.61595 0.28538 0.0
C899 C 0.0393 0.58703 0.35054 0.0
C900 C 0.8105 0.7966 0.51358 0.0
C901 C 0.79406 0.78577 0.53587 0.0
H902 H 0.85245 0.80856 0.49917 0.0
C903 C 0.80905 0.78017 0.56233 0.0
H904 H 0.80003 0.80117 0.49284 0.0
C905 C 0.8396 0.78392 0.56576 0.0
C906 C 0.85609 0.79378 0.54301 0.0
H907 H 0.79748 0.77158 0.57996 0.0
H908 H 0.85049 0.77839 0.58604 0.0
C909 C 0.84077 0.80089 0.51719 0.0
C910 C 0.76826 0.57504 0.5695 0.0
C911 C 0.78849 0.558 0.58545 0.0
H912 H 0.7522 0.589 0.52797 0.0
C913 C 0.80694 0.53952 0.56956 0.0
H914 H 0.75374 0.58964 0.5805 0.0
C915 C 0.80604 0.53896 0.53905 0.0
C916 C 0.78679 0.55705 0.52309 0.0
H917 H 0.82293 0.52596 0.58075 0.0
H918 H 0.82145 0.5253 0.52803 0.0
C919 C 0.7675 0.57464 0.53905 0.0
C920 C 0.78244 0.60476 0.79084 0.0
C921 C 0.77945 0.57977 0.77424 0.0
H922 H 0.78147 0.62461 0.83273 0.0
C923 C 0.77693 0.55433 0.78937 0.0
H924 H 0.78327 0.62492 0.78013 0.0
C925 C 0.77571 0.55421 0.8198 0.0
C926 C 0.77729 0.57944 0.83626 0.0
H927 H 0.7734 0.5348 0.77758 0.0
H928 H 0.77119 0.53457 0.83029 0.0
C929 C 0.78147 0.6046 0.82121 0.0
C930 C 0.76499 0.5655 0.08109 0.0
C931 C 0.79131 0.57526 0.09368 0.0
H932 H 0.73951 0.55649 1.04263 0.0
C933 C 0.81116 0.58691 0.07463 0.0
H934 H 0.74893 0.55635 0.09441 0.0
C935 C 0.80557 0.58706 1.04421 0.0
C936 C 0.77972 0.57593 1.03174 0.0
H937 H 0.83187 0.59442 0.08305 0.0
H938 H 0.82235 0.59415 1.03042 0.0
C939 C 0.75939 0.56585 1.05103 0.0
C940 C 0.80717 0.58306 0.33025 0.0
C941 C 0.79978 0.55493 0.33515 0.0
H942 H 0.81926 0.61387 0.29968 0.0
C943 C 0.79551 0.53713 0.31079 0.0
H944 H 0.81092 0.59741 0.34821 0.0
C945 C 0.79992 0.54673 0.28265 0.0
C946 C 0.8092 0.57432 0.27805 0.0
H947 H 0.7899 0.51527 0.31355 0.0
H948 H 0.79788 0.532 0.26476 0.0
C949 C 0.81203 0.59248 0.30225 0.0
C950 C 0.54789 0.81319 0.83857 0.0
C951 C 0.52609 0.79275 0.8339 0.0
H952 H 0.55983 0.85722 0.83576 0.0
C953 C 0.49812 0.80349 0.82511 0.0
H954 H 0.56985 0.80628 0.84499 0.0
C955 C 0.49248 0.83254 0.81968 0.0
C956 C 0.51427 0.85294 0.82312 0.0
H957 H 0.48037 0.78918 0.82143 0.0
H958 H 0.47081 0.83898 0.81176 0.0
C959 C 0.54208 0.8427 0.83333 0.0
C960 C 0.12918 0.16855 0.40724 0.0
C961 C 0.13853 0.18725 0.38644 0.0
H962 H 0.14172 0.13804 0.43949 0.0
C963 C 0.16853 0.19246 0.38541 0.0
H964 H 0.10626 0.164 0.40854 0.0
C965 C 0.18888 0.17791 0.40357 0.0
C966 C 0.17964 0.15752 0.42274 0.0
H967 H 0.17641 0.20672 0.36957 0.0
H968 H 0.21193 0.18117 0.40112 0.0
C969 C 0.14952 0.15369 0.42501 0.0
C970 C 0.25443 0.89798 0.67278 0.0
C971 C 0.23555 0.89625 0.64829 0.0
H972 H 0.2744 0.92475 0.70518 0.0
C973 C 0.22211 0.9215 0.63788 0.0
H974 H 0.26518 0.87905 0.68139 0.0
C975 C 0.22796 0.9477 0.65115 0.0
C976 C 0.24752 0.94943 0.67503 0.0
H977 H 0.20764 0.92115 0.61897 0.0
H978 H 0.21712 0.96669 0.64274 0.0
C979 C 0.26009 0.92419 0.68615 0.0
C980 C 0.4004 0.9522 0.8833 0.0
C981 C 0.4288 0.96258 0.88693 0.0
H982 H 0.35583 0.9547 0.89629 0.0
C983 C 0.43399 0.98267 0.9089 0.0
H984 H 0.39556 0.93682 0.86653 0.0
C985 C 0.41112 0.99314 0.92577 0.0
C986 C 0.38249 0.98352 0.92145 0.0
H987 H 0.45548 0.99129 0.91221 0.0
H988 H 0.41567 1.00956 0.94157 0.0
C989 C 0.3776 0.96239 0.90045 0.0
C990 C 0.34787 0.15163 0.10314 0.0
C991 C 0.33294 0.15438 0.12898 0.0
H992 H 0.37952 0.16856 0.07583 0.0
C993 C 0.34216 0.17486 0.14919 0.0
H994 H 0.34136 0.1361 0.08705 0.0
C995 C 0.36395 0.19374 0.14261 0.0
C996 C 0.37736 0.19231 0.11587 0.0
H997 H 0.33111 0.17769 0.16924 0.0
H998 H 0.36909 0.21054 0.1578 0.0
C999 C 0.36994 0.17021 0.09674 0.0
C1000 C 0.12923 0.98536 0.22224 0.0
C1001 C 0.1412 0.96634 0.24277 0.0
H1002 H 0.13757 1.01758 0.19172 0.0
C1003 C 0.17175 0.96255 0.24511 0.0
H1004 H 0.10582 0.98893 0.22005 0.0
C1005 C 0.18996 0.97896 0.22887 0.0
C1006 C 0.178 0.99959 0.21002 0.0
H1007 H 0.18166 0.94813 0.2608 0.0
H1008 H 0.21338 0.97673 0.23246 0.0
C1009 C 0.14745 1.00186 0.20607 0.0
C1010 C 0.37766 0.97089 0.48067 0.0
C1011 C 0.35545 0.97597 0.45952 0.0
H1012 H 0.40249 0.94019 0.50552 0.0
C1013 C 0.34429 0.95272 0.44404 0.0
H1014 H 0.38683 0.98829 0.49294 0.0
C1015 C 0.35307 0.92501 0.45149 0.0
C1016 C 0.37342 0.9199 0.47439 0.0
H1017 H 0.32712 0.95575 0.42767 0.0
H1018 H 0.34257 0.90759 0.44042 0.0
C1019 C 0.38662 0.94322 0.48794 0.0
C1020 C 0.37984 0.1316 0.73894 0.0
C1021 C 0.38507 0.10518 0.72559 0.0
H1022 H 0.39474 0.16211 0.77038 0.0
C1023 C 0.41168 0.09064 0.73196 0.0
H1024 H 0.35946 0.1432 0.73466 0.0
C1025 C 0.43152 0.10114 0.75279 0.0
C1026 C 0.42565 0.12681 0.76727 0.0
H1027 H 0.41633 0.07013 0.72232 0.0
H1028 H 0.45089 0.08848 0.75855 0.0
C1029 C 0.40011 0.14248 0.75933 0.0
C1030 C 0.19947 0.2056 0.97518 0.0
C1031 C 0.19281 0.21033 1.00413 0.0
H1032 H 0.20842 0.17509 0.94202 0.0
C1033 C 0.18735 0.18712 1.02139 0.0
H1034 H 0.20362 0.22317 0.96131 0.0
C1035 C 0.18944 0.15958 1.01014 0.0
C1036 C 0.19754 0.1547 0.98151 0.0
H1037 H 0.18199 0.19019 1.04372 0.0
H1038 H 0.18612 0.1421 1.02438 0.0
C1039 C 0.20201 0.17808 0.96404 0.0
C1040 C 0.06836 0.41978 0.15589 0.0
C1041 C 0.09423 0.40291 0.15719 0.0
H1042 H 1.03256 0.43786 0.17892 0.0
C1043 C 0.10645 0.39576 0.18437 0.0
H1044 H 0.05836 0.42586 0.13535 0.0
C1045 C 0.09168 0.40282 0.2094 0.0
C1046 C 0.06432 0.41716 0.20788 0.0
H1047 H 0.12643 0.38303 0.18628 0.0
H1048 H 0.10074 0.39521 0.22981 0.0
C1049 C 0.05356 0.42684 0.18096 0.0
C1050 C 0.62037 0.19616 0.93612 0.0
C1051 C 0.61836 0.20743 0.90821 0.0
H1052 H 0.64029 0.19854 0.97858 0.0
C1053 C 0.63774 0.22855 0.9012 0.0
H1054 H 0.60565 0.17997 0.94224 0.0
C1055 C 0.65723 0.23953 0.92218 0.0
C1056 C 0.65821 0.22925 0.95048 0.0
H1057 H 0.63659 0.23785 0.88001 0.0
H1058 H 0.67065 0.25695 0.91655 0.0
C1059 C 0.64028 0.20676 0.95695 0.0
C1060 C 0.99774 0.8938 0.43199 0.0
C1061 C 1.01319 0.87811 0.4114 0.0
H1062 H 0.96792 0.89238 0.46648 0.0
C1063 C 1.00635 0.8497 0.40637 0.0
H1064 H 1.00278 0.91567 0.43645 0.0
C1065 C 0.98632 0.83651 0.42326 0.0
C1066 C 0.97305 0.85136 0.44582 0.0
H1067 H 1.01791 0.83715 0.39055 0.0
H1068 H 0.98291 0.81412 0.41999 0.0
C1069 C 0.97789 0.88044 0.44925 0.0
C1070 C 0.96489 0.27486 0.18504 0.0
C1071 C 0.96518 0.25734 0.16038 0.0
H1072 H 0.96996 0.27743 0.23121 0.0
C1073 C 0.97222 0.22839 0.16397 0.0
H1074 H 0.95944 0.29721 0.18309 0.0
C1075 C 0.97865 0.2172 0.19143 0.0
C1076 C 0.97853 0.23471 0.21602 0.0
H1077 H 0.97257 0.21427 0.14551 0.0
H1078 H 0.98323 0.19471 0.19352 0.0
C1079 C 0.9712 0.26361 0.21256 0.0
C1080 C 0.45891 0.72236 0.70463 0.0
C1081 C 0.45612 0.74242 0.72696 0.0
H1082 H 0.4592 0.71491 0.6591 0.0
C1083 C 0.44857 0.77063 0.71977 0.0
H1084 H 0.46475 0.70051 0.70933 0.0
C1085 C 0.44593 0.77893 0.69102 0.0
C1086 C 0.45034 0.75914 0.66883 0.0
H1087 H 0.44628 0.78672 0.73633 0.0
H1088 H 0.4413 0.801 0.68619 0.0
C1089 C 0.45595 0.73064 0.67584 0.0
C1090 C 0.16878 0.74398 0.42481 0.0
C1091 C 0.16969 0.73335 0.45299 0.0
H1092 H 0.14913 0.74184 0.38222 0.0
C1093 C 0.15301 0.70973 0.4587 0.0
H1094 H 0.18124 0.76225 0.41974 0.0
C1095 C 0.13436 0.69825 0.43728 0.0
C1096 C 0.13228 0.70983 0.40952 0.0
H1097 H 0.15302 0.70115 0.48018 0.0
H1098 H 0.12052 0.68113 0.44285 0.0
C1099 C 0.15045 0.73221 0.40326 0.0
C1100 C 0.45626 0.3764 0.93139 0.0
C1101 C 0.45758 0.38132 0.96118 0.0
H1102 H 0.46923 0.38969 0.89015 0.0
C1103 C 0.4699 0.40625 0.97198 0.0
H1104 H 0.44661 0.35743 0.92253 0.0
C1105 C 0.48311 0.42468 0.95348 0.0
C1106 C 0.48386 0.41862 0.92385 0.0
H1107 H 0.471 0.41058 0.9949 0.0
H1108 H 0.49428 0.44273 0.96258 0.0
C1109 C 0.46904 0.39504 0.91283 0.0
C1110 C 0.69608 0.66476 0.89788 0.0
C1111 C 0.6919 0.64387 0.91847 0.0
H1112 H 0.67613 0.69629 0.87007 0.0
C1113 C 0.6638 0.64127 0.92921 0.0
H1114 H 0.71737 0.66723 0.88905 0.0
C1115 C 0.64021 0.65838 0.91874 0.0
C1116 C 0.6441 0.67809 0.89689 0.0
H1117 H 0.65983 0.62534 0.94503 0.0
H1118 H 0.61865 0.65501 0.92657 0.0
C1119 C 0.67242 0.68145 0.88702 0.0
C1120 C 0.74286 0.43936 0.16812 0.0
C1121 C 0.72992 0.4615 0.15164 0.0
H1122 H 0.75165 0.39462 0.17147 0.0
C1123 C 0.71128 0.45432 0.12814 0.0
H1124 H 0.75737 0.44394 0.18635 0.0
C1125 C 0.7075 0.42597 0.11997 0.0
C1126 C 0.72273 0.40398 0.13475 0.0
H1127 H 0.70093 0.47075 0.11494 0.0
H1128 H 0.69434 0.42149 0.10075 0.0
C1129 C 0.73965 0.41099 0.15953 0.0
C1130 C 0.91812 0.50017 0.40906 0.0
C1131 C 0.88888 0.49303 0.40341 0.0
H1132 H 0.96282 0.49482 0.39743 0.0
C1133 C 0.88297 0.47268 0.38184 0.0
H1134 H 0.92346 0.51587 0.42538 0.0
C1135 C 0.90562 0.46089 0.36538 0.0
C1136 C 0.93474 0.46884 0.37043 0.0
H1137 H 0.86069 0.46695 0.37668 0.0
H1138 H 0.90019 0.44627 0.34807 0.0
C1139 C 0.94073 0.48807 0.393 0.0
C1140 C 0.87191 0.63265 0.63012 0.0
C1141 C 0.85836 0.64082 0.65566 0.0
H1142 H 0.89377 0.64627 0.59285 0.0
C1143 C 0.86055 0.66892 0.6653 0.0
H1144 H 0.87034 0.61118 0.62201 0.0
C1145 C 0.87396 0.68895 0.64873 0.0
C1146 C 0.88527 0.68147 0.6219 0.0
H1147 H 0.8503 0.67584 0.68488 0.0
H1148 H 0.87383 0.71071 0.65622 0.0
C1149 C 0.88519 0.65282 0.61333 0.0
C1150 C 0.64996 0.50881 0.72677 0.0
C1151 C 0.67978 0.50771 0.73524 0.0
H1152 H 0.60699 0.49413 0.73463 0.0
C1153 C 0.68963 0.48712 0.75512 0.0
H1154 H 0.64164 0.52468 0.71174 0.0
C1155 C 0.66995 0.46945 0.76783 0.0
C1156 C 0.6398 0.47223 0.7614 0.0
H1157 H 0.71242 0.48573 0.7621 0.0
H1158 H 0.67823 0.45496 0.78426 0.0
C1159 C 0.63009 0.49134 0.7399 0.0
C1160 C 0.86584 0.453 0.98823 0.0
C1161 C 0.85822 0.42696 0.97549 0.0
H1162 H 0.86455 0.49844 0.98476 0.0
C1163 C 0.84336 0.42746 0.94844 0.0
H1164 H 0.87708 0.45351 1.00909 0.0
C1165 C 0.83612 0.45317 0.93464 0.0
C1166 C 0.84276 0.47916 0.94785 0.0
H1167 H 0.83714 0.4079 0.93793 0.0
H1168 H 0.82508 0.45275 0.91366 0.0
C1169 C 0.85827 0.47877 0.97452 0.0
C1170 C 0.8939 0.65647 0.23613 0.0
C1171 C 0.9006 0.63253 0.21912 0.0
H1172 H 0.90704 0.68258 0.27228 0.0
C1173 C 0.92804 0.61882 0.22349 0.0
H1174 H 0.87286 0.66732 0.23351 0.0
C1175 C 0.94716 0.62711 0.24589 0.0
C1176 C 0.93977 0.64982 0.26412 0.0
H1177 H 0.93396 0.60029 0.21087 0.0
H1178 H 0.96718 0.6148 0.24989 0.0
C1179 C 0.91349 0.66521 0.25831 0.0
C1180 C 0.7062 0.66017 0.49356 0.0
C1181 C 0.70375 0.68798 0.48302 0.0
H1182 H 0.70912 0.61574 0.48339 0.0
C1183 C 0.70112 0.69193 0.45314 0.0
H1184 H 0.70791 0.65637 0.51648 0.0
C1185 C 0.70167 0.66855 0.43423 0.0
C1186 C 0.70541 0.6409 0.44486 0.0
H1187 H 0.69887 0.71303 0.44439 0.0
H1188 H 0.69968 0.67207 0.41127 0.0
C1189 C 0.70698 0.63688 0.47469 0.0
C1190 C 0.60861 0.85358 0.72295 0.0
C1191 C 0.59026 0.87782 0.71917 0.0
H1192 H 0.64114 0.82563 0.70507 0.0
C1193 C 0.59378 0.89437 0.69466 0.0
H1194 H 0.60653 0.84022 0.74147 0.0
C1195 C 0.61351 0.88579 0.67356 0.0
C1196 C 0.63065 0.86068 0.67656 0.0
H1197 H 0.57998 0.91302 0.69081 0.0
H1198 H 0.61432 0.89817 0.65417 0.0
C1199 C 0.62866 0.84524 0.70207 0.0
loop_
_geom_bond_atom_site_label_1
_geom_bond_atom_site_label_2
_geom_bond_distance
_geom_bond_site_symmetry_2
_ccdc_geom_bond_type
O0 Tb1 2.506 . S
O0 C14 1.265 . S
Tb1 O0 2.506 . S
Tb1 O6 2.312 . S
Tb1 O10 2.271 . S
Tb1 O12 2.338 . S
Tb1 O19 2.441 . S
C2 O10 1.252 . S
C2 O11 1.253 . S
O3 Tb4 2.271 . S
O3 C13 1.252 . S
Tb4 O3 2.271 . S
Tb4 O7 2.338 1_455 S
Tb4 O11 2.312 . S
Tb4 O15 2.441 . S
Tb4 O16 2.506 . S
C5 O15 1.244 . S
C5 O16 1.265 . S
O6 Tb1 2.312 . S
O6 C13 1.253 . S
O7 Tb4 2.338 1_655 S
O7 C8 1.258 . S
C8 O7 1.258 . S
C8 O9 1.251 . S
O9 C8 1.251 . S
O10 Tb1 2.271 . S
O10 C2 1.252 . S
O11 C2 1.253 . S
O11 Tb4 2.312 . S
O12 Tb1 2.338 . S
O12 C17 1.258 . S
C13 O3 1.252 . S
C13 O6 1.253 . S
C14 O0 1.265 . S
C14 O19 1.244 . S
O15 Tb4 2.441 . S
O15 C5 1.244 . S
O16 Tb4 2.506 . S
O16 C5 1.265 . S
C17 O12 1.258 . S
C17 O18 1.251 . S
O18 C17 1.251 . S
O19 Tb1 2.441 . S
O19 C14 1.244 . S
O20 Tb21 2.506 . S
O20 C34 1.265 . S
Tb21 O20 2.506 . S
Tb21 O26 2.312 . S
Tb21 O30 2.271 . S
Tb21 O32 2.338 . S
Tb21 O39 2.441 . S
C22 O30 1.252 . S
C22 O31 1.253 . S
O23 Tb24 2.271 . S
O23 C33 1.252 . S
Tb24 O23 2.271 . S
Tb24 O27 2.338 . S
Tb24 O31 2.312 . S
Tb24 O35 2.441 . S
Tb24 O36 2.506 . S
C25 O35 1.244 . S
C25 O36 1.265 . S
O26 Tb21 2.312 . S
O26 C33 1.253 . S
O27 Tb24 2.338 . S
O27 C28 1.258 . S
C28 O27 1.258 . S
C28 O29 1.251 . S
O29 C28 1.251 . S
O30 Tb21 2.271 . S
O30 C22 1.252 . S
O31 C22 1.253 . S
O31 Tb24 2.312 . S
O32 Tb21 2.338 . S
O32 C37 1.258 . S
C33 O23 1.252 . S
C33 O26 1.253 . S
C34 O20 1.265 . S
C34 O39 1.244 . S
O35 Tb24 2.441 . S
O35 C25 1.244 . S
O36 Tb24 2.506 . S
O36 C25 1.265 . S
C37 O32 1.258 . S
C37 O38 1.251 . S
O38 C37 1.251 . S
O39 Tb21 2.441 . S
O39 C34 1.244 . S
O40 Tb41 2.506 . S
O40 C54 1.265 . S
Tb41 O40 2.506 . S
Tb41 O46 2.312 . S
Tb41 O50 2.271 . S
Tb41 O52 2.338 . S
Tb41 O59 2.441 . S
C42 O50 1.252 . S
C42 O51 1.253 . S
O43 Tb44 2.271 . S
O43 C53 1.252 . S
Tb44 O43 2.271 . S
Tb44 O47 2.338 . S
Tb44 O51 2.312 . S
Tb44 O55 2.441 . S
Tb44 O56 2.506 . S
C45 O55 1.244 . S
C45 O56 1.265 . S
O46 Tb41 2.312 . S
O46 C53 1.253 . S
O47 Tb44 2.338 . S
O47 C48 1.258 . S
C48 O47 1.258 . S
C48 O49 1.251 . S
O49 C48 1.251 . S
O50 Tb41 2.271 . S
O50 C42 1.252 . S
O51 C42 1.253 . S
O51 Tb44 2.312 . S
O52 Tb41 2.338 . S
O52 C57 1.258 . S
C53 O43 1.252 . S
C53 O46 1.253 . S
C54 O40 1.265 . S
C54 O59 1.244 . S
O55 Tb44 2.441 . S
O55 C45 1.244 . S
O56 Tb44 2.506 . S
O56 C45 1.265 . S
C57 O52 1.258 . S
C57 O58 1.251 . S
O58 C57 1.251 . S
O59 Tb41 2.441 . S
O59 C54 1.244 . S
O60 Tb61 2.506 . S
O60 C74 1.265 . S
Tb61 O60 2.506 . S
Tb61 O66 2.312 1_556 S
Tb61 O70 2.271 . S
Tb61 O72 2.338 1_556 S
Tb61 O79 2.441 . S
C62 O70 1.252 . S
C62 O71 1.253 . S
O63 Tb64 2.280 . S
O63 C73 1.242 1_556 S
Tb64 O63 2.280 . S
Tb64 O67 2.338 1_556 S
Tb64 O71 2.312 . S
Tb64 O75 2.441 . S
Tb64 O76 2.506 . S
C65 O75 1.244 . S
C65 O76 1.265 . S
O66 Tb61 2.312 1_554 S
O66 C73 1.253 . S
O67 Tb64 2.338 1_554 S
O67 C68 1.258 . S
C68 O67 1.258 . S
C68 O69 1.251 . S
O69 C68 1.251 . S
O70 Tb61 2.271 . S
O70 C62 1.252 . S
O71 C62 1.253 . S
O71 Tb64 2.312 . S
O72 Tb61 2.338 1_554 S
O72 C77 1.258 . S
C73 O63 1.242 1_554 S
C73 O66 1.253 . S
C74 O60 1.265 . S
C74 O79 1.244 . S
O75 Tb64 2.441 . S
O75 C65 1.244 . S
O76 Tb64 2.506 . S
O76 C65 1.265 . S
C77 O72 1.258 . S
C77 O78 1.251 . S
O78 C77 1.251 . S
O79 Tb61 2.441 . S
O79 C74 1.244 . S
O80 Tb81 2.506 . S
O80 C94 1.265 . S
Tb81 O80 2.506 . S
Tb81 O86 2.312 . S
Tb81 O90 2.271 . S
Tb81 O92 2.338 . S
Tb81 O99 2.441 . S
C82 O90 1.252 . S
C82 O91 1.253 . S
O83 Tb84 2.271 . S
O83 C93 1.252 . S
Tb84 O83 2.271 . S
Tb84 O87 2.338 . S
Tb84 O91 2.312 . S
Tb84 O95 2.441 . S
Tb84 O96 2.506 . S
C85 O95 1.244 . S
C85 O96 1.265 . S
O86 Tb81 2.312 . S
O86 C93 1.253 . S
O87 Tb84 2.338 . S
O87 C88 1.258 1_455 S
C88 O87 1.258 1_655 S
C88 O89 1.251 . S
O89 C88 1.251 . S
O90 Tb81 2.271 . S
O90 C82 1.252 . S
O91 C82 1.253 . S
O91 Tb84 2.312 . S
O92 Tb81 2.338 . S
O92 C97 1.258 . S
C93 O83 1.252 . S
C93 O86 1.253 . S
C94 O80 1.265 . S
C94 O99 1.244 . S
O95 Tb84 2.441 . S
O95 C85 1.244 . S
O96 Tb84 2.506 . S
O96 C85 1.265 . S
C97 O92 1.258 . S
C97 O98 1.251 . S
O98 C97 1.251 . S
O99 Tb81 2.441 . S
O99 C94 1.244 . S
O100 Tb101 2.506 . S
O100 C114 1.265 . S
Tb101 O100 2.506 . S
Tb101 O106 2.312 . S
Tb101 O110 2.271 . S
Tb101 O112 2.338 . S
Tb101 O119 2.441 . S
C102 O110 1.252 . S
C102 O111 1.253 . S
O103 Tb104 2.271 . S
O103 C113 1.252 . S
Tb104 O103 2.271 . S
Tb104 O107 2.338 . S
Tb104 O111 2.312 . S
Tb104 O115 2.441 . S
Tb104 O116 2.506 . S
C105 O115 1.244 . S
C105 O116 1.265 . S
O106 Tb101 2.312 . S
O106 C113 1.253 . S
O107 Tb104 2.338 . S
O107 C108 1.258 . S
C108 O107 1.258 . S
C108 O109 1.251 . S
O109 C108 1.251 . S
O110 Tb101 2.271 . S
O110 C102 1.252 . S
O111 C102 1.253 . S
O111 Tb104 2.312 . S
O112 Tb101 2.338 . S
O112 C117 1.258 . S
C113 O103 1.252 . S
C113 O106 1.253 . S
C114 O100 1.265 . S
C114 O119 1.244 . S
O115 Tb104 2.441 . S
O115 C105 1.244 . S
O116 Tb104 2.506 . S
O116 C105 1.265 . S
C117 O112 1.258 . S
C117 O118 1.251 . S
O118 C117 1.251 . S
O119 Tb101 2.441 . S
O119 C114 1.244 . S
O120 Tb121 2.506 . S
O120 C134 1.265 . S
Tb121 O120 2.506 . S
Tb121 O126 2.312 . S
Tb121 O130 2.271 . S
Tb121 O132 2.338 . S
Tb121 O139 2.441 . S
C122 O130 1.252 . S
C122 O131 1.253 . S
O123 Tb124 2.271 . S
O123 C133 1.252 . S
Tb124 O123 2.271 . S
Tb124 O127 2.338 . S
Tb124 O131 2.312 . S
Tb124 O135 2.441 . S
Tb124 O136 2.506 . S
C125 O135 1.244 . S
C125 O136 1.265 . S
O126 Tb121 2.312 . S
O126 C133 1.253 . S
O127 Tb124 2.338 . S
O127 C128 1.258 . S
C128 O127 1.258 . S
C128 O129 1.251 . S
O129 C128 1.251 . S
O130 Tb121 2.271 . S
O130 C122 1.252 . S
O131 C122 1.253 . S
O131 Tb124 2.312 . S
O132 Tb121 2.338 . S
O132 C137 1.258 . S
C133 O123 1.252 . S
C133 O126 1.253 . S
C134 O120 1.265 . S
C134 O139 1.244 . S
O135 Tb124 2.441 . S
O135 C125 1.244 . S
O136 Tb124 2.506 . S
O136 C125 1.265 . S
C137 O132 1.258 . S
C137 O138 1.251 . S
O138 C137 1.251 . S
O139 Tb121 2.441 . S
O139 C134 1.244 . S
O140 Tb141 2.506 . S
O140 C154 1.265 . S
Tb141 O140 2.506 . S
Tb141 O146 2.312 . S
Tb141 O150 2.271 1_556 S
Tb141 O152 2.338 . S
Tb141 O159 2.441 . S
C142 O150 1.252 . S
C142 O151 1.253 . S
O143 Tb144 2.271 . S
O143 C153 1.271 . S
Tb144 O143 2.271 . S
Tb144 O147 2.338 . S
Tb144 O151 2.312 . S
Tb144 O155 2.441 . S
Tb144 O156 2.506 . S
C145 O155 1.244 . S
C145 O156 1.265 . S
O146 Tb141 2.312 . S
O146 C153 1.237 1_556 S
O147 Tb144 2.338 . S
O147 C148 1.258 . S
C148 O147 1.258 . S
C148 O149 1.251 . S
O149 C148 1.251 . S
O150 Tb141 2.271 1_554 S
O150 C142 1.252 . S
O151 C142 1.253 . S
O151 Tb144 2.312 . S
O152 Tb141 2.338 . S
O152 C157 1.258 . S
C153 O143 1.271 . S
C153 O146 1.237 1_554 S
C154 O140 1.265 . S
C154 O159 1.244 . S
O155 Tb144 2.441 . S
O155 C145 1.244 . S
O156 Tb144 2.506 . S
O156 C145 1.265 . S
C157 O152 1.258 . S
C157 O158 1.221 1_556 S
O158 C157 1.221 1_554 S
O159 Tb141 2.441 . S
O159 C154 1.244 . S
O160 Tb161 2.506 . S
O160 C174 1.265 . S
Tb161 O160 2.506 . S
Tb161 O166 2.312 1_565 S
Tb161 O170 2.271 1_565 S
Tb161 O172 2.338 . S
Tb161 O179 2.441 . S
C162 O170 1.252 . S
C162 O171 1.253 . S
O163 Tb164 2.271 . S
O163 C173 1.252 . S
Tb164 O163 2.271 . S
Tb164 O167 2.338 . S
Tb164 O171 2.312 . S
Tb164 O175 2.441 . S
Tb164 O176 2.506 . S
C165 O175 1.244 . S
C165 O176 1.265 . S
O166 Tb161 2.312 1_545 S
O166 C173 1.253 . S
O167 Tb164 2.338 . S
O167 C168 1.258 . S
C168 O167 1.258 . S
C168 O169 1.251 . S
O169 C168 1.251 . S
O170 Tb161 2.271 1_545 S
O170 C162 1.252 . S
O171 C162 1.253 . S
O171 Tb164 2.312 . S
O172 Tb161 2.338 . S
O172 C177 1.258 1_565 S
C173 O163 1.252 . S
C173 O166 1.253 . S
C174 O160 1.265 . S
C174 O179 1.244 . S
O175 Tb164 2.441 . S
O175 C165 1.244 . S
O176 Tb164 2.506 . S
O176 C165 1.265 . S
C177 O172 1.258 1_545 S
C177 O178 1.251 . S
O178 C177 1.251 . S
O179 Tb161 2.441 . S
O179 C174 1.244 . S
O180 Tb181 2.506 . S
O180 C194 1.265 . S
Tb181 O180 2.506 . S
Tb181 O186 2.312 . S
Tb181 O190 2.271 1_545 S
Tb181 O192 2.338 . S
Tb181 O199 2.441 . S
C182 O190 1.252 . S
C182 O191 1.253 . S
O183 Tb184 2.271 . S
O183 C193 1.252 . S
Tb184 O183 2.271 . S
Tb184 O187 2.338 . S
Tb184 O191 2.312 . S
Tb184 O195 2.441 . S
Tb184 O196 2.506 . S
C185 O195 1.244 . S
C185 O196 1.265 . S
O186 Tb181 2.312 . S
O186 C193 1.253 1_545 S
O187 Tb184 2.338 . S
O187 C188 1.258 . S
C188 O187 1.258 . S
C188 O189 1.251 . S
O189 C188 1.251 . S
O190 Tb181 2.271 1_565 S
O190 C182 1.252 . S
O191 C182 1.253 . S
O191 Tb184 2.312 . S
O192 Tb181 2.338 . S
O192 C197 1.258 . S
C193 O183 1.252 . S
C193 O186 1.253 1_565 S
C194 O180 1.265 . S
C194 O199 1.244 . S
O195 Tb184 2.441 . S
O195 C185 1.244 . S
O196 Tb184 2.506 . S
O196 C185 1.265 . S
C197 O192 1.258 . S
C197 O198 1.251 1_545 S
O198 C197 1.251 1_565 S
O199 Tb181 2.441 . S
O199 C194 1.244 . S
O200 Tb201 2.506 . S
O200 C214 1.265 . S
Tb201 O200 2.506 . S
Tb201 O206 2.312 . S
Tb201 O210 2.271 1_545 S
Tb201 O212 2.338 . S
Tb201 O219 2.441 . S
C202 O210 1.252 . S
C202 O211 1.253 . S
O203 Tb204 2.271 . S
O203 C213 1.252 . S
Tb204 O203 2.271 . S
Tb204 O207 2.338 . S
Tb204 O211 2.312 . S
Tb204 O215 2.441 . S
Tb204 O216 2.506 . S
C205 O215 1.244 . S
C205 O216 1.265 . S
O206 Tb201 2.312 . S
O206 C213 1.253 1_545 S
O207 Tb204 2.338 . S
O207 C208 1.258 . S
C208 O207 1.258 . S
C208 O209 1.251 . S
O209 C208 1.251 . S
O210 Tb201 2.271 1_565 S
O210 C202 1.252 . S
O211 C202 1.253 . S
O211 Tb204 2.312 . S
O212 Tb201 2.338 . S
O212 C217 1.258 . S
C213 O203 1.252 . S
C213 O206 1.253 1_565 S
C214 O200 1.265 . S
C214 O219 1.244 . S
O215 Tb204 2.441 . S
O215 C205 1.244 . S
O216 Tb204 2.506 . S
O216 C205 1.265 . S
C217 O212 1.258 . S
C217 O218 1.251 1_545 S
O218 C217 1.251 1_565 S
O219 Tb201 2.441 . S
O219 C214 1.244 . S
O220 Tb221 2.506 . S
O220 C234 1.265 . S
Tb221 O220 2.506 . S
Tb221 O226 2.312 . S
Tb221 O230 2.271 1_565 S
Tb221 O232 2.338 . S
Tb221 O239 2.441 . S
C222 O230 1.252 . S
C222 O231 1.253 . S
O223 Tb224 2.271 . S
O223 C233 1.252 . S
Tb224 O223 2.271 . S
Tb224 O227 2.338 . S
Tb224 O231 2.312 . S
Tb224 O235 2.441 . S
Tb224 O236 2.506 . S
C225 O235 1.244 . S
C225 O236 1.265 . S
O226 Tb221 2.312 . S
O226 C233 1.253 1_565 S
O227 Tb224 2.338 . S
O227 C228 1.258 . S
C228 O227 1.258 . S
C228 O229 1.251 . S
O229 C228 1.251 . S
O230 Tb221 2.271 1_545 S
O230 C222 1.252 . S
O231 C222 1.253 . S
O231 Tb224 2.312 . S
O232 Tb221 2.338 . S
O232 C237 1.258 . S
C233 O223 1.252 . S
C233 O226 1.253 1_545 S
C234 O220 1.265 . S
C234 O239 1.244 . S
O235 Tb224 2.441 . S
O235 C225 1.244 . S
O236 Tb224 2.506 . S
O236 C225 1.265 . S
C237 O232 1.258 . S
C237 O238 1.251 1_565 S
O238 C237 1.251 1_545 S
O239 Tb221 2.441 . S
O239 C234 1.244 . S
O240 Tb241 2.506 . S
O240 C254 1.265 . S
Tb241 O240 2.506 . S
Tb241 O246 2.312 . S
Tb241 O250 2.271 . S
Tb241 O252 2.338 1_556 S
Tb241 O259 2.441 . S
C242 O250 1.252 . S
C242 O251 1.253 . S
O243 Tb244 2.271 . S
O243 C253 1.252 1_556 S
Tb244 O243 2.271 . S
Tb244 O247 2.338 1_556 S
Tb244 O251 2.312 . S
Tb244 O255 2.441 . S
Tb244 O256 2.506 . S
C245 O255 1.244 . S
C245 O256 1.265 . S
O246 Tb241 2.312 . S
O246 C253 1.253 1_556 S
O247 Tb244 2.338 1_554 S
O247 C248 1.258 . S
C248 O247 1.258 . S
C248 O249 1.251 . S
O249 C248 1.251 . S
O250 Tb241 2.271 . S
O250 C242 1.252 . S
O251 C242 1.253 . S
O251 Tb244 2.312 . S
O252 Tb241 2.338 1_554 S
O252 C257 1.258 . S
C253 O243 1.252 1_554 S
C253 O246 1.253 1_554 S
C254 O240 1.265 . S
C254 O259 1.244 . S
O255 Tb244 2.441 . S
O255 C245 1.244 . S
O256 Tb244 2.506 . S
O256 C245 1.265 . S
C257 O252 1.258 . S
C257 O258 1.251 . S
O258 C257 1.251 . S
O259 Tb241 2.441 . S
O259 C254 1.244 . S
O260 Tb261 2.506 . S
O260 C274 1.265 . S
Tb261 O260 2.506 . S
Tb261 O266 2.312 . S
Tb261 O270 2.271 . S
Tb261 O272 2.338 . S
Tb261 O279 2.441 . S
C262 O270 1.252 . S
C262 O271 1.253 . S
O263 Tb264 2.271 . S
O263 C273 1.252 . S
Tb264 O263 2.271 . S
Tb264 O267 2.338 1_655 S
Tb264 O271 2.312 . S
Tb264 O275 2.441 . S
Tb264 O276 2.506 . S
C265 O275 1.244 . S
C265 O276 1.265 . S
O266 Tb261 2.312 . S
O266 C273 1.253 . S
O267 Tb264 2.338 1_455 S
O267 C268 1.258 . S
C268 O267 1.258 . S
C268 O269 1.251 . S
O269 C268 1.251 . S
O270 Tb261 2.271 . S
O270 C262 1.252 . S
O271 C262 1.253 . S
O271 Tb264 2.312 . S
O272 Tb261 2.338 . S
O272 C277 1.258 . S
C273 O263 1.252 . S
C273 O266 1.253 . S
C274 O260 1.265 . S
C274 O279 1.244 . S
O275 Tb264 2.441 . S
O275 C265 1.244 . S
O276 Tb264 2.506 . S
O276 C265 1.265 . S
C277 O272 1.258 . S
C277 O278 1.251 . S
O278 C277 1.251 . S
O279 Tb261 2.441 . S
O279 C274 1.244 . S
O280 Tb281 2.506 . S
O280 C294 1.265 . S
Tb281 O280 2.506 . S
Tb281 O286 2.312 . S
Tb281 O290 2.271 . S
Tb281 O292 2.338 . S
Tb281 O299 2.441 . S
C282 O290 1.252 . S
C282 O291 1.253 . S
O283 Tb284 2.271 . S
O283 C293 1.252 . S
Tb284 O283 2.271 . S
Tb284 O287 2.338 . S
Tb284 O291 2.312 . S
Tb284 O295 2.441 . S
Tb284 O296 2.506 . S
C285 O295 1.244 . S
C285 O296 1.265 . S
O286 Tb281 2.312 . S
O286 C293 1.253 . S
O287 Tb284 2.338 . S
O287 C288 1.258 . S
C288 O287 1.258 . S
C288 O289 1.251 . S
O289 C288 1.251 . S
O290 Tb281 2.271 . S
O290 C282 1.252 . S
O291 C282 1.253 . S
O291 Tb284 2.312 . S
O292 Tb281 2.338 . S
O292 C297 1.258 . S
C293 O283 1.252 . S
C293 O286 1.253 . S
C294 O280 1.265 . S
C294 O299 1.244 . S
O295 Tb284 2.441 . S
O295 C285 1.244 . S
O296 Tb284 2.506 . S
O296 C285 1.265 . S
C297 O292 1.258 . S
C297 O298 1.251 . S
O298 C297 1.251 . S
O299 Tb281 2.441 . S
O299 C294 1.244 . S
O300 Tb301 2.506 . S
O300 C314 1.265 . S
Tb301 O300 2.506 . S
Tb301 O306 2.312 1_455 S
Tb301 O310 2.271 1_455 S
Tb301 O312 2.338 . S
Tb301 O319 2.441 . S
C302 O310 1.252 . S
C302 O311 1.253 . S
O303 Tb304 2.271 . S
O303 C313 1.252 . S
Tb304 O303 2.271 . S
Tb304 O307 2.338 . S
Tb304 O311 2.312 . S
Tb304 O315 2.441 . S
Tb304 O316 2.506 . S
C305 O315 1.244 . S
C305 O316 1.265 . S
O306 Tb301 2.312 1_655 S
O306 C313 1.253 . S
O307 Tb304 2.338 . S
O307 C308 1.258 . S
C308 O307 1.258 . S
C308 O309 1.251 . S
O309 C308 1.251 . S
O310 Tb301 2.271 1_655 S
O310 C302 1.252 . S
O311 C302 1.253 . S
O311 Tb304 2.312 . S
O312 Tb301 2.338 . S
O312 C317 1.258 . S
C313 O303 1.252 . S
C313 O306 1.253 . S
C314 O300 1.265 . S
C314 O319 1.244 . S
O315 Tb304 2.441 . S
O315 C305 1.244 . S
O316 Tb304 2.506 . S
O316 C305 1.265 . S
C317 O312 1.258 . S
C317 O318 1.251 1_455 S
O318 C317 1.251 1_655 S
O319 Tb301 2.441 . S
O319 C314 1.244 . S
O320 Tb321 2.506 . S
O320 C334 1.265 . S
Tb321 O320 2.506 . S
Tb321 O326 2.312 . S
Tb321 O330 2.271 . S
Tb321 O332 2.338 . S
Tb321 O339 2.441 . S
C322 O330 1.252 . S
C322 O331 1.253 . S
O323 Tb324 2.271 . S
O323 C333 1.252 . S
Tb324 O323 2.271 . S
Tb324 O327 2.338 . S
Tb324 O331 2.312 . S
Tb324 O335 2.441 . S
Tb324 O336 2.506 . S
C325 O335 1.244 . S
C325 O336 1.265 . S
O326 Tb321 2.312 . S
O326 C333 1.253 . S
O327 Tb324 2.338 . S
O327 C328 1.258 . S
C328 O327 1.258 . S
C328 O329 1.251 . S
O329 C328 1.251 . S
O330 Tb321 2.271 . S
O330 C322 1.252 . S
O331 C322 1.253 . S
O331 Tb324 2.312 . S
O332 Tb321 2.338 . S
O332 C337 1.258 . S
C333 O323 1.252 . S
C333 O326 1.253 . S
C334 O320 1.265 . S
C334 O339 1.244 . S
O335 Tb324 2.441 . S
O335 C325 1.244 . S
O336 Tb324 2.506 . S
O336 C325 1.265 . S
C337 O332 1.258 . S
C337 O338 1.251 . S
O338 C337 1.251 . S
O339 Tb321 2.441 . S
O339 C334 1.244 . S
O340 Tb341 2.506 . S
O340 C354 1.265 . S
Tb341 O340 2.506 . S
Tb341 O346 2.312 . S
Tb341 O350 2.271 . S
Tb341 O352 2.338 . S
Tb341 O359 2.441 . S
C342 O350 1.252 . S
C342 O351 1.253 . S
O343 Tb344 2.271 . S
O343 C353 1.252 . S
Tb344 O343 2.271 . S
Tb344 O347 2.338 . S
Tb344 O351 2.312 . S
Tb344 O355 2.441 . S
Tb344 O356 2.506 . S
C345 O355 1.244 . S
C345 O356 1.265 . S
O346 Tb341 2.312 . S
O346 C353 1.253 . S
O347 Tb344 2.338 . S
O347 C348 1.258 . S
C348 O347 1.258 . S
C348 O349 1.251 . S
O349 C348 1.251 . S
O350 Tb341 2.271 . S
O350 C342 1.252 . S
O351 C342 1.253 . S
O351 Tb344 2.312 . S
O352 Tb341 2.338 . S
O352 C357 1.258 . S
C353 O343 1.252 . S
C353 O346 1.253 . S
C354 O340 1.265 . S
C354 O359 1.244 . S
O355 Tb344 2.441 . S
O355 C345 1.244 . S
O356 Tb344 2.506 . S
O356 C345 1.265 . S
C357 O352 1.258 . S
C357 O358 1.251 . S
O358 C357 1.251 . S
O359 Tb341 2.441 . S
O359 C354 1.244 . S
O360 Tb361 2.506 . S
O360 C374 1.265 . S
Tb361 O360 2.506 . S
Tb361 O366 2.312 1_554 S
Tb361 O370 2.271 . S
Tb361 O372 2.338 1_554 S
Tb361 O379 2.441 . S
C362 O370 1.252 . S
C362 O371 1.253 . S
O363 Tb364 2.271 1_556 S
O363 C373 1.252 . S
Tb364 O363 2.271 1_554 S
Tb364 O367 2.338 1_554 S
Tb364 O371 2.312 . S
Tb364 O375 2.441 . S
Tb364 O376 2.506 . S
C365 O375 1.244 . S
C365 O376 1.265 . S
O366 Tb361 2.312 1_556 S
O366 C373 1.253 . S
O367 Tb364 2.338 1_556 S
O367 C368 1.258 . S
C368 O367 1.258 . S
C368 O369 1.251 . S
O369 C368 1.251 . S
O370 Tb361 2.271 . S
O370 C362 1.252 . S
O371 C362 1.253 . S
O371 Tb364 2.312 . S
O372 Tb361 2.338 1_556 S
O372 C377 1.258 . S
C373 O363 1.252 . S
C373 O366 1.253 . S
C374 O360 1.265 . S
C374 O379 1.244 . S
O375 Tb364 2.441 . S
O375 C365 1.244 . S
O376 Tb364 2.506 . S
O376 C365 1.265 . S
C377 O372 1.258 . S
C377 O378 1.251 . S
O378 C377 1.251 . S
O379 Tb361 2.441 . S
O379 C374 1.244 . S
O380 Tb381 2.506 . S
O380 C394 1.265 . S
Tb381 O380 2.506 . S
Tb381 O386 2.312 . S
Tb381 O390 2.271 . S
Tb381 O392 2.338 . S
Tb381 O399 2.441 . S
C382 O390 1.252 . S
C382 O391 1.253 . S
O383 Tb384 2.271 . S
O383 C393 1.252 . S
Tb384 O383 2.271 . S
Tb384 O387 2.338 . S
Tb384 O391 2.312 . S
Tb384 O395 2.441 . S
Tb384 O396 2.506 . S
C385 O395 1.244 . S
C385 O396 1.265 . S
O386 Tb381 2.312 . S
O386 C393 1.253 . S
O387 Tb384 2.338 . S
O387 C388 1.258 . S
C388 O387 1.258 . S
C388 O389 1.251 . S
O389 C388 1.251 . S
O390 Tb381 2.271 . S
O390 C382 1.252 . S
O391 C382 1.253 . S
O391 Tb384 2.312 . S
O392 Tb381 2.338 . S
O392 C397 1.258 . S
C393 O383 1.252 . S
C393 O386 1.253 . S
C394 O380 1.265 . S
C394 O399 1.244 . S
O395 Tb384 2.441 . S
O395 C385 1.244 . S
O396 Tb384 2.506 . S
O396 C385 1.265 . S
C397 O392 1.258 . S
C397 O398 1.251 . S
O398 C397 1.251 . S
O399 Tb381 2.441 . S
O399 C394 1.244 . S
O400 Tb401 2.506 . S
O400 C414 1.265 . S
Tb401 O400 2.506 . S
Tb401 O406 2.312 . S
Tb401 O410 2.271 . S
Tb401 O412 2.338 . S
Tb401 O419 2.441 . S
C402 O410 1.252 . S
C402 O411 1.253 . S
O403 Tb404 2.271 . S
O403 C413 1.252 . S
Tb404 O403 2.271 . S
Tb404 O407 2.338 . S
Tb404 O411 2.312 . S
Tb404 O415 2.441 . S
Tb404 O416 2.506 . S
C405 O415 1.244 . S
C405 O416 1.265 . S
O406 Tb401 2.312 . S
O406 C413 1.253 . S
O407 Tb404 2.338 . S
O407 C408 1.258 . S
C408 O407 1.258 . S
C408 O409 1.251 . S
O409 C408 1.251 . S
O410 Tb401 2.271 . S
O410 C402 1.252 . S
O411 C402 1.253 . S
O411 Tb404 2.312 . S
O412 Tb401 2.338 . S
O412 C417 1.258 . S
C413 O403 1.252 . S
C413 O406 1.253 . S
C414 O400 1.265 . S
C414 O419 1.244 . S
O415 Tb404 2.441 . S
O415 C405 1.244 . S
O416 Tb404 2.506 . S
O416 C405 1.265 . S
C417 O412 1.258 . S
C417 O418 1.251 . S
O418 C417 1.251 . S
O419 Tb401 2.441 . S
O419 C414 1.244 . S
O420 Tb421 2.506 . S
O420 C434 1.265 . S
Tb421 O420 2.506 . S
Tb421 O426 2.312 . S
Tb421 O430 2.271 . S
Tb421 O432 2.338 . S
Tb421 O439 2.441 . S
C422 O430 1.252 . S
C422 O431 1.253 . S
O423 Tb424 2.271 . S
O423 C433 1.252 . S
Tb424 O423 2.271 . S
Tb424 O427 2.338 . S
Tb424 O431 2.312 . S
Tb424 O435 2.441 . S
Tb424 O436 2.506 . S
C425 O435 1.244 . S
C425 O436 1.265 . S
O426 Tb421 2.312 . S
O426 C433 1.253 . S
O427 Tb424 2.338 . S
O427 C428 1.258 . S
C428 O427 1.258 . S
C428 O429 1.251 . S
O429 C428 1.251 . S
O430 Tb421 2.271 . S
O430 C422 1.252 . S
O431 C422 1.253 . S
O431 Tb424 2.312 . S
O432 Tb421 2.338 . S
O432 C437 1.258 . S
C433 O423 1.252 . S
C433 O426 1.253 . S
C434 O420 1.265 . S
C434 O439 1.244 . S
O435 Tb424 2.441 . S
O435 C425 1.244 . S
O436 Tb424 2.506 . S
O436 C425 1.265 . S
C437 O432 1.258 . S
C437 O438 1.251 . S
O438 C437 1.251 . S
O439 Tb421 2.441 . S
O439 C434 1.244 . S
O440 Tb441 2.506 . S
O440 C454 1.265 . S
Tb441 O440 2.506 . S
Tb441 O446 2.312 . S
Tb441 O450 2.271 . S
Tb441 O452 2.338 . S
Tb441 O459 2.441 . S
C442 O450 1.252 . S
C442 O451 1.253 . S
O443 Tb444 2.271 . S
O443 C453 1.252 . S
Tb444 O443 2.271 . S
Tb444 O447 2.338 . S
Tb444 O451 2.312 . S
Tb444 O455 2.441 . S
Tb444 O456 2.506 . S
C445 O455 1.244 . S
C445 O456 1.265 . S
O446 Tb441 2.312 . S
O446 C453 1.253 . S
O447 Tb444 2.338 . S
O447 C448 1.258 . S
C448 O447 1.258 . S
C448 O449 1.251 . S
O449 C448 1.251 . S
O450 Tb441 2.271 . S
O450 C442 1.252 . S
O451 C442 1.253 . S
O451 Tb444 2.312 . S
O452 Tb441 2.338 . S
O452 C457 1.258 . S
C453 O443 1.252 . S
C453 O446 1.253 . S
C454 O440 1.265 . S
C454 O459 1.244 . S
O455 Tb444 2.441 . S
O455 C445 1.244 . S
O456 Tb444 2.506 . S
O456 C445 1.265 . S
C457 O452 1.258 . S
C457 O458 1.251 . S
O458 C457 1.251 . S
O459 Tb441 2.441 . S
O459 C454 1.244 . S
O460 Tb461 2.506 . S
O460 C474 1.265 . S
Tb461 O460 2.506 . S
Tb461 O466 2.312 . S
Tb461 O470 2.271 . S
Tb461 O472 2.338 . S
Tb461 O479 2.441 . S
C462 O470 1.252 . S
C462 O471 1.253 . S
O463 Tb464 2.271 . S
O463 C473 1.252 . S
Tb464 O463 2.271 . S
Tb464 O467 2.338 . S
Tb464 O471 2.312 . S
Tb464 O475 2.441 . S
Tb464 O476 2.506 . S
C465 O475 1.244 . S
C465 O476 1.265 . S
O466 Tb461 2.312 . S
O466 C473 1.253 . S
O467 Tb464 2.338 . S
O467 C468 1.258 . S
C468 O467 1.258 . S
C468 O469 1.251 . S
O469 C468 1.251 . S
O470 Tb461 2.271 . S
O470 C462 1.252 . S
O471 C462 1.253 . S
O471 Tb464 2.312 . S
O472 Tb461 2.338 . S
O472 C477 1.258 . S
C473 O463 1.252 . S
C473 O466 1.253 . S
C474 O460 1.265 . S
C474 O479 1.244 . S
O475 Tb464 2.441 . S
O475 C465 1.244 . S
O476 Tb464 2.506 . S
O476 C465 1.265 . S
C477 O472 1.258 . S
C477 O478 1.251 . S
O478 C477 1.251 . S
O479 Tb461 2.441 . S
O479 C474 1.244 . S
C480 C481 1.387 . S
C480 H484 0.938 1_455 S
C480 C489 1.390 . S
C481 C480 1.387 . S
C481 C483 1.387 . S
H482 C489 0.950 . S
C483 C481 1.387 . S
C483 C485 1.390 . S
C483 H487 0.950 . S
H484 C480 0.938 1_655 S
C485 C483 1.390 . S
C485 C486 1.387 . S
C485 H488 0.950 . S
C486 C485 1.387 . S
C486 C489 1.387 . S
H487 C483 0.950 . S
H488 C485 0.950 . S
C489 C480 1.390 . S
C489 H482 0.950 . S
C489 C486 1.387 . S
C490 C491 1.387 . S
C490 H494 0.950 . S
C490 C499 1.390 . S
C491 C490 1.387 . S
C491 C493 1.387 . S
H492 C499 0.950 . S
C493 C491 1.387 . S
C493 C495 1.390 . S
C493 H497 0.950 . S
H494 C490 0.950 . S
C495 C493 1.390 . S
C495 C496 1.387 . S
C495 H498 0.950 . S
C496 C495 1.387 . S
C496 C499 1.387 . S
H497 C493 0.950 . S
H498 C495 0.950 . S
C499 C490 1.390 . S
C499 H492 0.950 . S
C499 C496 1.387 . S
C500 C501 1.387 . S
C500 H504 0.950 . S
C500 C509 1.390 . S
C501 C500 1.387 . S
C501 C503 1.387 . S
H502 C509 0.950 . S
C503 C501 1.387 . S
C503 C505 1.390 . S
C503 H507 0.950 . S
H504 C500 0.950 . S
C505 C503 1.390 . S
C505 C506 1.387 . S
C505 H508 0.950 . S
C506 C505 1.387 . S
C506 C509 1.387 . S
H507 C503 0.950 . S
H508 C505 0.950 . S
C509 C500 1.390 . S
C509 H502 0.950 . S
C509 C506 1.387 . S
C510 C511 1.387 . S
C510 H514 0.950 . S
C510 C519 1.390 . S
C511 C510 1.387 . S
C511 C513 1.387 . S
H512 C519 0.950 . S
C513 C511 1.387 . S
C513 C515 1.390 . S
C513 H517 0.950 . S
H514 C510 0.950 . S
C515 C513 1.390 . S
C515 C516 1.387 . S
C515 H518 0.950 . S
C516 C515 1.387 . S
C516 C519 1.387 . S
H517 C513 0.950 . S
H518 C515 0.950 . S
C519 C510 1.390 . S
C519 H512 0.950 . S
C519 C516 1.387 . S
C520 C521 1.387 . S
C520 H524 0.950 . S
C520 C529 1.390 . S
C521 C520 1.387 . S
C521 C523 1.387 . S
H522 C529 0.950 . S
C523 C521 1.387 . S
C523 C525 1.390 . S
C523 H527 0.950 . S
H524 C520 0.950 . S
C525 C523 1.390 . S
C525 C526 1.387 . S
C525 H528 0.950 . S
C526 C525 1.387 . S
C526 C529 1.387 . S
H527 C523 0.950 . S
H528 C525 0.950 . S
C529 C520 1.390 . S
C529 H522 0.950 . S
C529 C526 1.387 . S
C530 C531 1.387 . S
C530 H534 0.950 . S
C530 C539 1.390 . S
C531 C530 1.387 . S
C531 C533 1.387 . S
H532 C539 0.950 . S
C533 C531 1.387 . S
C533 C535 1.390 . S
C533 H537 0.950 . S
H534 C530 0.950 . S
C535 C533 1.390 . S
C535 C536 1.387 . S
C535 H538 0.950 . S
C536 C535 1.387 . S
C536 C539 1.387 . S
H537 C533 0.950 . S
H538 C535 0.950 . S
C539 C530 1.390 . S
C539 H532 0.950 . S
C539 C536 1.387 . S
C540 C541 1.387 . S
C540 H544 0.950 . S
C540 C549 1.390 . S
C541 C540 1.387 . S
C541 C543 1.387 . S
H542 C549 0.950 . S
C543 C541 1.387 . S
C543 C545 1.390 . S
C543 H547 0.950 . S
H544 C540 0.950 . S
C545 C543 1.390 . S
C545 C546 1.387 . S
C545 H548 0.950 . S
C546 C545 1.387 . S
C546 C549 1.387 . S
H547 C543 0.950 . S
H548 C545 0.950 . S
C549 C540 1.390 . S
C549 H542 0.950 . S
C549 C546 1.387 . S
C550 C551 1.387 1_554 S
C550 H554 0.950 . S
C550 C559 1.390 . S
C551 C550 1.387 1_556 S
C551 C553 1.387 . S
H552 C559 0.950 . S
C553 C551 1.387 . S
C553 C555 1.390 . S
C553 H557 0.950 . S
H554 C550 0.950 . S
C555 C553 1.390 . S
C555 C556 1.387 . S
C555 H558 0.950 . S
C556 C555 1.387 . S
C556 C559 1.387 1_556 S
H557 C553 0.950 . S
H558 C555 0.950 . S
C559 C550 1.390 . S
C559 H552 0.950 . S
C559 C556 1.387 1_554 S
C560 C561 1.387 . S
C560 H564 0.950 . S
C560 C569 1.390 . S
C561 C560 1.387 . S
C561 C563 1.387 . S
H562 C569 0.950 . S
C563 C561 1.387 . S
C563 C565 1.390 . S
C563 H567 0.950 . S
H564 C560 0.950 . S
C565 C563 1.390 . S
C565 C566 1.387 . S
C565 H568 0.950 . S
C566 C565 1.387 . S
C566 C569 1.387 . S
H567 C563 0.950 . S
H568 C565 0.950 . S
C569 C560 1.390 . S
C569 H562 0.950 . S
C569 C566 1.387 . S
C570 C571 1.387 . S
C570 H574 0.950 . S
C570 C579 1.390 . S
C571 C570 1.387 . S
C571 C573 1.387 . S
H572 C579 0.950 . S
C573 C571 1.387 . S
C573 C575 1.390 . S
C573 H577 0.950 . S
H574 C570 0.950 . S
C575 C573 1.390 . S
C575 C576 1.387 . S
C575 H578 0.950 . S
C576 C575 1.387 . S
C576 C579 1.387 . S
H577 C573 0.950 . S
H578 C575 0.950 . S
C579 C570 1.390 . S
C579 H572 0.950 . S
C579 C576 1.387 . S
C580 C581 1.387 . S
C580 H584 0.950 . S
C580 C589 1.390 . S
C581 C580 1.387 . S
C581 C583 1.387 . S
H582 C589 0.950 . S
C583 C581 1.387 . S
C583 C585 1.390 . S
C583 H587 0.950 . S
H584 C580 0.950 . S
C585 C583 1.390 . S
C585 C586 1.387 . S
C585 H588 0.950 . S
C586 C585 1.387 . S
C586 C589 1.387 . S
H587 C583 0.950 . S
H588 C585 0.950 . S
C589 C580 1.390 . S
C589 H582 0.950 . S
C589 C586 1.387 . S
C590 C591 1.387 . S
C590 H594 0.950 . S
C590 C599 1.390 . S
C591 C590 1.387 . S
C591 C593 1.387 . S
H592 C599 0.950 . S
C593 C591 1.387 . S
C593 C595 1.390 . S
C593 H597 0.950 1_554 S
H594 C590 0.950 . S
C595 C593 1.390 . S
C595 C596 1.387 . S
C595 H598 0.950 1_554 S
C596 C595 1.387 . S
C596 C599 1.387 . S
H597 C593 0.950 1_556 S
H598 C595 0.950 1_556 S
C599 C590 1.390 . S
C599 H592 0.950 . S
C599 C596 1.387 . S
C600 C601 1.387 . S
C600 H604 0.950 . S
C600 C609 1.390 . S
C601 C600 1.387 . S
C601 C603 1.387 . S
H602 C609 0.950 . S
C603 C601 1.387 . S
C603 C605 1.390 . S
C603 H607 0.950 1_556 S
H604 C600 0.950 . S
C605 C603 1.390 . S
C605 C606 1.387 . S
C605 H608 0.950 1_556 S
C606 C605 1.387 . S
C606 C609 1.387 . S
H607 C603 0.950 1_554 S
H608 C605 0.950 1_554 S
C609 C600 1.390 . S
C609 H602 0.950 . S
C609 C606 1.387 . S
C610 C611 1.387 . S
C610 H614 0.950 . S
C610 C619 1.390 . S
C611 C610 1.387 . S
C611 C613 1.387 . S
H612 C619 0.950 . S
C613 C611 1.387 . S
C613 C615 1.390 . S
C613 H617 0.950 . S
H614 C610 0.950 . S
C615 C613 1.390 . S
C615 C616 1.387 . S
C615 H618 0.950 . S
C616 C615 1.387 . S
C616 C619 1.387 . S
H617 C613 0.950 . S
H618 C615 0.950 . S
C619 C610 1.390 . S
C619 H612 0.950 . S
C619 C616 1.387 . S
C620 C621 1.387 . S
C620 H624 0.950 . S
C620 C629 1.390 . S
C621 C620 1.387 . S
C621 C623 1.387 . S
H622 C629 0.950 . S
C623 C621 1.387 . S
C623 C625 1.390 . S
C623 H627 0.950 . S
H624 C620 0.950 . S
C625 C623 1.390 . S
C625 C626 1.387 . S
C625 H628 0.950 . S
C626 C625 1.387 . S
C626 C629 1.387 . S
H627 C623 0.950 . S
H628 C625 0.950 . S
C629 C620 1.390 . S
C629 H622 0.950 . S
C629 C626 1.387 . S
C630 C631 1.387 . S
C630 H634 0.950 . S
C630 C639 1.390 . S
C631 C630 1.387 . S
C631 C633 1.387 . S
H632 C639 0.950 . S
C633 C631 1.387 . S
C633 C635 1.390 . S
C633 H637 0.950 . S
H634 C630 0.950 . S
C635 C633 1.390 . S
C635 C636 1.387 . S
C635 H638 0.950 . S
C636 C635 1.387 . S
C636 C639 1.387 . S
H637 C633 0.950 . S
H638 C635 0.950 . S
C639 C630 1.390 . S
C639 H632 0.950 . S
C639 C636 1.387 . S
C640 C641 1.387 . S
C640 H644 0.950 . S
C640 C649 1.390 . S
C641 C640 1.387 . S
C641 C643 1.387 . S
H642 C649 0.950 . S
C643 C641 1.387 . S
C643 C645 1.390 . S
C643 H647 0.950 . S
H644 C640 0.950 . S
C645 C643 1.390 . S
C645 C646 1.387 . S
C645 H648 0.950 . S
C646 C645 1.387 . S
C646 C649 1.387 . S
H647 C643 0.950 . S
H648 C645 0.950 . S
C649 C640 1.390 . S
C649 H642 0.950 . S
C649 C646 1.387 . S
C650 C651 1.387 . S
C650 H654 0.950 . S
C650 C659 1.390 . S
C651 C650 1.387 . S
C651 C653 1.387 . S
H652 C659 0.950 . S
C653 C651 1.387 . S
C653 C655 1.390 . S
C653 H657 0.950 . S
H654 C650 0.950 . S
C655 C653 1.390 . S
C655 C656 1.387 . S
C655 H658 0.950 . S
C656 C655 1.387 . S
C656 C659 1.387 . S
H657 C653 0.950 . S
H658 C655 0.950 . S
C659 C650 1.390 . S
C659 H652 0.950 . S
C659 C656 1.387 . S
C660 C661 1.387 . S
C660 H664 0.950 . S
C660 C669 1.390 . S
C661 C660 1.387 . S
C661 C663 1.387 . S
H662 C669 0.950 . S
C663 C661 1.387 . S
C663 C665 1.390 . S
C663 H667 0.950 . S
H664 C660 0.950 . S
C665 C663 1.390 . S
C665 C666 1.387 . S
C665 H668 0.950 . S
C666 C665 1.387 . S
C666 C669 1.387 . S
H667 C663 0.950 . S
H668 C665 0.950 . S
C669 C660 1.390 . S
C669 H662 0.950 . S
C669 C666 1.387 . S
C670 C671 1.387 . S
C670 H674 0.950 . S
C670 C679 1.390 . S
C671 C670 1.387 . S
C671 C673 1.387 . S
H672 C679 0.950 . S
C673 C671 1.387 . S
C673 C675 1.390 . S
C673 H677 0.950 . S
H674 C670 0.950 . S
C675 C673 1.390 . S
C675 C676 1.387 . S
C675 H678 0.950 . S
C676 C675 1.387 . S
C676 C679 1.387 . S
H677 C673 0.950 . S
H678 C675 0.950 . S
C679 C670 1.390 . S
C679 H672 0.950 . S
C679 C676 1.387 . S
C680 C681 1.387 . S
C680 H684 0.950 . S
C680 C689 1.390 . S
C681 C680 1.387 . S
C681 C683 1.387 . S
H682 C689 0.950 . S
C683 C681 1.387 . S
C683 C685 1.390 . S
C683 H687 0.950 . S
H684 C680 0.950 . S
C685 C683 1.390 . S
C685 C686 1.387 . S
C685 H688 0.950 . S
C686 C685 1.387 . S
C686 C689 1.387 . S
H687 C683 0.950 . S
H688 C685 0.950 . S
C689 C680 1.390 . S
C689 H682 0.950 . S
C689 C686 1.387 . S
C690 C691 1.387 . S
C690 H694 0.950 . S
C690 C699 1.390 . S
C691 C690 1.387 . S
C691 C693 1.387 . S
H692 C699 0.950 . S
C693 C691 1.387 . S
C693 C695 1.390 . S
C693 H697 0.950 . S
H694 C690 0.950 . S
C695 C693 1.390 . S
C695 C696 1.387 . S
C695 H698 0.950 . S
C696 C695 1.387 . S
C696 C699 1.387 . S
H697 C693 0.950 . S
H698 C695 0.950 . S
C699 C690 1.390 . S
C699 H692 0.950 . S
C699 C696 1.387 . S
C700 C701 1.387 . S
C700 H704 0.950 . S
C700 C709 1.390 . S
C701 C700 1.387 . S
C701 C703 1.387 1_554 S
H702 C709 0.950 . S
C703 C701 1.387 1_556 S
C703 C705 1.390 1_556 S
C703 H707 0.950 . S
H704 C700 0.950 . S
C705 C703 1.390 1_554 S
C705 C706 1.387 . S
C705 H708 0.950 1_554 S
C706 C705 1.387 . S
C706 C709 1.387 . S
H707 C703 0.950 . S
H708 C705 0.950 1_556 S
C709 C700 1.390 . S
C709 H702 0.950 . S
C709 C706 1.387 . S
C710 C711 1.387 . S
C710 H714 0.950 . S
C710 C719 1.390 . S
C711 C710 1.387 . S
C711 C713 1.387 . S
H712 C719 0.950 . S
C713 C711 1.387 . S
C713 C715 1.390 . S
C713 H717 0.950 . S
H714 C710 0.950 . S
C715 C713 1.390 . S
C715 C716 1.387 . S
C715 H718 0.950 . S
C716 C715 1.387 . S
C716 C719 1.387 . S
H717 C713 0.950 . S
H718 C715 0.950 . S
C719 C710 1.390 . S
C719 H712 0.950 . S
C719 C716 1.387 . S
C720 C721 1.387 1_545 S
C720 H724 0.950 1_545 S
C720 C729 1.390 . S
C721 C720 1.387 1_565 S
C721 C723 1.387 . S
H722 C729 0.950 . S
C723 C721 1.387 . S
C723 C725 1.390 1_565 S
C723 H727 0.950 . S
H724 C720 0.950 1_565 S
C725 C723 1.390 1_545 S
C725 C726 1.387 . S
C725 H728 0.950 . S
C726 C725 1.387 . S
C726 C729 1.387 . S
H727 C723 0.950 . S
H728 C725 0.950 . S
C729 C720 1.390 . S
C729 H722 0.950 . S
C729 C726 1.387 . S
C730 C731 1.387 . S
C730 H734 0.950 . S
C730 C739 1.390 . S
C731 C730 1.387 . S
C731 C733 1.387 . S
H732 C739 0.950 . S
C733 C731 1.387 . S
C733 C735 1.390 . S
C733 H737 0.950 . S
H734 C730 0.950 . S
C735 C733 1.390 . S
C735 C736 1.387 . S
C735 H738 0.950 . S
C736 C735 1.387 . S
C736 C739 1.387 . S
H737 C733 0.950 . S
H738 C735 0.950 . S
C739 C730 1.390 . S
C739 H732 0.950 . S
C739 C736 1.387 . S
C740 C741 1.387 . S
C740 H744 0.950 . S
C740 C749 1.390 1_565 S
C741 C740 1.387 . S
C741 C743 1.386 . S
H742 C749 0.950 . S
C743 C741 1.386 . S
C743 C745 1.393 1_565 S
C743 H747 0.949 . S
H744 C740 0.950 . S
C745 C743 1.393 1_545 S
C745 C746 1.387 . S
C745 H748 0.950 . S
C746 C745 1.387 . S
C746 C749 1.387 . S
H747 C743 0.949 . S
H748 C745 0.950 . S
C749 C740 1.390 1_545 S
C749 H742 0.950 . S
C749 C746 1.387 . S
C750 C751 1.391 . S
C750 H754 0.952 . S
C750 C759 1.384 1_554 S
C751 C750 1.391 . S
C751 C753 1.387 . S
H752 C759 0.950 . S
C753 C751 1.387 . S
C753 C755 1.390 1_554 S
C753 H757 0.950 . S
H754 C750 0.952 . S
C755 C753 1.390 1_556 S
C755 C756 1.387 . S
C755 H758 0.950 . S
C756 C755 1.387 . S
C756 C759 1.387 . S
H757 C753 0.950 . S
H758 C755 0.950 . S
C759 C750 1.384 1_556 S
C759 H752 0.950 . S
C759 C756 1.387 . S
C760 C761 1.387 . S
C760 H764 0.950 . S
C760 C769 1.390 1_556 S
C761 C760 1.387 . S
C761 C763 1.387 . S
H762 C769 0.950 . S
C763 C761 1.387 . S
C763 C765 1.390 1_556 S
C763 H767 0.950 . S
H764 C760 0.950 . S
C765 C763 1.390 1_554 S
C765 C766 1.387 . S
C765 H768 0.950 . S
C766 C765 1.387 . S
C766 C769 1.387 . S
H767 C763 0.950 . S
H768 C765 0.950 . S
C769 C760 1.390 1_554 S
C769 H762 0.950 . S
C769 C766 1.387 . S
C770 C771 1.387 . S
C770 H774 0.950 . S
C770 C779 1.390 . S
C771 C770 1.387 . S
C771 C773 1.387 1_545 S
H772 C779 0.950 . S
C773 C771 1.387 1_565 S
C773 C775 1.390 . S
C773 H777 0.950 . S
H774 C770 0.950 . S
C775 C773 1.390 . S
C775 C776 1.387 1_565 S
C775 H778 0.950 . S
C776 C775 1.387 1_545 S
C776 C779 1.387 . S
H777 C773 0.950 . S
H778 C775 0.950 . S
C779 C770 1.390 . S
C779 H772 0.950 . S
C779 C776 1.387 . S
C780 C781 1.387 1_545 S
C780 H784 0.950 . S
C780 C789 1.390 . S
C781 C780 1.387 1_565 S
C781 C783 1.387 . S
H782 C789 0.950 . S
C783 C781 1.387 . S
C783 C785 1.390 . S
C783 H787 0.950 . S
H784 C780 0.950 . S
C785 C783 1.390 . S
C785 C786 1.387 . S
C785 H788 0.950 . S
C786 C785 1.387 . S
C786 C789 1.387 1_565 S
H787 C783 0.950 . S
H788 C785 0.950 . S
C789 C780 1.390 . S
C789 H782 0.950 . S
C789 C786 1.387 1_545 S
C790 C791 1.387 1_545 S
C790 H794 0.950 . S
C790 C799 1.390 . S
C791 C790 1.387 1_565 S
C791 C793 1.387 . S
H792 C799 0.950 . S
C793 C791 1.387 . S
C793 C795 1.390 . S
C793 H797 0.950 . S
H794 C790 0.950 . S
C795 C793 1.390 . S
C795 C796 1.387 1_565 S
C795 H798 0.950 . S
C796 C795 1.387 1_545 S
C796 C799 1.387 . S
H797 C793 0.950 . S
H798 C795 0.950 . S
C799 C790 1.390 . S
C799 H792 0.950 . S
C799 C796 1.387 . S
C800 C801 1.387 . S
C800 H804 0.950 . S
C800 C809 1.390 . S
C801 C800 1.387 . S
C801 C803 1.387 1_556 S
H802 C809 0.950 . S
C803 C801 1.387 1_554 S
C803 C805 1.390 . S
C803 H807 0.950 . S
H804 C800 0.950 . S
C805 C803 1.390 . S
C805 C806 1.387 1_554 S
C805 H808 0.950 . S
C806 C805 1.387 1_556 S
C806 C809 1.387 . S
H807 C803 0.950 . S
H808 C805 0.950 . S
C809 C800 1.390 . S
C809 H802 0.950 . S
C809 C806 1.387 . S
C810 C811 1.419 . S
C810 H814 0.950 . S
C810 C819 1.390 . S
C811 C810 1.419 . S
C811 C813 1.354 1_554 S
H812 C819 0.950 . S
C813 C811 1.354 1_556 S
C813 C815 1.390 . S
C813 H817 0.950 . S
H814 C810 0.950 . S
C815 C813 1.390 . S
C815 C816 1.397 . S
C815 H818 0.950 . S
C816 C815 1.397 . S
C816 C819 1.378 1_556 S
H817 C813 0.950 . S
H818 C815 0.950 . S
C819 C810 1.390 . S
C819 H812 0.950 . S
C819 C816 1.378 1_554 S
C820 C821 1.388 . S
C820 H824 0.950 . S
C820 C829 1.390 . S
C821 C820 1.388 . S
C821 C823 1.387 1_655 S
H822 C829 0.950 . S
C823 C821 1.387 1_455 S
C823 C825 1.390 . S
C823 H827 0.950 . S
H824 C820 0.950 . S
C825 C823 1.390 . S
C825 C826 1.388 1_455 S
C825 H828 0.950 . S
C826 C825 1.388 1_655 S
C826 C829 1.387 . S
H827 C823 0.950 . S
H828 C825 0.950 . S
C829 C820 1.390 . S
C829 H822 0.950 . S
C829 C826 1.387 . S
C830 C831 1.387 . S
C830 H834 0.950 . S
C830 C839 1.390 . S
C831 C830 1.387 . S
C831 C833 1.387 . S
H832 C839 0.944 1_655 S
C833 C831 1.387 . S
C833 C835 1.390 . S
C833 H837 0.950 . S
H834 C830 0.950 . S
C835 C833 1.390 . S
C835 C836 1.387 1_455 S
C835 H838 0.941 1_455 S
C836 C835 1.387 1_655 S
C836 C839 1.387 1_655 S
H837 C833 0.950 . S
H838 C835 0.941 1_655 S
C839 C830 1.390 . S
C839 H832 0.944 1_455 S
C839 C836 1.387 1_455 S
C840 C841 1.387 . S
C840 H844 0.950 . S
C840 C849 1.390 . S
C841 C840 1.387 . S
C841 C843 1.387 . S
H842 C849 0.950 . S
C843 C841 1.387 . S
C843 C845 1.390 . S
C843 H847 0.950 . S
H844 C840 0.950 . S
C845 C843 1.390 . S
C845 C846 1.387 . S
C845 H848 0.950 . S
C846 C845 1.387 . S
C846 C849 1.387 . S
H847 C843 0.950 . S
H848 C845 0.950 . S
C849 C840 1.390 . S
C849 H842 0.950 . S
C849 C846 1.387 . S
C850 C851 1.387 . S
C850 H854 0.950 . S
C850 C859 1.390 . S
C851 C850 1.387 . S
C851 C853 1.387 . S
H852 C859 0.950 . S
C853 C851 1.387 . S
C853 C855 1.390 . S
C853 H857 0.950 . S
H854 C850 0.950 . S
C855 C853 1.390 . S
C855 C856 1.387 . S
C855 H858 0.950 . S
C856 C855 1.387 . S
C856 C859 1.387 . S
H857 C853 0.950 . S
H858 C855 0.950 . S
C859 C850 1.390 . S
C859 H852 0.950 . S
C859 C856 1.387 . S
C860 C861 1.387 . S
C860 H864 0.950 . S
C860 C869 1.390 . S
C861 C860 1.387 . S
C861 C863 1.387 . S
H862 C869 0.950 . S
C863 C861 1.387 . S
C863 C865 1.390 . S
C863 H867 0.950 . S
H864 C860 0.950 . S
C865 C863 1.390 . S
C865 C866 1.387 . S
C865 H868 0.950 . S
C866 C865 1.387 . S
C866 C869 1.387 . S
H867 C863 0.950 . S
H868 C865 0.950 . S
C869 C860 1.390 . S
C869 H862 0.950 . S
C869 C866 1.387 . S
C870 C871 1.387 . S
C870 H874 0.950 . S
C870 C879 1.390 . S
C871 C870 1.387 . S
C871 C873 1.387 . S
H872 C879 0.950 . S
C873 C871 1.387 . S
C873 C875 1.390 . S
C873 H877 0.950 . S
H874 C870 0.950 . S
C875 C873 1.390 . S
C875 C876 1.387 . S
C875 H878 0.950 . S
C876 C875 1.387 . S
C876 C879 1.387 . S
H877 C873 0.950 . S
H878 C875 0.950 . S
C879 C870 1.390 . S
C879 H872 0.950 . S
C879 C876 1.387 . S
C880 C881 1.387 . S
C880 H884 0.950 . S
C880 C889 1.390 . S
C881 C880 1.387 . S
C881 C883 1.387 1_556 S
H882 C889 0.950 . S
C883 C881 1.387 1_554 S
C883 C885 1.390 . S
C883 H887 0.950 . S
H884 C880 0.950 . S
C885 C883 1.390 . S
C885 C886 1.391 . S
C885 H888 0.950 . S
C886 C885 1.391 . S
C886 C889 1.382 1_554 S
H887 C883 0.950 . S
H888 C885 0.950 . S
C889 C880 1.390 . S
C889 H882 0.950 . S
C889 C886 1.382 1_556 S
C890 C891 1.387 . S
C890 H894 0.950 . S
C890 C899 1.390 . S
C891 C890 1.387 . S
C891 C893 1.387 . S
H892 C899 0.950 . S
C893 C891 1.387 . S
C893 C895 1.390 . S
C893 H897 0.950 . S
H894 C890 0.950 . S
C895 C893 1.390 . S
C895 C896 1.387 . S
C895 H898 0.950 . S
C896 C895 1.387 . S
C896 C899 1.387 . S
H897 C893 0.950 . S
H898 C895 0.950 . S
C899 C890 1.390 . S
C899 H892 0.950 . S
C899 C896 1.387 . S
C900 C901 1.387 . S
C900 H904 0.950 . S
C900 C909 1.390 . S
C901 C900 1.387 . S
C901 C903 1.387 . S
H902 C909 0.950 . S
C903 C901 1.387 . S
C903 C905 1.390 . S
C903 H907 0.950 . S
H904 C900 0.950 . S
C905 C903 1.390 . S
C905 C906 1.387 . S
C905 H908 0.950 . S
C906 C905 1.387 . S
C906 C909 1.387 . S
H907 C903 0.950 . S
H908 C905 0.950 . S
C909 C900 1.390 . S
C909 H902 0.950 . S
C909 C906 1.387 . S
C910 C911 1.387 . S
C910 H914 0.950 . S
C910 C919 1.390 . S
C911 C910 1.387 . S
C911 C913 1.387 . S
H912 C919 0.950 . S
C913 C911 1.387 . S
C913 C915 1.390 . S
C913 H917 0.950 . S
H914 C910 0.950 . S
C915 C913 1.390 . S
C915 C916 1.387 . S
C915 H918 0.950 . S
C916 C915 1.387 . S
C916 C919 1.387 . S
H917 C913 0.950 . S
H918 C915 0.950 . S
C919 C910 1.390 . S
C919 H912 0.950 . S
C919 C916 1.387 . S
C920 C921 1.387 . S
C920 H924 0.950 . S
C920 C929 1.390 . S
C921 C920 1.387 . S
C921 C923 1.387 . S
H922 C929 0.950 . S
C923 C921 1.387 . S
C923 C925 1.390 . S
C923 H927 0.950 . S
H924 C920 0.950 . S
C925 C923 1.390 . S
C925 C926 1.387 . S
C925 H928 0.950 . S
C926 C925 1.387 . S
C926 C929 1.387 . S
H927 C923 0.950 . S
H928 C925 0.950 . S
C929 C920 1.390 . S
C929 H922 0.950 . S
C929 C926 1.387 . S
C930 C931 1.387 . S
C930 H934 0.950 . S
C930 C939 1.390 1_554 S
C931 C930 1.387 . S
C931 C933 1.387 . S
H932 C939 0.950 . S
C933 C931 1.387 . S
C933 C935 1.390 1_554 S
C933 H937 0.950 . S
H934 C930 0.950 . S
C935 C933 1.390 1_556 S
C935 C936 1.387 . S
C935 H938 0.950 . S
C936 C935 1.387 . S
C936 C939 1.387 . S
H937 C933 0.950 . S
H938 C935 0.950 . S
C939 C930 1.390 1_556 S
C939 H932 0.950 . S
C939 C936 1.387 . S
C940 C941 1.387 . S
C940 H944 0.950 . S
C940 C949 1.390 . S
C941 C940 1.387 . S
C941 C943 1.387 . S
H942 C949 0.950 . S
C943 C941 1.387 . S
C943 C945 1.390 . S
C943 H947 0.950 . S
H944 C940 0.950 . S
C945 C943 1.390 . S
C945 C946 1.387 . S
C945 H948 0.950 . S
C946 C945 1.387 . S
C946 C949 1.387 . S
H947 C943 0.950 . S
H948 C945 0.950 . S
C949 C940 1.390 . S
C949 H942 0.950 . S
C949 C946 1.387 . S
C950 C951 1.387 . S
C950 H954 0.950 . S
C950 C959 1.390 . S
C951 C950 1.387 . S
C951 C953 1.387 . S
H952 C959 0.950 . S
C953 C951 1.387 . S
C953 C955 1.390 . S
C953 H957 0.950 . S
H954 C950 0.950 . S
C955 C953 1.390 . S
C955 C956 1.387 . S
C955 H958 0.950 . S
C956 C955 1.387 . S
C956 C959 1.387 . S
H957 C953 0.950 . S
H958 C955 0.950 . S
C959 C950 1.390 . S
C959 H952 0.950 . S
C959 C956 1.387 . S
C960 C961 1.387 . S
C960 H964 0.950 . S
C960 C969 1.390 . S
C961 C960 1.387 . S
C961 C963 1.387 . S
H962 C969 0.950 . S
C963 C961 1.387 . S
C963 C965 1.390 . S
C963 H967 0.950 . S
H964 C960 0.950 . S
C965 C963 1.390 . S
C965 C966 1.387 . S
C965 H968 0.950 . S
C966 C965 1.387 . S
C966 C969 1.387 . S
H967 C963 0.950 . S
H968 C965 0.950 . S
C969 C960 1.390 . S
C969 H962 0.950 . S
C969 C966 1.387 . S
C970 C971 1.387 . S
C970 H974 0.950 . S
C970 C979 1.390 . S
C971 C970 1.387 . S
C971 C973 1.387 . S
H972 C979 0.950 . S
C973 C971 1.387 . S
C973 C975 1.390 . S
C973 H977 0.950 . S
H974 C970 0.950 . S
C975 C973 1.390 . S
C975 C976 1.387 . S
C975 H978 0.950 . S
C976 C975 1.387 . S
C976 C979 1.387 . S
H977 C973 0.950 . S
H978 C975 0.950 . S
C979 C970 1.390 . S
C979 H972 0.950 . S
C979 C976 1.387 . S
C980 C981 1.387 . S
C980 H984 0.950 . S
C980 C989 1.390 . S
C981 C980 1.387 . S
C981 C983 1.387 . S
H982 C989 0.950 . S
C983 C981 1.387 . S
C983 C985 1.390 . S
C983 H987 0.950 . S
H984 C980 0.950 . S
C985 C983 1.390 . S
C985 C986 1.387 . S
C985 H988 0.950 . S
C986 C985 1.387 . S
C986 C989 1.387 . S
H987 C983 0.950 . S
H988 C985 0.950 . S
C989 C980 1.390 . S
C989 H982 0.950 . S
C989 C986 1.387 . S
C990 C991 1.387 . S
C990 H994 0.950 . S
C990 C999 1.390 . S
C991 C990 1.387 . S
C991 C993 1.387 . S
H992 C999 0.950 . S
C993 C991 1.387 . S
C993 C995 1.390 . S
C993 H997 0.950 . S
H994 C990 0.950 . S
C995 C993 1.390 . S
C995 C996 1.387 . S
C995 H998 0.950 . S
C996 C995 1.387 . S
C996 C999 1.387 . S
H997 C993 0.950 . S
H998 C995 0.950 . S
C999 C990 1.390 . S
C999 H992 0.950 . S
C999 C996 1.387 . S
C1000 C1001 1.387 . S
C1000 H1004 0.950 . S
C1000 C1009 1.390 . S
C1001 C1000 1.387 . S
C1001 C1003 1.387 . S
H1002 C1009 0.950 . S
C1003 C1001 1.387 . S
C1003 C1005 1.390 . S
C1003 H1007 0.950 . S
H1004 C1000 0.950 . S
C1005 C1003 1.390 . S
C1005 C1006 1.387 . S
C1005 H1008 0.950 . S
C1006 C1005 1.387 . S
C1006 C1009 1.387 . S
H1007 C1003 0.950 . S
H1008 C1005 0.950 . S
C1009 C1000 1.390 . S
C1009 H1002 0.950 . S
C1009 C1006 1.387 . S
C1010 C1011 1.387 . S
C1010 H1014 0.950 . S
C1010 C1019 1.390 . S
C1011 C1010 1.387 . S
C1011 C1013 1.387 . S
H1012 C1019 0.950 . S
C1013 C1011 1.387 . S
C1013 C1015 1.390 . S
C1013 H1017 0.950 . S
H1014 C1010 0.950 . S
C1015 C1013 1.390 . S
C1015 C1016 1.387 . S
C1015 H1018 0.950 . S
C1016 C1015 1.387 . S
C1016 C1019 1.387 . S
H1017 C1013 0.950 . S
H1018 C1015 0.950 . S
C1019 C1010 1.390 . S
C1019 H1012 0.950 . S
C1019 C1016 1.387 . S
C1020 C1021 1.387 . S
C1020 H1024 0.950 . S
C1020 C1029 1.390 . S
C1021 C1020 1.387 . S
C1021 C1023 1.387 . S
H1022 C1029 0.950 . S
C1023 C1021 1.387 . S
C1023 C1025 1.390 . S
C1023 H1027 0.950 . S
H1024 C1020 0.950 . S
C1025 C1023 1.390 . S
C1025 C1026 1.387 . S
C1025 H1028 0.950 . S
C1026 C1025 1.387 . S
C1026 C1029 1.387 . S
H1027 C1023 0.950 . S
H1028 C1025 0.950 . S
C1029 C1020 1.390 . S
C1029 H1022 0.950 . S
C1029 C1026 1.387 . S
C1030 C1031 1.387 . S
C1030 H1034 0.950 . S
C1030 C1039 1.390 . S
C1031 C1030 1.387 . S
C1031 C1033 1.387 . S
H1032 C1039 0.950 . S
C1033 C1031 1.387 . S
C1033 C1035 1.390 . S
C1033 H1037 0.950 . S
H1034 C1030 0.950 . S
C1035 C1033 1.390 . S
C1035 C1036 1.387 . S
C1035 H1038 0.950 . S
C1036 C1035 1.387 . S
C1036 C1039 1.387 . S
H1037 C1033 0.950 . S
H1038 C1035 0.950 . S
C1039 C1030 1.390 . S
C1039 H1032 0.950 . S
C1039 C1036 1.387 . S
C1040 C1041 1.387 . S
C1040 H1044 0.950 . S
C1040 C1049 1.390 . S
C1041 C1040 1.387 . S
C1041 C1043 1.387 . S
H1042 C1049 0.950 . S
C1043 C1041 1.387 . S
C1043 C1045 1.390 . S
C1043 H1047 0.950 . S
H1044 C1040 0.950 . S
C1045 C1043 1.390 . S
C1045 C1046 1.387 . S
C1045 H1048 0.950 . S
C1046 C1045 1.387 . S
C1046 C1049 1.387 . S
H1047 C1043 0.950 . S
H1048 C1045 0.950 . S
C1049 C1040 1.390 . S
C1049 H1042 0.950 . S
C1049 C1046 1.387 . S
C1050 C1051 1.387 . S
C1050 H1054 0.950 . S
C1050 C1059 1.390 . S
C1051 C1050 1.387 . S
C1051 C1053 1.387 . S
H1052 C1059 0.950 . S
C1053 C1051 1.387 . S
C1053 C1055 1.390 . S
C1053 H1057 0.950 . S
H1054 C1050 0.950 . S
C1055 C1053 1.390 . S
C1055 C1056 1.387 . S
C1055 H1058 0.950 . S
C1056 C1055 1.387 . S
C1056 C1059 1.387 . S
H1057 C1053 0.950 . S
H1058 C1055 0.950 . S
C1059 C1050 1.390 . S
C1059 H1052 0.950 . S
C1059 C1056 1.387 . S
C1060 C1061 1.387 . S
C1060 H1064 0.950 . S
C1060 C1069 1.390 . S
C1061 C1060 1.387 . S
C1061 C1063 1.387 . S
H1062 C1069 0.950 . S
C1063 C1061 1.387 . S
C1063 C1065 1.390 . S
C1063 H1067 0.950 . S
H1064 C1060 0.950 . S
C1065 C1063 1.390 . S
C1065 C1066 1.387 . S
C1065 H1068 0.950 . S
C1066 C1065 1.387 . S
C1066 C1069 1.387 . S
H1067 C1063 0.950 . S
H1068 C1065 0.950 . S
C1069 C1060 1.390 . S
C1069 H1062 0.950 . S
C1069 C1066 1.387 . S
C1070 C1071 1.387 . S
C1070 H1074 0.950 . S
C1070 C1079 1.390 . S
C1071 C1070 1.387 . S
C1071 C1073 1.387 . S
H1072 C1079 0.950 . S
C1073 C1071 1.387 . S
C1073 C1075 1.390 . S
C1073 H1077 0.950 . S
H1074 C1070 0.950 . S
C1075 C1073 1.390 . S
C1075 C1076 1.387 . S
C1075 H1078 0.950 . S
C1076 C1075 1.387 . S
C1076 C1079 1.387 . S
H1077 C1073 0.950 . S
H1078 C1075 0.950 . S
C1079 C1070 1.390 . S
C1079 H1072 0.950 . S
C1079 C1076 1.387 . S
C1080 C1081 1.387 . S
C1080 H1084 0.950 . S
C1080 C1089 1.390 . S
C1081 C1080 1.387 . S
C1081 C1083 1.387 . S
H1082 C1089 0.950 . S
C1083 C1081 1.387 . S
C1083 C1085 1.390 . S
C1083 H1087 0.950 . S
H1084 C1080 0.950 . S
C1085 C1083 1.390 . S
C1085 C1086 1.387 . S
C1085 H1088 0.950 . S
C1086 C1085 1.387 . S
C1086 C1089 1.387 . S
H1087 C1083 0.950 . S
H1088 C1085 0.950 . S
C1089 C1080 1.390 . S
C1089 H1082 0.950 . S
C1089 C1086 1.387 . S
C1090 C1091 1.387 . S
C1090 H1094 0.950 . S
C1090 C1099 1.390 . S
C1091 C1090 1.387 . S
C1091 C1093 1.387 . S
H1092 C1099 0.950 . S
C1093 C1091 1.387 . S
C1093 C1095 1.390 . S
C1093 H1097 0.950 . S
H1094 C1090 0.950 . S
C1095 C1093 1.390 . S
C1095 C1096 1.387 . S
C1095 H1098 0.950 . S
C1096 C1095 1.387 . S
C1096 C1099 1.387 . S
H1097 C1093 0.950 . S
H1098 C1095 0.950 . S
C1099 C1090 1.390 . S
C1099 H1092 0.950 . S
C1099 C1096 1.387 . S
C1100 C1101 1.387 . S
C1100 H1104 0.950 . S
C1100 C1109 1.390 . S
C1101 C1100 1.387 . S
C1101 C1103 1.387 . S
H1102 C1109 0.950 . S
C1103 C1101 1.387 . S
C1103 C1105 1.390 . S
C1103 H1107 0.950 . S
H1104 C1100 0.950 . S
C1105 C1103 1.390 . S
C1105 C1106 1.387 . S
C1105 H1108 0.950 . S
C1106 C1105 1.387 . S
C1106 C1109 1.387 . S
H1107 C1103 0.950 . S
H1108 C1105 0.950 . S
C1109 C1100 1.390 . S
C1109 H1102 0.950 . S
C1109 C1106 1.387 . S
C1110 C1111 1.387 . S
C1110 H1114 0.950 . S
C1110 C1119 1.390 . S
C1111 C1110 1.387 . S
C1111 C1113 1.387 . S
H1112 C1119 0.950 . S
C1113 C1111 1.387 . S
C1113 C1115 1.390 . S
C1113 H1117 0.950 . S
H1114 C1110 0.950 . S
C1115 C1113 1.390 . S
C1115 C1116 1.387 . S
C1115 H1118 0.950 . S
C1116 C1115 1.387 . S
C1116 C1119 1.387 . S
H1117 C1113 0.950 . S
H1118 C1115 0.950 . S
C1119 C1110 1.390 . S
C1119 H1112 0.950 . S
C1119 C1116 1.387 . S
C1120 C1121 1.387 . S
C1120 H1124 0.950 . S
C1120 C1129 1.390 . S
C1121 C1120 1.387 . S
C1121 C1123 1.387 . S
H1122 C1129 0.950 . S
C1123 C1121 1.387 . S
C1123 C1125 1.390 . S
C1123 H1127 0.950 . S
H1124 C1120 0.950 . S
C1125 C1123 1.390 . S
C1125 C1126 1.387 . S
C1125 H1128 0.950 . S
C1126 C1125 1.387 . S
C1126 C1129 1.387 . S
H1127 C1123 0.950 . S
H1128 C1125 0.950 . S
C1129 C1120 1.390 . S
C1129 H1122 0.950 . S
C1129 C1126 1.387 . S
C1130 C1131 1.387 . S
C1130 H1134 0.950 . S
C1130 C1139 1.390 . S
C1131 C1130 1.387 . S
C1131 C1133 1.387 . S
H1132 C1139 0.950 . S
C1133 C1131 1.387 . S
C1133 C1135 1.390 . S
C1133 H1137 0.950 . S
H1134 C1130 0.950 . S
C1135 C1133 1.390 . S
C1135 C1136 1.387 . S
C1135 H1138 0.950 . S
C1136 C1135 1.387 . S
C1136 C1139 1.387 . S
H1137 C1133 0.950 . S
H1138 C1135 0.950 . S
C1139 C1130 1.390 . S
C1139 H1132 0.950 . S
C1139 C1136 1.387 . S
C1140 C1141 1.387 . S
C1140 H1144 0.950 . S
C1140 C1149 1.390 . S
C1141 C1140 1.387 . S
C1141 C1143 1.387 . S
H1142 C1149 0.950 . S
C1143 C1141 1.387 . S
C1143 C1145 1.390 . S
C1143 H1147 0.950 . S
H1144 C1140 0.950 . S
C1145 C1143 1.390 . S
C1145 C1146 1.387 . S
C1145 H1148 0.950 . S
C1146 C1145 1.387 . S
C1146 C1149 1.387 . S
H1147 C1143 0.950 . S
H1148 C1145 0.950 . S
C1149 C1140 1.390 . S
C1149 H1142 0.950 . S
C1149 C1146 1.387 . S
C1150 C1151 1.387 . S
C1150 H1154 0.950 . S
C1150 C1159 1.390 . S
C1151 C1150 1.387 . S
C1151 C1153 1.387 . S
H1152 C1159 0.950 . S
C1153 C1151 1.387 . S
C1153 C1155 1.390 . S
C1153 H1157 0.950 . S
H1154 C1150 0.950 . S
C1155 C1153 1.390 . S
C1155 C1156 1.387 . S
C1155 H1158 0.950 . S
C1156 C1155 1.387 . S
C1156 C1159 1.387 . S
H1157 C1153 0.950 . S
H1158 C1155 0.950 . S
C1159 C1150 1.390 . S
C1159 H1152 0.950 . S
C1159 C1156 1.387 . S
C1160 C1161 1.387 . S
C1160 H1164 0.950 . S
C1160 C1169 1.390 . S
C1161 C1160 1.387 . S
C1161 C1163 1.387 . S
H1162 C1169 0.950 . S
C1163 C1161 1.387 . S
C1163 C1165 1.390 . S
C1163 H1167 0.950 . S
H1164 C1160 0.950 . S
C1165 C1163 1.390 . S
C1165 C1166 1.387 . S
C1165 H1168 0.950 . S
C1166 C1165 1.387 . S
C1166 C1169 1.387 . S
H1167 C1163 0.950 . S
H1168 C1165 0.950 . S
C1169 C1160 1.390 . S
C1169 H1162 0.950 . S
C1169 C1166 1.387 . S
C1170 C1171 1.387 . S
C1170 H1174 0.950 . S
C1170 C1179 1.390 . S
C1171 C1170 1.387 . S
C1171 C1173 1.387 . S
H1172 C1179 0.950 . S
C1173 C1171 1.387 . S
C1173 C1175 1.390 . S
C1173 H1177 0.950 . S
H1174 C1170 0.950 . S
C1175 C1173 1.390 . S
C1175 C1176 1.387 . S
C1175 H1178 0.950 . S
C1176 C1175 1.387 . S
C1176 C1179 1.387 . S
H1177 C1173 0.950 . S
H1178 C1175 0.950 . S
C1179 C1170 1.390 . S
C1179 H1172 0.950 . S
C1179 C1176 1.387 . S
C1180 C1181 1.387 . S
C1180 H1184 0.950 . S
C1180 C1189 1.390 . S
C1181 C1180 1.387 . S
C1181 C1183 1.387 . S
H1182 C1189 0.950 . S
C1183 C1181 1.387 . S
C1183 C1185 1.390 . S
C1183 H1187 0.950 . S
H1184 C1180 0.950 . S
C1185 C1183 1.390 . S
C1185 C1186 1.387 . S
C1185 H1188 0.950 . S
C1186 C1185 1.387 . S
C1186 C1189 1.387 . S
H1187 C1183 0.950 . S
H1188 C1185 0.950 . S
C1189 C1180 1.390 . S
C1189 H1182 0.950 . S
C1189 C1186 1.387 . S
C1190 C1191 1.387 . S
C1190 H1194 0.950 . S
C1190 C1199 1.390 . S
C1191 C1190 1.387 . S
C1191 C1193 1.387 . S
H1192 C1199 0.950 . S
C1193 C1191 1.387 . S
C1193 C1195 1.390 . S
C1193 H1197 0.950 . S
H1194 C1190 0.950 . S
C1195 C1193 1.390 . S
C1195 C1196 1.387 . S
C1195 H1198 0.950 . S
C1196 C1195 1.387 . S
C1196 C1199 1.387 . S
H1197 C1193 0.950 . S
H1198 C1195 0.950 . S
C1199 C1190 1.390 . S
C1199 H1192 0.950 . S
C1199 C1196 1.387 . S
C481 C5 0.723 . S
C486 C145 0.736 . S
C491 C22 1.400 . S
C496 C85 1.316 . S
C501 C45 1.600 . S
C506 C102 1.669 . S
C511 C62 2.318 . S
C516 C122 2.370 . S
C521 C2 2.387 . S
C526 C162 2.434 . S
C531 C185 0.956 . S
C536 C25 0.895 . S
C541 C202 2.445 . S
C546 C42 2.457 . S
C551 C65 0.675 . S
C556 C225 0.718 . S
C561 C82 2.331 . S
C566 C182 2.274 . S
C571 C205 0.727 . S
C576 C105 0.735 . S
C581 C125 1.503 . S
C586 C222 1.613 . S
C591 C142 1.513 . S
C596 C165 1.474 . S
C601 C245 0.909 . S
C606 C425 0.955 . S
C611 C262 2.450 . S
C616 C442 2.433 . S
C621 C285 0.593 . S
C626 C465 0.673 . S
C631 C462 1.573 . S
C636 C305 1.468 . S
C641 C422 2.368 . S
C646 C322 2.448 . S
C651 C345 0.742 . S
C656 C385 0.731 . S
C661 C242 1.363 . S
C666 C325 1.267 . S
C671 C362 1.674 . S
C676 C265 1.608 . S
C681 C302 2.425 . S
C686 C282 2.391 . S
C691 C405 1.438 . S
C696 C342 1.539 . S
C701 C365 0.755 . S
C706 C445 0.759 . S
C711 C382 2.444 . S
C716 C402 2.489 . S
C721 C97 1.996 . S
C726 C17 2.019 . S
C731 C113 2.021 . S
C736 C33 2.027 . S
C741 C57 2.622 . S
C746 C133 2.584 . S
C751 C73 1.897 . S
C756 C157 2.043 . S
C761 C233 2.525 . S
C766 C173 2.576 . S
C771 C177 2.136 . S
C776 C197 2.151 . S
C781 C193 2.142 . S
C786 C213 2.179 . S
C791 C237 1.881 . S
C796 C217 1.815 . S
C801 C377 1.964 1_455 S
C806 C153 1.804 1_556 S
C811 C77 1.944 . S
C816 C257 1.918 1_556 S
C821 C13 2.611 1_655 S
C826 C273 2.631 . S
C831 C37 1.733 . S
C836 C297 1.735 . S
C841 C393 1.813 . S
C846 C117 1.951 . S
C851 C93 2.455 . S
C856 C317 2.464 . S
C861 C137 2.599 . S
C866 C333 2.580 . S
C871 C337 1.796 . S
C876 C357 1.872 . S
C881 C373 2.106 . S
C886 C253 2.132 . S
C891 C277 2.584 . S
C896 C313 2.548 . S
C901 C397 2.144 . S
C906 C293 2.056 . S
C911 C417 2.146 . S
C916 C473 2.073 . S
C921 C413 2.555 . S
C926 C437 2.614 . S
C931 C453 2.288 . S
C936 C433 2.231 . S
C941 C477 1.794 . S
C946 C457 1.701 . S
C951 C353 2.546 . S
C956 C53 2.577 . S
C961 C14 1.997 . S
C966 C194 2.012 . S
C971 C28 1.908 . S
C976 C208 1.912 . S
C981 C54 2.245 . S
C986 C234 2.211 . S
C991 C168 1.536 . S
C996 C68 1.618 . S
C1001 C94 1.800 . S
C1006 C174 1.814 . S
C1011 C188 1.899 . S
C1016 C108 1.939 . S
C1021 C214 1.923 . S
C1026 C128 1.813 . S
C1031 C154 2.233 . S
C1036 C228 2.007 . S
C1041 C148 1.831 . S
C1046 C268 1.779 . S
C1051 C134 1.986 . S
C1056 C254 1.955 . S
C1061 C88 1.658 . S
C1066 C294 1.783 . S
C1071 C374 2.410 . S
C1076 C8 2.203 . S
C1081 C348 2.180 . S
C1086 C114 2.401 . S
C1091 C34 2.093 . S
C1096 C314 2.127 . S
C1101 C74 1.596 . S
C1106 C328 1.474 . S
C1111 C434 2.250 . S
C1116 C354 2.205 . S
C1121 C448 1.898 . S
C1126 C248 1.895 . S
C1131 C474 2.184 . S
C1136 C274 2.219 . S
C1141 C414 1.732 . S
C1146 C288 1.628 . S
C1151 C408 1.667 . S
C1156 C334 1.735 . S
C1161 C368 1.943 . S
C1166 C428 1.928 . S
C1171 C454 1.949 . S
C1176 C308 1.850 . S
C1181 C394 1.901 . S
C1186 C468 1.714 . S
C1191 C48 1.774 . S
C1196 C388 1.817 . S
