# Generated by pormake.
# Topology umb, (4)-cn, num edge types: 1
# Building blocks:
#     Node 0, Type 0, BuildingBlock: KOZSID_clean_sbu_0, # of connection points: 4
#     Node 1, Type 0, BuildingBlock: KOZSID_clean_sbu_0, # of connection points: 4
#     Node 2, Type 0, BuildingBlock: KOZSID_clean_sbu_0, # of connection points: 4
#     Node 3, Type 0, BuildingBlock: KOZSID_clean_sbu_0, # of connection points: 4
#     Node 4, Type 0, BuildingBlock: KOZSID_clean_sbu_0, # of connection points: 4
#     Node 5, Type 0, BuildingBlock: KOZSID_clean_sbu_0, # of connection points: 4
#     Node 6, Type 0, BuildingBlock: KOZSID_clean_sbu_0, # of connection points: 4
#     Node 7, Type 0, BuildingBlock: KOZSID_clean_sbu_0, # of connection points: 4
#     Node 8, Type 0, BuildingBlock: KOZSID_clean_sbu_0, # of connection points: 4
#     Node 9, Type 0, BuildingBlock: KOZSID_clean_sbu_0, # of connection points: 4
#     Node 10, Type 0, BuildingBlock: KOZSID_clean_sbu_0, # of connection points: 4
#     Node 11, Type 0, BuildingBlock: KOZSID_clean_sbu_0, # of connection points: 4
#     Edge 12, Type (0, 0), BuildingBlock: CIFDUS_clean_linker_0, # of connection points: 2
#     Edge 13, Type (0, 0), BuildingBlock: CIFDUS_clean_linker_0, # of connection points: 2
#     Edge 14, Type (0, 0), BuildingBlock: CIFDUS_clean_linker_0, # of connection points: 2
#     Edge 15, Type (0, 0), BuildingBlock: CIFDUS_clean_linker_0, # of connection points: 2
#     Edge 16, Type (0, 0), BuildingBlock: CIFDUS_clean_linker_0, # of connection points: 2
#     Edge 17, Type (0, 0), BuildingBlock: CIFDUS_clean_linker_0, # of connection points: 2
#     Edge 18, Type (0, 0), BuildingBlock: CIFDUS_clean_linker_0, # of connection points: 2
#     Edge 19, Type (0, 0), BuildingBlock: CIFDUS_clean_linker_0, # of connection points: 2
#     Edge 20, Type (0, 0), BuildingBlock: CIFDUS_clean_linker_0, # of connection points: 2
#     Edge 21, Type (0, 0), BuildingBlock: CIFDUS_clean_linker_0, # of connection points: 2
#     Edge 22, Type (0, 0), BuildingBlock: CIFDUS_clean_linker_0, # of connection points: 2
#     Edge 23, Type (0, 0), BuildingBlock: CIFDUS_clean_linker_0, # of connection points: 2
#     Edge 24, Type (0, 0), BuildingBlock: CIFDUS_clean_linker_0, # of connection points: 2
#     Edge 25, Type (0, 0), BuildingBlock: CIFDUS_clean_linker_0, # of connection points: 2
#     Edge 26, Type (0, 0), BuildingBlock: CIFDUS_clean_linker_0, # of connection points: 2
#     Edge 27, Type (0, 0), BuildingBlock: CIFDUS_clean_linker_0, # of connection points: 2
#     Edge 28, Type (0, 0), BuildingBlock: CIFDUS_clean_linker_0, # of connection points: 2
#     Edge 29, Type (0, 0), BuildingBlock: CIFDUS_clean_linker_0, # of connection points: 2
#     Edge 30, Type (0, 0), BuildingBlock: CIFDUS_clean_linker_0, # of connection points: 2
#     Edge 31, Type (0, 0), BuildingBlock: CIFDUS_clean_linker_0, # of connection points: 2
#     Edge 32, Type (0, 0), BuildingBlock: CIFDUS_clean_linker_0, # of connection points: 2
#     Edge 33, Type (0, 0), BuildingBlock: CIFDUS_clean_linker_0, # of connection points: 2
#     Edge 34, Type (0, 0), BuildingBlock: CIFDUS_clean_linker_0, # of connection points: 2
#     Edge 35, Type (0, 0), BuildingBlock: CIFDUS_clean_linker_0, # of connection points: 2
# Relax obj value: 0.213
# Max RMSD: 0.235
# Mean RMSD: 0.234
data_MOF--net-umb--node1-KOZSID_clean_sbu_0--edge1-CIFDUS_clean_linker_0
_symmetry_space_group_name_H-M    P1
_symmetry_Int_Tables_number       1
_symmetry_cell_setting            triclinic
loop_
_symmetry_equiv_pos_as_xyz
'x, y, z'
_cell_length_a     55.385357
_cell_length_b     55.597872
_cell_length_c     37.252532
_cell_angle_alpha  89.937499
_cell_angle_beta   90.112478
_cell_angle_gamma 120.20804
loop_
_atom_site_label
_atom_site_type_symbol
_atom_site_fract_x
_atom_site_fract_y
_atom_site_fract_z
_atom_type_partial_charge
C0 C 0.5761 0.2122 0.24045 0.0
C1 C 0.59546 0.21765 0.21363 0.0
C2 C 0.61106 0.20588 0.22457 0.0
C3 C 0.60048 0.19388 0.2575 0.0
N4 N 0.57903 0.19717 0.26738 0.0
Co5 Co 0.56067 0.18765 0.31507 0.0
N6 N 0.59267 0.18779 0.33893 0.0
C7 C 0.61265 0.18535 0.32163 0.0
C8 C 0.63191 0.18523 0.34484 0.0
C9 C 0.62321 0.18736 0.37868 0.0
C10 C 0.59896 0.18863 0.37442 0.0
N11 N 0.54183 0.17892 0.3624 0.0
C12 C 0.55233 0.18116 0.39605 0.0
C13 C 0.53109 0.1719 0.42133 0.0
C14 C 0.50665 0.16343 0.40276 0.0
C15 C 0.51415 0.16787 0.3672 0.0
N16 N 0.52906 0.18796 0.29083 0.0
C17 C 0.50263 0.17563 0.30275 0.0
C18 C 0.48616 0.18213 0.28183 0.0
C19 C 0.50354 0.19993 0.25567 0.0
C20 C 0.52973 0.2034 0.2621 0.0
N21 N 0.54455 0.14687 0.30586 0.0
C22 C 0.52674 0.08938 0.29575 0.0
C23 C 0.53482 0.10208 0.32944 0.0
C24 C 0.54375 0.13037 0.33381 0.0
C25 C 0.52772 0.1063 0.26685 0.0
C26 C 0.53643 0.13488 0.27252 0.0
N27 N 0.57736 0.22742 0.32489 0.0
C28 C 0.57474 0.26705 0.34595 0.0
C29 C 0.6027 0.2847 0.33635 0.0
C30 C 0.61769 0.27314 0.32151 0.0
C31 C 0.60485 0.24461 0.31653 0.0
C32 C 0.56227 0.23835 0.33947 0.0
H33 H 0.61731 0.23649 0.30578 0.0
H34 H 0.54055 0.22502 0.34625 0.0
H35 H 0.55054 0.13883 0.36023 0.0
H36 H 0.53686 0.14731 0.24993 0.0
C37 C 0.61475 0.18747 0.28381 0.0
C38 C 0.55486 0.22107 0.24036 0.0
C39 C 0.58126 0.18823 0.40455 0.0
C40 C 0.49678 0.16588 0.33832 0.0
H41 H 0.59863 0.22959 0.18939 0.0
H42 H 0.62948 0.20805 0.2115 0.0
H43 H 0.65051 0.18449 0.33802 0.0
H44 H 0.63337 0.18762 0.40364 0.0
H45 H 0.53295 0.17075 0.45013 0.0
H46 H 0.48601 0.15557 0.41396 0.0
H47 H 0.46474 0.17663 0.2868 0.0
H48 H 0.49789 0.20989 0.23498 0.0
H49 H 0.53453 0.09016 0.35263 0.0
H50 H 0.52136 0.09745 0.24027 0.0
H51 H 0.5627 0.27534 0.35807 0.0
H52 H 0.63958 0.28607 0.3147 0.0
C53 C 0.37386 0.57038 0.57487 0.0
C54 C 0.38749 0.58901 0.54723 0.0
C55 C 0.41513 0.60486 0.55748 0.0
C56 C 0.41698 0.59517 0.59084 0.0
N57 N 0.39226 0.57402 0.60169 0.0
Co58 Co 0.38407 0.55691 0.65015 0.0
N59 N 0.41644 0.58943 0.67255 0.0
C60 C 0.43869 0.60896 0.65434 0.0
C61 C 0.45854 0.62873 0.67663 0.0
C62 C 0.44822 0.62085 0.71086 0.0
C63 C 0.42253 0.59656 0.70774 0.0
N64 N 0.37467 0.53932 0.69829 0.0
C65 C 0.3836 0.55058 0.73146 0.0
C66 C 0.37196 0.53004 0.75763 0.0
C67 C 0.35556 0.50526 0.74012 0.0
C68 C 0.35801 0.51186 0.70428 0.0
N69 N 0.35165 0.52481 0.62732 0.0
C70 C 0.33763 0.4988 0.64041 0.0
C71 C 0.31424 0.48186 0.62026 0.0
C72 C 0.31345 0.49848 0.59336 0.0
C73 C 0.33639 0.52474 0.5986 0.0
N74 N 0.40868 0.5407 0.64152 0.0
C75 C 0.44786 0.52214 0.6323 0.0
C76 C 0.44405 0.53146 0.6655 0.0
C77 C 0.42493 0.54072 0.66943 0.0
C78 C 0.43143 0.52234 0.6034 0.0
C79 C 0.41181 0.53144 0.60865 0.0
N80 N 0.36096 0.57358 0.65943 0.0
C81 C 0.31891 0.57117 0.68154 0.0
C82 C 0.32899 0.5988 0.67109 0.0
C83 C 0.35526 0.61349 0.65504 0.0
C84 C 0.371 0.60071 0.64996 0.0
C85 C 0.33513 0.55876 0.67496 0.0
H86 H 0.39144 0.61295 0.63837 0.0
H87 H 0.32692 0.53731 0.68254 0.0
H88 H 0.42384 0.54838 0.69545 0.0
H89 H 0.39936 0.53122 0.58611 0.0
C90 C 0.43812 0.61009 0.61647 0.0
C91 C 0.34361 0.54919 0.57569 0.0
C92 C 0.40576 0.57958 0.73869 0.0
C93 C 0.34209 0.49387 0.67618 0.0
H94 H 0.37839 0.59159 0.52287 0.0
H95 H 0.43129 0.6229 0.54361 0.0
H96 H 0.47786 0.64709 0.66893 0.0
H97 H 0.45861 0.63156 0.73534 0.0
H98 H 0.37549 0.53257 0.78631 0.0
H99 H 0.3429 0.48497 0.75222 0.0
H100 H 0.29831 0.46064 0.62618 0.0
H101 H 0.29748 0.49231 0.57295 0.0
H102 H 0.45614 0.53186 0.68864 0.0
H103 H 0.43333 0.51506 0.5772 0.0
H104 H 0.29879 0.55936 0.69455 0.0
H105 H 0.36405 0.63514 0.6475 0.0
C106 C 0.81685 0.3712 0.9075 0.0
C107 C 0.81555 0.38545 0.87765 0.0
C108 C 0.82793 0.41315 0.88725 0.0
C109 C 0.83656 0.41455 0.92225 0.0
N110 N 0.8306 0.38949 0.9347 0.0
Co111 Co 0.83816 0.38194 0.98397 0.0
N112 N 0.83904 0.41529 1.00414 0.0
C113 C 0.84362 0.43759 0.98467 0.0
C114 C 0.84414 0.4582 1.00562 0.0
C115 C 0.83995 0.44824 0.0403 0.0
C116 C 0.83699 0.42195 0.03875 0.0
N117 N 0.84523 0.3735 0.03329 0.0
C118 C 0.84226 0.38301 0.06564 0.0
C119 C 0.84906 0.37062 0.09327 0.0
C120 C 0.85746 0.35376 0.0775 0.0
C121 C 0.85504 0.3564 0.04125 0.0
N122 N 0.83674 0.3484 0.96323 0.0
C123 C 0.84747 0.334 0.9789 0.0
C124 C 0.83853 0.30882 0.96272 0.0
C125 C 0.82086 0.3071 0.93576 0.0
C126 C 0.82053 0.33199 0.93557 0.0
N127 N 0.8793 0.40509 0.97572 0.0
C128 C 0.93647 0.44572 0.96268 0.0
C129 C 0.92402 0.44296 0.99639 0.0
C130 C 0.89589 0.42286 1.00227 0.0
C131 C 0.91959 0.42643 0.93603 0.0
C132 C 0.89128 0.40637 0.94307 0.0
N133 N 0.79787 0.36032 0.99201 0.0
C134 C 0.75572 0.31737 1.00605 0.0
C135 C 0.73967 0.3282 0.992 0.0
C136 C 0.75319 0.35571 0.97998 0.0
C137 C 0.7821 0.37142 0.98059 0.0
C138 C 0.78501 0.33385 1.00565 0.0
H139 H 0.79171 0.39234 0.9704 0.0
H140 H 0.79726 0.32501 0.01528 0.0
H141 H 0.8874 0.42253 0.02834 0.0
H142 H 0.8788 0.39249 0.92172 0.0
C143 C 0.84324 0.43645 0.94671 0.0
C144 C 0.80548 0.34046 0.90928 0.0
C145 C 0.83546 0.40532 0.07072 0.0
C146 C 0.8566 0.3395 0.01463 0.0
H147 H 0.80606 0.3767 0.85195 0.0
H148 H 0.82872 0.42983 0.87135 0.0
H149 H 0.84663 0.47786 0.99674 0.0
H150 H 0.8397 0.45929 0.06408 0.0
H151 H 0.84816 0.37335 0.12186 0.0
H152 H 0.86343 0.34027 0.09096 0.0
H153 H 0.84149 0.29208 0.97226 0.0
H154 H 0.80847 0.28831 0.92087 0.0
H155 H 0.93587 0.4564 0.01847 0.0
H156 H 0.92784 0.42729 0.90945 0.0
H157 H 0.7458 0.2963 0.0163 0.0
H158 H 0.74141 0.36505 0.96994 0.0
C159 C 0.45309 0.8081 0.23828 0.0
C160 C 0.4343 0.80215 0.21043 0.0
C161 C 0.41799 0.81344 0.21984 0.0
C162 C 0.42755 0.82565 0.25293 0.0
N163 N 0.44905 0.82293 0.26441 0.0
Co164 Co 0.4663 0.83327 0.3128 0.0
N165 N 0.43335 0.83257 0.33447 0.0
C166 C 0.4135 0.83433 0.31571 0.0
C167 C 0.39343 0.83411 0.33755 0.0
C168 C 0.40143 0.83247 0.37206 0.0
C169 C 0.42611 0.83183 0.36953 0.0
N170 N 0.48402 0.84296 0.36091 0.0
C171 C 0.47265 0.84088 0.39391 0.0
C172 C 0.49331 0.8509 0.42012 0.0
C173 C 0.51827 0.85966 0.4028 0.0
C174 C 0.51164 0.85462 0.367 0.0
N175 N 0.49881 0.83341 0.29075 0.0
C176 C 0.52493 0.84627 0.30391 0.0
C177 C 0.54223 0.84003 0.2845 0.0
C178 C 0.52572 0.82186 0.258 0.0
C179 C 0.49918 0.81791 0.26272 0.0
N180 N 0.48187 0.87377 0.30242 0.0
C181 C 0.49735 0.93045 0.28885 0.0
C182 C 0.48842 0.91823 0.3228 0.0
C183 C 0.48087 0.8904 0.3289 0.0
C184 C 0.49923 0.91348 0.26197 0.0
C185 C 0.49143 0.88537 0.26924 0.0
N186 N 0.45021 0.79374 0.32365 0.0
C187 C 0.45363 0.75502 0.34675 0.0
C188 C 0.42602 0.73669 0.33622 0.0
C189 C 0.41078 0.74747 0.31987 0.0
C190 C 0.42305 0.77591 0.31433 0.0
C191 C 0.46551 0.78358 0.33973 0.0
H192 H 0.41043 0.78344 0.30233 0.0
H193 H 0.48698 0.79742 0.3473 0.0
H194 H 0.47349 0.88228 0.35533 0.0
H195 H 0.49255 0.87284 0.24786 0.0
C196 C 0.41235 0.83187 0.27791 0.0
C197 C 0.47478 0.79988 0.23987 0.0
C198 C 0.44326 0.8329 0.40081 0.0
C199 C 0.52979 0.85651 0.33928 0.0
H200 H 0.43198 0.7902 0.18648 0.0
H201 H 0.39976 0.81084 0.20562 0.0
H202 H 0.37475 0.8343 0.32941 0.0
H203 H 0.39051 0.83211 0.39629 0.0
H204 H 0.49072 0.85228 0.44869 0.0
H205 H 0.53869 0.86803 0.41501 0.0
H206 H 0.56363 0.84601 0.29066 0.0
H207 H 0.53219 0.81204 0.23817 0.0
H208 H 0.48722 0.93008 0.34505 0.0
H209 H 0.50601 0.92156 0.23515 0.0
H210 H 0.46585 0.74736 0.36002 0.0
H211 H 0.38911 0.73401 0.3123 0.0
C212 C 0.64861 0.44259 0.5715 0.0
C213 C 0.63336 0.42301 0.54533 0.0
C214 C 0.60621 0.40808 0.55757 0.0
C215 C 0.60621 0.41912 0.59063 0.0
N216 N 0.63165 0.44016 0.59948 0.0
Co217 Co 0.6421 0.45914 0.64667 0.0
N218 N 0.61016 0.42802 0.67173 0.0
C219 C 0.58677 0.40852 0.65533 0.0
C220 C 0.56748 0.39003 0.67926 0.0
C221 C 0.57946 0.3987 0.71265 0.0
C222 C 0.60559 0.42203 0.70736 0.0
N223 N 0.65357 0.47844 0.69367 0.0
C224 C 0.64607 0.46834 0.72764 0.0
C225 C 0.66023 0.4895 0.75254 0.0
C226 C 0.67624 0.51354 0.73342 0.0
C227 C 0.67138 0.50588 0.69794 0.0
N228 N 0.67405 0.48994 0.6212 0.0
C229 C 0.68904 0.51635 0.63272 0.0
C230 C 0.71153 0.53231 0.61079 0.0
C231 C 0.7107 0.51465 0.5843 0.0
C232 C 0.68779 0.48876 0.59159 0.0
N233 N 0.61805 0.47587 0.63777 0.0
C234 C 0.57704 0.4918 0.62542 0.0
C235 C 0.58169 0.48436 0.65969 0.0
C236 C 0.60195 0.4766 0.66522 0.0
C237 C 0.59455 0.49212 0.59762 0.0
C238 C 0.6148 0.48416 0.60431 0.0
N239 N 0.66475 0.44183 0.65555 0.0
C240 C 0.70921 0.44487 0.66598 0.0
C241 C 0.69764 0.41689 0.65621 0.0
C242 C 0.6692 0.40139 0.6482 0.0
C243 C 0.65315 0.4141 0.64834 0.0
C244 C 0.69229 0.45705 0.6654 0.0
H245 H 0.63149 0.4016 0.64106 0.0
H246 H 0.7016 0.47887 0.67174 0.0
H247 H 0.60385 0.47034 0.69193 0.0
H248 H 0.62731 0.48397 0.58219 0.0
C249 C 0.58582 0.40585 0.61758 0.0
C250 C 0.679 0.46352 0.56963 0.0
C251 C 0.62417 0.43953 0.73677 0.0
C252 C 0.6864 0.52262 0.66852 0.0
H253 H 0.64103 0.41917 0.52059 0.0
H254 H 0.58914 0.38985 0.54513 0.0
H255 H 0.54743 0.37195 0.67318 0.0
H256 H 0.56986 0.38922 0.73799 0.0
H257 H 0.65924 0.48797 0.78147 0.0
H258 H 0.69056 0.53395 0.7442 0.0
H259 H 0.72795 0.5536 0.61517 0.0
H260 H 0.72564 0.51996 0.56277 0.0
H261 H 0.56966 0.48442 0.68253 0.0
H262 H 0.59216 0.49769 0.57054 0.0
H263 H 0.73111 0.45727 0.67299 0.0
H264 H 0.65944 0.37951 0.64139 0.0
C265 C 0.21703 0.64892 0.90491 0.0
C266 C 0.22145 0.63433 0.87801 0.0
C267 C 0.20983 0.60722 0.88972 0.0
C268 C 0.19906 0.60655 0.9232 0.0
N269 N 0.20299 0.63154 0.93285 0.0
Co270 Co 0.19477 0.64105 0.98087 0.0
N271 N 0.19503 0.60932 1.00473 0.0
C272 C 0.19198 0.58668 0.9875 0.0
C273 C 0.19203 0.56741 0.01057 0.0
C274 C 0.19486 0.5785 0.04435 0.0
C275 C 0.19632 0.60402 0.04017 0.0
N276 N 0.18725 0.65167 0.02862 0.0
C277 C 0.18975 0.64345 0.06219 0.0
C278 C 0.1812 0.65575 0.08777 0.0
C279 C 0.17288 0.67184 0.06951 0.0
C280 C 0.17669 0.66855 0.03382 0.0
N281 N 0.19504 0.67286 0.95656 0.0
C282 C 0.18328 0.68721 0.96911 0.0
C283 C 0.18933 0.70986 0.94791 0.0
C284 C 0.20623 0.70984 0.92082 0.0
C285 C 0.20972 0.68721 0.92702 0.0
N286 N 0.15364 0.61639 0.97307 0.0
C287 C 0.09572 0.57662 0.96473 0.0
C288 C 0.10907 0.58156 0.99803 0.0
C289 C 0.13758 0.60096 1.00153 0.0
C290 C 0.11215 0.59231 0.93534 0.0
C291 C 0.14097 0.61226 0.94013 0.0
N292 N 0.23488 0.66426 0.98928 0.0
C293 C 0.27507 0.70696 0.009 0.0
C294 C 0.29255 0.69666 0.99918 0.0
C295 C 0.28064 0.66992 0.98468 0.0
C296 C 0.25189 0.65401 0.98041 0.0
C297 C 0.24619 0.69049 1.00337 0.0
H298 H 0.24344 0.63329 0.9699 0.0
H299 H 0.23301 0.69887 0.01049 0.0
H300 H 0.14656 0.60287 0.02766 0.0
H301 H 0.15303 0.62408 0.91718 0.0
C302 C 0.19312 0.58623 0.9497 0.0
C303 C 0.22617 0.67912 0.90385 0.0
C304 C 0.19628 0.6213 0.07045 0.0
C305 C 0.17438 0.68372 1.00504 0.0
H306 H 0.23275 0.64244 0.85319 0.0
H307 H 0.21137 0.59065 0.87667 0.0
H308 H 0.19084 0.54794 1.00368 0.0
H309 H 0.19536 0.56869 0.06924 0.0
H310 H 0.18037 0.65283 0.11657 0.0
H311 H 0.16545 0.68481 0.08099 0.0
H312 H 0.18408 0.72584 0.95311 0.0
H313 H 0.21549 0.72508 0.89956 0.0
H314 H 0.09749 0.57011 0.02155 0.0
H315 H 0.10275 0.58954 0.90904 0.0
H316 H 0.28363 0.72745 0.02083 0.0
H317 H 0.29345 0.66098 0.97768 0.0
C318 C 0.81143 0.44341 0.44558 0.0
C319 C 0.80603 0.42313 0.4711 0.0
C320 C 0.81805 0.4082 0.45877 0.0
C321 C 0.83005 0.41993 0.42632 0.0
N322 N 0.82645 0.44141 0.41789 0.0
Co323 Co 0.83667 0.46161 0.37147 0.0
N324 N 0.83766 0.43101 0.34567 0.0
C325 C 0.84026 0.41072 0.3617 0.0
C326 C 0.84117 0.39262 0.33738 0.0
C327 C 0.8394 0.40243 0.30413 0.0
C328 C 0.83755 0.42612 0.30985 0.0
N329 N 0.84607 0.48212 0.32528 0.0
C330 C 0.84462 0.47298 0.29104 0.0
C331 C 0.85406 0.49501 0.26704 0.0
C332 C 0.86183 0.51857 0.28704 0.0
C333 C 0.85681 0.50978 0.32211 0.0
N334 N 0.83532 0.49188 0.3976 0.0
C335 C 0.84758 0.51859 0.38714 0.0
C336 C 0.84085 0.53418 0.40925 0.0
C337 C 0.82302 0.51597 0.43473 0.0
C338 C 0.81969 0.49014 0.42672 0.0
N339 N 0.8774 0.47779 0.3821 0.0
C340 C 0.93409 0.49286 0.39548 0.0
C341 C 0.9231 0.48815 0.36063 0.0
C342 C 0.89508 0.48045 0.35462 0.0
C343 C 0.916 0.49054 0.42361 0.0
C344 C 0.888 0.48346 0.41634 0.0
N345 N 0.79691 0.44489 0.3605 0.0
C346 C 0.75698 0.44801 0.34121 0.0
C347 C 0.73944 0.41974 0.34888 0.0
C348 C 0.75119 0.40432 0.36171 0.0
C349 C 0.77984 0.41712 0.36687 0.0
C350 C 0.78579 0.46033 0.34764 0.0
H351 H 0.78813 0.40445 0.37636 0.0
H352 H 0.79905 0.48227 0.34235 0.0
H353 H 0.88763 0.4756 0.32744 0.0
H354 H 0.87472 0.4818 0.43856 0.0
C355 C 0.83739 0.40708 0.39925 0.0
C356 C 0.80245 0.46452 0.44782 0.0
C357 C 0.83798 0.4446 0.28082 0.0
C358 C 0.85795 0.52582 0.35197 0.0
H359 H 0.79391 0.41883 0.49541 0.0
H360 H 0.81614 0.38955 0.47068 0.0
H361 H 0.84215 0.37404 0.34309 0.0
H362 H 0.83972 0.39332 0.27861 0.0
H363 H 0.85576 0.49425 0.23817 0.0
H364 H 0.8696 0.53948 0.27706 0.0
H365 H 0.84638 0.55567 0.40564 0.0
H366 H 0.81307 0.52093 0.45615 0.0
H367 H 0.93579 0.48924 0.33791 0.0
H368 H 0.9234 0.49414 0.45109 0.0
H369 H 0.74852 0.46041 0.33066 0.0
H370 H 0.73831 0.38223 0.36705 0.0
C371 C 0.37855 0.81039 0.77665 0.0
C372 C 0.39391 0.80621 0.80283 0.0
C373 C 0.42086 0.81787 0.79007 0.0
C374 C 0.42066 0.82841 0.7567 0.0
N375 N 0.39529 0.8243 0.74814 0.0
Co376 Co 0.38441 0.83189 0.70058 0.0
N377 N 0.41562 0.8315 0.67542 0.0
C378 C 0.43907 0.8354 0.69162 0.0
C379 C 0.45803 0.83568 0.66764 0.0
C380 C 0.44579 0.83203 0.6344 0.0
C381 C 0.41983 0.82956 0.63982 0.0
N382 N 0.37219 0.83846 0.65322 0.0
C383 C 0.37903 0.83481 0.61935 0.0
C384 C 0.36463 0.8413 0.5942 0.0
C385 C 0.34915 0.85009 0.613 0.0
C386 C 0.35457 0.84826 0.64857 0.0
N387 N 0.35319 0.83195 0.72626 0.0
C388 C 0.33829 0.84332 0.71427 0.0
C389 C 0.31612 0.83745 0.73645 0.0
C390 C 0.31699 0.82102 0.76353 0.0
C391 C 0.3396 0.8176 0.75636 0.0
N392 N 0.40956 0.87308 0.70714 0.0
C393 C 0.45468 0.92932 0.71298 0.0
C394 C 0.4445 0.91635 0.67968 0.0
C395 C 0.42281 0.88872 0.67739 0.0
C396 C 0.43998 0.91384 0.74358 0.0
C397 C 0.41741 0.88592 0.74007 0.0
N398 N 0.36101 0.79179 0.69334 0.0
C399 C 0.31787 0.75123 0.67546 0.0
C400 C 0.32889 0.73421 0.68444 0.0
C401 C 0.35615 0.74651 0.69766 0.0
C402 C 0.3719 0.77519 0.70143 0.0
C403 C 0.33423 0.78009 0.6806 0.0
H404 H 0.39304 0.78393 0.71088 0.0
H405 H 0.32534 0.79292 0.67409 0.0
H406 H 0.4181 0.87984 0.65099 0.0
H407 H 0.4072 0.87442 0.76411 0.0
C408 C 0.44053 0.83454 0.7294 0.0
C409 C 0.34824 0.80127 0.7789 0.0
C410 C 0.40104 0.82806 0.61044 0.0
C411 C 0.34034 0.85116 0.67801 0.0
H412 H 0.38643 0.79507 0.82786 0.0
H413 H 0.43787 0.81655 0.80239 0.0
H414 H 0.47807 0.83763 0.6736 0.0
H415 H 0.45512 0.83171 0.60904 0.0
H416 H 0.3653 0.84011 0.56529 0.0
H417 H 0.3349 0.85615 0.602 0.0
H418 H 0.29977 0.84236 0.73183 0.0
H419 H 0.30222 0.81189 0.78535 0.0
H420 H 0.4539 0.92718 0.65488 0.0
H421 H 0.44652 0.92271 0.77012 0.0
H422 H 0.29694 0.74235 0.66463 0.0
H423 H 0.3656 0.73403 0.70401 0.0
C424 C 0.57798 0.3711 0.11105 0.0
C425 C 0.59696 0.38461 0.13849 0.0
C426 C 0.61269 0.4122 0.12843 0.0
C427 C 0.60259 0.41415 0.09536 0.0
N428 N 0.58134 0.38952 0.08451 0.0
Co429 Co 0.56364 0.38159 0.03632 0.0
N430 N 0.59585 0.41421 0.01384 0.0
C431 C 0.61543 0.43638 0.03211 0.0
C432 C 0.63495 0.4564 0.0098 0.0
C433 C 0.62685 0.44627 0.97551 0.0
C434 C 0.60266 0.42052 0.97861 0.0
N435 N 0.54555 0.37241 0.98842 0.0
C436 C 0.55652 0.38155 0.95518 0.0
C437 C 0.53567 0.36998 0.92925 0.0
C438 C 0.511 0.35336 0.94698 0.0
C439 C 0.51798 0.35564 0.98271 0.0
N440 N 0.53174 0.34901 0.0592 0.0
C441 C 0.50552 0.33502 0.04641 0.0
C442 C 0.48868 0.31171 0.06657 0.0
C443 C 0.50559 0.31095 0.09319 0.0
C444 C 0.53189 0.33383 0.08778 0.0
N445 N 0.54719 0.40574 0.04629 0.0
C446 C 0.53153 0.44671 0.05987 0.0
C447 C 0.53964 0.44296 0.02563 0.0
C448 C 0.54729 0.42277 0.01951 0.0
C449 C 0.53043 0.42836 0.08701 0.0
C450 C 0.53828 0.40814 0.07971 0.0
N451 N 0.58071 0.35896 0.02618 0.0
C452 C 0.57769 0.31543 0.0105 0.0
C453 C 0.60536 0.32597 0.02167 0.0
C454 C 0.62076 0.35355 0.03309 0.0
C455 C 0.60823 0.3697 0.03475 0.0
C456 C 0.56559 0.33234 0.01324 0.0
H457 H 0.62072 0.3907 0.04429 0.0
H458 H 0.54393 0.32374 1.0059 0.0
H459 H 0.55412 0.4217 0.99288 0.0
H460 H 0.53784 0.39493 0.10133 0.0
C461 C 0.61705 0.43549 0.06992 0.0
C462 C 0.5566 0.34097 0.11033 0.0
C463 C 0.58552 0.40373 0.9477 0.0
C464 C 0.50023 0.33956 0.01086 0.0
H465 H 0.59976 0.37548 0.16264 0.0
H466 H 0.63085 0.42831 0.14224 0.0
H467 H 0.65337 0.47568 0.01751 0.0
H468 H 0.63739 0.45678 0.95105 0.0
H469 H 0.53792 0.37367 0.9006 0.0
H470 H 0.49055 0.34069 0.9351 0.0
H471 H 0.46733 0.29584 0.06085 0.0
H472 H 0.49955 0.29504 0.11354 0.0
H473 H 0.54019 0.45563 1.00322 0.0
H474 H 0.52431 0.43003 0.11404 0.0
H475 H 0.56539 0.29424 1.00088 0.0
H476 H 0.64246 0.36258 0.04102 0.0
C477 C 0.21649 0.57123 0.44418 0.0
C478 C 0.2214 0.58992 0.47162 0.0
C479 C 0.21 0.60586 0.46071 0.0
C480 C 0.19877 0.59615 0.42717 0.0
N481 N 0.20218 0.57492 0.41686 0.0
Co482 Co 0.19379 0.5578 0.36843 0.0
N483 N 0.19493 0.59041 0.34546 0.0
C484 C 0.1918 0.60977 0.36314 0.0
C485 C 0.1922 0.62946 0.34041 0.0
C486 C 0.19549 0.62174 0.30648 0.0
C487 C 0.19707 0.59772 0.31024 0.0
N488 N 0.18638 0.5403 0.32022 0.0
C489 C 0.19019 0.55183 0.28696 0.0
C490 C 0.18296 0.53158 0.26071 0.0
C491 C 0.17358 0.50668 0.27823 0.0
C492 C 0.17581 0.51293 0.31417 0.0
N493 N 0.19302 0.52553 0.3919 0.0
C494 C 0.18097 0.49954 0.37875 0.0
C495 C 0.18673 0.48249 0.39949 0.0
C496 C 0.20381 0.49903 0.42679 0.0
C497 C 0.20763 0.52533 0.42119 0.0
N498 N 0.15263 0.54203 0.3757 0.0
C499 C 0.09625 0.53024 0.38332 0.0
C500 C 0.10928 0.53496 0.34974 0.0
C501 C 0.13697 0.54114 0.34662 0.0
C502 C 0.1118 0.52962 0.41311 0.0
C503 C 0.13982 0.5354 0.40871 0.0
N504 N 0.23393 0.57429 0.3605 0.0
C505 C 0.27402 0.57196 0.3402 0.0
C506 C 0.29162 0.59964 0.35069 0.0
C507 C 0.2798 0.6143 0.3658 0.0
C508 C 0.25108 0.60147 0.36995 0.0
C509 C 0.24511 0.55947 0.34587 0.0
H510 H 0.24278 0.61373 0.38078 0.0
H511 H 0.23184 0.538 0.33829 0.0
H512 H 0.14591 0.54664 0.32028 0.0
H513 H 0.1514 0.53559 0.43219 0.0
C514 C 0.19295 0.61097 0.40107 0.0
C515 C 0.22506 0.54982 0.44405 0.0
C516 C 0.19794 0.58107 0.27972 0.0
C517 C 0.1727 0.49483 0.34253 0.0
H518 H 0.2327 0.59242 0.49633 0.0
H519 H 0.21193 0.62392 0.47433 0.0
H520 H 0.191 0.64768 0.34764 0.0
H521 H 0.19621 0.63233 0.28177 0.0
H522 H 0.1841 0.53429 0.23191 0.0
H523 H 0.16692 0.4866 0.26614 0.0
H524 H 0.18138 0.46131 0.39366 0.0
H525 H 0.21319 0.4928 0.44763 0.0
H526 H 0.09842 0.53481 0.32546 0.0
H527 H 0.10289 0.52585 0.43977 0.0
H528 H 0.28249 0.56016 0.32787 0.0
H529 H 0.29265 0.63599 0.37326 0.0
C530 C 0.65926 0.2103 0.77666 0.0
C531 C 0.64586 0.21331 0.80625 0.0
C532 C 0.61803 0.20169 0.79713 0.0
C533 C 0.61571 0.19194 0.7626 0.0
N534 N 0.64035 0.19654 0.74988 0.0
Co535 Co 0.64679 0.18797 0.70041 0.0
N536 N 0.61336 0.18759 0.68079 0.0
C537 C 0.59149 0.18386 0.70069 0.0
C538 C 0.57072 0.18358 0.68007 0.0
C539 C 0.58012 0.18706 0.64517 0.0
C540 C 0.60626 0.1894 0.64627 0.0
N541 N 0.65433 0.18027 0.65091 0.0
C542 C 0.64468 0.18347 0.61871 0.0
C543 C 0.65675 0.17658 0.59083 0.0
C544 C 0.67347 0.1678 0.60625 0.0
C545 C 0.67113 0.17017 0.64255 0.0
N546 N 0.68033 0.18863 0.72041 0.0
C547 C 0.69443 0.17776 0.70428 0.0
C548 C 0.71992 0.18644 0.71986 0.0
C549 C 0.72211 0.20399 0.74701 0.0
C550 C 0.69716 0.20436 0.74799 0.0
N551 N 0.62293 0.14709 0.70945 0.0
C552 C 0.58163 0.09043 0.72259 0.0
C553 C 0.58559 0.10227 0.68835 0.0
C554 C 0.6058 0.1303 0.6825 0.0
C555 C 0.59963 0.10757 0.75004 0.0
C556 C 0.62037 0.13555 0.74281 0.0
N557 N 0.66903 0.228 0.69145 0.0
C558 C 0.71177 0.26937 0.67436 0.0
C559 C 0.70127 0.28591 0.68747 0.0
C560 C 0.67413 0.27298 0.70098 0.0
C561 C 0.65836 0.2442 0.70238 0.0
C562 C 0.69525 0.24023 0.67681 0.0
H563 H 0.63766 0.23512 0.71337 0.0
H564 H 0.70378 0.22765 0.66761 0.0
H565 H 0.60656 0.13853 0.65612 0.0
H566 H 0.63373 0.1481 0.76452 0.0
C567 C 0.59343 0.18522 0.73857 0.0
C568 C 0.6896 0.21939 0.77516 0.0
C569 C 0.62246 0.19055 0.61401 0.0
C570 C 0.68834 0.16852 0.66873 0.0
H571 H 0.65525 0.22325 0.83149 0.0
H572 H 0.60186 0.20207 0.81298 0.0
H573 H 0.5514 0.18186 0.68932 0.0
H574 H 0.56885 0.18739 0.62159 0.0
H575 H 0.65396 0.1777 0.56228 0.0
H576 H 0.68679 0.16173 0.59253 0.0
H577 H 0.73647 0.18329 0.70988 0.0
H578 H 0.74103 0.21633 0.76213 0.0
H579 H 0.57221 0.09026 0.66625 0.0
H580 H 0.59768 0.09945 0.77697 0.0
H581 H 0.73258 0.27882 0.66308 0.0
H582 H 0.66508 0.28513 0.71048 0.0
C583 C 0.45467 0.65088 0.11166 0.0
C584 C 0.43561 0.63727 0.13892 0.0
C585 C 0.41952 0.60984 0.12834 0.0
C586 C 0.42951 0.60806 0.09517 0.0
N587 N 0.45104 0.63266 0.08478 0.0
Co588 Co 0.46871 0.64098 0.0367 0.0
N589 N 0.43594 0.60941 0.01363 0.0
C590 C 0.41609 0.58709 0.03132 0.0
C591 C 0.39624 0.56785 1.00851 0.0
C592 C 0.40439 0.57873 0.97453 0.0
C593 C 0.4288 0.60421 0.97835 0.0
N594 N 0.48686 0.65043 0.98889 0.0
C595 C 0.47561 0.64252 0.95548 0.0
C596 C 0.49631 0.65521 0.92959 0.0
C597 C 0.52117 0.67066 0.94754 0.0
C598 C 0.51447 0.66697 0.98335 0.0
N599 N 0.50102 0.67271 0.06024 0.0
C600 C 0.52726 0.68646 0.04763 0.0
C601 C 0.54431 0.70952 0.06812 0.0
C602 C 0.52749 0.7104 0.09471 0.0
C603 C 0.50104 0.68784 0.08895 0.0
N604 N 0.48417 0.61576 0.04544 0.0
C605 C 0.502 0.57609 0.05462 0.0
C606 C 0.49286 0.58022 0.02138 0.0
C607 C 0.48394 0.59959 0.01747 0.0
C608 C 0.50196 0.59243 0.08357 0.0
C609 C 0.49321 0.6123 0.07836 0.0
N610 N 0.45277 0.66471 0.02723 0.0
C611 C 0.45616 0.70705 1.00505 0.0
C612 C 0.42841 0.69737 0.01501 0.0
C613 C 0.41316 0.67114 0.03085 0.0
C614 C 0.42552 0.65507 0.03621 0.0
C615 C 0.46814 0.69049 0.01194 0.0
H616 H 0.41285 0.63467 0.04758 0.0
H617 H 0.48969 0.69839 1.00474 0.0
H618 H 0.47644 0.60101 0.99139 0.0
H619 H 0.49357 0.62468 0.10093 0.0
C620 C 0.41461 0.58726 0.0692 0.0
C621 C 0.4763 0.68091 0.11127 0.0
C622 C 0.44606 0.62148 0.94791 0.0
C623 C 0.53237 0.68234 0.01184 0.0
H624 H 0.43296 0.64627 0.16325 0.0
H625 H 0.40117 0.59379 0.14185 0.0
H626 H 0.37764 0.54857 0.0157 0.0
H627 H 0.39382 0.56883 0.94977 0.0
H628 H 0.49393 0.65361 0.90074 0.0
H629 H 0.54152 0.68395 0.93576 0.0
H630 H 0.56572 0.72526 0.06257 0.0
H631 H 0.53368 0.72622 0.1152 0.0
H632 H 0.49239 0.56824 0.99819 0.0
H633 H 0.50913 0.5903 0.10979 0.0
H634 H 0.46838 0.72713 0.9922 0.0
H635 H 0.39139 0.66265 0.03797 0.0
H636 H 0.59759 0.22561 0.46069 0.0
H637 H 0.57953 0.14278 0.43441 0.0
H638 H 0.58848 0.1353 0.49671 0.0
H639 H 0.60178 0.15229 0.55898 0.0
H640 H 0.62238 0.23586 0.58536 0.0
H641 H 0.61144 0.24286 0.52361 0.0
C642 C 0.59585 0.20604 0.46867 0.0
C643 C 0.58831 0.1849 0.44272 0.0
C644 C 0.60121 0.20193 0.50481 0.0
C645 C 0.58572 0.1595 0.45363 0.0
C646 C 0.59069 0.15517 0.48935 0.0
C647 C 0.60405 0.17211 0.55115 0.0
C648 C 0.61342 0.19373 0.57678 0.0
C649 C 0.59851 0.17622 0.51522 0.0
C650 C 0.61544 0.21897 0.56626 0.0
C651 C 0.60933 0.22301 0.53081 0.0
H652 H 0.38591 0.59734 0.79449 0.0
H653 H 0.45027 0.57857 0.76794 0.0
H654 H 0.46796 0.58892 0.82968 0.0
H655 H 0.46488 0.60275 0.89192 0.0
H656 H 0.4018 0.62332 0.91852 0.0
H657 H 0.38359 0.61242 0.85692 0.0
C658 C 0.40395 0.59578 0.80226 0.0
C659 C 0.417 0.58754 0.77643 0.0
C660 C 0.41413 0.60192 0.83808 0.0
C661 C 0.44011 0.58523 0.78709 0.0
C662 C 0.45015 0.59103 0.82249 0.0
C663 C 0.44742 0.60528 0.88409 0.0
C664 C 0.43511 0.61446 0.90983 0.0
C665 C 0.43737 0.5994 0.8483 0.0
C666 C 0.41187 0.61661 0.89932 0.0
C667 C 0.40148 0.61041 0.86399 0.0
H668 H 0.80042 0.42879 0.22466 0.0
H669 H 0.88414 0.44809 0.25017 0.0
H670 H 0.89155 0.4396 0.1877 0.0
H671 H 0.87408 0.42592 0.12557 0.0
H672 H 0.78985 0.40471 0.09984 0.0
H673 H 0.78294 0.41525 0.16175 0.0
C674 C 0.82021 0.43101 0.21644 0.0
C675 C 0.84162 0.43873 0.24224 0.0
C676 C 0.82428 0.42593 0.1802 0.0
C677 C 0.86726 0.44185 0.23104 0.0
C678 C 0.87152 0.43709 0.19523 0.0
C679 C 0.85417 0.4235 0.13358 0.0
C680 C 0.83232 0.41405 0.10809 0.0
C681 C 0.85018 0.42899 0.16955 0.0
C682 C 0.80692 0.41172 0.11883 0.0
C683 C 0.80294 0.41764 0.15436 0.0
H684 H 0.42714 0.79526 0.45651 0.0
H685 H 0.44125 0.87673 0.43008 0.0
H686 H 0.42987 0.88278 0.49177 0.0
H687 H 0.41675 0.86534 0.55408 0.0
H688 H 0.4012 0.78334 0.58052 0.0
H689 H 0.41258 0.77719 0.5188 0.0
C690 C 0.42745 0.81419 0.46428 0.0
C691 C 0.43468 0.83538 0.43848 0.0
C692 C 0.42075 0.81749 0.50006 0.0
C693 C 0.43538 0.85997 0.44917 0.0
C694 C 0.42898 0.86347 0.48455 0.0
C695 C 0.41537 0.84592 0.54618 0.0
C696 C 0.40753 0.82458 0.57196 0.0
C697 C 0.42165 0.84242 0.51033 0.0
C698 C 0.40683 0.79997 0.5613 0.0
C699 C 0.41335 0.79646 0.52592 0.0
H700 H 0.60068 0.38179 0.89157 0.0
H701 H 0.58682 0.44923 0.91815 0.0
H702 H 0.59683 0.46599 0.85604 0.0
H703 H 0.60874 0.4611 0.79336 0.0
H704 H 0.62419 0.3947 0.76673 0.0
H705 H 0.61394 0.37768 0.82881 0.0
C706 C 0.60015 0.40031 0.88374 0.0
C707 C 0.59343 0.4145 0.90974 0.0
C708 C 0.60604 0.40992 0.84769 0.0
C709 C 0.59238 0.4382 0.89894 0.0
C710 C 0.59797 0.44771 0.86331 0.0
C711 C 0.61035 0.44319 0.80128 0.0
C712 C 0.61787 0.42958 0.77534 0.0
C713 C 0.60481 0.43376 0.83735 0.0
C714 C 0.61879 0.40578 0.78604 0.0
C715 C 0.61295 0.39606 0.82165 0.0
H716 H 0.16021 0.56224 0.2236 0.0
H717 H 0.2441 0.62556 0.25073 0.0
H718 H 0.25132 0.64391 0.18927 0.0
H719 H 0.23388 0.64153 0.12672 0.0
H720 H 0.15034 0.57727 0.09979 0.0
H721 H 0.14302 0.55952 0.16144 0.0
C722 C 0.1802 0.57984 0.21593 0.0
C723 C 0.2018 0.59215 0.24176 0.0
C724 C 0.1843 0.59006 0.18025 0.0
C725 C 0.22724 0.61549 0.23145 0.0
C726 C 0.23137 0.62597 0.1962 0.0
C727 C 0.21416 0.62356 0.13442 0.0
C728 C 0.19276 0.61053 0.10847 0.0
C729 C 0.21013 0.61336 0.17019 0.0
C730 C 0.16721 0.58746 0.11903 0.0
C731 C 0.16301 0.57736 0.15438 0.0
H732 H 0.69754 0.39416 0.3967 0.0
H733 H 0.71433 0.41059 0.28381 0.0
H734 H 0.66773 0.37186 0.26938 0.0
H735 H 0.62816 0.32695 0.289 0.0
H736 H 0.61278 0.30911 0.40187 0.0
H737 H 0.65231 0.35507 0.41651 0.0
C738 C 0.69039 0.38992 0.36906 0.0
C739 C 0.70918 0.40483 0.34127 0.0
C740 C 0.664 0.36707 0.36107 0.0
C741 C 0.70004 0.39935 0.30552 0.0
C742 C 0.67356 0.377 0.29731 0.0
C743 C 0.63281 0.33373 0.31673 0.0
C744 C 0.61797 0.31478 0.34439 0.0
C745 C 0.65615 0.35973 0.32481 0.0
C746 C 0.62396 0.3235 0.38025 0.0
C747 C 0.64678 0.34961 0.38857 0.0
H748 H 0.3141 0.69278 0.73252 0.0
H749 H 0.31222 0.70883 0.61973 0.0
H750 H 0.30491 0.66271 0.60523 0.0
H751 H 0.31129 0.62386 0.62441 0.0
H752 H 0.31576 0.60912 0.73709 0.0
H753 H 0.309 0.64815 0.75219 0.0
C754 C 0.31085 0.68558 0.70491 0.0
C755 C 0.31396 0.70404 0.67714 0.0
C756 C 0.30761 0.65946 0.69685 0.0
C757 C 0.30979 0.6948 0.64144 0.0
C758 C 0.30597 0.66859 0.63317 0.0
C759 C 0.30956 0.62856 0.65223 0.0
C760 C 0.31432 0.61405 0.67967 0.0
C761 C 0.30663 0.65156 0.66056 0.0
C762 C 0.31206 0.62006 0.71564 0.0
C763 C 0.30856 0.64258 0.72422 0.0
H764 H 0.62303 0.31035 0.96355 0.0
H765 H 0.62138 0.30753 0.079 0.0
H766 H 0.66146 0.30038 0.07975 0.0
H767 H 0.70385 0.30828 0.04803 0.0
H768 H 0.70707 0.31446 0.93272 0.0
H769 H 0.65937 0.30614 0.93106 0.0
C770 C 0.6306 0.30666 0.98866 0.0
C771 C 0.61961 0.30962 0.02114 0.0
C772 C 0.65443 0.30383 0.98884 0.0
C773 C 0.62966 0.30524 0.05371 0.0
C774 C 0.65279 0.30153 0.05413 0.0
C775 C 0.69352 0.30641 0.02256 0.0
C776 C 0.70885 0.31229 0.99061 0.0
C777 C 0.66647 0.30274 0.02197 0.0
C778 C 0.69552 0.31011 0.95764 0.0
C779 C 0.66837 0.30563 0.95672 0.0
H780 H 0.4012 0.69383 0.28959 0.0
H781 H 0.41677 0.71299 0.4022 0.0
H782 H 0.3784 0.66656 0.41751 0.0
H783 H 0.33376 0.62632 0.39826 0.0
H784 H 0.31654 0.6087 0.28556 0.0
H785 H 0.36251 0.64814 0.27064 0.0
C786 C 0.39684 0.68728 0.31743 0.0
C787 C 0.41136 0.7067 0.3448 0.0
C788 C 0.37414 0.66099 0.32589 0.0
C789 C 0.40581 0.69826 0.38079 0.0
C790 C 0.38366 0.67186 0.3895 0.0
C791 C 0.34069 0.6305 0.37054 0.0
C792 C 0.32186 0.61505 0.34296 0.0
C793 C 0.36664 0.65382 0.36225 0.0
C794 C 0.3308 0.62037 0.30714 0.0
C795 C 0.35692 0.64314 0.29864 0.0
H796 H 0.71843 0.40204 0.71211 0.0
H797 H 0.71093 0.39801 0.59697 0.0
H798 H 0.71929 0.35883 0.59567 0.0
H799 H 0.71568 0.31875 0.62873 0.0
H800 H 0.71971 0.32104 0.74417 0.0
H801 H 0.72666 0.36807 0.74419 0.0
C802 C 0.72007 0.39341 0.68673 0.0
C803 C 0.71392 0.40255 0.65473 0.0
C804 C 0.72371 0.37015 0.6864 0.0
C805 C 0.71565 0.39113 0.62188 0.0
C806 C 0.72011 0.36855 0.6212 0.0
C807 C 0.71954 0.3302 0.65366 0.0
C808 C 0.71703 0.31661 0.68637 0.0
C809 C 0.72228 0.35676 0.65346 0.0
C810 C 0.72163 0.33131 0.7187 0.0
C811 C 0.72526 0.35804 0.71871 0.0
H812 H 0.3346 0.71199 0.95175 0.0
H813 H 0.31755 0.71338 0.06424 0.0
H814 H 0.36399 0.7213 0.07948 0.0
H815 H 0.40332 0.71533 0.06107 0.0
H816 H 0.41889 0.711 0.94872 0.0
H817 H 0.37973 0.7176 0.93284 0.0
C818 C 0.34163 0.71522 0.97946 0.0
C819 C 0.32279 0.71175 1.00693 0.0
C820 C 0.36792 0.71879 0.98795 0.0
C821 C 0.33184 0.71601 0.04275 0.0
C822 C 0.35825 0.7202 0.05145 0.0
C823 C 0.3988 0.7171 0.03315 0.0
C824 C 0.41353 0.71237 1.00603 0.0
C825 C 0.37565 0.71982 0.02438 0.0
C826 C 0.40776 0.71466 0.96993 0.0
C827 C 0.38515 0.71805 0.9609 0.0
H828 H 0.54659 0.06068 0.25508 0.0
H829 H 0.48287 0.04809 0.3314 0.0
H830 H 0.46756 0.99859 0.33473 0.0
H831 H 0.47322 0.95891 0.31864 0.0
H832 H 0.53789 0.9706 0.24435 0.0
H833 H 0.55122 0.01955 0.23716 0.0
C834 C 0.52904 0.04699 0.27193 0.0
C835 C 0.51582 0.0584 0.29282 0.0
C836 C 0.52051 0.01813 0.27433 0.0
C837 C 0.49342 0.04014 0.31493 0.0
C838 C 0.48468 0.01171 0.31696 0.0
C839 C 0.49043 0.97203 0.301 0.0
C840 C 0.50458 0.96047 0.28244 0.0
C841 C 0.49831 1.00048 0.29732 0.0
C842 C 0.52629 0.97828 0.25899 0.0
C843 C 0.53411 1.00657 0.255 0.0
H844 H 0.49532 0.53982 0.58973 0.0
H845 H 0.44603 0.48003 0.6711 0.0
H846 H 0.48036 0.46488 0.67526 0.0
H847 H 0.52542 0.46969 0.65828 0.0
H848 H 0.57644 0.53042 0.57859 0.0
H849 H 0.54063 0.54351 0.57101 0.0
C850 C 0.49188 0.52314 0.60787 0.0
C851 C 0.46776 0.51101 0.62994 0.0
C852 C 0.51229 0.51473 0.61071 0.0
C853 C 0.46414 0.48973 0.65371 0.0
C854 C 0.48392 0.48109 0.65622 0.0
C855 C 0.52903 0.48598 0.63936 0.0
C856 C 0.55421 0.49907 0.61935 0.0
C857 C 0.50833 0.49371 0.63536 0.0
C858 C 0.55753 0.51963 0.59436 0.0
C859 C 0.53696 0.52731 0.59011 0.0
H860 H 0.96524 0.49896 0.99091 0.0
H861 H 0.97649 0.44462 0.91899 0.0
H862 H 0.02541 0.48055 0.91041 0.0
H863 H 0.06663 0.52707 0.92626 0.0
H864 H 0.05476 0.57972 1.00027 0.0
H865 H 1.00516 0.54508 1.00511 0.0
C866 C 0.97827 0.49465 0.97353 0.0
C867 C 0.9666 0.46851 0.95598 0.0
C868 C 1.00672 0.51543 0.96899 0.0
C869 C 0.98427 0.46427 0.93283 0.0
C870 C 1.01254 0.48491 0.92802 0.0
C871 C 0.05305 0.53114 0.9429 0.0
C872 C 0.06465 0.55633 0.96265 0.0
C873 C 0.0242 0.51057 0.94622 0.0
C874 C 0.04661 0.56079 0.9846 0.0
C875 C 0.01814 0.54084 0.98753 0.0
H876 H 0.05013 0.49696 0.42801 0.0
H877 H 0.07742 0.55938 0.34478 0.0
H878 H 0.03113 0.55361 0.34147 0.0
H879 H 0.98178 0.52976 0.35949 0.0
H880 H 0.9536 0.46957 0.44505 0.0
H881 H 1.0007 0.47595 0.45045 0.0
C882 C 0.0461 0.50953 0.40941 0.0
C883 C 0.06767 0.52797 0.38581 0.0
C884 C 0.0189 0.50654 0.40794 0.0
C885 C 0.0615 0.54417 0.36236 0.0
C886 C 0.03484 0.5411 0.36058 0.0
C887 C 0.98589 0.51809 0.37952 0.0
C888 C 0.96377 0.49903 0.40164 0.0
C889 C 1.01319 0.52205 0.38269 0.0
C890 C 0.96997 0.48451 0.42771 0.0
C891 C 0.99703 0.48805 0.43066 0.0
H892 H 0.56803 0.04347 0.68349 0.0
H893 H 0.54173 0.07055 0.7761 0.0
H894 H 0.50084 0.0237 0.78274 0.0
H895 H 0.47059 0.97483 0.75975 0.0
H896 H 0.50043 0.94845 0.66947 0.0
H897 H 0.54102 0.99453 0.66461 0.0
C898 C 0.55348 0.03915 0.70532 0.0
C899 C 0.55815 0.06088 0.72909 0.0
C900 C 0.53008 0.01198 0.70923 0.0
C901 C 0.539 0.05445 0.75743 0.0
C902 C 0.5154 0.02755 0.76111 0.0
C903 C 0.48605 0.97901 0.73923 0.0
C904 C 0.48129 0.95777 0.7142 0.0
C905 C 0.5104 1.00605 0.73687 0.0
C906 C 0.50227 0.96412 0.68827 0.0
C907 C 0.52594 0.99066 0.68558 0.0
H908 H 0.48327 0.52797 0.09599 0.0
H909 H 0.54482 0.57837 0.01687 0.0
H910 H 0.55997 0.54413 0.01263 0.0
H911 H 0.55471 0.49892 0.02882 0.0
H912 H 0.49214 0.44669 0.10603 0.0
H913 H 0.47906 0.48239 0.11392 0.0
C914 C 0.50032 0.53166 0.07833 0.0
C915 C 0.51298 0.55609 0.05693 0.0
C916 C 0.50873 0.5113 0.07541 0.0
C917 C 0.53473 0.56003 0.03376 0.0
C918 C 0.54337 0.54031 0.0312 0.0
C919 C 0.538 0.49501 0.04725 0.0
C920 C 0.52438 0.46951 0.06644 0.0
C921 C 0.53026 0.51562 0.05138 0.0
C922 C 0.50333 0.46583 0.09088 0.0
C923 C 0.49565 0.48634 0.09529 0.0
H924 H 0.55793 0.23222 0.1666 0.0
H925 H 0.55735 0.26715 0.26943 0.0
H926 H 0.55929 0.30748 0.23992 0.0
H927 H 0.55911 0.33258 0.18426 0.0
H928 H 0.55789 0.2967 0.0815 0.0
H929 H 0.55887 0.25787 0.11099 0.0
C930 C 0.55875 0.24888 0.1826 0.0
C931 C 0.558 0.24657 0.22057 0.0
C932 C 0.55942 0.27215 0.16517 0.0
C933 C 0.55819 0.26824 0.2404 0.0
C934 C 0.55923 0.29142 0.22341 0.0
C935 C 0.55963 0.31659 0.16827 0.0
C936 C 0.55908 0.31825 0.13027 0.0
C937 C 0.55965 0.29366 0.18572 0.0
C938 C 0.55874 0.29649 0.1105 0.0
C939 C 0.55918 0.27405 0.1275 0.0
H940 H 0.23565 0.55238 0.5181 0.0
H941 H 0.27099 0.55125 0.41574 0.0
H942 H 0.31079 0.55214 0.44579 0.0
H943 H 0.33535 0.55136 0.50171 0.0
H944 H 0.29949 0.55133 0.60414 0.0
H945 H 0.26087 0.55282 0.57409 0.0
C946 C 0.2523 0.55289 0.50231 0.0
C947 C 0.25025 0.55229 0.46429 0.0
C948 C 0.27529 0.55299 0.52006 0.0
C949 C 0.27187 0.552 0.44477 0.0
C950 C 0.29475 0.55243 0.46208 0.0
C951 C 0.31941 0.55222 0.51752 0.0
C952 C 0.32093 0.55174 0.55553 0.0
C953 C 0.29674 0.55274 0.49979 0.0
C954 C 0.29927 0.55192 0.57508 0.0
C955 C 0.27701 0.55273 0.55778 0.0
H956 H 0.79708 0.29283 0.87019 0.0
H957 H 0.75921 0.34325 0.88641 0.0
H958 H 0.72177 0.31307 0.84473 0.0
H959 H 0.69896 0.27053 0.80379 0.0
H960 H 0.72527 0.21022 0.81777 0.0
H961 H 0.76632 0.24403 0.85071 0.0
C962 C 0.77961 0.29617 0.86883 0.0
C963 C 0.78134 0.3203 0.88432 0.0
C964 C 0.75583 0.27656 0.84906 0.0
C965 C 0.75938 0.32533 0.87537 0.0
C966 C 0.73747 0.3077 0.85169 0.0
C967 C 0.71342 0.26454 0.81437 0.0
C968 C 0.71055 0.23855 0.80384 0.0
C969 C 0.7353 0.28296 0.8383 0.0
C970 C 0.72862 0.23103 0.82068 0.0
C971 C 0.75188 0.25024 0.84067 0.0
H972 H 0.47325 0.68937 0.18503 0.0
H973 H 0.47508 0.72508 0.08177 0.0
H974 H 0.47366 0.76385 0.1108 0.0
H975 H 0.47356 0.78921 0.16611 0.0
H976 H 0.47295 0.75417 0.26944 0.0
H977 H 0.47215 0.71427 0.24037 0.0
C978 C 0.47282 0.70534 0.16881 0.0
C979 C 0.47377 0.7037 0.13085 0.0
C980 C 0.47239 0.72814 0.18598 0.0
C981 C 0.47411 0.72538 0.11078 0.0
C982 C 0.47335 0.74773 0.1275 0.0
C983 C 0.47275 0.77263 0.18231 0.0
C984 C 0.47282 0.77479 0.22029 0.0
C985 C 0.47265 0.74957 0.16516 0.0
C986 C 0.47267 0.75323 0.24039 0.0
C987 C 0.47226 0.73028 0.22365 0.0
H988 H 0.72766 0.46224 0.58138 0.0
H989 H 0.67627 0.46392 0.49568 0.0
H990 H 0.70871 0.46363 0.45127 0.0
H991 H 0.75276 0.46382 0.43601 0.0
H992 H 0.80487 0.46359 0.52175 0.0
H993 H 0.77165 0.46234 0.56613 0.0
C994 C 0.72345 0.46234 0.55296 0.0
C995 C 0.69888 0.46239 0.54219 0.0
C996 C 0.7426 0.46245 0.52725 0.0
C997 C 0.6943 0.46301 0.50508 0.0
C998 C 0.71312 0.46311 0.47952 0.0
C999 C 0.75676 0.46332 0.46442 0.0
C1000 C 0.78125 0.4631 0.47519 0.0
C1001 C 0.73744 0.46287 0.49014 0.0
C1002 C 0.78604 0.46293 0.51233 0.0
C1003 C 0.76704 0.46247 0.53788 0.0
H1004 H 0.27641 0.72812 0.91443 0.0
H1005 H 0.22164 0.67667 0.82997 0.0
H1006 H 0.25403 0.70864 0.78481 0.0
H1007 H 0.29834 0.75201 0.76845 0.0
H1008 H 0.35214 0.80451 0.85293 0.0
H1009 H 0.32036 0.77193 0.89806 0.0
C1010 C 0.27161 0.72382 0.88612 0.0
C1011 C 0.24665 0.69928 0.87595 0.0
C1012 C 0.29047 0.74273 0.85992 0.0
C1013 C 0.24085 0.69465 0.83894 0.0
C1014 C 0.25939 0.7132 0.81294 0.0
C1015 C 0.30321 0.75626 0.79675 0.0
C1016 C 0.32839 0.7806 0.80687 0.0
C1017 C 0.28438 0.73735 0.82295 0.0
C1018 C 0.33373 0.78572 0.84391 0.0
C1019 C 0.31526 0.76709 0.86992 0.0
loop_
_geom_bond_atom_site_label_1
_geom_bond_atom_site_label_2
_geom_bond_distance
_geom_bond_site_symmetry_2
_ccdc_geom_bond_type
C0 C1 1.443 . S
C0 N4 1.376 . S
C0 C38 1.389 . S
C1 C0 1.443 . S
C1 C2 1.340 . S
C1 H41 0.951 . S
C2 C1 1.340 . S
C2 C3 1.439 . S
C2 H42 0.950 . S
C3 C2 1.439 . S
C3 N4 1.374 . S
C3 C37 1.395 . S
N4 C0 1.376 . S
N4 C3 1.374 . S
N4 Co5 2.008 . S
Co5 N4 2.008 . S
Co5 N6 1.995 . S
Co5 N11 2.008 . S
Co5 N16 1.995 . S
Co5 N21 2.282 . S
Co5 N27 2.282 . S
N6 Co5 1.995 . S
N6 C7 1.376 . S
N6 C10 1.383 . S
C7 N6 1.376 . S
C7 C8 1.446 . S
C7 C37 1.391 . S
C8 C7 1.446 . S
C8 C9 1.339 . S
C8 H43 0.949 . S
C9 C8 1.339 . S
C9 C10 1.439 . S
C9 H44 0.950 . S
C10 N6 1.383 . S
C10 C9 1.439 . S
C10 C39 1.392 . S
N11 Co5 2.008 . S
N11 C12 1.376 . S
N11 C15 1.374 . S
C12 N11 1.376 . S
C12 C13 1.443 . S
C12 C39 1.389 . S
C13 C12 1.443 . S
C13 C14 1.340 . S
C13 H45 0.951 . S
C14 C13 1.340 . S
C14 C15 1.439 . S
C14 H46 0.950 . S
C15 N11 1.374 . S
C15 C14 1.439 . S
C15 C40 1.395 . S
N16 Co5 1.995 . S
N16 C17 1.376 . S
N16 C20 1.383 . S
C17 N16 1.376 . S
C17 C18 1.446 . S
C17 C40 1.391 . S
C18 C17 1.446 . S
C18 C19 1.339 . S
C18 H47 0.949 . S
C19 C18 1.339 . S
C19 C20 1.439 . S
C19 H48 0.950 . S
C20 N16 1.383 . S
C20 C19 1.439 . S
C20 C38 1.392 . S
N21 Co5 2.282 . S
N21 C24 1.332 . S
N21 C26 1.332 . S
C22 C23 1.386 . S
C22 C25 1.388 . S
C23 C22 1.386 . S
C23 C24 1.382 . S
C23 H49 0.950 . S
C24 N21 1.332 . S
C24 C23 1.382 . S
C24 H35 0.952 . S
C25 C22 1.388 . S
C25 C26 1.382 . S
C25 H50 0.950 . S
C26 N21 1.332 . S
C26 C25 1.382 . S
C26 H36 0.948 . S
N27 Co5 2.282 . S
N27 C31 1.332 . S
N27 C32 1.332 . S
C28 C29 1.388 . S
C28 C32 1.382 . S
C28 H51 0.950 . S
C29 C28 1.388 . S
C29 C30 1.386 . S
C30 C29 1.386 . S
C30 C31 1.382 . S
C30 H52 0.950 . S
C31 N27 1.332 . S
C31 C30 1.382 . S
C31 H33 0.952 . S
C32 N27 1.332 . S
C32 C28 1.382 . S
C32 H34 0.948 . S
H33 C31 0.952 . S
H34 C32 0.948 . S
H35 C24 0.952 . S
H36 C26 0.948 . S
C37 C3 1.395 . S
C37 C7 1.391 . S
C38 C0 1.389 . S
C38 C20 1.392 . S
C39 C10 1.392 . S
C39 C12 1.389 . S
C40 C15 1.395 . S
C40 C17 1.391 . S
H41 C1 0.951 . S
H42 C2 0.950 . S
H43 C8 0.949 . S
H44 C9 0.950 . S
H45 C13 0.951 . S
H46 C14 0.950 . S
H47 C18 0.949 . S
H48 C19 0.950 . S
H49 C23 0.950 . S
H50 C25 0.950 . S
H51 C28 0.950 . S
H52 C30 0.950 . S
C53 C54 1.443 . S
C53 N57 1.376 . S
C53 C91 1.389 . S
C54 C53 1.443 . S
C54 C55 1.340 . S
C54 H94 0.951 . S
C55 C54 1.340 . S
C55 C56 1.439 . S
C55 H95 0.950 . S
C56 C55 1.439 . S
C56 N57 1.374 . S
C56 C90 1.395 . S
N57 C53 1.376 . S
N57 C56 1.374 . S
N57 Co58 2.008 . S
Co58 N57 2.008 . S
Co58 N59 1.995 . S
Co58 N64 2.008 . S
Co58 N69 1.995 . S
Co58 N74 2.282 . S
Co58 N80 2.282 . S
N59 Co58 1.995 . S
N59 C60 1.376 . S
N59 C63 1.383 . S
C60 N59 1.376 . S
C60 C61 1.446 . S
C60 C90 1.391 . S
C61 C60 1.446 . S
C61 C62 1.339 . S
C61 H96 0.949 . S
C62 C61 1.339 . S
C62 C63 1.439 . S
C62 H97 0.950 . S
C63 N59 1.383 . S
C63 C62 1.439 . S
C63 C92 1.392 . S
N64 Co58 2.008 . S
N64 C65 1.376 . S
N64 C68 1.374 . S
C65 N64 1.376 . S
C65 C66 1.443 . S
C65 C92 1.389 . S
C66 C65 1.443 . S
C66 C67 1.340 . S
C66 H98 0.951 . S
C67 C66 1.340 . S
C67 C68 1.439 . S
C67 H99 0.950 . S
C68 N64 1.374 . S
C68 C67 1.439 . S
C68 C93 1.395 . S
N69 Co58 1.995 . S
N69 C70 1.376 . S
N69 C73 1.383 . S
C70 N69 1.376 . S
C70 C71 1.446 . S
C70 C93 1.391 . S
C71 C70 1.446 . S
C71 C72 1.339 . S
C71 H100 0.949 . S
C72 C71 1.339 . S
C72 C73 1.439 . S
C72 H101 0.950 . S
C73 N69 1.383 . S
C73 C72 1.439 . S
C73 C91 1.392 . S
N74 Co58 2.282 . S
N74 C77 1.332 . S
N74 C79 1.332 . S
C75 C76 1.386 . S
C75 C78 1.388 . S
C76 C75 1.386 . S
C76 C77 1.382 . S
C76 H102 0.950 . S
C77 N74 1.332 . S
C77 C76 1.382 . S
C77 H88 0.952 . S
C78 C75 1.388 . S
C78 C79 1.382 . S
C78 H103 0.950 . S
C79 N74 1.332 . S
C79 C78 1.382 . S
C79 H89 0.948 . S
N80 Co58 2.282 . S
N80 C84 1.332 . S
N80 C85 1.332 . S
C81 C82 1.388 . S
C81 C85 1.382 . S
C81 H104 0.950 . S
C82 C81 1.388 . S
C82 C83 1.386 . S
C83 C82 1.386 . S
C83 C84 1.382 . S
C83 H105 0.950 . S
C84 N80 1.332 . S
C84 C83 1.382 . S
C84 H86 0.952 . S
C85 N80 1.332 . S
C85 C81 1.382 . S
C85 H87 0.948 . S
H86 C84 0.952 . S
H87 C85 0.948 . S
H88 C77 0.952 . S
H89 C79 0.948 . S
C90 C56 1.395 . S
C90 C60 1.391 . S
C91 C53 1.389 . S
C91 C73 1.392 . S
C92 C63 1.392 . S
C92 C65 1.389 . S
C93 C68 1.395 . S
C93 C70 1.391 . S
H94 C54 0.951 . S
H95 C55 0.950 . S
H96 C61 0.949 . S
H97 C62 0.950 . S
H98 C66 0.951 . S
H99 C67 0.950 . S
H100 C71 0.949 . S
H101 C72 0.950 . S
H102 C76 0.950 . S
H103 C78 0.950 . S
H104 C81 0.950 . S
H105 C83 0.950 . S
C106 C107 1.443 . S
C106 N110 1.376 . S
C106 C144 1.389 . S
C107 C106 1.443 . S
C107 C108 1.340 . S
C107 H147 0.951 . S
C108 C107 1.340 . S
C108 C109 1.439 . S
C108 H148 0.950 . S
C109 C108 1.439 . S
C109 N110 1.374 . S
C109 C143 1.395 . S
N110 C106 1.376 . S
N110 C109 1.374 . S
N110 Co111 2.008 . S
Co111 N110 2.008 . S
Co111 N112 1.995 1_556 S
Co111 N117 2.008 1_556 S
Co111 N122 1.995 . S
Co111 N127 2.282 . S
Co111 N133 2.282 1_556 S
N112 Co111 1.995 1_554 S
N112 C113 1.373 1_554 S
N112 C116 1.383 . S
C113 N112 1.373 1_556 S
C113 C114 1.442 1_556 S
C113 C143 1.397 . S
C114 C113 1.442 1_554 S
C114 C115 1.339 . S
C114 H149 0.949 . S
C115 C114 1.339 . S
C115 C116 1.439 . S
C115 H150 0.950 . S
C116 N112 1.383 . S
C116 C115 1.439 . S
C116 C145 1.392 . S
N117 Co111 2.008 1_554 S
N117 C118 1.376 . S
N117 C121 1.374 . S
C118 N117 1.376 . S
C118 C119 1.443 . S
C118 C145 1.389 . S
C119 C118 1.443 . S
C119 C120 1.340 . S
C119 H151 0.951 . S
C120 C119 1.340 . S
C120 C121 1.439 . S
C120 H152 0.950 . S
C121 N117 1.374 . S
C121 C120 1.439 . S
C121 C146 1.395 . S
N122 Co111 1.995 . S
N122 C123 1.377 1_556 S
N122 C126 1.383 . S
C123 N122 1.377 1_554 S
C123 C124 1.447 1_554 S
C123 C146 1.390 . S
C124 C123 1.447 1_556 S
C124 C125 1.339 . S
C124 H153 0.949 . S
C125 C124 1.339 . S
C125 C126 1.439 . S
C125 H154 0.950 . S
C126 N122 1.383 . S
C126 C125 1.439 . S
C126 C144 1.392 . S
N127 Co111 2.282 . S
N127 C130 1.332 1_556 S
N127 C132 1.332 . S
C128 C129 1.386 . S
C128 C131 1.388 1_554 S
C129 C128 1.386 . S
C129 C130 1.382 . S
C129 H155 0.950 . S
C130 N127 1.332 1_554 S
C130 C129 1.382 . S
C130 H141 0.952 . S
C131 C128 1.388 1_556 S
C131 C132 1.382 . S
C131 H156 0.950 . S
C132 N127 1.332 . S
C132 C131 1.382 . S
C132 H142 0.948 . S
N133 Co111 2.282 1_554 S
N133 C137 1.332 1_554 S
N133 C138 1.332 . S
C134 C135 1.388 1_554 S
C134 C138 1.382 . S
C134 H157 0.950 . S
C135 C134 1.388 1_556 S
C135 C136 1.386 . S
C136 C135 1.386 . S
C136 C137 1.382 . S
C136 H158 0.950 . S
C137 N133 1.332 1_556 S
C137 C136 1.382 . S
C137 H139 0.952 . S
C138 N133 1.332 . S
C138 C134 1.382 . S
C138 H140 0.948 . S
H139 C137 0.952 . S
H140 C138 0.948 . S
H141 C130 0.952 . S
H142 C132 0.948 . S
C143 C109 1.395 . S
C143 C113 1.397 . S
C144 C106 1.389 . S
C144 C126 1.392 . S
C145 C116 1.392 . S
C145 C118 1.389 . S
C146 C121 1.395 . S
C146 C123 1.390 . S
H147 C107 0.951 . S
H148 C108 0.950 . S
H149 C114 0.949 . S
H150 C115 0.950 . S
H151 C119 0.951 . S
H152 C120 0.950 . S
H153 C124 0.949 . S
H154 C125 0.950 . S
H155 C129 0.950 . S
H156 C131 0.950 . S
H157 C134 0.950 . S
H158 C136 0.950 . S
C159 C160 1.443 . S
C159 N163 1.376 . S
C159 C197 1.389 . S
C160 C159 1.443 . S
C160 C161 1.340 . S
C160 H200 0.951 . S
C161 C160 1.340 . S
C161 C162 1.439 . S
C161 H201 0.950 . S
C162 C161 1.439 . S
C162 N163 1.374 . S
C162 C196 1.395 . S
N163 C159 1.376 . S
N163 C162 1.374 . S
N163 Co164 2.008 . S
Co164 N163 2.008 . S
Co164 N165 1.995 . S
Co164 N170 2.008 . S
Co164 N175 1.995 . S
Co164 N180 2.282 . S
Co164 N186 2.282 . S
N165 Co164 1.995 . S
N165 C166 1.376 . S
N165 C169 1.383 . S
C166 N165 1.376 . S
C166 C167 1.446 . S
C166 C196 1.391 . S
C167 C166 1.446 . S
C167 C168 1.339 . S
C167 H202 0.949 . S
C168 C167 1.339 . S
C168 C169 1.439 . S
C168 H203 0.950 . S
C169 N165 1.383 . S
C169 C168 1.439 . S
C169 C198 1.392 . S
N170 Co164 2.008 . S
N170 C171 1.376 . S
N170 C174 1.374 . S
C171 N170 1.376 . S
C171 C172 1.443 . S
C171 C198 1.389 . S
C172 C171 1.443 . S
C172 C173 1.340 . S
C172 H204 0.951 . S
C173 C172 1.340 . S
C173 C174 1.439 . S
C173 H205 0.950 . S
C174 N170 1.374 . S
C174 C173 1.439 . S
C174 C199 1.395 . S
N175 Co164 1.995 . S
N175 C176 1.376 . S
N175 C179 1.383 . S
C176 N175 1.376 . S
C176 C177 1.446 . S
C176 C199 1.391 . S
C177 C176 1.446 . S
C177 C178 1.339 . S
C177 H206 0.949 . S
C178 C177 1.339 . S
C178 C179 1.439 . S
C178 H207 0.950 . S
C179 N175 1.383 . S
C179 C178 1.439 . S
C179 C197 1.392 . S
N180 Co164 2.282 . S
N180 C183 1.332 . S
N180 C185 1.332 . S
C181 C182 1.386 . S
C181 C184 1.388 . S
C182 C181 1.386 . S
C182 C183 1.382 . S
C182 H208 0.950 . S
C183 N180 1.332 . S
C183 C182 1.382 . S
C183 H194 0.952 . S
C184 C181 1.388 . S
C184 C185 1.382 . S
C184 H209 0.950 . S
C185 N180 1.332 . S
C185 C184 1.382 . S
C185 H195 0.948 . S
N186 Co164 2.282 . S
N186 C190 1.332 . S
N186 C191 1.332 . S
C187 C188 1.388 . S
C187 C191 1.382 . S
C187 H210 0.950 . S
C188 C187 1.388 . S
C188 C189 1.386 . S
C189 C188 1.386 . S
C189 C190 1.382 . S
C189 H211 0.950 . S
C190 N186 1.332 . S
C190 C189 1.382 . S
C190 H192 0.952 . S
C191 N186 1.332 . S
C191 C187 1.382 . S
C191 H193 0.948 . S
H192 C190 0.952 . S
H193 C191 0.948 . S
H194 C183 0.952 . S
H195 C185 0.948 . S
C196 C162 1.395 . S
C196 C166 1.391 . S
C197 C159 1.389 . S
C197 C179 1.392 . S
C198 C169 1.392 . S
C198 C171 1.389 . S
C199 C174 1.395 . S
C199 C176 1.391 . S
H200 C160 0.951 . S
H201 C161 0.950 . S
H202 C167 0.949 . S
H203 C168 0.950 . S
H204 C172 0.951 . S
H205 C173 0.950 . S
H206 C177 0.949 . S
H207 C178 0.950 . S
H208 C182 0.950 . S
H209 C184 0.950 . S
H210 C187 0.950 . S
H211 C189 0.950 . S
C212 C213 1.443 . S
C212 N216 1.376 . S
C212 C250 1.389 . S
C213 C212 1.443 . S
C213 C214 1.340 . S
C213 H253 0.951 . S
C214 C213 1.340 . S
C214 C215 1.439 . S
C214 H254 0.950 . S
C215 C214 1.439 . S
C215 N216 1.374 . S
C215 C249 1.395 . S
N216 C212 1.376 . S
N216 C215 1.374 . S
N216 Co217 2.008 . S
Co217 N216 2.008 . S
Co217 N218 1.995 . S
Co217 N223 2.008 . S
Co217 N228 1.995 . S
Co217 N233 2.282 . S
Co217 N239 2.282 . S
N218 Co217 1.995 . S
N218 C219 1.376 . S
N218 C222 1.383 . S
C219 N218 1.376 . S
C219 C220 1.446 . S
C219 C249 1.391 . S
C220 C219 1.446 . S
C220 C221 1.339 . S
C220 H255 0.949 . S
C221 C220 1.339 . S
C221 C222 1.439 . S
C221 H256 0.950 . S
C222 N218 1.383 . S
C222 C221 1.439 . S
C222 C251 1.392 . S
N223 Co217 2.008 . S
N223 C224 1.376 . S
N223 C227 1.374 . S
C224 N223 1.376 . S
C224 C225 1.443 . S
C224 C251 1.389 . S
C225 C224 1.443 . S
C225 C226 1.340 . S
C225 H257 0.951 . S
C226 C225 1.340 . S
C226 C227 1.439 . S
C226 H258 0.950 . S
C227 N223 1.374 . S
C227 C226 1.439 . S
C227 C252 1.395 . S
N228 Co217 1.995 . S
N228 C229 1.376 . S
N228 C232 1.383 . S
C229 N228 1.376 . S
C229 C230 1.446 . S
C229 C252 1.391 . S
C230 C229 1.446 . S
C230 C231 1.339 . S
C230 H259 0.949 . S
C231 C230 1.339 . S
C231 C232 1.439 . S
C231 H260 0.950 . S
C232 N228 1.383 . S
C232 C231 1.439 . S
C232 C250 1.392 . S
N233 Co217 2.282 . S
N233 C236 1.332 . S
N233 C238 1.332 . S
C234 C235 1.386 . S
C234 C237 1.388 . S
C235 C234 1.386 . S
C235 C236 1.382 . S
C235 H261 0.950 . S
C236 N233 1.332 . S
C236 C235 1.382 . S
C236 H247 0.952 . S
C237 C234 1.388 . S
C237 C238 1.382 . S
C237 H262 0.950 . S
C238 N233 1.332 . S
C238 C237 1.382 . S
C238 H248 0.948 . S
N239 Co217 2.282 . S
N239 C243 1.332 . S
N239 C244 1.332 . S
C240 C241 1.388 . S
C240 C244 1.382 . S
C240 H263 0.950 . S
C241 C240 1.388 . S
C241 C242 1.386 . S
C242 C241 1.386 . S
C242 C243 1.382 . S
C242 H264 0.950 . S
C243 N239 1.332 . S
C243 C242 1.382 . S
C243 H245 0.952 . S
C244 N239 1.332 . S
C244 C240 1.382 . S
C244 H246 0.948 . S
H245 C243 0.952 . S
H246 C244 0.948 . S
H247 C236 0.952 . S
H248 C238 0.948 . S
C249 C215 1.395 . S
C249 C219 1.391 . S
C250 C212 1.389 . S
C250 C232 1.392 . S
C251 C222 1.392 . S
C251 C224 1.389 . S
C252 C227 1.395 . S
C252 C229 1.391 . S
H253 C213 0.951 . S
H254 C214 0.950 . S
H255 C220 0.949 . S
H256 C221 0.950 . S
H257 C225 0.951 . S
H258 C226 0.950 . S
H259 C230 0.949 . S
H260 C231 0.950 . S
H261 C235 0.950 . S
H262 C237 0.950 . S
H263 C240 0.950 . S
H264 C242 0.950 . S
C265 C266 1.443 . S
C265 N269 1.376 . S
C265 C303 1.389 . S
C266 C265 1.443 . S
C266 C267 1.340 . S
C266 H306 0.951 . S
C267 C266 1.340 . S
C267 C268 1.439 . S
C267 H307 0.950 . S
C268 C267 1.439 . S
C268 N269 1.374 . S
C268 C302 1.395 . S
N269 C265 1.376 . S
N269 C268 1.374 . S
N269 Co270 2.008 . S
Co270 N269 2.008 . S
Co270 N271 1.995 1_556 S
Co270 N276 2.008 1_556 S
Co270 N281 1.995 . S
Co270 N286 2.282 . S
Co270 N292 2.282 1_556 S
N271 Co270 1.995 1_554 S
N271 C272 1.373 1_554 S
N271 C275 1.383 . S
C272 N271 1.373 1_556 S
C272 C273 1.442 1_556 S
C272 C302 1.397 . S
C273 C272 1.442 1_554 S
C273 C274 1.339 . S
C273 H308 0.949 . S
C274 C273 1.339 . S
C274 C275 1.439 . S
C274 H309 0.950 . S
C275 N271 1.383 . S
C275 C274 1.439 . S
C275 C304 1.392 . S
N276 Co270 2.008 1_554 S
N276 C277 1.376 . S
N276 C280 1.374 . S
C277 N276 1.376 . S
C277 C278 1.443 . S
C277 C304 1.389 . S
C278 C277 1.443 . S
C278 C279 1.340 . S
C278 H310 0.951 . S
C279 C278 1.340 . S
C279 C280 1.439 . S
C279 H311 0.950 . S
C280 N276 1.374 . S
C280 C279 1.439 . S
C280 C305 1.395 . S
N281 Co270 1.995 . S
N281 C282 1.377 1_556 S
N281 C285 1.383 . S
C282 N281 1.377 1_554 S
C282 C283 1.447 1_554 S
C282 C305 1.390 . S
C283 C282 1.447 1_556 S
C283 C284 1.339 . S
C283 H312 0.949 . S
C284 C283 1.339 . S
C284 C285 1.439 . S
C284 H313 0.950 . S
C285 N281 1.383 . S
C285 C284 1.439 . S
C285 C303 1.392 . S
N286 Co270 2.282 . S
N286 C289 1.332 1_556 S
N286 C291 1.332 . S
C287 C288 1.386 . S
C287 C290 1.388 1_554 S
C288 C287 1.386 . S
C288 C289 1.382 . S
C288 H314 0.950 . S
C289 N286 1.332 1_554 S
C289 C288 1.382 . S
C289 H300 0.952 . S
C290 C287 1.388 1_556 S
C290 C291 1.382 . S
C290 H315 0.950 . S
C291 N286 1.332 . S
C291 C290 1.382 . S
C291 H301 0.948 . S
N292 Co270 2.282 1_554 S
N292 C296 1.332 1_554 S
N292 C297 1.332 . S
C293 C294 1.388 1_554 S
C293 C297 1.382 . S
C293 H316 0.950 . S
C294 C293 1.388 1_556 S
C294 C295 1.386 . S
C295 C294 1.386 . S
C295 C296 1.382 . S
C295 H317 0.950 . S
C296 N292 1.332 1_556 S
C296 C295 1.382 . S
C296 H298 0.952 . S
C297 N292 1.332 . S
C297 C293 1.382 . S
C297 H299 0.948 . S
H298 C296 0.952 . S
H299 C297 0.948 . S
H300 C289 0.952 . S
H301 C291 0.948 . S
C302 C268 1.395 . S
C302 C272 1.397 . S
C303 C265 1.389 . S
C303 C285 1.392 . S
C304 C275 1.392 . S
C304 C277 1.389 . S
C305 C280 1.395 . S
C305 C282 1.390 . S
H306 C266 0.951 . S
H307 C267 0.950 . S
H308 C273 0.949 . S
H309 C274 0.950 . S
H310 C278 0.951 . S
H311 C279 0.950 . S
H312 C283 0.949 . S
H313 C284 0.950 . S
H314 C288 0.950 . S
H315 C290 0.950 . S
H316 C293 0.950 . S
H317 C295 0.950 . S
C318 C319 1.443 . S
C318 N322 1.376 . S
C318 C356 1.389 . S
C319 C318 1.443 . S
C319 C320 1.340 . S
C319 H359 0.951 . S
C320 C319 1.340 . S
C320 C321 1.439 . S
C320 H360 0.950 . S
C321 C320 1.439 . S
C321 N322 1.374 . S
C321 C355 1.395 . S
N322 C318 1.376 . S
N322 C321 1.374 . S
N322 Co323 2.008 . S
Co323 N322 2.008 . S
Co323 N324 1.995 . S
Co323 N329 2.008 . S
Co323 N334 1.995 . S
Co323 N339 2.282 . S
Co323 N345 2.282 . S
N324 Co323 1.995 . S
N324 C325 1.376 . S
N324 C328 1.383 . S
C325 N324 1.376 . S
C325 C326 1.446 . S
C325 C355 1.391 . S
C326 C325 1.446 . S
C326 C327 1.339 . S
C326 H361 0.949 . S
C327 C326 1.339 . S
C327 C328 1.439 . S
C327 H362 0.950 . S
C328 N324 1.383 . S
C328 C327 1.439 . S
C328 C357 1.392 . S
N329 Co323 2.008 . S
N329 C330 1.376 . S
N329 C333 1.374 . S
C330 N329 1.376 . S
C330 C331 1.443 . S
C330 C357 1.389 . S
C331 C330 1.443 . S
C331 C332 1.340 . S
C331 H363 0.951 . S
C332 C331 1.340 . S
C332 C333 1.439 . S
C332 H364 0.950 . S
C333 N329 1.374 . S
C333 C332 1.439 . S
C333 C358 1.395 . S
N334 Co323 1.995 . S
N334 C335 1.376 . S
N334 C338 1.383 . S
C335 N334 1.376 . S
C335 C336 1.446 . S
C335 C358 1.391 . S
C336 C335 1.446 . S
C336 C337 1.339 . S
C336 H365 0.949 . S
C337 C336 1.339 . S
C337 C338 1.439 . S
C337 H366 0.950 . S
C338 N334 1.383 . S
C338 C337 1.439 . S
C338 C356 1.392 . S
N339 Co323 2.282 . S
N339 C342 1.332 . S
N339 C344 1.332 . S
C340 C341 1.386 . S
C340 C343 1.388 . S
C341 C340 1.386 . S
C341 C342 1.382 . S
C341 H367 0.950 . S
C342 N339 1.332 . S
C342 C341 1.382 . S
C342 H353 0.952 . S
C343 C340 1.388 . S
C343 C344 1.382 . S
C343 H368 0.950 . S
C344 N339 1.332 . S
C344 C343 1.382 . S
C344 H354 0.948 . S
N345 Co323 2.282 . S
N345 C349 1.332 . S
N345 C350 1.332 . S
C346 C347 1.388 . S
C346 C350 1.382 . S
C346 H369 0.950 . S
C347 C346 1.388 . S
C347 C348 1.386 . S
C348 C347 1.386 . S
C348 C349 1.382 . S
C348 H370 0.950 . S
C349 N345 1.332 . S
C349 C348 1.382 . S
C349 H351 0.952 . S
C350 N345 1.332 . S
C350 C346 1.382 . S
C350 H352 0.948 . S
H351 C349 0.952 . S
H352 C350 0.948 . S
H353 C342 0.952 . S
H354 C344 0.948 . S
C355 C321 1.395 . S
C355 C325 1.391 . S
C356 C318 1.389 . S
C356 C338 1.392 . S
C357 C328 1.392 . S
C357 C330 1.389 . S
C358 C333 1.395 . S
C358 C335 1.391 . S
H359 C319 0.951 . S
H360 C320 0.950 . S
H361 C326 0.949 . S
H362 C327 0.950 . S
H363 C331 0.951 . S
H364 C332 0.950 . S
H365 C336 0.949 . S
H366 C337 0.950 . S
H367 C341 0.950 . S
H368 C343 0.950 . S
H369 C346 0.950 . S
H370 C348 0.950 . S
C371 C372 1.443 . S
C371 N375 1.376 . S
C371 C409 1.389 . S
C372 C371 1.443 . S
C372 C373 1.340 . S
C372 H412 0.951 . S
C373 C372 1.340 . S
C373 C374 1.439 . S
C373 H413 0.950 . S
C374 C373 1.439 . S
C374 N375 1.374 . S
C374 C408 1.395 . S
N375 C371 1.376 . S
N375 C374 1.374 . S
N375 Co376 2.008 . S
Co376 N375 2.008 . S
Co376 N377 1.995 . S
Co376 N382 2.008 . S
Co376 N387 1.995 . S
Co376 N392 2.282 . S
Co376 N398 2.282 . S
N377 Co376 1.995 . S
N377 C378 1.376 . S
N377 C381 1.383 . S
C378 N377 1.376 . S
C378 C379 1.446 . S
C378 C408 1.391 . S
C379 C378 1.446 . S
C379 C380 1.339 . S
C379 H414 0.949 . S
C380 C379 1.339 . S
C380 C381 1.439 . S
C380 H415 0.950 . S
C381 N377 1.383 . S
C381 C380 1.439 . S
C381 C410 1.392 . S
N382 Co376 2.008 . S
N382 C383 1.376 . S
N382 C386 1.374 . S
C383 N382 1.376 . S
C383 C384 1.443 . S
C383 C410 1.389 . S
C384 C383 1.443 . S
C384 C385 1.340 . S
C384 H416 0.951 . S
C385 C384 1.340 . S
C385 C386 1.439 . S
C385 H417 0.950 . S
C386 N382 1.374 . S
C386 C385 1.439 . S
C386 C411 1.395 . S
N387 Co376 1.995 . S
N387 C388 1.376 . S
N387 C391 1.383 . S
C388 N387 1.376 . S
C388 C389 1.446 . S
C388 C411 1.391 . S
C389 C388 1.446 . S
C389 C390 1.339 . S
C389 H418 0.949 . S
C390 C389 1.339 . S
C390 C391 1.439 . S
C390 H419 0.950 . S
C391 N387 1.383 . S
C391 C390 1.439 . S
C391 C409 1.392 . S
N392 Co376 2.282 . S
N392 C395 1.332 . S
N392 C397 1.332 . S
C393 C394 1.386 . S
C393 C396 1.388 . S
C394 C393 1.386 . S
C394 C395 1.382 . S
C394 H420 0.950 . S
C395 N392 1.332 . S
C395 C394 1.382 . S
C395 H406 0.952 . S
C396 C393 1.388 . S
C396 C397 1.382 . S
C396 H421 0.950 . S
C397 N392 1.332 . S
C397 C396 1.382 . S
C397 H407 0.948 . S
N398 Co376 2.282 . S
N398 C402 1.332 . S
N398 C403 1.332 . S
C399 C400 1.388 . S
C399 C403 1.382 . S
C399 H422 0.950 . S
C400 C399 1.388 . S
C400 C401 1.386 . S
C401 C400 1.386 . S
C401 C402 1.382 . S
C401 H423 0.950 . S
C402 N398 1.332 . S
C402 C401 1.382 . S
C402 H404 0.952 . S
C403 N398 1.332 . S
C403 C399 1.382 . S
C403 H405 0.948 . S
H404 C402 0.952 . S
H405 C403 0.948 . S
H406 C395 0.952 . S
H407 C397 0.948 . S
C408 C374 1.395 . S
C408 C378 1.391 . S
C409 C371 1.389 . S
C409 C391 1.392 . S
C410 C381 1.392 . S
C410 C383 1.389 . S
C411 C386 1.395 . S
C411 C388 1.391 . S
H412 C372 0.951 . S
H413 C373 0.950 . S
H414 C379 0.949 . S
H415 C380 0.950 . S
H416 C384 0.951 . S
H417 C385 0.950 . S
H418 C389 0.949 . S
H419 C390 0.950 . S
H420 C394 0.950 . S
H421 C396 0.950 . S
H422 C399 0.950 . S
H423 C401 0.950 . S
C424 C425 1.443 . S
C424 N428 1.376 . S
C424 C462 1.389 . S
C425 C424 1.443 . S
C425 C426 1.340 . S
C425 H465 0.951 . S
C426 C425 1.340 . S
C426 C427 1.439 . S
C426 H466 0.950 . S
C427 C426 1.439 . S
C427 N428 1.374 . S
C427 C461 1.395 . S
N428 C424 1.376 . S
N428 C427 1.374 . S
N428 Co429 2.008 . S
Co429 N428 2.008 . S
Co429 N430 1.995 1_554 S
Co429 N435 2.008 1_554 S
Co429 N440 1.995 . S
Co429 N445 2.282 . S
Co429 N451 2.282 1_554 S
N430 Co429 1.995 1_556 S
N430 C431 1.373 1_556 S
N430 C434 1.383 . S
C431 N430 1.373 1_554 S
C431 C432 1.442 1_554 S
C431 C461 1.397 . S
C432 C431 1.442 1_556 S
C432 C433 1.339 . S
C432 H467 0.949 . S
C433 C432 1.339 . S
C433 C434 1.439 . S
C433 H468 0.950 . S
C434 N430 1.383 . S
C434 C433 1.439 . S
C434 C463 1.392 . S
N435 Co429 2.008 1_556 S
N435 C436 1.376 . S
N435 C439 1.374 . S
C436 N435 1.376 . S
C436 C437 1.443 . S
C436 C463 1.389 . S
C437 C436 1.443 . S
C437 C438 1.340 . S
C437 H469 0.951 . S
C438 C437 1.340 . S
C438 C439 1.439 . S
C438 H470 0.950 . S
C439 N435 1.374 . S
C439 C438 1.439 . S
C439 C464 1.395 . S
N440 Co429 1.995 . S
N440 C441 1.377 1_554 S
N440 C444 1.383 . S
C441 N440 1.377 1_556 S
C441 C442 1.447 1_556 S
C441 C464 1.390 . S
C442 C441 1.447 1_554 S
C442 C443 1.339 . S
C442 H471 0.949 . S
C443 C442 1.339 . S
C443 C444 1.439 . S
C443 H472 0.950 . S
C444 N440 1.383 . S
C444 C443 1.439 . S
C444 C462 1.392 . S
N445 Co429 2.282 . S
N445 C448 1.332 1_554 S
N445 C450 1.332 . S
C446 C447 1.386 . S
C446 C449 1.388 1_556 S
C447 C446 1.386 . S
C447 C448 1.382 . S
C447 H473 0.950 . S
C448 N445 1.332 1_556 S
C448 C447 1.382 . S
C448 H459 0.952 . S
C449 C446 1.388 1_554 S
C449 C450 1.382 . S
C449 H474 0.950 . S
C450 N445 1.332 . S
C450 C449 1.382 . S
C450 H460 0.948 . S
N451 Co429 2.282 1_556 S
N451 C455 1.332 1_556 S
N451 C456 1.332 . S
C452 C453 1.388 1_556 S
C452 C456 1.382 . S
C452 H475 0.950 . S
C453 C452 1.388 1_554 S
C453 C454 1.386 . S
C454 C453 1.386 . S
C454 C455 1.382 . S
C454 H476 0.950 . S
C455 N451 1.332 1_554 S
C455 C454 1.382 . S
C455 H457 0.952 . S
C456 N451 1.332 . S
C456 C452 1.382 . S
C456 H458 0.948 . S
H457 C455 0.952 . S
H458 C456 0.948 . S
H459 C448 0.952 . S
H460 C450 0.948 . S
C461 C427 1.395 . S
C461 C431 1.397 . S
C462 C424 1.389 . S
C462 C444 1.392 . S
C463 C434 1.392 . S
C463 C436 1.389 . S
C464 C439 1.395 . S
C464 C441 1.390 . S
H465 C425 0.951 . S
H466 C426 0.950 . S
H467 C432 0.949 . S
H468 C433 0.950 . S
H469 C437 0.951 . S
H470 C438 0.950 . S
H471 C442 0.949 . S
H472 C443 0.950 . S
H473 C447 0.950 . S
H474 C449 0.950 . S
H475 C452 0.950 . S
H476 C454 0.950 . S
C477 C478 1.443 . S
C477 N481 1.376 . S
C477 C515 1.389 . S
C478 C477 1.443 . S
C478 C479 1.340 . S
C478 H518 0.951 . S
C479 C478 1.340 . S
C479 C480 1.439 . S
C479 H519 0.950 . S
C480 C479 1.439 . S
C480 N481 1.374 . S
C480 C514 1.395 . S
N481 C477 1.376 . S
N481 C480 1.374 . S
N481 Co482 2.008 . S
Co482 N481 2.008 . S
Co482 N483 1.995 . S
Co482 N488 2.008 . S
Co482 N493 1.995 . S
Co482 N498 2.282 . S
Co482 N504 2.282 . S
N483 Co482 1.995 . S
N483 C484 1.376 . S
N483 C487 1.383 . S
C484 N483 1.376 . S
C484 C485 1.446 . S
C484 C514 1.391 . S
C485 C484 1.446 . S
C485 C486 1.339 . S
C485 H520 0.949 . S
C486 C485 1.339 . S
C486 C487 1.439 . S
C486 H521 0.950 . S
C487 N483 1.383 . S
C487 C486 1.439 . S
C487 C516 1.392 . S
N488 Co482 2.008 . S
N488 C489 1.376 . S
N488 C492 1.374 . S
C489 N488 1.376 . S
C489 C490 1.443 . S
C489 C516 1.389 . S
C490 C489 1.443 . S
C490 C491 1.340 . S
C490 H522 0.951 . S
C491 C490 1.340 . S
C491 C492 1.439 . S
C491 H523 0.950 . S
C492 N488 1.374 . S
C492 C491 1.439 . S
C492 C517 1.395 . S
N493 Co482 1.995 . S
N493 C494 1.376 . S
N493 C497 1.383 . S
C494 N493 1.376 . S
C494 C495 1.446 . S
C494 C517 1.391 . S
C495 C494 1.446 . S
C495 C496 1.339 . S
C495 H524 0.949 . S
C496 C495 1.339 . S
C496 C497 1.439 . S
C496 H525 0.950 . S
C497 N493 1.383 . S
C497 C496 1.439 . S
C497 C515 1.392 . S
N498 Co482 2.282 . S
N498 C501 1.332 . S
N498 C503 1.332 . S
C499 C500 1.386 . S
C499 C502 1.388 . S
C500 C499 1.386 . S
C500 C501 1.382 . S
C500 H526 0.950 . S
C501 N498 1.332 . S
C501 C500 1.382 . S
C501 H512 0.952 . S
C502 C499 1.388 . S
C502 C503 1.382 . S
C502 H527 0.950 . S
C503 N498 1.332 . S
C503 C502 1.382 . S
C503 H513 0.948 . S
N504 Co482 2.282 . S
N504 C508 1.332 . S
N504 C509 1.332 . S
C505 C506 1.388 . S
C505 C509 1.382 . S
C505 H528 0.950 . S
C506 C505 1.388 . S
C506 C507 1.386 . S
C507 C506 1.386 . S
C507 C508 1.382 . S
C507 H529 0.950 . S
C508 N504 1.332 . S
C508 C507 1.382 . S
C508 H510 0.952 . S
C509 N504 1.332 . S
C509 C505 1.382 . S
C509 H511 0.948 . S
H510 C508 0.952 . S
H511 C509 0.948 . S
H512 C501 0.952 . S
H513 C503 0.948 . S
C514 C480 1.395 . S
C514 C484 1.391 . S
C515 C477 1.389 . S
C515 C497 1.392 . S
C516 C487 1.392 . S
C516 C489 1.389 . S
C517 C492 1.395 . S
C517 C494 1.391 . S
H518 C478 0.951 . S
H519 C479 0.950 . S
H520 C485 0.949 . S
H521 C486 0.950 . S
H522 C490 0.951 . S
H523 C491 0.950 . S
H524 C495 0.949 . S
H525 C496 0.950 . S
H526 C500 0.950 . S
H527 C502 0.950 . S
H528 C505 0.950 . S
H529 C507 0.950 . S
C530 C531 1.443 . S
C530 N534 1.376 . S
C530 C568 1.389 . S
C531 C530 1.443 . S
C531 C532 1.340 . S
C531 H571 0.951 . S
C532 C531 1.340 . S
C532 C533 1.439 . S
C532 H572 0.950 . S
C533 C532 1.439 . S
C533 N534 1.374 . S
C533 C567 1.395 . S
N534 C530 1.376 . S
N534 C533 1.374 . S
N534 Co535 2.008 . S
Co535 N534 2.008 . S
Co535 N536 1.995 . S
Co535 N541 2.008 . S
Co535 N546 1.995 . S
Co535 N551 2.282 . S
Co535 N557 2.282 . S
N536 Co535 1.995 . S
N536 C537 1.376 . S
N536 C540 1.383 . S
C537 N536 1.376 . S
C537 C538 1.446 . S
C537 C567 1.391 . S
C538 C537 1.446 . S
C538 C539 1.339 . S
C538 H573 0.949 . S
C539 C538 1.339 . S
C539 C540 1.439 . S
C539 H574 0.950 . S
C540 N536 1.383 . S
C540 C539 1.439 . S
C540 C569 1.392 . S
N541 Co535 2.008 . S
N541 C542 1.376 . S
N541 C545 1.374 . S
C542 N541 1.376 . S
C542 C543 1.443 . S
C542 C569 1.389 . S
C543 C542 1.443 . S
C543 C544 1.340 . S
C543 H575 0.951 . S
C544 C543 1.340 . S
C544 C545 1.439 . S
C544 H576 0.950 . S
C545 N541 1.374 . S
C545 C544 1.439 . S
C545 C570 1.395 . S
N546 Co535 1.995 . S
N546 C547 1.376 . S
N546 C550 1.383 . S
C547 N546 1.376 . S
C547 C548 1.446 . S
C547 C570 1.391 . S
C548 C547 1.446 . S
C548 C549 1.339 . S
C548 H577 0.949 . S
C549 C548 1.339 . S
C549 C550 1.439 . S
C549 H578 0.950 . S
C550 N546 1.383 . S
C550 C549 1.439 . S
C550 C568 1.392 . S
N551 Co535 2.282 . S
N551 C554 1.332 . S
N551 C556 1.332 . S
C552 C553 1.386 . S
C552 C555 1.388 . S
C553 C552 1.386 . S
C553 C554 1.382 . S
C553 H579 0.950 . S
C554 N551 1.332 . S
C554 C553 1.382 . S
C554 H565 0.952 . S
C555 C552 1.388 . S
C555 C556 1.382 . S
C555 H580 0.950 . S
C556 N551 1.332 . S
C556 C555 1.382 . S
C556 H566 0.948 . S
N557 Co535 2.282 . S
N557 C561 1.332 . S
N557 C562 1.332 . S
C558 C559 1.388 . S
C558 C562 1.382 . S
C558 H581 0.950 . S
C559 C558 1.388 . S
C559 C560 1.386 . S
C560 C559 1.386 . S
C560 C561 1.382 . S
C560 H582 0.950 . S
C561 N557 1.332 . S
C561 C560 1.382 . S
C561 H563 0.952 . S
C562 N557 1.332 . S
C562 C558 1.382 . S
C562 H564 0.948 . S
H563 C561 0.952 . S
H564 C562 0.948 . S
H565 C554 0.952 . S
H566 C556 0.948 . S
C567 C533 1.395 . S
C567 C537 1.391 . S
C568 C530 1.389 . S
C568 C550 1.392 . S
C569 C540 1.392 . S
C569 C542 1.389 . S
C570 C545 1.395 . S
C570 C547 1.391 . S
H571 C531 0.951 . S
H572 C532 0.950 . S
H573 C538 0.949 . S
H574 C539 0.950 . S
H575 C543 0.951 . S
H576 C544 0.950 . S
H577 C548 0.949 . S
H578 C549 0.950 . S
H579 C553 0.950 . S
H580 C555 0.950 . S
H581 C558 0.950 . S
H582 C560 0.950 . S
C583 C584 1.443 . S
C583 N587 1.376 . S
C583 C621 1.389 . S
C584 C583 1.443 . S
C584 C585 1.340 . S
C584 H624 0.951 . S
C585 C584 1.340 . S
C585 C586 1.439 . S
C585 H625 0.950 . S
C586 C585 1.439 . S
C586 N587 1.374 . S
C586 C620 1.395 . S
N587 C583 1.376 . S
N587 C586 1.374 . S
N587 Co588 2.008 . S
Co588 N587 2.008 . S
Co588 N589 1.995 1_554 S
Co588 N594 2.008 1_554 S
Co588 N599 1.995 . S
Co588 N604 2.282 . S
Co588 N610 2.282 1_554 S
N589 Co588 1.995 1_556 S
N589 C590 1.373 1_556 S
N589 C593 1.383 . S
C590 N589 1.373 1_554 S
C590 C591 1.442 1_554 S
C590 C620 1.397 . S
C591 C590 1.442 1_556 S
C591 C592 1.339 . S
C591 H626 0.949 . S
C592 C591 1.339 . S
C592 C593 1.439 . S
C592 H627 0.950 . S
C593 N589 1.383 . S
C593 C592 1.439 . S
C593 C622 1.392 . S
N594 Co588 2.008 1_556 S
N594 C595 1.376 . S
N594 C598 1.374 . S
C595 N594 1.376 . S
C595 C596 1.443 . S
C595 C622 1.389 . S
C596 C595 1.443 . S
C596 C597 1.340 . S
C596 H628 0.951 . S
C597 C596 1.340 . S
C597 C598 1.439 . S
C597 H629 0.950 . S
C598 N594 1.374 . S
C598 C597 1.439 . S
C598 C623 1.395 . S
N599 Co588 1.995 . S
N599 C600 1.377 1_554 S
N599 C603 1.383 . S
C600 N599 1.377 1_556 S
C600 C601 1.447 1_556 S
C600 C623 1.390 . S
C601 C600 1.447 1_554 S
C601 C602 1.339 . S
C601 H630 0.949 . S
C602 C601 1.339 . S
C602 C603 1.439 . S
C602 H631 0.950 . S
C603 N599 1.383 . S
C603 C602 1.439 . S
C603 C621 1.392 . S
N604 Co588 2.282 . S
N604 C607 1.332 1_554 S
N604 C609 1.332 . S
C605 C606 1.386 . S
C605 C608 1.388 1_556 S
C606 C605 1.386 . S
C606 C607 1.382 . S
C606 H632 0.950 . S
C607 N604 1.332 1_556 S
C607 C606 1.382 . S
C607 H618 0.952 . S
C608 C605 1.388 1_554 S
C608 C609 1.382 . S
C608 H633 0.950 . S
C609 N604 1.332 . S
C609 C608 1.382 . S
C609 H619 0.948 . S
N610 Co588 2.282 1_556 S
N610 C614 1.332 1_556 S
N610 C615 1.332 . S
C611 C612 1.388 1_556 S
C611 C615 1.382 . S
C611 H634 0.950 . S
C612 C611 1.388 1_554 S
C612 C613 1.386 . S
C613 C612 1.386 . S
C613 C614 1.382 . S
C613 H635 0.950 . S
C614 N610 1.332 1_554 S
C614 C613 1.382 . S
C614 H616 0.952 . S
C615 N610 1.332 . S
C615 C611 1.382 . S
C615 H617 0.948 . S
H616 C614 0.952 . S
H617 C615 0.948 . S
H618 C607 0.952 . S
H619 C609 0.948 . S
C620 C586 1.395 . S
C620 C590 1.397 . S
C621 C583 1.389 . S
C621 C603 1.392 . S
C622 C593 1.392 . S
C622 C595 1.389 . S
C623 C598 1.395 . S
C623 C600 1.390 . S
H624 C584 0.951 . S
H625 C585 0.950 . S
H626 C591 0.949 . S
H627 C592 0.950 . S
H628 C596 0.951 . S
H629 C597 0.950 . S
H630 C601 0.949 . S
H631 C602 0.950 . S
H632 C606 0.950 . S
H633 C608 0.950 . S
H634 C611 0.950 . S
H635 C613 0.950 . S
H636 C642 0.930 . S
H637 C645 0.930 . S
H638 C646 0.930 . S
H639 C647 0.930 . S
H640 C650 0.930 . S
H641 C651 0.930 . S
C642 H636 0.930 . S
C642 C643 1.355 . S
C642 C644 1.415 . S
C643 C642 1.355 . S
C643 C645 1.419 . S
C644 C642 1.415 . S
C644 C649 1.425 . S
C644 C651 1.409 . S
C645 H637 0.930 . S
C645 C643 1.419 . S
C645 C646 1.362 . S
C646 H638 0.930 . S
C646 C645 1.362 . S
C646 C649 1.409 . S
C647 H639 0.930 . S
C647 C648 1.355 . S
C647 C649 1.415 . S
C648 C647 1.355 . S
C648 C650 1.419 . S
C649 C644 1.425 . S
C649 C646 1.409 . S
C649 C647 1.415 . S
C650 H640 0.930 . S
C650 C648 1.419 . S
C650 C651 1.362 . S
C651 H641 0.930 . S
C651 C644 1.409 . S
C651 C650 1.362 . S
H652 C658 0.930 . S
H653 C661 0.930 . S
H654 C662 0.930 . S
H655 C663 0.930 . S
H656 C666 0.930 . S
H657 C667 0.930 . S
C658 H652 0.930 . S
C658 C659 1.355 . S
C658 C660 1.415 . S
C659 C658 1.355 . S
C659 C661 1.419 . S
C660 C658 1.415 . S
C660 C665 1.425 . S
C660 C667 1.409 . S
C661 H653 0.930 . S
C661 C659 1.419 . S
C661 C662 1.362 . S
C662 H654 0.930 . S
C662 C661 1.362 . S
C662 C665 1.409 . S
C663 H655 0.930 . S
C663 C664 1.355 . S
C663 C665 1.415 . S
C664 C663 1.355 . S
C664 C666 1.419 . S
C665 C660 1.425 . S
C665 C662 1.409 . S
C665 C663 1.415 . S
C666 H656 0.930 . S
C666 C664 1.419 . S
C666 C667 1.362 . S
C667 H657 0.930 . S
C667 C660 1.409 . S
C667 C666 1.362 . S
H668 C674 0.930 . S
H669 C677 0.930 . S
H670 C678 0.930 . S
H671 C679 0.930 . S
H672 C682 0.930 . S
H673 C683 0.930 . S
C674 H668 0.930 . S
C674 C675 1.355 . S
C674 C676 1.415 . S
C675 C674 1.355 . S
C675 C677 1.419 . S
C676 C674 1.415 . S
C676 C681 1.425 . S
C676 C683 1.409 . S
C677 H669 0.930 . S
C677 C675 1.419 . S
C677 C678 1.362 . S
C678 H670 0.930 . S
C678 C677 1.362 . S
C678 C681 1.409 . S
C679 H671 0.930 . S
C679 C680 1.355 . S
C679 C681 1.415 . S
C680 C679 1.355 . S
C680 C682 1.419 . S
C681 C676 1.425 . S
C681 C678 1.409 . S
C681 C679 1.415 . S
C682 H672 0.930 . S
C682 C680 1.419 . S
C682 C683 1.362 . S
C683 H673 0.930 . S
C683 C676 1.409 . S
C683 C682 1.362 . S
H684 C690 0.930 . S
H685 C693 0.930 . S
H686 C694 0.930 . S
H687 C695 0.930 . S
H688 C698 0.930 . S
H689 C699 0.930 . S
C690 H684 0.930 . S
C690 C691 1.355 . S
C690 C692 1.415 . S
C691 C690 1.355 . S
C691 C693 1.419 . S
C692 C690 1.415 . S
C692 C697 1.425 . S
C692 C699 1.409 . S
C693 H685 0.930 . S
C693 C691 1.419 . S
C693 C694 1.362 . S
C694 H686 0.930 . S
C694 C693 1.362 . S
C694 C697 1.409 . S
C695 H687 0.930 . S
C695 C696 1.355 . S
C695 C697 1.415 . S
C696 C695 1.355 . S
C696 C698 1.419 . S
C697 C692 1.425 . S
C697 C694 1.409 . S
C697 C695 1.415 . S
C698 H688 0.930 . S
C698 C696 1.419 . S
C698 C699 1.362 . S
C699 H689 0.930 . S
C699 C692 1.409 . S
C699 C698 1.362 . S
H700 C706 0.930 . S
H701 C709 0.930 . S
H702 C710 0.930 . S
H703 C711 0.930 . S
H704 C714 0.930 . S
H705 C715 0.930 . S
C706 H700 0.930 . S
C706 C707 1.355 . S
C706 C708 1.415 . S
C707 C706 1.355 . S
C707 C709 1.419 . S
C708 C706 1.415 . S
C708 C713 1.425 . S
C708 C715 1.409 . S
C709 H701 0.930 . S
C709 C707 1.419 . S
C709 C710 1.362 . S
C710 H702 0.930 . S
C710 C709 1.362 . S
C710 C713 1.409 . S
C711 H703 0.930 . S
C711 C712 1.355 . S
C711 C713 1.415 . S
C712 C711 1.355 . S
C712 C714 1.419 . S
C713 C708 1.425 . S
C713 C710 1.409 . S
C713 C711 1.415 . S
C714 H704 0.930 . S
C714 C712 1.419 . S
C714 C715 1.362 . S
C715 H705 0.930 . S
C715 C708 1.409 . S
C715 C714 1.362 . S
H716 C722 0.930 . S
H717 C725 0.930 . S
H718 C726 0.930 . S
H719 C727 0.930 . S
H720 C730 0.930 . S
H721 C731 0.930 . S
C722 H716 0.930 . S
C722 C723 1.355 . S
C722 C724 1.415 . S
C723 C722 1.355 . S
C723 C725 1.419 . S
C724 C722 1.415 . S
C724 C729 1.425 . S
C724 C731 1.409 . S
C725 H717 0.930 . S
C725 C723 1.419 . S
C725 C726 1.362 . S
C726 H718 0.930 . S
C726 C725 1.362 . S
C726 C729 1.409 . S
C727 H719 0.930 . S
C727 C728 1.355 . S
C727 C729 1.415 . S
C728 C727 1.355 . S
C728 C730 1.419 . S
C729 C724 1.425 . S
C729 C726 1.409 . S
C729 C727 1.415 . S
C730 H720 0.930 . S
C730 C728 1.419 . S
C730 C731 1.362 . S
C731 H721 0.930 . S
C731 C724 1.409 . S
C731 C730 1.362 . S
H732 C738 0.930 . S
H733 C741 0.930 . S
H734 C742 0.930 . S
H735 C743 0.930 . S
H736 C746 0.930 . S
H737 C747 0.930 . S
C738 H732 0.930 . S
C738 C739 1.355 . S
C738 C740 1.415 . S
C739 C738 1.355 . S
C739 C741 1.419 . S
C740 C738 1.415 . S
C740 C745 1.425 . S
C740 C747 1.409 . S
C741 H733 0.930 . S
C741 C739 1.419 . S
C741 C742 1.362 . S
C742 H734 0.930 . S
C742 C741 1.362 . S
C742 C745 1.409 . S
C743 H735 0.930 . S
C743 C744 1.355 . S
C743 C745 1.415 . S
C744 C743 1.355 . S
C744 C746 1.419 . S
C745 C740 1.425 . S
C745 C742 1.409 . S
C745 C743 1.415 . S
C746 H736 0.930 . S
C746 C744 1.419 . S
C746 C747 1.362 . S
C747 H737 0.930 . S
C747 C740 1.409 . S
C747 C746 1.362 . S
H748 C754 0.930 . S
H749 C757 0.930 . S
H750 C758 0.930 . S
H751 C759 0.930 . S
H752 C762 0.930 . S
H753 C763 0.930 . S
C754 H748 0.930 . S
C754 C755 1.355 . S
C754 C756 1.415 . S
C755 C754 1.355 . S
C755 C757 1.419 . S
C756 C754 1.415 . S
C756 C761 1.425 . S
C756 C763 1.409 . S
C757 H749 0.930 . S
C757 C755 1.419 . S
C757 C758 1.362 . S
C758 H750 0.930 . S
C758 C757 1.362 . S
C758 C761 1.409 . S
C759 H751 0.930 . S
C759 C760 1.355 . S
C759 C761 1.415 . S
C760 C759 1.355 . S
C760 C762 1.419 . S
C761 C756 1.425 . S
C761 C758 1.409 . S
C761 C759 1.415 . S
C762 H752 0.930 . S
C762 C760 1.419 . S
C762 C763 1.362 . S
C763 H753 0.930 . S
C763 C756 1.409 . S
C763 C762 1.362 . S
H764 C770 0.930 . S
H765 C773 0.930 . S
H766 C774 0.930 . S
H767 C775 0.930 . S
H768 C778 0.930 . S
H769 C779 0.930 . S
C770 H764 0.930 . S
C770 C771 1.355 1_556 S
C770 C772 1.415 . S
C771 C770 1.355 1_554 S
C771 C773 1.419 . S
C772 C770 1.415 . S
C772 C777 1.425 1_556 S
C772 C779 1.409 . S
C773 H765 0.930 . S
C773 C771 1.419 . S
C773 C774 1.362 . S
C774 H766 0.930 . S
C774 C773 1.362 . S
C774 C777 1.409 . S
C775 H767 0.930 . S
C775 C776 1.355 1_554 S
C775 C777 1.415 . S
C776 C775 1.355 1_556 S
C776 C778 1.419 . S
C777 C772 1.425 1_554 S
C777 C774 1.409 . S
C777 C775 1.415 . S
C778 H768 0.930 . S
C778 C776 1.419 . S
C778 C779 1.362 . S
C779 H769 0.930 . S
C779 C772 1.409 . S
C779 C778 1.362 . S
H780 C786 0.930 . S
H781 C789 0.930 . S
H782 C790 0.930 . S
H783 C791 0.930 . S
H784 C794 0.930 . S
H785 C795 0.930 . S
C786 H780 0.930 . S
C786 C787 1.355 . S
C786 C788 1.415 . S
C787 C786 1.355 . S
C787 C789 1.419 . S
C788 C786 1.415 . S
C788 C793 1.425 . S
C788 C795 1.409 . S
C789 H781 0.930 . S
C789 C787 1.419 . S
C789 C790 1.362 . S
C790 H782 0.930 . S
C790 C789 1.362 . S
C790 C793 1.409 . S
C791 H783 0.930 . S
C791 C792 1.355 . S
C791 C793 1.415 . S
C792 C791 1.355 . S
C792 C794 1.419 . S
C793 C788 1.425 . S
C793 C790 1.409 . S
C793 C791 1.415 . S
C794 H784 0.930 . S
C794 C792 1.419 . S
C794 C795 1.362 . S
C795 H785 0.930 . S
C795 C788 1.409 . S
C795 C794 1.362 . S
H796 C802 0.930 . S
H797 C805 0.930 . S
H798 C806 0.930 . S
H799 C807 0.930 . S
H800 C810 0.930 . S
H801 C811 0.930 . S
C802 H796 0.930 . S
C802 C803 1.355 . S
C802 C804 1.415 . S
C803 C802 1.355 . S
C803 C805 1.419 . S
C804 C802 1.415 . S
C804 C809 1.425 . S
C804 C811 1.409 . S
C805 H797 0.930 . S
C805 C803 1.419 . S
C805 C806 1.362 . S
C806 H798 0.930 . S
C806 C805 1.362 . S
C806 C809 1.409 . S
C807 H799 0.930 . S
C807 C808 1.355 . S
C807 C809 1.415 . S
C808 C807 1.355 . S
C808 C810 1.419 . S
C809 C804 1.425 . S
C809 C806 1.409 . S
C809 C807 1.415 . S
C810 H800 0.930 . S
C810 C808 1.419 . S
C810 C811 1.362 . S
C811 H801 0.930 . S
C811 C804 1.409 . S
C811 C810 1.362 . S
H812 C818 0.930 . S
H813 C821 0.930 . S
H814 C822 0.930 . S
H815 C823 0.930 . S
H816 C826 0.930 . S
H817 C827 0.930 . S
C818 H812 0.930 . S
C818 C819 1.358 . S
C818 C820 1.415 . S
C819 C818 1.358 . S
C819 C821 1.415 1_556 S
C820 C818 1.415 . S
C820 C825 1.425 1_556 S
C820 C827 1.409 . S
C821 H813 0.930 . S
C821 C819 1.415 1_554 S
C821 C822 1.362 . S
C822 H814 0.930 . S
C822 C821 1.362 . S
C822 C825 1.409 . S
C823 H815 0.930 . S
C823 C824 1.352 . S
C823 C825 1.415 . S
C824 C823 1.352 . S
C824 C826 1.422 1_554 S
C825 C820 1.425 1_554 S
C825 C822 1.409 . S
C825 C823 1.415 . S
C826 H816 0.930 . S
C826 C824 1.422 1_556 S
C826 C827 1.362 . S
C827 H817 0.930 . S
C827 C820 1.409 . S
C827 C826 1.362 . S
H828 C834 0.930 . S
H829 C837 0.937 1_565 S
H830 C838 0.930 . S
H831 C839 0.930 . S
H832 C842 0.937 1_545 S
H833 C843 0.930 . S
C834 H828 0.930 . S
C834 C835 1.355 . S
C834 C836 1.415 . S
C835 C834 1.355 . S
C835 C837 1.435 . S
C836 C834 1.415 . S
C836 C841 1.425 1_545 S
C836 C843 1.409 . S
C837 H829 0.937 1_545 S
C837 C835 1.435 . S
C837 C838 1.339 1_545 S
C838 H830 0.930 . S
C838 C837 1.339 1_565 S
C838 C841 1.409 . S
C839 H831 0.930 . S
C839 C840 1.355 . S
C839 C841 1.415 . S
C840 C839 1.355 . S
C840 C842 1.435 . S
C841 C836 1.425 1_565 S
C841 C838 1.409 . S
C841 C839 1.415 . S
C842 H832 0.937 1_565 S
C842 C840 1.435 . S
C842 C843 1.339 1_565 S
C843 H833 0.930 . S
C843 C836 1.409 . S
C843 C842 1.339 1_545 S
H844 C850 0.930 . S
H845 C853 0.930 . S
H846 C854 0.930 . S
H847 C855 0.930 . S
H848 C858 0.930 . S
H849 C859 0.930 . S
C850 H844 0.930 . S
C850 C851 1.355 . S
C850 C852 1.415 . S
C851 C850 1.355 . S
C851 C853 1.419 . S
C852 C850 1.415 . S
C852 C857 1.425 . S
C852 C859 1.409 . S
C853 H845 0.930 . S
C853 C851 1.419 . S
C853 C854 1.362 . S
C854 H846 0.930 . S
C854 C853 1.362 . S
C854 C857 1.409 . S
C855 H847 0.930 . S
C855 C856 1.355 . S
C855 C857 1.415 . S
C856 C855 1.355 . S
C856 C858 1.419 . S
C857 C852 1.425 . S
C857 C854 1.409 . S
C857 C855 1.415 . S
C858 H848 0.930 . S
C858 C856 1.419 . S
C858 C859 1.362 . S
C859 H849 0.930 . S
C859 C852 1.409 . S
C859 C858 1.362 . S
H860 C866 0.930 . S
H861 C869 0.930 . S
H862 C870 0.930 . S
H863 C871 0.930 . S
H864 C874 0.930 . S
H865 C875 0.930 . S
C866 H860 0.930 . S
C866 C867 1.376 . S
C866 C868 1.415 . S
C867 C866 1.376 . S
C867 C869 1.393 1_554 S
C868 C866 1.415 . S
C868 C873 1.425 1_654 S
C868 C875 1.409 . S
C869 H861 0.930 . S
C869 C867 1.393 1_556 S
C869 C870 1.362 1_655 S
C870 H862 0.930 . S
C870 C869 1.362 1_455 S
C870 C873 1.409 . S
C871 H863 0.930 . S
C871 C872 1.355 1_556 S
C871 C873 1.415 . S
C872 C871 1.355 1_554 S
C872 C874 1.419 . S
C873 C868 1.425 1_456 S
C873 C870 1.409 . S
C873 C871 1.415 . S
C874 H864 0.930 . S
C874 C872 1.419 . S
C874 C875 1.362 1_455 S
C875 H865 0.930 . S
C875 C868 1.409 . S
C875 C874 1.362 1_655 S
H876 C882 0.930 1_655 S
H877 C885 0.930 . S
H878 C886 0.930 . S
H879 C887 0.930 1_455 S
H880 C890 0.930 . S
H881 C891 0.930 . S
C882 H876 0.930 1_455 S
C882 C883 1.355 . S
C882 C884 1.415 1_455 S
C883 C882 1.355 . S
C883 C885 1.419 . S
C884 C882 1.415 1_655 S
C884 C889 1.425 1_655 S
C884 C891 1.409 . S
C885 H877 0.930 . S
C885 C883 1.419 . S
C885 C886 1.362 . S
C886 H878 0.930 . S
C886 C885 1.362 . S
C886 C889 1.409 . S
C887 H879 0.930 1_655 S
C887 C888 1.355 . S
C887 C889 1.415 1_655 S
C888 C887 1.355 . S
C888 C890 1.419 . S
C889 C884 1.425 1_455 S
C889 C886 1.409 . S
C889 C887 1.415 1_455 S
C890 H880 0.930 . S
C890 C888 1.419 . S
C890 C891 1.362 . S
C891 H881 0.930 . S
C891 C884 1.409 . S
C891 C890 1.362 . S
H892 C898 0.930 . S
H893 C901 0.930 . S
H894 C902 0.930 . S
H895 C903 0.930 . S
H896 C906 0.930 . S
H897 C907 0.930 . S
C898 H892 0.930 . S
C898 C899 1.355 . S
C898 C900 1.415 1_545 S
C899 C898 1.355 . S
C899 C901 1.419 . S
C900 C898 1.415 1_565 S
C900 C905 1.425 1_565 S
C900 C907 1.409 . S
C901 H893 0.930 . S
C901 C899 1.419 . S
C901 C902 1.362 . S
C902 H894 0.930 . S
C902 C901 1.362 . S
C902 C905 1.409 . S
C903 H895 0.930 . S
C903 C904 1.355 . S
C903 C905 1.415 1_565 S
C904 C903 1.355 . S
C904 C906 1.419 . S
C905 C900 1.425 1_545 S
C905 C902 1.409 . S
C905 C903 1.415 1_545 S
C906 H896 0.930 . S
C906 C904 1.419 . S
C906 C907 1.362 . S
C907 H897 0.930 . S
C907 C900 1.409 . S
C907 C906 1.362 . S
H908 C914 0.930 . S
H909 C917 0.930 . S
H910 C918 0.930 . S
H911 C919 0.930 . S
H912 C922 0.930 . S
H913 C923 0.930 . S
C914 H908 0.930 . S
C914 C915 1.355 1_554 S
C914 C916 1.415 . S
C915 C914 1.355 1_556 S
C915 C917 1.419 . S
C916 C914 1.415 . S
C916 C921 1.425 1_554 S
C916 C923 1.409 . S
C917 H909 0.930 . S
C917 C915 1.419 . S
C917 C918 1.362 . S
C918 H910 0.930 . S
C918 C917 1.362 . S
C918 C921 1.409 . S
C919 H911 0.930 . S
C919 C920 1.355 . S
C919 C921 1.415 . S
C920 C919 1.355 . S
C920 C922 1.419 1_556 S
C921 C916 1.425 1_556 S
C921 C918 1.409 . S
C921 C919 1.415 . S
C922 H912 0.930 . S
C922 C920 1.419 1_554 S
C922 C923 1.362 . S
C923 H913 0.930 . S
C923 C916 1.409 . S
C923 C922 1.362 . S
H924 C930 0.930 . S
H925 C933 0.930 . S
H926 C934 0.930 . S
H927 C935 0.930 . S
H928 C938 0.930 . S
H929 C939 0.930 . S
C930 H924 0.930 . S
C930 C931 1.355 . S
C930 C932 1.415 . S
C931 C930 1.355 . S
C931 C933 1.419 . S
C932 C930 1.415 . S
C932 C937 1.425 . S
C932 C939 1.409 . S
C933 H925 0.930 . S
C933 C931 1.419 . S
C933 C934 1.362 . S
C934 H926 0.930 . S
C934 C933 1.362 . S
C934 C937 1.409 . S
C935 H927 0.930 . S
C935 C936 1.355 . S
C935 C937 1.415 . S
C936 C935 1.355 . S
C936 C938 1.419 . S
C937 C932 1.425 . S
C937 C934 1.409 . S
C937 C935 1.415 . S
C938 H928 0.930 . S
C938 C936 1.419 . S
C938 C939 1.362 . S
C939 H929 0.930 . S
C939 C932 1.409 . S
C939 C938 1.362 . S
H940 C946 0.930 . S
H941 C949 0.930 . S
H942 C950 0.930 . S
H943 C951 0.930 . S
H944 C954 0.930 . S
H945 C955 0.930 . S
C946 H940 0.930 . S
C946 C947 1.355 . S
C946 C948 1.415 . S
C947 C946 1.355 . S
C947 C949 1.419 . S
C948 C946 1.415 . S
C948 C953 1.425 . S
C948 C955 1.409 . S
C949 H941 0.930 . S
C949 C947 1.419 . S
C949 C950 1.362 . S
C950 H942 0.930 . S
C950 C949 1.362 . S
C950 C953 1.409 . S
C951 H943 0.930 . S
C951 C952 1.355 . S
C951 C953 1.415 . S
C952 C951 1.355 . S
C952 C954 1.419 . S
C953 C948 1.425 . S
C953 C950 1.409 . S
C953 C951 1.415 . S
C954 H944 0.930 . S
C954 C952 1.419 . S
C954 C955 1.362 . S
C955 H945 0.930 . S
C955 C948 1.409 . S
C955 C954 1.362 . S
H956 C962 0.930 . S
H957 C965 0.930 . S
H958 C966 0.930 . S
H959 C967 0.930 . S
H960 C970 0.930 . S
H961 C971 0.930 . S
C962 H956 0.930 . S
C962 C963 1.355 . S
C962 C964 1.415 . S
C963 C962 1.355 . S
C963 C965 1.419 . S
C964 C962 1.415 . S
C964 C969 1.425 . S
C964 C971 1.409 . S
C965 H957 0.930 . S
C965 C963 1.419 . S
C965 C966 1.362 . S
C966 H958 0.930 . S
C966 C965 1.362 . S
C966 C969 1.409 . S
C967 H959 0.930 . S
C967 C968 1.355 . S
C967 C969 1.415 . S
C968 C967 1.355 . S
C968 C970 1.419 . S
C969 C964 1.425 . S
C969 C966 1.409 . S
C969 C967 1.415 . S
C970 H960 0.930 . S
C970 C968 1.419 . S
C970 C971 1.362 . S
C971 H961 0.930 . S
C971 C964 1.409 . S
C971 C970 1.362 . S
H972 C978 0.930 . S
H973 C981 0.930 . S
H974 C982 0.930 . S
H975 C983 0.930 . S
H976 C986 0.930 . S
H977 C987 0.930 . S
C978 H972 0.930 . S
C978 C979 1.355 . S
C978 C980 1.415 . S
C979 C978 1.355 . S
C979 C981 1.419 . S
C980 C978 1.415 . S
C980 C985 1.425 . S
C980 C987 1.409 . S
C981 H973 0.930 . S
C981 C979 1.419 . S
C981 C982 1.362 . S
C982 H974 0.930 . S
C982 C981 1.362 . S
C982 C985 1.409 . S
C983 H975 0.930 . S
C983 C984 1.355 . S
C983 C985 1.415 . S
C984 C983 1.355 . S
C984 C986 1.419 . S
C985 C980 1.425 . S
C985 C982 1.409 . S
C985 C983 1.415 . S
C986 H976 0.930 . S
C986 C984 1.419 . S
C986 C987 1.362 . S
C987 H977 0.930 . S
C987 C980 1.409 . S
C987 C986 1.362 . S
H988 C994 0.930 . S
H989 C997 0.930 . S
H990 C998 0.930 . S
H991 C999 0.930 . S
H992 C1002 0.930 . S
H993 C1003 0.930 . S
C994 H988 0.930 . S
C994 C995 1.355 . S
C994 C996 1.415 . S
C995 C994 1.355 . S
C995 C997 1.419 . S
C996 C994 1.415 . S
C996 C1001 1.425 . S
C996 C1003 1.409 . S
C997 H989 0.930 . S
C997 C995 1.419 . S
C997 C998 1.362 . S
C998 H990 0.930 . S
C998 C997 1.362 . S
C998 C1001 1.409 . S
C999 H991 0.930 . S
C999 C1000 1.355 . S
C999 C1001 1.415 . S
C1000 C999 1.355 . S
C1000 C1002 1.419 . S
C1001 C996 1.425 . S
C1001 C998 1.409 . S
C1001 C999 1.415 . S
C1002 H992 0.930 . S
C1002 C1000 1.419 . S
C1002 C1003 1.362 . S
C1003 H993 0.930 . S
C1003 C996 1.409 . S
C1003 C1002 1.362 . S
H1004 C1010 0.930 . S
H1005 C1013 0.930 . S
H1006 C1014 0.930 . S
H1007 C1015 0.930 . S
H1008 C1018 0.930 . S
H1009 C1019 0.930 . S
C1010 H1004 0.930 . S
C1010 C1011 1.355 . S
C1010 C1012 1.415 . S
C1011 C1010 1.355 . S
C1011 C1013 1.419 . S
C1012 C1010 1.415 . S
C1012 C1017 1.425 . S
C1012 C1019 1.409 . S
C1013 H1005 0.930 . S
C1013 C1011 1.419 . S
C1013 C1014 1.362 . S
C1014 H1006 0.930 . S
C1014 C1013 1.362 . S
C1014 C1017 1.409 . S
C1015 H1007 0.930 . S
C1015 C1016 1.355 . S
C1015 C1017 1.415 . S
C1016 C1015 1.355 . S
C1016 C1018 1.419 . S
C1017 C1012 1.425 . S
C1017 C1014 1.409 . S
C1017 C1015 1.415 . S
C1018 H1008 0.930 . S
C1018 C1016 1.419 . S
C1018 C1019 1.362 . S
C1019 H1009 0.930 . S
C1019 C1012 1.409 . S
C1019 C1018 1.362 . S
C643 C39 1.392 . S
C648 C569 1.342 . S
C659 C92 1.519 . S
C664 C622 1.480 . S
C675 C357 1.519 . S
C680 C145 1.482 . S
C691 C198 1.400 . S
C696 C410 1.375 . S
C707 C463 1.501 . S
C712 C251 1.467 . S
C723 C516 1.466 . S
C728 C304 1.486 . S
C739 C347 1.459 . S
C744 C29 1.401 . S
C755 C400 1.462 . S
C760 C82 1.399 . S
C771 C453 1.438 . S
C776 C135 1.456 . S
C787 C188 1.405 . S
C792 C506 1.463 . S
C803 C241 1.407 . S
C808 C559 1.462 . S
C819 C294 1.422 . S
C824 C612 1.440 . S
C835 C22 2.996 . S
C840 C181 2.997 . S
C851 C75 2.975 . S
C856 C234 2.969 . S
C867 C128 2.948 . S
C872 C287 2.952 . S
C883 C499 2.943 . S
C888 C340 2.940 . S
C899 C552 2.945 . S
C904 C393 2.949 . S
C915 C605 2.974 . S
C920 C446 2.972 . S
C931 C38 2.242 . S
C936 C462 2.250 . S
C947 C515 2.349 . S
C952 C91 2.349 . S
C963 C144 2.255 . S
C968 C568 2.265 . S
C979 C621 2.253 . S
C984 C197 2.239 . S
C995 C250 2.372 . S
C1000 C356 2.365 . S
C1011 C303 2.272 . S
C1016 C409 2.263 . S
