# Generated by pormake.
# Topology ato, (4)-cn, num edge types: 1
# Building blocks:
#     Node 0, Type 0, BuildingBlock: QUQFOY_clean_sbu_1, # of connection points: 4
#     Node 1, Type 0, BuildingBlock: QUQFOY_clean_sbu_1, # of connection points: 4
#     Node 2, Type 0, BuildingBlock: QUQFOY_clean_sbu_1, # of connection points: 4
#     Node 3, Type 0, BuildingBlock: QUQFOY_clean_sbu_1, # of connection points: 4
#     Node 4, Type 0, BuildingBlock: QUQFOY_clean_sbu_1, # of connection points: 4
#     Node 5, Type 0, BuildingBlock: QUQFOY_clean_sbu_1, # of connection points: 4
#     Node 6, Type 0, BuildingBlock: QUQFOY_clean_sbu_1, # of connection points: 4
#     Node 7, Type 0, BuildingBlock: QUQFOY_clean_sbu_1, # of connection points: 4
#     Node 8, Type 0, BuildingBlock: QUQFOY_clean_sbu_1, # of connection points: 4
#     Node 9, Type 0, BuildingBlock: QUQFOY_clean_sbu_1, # of connection points: 4
#     Node 10, Type 0, BuildingBlock: QUQFOY_clean_sbu_1, # of connection points: 4
#     Node 11, Type 0, BuildingBlock: QUQFOY_clean_sbu_1, # of connection points: 4
#     Node 12, Type 0, BuildingBlock: QUQFOY_clean_sbu_1, # of connection points: 4
#     Node 13, Type 0, BuildingBlock: QUQFOY_clean_sbu_1, # of connection points: 4
#     Node 14, Type 0, BuildingBlock: QUQFOY_clean_sbu_1, # of connection points: 4
#     Node 15, Type 0, BuildingBlock: QUQFOY_clean_sbu_1, # of connection points: 4
#     Node 16, Type 0, BuildingBlock: QUQFOY_clean_sbu_1, # of connection points: 4
#     Node 17, Type 0, BuildingBlock: QUQFOY_clean_sbu_1, # of connection points: 4
#     Node 18, Type 0, BuildingBlock: QUQFOY_clean_sbu_1, # of connection points: 4
#     Node 19, Type 0, BuildingBlock: QUQFOY_clean_sbu_1, # of connection points: 4
#     Node 20, Type 0, BuildingBlock: QUQFOY_clean_sbu_1, # of connection points: 4
#     Node 21, Type 0, BuildingBlock: QUQFOY_clean_sbu_1, # of connection points: 4
#     Node 22, Type 0, BuildingBlock: QUQFOY_clean_sbu_1, # of connection points: 4
#     Node 23, Type 0, BuildingBlock: QUQFOY_clean_sbu_1, # of connection points: 4
#     Node 24, Type 0, BuildingBlock: QUQFOY_clean_sbu_1, # of connection points: 4
#     Node 25, Type 0, BuildingBlock: QUQFOY_clean_sbu_1, # of connection points: 4
#     Node 26, Type 0, BuildingBlock: QUQFOY_clean_sbu_1, # of connection points: 4
#     Node 27, Type 0, BuildingBlock: QUQFOY_clean_sbu_1, # of connection points: 4
#     Node 28, Type 0, BuildingBlock: QUQFOY_clean_sbu_1, # of connection points: 4
#     Node 29, Type 0, BuildingBlock: QUQFOY_clean_sbu_1, # of connection points: 4
#     Node 30, Type 0, BuildingBlock: QUQFOY_clean_sbu_1, # of connection points: 4
#     Node 31, Type 0, BuildingBlock: QUQFOY_clean_sbu_1, # of connection points: 4
#     Node 32, Type 0, BuildingBlock: QUQFOY_clean_sbu_1, # of connection points: 4
#     Node 33, Type 0, BuildingBlock: QUQFOY_clean_sbu_1, # of connection points: 4
#     Node 34, Type 0, BuildingBlock: QUQFOY_clean_sbu_1, # of connection points: 4
#     Node 35, Type 0, BuildingBlock: QUQFOY_clean_sbu_1, # of connection points: 4
#     Edge 36, Type (0, 0), BuildingBlock: MIFKUJ_clean_linker_0, # of connection points: 2
#     Edge 37, Type (0, 0), BuildingBlock: MIFKUJ_clean_linker_0, # of connection points: 2
#     Edge 38, Type (0, 0), BuildingBlock: MIFKUJ_clean_linker_0, # of connection points: 2
#     Edge 39, Type (0, 0), BuildingBlock: MIFKUJ_clean_linker_0, # of connection points: 2
#     Edge 40, Type (0, 0), BuildingBlock: MIFKUJ_clean_linker_0, # of connection points: 2
#     Edge 41, Type (0, 0), BuildingBlock: MIFKUJ_clean_linker_0, # of connection points: 2
#     Edge 42, Type (0, 0), BuildingBlock: MIFKUJ_clean_linker_0, # of connection points: 2
#     Edge 43, Type (0, 0), BuildingBlock: MIFKUJ_clean_linker_0, # of connection points: 2
#     Edge 44, Type (0, 0), BuildingBlock: MIFKUJ_clean_linker_0, # of connection points: 2
#     Edge 45, Type (0, 0), BuildingBlock: MIFKUJ_clean_linker_0, # of connection points: 2
#     Edge 46, Type (0, 0), BuildingBlock: MIFKUJ_clean_linker_0, # of connection points: 2
#     Edge 47, Type (0, 0), BuildingBlock: MIFKUJ_clean_linker_0, # of connection points: 2
#     Edge 48, Type (0, 0), BuildingBlock: MIFKUJ_clean_linker_0, # of connection points: 2
#     Edge 49, Type (0, 0), BuildingBlock: MIFKUJ_clean_linker_0, # of connection points: 2
#     Edge 50, Type (0, 0), BuildingBlock: MIFKUJ_clean_linker_0, # of connection points: 2
#     Edge 51, Type (0, 0), BuildingBlock: MIFKUJ_clean_linker_0, # of connection points: 2
#     Edge 52, Type (0, 0), BuildingBlock: MIFKUJ_clean_linker_0, # of connection points: 2
#     Edge 53, Type (0, 0), BuildingBlock: MIFKUJ_clean_linker_0, # of connection points: 2
#     Edge 54, Type (0, 0), BuildingBlock: MIFKUJ_clean_linker_0, # of connection points: 2
#     Edge 55, Type (0, 0), BuildingBlock: MIFKUJ_clean_linker_0, # of connection points: 2
#     Edge 56, Type (0, 0), BuildingBlock: MIFKUJ_clean_linker_0, # of connection points: 2
#     Edge 57, Type (0, 0), BuildingBlock: MIFKUJ_clean_linker_0, # of connection points: 2
#     Edge 58, Type (0, 0), BuildingBlock: MIFKUJ_clean_linker_0, # of connection points: 2
#     Edge 59, Type (0, 0), BuildingBlock: MIFKUJ_clean_linker_0, # of connection points: 2
#     Edge 60, Type (0, 0), BuildingBlock: MIFKUJ_clean_linker_0, # of connection points: 2
#     Edge 61, Type (0, 0), BuildingBlock: MIFKUJ_clean_linker_0, # of connection points: 2
#     Edge 62, Type (0, 0), BuildingBlock: MIFKUJ_clean_linker_0, # of connection points: 2
#     Edge 63, Type (0, 0), BuildingBlock: MIFKUJ_clean_linker_0, # of connection points: 2
#     Edge 64, Type (0, 0), BuildingBlock: MIFKUJ_clean_linker_0, # of connection points: 2
#     Edge 65, Type (0, 0), BuildingBlock: MIFKUJ_clean_linker_0, # of connection points: 2
#     Edge 66, Type (0, 0), BuildingBlock: MIFKUJ_clean_linker_0, # of connection points: 2
#     Edge 67, Type (0, 0), BuildingBlock: MIFKUJ_clean_linker_0, # of connection points: 2
#     Edge 68, Type (0, 0), BuildingBlock: MIFKUJ_clean_linker_0, # of connection points: 2
#     Edge 69, Type (0, 0), BuildingBlock: MIFKUJ_clean_linker_0, # of connection points: 2
#     Edge 70, Type (0, 0), BuildingBlock: MIFKUJ_clean_linker_0, # of connection points: 2
#     Edge 71, Type (0, 0), BuildingBlock: MIFKUJ_clean_linker_0, # of connection points: 2
#     Edge 72, Type (0, 0), BuildingBlock: MIFKUJ_clean_linker_0, # of connection points: 2
#     Edge 73, Type (0, 0), BuildingBlock: MIFKUJ_clean_linker_0, # of connection points: 2
#     Edge 74, Type (0, 0), BuildingBlock: MIFKUJ_clean_linker_0, # of connection points: 2
#     Edge 75, Type (0, 0), BuildingBlock: MIFKUJ_clean_linker_0, # of connection points: 2
#     Edge 76, Type (0, 0), BuildingBlock: MIFKUJ_clean_linker_0, # of connection points: 2
#     Edge 77, Type (0, 0), BuildingBlock: MIFKUJ_clean_linker_0, # of connection points: 2
#     Edge 78, Type (0, 0), BuildingBlock: MIFKUJ_clean_linker_0, # of connection points: 2
#     Edge 79, Type (0, 0), BuildingBlock: MIFKUJ_clean_linker_0, # of connection points: 2
#     Edge 80, Type (0, 0), BuildingBlock: MIFKUJ_clean_linker_0, # of connection points: 2
#     Edge 81, Type (0, 0), BuildingBlock: MIFKUJ_clean_linker_0, # of connection points: 2
#     Edge 82, Type (0, 0), BuildingBlock: MIFKUJ_clean_linker_0, # of connection points: 2
#     Edge 83, Type (0, 0), BuildingBlock: MIFKUJ_clean_linker_0, # of connection points: 2
#     Edge 84, Type (0, 0), BuildingBlock: MIFKUJ_clean_linker_0, # of connection points: 2
#     Edge 85, Type (0, 0), BuildingBlock: MIFKUJ_clean_linker_0, # of connection points: 2
#     Edge 86, Type (0, 0), BuildingBlock: MIFKUJ_clean_linker_0, # of connection points: 2
#     Edge 87, Type (0, 0), BuildingBlock: MIFKUJ_clean_linker_0, # of connection points: 2
#     Edge 88, Type (0, 0), BuildingBlock: MIFKUJ_clean_linker_0, # of connection points: 2
#     Edge 89, Type (0, 0), BuildingBlock: MIFKUJ_clean_linker_0, # of connection points: 2
#     Edge 90, Type (0, 0), BuildingBlock: MIFKUJ_clean_linker_0, # of connection points: 2
#     Edge 91, Type (0, 0), BuildingBlock: MIFKUJ_clean_linker_0, # of connection points: 2
#     Edge 92, Type (0, 0), BuildingBlock: MIFKUJ_clean_linker_0, # of connection points: 2
#     Edge 93, Type (0, 0), BuildingBlock: MIFKUJ_clean_linker_0, # of connection points: 2
#     Edge 94, Type (0, 0), BuildingBlock: MIFKUJ_clean_linker_0, # of connection points: 2
#     Edge 95, Type (0, 0), BuildingBlock: MIFKUJ_clean_linker_0, # of connection points: 2
#     Edge 96, Type (0, 0), BuildingBlock: MIFKUJ_clean_linker_0, # of connection points: 2
#     Edge 97, Type (0, 0), BuildingBlock: MIFKUJ_clean_linker_0, # of connection points: 2
#     Edge 98, Type (0, 0), BuildingBlock: MIFKUJ_clean_linker_0, # of connection points: 2
#     Edge 99, Type (0, 0), BuildingBlock: MIFKUJ_clean_linker_0, # of connection points: 2
#     Edge 100, Type (0, 0), BuildingBlock: MIFKUJ_clean_linker_0, # of connection points: 2
#     Edge 101, Type (0, 0), BuildingBlock: MIFKUJ_clean_linker_0, # of connection points: 2
#     Edge 102, Type (0, 0), BuildingBlock: MIFKUJ_clean_linker_0, # of connection points: 2
#     Edge 103, Type (0, 0), BuildingBlock: MIFKUJ_clean_linker_0, # of connection points: 2
#     Edge 104, Type (0, 0), BuildingBlock: MIFKUJ_clean_linker_0, # of connection points: 2
#     Edge 105, Type (0, 0), BuildingBlock: MIFKUJ_clean_linker_0, # of connection points: 2
#     Edge 106, Type (0, 0), BuildingBlock: MIFKUJ_clean_linker_0, # of connection points: 2
#     Edge 107, Type (0, 0), BuildingBlock: MIFKUJ_clean_linker_0, # of connection points: 2
# Relax obj value: 0.076
# Max RMSD: 0.152
# Mean RMSD: 0.152
data_MOF--net-ato--node1-QUQFOY_clean_sbu_1--edge1-MIFKUJ_clean_linker_0
_symmetry_space_group_name_H-M    P1
_symmetry_Int_Tables_number       1
_symmetry_cell_setting            triclinic
loop_
_symmetry_equiv_pos_as_xyz
'x, y, z'
_cell_length_a     142.03179
_cell_length_b     142.03062
_cell_length_c     31.143478
_cell_angle_alpha  90.001518
_cell_angle_beta   89.999861
_cell_angle_gamma 120.00283
loop_
_atom_site_label
_atom_site_type_symbol
_atom_site_fract_x
_atom_site_fract_y
_atom_site_fract_z
_atom_type_partial_charge
O0 O 0.24468 0.03567 0.18651 0.0
Cd1 Cd 0.25465 0.04383 0.238 0.0
Cd2 Cd 0.25375 0.06138 0.19321 0.0
O3 O 0.24336 0.04878 0.1539 0.0
O4 O 0.25397 0.03152 0.27123 0.0
O5 O 0.24804 0.04207 0.29715 0.0
C6 C 0.24941 0.03381 0.30205 0.0
C7 C 0.24995 0.07541 0.20617 0.0
C8 C 0.24093 0.0389 0.1564 0.0
C9 C 0.27567 0.06276 0.20525 0.0
O10 O 0.27007 0.06654 0.18867 0.0
O11 O 0.27116 0.05409 0.22751 0.0
O12 O 0.25319 0.07407 0.16927 0.0
O13 O 0.24854 0.06853 0.23608 0.0
O14 O 0.96307 0.21151 0.20308 0.0
Cd15 Cd 0.95455 0.21224 0.25518 0.0
Cd16 Cd 0.93711 0.19422 0.2092 0.0
O17 O 0.94977 0.19804 0.16688 0.0
O18 O 0.96615 0.2233 0.2929 0.0
O19 O 0.95607 0.20606 0.31158 0.0
C20 C 0.96389 0.21572 0.3205 0.0
C21 C 0.92421 0.17576 0.21792 0.0
C22 C 0.95972 0.2053 0.17052 0.0
C23 C 0.93499 0.21403 0.22823 0.0
O24 O 0.93084 0.20451 0.21261 0.0
O25 O 0.94427 0.21849 0.24621 0.0
O26 O 0.92487 0.18094 0.18311 0.0
O27 O 0.93107 0.18103 0.24816 0.0
O28 O 0.79359 0.75586 0.20041 0.0
Cd29 Cd 0.7912 0.74545 0.25048 0.0
Cd30 Cd 0.81 0.74627 0.21015 0.0
O31 O 0.80764 0.75622 0.16835 0.0
O32 O 0.77981 0.7464 0.28437 0.0
O33 O 0.79613 0.75143 0.31029 0.0
C34 C 0.78666 0.75047 0.31546 0.0
C35 C 0.82812 0.75121 0.22435 0.0
C36 C 0.80054 0.75916 0.17027 0.0
C37 C 0.78932 0.72435 0.22001 0.0
O38 O 0.7992 0.72976 0.20825 0.0
O39 O 0.78464 0.72906 0.23713 0.0
O40 O 0.82365 0.74739 0.18769 0.0
O41 O 0.82229 0.75232 0.25355 0.0
O42 O 0.03528 0.24757 0.80013 0.0
Cd43 Cd 0.04478 0.2566 0.74895 0.0
Cd44 Cd 0.06057 0.25462 0.79876 0.0
O45 O 0.04705 0.24445 0.83453 0.0
O46 O 0.03402 0.25703 0.70913 0.0
O47 O 0.04311 0.24864 0.69306 0.0
C48 C 0.03591 0.25123 0.68256 0.0
C49 C 0.07409 0.24996 0.78857 0.0
C50 C 0.03755 0.24311 0.8307 0.0
C51 C 0.06378 0.27709 0.78439 0.0
O52 O 0.06651 0.27107 0.80471 0.0
O53 O 0.05582 0.27296 0.75837 0.0
O54 O 0.07234 0.25287 0.82547 0.0
O55 O 0.06788 0.24933 0.75709 0.0
O56 O 0.75929 0.79257 0.80445 0.0
Cd57 Cd 0.74846 0.79014 0.75557 0.0
Cd58 Cd 0.74922 0.80826 0.80314 0.0
O59 O 0.76013 0.80638 0.84046 0.0
O60 O 0.74931 0.77852 0.72289 0.0
O61 O 0.75403 0.79456 0.69479 0.0
C62 C 0.75317 0.7851 0.69091 0.0
C63 C 0.75254 0.82593 0.79007 0.0
C64 C 0.76302 0.79932 0.83529 0.0
C65 C 0.72753 0.7873 0.79322 0.0
O66 O 0.73305 0.79675 0.80931 0.0
O67 O 0.73203 0.78334 0.76976 0.0
O68 O 0.74967 0.82145 0.82732 0.0
O69 O 0.75384 0.82045 0.75985 0.0
O70 O 0.20835 0.9636 0.78968 0.0
Cd71 Cd 0.20993 0.95481 0.7403 0.0
Cd72 Cd 0.19151 0.93776 0.78779 0.0
O73 O 0.19434 0.95085 0.8256 0.0
O74 O 0.22184 0.96671 0.70643 0.0
O75 O 0.20534 0.95638 0.68033 0.0
C76 C 0.21509 0.96446 0.6753 0.0
C77 C 0.17336 0.92422 0.77686 0.0
C78 C 0.2017 0.96072 0.82082 0.0
C79 C 0.21179 0.93592 0.77628 0.0
O80 O 0.20234 0.93217 0.79224 0.0
O81 O 0.21605 0.94458 0.75396 0.0
O82 O 0.17806 0.92568 0.81357 0.0
O83 O 0.17894 0.93062 0.74583 0.0
O84 O 0.75575 0.96485 0.8025 0.0
Cd85 Cd 0.74517 0.95704 0.75262 0.0
Cd86 Cd 0.74531 0.93866 0.79486 0.0
O87 O 0.75575 0.95106 0.83531 0.0
O88 O 0.74623 0.96954 0.71956 0.0
O89 O 0.75104 0.9582 0.6925 0.0
C90 C 0.75015 0.96675 0.68793 0.0
C91 C 0.74896 0.92443 0.78388 0.0
C92 C 0.75898 0.96115 0.83272 0.0
C93 C 0.72381 0.93842 0.78419 0.0
O94 O 0.72897 0.93376 0.79677 0.0
O95 O 0.72875 0.94768 0.76606 0.0
O96 O 0.74534 0.92577 0.81986 0.0
O97 O 0.75074 0.93135 0.75365 0.0
O98 O 0.03673 0.78521 0.79558 0.0
Cd99 Cd 0.04641 0.78766 0.74264 0.0
Cd100 Cd 0.06006 0.8061 0.78852 0.0
O101 O 0.04587 0.80185 0.8217 0.0
O102 O 0.03646 0.77686 0.69971 0.0
O103 O 0.0441 0.79462 0.69017 0.0
C104 C 0.03763 0.78488 0.67645 0.0
C105 C 0.07243 0.82455 0.77636 0.0
C106 C 0.03759 0.79236 0.82225 0.0
C107 C 0.0663 0.78872 0.77813 0.0
O108 O 0.06749 0.79693 0.79905 0.0
O109 O 0.05887 0.78432 0.74993 0.0
O110 O 0.07067 0.82035 0.81419 0.0
O111 O 0.06684 0.81831 0.74496 0.0
O112 O 0.20991 0.24596 0.79841 0.0
Cd113 Cd 0.21124 0.25624 0.74906 0.0
Cd114 Cd 0.19331 0.25526 0.79875 0.0
O115 O 0.19615 0.24486 0.8357 0.0
O116 O 0.22284 0.25617 0.71332 0.0
O117 O 0.20608 0.24979 0.68985 0.0
C118 C 0.2158 0.25153 0.6832 0.0
C119 C 0.17526 0.25112 0.78898 0.0
C120 C 0.20341 0.24225 0.83005 0.0
C121 C 0.21369 0.2772 0.78521 0.0
O122 O 0.20439 0.27163 0.80248 0.0
O123 O 0.21764 0.27264 0.76203 0.0
O124 O 0.18012 0.2543 0.82543 0.0
O125 O 0.18059 0.25 0.75769 0.0
O126 O 0.96362 0.74942 0.20036 0.0
Cd127 Cd 0.95441 0.7424 0.25485 0.0
Cd128 Cd 0.94023 0.74641 0.20845 0.0
O129 O 0.95405 0.75639 0.17374 0.0
O130 O 0.96492 0.74158 0.29492 0.0
O131 O 0.95752 0.75177 0.30777 0.0
C132 C 0.96414 0.74848 0.31929 0.0
C133 C 0.92784 0.75232 0.22296 0.0
C134 C 0.96246 0.75541 0.17303 0.0
C135 C 0.93455 0.72313 0.22138 0.0
O136 O 0.93326 0.72984 0.19871 0.0
O137 O 0.94187 0.7265 0.25013 0.0
O138 O 0.92913 0.74964 0.18485 0.0
O139 O 0.93384 0.75192 0.25326 0.0
O140 O 0.24702 0.21144 0.19527 0.0
Cd141 Cd 0.25697 0.21345 0.24662 0.0
Cd142 Cd 0.25626 0.19467 0.20517 0.0
O143 O 0.24645 0.19726 0.16343 0.0
O144 O 0.25619 0.22486 0.28101 0.0
O145 O 0.25018 0.2082 0.30515 0.0
C146 C 0.25154 0.21781 0.31111 0.0
C147 C 0.25191 0.17657 0.2158 0.0
C148 C 0.2437 0.20451 0.16506 0.0
C149 C 0.27817 0.21533 0.21795 0.0
O150 O 0.27275 0.20556 0.20486 0.0
O151 O 0.27344 0.21994 0.23542 0.0
O152 O 0.25579 0.18156 0.18006 0.0
O153 O 0.25023 0.18179 0.24593 0.0
O154 O 0.79144 0.03557 0.19731 0.0
Cd155 Cd 0.7887 0.04392 0.24508 0.0
Cd156 Cd 0.80711 0.06168 0.20003 0.0
O157 O 0.80476 0.04894 0.16081 0.0
O158 O 0.77696 0.03168 0.27818 0.0
O159 O 0.79305 0.04286 0.30604 0.0
C160 C 0.78351 0.03441 0.31029 0.0
C161 C 0.82515 0.07539 0.21194 0.0
C162 C 0.79804 0.03888 0.16599 0.0
C163 C 0.78615 0.0624 0.20966 0.0
O164 O 0.79597 0.06693 0.19708 0.0
O165 O 0.78179 0.05328 0.22888 0.0
O166 O 0.82041 0.07425 0.17553 0.0
O167 O 0.81966 0.0686 0.2421 0.0
O168 O 0.91485 0.37147 0.53338 0.0
Cd169 Cd 0.92427 0.37996 0.58496 0.0
Cd170 Cd 0.92234 0.39694 0.54238 0.0
O171 O 0.91207 0.38397 0.50352 0.0
O172 O 0.92407 0.36816 0.62016 0.0
O173 O 0.91716 0.37814 0.64301 0.0
C174 C 0.91899 0.37022 0.64957 0.0
C175 C 0.91724 0.41002 0.55596 0.0
C176 C 0.91047 0.37433 0.50453 0.0
C177 C 0.94482 0.39935 0.55292 0.0
O178 O 0.93896 0.40303 0.53798 0.0
O179 O 0.94056 0.39046 0.57373 0.0
O180 O 0.92065 0.40905 0.51886 0.0
O181 O 0.91657 0.40342 0.58588 0.0
O182 O 0.63132 0.5454 0.53239 0.0
Cd183 Cd 0.62235 0.54477 0.58508 0.0
Cd184 Cd 0.60642 0.52622 0.53964 0.0
O185 O 0.61993 0.52958 0.5028 0.0
O186 O 0.63341 0.5561 0.62356 0.0
O187 O 0.62452 0.53867 0.64053 0.0
C188 C 0.6318 0.54851 0.65018 0.0
C189 C 0.59334 0.50792 0.55128 0.0
C190 C 0.62914 0.53825 0.50369 0.0
C191 C 0.60296 0.54557 0.55222 0.0
O192 O 0.59999 0.53646 0.53427 0.0
O193 O 0.61133 0.54997 0.57606 0.0
O194 O 0.59471 0.51243 0.51421 0.0
O195 O 0.59962 0.51376 0.58215 0.0
O196 O 0.45687 0.0859 0.53947 0.0
Cd197 Cd 0.45824 0.07799 0.59253 0.0
Cd198 Cd 0.47678 0.08142 0.54523 0.0
O199 O 0.47276 0.09109 0.50902 0.0
O200 O 0.44675 0.07719 0.63163 0.0
O201 O 0.46424 0.08665 0.64731 0.0
C202 C 0.45431 0.08361 0.65755 0.0
C203 C 0.49525 0.08728 0.55612 0.0
C204 C 0.46383 0.09112 0.51037 0.0
C205 C 0.45843 0.05827 0.55931 0.0
O206 O 0.46708 0.06476 0.53924 0.0
O207 O 0.45404 0.06191 0.58499 0.0
O208 O 0.49072 0.08413 0.51908 0.0
O209 O 0.48933 0.0874 0.58737 0.0
O210 O 0.7028 0.58084 0.12928 0.0
Cd211 Cd 0.71208 0.59015 0.07877 0.0
Cd212 Cd 0.72835 0.58787 0.12347 0.0
O213 O 0.71494 0.57779 0.1608 0.0
O214 O 0.70132 0.59026 0.03808 0.0
O215 O 0.71114 0.58257 0.02275 0.0
C216 C 0.70372 0.58481 0.01162 0.0
C217 C 0.74149 0.58268 0.11314 0.0
C218 C 0.70537 0.57634 0.15871 0.0
C219 C 0.73138 0.61052 0.11237 0.0
O220 O 0.73479 0.60451 0.12815 0.0
O221 O 0.72266 0.60642 0.09054 0.0
O222 O 0.74001 0.58589 0.14985 0.0
O223 O 0.73528 0.58214 0.08182 0.0
O224 O 0.41907 0.12085 0.13413 0.0
Cd225 Cd 0.41074 0.12202 0.08205 0.0
Cd226 Cd 0.41356 0.14008 0.12971 0.0
O227 O 0.42373 0.13657 0.16505 0.0
O228 O 0.41039 0.11113 0.04071 0.0
O229 O 0.41921 0.12879 0.02763 0.0
C230 C 0.41652 0.11906 0.0156 0.0
C231 C 0.41891 0.15838 0.11742 0.0
C232 C 0.42419 0.12786 0.16319 0.0
C233 C 0.39069 0.12123 0.11698 0.0
O234 O 0.397 0.12993 0.1371 0.0
O235 O 0.39451 0.11717 0.09061 0.0
O236 O 0.416 0.15402 0.15486 0.0
O237 O 0.41905 0.15238 0.08654 0.0
O238 O 0.87819 0.30025 0.13427 0.0
Cd239 Cd 0.87827 0.29077 0.08471 0.0
Cd240 Cd 0.85941 0.27516 0.12943 0.0
O241 O 0.86237 0.2889 0.16369 0.0
O242 O 0.89002 0.30168 0.04723 0.0
O243 O 0.8729 0.29227 0.02634 0.0
C244 C 0.8828 0.29969 0.01827 0.0
C245 C 0.84134 0.26221 0.11396 0.0
C246 C 0.87087 0.29822 0.16199 0.0
C247 C 0.87875 0.27159 0.12319 0.0
O248 O 0.86948 0.2687 0.13946 0.0
O249 O 0.88336 0.27985 0.09871 0.0
O250 O 0.84508 0.26385 0.15254 0.0
O251 O 0.84781 0.26812 0.08366 0.0
O252 O 0.42427 0.29772 0.13751 0.0
Cd253 Cd 0.41374 0.28962 0.08785 0.0
Cd254 Cd 0.4142 0.27157 0.13083 0.0
O255 O 0.42446 0.28413 0.17118 0.0
O256 O 0.41443 0.30192 0.0545 0.0
O257 O 0.41965 0.29087 0.02768 0.0
C258 C 0.41849 0.29928 0.02294 0.0
C259 C 0.41866 0.25798 0.11775 0.0
C260 C 0.42755 0.29419 0.16813 0.0
C261 C 0.39251 0.2708 0.12029 0.0
O262 O 0.39776 0.26625 0.13318 0.0
O263 O 0.39737 0.28001 0.10174 0.0
O264 O 0.41505 0.25897 0.1544 0.0
O265 O 0.41987 0.26484 0.08801 0.0
O266 O 0.70415 0.12566 0.13479 0.0
Cd267 Cd 0.71117 0.1232 0.08132 0.0
Cd268 Cd 0.73005 0.14095 0.12264 0.0
O269 O 0.71849 0.13868 0.16827 0.0
O270 O 0.69825 0.11246 0.04801 0.0
O271 O 0.70967 0.1289 0.02371 0.0
C272 C 0.70094 0.11963 0.0182 0.0
C273 C 0.74417 0.15872 0.11003 0.0
C274 C 0.70831 0.13205 0.16652 0.0
C275 C 0.72972 0.11963 0.10476 0.0
O276 O 0.73473 0.12939 0.11804 0.0
O277 O 0.72019 0.11553 0.08928 0.0
O278 O 0.74383 0.15348 0.14421 0.0
O279 O 0.73628 0.15403 0.08293 0.0
O280 O 0.8789 0.58125 0.13358 0.0
Cd281 Cd 0.87764 0.58965 0.0817 0.0
Cd282 Cd 0.85931 0.58598 0.12936 0.0
O283 O 0.86263 0.57531 0.16166 0.0
O284 O 0.88905 0.59067 0.04157 0.0
O285 O 0.87151 0.58131 0.02643 0.0
C286 C 0.88142 0.58441 0.01555 0.0
C287 C 0.84111 0.5811 0.11778 0.0
C288 C 0.87162 0.5754 0.16076 0.0
C289 C 0.87777 0.60907 0.11934 0.0
O290 O 0.86943 0.60239 0.14051 0.0
O291 O 0.88173 0.6057 0.09063 0.0
O292 O 0.84541 0.58335 0.15546 0.0
O293 O 0.84708 0.58127 0.08619 0.0
O294 O 0.63224 0.08864 0.53331 0.0
Cd295 Cd 0.62254 0.07904 0.58288 0.0
Cd296 Cd 0.60681 0.08051 0.53107 0.0
O297 O 0.62028 0.09059 0.49473 0.0
O298 O 0.63349 0.07899 0.62266 0.0
O299 O 0.62352 0.08637 0.63976 0.0
C300 C 0.63113 0.08431 0.64988 0.0
C301 C 0.594 0.08587 0.54548 0.0
C302 C 0.62996 0.09263 0.50114 0.0
C303 C 0.60391 0.05823 0.5465 0.0
O304 O 0.60085 0.06401 0.52634 0.0
O305 O 0.612 0.06261 0.57195 0.0
O306 O 0.59497 0.08268 0.50785 0.0
O307 O 0.60048 0.08619 0.5753 0.0
O308 O 0.91542 0.54614 0.53452 0.0
Cd309 Cd 0.92413 0.5461 0.58713 0.0
Cd310 Cd 0.92167 0.52716 0.54513 0.0
O311 O 0.912 0.53056 0.50552 0.0
O312 O 0.92408 0.55716 0.62641 0.0
O313 O 0.91604 0.53968 0.64255 0.0
C314 C 0.91834 0.54941 0.65288 0.0
C315 C 0.91603 0.5088 0.55779 0.0
C316 C 0.91092 0.53893 0.50561 0.0
C317 C 0.94445 0.54653 0.55717 0.0
O318 O 0.93837 0.5371 0.54164 0.0
O319 O 0.9404 0.55138 0.57777 0.0
O320 O 0.91957 0.51326 0.5209 0.0
O321 O 0.91544 0.51473 0.58791 0.0
O322 O 0.45922 0.3689 0.53368 0.0
Cd323 Cd 0.45681 0.37731 0.58221 0.0
Cd324 Cd 0.47492 0.39497 0.53535 0.0
O325 O 0.4726 0.38212 0.49688 0.0
O326 O 0.44509 0.36504 0.6153 0.0
O327 O 0.46125 0.37607 0.64286 0.0
C328 C 0.4517 0.36764 0.64715 0.0
C329 C 0.49292 0.40867 0.54819 0.0
C330 C 0.46578 0.37209 0.50219 0.0
C331 C 0.45398 0.39565 0.54641 0.0
O332 O 0.46363 0.40004 0.53188 0.0
O333 O 0.44991 0.38677 0.56725 0.0
O334 O 0.48836 0.40749 0.51131 0.0
O335 O 0.48726 0.40195 0.57829 0.0
O336 O 0.58156 0.70268 0.86351 0.0
Cd337 Cd 0.59134 0.71161 0.91419 0.0
Cd338 Cd 0.59047 0.72836 0.86611 0.0
O339 O 0.57975 0.71531 0.82937 0.0
O340 O 0.59076 0.70001 0.95194 0.0
O341 O 0.5842 0.71054 0.97158 0.0
C342 C 0.58578 0.70254 0.98016 0.0
C343 C 0.58662 0.74239 0.87818 0.0
C344 C 0.57753 0.7055 0.83312 0.0
C345 C 0.61236 0.72989 0.87883 0.0
O346 O 0.60676 0.7334 0.86019 0.0
O347 O 0.60785 0.72168 0.9036 0.0
O348 O 0.58957 0.74078 0.8411 0.0
O349 O 0.58559 0.73581 0.90884 0.0
O350 O 0.29843 0.87962 0.86749 0.0
Cd351 Cd 0.28954 0.87972 0.9195 0.0
Cd352 Cd 0.27335 0.86103 0.87449 0.0
O353 O 0.28663 0.86408 0.83727 0.0
O354 O 0.30102 0.89135 0.95573 0.0
O355 O 0.29161 0.87425 0.97677 0.0
C356 C 0.29924 0.88409 0.98425 0.0
C357 C 0.26019 0.84277 0.88619 0.0
C358 C 0.29604 0.87247 0.83859 0.0
C359 C 0.27014 0.88054 0.88583 0.0
O360 O 0.26712 0.87137 0.86838 0.0
O361 O 0.27855 0.88498 0.90952 0.0
O362 O 0.26161 0.84729 0.84912 0.0
O363 O 0.26644 0.84859 0.91716 0.0
O364 O 0.12455 0.42257 0.86903 0.0
Cd365 Cd 0.12341 0.41216 0.91765 0.0
Cd366 Cd 0.14175 0.4142 0.86881 0.0
O367 O 0.13898 0.42483 0.83336 0.0
O368 O 0.11173 0.41199 0.9537 0.0
O369 O 0.12847 0.41827 0.97734 0.0
C370 C 0.11874 0.41651 0.98401 0.0
C371 C 0.15978 0.41849 0.8801 0.0
C372 C 0.13133 0.4269 0.83852 0.0
C373 C 0.12172 0.39183 0.87873 0.0
O374 O 0.13095 0.39785 0.86157 0.0
O375 O 0.11753 0.39587 0.90346 0.0
O376 O 0.15525 0.41572 0.84293 0.0
O377 O 0.15414 0.41913 0.9113 0.0
O378 O 0.37076 0.91627 0.46663 0.0
Cd379 Cd 0.38022 0.92491 0.41495 0.0
Cd380 Cd 0.39517 0.92124 0.46175 0.0
O381 O 0.38129 0.91061 0.49492 0.0
O382 O 0.36937 0.92572 0.37697 0.0
O383 O 0.37804 0.91707 0.3584 0.0
C384 C 0.37085 0.91981 0.34948 0.0
C385 C 0.40845 0.91628 0.45081 0.0
C386 C 0.37232 0.91054 0.49393 0.0
C387 C 0.3996 0.94437 0.45196 0.0
O388 O 0.40156 0.93771 0.47183 0.0
O389 O 0.39195 0.94097 0.4246 0.0
O390 O 0.40645 0.9187 0.48825 0.0
O391 O 0.40264 0.91635 0.41905 0.0
O392 O 0.09002 0.45962 0.47193 0.0
Cd393 Cd 0.07993 0.45726 0.42066 0.0
Cd394 Cd 0.08086 0.47638 0.46031 0.0
O395 O 0.09026 0.47365 0.50369 0.0
O396 O 0.08045 0.44528 0.38942 0.0
O397 O 0.08631 0.4615 0.36092 0.0
C398 C 0.08492 0.45182 0.35762 0.0
C399 C 0.08615 0.49462 0.44655 0.0
C400 C 0.09312 0.46649 0.50233 0.0
C401 C 0.05883 0.45594 0.44864 0.0
O402 O 0.0643 0.46582 0.46034 0.0
O403 O 0.06351 0.45111 0.43258 0.0
O404 O 0.08203 0.49006 0.48277 0.0
O405 O 0.0874 0.48882 0.41759 0.0
O406 O 0.54413 0.63121 0.46407 0.0
Cd407 Cd 0.54573 0.62295 0.41296 0.0
Cd408 Cd 0.52725 0.60538 0.45683 0.0
O409 O 0.53025 0.61791 0.49858 0.0
O410 O 0.55696 0.63497 0.37736 0.0
O411 O 0.54013 0.6243 0.35493 0.0
C412 C 0.54971 0.63251 0.34804 0.0
C413 C 0.50914 0.59177 0.44611 0.0
C414 C 0.53752 0.62787 0.49539 0.0
C415 C 0.54756 0.60367 0.44202 0.0
O416 O 0.53791 0.59953 0.45615 0.0
O417 O 0.55219 0.61293 0.42391 0.0
O418 O 0.51411 0.59279 0.48184 0.0
O419 O 0.51436 0.59878 0.41626 0.0
O420 O 0.08724 0.63155 0.46589 0.0
Cd421 Cd 0.07833 0.62228 0.41461 0.0
Cd422 Cd 0.08067 0.60628 0.46026 0.0
O423 O 0.08998 0.61947 0.49977 0.0
O424 O 0.07806 0.63312 0.37478 0.0
O425 O 0.08618 0.62376 0.35868 0.0
C426 C 0.08374 0.63108 0.34815 0.0
C427 C 0.0868 0.59399 0.44686 0.0
C428 C 0.09137 0.62902 0.49684 0.0
C429 C 0.05794 0.60258 0.44644 0.0
O430 O 0.06396 0.59929 0.46292 0.0
O431 O 0.06205 0.61138 0.42509 0.0
O432 O 0.08316 0.59468 0.4839 0.0
O433 O 0.08721 0.60052 0.41707 0.0
O434 O 0.37026 0.45886 0.47117 0.0
Cd435 Cd 0.37745 0.45517 0.4217 0.0
Cd436 Cd 0.39625 0.47316 0.4625 0.0
O437 O 0.38455 0.47146 0.50622 0.0
O438 O 0.36432 0.44422 0.39014 0.0
O439 O 0.3766 0.45977 0.36107 0.0
C440 C 0.36748 0.45075 0.35788 0.0
C441 C 0.41025 0.49091 0.44841 0.0
C442 C 0.37433 0.46535 0.50264 0.0
C443 C 0.39574 0.45161 0.45042 0.0
O444 O 0.40092 0.46156 0.46128 0.0
O445 O 0.38616 0.44737 0.43524 0.0
O446 O 0.40958 0.48612 0.48428 0.0
O447 O 0.40278 0.48565 0.42009 0.0
O448 O 0.5435 0.91181 0.46848 0.0
Cd449 Cd 0.5452 0.92259 0.42051 0.0
Cd450 Cd 0.52698 0.92091 0.46884 0.0
O451 O 0.5293 0.91002 0.50442 0.0
O452 O 0.55677 0.92226 0.38555 0.0
O453 O 0.54033 0.91693 0.36018 0.0
C454 C 0.54989 0.91814 0.35459 0.0
C455 C 0.50905 0.91673 0.45585 0.0
C456 C 0.5367 0.90761 0.49894 0.0
C457 C 0.54733 0.94307 0.45992 0.0
O458 O 0.538 0.9372 0.47658 0.0
O459 O 0.55145 0.93891 0.43542 0.0
O460 O 0.51337 0.91942 0.49342 0.0
O461 O 0.51489 0.91622 0.42512 0.0
O462 O 0.29973 0.42317 0.86615 0.0
Cd463 Cd 0.29103 0.41258 0.915 0.0
Cd464 Cd 0.27392 0.41399 0.8701 0.0
O465 O 0.28689 0.42485 0.83316 0.0
O466 O 0.30306 0.41329 0.95021 0.0
O467 O 0.2917 0.41838 0.97488 0.0
C468 C 0.30014 0.41735 0.98087 0.0
C469 C 0.25995 0.41795 0.88192 0.0
C470 C 0.29677 0.42729 0.8366 0.0
C471 C 0.27252 0.39192 0.87847 0.0
O472 O 0.26869 0.39764 0.86362 0.0
O473 O 0.28119 0.39625 0.90075 0.0
O474 O 0.2616 0.41503 0.84486 0.0
O475 O 0.2664 0.41882 0.91282 0.0
O476 O 0.57756 0.87527 0.86368 0.0
Cd477 Cd 0.58814 0.87867 0.91409 0.0
Cd478 Cd 0.58851 0.85999 0.87484 0.0
O479 O 0.57825 0.86168 0.83235 0.0
O480 O 0.58632 0.88987 0.94562 0.0
O481 O 0.58246 0.87413 0.97452 0.0
C482 C 0.58273 0.88332 0.97784 0.0
C483 C 0.58522 0.84221 0.88529 0.0
C484 C 0.57472 0.86831 0.83373 0.0
C485 C 0.60974 0.88163 0.88523 0.0
O486 O 0.60477 0.87165 0.87457 0.0
O487 O 0.60461 0.88604 0.90086 0.0
O488 O 0.58894 0.84733 0.84969 0.0
O489 O 0.58315 0.84713 0.91551 0.0
O490 O 0.12315 0.70378 0.87224 0.0
Cd491 Cd 0.12438 0.71337 0.92415 0.0
Cd492 Cd 0.1426 0.72843 0.8758 0.0
O493 O 0.13882 0.71467 0.84066 0.0
O494 O 0.11306 0.70287 0.96422 0.0
O495 O 0.13062 0.71114 0.9791 0.0
C496 C 0.12074 0.70425 0.98998 0.0
C497 C 0.16095 0.74143 0.88634 0.0
C498 C 0.13008 0.70555 0.84298 0.0
C499 C 0.12412 0.73295 0.88923 0.0
O500 O 0.1327 0.7351 0.8687 0.0
O501 O 0.11995 0.72509 0.91569 0.0
O502 O 0.15641 0.73972 0.84921 0.0
O503 O 0.15514 0.73544 0.9179 0.0
H504 H 0.23432 0.98301 0.66114 0.0
H505 H 0.23972 0.99493 0.59881 0.0
H506 H 0.20904 0.97338 0.53784 0.0
H507 H 0.20343 0.9615 0.60108 0.0
H508 H 0.24332 0.99258 0.51993 0.0
H509 H 0.20178 0.98806 0.47263 0.0
H510 H 0.18461 0.98432 0.50713 0.0
H511 H 0.20135 0.99684 0.62663 0.0
H512 H 0.21864 0.00078 0.59272 0.0
H513 H 0.24773 0.01403 0.31329 0.0
H514 H 0.24153 0.00245 0.37668 0.0
H515 H 0.2366 0.02633 0.44289 0.0
H516 H 0.24249 0.03787 0.3786 0.0
H517 H 0.22047 0.00682 0.46052 0.0
H518 H 0.25915 0.02347 0.4628 0.0
H519 H 0.27739 0.02906 0.43404 0.0
H520 H 0.26826 0.99561 0.41536 0.0
H521 H 0.24992 0.98981 0.4435 0.0
C522 C 0.2287 0.98076 0.63449 0.0
C523 C 0.21843 0.9713 0.63613 0.0
C524 C 0.23182 0.9876 0.59877 0.0
C525 C 0.22477 0.98514 0.56371 0.0
C526 C 0.21456 0.97557 0.5648 0.0
C527 C 0.21139 0.96874 0.60084 0.0
C528 C 0.22822 0.9926 0.52611 0.0
C529 C 0.23829 0.99566 0.50694 0.0
C530 C 0.22181 0.99685 0.50961 0.0
C531 C 0.21147 0.9946 0.53022 0.0
C532 C 0.2018 0.99004 0.50623 0.0
C533 C 0.19204 0.98789 0.52569 0.0
C534 C 0.19188 0.99031 0.56908 0.0
C535 C 0.20148 0.99493 0.59307 0.0
C536 C 0.21125 0.99711 0.57376 0.0
C537 C 0.24535 0.01685 0.34133 0.0
C538 C 0.24569 0.02692 0.34104 0.0
C539 C 0.24183 0.01022 0.37766 0.0
C540 C 0.23877 0.01359 0.41492 0.0
C541 C 0.23894 0.02357 0.41457 0.0
C542 C 0.24235 0.03017 0.3779 0.0
C543 C 0.2355 0.00668 0.45415 0.0
C544 C 0.22547 0.00371 0.47353 0.0
C545 C 0.24209 0.00276 0.47171 0.0
C546 C 0.25313 0.00621 0.45491 0.0
C547 C 0.26101 0.01731 0.45228 0.0
C548 C 0.27137 0.02051 0.43614 0.0
C549 C 0.27397 0.0127 0.42279 0.0
C550 C 0.26623 0.00165 0.42567 0.0
C551 C 0.25585 0.9984 0.44176 0.0
H552 H 0.28199 0.0152 0.41029 0.0
H553 H 0.18432 0.98862 0.58409 0.0
H554 H 0.0307 0.23274 0.6372 0.0
H555 H 0.01815 0.22528 0.57632 0.0
H556 H 0.01444 0.25366 0.57631 0.0
H557 H 0.02646 0.26079 0.63837 0.0
H558 H 0.99576 0.23726 0.56997 0.0
H559 H 0.02948 0.24793 0.49712 0.0
H560 H 0.04684 0.24846 0.48324 0.0
H561 H 0.02977 0.2139 0.46374 0.0
H562 H 0.01231 0.21314 0.47804 0.0
H563 H 0.97601 0.2354 0.35872 0.0
H564 H 0.98772 0.23976 0.42176 0.0
H565 H 0.97863 0.20603 0.43433 0.0
H566 H 0.96663 0.20152 0.37149 0.0
H567 H 0.00264 0.22286 0.43581 0.0
H568 H 0.96853 0.21339 0.50359 0.0
H569 H 0.95173 0.21422 0.51333 0.0
H570 H 0.97062 0.24851 0.53791 0.0
H571 H 0.98754 0.24792 0.52768 0.0
C572 C 0.02731 0.23743 0.62373 0.0
C573 C 0.02953 0.24733 0.64247 0.0
C574 C 0.02015 0.23318 0.58885 0.0
C575 C 0.01535 0.23892 0.57136 0.0
C576 C 0.01793 0.24901 0.58929 0.0
C577 C 0.02486 0.25312 0.62465 0.0
C578 C 0.00725 0.23429 0.53583 0.0
C579 C 0.99736 0.23422 0.54053 0.0
C580 C 0.00912 0.23003 0.49768 0.0
C581 C 0.01961 0.23046 0.48914 0.0
C582 C 0.02944 0.24043 0.49022 0.0
C583 C 0.03929 0.24078 0.48221 0.0
C584 C 0.03941 0.23122 0.47275 0.0
C585 C 0.02967 0.2213 0.47116 0.0
C586 C 0.01979 0.2209 0.47918 0.0
C587 C 0.97642 0.22888 0.37506 0.0
C588 C 0.97038 0.21811 0.36027 0.0
C589 C 0.98312 0.23139 0.41103 0.0
C590 C 0.98403 0.22322 0.43255 0.0
C591 C 0.97802 0.21244 0.41802 0.0
C592 C 0.97113 0.20988 0.38239 0.0
C593 C 0.9914 0.2261 0.46996 0.0
C594 C 0.00109 0.22582 0.46556 0.0
C595 C 0.98947 0.23026 0.50805 0.0
C596 C 0.9793 0.23062 0.51452 0.0
C597 C 0.96911 0.22112 0.51071 0.0
C598 C 0.95956 0.22155 0.5164 0.0
C599 C 0.96011 0.23141 0.52614 0.0
C600 C 0.97021 0.24087 0.53033 0.0
C601 C 0.97978 0.24049 0.52465 0.0
H602 H 0.95271 0.23172 0.53053 0.0
H603 H 0.04705 0.2315 0.46655 0.0
H604 H 0.76992 0.75438 0.32621 0.0
H605 H 0.76511 0.76084 0.39078 0.0
H606 H 0.79172 0.76127 0.459 0.0
H607 H 0.79682 0.75507 0.39393 0.0
H608 H 0.76382 0.74891 0.48806 0.0
H609 H 0.79991 0.78199 0.46126 0.0
H610 H 0.81282 0.79608 0.4116 0.0
H611 H 0.78856 0.80437 0.37757 0.0
H612 H 0.77546 0.7902 0.4266 0.0
H613 H 0.76001 0.77043 0.68578 0.0
H614 H 0.76635 0.7651 0.62268 0.0
H615 H 0.76069 0.78691 0.54458 0.0
H616 H 0.75494 0.79277 0.60868 0.0
H617 H 0.77814 0.78806 0.51841 0.0
H618 H 0.74293 0.75792 0.54704 0.0
H619 H 0.72817 0.74346 0.5898 0.0
H620 H 0.74782 0.7288 0.61252 0.0
H621 H 0.76275 0.74326 0.57034 0.0
C622 C 0.77477 0.75585 0.3549 0.0
C623 C 0.78376 0.75421 0.35501 0.0
C624 C 0.77202 0.75957 0.39166 0.0
C625 C 0.77812 0.7616 0.42933 0.0
C626 C 0.787 0.75985 0.42994 0.0
C627 C 0.78989 0.75629 0.39286 0.0
C628 C 0.77494 0.7653 0.46821 0.0
C629 C 0.76707 0.75746 0.49536 0.0
C630 C 0.77882 0.77642 0.4762 0.0
C631 C 0.78669 0.78496 0.44709 0.0
C632 C 0.79731 0.78674 0.44281 0.0
C633 C 0.80466 0.79476 0.41488 0.0
C634 C 0.8015 0.80109 0.39132 0.0
C635 C 0.79099 0.79944 0.39576 0.0
C636 C 0.7836 0.79143 0.42361 0.0
C637 C 0.76009 0.77408 0.65514 0.0
C638 C 0.75687 0.78193 0.65202 0.0
C639 C 0.76367 0.77098 0.61895 0.0
C640 C 0.76375 0.77537 0.57845 0.0
C641 C 0.76067 0.78335 0.57536 0.0
C642 C 0.75734 0.78667 0.61192 0.0
C643 C 0.76713 0.77166 0.53963 0.0
C644 C 0.77493 0.77949 0.51189 0.0
C645 C 0.76298 0.76047 0.53058 0.0
C646 C 0.754 0.75173 0.55585 0.0
C647 C 0.74413 0.75166 0.56139 0.0
C648 C 0.73573 0.74345 0.58549 0.0
C649 C 0.73707 0.73523 0.60395 0.0
C650 C 0.7468 0.73518 0.59825 0.0
C651 C 0.75523 0.74337 0.57421 0.0
H652 H 0.73055 0.72888 0.62261 0.0
H653 H 0.8072 0.8073 0.36973 0.0
H654 H 0.75138 0.98627 0.6745 0.0
H655 H 0.75731 0.99746 0.61002 0.0
H656 H 0.76277 0.97358 0.54675 0.0
H657 H 0.75707 0.9624 0.612 0.0
H658 H 0.77888 0.99348 0.5291 0.0
H659 H 0.74012 0.97554 0.52455 0.0
H660 H 0.72167 0.96942 0.55207 0.0
H661 H 0.72952 0.00261 0.56736 0.0
H662 H 0.74807 0.00893 0.54046 0.0
H663 H 0.76469 0.01538 0.32379 0.0
H664 H 0.7594 0.0037 0.38681 0.0
H665 H 0.78934 0.02646 0.44971 0.0
H666 H 0.79485 0.03813 0.38588 0.0
H667 H 0.75519 0.00618 0.46516 0.0
H668 H 0.79717 0.01264 0.51731 0.0
H669 H 0.81473 0.01701 0.4847 0.0
H670 H 0.79882 0.00367 0.36445 0.0
H671 H 0.78116 0.99909 0.39648 0.0
C672 C 0.75382 0.98336 0.6469 0.0
C673 C 0.75368 0.97339 0.64827 0.0
C674 C 0.75718 0.98977 0.60996 0.0
C675 C 0.76033 0.9863 0.57328 0.0
C676 C 0.76035 0.97642 0.57466 0.0
C677 C 0.75705 0.97001 0.61187 0.0
C678 C 0.76351 0.99299 0.53356 0.0
C679 C 0.7737 0.99625 0.51508 0.0
C680 C 0.75668 0.99647 0.51478 0.0
C681 C 0.74552 0.9927 0.53083 0.0
C682 C 0.73794 0.98153 0.53407 0.0
C683 C 0.72745 0.97803 0.54951 0.0
C684 C 0.72443 0.98563 0.56155 0.0
C685 C 0.73187 0.99674 0.55806 0.0
C686 C 0.74237 1.00029 0.54268 0.0
C687 C 0.77017 0.01795 0.35101 0.0
C688 C 0.78021 0.02769 0.34977 0.0
C689 C 0.76711 0.01125 0.38711 0.0
C690 C 0.774 0.01413 0.42292 0.0
C691 C 0.78396 0.02397 0.42219 0.0
C692 C 0.78707 0.03067 0.38581 0.0
C693 C 0.77063 0.0068 0.46089 0.0
C694 C 0.76039 0.00343 0.47914 0.0
C695 C 0.7773 0.003 0.47868 0.0
C696 C 0.78787 0.00563 0.4592 0.0
C697 C 0.79742 0.01061 0.48395 0.0
C698 C 0.80739 0.01313 0.46556 0.0
C699 C 0.8079 0.01066 0.42249 0.0
C700 C 0.79843 0.00562 0.39776 0.0
C701 C 0.78844 0.00307 0.416 0.0
H702 H 0.81563 0.01262 0.40831 0.0
H703 H 0.71631 0.9829 0.5735 0.0
H704 H 0.02819 0.7663 0.62911 0.0
H705 H 0.01646 0.76218 0.56629 0.0
H706 H 0.02054 0.79435 0.57118 0.0
H707 H 0.03251 0.79864 0.63395 0.0
H708 H 0.99808 0.77636 0.56491 0.0
H709 H 0.03248 0.79032 0.49445 0.0
H710 H 0.0503 0.79197 0.47992 0.0
H711 H 0.03459 0.75832 0.4436 0.0
H712 H 0.01667 0.75642 0.45852 0.0
H713 H 0.96884 0.76671 0.36603 0.0
H714 H 0.9818 0.77462 0.42546 0.0
H715 H 0.98797 0.74782 0.41933 0.0
H716 H 0.97536 0.74012 0.35932 0.0
H717 H 0.0063 0.76572 0.42425 0.0
H718 H 0.97239 0.75085 0.50101 0.0
H719 H 0.9543 0.74827 0.51829 0.0
H720 H 0.96859 0.78235 0.54532 0.0
H721 H 0.98676 0.78516 0.52766 0.0
C722 C 0.02669 0.77255 0.6166 0.0
C723 C 0.03129 0.7828 0.63639 0.0
C724 C 0.01999 0.77018 0.58069 0.0
C725 C 0.01765 0.77796 0.56413 0.0
C726 C 0.02227 0.78825 0.58355 0.0
C727 C 0.02914 0.7907 0.61916 0.0
C728 C 0.01011 0.77512 0.52721 0.0
C729 C 0.99993 0.77423 0.53381 0.0
C730 C 0.01246 0.7721 0.48712 0.0
C731 C 0.02323 0.77321 0.47794 0.0
C732 C 0.03283 0.78325 0.48371 0.0
C733 C 0.04295 0.78423 0.47533 0.0
C734 C 0.04358 0.77525 0.46093 0.0
C735 C 0.03409 0.76527 0.45478 0.0
C736 C 0.02394 0.76424 0.46315 0.0
C737 C 0.97288 0.76246 0.37772 0.0
C738 C 0.97108 0.7528 0.35795 0.0
C739 C 0.98028 0.76698 0.41175 0.0
C740 C 0.98586 0.76181 0.4271 0.0
C741 C 0.98384 0.75202 0.40797 0.0
C742 C 0.97658 0.74759 0.37373 0.0
C743 C 0.99409 0.76667 0.46205 0.0
C744 C 0.00444 0.76795 0.45509 0.0
C745 C 0.99182 0.76991 0.50198 0.0
C746 C 0.98091 0.76824 0.51251 0.0
C747 C 0.97166 0.75781 0.51028 0.0
C748 C 0.9614 0.7563 0.52021 0.0
C749 C 0.96029 0.76515 0.53275 0.0
C750 C 0.96946 0.77552 0.53551 0.0
C751 C 0.97974 0.77707 0.52556 0.0
H752 H 0.95234 0.76396 0.54045 0.0
H753 H 0.05143 0.77603 0.45445 0.0
H754 H 0.25452 0.23767 0.333 0.0
H755 H 0.24765 0.24249 0.39596 0.0
H756 H 0.23253 0.20932 0.44053 0.0
H757 H 0.23959 0.20445 0.37763 0.0
H758 H 0.2277 0.23611 0.42217 0.0
H759 H 0.23235 0.20952 0.55091 0.0
H760 H 0.24374 0.2013 0.56611 0.0
H761 H 0.26988 0.22639 0.49296 0.0
H762 H 0.25869 0.23482 0.4778 0.0
H763 H 0.20247 0.23906 0.6175 0.0
H764 H 0.20763 0.23243 0.55404 0.0
H765 H 0.2411 0.24947 0.59553 0.0
H766 H 0.236 0.2559 0.65903 0.0
H767 H 0.23578 0.22975 0.57081 0.0
H768 H 0.23181 0.2591 0.51347 0.0
H769 H 0.22216 0.26912 0.49822 0.0
H770 H 0.1977 0.2417 0.42834 0.0
H771 H 0.20714 0.23146 0.44366 0.0
C772 C 0.24978 0.23139 0.35625 0.0
C773 C 0.24764 0.22068 0.35035 0.0
C774 C 0.2458 0.23415 0.39215 0.0
C775 C 0.23959 0.22629 0.42306 0.0
C776 C 0.23741 0.21556 0.41734 0.0
C777 C 0.24144 0.21279 0.38138 0.0
C778 C 0.23548 0.22944 0.46119 0.0
C779 C 0.22941 0.23466 0.45468 0.0
C780 C 0.2378 0.22766 0.50363 0.0
C781 C 0.24463 0.22271 0.51281 0.0
C782 C 0.24054 0.21329 0.53816 0.0
C783 C 0.24696 0.2086 0.54676 0.0
C784 C 0.25751 0.2133 0.53037 0.0
C785 C 0.26169 0.22273 0.50548 0.0
C786 C 0.2553 0.22746 0.49682 0.0
C787 C 0.21093 0.24144 0.61289 0.0
C788 C 0.21882 0.24801 0.64329 0.0
C789 C 0.21387 0.23765 0.57662 0.0
C790 C 0.22477 0.24047 0.56994 0.0
C791 C 0.23264 0.24712 0.60009 0.0
C792 C 0.22971 0.25085 0.63632 0.0
C793 C 0.22807 0.23651 0.53181 0.0
C794 C 0.23395 0.23109 0.53831 0.0
C795 C 0.22579 0.23833 0.48936 0.0
C796 C 0.22011 0.24447 0.48012 0.0
C797 C 0.22433 0.25518 0.49514 0.0
C798 C 0.2189 0.2609 0.48643 0.0
C799 C 0.2093 0.25604 0.46244 0.0
C800 C 0.20512 0.24545 0.44699 0.0
C801 C 0.21051 0.23968 0.45565 0.0
H802 H 0.20512 0.26049 0.45572 0.0
H803 H 0.26247 0.20965 0.53705 0.0
H804 H 0.90731 0.37168 0.71708 0.0
H805 H 0.90017 0.35956 0.77947 0.0
H806 H 0.91455 0.34107 0.73206 0.0
H807 H 0.92159 0.35301 0.66982 0.0
H808 H 0.89413 0.32779 0.75835 0.0
H809 H 0.92626 0.35912 0.81348 0.0
H810 H 0.93816 0.3786 0.82948 0.0
H811 H 0.91299 0.37843 0.90646 0.0
H812 H 0.90089 0.35897 0.89045 0.0
H813 H 0.90315 0.3146 0.99162 0.0
H814 H 0.90829 0.32629 0.92857 0.0
H815 H 0.87456 0.31162 0.89181 0.0
H816 H 0.86934 0.2997 0.95486 0.0
H817 H 0.90364 0.34154 0.90758 0.0
H818 H 0.87338 0.31254 0.78131 0.0
H819 H 0.86295 0.29292 0.76489 0.0
H820 H 0.88694 0.28816 0.82969 0.0
H821 H 0.89756 0.30776 0.84601 0.0
C822 C 0.90899 0.36506 0.7201 0.0
C823 C 0.91504 0.36333 0.68853 0.0
C824 C 0.9049 0.35814 0.75574 0.0
C825 C 0.90684 0.34941 0.76044 0.0
C826 C 0.9129 0.34771 0.72899 0.0
C827 C 0.91697 0.3546 0.69352 0.0
C828 C 0.90267 0.34203 0.79813 0.0
C829 C 0.89615 0.3308 0.79101 0.0
C830 C 0.90538 0.34594 0.84071 0.0
C831 C 0.91263 0.35763 0.85037 0.0
C832 C 0.92324 0.36326 0.83353 0.0
C833 C 0.93002 0.37429 0.84265 0.0
C834 C 0.92632 0.37976 0.86886 0.0
C835 C 0.91584 0.37419 0.8861 0.0
C836 C 0.90902 0.36316 0.87703 0.0
C837 C 0.89681 0.31377 0.97001 0.0
C838 C 0.88583 0.30619 0.97825 0.0
C839 C 0.89976 0.32052 0.93405 0.0
C840 C 0.89183 0.31985 0.90543 0.0
C841 C 0.88084 0.31221 0.91323 0.0
C842 C 0.87787 0.3054 0.94926 0.0
C843 C 0.89516 0.32728 0.86783 0.0
C844 C 0.90149 0.33853 0.87497 0.0
C845 C 0.89245 0.32337 0.82523 0.0
C846 C 0.88618 0.31159 0.8153 0.0
C847 C 0.87643 0.30731 0.79195 0.0
C848 C 0.87049 0.29619 0.78267 0.0
C849 C 0.87426 0.2893 0.79638 0.0
C850 C 0.884 0.29351 0.81926 0.0
C851 C 0.88998 0.30461 0.82858 0.0
H852 H 0.86964 0.28069 0.78919 0.0
H853 H 0.93158 0.3883 0.8759 0.0
H854 H 0.64306 0.56812 0.68966 0.0
H855 H 0.65567 0.57306 0.74966 0.0
H856 H 0.64903 0.53995 0.75778 0.0
H857 H 0.63597 0.53486 0.69851 0.0
H858 H 0.65115 0.54767 0.83499 0.0
H859 H 0.67261 0.56045 0.70895 0.0
H860 H 0.6789 0.56985 0.63942 0.0
H861 H 0.68775 0.60034 0.69987 0.0
H862 H 0.68138 0.5911 0.7697 0.0
H863 H 0.69983 0.56688 0.96497 0.0
H864 H 0.68807 0.55948 0.90144 0.0
H865 H 0.68239 0.58658 0.90288 0.0
H866 H 0.69381 0.59383 0.9668 0.0
H867 H 0.68771 0.58028 0.81799 0.0
H868 H 0.66399 0.56587 0.94339 0.0
H869 H 0.65832 0.55578 0.01178 0.0
H870 H 0.65483 0.52728 0.94908 0.0
H871 H 0.66065 0.53726 0.88042 0.0
C872 C 0.64421 0.56186 0.70444 0.0
C873 C 0.63859 0.55112 0.6892 0.0
C874 C 0.65149 0.56471 0.73856 0.0
C875 C 0.65357 0.55696 0.7575 0.0
C876 C 0.64764 0.54611 0.74346 0.0
C877 C 0.64018 0.5432 0.70966 0.0
C878 C 0.66199 0.5603 0.79159 0.0
C879 C 0.6592 0.55468 0.83087 0.0
C880 C 0.67255 0.56944 0.78645 0.0
C881 C 0.67644 0.57506 0.74453 0.0
C882 C 0.67583 0.56915 0.70738 0.0
C883 C 0.67942 0.57445 0.66791 0.0
C884 C 0.6837 0.58568 0.66521 0.0
C885 C 0.68443 0.59164 0.70201 0.0
C886 C 0.68084 0.58638 0.74156 0.0
C887 C 0.69617 0.57131 0.95135 0.0
C888 C 0.69771 0.58091 0.97077 0.0
C889 C 0.68944 0.56706 0.91527 0.0
C890 C 0.68436 0.57249 0.89772 0.0
C891 C 0.68625 0.5823 0.91602 0.0
C892 C 0.69276 0.5864 0.95253 0.0
C893 C 0.67672 0.56782 0.86124 0.0
C894 C 0.67969 0.57318 0.8216 0.0
C895 C 0.66643 0.55834 0.86576 0.0
C896 C 0.66289 0.55235 0.90695 0.0
C897 C 0.66213 0.55748 0.9443 0.0
C898 C 0.65886 0.55178 0.98308 0.0
C899 C 0.65625 0.54091 0.98481 0.0
C900 C 0.65687 0.53571 0.94772 0.0
C901 C 0.66015 0.54138 0.90887 0.0
H902 H 0.65372 0.5365 0.01486 0.0
H903 H 0.68648 0.58978 0.63462 0.0
H904 H 0.43462 0.075 0.69677 0.0
H905 H 0.42942 0.08256 0.75637 0.0
H906 H 0.46233 0.1094 0.76479 0.0
H907 H 0.46768 0.10159 0.70582 0.0
H908 H 0.45443 0.10359 0.84224 0.0
H909 H 0.44181 0.11212 0.71519 0.0
H910 H 0.43252 0.10885 0.64531 0.0
H911 H 0.40199 0.08701 0.70506 0.0
H912 H 0.41112 0.09002 0.77523 0.0
H913 H 0.43504 0.13289 0.97134 0.0
H914 H 0.44267 0.12847 0.90873 0.0
H915 H 0.41493 0.09605 0.90668 0.0
H916 H 0.40742 0.1003 0.9696 0.0
H917 H 0.42175 0.10732 0.82332 0.0
H918 H 0.43579 0.09824 0.94986 0.0
H919 H 0.44565 0.10259 0.01875 0.0
H920 H 0.47446 0.1274 0.95703 0.0
H921 H 0.46471 0.1233 0.88785 0.0
C922 C 0.44078 0.08246 0.71151 0.0
C923 C 0.45154 0.08774 0.69639 0.0
C924 C 0.43778 0.08683 0.74543 0.0
C925 C 0.4454 0.09673 0.76436 0.0
C926 C 0.45627 0.10181 0.75048 0.0
C927 C 0.45933 0.09733 0.71683 0.0
C928 C 0.4419 0.10174 0.79821 0.0
C929 C 0.44741 0.10459 0.83772 0.0
C930 C 0.43272 0.10306 0.79257 0.0
C931 C 0.42717 0.10124 0.75044 0.0
C932 C 0.43312 0.10656 0.71339 0.0
C933 C 0.42789 0.10476 0.67373 0.0
C934 C 0.41668 0.09771 0.67073 0.0
C935 C 0.41068 0.09246 0.70742 0.0
C936 C 0.41587 0.09422 0.74717 0.0
C937 C 0.43053 0.12487 0.95717 0.0
C938 C 0.42065 0.11693 0.97534 0.0
C939 C 0.43491 0.12235 0.92161 0.0
C940 C 0.42937 0.11192 0.9033 0.0
C941 C 0.41932 0.10414 0.92038 0.0
C942 C 0.41506 0.10657 0.95635 0.0
C943 C 0.43413 0.1089 0.86725 0.0
C944 C 0.42886 0.10644 0.82739 0.0
C945 C 0.44362 0.10813 0.87233 0.0
C946 C 0.44948 0.11056 0.91384 0.0
C947 C 0.44419 0.1047 0.95107 0.0
C948 C 0.44977 0.1071 0.99015 0.0
C949 C 0.46067 0.11529 0.9923 0.0
C950 C 0.46602 0.12107 0.95534 0.0
C951 C 0.46047 0.11871 0.91619 0.0
H952 H 0.46497 0.11714 0.02258 0.0
H953 H 0.41264 0.09633 0.63999 0.0
H954 H 0.4628 0.37149 0.72343 0.0
H955 H 0.45731 0.35969 0.78689 0.0
H956 H 0.42797 0.33642 0.72181 0.0
H957 H 0.4332 0.34824 0.65925 0.0
H958 H 0.42313 0.33836 0.79926 0.0
H959 H 0.45047 0.33278 0.7339 0.0
H960 H 0.46854 0.33815 0.70392 0.0
H961 H 0.48334 0.35162 0.8257 0.0
H962 H 0.46536 0.34645 0.85626 0.0
H963 H 0.42612 0.2954 0.94775 0.0
H964 H 0.43178 0.30666 0.88271 0.0
H965 H 0.4247 0.32961 0.94447 0.0
H966 H 0.41882 0.31835 0.00875 0.0
H967 H 0.44747 0.32687 0.86632 0.0
H968 H 0.41516 0.34049 0.87341 0.0
H969 H 0.39628 0.33337 0.89803 0.0
H970 H 0.38996 0.30067 0.8828 0.0
H971 H 0.40875 0.30758 0.85754 0.0
C972 C 0.45516 0.36388 0.72281 0.0
C973 C 0.44844 0.36081 0.68632 0.0
C974 C 0.45206 0.3571 0.75897 0.0
C975 C 0.44227 0.34708 0.75901 0.0
C976 C 0.43554 0.3441 0.72269 0.0
C977 C 0.43856 0.35088 0.68685 0.0
C978 C 0.43891 0.33968 0.79678 0.0
C979 C 0.42848 0.33588 0.81391 0.0
C980 C 0.44577 0.33623 0.81548 0.0
C981 C 0.45658 0.33932 0.79724 0.0
C982 C 0.45759 0.33696 0.75419 0.0
C983 C 0.46781 0.33995 0.73711 0.0
C984 C 0.47708 0.34525 0.76286 0.0
C985 C 0.47615 0.34753 0.80578 0.0
C986 C 0.46594 0.34456 0.82301 0.0
C987 C 0.42572 0.30282 0.94733 0.0
C988 C 0.42192 0.30592 0.98328 0.0
C989 C 0.42901 0.30927 0.91024 0.0
C990 C 0.42854 0.31892 0.90849 0.0
C991 C 0.42494 0.3221 0.94469 0.0
C992 C 0.42159 0.31565 0.98151 0.0
C993 C 0.43175 0.32568 0.86893 0.0
C994 C 0.44215 0.32938 0.8516 0.0
C995 C 0.42475 0.32881 0.84924 0.0
C996 C 0.4134 0.32457 0.86399 0.0
C997 C 0.40973 0.33178 0.87516 0.0
C998 C 0.39904 0.32778 0.88926 0.0
C999 C 0.39194 0.31658 0.89211 0.0
C1000 C 0.39549 0.30935 0.88073 0.0
C1001 C 0.40615 0.3133 0.86658 0.0
H1002 H 0.38368 0.3135 0.90305 0.0
H1003 H 0.48499 0.34756 0.74958 0.0
H1004 H 0.70379 0.13302 0.94973 0.0
H1005 H 0.69177 0.12897 0.88746 0.0
H1006 H 0.67049 0.09682 0.93741 0.0
H1007 H 0.6823 0.10081 0.99954 0.0
H1008 H 0.68573 0.11407 0.82535 0.0
H1009 H 0.64443 0.08885 0.91468 0.0
H1010 H 0.63649 0.08855 0.98545 0.0
H1011 H 0.65963 0.12244 0.00271 0.0
H1012 H 0.66761 0.12299 0.9318 0.0
H1013 H 0.64554 0.07893 0.68301 0.0
H1014 H 0.65722 0.08668 0.74558 0.0
H1015 H 0.6431 0.1069 0.76997 0.0
H1016 H 0.63114 0.09896 0.70751 0.0
H1017 H 0.64602 0.09912 0.84328 0.0
H1018 H 0.66808 0.11757 0.72262 0.0
H1019 H 0.67621 0.11933 0.65101 0.0
H1020 H 0.692 0.10205 0.69496 0.0
H1021 H 0.68384 0.10004 0.76669 0.0
C1022 C 0.69655 0.12509 0.94739 0.0
C1023 C 0.69399 0.11725 0.97967 0.0
C1024 C 0.68969 0.12279 0.91182 0.0
C1025 C 0.68014 0.11265 0.90811 0.0
C1026 C 0.67769 0.10477 0.93998 0.0
C1027 C 0.68451 0.10706 0.97541 0.0
C1028 C 0.6728 0.11009 0.87056 0.0
C1029 C 0.67706 0.11086 0.82925 0.0
C1030 C 0.66152 0.10616 0.87552 0.0
C1031 C 0.65667 0.10593 0.91802 0.0
C1032 C 0.64779 0.09625 0.93347 0.0
C1033 C 0.64329 0.09604 0.97363 0.0
C1034 C 0.64757 0.10546 0.9986 0.0
C1035 C 0.65635 0.11514 0.9834 0.0
C1036 C 0.66087 0.1154 0.94325 0.0
C1037 C 0.64484 0.08497 0.70179 0.0
C1038 C 0.63746 0.08838 0.69012 0.0
C1039 C 0.65159 0.08945 0.73745 0.0
C1040 C 0.65122 0.09755 0.76193 0.0
C1041 C 0.64358 0.10071 0.75135 0.0
C1042 C 0.63674 0.09616 0.71571 0.0
C1043 C 0.6589 0.10271 0.79828 0.0
C1044 C 0.65471 0.10243 0.83934 0.0
C1045 C 0.67028 0.10733 0.79299 0.0
C1046 C 0.67529 0.1086 0.74998 0.0
C1047 C 0.67324 0.11409 0.71695 0.0
C1048 C 0.67785 0.11514 0.67634 0.0
C1049 C 0.6846 0.11079 0.66842 0.0
C1050 C 0.68677 0.10541 0.70114 0.0
C1051 C 0.68216 0.10433 0.7418 0.0
H1052 H 0.68817 0.11161 0.63695 0.0
H1053 H 0.64408 0.10528 0.0297 0.0
H1054 H 0.92662 0.56877 0.69451 0.0
H1055 H 0.91927 0.57304 0.75782 0.0
H1056 H 0.89322 0.53975 0.76409 0.0
H1057 H 0.9007 0.53532 0.70102 0.0
H1058 H 0.88725 0.55737 0.76716 0.0
H1059 H 0.90993 0.54558 0.8357 0.0
H1060 H 0.92694 0.54524 0.84732 0.0
H1061 H 0.94363 0.57929 0.87776 0.0
H1062 H 0.92675 0.57986 0.86568 0.0
H1063 H 0.86816 0.56627 0.96813 0.0
H1064 H 0.87339 0.55894 0.90726 0.0
H1065 H 0.90589 0.58664 0.91206 0.0
H1066 H 0.90082 0.59369 0.97384 0.0
H1067 H 0.90743 0.56965 0.90468 0.0
H1068 H 0.88627 0.58253 0.83137 0.0
H1069 H 0.87008 0.58413 0.8162 0.0
H1070 H 0.85144 0.54985 0.791 0.0
H1071 H 0.8675 0.54802 0.80655 0.0
C1072 C 0.91938 0.56232 0.70956 0.0
C1073 C 0.91424 0.5517 0.6929 0.0
C1074 C 0.9152 0.56478 0.74569 0.0
C1075 C 0.9057 0.55671 0.7655 0.0
C1076 C 0.90055 0.54608 0.74914 0.0
C1077 C 0.90487 0.54356 0.71337 0.0
C1078 C 0.90117 0.55956 0.80286 0.0
C1079 C 0.89152 0.55987 0.7976 0.0
C1080 C 0.90695 0.56311 0.84193 0.0
C1081 C 0.9171 0.56278 0.84941 0.0
C1082 C 0.91725 0.55301 0.84449 0.0
C1083 C 0.92686 0.55278 0.85124 0.0
C1084 C 0.93636 0.56224 0.86317 0.0
C1085 C 0.93626 0.57196 0.86848 0.0
C1086 C 0.92667 0.57224 0.86173 0.0
C1087 C 0.87637 0.57084 0.95579 0.0
C1088 C 0.88408 0.58055 0.97575 0.0
C1089 C 0.87936 0.56666 0.92091 0.0
C1090 C 0.89004 0.57225 0.90475 0.0
C1091 C 0.89763 0.58211 0.92401 0.0
C1092 C 0.8947 0.58618 0.95923 0.0
C1093 C 0.89354 0.5677 0.86902 0.0
C1094 C 0.90304 0.56707 0.87452 0.0
C1095 C 0.88771 0.56405 0.8299 0.0
C1096 C 0.87805 0.56512 0.82062 0.0
C1097 C 0.87869 0.57532 0.82295 0.0
C1098 C 0.86955 0.57627 0.81421 0.0
C1099 C 0.85973 0.56709 0.80278 0.0
C1100 C 0.85905 0.55695 0.79994 0.0
C1101 C 0.86817 0.55595 0.80869 0.0
H1102 H 0.85266 0.56784 0.79601 0.0
H1103 H 0.94379 0.56204 0.86839 0.0
H1104 H 0.56933 0.64964 0.32514 0.0
H1105 H 0.57359 0.6615 0.26297 0.0
H1106 H 0.54032 0.64283 0.22018 0.0
H1107 H 0.53599 0.63075 0.28242 0.0
H1108 H 0.55402 0.64765 0.15428 0.0
H1109 H 0.54933 0.66745 0.26684 0.0
H1110 H 0.55186 0.67561 0.33881 0.0
H1111 H 0.58596 0.69617 0.3139 0.0
H1112 H 0.58366 0.68803 0.24198 0.0
H1113 H 0.57248 0.70365 0.0416 0.0
H1114 H 0.56447 0.69167 0.10396 0.0
H1115 H 0.58171 0.67485 0.07082 0.0
H1116 H 0.58954 0.68659 0.00846 0.0
H1117 H 0.57268 0.68767 0.17413 0.0
H1118 H 0.56643 0.64823 0.09115 0.0
H1119 H 0.56248 0.64002 0.01888 0.0
H1120 H 0.54735 0.65861 0.98412 0.0
H1121 H 0.55107 0.66681 0.05635 0.0
C1122 C 0.5629 0.648 0.3025 0.0
C1123 C 0.5523 0.63926 0.30884 0.0
C1124 C 0.56534 0.65485 0.26707 0.0
C1125 C 0.55723 0.65319 0.23734 0.0
C1126 C 0.54669 0.64431 0.24289 0.0
C1127 C 0.54423 0.63741 0.27843 0.0
C1128 C 0.5599 0.66069 0.2003 0.0
C1129 C 0.55805 0.65639 0.15862 0.0
C1130 C 0.5649 0.6721 0.20592 0.0
C1131 C 0.56633 0.67707 0.24909 0.0
C1132 C 0.55738 0.67366 0.27681 0.0
C1133 C 0.55877 0.67829 0.31759 0.0
C1134 C 0.56907 0.68639 0.33094 0.0
C1135 C 0.57799 0.6899 0.30351 0.0
C1136 C 0.57664 0.68528 0.26271 0.0
C1137 C 0.5746 0.69744 0.0478 0.0
C1138 C 0.58158 0.69602 0.01991 0.0
C1139 C 0.57002 0.6906 0.0834 0.0
C1140 C 0.57232 0.68223 0.09157 0.0
C1141 C 0.5796 0.68108 0.06461 0.0
C1142 C 0.58413 0.68785 0.02906 0.0
C1143 C 0.56718 0.67464 0.12819 0.0
C1144 C 0.56856 0.67892 0.16978 0.0
C1145 C 0.56153 0.66321 0.12245 0.0
C1146 C 0.55911 0.65819 0.0791 0.0
C1147 C 0.56221 0.65052 0.06817 0.0
C1148 C 0.56002 0.64588 0.02718 0.0
C1149 C 0.55469 0.64881 0.99689 0.0
C1150 C 0.55151 0.65637 0.00757 0.0
C1151 C 0.55367 0.66102 0.04851 0.0
H1152 H 0.55301 0.64522 0.96517 0.0
H1153 H 0.57013 0.68997 0.36253 0.0
H1154 H 0.37087 0.90624 0.28654 0.0
H1155 H 0.35869 0.89909 0.22432 0.0
H1156 H 0.3433 0.9174 0.26203 0.0
H1157 H 0.35529 0.92447 0.32407 0.0
H1158 H 0.32836 0.89695 0.24163 0.0
H1159 H 0.36144 0.92585 0.17982 0.0
H1160 H 0.38102 0.93559 0.1628 0.0
H1161 H 0.37737 0.90752 0.09593 0.0
H1162 H 0.35778 0.89757 0.11304 0.0
H1163 H 0.31589 0.90409 0.00618 0.0
H1164 H 0.32793 0.909 0.06807 0.0
H1165 H 0.31063 0.87575 0.11201 0.0
H1166 H 0.2984 0.87074 0.04993 0.0
H1167 H 0.34187 0.90239 0.09168 0.0
H1168 H 0.31148 0.87642 0.22337 0.0
H1169 H 0.29196 0.86816 0.24027 0.0
H1170 H 0.29034 0.89292 0.16695 0.0
H1171 H 0.30987 0.9014 0.15009 0.0
C1172 C 0.36494 0.90879 0.28136 0.0
C1173 C 0.36407 0.91594 0.31023 0.0
C1174 C 0.35798 0.9047 0.24583 0.0
C1175 C 0.35007 0.90771 0.23854 0.0
C1176 C 0.34928 0.91491 0.26715 0.0
C1177 C 0.3562 0.91899 0.30251 0.0
C1178 C 0.34257 0.90344 0.20124 0.0
C1179 C 0.33132 0.89807 0.20885 0.0
C1180 C 0.34641 0.90496 0.15846 0.0
C1181 C 0.35818 0.91093 0.14813 0.0
C1182 C 0.36483 0.92173 0.1618 0.0
C1183 C 0.37593 0.92729 0.15207 0.0
C1184 C 0.38045 0.92217 0.12841 0.0
C1185 C 0.37387 0.91147 0.11432 0.0
C1186 C 0.36277 0.90587 0.124 0.0
C1187 C 0.31458 0.8978 0.02905 0.0
C1188 C 0.30615 0.88702 0.02315 0.0
C1189 C 0.32153 0.90062 0.06432 0.0
C1190 C 0.3202 0.89276 0.09467 0.0
C1191 C 0.31176 0.88197 0.08912 0.0
C1192 C 0.30478 0.87913 0.05367 0.0
C1193 C 0.32766 0.89598 0.13207 0.0
C1194 C 0.33891 0.90112 0.12448 0.0
C1195 C 0.32383 0.89441 0.17486 0.0
C1196 C 0.3121 0.88945 0.18506 0.0
C1197 C 0.30696 0.88011 0.21094 0.0
C1198 C 0.29589 0.87539 0.22051 0.0
C1199 C 0.2899 0.87999 0.20456 0.0
C1200 C 0.29497 0.88934 0.17913 0.0
C1201 C 0.30604 0.89409 0.16951 0.0
H1202 H 0.28133 0.87632 0.21198 0.0
H1203 H 0.38904 0.92649 0.12091 0.0
H1204 H 0.08566 0.43316 0.34835 0.0
H1205 H 0.09223 0.42741 0.28714 0.0
H1206 H 0.09884 0.45652 0.21874 0.0
H1207 H 0.09258 0.46251 0.28082 0.0
H1208 H 0.08545 0.42214 0.21017 0.0
H1209 H 0.11993 0.46387 0.14946 0.0
H1210 H 0.13306 0.48191 0.17862 0.0
H1211 H 0.13163 0.46763 0.3017 0.0
H1212 H 0.11861 0.44949 0.27313 0.0
H1213 H 0.09992 0.41649 0.0005 0.0
H1214 H 0.09492 0.42258 0.06516 0.0
H1215 H 0.12547 0.43023 0.12366 0.0
H1216 H 0.13071 0.42443 0.05805 0.0
H1217 H 0.12111 0.44578 0.1406 0.0
H1218 H 0.10135 0.40715 0.15215 0.0
H1219 H 0.08921 0.38827 0.12851 0.0
H1220 H 0.06297 0.39484 0.11437 0.0
H1221 H 0.07499 0.4138 0.13738 0.0
C1222 C 0.08851 0.43836 0.32032 0.0
C1223 C 0.08861 0.44831 0.31949 0.0
C1224 C 0.09226 0.43505 0.28525 0.0
C1225 C 0.09614 0.44156 0.24836 0.0
C1226 C 0.09609 0.45144 0.24712 0.0
C1227 C 0.09244 0.45483 0.28251 0.0
C1228 C 0.10003 0.43784 0.21117 0.0
C1229 C 0.09325 0.42733 0.19501 0.0
C1230 C 0.11031 0.44449 0.19184 0.0
C1231 C 0.11821 0.45534 0.20923 0.0
C1232 C 0.12245 0.46458 0.1827 0.0
C1233 C 0.12986 0.47482 0.19914 0.0
C1234 C 0.13314 0.47592 0.24202 0.0
C1235 C 0.12905 0.46677 0.26853 0.0
C1236 C 0.12164 0.45651 0.25224 0.0
C1237 C 0.10558 0.41942 0.02714 0.0
C1238 C 0.1157 0.4199 0.02423 0.0
C1239 C 0.10268 0.42287 0.06422 0.0
C1240 C 0.10973 0.42671 0.09964 0.0
C1241 C 0.11988 0.42728 0.09679 0.0
C1242 C 0.12285 0.42391 0.05938 0.0
C1243 C 0.10645 0.43015 0.13936 0.0
C1244 C 0.11332 0.4406 0.15588 0.0
C1245 C 0.09638 0.42334 0.15988 0.0
C1246 C 0.0891 0.41192 0.14616 0.0
C1247 C 0.09301 0.40459 0.14371 0.0
C1248 C 0.08615 0.39387 0.13047 0.0
C1249 C 0.07533 0.39036 0.11986 0.0
C1250 C 0.07135 0.39756 0.12257 0.0
C1251 C 0.07818 0.4083 0.13576 0.0
H1252 H 0.07003 0.38206 0.10961 0.0
H1253 H 0.13888 0.48386 0.25469 0.0
H1254 H 0.10127 0.63465 0.2992 0.0
H1255 H 0.10866 0.64669 0.23646 0.0
H1256 H 0.08246 0.65369 0.24382 0.0
H1257 H 0.07519 0.64191 0.30673 0.0
H1258 H 0.08723 0.64891 0.15849 0.0
H1259 H 0.10506 0.67129 0.284 0.0
H1260 H 0.11616 0.67587 0.34977 0.0
H1261 H 0.14267 0.67753 0.27724 0.0
H1262 H 0.13164 0.67279 0.2111 0.0
H1263 H 0.10171 0.69476 0.03416 0.0
H1264 H 0.09655 0.68209 0.09414 0.0
H1265 H 0.12846 0.68541 0.09314 0.0
H1266 H 0.13384 0.69857 0.03413 0.0
H1267 H 0.12206 0.68372 0.17201 0.0
H1268 H 0.10573 0.66305 0.04606 0.0
H1269 H 0.09512 0.65786 0.9789 0.0
H1270 H 0.06656 0.65182 0.04871 0.0
H1271 H 0.07704 0.65712 0.11624 0.0
C1272 C 0.09704 0.63867 0.28708 0.0
C1273 C 0.08767 0.63737 0.30786 0.0
C1274 C 0.10129 0.64556 0.25144 0.0
C1275 C 0.09612 0.6511 0.23575 0.0
C1276 C 0.08655 0.64948 0.25549 0.0
C1277 C 0.08243 0.64277 0.29145 0.0
C1278 C 0.10078 0.65888 0.1996 0.0
C1279 C 0.09481 0.65655 0.1614 0.0
C1280 C 0.11085 0.66866 0.20305 0.0
C1281 C 0.11748 0.67155 0.24274 0.0
C1282 C 0.11322 0.67253 0.28216 0.0
C1283 C 0.1195 0.67518 0.31948 0.0
C1284 C 0.1301 0.67696 0.31772 0.0
C1285 C 0.13445 0.67613 0.27858 0.0
C1286 C 0.12819 0.67346 0.24117 0.0
C1287 C 0.10767 0.69289 0.04704 0.0
C1288 C 0.11815 0.69758 0.0293 0.0
C1289 C 0.10469 0.68557 0.08112 0.0
C1290 C 0.11199 0.6825 0.09737 0.0
C1291 C 0.12264 0.68756 0.08094 0.0
C1292 C 0.12571 0.69508 0.04729 0.0
C1293 C 0.10838 0.6739 0.13088 0.0
C1294 C 0.11454 0.67604 0.16862 0.0
C1295 C 0.09856 0.66383 0.12671 0.0
C1296 C 0.0922 0.66056 0.08619 0.0
C1297 C 0.09721 0.66068 0.04706 0.0
C1298 C 0.09121 0.65771 0.00893 0.0
C1299 C 0.08018 0.65453 0.00952 0.0
C1300 C 0.07511 0.65429 0.04829 0.0
C1301 C 0.08107 0.65726 0.08652 0.0
H1302 H 0.07555 0.65223 0.97996 0.0
H1303 H 0.13496 0.67901 0.34665 0.0
H1304 H 0.37381 0.45661 0.27447 0.0
H1305 H 0.36208 0.4514 0.21094 0.0
H1306 H 0.33378 0.43422 0.29194 0.0
H1307 H 0.34552 0.43876 0.35472 0.0
H1308 H 0.33052 0.42254 0.22875 0.0
H1309 H 0.34236 0.46034 0.2405 0.0
H1310 H 0.35536 0.47999 0.24676 0.0
H1311 H 0.36954 0.47954 0.12554 0.0
H1312 H 0.35671 0.45986 0.1188 0.0
H1313 H 0.29375 0.42025 0.0606 0.0
H1314 H 0.30489 0.42647 0.12619 0.0
H1315 H 0.33242 0.42959 0.05563 0.0
H1316 H 0.32132 0.42309 0.99063 0.0
H1317 H 0.33519 0.44865 0.11357 0.0
H1318 H 0.32267 0.40965 0.10821 0.0
H1319 H 0.30828 0.39039 0.1042 0.0
H1320 H 0.29355 0.39416 0.21846 0.0
H1321 H 0.30778 0.41349 0.22274 0.0
C1322 C 0.36508 0.45174 0.27851 0.0
C1323 C 0.36056 0.44806 0.31936 0.0
C1324 C 0.35836 0.44883 0.24226 0.0
C1325 C 0.34697 0.44254 0.24647 0.0
C1326 C 0.34251 0.43901 0.28756 0.0
C1327 C 0.34922 0.44164 0.3235 0.0
C1328 C 0.3397 0.43929 0.20818 0.0
C1329 C 0.33149 0.42835 0.20408 0.0
C1330 C 0.3409 0.44676 0.17544 0.0
C1331 C 0.34864 0.4586 0.17935 0.0
C1332 C 0.3483 0.46442 0.21532 0.0
C1333 C 0.35563 0.47556 0.21893 0.0
C1334 C 0.36329 0.48101 0.18662 0.0
C1335 C 0.36361 0.47532 0.15057 0.0
C1336 C 0.35631 0.46417 0.14682 0.0
C1337 C 0.30217 0.42226 0.05919 0.0
C1338 C 0.30666 0.42113 0.02065 0.0
C1339 C 0.3085 0.42581 0.09654 0.0
C1340 C 0.31945 0.42849 0.09549 0.0
C1341 C 0.32399 0.42757 0.05691 0.0
C1342 C 0.31762 0.42379 0.01995 0.0
C1343 C 0.32619 0.43204 0.13477 0.0
C1344 C 0.33426 0.44298 0.13878 0.0
C1345 C 0.3247 0.42466 0.16796 0.0
C1346 C 0.3162 0.41303 0.16548 0.0
C1347 C 0.3163 0.40639 0.13221 0.0
C1348 C 0.30819 0.39546 0.12995 0.0
C1349 C 0.29998 0.39106 0.16097 0.0
C1350 C 0.2999 0.39758 0.1944 0.0
C1351 C 0.30798 0.40852 0.19677 0.0
H1352 H 0.29372 0.38259 0.15917 0.0
H1353 H 0.36896 0.48963 0.18948 0.0
H1354 H 0.54135 0.91582 0.27366 0.0
H1355 H 0.54652 0.90965 0.20895 0.0
H1356 H 0.56963 0.90512 0.28325 0.0
H1357 H 0.565 0.91193 0.34684 0.0
H1358 H 0.57865 0.91324 0.21418 0.0
H1359 H 0.54338 0.88336 0.2469 0.0
H1360 H 0.52373 0.87403 0.2624 0.0
H1361 H 0.51773 0.88355 0.13914 0.0
H1362 H 0.53737 0.89306 0.12312 0.0
H1363 H 0.58122 0.87573 0.05998 0.0
H1364 H 0.57513 0.88128 0.12424 0.0
H1365 H 0.56892 0.90277 0.04695 0.0
H1366 H 0.57531 0.89758 0.9831 0.0
H1367 H 0.55126 0.88554 0.11619 0.0
H1368 H 0.58807 0.9166 0.08996 0.0
H1369 H 0.60771 0.92421 0.07745 0.0
H1370 H 0.6103 0.90976 0.19472 0.0
H1371 H 0.59063 0.90193 0.20753 0.0
C1372 C 0.54755 0.91353 0.27596 0.0
C1373 C 0.5528 0.91439 0.31517 0.0
C1374 C 0.55044 0.90991 0.23908 0.0
C1375 C 0.55836 0.90672 0.24113 0.0
C1376 C 0.56354 0.90756 0.28052 0.0
C1377 C 0.56087 0.91144 0.31696 0.0
C1378 C 0.56148 0.90272 0.20238 0.0
C1379 C 0.57259 0.90708 0.19324 0.0
C1380 C 0.55367 0.89472 0.17449 0.0
C1381 C 0.54186 0.88901 0.184 0.0
C1382 C 0.53788 0.88353 0.22323 0.0
C1383 C 0.52674 0.8782 0.23209 0.0
C1384 C 0.51949 0.87822 0.20183 0.0
C1385 C 0.52336 0.88355 0.16258 0.0
C1386 C 0.53449 0.88891 0.15358 0.0
C1387 C 0.57854 0.88162 0.05677 0.0
C1388 C 0.5788 0.88628 0.01665 0.0
C1389 C 0.57506 0.88477 0.09337 0.0
C1390 C 0.57158 0.89241 0.09009 0.0
C1391 C 0.57157 0.89685 0.04996 0.0
C1392 C 0.57527 0.89392 0.01364 0.0
C1393 C 0.56829 0.89608 0.12872 0.0
C1394 C 0.55719 0.89166 0.13758 0.0
C1395 C 0.57607 0.90381 0.15697 0.0
C1396 C 0.58788 0.90857 0.14939 0.0
C1397 C 0.59281 0.91495 0.11281 0.0
C1398 C 0.60395 0.91933 0.10573 0.0
C1399 C 0.61025 0.91744 0.13519 0.0
C1400 C 0.60542 0.9112 0.17188 0.0
C1401 C 0.59428 0.90679 0.17907 0.0
H1402 H 0.61887 0.92084 0.12967 0.0
H1403 H 0.51087 0.87409 0.20874 0.0
H1404 H 0.21107 0.98262 0.80987 0.0
H1405 H 0.21524 0.99635 0.86517 0.0
H1406 H 0.2002 0.97109 0.96076 0.0
H1407 H 0.19554 0.9573 0.90509 0.0
H1408 H 0.19637 0.98659 0.98035 0.0
H1409 H 0.22838 0.98531 0.94214 0.0
H1410 H 0.24234 0.98579 0.89367 0.0
H1411 H 0.25151 0.01834 0.85573 0.0
H1412 H 0.23749 0.01799 0.9036 0.0
H1413 H 0.22956 0.01672 0.16075 0.0
H1414 H 0.22029 0.00393 0.10195 0.0
H1415 H 0.22838 0.03071 0.01602 0.0
H1416 H 0.23748 0.04358 0.07481 0.0
H1417 H 0.23518 0.01529 0.99015 0.0
H1418 H 0.20352 0.01631 0.03798 0.0
H1419 H 0.19012 0.01503 0.09138 0.0
H1420 H 0.18109 0.98188 0.11757 0.0
H1421 H 0.19456 0.98301 0.06476 0.0
C1422 C 0.20852 0.98 0.84259 0.0
C1423 C 0.20309 0.9689 0.85328 0.0
C1424 C 0.21095 0.98785 0.87422 0.0
C1425 C 0.2083 0.98478 0.91737 0.0
C1426 C 0.20238 0.97367 0.92775 0.0
C1427 C 0.19974 0.96579 0.89593 0.0
C1428 C 0.21227 0.99313 0.95189 0.0
C1429 C 0.20487 0.99281 0.98263 0.0
C1430 C 0.22335 0.00133 0.9548 0.0
C1431 C 0.23181 0.00158 0.92607 0.0
C1432 C 0.23332 0.99254 0.92322 0.0
C1433 C 0.24125 0.99279 0.8959 0.0
C1434 C 0.24779 0.00208 0.87154 0.0
C1435 C 0.24643 0.01114 0.87456 0.0
C1436 C 0.2385 0.01093 0.90179 0.0
C1437 C 0.22921 0.01988 0.1295 0.0
C1438 C 0.23429 0.03116 0.12234 0.0
C1439 C 0.22388 0.01257 0.09604 0.0
C1440 C 0.22365 0.0164 0.05479 0.0
C1441 C 0.22845 0.02763 0.04775 0.0
C1442 C 0.23362 0.03495 0.08138 0.0
C1443 C 0.21929 0.00873 0.01832 0.0
C1444 C 0.22665 0.00914 0.98743 0.0
C1445 C 0.20826 1.00049 0.01596 0.0
C1446 C 0.20013 0.99978 0.04767 0.0
C1447 C 0.19875 0.00878 0.05541 0.0
C1448 C 0.19113 0.00807 0.08551 0.0
C1449 C 0.18477 0.99839 0.10793 0.0
C1450 C 0.18602 0.98938 0.10021 0.0
C1451 C 0.19365 0.99005 0.07016 0.0
H1452 H 0.17887 0.99786 0.13122 0.0
H1453 H 0.25393 0.00226 0.8504 0.0
H1454 H 0.95534 0.20054 0.08534 0.0
H1455 H 0.96845 0.20501 0.02715 0.0
H1456 H 0.99466 0.21782 0.11944 0.0
H1457 H 0.98161 0.2139 0.17734 0.0
H1458 H 1.0001 0.23132 0.05931 0.0
H1459 H 0.98546 0.19287 0.06085 0.0
H1460 H 0.97125 0.17352 0.05969 0.0
H1461 H 0.96096 0.17766 0.93495 0.0
H1462 H 0.97502 0.19708 0.93559 0.0
H1463 H 0.04072 0.23755 0.91118 0.0
H1464 H 0.02719 0.22901 0.96821 0.0
H1465 H 0.00206 0.22598 0.88207 0.0
H1466 H 0.01556 0.23467 0.82489 0.0
H1467 H 0.9965 0.20695 0.93857 0.0
H1468 H 0.01116 0.24605 0.94199 0.0
H1469 H 0.02613 0.26507 0.94447 0.0
H1470 H 0.03724 0.25882 0.06358 0.0
H1471 H 0.02242 0.2397 0.06144 0.0
C1472 C 0.96389 0.20419 0.09319 0.0
C1473 C 0.96747 0.20691 0.13581 0.0
C1474 C 0.97139 0.20669 0.05991 0.0
C1475 C 0.98258 0.21166 0.06879 0.0
C1476 C 0.98609 0.21403 0.11163 0.0
C1477 C 0.97863 0.21177 0.14474 0.0
C1478 C 0.99068 0.21511 0.03342 0.0
C1479 C 0.99937 0.22588 0.03344 0.0
C1480 C 0.98969 0.20814 0.99897 0.0
C1481 C 0.98123 0.19646 0.99845 0.0
C1482 C 0.98011 0.18968 0.03331 0.0
C1483 C 0.9721 0.17869 0.03272 0.0
C1484 C 0.96519 0.17437 0.99732 0.0
C1485 C 0.96631 0.18102 0.96237 0.0
C1486 C 0.97431 0.19202 0.96281 0.0
C1487 C 0.03229 0.23492 0.90412 0.0
C1488 C 0.02922 0.23686 0.86362 0.0
C1489 C 0.02459 0.23005 0.93675 0.0
C1490 C 0.01367 0.22692 0.92926 0.0
C1491 C 0.01046 0.22833 0.88832 0.0
C1492 C 0.01819 0.23335 0.85583 0.0
C1493 C 0.00579 0.22302 0.9651 0.0
C1494 C 0.99718 0.21225 0.96491 0.0
C1495 C 0.00692 0.22991 0.99982 0.0
C1496 C 0.01576 0.24142 0.0013 0.0
C1497 C 0.01686 0.24871 0.96851 0.0
C1498 C 0.0253 0.25951 0.96989 0.0
C1499 C 0.03265 0.26315 0.0041 0.0
C1500 C 0.03155 0.25599 0.03707 0.0
C1501 C 0.02313 0.24517 0.0358 0.0
H1502 H 0.03918 0.27152 0.00511 0.0
H1503 H 0.95899 0.16587 0.99693 0.0
H1504 H 0.77672 0.79136 0.82246 0.0
H1505 H 0.78663 0.7874 0.87697 0.0
H1506 H 0.7747 0.80028 0.975 0.0
H1507 H 0.76526 0.80479 0.92018 0.0
H1508 H 0.79409 0.80473 0.99592 0.0
H1509 H 0.76196 0.77229 0.94979 0.0
H1510 H 0.74948 0.75871 0.89762 0.0
H1511 H 0.77446 0.75176 0.86013 0.0
H1512 H 0.78715 0.76541 0.91174 0.0
H1513 H 0.79006 0.77085 0.17281 0.0
H1514 H 0.78727 0.78048 0.11359 0.0
H1515 H 0.80639 0.77231 0.03035 0.0
H1516 H 0.80934 0.76274 0.08964 0.0
H1517 H 0.78538 0.76626 0.99921 0.0
H1518 H 0.81658 0.79773 0.05657 0.0
H1519 H 0.82764 0.81061 0.11343 0.0
H1520 H 0.80253 0.81849 0.13571 0.0
H1521 H 0.79125 0.80553 0.07939 0.0
C1522 C 0.77638 0.79352 0.85556 0.0
C1523 C 0.77013 0.79828 0.8672 0.0
C1524 C 0.78199 0.7912 0.88673 0.0
C1525 C 0.78116 0.79324 0.9303 0.0
C1526 C 0.77543 0.79856 0.94165 0.0
C1527 C 0.77002 0.80113 0.91031 0.0
C1528 C 0.78559 0.78917 0.96422 0.0
C1529 C 0.79213 0.7963 0.99675 0.0
C1530 C 0.78316 0.7782 0.96516 0.0
C1531 C 0.77554 0.76995 0.93425 0.0
C1532 C 0.76481 0.76792 0.93021 0.0
C1533 C 0.7577 0.76021 0.90077 0.0
C1534 C 0.76118 0.7544 0.87548 0.0
C1535 C 0.77178 0.75628 0.87968 0.0
C1536 C 0.77894 0.764 0.90902 0.0
C1537 C 0.79381 0.77124 0.14209 0.0
C1538 C 0.79988 0.76599 0.13583 0.0
C1539 C 0.79226 0.77679 0.10837 0.0
C1540 C 0.79666 0.77713 0.06771 0.0
C1541 C 0.80297 0.77216 0.0616 0.0
C1542 C 0.80466 0.76672 0.09551 0.0
C1543 C 0.7938 0.7818 0.03085 0.0
C1544 C 0.78748 0.77473 0.99792 0.0
C1545 C 0.79624 0.79274 0.03019 0.0
C1546 C 0.80303 0.80059 0.06394 0.0
C1547 C 0.81338 0.80214 0.07381 0.0
C1548 C 0.8197 0.80947 0.10591 0.0
C1549 C 0.81579 0.81535 0.12823 0.0
C1550 C 0.80555 0.81392 0.11841 0.0
C1551 C 0.7992 0.8066 0.08636 0.0
H1552 H 0.82069 0.82102 0.15307 0.0
H1553 H 0.75567 0.74844 0.85271 0.0
H1554 H 0.77096 0.9833 0.82916 0.0
H1555 H 0.7807 0.99581 0.88795 0.0
H1556 H 0.77241 0.96866 0.97214 0.0
H1557 H 0.76271 0.95603 0.91331 0.0
H1558 H 0.7663 0.9834 0.00258 0.0
H1559 H 0.79804 0.98421 0.94613 0.0
H1560 H 0.81111 0.98615 0.88988 0.0
H1561 H 0.81857 0.01897 0.86653 0.0
H1562 H 0.80543 0.01718 0.92223 0.0
H1563 H 0.79094 0.0174 0.17874 0.0
H1564 H 0.78741 0.00365 0.12424 0.0
H1565 H 0.79932 0.02841 0.02605 0.0
H1566 H 0.80336 0.04228 0.08087 0.0
H1567 H 0.8045 0.01373 0.00557 0.0
H1568 H 0.77166 0.01268 0.05121 0.0
H1569 H 0.75797 0.01134 0.10333 0.0
H1570 H 0.75176 0.9797 0.14167 0.0
H1571 H 0.76553 0.98092 0.09013 0.0
C1572 C 0.77136 0.97998 0.85999 0.0
C1573 C 0.766 0.96867 0.86668 0.0
C1574 C 0.77698 0.98715 0.89346 0.0
C1575 C 0.7773 0.98315 0.93429 0.0
C1576 C 0.77228 0.97188 0.94076 0.0
C1577 C 0.76676 0.96469 0.90711 0.0
C1578 C 0.78186 0.99073 0.97103 0.0
C1579 C 0.77472 0.98989 0.0038 0.0
C1580 C 0.79274 0.9994 0.97161 0.0
C1581 C 0.80068 1.00052 0.93817 0.0
C1582 C 0.8024 0.99181 0.92877 0.0
C1583 C 0.80983 0.99289 0.89702 0.0
C1584 C 0.81565 0.00267 0.87458 0.0
C1585 C 0.81406 0.0114 0.88392 0.0
C1586 C 0.80662 0.01036 0.91562 0.0
C1587 C 0.79297 0.01993 0.1456 0.0
C1588 C 0.79729 0.03088 0.13391 0.0
C1589 C 0.79091 0.01207 0.11446 0.0
C1590 C 0.79281 0.01495 0.07088 0.0
C1591 C 0.79773 0.02598 0.05943 0.0
C1592 C 0.80001 0.0339 0.09075 0.0
C1593 C 0.78892 0.00643 0.03712 0.0
C1594 C 0.79614 0.00713 0.00477 0.0
C1595 C 0.77803 0.99772 0.03633 0.0
C1596 C 0.76971 0.99694 0.06719 0.0
C1597 C 0.76743 0.00547 0.07098 0.0
C1598 C 0.75965 0.00473 0.10038 0.0
C1599 C 0.75402 0.99545 0.12589 0.0
C1600 C 0.75614 0.98689 0.12195 0.0
C1601 C 0.76393 0.9876 0.09264 0.0
H1602 H 0.748 0.9949 0.14864 0.0
H1603 H 0.8214 0.00349 0.85002 0.0
H1604 H 0.02425 0.77228 0.8552 0.0
H1605 H 0.01121 0.76738 0.91349 0.0
H1606 H 0.01858 0.80074 0.92246 0.0
H1607 H 0.03221 0.80579 0.86559 0.0
H1608 H 0.01707 0.79381 0.99787 0.0
H1609 H 0.99379 0.7792 0.87742 0.0
H1610 H 0.9865 0.76892 0.81016 0.0
H1611 H 0.97899 0.7393 0.87507 0.0
H1612 H 0.98637 0.74942 0.9426 0.0
H1613 H 0.96606 0.77277 0.123 0.0
H1614 H 0.9788 0.78058 0.06261 0.0
H1615 H 0.9895 0.7574 0.0834 0.0
H1616 H 0.97707 0.74975 0.14437 0.0
H1617 H 0.98067 0.76063 0.99119 0.0
H1618 H 0.00666 0.77754 0.11059 0.0
H1619 H 0.01294 0.78876 0.17615 0.0
H1620 H 0.0136 0.81543 0.10843 0.0
H1621 H 0.00716 0.80428 0.04262 0.0
C1622 C 0.02303 0.77856 0.86933 0.0
C1623 C 0.0292 0.7894 0.85569 0.0
C1624 C 0.0155 0.77574 0.90254 0.0
C1625 C 0.01368 0.78363 0.92189 0.0
C1626 C 0.01979 0.79448 0.90804 0.0
C1627 C 0.02755 0.79736 0.87546 0.0
C1628 C 0.00573 0.78056 0.95771 0.0
C1629 C 0.00905 0.78666 0.99591 0.0
C1630 C 0.99521 0.77124 0.95557 0.0
C1631 C 0.99071 0.76509 0.91504 0.0
C1632 C 0.99064 0.7705 0.8773 0.0
C1633 C 0.98649 0.7647 0.83913 0.0
C1634 C 0.9823 0.75347 0.83833 0.0
C1635 C 0.98224 0.748 0.87573 0.0
C1636 C 0.98639 0.75377 0.91399 0.0
C1637 C 0.97121 0.76942 0.11496 0.0
C1638 C 0.97058 0.76065 0.13844 0.0
C1639 C 0.97846 0.77389 0.08056 0.0
C1640 C 0.98504 0.76954 0.0688 0.0
C1641 C 0.98448 0.76086 0.09225 0.0
C1642 C 0.97741 0.75654 0.12712 0.0
C1643 C 0.9922 0.77371 0.0309 0.0
C1644 C 0.98867 0.76784 0.99248 0.0
C1645 C 0.00238 0.78335 0.03246 0.0
C1646 C 0.00629 0.79003 0.07192 0.0
C1647 C 0.00802 0.78575 0.10984 0.0
C1648 C 0.01164 0.79211 0.147 0.0
C1649 C 0.01363 0.80279 0.14651 0.0
C1650 C 0.01203 0.80714 0.1088 0.0
C1651 C 0.0084 0.80081 0.07157 0.0
H1652 H 0.01643 0.8077 0.1753 0.0
H1653 H 0.97909 0.74899 0.80874 0.0
H1654 H 0.23184 0.2148 0.16763 0.0
H1655 H 0.22242 0.21779 0.10809 0.0
H1656 H 0.23138 0.19942 0.02404 0.0
H1657 H 0.2407 0.19624 0.08367 0.0
H1658 H 0.23734 0.22082 0.99517 0.0
H1659 H 0.20604 0.18861 0.04707 0.0
H1660 H 0.19289 0.17676 0.10177 0.0
H1661 H 0.18383 0.20092 0.12642 0.0
H1662 H 0.19704 0.21299 0.07229 0.0
H1663 H 0.21239 0.22943 0.8173 0.0
H1664 H 0.21669 0.21973 0.87158 0.0
H1665 H 0.20259 0.2304 0.9695 0.0
H1666 H 0.19779 0.23965 0.9149 0.0
H1667 H 0.19857 0.21098 0.98855 0.0
H1668 H 0.23071 0.244 0.94722 0.0
H1669 H 0.24445 0.25713 0.89709 0.0
H1670 H 0.25271 0.23315 0.85829 0.0
H1671 H 0.23891 0.21982 0.90783 0.0
C1672 C 0.23168 0.21126 0.13663 0.0
C1673 C 0.23706 0.20533 0.13027 0.0
C1674 C 0.22625 0.21293 0.10274 0.0
C1675 C 0.22619 0.20879 0.0618 0.0
C1676 C 0.23131 0.20264 0.05551 0.0
C1677 C 0.23661 0.20081 0.08961 0.0
C1678 C 0.22162 0.21176 0.02494 0.0
C1679 C 0.22881 0.21848 0.99313 0.0
C1680 C 0.21058 0.209 0.02335 0.0
C1681 C 0.2026 0.20174 0.05583 0.0
C1682 C 0.20131 0.19144 0.06441 0.0
C1683 C 0.19383 0.18467 0.09526 0.0
C1684 C 0.18755 0.1881 0.11762 0.0
C1685 C 0.18871 0.19828 0.10909 0.0
C1686 C 0.19618 0.20508 0.07828 0.0
C1687 C 0.21008 0.22957 0.85033 0.0
C1688 C 0.20487 0.23539 0.86198 0.0
C1689 C 0.21258 0.22407 0.88136 0.0
C1690 C 0.21024 0.22457 0.92485 0.0
C1691 C 0.20453 0.22992 0.93622 0.0
C1692 C 0.20181 0.23523 0.905 0.0
C1693 C 0.21431 0.22013 0.95871 0.0
C1694 C 0.20706 0.21319 0.99012 0.0
C1695 C 0.22537 0.22288 0.96056 0.0
C1696 C 0.2337 0.23088 0.93085 0.0
C1697 C 0.2354 0.24151 0.92777 0.0
C1698 C 0.24321 0.24898 0.8995 0.0
C1699 C 0.24942 0.24596 0.87442 0.0
C1700 C 0.24787 0.23547 0.87767 0.0
C1701 C 0.24007 0.22795 0.90584 0.0
H1702 H 0.25546 0.25176 0.85256 0.0
H1703 H 0.18176 0.18285 0.14149 0.0
H1704 H 0.90877 0.35469 0.48853 0.0
H1705 H 0.89917 0.3422 0.43005 0.0
H1706 H 0.8873 0.36319 0.38609 0.0
H1707 H 0.89729 0.37602 0.44403 0.0
H1708 H 0.87933 0.33024 0.40641 0.0
H1709 H 0.88501 0.36151 0.27676 0.0
H1710 H 0.89727 0.38085 0.25917 0.0
H1711 H 0.92327 0.38031 0.32744 0.0
H1712 H 0.9112 0.36095 0.34497 0.0
H1713 H 0.85614 0.29858 0.21831 0.0
H1714 H 0.85979 0.31203 0.27465 0.0
H1715 H 0.89343 0.33 0.23558 0.0
H1716 H 0.88977 0.31695 0.17853 0.0
H1717 H 0.88756 0.34369 0.25644 0.0
H1718 H 0.88377 0.31098 0.32154 0.0
H1719 H 0.87415 0.29143 0.33934 0.0
H1720 H 0.84881 0.29457 0.40093 0.0
H1721 H 0.85823 0.31412 0.38303 0.0
C1722 C 0.90407 0.35665 0.46665 0.0
C1723 C 0.90388 0.36642 0.47075 0.0
C1724 C 0.89853 0.34945 0.43325 0.0
C1725 C 0.89258 0.35178 0.40334 0.0
C1726 C 0.89199 0.3613 0.40833 0.0
C1727 C 0.89768 0.36862 0.44152 0.0
C1728 C 0.88754 0.34441 0.36603 0.0
C1729 C 0.88104 0.3332 0.37361 0.0
C1730 C 0.88981 0.34822 0.32316 0.0
C1731 C 0.89716 0.35984 0.31264 0.0
C1732 C 0.89335 0.36553 0.28795 0.0
C1733 C 0.90026 0.37649 0.27799 0.0
C1734 C 0.91103 0.38182 0.29234 0.0
C1735 C 0.91492 0.37619 0.31652 0.0
C1736 C 0.90804 0.36523 0.3265 0.0
C1737 C 0.86428 0.30547 0.22149 0.0
C1738 C 0.87268 0.30665 0.19414 0.0
C1739 C 0.86636 0.31314 0.25378 0.0
C1740 C 0.87693 0.32196 0.25984 0.0
C1741 C 0.88521 0.32331 0.23157 0.0
C1742 C 0.8831 0.31578 0.19899 0.0
C1743 C 0.87967 0.3295 0.29686 0.0
C1744 C 0.88565 0.34074 0.28922 0.0
C1745 C 0.87729 0.32569 0.33972 0.0
C1746 C 0.87162 0.31396 0.35048 0.0
C1747 C 0.87611 0.30748 0.33861 0.0
C1748 C 0.8707 0.2964 0.34875 0.0
C1749 C 0.86086 0.29175 0.37112 0.0
C1750 C 0.85642 0.29817 0.38351 0.0
C1751 C 0.86178 0.30925 0.37339 0.0
H1752 H 0.85668 0.28318 0.37896 0.0
H1753 H 0.91637 0.39031 0.28462 0.0
H1754 H 0.68451 0.57234 0.16555 0.0
H1755 H 0.67177 0.56334 0.22421 0.0
H1756 H 0.69487 0.55648 0.28595 0.0
H1757 H 0.70782 0.5657 0.22764 0.0
H1758 H 0.66145 0.54377 0.25885 0.0
H1759 H 0.69348 0.55954 0.39433 0.0
H1760 H 0.712 0.57472 0.40859 0.0
H1761 H 0.70709 0.5947 0.31822 0.0
H1762 H 0.6885 0.57969 0.30389 0.0
H1763 H 0.63132 0.52353 0.45362 0.0
H1764 H 0.6447 0.52753 0.39651 0.0
H1765 H 0.65813 0.56191 0.41887 0.0
H1766 H 0.64528 0.55794 0.47712 0.0
H1767 H 0.67379 0.55887 0.40491 0.0
H1768 H 0.6392 0.54656 0.33353 0.0
H1769 H 0.61999 0.53347 0.31705 0.0
H1770 H 0.62882 0.5101 0.27534 0.0
H1771 H 0.64807 0.52301 0.29201 0.0
C1772 C 0.68688 0.56884 0.19136 0.0
C1773 C 0.69725 0.56987 0.19212 0.0
C1774 C 0.67954 0.56364 0.22481 0.0
C1775 C 0.68241 0.55934 0.25973 0.0
C1776 C 0.69255 0.55987 0.25961 0.0
C1777 C 0.69993 0.56513 0.2262 0.0
C1778 C 0.67504 0.55505 0.29737 0.0
C1779 C 0.66416 0.547 0.29089 0.0
C1780 C 0.67853 0.55935 0.33907 0.0
C1781 C 0.68967 0.56844 0.34762 0.0
C1782 C 0.69636 0.56718 0.37756 0.0
C1783 C 0.70686 0.57575 0.38567 0.0
C1784 C 0.71073 0.58565 0.36418 0.0
C1785 C 0.7041 0.58702 0.33469 0.0
C1786 C 0.69358 0.57847 0.32654 0.0
C1787 C 0.63719 0.53193 0.4464 0.0
C1788 C 0.63726 0.54043 0.46977 0.0
C1789 C 0.6448 0.53421 0.41364 0.0
C1790 C 0.65236 0.54504 0.40284 0.0
C1791 C 0.65245 0.55349 0.42661 0.0
C1792 C 0.64506 0.55121 0.45988 0.0
C1793 C 0.66007 0.54776 0.36637 0.0
C1794 C 0.67107 0.55548 0.37309 0.0
C1795 C 0.65659 0.54343 0.32462 0.0
C1796 C 0.64504 0.53569 0.31446 0.0
C1797 C 0.63703 0.5386 0.32109 0.0
C1798 C 0.62614 0.53122 0.31168 0.0
C1799 C 0.62318 0.52095 0.29528 0.0
C1800 C 0.63112 0.51805 0.28812 0.0
C1801 C 0.64201 0.52539 0.29751 0.0
H1802 H 0.61475 0.51524 0.28803 0.0
H1803 H 0.71887 0.59228 0.37048 0.0
H1804 H 0.42396 0.10878 0.17728 0.0
H1805 H 0.4325 0.10443 0.23591 0.0
H1806 H 0.44685 0.13736 0.28264 0.0
H1807 H 0.43802 0.1417 0.22467 0.0
H1808 H 0.45217 0.11078 0.26125 0.0
H1809 H 0.44793 0.13732 0.39172 0.0
H1810 H 0.43638 0.14526 0.40873 0.0
H1811 H 0.41 0.11982 0.33775 0.0
H1812 H 0.42135 0.11167 0.3208 0.0
H1813 H 0.4774 0.10526 0.44895 0.0
H1814 H 0.47257 0.11357 0.39048 0.0
H1815 H 0.43943 0.09772 0.43588 0.0
H1816 H 0.44425 0.08972 0.49498 0.0
H1817 H 0.44482 0.1171 0.41111 0.0
H1818 H 0.44789 0.08753 0.35079 0.0
H1819 H 0.45709 0.07716 0.33379 0.0
H1820 H 0.48178 0.1045 0.2643 0.0
H1821 H 0.47278 0.11508 0.28136 0.0
C1822 C 0.42899 0.11513 0.19981 0.0
C1823 C 0.43021 0.12556 0.19651 0.0
C1824 C 0.4339 0.11264 0.23329 0.0
C1825 C 0.4402 0.12052 0.26407 0.0
C1826 C 0.44185 0.13109 0.25977 0.0
C1827 C 0.43683 0.13356 0.22651 0.0
C1828 C 0.4446 0.11746 0.30147 0.0
C1829 C 0.45063 0.11224 0.29402 0.0
C1830 C 0.44247 0.1192 0.34429 0.0
C1831 C 0.43554 0.12398 0.35457 0.0
C1832 C 0.43966 0.13342 0.37984 0.0
C1833 C 0.43315 0.13795 0.38947 0.0
C1834 C 0.42248 0.13307 0.37419 0.0
C1835 C 0.41828 0.12362 0.34941 0.0
C1836 C 0.42475 0.11905 0.33975 0.0
C1837 C 0.4691 0.10362 0.44667 0.0
C1838 C 0.4612 0.09677 0.4765 0.0
C1839 C 0.46634 0.10834 0.41312 0.0
C1840 C 0.45559 0.10614 0.40835 0.0
C1841 C 0.44778 0.09956 0.43885 0.0
C1842 C 0.45055 0.09495 0.47262 0.0
C1843 C 0.45229 0.11031 0.37092 0.0
C1844 C 0.4465 0.11579 0.37836 0.0
C1845 C 0.45433 0.10848 0.32809 0.0
C1846 C 0.45974 0.10213 0.31777 0.0
C1847 C 0.45532 0.09135 0.33216 0.0
C1848 C 0.46049 0.08543 0.32247 0.0
C1849 C 0.47003 0.09018 0.29809 0.0
C1850 C 0.4744 0.10084 0.28325 0.0
C1851 C 0.46927 0.1068 0.2929 0.0
H1852 H 0.47402 0.08558 0.29062 0.0
H1853 H 0.41745 0.13659 0.38165 0.0
H1854 H 0.4313 0.28938 0.24925 0.0
H1855 H 0.44063 0.30219 0.30795 0.0
H1856 H 0.44863 0.32906 0.22254 0.0
H1857 H 0.43926 0.31634 0.16382 0.0
H1858 H 0.46573 0.33259 0.28194 0.0
H1859 H 0.42717 0.3208 0.27888 0.0
H1860 H 0.40769 0.30697 0.27884 0.0
H1861 H 0.41145 0.2947 0.39978 0.0
H1862 H 0.43101 0.30837 0.40019 0.0
H1863 H 0.47197 0.37552 0.41787 0.0
H1864 H 0.46815 0.36173 0.36315 0.0
H1865 H 0.454 0.33663 0.45978 0.0
H1866 H 0.45737 0.35034 0.51414 0.0
H1867 H 0.44091 0.33109 0.39723 0.0
H1868 H 0.47893 0.34402 0.40601 0.0
H1869 H 0.49851 0.35751 0.40685 0.0
H1870 H 0.49635 0.36719 0.27829 0.0
H1871 H 0.47672 0.35385 0.27686 0.0
C1872 C 0.43522 0.29801 0.24275 0.0
C1873 C 0.43444 0.30184 0.20202 0.0
C1874 C 0.44054 0.30532 0.27632 0.0
C1875 C 0.44524 0.31655 0.26955 0.0
C1876 C 0.44506 0.32042 0.22833 0.0
C1877 C 0.43964 0.31313 0.19491 0.0
C1878 C 0.44935 0.32422 0.30613 0.0
C1879 C 0.46034 0.33233 0.30719 0.0
C1880 C 0.44233 0.32368 0.33941 0.0
C1881 C 0.43057 0.31551 0.3393 0.0
C1882 C 0.42386 0.31509 0.30527 0.0
C1883 C 0.4128 0.30729 0.30521 0.0
C1884 C 0.40834 0.29994 0.33922 0.0
C1885 C 0.41492 0.30039 0.37342 0.0
C1886 C 0.426 0.30816 0.37359 0.0
C1887 C 0.46822 0.36707 0.42752 0.0
C1888 C 0.4649 0.364 0.47021 0.0
C1889 C 0.46608 0.35919 0.39624 0.0
C1890 C 0.46085 0.3481 0.40728 0.0
C1891 C 0.458 0.3451 0.45035 0.0
C1892 C 0.45995 0.35295 0.48143 0.0
C1893 C 0.4574 0.33959 0.37353 0.0
C1894 C 0.44644 0.33132 0.37269 0.0
C1895 C 0.46451 0.33996 0.34079 0.0
C1896 C 0.47632 0.34798 0.34147 0.0
C1897 C 0.48261 0.34908 0.37802 0.0
C1898 C 0.49373 0.35669 0.37859 0.0
C1899 C 0.49867 0.36322 0.34268 0.0
C1900 C 0.49251 0.36213 0.30609 0.0
C1901 C 0.48139 0.35453 0.30537 0.0
H1902 H 0.50727 0.36911 0.34319 0.0
H1903 H 0.39977 0.29391 0.33913 0.0
H1904 H 0.68632 0.12331 0.16525 0.0
H1905 H 0.67427 0.12001 0.22628 0.0
H1906 H 0.70197 0.13527 0.31087 0.0
H1907 H 0.71416 0.13873 0.24968 0.0
H1908 H 0.6858 0.11416 0.33588 0.0
H1909 H 0.68836 0.14784 0.29491 0.0
H1910 H 0.68779 0.16098 0.24479 0.0
H1911 H 0.65422 0.13843 0.21749 0.0
H1912 H 0.65463 0.12509 0.26699 0.0
H1913 H 0.65185 0.10391 0.5151 0.0
H1914 H 0.66623 0.11378 0.4624 0.0
H1915 H 0.64204 0.1059 0.36381 0.0
H1916 H 0.62763 0.09645 0.4169 0.0
H1917 H 0.658 0.12537 0.35018 0.0
H1918 H 0.65559 0.09099 0.37998 0.0
H1919 H 0.65549 0.07674 0.42551 0.0
H1920 H 0.6879 0.09917 0.46819 0.0
H1921 H 0.68813 0.1136 0.42328 0.0
C1922 C 0.68988 0.12611 0.19672 0.0
C1923 C 0.70119 0.13124 0.2027 0.0
C1924 C 0.68297 0.12427 0.23152 0.0
C1925 C 0.68724 0.12744 0.273 0.0
C1926 C 0.69855 0.13281 0.27901 0.0
C1927 C 0.70549 0.13481 0.24404 0.0
C1928 C 0.67979 0.12422 0.31027 0.0
C1929 C 0.67988 0.1168 0.33966 0.0
C1930 C 0.67184 0.1274 0.31414 0.0
C1931 C 0.67155 0.13543 0.28447 0.0
C1932 C 0.68088 0.14564 0.27797 0.0
C1933 C 0.68058 0.15314 0.24972 0.0
C1934 C 0.67098 0.15053 0.22791 0.0
C1935 C 0.66165 0.14044 0.23439 0.0
C1936 C 0.66191 0.13291 0.2626 0.0
C1937 C 0.6496 0.10437 0.48226 0.0
C1938 C 0.63861 0.09931 0.47001 0.0
C1939 C 0.65783 0.10998 0.45211 0.0
C1940 C 0.65524 0.11037 0.40886 0.0
C1941 C 0.64426 0.10569 0.39693 0.0
C1942 C 0.63602 0.10027 0.42728 0.0
C1943 C 0.66391 0.11518 0.37567 0.0
C1944 C 0.66403 0.12286 0.34691 0.0
C1945 C 0.67194 0.11208 0.37177 0.0
C1946 C 0.67183 0.1034 0.39867 0.0
C1947 C 0.66266 0.0929 0.39931 0.0
C1948 C 0.66259 0.08479 0.42496 0.0
C1949 C 0.67167 0.08706 0.44983 0.0
C1950 C 0.68087 0.09743 0.44898 0.0
C1951 C 0.68097 0.10558 0.42342 0.0
H1952 H 0.6716 0.08076 0.46967 0.0
H1953 H 0.67077 0.15635 0.20604 0.0
H1954 H 0.90978 0.55718 0.48887 0.0
H1955 H 0.90056 0.56035 0.42957 0.0
H1956 H 0.88874 0.52761 0.38433 0.0
H1957 H 0.89827 0.52446 0.44316 0.0
H1958 H 0.8959 0.54082 0.31961 0.0
H1959 H 0.8715 0.53523 0.43319 0.0
H1960 H 0.8657 0.53743 0.50531 0.0
H1961 H 0.87756 0.57125 0.47999 0.0
H1962 H 0.88357 0.56929 0.40793 0.0
H1963 H 0.85735 0.5602 0.21746 0.0
H1964 H 0.86141 0.5507 0.27355 0.0
H1965 H 0.89506 0.56725 0.23437 0.0
H1966 H 0.89101 0.57648 0.17755 0.0
H1967 H 0.87341 0.5582 0.3406 0.0
H1968 H 0.90713 0.55287 0.25583 0.0
H1969 H 0.91123 0.54884 0.18344 0.0
H1970 H 0.87738 0.53323 0.15036 0.0
H1971 H 0.87305 0.53702 0.22272 0.0
C1972 C 0.90515 0.5506 0.46658 0.0
C1973 C 0.90475 0.54056 0.47086 0.0
C1974 C 0.89982 0.55242 0.43274 0.0
C1975 C 0.8938 0.54417 0.40279 0.0
C1976 C 0.89331 0.53409 0.4071 0.0
C1977 C 0.89874 0.5323 0.4408 0.0
C1978 C 0.88847 0.54633 0.36604 0.0
C1979 C 0.89092 0.54455 0.32419 0.0
C1980 C 0.8817 0.5509 0.37193 0.0
C1981 C 0.87805 0.55212 0.4152 0.0
C1982 C 0.87294 0.54316 0.44309 0.0
C1983 C 0.8696 0.54436 0.48396 0.0
C1984 C 0.87127 0.55448 0.49725 0.0
C1985 C 0.87627 0.56341 0.46966 0.0
C1986 C 0.87963 0.56226 0.42876 0.0
C1987 C 0.86559 0.56171 0.22044 0.0
C1988 C 0.87386 0.5691 0.19298 0.0
C1989 C 0.8679 0.55629 0.25259 0.0
C1990 C 0.87852 0.55816 0.25799 0.0
C1991 C 0.88675 0.56546 0.2303 0.0
C1992 C 0.88443 0.57079 0.19792 0.0
C1993 C 0.88119 0.55307 0.29417 0.0
C1994 C 0.87826 0.55433 0.33594 0.0
C1995 C 0.88725 0.54773 0.28814 0.0
C1996 C 0.88978 0.5453 0.24466 0.0
C1997 C 0.90055 0.54852 0.23321 0.0
C1998 C 0.90292 0.54629 0.19215 0.0
C1999 C 0.89458 0.54081 0.16229 0.0
C2000 C 0.88384 0.53751 0.17347 0.0
C2001 C 0.88143 0.53971 0.21449 0.0
H2002 H 0.89643 0.5391 0.13052 0.0
H2003 H 0.86869 0.55539 0.5289 0.0
H2004 H 0.53197 0.62362 0.5801 0.0
H2005 H 0.53636 0.63688 0.63769 0.0
H2006 H 0.55001 0.66291 0.54471 0.0
H2007 H 0.54613 0.64972 0.48749 0.0
H2008 H 0.56346 0.66786 0.60515 0.0
H2009 H 0.52529 0.65478 0.60251 0.0
H2010 H 0.50573 0.64119 0.60348 0.0
H2011 H 0.5091 0.63073 0.72904 0.0
H2012 H 0.52871 0.64416 0.7286 0.0
H2013 H 0.57234 0.70931 0.75292 0.0
H2014 H 0.56296 0.69597 0.69593 0.0
H2015 H 0.55795 0.67008 0.78195 0.0
H2016 H 0.56744 0.68336 0.83906 0.0
H2017 H 0.53944 0.66561 0.72511 0.0
H2018 H 0.57817 0.67825 0.72255 0.0
H2019 H 0.59752 0.69244 0.72055 0.0
H2020 H 0.59239 0.70442 0.60138 0.0
H2021 H 0.57295 0.69039 0.60304 0.0
C2022 C 0.53575 0.63216 0.57195 0.0
C2023 C 0.53877 0.63565 0.5294 0.0
C2024 C 0.53821 0.63974 0.60487 0.0
C2025 C 0.54346 0.65093 0.59563 0.0
C2026 C 0.54602 0.65435 0.55277 0.0
C2027 C 0.54378 0.6468 0.52006 0.0
C2028 C 0.54716 0.65912 0.63072 0.0
C2029 C 0.5581 0.66744 0.6308 0.0
C2030 C 0.54029 0.65851 0.66494 0.0
C2031 C 0.52849 0.65042 0.66535 0.0
C2032 C 0.52188 0.64953 0.6302 0.0
C2033 C 0.51078 0.64186 0.63068 0.0
C2034 C 0.50618 0.63508 0.66626 0.0
C2035 C 0.51267 0.63598 0.70148 0.0
C2036 C 0.52378 0.64363 0.70116 0.0
C2037 C 0.56909 0.70076 0.75997 0.0
C2038 C 0.57072 0.69739 0.80037 0.0
C2039 C 0.56374 0.69317 0.72738 0.0
C2040 C 0.55983 0.68208 0.73481 0.0
C2041 C 0.5609 0.67861 0.77573 0.0
C2042 C 0.56638 0.68622 0.80818 0.0
C2043 C 0.5556 0.67424 0.69885 0.0
C2044 C 0.54466 0.66601 0.69891 0.0
C2045 C 0.56239 0.67498 0.66437 0.0
C2046 C 0.57409 0.68336 0.66318 0.0
C2047 C 0.58115 0.68397 0.69612 0.0
C2048 C 0.59213 0.69197 0.69501 0.0
C2049 C 0.59618 0.69935 0.66093 0.0
C2050 C 0.58924 0.69871 0.6278 0.0
C2051 C 0.57824 0.69074 0.6288 0.0
H2052 H 0.60468 0.70554 0.66012 0.0
H2053 H 0.49758 0.62915 0.66657 0.0
H2054 H 0.31568 0.89072 0.82556 0.0
H2055 H 0.32828 0.89452 0.76645 0.0
H2056 H 0.30762 0.86222 0.71642 0.0
H2057 H 0.29473 0.85844 0.77506 0.0
H2058 H 0.34037 0.88693 0.73883 0.0
H2059 H 0.30882 0.86325 0.60682 0.0
H2060 H 0.28949 0.85662 0.59059 0.0
H2061 H 0.29048 0.88229 0.66686 0.0
H2062 H 0.30983 0.88914 0.68309 0.0
H2063 H 0.37105 0.89484 0.54883 0.0
H2064 H 0.35759 0.88548 0.6055 0.0
H2065 H 0.34126 0.90304 0.56978 0.0
H2066 H 0.35437 0.91207 0.51232 0.0
H2067 H 0.32678 0.88347 0.58963 0.0
H2068 H 0.36007 0.91109 0.65489 0.0
H2069 H 0.37964 0.92037 0.67196 0.0
H2070 H 0.37557 0.89122 0.73084 0.0
H2071 H 0.35598 0.88174 0.71364 0.0
C2072 C 0.31382 0.88437 0.80222 0.0
C2073 C 0.30412 0.87431 0.80483 0.0
C2074 C 0.32107 0.88655 0.76847 0.0
C2075 C 0.31885 0.87871 0.73667 0.0
C2076 C 0.30942 0.86846 0.74018 0.0
C2077 C 0.30207 0.86631 0.77379 0.0
C2078 C 0.32619 0.88158 0.69901 0.0
C2079 C 0.33739 0.88607 0.70617 0.0
C2080 C 0.32233 0.8806 0.65639 0.0
C2081 C 0.31072 0.87661 0.64659 0.0
C2082 C 0.30491 0.86748 0.62005 0.0
C2083 C 0.29395 0.86369 0.61085 0.0
C2084 C 0.28875 0.869 0.62783 0.0
C2085 C 0.2945 0.87815 0.65389 0.0
C2086 C 0.30546 0.88198 0.66313 0.0
C2087 C 0.36452 0.89662 0.55282 0.0
C2088 C 0.36383 0.90426 0.52628 0.0
C2089 C 0.35686 0.89129 0.5853 0.0
C2090 C 0.3485 0.89368 0.59239 0.0
C2091 C 0.34761 0.90104 0.56496 0.0
C2092 C 0.35515 0.90623 0.53217 0.0
C2093 C 0.34099 0.88902 0.62949 0.0
C2094 C 0.32975 0.88414 0.62221 0.0
C2095 C 0.34484 0.88999 0.67213 0.0
C2096 C 0.3566 0.89568 0.68253 0.0
C2097 C 0.36337 0.90665 0.67121 0.0
C2098 C 0.37446 0.91194 0.68094 0.0
C2099 C 0.37886 0.90637 0.70235 0.0
C2100 C 0.37216 0.89551 0.71418 0.0
C2101 C 0.36107 0.89017 0.70446 0.0
H2102 H 0.38744 0.91049 0.70987 0.0
H2103 H 0.28027 0.86605 0.6207 0.0
H2104 H 0.1204 0.43793 0.85048 0.0
H2105 H 0.11618 0.44779 0.79667 0.0
H2106 H 0.13406 0.44094 0.7016 0.0
H2107 H 0.13872 0.43149 0.75585 0.0
H2108 H 0.13691 0.46021 0.68721 0.0
H2109 H 0.10579 0.42513 0.71254 0.0
H2110 H 0.09157 0.41021 0.75555 0.0
H2111 H 0.07953 0.43111 0.79644 0.0
H2112 H 0.09377 0.44621 0.75408 0.0
H2113 H 0.1059 0.4572 0.50003 0.0
H2114 H 0.1148 0.45384 0.56063 0.0
H2115 H 0.10335 0.46991 0.64572 0.0
H2116 H 0.09461 0.47353 0.58505 0.0
H2117 H 0.09769 0.44762 0.66786 0.0
H2118 H 0.12853 0.4822 0.63187 0.0
H2119 H 0.14235 0.49583 0.58344 0.0
H2120 H 0.15437 0.47412 0.55572 0.0
H2121 H 0.14051 0.46028 0.60352 0.0
C2122 C 0.12355 0.43865 0.81823 0.0
C2123 C 0.12978 0.43384 0.80724 0.0
C2124 C 0.1211 0.44425 0.78745 0.0
C2125 C 0.12457 0.44488 0.74477 0.0
C2126 C 0.13125 0.44053 0.73424 0.0
C2127 C 0.13389 0.43511 0.76527 0.0
C2128 C 0.12071 0.44946 0.71066 0.0
C2129 C 0.12833 0.4574 0.68284 0.0
C2130 C 0.10951 0.44589 0.70512 0.0
C2131 C 0.10092 0.43683 0.73055 0.0
C2132 C 0.10016 0.42657 0.73097 0.0
C2133 C 0.09209 0.41808 0.75518 0.0
C2134 C 0.08467 0.41972 0.77882 0.0
C2135 C 0.08529 0.42986 0.77818 0.0
C2136 C 0.09336 0.43838 0.75406 0.0
C2137 C 0.10543 0.46018 0.53152 0.0
C2138 C 0.09953 0.4656 0.53786 0.0
C2139 C 0.11055 0.45829 0.56602 0.0
C2140 C 0.10973 0.46165 0.6075 0.0
C2141 C 0.1041 0.46731 0.61382 0.0
C2142 C 0.09915 0.46939 0.57916 0.0
C2143 C 0.11389 0.45832 0.6446 0.0
C2144 C 0.10629 0.45054 0.67275 0.0
C2145 C 0.12505 0.46185 0.64971 0.0
C2146 C 0.13341 0.47016 0.62101 0.0
C2147 C 0.13405 0.48029 0.61515 0.0
C2148 C 0.14191 0.48806 0.58787 0.0
C2149 C 0.14922 0.48583 0.56643 0.0
C2150 C 0.1487 0.47583 0.57232 0.0
C2151 C 0.14085 0.46803 0.59954 0.0
H2152 H 0.1553 0.49187 0.54533 0.0
H2153 H 0.07843 0.41314 0.79754 0.0
H2154 H 0.14219 0.70691 0.77223 0.0
H2155 H 0.13708 0.69369 0.71395 0.0
H2156 H 0.10742 0.67191 0.78063 0.0
H2157 H 0.11237 0.68509 0.83874 0.0
H2158 H 0.13211 0.6724 0.70658 0.0
H2159 H 0.08699 0.66107 0.7076 0.0
H2160 H 0.07577 0.66911 0.72855 0.0
H2161 H 0.10295 0.70115 0.70837 0.0
H2162 H 0.11428 0.6933 0.68674 0.0
H2163 H 0.09918 0.62607 0.57333 0.0
H2164 H 0.10747 0.63921 0.63183 0.0
H2165 H 0.10541 0.66349 0.55566 0.0
H2166 H 0.09701 0.65042 0.49747 0.0
H2167 H 0.09734 0.66236 0.63299 0.0
H2168 H 0.12981 0.66498 0.57499 0.0
H2169 H 0.14177 0.65812 0.55023 0.0
H2170 H 0.14127 0.64562 0.67626 0.0
H2171 H 0.12918 0.65228 0.70163 0.0
C2172 C 0.13464 0.69926 0.77476 0.0
C2173 C 0.12762 0.69712 0.80992 0.0
C2174 C 0.13176 0.6917 0.74149 0.0
C2175 C 0.12181 0.68189 0.74273 0.0
C2176 C 0.11506 0.6795 0.77879 0.0
C2177 C 0.11792 0.68705 0.81199 0.0
C2178 C 0.11812 0.67452 0.7051 0.0
C2179 C 0.1245 0.67016 0.6905 0.0
C2180 C 0.1083 0.67178 0.68367 0.0
C2181 C 0.10151 0.67659 0.696 0.0
C2182 C 0.09056 0.66983 0.70749 0.0
C2183 C 0.08418 0.67435 0.7195 0.0
C2184 C 0.08866 0.68563 0.71993 0.0
C2185 C 0.09951 0.69241 0.70818 0.0
C2186 C 0.10591 0.68793 0.69609 0.0
C2187 C 0.10061 0.63424 0.56884 0.0
C2188 C 0.09736 0.63716 0.5308 0.0
C2189 C 0.10538 0.64176 0.60227 0.0
C2190 C 0.10707 0.65234 0.59808 0.0
C2191 C 0.10413 0.65535 0.55966 0.0
C2192 C 0.09934 0.64786 0.52638 0.0
C2193 C 0.11126 0.6601 0.63452 0.0
C2194 C 0.10495 0.66453 0.64903 0.0
C2195 C 0.12123 0.66303 0.65524 0.0
C2196 C 0.12851 0.65903 0.64009 0.0
C2197 C 0.13218 0.66069 0.59733 0.0
C2198 C 0.13899 0.65685 0.5832 0.0
C2199 C 0.14225 0.65141 0.61162 0.0
C2200 C 0.13872 0.64982 0.65426 0.0
C2201 C 0.1319 0.65363 0.66855 0.0
H2202 H 0.14753 0.64845 0.60062 0.0
H2203 H 0.08371 0.68911 0.72929 0.0
H2204 H 0.31889 0.43701 0.8413 0.0
H2205 H 0.33206 0.44689 0.78454 0.0
H2206 H 0.30616 0.44343 0.70182 0.0
H2207 H 0.2929 0.43356 0.75854 0.0
H2208 H 0.31905 0.43578 0.66636 0.0
H2209 H 0.32404 0.46797 0.73683 0.0
H2210 H 0.32754 0.4802 0.79843 0.0
H2211 H 0.35881 0.48302 0.81695 0.0
H2212 H 0.35543 0.47068 0.75582 0.0
H2213 H 0.35355 0.4611 0.49317 0.0
H2214 H 0.34049 0.45813 0.54996 0.0
H2215 H 0.36523 0.46542 0.6455 0.0
H2216 H 0.37849 0.46898 0.58849 0.0
H2217 H 0.35224 0.47218 0.67312 0.0
H2218 H 0.34701 0.43881 0.61257 0.0
H2219 H 0.34402 0.42576 0.55464 0.0
H2220 H 0.31381 0.42404 0.52241 0.0
H2221 H 0.31669 0.4372 0.57983 0.0
C2222 C 0.316 0.43849 0.81129 0.0
C2223 C 0.30484 0.43443 0.8043 0.0
C2224 C 0.32355 0.4442 0.77899 0.0
C2225 C 0.32008 0.44592 0.73909 0.0
C2226 C 0.30899 0.44221 0.7325 0.0
C2227 C 0.30144 0.43659 0.76496 0.0
C2228 C 0.32786 0.45052 0.70299 0.0
C2229 C 0.32618 0.44384 0.66737 0.0
C2230 C 0.33736 0.46086 0.70524 0.0
C2231 C 0.33944 0.46833 0.74191 0.0
C2232 C 0.33162 0.47113 0.75424 0.0
C2233 C 0.3336 0.47809 0.78904 0.0
C2234 C 0.34338 0.48236 0.81164 0.0
C2235 C 0.35123 0.4797 0.79943 0.0
C2236 C 0.3493 0.47273 0.76466 0.0
C2237 C 0.35624 0.46226 0.52629 0.0
C2238 C 0.36698 0.46513 0.53656 0.0
C2239 C 0.34877 0.46052 0.55871 0.0
C2240 C 0.35179 0.46123 0.60206 0.0
C2241 C 0.36269 0.46476 0.61231 0.0
C2242 C 0.37026 0.46677 0.57976 0.0
C2243 C 0.34342 0.45743 0.63639 0.0
C2244 C 0.34502 0.4642 0.67179 0.0
C2245 C 0.33391 0.44705 0.6345 0.0
C2246 C 0.33212 0.43907 0.60017 0.0
C2247 C 0.33976 0.4357 0.59294 0.0
C2248 C 0.33809 0.42828 0.56023 0.0
C2249 C 0.32875 0.4241 0.53478 0.0
C2250 C 0.32105 0.4273 0.5421 0.0
C2251 C 0.32269 0.43474 0.57473 0.0
H2252 H 0.32746 0.41836 0.50946 0.0
H2253 H 0.34489 0.48775 0.83858 0.0
H2254 H 0.56134 0.87693 0.83547 0.0
H2255 H 0.55211 0.8797 0.77466 0.0
H2256 H 0.56377 0.86354 0.69104 0.0
H2257 H 0.57292 0.86058 0.75194 0.0
H2258 H 0.5692 0.88499 0.66581 0.0
H2259 H 0.53796 0.85141 0.70693 0.0
H2260 H 0.52416 0.83839 0.75706 0.0
H2261 H 0.51318 0.86104 0.7826 0.0
H2262 H 0.52703 0.87428 0.73308 0.0
H2263 H 0.54648 0.89554 0.48532 0.0
H2264 H 0.55026 0.88518 0.53832 0.0
H2265 H 0.53395 0.89344 0.63555 0.0
H2266 H 0.52969 0.90337 0.58211 0.0
H2267 H 0.53023 0.87385 0.65001 0.0
H2268 H 0.56226 0.90815 0.62083 0.0
H2269 H 0.57654 0.92242 0.57575 0.0
H2270 H 0.58665 0.90001 0.53412 0.0
H2271 H 0.57232 0.88555 0.57857 0.0
C2272 C 0.56177 0.87378 0.80431 0.0
C2273 C 0.56791 0.86859 0.79841 0.0
C2274 C 0.55645 0.87532 0.76966 0.0
C2275 C 0.55725 0.8718 0.72847 0.0
C2276 C 0.56304 0.86627 0.7227 0.0
C2277 C 0.56822 0.86457 0.75751 0.0
C2278 C 0.55306 0.87498 0.69099 0.0
C2279 C 0.56064 0.88236 0.6617 0.0
C2280 C 0.54196 0.87183 0.68677 0.0
C2281 C 0.5336 0.86388 0.7165 0.0
C2282 C 0.53267 0.85366 0.7235 0.0
C2283 C 0.52482 0.84623 0.75176 0.0
C2284 C 0.51781 0.84889 0.77306 0.0
C2285 C 0.51862 0.85899 0.76608 0.0
C2286 C 0.52646 0.86646 0.73787 0.0
C2287 C 0.54357 0.89501 0.51787 0.0
C2288 C 0.53791 0.90037 0.52973 0.0
C2289 C 0.54577 0.88912 0.54818 0.0
C2290 C 0.54264 0.88875 0.59122 0.0
C2291 C 0.53649 0.89363 0.60261 0.0
C2292 C 0.53409 0.89934 0.57206 0.0
C2293 C 0.54638 0.88395 0.62485 0.0
C2294 C 0.53875 0.87633 0.65359 0.0
C2295 C 0.5575 0.88706 0.62926 0.0
C2296 C 0.56614 0.89574 0.60261 0.0
C2297 C 0.56748 0.90624 0.60182 0.0
C2298 C 0.57559 0.91437 0.57642 0.0
C2299 C 0.58248 0.91211 0.55198 0.0
C2300 C 0.58129 0.90173 0.553 0.0
C2301 C 0.57318 0.89358 0.57829 0.0
H2302 H 0.58875 0.91841 0.53235 0.0
H2303 H 0.51174 0.84313 0.79493 0.0
H2304 H 0.38019 0.12558 0.18081 0.0
H2305 H 0.36089 0.11549 0.19868 0.0
H2306 H 0.35499 0.09405 0.09125 0.0
H2307 H 0.37437 0.1039 0.07394 0.0
H2308 H 0.34342 0.11212 0.16059 0.0
H2309 H 0.33436 0.06879 0.11309 0.0
H2310 H 0.34386 0.05825 0.11038 0.0
H2311 H 0.36605 0.07867 0.20797 0.0
H2312 H 0.3566 0.08923 0.21169 0.0
H2313 H 0.28701 0.07789 0.14372 0.0
H2314 H 0.30655 0.0876 0.13119 0.0
H2315 H 0.31094 0.07077 0.23783 0.0
H2316 H 0.29124 0.06067 0.24954 0.0
H2317 H 0.32363 0.07197 0.17603 0.0
H2318 H 0.31676 0.09783 0.24535 0.0
H2319 H 0.30775 0.10859 0.25764 0.0
H2320 H 0.3184 0.1236 0.13399 0.0
H2321 H 0.32735 0.11281 0.1207 0.0
C2322 C 0.3748 0.11873 0.16087 0.0
C2323 C 0.37885 0.11552 0.12605 0.0
C2324 C 0.36374 0.11297 0.17113 0.0
C2325 C 0.35648 0.10391 0.14674 0.0
C2326 C 0.36046 0.10087 0.11117 0.0
C2327 C 0.37154 0.10655 0.10114 0.0
C2328 C 0.34477 0.09767 0.15849 0.0
C2329 C 0.3391 0.10334 0.16396 0.0
C2330 C 0.33916 0.08624 0.16403 0.0
C2331 C 0.34483 0.07987 0.16232 0.0
C2332 C 0.34124 0.071 0.13407 0.0
C2333 C 0.34662 0.06503 0.13235 0.0
C2334 C 0.35557 0.06781 0.15888 0.0
C2335 C 0.35914 0.07655 0.18731 0.0
C2336 C 0.35378 0.08254 0.1892 0.0
C2337 C 0.29212 0.07625 0.1646 0.0
C2338 C 0.28757 0.06856 0.19786 0.0
C2339 C 0.30332 0.08186 0.1575 0.0
C2340 C 0.31028 0.0801 0.18409 0.0
C2341 C 0.30575 0.0723 0.21696 0.0
C2342 C 0.2945 0.06655 0.22369 0.0
C2343 C 0.32225 0.0864 0.17732 0.0
C2344 C 0.32795 0.08075 0.17274 0.0
C2345 C 0.32798 0.09789 0.17396 0.0
C2346 C 0.32265 0.10444 0.1819 0.0
C2347 C 0.31712 0.10337 0.22066 0.0
C2348 C 0.31203 0.10948 0.22782 0.0
C2349 C 0.31248 0.11676 0.19657 0.0
C2350 C 0.31805 0.11795 0.15815 0.0
C2351 C 0.32314 0.11185 0.15081 0.0
H2352 H 0.30853 0.12148 0.20217 0.0
H2353 H 0.35973 0.06318 0.15747 0.0
H2354 H 0.90042 0.27862 0.11628 0.0
H2355 H 0.9099 0.26895 0.13667 0.0
H2356 H 0.87938 0.24109 0.17381 0.0
H2357 H 0.86991 0.25095 0.15528 0.0
H2358 H 0.89356 0.24388 0.23043 0.0
H2359 H 0.89334 0.24228 0.07743 0.0
H2360 H 0.89623 0.24924 0.00323 0.0
H2361 H 0.93052 0.26873 0.02693 0.0
H2362 H 0.92781 0.26199 0.10149 0.0
H2363 H 0.91319 0.20579 0.21724 0.0
H2364 H 0.90371 0.2159 0.20316 0.0
H2365 H 0.93409 0.24611 0.21157 0.0
H2366 H 0.94362 0.23607 0.22681 0.0
H2367 H 0.92014 0.24198 0.13263 0.0
H2368 H 0.91931 0.24237 0.28778 0.0
H2369 H 0.91544 0.2339 0.35949 0.0
H2370 H 0.88161 0.21459 0.32722 0.0
H2371 H 0.88531 0.22284 0.25503 0.0
C2372 C 0.89571 0.27041 0.12857 0.0
C2373 C 0.8844 0.26552 0.13396 0.0
C2374 C 0.90114 0.26486 0.14007 0.0
C2375 C 0.89535 0.25419 0.15611 0.0
C2376 C 0.88404 0.2493 0.1615 0.0
C2377 C 0.87863 0.25493 0.15075 0.0
C2378 C 0.90112 0.24823 0.16796 0.0
C2379 C 0.89926 0.24336 0.20871 0.0
C2380 C 0.90869 0.24763 0.14001 0.0
C2381 C 0.91035 0.25171 0.09518 0.0
C2382 C 0.90149 0.24811 0.06692 0.0
C2383 C 0.9031 0.25201 0.02478 0.0
C2384 C 0.91355 0.25945 0.01041 0.0
C2385 C 0.92242 0.26298 0.03813 0.0
C2386 C 0.92086 0.25912 0.08032 0.0
C2387 C 0.91784 0.21459 0.21657 0.0
C2388 C 0.92915 0.22014 0.22313 0.0
C2389 C 0.91241 0.22034 0.20859 0.0
C2390 C 0.91822 0.23172 0.20631 0.0
C2391 C 0.92949 0.23731 0.21326 0.0
C2392 C 0.9349 0.23157 0.22216 0.0
C2393 C 0.91257 0.23774 0.19484 0.0
C2394 C 0.91444 0.24256 0.15416 0.0
C2395 C 0.90486 0.23809 0.22242 0.0
C2396 C 0.90261 0.23314 0.26584 0.0
C2397 C 0.91107 0.23624 0.29581 0.0
C2398 C 0.9089 0.23149 0.33659 0.0
C2399 C 0.89829 0.22368 0.34787 0.0
C2400 C 0.88982 0.22063 0.31842 0.0
C2401 C 0.89195 0.22534 0.27758 0.0
H2402 H 0.89662 0.22002 0.37945 0.0
H2403 H 0.91478 0.26245 0.97777 0.0
H2404 H 0.75276 0.62312 0.13438 0.0
H2405 H 0.76244 0.64243 0.15258 0.0
H2406 H 0.73311 0.64379 0.13118 0.0
H2407 H 0.72356 0.6246 0.11082 0.0
H2408 H 0.74897 0.66122 0.10178 0.0
H2409 H 0.74295 0.6425 0.23537 0.0
H2410 H 0.74342 0.62956 0.28696 0.0
H2411 H 0.7783 0.64663 0.2812 0.0
H2412 H 0.77803 0.65959 0.22914 0.0
H2413 H 0.76722 0.71095 0.21779 0.0
H2414 H 0.75715 0.69152 0.20022 0.0
H2415 H 0.78735 0.69147 0.18719 0.0
H2416 H 0.79748 0.71089 0.20409 0.0
H2417 H 0.7707 0.67356 0.23587 0.0
H2418 H 0.77584 0.69226 0.10034 0.0
H2419 H 0.77451 0.70521 0.05152 0.0
H2420 H 0.73978 0.68795 0.06579 0.0
H2421 H 0.74093 0.67498 0.11522 0.0
C2422 C 0.7484 0.62755 0.13334 0.0
C2423 C 0.73739 0.62233 0.12136 0.0
C2424 C 0.75392 0.63859 0.14407 0.0
C2425 C 0.74845 0.64455 0.14433 0.0
C2426 C 0.73751 0.63939 0.13142 0.0
C2427 C 0.73205 0.62841 0.11979 0.0
C2428 C 0.75413 0.65615 0.15806 0.0
C2429 C 0.75358 0.66386 0.13145 0.0
C2430 C 0.76027 0.6597 0.19656 0.0
C2431 C 0.76047 0.65195 0.22805 0.0
C2432 C 0.75072 0.64345 0.24489 0.0
C2433 C 0.75095 0.63612 0.27425 0.0
C2434 C 0.76088 0.63726 0.28727 0.0
C2435 C 0.77061 0.64575 0.27105 0.0
C2436 C 0.77043 0.6531 0.24165 0.0
C2437 C 0.77171 0.70679 0.2115 0.0
C2438 C 0.78315 0.71247 0.21218 0.0
C2439 C 0.76595 0.69571 0.20133 0.0
C2440 C 0.77153 0.69011 0.19219 0.0
C2441 C 0.78291 0.69567 0.19412 0.0
C2442 C 0.78868 0.70677 0.20364 0.0
C2443 C 0.76552 0.6785 0.17956 0.0
C2444 C 0.76603 0.67084 0.20637 0.0
C2445 C 0.75918 0.67497 0.14172 0.0
C2446 C 0.75849 0.68272 0.11183 0.0
C2447 C 0.76793 0.69128 0.09337 0.0
C2448 C 0.76721 0.69862 0.06553 0.0
C2449 C 0.75707 0.69743 0.05566 0.0
C2450 C 0.74763 0.68888 0.07352 0.0
C2451 C 0.74831 0.68153 0.10142 0.0
H2452 H 0.75653 0.70311 0.03409 0.0
H2453 H 0.76104 0.63157 0.30999 0.0
H2454 H 0.06309 0.29308 0.7375 0.0
H2455 H 0.07313 0.31269 0.75101 0.0
H2456 H 0.08767 0.30747 0.86349 0.0
H2457 H 0.07801 0.28798 0.84939 0.0
H2458 H 0.07296 0.32482 0.8129 0.0
H2459 H 0.1127 0.32831 0.88071 0.0
H2460 H 0.12362 0.31932 0.87193 0.0
H2461 H 0.11095 0.30933 0.74456 0.0
H2462 H 0.10007 0.31838 0.75234 0.0
H2463 H 0.10343 0.37566 0.91787 0.0
H2464 H 0.09368 0.35626 0.90041 0.0
H2465 H 0.11661 0.36201 0.79884 0.0
H2466 H 0.12656 0.38128 0.81693 0.0
H2467 H 0.11276 0.34464 0.83883 0.0
H2468 H 0.09053 0.35779 0.779 0.0
H2469 H 0.07986 0.36715 0.77877 0.0
H2470 H 0.0582 0.34478 0.87325 0.0
H2471 H 0.06883 0.33537 0.87446 0.0
C2472 C 0.06847 0.29612 0.76497 0.0
C2473 C 0.06982 0.28897 0.79214 0.0
C2474 C 0.07418 0.30733 0.77275 0.0
C2475 C 0.08128 0.31159 0.80795 0.0
C2476 C 0.08245 0.30443 0.83555 0.0
C2477 C 0.07688 0.29326 0.8275 0.0
C2478 C 0.08741 0.3235 0.81609 0.0
C2479 C 0.08167 0.32916 0.81851 0.0
C2480 C 0.09881 0.32923 0.8226 0.0
C2481 C 0.10549 0.32394 0.8173 0.0
C2482 C 0.11229 0.32424 0.85075 0.0
C2483 C 0.11846 0.31912 0.84596 0.0
C2484 C 0.11795 0.31373 0.80776 0.0
C2485 C 0.1113 0.31348 0.77419 0.0
C2486 C 0.10513 0.31859 0.77879 0.0
C2487 C 0.1064 0.37279 0.89186 0.0
C2488 C 0.11577 0.38004 0.86878 0.0
C2489 C 0.10079 0.3617 0.88176 0.0
C2490 C 0.10432 0.35767 0.84791 0.0
C2491 C 0.11372 0.3649 0.82512 0.0
C2492 C 0.1194 0.37594 0.83548 0.0
C2493 C 0.09829 0.34595 0.83618 0.0
C2494 C 0.10406 0.34032 0.83319 0.0
C2495 C 0.08697 0.34032 0.82782 0.0
C2496 C 0.08054 0.34594 0.82711 0.0
C2497 C 0.08354 0.35491 0.79995 0.0
C2498 C 0.07749 0.36022 0.79961 0.0
C2499 C 0.06837 0.35658 0.82606 0.0
C2500 C 0.06527 0.3476 0.85283 0.0
C2501 C 0.0713 0.34227 0.85333 0.0
H2502 H 0.0637 0.3607 0.82575 0.0
H2503 H 0.12273 0.30977 0.80412 0.0
H2504 H 0.71644 0.79122 0.85545 0.0
H2505 H 0.6971 0.78084 0.87173 0.0
H2506 H 0.6924 0.75871 0.76816 0.0
H2507 H 0.71191 0.76889 0.75262 0.0
H2508 H 0.68035 0.77748 0.8297 0.0
H2509 H 0.67077 0.73371 0.78909 0.0
H2510 H 0.67991 0.7228 0.79002 0.0
H2511 H 0.70163 0.7434 0.8884 0.0
H2512 H 0.69254 0.75433 0.88846 0.0
H2513 H 0.62372 0.74402 0.81424 0.0
H2514 H 0.64322 0.75308 0.80058 0.0
H2515 H 0.64746 0.73746 0.91179 0.0
H2516 H 0.62783 0.72802 0.92476 0.0
H2517 H 0.65986 0.7375 0.8503 0.0
H2518 H 0.65366 0.76457 0.91332 0.0
H2519 H 0.645 0.77579 0.92187 0.0
H2520 H 0.65584 0.78925 0.79605 0.0
H2521 H 0.66445 0.778 0.78651 0.0
C2522 C 0.71132 0.78412 0.83615 0.0
C2523 C 0.71573 0.78088 0.80272 0.0
C2524 C 0.70023 0.77819 0.84548 0.0
C2525 C 0.69326 0.76893 0.82144 0.0
C2526 C 0.69762 0.7657 0.78775 0.0
C2527 C 0.70878 0.77156 0.77874 0.0
C2528 C 0.68142 0.76287 0.83122 0.0
C2529 C 0.67589 0.76874 0.83417 0.0
C2530 C 0.67559 0.75148 0.83792 0.0
C2531 C 0.68105 0.7449 0.83841 0.0
C2532 C 0.67748 0.73588 0.81101 0.0
C2533 C 0.68265 0.7297 0.81135 0.0
C2534 C 0.69137 0.73243 0.83914 0.0
C2535 C 0.69491 0.74132 0.86677 0.0
C2536 C 0.68976 0.74752 0.86658 0.0
C2537 C 0.62879 0.74251 0.83588 0.0
C2538 C 0.62423 0.73536 0.87083 0.0
C2539 C 0.63996 0.74773 0.82807 0.0
C2540 C 0.64686 0.74612 0.85558 0.0
C2541 C 0.64231 0.73885 0.89014 0.0
C2542 C 0.63109 0.73349 0.89763 0.0
C2543 C 0.65882 0.75211 0.84844 0.0
C2544 C 0.66434 0.74624 0.84583 0.0
C2545 C 0.66474 0.76356 0.8434 0.0
C2546 C 0.65961 0.77037 0.84907 0.0
C2547 C 0.65413 0.76987 0.88736 0.0
C2548 C 0.64924 0.77624 0.8924 0.0
C2549 C 0.64985 0.78321 0.85948 0.0
C2550 C 0.65537 0.78384 0.8215 0.0
C2551 C 0.66026 0.77747 0.81627 0.0
H2552 H 0.64605 0.78813 0.86344 0.0
H2553 H 0.69536 0.72764 0.83934 0.0
H2554 H 0.20524 0.91744 0.82351 0.0
H2555 H 0.21572 0.90865 0.84161 0.0
H2556 H 0.24289 0.9328 0.76857 0.0
H2557 H 0.23242 0.94163 0.74982 0.0
H2558 H 0.23979 0.91267 0.75426 0.0
H2559 H 0.24312 0.93453 0.87631 0.0
H2560 H 0.23659 0.9415 0.93482 0.0
H2561 H 0.21888 0.90949 0.98927 0.0
H2562 H 0.22518 0.90229 0.93071 0.0
H2563 H 0.27465 0.90064 0.9144 0.0
H2564 H 0.2653 0.91057 0.89531 0.0
H2565 H 0.24256 0.8835 0.81796 0.0
H2566 H 0.2519 0.87356 0.83636 0.0
H2567 H 0.24502 0.9067 0.90739 0.0
H2568 H 0.23605 0.8931 0.72949 0.0
H2569 H 0.2439 0.88745 0.67112 0.0
H2570 H 0.27551 0.90556 0.72865 0.0
H2571 H 0.26788 0.91144 0.78701 0.0
C2572 C 0.21343 0.92088 0.81107 0.0
C2573 C 0.218 0.93029 0.78536 0.0
C2574 C 0.21942 0.91586 0.82163 0.0
C2575 C 0.23014 0.92015 0.80695 0.0
C2576 C 0.23464 0.92937 0.78035 0.0
C2577 C 0.22865 0.93442 0.76974 0.0
C2578 C 0.23664 0.91506 0.81983 0.0
C2579 C 0.24094 0.91137 0.78773 0.0
C2580 C 0.23831 0.91355 0.86352 0.0
C2581 C 0.23455 0.91785 0.8989 0.0
C2582 C 0.23777 0.92896 0.90058 0.0
C2583 C 0.23412 0.93296 0.93378 0.0
C2584 C 0.22731 0.92594 0.96569 0.0
C2585 C 0.22415 0.91491 0.96451 0.0
C2586 C 0.22777 0.91087 0.93134 0.0
C2587 C 0.26763 0.89677 0.89347 0.0
C2588 C 0.26408 0.88632 0.87672 0.0
C2589 C 0.26229 0.90246 0.88265 0.0
C2590 C 0.25333 0.89784 0.85473 0.0
C2591 C 0.24957 0.8873 0.83895 0.0
C2592 C 0.25491 0.88161 0.8497 0.0
C2593 C 0.24796 0.90408 0.84182 0.0
C2594 C 0.24387 0.908 0.87392 0.0
C2595 C 0.24665 0.90598 0.79814 0.0
C2596 C 0.25136 0.90262 0.76283 0.0
C2597 C 0.24468 0.89591 0.72958 0.0
C2598 C 0.24909 0.89267 0.69651 0.0
C2599 C 0.26019 0.89612 0.69625 0.0
C2600 C 0.26691 0.90286 0.72897 0.0
C2601 C 0.26254 0.90614 0.76208 0.0
H2602 H 0.26359 0.89359 0.67066 0.0
H2603 H 0.22449 0.92905 0.99137 0.0
H2604 H 0.71065 0.94742 0.77963 0.0
H2605 H 0.69118 0.93859 0.79583 0.0
H2606 H 0.69068 0.90855 0.82238 0.0
H2607 H 0.7101 0.91728 0.80659 0.0
H2608 H 0.67342 0.90601 0.77026 0.0
H2609 H 0.69116 0.92354 0.90338 0.0
H2610 H 0.70355 0.93922 0.94816 0.0
H2611 H 0.68567 0.95529 0.91646 0.0
H2612 H 0.67325 0.93976 0.87098 0.0
H2613 H 0.62403 0.87427 0.87597 0.0
H2614 H 0.64332 0.88478 0.85852 0.0
H2615 H 0.64155 0.91425 0.85784 0.0
H2616 H 0.62226 0.90377 0.87715 0.0
H2617 H 0.65984 0.91825 0.89267 0.0
H2618 H 0.64159 0.90096 0.76279 0.0
H2619 H 0.62915 0.88576 0.71612 0.0
H2620 H 0.64783 0.87 0.73762 0.0
H2621 H 0.66031 0.88504 0.78489 0.0
C2622 C 0.70639 0.93892 0.7887 0.0
C2623 C 0.71194 0.93306 0.79193 0.0
C2624 C 0.69528 0.93391 0.79811 0.0
C2625 C 0.68952 0.92294 0.81057 0.0
C2626 C 0.69498 0.91702 0.81286 0.0
C2627 C 0.70609 0.92204 0.80394 0.0
C2628 C 0.67782 0.91759 0.82164 0.0
C2629 C 0.67045 0.90861 0.79723 0.0
C2630 C 0.67393 0.92123 0.85595 0.0
C2631 C 0.68136 0.93054 0.8834 0.0
C2632 C 0.68993 0.93046 0.90566 0.0
C2633 C 0.69695 0.93931 0.93122 0.0
C2634 C 0.69542 0.94826 0.93505 0.0
C2635 C 0.68685 0.94836 0.9134 0.0
C2636 C 0.67982 0.93953 0.88775 0.0
C2637 C 0.62775 0.88299 0.87235 0.0
C2638 C 0.62159 0.88818 0.87757 0.0
C2639 C 0.63878 0.889 0.86209 0.0
C2640 C 0.64385 0.90028 0.85569 0.0
C2641 C 0.63781 0.90554 0.8623 0.0
C2642 C 0.62679 0.89954 0.87333 0.0
C2643 C 0.6554 0.90651 0.84169 0.0
C2644 C 0.66276 0.91567 0.86545 0.0
C2645 C 0.65928 0.90312 0.80635 0.0
C2646 C 0.65184 0.89409 0.77765 0.0
C2647 C 0.64301 0.89422 0.75778 0.0
C2648 C 0.63595 0.88564 0.73119 0.0
C2649 C 0.63768 0.87691 0.72398 0.0
C2650 C 0.64649 0.87676 0.74325 0.0
C2651 C 0.65357 0.88532 0.7699 0.0
H2652 H 0.63221 0.87027 0.70339 0.0
H2653 H 0.70086 0.9551 0.95486 0.0
H2654 H 0.06712 0.77213 0.73663 0.0
H2655 H 0.07756 0.76342 0.75715 0.0
H2656 H 0.0912 0.78541 0.86439 0.0
H2657 H 0.08103 0.79435 0.84346 0.0
H2658 H 0.10629 0.78256 0.82937 0.0
H2659 H 0.0699 0.75917 0.87759 0.0
H2660 H 0.04996 0.7481 0.87098 0.0
H2661 H 0.05338 0.72755 0.77865 0.0
H2662 H 0.07335 0.73859 0.78427 0.0
H2663 H 0.10702 0.73234 0.93261 0.0
H2664 H 0.09788 0.74267 0.91691 0.0
H2665 H 0.11962 0.75819 0.81028 0.0
H2666 H 0.12898 0.74816 0.82646 0.0
H2667 H 0.08671 0.74259 0.85085 0.0
H2668 H 0.12354 0.78331 0.79326 0.0
H2669 H 0.14316 0.79467 0.80817 0.0
H2670 H 0.13836 0.78104 0.93478 0.0
H2671 H 0.11869 0.76972 0.92084 0.0
C2672 C 0.07241 0.77517 0.7644 0.0
C2673 C 0.07317 0.7839 0.78856 0.0
C2674 C 0.07833 0.77014 0.77622 0.0
C2675 C 0.08502 0.77363 0.81278 0.0
C2676 C 0.08607 0.78256 0.83613 0.0
C2677 C 0.08022 0.78765 0.82414 0.0
C2678 C 0.09074 0.76783 0.82727 0.0
C2679 C 0.10202 0.77382 0.83402 0.0
C2680 C 0.08513 0.75646 0.83441 0.0
C2681 C 0.07312 0.74977 0.83106 0.0
C2682 C 0.0664 0.75234 0.85565 0.0
C2683 C 0.05509 0.74606 0.85212 0.0
C2684 C 0.05041 0.73715 0.82434 0.0
C2685 C 0.05702 0.73447 0.80011 0.0
C2686 C 0.06833 0.74073 0.80349 0.0
C2687 C 0.10991 0.73802 0.90604 0.0
C2688 C 0.11876 0.73945 0.88091 0.0
C2689 C 0.10466 0.7439 0.89702 0.0
C2690 C 0.10812 0.7513 0.86267 0.0
C2691 C 0.11693 0.75271 0.83749 0.0
C2692 C 0.12225 0.74692 0.84671 0.0
C2693 C 0.10231 0.75729 0.85228 0.0
C2694 C 0.091 0.75133 0.84623 0.0
C2695 C 0.10786 0.76873 0.84694 0.0
C2696 C 0.11966 0.77559 0.85582 0.0
C2697 C 0.12667 0.78277 0.82434 0.0
C2698 C 0.1378 0.7892 0.83261 0.0
C2699 C 0.14201 0.78855 0.87234 0.0
C2700 C 0.13509 0.7815 0.90395 0.0
C2701 C 0.12396 0.77507 0.89586 0.0
H2702 H 0.15063 0.79352 0.87867 0.0
H2703 H 0.04165 0.7323 0.82165 0.0
H2704 H 0.20758 0.28948 0.83244 0.0
H2705 H 0.21808 0.30892 0.84721 0.0
H2706 H 0.24474 0.31133 0.77228 0.0
H2707 H 0.23422 0.29184 0.75678 0.0
H2708 H 0.23684 0.3208 0.88846 0.0
H2709 H 0.25777 0.3365 0.7243 0.0
H2710 H 0.25453 0.33138 0.64773 0.0
H2711 H 0.22006 0.31437 0.6695 0.0
H2712 H 0.22309 0.3195 0.74603 0.0
H2713 H 0.27778 0.37675 0.90616 0.0
H2714 H 0.26833 0.35729 0.88962 0.0
H2715 H 0.24503 0.36089 0.81306 0.0
H2716 H 0.25442 0.3803 0.829 0.0
H2717 H 0.25157 0.34844 0.7725 0.0
H2718 H 0.23853 0.35038 0.91295 0.0
H2719 H 0.2403 0.35554 0.98938 0.0
H2720 H 0.25635 0.33731 0.01486 0.0
H2721 H 0.2548 0.33216 0.93841 0.0
C2722 C 0.21567 0.29412 0.8189 0.0
C2723 C 0.22004 0.28908 0.79328 0.0
C2724 C 0.22168 0.30524 0.82758 0.0
C2725 C 0.23218 0.31159 0.81074 0.0
C2726 C 0.2366 0.30661 0.78523 0.0
C2727 C 0.23058 0.29546 0.77646 0.0
C2728 C 0.23844 0.32343 0.82006 0.0
C2729 C 0.24011 0.32684 0.86309 0.0
C2730 C 0.24259 0.33132 0.787 0.0
C2731 C 0.24067 0.32828 0.74096 0.0
C2732 C 0.2495 0.33169 0.71269 0.0
C2733 C 0.2477 0.32879 0.66931 0.0
C2734 C 0.2371 0.32252 0.65379 0.0
C2735 C 0.22827 0.31918 0.68159 0.0
C2736 C 0.23002 0.32207 0.72498 0.0
C2737 C 0.27064 0.3734 0.8858 0.0
C2738 C 0.26684 0.3801 0.86903 0.0
C2739 C 0.26524 0.36227 0.87645 0.0
C2740 C 0.25594 0.35763 0.85027 0.0
C2741 C 0.25221 0.36431 0.83322 0.0
C2742 C 0.25757 0.3754 0.84258 0.0
C2743 C 0.24999 0.3458 0.84088 0.0
C2744 C 0.2484 0.34239 0.79786 0.0
C2745 C 0.24573 0.33791 0.87393 0.0
C2746 C 0.24665 0.34098 0.91989 0.0
C2747 C 0.24252 0.34755 0.93479 0.0
C2748 C 0.24347 0.35046 0.97812 0.0
C2749 C 0.24847 0.34678 0.00693 0.0
C2750 C 0.2525 0.34017 0.99249 0.0
C2751 C 0.25158 0.33724 0.94917 0.0
H2752 H 0.24919 0.34904 0.04047 0.0
H2753 H 0.23573 0.32028 0.62021 0.0
H2754 H 0.92868 0.7062 0.27704 0.0
H2755 H 0.9183 0.68676 0.26077 0.0
H2756 H 0.91585 0.69417 0.12814 0.0
H2757 H 0.92557 0.71354 0.14503 0.0
H2758 H 0.89811 0.67796 0.147 0.0
H2759 H 0.93475 0.68609 0.16823 0.0
H2760 H 0.95226 0.69307 0.20594 0.0
H2761 H 0.93626 0.67058 0.30914 0.0
H2762 H 0.91863 0.66356 0.27228 0.0
H2763 H 0.89097 0.62626 0.06755 0.0
H2764 H 0.89998 0.64569 0.08555 0.0
H2765 H 0.88599 0.63775 0.21235 0.0
H2766 H 0.87669 0.61837 0.19433 0.0
H2767 H 0.91181 0.65374 0.19583 0.0
H2768 H 0.87467 0.64627 0.16822 0.0
H2769 H 0.85829 0.63931 0.12292 0.0
H2770 H 0.87729 0.66098 0.02143 0.0
H2771 H 0.89382 0.66795 0.06596 0.0
C2772 C 0.92585 0.70365 0.24451 0.0
C2773 C 0.92794 0.71137 0.21228 0.0
C2774 C 0.91999 0.69253 0.2351 0.0
C2775 C 0.91649 0.68893 0.19292 0.0
C2776 C 0.91845 0.69668 0.16092 0.0
C2777 C 0.92402 0.70777 0.17058 0.0
C2778 C 0.91082 0.67713 0.18195 0.0
C2779 C 0.90122 0.67274 0.15744 0.0
C2780 C 0.91476 0.6702 0.19547 0.0
C2781 C 0.92536 0.67438 0.21769 0.0
C2782 C 0.93496 0.68269 0.1991 0.0
C2783 C 0.94491 0.68664 0.2203 0.0
C2784 C 0.94537 0.68229 0.25996 0.0
C2785 C 0.93589 0.67396 0.27845 0.0
C2786 C 0.92592 0.66998 0.2574 0.0
C2787 C 0.88978 0.62866 0.09918 0.0
C2788 C 0.8831 0.6208 0.12948 0.0
C2789 C 0.89491 0.63973 0.10936 0.0
C2790 C 0.89361 0.64308 0.15021 0.0
C2791 C 0.88705 0.63528 0.18064 0.0
C2792 C 0.88172 0.62423 0.1702 0.0
C2793 C 0.89922 0.65475 0.16142 0.0
C2794 C 0.90879 0.65906 0.18572 0.0
C2795 C 0.89543 0.66166 0.14679 0.0
C2796 C 0.88549 0.65752 0.12019 0.0
C2797 C 0.87537 0.64946 0.13607 0.0
C2798 C 0.86606 0.64553 0.11058 0.0
C2799 C 0.86675 0.64967 0.06926 0.0
C2800 C 0.87676 0.65777 0.05341 0.0
C2801 C 0.88611 0.66171 0.07876 0.0
H2802 H 0.85953 0.64662 0.04958 0.0
H2803 H 0.95308 0.68537 0.27633 0.0
H2804 H 0.37872 0.2495 0.14062 0.0
H2805 H 0.35927 0.24072 0.15621 0.0
H2806 H 0.36001 0.27107 0.1347 0.0
H2807 H 0.37948 0.27992 0.11846 0.0
H2808 H 0.34921 0.25978 0.21267 0.0
H2809 H 0.34912 0.25325 0.061 0.0
H2810 H 0.35426 0.24709 0.99564 0.0
H2811 H 0.33986 0.21475 0.04694 0.0
H2812 H 0.33478 0.22076 0.11291 0.0
H2813 H 0.29171 0.23741 0.21664 0.0
H2814 H 0.31113 0.24737 0.19984 0.0
H2815 H 0.31101 0.21703 0.18809 0.0
H2816 H 0.29154 0.20705 0.20304 0.0
H2817 H 0.32172 0.22917 0.12511 0.0
H2818 H 0.32241 0.23506 0.27695 0.0
H2819 H 0.3177 0.24066 0.34481 0.0
H2820 H 0.33129 0.27329 0.29738 0.0
H2821 H 0.33597 0.26785 0.22898 0.0
C2822 C 0.37475 0.25431 0.13901 0.0
C2823 C 0.38065 0.26541 0.12821 0.0
C2824 C 0.36364 0.24928 0.14786 0.0
C2825 C 0.35822 0.25525 0.1465 0.0
C2826 C 0.36406 0.26633 0.13591 0.0
C2827 C 0.37516 0.27135 0.12643 0.0
C2828 C 0.34646 0.2499 0.15655 0.0
C2829 C 0.34314 0.25319 0.19325 0.0
C2830 C 0.33865 0.24112 0.1318 0.0
C2831 C 0.34166 0.23748 0.09207 0.0
C2832 C 0.34713 0.24485 0.05851 0.0
C2833 C 0.35002 0.24138 0.02131 0.0
C2834 C 0.34741 0.23054 0.01718 0.0
C2835 C 0.34189 0.22314 0.0502 0.0
C2836 C 0.33899 0.22657 0.08748 0.0
C2837 C 0.29585 0.23288 0.21084 0.0
C2838 C 0.29009 0.22144 0.21115 0.0
C2839 C 0.30697 0.23858 0.20138 0.0
C2840 C 0.31261 0.23297 0.19308 0.0
C2841 C 0.30687 0.22156 0.19418 0.0
C2842 C 0.29574 0.21586 0.20289 0.0
C2843 C 0.32437 0.23892 0.18177 0.0
C2844 C 0.32772 0.23576 0.14467 0.0
C2845 C 0.33223 0.24772 0.20659 0.0
C2846 C 0.32943 0.25102 0.24767 0.0
C2847 C 0.32432 0.24341 0.28086 0.0
C2848 C 0.32167 0.24656 0.31945 0.0
C2849 C 0.32416 0.25732 0.32535 0.0
C2850 C 0.32935 0.26495 0.29273 0.0
C2851 C 0.33201 0.26184 0.25406 0.0
H2852 H 0.32211 0.25974 0.35525 0.0
H2853 H 0.34965 0.22787 0.98836 0.0
H2854 H 0.75118 0.12665 0.11864 0.0
H2855 H 0.75966 0.11565 0.13242 0.0
H2856 H 0.72863 0.0864 0.11713 0.0
H2857 H 0.72004 0.09739 0.10289 0.0
H2858 H 0.74018 0.08696 0.19284 0.0
H2859 H 0.7463 0.09234 0.04114 0.0
H2860 H 0.75226 0.10306 0.9743 0.0
H2861 H 0.78485 0.12114 0.02303 0.0
H2862 H 0.77905 0.11063 0.09045 0.0
H2863 H 0.76398 0.05307 0.20717 0.0
H2864 H 0.75343 0.06166 0.18635 0.0
H2865 H 0.78314 0.09235 0.17093 0.0
H2866 H 0.7937 0.0837 0.18994 0.0
H2867 H 0.77078 0.08961 0.10666 0.0
H2868 H 0.76504 0.08601 0.25941 0.0
H2869 H 0.75961 0.07633 0.32871 0.0
H2870 H 0.72712 0.05615 0.28154 0.0
H2871 H 0.7324 0.06563 0.21175 0.0
C2872 C 0.74615 0.11788 0.1178 0.0
C2873 C 0.73493 0.11289 0.10965 0.0
C2874 C 0.75102 0.1116 0.12559 0.0
C2875 C 0.74477 0.10022 0.12566 0.0
C2876 C 0.73359 0.09518 0.11716 0.0
C2877 C 0.72871 0.10147 0.1088 0.0
C2878 C 0.74995 0.09367 0.13612 0.0
C2879 C 0.74674 0.08736 0.17364 0.0
C2880 C 0.75869 0.09445 0.11162 0.0
C2881 C 0.76222 0.10075 0.07099 0.0
C2882 C 0.75472 0.09866 0.03775 0.0
C2883 C 0.75807 0.10469 0.99973 0.0
C2884 C 0.76892 0.11279 0.99446 0.0
C2885 C 0.77645 0.11486 0.02717 0.0
C2886 C 0.77313 0.10886 0.06527 0.0
C2887 C 0.76825 0.06166 0.19967 0.0
C2888 C 0.77967 0.06771 0.20021 0.0
C2889 C 0.76221 0.06659 0.18788 0.0
C2890 C 0.76747 0.0777 0.17741 0.0
C2891 C 0.77887 0.08376 0.17864 0.0
C2892 C 0.78491 0.07881 0.18969 0.0
C2893 C 0.76118 0.08302 0.16403 0.0
C2894 C 0.76417 0.08911 0.12584 0.0
C2895 C 0.75234 0.08215 0.18829 0.0
C2896 C 0.74915 0.07645 0.23021 0.0
C2897 C 0.75676 0.07945 0.26371 0.0
C2898 C 0.7537 0.07401 0.30309 0.0
C2899 C 0.74303 0.06561 0.30948 0.0
C2900 C 0.73539 0.06265 0.27652 0.0
C2901 C 0.7384 0.06805 0.23706 0.0
H2902 H 0.74068 0.06141 0.33999 0.0
H2903 H 0.7715 0.11745 0.965 0.0
H2904 H 0.04532 0.43393 0.4543 0.0
H2905 H 0.02594 0.42419 0.4716 0.0
H2906 H 0.026 0.45461 0.47504 0.0
H2907 H 0.04547 0.4644 0.45969 0.0
H2908 H 0.01531 0.4434 0.53963 0.0
H2909 H 0.01435 0.43527 0.39008 0.0
H2910 H 0.01901 0.42884 0.32422 0.0
H2911 H 0.00594 0.39697 0.37898 0.0
H2912 H 0.00133 0.40325 0.44542 0.0
H2913 H 0.95755 0.42048 0.52735 0.0
H2914 H 0.97696 0.42992 0.51003 0.0
H2915 H 0.97824 0.40096 0.54025 0.0
H2916 H 0.95886 0.39149 0.55829 0.0
H2917 H 0.98796 0.41111 0.45904 0.0
H2918 H 0.98873 0.42004 0.6089 0.0
H2919 H 0.98361 0.42699 0.67198 0.0
H2920 H 0.99659 0.45824 0.61166 0.0
H2921 H 0.00165 0.45142 0.54793 0.0
C2922 C 0.04117 0.43853 0.45835 0.0
C2923 C 0.04692 0.44993 0.4556 0.0
C2924 C 0.03007 0.43295 0.46808 0.0
C2925 C 0.02443 0.43863 0.47417 0.0
C2926 C 0.03015 0.45002 0.47065 0.0
C2927 C 0.04128 0.45561 0.46171 0.0
C2928 C 0.01268 0.4328 0.48577 0.0
C2929 C 0.00934 0.43644 0.5215 0.0
C2930 C 0.00484 0.42357 0.4628 0.0
C2931 C 0.0076 0.41976 0.42289 0.0
C2932 C 0.01255 0.42691 0.3882 0.0
C2933 C 0.01516 0.42329 0.35075 0.0
C2934 C 0.0128 0.41251 0.34746 0.0
C2935 C 0.00778 0.40532 0.38159 0.0
C2936 C 0.00516 0.40891 0.41914 0.0
C2937 C 0.96197 0.41613 0.53056 0.0
C2938 C 0.95667 0.40524 0.54428 0.0
C2939 C 0.97305 0.42154 0.52069 0.0
C2940 C 0.97901 0.41612 0.5239 0.0
C2941 C 0.97376 0.40526 0.53755 0.0
C2942 C 0.96271 0.39989 0.54806 0.0
C2943 C 0.9907 0.42178 0.51248 0.0
C2944 C 0.99399 0.41808 0.47691 0.0
C2945 C 0.99846 0.43106 0.5351 0.0
C2946 C 0.99547 0.43519 0.57347 0.0
C2947 C 0.99041 0.42837 0.60893 0.0
C2948 C 0.98753 0.43229 0.64483 0.0
C2949 C 0.98975 0.44304 0.64578 0.0
C2950 C 0.99487 0.44991 0.61086 0.0
C2951 C 0.99775 0.44602 0.57485 0.0
H2952 H 0.98752 0.44606 0.67361 0.0
H2953 H 0.01483 0.40973 0.31843 0.0
H2954 H 0.58224 0.53717 0.52158 0.0
H2955 H 0.57293 0.54712 0.50217 0.0
H2956 H 0.60121 0.57723 0.54009 0.0
H2957 H 0.61033 0.56726 0.56145 0.0
H2958 H 0.58448 0.57793 0.56416 0.0
H2959 H 0.59466 0.56876 0.4313 0.0
H2960 H 0.59595 0.55685 0.37686 0.0
H2961 H 0.56116 0.53891 0.36555 0.0
H2962 H 0.55966 0.55064 0.42038 0.0
H2963 H 0.56958 0.61206 0.44683 0.0
H2964 H 0.57922 0.60224 0.46416 0.0
H2965 H 0.5487 0.57209 0.46878 0.0
H2966 H 0.53899 0.58185 0.45252 0.0
H2967 H 0.56692 0.57198 0.42127 0.0
H2968 H 0.55768 0.58194 0.55763 0.0
H2969 H 0.55749 0.59501 0.60926 0.0
H2970 H 0.5924 0.61302 0.60929 0.0
H2971 H 0.59278 0.60014 0.55711 0.0
C2972 C 0.58643 0.54591 0.52606 0.0
C2973 C 0.59703 0.55144 0.54291 0.0
C2974 C 0.58114 0.5516 0.51462 0.0
C2975 C 0.58645 0.56298 0.51867 0.0
C2976 C 0.59693 0.56847 0.5365 0.0
C2977 C 0.60215 0.56276 0.54871 0.0
C2978 C 0.58111 0.56917 0.5043 0.0
C2979 C 0.58079 0.57671 0.53265 0.0
C2980 C 0.57618 0.56757 0.4633 0.0
C2981 C 0.57705 0.56051 0.43026 0.0
C2982 C 0.58728 0.56223 0.41743 0.0
C2983 C 0.58805 0.55552 0.38647 0.0
C2984 C 0.57864 0.54711 0.36784 0.0
C2985 C 0.56844 0.54542 0.38006 0.0
C2986 C 0.56763 0.5521 0.41105 0.0
C2987 C 0.56494 0.60333 0.45109 0.0
C2988 C 0.55353 0.59772 0.44849 0.0
C2989 C 0.57045 0.59775 0.46109 0.0
C2990 C 0.56464 0.58647 0.46786 0.0
C2991 C 0.5533 0.5808 0.46363 0.0
C2992 C 0.54778 0.58639 0.4545 0.0
C2993 C 0.57033 0.58061 0.48115 0.0
C2994 C 0.57068 0.57317 0.45262 0.0
C2995 C 0.57548 0.58245 0.52156 0.0
C2996 C 0.57525 0.59015 0.5531 0.0
C2997 C 0.56531 0.58875 0.56833 0.0
C2998 C 0.56517 0.59611 0.59776 0.0
C2999 C 0.57493 0.60486 0.61245 0.0
C3000 C 0.58485 0.60625 0.59783 0.0
C3001 C 0.58503 0.59892 0.56835 0.0
H3002 H 0.5748 0.61055 0.63524 0.0
H3003 H 0.57926 0.54193 0.34388 0.0
H3004 H 0.46454 0.04789 0.50117 0.0
H3005 H 0.45494 0.02863 0.48248 0.0
H3006 H 0.43078 0.02249 0.57918 0.0
H3007 H 0.44021 0.04181 0.59748 0.0
H3008 H 0.4499 0.01053 0.52286 0.0
H3009 H 0.40604 0.00284 0.54439 0.0
H3010 H 0.39616 0.01298 0.53954 0.0
H3011 H 0.42014 0.03558 0.45179 0.0
H3012 H 0.43008 0.02549 0.45567 0.0
H3013 H 0.41294 0.95395 0.52078 0.0
H3014 H 0.42326 0.97326 0.53834 0.0
H3015 H 0.41161 0.98078 0.42265 0.0
H3016 H 0.40092 0.96139 0.40571 0.0
H3017 H 0.4108 0.99239 0.48422 0.0
H3018 H 0.43822 0.98509 0.43293 0.0
H3019 H 0.44866 0.97551 0.429 0.0
H3020 H 0.45863 0.98391 0.56022 0.0
H3021 H 0.44813 0.99342 0.56511 0.0
C3022 C 0.45722 0.04245 0.5187 0.0
C3023 C 0.4531 0.04643 0.55063 0.0
C3024 C 0.45175 0.03142 0.508 0.0
C3025 C 0.44206 0.02413 0.52896 0.0
C3026 C 0.43814 0.028 0.56198 0.0
C3027 C 0.44357 0.03905 0.57255 0.0
C3028 C 0.43593 0.01254 0.51554 0.0
C3029 C 0.44135 0.00655 0.51449 0.0
C3030 C 0.42484 0.00741 0.50358 0.0
C3031 C 0.41886 0.01347 0.50072 0.0
C3032 C 0.40918 0.00995 0.52396 0.0
C3033 C 0.40358 0.0157 0.52139 0.0
C3034 C 0.40754 0.02494 0.49549 0.0
C3035 C 0.4171 0.02844 0.47198 0.0
C3036 C 0.42273 0.02272 0.47439 0.0
C3037 C 0.41261 0.95971 0.49893 0.0
C3038 C 0.40613 0.95613 0.46173 0.0
C3039 C 0.41856 0.97077 0.50895 0.0
C3040 C 0.41837 0.97852 0.48152 0.0
C3041 C 0.4119 0.97496 0.44434 0.0
C3042 C 0.40582 0.96388 0.43461 0.0
C3043 C 0.42473 0.99031 0.49206 0.0
C3044 C 0.41935 0.99634 0.49264 0.0
C3045 C 0.43594 0.99556 0.50237 0.0
C3046 C 0.44231 0.98989 0.49948 0.0
C3047 C 0.44258 0.98483 0.46103 0.0
C3048 C 0.44852 0.97942 0.45862 0.0
C3049 C 0.45428 0.97908 0.49437 0.0
C3050 C 0.45415 0.98417 0.53257 0.0
C3051 C 0.44822 0.98958 0.53516 0.0
H3052 H 0.45887 0.97488 0.49244 0.0
H3053 H 0.40319 0.02938 0.49357 0.0
H3054 H 0.58904 0.04669 0.48408 0.0
H3055 H 0.57978 0.02714 0.47128 0.0
H3056 H 0.59624 0.02313 0.58017 0.0
H3057 H 0.60582 0.04278 0.59238 0.0
H3058 H 0.59609 0.01093 0.51774 0.0
H3059 H 0.56909 0.01651 0.58485 0.0
H3060 H 0.55763 0.02482 0.59585 0.0
H3061 H 0.54334 0.01382 0.47128 0.0
H3062 H 0.55483 0.00556 0.45929 0.0
H3063 H 0.54316 0.95366 0.52364 0.0
H3064 H 0.55314 0.97298 0.54074 0.0
H3065 H 0.57501 0.97863 0.43508 0.0
H3066 H 0.56526 0.95917 0.41872 0.0
H3067 H 0.55601 0.98984 0.50065 0.0
H3068 H 0.59983 1.00035 0.45521 0.0
H3069 H 0.61103 0.99154 0.4538 0.0
H3070 H 0.59117 0.96938 0.55255 0.0
H3071 H 0.57994 0.97815 0.55494 0.0
C3072 C 0.59068 0.04166 0.50544 0.0
C3073 C 0.59813 0.04631 0.53943 0.0
C3074 C 0.58534 0.03046 0.49814 0.0
C3075 C 0.58718 0.02362 0.52513 0.0
C3076 C 0.59468 0.02824 0.55892 0.0
C3077 C 0.60012 0.03947 0.56596 0.0
C3078 C 0.58129 0.01166 0.51792 0.0
C3079 C 0.58732 0.00631 0.51405 0.0
C3080 C 0.56983 0.00557 0.51393 0.0
C3081 C 0.56289 0.0105 0.52103 0.0
C3082 C 0.56356 0.01593 0.55967 0.0
C3083 C 0.55705 0.02062 0.56611 0.0
C3084 C 0.54978 0.01987 0.53425 0.0
C3085 C 0.54899 0.0144 0.49592 0.0
C3086 C 0.55549 0.00971 0.4893 0.0
C3087 C 0.55012 0.95899 0.50406 0.0
C3088 C 0.55343 0.95485 0.46984 0.0
C3089 C 0.55581 0.97007 0.51385 0.0
C3090 C 0.5649 0.97729 0.48951 0.0
C3091 C 0.56816 0.97321 0.45494 0.0
C3092 C 0.56255 0.96208 0.44546 0.0
C3093 C 0.5708 0.9891 0.50001 0.0
C3094 C 0.56477 0.99443 0.50436 0.0
C3095 C 0.58222 0.9951 0.50579 0.0
C3096 C 0.58898 0.98984 0.5049 0.0
C3097 C 0.59788 0.99362 0.47672 0.0
C3098 C 0.60422 0.98863 0.47573 0.0
C3099 C 0.60179 0.97988 0.50296 0.0
C3100 C 0.59302 0.97613 0.53135 0.0
C3101 C 0.58666 0.9811 0.53249 0.0
H3102 H 0.60671 0.97603 0.50213 0.0
H3103 H 0.54475 0.0235 0.53929 0.0
H3104 H 0.95675 0.53735 0.53581 0.0
H3105 H 0.97615 0.54674 0.51778 0.0
H3106 H 0.9782 0.57767 0.54016 0.0
H3107 H 0.95887 0.56836 0.55919 0.0
H3108 H 0.98693 0.57482 0.45722 0.0
H3109 H 0.98885 0.57082 0.61087 0.0
H3110 H 0.98418 0.56037 0.67839 0.0
H3111 H 0.99679 0.54073 0.62798 0.0
H3112 H 0.00139 0.55097 0.55987 0.0
H3113 H 0.04371 0.61019 0.44462 0.0
H3114 H 0.02444 0.60038 0.46322 0.0
H3115 H 0.026 0.57112 0.48339 0.0
H3116 H 0.04544 0.58108 0.46702 0.0
H3117 H 0.01501 0.57258 0.54412 0.0
H3118 H 0.01329 0.57561 0.39222 0.0
H3119 H 0.01742 0.58471 0.32169 0.0
H3120 H 0.00384 0.60425 0.3631 0.0
H3121 H 0.99976 0.59536 0.4341 0.0
C3122 C 0.96135 0.54615 0.53726 0.0
C3123 C 0.95629 0.55212 0.54897 0.0
C3124 C 0.97242 0.55149 0.52698 0.0
C3125 C 0.97856 0.56288 0.52761 0.0
C3126 C 0.97356 0.56886 0.53949 0.0
C3127 C 0.96255 0.56353 0.55056 0.0
C3128 C 0.99014 0.56855 0.51482 0.0
C3129 C 0.99313 0.57447 0.47637 0.0
C3130 C 0.99808 0.56771 0.53913 0.0
C3131 C 0.99535 0.56158 0.58011 0.0
C3132 C 0.99053 0.5642 0.61402 0.0
C3133 C 0.98792 0.55833 0.65243 0.0
C3134 C 0.99016 0.54987 0.65742 0.0
C3135 C 0.99504 0.54728 0.62404 0.0
C3136 C 0.99766 0.55312 0.58555 0.0
C3137 C 0.03992 0.60164 0.45261 0.0
C3138 C 0.04608 0.5964 0.45423 0.0
C3139 C 0.02887 0.59601 0.46307 0.0
C3140 C 0.02366 0.58493 0.4741 0.0
C3141 C 0.0298 0.57965 0.47506 0.0
C3142 C 0.0409 0.58534 0.46553 0.0
C3143 C 0.01195 0.57897 0.48624 0.0
C3144 C 0.00888 0.57296 0.52463 0.0
C3145 C 0.00389 0.57953 0.46132 0.0
C3146 C 0.00631 0.58489 0.41863 0.0
C3147 C 0.01126 0.5819 0.3864 0.0
C3148 C 0.01357 0.58701 0.34631 0.0
C3149 C 0.01091 0.59507 0.33795 0.0
C3150 C 0.0059 0.59801 0.36963 0.0
C3151 C 0.00358 0.59294 0.40979 0.0
H3152 H 0.01271 0.59901 0.3069 0.0
H3153 H 0.98813 0.54534 0.68719 0.0
H3154 H 0.38588 0.42951 0.4606 0.0
H3155 H 0.39474 0.41878 0.4754 0.0
H3156 H 0.42615 0.44787 0.46827 0.0
H3157 H 0.4174 0.45866 0.45446 0.0
H3158 H 0.42388 0.42893 0.42131 0.0
H3159 H 0.41744 0.43982 0.56111 0.0
H3160 H 0.40588 0.44105 0.61734 0.0
H3161 H 0.38662 0.40623 0.6219 0.0
H3162 H 0.39799 0.4048 0.56518 0.0
H3163 H 0.46085 0.41598 0.51432 0.0
H3164 H 0.44986 0.42421 0.49655 0.0
H3165 H 0.42101 0.39523 0.5391 0.0
H3166 H 0.43204 0.38703 0.55819 0.0
H3167 H 0.42027 0.41238 0.5651 0.0
H3168 H 0.42691 0.40084 0.43097 0.0
H3169 H 0.43765 0.39883 0.37323 0.0
H3170 H 0.45525 0.43342 0.3547 0.0
H3171 H 0.44471 0.43566 0.41278 0.0
C3172 C 0.39468 0.43359 0.46188 0.0
C3173 C 0.40095 0.44493 0.45653 0.0
C3174 C 0.39971 0.42747 0.47045 0.0
C3175 C 0.41108 0.43256 0.47302 0.0
C3176 C 0.41736 0.44381 0.46638 0.0
C3177 C 0.41235 0.44995 0.45866 0.0
C3178 C 0.41652 0.42628 0.48377 0.0
C3179 C 0.42317 0.42537 0.4528 0.0
C3180 C 0.41528 0.42135 0.5244 0.0
C3181 C 0.40847 0.42221 0.55854 0.0
C3182 C 0.41067 0.43243 0.57379 0.0
C3183 C 0.40417 0.43316 0.60582 0.0
C3184 C 0.3955 0.42373 0.62308 0.0
C3185 C 0.39333 0.41353 0.60843 0.0
C3186 C 0.3998 0.41276 0.57636 0.0
C3187 C 0.45217 0.41134 0.52004 0.0
C3188 C 0.44733 0.40081 0.53746 0.0
C3189 C 0.44588 0.41605 0.5096 0.0
C3190 C 0.43456 0.41026 0.5156 0.0
C3191 C 0.42972 0.39984 0.53395 0.0
C3192 C 0.43604 0.39516 0.54483 0.0
C3193 C 0.42785 0.41516 0.50283 0.0
C3194 C 0.42093 0.41582 0.53339 0.0
C3195 C 0.42872 0.41972 0.46152 0.0
C3196 C 0.43508 0.41842 0.4265 0.0
C3197 C 0.43312 0.40803 0.41481 0.0
C3198 C 0.43917 0.40685 0.38198 0.0
C3199 C 0.44714 0.41599 0.36037 0.0
C3200 C 0.44907 0.42634 0.3715 0.0
C3201 C 0.44306 0.42757 0.40434 0.0
H3202 H 0.45181 0.41506 0.33496 0.0
H3203 H 0.39048 0.42431 0.64788 0.0
H3204 H 0.24311 0.08094 0.27993 0.0
H3205 H 0.24213 0.09753 0.29256 0.0
H3206 H 0.25271 0.10787 0.16257 0.0
H3207 H 0.25366 0.09148 0.14969 0.0
H3208 H 0.26472 0.12367 0.22292 0.0
H3209 H 0.22688 0.09831 0.18913 0.0
H3210 H 0.20914 0.08173 0.20039 0.0
H3211 H 0.20736 0.0925 0.32743 0.0
H3212 H 0.22518 0.10908 0.3171 0.0
H3213 H 0.25457 0.16403 0.15665 0.0
H3214 H 0.25304 0.14635 0.16702 0.0
H3215 H 0.24348 0.14592 0.29874 0.0
H3216 H 0.24499 0.16382 0.28859 0.0
H3217 H 0.23136 0.12536 0.2546 0.0
H3218 H 0.2681 0.1519 0.28465 0.0
H3219 H 0.28571 0.16858 0.27277 0.0
H3220 H 0.28972 0.1556 0.15408 0.0
H3221 H 0.27205 0.13891 0.16489 0.0
C3222 C 0.24512 0.08671 0.25398 0.0
C3223 C 0.2485 0.0849 0.21385 0.0
C3224 C 0.24455 0.09617 0.26124 0.0
C3225 C 0.24738 0.10394 0.22852 0.0
C3226 C 0.25054 0.10201 0.18832 0.0
C3227 C 0.25104 0.0926 0.181 0.0
C3228 C 0.24755 0.11434 0.23583 0.0
C3229 C 0.25742 0.12403 0.2298 0.0
C3230 C 0.2381 0.11482 0.24638 0.0
C3231 C 0.22742 0.10485 0.25257 0.0
C3232 C 0.22275 0.09709 0.21963 0.0
C3233 C 0.21268 0.0877 0.2258 0.0
C3234 C 0.20714 0.08604 0.26466 0.0
C3235 C 0.21167 0.09378 0.29738 0.0
C3236 C 0.22175 0.10317 0.29138 0.0
C3237 C 0.25206 0.16019 0.18782 0.0
C3238 C 0.25 0.1654 0.22193 0.0
C3239 C 0.2512 0.15007 0.19369 0.0
C3240 C 0.2483 0.14491 0.23379 0.0
C3241 C 0.24577 0.14981 0.26757 0.0
C3242 C 0.24666 0.16003 0.26174 0.0
C3243 C 0.24845 0.13463 0.24001 0.0
C3244 C 0.23869 0.125 0.24867 0.0
C3245 C 0.25802 0.13417 0.23204 0.0
C3246 C 0.26871 0.14417 0.22549 0.0
C3247 C 0.2727 0.15263 0.25586 0.0
C3248 C 0.2827 0.16209 0.24934 0.0
C3249 C 0.28882 0.16316 0.21267 0.0
C3250 C 0.28497 0.15476 0.18247 0.0
C3251 C 0.27497 0.14529 0.18882 0.0
H3252 H 0.29656 0.17049 0.20767 0.0
H3253 H 0.19934 0.07878 0.26937 0.0
H3254 H 0.83814 0.09056 0.15347 0.0
H3255 H 0.85643 0.10579 0.16362 0.0
H3256 H 0.85625 0.096 0.29488 0.0
H3257 H 0.83768 0.08068 0.2851 0.0
H3258 H 0.86405 0.11766 0.2889 0.0
H3259 H 0.87177 0.0924 0.22045 0.0
H3260 H 0.8698 0.0788 0.16663 0.0
H3261 H 0.87888 0.10258 0.06653 0.0
H3262 H 0.88076 0.11629 0.11963 0.0
H3263 H 0.91909 0.16266 0.28937 0.0
H3264 H 0.90393 0.14395 0.29728 0.0
H3265 H 0.89461 0.14436 0.16574 0.0
H3266 H 0.90968 0.16282 0.15748 0.0
H3267 H 0.89341 0.1254 0.18434 0.0
H3268 H 0.88198 0.14916 0.25105 0.0
H3269 H 0.88352 0.16278 0.30401 0.0
H3270 H 0.88134 0.14167 0.407 0.0
H3271 H 0.87991 0.12798 0.35457 0.0
C3272 C 0.84197 0.09156 0.1845 0.0
C3273 C 0.83645 0.08437 0.21846 0.0
C3274 C 0.85249 0.10026 0.19018 0.0
C3275 C 0.8578 0.10194 0.22979 0.0
C3276 C 0.85232 0.09481 0.26394 0.0
C3277 C 0.84174 0.08606 0.25828 0.0
C3278 C 0.86889 0.11146 0.23531 0.0
C3279 C 0.87057 0.11924 0.26673 0.0
C3280 C 0.87738 0.11357 0.20618 0.0
C3281 C 0.87637 0.10537 0.17408 0.0
C3282 C 0.87329 0.09472 0.18694 0.0
C3283 C 0.87219 0.08699 0.15654 0.0
C3284 C 0.8742 0.08982 0.11318 0.0
C3285 C 0.87733 0.1004 0.10013 0.0
C3286 C 0.87843 0.10816 0.13038 0.0
C3287 C 0.91385 0.15871 0.26209 0.0
C3288 C 0.91556 0.16425 0.22286 0.0
C3289 C 0.90518 0.14804 0.26669 0.0
C3290 C 0.89807 0.14278 0.23219 0.0
C3291 C 0.89998 0.14822 0.19279 0.0
C3292 C 0.9086 0.15882 0.18818 0.0
C3293 C 0.88838 0.13177 0.23671 0.0
C3294 C 0.88698 0.1237 0.2072 0.0
C3295 C 0.88016 0.12941 0.26753 0.0
C3296 C 0.88098 0.13762 0.29894 0.0
C3297 C 0.88191 0.14746 0.28499 0.0
C3298 C 0.88275 0.15519 0.3149 0.0
C3299 C 0.88256 0.15311 0.35884 0.0
C3300 C 0.88151 0.14328 0.37296 0.0
C3301 C 0.88068 0.13554 0.34317 0.0
H3302 H 0.88321 0.15909 0.38196 0.0
H3303 H 0.87334 0.08382 0.0897 0.0
H3304 H 0.91556 0.75543 0.16389 0.0
H3305 H 0.90044 0.75854 0.17659 0.0
H3306 H 0.90551 0.75886 0.31329 0.0
H3307 H 0.92071 0.75557 0.30073 0.0
H3308 H 0.8844 0.74595 0.29292 0.0
H3309 H 0.91114 0.78231 0.262 0.0
H3310 H 0.92635 0.79735 0.2232 0.0
H3311 H 0.90647 0.79005 0.11053 0.0
H3312 H 0.89117 0.77486 0.14841 0.0
H3313 H 0.83901 0.75547 0.30136 0.0
H3314 H 0.85755 0.75882 0.31322 0.0
H3315 H 0.86132 0.75646 0.17689 0.0
H3316 H 0.84296 0.75312 0.16487 0.0
H3317 H 0.87951 0.77349 0.21347 0.0
H3318 H 0.85453 0.73501 0.24104 0.0
H3319 H 0.83937 0.71972 0.27915 0.0
H3320 H 0.85629 0.73136 0.3989 0.0
H3321 H 0.8715 0.7468 0.3615 0.0
C3322 C 0.91357 0.75628 0.19671 0.0
C3323 C 0.91934 0.75524 0.23131 0.0
C3324 C 0.90495 0.75814 0.20392 0.0
C3325 C 0.90191 0.75908 0.24588 0.0
C3326 C 0.90775 0.75822 0.28063 0.0
C3327 C 0.91645 0.75638 0.2734 0.0
C3328 C 0.89216 0.7602 0.25275 0.0
C3329 C 0.88344 0.75216 0.27652 0.0
C3330 C 0.89084 0.76823 0.23105 0.0
C3331 C 0.90001 0.77741 0.20807 0.0
C3332 C 0.91002 0.78386 0.22887 0.0
C3333 C 0.91866 0.79242 0.20704 0.0
C3334 C 0.91738 0.79464 0.16442 0.0
C3335 C 0.90745 0.78832 0.14356 0.0
C3336 C 0.89878 0.77975 0.16523 0.0
C3337 C 0.84385 0.75577 0.27395 0.0
C3338 C 0.8395 0.75396 0.23221 0.0
C3339 C 0.85442 0.75765 0.28078 0.0
C3340 C 0.86079 0.75784 0.24593 0.0
C3341 C 0.85656 0.75638 0.20423 0.0
C3342 C 0.84603 0.75441 0.19745 0.0
C3343 C 0.87169 0.75902 0.25222 0.0
C3344 C 0.88061 0.76749 0.23088 0.0
C3345 C 0.87319 0.75141 0.2762 0.0
C3346 C 0.86407 0.74213 0.2986 0.0
C3347 C 0.85497 0.73436 0.27555 0.0
C3348 C 0.84638 0.72566 0.297 0.0
C3349 C 0.84685 0.72459 0.34144 0.0
C3350 C 0.85593 0.73221 0.3645 0.0
C3351 C 0.86453 0.74094 0.3432 0.0
H3352 H 0.84019 0.71784 0.35799 0.0
H3353 H 0.92408 0.80127 0.14757 0.0
H3354 H 0.08736 0.24957 0.85057 0.0
H3355 H 0.10391 0.24867 0.84128 0.0
H3356 H 0.09874 0.24546 0.70437 0.0
H3357 H 0.08197 0.2463 0.71342 0.0
H3358 H 0.10656 0.23201 0.73872 0.0
H3359 H 0.1161 0.26937 0.73974 0.0
H3360 H 0.11591 0.28562 0.76651 0.0
H3361 H 0.12996 0.28355 0.88568 0.0
H3362 H 0.13008 0.26719 0.85989 0.0
H3363 H 0.16318 0.24642 0.71477 0.0
H3364 H 0.14537 0.24512 0.70609 0.0
H3365 H 0.14451 0.25059 0.84192 0.0
H3366 H 0.16219 0.252 0.85074 0.0
H3367 H 0.14001 0.26378 0.79556 0.0
H3368 H 0.12881 0.22547 0.79694 0.0
H3369 H 0.1287 0.20902 0.77091 0.0
H3370 H 0.11789 0.21296 0.64694 0.0
H3371 H 0.11807 0.22953 0.6721 0.0
C3372 C 0.08964 0.24855 0.81844 0.0
C3373 C 0.0834 0.24811 0.78267 0.0
C3374 C 0.09913 0.24806 0.81321 0.0
C3375 C 0.10265 0.24718 0.77209 0.0
C3376 C 0.09618 0.24618 0.73636 0.0
C3377 C 0.08662 0.24668 0.74159 0.0
C3378 C 0.11339 0.24794 0.76698 0.0
C3379 C 0.11393 0.23903 0.75036 0.0
C3380 C 0.12297 0.25707 0.78247 0.0
C3381 C 0.12303 0.267 0.79795 0.0
C3382 C 0.11908 0.27234 0.77176 0.0
C3383 C 0.119 0.28157 0.78675 0.0
C3384 C 0.12291 0.2856 0.82779 0.0
C3385 C 0.12694 0.28042 0.85389 0.0
C3386 C 0.12703 0.27117 0.83909 0.0
C3387 C 0.15913 0.24723 0.7428 0.0
C3388 C 0.16413 0.24936 0.78341 0.0
C3389 C 0.14895 0.24647 0.73781 0.0
C3390 C 0.14361 0.24777 0.77337 0.0
C3391 C 0.1485 0.24962 0.81398 0.0
C3392 C 0.15862 0.2504 0.81897 0.0
C3393 C 0.13316 0.24769 0.76872 0.0
C3394 C 0.13269 0.2568 0.78335 0.0
C3395 C 0.12369 0.23876 0.75134 0.0
C3396 C 0.12359 0.22881 0.73623 0.0
C3397 C 0.12651 0.22288 0.76401 0.0
C3398 C 0.12641 0.21353 0.74944 0.0
C3399 C 0.12333 0.20997 0.70725 0.0
C3400 C 0.1203 0.21574 0.67958 0.0
C3401 C 0.12039 0.22511 0.69398 0.0
H3402 H 0.12326 0.20272 0.69604 0.0
H3403 H 0.12282 0.29275 0.83936 0.0
H3404 H 0.74931 0.83842 0.84759 0.0
H3405 H 0.7497 0.85551 0.83476 0.0
H3406 H 0.75878 0.85526 0.70285 0.0
H3407 H 0.75838 0.83795 0.7154 0.0
H3408 H 0.77039 0.87638 0.74565 0.0
H3409 H 0.73412 0.84821 0.71686 0.0
H3410 H 0.71705 0.83107 0.73037 0.0
H3411 H 0.71229 0.84428 0.847 0.0
H3412 H 0.72943 0.86144 0.83454 0.0
H3413 H 0.75653 0.91888 0.71228 0.0
H3414 H 0.7582 0.90259 0.70256 0.0
H3415 H 0.74667 0.89248 0.83183 0.0
H3416 H 0.74498 0.90855 0.84174 0.0
H3417 H 0.73591 0.87617 0.77408 0.0
H3418 H 0.77319 0.90322 0.80754 0.0
H3419 H 0.79049 0.92026 0.79582 0.0
H3420 H 0.79335 0.90919 0.67078 0.0
H3421 H 0.77597 0.89213 0.68157 0.0
C3422 C 0.75148 0.842 0.81586 0.0
C3423 C 0.75373 0.83677 0.78241 0.0
C3424 C 0.75168 0.85178 0.80859 0.0
C3425 C 0.75414 0.85657 0.76776 0.0
C3426 C 0.75683 0.85165 0.73457 0.0
C3427 C 0.75657 0.84177 0.74178 0.0
C3428 C 0.75335 0.86646 0.76015 0.0
C3429 C 0.76282 0.87633 0.75086 0.0
C3430 C 0.74348 0.86637 0.76736 0.0
C3431 C 0.73311 0.85609 0.77487 0.0
C3432 C 0.72948 0.84743 0.74555 0.0
C3433 C 0.71978 0.83772 0.753 0.0
C3434 C 0.71359 0.83658 0.78956 0.0
C3435 C 0.71709 0.84517 0.8187 0.0
C3436 C 0.72679 0.8549 0.81143 0.0
C3437 C 0.75443 0.9132 0.73866 0.0
C3438 C 0.75059 0.915 0.77774 0.0
C3439 C 0.7554 0.90392 0.73308 0.0
C3440 C 0.75254 0.89632 0.76648 0.0
C3441 C 0.74887 0.8982 0.80556 0.0
C3442 C 0.74793 0.90743 0.81119 0.0
C3443 C 0.75303 0.88618 0.76112 0.0
C3444 C 0.74346 0.87623 0.76792 0.0
C3445 C 0.7628 0.88622 0.75162 0.0
C3446 C 0.77322 0.89647 0.74512 0.0
C3447 C 0.77745 0.90447 0.77738 0.0
C3448 C 0.78728 0.91412 0.77095 0.0
C3449 C 0.79299 0.91583 0.73252 0.0
C3450 C 0.7889 0.90787 0.70049 0.0
C3451 C 0.77906 0.89821 0.70675 0.0
H3452 H 0.80061 0.9233 0.72761 0.0
H3453 H 0.70609 0.82906 0.79527 0.0
H3454 H 0.1622 0.91587 0.70129 0.0
H3455 H 0.14419 0.89963 0.69271 0.0
H3456 H 0.14113 0.89605 0.83041 0.0
H3457 H 0.15906 0.912 0.8391 0.0
H3458 H 0.1368 0.87756 0.79398 0.0
H3459 H 0.12648 0.90485 0.76941 0.0
H3460 H 0.12727 0.92059 0.73256 0.0
H3461 H 0.11849 0.90298 0.61351 0.0
H3462 H 0.11779 0.88717 0.64958 0.0
H3463 H 0.08329 0.83988 0.83745 0.0
H3464 H 0.09954 0.85759 0.82831 0.0
H3465 H 0.09803 0.85274 0.69125 0.0
H3466 H 0.08156 0.83489 0.70011 0.0
H3467 H 0.10495 0.87479 0.71671 0.0
H3468 H 0.11415 0.84712 0.74276 0.0
H3469 H 0.11307 0.83132 0.78027 0.0
H3470 H 0.1241 0.84985 0.89684 0.0
H3471 H 0.12508 0.86571 0.86019 0.0
C3472 C 0.15761 0.91168 0.72968 0.0
C3473 C 0.16209 0.91517 0.77086 0.0
C3474 C 0.14731 0.90242 0.72474 0.0
C3475 C 0.1413 0.8966 0.76094 0.0
C3476 C 0.14563 0.90034 0.802 0.0
C3477 C 0.1559 0.90949 0.80691 0.0
C3478 C 0.1308 0.88625 0.75676 0.0
C3479 C 0.12983 0.87701 0.77736 0.0
C3480 C 0.1218 0.88539 0.73372 0.0
C3481 C 0.12221 0.89488 0.71208 0.0
C3482 C 0.12481 0.90437 0.7353 0.0
C3483 C 0.12522 0.9133 0.71457 0.0
C3484 C 0.12296 0.9128 0.6707 0.0
C3485 C 0.12026 0.90336 0.64748 0.0
C3486 C 0.11984 0.89441 0.66805 0.0
C3487 C 0.08628 0.84262 0.80523 0.0
C3488 C 0.08121 0.83591 0.76953 0.0
C3489 C 0.09558 0.85276 0.80008 0.0
C3490 C 0.10009 0.85639 0.75919 0.0
C3491 C 0.09469 0.85006 0.7231 0.0
C3492 C 0.0853 0.83986 0.72822 0.0
C3493 C 0.11093 0.86631 0.75527 0.0
C3494 C 0.11198 0.87537 0.73297 0.0
C3495 C 0.12006 0.86707 0.77674 0.0
C3496 C 0.11962 0.85758 0.79878 0.0
C3497 C 0.11628 0.8478 0.77646 0.0
C3498 C 0.11569 0.83884 0.79757 0.0
C3499 C 0.1185 0.83957 0.84093 0.0
C3500 C 0.12192 0.84929 0.86326 0.0
C3501 C 0.12251 0.85827 0.84232 0.0
H3502 H 0.11803 0.83262 0.85722 0.0
H3503 H 0.12328 0.91972 0.65471 0.0
H3504 H 0.91565 0.42311 0.49625 0.0
H3505 H 0.91238 0.43819 0.50797 0.0
H3506 H 0.90936 0.43177 0.64414 0.0
H3507 H 0.91271 0.41658 0.63261 0.0
H3508 H 0.89551 0.43956 0.54167 0.0
H3509 H 0.92056 0.45723 0.69458 0.0
H3510 H 0.9356 0.45723 0.73431 0.0
H3511 H 0.94843 0.45261 0.61637 0.0
H3512 H 0.93356 0.45272 0.57595 0.0
H3513 H 0.91165 0.49767 0.63426 0.0
H3514 H 0.90846 0.47916 0.64536 0.0
H3515 H 0.91122 0.47588 0.50892 0.0
H3516 H 0.9143 0.49415 0.49764 0.0
H3517 H 0.92206 0.47135 0.62685 0.0
H3518 H 0.89515 0.45048 0.47652 0.0
H3519 H 0.88053 0.45096 0.43561 0.0
H3520 H 0.87161 0.4625 0.54715 0.0
H3521 H 0.88607 0.46194 0.58894 0.0
C3522 C 0.91423 0.42484 0.52874 0.0
C3523 C 0.9145 0.41868 0.56355 0.0
C3524 C 0.91231 0.43344 0.53535 0.0
C3525 C 0.91069 0.43616 0.57692 0.0
C3526 C 0.91068 0.42987 0.6118 0.0
C3527 C 0.91256 0.42118 0.60516 0.0
C3528 C 0.9095 0.44589 0.5831 0.0
C3529 C 0.90131 0.44651 0.56031 0.0
C3530 C 0.91683 0.45483 0.60859 0.0
C3531 C 0.92587 0.45483 0.6324 0.0
C3532 C 0.9266 0.45623 0.67717 0.0
C3533 C 0.9351 0.45621 0.69979 0.0
C3534 C 0.94294 0.45487 0.6779 0.0
C3535 C 0.94233 0.45359 0.63331 0.0
C3536 C 0.93386 0.45362 0.61055 0.0
C3537 C 0.91142 0.49292 0.60664 0.0
C3538 C 0.91322 0.49738 0.56507 0.0
C3539 C 0.90963 0.48238 0.61304 0.0
C3540 C 0.90948 0.47608 0.57793 0.0
C3541 C 0.9111 0.48049 0.53645 0.0
C3542 C 0.91292 0.49098 0.53008 0.0
C3543 C 0.90831 0.46517 0.58408 0.0
C3544 C 0.91607 0.46431 0.60914 0.0
C3545 C 0.90058 0.45602 0.56061 0.0
C3546 C 0.89174 0.45622 0.53582 0.0
C3547 C 0.89003 0.45305 0.49243 0.0
C3548 C 0.88178 0.45336 0.46905 0.0
C3549 C 0.87516 0.45678 0.48875 0.0
C3550 C 0.87676 0.45988 0.5319 0.0
C3551 C 0.885 0.45959 0.55543 0.0
H3552 H 0.86879 0.45702 0.47058 0.0
H3553 H 0.9495 0.45485 0.69547 0.0
H3554 H 0.50411 0.41568 0.62443 0.0
H3555 H 0.52252 0.43119 0.63518 0.0
H3556 H 0.52549 0.43733 0.49883 0.0
H3557 H 0.50726 0.42196 0.48788 0.0
H3558 H 0.54394 0.43889 0.53258 0.0
H3559 H 0.51894 0.45189 0.56565 0.0
H3560 H 0.50389 0.45181 0.60554 0.0
H3561 H 0.52136 0.45691 0.72377 0.0
H3562 H 0.53646 0.45688 0.68458 0.0
H3563 H 0.58057 0.4935 0.49014 0.0
H3564 H 0.56508 0.47534 0.50029 0.0
H3565 H 0.57033 0.4783 0.63723 0.0
H3566 H 0.58593 0.49669 0.62728 0.0
H3567 H 0.54911 0.47074 0.61711 0.0
H3568 H 0.57561 0.46106 0.58123 0.0
H3569 H 0.59071 0.46149 0.54049 0.0
H3570 H 0.57066 0.4502 0.42777 0.0
H3571 H 0.55549 0.44985 0.46763 0.0
C3572 C 0.50873 0.4203 0.59677 0.0
C3573 C 0.5042 0.41762 0.55532 0.0
C3574 C 0.51923 0.42917 0.60297 0.0
C3575 C 0.52536 0.43545 0.56781 0.0
C3576 C 0.52093 0.43259 0.52641 0.0
C3577 C 0.51047 0.42381 0.52024 0.0
C3578 C 0.53624 0.44525 0.57356 0.0
C3579 C 0.54509 0.44586 0.55103 0.0
C3580 C 0.53781 0.45422 0.59879 0.0
C3581 C 0.52875 0.45423 0.6223 0.0
C3582 C 0.51952 0.45289 0.60021 0.0
C3583 C 0.511 0.45289 0.62267 0.0
C3584 C 0.51165 0.45431 0.66719 0.0
C3585 C 0.52085 0.45578 0.68931 0.0
C3586 C 0.52939 0.45577 0.66699 0.0
C3587 C 0.57853 0.49028 0.52246 0.0
C3588 C 0.5845 0.49655 0.55792 0.0
C3589 C 0.56969 0.47985 0.52819 0.0
C3590 C 0.5666 0.47538 0.56948 0.0
C3591 C 0.5726 0.48156 0.60505 0.0
C3592 C 0.58153 0.49204 0.59931 0.0
C3593 C 0.55674 0.46452 0.57493 0.0
C3594 C 0.54808 0.46369 0.59952 0.0
C3595 C 0.55533 0.45534 0.55158 0.0
C3596 C 0.56442 0.45548 0.52743 0.0
C3597 C 0.57444 0.45874 0.54768 0.0
C3598 C 0.58301 0.45896 0.52475 0.0
C3599 C 0.58165 0.45589 0.48156 0.0
C3600 C 0.5717 0.45258 0.46123 0.0
C3601 C 0.56311 0.45235 0.48401 0.0
H3602 H 0.58829 0.45607 0.46386 0.0
H3603 H 0.50505 0.45431 0.68452 0.0
H3604 H 0.58127 0.08839 0.48667 0.0
H3605 H 0.56632 0.09178 0.49975 0.0
H3606 H 0.57215 0.09302 0.63611 0.0
H3607 H 0.58722 0.08955 0.62319 0.0
H3608 H 0.55061 0.07994 0.61596 0.0
H3609 H 0.57815 0.11608 0.58458 0.0
H3610 H 0.59348 0.13075 0.54483 0.0
H3611 H 0.57324 0.12388 0.43349 0.0
H3612 H 0.55782 0.10906 0.47234 0.0
H3613 H 0.50651 0.09081 0.63186 0.0
H3614 H 0.52493 0.09367 0.64101 0.0
H3615 H 0.52811 0.09268 0.50357 0.0
H3616 H 0.50989 0.08994 0.49422 0.0
H3617 H 0.5467 0.10838 0.53899 0.0
H3618 H 0.5207 0.07025 0.56573 0.0
H3619 H 0.50535 0.05511 0.60366 0.0
H3620 H 0.52284 0.06564 0.72274 0.0
H3621 H 0.53824 0.08093 0.68553 0.0
C3622 C 0.57946 0.08948 0.51948 0.0
C3623 C 0.58544 0.08869 0.55391 0.0
C3624 C 0.57094 0.09148 0.52689 0.0
C3625 C 0.56818 0.09278 0.56888 0.0
C3626 C 0.57418 0.0921 0.60343 0.0
C3627 C 0.58279 0.09015 0.596 0.0
C3628 C 0.55864 0.09422 0.57612 0.0
C3629 C 0.54985 0.08633 0.60007 0.0
C3630 C 0.55759 0.10246 0.5549 0.0
C3631 C 0.56683 0.11141 0.53137 0.0
C3632 C 0.57698 0.11765 0.55153 0.0
C3633 C 0.58568 0.126 0.52916 0.0
C3634 C 0.58433 0.12823 0.48665 0.0
C3635 C 0.57427 0.12214 0.46643 0.0
C3636 C 0.56554 0.11377 0.48864 0.0
C3637 C 0.5112 0.09136 0.60363 0.0
C3638 C 0.50671 0.09008 0.56233 0.0
C3639 C 0.5217 0.09294 0.6089 0.0
C3640 C 0.52786 0.09328 0.57297 0.0
C3641 C 0.52353 0.09246 0.53176 0.0
C3642 C 0.51307 0.09084 0.52649 0.0
C3643 C 0.53857 0.0939 0.57761 0.0
C3644 C 0.54756 0.10217 0.55582 0.0
C3645 C 0.5398 0.08599 0.60067 0.0
C3646 C 0.53055 0.0768 0.62298 0.0
C3647 C 0.52123 0.06939 0.60006 0.0
C3648 C 0.51253 0.06077 0.62141 0.0
C3649 C 0.5131 0.05944 0.66561 0.0
C3650 C 0.52239 0.0667 0.68852 0.0
C3651 C 0.53111 0.07534 0.66733 0.0
H3652 H 0.50636 0.05276 0.68208 0.0
H3653 H 0.59108 0.1347 0.46938 0.0
H3654 H 0.75351 0.58038 0.17569 0.0
H3655 H 0.76964 0.57868 0.16728 0.0
H3656 H 0.76621 0.57816 0.02958 0.0
H3657 H 0.74982 0.57973 0.03778 0.0
H3658 H 0.77307 0.56379 0.05916 0.0
H3659 H 0.78372 0.60124 0.07396 0.0
H3660 H 0.78376 0.61711 0.10612 0.0
H3661 H 0.79567 0.61166 0.2248 0.0
H3662 H 0.79554 0.59563 0.19356 0.0
H3663 H 0.83009 0.57836 0.04181 0.0
H3664 H 0.81233 0.57713 0.03246 0.0
H3665 H 0.80924 0.57825 0.16987 0.0
H3666 H 0.82684 0.5795 0.17945 0.0
H3667 H 0.80611 0.59333 0.12872 0.0
H3668 H 0.79407 0.55498 0.11454 0.0
H3669 H 0.79393 0.5391 0.08185 0.0
H3670 H 0.78498 0.5466 0.96028 0.0
H3671 H 0.78521 0.56263 0.99216 0.0
C3672 C 0.75608 0.57978 0.14355 0.0
C3673 C 0.75046 0.58032 0.10736 0.0
C3674 C 0.76532 0.57882 0.13881 0.0
C3675 C 0.76924 0.5785 0.0978 0.0
C3676 C 0.76334 0.57844 0.06151 0.0
C3677 C 0.754 0.57936 0.06625 0.0
C3678 C 0.77987 0.57895 0.09357 0.0
C3679 C 0.78036 0.57033 0.07367 0.0
C3680 C 0.78936 0.58748 0.11265 0.0
C3681 C 0.78955 0.59718 0.13147 0.0
C3682 C 0.78628 0.60338 0.107 0.0
C3683 C 0.78632 0.61241 0.12506 0.0
C3684 C 0.7897 0.61538 0.1675 0.0
C3685 C 0.79305 0.60934 0.19194 0.0
C3686 C 0.79301 0.60029 0.17405 0.0
C3687 C 0.82554 0.57818 0.07 0.0
C3688 C 0.82991 0.5791 0.11136 0.0
C3689 C 0.8154 0.57747 0.0646 0.0
C3690 C 0.80949 0.57764 0.10049 0.0
C3691 C 0.81369 0.57817 0.14173 0.0
C3692 C 0.82376 0.57886 0.14713 0.0
C3693 C 0.79926 0.57797 0.09574 0.0
C3694 C 0.79887 0.58683 0.11377 0.0
C3695 C 0.78994 0.5697 0.07473 0.0
C3696 C 0.78979 0.56008 0.0556 0.0
C3697 C 0.79218 0.55331 0.08074 0.0
C3698 C 0.79205 0.54426 0.06238 0.0
C3699 C 0.78948 0.54186 0.01898 0.0
C3700 C 0.78699 0.54848 0.99388 0.0
C3701 C 0.78711 0.55754 0.01208 0.0
H3702 H 0.78939 0.53486 0.00482 0.0
H3703 H 0.78972 0.62238 0.18143 0.0
H3704 H 0.42077 0.17299 0.1781 0.0
H3705 H 0.42347 0.19115 0.16732 0.0
H3706 H 0.42567 0.18788 0.03051 0.0
H3707 H 0.42282 0.1695 0.04109 0.0
H3708 H 0.4395 0.20959 0.13368 0.0
H3709 H 0.41387 0.2016 0.98167 0.0
H3710 H 0.39892 0.18634 0.94246 0.0
H3711 H 0.38688 0.16873 0.06061 0.0
H3712 H 0.40167 0.18394 0.10051 0.0
H3713 H 0.42306 0.25116 0.04149 0.0
H3714 H 0.42612 0.23575 0.0306 0.0
H3715 H 0.4226 0.22933 0.16674 0.0
H3716 H 0.41958 0.24458 0.17782 0.0
H3717 H 0.41228 0.21399 0.04954 0.0
H3718 H 0.43943 0.22069 0.19933 0.0
H3719 H 0.45383 0.23596 0.24032 0.0
H3720 H 0.4624 0.25637 0.12875 0.0
H3721 H 0.44817 0.24119 0.08689 0.0
C3722 C 0.4219 0.17613 0.14567 0.0
C3723 C 0.42151 0.16975 0.11042 0.0
C3724 C 0.4235 0.18655 0.13958 0.0
C3725 C 0.42469 0.19086 0.09811 0.0
C3726 C 0.42465 0.18468 0.06279 0.0
C3727 C 0.42307 0.1742 0.06889 0.0
C3728 C 0.42548 0.20163 0.09251 0.0
C3729 C 0.43355 0.21056 0.11528 0.0
C3730 C 0.41793 0.203 0.06744 0.0
C3731 C 0.40896 0.19384 0.04391 0.0
C3732 C 0.40802 0.19447 0.99924 0.0
C3733 C 0.39957 0.18583 0.97691 0.0
C3734 C 0.39198 0.17655 0.999 0.0
C3735 C 0.39279 0.1759 0.0435 0.0
C3736 C 0.40121 0.18452 0.06598 0.0
C3737 C 0.42305 0.24651 0.06908 0.0
C3738 C 0.42109 0.2491 0.11052 0.0
C3739 C 0.42476 0.2377 0.0628 0.0
C3740 C 0.42471 0.23147 0.09791 0.0
C3741 C 0.42286 0.23413 0.13924 0.0
C3742 C 0.42107 0.24283 0.14548 0.0
C3743 C 0.42607 0.22184 0.09192 0.0
C3744 C 0.41841 0.21313 0.06703 0.0
C3745 C 0.43398 0.22065 0.11522 0.0
C3746 C 0.44268 0.2298 0.14003 0.0
C3747 C 0.44443 0.22841 0.18345 0.0
C3748 C 0.45256 0.23706 0.20686 0.0
C3749 C 0.45901 0.24714 0.18718 0.0
C3750 C 0.45737 0.24858 0.144 0.0
C3751 C 0.44927 0.23995 0.12043 0.0
H3752 H 0.46529 0.25382 0.20537 0.0
H3753 H 0.38546 0.16987 0.98166 0.0
H3754 H 0.74447 0.1768 0.07729 0.0
H3755 H 0.76031 0.19518 0.07143 0.0
H3756 H 0.78103 0.18303 0.1164 0.0
H3757 H 0.76517 0.16501 0.1253 0.0
H3758 H 0.78662 0.19982 0.15577 0.0
H3759 H 0.77986 0.19145 0.0061 0.0
H3760 H 0.76916 0.18589 0.93911 0.0
H3761 H 0.76413 0.21322 0.94887 0.0
H3762 H 0.77469 0.21886 0.01622 0.0
H3763 H 0.83386 0.24942 0.04229 0.0
H3764 H 0.81643 0.23246 0.03471 0.0
H3765 H 0.80621 0.23819 0.15773 0.0
H3766 H 0.82379 0.25474 0.16637 0.0
H3767 H 0.79551 0.22485 0.03205 0.0
H3768 H 0.79326 0.21561 0.21471 0.0
H3769 H 0.8057 0.2199 0.27629 0.0
H3770 H 0.8316 0.22522 0.19064 0.0
H3771 H 0.81929 0.22082 0.12866 0.0
C3772 C 0.75245 0.17811 0.08558 0.0
C3773 C 0.75364 0.16957 0.10202 0.0
C3774 C 0.76152 0.18859 0.08197 0.0
C3775 C 0.77196 0.19057 0.09323 0.0
C3776 C 0.7731 0.18183 0.10797 0.0
C3777 C 0.76404 0.17151 0.11291 0.0
C3778 C 0.78166 0.20174 0.09242 0.0
C3779 C 0.78851 0.20523 0.12852 0.0
C3780 C 0.78432 0.20888 0.05688 0.0
C3781 C 0.77797 0.20551 0.01642 0.0
C3782 C 0.7764 0.19623 0.99412 0.0
C3783 C 0.77038 0.19307 0.95606 0.0
C3784 C 0.76595 0.19918 0.93981 0.0
C3785 C 0.76756 0.20848 0.96153 0.0
C3786 C 0.77357 0.21167 0.99962 0.0
C3787 C 0.8278 0.24713 0.0673 0.0
C3788 C 0.8302 0.25328 0.10519 0.0
C3789 C 0.81783 0.23745 0.06294 0.0
C3790 C 0.8101 0.23388 0.09616 0.0
C3791 C 0.81216 0.24059 0.13222 0.0
C3792 C 0.82219 0.25008 0.13706 0.0
C3793 C 0.80038 0.22277 0.09518 0.0
C3794 C 0.79354 0.21936 0.05906 0.0
C3795 C 0.79794 0.21546 0.12988 0.0
C3796 C 0.80538 0.21801 0.16705 0.0
C3797 C 0.8016 0.21766 0.20906 0.0
C3798 C 0.80863 0.22012 0.24402 0.0
C3799 C 0.81944 0.22287 0.23737 0.0
C3800 C 0.82324 0.22313 0.19575 0.0
C3801 C 0.81624 0.22066 0.16069 0.0
H3802 H 0.82487 0.22478 0.26447 0.0
H3803 H 0.76128 0.19673 0.91034 0.0
H3804 H 0.58155 0.74913 0.95325 0.0
H3805 H 0.58031 0.76561 0.96411 0.0
H3806 H 0.58684 0.77332 0.82956 0.0
H3807 H 0.58813 0.75705 0.81853 0.0
H3808 H 0.59991 0.79046 0.88041 0.0
H3809 H 0.56153 0.76359 0.87052 0.0
H3810 H 0.54474 0.74707 0.89283 0.0
H3811 H 0.54734 0.7606 0.01851 0.0
H3812 H 0.56424 0.77716 0.99707 0.0
H3813 H 0.58682 0.8295 0.8239 0.0
H3814 H 0.58609 0.81215 0.83297 0.0
H3815 H 0.57987 0.81254 0.96831 0.0
H3816 H 0.58045 0.83004 0.95936 0.0
H3817 H 0.56752 0.79183 0.93147 0.0
H3818 H 0.60476 0.81951 0.93897 0.0
H3819 H 0.62143 0.83614 0.91652 0.0
H3820 H 0.62122 0.82108 0.79669 0.0
H3821 H 0.60445 0.80442 0.81813 0.0
C3822 C 0.58261 0.7543 0.92597 0.0
C3823 C 0.58499 0.7518 0.88507 0.0
C3824 C 0.58188 0.76369 0.93221 0.0
C3825 C 0.5835 0.77071 0.89763 0.0
C3826 C 0.58562 0.76807 0.85674 0.0
C3827 C 0.58633 0.75872 0.85049 0.0
C3828 C 0.58348 0.78107 0.90361 0.0
C3829 C 0.59281 0.79074 0.89139 0.0
C3830 C 0.57436 0.78149 0.91953 0.0
C3831 C 0.56422 0.77155 0.93237 0.0
C3832 C 0.55858 0.763 0.90303 0.0
C3833 C 0.54903 0.75364 0.91549 0.0
C3834 C 0.545 0.75277 0.95711 0.0
C3835 C 0.55049 0.76128 0.98631 0.0
C3836 C 0.56005 0.77065 0.97402 0.0
C3837 C 0.58522 0.82591 0.85563 0.0
C3838 C 0.58381 0.83122 0.89102 0.0
C3839 C 0.58483 0.81597 0.86076 0.0
C3840 C 0.58313 0.81115 0.90144 0.0
C3841 C 0.58125 0.81617 0.93667 0.0
C3842 C 0.5816 0.82616 0.93152 0.0
C3843 C 0.58381 0.80112 0.90665 0.0
C3844 C 0.57468 0.79155 0.92115 0.0
C3845 C 0.59313 0.80076 0.89299 0.0
C3846 C 0.6033 0.81073 0.8801 0.0
C3847 C 0.60823 0.81977 0.90772 0.0
C3848 C 0.6177 0.8292 0.89519 0.0
C3849 C 0.62237 0.82967 0.85518 0.0
C3850 C 0.61759 0.8207 0.82767 0.0
C3851 C 0.60811 0.81126 0.84003 0.0
H3852 H 0.6297 0.83698 0.84553 0.0
H3853 H 0.5376 0.74551 0.96669 0.0
H3854 H 0.17522 0.75375 0.82412 0.0
H3855 H 0.19287 0.77007 0.83301 0.0
H3856 H 0.18994 0.76625 0.9706 0.0
H3857 H 0.17214 0.74973 0.96192 0.0
H3858 H 0.19587 0.78829 0.87287 0.0
H3859 H 0.21705 0.77937 0.01099 0.0
H3860 H 0.21748 0.76382 0.04427 0.0
H3861 H 0.20861 0.74682 0.92385 0.0
H3862 H 0.20828 0.76232 0.88976 0.0
H3863 H 0.25196 0.83182 0.96226 0.0
H3864 H 0.23571 0.8138 0.97144 0.0
H3865 H 0.23227 0.81022 0.8339 0.0
H3866 H 0.24825 0.82811 0.8245 0.0
H3867 H 0.22907 0.79245 0.94342 0.0
H3868 H 0.20634 0.80093 0.80737 0.0
H3869 H 0.20601 0.81659 0.7748 0.0
H3870 H 0.21775 0.83448 0.89251 0.0
H3871 H 0.218 0.81888 0.926 0.0
C3872 C 0.17836 0.75627 0.85633 0.0
C3873 C 0.17223 0.75048 0.89234 0.0
C3874 C 0.18846 0.76562 0.86134 0.0
C3875 C 0.19271 0.76941 0.90243 0.0
C3876 C 0.18684 0.76343 0.93857 0.0
C3877 C 0.17668 0.754 0.93356 0.0
C3878 C 0.20288 0.78005 0.90674 0.0
C3879 C 0.20315 0.78916 0.88803 0.0
C3880 C 0.21224 0.78129 0.92806 0.0
C3881 C 0.2125 0.77195 0.94802 0.0
C3882 C 0.21521 0.77232 0.99162 0.0
C3883 C 0.21544 0.76352 0.01061 0.0
C3884 C 0.21303 0.75432 0.98623 0.0
C3885 C 0.21043 0.75393 0.94275 0.0
C3886 C 0.2102 0.76271 0.9236 0.0
C3887 C 0.2478 0.82711 0.93404 0.0
C3888 C 0.2513 0.83145 0.89266 0.0
C3889 C 0.23855 0.81682 0.93934 0.0
C3890 C 0.23269 0.81077 0.90335 0.0
C3891 C 0.23656 0.81484 0.86212 0.0
C3892 C 0.24571 0.82508 0.85682 0.0
C3893 C 0.22213 0.80054 0.90806 0.0
C3894 C 0.22175 0.79156 0.92868 0.0
C3895 C 0.21259 0.79939 0.8887 0.0
C3896 C 0.21227 0.80875 0.86907 0.0
C3897 C 0.2088 0.80818 0.82638 0.0
C3898 C 0.20863 0.81706 0.80775 0.0
C3899 C 0.21188 0.82653 0.83154 0.0
C3900 C 0.21527 0.82715 0.87407 0.0
C3901 C 0.21543 0.81829 0.89288 0.0
H3902 H 0.21176 0.8334 0.81703 0.0
H3903 H 0.21321 0.74751 0.001 0.0
H3904 H 0.17132 0.4225 0.95551 0.0
H3905 H 0.18901 0.4236 0.96533 0.0
H3906 H 0.19088 0.41946 0.82898 0.0
H3907 H 0.17335 0.41832 0.81896 0.0
H3908 H 0.19434 0.4053 0.87539 0.0
H3909 H 0.2065 0.44386 0.87658 0.0
H3910 H 0.20697 0.4604 0.90383 0.0
H3911 H 0.21707 0.45543 0.02768 0.0
H3912 H 0.21652 0.43878 0.00128 0.0
H3913 H 0.24657 0.4184 0.82064 0.0
H3914 H 0.23021 0.41959 0.8306 0.0
H3915 H 0.23556 0.42258 0.96743 0.0
H3916 H 0.25218 0.42148 0.95768 0.0
H3917 H 0.22806 0.43631 0.93447 0.0
H3918 H 0.21766 0.39878 0.93136 0.0
H3919 H 0.21741 0.38237 0.90397 0.0
H3920 H 0.20376 0.38516 0.78489 0.0
H3921 H 0.20409 0.4017 0.81131 0.0
C3922 C 0.17558 0.42196 0.92762 0.0
C3923 C 0.17089 0.42025 0.88649 0.0
C3924 C 0.18568 0.4226 0.93328 0.0
C3925 C 0.19124 0.42157 0.89788 0.0
C3926 C 0.1867 0.4202 0.85678 0.0
C3927 C 0.17667 0.41958 0.85112 0.0
C3928 C 0.20149 0.42131 0.90314 0.0
C3929 C 0.20172 0.41211 0.88812 0.0
C3930 C 0.21101 0.43001 0.92128 0.0
C3931 C 0.21133 0.44 0.93712 0.0
C3932 C 0.20872 0.44624 0.90974 0.0
C3933 C 0.20903 0.45565 0.925 0.0
C3934 C 0.21201 0.45894 0.9675 0.0
C3935 C 0.21473 0.45286 0.9948 0.0
C3936 C 0.21443 0.44344 0.97969 0.0
C3937 C 0.24436 0.4194 0.85291 0.0
C3938 C 0.25062 0.41972 0.88844 0.0
C3939 C 0.23498 0.42007 0.85853 0.0
C3940 C 0.23157 0.42098 0.8998 0.0
C3941 C 0.23804 0.42182 0.93532 0.0
C3942 C 0.2475 0.42117 0.9297 0.0
C3943 C 0.22095 0.42047 0.90518 0.0
C3944 C 0.22063 0.42945 0.92237 0.0
C3945 C 0.21128 0.41154 0.88917 0.0
C3946 C 0.21096 0.40153 0.87325 0.0
C3947 C 0.21467 0.39594 0.89923 0.0
C3948 C 0.21451 0.38661 0.88388 0.0
C3949 C 0.21059 0.38274 0.84269 0.0
C3950 C 0.2068 0.38818 0.81679 0.0
C3951 C 0.20696 0.39752 0.83196 0.0
H3952 H 0.21047 0.37551 0.83087 0.0
H3953 H 0.21225 0.46623 0.97926 0.0
H3954 H 0.41715 0.91397 0.37521 0.0
H3955 H 0.43371 0.91273 0.3669 0.0
H3956 H 0.4369 0.91275 0.50463 0.0
H3957 H 0.42057 0.91406 0.51317 0.0
H3958 H 0.45538 0.92812 0.46641 0.0
H3959 H 0.42915 0.8899 0.44595 0.0
H3960 H 0.41372 0.87437 0.41008 0.0
H3961 H 0.4313 0.88306 0.29096 0.0
H3962 H 0.44679 0.89874 0.32603 0.0
H3963 H 0.49431 0.9144 0.51654 0.0
H3964 H 0.47672 0.91309 0.50595 0.0
H3965 H 0.48089 0.91356 0.36866 0.0
H3966 H 0.49861 0.91471 0.37905 0.0
H3967 H 0.45943 0.89917 0.39448 0.0
H3968 H 0.48617 0.9364 0.41559 0.0
H3969 H 0.5017 0.95196 0.45082 0.0
H3970 H 0.48317 0.94552 0.56694 0.0
H3971 H 0.46757 0.92981 0.53261 0.0
C3972 C 0.42131 0.91355 0.40366 0.0
C3973 C 0.41759 0.9142 0.44484 0.0
C3974 C 0.43075 0.91282 0.39886 0.0
C3975 C 0.43656 0.91269 0.43517 0.0
C3976 C 0.4326 0.91292 0.47618 0.0
C3977 C 0.42323 0.91365 0.48098 0.0
C3978 C 0.44715 0.91306 0.43124 0.0
C3979 C 0.45623 0.92174 0.45092 0.0
C3980 C 0.44838 0.90498 0.40951 0.0
C3981 C 0.43907 0.89556 0.38848 0.0
C3982 C 0.42969 0.88856 0.41201 0.0
C3983 C 0.42094 0.87972 0.39185 0.0
C3984 C 0.42152 0.87775 0.34824 0.0
C3985 C 0.43086 0.88461 0.32472 0.0
C3986 C 0.43963 0.89347 0.34473 0.0
C3987 C 0.49148 0.91413 0.48402 0.0
C3988 C 0.49792 0.9148 0.44861 0.0
C3989 C 0.48141 0.91339 0.47803 0.0
C3990 C 0.47759 0.91344 0.43654 0.0
C3991 C 0.48372 0.91356 0.40096 0.0
C3992 C 0.49384 0.91424 0.40695 0.0
C3993 C 0.4675 0.914 0.43115 0.0
C3994 C 0.45858 0.90559 0.40951 0.0
C3995 C 0.46639 0.92237 0.45088 0.0
C3996 C 0.47572 0.93188 0.47158 0.0
C3997 C 0.48543 0.93825 0.44872 0.0
C3998 C 0.49424 0.9471 0.46852 0.0
C3999 C 0.49343 0.94971 0.51111 0.0
C4000 C 0.48379 0.94348 0.53395 0.0
C4001 C 0.47495 0.93461 0.51432 0.0
H4002 H 0.50027 0.95657 0.52638 0.0
H4003 H 0.41474 0.8709 0.33269 0.0
H4004 H 0.08927 0.58139 0.50628 0.0
H4005 H 0.09268 0.56644 0.49399 0.0
H4006 H 0.0946 0.57239 0.35757 0.0
H4007 H 0.09108 0.58746 0.36971 0.0
H4008 H 0.08132 0.55099 0.37646 0.0
H4009 H 0.11738 0.57779 0.41139 0.0
H4010 H 0.13205 0.59293 0.45185 0.0
H4011 H 0.12404 0.5727 0.56379 0.0
H4012 H 0.10921 0.55747 0.52422 0.0
H4013 H 0.09095 0.5057 0.36987 0.0
H4014 H 0.09441 0.52429 0.35806 0.0
H4015 H 0.09126 0.52776 0.49407 0.0
H4016 H 0.08782 0.50936 0.50603 0.0
H4017 H 0.10841 0.54605 0.45914 0.0
H4018 H 0.07017 0.52104 0.42775 0.0
H4019 H 0.05514 0.50593 0.38835 0.0
H4020 H 0.06747 0.52311 0.26952 0.0
H4021 H 0.08266 0.53826 0.30824 0.0
C4022 C 0.09054 0.57963 0.47364 0.0
C4023 C 0.0899 0.58562 0.43895 0.0
C4024 C 0.09256 0.5711 0.46667 0.0
C4025 C 0.09402 0.56836 0.42489 0.0
C4026 C 0.09355 0.57441 0.3901 0.0
C4027 C 0.09158 0.58303 0.39709 0.0
C4028 C 0.09528 0.55869 0.41815 0.0
C4029 C 0.08744 0.55002 0.39357 0.0
C4030 C 0.10319 0.55737 0.44081 0.0
C4031 C 0.11214 0.56649 0.46482 0.0
C4032 C 0.1187 0.57658 0.44471 0.0
C4033 C 0.12705 0.58518 0.46749 0.0
C4034 C 0.12897 0.58378 0.51037 0.0
C4035 C 0.12255 0.57377 0.53055 0.0
C4036 C 0.11418 0.56514 0.50793 0.0
C4037 C 0.09111 0.51049 0.39723 0.0
C4038 C 0.08905 0.50604 0.43884 0.0
C4039 C 0.09306 0.52108 0.39043 0.0
C4040 C 0.09304 0.52738 0.42519 0.0
C4041 C 0.09134 0.52306 0.4668 0.0
C4042 C 0.08932 0.5125 0.47354 0.0
C4043 C 0.09422 0.53828 0.41882 0.0
C4044 C 0.10251 0.54716 0.441 0.0
C4045 C 0.08674 0.5398 0.39398 0.0
C4046 C 0.07762 0.5307 0.37078 0.0
C4047 C 0.06973 0.52154 0.39318 0.0
C4048 C 0.06117 0.51298 0.37099 0.0
C4049 C 0.06038 0.51354 0.32644 0.0
C4050 C 0.06812 0.52267 0.30401 0.0
C4051 C 0.0767 0.53125 0.32605 0.0
H4052 H 0.05375 0.50691 0.30932 0.0
H4053 H 0.13545 0.59046 0.52795 0.0
H4054 H 0.49578 0.58705 0.37555 0.0
H4055 H 0.47806 0.57057 0.3638 0.0
H4056 H 0.48001 0.55888 0.48939 0.0
H4057 H 0.49748 0.57518 0.50152 0.0
H4058 H 0.47575 0.5439 0.42246 0.0
H4059 H 0.46356 0.56831 0.47517 0.0
H4060 H 0.46201 0.58483 0.47234 0.0
H4061 H 0.44719 0.57559 0.34778 0.0
H4062 H 0.44879 0.55907 0.34966 0.0
H4063 H 0.42716 0.50304 0.50185 0.0
H4064 H 0.44308 0.52069 0.48808 0.0
H4065 H 0.43055 0.52164 0.36304 0.0
H4066 H 0.4144 0.50377 0.37661 0.0
H4067 H 0.43998 0.54197 0.41034 0.0
H4068 H 0.44959 0.5161 0.36273 0.0
H4069 H 0.4509 0.49946 0.36627 0.0
H4070 H 0.47071 0.51144 0.47941 0.0
H4071 H 0.46938 0.52809 0.47696 0.0
C4072 C 0.49236 0.58101 0.40077 0.0
C4073 C 0.49806 0.58241 0.4394 0.0
C4074 C 0.48225 0.57162 0.39402 0.0
C4075 C 0.47778 0.5635 0.42567 0.0
C4076 C 0.48336 0.56502 0.46447 0.0
C4077 C 0.49334 0.57438 0.47137 0.0
C4078 C 0.46752 0.55314 0.41855 0.0
C4079 C 0.46793 0.54348 0.41974 0.0
C4080 C 0.45737 0.55262 0.41341 0.0
C4081 C 0.45644 0.56254 0.41228 0.0
C4082 C 0.46008 0.56986 0.44698 0.0
C4083 C 0.45917 0.57921 0.4456 0.0
C4084 C 0.45454 0.58128 0.40983 0.0
C4085 C 0.45079 0.57399 0.37542 0.0
C4086 C 0.4517 0.56463 0.37663 0.0
C4087 C 0.42771 0.50698 0.47143 0.0
C4088 C 0.41953 0.50195 0.44018 0.0
C4089 C 0.43684 0.51708 0.46361 0.0
C4090 C 0.43805 0.5224 0.42437 0.0
C4091 C 0.42976 0.51763 0.39349 0.0
C4092 C 0.42058 0.50742 0.40124 0.0
C4093 C 0.44822 0.53277 0.41602 0.0
C4094 C 0.44782 0.5424 0.41188 0.0
C4095 C 0.45843 0.5333 0.41824 0.0
C4096 C 0.45933 0.52333 0.41976 0.0
C4097 C 0.45416 0.51516 0.38854 0.0
C4098 C 0.45492 0.50572 0.39033 0.0
C4099 C 0.46087 0.50438 0.42307 0.0
C4100 C 0.4661 0.51249 0.45406 0.0
C4101 C 0.46536 0.52194 0.45244 0.0
H4102 H 0.46145 0.49707 0.42441 0.0
H4103 H 0.45384 0.58852 0.40883 0.0
loop_
_geom_bond_atom_site_label_1
_geom_bond_atom_site_label_2
_geom_bond_distance
_geom_bond_site_symmetry_2
_ccdc_geom_bond_type
O0 Cd1 2.223 . S
O0 C8 1.315 . S
Cd1 O0 2.223 . S
Cd1 O4 2.297 . S
Cd1 O5 2.439 . S
Cd1 O11 2.240 . S
Cd2 O3 2.240 . S
Cd2 O10 2.223 . S
Cd2 O12 2.297 . S
Cd2 O13 2.439 . S
O3 Cd2 2.240 . S
O3 C8 1.279 . S
O4 Cd1 2.297 . S
O4 C6 1.247 . S
O5 Cd1 2.439 . S
O5 C6 1.208 . S
C6 O4 1.247 . S
C6 O5 1.208 . S
C7 O12 1.247 . S
C7 O13 1.208 . S
C8 O0 1.315 . S
C8 O3 1.279 . S
C9 O10 1.315 . S
C9 O11 1.279 . S
O10 Cd2 2.223 . S
O10 C9 1.315 . S
O11 Cd1 2.240 . S
O11 C9 1.279 . S
O12 Cd2 2.297 . S
O12 C7 1.247 . S
O13 Cd2 2.439 . S
O13 C7 1.208 . S
O14 Cd15 2.223 . S
O14 C22 1.315 . S
Cd15 O14 2.223 . S
Cd15 O18 2.297 . S
Cd15 O19 2.439 . S
Cd15 O25 2.240 . S
Cd16 O17 2.240 . S
Cd16 O24 2.223 . S
Cd16 O26 2.297 . S
Cd16 O27 2.439 . S
O17 Cd16 2.240 . S
O17 C22 1.279 . S
O18 Cd15 2.297 . S
O18 C20 1.247 . S
O19 Cd15 2.439 . S
O19 C20 1.208 . S
C20 O18 1.247 . S
C20 O19 1.208 . S
C21 O26 1.247 . S
C21 O27 1.208 . S
C22 O14 1.315 . S
C22 O17 1.279 . S
C23 O24 1.315 . S
C23 O25 1.279 . S
O24 Cd16 2.223 . S
O24 C23 1.315 . S
O25 Cd15 2.240 . S
O25 C23 1.279 . S
O26 Cd16 2.297 . S
O26 C21 1.247 . S
O27 Cd16 2.439 . S
O27 C21 1.208 . S
O28 Cd29 2.223 . S
O28 C36 1.315 . S
Cd29 O28 2.223 . S
Cd29 O32 2.297 . S
Cd29 O33 2.439 . S
Cd29 O39 2.240 . S
Cd30 O31 2.240 . S
Cd30 O38 2.223 . S
Cd30 O40 2.297 . S
Cd30 O41 2.439 . S
O31 Cd30 2.240 . S
O31 C36 1.279 . S
O32 Cd29 2.297 . S
O32 C34 1.247 . S
O33 Cd29 2.439 . S
O33 C34 1.208 . S
C34 O32 1.247 . S
C34 O33 1.208 . S
C35 O40 1.247 . S
C35 O41 1.208 . S
C36 O28 1.315 . S
C36 O31 1.279 . S
C37 O38 1.315 . S
C37 O39 1.279 . S
O38 Cd30 2.223 . S
O38 C37 1.315 . S
O39 Cd29 2.240 . S
O39 C37 1.279 . S
O40 Cd30 2.297 . S
O40 C35 1.247 . S
O41 Cd30 2.439 . S
O41 C35 1.208 . S
O42 Cd43 2.223 . S
O42 C50 1.315 . S
Cd43 O42 2.223 . S
Cd43 O46 2.297 . S
Cd43 O47 2.439 . S
Cd43 O53 2.240 . S
Cd44 O45 2.240 . S
Cd44 O52 2.223 . S
Cd44 O54 2.297 . S
Cd44 O55 2.439 . S
O45 Cd44 2.240 . S
O45 C50 1.279 . S
O46 Cd43 2.297 . S
O46 C48 1.247 . S
O47 Cd43 2.439 . S
O47 C48 1.208 . S
C48 O46 1.247 . S
C48 O47 1.208 . S
C49 O54 1.247 . S
C49 O55 1.208 . S
C50 O42 1.315 . S
C50 O45 1.279 . S
C51 O52 1.315 . S
C51 O53 1.279 . S
O52 Cd44 2.223 . S
O52 C51 1.315 . S
O53 Cd43 2.240 . S
O53 C51 1.279 . S
O54 Cd44 2.297 . S
O54 C49 1.247 . S
O55 Cd44 2.439 . S
O55 C49 1.208 . S
O56 Cd57 2.223 . S
O56 C64 1.315 . S
Cd57 O56 2.223 . S
Cd57 O60 2.297 . S
Cd57 O61 2.439 . S
Cd57 O67 2.240 . S
Cd58 O59 2.240 . S
Cd58 O66 2.223 . S
Cd58 O68 2.297 . S
Cd58 O69 2.439 . S
O59 Cd58 2.240 . S
O59 C64 1.279 . S
O60 Cd57 2.297 . S
O60 C62 1.247 . S
O61 Cd57 2.439 . S
O61 C62 1.208 . S
C62 O60 1.247 . S
C62 O61 1.208 . S
C63 O68 1.247 . S
C63 O69 1.208 . S
C64 O56 1.315 . S
C64 O59 1.279 . S
C65 O66 1.315 . S
C65 O67 1.279 . S
O66 Cd58 2.223 . S
O66 C65 1.315 . S
O67 Cd57 2.240 . S
O67 C65 1.279 . S
O68 Cd58 2.297 . S
O68 C63 1.247 . S
O69 Cd58 2.439 . S
O69 C63 1.208 . S
O70 Cd71 2.223 . S
O70 C78 1.315 . S
Cd71 O70 2.223 . S
Cd71 O74 2.297 . S
Cd71 O75 2.439 . S
Cd71 O81 2.240 . S
Cd72 O73 2.240 . S
Cd72 O80 2.223 . S
Cd72 O82 2.297 . S
Cd72 O83 2.439 . S
O73 Cd72 2.240 . S
O73 C78 1.279 . S
O74 Cd71 2.297 . S
O74 C76 1.247 . S
O75 Cd71 2.439 . S
O75 C76 1.208 . S
C76 O74 1.247 . S
C76 O75 1.208 . S
C77 O82 1.247 . S
C77 O83 1.208 . S
C78 O70 1.315 . S
C78 O73 1.279 . S
C79 O80 1.315 . S
C79 O81 1.279 . S
O80 Cd72 2.223 . S
O80 C79 1.315 . S
O81 Cd71 2.240 . S
O81 C79 1.279 . S
O82 Cd72 2.297 . S
O82 C77 1.247 . S
O83 Cd72 2.439 . S
O83 C77 1.208 . S
O84 Cd85 2.223 . S
O84 C92 1.315 . S
Cd85 O84 2.223 . S
Cd85 O88 2.297 . S
Cd85 O89 2.439 . S
Cd85 O95 2.240 . S
Cd86 O87 2.240 . S
Cd86 O94 2.223 . S
Cd86 O96 2.297 . S
Cd86 O97 2.439 . S
O87 Cd86 2.240 . S
O87 C92 1.279 . S
O88 Cd85 2.297 . S
O88 C90 1.247 . S
O89 Cd85 2.439 . S
O89 C90 1.208 . S
C90 O88 1.247 . S
C90 O89 1.208 . S
C91 O96 1.247 . S
C91 O97 1.208 . S
C92 O84 1.315 . S
C92 O87 1.279 . S
C93 O94 1.315 . S
C93 O95 1.279 . S
O94 Cd86 2.223 . S
O94 C93 1.315 . S
O95 Cd85 2.240 . S
O95 C93 1.279 . S
O96 Cd86 2.297 . S
O96 C91 1.247 . S
O97 Cd86 2.439 . S
O97 C91 1.208 . S
O98 Cd99 2.223 . S
O98 C106 1.315 . S
Cd99 O98 2.223 . S
Cd99 O102 2.297 . S
Cd99 O103 2.439 . S
Cd99 O109 2.240 . S
Cd100 O101 2.240 . S
Cd100 O108 2.223 . S
Cd100 O110 2.297 . S
Cd100 O111 2.439 . S
O101 Cd100 2.240 . S
O101 C106 1.279 . S
O102 Cd99 2.297 . S
O102 C104 1.247 . S
O103 Cd99 2.439 . S
O103 C104 1.208 . S
C104 O102 1.247 . S
C104 O103 1.208 . S
C105 O110 1.247 . S
C105 O111 1.208 . S
C106 O98 1.315 . S
C106 O101 1.279 . S
C107 O108 1.315 . S
C107 O109 1.279 . S
O108 Cd100 2.223 . S
O108 C107 1.315 . S
O109 Cd99 2.240 . S
O109 C107 1.279 . S
O110 Cd100 2.297 . S
O110 C105 1.247 . S
O111 Cd100 2.439 . S
O111 C105 1.208 . S
O112 Cd113 2.223 . S
O112 C120 1.315 . S
Cd113 O112 2.223 . S
Cd113 O116 2.297 . S
Cd113 O117 2.439 . S
Cd113 O123 2.240 . S
Cd114 O115 2.240 . S
Cd114 O122 2.223 . S
Cd114 O124 2.297 . S
Cd114 O125 2.439 . S
O115 Cd114 2.240 . S
O115 C120 1.279 . S
O116 Cd113 2.297 . S
O116 C118 1.247 . S
O117 Cd113 2.439 . S
O117 C118 1.208 . S
C118 O116 1.247 . S
C118 O117 1.208 . S
C119 O124 1.247 . S
C119 O125 1.208 . S
C120 O112 1.315 . S
C120 O115 1.279 . S
C121 O122 1.315 . S
C121 O123 1.279 . S
O122 Cd114 2.223 . S
O122 C121 1.315 . S
O123 Cd113 2.240 . S
O123 C121 1.279 . S
O124 Cd114 2.297 . S
O124 C119 1.247 . S
O125 Cd114 2.439 . S
O125 C119 1.208 . S
O126 Cd127 2.223 . S
O126 C134 1.315 . S
Cd127 O126 2.223 . S
Cd127 O130 2.297 . S
Cd127 O131 2.439 . S
Cd127 O137 2.240 . S
Cd128 O129 2.240 . S
Cd128 O136 2.223 . S
Cd128 O138 2.297 . S
Cd128 O139 2.439 . S
O129 Cd128 2.240 . S
O129 C134 1.279 . S
O130 Cd127 2.297 . S
O130 C132 1.247 . S
O131 Cd127 2.439 . S
O131 C132 1.208 . S
C132 O130 1.247 . S
C132 O131 1.208 . S
C133 O138 1.247 . S
C133 O139 1.208 . S
C134 O126 1.315 . S
C134 O129 1.279 . S
C135 O136 1.315 . S
C135 O137 1.279 . S
O136 Cd128 2.223 . S
O136 C135 1.315 . S
O137 Cd127 2.240 . S
O137 C135 1.279 . S
O138 Cd128 2.297 . S
O138 C133 1.247 . S
O139 Cd128 2.439 . S
O139 C133 1.208 . S
O140 Cd141 2.223 . S
O140 C148 1.315 . S
Cd141 O140 2.223 . S
Cd141 O144 2.297 . S
Cd141 O145 2.439 . S
Cd141 O151 2.240 . S
Cd142 O143 2.240 . S
Cd142 O150 2.223 . S
Cd142 O152 2.297 . S
Cd142 O153 2.439 . S
O143 Cd142 2.240 . S
O143 C148 1.279 . S
O144 Cd141 2.297 . S
O144 C146 1.247 . S
O145 Cd141 2.439 . S
O145 C146 1.208 . S
C146 O144 1.247 . S
C146 O145 1.208 . S
C147 O152 1.247 . S
C147 O153 1.208 . S
C148 O140 1.315 . S
C148 O143 1.279 . S
C149 O150 1.315 . S
C149 O151 1.279 . S
O150 Cd142 2.223 . S
O150 C149 1.315 . S
O151 Cd141 2.240 . S
O151 C149 1.279 . S
O152 Cd142 2.297 . S
O152 C147 1.247 . S
O153 Cd142 2.439 . S
O153 C147 1.208 . S
O154 Cd155 2.223 . S
O154 C162 1.315 . S
Cd155 O154 2.223 . S
Cd155 O158 2.297 . S
Cd155 O159 2.439 . S
Cd155 O165 2.240 . S
Cd156 O157 2.240 . S
Cd156 O164 2.223 . S
Cd156 O166 2.297 . S
Cd156 O167 2.439 . S
O157 Cd156 2.240 . S
O157 C162 1.279 . S
O158 Cd155 2.297 . S
O158 C160 1.247 . S
O159 Cd155 2.439 . S
O159 C160 1.208 . S
C160 O158 1.247 . S
C160 O159 1.208 . S
C161 O166 1.247 . S
C161 O167 1.208 . S
C162 O154 1.315 . S
C162 O157 1.279 . S
C163 O164 1.315 . S
C163 O165 1.279 . S
O164 Cd156 2.223 . S
O164 C163 1.315 . S
O165 Cd155 2.240 . S
O165 C163 1.279 . S
O166 Cd156 2.297 . S
O166 C161 1.247 . S
O167 Cd156 2.439 . S
O167 C161 1.208 . S
O168 Cd169 2.223 . S
O168 C176 1.315 . S
Cd169 O168 2.223 . S
Cd169 O172 2.297 . S
Cd169 O173 2.439 . S
Cd169 O179 2.240 . S
Cd170 O171 2.240 . S
Cd170 O178 2.223 . S
Cd170 O180 2.297 . S
Cd170 O181 2.439 . S
O171 Cd170 2.240 . S
O171 C176 1.279 . S
O172 Cd169 2.297 . S
O172 C174 1.247 . S
O173 Cd169 2.439 . S
O173 C174 1.208 . S
C174 O172 1.247 . S
C174 O173 1.208 . S
C175 O180 1.247 . S
C175 O181 1.208 . S
C176 O168 1.315 . S
C176 O171 1.279 . S
C177 O178 1.315 . S
C177 O179 1.279 . S
O178 Cd170 2.223 . S
O178 C177 1.315 . S
O179 Cd169 2.240 . S
O179 C177 1.279 . S
O180 Cd170 2.297 . S
O180 C175 1.247 . S
O181 Cd170 2.439 . S
O181 C175 1.208 . S
O182 Cd183 2.223 . S
O182 C190 1.315 . S
Cd183 O182 2.223 . S
Cd183 O186 2.297 . S
Cd183 O187 2.439 . S
Cd183 O193 2.240 . S
Cd184 O185 2.240 . S
Cd184 O192 2.223 . S
Cd184 O194 2.297 . S
Cd184 O195 2.439 . S
O185 Cd184 2.240 . S
O185 C190 1.279 . S
O186 Cd183 2.297 . S
O186 C188 1.247 . S
O187 Cd183 2.439 . S
O187 C188 1.208 . S
C188 O186 1.247 . S
C188 O187 1.208 . S
C189 O194 1.247 . S
C189 O195 1.208 . S
C190 O182 1.315 . S
C190 O185 1.279 . S
C191 O192 1.315 . S
C191 O193 1.279 . S
O192 Cd184 2.223 . S
O192 C191 1.315 . S
O193 Cd183 2.240 . S
O193 C191 1.279 . S
O194 Cd184 2.297 . S
O194 C189 1.247 . S
O195 Cd184 2.439 . S
O195 C189 1.208 . S
O196 Cd197 2.223 . S
O196 C204 1.315 . S
Cd197 O196 2.223 . S
Cd197 O200 2.297 . S
Cd197 O201 2.439 . S
Cd197 O207 2.240 . S
Cd198 O199 2.240 . S
Cd198 O206 2.223 . S
Cd198 O208 2.297 . S
Cd198 O209 2.439 . S
O199 Cd198 2.240 . S
O199 C204 1.279 . S
O200 Cd197 2.297 . S
O200 C202 1.247 . S
O201 Cd197 2.439 . S
O201 C202 1.208 . S
C202 O200 1.247 . S
C202 O201 1.208 . S
C203 O208 1.247 . S
C203 O209 1.208 . S
C204 O196 1.315 . S
C204 O199 1.279 . S
C205 O206 1.315 . S
C205 O207 1.279 . S
O206 Cd198 2.223 . S
O206 C205 1.315 . S
O207 Cd197 2.240 . S
O207 C205 1.279 . S
O208 Cd198 2.297 . S
O208 C203 1.247 . S
O209 Cd198 2.439 . S
O209 C203 1.208 . S
O210 Cd211 2.223 . S
O210 C218 1.315 . S
Cd211 O210 2.223 . S
Cd211 O214 2.297 . S
Cd211 O215 2.439 . S
Cd211 O221 2.240 . S
Cd212 O213 2.240 . S
Cd212 O220 2.223 . S
Cd212 O222 2.297 . S
Cd212 O223 2.439 . S
O213 Cd212 2.240 . S
O213 C218 1.279 . S
O214 Cd211 2.297 . S
O214 C216 1.247 . S
O215 Cd211 2.439 . S
O215 C216 1.208 . S
C216 O214 1.247 . S
C216 O215 1.208 . S
C217 O222 1.247 . S
C217 O223 1.208 . S
C218 O210 1.315 . S
C218 O213 1.279 . S
C219 O220 1.315 . S
C219 O221 1.279 . S
O220 Cd212 2.223 . S
O220 C219 1.315 . S
O221 Cd211 2.240 . S
O221 C219 1.279 . S
O222 Cd212 2.297 . S
O222 C217 1.247 . S
O223 Cd212 2.439 . S
O223 C217 1.208 . S
O224 Cd225 2.223 . S
O224 C232 1.315 . S
Cd225 O224 2.223 . S
Cd225 O228 2.297 . S
Cd225 O229 2.439 . S
Cd225 O235 2.240 . S
Cd226 O227 2.240 . S
Cd226 O234 2.223 . S
Cd226 O236 2.297 . S
Cd226 O237 2.439 . S
O227 Cd226 2.240 . S
O227 C232 1.279 . S
O228 Cd225 2.297 . S
O228 C230 1.247 . S
O229 Cd225 2.439 . S
O229 C230 1.208 . S
C230 O228 1.247 . S
C230 O229 1.208 . S
C231 O236 1.247 . S
C231 O237 1.208 . S
C232 O224 1.315 . S
C232 O227 1.279 . S
C233 O234 1.315 . S
C233 O235 1.279 . S
O234 Cd226 2.223 . S
O234 C233 1.315 . S
O235 Cd225 2.240 . S
O235 C233 1.279 . S
O236 Cd226 2.297 . S
O236 C231 1.247 . S
O237 Cd226 2.439 . S
O237 C231 1.208 . S
O238 Cd239 2.223 . S
O238 C246 1.315 . S
Cd239 O238 2.223 . S
Cd239 O242 2.297 . S
Cd239 O243 2.439 . S
Cd239 O249 2.240 . S
Cd240 O241 2.240 . S
Cd240 O248 2.223 . S
Cd240 O250 2.297 . S
Cd240 O251 2.439 . S
O241 Cd240 2.240 . S
O241 C246 1.279 . S
O242 Cd239 2.297 . S
O242 C244 1.247 . S
O243 Cd239 2.439 . S
O243 C244 1.208 . S
C244 O242 1.247 . S
C244 O243 1.208 . S
C245 O250 1.247 . S
C245 O251 1.208 . S
C246 O238 1.315 . S
C246 O241 1.279 . S
C247 O248 1.315 . S
C247 O249 1.279 . S
O248 Cd240 2.223 . S
O248 C247 1.315 . S
O249 Cd239 2.240 . S
O249 C247 1.279 . S
O250 Cd240 2.297 . S
O250 C245 1.247 . S
O251 Cd240 2.439 . S
O251 C245 1.208 . S
O252 Cd253 2.223 . S
O252 C260 1.315 . S
Cd253 O252 2.223 . S
Cd253 O256 2.297 . S
Cd253 O257 2.439 . S
Cd253 O263 2.240 . S
Cd254 O255 2.240 . S
Cd254 O262 2.223 . S
Cd254 O264 2.297 . S
Cd254 O265 2.439 . S
O255 Cd254 2.240 . S
O255 C260 1.279 . S
O256 Cd253 2.297 . S
O256 C258 1.247 . S
O257 Cd253 2.439 . S
O257 C258 1.208 . S
C258 O256 1.247 . S
C258 O257 1.208 . S
C259 O264 1.247 . S
C259 O265 1.208 . S
C260 O252 1.315 . S
C260 O255 1.279 . S
C261 O262 1.315 . S
C261 O263 1.279 . S
O262 Cd254 2.223 . S
O262 C261 1.315 . S
O263 Cd253 2.240 . S
O263 C261 1.279 . S
O264 Cd254 2.297 . S
O264 C259 1.247 . S
O265 Cd254 2.439 . S
O265 C259 1.208 . S
O266 Cd267 2.223 . S
O266 C274 1.315 . S
Cd267 O266 2.223 . S
Cd267 O270 2.297 . S
Cd267 O271 2.439 . S
Cd267 O277 2.240 . S
Cd268 O269 2.240 . S
Cd268 O276 2.223 . S
Cd268 O278 2.297 . S
Cd268 O279 2.439 . S
O269 Cd268 2.240 . S
O269 C274 1.279 . S
O270 Cd267 2.297 . S
O270 C272 1.247 . S
O271 Cd267 2.439 . S
O271 C272 1.208 . S
C272 O270 1.247 . S
C272 O271 1.208 . S
C273 O278 1.247 . S
C273 O279 1.208 . S
C274 O266 1.315 . S
C274 O269 1.279 . S
C275 O276 1.315 . S
C275 O277 1.279 . S
O276 Cd268 2.223 . S
O276 C275 1.315 . S
O277 Cd267 2.240 . S
O277 C275 1.279 . S
O278 Cd268 2.297 . S
O278 C273 1.247 . S
O279 Cd268 2.439 . S
O279 C273 1.208 . S
O280 Cd281 2.223 . S
O280 C288 1.315 . S
Cd281 O280 2.223 . S
Cd281 O284 2.297 . S
Cd281 O285 2.439 . S
Cd281 O291 2.240 . S
Cd282 O283 2.240 . S
Cd282 O290 2.223 . S
Cd282 O292 2.297 . S
Cd282 O293 2.439 . S
O283 Cd282 2.240 . S
O283 C288 1.279 . S
O284 Cd281 2.297 . S
O284 C286 1.247 . S
O285 Cd281 2.439 . S
O285 C286 1.208 . S
C286 O284 1.247 . S
C286 O285 1.208 . S
C287 O292 1.247 . S
C287 O293 1.208 . S
C288 O280 1.315 . S
C288 O283 1.279 . S
C289 O290 1.315 . S
C289 O291 1.279 . S
O290 Cd282 2.223 . S
O290 C289 1.315 . S
O291 Cd281 2.240 . S
O291 C289 1.279 . S
O292 Cd282 2.297 . S
O292 C287 1.247 . S
O293 Cd282 2.439 . S
O293 C287 1.208 . S
O294 Cd295 2.223 . S
O294 C302 1.315 . S
Cd295 O294 2.223 . S
Cd295 O298 2.297 . S
Cd295 O299 2.439 . S
Cd295 O305 2.240 . S
Cd296 O297 2.240 . S
Cd296 O304 2.223 . S
Cd296 O306 2.297 . S
Cd296 O307 2.439 . S
O297 Cd296 2.240 . S
O297 C302 1.279 . S
O298 Cd295 2.297 . S
O298 C300 1.247 . S
O299 Cd295 2.439 . S
O299 C300 1.208 . S
C300 O298 1.247 . S
C300 O299 1.208 . S
C301 O306 1.247 . S
C301 O307 1.208 . S
C302 O294 1.315 . S
C302 O297 1.279 . S
C303 O304 1.315 . S
C303 O305 1.279 . S
O304 Cd296 2.223 . S
O304 C303 1.315 . S
O305 Cd295 2.240 . S
O305 C303 1.279 . S
O306 Cd296 2.297 . S
O306 C301 1.247 . S
O307 Cd296 2.439 . S
O307 C301 1.208 . S
O308 Cd309 2.223 . S
O308 C316 1.315 . S
Cd309 O308 2.223 . S
Cd309 O312 2.297 . S
Cd309 O313 2.439 . S
Cd309 O319 2.240 . S
Cd310 O311 2.240 . S
Cd310 O318 2.223 . S
Cd310 O320 2.297 . S
Cd310 O321 2.439 . S
O311 Cd310 2.240 . S
O311 C316 1.279 . S
O312 Cd309 2.297 . S
O312 C314 1.247 . S
O313 Cd309 2.439 . S
O313 C314 1.208 . S
C314 O312 1.247 . S
C314 O313 1.208 . S
C315 O320 1.247 . S
C315 O321 1.208 . S
C316 O308 1.315 . S
C316 O311 1.279 . S
C317 O318 1.315 . S
C317 O319 1.279 . S
O318 Cd310 2.223 . S
O318 C317 1.315 . S
O319 Cd309 2.240 . S
O319 C317 1.279 . S
O320 Cd310 2.297 . S
O320 C315 1.247 . S
O321 Cd310 2.439 . S
O321 C315 1.208 . S
O322 Cd323 2.223 . S
O322 C330 1.315 . S
Cd323 O322 2.223 . S
Cd323 O326 2.297 . S
Cd323 O327 2.439 . S
Cd323 O333 2.240 . S
Cd324 O325 2.240 . S
Cd324 O332 2.223 . S
Cd324 O334 2.297 . S
Cd324 O335 2.439 . S
O325 Cd324 2.240 . S
O325 C330 1.279 . S
O326 Cd323 2.297 . S
O326 C328 1.247 . S
O327 Cd323 2.439 . S
O327 C328 1.208 . S
C328 O326 1.247 . S
C328 O327 1.208 . S
C329 O334 1.247 . S
C329 O335 1.208 . S
C330 O322 1.315 . S
C330 O325 1.279 . S
C331 O332 1.315 . S
C331 O333 1.279 . S
O332 Cd324 2.223 . S
O332 C331 1.315 . S
O333 Cd323 2.240 . S
O333 C331 1.279 . S
O334 Cd324 2.297 . S
O334 C329 1.247 . S
O335 Cd324 2.439 . S
O335 C329 1.208 . S
O336 Cd337 2.223 . S
O336 C344 1.315 . S
Cd337 O336 2.223 . S
Cd337 O340 2.297 . S
Cd337 O341 2.439 . S
Cd337 O347 2.240 . S
Cd338 O339 2.240 . S
Cd338 O346 2.223 . S
Cd338 O348 2.297 . S
Cd338 O349 2.439 . S
O339 Cd338 2.240 . S
O339 C344 1.279 . S
O340 Cd337 2.297 . S
O340 C342 1.247 . S
O341 Cd337 2.439 . S
O341 C342 1.208 . S
C342 O340 1.247 . S
C342 O341 1.208 . S
C343 O348 1.247 . S
C343 O349 1.208 . S
C344 O336 1.315 . S
C344 O339 1.279 . S
C345 O346 1.315 . S
C345 O347 1.279 . S
O346 Cd338 2.223 . S
O346 C345 1.315 . S
O347 Cd337 2.240 . S
O347 C345 1.279 . S
O348 Cd338 2.297 . S
O348 C343 1.247 . S
O349 Cd338 2.439 . S
O349 C343 1.208 . S
O350 Cd351 2.223 . S
O350 C358 1.315 . S
Cd351 O350 2.223 . S
Cd351 O354 2.297 . S
Cd351 O355 2.439 . S
Cd351 O361 2.240 . S
Cd352 O353 2.240 . S
Cd352 O360 2.223 . S
Cd352 O362 2.297 . S
Cd352 O363 2.439 . S
O353 Cd352 2.240 . S
O353 C358 1.279 . S
O354 Cd351 2.297 . S
O354 C356 1.247 . S
O355 Cd351 2.439 . S
O355 C356 1.208 . S
C356 O354 1.247 . S
C356 O355 1.208 . S
C357 O362 1.247 . S
C357 O363 1.208 . S
C358 O350 1.315 . S
C358 O353 1.279 . S
C359 O360 1.315 . S
C359 O361 1.279 . S
O360 Cd352 2.223 . S
O360 C359 1.315 . S
O361 Cd351 2.240 . S
O361 C359 1.279 . S
O362 Cd352 2.297 . S
O362 C357 1.247 . S
O363 Cd352 2.439 . S
O363 C357 1.208 . S
O364 Cd365 2.223 . S
O364 C372 1.315 . S
Cd365 O364 2.223 . S
Cd365 O368 2.297 . S
Cd365 O369 2.439 . S
Cd365 O375 2.240 . S
Cd366 O367 2.240 . S
Cd366 O374 2.223 . S
Cd366 O376 2.297 . S
Cd366 O377 2.439 . S
O367 Cd366 2.240 . S
O367 C372 1.279 . S
O368 Cd365 2.297 . S
O368 C370 1.247 . S
O369 Cd365 2.439 . S
O369 C370 1.208 . S
C370 O368 1.247 . S
C370 O369 1.208 . S
C371 O376 1.247 . S
C371 O377 1.208 . S
C372 O364 1.315 . S
C372 O367 1.279 . S
C373 O374 1.315 . S
C373 O375 1.279 . S
O374 Cd366 2.223 . S
O374 C373 1.315 . S
O375 Cd365 2.240 . S
O375 C373 1.279 . S
O376 Cd366 2.297 . S
O376 C371 1.247 . S
O377 Cd366 2.439 . S
O377 C371 1.208 . S
O378 Cd379 2.223 . S
O378 C386 1.315 . S
Cd379 O378 2.223 . S
Cd379 O382 2.297 . S
Cd379 O383 2.439 . S
Cd379 O389 2.240 . S
Cd380 O381 2.240 . S
Cd380 O388 2.223 . S
Cd380 O390 2.297 . S
Cd380 O391 2.439 . S
O381 Cd380 2.240 . S
O381 C386 1.279 . S
O382 Cd379 2.297 . S
O382 C384 1.247 . S
O383 Cd379 2.439 . S
O383 C384 1.208 . S
C384 O382 1.247 . S
C384 O383 1.208 . S
C385 O390 1.247 . S
C385 O391 1.208 . S
C386 O378 1.315 . S
C386 O381 1.279 . S
C387 O388 1.315 . S
C387 O389 1.279 . S
O388 Cd380 2.223 . S
O388 C387 1.315 . S
O389 Cd379 2.240 . S
O389 C387 1.279 . S
O390 Cd380 2.297 . S
O390 C385 1.247 . S
O391 Cd380 2.439 . S
O391 C385 1.208 . S
O392 Cd393 2.223 . S
O392 C400 1.315 . S
Cd393 O392 2.223 . S
Cd393 O396 2.297 . S
Cd393 O397 2.439 . S
Cd393 O403 2.240 . S
Cd394 O395 2.240 . S
Cd394 O402 2.223 . S
Cd394 O404 2.297 . S
Cd394 O405 2.439 . S
O395 Cd394 2.240 . S
O395 C400 1.279 . S
O396 Cd393 2.297 . S
O396 C398 1.247 . S
O397 Cd393 2.439 . S
O397 C398 1.208 . S
C398 O396 1.247 . S
C398 O397 1.208 . S
C399 O404 1.247 . S
C399 O405 1.208 . S
C400 O392 1.315 . S
C400 O395 1.279 . S
C401 O402 1.315 . S
C401 O403 1.279 . S
O402 Cd394 2.223 . S
O402 C401 1.315 . S
O403 Cd393 2.240 . S
O403 C401 1.279 . S
O404 Cd394 2.297 . S
O404 C399 1.247 . S
O405 Cd394 2.439 . S
O405 C399 1.208 . S
O406 Cd407 2.223 . S
O406 C414 1.315 . S
Cd407 O406 2.223 . S
Cd407 O410 2.297 . S
Cd407 O411 2.439 . S
Cd407 O417 2.240 . S
Cd408 O409 2.240 . S
Cd408 O416 2.223 . S
Cd408 O418 2.297 . S
Cd408 O419 2.439 . S
O409 Cd408 2.240 . S
O409 C414 1.279 . S
O410 Cd407 2.297 . S
O410 C412 1.247 . S
O411 Cd407 2.439 . S
O411 C412 1.208 . S
C412 O410 1.247 . S
C412 O411 1.208 . S
C413 O418 1.247 . S
C413 O419 1.208 . S
C414 O406 1.315 . S
C414 O409 1.279 . S
C415 O416 1.315 . S
C415 O417 1.279 . S
O416 Cd408 2.223 . S
O416 C415 1.315 . S
O417 Cd407 2.240 . S
O417 C415 1.279 . S
O418 Cd408 2.297 . S
O418 C413 1.247 . S
O419 Cd408 2.439 . S
O419 C413 1.208 . S
O420 Cd421 2.223 . S
O420 C428 1.315 . S
Cd421 O420 2.223 . S
Cd421 O424 2.297 . S
Cd421 O425 2.439 . S
Cd421 O431 2.240 . S
Cd422 O423 2.240 . S
Cd422 O430 2.223 . S
Cd422 O432 2.297 . S
Cd422 O433 2.439 . S
O423 Cd422 2.240 . S
O423 C428 1.279 . S
O424 Cd421 2.297 . S
O424 C426 1.247 . S
O425 Cd421 2.439 . S
O425 C426 1.208 . S
C426 O424 1.247 . S
C426 O425 1.208 . S
C427 O432 1.247 . S
C427 O433 1.208 . S
C428 O420 1.315 . S
C428 O423 1.279 . S
C429 O430 1.315 . S
C429 O431 1.279 . S
O430 Cd422 2.223 . S
O430 C429 1.315 . S
O431 Cd421 2.240 . S
O431 C429 1.279 . S
O432 Cd422 2.297 . S
O432 C427 1.247 . S
O433 Cd422 2.439 . S
O433 C427 1.208 . S
O434 Cd435 2.223 . S
O434 C442 1.315 . S
Cd435 O434 2.223 . S
Cd435 O438 2.297 . S
Cd435 O439 2.439 . S
Cd435 O445 2.240 . S
Cd436 O437 2.240 . S
Cd436 O444 2.223 . S
Cd436 O446 2.297 . S
Cd436 O447 2.439 . S
O437 Cd436 2.240 . S
O437 C442 1.279 . S
O438 Cd435 2.297 . S
O438 C440 1.247 . S
O439 Cd435 2.439 . S
O439 C440 1.208 . S
C440 O438 1.247 . S
C440 O439 1.208 . S
C441 O446 1.247 . S
C441 O447 1.208 . S
C442 O434 1.315 . S
C442 O437 1.279 . S
C443 O444 1.315 . S
C443 O445 1.279 . S
O444 Cd436 2.223 . S
O444 C443 1.315 . S
O445 Cd435 2.240 . S
O445 C443 1.279 . S
O446 Cd436 2.297 . S
O446 C441 1.247 . S
O447 Cd436 2.439 . S
O447 C441 1.208 . S
O448 Cd449 2.223 . S
O448 C456 1.315 . S
Cd449 O448 2.223 . S
Cd449 O452 2.297 . S
Cd449 O453 2.439 . S
Cd449 O459 2.240 . S
Cd450 O451 2.240 . S
Cd450 O458 2.223 . S
Cd450 O460 2.297 . S
Cd450 O461 2.439 . S
O451 Cd450 2.240 . S
O451 C456 1.279 . S
O452 Cd449 2.297 . S
O452 C454 1.247 . S
O453 Cd449 2.439 . S
O453 C454 1.208 . S
C454 O452 1.247 . S
C454 O453 1.208 . S
C455 O460 1.247 . S
C455 O461 1.208 . S
C456 O448 1.315 . S
C456 O451 1.279 . S
C457 O458 1.315 . S
C457 O459 1.279 . S
O458 Cd450 2.223 . S
O458 C457 1.315 . S
O459 Cd449 2.240 . S
O459 C457 1.279 . S
O460 Cd450 2.297 . S
O460 C455 1.247 . S
O461 Cd450 2.439 . S
O461 C455 1.208 . S
O462 Cd463 2.223 . S
O462 C470 1.315 . S
Cd463 O462 2.223 . S
Cd463 O466 2.297 . S
Cd463 O467 2.439 . S
Cd463 O473 2.240 . S
Cd464 O465 2.240 . S
Cd464 O472 2.223 . S
Cd464 O474 2.297 . S
Cd464 O475 2.439 . S
O465 Cd464 2.240 . S
O465 C470 1.279 . S
O466 Cd463 2.297 . S
O466 C468 1.247 . S
O467 Cd463 2.439 . S
O467 C468 1.208 . S
C468 O466 1.247 . S
C468 O467 1.208 . S
C469 O474 1.247 . S
C469 O475 1.208 . S
C470 O462 1.315 . S
C470 O465 1.279 . S
C471 O472 1.315 . S
C471 O473 1.279 . S
O472 Cd464 2.223 . S
O472 C471 1.315 . S
O473 Cd463 2.240 . S
O473 C471 1.279 . S
O474 Cd464 2.297 . S
O474 C469 1.247 . S
O475 Cd464 2.439 . S
O475 C469 1.208 . S
O476 Cd477 2.223 . S
O476 C484 1.315 . S
Cd477 O476 2.223 . S
Cd477 O480 2.297 . S
Cd477 O481 2.439 . S
Cd477 O487 2.240 . S
Cd478 O479 2.240 . S
Cd478 O486 2.223 . S
Cd478 O488 2.297 . S
Cd478 O489 2.439 . S
O479 Cd478 2.240 . S
O479 C484 1.279 . S
O480 Cd477 2.297 . S
O480 C482 1.247 . S
O481 Cd477 2.439 . S
O481 C482 1.208 . S
C482 O480 1.247 . S
C482 O481 1.208 . S
C483 O488 1.247 . S
C483 O489 1.208 . S
C484 O476 1.315 . S
C484 O479 1.279 . S
C485 O486 1.315 . S
C485 O487 1.279 . S
O486 Cd478 2.223 . S
O486 C485 1.315 . S
O487 Cd477 2.240 . S
O487 C485 1.279 . S
O488 Cd478 2.297 . S
O488 C483 1.247 . S
O489 Cd478 2.439 . S
O489 C483 1.208 . S
O490 Cd491 2.223 . S
O490 C498 1.315 . S
Cd491 O490 2.223 . S
Cd491 O494 2.297 . S
Cd491 O495 2.439 . S
Cd491 O501 2.240 . S
Cd492 O493 2.240 . S
Cd492 O500 2.223 . S
Cd492 O502 2.297 . S
Cd492 O503 2.439 . S
O493 Cd492 2.240 . S
O493 C498 1.279 . S
O494 Cd491 2.297 . S
O494 C496 1.247 . S
O495 Cd491 2.439 . S
O495 C496 1.208 . S
C496 O494 1.247 . S
C496 O495 1.208 . S
C497 O502 1.247 . S
C497 O503 1.208 . S
C498 O490 1.315 . S
C498 O493 1.279 . S
C499 O500 1.315 . S
C499 O501 1.279 . S
O500 Cd492 2.223 . S
O500 C499 1.315 . S
O501 Cd491 2.240 . S
O501 C499 1.279 . S
O502 Cd492 2.297 . S
O502 C497 1.247 . S
O503 Cd492 2.439 . S
O503 C497 1.208 . S
H504 C522 0.951 . S
H505 C524 0.951 . S
H506 C526 0.950 . S
H507 C527 0.950 . S
H508 C529 0.950 . S
H509 C532 0.950 . S
H510 C533 0.950 . S
H511 C535 0.950 . S
H512 C536 0.950 . S
H513 C537 0.951 . S
H514 C539 0.951 . S
H515 C541 0.950 . S
H516 C542 0.950 . S
H517 C544 0.950 . S
H518 C547 0.950 . S
H519 C548 0.950 . S
H520 C550 0.950 . S
H521 C551 0.950 . S
C522 H504 0.951 . S
C522 C523 1.366 . S
C522 C524 1.388 . S
C523 C522 1.366 . S
C523 C527 1.385 . S
C524 H505 0.951 . S
C524 C522 1.388 . S
C524 C525 1.366 . S
C525 C524 1.366 . S
C525 C526 1.414 . S
C525 C528 1.499 . S
C526 H506 0.950 . S
C526 C525 1.414 . S
C526 C527 1.374 . S
C527 H507 0.950 . S
C527 C523 1.385 . S
C527 C526 1.374 . S
C528 C525 1.499 . S
C528 C529 1.373 . S
C528 C530 1.389 1_565 S
C529 H508 0.950 . S
C529 C528 1.373 . S
C529 C545 1.377 . S
C530 C528 1.389 1_545 S
C530 C531 1.524 . S
C530 C544 1.377 . S
C531 C530 1.524 . S
C531 C532 1.397 1_545 S
C531 C536 1.363 . S
C532 H509 0.950 . S
C532 C531 1.397 1_565 S
C532 C533 1.334 . S
C533 H510 0.950 . S
C533 C532 1.334 . S
C533 C534 1.287 1_565 S
C534 C533 1.287 1_545 S
C534 C535 1.524 . S
C534 H553 0.913 . S
C535 H511 0.950 . S
C535 C534 1.524 . S
C535 C536 1.415 . S
C536 H512 0.950 . S
C536 C531 1.363 . S
C536 C535 1.415 . S
C537 H513 0.951 . S
C537 C538 1.366 . S
C537 C539 1.388 . S
C538 C537 1.366 . S
C538 C542 1.385 . S
C539 H514 0.951 . S
C539 C537 1.388 . S
C539 C540 1.366 . S
C540 C539 1.366 . S
C540 C541 1.414 . S
C540 C543 1.499 . S
C541 H515 0.950 . S
C541 C540 1.414 . S
C541 C542 1.374 . S
C542 H516 0.950 . S
C542 C538 1.385 . S
C542 C541 1.374 . S
C543 C540 1.499 . S
C543 C544 1.373 . S
C543 C545 1.389 1_545 S
C544 H517 0.950 . S
C544 C530 1.377 . S
C544 C543 1.373 . S
C545 C529 1.377 . S
C545 C543 1.389 1_565 S
C545 C546 1.524 . S
C546 C545 1.524 . S
C546 C547 1.397 1_565 S
C546 C551 1.363 . S
C547 H518 0.950 . S
C547 C546 1.397 1_545 S
C547 C548 1.334 . S
C548 H519 0.950 . S
C548 C547 1.334 . S
C548 C549 1.287 1_545 S
C549 C548 1.287 1_565 S
C549 C550 1.524 . S
C549 H552 0.999 . S
C550 H520 0.950 . S
C550 C549 1.524 . S
C550 C551 1.415 . S
C551 H521 0.950 . S
C551 C546 1.363 . S
C551 C550 1.415 . S
H552 C549 0.999 . S
H553 C534 0.913 . S
H554 C572 0.951 . S
H555 C574 0.951 . S
H556 C576 0.950 . S
H557 C577 0.950 . S
H558 C579 0.950 . S
H559 C582 0.950 . S
H560 C583 0.950 . S
H561 C585 0.950 . S
H562 C586 0.950 . S
H563 C587 0.951 . S
H564 C589 0.951 . S
H565 C591 0.950 . S
H566 C592 0.950 . S
H567 C594 0.950 . S
H568 C597 0.950 . S
H569 C598 0.950 . S
H570 C600 0.950 . S
H571 C601 0.950 . S
C572 H554 0.951 . S
C572 C573 1.366 . S
C572 C574 1.388 . S
C573 C572 1.366 . S
C573 C577 1.385 . S
C574 H555 0.951 . S
C574 C572 1.388 . S
C574 C575 1.366 . S
C575 C574 1.366 . S
C575 C576 1.414 . S
C575 C578 1.499 . S
C576 H556 0.950 . S
C576 C575 1.414 . S
C576 C577 1.374 . S
C577 H557 0.950 . S
C577 C573 1.385 . S
C577 C576 1.374 . S
C578 C575 1.499 . S
C578 C579 1.373 . S
C578 C580 1.389 . S
C579 H558 0.950 . S
C579 C578 1.373 . S
C579 C595 1.377 1_455 S
C580 C578 1.389 . S
C580 C581 1.524 . S
C580 C594 1.377 1_455 S
C581 C580 1.524 . S
C581 C582 1.397 . S
C581 C586 1.363 . S
C582 H559 0.950 . S
C582 C581 1.397 . S
C582 C583 1.334 . S
C583 H560 0.950 . S
C583 C582 1.334 . S
C583 C584 1.287 . S
C584 C583 1.287 . S
C584 C585 1.524 . S
C584 H603 0.913 . S
C585 H561 0.950 . S
C585 C584 1.524 . S
C585 C586 1.415 . S
C586 H562 0.950 . S
C586 C581 1.363 . S
C586 C585 1.415 . S
C587 H563 0.951 . S
C587 C588 1.366 . S
C587 C589 1.388 . S
C588 C587 1.366 . S
C588 C592 1.385 . S
C589 H564 0.951 . S
C589 C587 1.388 . S
C589 C590 1.366 . S
C590 C589 1.366 . S
C590 C591 1.414 . S
C590 C593 1.499 . S
C591 H565 0.950 . S
C591 C590 1.414 . S
C591 C592 1.374 . S
C592 H566 0.950 . S
C592 C588 1.385 . S
C592 C591 1.374 . S
C593 C590 1.499 . S
C593 C594 1.373 . S
C593 C595 1.389 . S
C594 H567 0.950 . S
C594 C580 1.377 1_655 S
C594 C593 1.373 . S
C595 C579 1.377 1_655 S
C595 C593 1.389 . S
C595 C596 1.524 . S
C596 C595 1.524 . S
C596 C597 1.397 . S
C596 C601 1.363 . S
C597 H568 0.950 . S
C597 C596 1.397 . S
C597 C598 1.334 . S
C598 H569 0.950 . S
C598 C597 1.334 . S
C598 C599 1.287 . S
C599 C598 1.287 . S
C599 C600 1.524 . S
C599 H602 0.999 . S
C600 H570 0.950 . S
C600 C599 1.524 . S
C600 C601 1.415 . S
C601 H571 0.950 . S
C601 C596 1.363 . S
C601 C600 1.415 . S
H602 C599 0.999 . S
H603 C584 0.913 . S
H604 C622 0.951 . S
H605 C624 0.951 . S
H606 C626 0.950 . S
H607 C627 0.950 . S
H608 C629 0.950 . S
H609 C632 0.950 . S
H610 C633 0.950 . S
H611 C635 0.950 . S
H612 C636 0.950 . S
H613 C637 0.951 . S
H614 C639 0.951 . S
H615 C641 0.950 . S
H616 C642 0.950 . S
H617 C644 0.950 . S
H618 C647 0.950 . S
H619 C648 0.950 . S
H620 C650 0.950 . S
H621 C651 0.950 . S
C622 H604 0.951 . S
C622 C623 1.366 . S
C622 C624 1.388 . S
C623 C622 1.366 . S
C623 C627 1.385 . S
C624 H605 0.951 . S
C624 C622 1.388 . S
C624 C625 1.366 . S
C625 C624 1.366 . S
C625 C626 1.414 . S
C625 C628 1.499 . S
C626 H606 0.950 . S
C626 C625 1.414 . S
C626 C627 1.374 . S
C627 H607 0.950 . S
C627 C623 1.385 . S
C627 C626 1.374 . S
C628 C625 1.499 . S
C628 C629 1.373 . S
C628 C630 1.389 . S
C629 H608 0.950 . S
C629 C628 1.373 . S
C629 C645 1.377 . S
C630 C628 1.389 . S
C630 C631 1.524 . S
C630 C644 1.377 . S
C631 C630 1.524 . S
C631 C632 1.397 . S
C631 C636 1.363 . S
C632 H609 0.950 . S
C632 C631 1.397 . S
C632 C633 1.334 . S
C633 H610 0.950 . S
C633 C632 1.334 . S
C633 C634 1.287 . S
C634 C633 1.287 . S
C634 C635 1.524 . S
C634 H653 0.913 . S
C635 H611 0.950 . S
C635 C634 1.524 . S
C635 C636 1.415 . S
C636 H612 0.950 . S
C636 C631 1.363 . S
C636 C635 1.415 . S
C637 H613 0.951 . S
C637 C638 1.366 . S
C637 C639 1.388 . S
C638 C637 1.366 . S
C638 C642 1.385 . S
C639 H614 0.951 . S
C639 C637 1.388 . S
C639 C640 1.366 . S
C640 C639 1.366 . S
C640 C641 1.414 . S
C640 C643 1.499 . S
C641 H615 0.950 . S
C641 C640 1.414 . S
C641 C642 1.374 . S
C642 H616 0.950 . S
C642 C638 1.385 . S
C642 C641 1.374 . S
C643 C640 1.499 . S
C643 C644 1.373 . S
C643 C645 1.389 . S
C644 H617 0.950 . S
C644 C630 1.377 . S
C644 C643 1.373 . S
C645 C629 1.377 . S
C645 C643 1.389 . S
C645 C646 1.524 . S
C646 C645 1.524 . S
C646 C647 1.397 . S
C646 C651 1.363 . S
C647 H618 0.950 . S
C647 C646 1.397 . S
C647 C648 1.334 . S
C648 H619 0.950 . S
C648 C647 1.334 . S
C648 C649 1.287 . S
C649 C648 1.287 . S
C649 C650 1.524 . S
C649 H652 0.999 . S
C650 H620 0.950 . S
C650 C649 1.524 . S
C650 C651 1.415 . S
C651 H621 0.950 . S
C651 C646 1.363 . S
C651 C650 1.415 . S
H652 C649 0.999 . S
H653 C634 0.913 . S
H654 C672 0.951 . S
H655 C674 0.951 . S
H656 C676 0.950 . S
H657 C677 0.950 . S
H658 C679 0.950 . S
H659 C682 0.950 . S
H660 C683 0.950 . S
H661 C685 0.950 . S
H662 C686 0.950 . S
H663 C687 0.951 . S
H664 C689 0.951 . S
H665 C691 0.950 . S
H666 C692 0.950 . S
H667 C694 0.950 . S
H668 C697 0.950 . S
H669 C698 0.950 . S
H670 C700 0.950 . S
H671 C701 0.950 . S
C672 H654 0.951 . S
C672 C673 1.366 . S
C672 C674 1.388 . S
C673 C672 1.366 . S
C673 C677 1.385 . S
C674 H655 0.951 . S
C674 C672 1.388 . S
C674 C675 1.366 . S
C675 C674 1.366 . S
C675 C676 1.414 . S
C675 C678 1.499 . S
C676 H656 0.950 . S
C676 C675 1.414 . S
C676 C677 1.374 . S
C677 H657 0.950 . S
C677 C673 1.385 . S
C677 C676 1.374 . S
C678 C675 1.499 . S
C678 C679 1.373 . S
C678 C680 1.467 . S
C679 H658 0.950 . S
C679 C678 1.373 . S
C679 C695 1.330 1_565 S
C680 C678 1.467 . S
C680 C681 1.494 . S
C680 C694 1.331 1_565 S
C681 C680 1.494 . S
C681 C682 1.397 . S
C681 C686 1.363 1_565 S
C682 H659 0.950 . S
C682 C681 1.397 . S
C682 C683 1.334 . S
C683 H660 0.950 . S
C683 C682 1.334 . S
C683 C684 1.287 . S
C684 C683 1.287 . S
C684 C685 1.524 1_565 S
C684 H703 0.913 . S
C685 H661 0.950 . S
C685 C684 1.524 1_545 S
C685 C686 1.415 . S
C686 H662 0.950 . S
C686 C681 1.363 1_545 S
C686 C685 1.415 . S
C687 H663 0.951 . S
C687 C688 1.366 . S
C687 C689 1.388 . S
C688 C687 1.366 . S
C688 C692 1.385 . S
C689 H664 0.951 . S
C689 C687 1.388 . S
C689 C690 1.366 . S
C690 C689 1.366 . S
C690 C691 1.414 . S
C690 C693 1.499 . S
C691 H665 0.950 . S
C691 C690 1.414 . S
C691 C692 1.374 . S
C692 H666 0.950 . S
C692 C688 1.385 . S
C692 C691 1.374 . S
C693 C690 1.499 . S
C693 C694 1.373 . S
C693 C695 1.469 . S
C694 H667 0.950 . S
C694 C680 1.331 1_545 S
C694 C693 1.373 . S
C695 C679 1.330 1_545 S
C695 C693 1.469 . S
C695 C696 1.493 . S
C696 C695 1.493 . S
C696 C697 1.397 . S
C696 C701 1.363 1_545 S
C697 H668 0.950 . S
C697 C696 1.397 . S
C697 C698 1.334 . S
C698 H669 0.950 . S
C698 C697 1.334 . S
C698 C699 1.287 . S
C699 C698 1.287 . S
C699 C700 1.524 1_545 S
C699 H702 0.999 . S
C700 H670 0.950 . S
C700 C699 1.524 1_565 S
C700 C701 1.415 . S
C701 H671 0.950 . S
C701 C696 1.363 1_565 S
C701 C700 1.415 . S
H702 C699 0.999 . S
H703 C684 0.913 . S
H704 C722 0.951 . S
H705 C724 0.951 . S
H706 C726 0.950 . S
H707 C727 0.950 . S
H708 C729 0.950 . S
H709 C732 0.950 . S
H710 C733 0.950 . S
H711 C735 0.950 . S
H712 C736 0.950 . S
H713 C737 0.951 . S
H714 C739 0.951 . S
H715 C741 0.950 . S
H716 C742 0.950 . S
H717 C744 0.950 . S
H718 C747 0.950 . S
H719 C748 0.950 . S
H720 C750 0.950 . S
H721 C751 0.950 . S
C722 H704 0.951 . S
C722 C723 1.366 . S
C722 C724 1.388 . S
C723 C722 1.366 . S
C723 C727 1.385 . S
C724 H705 0.951 . S
C724 C722 1.388 . S
C724 C725 1.366 . S
C725 C724 1.366 . S
C725 C726 1.414 . S
C725 C728 1.499 . S
C726 H706 0.950 . S
C726 C725 1.414 . S
C726 C727 1.374 . S
C727 H707 0.950 . S
C727 C723 1.385 . S
C727 C726 1.374 . S
C728 C725 1.499 . S
C728 C729 1.373 1_455 S
C728 C730 1.389 . S
C729 H708 0.950 . S
C729 C728 1.373 1_655 S
C729 C745 1.377 . S
C730 C728 1.389 . S
C730 C731 1.524 . S
C730 C744 1.377 . S
C731 C730 1.524 . S
C731 C732 1.397 . S
C731 C736 1.363 . S
C732 H709 0.950 . S
C732 C731 1.397 . S
C732 C733 1.334 . S
C733 H710 0.950 . S
C733 C732 1.334 . S
C733 C734 1.287 . S
C734 C733 1.287 . S
C734 C735 1.524 . S
C734 H753 0.913 . S
C735 H711 0.950 . S
C735 C734 1.524 . S
C735 C736 1.415 . S
C736 H712 0.950 . S
C736 C731 1.363 . S
C736 C735 1.415 . S
C737 H713 0.951 . S
C737 C738 1.366 . S
C737 C739 1.388 . S
C738 C737 1.366 . S
C738 C742 1.385 . S
C739 H714 0.951 . S
C739 C737 1.388 . S
C739 C740 1.366 . S
C740 C739 1.366 . S
C740 C741 1.414 . S
C740 C743 1.499 . S
C741 H715 0.950 . S
C741 C740 1.414 . S
C741 C742 1.374 . S
C742 H716 0.950 . S
C742 C738 1.385 . S
C742 C741 1.374 . S
C743 C740 1.499 . S
C743 C744 1.373 1_655 S
C743 C745 1.389 . S
C744 H717 0.950 . S
C744 C730 1.377 . S
C744 C743 1.373 1_455 S
C745 C729 1.377 . S
C745 C743 1.389 . S
C745 C746 1.524 . S
C746 C745 1.524 . S
C746 C747 1.397 . S
C746 C751 1.363 . S
C747 H718 0.950 . S
C747 C746 1.397 . S
C747 C748 1.334 . S
C748 H719 0.950 . S
C748 C747 1.334 . S
C748 C749 1.287 . S
C749 C748 1.287 . S
C749 C750 1.524 . S
C749 H752 0.999 . S
C750 H720 0.950 . S
C750 C749 1.524 . S
C750 C751 1.415 . S
C751 H721 0.950 . S
C751 C746 1.363 . S
C751 C750 1.415 . S
H752 C749 0.999 . S
H753 C734 0.913 . S
H754 C772 0.951 . S
H755 C774 0.951 . S
H756 C776 0.950 . S
H757 C777 0.950 . S
H758 C779 0.950 . S
H759 C782 0.950 . S
H760 C783 0.950 . S
H761 C785 0.950 . S
H762 C786 0.950 . S
H763 C787 0.951 . S
H764 C789 0.951 . S
H765 C791 0.950 . S
H766 C792 0.950 . S
H767 C794 0.950 . S
H768 C797 0.950 . S
H769 C798 0.950 . S
H770 C800 0.950 . S
H771 C801 0.950 . S
C772 H754 0.951 . S
C772 C773 1.366 . S
C772 C774 1.388 . S
C773 C772 1.366 . S
C773 C777 1.385 . S
C774 H755 0.951 . S
C774 C772 1.388 . S
C774 C775 1.366 . S
C775 C774 1.366 . S
C775 C776 1.414 . S
C775 C778 1.499 . S
C776 H756 0.950 . S
C776 C775 1.414 . S
C776 C777 1.374 . S
C777 H757 0.950 . S
C777 C773 1.385 . S
C777 C776 1.374 . S
C778 C775 1.499 . S
C778 C779 1.373 . S
C778 C780 1.389 . S
C779 H758 0.950 . S
C779 C778 1.373 . S
C779 C795 1.377 . S
C780 C778 1.389 . S
C780 C781 1.524 . S
C780 C794 1.377 . S
C781 C780 1.524 . S
C781 C782 1.397 . S
C781 C786 1.363 . S
C782 H759 0.950 . S
C782 C781 1.397 . S
C782 C783 1.334 . S
C783 H760 0.950 . S
C783 C782 1.334 . S
C783 C784 1.287 . S
C784 C783 1.287 . S
C784 C785 1.524 . S
C784 H803 0.913 . S
C785 H761 0.950 . S
C785 C784 1.524 . S
C785 C786 1.415 . S
C786 H762 0.950 . S
C786 C781 1.363 . S
C786 C785 1.415 . S
C787 H763 0.951 . S
C787 C788 1.366 . S
C787 C789 1.388 . S
C788 C787 1.366 . S
C788 C792 1.385 . S
C789 H764 0.951 . S
C789 C787 1.388 . S
C789 C790 1.366 . S
C790 C789 1.366 . S
C790 C791 1.414 . S
C790 C793 1.499 . S
C791 H765 0.950 . S
C791 C790 1.414 . S
C791 C792 1.374 . S
C792 H766 0.950 . S
C792 C788 1.385 . S
C792 C791 1.374 . S
C793 C790 1.499 . S
C793 C794 1.373 . S
C793 C795 1.389 . S
C794 H767 0.950 . S
C794 C780 1.377 . S
C794 C793 1.373 . S
C795 C779 1.377 . S
C795 C793 1.389 . S
C795 C796 1.524 . S
C796 C795 1.524 . S
C796 C797 1.397 . S
C796 C801 1.363 . S
C797 H768 0.950 . S
C797 C796 1.397 . S
C797 C798 1.334 . S
C798 H769 0.950 . S
C798 C797 1.334 . S
C798 C799 1.287 . S
C799 C798 1.287 . S
C799 C800 1.524 . S
C799 H802 0.999 . S
C800 H770 0.950 . S
C800 C799 1.524 . S
C800 C801 1.415 . S
C801 H771 0.950 . S
C801 C796 1.363 . S
C801 C800 1.415 . S
H802 C799 0.999 . S
H803 C784 0.913 . S
H804 C822 0.951 . S
H805 C824 0.951 . S
H806 C826 0.950 . S
H807 C827 0.950 . S
H808 C829 0.950 . S
H809 C832 0.950 . S
H810 C833 0.950 . S
H811 C835 0.950 . S
H812 C836 0.950 . S
H813 C837 0.951 . S
H814 C839 0.951 . S
H815 C841 0.950 . S
H816 C842 0.950 1_554 S
H817 C844 0.950 . S
H818 C847 0.950 . S
H819 C848 0.950 . S
H820 C850 0.950 . S
H821 C851 0.950 . S
C822 H804 0.951 . S
C822 C823 1.366 . S
C822 C824 1.388 . S
C823 C822 1.366 . S
C823 C827 1.385 . S
C824 H805 0.951 . S
C824 C822 1.388 . S
C824 C825 1.366 . S
C825 C824 1.366 . S
C825 C826 1.414 . S
C825 C828 1.499 . S
C826 H806 0.950 . S
C826 C825 1.414 . S
C826 C827 1.374 . S
C827 H807 0.950 . S
C827 C823 1.385 . S
C827 C826 1.374 . S
C828 C825 1.499 . S
C828 C829 1.373 . S
C828 C830 1.389 . S
C829 H808 0.950 . S
C829 C828 1.373 . S
C829 C845 1.377 . S
C830 C828 1.389 . S
C830 C831 1.524 . S
C830 C844 1.377 . S
C831 C830 1.524 . S
C831 C832 1.397 . S
C831 C836 1.363 . S
C832 H809 0.950 . S
C832 C831 1.397 . S
C832 C833 1.334 . S
C833 H810 0.950 . S
C833 C832 1.334 . S
C833 C834 1.287 . S
C834 C833 1.287 . S
C834 C835 1.524 . S
C834 H853 0.913 . S
C835 H811 0.950 . S
C835 C834 1.524 . S
C835 C836 1.415 . S
C836 H812 0.950 . S
C836 C831 1.363 . S
C836 C835 1.415 . S
C837 H813 0.951 . S
C837 C838 1.366 . S
C837 C839 1.388 . S
C838 C837 1.366 . S
C838 C842 1.385 . S
C839 H814 0.951 . S
C839 C837 1.388 . S
C839 C840 1.366 . S
C840 C839 1.366 . S
C840 C841 1.414 . S
C840 C843 1.499 . S
C841 H815 0.950 . S
C841 C840 1.414 . S
C841 C842 1.374 . S
C842 H816 0.950 1_556 S
C842 C838 1.385 . S
C842 C841 1.374 . S
C843 C840 1.499 . S
C843 C844 1.373 . S
C843 C845 1.389 . S
C844 H817 0.950 . S
C844 C830 1.377 . S
C844 C843 1.373 . S
C845 C829 1.377 . S
C845 C843 1.389 . S
C845 C846 1.524 . S
C846 C845 1.524 . S
C846 C847 1.397 . S
C846 C851 1.363 . S
C847 H818 0.950 . S
C847 C846 1.397 . S
C847 C848 1.334 . S
C848 H819 0.950 . S
C848 C847 1.334 . S
C848 C849 1.287 . S
C849 C848 1.287 . S
C849 C850 1.524 . S
C849 H852 0.999 . S
C850 H820 0.950 . S
C850 C849 1.524 . S
C850 C851 1.415 . S
C851 H821 0.950 . S
C851 C846 1.363 . S
C851 C850 1.415 . S
H852 C849 0.999 . S
H853 C834 0.913 . S
H854 C872 0.951 . S
H855 C874 0.951 . S
H856 C876 0.950 . S
H857 C877 0.950 . S
H858 C879 0.950 . S
H859 C882 0.950 . S
H860 C883 0.950 . S
H861 C885 0.950 . S
H862 C886 0.950 . S
H863 C887 0.951 . S
H864 C889 0.951 . S
H865 C891 0.950 . S
H866 C892 0.950 . S
H867 C894 0.950 . S
H868 C897 0.950 . S
H869 C898 0.950 1_554 S
H870 C900 0.950 . S
H871 C901 0.950 . S
C872 H854 0.951 . S
C872 C873 1.366 . S
C872 C874 1.388 . S
C873 C872 1.366 . S
C873 C877 1.385 . S
C874 H855 0.951 . S
C874 C872 1.388 . S
C874 C875 1.366 . S
C875 C874 1.366 . S
C875 C876 1.414 . S
C875 C878 1.499 . S
C876 H856 0.950 . S
C876 C875 1.414 . S
C876 C877 1.374 . S
C877 H857 0.950 . S
C877 C873 1.385 . S
C877 C876 1.374 . S
C878 C875 1.499 . S
C878 C879 1.373 . S
C878 C880 1.389 . S
C879 H858 0.950 . S
C879 C878 1.373 . S
C879 C895 1.377 . S
C880 C878 1.389 . S
C880 C881 1.524 . S
C880 C894 1.377 . S
C881 C880 1.524 . S
C881 C882 1.397 . S
C881 C886 1.363 . S
C882 H859 0.950 . S
C882 C881 1.397 . S
C882 C883 1.334 . S
C883 H860 0.950 . S
C883 C882 1.334 . S
C883 C884 1.287 . S
C884 C883 1.287 . S
C884 C885 1.524 . S
C884 H903 0.913 . S
C885 H861 0.950 . S
C885 C884 1.524 . S
C885 C886 1.415 . S
C886 H862 0.950 . S
C886 C881 1.363 . S
C886 C885 1.415 . S
C887 H863 0.951 . S
C887 C888 1.366 . S
C887 C889 1.388 . S
C888 C887 1.366 . S
C888 C892 1.385 . S
C889 H864 0.951 . S
C889 C887 1.388 . S
C889 C890 1.366 . S
C890 C889 1.366 . S
C890 C891 1.414 . S
C890 C893 1.499 . S
C891 H865 0.950 . S
C891 C890 1.414 . S
C891 C892 1.374 . S
C892 H866 0.950 . S
C892 C888 1.385 . S
C892 C891 1.374 . S
C893 C890 1.499 . S
C893 C894 1.373 . S
C893 C895 1.389 . S
C894 H867 0.950 . S
C894 C880 1.377 . S
C894 C893 1.373 . S
C895 C879 1.377 . S
C895 C893 1.389 . S
C895 C896 1.524 . S
C896 C895 1.524 . S
C896 C897 1.397 . S
C896 C901 1.363 . S
C897 H868 0.950 . S
C897 C896 1.397 . S
C897 C898 1.334 . S
C898 H869 0.950 1_556 S
C898 C897 1.334 . S
C898 C899 1.287 . S
C899 C898 1.287 . S
C899 C900 1.524 . S
C899 H902 0.999 1_556 S
C900 H870 0.950 . S
C900 C899 1.524 . S
C900 C901 1.415 . S
C901 H871 0.950 . S
C901 C896 1.363 . S
C901 C900 1.415 . S
H902 C899 0.999 1_554 S
H903 C884 0.913 . S
H904 C922 0.951 . S
H905 C924 0.951 . S
H906 C926 0.950 . S
H907 C927 0.950 . S
H908 C929 0.950 . S
H909 C932 0.950 . S
H910 C933 0.950 . S
H911 C935 0.950 . S
H912 C936 0.950 . S
H913 C937 0.951 . S
H914 C939 0.951 . S
H915 C941 0.950 . S
H916 C942 0.950 . S
H917 C944 0.950 . S
H918 C947 0.950 . S
H919 C948 0.935 1_554 S
H920 C950 0.950 . S
H921 C951 0.950 . S
C922 H904 0.951 . S
C922 C923 1.366 . S
C922 C924 1.388 . S
C923 C922 1.366 . S
C923 C927 1.385 . S
C924 H905 0.951 . S
C924 C922 1.388 . S
C924 C925 1.366 . S
C925 C924 1.366 . S
C925 C926 1.414 . S
C925 C928 1.499 . S
C926 H906 0.950 . S
C926 C925 1.414 . S
C926 C927 1.374 . S
C927 H907 0.950 . S
C927 C923 1.385 . S
C927 C926 1.374 . S
C928 C925 1.499 . S
C928 C929 1.373 . S
C928 C930 1.389 . S
C929 H908 0.950 . S
C929 C928 1.373 . S
C929 C945 1.377 . S
C930 C928 1.389 . S
C930 C931 1.524 . S
C930 C944 1.377 . S
C931 C930 1.524 . S
C931 C932 1.397 . S
C931 C936 1.363 . S
C932 H909 0.950 . S
C932 C931 1.397 . S
C932 C933 1.334 . S
C933 H910 0.950 . S
C933 C932 1.334 . S
C933 C934 1.287 . S
C934 C933 1.287 . S
C934 C935 1.524 . S
C934 H953 0.913 . S
C935 H911 0.950 . S
C935 C934 1.524 . S
C935 C936 1.415 . S
C936 H912 0.950 . S
C936 C931 1.363 . S
C936 C935 1.415 . S
C937 H913 0.951 . S
C937 C938 1.366 . S
C937 C939 1.388 . S
C938 C937 1.366 . S
C938 C942 1.385 . S
C939 H914 0.951 . S
C939 C937 1.388 . S
C939 C940 1.366 . S
C940 C939 1.366 . S
C940 C941 1.414 . S
C940 C943 1.499 . S
C941 H915 0.950 . S
C941 C940 1.414 . S
C941 C942 1.374 . S
C942 H916 0.950 . S
C942 C938 1.385 . S
C942 C941 1.374 . S
C943 C940 1.499 . S
C943 C944 1.373 . S
C943 C945 1.389 . S
C944 H917 0.950 . S
C944 C930 1.377 . S
C944 C943 1.373 . S
C945 C929 1.377 . S
C945 C943 1.389 . S
C945 C946 1.524 . S
C946 C945 1.524 . S
C946 C947 1.397 . S
C946 C951 1.363 . S
C947 H918 0.950 . S
C947 C946 1.397 . S
C947 C948 1.334 . S
C948 H919 0.935 1_556 S
C948 C947 1.334 . S
C948 C949 1.287 . S
C949 C948 1.287 . S
C949 C950 1.524 . S
C949 H952 0.999 1_556 S
C950 H920 0.950 . S
C950 C949 1.524 . S
C950 C951 1.415 . S
C951 H921 0.950 . S
C951 C946 1.363 . S
C951 C950 1.415 . S
H952 C949 0.999 1_554 S
H953 C934 0.913 . S
H954 C972 0.951 . S
H955 C974 0.951 . S
H956 C976 0.950 . S
H957 C977 0.950 . S
H958 C979 0.950 . S
H959 C982 0.950 . S
H960 C983 0.950 . S
H961 C985 0.950 . S
H962 C986 0.950 . S
H963 C987 0.951 . S
H964 C989 0.951 . S
H965 C991 0.950 . S
H966 C992 0.950 1_554 S
H967 C994 0.950 . S
H968 C997 0.950 . S
H969 C998 0.950 . S
H970 C1000 0.950 . S
H971 C1001 0.950 . S
C972 H954 0.951 . S
C972 C973 1.366 . S
C972 C974 1.388 . S
C973 C972 1.366 . S
C973 C977 1.385 . S
C974 H955 0.951 . S
C974 C972 1.388 . S
C974 C975 1.366 . S
C975 C974 1.366 . S
C975 C976 1.414 . S
C975 C978 1.499 . S
C976 H956 0.950 . S
C976 C975 1.414 . S
C976 C977 1.374 . S
C977 H957 0.950 . S
C977 C973 1.385 . S
C977 C976 1.374 . S
C978 C975 1.499 . S
C978 C979 1.373 . S
C978 C980 1.389 . S
C979 H958 0.950 . S
C979 C978 1.373 . S
C979 C995 1.377 . S
C980 C978 1.389 . S
C980 C981 1.524 . S
C980 C994 1.377 . S
C981 C980 1.524 . S
C981 C982 1.397 . S
C981 C986 1.363 . S
C982 H959 0.950 . S
C982 C981 1.397 . S
C982 C983 1.334 . S
C983 H960 0.950 . S
C983 C982 1.334 . S
C983 C984 1.287 . S
C984 C983 1.287 . S
C984 C985 1.524 . S
C984 H1003 0.913 . S
C985 H961 0.950 . S
C985 C984 1.524 . S
C985 C986 1.415 . S
C986 H962 0.950 . S
C986 C981 1.363 . S
C986 C985 1.415 . S
C987 H963 0.951 . S
C987 C988 1.366 . S
C987 C989 1.388 . S
C988 C987 1.366 . S
C988 C992 1.385 . S
C989 H964 0.951 . S
C989 C987 1.388 . S
C989 C990 1.366 . S
C990 C989 1.366 . S
C990 C991 1.414 . S
C990 C993 1.499 . S
C991 H965 0.950 . S
C991 C990 1.414 . S
C991 C992 1.374 . S
C992 H966 0.950 1_556 S
C992 C988 1.385 . S
C992 C991 1.374 . S
C993 C990 1.499 . S
C993 C994 1.373 . S
C993 C995 1.389 . S
C994 H967 0.950 . S
C994 C980 1.377 . S
C994 C993 1.373 . S
C995 C979 1.377 . S
C995 C993 1.389 . S
C995 C996 1.524 . S
C996 C995 1.524 . S
C996 C997 1.397 . S
C996 C1001 1.363 . S
C997 H968 0.950 . S
C997 C996 1.397 . S
C997 C998 1.334 . S
C998 H969 0.950 . S
C998 C997 1.334 . S
C998 C999 1.287 . S
C999 C998 1.287 . S
C999 C1000 1.524 . S
C999 H1002 0.999 . S
C1000 H970 0.950 . S
C1000 C999 1.524 . S
C1000 C1001 1.415 . S
C1001 H971 0.950 . S
C1001 C996 1.363 . S
C1001 C1000 1.415 . S
H1002 C999 0.999 . S
H1003 C984 0.913 . S
H1004 C1022 0.951 . S
H1005 C1024 0.951 . S
H1006 C1026 0.950 . S
H1007 C1027 0.950 . S
H1008 C1029 0.950 . S
H1009 C1032 0.950 . S
H1010 C1033 0.950 1_554 S
H1011 C1035 0.950 . S
H1012 C1036 0.950 . S
H1013 C1037 0.951 . S
H1014 C1039 0.951 . S
H1015 C1041 0.950 . S
H1016 C1042 0.950 . S
H1017 C1044 0.950 . S
H1018 C1047 0.950 . S
H1019 C1048 0.950 . S
H1020 C1050 0.950 . S
H1021 C1051 0.950 . S
C1022 H1004 0.951 . S
C1022 C1023 1.366 . S
C1022 C1024 1.388 . S
C1023 C1022 1.366 . S
C1023 C1027 1.385 . S
C1024 H1005 0.951 . S
C1024 C1022 1.388 . S
C1024 C1025 1.366 . S
C1025 C1024 1.366 . S
C1025 C1026 1.414 . S
C1025 C1028 1.499 . S
C1026 H1006 0.950 . S
C1026 C1025 1.414 . S
C1026 C1027 1.374 . S
C1027 H1007 0.950 . S
C1027 C1023 1.385 . S
C1027 C1026 1.374 . S
C1028 C1025 1.499 . S
C1028 C1029 1.373 . S
C1028 C1030 1.389 . S
C1029 H1008 0.950 . S
C1029 C1028 1.373 . S
C1029 C1045 1.377 . S
C1030 C1028 1.389 . S
C1030 C1031 1.524 . S
C1030 C1044 1.377 . S
C1031 C1030 1.524 . S
C1031 C1032 1.397 . S
C1031 C1036 1.363 . S
C1032 H1009 0.950 . S
C1032 C1031 1.397 . S
C1032 C1033 1.334 . S
C1033 H1010 0.950 1_556 S
C1033 C1032 1.334 . S
C1033 C1034 1.287 . S
C1034 C1033 1.287 . S
C1034 C1035 1.524 . S
C1034 H1053 0.913 1_556 S
C1035 H1011 0.950 . S
C1035 C1034 1.524 . S
C1035 C1036 1.415 . S
C1036 H1012 0.950 . S
C1036 C1031 1.363 . S
C1036 C1035 1.415 . S
C1037 H1013 0.951 . S
C1037 C1038 1.366 . S
C1037 C1039 1.388 . S
C1038 C1037 1.366 . S
C1038 C1042 1.385 . S
C1039 H1014 0.951 . S
C1039 C1037 1.388 . S
C1039 C1040 1.366 . S
C1040 C1039 1.366 . S
C1040 C1041 1.414 . S
C1040 C1043 1.499 . S
C1041 H1015 0.950 . S
C1041 C1040 1.414 . S
C1041 C1042 1.374 . S
C1042 H1016 0.950 . S
C1042 C1038 1.385 . S
C1042 C1041 1.374 . S
C1043 C1040 1.499 . S
C1043 C1044 1.373 . S
C1043 C1045 1.389 . S
C1044 H1017 0.950 . S
C1044 C1030 1.377 . S
C1044 C1043 1.373 . S
C1045 C1029 1.377 . S
C1045 C1043 1.389 . S
C1045 C1046 1.524 . S
C1046 C1045 1.524 . S
C1046 C1047 1.397 . S
C1046 C1051 1.363 . S
C1047 H1018 0.950 . S
C1047 C1046 1.397 . S
C1047 C1048 1.334 . S
C1048 H1019 0.950 . S
C1048 C1047 1.334 . S
C1048 C1049 1.287 . S
C1049 C1048 1.287 . S
C1049 C1050 1.524 . S
C1049 H1052 0.999 . S
C1050 H1020 0.950 . S
C1050 C1049 1.524 . S
C1050 C1051 1.415 . S
C1051 H1021 0.950 . S
C1051 C1046 1.363 . S
C1051 C1050 1.415 . S
H1052 C1049 0.999 . S
H1053 C1034 0.913 1_554 S
H1054 C1072 0.951 . S
H1055 C1074 0.951 . S
H1056 C1076 0.950 . S
H1057 C1077 0.950 . S
H1058 C1079 0.950 . S
H1059 C1082 0.950 . S
H1060 C1083 0.950 . S
H1061 C1085 0.950 . S
H1062 C1086 0.950 . S
H1063 C1087 0.951 . S
H1064 C1089 0.951 . S
H1065 C1091 0.950 . S
H1066 C1092 0.950 . S
H1067 C1094 0.950 . S
H1068 C1097 0.950 . S
H1069 C1098 0.950 . S
H1070 C1100 0.950 . S
H1071 C1101 0.950 . S
C1072 H1054 0.951 . S
C1072 C1073 1.366 . S
C1072 C1074 1.388 . S
C1073 C1072 1.366 . S
C1073 C1077 1.385 . S
C1074 H1055 0.951 . S
C1074 C1072 1.388 . S
C1074 C1075 1.366 . S
C1075 C1074 1.366 . S
C1075 C1076 1.414 . S
C1075 C1078 1.499 . S
C1076 H1056 0.950 . S
C1076 C1075 1.414 . S
C1076 C1077 1.374 . S
C1077 H1057 0.950 . S
C1077 C1073 1.385 . S
C1077 C1076 1.374 . S
C1078 C1075 1.499 . S
C1078 C1079 1.373 . S
C1078 C1080 1.389 . S
C1079 H1058 0.950 . S
C1079 C1078 1.373 . S
C1079 C1095 1.377 . S
C1080 C1078 1.389 . S
C1080 C1081 1.524 . S
C1080 C1094 1.377 . S
C1081 C1080 1.524 . S
C1081 C1082 1.397 . S
C1081 C1086 1.363 . S
C1082 H1059 0.950 . S
C1082 C1081 1.397 . S
C1082 C1083 1.334 . S
C1083 H1060 0.950 . S
C1083 C1082 1.334 . S
C1083 C1084 1.287 . S
C1084 C1083 1.287 . S
C1084 C1085 1.524 . S
C1084 H1103 0.913 . S
C1085 H1061 0.950 . S
C1085 C1084 1.524 . S
C1085 C1086 1.415 . S
C1086 H1062 0.950 . S
C1086 C1081 1.363 . S
C1086 C1085 1.415 . S
C1087 H1063 0.951 . S
C1087 C1088 1.366 . S
C1087 C1089 1.388 . S
C1088 C1087 1.366 . S
C1088 C1092 1.385 . S
C1089 H1064 0.951 . S
C1089 C1087 1.388 . S
C1089 C1090 1.366 . S
C1090 C1089 1.366 . S
C1090 C1091 1.414 . S
C1090 C1093 1.499 . S
C1091 H1065 0.950 . S
C1091 C1090 1.414 . S
C1091 C1092 1.374 . S
C1092 H1066 0.950 . S
C1092 C1088 1.385 . S
C1092 C1091 1.374 . S
C1093 C1090 1.499 . S
C1093 C1094 1.373 . S
C1093 C1095 1.389 . S
C1094 H1067 0.950 . S
C1094 C1080 1.377 . S
C1094 C1093 1.373 . S
C1095 C1079 1.377 . S
C1095 C1093 1.389 . S
C1095 C1096 1.524 . S
C1096 C1095 1.524 . S
C1096 C1097 1.397 . S
C1096 C1101 1.363 . S
C1097 H1068 0.950 . S
C1097 C1096 1.397 . S
C1097 C1098 1.334 . S
C1098 H1069 0.950 . S
C1098 C1097 1.334 . S
C1098 C1099 1.287 . S
C1099 C1098 1.287 . S
C1099 C1100 1.524 . S
C1099 H1102 0.999 . S
C1100 H1070 0.950 . S
C1100 C1099 1.524 . S
C1100 C1101 1.415 . S
C1101 H1071 0.950 . S
C1101 C1096 1.363 . S
C1101 C1100 1.415 . S
H1102 C1099 0.999 . S
H1103 C1084 0.913 . S
H1104 C1122 0.951 . S
H1105 C1124 0.951 . S
H1106 C1126 0.950 . S
H1107 C1127 0.950 . S
H1108 C1129 0.950 . S
H1109 C1132 0.950 . S
H1110 C1133 0.950 . S
H1111 C1135 0.950 . S
H1112 C1136 0.950 . S
H1113 C1137 0.951 1_556 S
H1114 C1139 0.951 . S
H1115 C1141 0.950 . S
H1116 C1142 0.950 . S
H1117 C1144 0.950 . S
H1118 C1147 0.950 . S
H1119 C1148 0.950 . S
H1120 C1150 0.950 . S
H1121 C1151 0.950 . S
C1122 H1104 0.951 . S
C1122 C1123 1.366 . S
C1122 C1124 1.388 . S
C1123 C1122 1.366 . S
C1123 C1127 1.385 . S
C1124 H1105 0.951 . S
C1124 C1122 1.388 . S
C1124 C1125 1.366 . S
C1125 C1124 1.366 . S
C1125 C1126 1.414 . S
C1125 C1128 1.499 . S
C1126 H1106 0.950 . S
C1126 C1125 1.414 . S
C1126 C1127 1.374 . S
C1127 H1107 0.950 . S
C1127 C1123 1.385 . S
C1127 C1126 1.374 . S
C1128 C1125 1.499 . S
C1128 C1129 1.373 . S
C1128 C1130 1.389 . S
C1129 H1108 0.950 . S
C1129 C1128 1.373 . S
C1129 C1145 1.377 . S
C1130 C1128 1.389 . S
C1130 C1131 1.524 . S
C1130 C1144 1.377 . S
C1131 C1130 1.524 . S
C1131 C1132 1.397 . S
C1131 C1136 1.363 . S
C1132 H1109 0.950 . S
C1132 C1131 1.397 . S
C1132 C1133 1.334 . S
C1133 H1110 0.950 . S
C1133 C1132 1.334 . S
C1133 C1134 1.287 . S
C1134 C1133 1.287 . S
C1134 C1135 1.524 . S
C1134 H1153 0.913 . S
C1135 H1111 0.950 . S
C1135 C1134 1.524 . S
C1135 C1136 1.415 . S
C1136 H1112 0.950 . S
C1136 C1131 1.363 . S
C1136 C1135 1.415 . S
C1137 H1113 0.951 1_554 S
C1137 C1138 1.366 . S
C1137 C1139 1.388 . S
C1138 C1137 1.366 . S
C1138 C1142 1.385 . S
C1139 H1114 0.951 . S
C1139 C1137 1.388 . S
C1139 C1140 1.366 . S
C1140 C1139 1.366 . S
C1140 C1141 1.414 . S
C1140 C1143 1.499 . S
C1141 H1115 0.950 . S
C1141 C1140 1.414 . S
C1141 C1142 1.374 . S
C1142 H1116 0.950 . S
C1142 C1138 1.385 . S
C1142 C1141 1.374 . S
C1143 C1140 1.499 . S
C1143 C1144 1.373 . S
C1143 C1145 1.389 . S
C1144 H1117 0.950 . S
C1144 C1130 1.377 . S
C1144 C1143 1.373 . S
C1145 C1129 1.377 . S
C1145 C1143 1.389 . S
C1145 C1146 1.524 . S
C1146 C1145 1.524 . S
C1146 C1147 1.397 . S
C1146 C1151 1.363 . S
C1147 H1118 0.950 . S
C1147 C1146 1.397 . S
C1147 C1148 1.334 . S
C1148 H1119 0.950 . S
C1148 C1147 1.334 . S
C1148 C1149 1.287 . S
C1149 C1148 1.287 . S
C1149 C1150 1.524 . S
C1149 H1152 0.999 1_554 S
C1150 H1120 0.950 . S
C1150 C1149 1.524 . S
C1150 C1151 1.415 . S
C1151 H1121 0.950 . S
C1151 C1146 1.363 . S
C1151 C1150 1.415 . S
H1152 C1149 0.999 1_556 S
H1153 C1134 0.913 . S
H1154 C1172 0.951 . S
H1155 C1174 0.951 . S
H1156 C1176 0.950 . S
H1157 C1177 0.950 . S
H1158 C1179 0.950 . S
H1159 C1182 0.950 . S
H1160 C1183 0.950 . S
H1161 C1185 0.950 . S
H1162 C1186 0.950 . S
H1163 C1187 0.951 . S
H1164 C1189 0.951 . S
H1165 C1191 0.950 . S
H1166 C1192 0.950 . S
H1167 C1194 0.950 . S
H1168 C1197 0.950 . S
H1169 C1198 0.950 . S
H1170 C1200 0.950 . S
H1171 C1201 0.950 . S
C1172 H1154 0.951 . S
C1172 C1173 1.366 . S
C1172 C1174 1.388 . S
C1173 C1172 1.366 . S
C1173 C1177 1.385 . S
C1174 H1155 0.951 . S
C1174 C1172 1.388 . S
C1174 C1175 1.366 . S
C1175 C1174 1.366 . S
C1175 C1176 1.414 . S
C1175 C1178 1.499 . S
C1176 H1156 0.950 . S
C1176 C1175 1.414 . S
C1176 C1177 1.374 . S
C1177 H1157 0.950 . S
C1177 C1173 1.385 . S
C1177 C1176 1.374 . S
C1178 C1175 1.499 . S
C1178 C1179 1.373 . S
C1178 C1180 1.389 . S
C1179 H1158 0.950 . S
C1179 C1178 1.373 . S
C1179 C1195 1.377 . S
C1180 C1178 1.389 . S
C1180 C1181 1.524 . S
C1180 C1194 1.377 . S
C1181 C1180 1.524 . S
C1181 C1182 1.397 . S
C1181 C1186 1.363 . S
C1182 H1159 0.950 . S
C1182 C1181 1.397 . S
C1182 C1183 1.334 . S
C1183 H1160 0.950 . S
C1183 C1182 1.334 . S
C1183 C1184 1.287 . S
C1184 C1183 1.287 . S
C1184 C1185 1.524 . S
C1184 H1203 0.913 . S
C1185 H1161 0.950 . S
C1185 C1184 1.524 . S
C1185 C1186 1.415 . S
C1186 H1162 0.950 . S
C1186 C1181 1.363 . S
C1186 C1185 1.415 . S
C1187 H1163 0.951 . S
C1187 C1188 1.366 . S
C1187 C1189 1.388 . S
C1188 C1187 1.366 . S
C1188 C1192 1.385 . S
C1189 H1164 0.951 . S
C1189 C1187 1.388 . S
C1189 C1190 1.366 . S
C1190 C1189 1.366 . S
C1190 C1191 1.414 . S
C1190 C1193 1.499 . S
C1191 H1165 0.950 . S
C1191 C1190 1.414 . S
C1191 C1192 1.374 . S
C1192 H1166 0.950 . S
C1192 C1188 1.385 . S
C1192 C1191 1.374 . S
C1193 C1190 1.499 . S
C1193 C1194 1.373 . S
C1193 C1195 1.389 . S
C1194 H1167 0.950 . S
C1194 C1180 1.377 . S
C1194 C1193 1.373 . S
C1195 C1179 1.377 . S
C1195 C1193 1.389 . S
C1195 C1196 1.524 . S
C1196 C1195 1.524 . S
C1196 C1197 1.397 . S
C1196 C1201 1.363 . S
C1197 H1168 0.950 . S
C1197 C1196 1.397 . S
C1197 C1198 1.334 . S
C1198 H1169 0.950 . S
C1198 C1197 1.334 . S
C1198 C1199 1.287 . S
C1199 C1198 1.287 . S
C1199 C1200 1.524 . S
C1199 H1202 0.999 . S
C1200 H1170 0.950 . S
C1200 C1199 1.524 . S
C1200 C1201 1.415 . S
C1201 H1171 0.950 . S
C1201 C1196 1.363 . S
C1201 C1200 1.415 . S
H1202 C1199 0.999 . S
H1203 C1184 0.913 . S
H1204 C1222 0.951 . S
H1205 C1224 0.951 . S
H1206 C1226 0.950 . S
H1207 C1227 0.950 . S
H1208 C1229 0.950 . S
H1209 C1232 0.950 . S
H1210 C1233 0.950 . S
H1211 C1235 0.950 . S
H1212 C1236 0.950 . S
H1213 C1237 0.951 1_556 S
H1214 C1239 0.951 . S
H1215 C1241 0.950 . S
H1216 C1242 0.950 . S
H1217 C1244 0.950 . S
H1218 C1247 0.950 . S
H1219 C1248 0.950 . S
H1220 C1250 0.950 . S
H1221 C1251 0.950 . S
C1222 H1204 0.951 . S
C1222 C1223 1.366 . S
C1222 C1224 1.388 . S
C1223 C1222 1.366 . S
C1223 C1227 1.385 . S
C1224 H1205 0.951 . S
C1224 C1222 1.388 . S
C1224 C1225 1.366 . S
C1225 C1224 1.366 . S
C1225 C1226 1.414 . S
C1225 C1228 1.499 . S
C1226 H1206 0.950 . S
C1226 C1225 1.414 . S
C1226 C1227 1.374 . S
C1227 H1207 0.950 . S
C1227 C1223 1.385 . S
C1227 C1226 1.374 . S
C1228 C1225 1.499 . S
C1228 C1229 1.373 . S
C1228 C1230 1.389 . S
C1229 H1208 0.950 . S
C1229 C1228 1.373 . S
C1229 C1245 1.377 . S
C1230 C1228 1.389 . S
C1230 C1231 1.524 . S
C1230 C1244 1.377 . S
C1231 C1230 1.524 . S
C1231 C1232 1.397 . S
C1231 C1236 1.363 . S
C1232 H1209 0.950 . S
C1232 C1231 1.397 . S
C1232 C1233 1.334 . S
C1233 H1210 0.950 . S
C1233 C1232 1.334 . S
C1233 C1234 1.287 . S
C1234 C1233 1.287 . S
C1234 C1235 1.524 . S
C1234 H1253 0.913 . S
C1235 H1211 0.950 . S
C1235 C1234 1.524 . S
C1235 C1236 1.415 . S
C1236 H1212 0.950 . S
C1236 C1231 1.363 . S
C1236 C1235 1.415 . S
C1237 H1213 0.951 1_554 S
C1237 C1238 1.366 . S
C1237 C1239 1.388 . S
C1238 C1237 1.366 . S
C1238 C1242 1.385 . S
C1239 H1214 0.951 . S
C1239 C1237 1.388 . S
C1239 C1240 1.366 . S
C1240 C1239 1.366 . S
C1240 C1241 1.414 . S
C1240 C1243 1.499 . S
C1241 H1215 0.950 . S
C1241 C1240 1.414 . S
C1241 C1242 1.374 . S
C1242 H1216 0.950 . S
C1242 C1238 1.385 . S
C1242 C1241 1.374 . S
C1243 C1240 1.499 . S
C1243 C1244 1.373 . S
C1243 C1245 1.389 . S
C1244 H1217 0.950 . S
C1244 C1230 1.377 . S
C1244 C1243 1.373 . S
C1245 C1229 1.377 . S
C1245 C1243 1.389 . S
C1245 C1246 1.524 . S
C1246 C1245 1.524 . S
C1246 C1247 1.397 . S
C1246 C1251 1.363 . S
C1247 H1218 0.950 . S
C1247 C1246 1.397 . S
C1247 C1248 1.334 . S
C1248 H1219 0.950 . S
C1248 C1247 1.334 . S
C1248 C1249 1.287 . S
C1249 C1248 1.287 . S
C1249 C1250 1.524 . S
C1249 H1252 0.999 . S
C1250 H1220 0.950 . S
C1250 C1249 1.524 . S
C1250 C1251 1.415 . S
C1251 H1221 0.950 . S
C1251 C1246 1.363 . S
C1251 C1250 1.415 . S
H1252 C1249 0.999 . S
H1253 C1234 0.913 . S
H1254 C1272 0.951 . S
H1255 C1274 0.951 . S
H1256 C1276 0.950 . S
H1257 C1277 0.950 . S
H1258 C1279 0.950 . S
H1259 C1282 0.950 . S
H1260 C1283 0.950 . S
H1261 C1285 0.950 . S
H1262 C1286 0.950 . S
H1263 C1287 0.951 . S
H1264 C1289 0.951 . S
H1265 C1291 0.950 . S
H1266 C1292 0.950 . S
H1267 C1294 0.950 . S
H1268 C1297 0.950 . S
H1269 C1298 0.950 . S
H1270 C1300 0.950 . S
H1271 C1301 0.950 . S
C1272 H1254 0.951 . S
C1272 C1273 1.366 . S
C1272 C1274 1.388 . S
C1273 C1272 1.366 . S
C1273 C1277 1.385 . S
C1274 H1255 0.951 . S
C1274 C1272 1.388 . S
C1274 C1275 1.366 . S
C1275 C1274 1.366 . S
C1275 C1276 1.414 . S
C1275 C1278 1.499 . S
C1276 H1256 0.950 . S
C1276 C1275 1.414 . S
C1276 C1277 1.374 . S
C1277 H1257 0.950 . S
C1277 C1273 1.385 . S
C1277 C1276 1.374 . S
C1278 C1275 1.499 . S
C1278 C1279 1.373 . S
C1278 C1280 1.389 . S
C1279 H1258 0.950 . S
C1279 C1278 1.373 . S
C1279 C1295 1.377 . S
C1280 C1278 1.389 . S
C1280 C1281 1.524 . S
C1280 C1294 1.377 . S
C1281 C1280 1.524 . S
C1281 C1282 1.397 . S
C1281 C1286 1.363 . S
C1282 H1259 0.950 . S
C1282 C1281 1.397 . S
C1282 C1283 1.334 . S
C1283 H1260 0.950 . S
C1283 C1282 1.334 . S
C1283 C1284 1.287 . S
C1284 C1283 1.287 . S
C1284 C1285 1.524 . S
C1284 H1303 0.913 . S
C1285 H1261 0.950 . S
C1285 C1284 1.524 . S
C1285 C1286 1.415 . S
C1286 H1262 0.950 . S
C1286 C1281 1.363 . S
C1286 C1285 1.415 . S
C1287 H1263 0.951 . S
C1287 C1288 1.366 . S
C1287 C1289 1.388 . S
C1288 C1287 1.366 . S
C1288 C1292 1.385 . S
C1289 H1264 0.951 . S
C1289 C1287 1.388 . S
C1289 C1290 1.366 . S
C1290 C1289 1.366 . S
C1290 C1291 1.414 . S
C1290 C1293 1.499 . S
C1291 H1265 0.950 . S
C1291 C1290 1.414 . S
C1291 C1292 1.374 . S
C1292 H1266 0.950 . S
C1292 C1288 1.385 . S
C1292 C1291 1.374 . S
C1293 C1290 1.499 . S
C1293 C1294 1.373 . S
C1293 C1295 1.389 . S
C1294 H1267 0.950 . S
C1294 C1280 1.377 . S
C1294 C1293 1.373 . S
C1295 C1279 1.377 . S
C1295 C1293 1.389 . S
C1295 C1296 1.524 . S
C1296 C1295 1.524 . S
C1296 C1297 1.397 . S
C1296 C1301 1.363 . S
C1297 H1268 0.950 . S
C1297 C1296 1.397 . S
C1297 C1298 1.334 . S
C1298 H1269 0.950 . S
C1298 C1297 1.334 . S
C1298 C1299 1.287 . S
C1299 C1298 1.287 . S
C1299 C1300 1.524 . S
C1299 H1302 0.999 . S
C1300 H1270 0.950 . S
C1300 C1299 1.524 . S
C1300 C1301 1.415 . S
C1301 H1271 0.950 . S
C1301 C1296 1.363 . S
C1301 C1300 1.415 . S
H1302 C1299 0.999 . S
H1303 C1284 0.913 . S
H1304 C1322 0.951 . S
H1305 C1324 0.951 . S
H1306 C1326 0.950 . S
H1307 C1327 0.950 . S
H1308 C1329 0.950 . S
H1309 C1332 0.950 . S
H1310 C1333 0.950 . S
H1311 C1335 0.950 . S
H1312 C1336 0.950 . S
H1313 C1337 0.951 . S
H1314 C1339 0.951 . S
H1315 C1341 0.950 . S
H1316 C1342 0.950 1_556 S
H1317 C1344 0.950 . S
H1318 C1347 0.950 . S
H1319 C1348 0.950 . S
H1320 C1350 0.950 . S
H1321 C1351 0.950 . S
C1322 H1304 0.951 . S
C1322 C1323 1.366 . S
C1322 C1324 1.388 . S
C1323 C1322 1.366 . S
C1323 C1327 1.385 . S
C1324 H1305 0.951 . S
C1324 C1322 1.388 . S
C1324 C1325 1.366 . S
C1325 C1324 1.366 . S
C1325 C1326 1.414 . S
C1325 C1328 1.499 . S
C1326 H1306 0.950 . S
C1326 C1325 1.414 . S
C1326 C1327 1.374 . S
C1327 H1307 0.950 . S
C1327 C1323 1.385 . S
C1327 C1326 1.374 . S
C1328 C1325 1.499 . S
C1328 C1329 1.373 . S
C1328 C1330 1.389 . S
C1329 H1308 0.950 . S
C1329 C1328 1.373 . S
C1329 C1345 1.377 . S
C1330 C1328 1.389 . S
C1330 C1331 1.524 . S
C1330 C1344 1.377 . S
C1331 C1330 1.524 . S
C1331 C1332 1.397 . S
C1331 C1336 1.363 . S
C1332 H1309 0.950 . S
C1332 C1331 1.397 . S
C1332 C1333 1.334 . S
C1333 H1310 0.950 . S
C1333 C1332 1.334 . S
C1333 C1334 1.287 . S
C1334 C1333 1.287 . S
C1334 C1335 1.524 . S
C1334 H1353 0.913 . S
C1335 H1311 0.950 . S
C1335 C1334 1.524 . S
C1335 C1336 1.415 . S
C1336 H1312 0.950 . S
C1336 C1331 1.363 . S
C1336 C1335 1.415 . S
C1337 H1313 0.951 . S
C1337 C1338 1.366 . S
C1337 C1339 1.388 . S
C1338 C1337 1.366 . S
C1338 C1342 1.385 . S
C1339 H1314 0.951 . S
C1339 C1337 1.388 . S
C1339 C1340 1.366 . S
C1340 C1339 1.366 . S
C1340 C1341 1.414 . S
C1340 C1343 1.499 . S
C1341 H1315 0.950 . S
C1341 C1340 1.414 . S
C1341 C1342 1.374 . S
C1342 H1316 0.950 1_554 S
C1342 C1338 1.385 . S
C1342 C1341 1.374 . S
C1343 C1340 1.499 . S
C1343 C1344 1.373 . S
C1343 C1345 1.389 . S
C1344 H1317 0.950 . S
C1344 C1330 1.377 . S
C1344 C1343 1.373 . S
C1345 C1329 1.377 . S
C1345 C1343 1.389 . S
C1345 C1346 1.524 . S
C1346 C1345 1.524 . S
C1346 C1347 1.397 . S
C1346 C1351 1.363 . S
C1347 H1318 0.950 . S
C1347 C1346 1.397 . S
C1347 C1348 1.334 . S
C1348 H1319 0.950 . S
C1348 C1347 1.334 . S
C1348 C1349 1.287 . S
C1349 C1348 1.287 . S
C1349 C1350 1.524 . S
C1349 H1352 0.999 . S
C1350 H1320 0.950 . S
C1350 C1349 1.524 . S
C1350 C1351 1.415 . S
C1351 H1321 0.950 . S
C1351 C1346 1.363 . S
C1351 C1350 1.415 . S
H1352 C1349 0.999 . S
H1353 C1334 0.913 . S
H1354 C1372 0.951 . S
H1355 C1374 0.951 . S
H1356 C1376 0.950 . S
H1357 C1377 0.950 . S
H1358 C1379 0.950 . S
H1359 C1382 0.950 . S
H1360 C1383 0.950 . S
H1361 C1385 0.950 . S
H1362 C1386 0.950 . S
H1363 C1387 0.951 . S
H1364 C1389 0.951 . S
H1365 C1391 0.950 . S
H1366 C1392 0.950 1_556 S
H1367 C1394 0.950 . S
H1368 C1397 0.950 . S
H1369 C1398 0.950 . S
H1370 C1400 0.950 . S
H1371 C1401 0.950 . S
C1372 H1354 0.951 . S
C1372 C1373 1.366 . S
C1372 C1374 1.388 . S
C1373 C1372 1.366 . S
C1373 C1377 1.385 . S
C1374 H1355 0.951 . S
C1374 C1372 1.388 . S
C1374 C1375 1.366 . S
C1375 C1374 1.366 . S
C1375 C1376 1.414 . S
C1375 C1378 1.499 . S
C1376 H1356 0.950 . S
C1376 C1375 1.414 . S
C1376 C1377 1.374 . S
C1377 H1357 0.950 . S
C1377 C1373 1.385 . S
C1377 C1376 1.374 . S
C1378 C1375 1.499 . S
C1378 C1379 1.373 . S
C1378 C1380 1.389 . S
C1379 H1358 0.950 . S
C1379 C1378 1.373 . S
C1379 C1395 1.377 . S
C1380 C1378 1.389 . S
C1380 C1381 1.524 . S
C1380 C1394 1.377 . S
C1381 C1380 1.524 . S
C1381 C1382 1.397 . S
C1381 C1386 1.363 . S
C1382 H1359 0.950 . S
C1382 C1381 1.397 . S
C1382 C1383 1.334 . S
C1383 H1360 0.950 . S
C1383 C1382 1.334 . S
C1383 C1384 1.287 . S
C1384 C1383 1.287 . S
C1384 C1385 1.524 . S
C1384 H1403 0.913 . S
C1385 H1361 0.950 . S
C1385 C1384 1.524 . S
C1385 C1386 1.415 . S
C1386 H1362 0.950 . S
C1386 C1381 1.363 . S
C1386 C1385 1.415 . S
C1387 H1363 0.951 . S
C1387 C1388 1.366 . S
C1387 C1389 1.388 . S
C1388 C1387 1.366 . S
C1388 C1392 1.385 . S
C1389 H1364 0.951 . S
C1389 C1387 1.388 . S
C1389 C1390 1.366 . S
C1390 C1389 1.366 . S
C1390 C1391 1.414 . S
C1390 C1393 1.499 . S
C1391 H1365 0.950 . S
C1391 C1390 1.414 . S
C1391 C1392 1.374 . S
C1392 H1366 0.950 1_554 S
C1392 C1388 1.385 . S
C1392 C1391 1.374 . S
C1393 C1390 1.499 . S
C1393 C1394 1.373 . S
C1393 C1395 1.389 . S
C1394 H1367 0.950 . S
C1394 C1380 1.377 . S
C1394 C1393 1.373 . S
C1395 C1379 1.377 . S
C1395 C1393 1.389 . S
C1395 C1396 1.524 . S
C1396 C1395 1.524 . S
C1396 C1397 1.397 . S
C1396 C1401 1.363 . S
C1397 H1368 0.950 . S
C1397 C1396 1.397 . S
C1397 C1398 1.334 . S
C1398 H1369 0.950 . S
C1398 C1397 1.334 . S
C1398 C1399 1.287 . S
C1399 C1398 1.287 . S
C1399 C1400 1.524 . S
C1399 H1402 0.999 . S
C1400 H1370 0.950 . S
C1400 C1399 1.524 . S
C1400 C1401 1.415 . S
C1401 H1371 0.950 . S
C1401 C1396 1.363 . S
C1401 C1400 1.415 . S
H1402 C1399 0.999 . S
H1403 C1384 0.913 . S
H1404 C1422 0.951 . S
H1405 C1424 0.951 . S
H1406 C1426 0.950 . S
H1407 C1427 0.950 . S
H1408 C1429 0.950 . S
H1409 C1432 0.950 . S
H1410 C1433 0.950 . S
H1411 C1435 0.950 . S
H1412 C1436 0.950 . S
H1413 C1437 0.951 . S
H1414 C1439 0.951 . S
H1415 C1441 0.950 . S
H1416 C1442 0.950 . S
H1417 C1444 0.950 . S
H1418 C1447 0.950 . S
H1419 C1448 0.950 . S
H1420 C1450 0.950 . S
H1421 C1451 0.950 . S
C1422 H1404 0.951 . S
C1422 C1423 1.366 . S
C1422 C1424 1.388 . S
C1423 C1422 1.366 . S
C1423 C1427 1.385 . S
C1424 H1405 0.951 . S
C1424 C1422 1.388 . S
C1424 C1425 1.366 . S
C1425 C1424 1.366 . S
C1425 C1426 1.414 . S
C1425 C1428 1.499 . S
C1426 H1406 0.950 . S
C1426 C1425 1.414 . S
C1426 C1427 1.374 . S
C1427 H1407 0.950 . S
C1427 C1423 1.385 . S
C1427 C1426 1.374 . S
C1428 C1425 1.499 . S
C1428 C1429 1.373 . S
C1428 C1430 1.400 . S
C1429 H1408 0.950 . S
C1429 C1428 1.373 . S
C1429 C1445 1.343 1_566 S
C1430 C1428 1.400 . S
C1430 C1431 1.553 . S
C1430 C1444 1.342 1_566 S
C1431 C1430 1.553 . S
C1431 C1432 1.397 . S
C1431 C1436 1.363 1_565 S
C1432 H1409 0.950 . S
C1432 C1431 1.397 . S
C1432 C1433 1.334 . S
C1433 H1410 0.950 . S
C1433 C1432 1.334 . S
C1433 C1434 1.287 . S
C1434 C1433 1.287 . S
C1434 C1435 1.524 1_565 S
C1434 H1453 0.913 . S
C1435 H1411 0.950 . S
C1435 C1434 1.524 1_545 S
C1435 C1436 1.415 . S
C1436 H1412 0.950 . S
C1436 C1431 1.363 1_545 S
C1436 C1435 1.415 . S
C1437 H1413 0.951 . S
C1437 C1438 1.366 . S
C1437 C1439 1.388 . S
C1438 C1437 1.366 . S
C1438 C1442 1.385 . S
C1439 H1414 0.951 . S
C1439 C1437 1.388 . S
C1439 C1440 1.366 . S
C1440 C1439 1.366 . S
C1440 C1441 1.414 . S
C1440 C1443 1.499 . S
C1441 H1415 0.950 . S
C1441 C1440 1.414 . S
C1441 C1442 1.374 . S
C1442 H1416 0.950 . S
C1442 C1438 1.385 . S
C1442 C1441 1.374 . S
C1443 C1440 1.499 . S
C1443 C1444 1.373 . S
C1443 C1445 1.400 . S
C1444 H1417 0.950 . S
C1444 C1430 1.342 1_544 S
C1444 C1443 1.373 . S
C1445 C1429 1.343 1_544 S
C1445 C1443 1.400 . S
C1445 C1446 1.552 . S
C1446 C1445 1.552 . S
C1446 C1447 1.397 . S
C1446 C1451 1.363 1_545 S
C1447 H1418 0.950 . S
C1447 C1446 1.397 . S
C1447 C1448 1.334 . S
C1448 H1419 0.950 . S
C1448 C1447 1.334 . S
C1448 C1449 1.287 . S
C1449 C1448 1.287 . S
C1449 C1450 1.524 1_545 S
C1449 H1452 0.999 . S
C1450 H1420 0.950 . S
C1450 C1449 1.524 1_565 S
C1450 C1451 1.415 . S
C1451 H1421 0.950 . S
C1451 C1446 1.363 1_565 S
C1451 C1450 1.415 . S
H1452 C1449 0.999 . S
H1453 C1434 0.913 . S
H1454 C1472 0.951 . S
H1455 C1474 0.951 . S
H1456 C1476 0.950 . S
H1457 C1477 0.950 . S
H1458 C1479 0.950 . S
H1459 C1482 0.950 . S
H1460 C1483 0.950 . S
H1461 C1485 0.950 . S
H1462 C1486 0.950 . S
H1463 C1487 0.951 . S
H1464 C1489 0.951 . S
H1465 C1491 0.950 . S
H1466 C1492 0.950 . S
H1467 C1494 0.950 . S
H1468 C1497 0.950 . S
H1469 C1498 0.950 . S
H1470 C1500 0.950 . S
H1471 C1501 0.950 . S
C1472 H1454 0.951 . S
C1472 C1473 1.366 . S
C1472 C1474 1.388 . S
C1473 C1472 1.366 . S
C1473 C1477 1.385 . S
C1474 H1455 0.951 . S
C1474 C1472 1.388 . S
C1474 C1475 1.366 . S
C1475 C1474 1.366 . S
C1475 C1476 1.414 . S
C1475 C1478 1.499 . S
C1476 H1456 0.950 . S
C1476 C1475 1.414 . S
C1476 C1477 1.374 . S
C1477 H1457 0.950 . S
C1477 C1473 1.385 . S
C1477 C1476 1.374 . S
C1478 C1475 1.499 . S
C1478 C1479 1.373 1_655 S
C1478 C1480 1.389 1_554 S
C1479 H1458 0.950 . S
C1479 C1478 1.373 1_455 S
C1479 C1495 1.377 . S
C1480 C1478 1.389 1_556 S
C1480 C1481 1.524 . S
C1480 C1494 1.377 . S
C1481 C1480 1.524 . S
C1481 C1482 1.397 1_556 S
C1481 C1486 1.363 . S
C1482 H1459 0.950 . S
C1482 C1481 1.397 1_554 S
C1482 C1483 1.334 . S
C1483 H1460 0.950 . S
C1483 C1482 1.334 . S
C1483 C1484 1.287 1_554 S
C1484 C1483 1.287 1_556 S
C1484 C1485 1.524 . S
C1484 H1503 0.913 . S
C1485 H1461 0.950 . S
C1485 C1484 1.524 . S
C1485 C1486 1.415 . S
C1486 H1462 0.950 . S
C1486 C1481 1.363 . S
C1486 C1485 1.415 . S
C1487 H1463 0.951 . S
C1487 C1488 1.366 . S
C1487 C1489 1.388 . S
C1488 C1487 1.366 . S
C1488 C1492 1.385 . S
C1489 H1464 0.951 . S
C1489 C1487 1.388 . S
C1489 C1490 1.366 . S
C1490 C1489 1.366 . S
C1490 C1491 1.414 . S
C1490 C1493 1.499 . S
C1491 H1465 0.950 . S
C1491 C1490 1.414 . S
C1491 C1492 1.374 . S
C1492 H1466 0.950 . S
C1492 C1488 1.385 . S
C1492 C1491 1.374 . S
C1493 C1490 1.499 . S
C1493 C1494 1.373 1_455 S
C1493 C1495 1.389 1_556 S
C1494 H1467 0.950 . S
C1494 C1480 1.377 . S
C1494 C1493 1.373 1_655 S
C1495 C1479 1.377 . S
C1495 C1493 1.389 1_554 S
C1495 C1496 1.524 . S
C1496 C1495 1.524 . S
C1496 C1497 1.397 1_554 S
C1496 C1501 1.363 . S
C1497 H1468 0.950 . S
C1497 C1496 1.397 1_556 S
C1497 C1498 1.334 . S
C1498 H1469 0.950 . S
C1498 C1497 1.334 . S
C1498 C1499 1.287 1_556 S
C1499 C1498 1.287 1_554 S
C1499 C1500 1.524 . S
C1499 H1502 0.999 . S
C1500 H1470 0.950 . S
C1500 C1499 1.524 . S
C1500 C1501 1.415 . S
C1501 H1471 0.950 . S
C1501 C1496 1.363 . S
C1501 C1500 1.415 . S
H1502 C1499 0.999 . S
H1503 C1484 0.913 . S
H1504 C1522 0.951 . S
H1505 C1524 0.951 . S
H1506 C1526 0.950 . S
H1507 C1527 0.950 . S
H1508 C1529 0.950 . S
H1509 C1532 0.950 . S
H1510 C1533 0.950 . S
H1511 C1535 0.950 . S
H1512 C1536 0.950 . S
H1513 C1537 0.951 . S
H1514 C1539 0.951 . S
H1515 C1541 0.950 . S
H1516 C1542 0.950 . S
H1517 C1544 0.950 . S
H1518 C1547 0.950 . S
H1519 C1548 0.950 . S
H1520 C1550 0.950 . S
H1521 C1551 0.950 . S
C1522 H1504 0.951 . S
C1522 C1523 1.366 . S
C1522 C1524 1.388 . S
C1523 C1522 1.366 . S
C1523 C1527 1.385 . S
C1524 H1505 0.951 . S
C1524 C1522 1.388 . S
C1524 C1525 1.366 . S
C1525 C1524 1.366 . S
C1525 C1526 1.414 . S
C1525 C1528 1.499 . S
C1526 H1506 0.950 . S
C1526 C1525 1.414 . S
C1526 C1527 1.374 . S
C1527 H1507 0.950 . S
C1527 C1523 1.385 . S
C1527 C1526 1.374 . S
C1528 C1525 1.499 . S
C1528 C1529 1.373 1_556 S
C1528 C1530 1.389 . S
C1529 H1508 0.950 . S
C1529 C1528 1.373 1_554 S
C1529 C1545 1.377 . S
C1530 C1528 1.389 . S
C1530 C1531 1.524 . S
C1530 C1544 1.377 . S
C1531 C1530 1.524 . S
C1531 C1532 1.397 . S
C1531 C1536 1.363 . S
C1532 H1509 0.950 . S
C1532 C1531 1.397 . S
C1532 C1533 1.334 . S
C1533 H1510 0.950 . S
C1533 C1532 1.334 . S
C1533 C1534 1.287 . S
C1534 C1533 1.287 . S
C1534 C1535 1.524 . S
C1534 H1553 0.913 . S
C1535 H1511 0.950 . S
C1535 C1534 1.524 . S
C1535 C1536 1.415 . S
C1536 H1512 0.950 . S
C1536 C1531 1.363 . S
C1536 C1535 1.415 . S
C1537 H1513 0.951 . S
C1537 C1538 1.366 . S
C1537 C1539 1.388 . S
C1538 C1537 1.366 . S
C1538 C1542 1.385 . S
C1539 H1514 0.951 . S
C1539 C1537 1.388 . S
C1539 C1540 1.366 . S
C1540 C1539 1.366 . S
C1540 C1541 1.414 . S
C1540 C1543 1.499 . S
C1541 H1515 0.950 . S
C1541 C1540 1.414 . S
C1541 C1542 1.374 . S
C1542 H1516 0.950 . S
C1542 C1538 1.385 . S
C1542 C1541 1.374 . S
C1543 C1540 1.499 . S
C1543 C1544 1.373 1_554 S
C1543 C1545 1.389 . S
C1544 H1517 0.950 . S
C1544 C1530 1.377 . S
C1544 C1543 1.373 1_556 S
C1545 C1529 1.377 . S
C1545 C1543 1.389 . S
C1545 C1546 1.524 . S
C1546 C1545 1.524 . S
C1546 C1547 1.397 . S
C1546 C1551 1.363 . S
C1547 H1518 0.950 . S
C1547 C1546 1.397 . S
C1547 C1548 1.334 . S
C1548 H1519 0.950 . S
C1548 C1547 1.334 . S
C1548 C1549 1.287 . S
C1549 C1548 1.287 . S
C1549 C1550 1.524 . S
C1549 H1552 0.999 . S
C1550 H1520 0.950 . S
C1550 C1549 1.524 . S
C1550 C1551 1.415 . S
C1551 H1521 0.950 . S
C1551 C1546 1.363 . S
C1551 C1550 1.415 . S
H1552 C1549 0.999 . S
H1553 C1534 0.913 . S
H1554 C1572 0.951 . S
H1555 C1574 0.951 . S
H1556 C1576 0.950 . S
H1557 C1577 0.950 . S
H1558 C1579 0.950 . S
H1559 C1582 0.950 . S
H1560 C1583 0.950 . S
H1561 C1585 0.950 . S
H1562 C1586 0.950 . S
H1563 C1587 0.951 . S
H1564 C1589 0.951 . S
H1565 C1591 0.950 . S
H1566 C1592 0.950 . S
H1567 C1594 0.950 . S
H1568 C1597 0.950 . S
H1569 C1598 0.950 . S
H1570 C1600 0.950 . S
H1571 C1601 0.950 . S
C1572 H1554 0.951 . S
C1572 C1573 1.366 . S
C1572 C1574 1.388 . S
C1573 C1572 1.366 . S
C1573 C1577 1.385 . S
C1574 H1555 0.951 . S
C1574 C1572 1.388 . S
C1574 C1575 1.366 . S
C1575 C1574 1.366 . S
C1575 C1576 1.414 . S
C1575 C1578 1.499 . S
C1576 H1556 0.950 . S
C1576 C1575 1.414 . S
C1576 C1577 1.374 . S
C1577 H1557 0.950 . S
C1577 C1573 1.385 . S
C1577 C1576 1.374 . S
C1578 C1575 1.499 . S
C1578 C1579 1.372 1_556 S
C1578 C1580 1.389 1_565 S
C1579 H1558 0.950 . S
C1579 C1578 1.372 1_554 S
C1579 C1595 1.378 . S
C1580 C1578 1.389 1_545 S
C1580 C1581 1.524 . S
C1580 C1594 1.378 . S
C1581 C1580 1.524 . S
C1581 C1582 1.397 1_545 S
C1581 C1586 1.363 . S
C1582 H1559 0.950 . S
C1582 C1581 1.397 1_565 S
C1582 C1583 1.334 . S
C1583 H1560 0.950 . S
C1583 C1582 1.334 . S
C1583 C1584 1.287 1_565 S
C1584 C1583 1.287 1_545 S
C1584 C1585 1.524 . S
C1584 H1603 0.913 . S
C1585 H1561 0.950 . S
C1585 C1584 1.524 . S
C1585 C1586 1.415 . S
C1586 H1562 0.950 . S
C1586 C1581 1.363 . S
C1586 C1585 1.415 . S
C1587 H1563 0.951 . S
C1587 C1588 1.366 . S
C1587 C1589 1.388 . S
C1588 C1587 1.366 . S
C1588 C1592 1.385 . S
C1589 H1564 0.951 . S
C1589 C1587 1.388 . S
C1589 C1590 1.366 . S
C1590 C1589 1.366 . S
C1590 C1591 1.414 . S
C1590 C1593 1.499 . S
C1591 H1565 0.950 . S
C1591 C1590 1.414 . S
C1591 C1592 1.374 . S
C1592 H1566 0.950 . S
C1592 C1588 1.385 . S
C1592 C1591 1.374 . S
C1593 C1590 1.499 . S
C1593 C1594 1.372 1_554 S
C1593 C1595 1.389 1_545 S
C1594 H1567 0.950 . S
C1594 C1580 1.378 . S
C1594 C1593 1.372 1_556 S
C1595 C1579 1.378 . S
C1595 C1593 1.389 1_565 S
C1595 C1596 1.524 . S
C1596 C1595 1.524 . S
C1596 C1597 1.397 1_565 S
C1596 C1601 1.363 . S
C1597 H1568 0.950 . S
C1597 C1596 1.397 1_545 S
C1597 C1598 1.334 . S
C1598 H1569 0.950 . S
C1598 C1597 1.334 . S
C1598 C1599 1.287 1_545 S
C1599 C1598 1.287 1_565 S
C1599 C1600 1.524 . S
C1599 H1602 0.999 . S
C1600 H1570 0.950 . S
C1600 C1599 1.524 . S
C1600 C1601 1.415 . S
C1601 H1571 0.950 . S
C1601 C1596 1.363 . S
C1601 C1600 1.415 . S
H1602 C1599 0.999 . S
H1603 C1584 0.913 . S
H1604 C1622 0.951 . S
H1605 C1624 0.951 . S
H1606 C1626 0.950 . S
H1607 C1627 0.950 . S
H1608 C1629 0.950 . S
H1609 C1632 0.950 . S
H1610 C1633 0.950 . S
H1611 C1635 0.988 . S
H1612 C1636 0.950 . S
H1613 C1637 0.951 . S
H1614 C1639 0.951 . S
H1615 C1641 0.950 . S
H1616 C1642 0.950 . S
H1617 C1644 0.950 . S
H1618 C1647 0.950 . S
H1619 C1648 0.950 . S
H1620 C1650 0.988 . S
H1621 C1651 0.950 . S
C1622 H1604 0.951 . S
C1622 C1623 1.366 . S
C1622 C1624 1.388 . S
C1623 C1622 1.366 . S
C1623 C1627 1.385 . S
C1624 H1605 0.951 . S
C1624 C1622 1.388 . S
C1624 C1625 1.366 . S
C1625 C1624 1.366 . S
C1625 C1626 1.414 . S
C1625 C1628 1.499 . S
C1626 H1606 0.950 . S
C1626 C1625 1.414 . S
C1626 C1627 1.374 . S
C1627 H1607 0.950 . S
C1627 C1623 1.385 . S
C1627 C1626 1.374 . S
C1628 C1625 1.499 . S
C1628 C1629 1.373 . S
C1628 C1630 1.396 . S
C1629 H1608 0.950 . S
C1629 C1628 1.373 . S
C1629 C1645 1.339 1_456 S
C1630 C1628 1.396 . S
C1630 C1631 1.551 . S
C1630 C1644 1.340 1_456 S
C1631 C1630 1.551 . S
C1631 C1632 1.394 1_455 S
C1631 C1636 1.369 . S
C1632 H1609 0.950 . S
C1632 C1631 1.394 1_655 S
C1632 C1633 1.334 . S
C1633 H1610 0.950 . S
C1633 C1632 1.334 . S
C1633 C1634 1.287 . S
C1634 C1633 1.287 . S
C1634 C1635 1.504 1_655 S
C1634 H1653 0.913 . S
C1635 H1611 0.988 . S
C1635 C1634 1.504 1_455 S
C1635 C1636 1.395 . S
C1636 H1612 0.950 . S
C1636 C1631 1.369 . S
C1636 C1635 1.395 . S
C1637 H1613 0.951 . S
C1637 C1638 1.366 . S
C1637 C1639 1.388 . S
C1638 C1637 1.366 . S
C1638 C1642 1.385 . S
C1639 H1614 0.951 . S
C1639 C1637 1.388 . S
C1639 C1640 1.366 . S
C1640 C1639 1.366 . S
C1640 C1641 1.414 . S
C1640 C1643 1.499 . S
C1641 H1615 0.950 . S
C1641 C1640 1.414 . S
C1641 C1642 1.374 . S
C1642 H1616 0.950 . S
C1642 C1638 1.385 . S
C1642 C1641 1.374 . S
C1643 C1640 1.499 . S
C1643 C1644 1.373 . S
C1643 C1645 1.396 . S
C1644 H1617 0.950 . S
C1644 C1630 1.340 1_654 S
C1644 C1643 1.373 . S
C1645 C1629 1.339 1_654 S
C1645 C1643 1.396 . S
C1645 C1646 1.551 . S
C1646 C1645 1.551 . S
C1646 C1647 1.394 1_655 S
C1646 C1651 1.369 . S
C1647 H1618 0.950 . S
C1647 C1646 1.394 1_455 S
C1647 C1648 1.334 . S
C1648 H1619 0.950 . S
C1648 C1647 1.334 . S
C1648 C1649 1.287 . S
C1649 C1648 1.287 . S
C1649 C1650 1.504 1_455 S
C1649 H1652 0.999 . S
C1650 H1620 0.988 . S
C1650 C1649 1.504 1_655 S
C1650 C1651 1.394 . S
C1651 H1621 0.950 . S
C1651 C1646 1.369 . S
C1651 C1650 1.394 . S
H1652 C1649 0.999 . S
H1653 C1634 0.913 . S
H1654 C1672 0.951 . S
H1655 C1674 0.951 . S
H1656 C1676 0.950 . S
H1657 C1677 0.950 . S
H1658 C1679 0.950 . S
H1659 C1682 0.950 . S
H1660 C1683 0.950 . S
H1661 C1685 0.950 . S
H1662 C1686 0.950 . S
H1663 C1687 0.951 . S
H1664 C1689 0.951 . S
H1665 C1691 0.950 . S
H1666 C1692 0.950 . S
H1667 C1694 0.950 . S
H1668 C1697 0.950 . S
H1669 C1698 0.950 . S
H1670 C1700 0.950 . S
H1671 C1701 0.950 . S
C1672 H1654 0.951 . S
C1672 C1673 1.366 . S
C1672 C1674 1.388 . S
C1673 C1672 1.366 . S
C1673 C1677 1.385 . S
C1674 H1655 0.951 . S
C1674 C1672 1.388 . S
C1674 C1675 1.366 . S
C1675 C1674 1.366 . S
C1675 C1676 1.414 . S
C1675 C1678 1.499 . S
C1676 H1656 0.950 . S
C1676 C1675 1.414 . S
C1676 C1677 1.374 . S
C1677 H1657 0.950 . S
C1677 C1673 1.385 . S
C1677 C1676 1.374 . S
C1678 C1675 1.499 . S
C1678 C1679 1.373 1_554 S
C1678 C1680 1.389 . S
C1679 H1658 0.950 . S
C1679 C1678 1.373 1_556 S
C1679 C1695 1.377 . S
C1680 C1678 1.389 . S
C1680 C1681 1.524 . S
C1680 C1694 1.377 . S
C1681 C1680 1.524 . S
C1681 C1682 1.397 . S
C1681 C1686 1.363 . S
C1682 H1659 0.950 . S
C1682 C1681 1.397 . S
C1682 C1683 1.334 . S
C1683 H1660 0.950 . S
C1683 C1682 1.334 . S
C1683 C1684 1.287 . S
C1684 C1683 1.287 . S
C1684 C1685 1.524 . S
C1684 H1703 0.913 . S
C1685 H1661 0.950 . S
C1685 C1684 1.524 . S
C1685 C1686 1.415 . S
C1686 H1662 0.950 . S
C1686 C1681 1.363 . S
C1686 C1685 1.415 . S
C1687 H1663 0.951 . S
C1687 C1688 1.366 . S
C1687 C1689 1.388 . S
C1688 C1687 1.366 . S
C1688 C1692 1.385 . S
C1689 H1664 0.951 . S
C1689 C1687 1.388 . S
C1689 C1690 1.366 . S
C1690 C1689 1.366 . S
C1690 C1691 1.414 . S
C1690 C1693 1.499 . S
C1691 H1665 0.950 . S
C1691 C1690 1.414 . S
C1691 C1692 1.374 . S
C1692 H1666 0.950 . S
C1692 C1688 1.385 . S
C1692 C1691 1.374 . S
C1693 C1690 1.499 . S
C1693 C1694 1.373 1_556 S
C1693 C1695 1.389 . S
C1694 H1667 0.950 . S
C1694 C1680 1.377 . S
C1694 C1693 1.373 1_554 S
C1695 C1679 1.377 . S
C1695 C1693 1.389 . S
C1695 C1696 1.524 . S
C1696 C1695 1.524 . S
C1696 C1697 1.397 . S
C1696 C1701 1.363 . S
C1697 H1668 0.950 . S
C1697 C1696 1.397 . S
C1697 C1698 1.334 . S
C1698 H1669 0.950 . S
C1698 C1697 1.334 . S
C1698 C1699 1.287 . S
C1699 C1698 1.287 . S
C1699 C1700 1.524 . S
C1699 H1702 0.999 . S
C1700 H1670 0.950 . S
C1700 C1699 1.524 . S
C1700 C1701 1.415 . S
C1701 H1671 0.950 . S
C1701 C1696 1.363 . S
C1701 C1700 1.415 . S
H1702 C1699 0.999 . S
H1703 C1684 0.913 . S
H1704 C1722 0.951 . S
H1705 C1724 0.951 . S
H1706 C1726 0.950 . S
H1707 C1727 0.950 . S
H1708 C1729 0.950 . S
H1709 C1732 0.950 . S
H1710 C1733 0.950 . S
H1711 C1735 0.950 . S
H1712 C1736 0.950 . S
H1713 C1737 0.951 . S
H1714 C1739 0.951 . S
H1715 C1741 0.950 . S
H1716 C1742 0.950 . S
H1717 C1744 0.950 . S
H1718 C1747 0.950 . S
H1719 C1748 0.950 . S
H1720 C1750 0.950 . S
H1721 C1751 0.950 . S
C1722 H1704 0.951 . S
C1722 C1723 1.366 . S
C1722 C1724 1.388 . S
C1723 C1722 1.366 . S
C1723 C1727 1.385 . S
C1724 H1705 0.951 . S
C1724 C1722 1.388 . S
C1724 C1725 1.366 . S
C1725 C1724 1.366 . S
C1725 C1726 1.414 . S
C1725 C1728 1.499 . S
C1726 H1706 0.950 . S
C1726 C1725 1.414 . S
C1726 C1727 1.374 . S
C1727 H1707 0.950 . S
C1727 C1723 1.385 . S
C1727 C1726 1.374 . S
C1728 C1725 1.499 . S
C1728 C1729 1.373 . S
C1728 C1730 1.389 . S
C1729 H1708 0.950 . S
C1729 C1728 1.373 . S
C1729 C1745 1.377 . S
C1730 C1728 1.389 . S
C1730 C1731 1.524 . S
C1730 C1744 1.377 . S
C1731 C1730 1.524 . S
C1731 C1732 1.397 . S
C1731 C1736 1.363 . S
C1732 H1709 0.950 . S
C1732 C1731 1.397 . S
C1732 C1733 1.334 . S
C1733 H1710 0.950 . S
C1733 C1732 1.334 . S
C1733 C1734 1.287 . S
C1734 C1733 1.287 . S
C1734 C1735 1.524 . S
C1734 H1753 0.913 . S
C1735 H1711 0.950 . S
C1735 C1734 1.524 . S
C1735 C1736 1.415 . S
C1736 H1712 0.950 . S
C1736 C1731 1.363 . S
C1736 C1735 1.415 . S
C1737 H1713 0.951 . S
C1737 C1738 1.366 . S
C1737 C1739 1.388 . S
C1738 C1737 1.366 . S
C1738 C1742 1.385 . S
C1739 H1714 0.951 . S
C1739 C1737 1.388 . S
C1739 C1740 1.366 . S
C1740 C1739 1.366 . S
C1740 C1741 1.414 . S
C1740 C1743 1.499 . S
C1741 H1715 0.950 . S
C1741 C1740 1.414 . S
C1741 C1742 1.374 . S
C1742 H1716 0.950 . S
C1742 C1738 1.385 . S
C1742 C1741 1.374 . S
C1743 C1740 1.499 . S
C1743 C1744 1.373 . S
C1743 C1745 1.389 . S
C1744 H1717 0.950 . S
C1744 C1730 1.377 . S
C1744 C1743 1.373 . S
C1745 C1729 1.377 . S
C1745 C1743 1.389 . S
C1745 C1746 1.524 . S
C1746 C1745 1.524 . S
C1746 C1747 1.397 . S
C1746 C1751 1.363 . S
C1747 H1718 0.950 . S
C1747 C1746 1.397 . S
C1747 C1748 1.334 . S
C1748 H1719 0.950 . S
C1748 C1747 1.334 . S
C1748 C1749 1.287 . S
C1749 C1748 1.287 . S
C1749 C1750 1.524 . S
C1749 H1752 0.999 . S
C1750 H1720 0.950 . S
C1750 C1749 1.524 . S
C1750 C1751 1.415 . S
C1751 H1721 0.950 . S
C1751 C1746 1.363 . S
C1751 C1750 1.415 . S
H1752 C1749 0.999 . S
H1753 C1734 0.913 . S
H1754 C1772 0.951 . S
H1755 C1774 0.951 . S
H1756 C1776 0.950 . S
H1757 C1777 0.950 . S
H1758 C1779 0.950 . S
H1759 C1782 0.950 . S
H1760 C1783 0.950 . S
H1761 C1785 0.950 . S
H1762 C1786 0.950 . S
H1763 C1787 0.951 . S
H1764 C1789 0.951 . S
H1765 C1791 0.950 . S
H1766 C1792 0.950 . S
H1767 C1794 0.950 . S
H1768 C1797 0.950 . S
H1769 C1798 0.950 . S
H1770 C1800 0.950 . S
H1771 C1801 0.950 . S
C1772 H1754 0.951 . S
C1772 C1773 1.366 . S
C1772 C1774 1.388 . S
C1773 C1772 1.366 . S
C1773 C1777 1.385 . S
C1774 H1755 0.951 . S
C1774 C1772 1.388 . S
C1774 C1775 1.366 . S
C1775 C1774 1.366 . S
C1775 C1776 1.414 . S
C1775 C1778 1.499 . S
C1776 H1756 0.950 . S
C1776 C1775 1.414 . S
C1776 C1777 1.374 . S
C1777 H1757 0.950 . S
C1777 C1773 1.385 . S
C1777 C1776 1.374 . S
C1778 C1775 1.499 . S
C1778 C1779 1.373 . S
C1778 C1780 1.389 . S
C1779 H1758 0.950 . S
C1779 C1778 1.373 . S
C1779 C1795 1.377 . S
C1780 C1778 1.389 . S
C1780 C1781 1.524 . S
C1780 C1794 1.377 . S
C1781 C1780 1.524 . S
C1781 C1782 1.397 . S
C1781 C1786 1.363 . S
C1782 H1759 0.950 . S
C1782 C1781 1.397 . S
C1782 C1783 1.334 . S
C1783 H1760 0.950 . S
C1783 C1782 1.334 . S
C1783 C1784 1.287 . S
C1784 C1783 1.287 . S
C1784 C1785 1.524 . S
C1784 H1803 0.913 . S
C1785 H1761 0.950 . S
C1785 C1784 1.524 . S
C1785 C1786 1.415 . S
C1786 H1762 0.950 . S
C1786 C1781 1.363 . S
C1786 C1785 1.415 . S
C1787 H1763 0.951 . S
C1787 C1788 1.366 . S
C1787 C1789 1.388 . S
C1788 C1787 1.366 . S
C1788 C1792 1.385 . S
C1789 H1764 0.951 . S
C1789 C1787 1.388 . S
C1789 C1790 1.366 . S
C1790 C1789 1.366 . S
C1790 C1791 1.414 . S
C1790 C1793 1.499 . S
C1791 H1765 0.950 . S
C1791 C1790 1.414 . S
C1791 C1792 1.374 . S
C1792 H1766 0.950 . S
C1792 C1788 1.385 . S
C1792 C1791 1.374 . S
C1793 C1790 1.499 . S
C1793 C1794 1.373 . S
C1793 C1795 1.389 . S
C1794 H1767 0.950 . S
C1794 C1780 1.377 . S
C1794 C1793 1.373 . S
C1795 C1779 1.377 . S
C1795 C1793 1.389 . S
C1795 C1796 1.524 . S
C1796 C1795 1.524 . S
C1796 C1797 1.397 . S
C1796 C1801 1.363 . S
C1797 H1768 0.950 . S
C1797 C1796 1.397 . S
C1797 C1798 1.334 . S
C1798 H1769 0.950 . S
C1798 C1797 1.334 . S
C1798 C1799 1.287 . S
C1799 C1798 1.287 . S
C1799 C1800 1.524 . S
C1799 H1802 0.999 . S
C1800 H1770 0.950 . S
C1800 C1799 1.524 . S
C1800 C1801 1.415 . S
C1801 H1771 0.950 . S
C1801 C1796 1.363 . S
C1801 C1800 1.415 . S
H1802 C1799 0.999 . S
H1803 C1784 0.913 . S
H1804 C1822 0.951 . S
H1805 C1824 0.951 . S
H1806 C1826 0.950 . S
H1807 C1827 0.950 . S
H1808 C1829 0.950 . S
H1809 C1832 0.950 . S
H1810 C1833 0.950 . S
H1811 C1835 0.950 . S
H1812 C1836 0.950 . S
H1813 C1837 0.951 . S
H1814 C1839 0.951 . S
H1815 C1841 0.950 . S
H1816 C1842 0.950 . S
H1817 C1844 0.950 . S
H1818 C1847 0.950 . S
H1819 C1848 0.950 . S
H1820 C1850 0.950 . S
H1821 C1851 0.950 . S
C1822 H1804 0.951 . S
C1822 C1823 1.366 . S
C1822 C1824 1.388 . S
C1823 C1822 1.366 . S
C1823 C1827 1.385 . S
C1824 H1805 0.951 . S
C1824 C1822 1.388 . S
C1824 C1825 1.366 . S
C1825 C1824 1.366 . S
C1825 C1826 1.414 . S
C1825 C1828 1.499 . S
C1826 H1806 0.950 . S
C1826 C1825 1.414 . S
C1826 C1827 1.374 . S
C1827 H1807 0.950 . S
C1827 C1823 1.385 . S
C1827 C1826 1.374 . S
C1828 C1825 1.499 . S
C1828 C1829 1.373 . S
C1828 C1830 1.389 . S
C1829 H1808 0.950 . S
C1829 C1828 1.373 . S
C1829 C1845 1.377 . S
C1830 C1828 1.389 . S
C1830 C1831 1.524 . S
C1830 C1844 1.377 . S
C1831 C1830 1.524 . S
C1831 C1832 1.397 . S
C1831 C1836 1.363 . S
C1832 H1809 0.950 . S
C1832 C1831 1.397 . S
C1832 C1833 1.334 . S
C1833 H1810 0.950 . S
C1833 C1832 1.334 . S
C1833 C1834 1.287 . S
C1834 C1833 1.287 . S
C1834 C1835 1.524 . S
C1834 H1853 0.913 . S
C1835 H1811 0.950 . S
C1835 C1834 1.524 . S
C1835 C1836 1.415 . S
C1836 H1812 0.950 . S
C1836 C1831 1.363 . S
C1836 C1835 1.415 . S
C1837 H1813 0.951 . S
C1837 C1838 1.366 . S
C1837 C1839 1.388 . S
C1838 C1837 1.366 . S
C1838 C1842 1.385 . S
C1839 H1814 0.951 . S
C1839 C1837 1.388 . S
C1839 C1840 1.366 . S
C1840 C1839 1.366 . S
C1840 C1841 1.414 . S
C1840 C1843 1.499 . S
C1841 H1815 0.950 . S
C1841 C1840 1.414 . S
C1841 C1842 1.374 . S
C1842 H1816 0.950 . S
C1842 C1838 1.385 . S
C1842 C1841 1.374 . S
C1843 C1840 1.499 . S
C1843 C1844 1.373 . S
C1843 C1845 1.389 . S
C1844 H1817 0.950 . S
C1844 C1830 1.377 . S
C1844 C1843 1.373 . S
C1845 C1829 1.377 . S
C1845 C1843 1.389 . S
C1845 C1846 1.524 . S
C1846 C1845 1.524 . S
C1846 C1847 1.397 . S
C1846 C1851 1.363 . S
C1847 H1818 0.950 . S
C1847 C1846 1.397 . S
C1847 C1848 1.334 . S
C1848 H1819 0.950 . S
C1848 C1847 1.334 . S
C1848 C1849 1.287 . S
C1849 C1848 1.287 . S
C1849 C1850 1.524 . S
C1849 H1852 0.999 . S
C1850 H1820 0.950 . S
C1850 C1849 1.524 . S
C1850 C1851 1.415 . S
C1851 H1821 0.950 . S
C1851 C1846 1.363 . S
C1851 C1850 1.415 . S
H1852 C1849 0.999 . S
H1853 C1834 0.913 . S
H1854 C1872 0.951 . S
H1855 C1874 0.951 . S
H1856 C1876 0.950 . S
H1857 C1877 0.950 . S
H1858 C1879 0.950 . S
H1859 C1882 0.950 . S
H1860 C1883 0.950 . S
H1861 C1885 0.950 . S
H1862 C1886 0.950 . S
H1863 C1887 0.951 . S
H1864 C1889 0.951 . S
H1865 C1891 0.950 . S
H1866 C1892 0.950 . S
H1867 C1894 0.950 . S
H1868 C1897 0.950 . S
H1869 C1898 0.950 . S
H1870 C1900 0.950 . S
H1871 C1901 0.950 . S
C1872 H1854 0.951 . S
C1872 C1873 1.366 . S
C1872 C1874 1.388 . S
C1873 C1872 1.366 . S
C1873 C1877 1.385 . S
C1874 H1855 0.951 . S
C1874 C1872 1.388 . S
C1874 C1875 1.366 . S
C1875 C1874 1.366 . S
C1875 C1876 1.414 . S
C1875 C1878 1.499 . S
C1876 H1856 0.950 . S
C1876 C1875 1.414 . S
C1876 C1877 1.374 . S
C1877 H1857 0.950 . S
C1877 C1873 1.385 . S
C1877 C1876 1.374 . S
C1878 C1875 1.499 . S
C1878 C1879 1.373 . S
C1878 C1880 1.389 . S
C1879 H1858 0.950 . S
C1879 C1878 1.373 . S
C1879 C1895 1.377 . S
C1880 C1878 1.389 . S
C1880 C1881 1.524 . S
C1880 C1894 1.377 . S
C1881 C1880 1.524 . S
C1881 C1882 1.397 . S
C1881 C1886 1.363 . S
C1882 H1859 0.950 . S
C1882 C1881 1.397 . S
C1882 C1883 1.334 . S
C1883 H1860 0.950 . S
C1883 C1882 1.334 . S
C1883 C1884 1.287 . S
C1884 C1883 1.287 . S
C1884 C1885 1.524 . S
C1884 H1903 0.913 . S
C1885 H1861 0.950 . S
C1885 C1884 1.524 . S
C1885 C1886 1.415 . S
C1886 H1862 0.950 . S
C1886 C1881 1.363 . S
C1886 C1885 1.415 . S
C1887 H1863 0.951 . S
C1887 C1888 1.366 . S
C1887 C1889 1.388 . S
C1888 C1887 1.366 . S
C1888 C1892 1.385 . S
C1889 H1864 0.951 . S
C1889 C1887 1.388 . S
C1889 C1890 1.366 . S
C1890 C1889 1.366 . S
C1890 C1891 1.414 . S
C1890 C1893 1.499 . S
C1891 H1865 0.950 . S
C1891 C1890 1.414 . S
C1891 C1892 1.374 . S
C1892 H1866 0.950 . S
C1892 C1888 1.385 . S
C1892 C1891 1.374 . S
C1893 C1890 1.499 . S
C1893 C1894 1.373 . S
C1893 C1895 1.389 . S
C1894 H1867 0.950 . S
C1894 C1880 1.377 . S
C1894 C1893 1.373 . S
C1895 C1879 1.377 . S
C1895 C1893 1.389 . S
C1895 C1896 1.524 . S
C1896 C1895 1.524 . S
C1896 C1897 1.397 . S
C1896 C1901 1.363 . S
C1897 H1868 0.950 . S
C1897 C1896 1.397 . S
C1897 C1898 1.334 . S
C1898 H1869 0.950 . S
C1898 C1897 1.334 . S
C1898 C1899 1.287 . S
C1899 C1898 1.287 . S
C1899 C1900 1.524 . S
C1899 H1902 0.999 . S
C1900 H1870 0.950 . S
C1900 C1899 1.524 . S
C1900 C1901 1.415 . S
C1901 H1871 0.950 . S
C1901 C1896 1.363 . S
C1901 C1900 1.415 . S
H1902 C1899 0.999 . S
H1903 C1884 0.913 . S
H1904 C1922 0.951 . S
H1905 C1924 0.951 . S
H1906 C1926 0.950 . S
H1907 C1927 0.950 . S
H1908 C1929 0.950 . S
H1909 C1932 0.950 . S
H1910 C1933 0.950 . S
H1911 C1935 0.950 . S
H1912 C1936 0.950 . S
H1913 C1937 0.951 . S
H1914 C1939 0.951 . S
H1915 C1941 0.950 . S
H1916 C1942 0.950 . S
H1917 C1944 0.950 . S
H1918 C1947 0.950 . S
H1919 C1948 0.950 . S
H1920 C1950 0.950 . S
H1921 C1951 0.950 . S
C1922 H1904 0.951 . S
C1922 C1923 1.366 . S
C1922 C1924 1.388 . S
C1923 C1922 1.366 . S
C1923 C1927 1.385 . S
C1924 H1905 0.951 . S
C1924 C1922 1.388 . S
C1924 C1925 1.366 . S
C1925 C1924 1.366 . S
C1925 C1926 1.414 . S
C1925 C1928 1.499 . S
C1926 H1906 0.950 . S
C1926 C1925 1.414 . S
C1926 C1927 1.374 . S
C1927 H1907 0.950 . S
C1927 C1923 1.385 . S
C1927 C1926 1.374 . S
C1928 C1925 1.499 . S
C1928 C1929 1.373 . S
C1928 C1930 1.389 . S
C1929 H1908 0.950 . S
C1929 C1928 1.373 . S
C1929 C1945 1.377 . S
C1930 C1928 1.389 . S
C1930 C1931 1.524 . S
C1930 C1944 1.377 . S
C1931 C1930 1.524 . S
C1931 C1932 1.397 . S
C1931 C1936 1.363 . S
C1932 H1909 0.950 . S
C1932 C1931 1.397 . S
C1932 C1933 1.334 . S
C1933 H1910 0.950 . S
C1933 C1932 1.334 . S
C1933 C1934 1.287 . S
C1934 C1933 1.287 . S
C1934 C1935 1.524 . S
C1934 H1953 0.913 . S
C1935 H1911 0.950 . S
C1935 C1934 1.524 . S
C1935 C1936 1.415 . S
C1936 H1912 0.950 . S
C1936 C1931 1.363 . S
C1936 C1935 1.415 . S
C1937 H1913 0.951 . S
C1937 C1938 1.366 . S
C1937 C1939 1.388 . S
C1938 C1937 1.366 . S
C1938 C1942 1.385 . S
C1939 H1914 0.951 . S
C1939 C1937 1.388 . S
C1939 C1940 1.366 . S
C1940 C1939 1.366 . S
C1940 C1941 1.414 . S
C1940 C1943 1.499 . S
C1941 H1915 0.950 . S
C1941 C1940 1.414 . S
C1941 C1942 1.374 . S
C1942 H1916 0.950 . S
C1942 C1938 1.385 . S
C1942 C1941 1.374 . S
C1943 C1940 1.499 . S
C1943 C1944 1.373 . S
C1943 C1945 1.389 . S
C1944 H1917 0.950 . S
C1944 C1930 1.377 . S
C1944 C1943 1.373 . S
C1945 C1929 1.377 . S
C1945 C1943 1.389 . S
C1945 C1946 1.524 . S
C1946 C1945 1.524 . S
C1946 C1947 1.397 . S
C1946 C1951 1.363 . S
C1947 H1918 0.950 . S
C1947 C1946 1.397 . S
C1947 C1948 1.334 . S
C1948 H1919 0.950 . S
C1948 C1947 1.334 . S
C1948 C1949 1.287 . S
C1949 C1948 1.287 . S
C1949 C1950 1.524 . S
C1949 H1952 0.999 . S
C1950 H1920 0.950 . S
C1950 C1949 1.524 . S
C1950 C1951 1.415 . S
C1951 H1921 0.950 . S
C1951 C1946 1.363 . S
C1951 C1950 1.415 . S
H1952 C1949 0.999 . S
H1953 C1934 0.913 . S
H1954 C1972 0.951 . S
H1955 C1974 0.951 . S
H1956 C1976 0.950 . S
H1957 C1977 0.950 . S
H1958 C1979 0.950 . S
H1959 C1982 0.950 . S
H1960 C1983 0.950 . S
H1961 C1985 0.950 . S
H1962 C1986 0.950 . S
H1963 C1987 0.951 . S
H1964 C1989 0.951 . S
H1965 C1991 0.950 . S
H1966 C1992 0.950 . S
H1967 C1994 0.950 . S
H1968 C1997 0.950 . S
H1969 C1998 0.950 . S
H1970 C2000 0.950 . S
H1971 C2001 0.950 . S
C1972 H1954 0.951 . S
C1972 C1973 1.366 . S
C1972 C1974 1.388 . S
C1973 C1972 1.366 . S
C1973 C1977 1.385 . S
C1974 H1955 0.951 . S
C1974 C1972 1.388 . S
C1974 C1975 1.366 . S
C1975 C1974 1.366 . S
C1975 C1976 1.414 . S
C1975 C1978 1.499 . S
C1976 H1956 0.950 . S
C1976 C1975 1.414 . S
C1976 C1977 1.374 . S
C1977 H1957 0.950 . S
C1977 C1973 1.385 . S
C1977 C1976 1.374 . S
C1978 C1975 1.499 . S
C1978 C1979 1.373 . S
C1978 C1980 1.389 . S
C1979 H1958 0.950 . S
C1979 C1978 1.373 . S
C1979 C1995 1.377 . S
C1980 C1978 1.389 . S
C1980 C1981 1.524 . S
C1980 C1994 1.377 . S
C1981 C1980 1.524 . S
C1981 C1982 1.397 . S
C1981 C1986 1.363 . S
C1982 H1959 0.950 . S
C1982 C1981 1.397 . S
C1982 C1983 1.334 . S
C1983 H1960 0.950 . S
C1983 C1982 1.334 . S
C1983 C1984 1.287 . S
C1984 C1983 1.287 . S
C1984 C1985 1.524 . S
C1984 H2003 0.913 . S
C1985 H1961 0.950 . S
C1985 C1984 1.524 . S
C1985 C1986 1.415 . S
C1986 H1962 0.950 . S
C1986 C1981 1.363 . S
C1986 C1985 1.415 . S
C1987 H1963 0.951 . S
C1987 C1988 1.366 . S
C1987 C1989 1.388 . S
C1988 C1987 1.366 . S
C1988 C1992 1.385 . S
C1989 H1964 0.951 . S
C1989 C1987 1.388 . S
C1989 C1990 1.366 . S
C1990 C1989 1.366 . S
C1990 C1991 1.414 . S
C1990 C1993 1.499 . S
C1991 H1965 0.950 . S
C1991 C1990 1.414 . S
C1991 C1992 1.374 . S
C1992 H1966 0.950 . S
C1992 C1988 1.385 . S
C1992 C1991 1.374 . S
C1993 C1990 1.499 . S
C1993 C1994 1.373 . S
C1993 C1995 1.389 . S
C1994 H1967 0.950 . S
C1994 C1980 1.377 . S
C1994 C1993 1.373 . S
C1995 C1979 1.377 . S
C1995 C1993 1.389 . S
C1995 C1996 1.524 . S
C1996 C1995 1.524 . S
C1996 C1997 1.397 . S
C1996 C2001 1.363 . S
C1997 H1968 0.950 . S
C1997 C1996 1.397 . S
C1997 C1998 1.334 . S
C1998 H1969 0.950 . S
C1998 C1997 1.334 . S
C1998 C1999 1.287 . S
C1999 C1998 1.287 . S
C1999 C2000 1.524 . S
C1999 H2002 0.999 . S
C2000 H1970 0.950 . S
C2000 C1999 1.524 . S
C2000 C2001 1.415 . S
C2001 H1971 0.950 . S
C2001 C1996 1.363 . S
C2001 C2000 1.415 . S
H2002 C1999 0.999 . S
H2003 C1984 0.913 . S
H2004 C2022 0.951 . S
H2005 C2024 0.951 . S
H2006 C2026 0.950 . S
H2007 C2027 0.950 . S
H2008 C2029 0.950 . S
H2009 C2032 0.950 . S
H2010 C2033 0.950 . S
H2011 C2035 0.950 . S
H2012 C2036 0.950 . S
H2013 C2037 0.951 . S
H2014 C2039 0.951 . S
H2015 C2041 0.950 . S
H2016 C2042 0.950 . S
H2017 C2044 0.950 . S
H2018 C2047 0.950 . S
H2019 C2048 0.950 . S
H2020 C2050 0.950 . S
H2021 C2051 0.950 . S
C2022 H2004 0.951 . S
C2022 C2023 1.366 . S
C2022 C2024 1.388 . S
C2023 C2022 1.366 . S
C2023 C2027 1.385 . S
C2024 H2005 0.951 . S
C2024 C2022 1.388 . S
C2024 C2025 1.366 . S
C2025 C2024 1.366 . S
C2025 C2026 1.414 . S
C2025 C2028 1.499 . S
C2026 H2006 0.950 . S
C2026 C2025 1.414 . S
C2026 C2027 1.374 . S
C2027 H2007 0.950 . S
C2027 C2023 1.385 . S
C2027 C2026 1.374 . S
C2028 C2025 1.499 . S
C2028 C2029 1.373 . S
C2028 C2030 1.389 . S
C2029 H2008 0.950 . S
C2029 C2028 1.373 . S
C2029 C2045 1.377 . S
C2030 C2028 1.389 . S
C2030 C2031 1.524 . S
C2030 C2044 1.377 . S
C2031 C2030 1.524 . S
C2031 C2032 1.397 . S
C2031 C2036 1.363 . S
C2032 H2009 0.950 . S
C2032 C2031 1.397 . S
C2032 C2033 1.334 . S
C2033 H2010 0.950 . S
C2033 C2032 1.334 . S
C2033 C2034 1.287 . S
C2034 C2033 1.287 . S
C2034 C2035 1.524 . S
C2034 H2053 0.913 . S
C2035 H2011 0.950 . S
C2035 C2034 1.524 . S
C2035 C2036 1.415 . S
C2036 H2012 0.950 . S
C2036 C2031 1.363 . S
C2036 C2035 1.415 . S
C2037 H2013 0.951 . S
C2037 C2038 1.366 . S
C2037 C2039 1.388 . S
C2038 C2037 1.366 . S
C2038 C2042 1.385 . S
C2039 H2014 0.951 . S
C2039 C2037 1.388 . S
C2039 C2040 1.366 . S
C2040 C2039 1.366 . S
C2040 C2041 1.414 . S
C2040 C2043 1.499 . S
C2041 H2015 0.950 . S
C2041 C2040 1.414 . S
C2041 C2042 1.374 . S
C2042 H2016 0.950 . S
C2042 C2038 1.385 . S
C2042 C2041 1.374 . S
C2043 C2040 1.499 . S
C2043 C2044 1.373 . S
C2043 C2045 1.389 . S
C2044 H2017 0.950 . S
C2044 C2030 1.377 . S
C2044 C2043 1.373 . S
C2045 C2029 1.377 . S
C2045 C2043 1.389 . S
C2045 C2046 1.524 . S
C2046 C2045 1.524 . S
C2046 C2047 1.397 . S
C2046 C2051 1.363 . S
C2047 H2018 0.950 . S
C2047 C2046 1.397 . S
C2047 C2048 1.334 . S
C2048 H2019 0.950 . S
C2048 C2047 1.334 . S
C2048 C2049 1.287 . S
C2049 C2048 1.287 . S
C2049 C2050 1.524 . S
C2049 H2052 0.999 . S
C2050 H2020 0.950 . S
C2050 C2049 1.524 . S
C2050 C2051 1.415 . S
C2051 H2021 0.950 . S
C2051 C2046 1.363 . S
C2051 C2050 1.415 . S
H2052 C2049 0.999 . S
H2053 C2034 0.913 . S
H2054 C2072 0.951 . S
H2055 C2074 0.951 . S
H2056 C2076 0.950 . S
H2057 C2077 0.950 . S
H2058 C2079 0.950 . S
H2059 C2082 0.950 . S
H2060 C2083 0.950 . S
H2061 C2085 0.950 . S
H2062 C2086 0.950 . S
H2063 C2087 0.951 . S
H2064 C2089 0.951 . S
H2065 C2091 0.950 . S
H2066 C2092 0.950 . S
H2067 C2094 0.950 . S
H2068 C2097 0.950 . S
H2069 C2098 0.950 . S
H2070 C2100 0.950 . S
H2071 C2101 0.950 . S
C2072 H2054 0.951 . S
C2072 C2073 1.366 . S
C2072 C2074 1.388 . S
C2073 C2072 1.366 . S
C2073 C2077 1.385 . S
C2074 H2055 0.951 . S
C2074 C2072 1.388 . S
C2074 C2075 1.366 . S
C2075 C2074 1.366 . S
C2075 C2076 1.414 . S
C2075 C2078 1.499 . S
C2076 H2056 0.950 . S
C2076 C2075 1.414 . S
C2076 C2077 1.374 . S
C2077 H2057 0.950 . S
C2077 C2073 1.385 . S
C2077 C2076 1.374 . S
C2078 C2075 1.499 . S
C2078 C2079 1.373 . S
C2078 C2080 1.389 . S
C2079 H2058 0.950 . S
C2079 C2078 1.373 . S
C2079 C2095 1.377 . S
C2080 C2078 1.389 . S
C2080 C2081 1.524 . S
C2080 C2094 1.377 . S
C2081 C2080 1.524 . S
C2081 C2082 1.397 . S
C2081 C2086 1.363 . S
C2082 H2059 0.950 . S
C2082 C2081 1.397 . S
C2082 C2083 1.334 . S
C2083 H2060 0.950 . S
C2083 C2082 1.334 . S
C2083 C2084 1.287 . S
C2084 C2083 1.287 . S
C2084 C2085 1.524 . S
C2084 H2103 0.913 . S
C2085 H2061 0.950 . S
C2085 C2084 1.524 . S
C2085 C2086 1.415 . S
C2086 H2062 0.950 . S
C2086 C2081 1.363 . S
C2086 C2085 1.415 . S
C2087 H2063 0.951 . S
C2087 C2088 1.366 . S
C2087 C2089 1.388 . S
C2088 C2087 1.366 . S
C2088 C2092 1.385 . S
C2089 H2064 0.951 . S
C2089 C2087 1.388 . S
C2089 C2090 1.366 . S
C2090 C2089 1.366 . S
C2090 C2091 1.414 . S
C2090 C2093 1.499 . S
C2091 H2065 0.950 . S
C2091 C2090 1.414 . S
C2091 C2092 1.374 . S
C2092 H2066 0.950 . S
C2092 C2088 1.385 . S
C2092 C2091 1.374 . S
C2093 C2090 1.499 . S
C2093 C2094 1.373 . S
C2093 C2095 1.389 . S
C2094 H2067 0.950 . S
C2094 C2080 1.377 . S
C2094 C2093 1.373 . S
C2095 C2079 1.377 . S
C2095 C2093 1.389 . S
C2095 C2096 1.524 . S
C2096 C2095 1.524 . S
C2096 C2097 1.397 . S
C2096 C2101 1.363 . S
C2097 H2068 0.950 . S
C2097 C2096 1.397 . S
C2097 C2098 1.334 . S
C2098 H2069 0.950 . S
C2098 C2097 1.334 . S
C2098 C2099 1.287 . S
C2099 C2098 1.287 . S
C2099 C2100 1.524 . S
C2099 H2102 0.999 . S
C2100 H2070 0.950 . S
C2100 C2099 1.524 . S
C2100 C2101 1.415 . S
C2101 H2071 0.950 . S
C2101 C2096 1.363 . S
C2101 C2100 1.415 . S
H2102 C2099 0.999 . S
H2103 C2084 0.913 . S
H2104 C2122 0.951 . S
H2105 C2124 0.951 . S
H2106 C2126 0.950 . S
H2107 C2127 0.950 . S
H2108 C2129 0.950 . S
H2109 C2132 0.950 . S
H2110 C2133 0.950 . S
H2111 C2135 0.950 . S
H2112 C2136 0.950 . S
H2113 C2137 0.951 . S
H2114 C2139 0.951 . S
H2115 C2141 0.950 . S
H2116 C2142 0.950 . S
H2117 C2144 0.950 . S
H2118 C2147 0.950 . S
H2119 C2148 0.950 . S
H2120 C2150 0.950 . S
H2121 C2151 0.950 . S
C2122 H2104 0.951 . S
C2122 C2123 1.366 . S
C2122 C2124 1.388 . S
C2123 C2122 1.366 . S
C2123 C2127 1.385 . S
C2124 H2105 0.951 . S
C2124 C2122 1.388 . S
C2124 C2125 1.366 . S
C2125 C2124 1.366 . S
C2125 C2126 1.414 . S
C2125 C2128 1.499 . S
C2126 H2106 0.950 . S
C2126 C2125 1.414 . S
C2126 C2127 1.374 . S
C2127 H2107 0.950 . S
C2127 C2123 1.385 . S
C2127 C2126 1.374 . S
C2128 C2125 1.499 . S
C2128 C2129 1.373 . S
C2128 C2130 1.389 . S
C2129 H2108 0.950 . S
C2129 C2128 1.373 . S
C2129 C2145 1.377 . S
C2130 C2128 1.389 . S
C2130 C2131 1.524 . S
C2130 C2144 1.377 . S
C2131 C2130 1.524 . S
C2131 C2132 1.397 . S
C2131 C2136 1.363 . S
C2132 H2109 0.950 . S
C2132 C2131 1.397 . S
C2132 C2133 1.334 . S
C2133 H2110 0.950 . S
C2133 C2132 1.334 . S
C2133 C2134 1.287 . S
C2134 C2133 1.287 . S
C2134 C2135 1.524 . S
C2134 H2153 0.913 . S
C2135 H2111 0.950 . S
C2135 C2134 1.524 . S
C2135 C2136 1.415 . S
C2136 H2112 0.950 . S
C2136 C2131 1.363 . S
C2136 C2135 1.415 . S
C2137 H2113 0.951 . S
C2137 C2138 1.366 . S
C2137 C2139 1.388 . S
C2138 C2137 1.366 . S
C2138 C2142 1.385 . S
C2139 H2114 0.951 . S
C2139 C2137 1.388 . S
C2139 C2140 1.366 . S
C2140 C2139 1.366 . S
C2140 C2141 1.414 . S
C2140 C2143 1.499 . S
C2141 H2115 0.950 . S
C2141 C2140 1.414 . S
C2141 C2142 1.374 . S
C2142 H2116 0.950 . S
C2142 C2138 1.385 . S
C2142 C2141 1.374 . S
C2143 C2140 1.499 . S
C2143 C2144 1.373 . S
C2143 C2145 1.389 . S
C2144 H2117 0.950 . S
C2144 C2130 1.377 . S
C2144 C2143 1.373 . S
C2145 C2129 1.377 . S
C2145 C2143 1.389 . S
C2145 C2146 1.524 . S
C2146 C2145 1.524 . S
C2146 C2147 1.397 . S
C2146 C2151 1.363 . S
C2147 H2118 0.950 . S
C2147 C2146 1.397 . S
C2147 C2148 1.334 . S
C2148 H2119 0.950 . S
C2148 C2147 1.334 . S
C2148 C2149 1.287 . S
C2149 C2148 1.287 . S
C2149 C2150 1.524 . S
C2149 H2152 0.999 . S
C2150 H2120 0.950 . S
C2150 C2149 1.524 . S
C2150 C2151 1.415 . S
C2151 H2121 0.950 . S
C2151 C2146 1.363 . S
C2151 C2150 1.415 . S
H2152 C2149 0.999 . S
H2153 C2134 0.913 . S
H2154 C2172 0.951 . S
H2155 C2174 0.951 . S
H2156 C2176 0.950 . S
H2157 C2177 0.950 . S
H2158 C2179 0.950 . S
H2159 C2182 0.950 . S
H2160 C2183 0.950 . S
H2161 C2185 0.950 . S
H2162 C2186 0.950 . S
H2163 C2187 0.951 . S
H2164 C2189 0.951 . S
H2165 C2191 0.950 . S
H2166 C2192 0.950 . S
H2167 C2194 0.950 . S
H2168 C2197 0.950 . S
H2169 C2198 0.950 . S
H2170 C2200 0.950 . S
H2171 C2201 0.950 . S
C2172 H2154 0.951 . S
C2172 C2173 1.366 . S
C2172 C2174 1.388 . S
C2173 C2172 1.366 . S
C2173 C2177 1.385 . S
C2174 H2155 0.951 . S
C2174 C2172 1.388 . S
C2174 C2175 1.366 . S
C2175 C2174 1.366 . S
C2175 C2176 1.414 . S
C2175 C2178 1.499 . S
C2176 H2156 0.950 . S
C2176 C2175 1.414 . S
C2176 C2177 1.374 . S
C2177 H2157 0.950 . S
C2177 C2173 1.385 . S
C2177 C2176 1.374 . S
C2178 C2175 1.499 . S
C2178 C2179 1.373 . S
C2178 C2180 1.389 . S
C2179 H2158 0.950 . S
C2179 C2178 1.373 . S
C2179 C2195 1.377 . S
C2180 C2178 1.389 . S
C2180 C2181 1.524 . S
C2180 C2194 1.377 . S
C2181 C2180 1.524 . S
C2181 C2182 1.397 . S
C2181 C2186 1.363 . S
C2182 H2159 0.950 . S
C2182 C2181 1.397 . S
C2182 C2183 1.334 . S
C2183 H2160 0.950 . S
C2183 C2182 1.334 . S
C2183 C2184 1.287 . S
C2184 C2183 1.287 . S
C2184 C2185 1.524 . S
C2184 H2203 0.913 . S
C2185 H2161 0.950 . S
C2185 C2184 1.524 . S
C2185 C2186 1.415 . S
C2186 H2162 0.950 . S
C2186 C2181 1.363 . S
C2186 C2185 1.415 . S
C2187 H2163 0.951 . S
C2187 C2188 1.366 . S
C2187 C2189 1.388 . S
C2188 C2187 1.366 . S
C2188 C2192 1.385 . S
C2189 H2164 0.951 . S
C2189 C2187 1.388 . S
C2189 C2190 1.366 . S
C2190 C2189 1.366 . S
C2190 C2191 1.414 . S
C2190 C2193 1.499 . S
C2191 H2165 0.950 . S
C2191 C2190 1.414 . S
C2191 C2192 1.374 . S
C2192 H2166 0.950 . S
C2192 C2188 1.385 . S
C2192 C2191 1.374 . S
C2193 C2190 1.499 . S
C2193 C2194 1.373 . S
C2193 C2195 1.389 . S
C2194 H2167 0.950 . S
C2194 C2180 1.377 . S
C2194 C2193 1.373 . S
C2195 C2179 1.377 . S
C2195 C2193 1.389 . S
C2195 C2196 1.524 . S
C2196 C2195 1.524 . S
C2196 C2197 1.397 . S
C2196 C2201 1.363 . S
C2197 H2168 0.950 . S
C2197 C2196 1.397 . S
C2197 C2198 1.334 . S
C2198 H2169 0.950 . S
C2198 C2197 1.334 . S
C2198 C2199 1.287 . S
C2199 C2198 1.287 . S
C2199 C2200 1.524 . S
C2199 H2202 0.999 . S
C2200 H2170 0.950 . S
C2200 C2199 1.524 . S
C2200 C2201 1.415 . S
C2201 H2171 0.950 . S
C2201 C2196 1.363 . S
C2201 C2200 1.415 . S
H2202 C2199 0.999 . S
H2203 C2184 0.913 . S
H2204 C2222 0.951 . S
H2205 C2224 0.951 . S
H2206 C2226 0.950 . S
H2207 C2227 0.950 . S
H2208 C2229 0.950 . S
H2209 C2232 0.950 . S
H2210 C2233 0.950 . S
H2211 C2235 0.950 . S
H2212 C2236 0.950 . S
H2213 C2237 0.951 . S
H2214 C2239 0.951 . S
H2215 C2241 0.950 . S
H2216 C2242 0.950 . S
H2217 C2244 0.950 . S
H2218 C2247 0.950 . S
H2219 C2248 0.950 . S
H2220 C2250 0.950 . S
H2221 C2251 0.950 . S
C2222 H2204 0.951 . S
C2222 C2223 1.366 . S
C2222 C2224 1.388 . S
C2223 C2222 1.366 . S
C2223 C2227 1.385 . S
C2224 H2205 0.951 . S
C2224 C2222 1.388 . S
C2224 C2225 1.366 . S
C2225 C2224 1.366 . S
C2225 C2226 1.414 . S
C2225 C2228 1.499 . S
C2226 H2206 0.950 . S
C2226 C2225 1.414 . S
C2226 C2227 1.374 . S
C2227 H2207 0.950 . S
C2227 C2223 1.385 . S
C2227 C2226 1.374 . S
C2228 C2225 1.499 . S
C2228 C2229 1.373 . S
C2228 C2230 1.389 . S
C2229 H2208 0.950 . S
C2229 C2228 1.373 . S
C2229 C2245 1.377 . S
C2230 C2228 1.389 . S
C2230 C2231 1.524 . S
C2230 C2244 1.377 . S
C2231 C2230 1.524 . S
C2231 C2232 1.397 . S
C2231 C2236 1.363 . S
C2232 H2209 0.950 . S
C2232 C2231 1.397 . S
C2232 C2233 1.334 . S
C2233 H2210 0.950 . S
C2233 C2232 1.334 . S
C2233 C2234 1.287 . S
C2234 C2233 1.287 . S
C2234 C2235 1.524 . S
C2234 H2253 0.913 . S
C2235 H2211 0.950 . S
C2235 C2234 1.524 . S
C2235 C2236 1.415 . S
C2236 H2212 0.950 . S
C2236 C2231 1.363 . S
C2236 C2235 1.415 . S
C2237 H2213 0.951 . S
C2237 C2238 1.366 . S
C2237 C2239 1.388 . S
C2238 C2237 1.366 . S
C2238 C2242 1.385 . S
C2239 H2214 0.951 . S
C2239 C2237 1.388 . S
C2239 C2240 1.366 . S
C2240 C2239 1.366 . S
C2240 C2241 1.414 . S
C2240 C2243 1.499 . S
C2241 H2215 0.950 . S
C2241 C2240 1.414 . S
C2241 C2242 1.374 . S
C2242 H2216 0.950 . S
C2242 C2238 1.385 . S
C2242 C2241 1.374 . S
C2243 C2240 1.499 . S
C2243 C2244 1.373 . S
C2243 C2245 1.389 . S
C2244 H2217 0.950 . S
C2244 C2230 1.377 . S
C2244 C2243 1.373 . S
C2245 C2229 1.377 . S
C2245 C2243 1.389 . S
C2245 C2246 1.524 . S
C2246 C2245 1.524 . S
C2246 C2247 1.397 . S
C2246 C2251 1.363 . S
C2247 H2218 0.950 . S
C2247 C2246 1.397 . S
C2247 C2248 1.334 . S
C2248 H2219 0.950 . S
C2248 C2247 1.334 . S
C2248 C2249 1.287 . S
C2249 C2248 1.287 . S
C2249 C2250 1.524 . S
C2249 H2252 0.999 . S
C2250 H2220 0.950 . S
C2250 C2249 1.524 . S
C2250 C2251 1.415 . S
C2251 H2221 0.950 . S
C2251 C2246 1.363 . S
C2251 C2250 1.415 . S
H2252 C2249 0.999 . S
H2253 C2234 0.913 . S
H2254 C2272 0.951 . S
H2255 C2274 0.951 . S
H2256 C2276 0.950 . S
H2257 C2277 0.950 . S
H2258 C2279 0.950 . S
H2259 C2282 0.950 . S
H2260 C2283 0.950 . S
H2261 C2285 0.950 . S
H2262 C2286 0.950 . S
H2263 C2287 0.951 . S
H2264 C2289 0.951 . S
H2265 C2291 0.950 . S
H2266 C2292 0.950 . S
H2267 C2294 0.950 . S
H2268 C2297 0.950 . S
H2269 C2298 0.950 . S
H2270 C2300 0.950 . S
H2271 C2301 0.950 . S
C2272 H2254 0.951 . S
C2272 C2273 1.366 . S
C2272 C2274 1.388 . S
C2273 C2272 1.366 . S
C2273 C2277 1.385 . S
C2274 H2255 0.951 . S
C2274 C2272 1.388 . S
C2274 C2275 1.366 . S
C2275 C2274 1.366 . S
C2275 C2276 1.414 . S
C2275 C2278 1.499 . S
C2276 H2256 0.950 . S
C2276 C2275 1.414 . S
C2276 C2277 1.374 . S
C2277 H2257 0.950 . S
C2277 C2273 1.385 . S
C2277 C2276 1.374 . S
C2278 C2275 1.499 . S
C2278 C2279 1.373 . S
C2278 C2280 1.389 . S
C2279 H2258 0.950 . S
C2279 C2278 1.373 . S
C2279 C2295 1.377 . S
C2280 C2278 1.389 . S
C2280 C2281 1.524 . S
C2280 C2294 1.377 . S
C2281 C2280 1.524 . S
C2281 C2282 1.397 . S
C2281 C2286 1.363 . S
C2282 H2259 0.950 . S
C2282 C2281 1.397 . S
C2282 C2283 1.334 . S
C2283 H2260 0.950 . S
C2283 C2282 1.334 . S
C2283 C2284 1.287 . S
C2284 C2283 1.287 . S
C2284 C2285 1.524 . S
C2284 H2303 0.913 . S
C2285 H2261 0.950 . S
C2285 C2284 1.524 . S
C2285 C2286 1.415 . S
C2286 H2262 0.950 . S
C2286 C2281 1.363 . S
C2286 C2285 1.415 . S
C2287 H2263 0.951 . S
C2287 C2288 1.366 . S
C2287 C2289 1.388 . S
C2288 C2287 1.366 . S
C2288 C2292 1.385 . S
C2289 H2264 0.951 . S
C2289 C2287 1.388 . S
C2289 C2290 1.366 . S
C2290 C2289 1.366 . S
C2290 C2291 1.414 . S
C2290 C2293 1.499 . S
C2291 H2265 0.950 . S
C2291 C2290 1.414 . S
C2291 C2292 1.374 . S
C2292 H2266 0.950 . S
C2292 C2288 1.385 . S
C2292 C2291 1.374 . S
C2293 C2290 1.499 . S
C2293 C2294 1.373 . S
C2293 C2295 1.389 . S
C2294 H2267 0.950 . S
C2294 C2280 1.377 . S
C2294 C2293 1.373 . S
C2295 C2279 1.377 . S
C2295 C2293 1.389 . S
C2295 C2296 1.524 . S
C2296 C2295 1.524 . S
C2296 C2297 1.397 . S
C2296 C2301 1.363 . S
C2297 H2268 0.950 . S
C2297 C2296 1.397 . S
C2297 C2298 1.334 . S
C2298 H2269 0.950 . S
C2298 C2297 1.334 . S
C2298 C2299 1.287 . S
C2299 C2298 1.287 . S
C2299 C2300 1.524 . S
C2299 H2302 0.999 . S
C2300 H2270 0.950 . S
C2300 C2299 1.524 . S
C2300 C2301 1.415 . S
C2301 H2271 0.950 . S
C2301 C2296 1.363 . S
C2301 C2300 1.415 . S
H2302 C2299 0.999 . S
H2303 C2284 0.913 . S
H2304 C2322 0.951 . S
H2305 C2324 0.951 . S
H2306 C2326 0.950 . S
H2307 C2327 0.950 . S
H2308 C2329 0.950 . S
H2309 C2332 0.950 . S
H2310 C2333 0.950 . S
H2311 C2335 0.950 . S
H2312 C2336 0.950 . S
H2313 C2337 0.951 . S
H2314 C2339 0.951 . S
H2315 C2341 0.950 . S
H2316 C2342 0.950 . S
H2317 C2344 0.950 . S
H2318 C2347 0.950 . S
H2319 C2348 0.950 . S
H2320 C2350 0.950 . S
H2321 C2351 0.950 . S
C2322 H2304 0.951 . S
C2322 C2323 1.366 . S
C2322 C2324 1.388 . S
C2323 C2322 1.366 . S
C2323 C2327 1.385 . S
C2324 H2305 0.951 . S
C2324 C2322 1.388 . S
C2324 C2325 1.366 . S
C2325 C2324 1.366 . S
C2325 C2326 1.414 . S
C2325 C2328 1.499 . S
C2326 H2306 0.950 . S
C2326 C2325 1.414 . S
C2326 C2327 1.374 . S
C2327 H2307 0.950 . S
C2327 C2323 1.385 . S
C2327 C2326 1.374 . S
C2328 C2325 1.499 . S
C2328 C2329 1.373 . S
C2328 C2330 1.389 . S
C2329 H2308 0.950 . S
C2329 C2328 1.373 . S
C2329 C2345 1.377 . S
C2330 C2328 1.389 . S
C2330 C2331 1.524 . S
C2330 C2344 1.377 . S
C2331 C2330 1.524 . S
C2331 C2332 1.397 . S
C2331 C2336 1.363 . S
C2332 H2309 0.950 . S
C2332 C2331 1.397 . S
C2332 C2333 1.334 . S
C2333 H2310 0.950 . S
C2333 C2332 1.334 . S
C2333 C2334 1.287 . S
C2334 C2333 1.287 . S
C2334 C2335 1.524 . S
C2334 H2353 0.913 . S
C2335 H2311 0.950 . S
C2335 C2334 1.524 . S
C2335 C2336 1.415 . S
C2336 H2312 0.950 . S
C2336 C2331 1.363 . S
C2336 C2335 1.415 . S
C2337 H2313 0.951 . S
C2337 C2338 1.366 . S
C2337 C2339 1.388 . S
C2338 C2337 1.366 . S
C2338 C2342 1.385 . S
C2339 H2314 0.951 . S
C2339 C2337 1.388 . S
C2339 C2340 1.366 . S
C2340 C2339 1.366 . S
C2340 C2341 1.414 . S
C2340 C2343 1.499 . S
C2341 H2315 0.950 . S
C2341 C2340 1.414 . S
C2341 C2342 1.374 . S
C2342 H2316 0.950 . S
C2342 C2338 1.385 . S
C2342 C2341 1.374 . S
C2343 C2340 1.499 . S
C2343 C2344 1.373 . S
C2343 C2345 1.389 . S
C2344 H2317 0.950 . S
C2344 C2330 1.377 . S
C2344 C2343 1.373 . S
C2345 C2329 1.377 . S
C2345 C2343 1.389 . S
C2345 C2346 1.524 . S
C2346 C2345 1.524 . S
C2346 C2347 1.397 . S
C2346 C2351 1.363 . S
C2347 H2318 0.950 . S
C2347 C2346 1.397 . S
C2347 C2348 1.334 . S
C2348 H2319 0.950 . S
C2348 C2347 1.334 . S
C2348 C2349 1.287 . S
C2349 C2348 1.287 . S
C2349 C2350 1.524 . S
C2349 H2352 0.999 . S
C2350 H2320 0.950 . S
C2350 C2349 1.524 . S
C2350 C2351 1.415 . S
C2351 H2321 0.950 . S
C2351 C2346 1.363 . S
C2351 C2350 1.415 . S
H2352 C2349 0.999 . S
H2353 C2334 0.913 . S
H2354 C2372 0.951 . S
H2355 C2374 0.951 . S
H2356 C2376 0.950 . S
H2357 C2377 0.950 . S
H2358 C2379 0.950 . S
H2359 C2382 0.950 . S
H2360 C2383 0.950 . S
H2361 C2385 0.950 1_556 S
H2362 C2386 0.950 . S
H2363 C2387 0.951 . S
H2364 C2389 0.951 . S
H2365 C2391 0.950 . S
H2366 C2392 0.950 . S
H2367 C2394 0.950 . S
H2368 C2397 0.950 . S
H2369 C2398 0.950 . S
H2370 C2400 0.950 . S
H2371 C2401 0.950 . S
C2372 H2354 0.951 . S
C2372 C2373 1.366 . S
C2372 C2374 1.388 . S
C2373 C2372 1.366 . S
C2373 C2377 1.385 . S
C2374 H2355 0.951 . S
C2374 C2372 1.388 . S
C2374 C2375 1.366 . S
C2375 C2374 1.366 . S
C2375 C2376 1.414 . S
C2375 C2378 1.499 . S
C2376 H2356 0.950 . S
C2376 C2375 1.414 . S
C2376 C2377 1.374 . S
C2377 H2357 0.950 . S
C2377 C2373 1.385 . S
C2377 C2376 1.374 . S
C2378 C2375 1.499 . S
C2378 C2379 1.373 . S
C2378 C2380 1.389 . S
C2379 H2358 0.950 . S
C2379 C2378 1.373 . S
C2379 C2395 1.377 . S
C2380 C2378 1.389 . S
C2380 C2381 1.524 . S
C2380 C2394 1.377 . S
C2381 C2380 1.524 . S
C2381 C2382 1.397 . S
C2381 C2386 1.363 . S
C2382 H2359 0.950 . S
C2382 C2381 1.397 . S
C2382 C2383 1.334 . S
C2383 H2360 0.950 . S
C2383 C2382 1.334 . S
C2383 C2384 1.287 1_554 S
C2384 C2383 1.287 1_556 S
C2384 C2385 1.524 1_556 S
C2384 H2403 0.913 . S
C2385 H2361 0.950 1_554 S
C2385 C2384 1.524 1_554 S
C2385 C2386 1.415 . S
C2386 H2362 0.950 . S
C2386 C2381 1.363 . S
C2386 C2385 1.415 . S
C2387 H2363 0.951 . S
C2387 C2388 1.366 . S
C2387 C2389 1.388 . S
C2388 C2387 1.366 . S
C2388 C2392 1.385 . S
C2389 H2364 0.951 . S
C2389 C2387 1.388 . S
C2389 C2390 1.366 . S
C2390 C2389 1.366 . S
C2390 C2391 1.414 . S
C2390 C2393 1.499 . S
C2391 H2365 0.950 . S
C2391 C2390 1.414 . S
C2391 C2392 1.374 . S
C2392 H2366 0.950 . S
C2392 C2388 1.385 . S
C2392 C2391 1.374 . S
C2393 C2390 1.499 . S
C2393 C2394 1.373 . S
C2393 C2395 1.389 . S
C2394 H2367 0.950 . S
C2394 C2380 1.377 . S
C2394 C2393 1.373 . S
C2395 C2379 1.377 . S
C2395 C2393 1.389 . S
C2395 C2396 1.524 . S
C2396 C2395 1.524 . S
C2396 C2397 1.397 . S
C2396 C2401 1.363 . S
C2397 H2368 0.950 . S
C2397 C2396 1.397 . S
C2397 C2398 1.334 . S
C2398 H2369 0.950 . S
C2398 C2397 1.334 . S
C2398 C2399 1.287 . S
C2399 C2398 1.287 . S
C2399 C2400 1.524 . S
C2399 H2402 0.999 . S
C2400 H2370 0.950 . S
C2400 C2399 1.524 . S
C2400 C2401 1.415 . S
C2401 H2371 0.950 . S
C2401 C2396 1.363 . S
C2401 C2400 1.415 . S
H2402 C2399 0.999 . S
H2403 C2384 0.913 . S
H2404 C2422 0.951 . S
H2405 C2424 0.951 . S
H2406 C2426 0.950 . S
H2407 C2427 0.950 . S
H2408 C2429 0.950 . S
H2409 C2432 0.950 . S
H2410 C2433 0.950 . S
H2411 C2435 0.950 . S
H2412 C2436 0.950 . S
H2413 C2437 0.951 . S
H2414 C2439 0.951 . S
H2415 C2441 0.950 . S
H2416 C2442 0.950 . S
H2417 C2444 0.950 . S
H2418 C2447 0.950 . S
H2419 C2448 0.950 . S
H2420 C2450 0.950 . S
H2421 C2451 0.950 . S
C2422 H2404 0.951 . S
C2422 C2423 1.366 . S
C2422 C2424 1.388 . S
C2423 C2422 1.366 . S
C2423 C2427 1.385 . S
C2424 H2405 0.951 . S
C2424 C2422 1.388 . S
C2424 C2425 1.366 . S
C2425 C2424 1.366 . S
C2425 C2426 1.414 . S
C2425 C2428 1.499 . S
C2426 H2406 0.950 . S
C2426 C2425 1.414 . S
C2426 C2427 1.374 . S
C2427 H2407 0.950 . S
C2427 C2423 1.385 . S
C2427 C2426 1.374 . S
C2428 C2425 1.499 . S
C2428 C2429 1.373 . S
C2428 C2430 1.389 . S
C2429 H2408 0.950 . S
C2429 C2428 1.373 . S
C2429 C2445 1.377 . S
C2430 C2428 1.389 . S
C2430 C2431 1.524 . S
C2430 C2444 1.377 . S
C2431 C2430 1.524 . S
C2431 C2432 1.397 . S
C2431 C2436 1.363 . S
C2432 H2409 0.950 . S
C2432 C2431 1.397 . S
C2432 C2433 1.334 . S
C2433 H2410 0.950 . S
C2433 C2432 1.334 . S
C2433 C2434 1.287 . S
C2434 C2433 1.287 . S
C2434 C2435 1.524 . S
C2434 H2453 0.913 . S
C2435 H2411 0.950 . S
C2435 C2434 1.524 . S
C2435 C2436 1.415 . S
C2436 H2412 0.950 . S
C2436 C2431 1.363 . S
C2436 C2435 1.415 . S
C2437 H2413 0.951 . S
C2437 C2438 1.366 . S
C2437 C2439 1.388 . S
C2438 C2437 1.366 . S
C2438 C2442 1.385 . S
C2439 H2414 0.951 . S
C2439 C2437 1.388 . S
C2439 C2440 1.366 . S
C2440 C2439 1.366 . S
C2440 C2441 1.414 . S
C2440 C2443 1.499 . S
C2441 H2415 0.950 . S
C2441 C2440 1.414 . S
C2441 C2442 1.374 . S
C2442 H2416 0.950 . S
C2442 C2438 1.385 . S
C2442 C2441 1.374 . S
C2443 C2440 1.499 . S
C2443 C2444 1.373 . S
C2443 C2445 1.389 . S
C2444 H2417 0.950 . S
C2444 C2430 1.377 . S
C2444 C2443 1.373 . S
C2445 C2429 1.377 . S
C2445 C2443 1.389 . S
C2445 C2446 1.524 . S
C2446 C2445 1.524 . S
C2446 C2447 1.397 . S
C2446 C2451 1.363 . S
C2447 H2418 0.950 . S
C2447 C2446 1.397 . S
C2447 C2448 1.334 . S
C2448 H2419 0.950 . S
C2448 C2447 1.334 . S
C2448 C2449 1.287 . S
C2449 C2448 1.287 . S
C2449 C2450 1.524 . S
C2449 H2452 0.999 . S
C2450 H2420 0.950 . S
C2450 C2449 1.524 . S
C2450 C2451 1.415 . S
C2451 H2421 0.950 . S
C2451 C2446 1.363 . S
C2451 C2450 1.415 . S
H2452 C2449 0.999 . S
H2453 C2434 0.913 . S
H2454 C2472 0.951 . S
H2455 C2474 0.951 . S
H2456 C2476 0.950 . S
H2457 C2477 0.950 . S
H2458 C2479 0.950 . S
H2459 C2482 0.950 . S
H2460 C2483 0.950 . S
H2461 C2485 0.950 . S
H2462 C2486 0.950 . S
H2463 C2487 0.951 . S
H2464 C2489 0.951 . S
H2465 C2491 0.950 . S
H2466 C2492 0.950 . S
H2467 C2494 0.950 . S
H2468 C2497 0.950 . S
H2469 C2498 0.950 . S
H2470 C2500 0.950 . S
H2471 C2501 0.950 . S
C2472 H2454 0.951 . S
C2472 C2473 1.366 . S
C2472 C2474 1.388 . S
C2473 C2472 1.366 . S
C2473 C2477 1.385 . S
C2474 H2455 0.951 . S
C2474 C2472 1.388 . S
C2474 C2475 1.366 . S
C2475 C2474 1.366 . S
C2475 C2476 1.414 . S
C2475 C2478 1.499 . S
C2476 H2456 0.950 . S
C2476 C2475 1.414 . S
C2476 C2477 1.374 . S
C2477 H2457 0.950 . S
C2477 C2473 1.385 . S
C2477 C2476 1.374 . S
C2478 C2475 1.499 . S
C2478 C2479 1.373 . S
C2478 C2480 1.389 . S
C2479 H2458 0.950 . S
C2479 C2478 1.373 . S
C2479 C2495 1.377 . S
C2480 C2478 1.389 . S
C2480 C2481 1.524 . S
C2480 C2494 1.377 . S
C2481 C2480 1.524 . S
C2481 C2482 1.397 . S
C2481 C2486 1.363 . S
C2482 H2459 0.950 . S
C2482 C2481 1.397 . S
C2482 C2483 1.334 . S
C2483 H2460 0.950 . S
C2483 C2482 1.334 . S
C2483 C2484 1.287 . S
C2484 C2483 1.287 . S
C2484 C2485 1.524 . S
C2484 H2503 0.913 . S
C2485 H2461 0.950 . S
C2485 C2484 1.524 . S
C2485 C2486 1.415 . S
C2486 H2462 0.950 . S
C2486 C2481 1.363 . S
C2486 C2485 1.415 . S
C2487 H2463 0.951 . S
C2487 C2488 1.366 . S
C2487 C2489 1.388 . S
C2488 C2487 1.366 . S
C2488 C2492 1.385 . S
C2489 H2464 0.951 . S
C2489 C2487 1.388 . S
C2489 C2490 1.366 . S
C2490 C2489 1.366 . S
C2490 C2491 1.414 . S
C2490 C2493 1.499 . S
C2491 H2465 0.950 . S
C2491 C2490 1.414 . S
C2491 C2492 1.374 . S
C2492 H2466 0.950 . S
C2492 C2488 1.385 . S
C2492 C2491 1.374 . S
C2493 C2490 1.499 . S
C2493 C2494 1.373 . S
C2493 C2495 1.389 . S
C2494 H2467 0.950 . S
C2494 C2480 1.377 . S
C2494 C2493 1.373 . S
C2495 C2479 1.377 . S
C2495 C2493 1.389 . S
C2495 C2496 1.524 . S
C2496 C2495 1.524 . S
C2496 C2497 1.397 . S
C2496 C2501 1.363 . S
C2497 H2468 0.950 . S
C2497 C2496 1.397 . S
C2497 C2498 1.334 . S
C2498 H2469 0.950 . S
C2498 C2497 1.334 . S
C2498 C2499 1.287 . S
C2499 C2498 1.287 . S
C2499 C2500 1.524 . S
C2499 H2502 0.999 . S
C2500 H2470 0.950 . S
C2500 C2499 1.524 . S
C2500 C2501 1.415 . S
C2501 H2471 0.950 . S
C2501 C2496 1.363 . S
C2501 C2500 1.415 . S
H2502 C2499 0.999 . S
H2503 C2484 0.913 . S
H2504 C2522 0.951 . S
H2505 C2524 0.951 . S
H2506 C2526 0.950 . S
H2507 C2527 0.950 . S
H2508 C2529 0.950 . S
H2509 C2532 0.950 . S
H2510 C2533 0.950 . S
H2511 C2535 0.950 . S
H2512 C2536 0.950 . S
H2513 C2537 0.951 . S
H2514 C2539 0.951 . S
H2515 C2541 0.950 . S
H2516 C2542 0.950 . S
H2517 C2544 0.950 . S
H2518 C2547 0.950 . S
H2519 C2548 0.950 . S
H2520 C2550 0.950 . S
H2521 C2551 0.950 . S
C2522 H2504 0.951 . S
C2522 C2523 1.366 . S
C2522 C2524 1.388 . S
C2523 C2522 1.366 . S
C2523 C2527 1.385 . S
C2524 H2505 0.951 . S
C2524 C2522 1.388 . S
C2524 C2525 1.366 . S
C2525 C2524 1.366 . S
C2525 C2526 1.414 . S
C2525 C2528 1.499 . S
C2526 H2506 0.950 . S
C2526 C2525 1.414 . S
C2526 C2527 1.374 . S
C2527 H2507 0.950 . S
C2527 C2523 1.385 . S
C2527 C2526 1.374 . S
C2528 C2525 1.499 . S
C2528 C2529 1.373 . S
C2528 C2530 1.389 . S
C2529 H2508 0.950 . S
C2529 C2528 1.373 . S
C2529 C2545 1.377 . S
C2530 C2528 1.389 . S
C2530 C2531 1.524 . S
C2530 C2544 1.377 . S
C2531 C2530 1.524 . S
C2531 C2532 1.397 . S
C2531 C2536 1.363 . S
C2532 H2509 0.950 . S
C2532 C2531 1.397 . S
C2532 C2533 1.334 . S
C2533 H2510 0.950 . S
C2533 C2532 1.334 . S
C2533 C2534 1.287 . S
C2534 C2533 1.287 . S
C2534 C2535 1.524 . S
C2534 H2553 0.913 . S
C2535 H2511 0.950 . S
C2535 C2534 1.524 . S
C2535 C2536 1.415 . S
C2536 H2512 0.950 . S
C2536 C2531 1.363 . S
C2536 C2535 1.415 . S
C2537 H2513 0.951 . S
C2537 C2538 1.366 . S
C2537 C2539 1.388 . S
C2538 C2537 1.366 . S
C2538 C2542 1.385 . S
C2539 H2514 0.951 . S
C2539 C2537 1.388 . S
C2539 C2540 1.366 . S
C2540 C2539 1.366 . S
C2540 C2541 1.414 . S
C2540 C2543 1.499 . S
C2541 H2515 0.950 . S
C2541 C2540 1.414 . S
C2541 C2542 1.374 . S
C2542 H2516 0.950 . S
C2542 C2538 1.385 . S
C2542 C2541 1.374 . S
C2543 C2540 1.499 . S
C2543 C2544 1.373 . S
C2543 C2545 1.389 . S
C2544 H2517 0.950 . S
C2544 C2530 1.377 . S
C2544 C2543 1.373 . S
C2545 C2529 1.377 . S
C2545 C2543 1.389 . S
C2545 C2546 1.524 . S
C2546 C2545 1.524 . S
C2546 C2547 1.397 . S
C2546 C2551 1.363 . S
C2547 H2518 0.950 . S
C2547 C2546 1.397 . S
C2547 C2548 1.334 . S
C2548 H2519 0.950 . S
C2548 C2547 1.334 . S
C2548 C2549 1.287 . S
C2549 C2548 1.287 . S
C2549 C2550 1.524 . S
C2549 H2552 0.999 . S
C2550 H2520 0.950 . S
C2550 C2549 1.524 . S
C2550 C2551 1.415 . S
C2551 H2521 0.950 . S
C2551 C2546 1.363 . S
C2551 C2550 1.415 . S
H2552 C2549 0.999 . S
H2553 C2534 0.913 . S
H2554 C2572 0.951 . S
H2555 C2574 0.951 . S
H2556 C2576 0.950 . S
H2557 C2577 0.950 . S
H2558 C2579 0.950 . S
H2559 C2582 0.950 . S
H2560 C2583 0.950 . S
H2561 C2585 0.940 1_554 S
H2562 C2586 0.950 . S
H2563 C2587 0.951 . S
H2564 C2589 0.951 . S
H2565 C2591 0.950 . S
H2566 C2592 0.950 . S
H2567 C2594 0.950 . S
H2568 C2597 0.950 . S
H2569 C2598 0.950 . S
H2570 C2600 0.950 . S
H2571 C2601 0.950 . S
C2572 H2554 0.951 . S
C2572 C2573 1.366 . S
C2572 C2574 1.388 . S
C2573 C2572 1.366 . S
C2573 C2577 1.385 . S
C2574 H2555 0.951 . S
C2574 C2572 1.388 . S
C2574 C2575 1.366 . S
C2575 C2574 1.366 . S
C2575 C2576 1.414 . S
C2575 C2578 1.499 . S
C2576 H2556 0.950 . S
C2576 C2575 1.414 . S
C2576 C2577 1.374 . S
C2577 H2557 0.950 . S
C2577 C2573 1.385 . S
C2577 C2576 1.374 . S
C2578 C2575 1.499 . S
C2578 C2579 1.373 . S
C2578 C2580 1.389 . S
C2579 H2558 0.950 . S
C2579 C2578 1.373 . S
C2579 C2595 1.377 . S
C2580 C2578 1.389 . S
C2580 C2581 1.524 . S
C2580 C2594 1.377 . S
C2581 C2580 1.524 . S
C2581 C2582 1.397 . S
C2581 C2586 1.363 . S
C2582 H2559 0.950 . S
C2582 C2581 1.397 . S
C2582 C2583 1.334 . S
C2583 H2560 0.950 . S
C2583 C2582 1.334 . S
C2583 C2584 1.287 . S
C2584 C2583 1.287 . S
C2584 C2585 1.524 . S
C2584 H2603 0.934 . S
C2585 H2561 0.940 1_556 S
C2585 C2584 1.524 . S
C2585 C2586 1.415 . S
C2586 H2562 0.950 . S
C2586 C2581 1.363 . S
C2586 C2585 1.415 . S
C2587 H2563 0.951 . S
C2587 C2588 1.366 . S
C2587 C2589 1.388 . S
C2588 C2587 1.366 . S
C2588 C2592 1.385 . S
C2589 H2564 0.951 . S
C2589 C2587 1.388 . S
C2589 C2590 1.366 . S
C2590 C2589 1.366 . S
C2590 C2591 1.414 . S
C2590 C2593 1.499 . S
C2591 H2565 0.950 . S
C2591 C2590 1.414 . S
C2591 C2592 1.374 . S
C2592 H2566 0.950 . S
C2592 C2588 1.385 . S
C2592 C2591 1.374 . S
C2593 C2590 1.499 . S
C2593 C2594 1.373 . S
C2593 C2595 1.389 . S
C2594 H2567 0.950 . S
C2594 C2580 1.377 . S
C2594 C2593 1.373 . S
C2595 C2579 1.377 . S
C2595 C2593 1.389 . S
C2595 C2596 1.524 . S
C2596 C2595 1.524 . S
C2596 C2597 1.397 . S
C2596 C2601 1.363 . S
C2597 H2568 0.950 . S
C2597 C2596 1.397 . S
C2597 C2598 1.334 . S
C2598 H2569 0.950 . S
C2598 C2597 1.334 . S
C2598 C2599 1.287 . S
C2599 C2598 1.287 . S
C2599 C2600 1.524 . S
C2599 H2602 0.999 . S
C2600 H2570 0.950 . S
C2600 C2599 1.524 . S
C2600 C2601 1.415 . S
C2601 H2571 0.950 . S
C2601 C2596 1.363 . S
C2601 C2600 1.415 . S
H2602 C2599 0.999 . S
H2603 C2584 0.934 . S
H2604 C2622 0.951 . S
H2605 C2624 0.951 . S
H2606 C2626 0.950 . S
H2607 C2627 0.950 . S
H2608 C2629 0.950 . S
H2609 C2632 0.950 . S
H2610 C2633 0.950 . S
H2611 C2635 0.950 . S
H2612 C2636 0.950 . S
H2613 C2637 0.951 . S
H2614 C2639 0.951 . S
H2615 C2641 0.950 . S
H2616 C2642 0.950 . S
H2617 C2644 0.950 . S
H2618 C2647 0.950 . S
H2619 C2648 0.950 . S
H2620 C2650 0.950 . S
H2621 C2651 0.950 . S
C2622 H2604 0.951 . S
C2622 C2623 1.366 . S
C2622 C2624 1.388 . S
C2623 C2622 1.366 . S
C2623 C2627 1.385 . S
C2624 H2605 0.951 . S
C2624 C2622 1.388 . S
C2624 C2625 1.366 . S
C2625 C2624 1.366 . S
C2625 C2626 1.414 . S
C2625 C2628 1.499 . S
C2626 H2606 0.950 . S
C2626 C2625 1.414 . S
C2626 C2627 1.374 . S
C2627 H2607 0.950 . S
C2627 C2623 1.385 . S
C2627 C2626 1.374 . S
C2628 C2625 1.499 . S
C2628 C2629 1.373 . S
C2628 C2630 1.389 . S
C2629 H2608 0.950 . S
C2629 C2628 1.373 . S
C2629 C2645 1.377 . S
C2630 C2628 1.389 . S
C2630 C2631 1.524 . S
C2630 C2644 1.377 . S
C2631 C2630 1.524 . S
C2631 C2632 1.397 . S
C2631 C2636 1.363 . S
C2632 H2609 0.950 . S
C2632 C2631 1.397 . S
C2632 C2633 1.334 . S
C2633 H2610 0.950 . S
C2633 C2632 1.334 . S
C2633 C2634 1.287 . S
C2634 C2633 1.287 . S
C2634 C2635 1.524 . S
C2634 H2653 0.913 . S
C2635 H2611 0.950 . S
C2635 C2634 1.524 . S
C2635 C2636 1.415 . S
C2636 H2612 0.950 . S
C2636 C2631 1.363 . S
C2636 C2635 1.415 . S
C2637 H2613 0.951 . S
C2637 C2638 1.366 . S
C2637 C2639 1.388 . S
C2638 C2637 1.366 . S
C2638 C2642 1.385 . S
C2639 H2614 0.951 . S
C2639 C2637 1.388 . S
C2639 C2640 1.366 . S
C2640 C2639 1.366 . S
C2640 C2641 1.414 . S
C2640 C2643 1.499 . S
C2641 H2615 0.950 . S
C2641 C2640 1.414 . S
C2641 C2642 1.374 . S
C2642 H2616 0.950 . S
C2642 C2638 1.385 . S
C2642 C2641 1.374 . S
C2643 C2640 1.499 . S
C2643 C2644 1.373 . S
C2643 C2645 1.389 . S
C2644 H2617 0.950 . S
C2644 C2630 1.377 . S
C2644 C2643 1.373 . S
C2645 C2629 1.377 . S
C2645 C2643 1.389 . S
C2645 C2646 1.524 . S
C2646 C2645 1.524 . S
C2646 C2647 1.397 . S
C2646 C2651 1.363 . S
C2647 H2618 0.950 . S
C2647 C2646 1.397 . S
C2647 C2648 1.334 . S
C2648 H2619 0.950 . S
C2648 C2647 1.334 . S
C2648 C2649 1.287 . S
C2649 C2648 1.287 . S
C2649 C2650 1.524 . S
C2649 H2652 0.999 . S
C2650 H2620 0.950 . S
C2650 C2649 1.524 . S
C2650 C2651 1.415 . S
C2651 H2621 0.950 . S
C2651 C2646 1.363 . S
C2651 C2650 1.415 . S
H2652 C2649 0.999 . S
H2653 C2634 0.913 . S
H2654 C2672 0.951 . S
H2655 C2674 0.951 . S
H2656 C2676 0.950 . S
H2657 C2677 0.950 . S
H2658 C2679 0.950 . S
H2659 C2682 0.950 . S
H2660 C2683 0.950 . S
H2661 C2685 0.950 . S
H2662 C2686 0.950 . S
H2663 C2687 0.951 . S
H2664 C2689 0.951 . S
H2665 C2691 0.950 . S
H2666 C2692 0.950 . S
H2667 C2694 0.950 . S
H2668 C2697 0.950 . S
H2669 C2698 0.950 . S
H2670 C2700 0.950 . S
H2671 C2701 0.950 . S
C2672 H2654 0.951 . S
C2672 C2673 1.366 . S
C2672 C2674 1.388 . S
C2673 C2672 1.366 . S
C2673 C2677 1.385 . S
C2674 H2655 0.951 . S
C2674 C2672 1.388 . S
C2674 C2675 1.366 . S
C2675 C2674 1.366 . S
C2675 C2676 1.414 . S
C2675 C2678 1.499 . S
C2676 H2656 0.950 . S
C2676 C2675 1.414 . S
C2676 C2677 1.374 . S
C2677 H2657 0.950 . S
C2677 C2673 1.385 . S
C2677 C2676 1.374 . S
C2678 C2675 1.499 . S
C2678 C2679 1.373 . S
C2678 C2680 1.389 . S
C2679 H2658 0.950 . S
C2679 C2678 1.373 . S
C2679 C2695 1.377 . S
C2680 C2678 1.389 . S
C2680 C2681 1.524 . S
C2680 C2694 1.377 . S
C2681 C2680 1.524 . S
C2681 C2682 1.397 . S
C2681 C2686 1.363 . S
C2682 H2659 0.950 . S
C2682 C2681 1.397 . S
C2682 C2683 1.334 . S
C2683 H2660 0.950 . S
C2683 C2682 1.334 . S
C2683 C2684 1.287 . S
C2684 C2683 1.287 . S
C2684 C2685 1.524 . S
C2684 H2703 0.913 . S
C2685 H2661 0.950 . S
C2685 C2684 1.524 . S
C2685 C2686 1.415 . S
C2686 H2662 0.950 . S
C2686 C2681 1.363 . S
C2686 C2685 1.415 . S
C2687 H2663 0.951 . S
C2687 C2688 1.366 . S
C2687 C2689 1.388 . S
C2688 C2687 1.366 . S
C2688 C2692 1.385 . S
C2689 H2664 0.951 . S
C2689 C2687 1.388 . S
C2689 C2690 1.366 . S
C2690 C2689 1.366 . S
C2690 C2691 1.414 . S
C2690 C2693 1.499 . S
C2691 H2665 0.950 . S
C2691 C2690 1.414 . S
C2691 C2692 1.374 . S
C2692 H2666 0.950 . S
C2692 C2688 1.385 . S
C2692 C2691 1.374 . S
C2693 C2690 1.499 . S
C2693 C2694 1.373 . S
C2693 C2695 1.389 . S
C2694 H2667 0.950 . S
C2694 C2680 1.377 . S
C2694 C2693 1.373 . S
C2695 C2679 1.377 . S
C2695 C2693 1.389 . S
C2695 C2696 1.524 . S
C2696 C2695 1.524 . S
C2696 C2697 1.397 . S
C2696 C2701 1.363 . S
C2697 H2668 0.950 . S
C2697 C2696 1.397 . S
C2697 C2698 1.334 . S
C2698 H2669 0.950 . S
C2698 C2697 1.334 . S
C2698 C2699 1.287 . S
C2699 C2698 1.287 . S
C2699 C2700 1.524 . S
C2699 H2702 0.999 . S
C2700 H2670 0.950 . S
C2700 C2699 1.524 . S
C2700 C2701 1.415 . S
C2701 H2671 0.950 . S
C2701 C2696 1.363 . S
C2701 C2700 1.415 . S
H2702 C2699 0.999 . S
H2703 C2684 0.913 . S
H2704 C2722 0.951 . S
H2705 C2724 0.951 . S
H2706 C2726 0.950 . S
H2707 C2727 0.950 . S
H2708 C2729 0.950 . S
H2709 C2732 0.950 . S
H2710 C2733 0.950 . S
H2711 C2735 0.950 . S
H2712 C2736 0.950 . S
H2713 C2737 0.951 . S
H2714 C2739 0.951 . S
H2715 C2741 0.950 . S
H2716 C2742 0.950 . S
H2717 C2744 0.950 . S
H2718 C2747 0.950 . S
H2719 C2748 0.950 . S
H2720 C2750 0.950 1_554 S
H2721 C2751 0.950 . S
C2722 H2704 0.951 . S
C2722 C2723 1.366 . S
C2722 C2724 1.388 . S
C2723 C2722 1.366 . S
C2723 C2727 1.385 . S
C2724 H2705 0.951 . S
C2724 C2722 1.388 . S
C2724 C2725 1.366 . S
C2725 C2724 1.366 . S
C2725 C2726 1.414 . S
C2725 C2728 1.499 . S
C2726 H2706 0.950 . S
C2726 C2725 1.414 . S
C2726 C2727 1.374 . S
C2727 H2707 0.950 . S
C2727 C2723 1.385 . S
C2727 C2726 1.374 . S
C2728 C2725 1.499 . S
C2728 C2729 1.373 . S
C2728 C2730 1.389 . S
C2729 H2708 0.950 . S
C2729 C2728 1.373 . S
C2729 C2745 1.377 . S
C2730 C2728 1.389 . S
C2730 C2731 1.524 . S
C2730 C2744 1.377 . S
C2731 C2730 1.524 . S
C2731 C2732 1.397 . S
C2731 C2736 1.363 . S
C2732 H2709 0.950 . S
C2732 C2731 1.397 . S
C2732 C2733 1.334 . S
C2733 H2710 0.950 . S
C2733 C2732 1.334 . S
C2733 C2734 1.287 . S
C2734 C2733 1.287 . S
C2734 C2735 1.524 . S
C2734 H2753 0.913 . S
C2735 H2711 0.950 . S
C2735 C2734 1.524 . S
C2735 C2736 1.415 . S
C2736 H2712 0.950 . S
C2736 C2731 1.363 . S
C2736 C2735 1.415 . S
C2737 H2713 0.951 . S
C2737 C2738 1.366 . S
C2737 C2739 1.388 . S
C2738 C2737 1.366 . S
C2738 C2742 1.385 . S
C2739 H2714 0.951 . S
C2739 C2737 1.388 . S
C2739 C2740 1.366 . S
C2740 C2739 1.366 . S
C2740 C2741 1.414 . S
C2740 C2743 1.499 . S
C2741 H2715 0.950 . S
C2741 C2740 1.414 . S
C2741 C2742 1.374 . S
C2742 H2716 0.950 . S
C2742 C2738 1.385 . S
C2742 C2741 1.374 . S
C2743 C2740 1.499 . S
C2743 C2744 1.373 . S
C2743 C2745 1.389 . S
C2744 H2717 0.950 . S
C2744 C2730 1.377 . S
C2744 C2743 1.373 . S
C2745 C2729 1.377 . S
C2745 C2743 1.389 . S
C2745 C2746 1.524 . S
C2746 C2745 1.524 . S
C2746 C2747 1.397 . S
C2746 C2751 1.363 . S
C2747 H2718 0.950 . S
C2747 C2746 1.397 . S
C2747 C2748 1.334 . S
C2748 H2719 0.950 . S
C2748 C2747 1.334 . S
C2748 C2749 1.290 . S
C2749 C2748 1.290 . S
C2749 C2750 1.524 . S
C2749 H2752 0.995 1_556 S
C2750 H2720 0.950 1_556 S
C2750 C2749 1.524 . S
C2750 C2751 1.415 . S
C2751 H2721 0.950 . S
C2751 C2746 1.363 . S
C2751 C2750 1.415 . S
H2752 C2749 0.995 1_554 S
H2753 C2734 0.913 . S
H2754 C2772 0.951 . S
H2755 C2774 0.951 . S
H2756 C2776 0.950 . S
H2757 C2777 0.950 . S
H2758 C2779 0.950 . S
H2759 C2782 0.950 . S
H2760 C2783 0.950 . S
H2761 C2785 0.950 . S
H2762 C2786 0.950 . S
H2763 C2787 0.951 . S
H2764 C2789 0.951 . S
H2765 C2791 0.950 . S
H2766 C2792 0.950 . S
H2767 C2794 0.950 . S
H2768 C2797 0.950 . S
H2769 C2798 0.950 . S
H2770 C2800 0.950 1_556 S
H2771 C2801 0.950 . S
C2772 H2754 0.951 . S
C2772 C2773 1.366 . S
C2772 C2774 1.388 . S
C2773 C2772 1.366 . S
C2773 C2777 1.385 . S
C2774 H2755 0.951 . S
C2774 C2772 1.388 . S
C2774 C2775 1.366 . S
C2775 C2774 1.366 . S
C2775 C2776 1.414 . S
C2775 C2778 1.499 . S
C2776 H2756 0.950 . S
C2776 C2775 1.414 . S
C2776 C2777 1.374 . S
C2777 H2757 0.950 . S
C2777 C2773 1.385 . S
C2777 C2776 1.374 . S
C2778 C2775 1.499 . S
C2778 C2779 1.373 . S
C2778 C2780 1.389 . S
C2779 H2758 0.950 . S
C2779 C2778 1.373 . S
C2779 C2795 1.377 . S
C2780 C2778 1.389 . S
C2780 C2781 1.524 . S
C2780 C2794 1.377 . S
C2781 C2780 1.524 . S
C2781 C2782 1.397 . S
C2781 C2786 1.363 . S
C2782 H2759 0.950 . S
C2782 C2781 1.397 . S
C2782 C2783 1.334 . S
C2783 H2760 0.950 . S
C2783 C2782 1.334 . S
C2783 C2784 1.287 . S
C2784 C2783 1.287 . S
C2784 C2785 1.524 . S
C2784 H2803 0.913 . S
C2785 H2761 0.950 . S
C2785 C2784 1.524 . S
C2785 C2786 1.415 . S
C2786 H2762 0.950 . S
C2786 C2781 1.363 . S
C2786 C2785 1.415 . S
C2787 H2763 0.951 . S
C2787 C2788 1.366 . S
C2787 C2789 1.388 . S
C2788 C2787 1.366 . S
C2788 C2792 1.385 . S
C2789 H2764 0.951 . S
C2789 C2787 1.388 . S
C2789 C2790 1.366 . S
C2790 C2789 1.366 . S
C2790 C2791 1.414 . S
C2790 C2793 1.499 . S
C2791 H2765 0.950 . S
C2791 C2790 1.414 . S
C2791 C2792 1.374 . S
C2792 H2766 0.950 . S
C2792 C2788 1.385 . S
C2792 C2791 1.374 . S
C2793 C2790 1.499 . S
C2793 C2794 1.373 . S
C2793 C2795 1.389 . S
C2794 H2767 0.950 . S
C2794 C2780 1.377 . S
C2794 C2793 1.373 . S
C2795 C2779 1.377 . S
C2795 C2793 1.389 . S
C2795 C2796 1.524 . S
C2796 C2795 1.524 . S
C2796 C2797 1.397 . S
C2796 C2801 1.363 . S
C2797 H2768 0.950 . S
C2797 C2796 1.397 . S
C2797 C2798 1.334 . S
C2798 H2769 0.950 . S
C2798 C2797 1.334 . S
C2798 C2799 1.287 . S
C2799 C2798 1.287 . S
C2799 C2800 1.524 . S
C2799 H2802 0.999 1_554 S
C2800 H2770 0.950 1_554 S
C2800 C2799 1.524 . S
C2800 C2801 1.415 . S
C2801 H2771 0.950 . S
C2801 C2796 1.363 . S
C2801 C2800 1.415 . S
H2802 C2799 0.999 1_556 S
H2803 C2784 0.913 . S
H2804 C2822 0.951 . S
H2805 C2824 0.951 . S
H2806 C2826 0.950 . S
H2807 C2827 0.950 . S
H2808 C2829 0.950 . S
H2809 C2832 0.950 . S
H2810 C2833 0.950 . S
H2811 C2835 0.950 . S
H2812 C2836 0.950 . S
H2813 C2837 0.951 . S
H2814 C2839 0.951 . S
H2815 C2841 0.950 . S
H2816 C2842 0.950 . S
H2817 C2844 0.950 . S
H2818 C2847 0.950 . S
H2819 C2848 0.950 . S
H2820 C2850 0.950 . S
H2821 C2851 0.950 . S
C2822 H2804 0.951 . S
C2822 C2823 1.366 . S
C2822 C2824 1.388 . S
C2823 C2822 1.366 . S
C2823 C2827 1.385 . S
C2824 H2805 0.951 . S
C2824 C2822 1.388 . S
C2824 C2825 1.366 . S
C2825 C2824 1.366 . S
C2825 C2826 1.414 . S
C2825 C2828 1.499 . S
C2826 H2806 0.950 . S
C2826 C2825 1.414 . S
C2826 C2827 1.374 . S
C2827 H2807 0.950 . S
C2827 C2823 1.385 . S
C2827 C2826 1.374 . S
C2828 C2825 1.499 . S
C2828 C2829 1.373 . S
C2828 C2830 1.389 . S
C2829 H2808 0.950 . S
C2829 C2828 1.373 . S
C2829 C2845 1.377 . S
C2830 C2828 1.389 . S
C2830 C2831 1.524 . S
C2830 C2844 1.377 . S
C2831 C2830 1.524 . S
C2831 C2832 1.397 . S
C2831 C2836 1.363 . S
C2832 H2809 0.950 . S
C2832 C2831 1.397 . S
C2832 C2833 1.334 . S
C2833 H2810 0.950 . S
C2833 C2832 1.334 . S
C2833 C2834 1.287 . S
C2834 C2833 1.287 . S
C2834 C2835 1.524 . S
C2834 H2853 0.913 . S
C2835 H2811 0.950 . S
C2835 C2834 1.524 . S
C2835 C2836 1.415 . S
C2836 H2812 0.950 . S
C2836 C2831 1.363 . S
C2836 C2835 1.415 . S
C2837 H2813 0.951 . S
C2837 C2838 1.366 . S
C2837 C2839 1.388 . S
C2838 C2837 1.366 . S
C2838 C2842 1.385 . S
C2839 H2814 0.951 . S
C2839 C2837 1.388 . S
C2839 C2840 1.366 . S
C2840 C2839 1.366 . S
C2840 C2841 1.414 . S
C2840 C2843 1.499 . S
C2841 H2815 0.950 . S
C2841 C2840 1.414 . S
C2841 C2842 1.374 . S
C2842 H2816 0.950 . S
C2842 C2838 1.385 . S
C2842 C2841 1.374 . S
C2843 C2840 1.499 . S
C2843 C2844 1.373 . S
C2843 C2845 1.389 . S
C2844 H2817 0.950 . S
C2844 C2830 1.377 . S
C2844 C2843 1.373 . S
C2845 C2829 1.377 . S
C2845 C2843 1.389 . S
C2845 C2846 1.524 . S
C2846 C2845 1.524 . S
C2846 C2847 1.397 . S
C2846 C2851 1.363 . S
C2847 H2818 0.950 . S
C2847 C2846 1.397 . S
C2847 C2848 1.334 . S
C2848 H2819 0.950 . S
C2848 C2847 1.334 . S
C2848 C2849 1.287 . S
C2849 C2848 1.287 . S
C2849 C2850 1.524 . S
C2849 H2852 0.999 . S
C2850 H2820 0.950 . S
C2850 C2849 1.524 . S
C2850 C2851 1.415 . S
C2851 H2821 0.950 . S
C2851 C2846 1.363 . S
C2851 C2850 1.415 . S
H2852 C2849 0.999 . S
H2853 C2834 0.913 . S
H2854 C2872 0.951 . S
H2855 C2874 0.951 . S
H2856 C2876 0.950 . S
H2857 C2877 0.950 . S
H2858 C2879 0.950 . S
H2859 C2882 0.950 . S
H2860 C2883 0.950 . S
H2861 C2885 0.950 . S
H2862 C2886 0.950 . S
H2863 C2887 0.951 . S
H2864 C2889 0.951 . S
H2865 C2891 0.950 . S
H2866 C2892 0.950 . S
H2867 C2894 0.950 . S
H2868 C2897 0.950 . S
H2869 C2898 0.950 . S
H2870 C2900 0.950 . S
H2871 C2901 0.950 . S
C2872 H2854 0.951 . S
C2872 C2873 1.366 . S
C2872 C2874 1.388 . S
C2873 C2872 1.366 . S
C2873 C2877 1.385 . S
C2874 H2855 0.951 . S
C2874 C2872 1.388 . S
C2874 C2875 1.366 . S
C2875 C2874 1.366 . S
C2875 C2876 1.414 . S
C2875 C2878 1.499 . S
C2876 H2856 0.950 . S
C2876 C2875 1.414 . S
C2876 C2877 1.374 . S
C2877 H2857 0.950 . S
C2877 C2873 1.385 . S
C2877 C2876 1.374 . S
C2878 C2875 1.499 . S
C2878 C2879 1.373 . S
C2878 C2880 1.389 . S
C2879 H2858 0.950 . S
C2879 C2878 1.373 . S
C2879 C2895 1.377 . S
C2880 C2878 1.389 . S
C2880 C2881 1.524 . S
C2880 C2894 1.377 . S
C2881 C2880 1.524 . S
C2881 C2882 1.397 . S
C2881 C2886 1.363 . S
C2882 H2859 0.950 . S
C2882 C2881 1.397 . S
C2882 C2883 1.334 . S
C2883 H2860 0.950 . S
C2883 C2882 1.334 . S
C2883 C2884 1.287 . S
C2884 C2883 1.287 . S
C2884 C2885 1.524 . S
C2884 H2903 0.913 . S
C2885 H2861 0.950 . S
C2885 C2884 1.524 . S
C2885 C2886 1.415 . S
C2886 H2862 0.950 . S
C2886 C2881 1.363 . S
C2886 C2885 1.415 . S
C2887 H2863 0.951 . S
C2887 C2888 1.366 . S
C2887 C2889 1.388 . S
C2888 C2887 1.366 . S
C2888 C2892 1.385 . S
C2889 H2864 0.951 . S
C2889 C2887 1.388 . S
C2889 C2890 1.366 . S
C2890 C2889 1.366 . S
C2890 C2891 1.414 . S
C2890 C2893 1.499 . S
C2891 H2865 0.950 . S
C2891 C2890 1.414 . S
C2891 C2892 1.374 . S
C2892 H2866 0.950 . S
C2892 C2888 1.385 . S
C2892 C2891 1.374 . S
C2893 C2890 1.499 . S
C2893 C2894 1.373 . S
C2893 C2895 1.389 . S
C2894 H2867 0.950 . S
C2894 C2880 1.377 . S
C2894 C2893 1.373 . S
C2895 C2879 1.377 . S
C2895 C2893 1.389 . S
C2895 C2896 1.524 . S
C2896 C2895 1.524 . S
C2896 C2897 1.397 . S
C2896 C2901 1.363 . S
C2897 H2868 0.950 . S
C2897 C2896 1.397 . S
C2897 C2898 1.334 . S
C2898 H2869 0.950 . S
C2898 C2897 1.334 . S
C2898 C2899 1.287 . S
C2899 C2898 1.287 . S
C2899 C2900 1.524 . S
C2899 H2902 0.999 . S
C2900 H2870 0.950 . S
C2900 C2899 1.524 . S
C2900 C2901 1.415 . S
C2901 H2871 0.950 . S
C2901 C2896 1.363 . S
C2901 C2900 1.415 . S
H2902 C2899 0.999 . S
H2903 C2884 0.913 . S
H2904 C2922 0.951 . S
H2905 C2924 0.951 . S
H2906 C2926 0.950 . S
H2907 C2927 0.950 . S
H2908 C2929 0.950 . S
H2909 C2932 0.950 . S
H2910 C2933 0.950 . S
H2911 C2935 0.950 . S
H2912 C2936 0.950 . S
H2913 C2937 0.951 . S
H2914 C2939 0.951 . S
H2915 C2941 0.950 . S
H2916 C2942 0.950 . S
H2917 C2944 0.950 . S
H2918 C2947 0.950 . S
H2919 C2948 0.950 . S
H2920 C2950 0.950 . S
H2921 C2951 0.950 . S
C2922 H2904 0.951 . S
C2922 C2923 1.366 . S
C2922 C2924 1.388 . S
C2923 C2922 1.366 . S
C2923 C2927 1.385 . S
C2924 H2905 0.951 . S
C2924 C2922 1.388 . S
C2924 C2925 1.366 . S
C2925 C2924 1.366 . S
C2925 C2926 1.414 . S
C2925 C2928 1.499 . S
C2926 H2906 0.950 . S
C2926 C2925 1.414 . S
C2926 C2927 1.374 . S
C2927 H2907 0.950 . S
C2927 C2923 1.385 . S
C2927 C2926 1.374 . S
C2928 C2925 1.499 . S
C2928 C2929 1.373 . S
C2928 C2930 1.389 . S
C2929 H2908 0.950 . S
C2929 C2928 1.373 . S
C2929 C2945 1.377 1_455 S
C2930 C2928 1.389 . S
C2930 C2931 1.524 . S
C2930 C2944 1.377 1_455 S
C2931 C2930 1.524 . S
C2931 C2932 1.397 . S
C2931 C2936 1.363 . S
C2932 H2909 0.950 . S
C2932 C2931 1.397 . S
C2932 C2933 1.334 . S
C2933 H2910 0.950 . S
C2933 C2932 1.334 . S
C2933 C2934 1.287 . S
C2934 C2933 1.287 . S
C2934 C2935 1.524 . S
C2934 H2953 0.913 . S
C2935 H2911 0.950 . S
C2935 C2934 1.524 . S
C2935 C2936 1.415 . S
C2936 H2912 0.950 . S
C2936 C2931 1.363 . S
C2936 C2935 1.415 . S
C2937 H2913 0.951 . S
C2937 C2938 1.366 . S
C2937 C2939 1.388 . S
C2938 C2937 1.366 . S
C2938 C2942 1.385 . S
C2939 H2914 0.951 . S
C2939 C2937 1.388 . S
C2939 C2940 1.366 . S
C2940 C2939 1.366 . S
C2940 C2941 1.414 . S
C2940 C2943 1.499 . S
C2941 H2915 0.950 . S
C2941 C2940 1.414 . S
C2941 C2942 1.374 . S
C2942 H2916 0.950 . S
C2942 C2938 1.385 . S
C2942 C2941 1.374 . S
C2943 C2940 1.499 . S
C2943 C2944 1.373 . S
C2943 C2945 1.389 . S
C2944 H2917 0.950 . S
C2944 C2930 1.377 1_655 S
C2944 C2943 1.373 . S
C2945 C2929 1.377 1_655 S
C2945 C2943 1.389 . S
C2945 C2946 1.524 . S
C2946 C2945 1.524 . S
C2946 C2947 1.397 . S
C2946 C2951 1.363 . S
C2947 H2918 0.950 . S
C2947 C2946 1.397 . S
C2947 C2948 1.334 . S
C2948 H2919 0.950 . S
C2948 C2947 1.334 . S
C2948 C2949 1.287 . S
C2949 C2948 1.287 . S
C2949 C2950 1.524 . S
C2949 H2952 0.999 . S
C2950 H2920 0.950 . S
C2950 C2949 1.524 . S
C2950 C2951 1.415 . S
C2951 H2921 0.950 . S
C2951 C2946 1.363 . S
C2951 C2950 1.415 . S
H2952 C2949 0.999 . S
H2953 C2934 0.913 . S
H2954 C2972 0.951 . S
H2955 C2974 0.951 . S
H2956 C2976 0.950 . S
H2957 C2977 0.950 . S
H2958 C2979 0.950 . S
H2959 C2982 0.950 . S
H2960 C2983 0.950 . S
H2961 C2985 0.950 . S
H2962 C2986 0.950 . S
H2963 C2987 0.951 . S
H2964 C2989 0.951 . S
H2965 C2991 0.950 . S
H2966 C2992 0.950 . S
H2967 C2994 0.950 . S
H2968 C2997 0.950 . S
H2969 C2998 0.950 . S
H2970 C3000 0.950 . S
H2971 C3001 0.950 . S
C2972 H2954 0.951 . S
C2972 C2973 1.366 . S
C2972 C2974 1.388 . S
C2973 C2972 1.366 . S
C2973 C2977 1.385 . S
C2974 H2955 0.951 . S
C2974 C2972 1.388 . S
C2974 C2975 1.366 . S
C2975 C2974 1.366 . S
C2975 C2976 1.414 . S
C2975 C2978 1.499 . S
C2976 H2956 0.950 . S
C2976 C2975 1.414 . S
C2976 C2977 1.374 . S
C2977 H2957 0.950 . S
C2977 C2973 1.385 . S
C2977 C2976 1.374 . S
C2978 C2975 1.499 . S
C2978 C2979 1.373 . S
C2978 C2980 1.389 . S
C2979 H2958 0.950 . S
C2979 C2978 1.373 . S
C2979 C2995 1.377 . S
C2980 C2978 1.389 . S
C2980 C2981 1.524 . S
C2980 C2994 1.377 . S
C2981 C2980 1.524 . S
C2981 C2982 1.397 . S
C2981 C2986 1.363 . S
C2982 H2959 0.950 . S
C2982 C2981 1.397 . S
C2982 C2983 1.334 . S
C2983 H2960 0.950 . S
C2983 C2982 1.334 . S
C2983 C2984 1.287 . S
C2984 C2983 1.287 . S
C2984 C2985 1.524 . S
C2984 H3003 0.913 . S
C2985 H2961 0.950 . S
C2985 C2984 1.524 . S
C2985 C2986 1.415 . S
C2986 H2962 0.950 . S
C2986 C2981 1.363 . S
C2986 C2985 1.415 . S
C2987 H2963 0.951 . S
C2987 C2988 1.366 . S
C2987 C2989 1.388 . S
C2988 C2987 1.366 . S
C2988 C2992 1.385 . S
C2989 H2964 0.951 . S
C2989 C2987 1.388 . S
C2989 C2990 1.366 . S
C2990 C2989 1.366 . S
C2990 C2991 1.414 . S
C2990 C2993 1.499 . S
C2991 H2965 0.950 . S
C2991 C2990 1.414 . S
C2991 C2992 1.374 . S
C2992 H2966 0.950 . S
C2992 C2988 1.385 . S
C2992 C2991 1.374 . S
C2993 C2990 1.499 . S
C2993 C2994 1.373 . S
C2993 C2995 1.389 . S
C2994 H2967 0.950 . S
C2994 C2980 1.377 . S
C2994 C2993 1.373 . S
C2995 C2979 1.377 . S
C2995 C2993 1.389 . S
C2995 C2996 1.524 . S
C2996 C2995 1.524 . S
C2996 C2997 1.397 . S
C2996 C3001 1.363 . S
C2997 H2968 0.950 . S
C2997 C2996 1.397 . S
C2997 C2998 1.334 . S
C2998 H2969 0.950 . S
C2998 C2997 1.334 . S
C2998 C2999 1.287 . S
C2999 C2998 1.287 . S
C2999 C3000 1.524 . S
C2999 H3002 0.999 . S
C3000 H2970 0.950 . S
C3000 C2999 1.524 . S
C3000 C3001 1.415 . S
C3001 H2971 0.950 . S
C3001 C2996 1.363 . S
C3001 C3000 1.415 . S
H3002 C2999 0.999 . S
H3003 C2984 0.913 . S
H3004 C3022 0.951 . S
H3005 C3024 0.951 . S
H3006 C3026 0.950 . S
H3007 C3027 0.950 . S
H3008 C3029 0.950 . S
H3009 C3032 0.950 . S
H3010 C3033 0.950 . S
H3011 C3035 0.950 . S
H3012 C3036 0.950 . S
H3013 C3037 0.951 . S
H3014 C3039 0.951 . S
H3015 C3041 0.950 . S
H3016 C3042 0.950 . S
H3017 C3044 0.950 . S
H3018 C3047 0.950 . S
H3019 C3048 0.950 . S
H3020 C3050 0.950 . S
H3021 C3051 0.950 . S
C3022 H3004 0.951 . S
C3022 C3023 1.366 . S
C3022 C3024 1.388 . S
C3023 C3022 1.366 . S
C3023 C3027 1.385 . S
C3024 H3005 0.951 . S
C3024 C3022 1.388 . S
C3024 C3025 1.366 . S
C3025 C3024 1.366 . S
C3025 C3026 1.414 . S
C3025 C3028 1.499 . S
C3026 H3006 0.950 . S
C3026 C3025 1.414 . S
C3026 C3027 1.374 . S
C3027 H3007 0.950 . S
C3027 C3023 1.385 . S
C3027 C3026 1.374 . S
C3028 C3025 1.499 . S
C3028 C3029 1.373 . S
C3028 C3030 1.389 . S
C3029 H3008 0.950 . S
C3029 C3028 1.373 . S
C3029 C3045 1.377 1_545 S
C3030 C3028 1.389 . S
C3030 C3031 1.524 . S
C3030 C3044 1.377 1_545 S
C3031 C3030 1.524 . S
C3031 C3032 1.397 . S
C3031 C3036 1.363 . S
C3032 H3009 0.950 . S
C3032 C3031 1.397 . S
C3032 C3033 1.334 . S
C3033 H3010 0.950 . S
C3033 C3032 1.334 . S
C3033 C3034 1.287 . S
C3034 C3033 1.287 . S
C3034 C3035 1.524 . S
C3034 H3053 0.913 . S
C3035 H3011 0.950 . S
C3035 C3034 1.524 . S
C3035 C3036 1.415 . S
C3036 H3012 0.950 . S
C3036 C3031 1.363 . S
C3036 C3035 1.415 . S
C3037 H3013 0.951 . S
C3037 C3038 1.366 . S
C3037 C3039 1.388 . S
C3038 C3037 1.366 . S
C3038 C3042 1.385 . S
C3039 H3014 0.951 . S
C3039 C3037 1.388 . S
C3039 C3040 1.366 . S
C3040 C3039 1.366 . S
C3040 C3041 1.414 . S
C3040 C3043 1.499 . S
C3041 H3015 0.950 . S
C3041 C3040 1.414 . S
C3041 C3042 1.374 . S
C3042 H3016 0.950 . S
C3042 C3038 1.385 . S
C3042 C3041 1.374 . S
C3043 C3040 1.499 . S
C3043 C3044 1.373 . S
C3043 C3045 1.389 . S
C3044 H3017 0.950 . S
C3044 C3030 1.377 1_565 S
C3044 C3043 1.373 . S
C3045 C3029 1.377 1_565 S
C3045 C3043 1.389 . S
C3045 C3046 1.524 . S
C3046 C3045 1.524 . S
C3046 C3047 1.397 . S
C3046 C3051 1.363 . S
C3047 H3018 0.950 . S
C3047 C3046 1.397 . S
C3047 C3048 1.334 . S
C3048 H3019 0.950 . S
C3048 C3047 1.334 . S
C3048 C3049 1.287 . S
C3049 C3048 1.287 . S
C3049 C3050 1.524 . S
C3049 H3052 0.999 . S
C3050 H3020 0.950 . S
C3050 C3049 1.524 . S
C3050 C3051 1.415 . S
C3051 H3021 0.950 . S
C3051 C3046 1.363 . S
C3051 C3050 1.415 . S
H3052 C3049 0.999 . S
H3053 C3034 0.913 . S
H3054 C3072 0.951 . S
H3055 C3074 0.951 . S
H3056 C3076 0.950 . S
H3057 C3077 0.950 . S
H3058 C3079 0.950 . S
H3059 C3082 0.950 . S
H3060 C3083 0.950 . S
H3061 C3085 0.950 . S
H3062 C3086 0.950 . S
H3063 C3087 0.951 . S
H3064 C3089 0.951 . S
H3065 C3091 0.950 . S
H3066 C3092 0.950 . S
H3067 C3094 0.950 . S
H3068 C3097 0.950 . S
H3069 C3098 0.950 . S
H3070 C3100 0.950 . S
H3071 C3101 0.950 . S
C3072 H3054 0.951 . S
C3072 C3073 1.366 . S
C3072 C3074 1.388 . S
C3073 C3072 1.366 . S
C3073 C3077 1.385 . S
C3074 H3055 0.951 . S
C3074 C3072 1.388 . S
C3074 C3075 1.366 . S
C3075 C3074 1.366 . S
C3075 C3076 1.414 . S
C3075 C3078 1.499 . S
C3076 H3056 0.950 . S
C3076 C3075 1.414 . S
C3076 C3077 1.374 . S
C3077 H3057 0.950 . S
C3077 C3073 1.385 . S
C3077 C3076 1.374 . S
C3078 C3075 1.499 . S
C3078 C3079 1.373 . S
C3078 C3080 1.389 . S
C3079 H3058 0.950 . S
C3079 C3078 1.373 . S
C3079 C3095 1.377 1_545 S
C3080 C3078 1.389 . S
C3080 C3081 1.524 . S
C3080 C3094 1.377 1_545 S
C3081 C3080 1.524 . S
C3081 C3082 1.397 . S
C3081 C3086 1.363 . S
C3082 H3059 0.950 . S
C3082 C3081 1.397 . S
C3082 C3083 1.334 . S
C3083 H3060 0.950 . S
C3083 C3082 1.334 . S
C3083 C3084 1.287 . S
C3084 C3083 1.287 . S
C3084 C3085 1.524 . S
C3084 H3103 0.913 . S
C3085 H3061 0.950 . S
C3085 C3084 1.524 . S
C3085 C3086 1.415 . S
C3086 H3062 0.950 . S
C3086 C3081 1.363 . S
C3086 C3085 1.415 . S
C3087 H3063 0.951 . S
C3087 C3088 1.366 . S
C3087 C3089 1.388 . S
C3088 C3087 1.366 . S
C3088 C3092 1.385 . S
C3089 H3064 0.951 . S
C3089 C3087 1.388 . S
C3089 C3090 1.366 . S
C3090 C3089 1.366 . S
C3090 C3091 1.414 . S
C3090 C3093 1.499 . S
C3091 H3065 0.950 . S
C3091 C3090 1.414 . S
C3091 C3092 1.374 . S
C3092 H3066 0.950 . S
C3092 C3088 1.385 . S
C3092 C3091 1.374 . S
C3093 C3090 1.499 . S
C3093 C3094 1.373 . S
C3093 C3095 1.389 . S
C3094 H3067 0.950 . S
C3094 C3080 1.377 1_565 S
C3094 C3093 1.373 . S
C3095 C3079 1.377 1_565 S
C3095 C3093 1.389 . S
C3095 C3096 1.524 . S
C3096 C3095 1.524 . S
C3096 C3097 1.397 . S
C3096 C3101 1.363 . S
C3097 H3068 0.950 . S
C3097 C3096 1.397 . S
C3097 C3098 1.334 . S
C3098 H3069 0.950 . S
C3098 C3097 1.334 . S
C3098 C3099 1.287 . S
C3099 C3098 1.287 . S
C3099 C3100 1.524 . S
C3099 H3102 0.999 . S
C3100 H3070 0.950 . S
C3100 C3099 1.524 . S
C3100 C3101 1.415 . S
C3101 H3071 0.950 . S
C3101 C3096 1.363 . S
C3101 C3100 1.415 . S
H3102 C3099 0.999 . S
H3103 C3084 0.913 . S
H3104 C3122 0.951 . S
H3105 C3124 0.951 . S
H3106 C3126 0.950 . S
H3107 C3127 0.950 . S
H3108 C3129 0.950 . S
H3109 C3132 0.950 . S
H3110 C3133 0.950 . S
H3111 C3135 0.950 . S
H3112 C3136 0.998 . S
H3113 C3137 0.951 . S
H3114 C3139 0.951 . S
H3115 C3141 0.950 . S
H3116 C3142 0.950 . S
H3117 C3144 0.950 . S
H3118 C3147 0.950 . S
H3119 C3148 0.950 . S
H3120 C3150 0.950 . S
H3121 C3151 0.997 . S
C3122 H3104 0.951 . S
C3122 C3123 1.366 . S
C3122 C3124 1.388 . S
C3123 C3122 1.366 . S
C3123 C3127 1.385 . S
C3124 H3105 0.951 . S
C3124 C3122 1.388 . S
C3124 C3125 1.366 . S
C3125 C3124 1.366 . S
C3125 C3126 1.414 . S
C3125 C3128 1.499 . S
C3126 H3106 0.950 . S
C3126 C3125 1.414 . S
C3126 C3127 1.374 . S
C3127 H3107 0.950 . S
C3127 C3123 1.385 . S
C3127 C3126 1.374 . S
C3128 C3125 1.499 . S
C3128 C3129 1.373 . S
C3128 C3130 1.389 . S
C3129 H3108 0.950 . S
C3129 C3128 1.373 . S
C3129 C3145 1.377 1_655 S
C3130 C3128 1.389 . S
C3130 C3131 1.524 . S
C3130 C3144 1.377 1_655 S
C3131 C3130 1.524 . S
C3131 C3132 1.397 . S
C3131 C3136 1.363 . S
C3132 H3109 0.950 . S
C3132 C3131 1.397 . S
C3132 C3133 1.334 . S
C3133 H3110 0.950 . S
C3133 C3132 1.334 . S
C3133 C3134 1.287 . S
C3134 C3133 1.287 . S
C3134 C3135 1.524 . S
C3134 H3153 0.913 . S
C3135 H3111 0.950 . S
C3135 C3134 1.524 . S
C3135 C3136 1.415 . S
C3136 H3112 0.998 . S
C3136 C3131 1.363 . S
C3136 C3135 1.415 . S
C3137 H3113 0.951 . S
C3137 C3138 1.366 . S
C3137 C3139 1.388 . S
C3138 C3137 1.366 . S
C3138 C3142 1.385 . S
C3139 H3114 0.951 . S
C3139 C3137 1.388 . S
C3139 C3140 1.366 . S
C3140 C3139 1.366 . S
C3140 C3141 1.414 . S
C3140 C3143 1.499 . S
C3141 H3115 0.950 . S
C3141 C3140 1.414 . S
C3141 C3142 1.374 . S
C3142 H3116 0.950 . S
C3142 C3138 1.385 . S
C3142 C3141 1.374 . S
C3143 C3140 1.499 . S
C3143 C3144 1.373 . S
C3143 C3145 1.389 . S
C3144 H3117 0.950 . S
C3144 C3130 1.377 1_455 S
C3144 C3143 1.373 . S
C3145 C3129 1.377 1_455 S
C3145 C3143 1.389 . S
C3145 C3146 1.524 . S
C3146 C3145 1.524 . S
C3146 C3147 1.397 . S
C3146 C3151 1.363 . S
C3147 H3118 0.950 . S
C3147 C3146 1.397 . S
C3147 C3148 1.334 . S
C3148 H3119 0.950 . S
C3148 C3147 1.334 . S
C3148 C3149 1.287 . S
C3149 C3148 1.287 . S
C3149 C3150 1.524 . S
C3149 H3152 0.999 . S
C3150 H3120 0.950 . S
C3150 C3149 1.524 . S
C3150 C3151 1.415 . S
C3151 H3121 0.997 . S
C3151 C3146 1.363 . S
C3151 C3150 1.415 . S
H3152 C3149 0.999 . S
H3153 C3134 0.913 . S
H3154 C3172 0.951 . S
H3155 C3174 0.951 . S
H3156 C3176 0.950 . S
H3157 C3177 0.950 . S
H3158 C3179 0.950 . S
H3159 C3182 0.950 . S
H3160 C3183 0.950 . S
H3161 C3185 0.950 . S
H3162 C3186 0.950 . S
H3163 C3187 0.951 . S
H3164 C3189 0.951 . S
H3165 C3191 0.950 . S
H3166 C3192 0.950 . S
H3167 C3194 0.950 . S
H3168 C3197 0.950 . S
H3169 C3198 0.950 . S
H3170 C3200 0.950 . S
H3171 C3201 0.950 . S
C3172 H3154 0.951 . S
C3172 C3173 1.366 . S
C3172 C3174 1.388 . S
C3173 C3172 1.366 . S
C3173 C3177 1.385 . S
C3174 H3155 0.951 . S
C3174 C3172 1.388 . S
C3174 C3175 1.366 . S
C3175 C3174 1.366 . S
C3175 C3176 1.414 . S
C3175 C3178 1.499 . S
C3176 H3156 0.950 . S
C3176 C3175 1.414 . S
C3176 C3177 1.374 . S
C3177 H3157 0.950 . S
C3177 C3173 1.385 . S
C3177 C3176 1.374 . S
C3178 C3175 1.499 . S
C3178 C3179 1.373 . S
C3178 C3180 1.389 . S
C3179 H3158 0.950 . S
C3179 C3178 1.373 . S
C3179 C3195 1.377 . S
C3180 C3178 1.389 . S
C3180 C3181 1.524 . S
C3180 C3194 1.377 . S
C3181 C3180 1.524 . S
C3181 C3182 1.397 . S
C3181 C3186 1.363 . S
C3182 H3159 0.950 . S
C3182 C3181 1.397 . S
C3182 C3183 1.334 . S
C3183 H3160 0.950 . S
C3183 C3182 1.334 . S
C3183 C3184 1.287 . S
C3184 C3183 1.287 . S
C3184 C3185 1.524 . S
C3184 H3203 0.913 . S
C3185 H3161 0.950 . S
C3185 C3184 1.524 . S
C3185 C3186 1.415 . S
C3186 H3162 0.950 . S
C3186 C3181 1.363 . S
C3186 C3185 1.415 . S
C3187 H3163 0.951 . S
C3187 C3188 1.366 . S
C3187 C3189 1.388 . S
C3188 C3187 1.366 . S
C3188 C3192 1.385 . S
C3189 H3164 0.951 . S
C3189 C3187 1.388 . S
C3189 C3190 1.366 . S
C3190 C3189 1.366 . S
C3190 C3191 1.414 . S
C3190 C3193 1.499 . S
C3191 H3165 0.950 . S
C3191 C3190 1.414 . S
C3191 C3192 1.374 . S
C3192 H3166 0.950 . S
C3192 C3188 1.385 . S
C3192 C3191 1.374 . S
C3193 C3190 1.499 . S
C3193 C3194 1.373 . S
C3193 C3195 1.389 . S
C3194 H3167 0.950 . S
C3194 C3180 1.377 . S
C3194 C3193 1.373 . S
C3195 C3179 1.377 . S
C3195 C3193 1.389 . S
C3195 C3196 1.524 . S
C3196 C3195 1.524 . S
C3196 C3197 1.397 . S
C3196 C3201 1.363 . S
C3197 H3168 0.950 . S
C3197 C3196 1.397 . S
C3197 C3198 1.334 . S
C3198 H3169 0.950 . S
C3198 C3197 1.334 . S
C3198 C3199 1.287 . S
C3199 C3198 1.287 . S
C3199 C3200 1.524 . S
C3199 H3202 0.999 . S
C3200 H3170 0.950 . S
C3200 C3199 1.524 . S
C3200 C3201 1.415 . S
C3201 H3171 0.950 . S
C3201 C3196 1.363 . S
C3201 C3200 1.415 . S
H3202 C3199 0.999 . S
H3203 C3184 0.913 . S
H3204 C3222 0.951 . S
H3205 C3224 0.951 . S
H3206 C3226 0.950 . S
H3207 C3227 0.950 . S
H3208 C3229 0.950 . S
H3209 C3232 0.950 . S
H3210 C3233 0.950 . S
H3211 C3235 0.950 . S
H3212 C3236 0.950 . S
H3213 C3237 0.951 . S
H3214 C3239 0.951 . S
H3215 C3241 0.950 . S
H3216 C3242 0.950 . S
H3217 C3244 0.950 . S
H3218 C3247 0.950 . S
H3219 C3248 0.950 . S
H3220 C3250 0.950 . S
H3221 C3251 0.950 . S
C3222 H3204 0.951 . S
C3222 C3223 1.366 . S
C3222 C3224 1.388 . S
C3223 C3222 1.366 . S
C3223 C3227 1.385 . S
C3224 H3205 0.951 . S
C3224 C3222 1.388 . S
C3224 C3225 1.366 . S
C3225 C3224 1.366 . S
C3225 C3226 1.414 . S
C3225 C3228 1.499 . S
C3226 H3206 0.950 . S
C3226 C3225 1.414 . S
C3226 C3227 1.374 . S
C3227 H3207 0.950 . S
C3227 C3223 1.385 . S
C3227 C3226 1.374 . S
C3228 C3225 1.499 . S
C3228 C3229 1.373 . S
C3228 C3230 1.389 . S
C3229 H3208 0.950 . S
C3229 C3228 1.373 . S
C3229 C3245 1.377 . S
C3230 C3228 1.389 . S
C3230 C3231 1.524 . S
C3230 C3244 1.377 . S
C3231 C3230 1.524 . S
C3231 C3232 1.397 . S
C3231 C3236 1.363 . S
C3232 H3209 0.950 . S
C3232 C3231 1.397 . S
C3232 C3233 1.334 . S
C3233 H3210 0.950 . S
C3233 C3232 1.334 . S
C3233 C3234 1.287 . S
C3234 C3233 1.287 . S
C3234 C3235 1.524 . S
C3234 H3253 0.913 . S
C3235 H3211 0.950 . S
C3235 C3234 1.524 . S
C3235 C3236 1.415 . S
C3236 H3212 0.950 . S
C3236 C3231 1.363 . S
C3236 C3235 1.415 . S
C3237 H3213 0.951 . S
C3237 C3238 1.366 . S
C3237 C3239 1.388 . S
C3238 C3237 1.366 . S
C3238 C3242 1.385 . S
C3239 H3214 0.951 . S
C3239 C3237 1.388 . S
C3239 C3240 1.366 . S
C3240 C3239 1.366 . S
C3240 C3241 1.414 . S
C3240 C3243 1.499 . S
C3241 H3215 0.950 . S
C3241 C3240 1.414 . S
C3241 C3242 1.374 . S
C3242 H3216 0.950 . S
C3242 C3238 1.385 . S
C3242 C3241 1.374 . S
C3243 C3240 1.499 . S
C3243 C3244 1.373 . S
C3243 C3245 1.389 . S
C3244 H3217 0.950 . S
C3244 C3230 1.377 . S
C3244 C3243 1.373 . S
C3245 C3229 1.377 . S
C3245 C3243 1.389 . S
C3245 C3246 1.524 . S
C3246 C3245 1.524 . S
C3246 C3247 1.397 . S
C3246 C3251 1.363 . S
C3247 H3218 0.950 . S
C3247 C3246 1.397 . S
C3247 C3248 1.334 . S
C3248 H3219 0.950 . S
C3248 C3247 1.334 . S
C3248 C3249 1.287 . S
C3249 C3248 1.287 . S
C3249 C3250 1.524 . S
C3249 H3252 0.999 . S
C3250 H3220 0.950 . S
C3250 C3249 1.524 . S
C3250 C3251 1.415 . S
C3251 H3221 0.950 . S
C3251 C3246 1.363 . S
C3251 C3250 1.415 . S
H3252 C3249 0.999 . S
H3253 C3234 0.913 . S
H3254 C3272 0.951 . S
H3255 C3274 0.951 . S
H3256 C3276 0.950 . S
H3257 C3277 0.950 . S
H3258 C3279 0.950 . S
H3259 C3282 0.950 . S
H3260 C3283 0.950 . S
H3261 C3285 0.950 . S
H3262 C3286 0.950 . S
H3263 C3287 0.951 . S
H3264 C3289 0.951 . S
H3265 C3291 0.950 . S
H3266 C3292 0.950 . S
H3267 C3294 0.950 . S
H3268 C3297 0.950 . S
H3269 C3298 0.950 . S
H3270 C3300 0.950 . S
H3271 C3301 0.950 . S
C3272 H3254 0.951 . S
C3272 C3273 1.366 . S
C3272 C3274 1.388 . S
C3273 C3272 1.366 . S
C3273 C3277 1.385 . S
C3274 H3255 0.951 . S
C3274 C3272 1.388 . S
C3274 C3275 1.366 . S
C3275 C3274 1.366 . S
C3275 C3276 1.414 . S
C3275 C3278 1.499 . S
C3276 H3256 0.950 . S
C3276 C3275 1.414 . S
C3276 C3277 1.374 . S
C3277 H3257 0.950 . S
C3277 C3273 1.385 . S
C3277 C3276 1.374 . S
C3278 C3275 1.499 . S
C3278 C3279 1.373 . S
C3278 C3280 1.389 . S
C3279 H3258 0.950 . S
C3279 C3278 1.373 . S
C3279 C3295 1.377 . S
C3280 C3278 1.389 . S
C3280 C3281 1.524 . S
C3280 C3294 1.377 . S
C3281 C3280 1.524 . S
C3281 C3282 1.397 . S
C3281 C3286 1.363 . S
C3282 H3259 0.950 . S
C3282 C3281 1.397 . S
C3282 C3283 1.334 . S
C3283 H3260 0.950 . S
C3283 C3282 1.334 . S
C3283 C3284 1.287 . S
C3284 C3283 1.287 . S
C3284 C3285 1.524 . S
C3284 H3303 0.913 . S
C3285 H3261 0.950 . S
C3285 C3284 1.524 . S
C3285 C3286 1.415 . S
C3286 H3262 0.950 . S
C3286 C3281 1.363 . S
C3286 C3285 1.415 . S
C3287 H3263 0.951 . S
C3287 C3288 1.366 . S
C3287 C3289 1.388 . S
C3288 C3287 1.366 . S
C3288 C3292 1.385 . S
C3289 H3264 0.951 . S
C3289 C3287 1.388 . S
C3289 C3290 1.366 . S
C3290 C3289 1.366 . S
C3290 C3291 1.414 . S
C3290 C3293 1.499 . S
C3291 H3265 0.950 . S
C3291 C3290 1.414 . S
C3291 C3292 1.374 . S
C3292 H3266 0.950 . S
C3292 C3288 1.385 . S
C3292 C3291 1.374 . S
C3293 C3290 1.499 . S
C3293 C3294 1.373 . S
C3293 C3295 1.389 . S
C3294 H3267 0.950 . S
C3294 C3280 1.377 . S
C3294 C3293 1.373 . S
C3295 C3279 1.377 . S
C3295 C3293 1.389 . S
C3295 C3296 1.524 . S
C3296 C3295 1.524 . S
C3296 C3297 1.397 . S
C3296 C3301 1.363 . S
C3297 H3268 0.950 . S
C3297 C3296 1.397 . S
C3297 C3298 1.334 . S
C3298 H3269 0.950 . S
C3298 C3297 1.334 . S
C3298 C3299 1.287 . S
C3299 C3298 1.287 . S
C3299 C3300 1.524 . S
C3299 H3302 0.999 . S
C3300 H3270 0.950 . S
C3300 C3299 1.524 . S
C3300 C3301 1.415 . S
C3301 H3271 0.950 . S
C3301 C3296 1.363 . S
C3301 C3300 1.415 . S
H3302 C3299 0.999 . S
H3303 C3284 0.913 . S
H3304 C3322 0.951 . S
H3305 C3324 0.951 . S
H3306 C3326 0.950 . S
H3307 C3327 0.950 . S
H3308 C3329 0.950 . S
H3309 C3332 0.950 . S
H3310 C3333 0.950 . S
H3311 C3335 0.950 . S
H3312 C3336 0.950 . S
H3313 C3337 0.951 . S
H3314 C3339 0.951 . S
H3315 C3341 0.950 . S
H3316 C3342 0.950 . S
H3317 C3344 0.950 . S
H3318 C3347 0.950 . S
H3319 C3348 0.950 . S
H3320 C3350 0.950 . S
H3321 C3351 0.950 . S
C3322 H3304 0.951 . S
C3322 C3323 1.366 . S
C3322 C3324 1.388 . S
C3323 C3322 1.366 . S
C3323 C3327 1.385 . S
C3324 H3305 0.951 . S
C3324 C3322 1.388 . S
C3324 C3325 1.366 . S
C3325 C3324 1.366 . S
C3325 C3326 1.414 . S
C3325 C3328 1.499 . S
C3326 H3306 0.950 . S
C3326 C3325 1.414 . S
C3326 C3327 1.374 . S
C3327 H3307 0.950 . S
C3327 C3323 1.385 . S
C3327 C3326 1.374 . S
C3328 C3325 1.499 . S
C3328 C3329 1.373 . S
C3328 C3330 1.389 . S
C3329 H3308 0.950 . S
C3329 C3328 1.373 . S
C3329 C3345 1.377 . S
C3330 C3328 1.389 . S
C3330 C3331 1.524 . S
C3330 C3344 1.377 . S
C3331 C3330 1.524 . S
C3331 C3332 1.397 . S
C3331 C3336 1.363 . S
C3332 H3309 0.950 . S
C3332 C3331 1.397 . S
C3332 C3333 1.334 . S
C3333 H3310 0.950 . S
C3333 C3332 1.334 . S
C3333 C3334 1.287 . S
C3334 C3333 1.287 . S
C3334 C3335 1.524 . S
C3334 H3353 0.913 . S
C3335 H3311 0.950 . S
C3335 C3334 1.524 . S
C3335 C3336 1.415 . S
C3336 H3312 0.950 . S
C3336 C3331 1.363 . S
C3336 C3335 1.415 . S
C3337 H3313 0.951 . S
C3337 C3338 1.366 . S
C3337 C3339 1.388 . S
C3338 C3337 1.366 . S
C3338 C3342 1.385 . S
C3339 H3314 0.951 . S
C3339 C3337 1.388 . S
C3339 C3340 1.366 . S
C3340 C3339 1.366 . S
C3340 C3341 1.414 . S
C3340 C3343 1.499 . S
C3341 H3315 0.950 . S
C3341 C3340 1.414 . S
C3341 C3342 1.374 . S
C3342 H3316 0.950 . S
C3342 C3338 1.385 . S
C3342 C3341 1.374 . S
C3343 C3340 1.499 . S
C3343 C3344 1.373 . S
C3343 C3345 1.389 . S
C3344 H3317 0.950 . S
C3344 C3330 1.377 . S
C3344 C3343 1.373 . S
C3345 C3329 1.377 . S
C3345 C3343 1.389 . S
C3345 C3346 1.524 . S
C3346 C3345 1.524 . S
C3346 C3347 1.397 . S
C3346 C3351 1.363 . S
C3347 H3318 0.950 . S
C3347 C3346 1.397 . S
C3347 C3348 1.334 . S
C3348 H3319 0.950 . S
C3348 C3347 1.334 . S
C3348 C3349 1.287 . S
C3349 C3348 1.287 . S
C3349 C3350 1.524 . S
C3349 H3352 0.999 . S
C3350 H3320 0.950 . S
C3350 C3349 1.524 . S
C3350 C3351 1.415 . S
C3351 H3321 0.950 . S
C3351 C3346 1.363 . S
C3351 C3350 1.415 . S
H3352 C3349 0.999 . S
H3353 C3334 0.913 . S
H3354 C3372 0.951 . S
H3355 C3374 0.951 . S
H3356 C3376 0.950 . S
H3357 C3377 0.950 . S
H3358 C3379 0.950 . S
H3359 C3382 0.950 . S
H3360 C3383 0.950 . S
H3361 C3385 0.950 . S
H3362 C3386 0.950 . S
H3363 C3387 0.951 . S
H3364 C3389 0.951 . S
H3365 C3391 0.950 . S
H3366 C3392 0.950 . S
H3367 C3394 0.950 . S
H3368 C3397 0.950 . S
H3369 C3398 0.950 . S
H3370 C3400 0.950 . S
H3371 C3401 0.950 . S
C3372 H3354 0.951 . S
C3372 C3373 1.366 . S
C3372 C3374 1.388 . S
C3373 C3372 1.366 . S
C3373 C3377 1.385 . S
C3374 H3355 0.951 . S
C3374 C3372 1.388 . S
C3374 C3375 1.366 . S
C3375 C3374 1.366 . S
C3375 C3376 1.414 . S
C3375 C3378 1.499 . S
C3376 H3356 0.950 . S
C3376 C3375 1.414 . S
C3376 C3377 1.374 . S
C3377 H3357 0.950 . S
C3377 C3373 1.385 . S
C3377 C3376 1.374 . S
C3378 C3375 1.499 . S
C3378 C3379 1.373 . S
C3378 C3380 1.389 . S
C3379 H3358 0.950 . S
C3379 C3378 1.373 . S
C3379 C3395 1.377 . S
C3380 C3378 1.389 . S
C3380 C3381 1.524 . S
C3380 C3394 1.377 . S
C3381 C3380 1.524 . S
C3381 C3382 1.397 . S
C3381 C3386 1.363 . S
C3382 H3359 0.950 . S
C3382 C3381 1.397 . S
C3382 C3383 1.334 . S
C3383 H3360 0.950 . S
C3383 C3382 1.334 . S
C3383 C3384 1.287 . S
C3384 C3383 1.287 . S
C3384 C3385 1.524 . S
C3384 H3403 0.913 . S
C3385 H3361 0.950 . S
C3385 C3384 1.524 . S
C3385 C3386 1.415 . S
C3386 H3362 0.950 . S
C3386 C3381 1.363 . S
C3386 C3385 1.415 . S
C3387 H3363 0.951 . S
C3387 C3388 1.366 . S
C3387 C3389 1.388 . S
C3388 C3387 1.366 . S
C3388 C3392 1.385 . S
C3389 H3364 0.951 . S
C3389 C3387 1.388 . S
C3389 C3390 1.366 . S
C3390 C3389 1.366 . S
C3390 C3391 1.414 . S
C3390 C3393 1.499 . S
C3391 H3365 0.950 . S
C3391 C3390 1.414 . S
C3391 C3392 1.374 . S
C3392 H3366 0.950 . S
C3392 C3388 1.385 . S
C3392 C3391 1.374 . S
C3393 C3390 1.499 . S
C3393 C3394 1.373 . S
C3393 C3395 1.389 . S
C3394 H3367 0.950 . S
C3394 C3380 1.377 . S
C3394 C3393 1.373 . S
C3395 C3379 1.377 . S
C3395 C3393 1.389 . S
C3395 C3396 1.524 . S
C3396 C3395 1.524 . S
C3396 C3397 1.397 . S
C3396 C3401 1.363 . S
C3397 H3368 0.950 . S
C3397 C3396 1.397 . S
C3397 C3398 1.334 . S
C3398 H3369 0.950 . S
C3398 C3397 1.334 . S
C3398 C3399 1.287 . S
C3399 C3398 1.287 . S
C3399 C3400 1.524 . S
C3399 H3402 0.999 . S
C3400 H3370 0.950 . S
C3400 C3399 1.524 . S
C3400 C3401 1.415 . S
C3401 H3371 0.950 . S
C3401 C3396 1.363 . S
C3401 C3400 1.415 . S
H3402 C3399 0.999 . S
H3403 C3384 0.913 . S
H3404 C3422 0.951 . S
H3405 C3424 0.951 . S
H3406 C3426 0.950 . S
H3407 C3427 0.950 . S
H3408 C3429 0.950 . S
H3409 C3432 0.950 . S
H3410 C3433 0.950 . S
H3411 C3435 0.950 . S
H3412 C3436 0.950 . S
H3413 C3437 0.951 . S
H3414 C3439 0.951 . S
H3415 C3441 0.950 . S
H3416 C3442 0.950 . S
H3417 C3444 0.950 . S
H3418 C3447 0.950 . S
H3419 C3448 0.950 . S
H3420 C3450 0.950 . S
H3421 C3451 0.950 . S
C3422 H3404 0.951 . S
C3422 C3423 1.366 . S
C3422 C3424 1.388 . S
C3423 C3422 1.366 . S
C3423 C3427 1.385 . S
C3424 H3405 0.951 . S
C3424 C3422 1.388 . S
C3424 C3425 1.366 . S
C3425 C3424 1.366 . S
C3425 C3426 1.414 . S
C3425 C3428 1.499 . S
C3426 H3406 0.950 . S
C3426 C3425 1.414 . S
C3426 C3427 1.374 . S
C3427 H3407 0.950 . S
C3427 C3423 1.385 . S
C3427 C3426 1.374 . S
C3428 C3425 1.499 . S
C3428 C3429 1.373 . S
C3428 C3430 1.389 . S
C3429 H3408 0.950 . S
C3429 C3428 1.373 . S
C3429 C3445 1.377 . S
C3430 C3428 1.389 . S
C3430 C3431 1.524 . S
C3430 C3444 1.377 . S
C3431 C3430 1.524 . S
C3431 C3432 1.397 . S
C3431 C3436 1.363 . S
C3432 H3409 0.950 . S
C3432 C3431 1.397 . S
C3432 C3433 1.334 . S
C3433 H3410 0.950 . S
C3433 C3432 1.334 . S
C3433 C3434 1.287 . S
C3434 C3433 1.287 . S
C3434 C3435 1.524 . S
C3434 H3453 0.913 . S
C3435 H3411 0.950 . S
C3435 C3434 1.524 . S
C3435 C3436 1.415 . S
C3436 H3412 0.950 . S
C3436 C3431 1.363 . S
C3436 C3435 1.415 . S
C3437 H3413 0.951 . S
C3437 C3438 1.366 . S
C3437 C3439 1.388 . S
C3438 C3437 1.366 . S
C3438 C3442 1.385 . S
C3439 H3414 0.951 . S
C3439 C3437 1.388 . S
C3439 C3440 1.366 . S
C3440 C3439 1.366 . S
C3440 C3441 1.414 . S
C3440 C3443 1.499 . S
C3441 H3415 0.950 . S
C3441 C3440 1.414 . S
C3441 C3442 1.374 . S
C3442 H3416 0.950 . S
C3442 C3438 1.385 . S
C3442 C3441 1.374 . S
C3443 C3440 1.499 . S
C3443 C3444 1.373 . S
C3443 C3445 1.389 . S
C3444 H3417 0.950 . S
C3444 C3430 1.377 . S
C3444 C3443 1.373 . S
C3445 C3429 1.377 . S
C3445 C3443 1.389 . S
C3445 C3446 1.524 . S
C3446 C3445 1.524 . S
C3446 C3447 1.397 . S
C3446 C3451 1.363 . S
C3447 H3418 0.950 . S
C3447 C3446 1.397 . S
C3447 C3448 1.334 . S
C3448 H3419 0.950 . S
C3448 C3447 1.334 . S
C3448 C3449 1.287 . S
C3449 C3448 1.287 . S
C3449 C3450 1.524 . S
C3449 H3452 0.999 . S
C3450 H3420 0.950 . S
C3450 C3449 1.524 . S
C3450 C3451 1.415 . S
C3451 H3421 0.950 . S
C3451 C3446 1.363 . S
C3451 C3450 1.415 . S
H3452 C3449 0.999 . S
H3453 C3434 0.913 . S
H3454 C3472 0.951 . S
H3455 C3474 0.951 . S
H3456 C3476 0.950 . S
H3457 C3477 0.950 . S
H3458 C3479 0.950 . S
H3459 C3482 0.950 . S
H3460 C3483 0.950 . S
H3461 C3485 0.950 . S
H3462 C3486 0.950 . S
H3463 C3487 0.951 . S
H3464 C3489 0.951 . S
H3465 C3491 0.950 . S
H3466 C3492 0.950 . S
H3467 C3494 0.950 . S
H3468 C3497 0.950 . S
H3469 C3498 0.950 . S
H3470 C3500 0.950 . S
H3471 C3501 0.950 . S
C3472 H3454 0.951 . S
C3472 C3473 1.366 . S
C3472 C3474 1.388 . S
C3473 C3472 1.366 . S
C3473 C3477 1.385 . S
C3474 H3455 0.951 . S
C3474 C3472 1.388 . S
C3474 C3475 1.366 . S
C3475 C3474 1.366 . S
C3475 C3476 1.414 . S
C3475 C3478 1.499 . S
C3476 H3456 0.950 . S
C3476 C3475 1.414 . S
C3476 C3477 1.374 . S
C3477 H3457 0.950 . S
C3477 C3473 1.385 . S
C3477 C3476 1.374 . S
C3478 C3475 1.499 . S
C3478 C3479 1.373 . S
C3478 C3480 1.389 . S
C3479 H3458 0.950 . S
C3479 C3478 1.373 . S
C3479 C3495 1.377 . S
C3480 C3478 1.389 . S
C3480 C3481 1.524 . S
C3480 C3494 1.377 . S
C3481 C3480 1.524 . S
C3481 C3482 1.397 . S
C3481 C3486 1.363 . S
C3482 H3459 0.950 . S
C3482 C3481 1.397 . S
C3482 C3483 1.334 . S
C3483 H3460 0.950 . S
C3483 C3482 1.334 . S
C3483 C3484 1.287 . S
C3484 C3483 1.287 . S
C3484 C3485 1.524 . S
C3484 H3503 0.913 . S
C3485 H3461 0.950 . S
C3485 C3484 1.524 . S
C3485 C3486 1.415 . S
C3486 H3462 0.950 . S
C3486 C3481 1.363 . S
C3486 C3485 1.415 . S
C3487 H3463 0.951 . S
C3487 C3488 1.366 . S
C3487 C3489 1.388 . S
C3488 C3487 1.366 . S
C3488 C3492 1.385 . S
C3489 H3464 0.951 . S
C3489 C3487 1.388 . S
C3489 C3490 1.366 . S
C3490 C3489 1.366 . S
C3490 C3491 1.414 . S
C3490 C3493 1.499 . S
C3491 H3465 0.950 . S
C3491 C3490 1.414 . S
C3491 C3492 1.374 . S
C3492 H3466 0.950 . S
C3492 C3488 1.385 . S
C3492 C3491 1.374 . S
C3493 C3490 1.499 . S
C3493 C3494 1.373 . S
C3493 C3495 1.389 . S
C3494 H3467 0.950 . S
C3494 C3480 1.377 . S
C3494 C3493 1.373 . S
C3495 C3479 1.377 . S
C3495 C3493 1.389 . S
C3495 C3496 1.524 . S
C3496 C3495 1.524 . S
C3496 C3497 1.397 . S
C3496 C3501 1.363 . S
C3497 H3468 0.950 . S
C3497 C3496 1.397 . S
C3497 C3498 1.334 . S
C3498 H3469 0.950 . S
C3498 C3497 1.334 . S
C3498 C3499 1.287 . S
C3499 C3498 1.287 . S
C3499 C3500 1.524 . S
C3499 H3502 0.999 . S
C3500 H3470 0.950 . S
C3500 C3499 1.524 . S
C3500 C3501 1.415 . S
C3501 H3471 0.950 . S
C3501 C3496 1.363 . S
C3501 C3500 1.415 . S
H3502 C3499 0.999 . S
H3503 C3484 0.913 . S
H3504 C3522 0.951 . S
H3505 C3524 0.951 . S
H3506 C3526 0.950 . S
H3507 C3527 0.950 . S
H3508 C3529 0.950 . S
H3509 C3532 0.950 . S
H3510 C3533 0.950 . S
H3511 C3535 0.950 . S
H3512 C3536 0.950 . S
H3513 C3537 0.951 . S
H3514 C3539 0.951 . S
H3515 C3541 0.950 . S
H3516 C3542 0.950 . S
H3517 C3544 0.950 . S
H3518 C3547 0.950 . S
H3519 C3548 0.950 . S
H3520 C3550 0.950 . S
H3521 C3551 0.950 . S
C3522 H3504 0.951 . S
C3522 C3523 1.366 . S
C3522 C3524 1.388 . S
C3523 C3522 1.366 . S
C3523 C3527 1.385 . S
C3524 H3505 0.951 . S
C3524 C3522 1.388 . S
C3524 C3525 1.366 . S
C3525 C3524 1.366 . S
C3525 C3526 1.414 . S
C3525 C3528 1.499 . S
C3526 H3506 0.950 . S
C3526 C3525 1.414 . S
C3526 C3527 1.374 . S
C3527 H3507 0.950 . S
C3527 C3523 1.385 . S
C3527 C3526 1.374 . S
C3528 C3525 1.499 . S
C3528 C3529 1.373 . S
C3528 C3530 1.389 . S
C3529 H3508 0.950 . S
C3529 C3528 1.373 . S
C3529 C3545 1.377 . S
C3530 C3528 1.389 . S
C3530 C3531 1.524 . S
C3530 C3544 1.377 . S
C3531 C3530 1.524 . S
C3531 C3532 1.397 . S
C3531 C3536 1.363 . S
C3532 H3509 0.950 . S
C3532 C3531 1.397 . S
C3532 C3533 1.334 . S
C3533 H3510 0.950 . S
C3533 C3532 1.334 . S
C3533 C3534 1.287 . S
C3534 C3533 1.287 . S
C3534 C3535 1.524 . S
C3534 H3553 0.913 . S
C3535 H3511 0.950 . S
C3535 C3534 1.524 . S
C3535 C3536 1.415 . S
C3536 H3512 0.950 . S
C3536 C3531 1.363 . S
C3536 C3535 1.415 . S
C3537 H3513 0.951 . S
C3537 C3538 1.366 . S
C3537 C3539 1.388 . S
C3538 C3537 1.366 . S
C3538 C3542 1.385 . S
C3539 H3514 0.951 . S
C3539 C3537 1.388 . S
C3539 C3540 1.366 . S
C3540 C3539 1.366 . S
C3540 C3541 1.414 . S
C3540 C3543 1.499 . S
C3541 H3515 0.950 . S
C3541 C3540 1.414 . S
C3541 C3542 1.374 . S
C3542 H3516 0.950 . S
C3542 C3538 1.385 . S
C3542 C3541 1.374 . S
C3543 C3540 1.499 . S
C3543 C3544 1.373 . S
C3543 C3545 1.389 . S
C3544 H3517 0.950 . S
C3544 C3530 1.377 . S
C3544 C3543 1.373 . S
C3545 C3529 1.377 . S
C3545 C3543 1.389 . S
C3545 C3546 1.524 . S
C3546 C3545 1.524 . S
C3546 C3547 1.397 . S
C3546 C3551 1.363 . S
C3547 H3518 0.950 . S
C3547 C3546 1.397 . S
C3547 C3548 1.334 . S
C3548 H3519 0.950 . S
C3548 C3547 1.334 . S
C3548 C3549 1.287 . S
C3549 C3548 1.287 . S
C3549 C3550 1.524 . S
C3549 H3552 0.999 . S
C3550 H3520 0.950 . S
C3550 C3549 1.524 . S
C3550 C3551 1.415 . S
C3551 H3521 0.950 . S
C3551 C3546 1.363 . S
C3551 C3550 1.415 . S
H3552 C3549 0.999 . S
H3553 C3534 0.913 . S
H3554 C3572 0.951 . S
H3555 C3574 0.951 . S
H3556 C3576 0.950 . S
H3557 C3577 0.950 . S
H3558 C3579 0.950 . S
H3559 C3582 0.950 . S
H3560 C3583 0.950 . S
H3561 C3585 0.950 . S
H3562 C3586 0.950 . S
H3563 C3587 0.951 . S
H3564 C3589 0.951 . S
H3565 C3591 0.950 . S
H3566 C3592 0.950 . S
H3567 C3594 0.950 . S
H3568 C3597 0.950 . S
H3569 C3598 0.950 . S
H3570 C3600 0.950 . S
H3571 C3601 0.950 . S
C3572 H3554 0.951 . S
C3572 C3573 1.366 . S
C3572 C3574 1.388 . S
C3573 C3572 1.366 . S
C3573 C3577 1.385 . S
C3574 H3555 0.951 . S
C3574 C3572 1.388 . S
C3574 C3575 1.366 . S
C3575 C3574 1.366 . S
C3575 C3576 1.414 . S
C3575 C3578 1.499 . S
C3576 H3556 0.950 . S
C3576 C3575 1.414 . S
C3576 C3577 1.374 . S
C3577 H3557 0.950 . S
C3577 C3573 1.385 . S
C3577 C3576 1.374 . S
C3578 C3575 1.499 . S
C3578 C3579 1.373 . S
C3578 C3580 1.389 . S
C3579 H3558 0.950 . S
C3579 C3578 1.373 . S
C3579 C3595 1.377 . S
C3580 C3578 1.389 . S
C3580 C3581 1.524 . S
C3580 C3594 1.377 . S
C3581 C3580 1.524 . S
C3581 C3582 1.397 . S
C3581 C3586 1.363 . S
C3582 H3559 0.950 . S
C3582 C3581 1.397 . S
C3582 C3583 1.334 . S
C3583 H3560 0.950 . S
C3583 C3582 1.334 . S
C3583 C3584 1.287 . S
C3584 C3583 1.287 . S
C3584 C3585 1.524 . S
C3584 H3603 0.913 . S
C3585 H3561 0.950 . S
C3585 C3584 1.524 . S
C3585 C3586 1.415 . S
C3586 H3562 0.950 . S
C3586 C3581 1.363 . S
C3586 C3585 1.415 . S
C3587 H3563 0.951 . S
C3587 C3588 1.366 . S
C3587 C3589 1.388 . S
C3588 C3587 1.366 . S
C3588 C3592 1.385 . S
C3589 H3564 0.951 . S
C3589 C3587 1.388 . S
C3589 C3590 1.366 . S
C3590 C3589 1.366 . S
C3590 C3591 1.414 . S
C3590 C3593 1.499 . S
C3591 H3565 0.950 . S
C3591 C3590 1.414 . S
C3591 C3592 1.374 . S
C3592 H3566 0.950 . S
C3592 C3588 1.385 . S
C3592 C3591 1.374 . S
C3593 C3590 1.499 . S
C3593 C3594 1.373 . S
C3593 C3595 1.389 . S
C3594 H3567 0.950 . S
C3594 C3580 1.377 . S
C3594 C3593 1.373 . S
C3595 C3579 1.377 . S
C3595 C3593 1.389 . S
C3595 C3596 1.524 . S
C3596 C3595 1.524 . S
C3596 C3597 1.397 . S
C3596 C3601 1.363 . S
C3597 H3568 0.950 . S
C3597 C3596 1.397 . S
C3597 C3598 1.334 . S
C3598 H3569 0.950 . S
C3598 C3597 1.334 . S
C3598 C3599 1.287 . S
C3599 C3598 1.287 . S
C3599 C3600 1.524 . S
C3599 H3602 0.999 . S
C3600 H3570 0.950 . S
C3600 C3599 1.524 . S
C3600 C3601 1.415 . S
C3601 H3571 0.950 . S
C3601 C3596 1.363 . S
C3601 C3600 1.415 . S
H3602 C3599 0.999 . S
H3603 C3584 0.913 . S
H3604 C3622 0.951 . S
H3605 C3624 0.951 . S
H3606 C3626 0.950 . S
H3607 C3627 0.950 . S
H3608 C3629 0.950 . S
H3609 C3632 0.950 . S
H3610 C3633 0.950 . S
H3611 C3635 0.950 . S
H3612 C3636 0.950 . S
H3613 C3637 0.951 . S
H3614 C3639 0.951 . S
H3615 C3641 0.950 . S
H3616 C3642 0.950 . S
H3617 C3644 0.950 . S
H3618 C3647 0.950 . S
H3619 C3648 0.950 . S
H3620 C3650 0.950 . S
H3621 C3651 0.950 . S
C3622 H3604 0.951 . S
C3622 C3623 1.366 . S
C3622 C3624 1.388 . S
C3623 C3622 1.366 . S
C3623 C3627 1.385 . S
C3624 H3605 0.951 . S
C3624 C3622 1.388 . S
C3624 C3625 1.366 . S
C3625 C3624 1.366 . S
C3625 C3626 1.414 . S
C3625 C3628 1.499 . S
C3626 H3606 0.950 . S
C3626 C3625 1.414 . S
C3626 C3627 1.374 . S
C3627 H3607 0.950 . S
C3627 C3623 1.385 . S
C3627 C3626 1.374 . S
C3628 C3625 1.499 . S
C3628 C3629 1.373 . S
C3628 C3630 1.389 . S
C3629 H3608 0.950 . S
C3629 C3628 1.373 . S
C3629 C3645 1.377 . S
C3630 C3628 1.389 . S
C3630 C3631 1.524 . S
C3630 C3644 1.377 . S
C3631 C3630 1.524 . S
C3631 C3632 1.397 . S
C3631 C3636 1.363 . S
C3632 H3609 0.950 . S
C3632 C3631 1.397 . S
C3632 C3633 1.334 . S
C3633 H3610 0.950 . S
C3633 C3632 1.334 . S
C3633 C3634 1.287 . S
C3634 C3633 1.287 . S
C3634 C3635 1.524 . S
C3634 H3653 0.913 . S
C3635 H3611 0.950 . S
C3635 C3634 1.524 . S
C3635 C3636 1.415 . S
C3636 H3612 0.950 . S
C3636 C3631 1.363 . S
C3636 C3635 1.415 . S
C3637 H3613 0.951 . S
C3637 C3638 1.366 . S
C3637 C3639 1.388 . S
C3638 C3637 1.366 . S
C3638 C3642 1.385 . S
C3639 H3614 0.951 . S
C3639 C3637 1.388 . S
C3639 C3640 1.366 . S
C3640 C3639 1.366 . S
C3640 C3641 1.414 . S
C3640 C3643 1.499 . S
C3641 H3615 0.950 . S
C3641 C3640 1.414 . S
C3641 C3642 1.374 . S
C3642 H3616 0.950 . S
C3642 C3638 1.385 . S
C3642 C3641 1.374 . S
C3643 C3640 1.499 . S
C3643 C3644 1.373 . S
C3643 C3645 1.389 . S
C3644 H3617 0.950 . S
C3644 C3630 1.377 . S
C3644 C3643 1.373 . S
C3645 C3629 1.377 . S
C3645 C3643 1.389 . S
C3645 C3646 1.524 . S
C3646 C3645 1.524 . S
C3646 C3647 1.397 . S
C3646 C3651 1.363 . S
C3647 H3618 0.950 . S
C3647 C3646 1.397 . S
C3647 C3648 1.334 . S
C3648 H3619 0.950 . S
C3648 C3647 1.334 . S
C3648 C3649 1.287 . S
C3649 C3648 1.287 . S
C3649 C3650 1.524 . S
C3649 H3652 0.999 . S
C3650 H3620 0.950 . S
C3650 C3649 1.524 . S
C3650 C3651 1.415 . S
C3651 H3621 0.950 . S
C3651 C3646 1.363 . S
C3651 C3650 1.415 . S
H3652 C3649 0.999 . S
H3653 C3634 0.913 . S
H3654 C3672 0.951 . S
H3655 C3674 0.951 . S
H3656 C3676 0.950 . S
H3657 C3677 0.950 . S
H3658 C3679 0.950 . S
H3659 C3682 0.950 . S
H3660 C3683 0.950 . S
H3661 C3685 0.950 . S
H3662 C3686 0.950 . S
H3663 C3687 0.951 . S
H3664 C3689 0.951 . S
H3665 C3691 0.950 . S
H3666 C3692 0.950 . S
H3667 C3694 0.950 . S
H3668 C3697 0.950 . S
H3669 C3698 0.950 . S
H3670 C3700 0.950 . S
H3671 C3701 0.950 . S
C3672 H3654 0.951 . S
C3672 C3673 1.366 . S
C3672 C3674 1.388 . S
C3673 C3672 1.366 . S
C3673 C3677 1.385 . S
C3674 H3655 0.951 . S
C3674 C3672 1.388 . S
C3674 C3675 1.366 . S
C3675 C3674 1.366 . S
C3675 C3676 1.414 . S
C3675 C3678 1.499 . S
C3676 H3656 0.950 . S
C3676 C3675 1.414 . S
C3676 C3677 1.374 . S
C3677 H3657 0.950 . S
C3677 C3673 1.385 . S
C3677 C3676 1.374 . S
C3678 C3675 1.499 . S
C3678 C3679 1.373 . S
C3678 C3680 1.389 . S
C3679 H3658 0.950 . S
C3679 C3678 1.373 . S
C3679 C3695 1.377 . S
C3680 C3678 1.389 . S
C3680 C3681 1.524 . S
C3680 C3694 1.377 . S
C3681 C3680 1.524 . S
C3681 C3682 1.397 . S
C3681 C3686 1.363 . S
C3682 H3659 0.950 . S
C3682 C3681 1.397 . S
C3682 C3683 1.334 . S
C3683 H3660 0.950 . S
C3683 C3682 1.334 . S
C3683 C3684 1.287 . S
C3684 C3683 1.287 . S
C3684 C3685 1.524 . S
C3684 H3703 0.913 . S
C3685 H3661 0.950 . S
C3685 C3684 1.524 . S
C3685 C3686 1.415 . S
C3686 H3662 0.950 . S
C3686 C3681 1.363 . S
C3686 C3685 1.415 . S
C3687 H3663 0.951 . S
C3687 C3688 1.366 . S
C3687 C3689 1.388 . S
C3688 C3687 1.366 . S
C3688 C3692 1.385 . S
C3689 H3664 0.951 . S
C3689 C3687 1.388 . S
C3689 C3690 1.366 . S
C3690 C3689 1.366 . S
C3690 C3691 1.414 . S
C3690 C3693 1.499 . S
C3691 H3665 0.950 . S
C3691 C3690 1.414 . S
C3691 C3692 1.374 . S
C3692 H3666 0.950 . S
C3692 C3688 1.385 . S
C3692 C3691 1.374 . S
C3693 C3690 1.499 . S
C3693 C3694 1.373 . S
C3693 C3695 1.389 . S
C3694 H3667 0.950 . S
C3694 C3680 1.377 . S
C3694 C3693 1.373 . S
C3695 C3679 1.377 . S
C3695 C3693 1.389 . S
C3695 C3696 1.524 . S
C3696 C3695 1.524 . S
C3696 C3697 1.397 . S
C3696 C3701 1.363 1_554 S
C3697 H3668 0.950 . S
C3697 C3696 1.397 . S
C3697 C3698 1.334 . S
C3698 H3669 0.950 . S
C3698 C3697 1.334 . S
C3698 C3699 1.287 1_554 S
C3699 C3698 1.287 1_556 S
C3699 C3700 1.524 . S
C3699 H3702 0.999 . S
C3700 H3670 0.950 . S
C3700 C3699 1.524 . S
C3700 C3701 1.415 . S
C3701 H3671 0.950 . S
C3701 C3696 1.363 1_556 S
C3701 C3700 1.415 . S
H3702 C3699 0.999 . S
H3703 C3684 0.913 . S
H3704 C3722 0.951 . S
H3705 C3724 0.951 . S
H3706 C3726 0.950 . S
H3707 C3727 0.950 . S
H3708 C3729 0.950 . S
H3709 C3732 0.950 . S
H3710 C3733 0.950 . S
H3711 C3735 0.950 . S
H3712 C3736 0.950 1_554 S
H3713 C3737 0.951 . S
H3714 C3739 0.951 . S
H3715 C3741 0.950 . S
H3716 C3742 0.950 . S
H3717 C3744 0.950 . S
H3718 C3747 0.950 . S
H3719 C3748 0.950 . S
H3720 C3750 0.950 . S
H3721 C3751 0.950 . S
C3722 H3704 0.951 . S
C3722 C3723 1.366 . S
C3722 C3724 1.388 . S
C3723 C3722 1.366 . S
C3723 C3727 1.385 . S
C3724 H3705 0.951 . S
C3724 C3722 1.388 . S
C3724 C3725 1.366 . S
C3725 C3724 1.366 . S
C3725 C3726 1.414 . S
C3725 C3728 1.499 . S
C3726 H3706 0.950 . S
C3726 C3725 1.414 . S
C3726 C3727 1.374 . S
C3727 H3707 0.950 . S
C3727 C3723 1.385 . S
C3727 C3726 1.374 . S
C3728 C3725 1.499 . S
C3728 C3729 1.373 . S
C3728 C3730 1.389 . S
C3729 H3708 0.950 . S
C3729 C3728 1.373 . S
C3729 C3745 1.377 . S
C3730 C3728 1.389 . S
C3730 C3731 1.524 1_554 S
C3730 C3744 1.377 . S
C3731 C3730 1.524 1_556 S
C3731 C3732 1.397 . S
C3731 C3736 1.363 . S
C3732 H3709 0.950 . S
C3732 C3731 1.397 . S
C3732 C3733 1.334 . S
C3733 H3710 0.950 . S
C3733 C3732 1.334 . S
C3733 C3734 1.287 . S
C3734 C3733 1.287 . S
C3734 C3735 1.524 . S
C3734 H3753 0.913 . S
C3735 H3711 0.950 . S
C3735 C3734 1.524 . S
C3735 C3736 1.415 . S
C3736 H3712 0.950 1_556 S
C3736 C3731 1.363 . S
C3736 C3735 1.415 . S
C3737 H3713 0.951 . S
C3737 C3738 1.366 . S
C3737 C3739 1.388 . S
C3738 C3737 1.366 . S
C3738 C3742 1.385 . S
C3739 H3714 0.951 . S
C3739 C3737 1.388 . S
C3739 C3740 1.366 . S
C3740 C3739 1.366 . S
C3740 C3741 1.414 . S
C3740 C3743 1.499 . S
C3741 H3715 0.950 . S
C3741 C3740 1.414 . S
C3741 C3742 1.374 . S
C3742 H3716 0.950 . S
C3742 C3738 1.385 . S
C3742 C3741 1.374 . S
C3743 C3740 1.499 . S
C3743 C3744 1.373 . S
C3743 C3745 1.389 . S
C3744 H3717 0.950 . S
C3744 C3730 1.377 . S
C3744 C3743 1.373 . S
C3745 C3729 1.377 . S
C3745 C3743 1.389 . S
C3745 C3746 1.524 . S
C3746 C3745 1.524 . S
C3746 C3747 1.397 . S
C3746 C3751 1.363 . S
C3747 H3718 0.950 . S
C3747 C3746 1.397 . S
C3747 C3748 1.334 . S
C3748 H3719 0.950 . S
C3748 C3747 1.334 . S
C3748 C3749 1.287 . S
C3749 C3748 1.287 . S
C3749 C3750 1.524 . S
C3749 H3752 0.999 . S
C3750 H3720 0.950 . S
C3750 C3749 1.524 . S
C3750 C3751 1.415 . S
C3751 H3721 0.950 . S
C3751 C3746 1.363 . S
C3751 C3750 1.415 . S
H3752 C3749 0.999 . S
H3753 C3734 0.913 . S
H3754 C3772 0.951 . S
H3755 C3774 0.951 . S
H3756 C3776 0.950 . S
H3757 C3777 0.950 . S
H3758 C3779 0.950 . S
H3759 C3782 0.950 . S
H3760 C3783 0.950 . S
H3761 C3785 0.950 . S
H3762 C3786 0.950 . S
H3763 C3787 0.951 . S
H3764 C3789 0.951 . S
H3765 C3791 0.950 . S
H3766 C3792 0.950 . S
H3767 C3794 0.950 . S
H3768 C3797 0.950 . S
H3769 C3798 0.950 . S
H3770 C3800 0.950 . S
H3771 C3801 0.950 . S
C3772 H3754 0.951 . S
C3772 C3773 1.366 . S
C3772 C3774 1.388 . S
C3773 C3772 1.366 . S
C3773 C3777 1.385 . S
C3774 H3755 0.951 . S
C3774 C3772 1.388 . S
C3774 C3775 1.366 . S
C3775 C3774 1.366 . S
C3775 C3776 1.414 . S
C3775 C3778 1.499 . S
C3776 H3756 0.950 . S
C3776 C3775 1.414 . S
C3776 C3777 1.374 . S
C3777 H3757 0.950 . S
C3777 C3773 1.385 . S
C3777 C3776 1.374 . S
C3778 C3775 1.499 . S
C3778 C3779 1.373 . S
C3778 C3780 1.389 . S
C3779 H3758 0.950 . S
C3779 C3778 1.373 . S
C3779 C3795 1.377 . S
C3780 C3778 1.389 . S
C3780 C3781 1.524 . S
C3780 C3794 1.377 . S
C3781 C3780 1.524 . S
C3781 C3782 1.397 1_554 S
C3781 C3786 1.363 . S
C3782 H3759 0.950 . S
C3782 C3781 1.397 1_556 S
C3782 C3783 1.334 . S
C3783 H3760 0.950 . S
C3783 C3782 1.334 . S
C3783 C3784 1.287 . S
C3784 C3783 1.287 . S
C3784 C3785 1.524 . S
C3784 H3803 0.913 . S
C3785 H3761 0.950 . S
C3785 C3784 1.524 . S
C3785 C3786 1.415 1_556 S
C3786 H3762 0.950 . S
C3786 C3781 1.363 . S
C3786 C3785 1.415 1_554 S
C3787 H3763 0.951 . S
C3787 C3788 1.366 . S
C3787 C3789 1.388 . S
C3788 C3787 1.366 . S
C3788 C3792 1.385 . S
C3789 H3764 0.951 . S
C3789 C3787 1.388 . S
C3789 C3790 1.366 . S
C3790 C3789 1.366 . S
C3790 C3791 1.414 . S
C3790 C3793 1.499 . S
C3791 H3765 0.950 . S
C3791 C3790 1.414 . S
C3791 C3792 1.374 . S
C3792 H3766 0.950 . S
C3792 C3788 1.385 . S
C3792 C3791 1.374 . S
C3793 C3790 1.499 . S
C3793 C3794 1.373 . S
C3793 C3795 1.389 . S
C3794 H3767 0.950 . S
C3794 C3780 1.377 . S
C3794 C3793 1.373 . S
C3795 C3779 1.377 . S
C3795 C3793 1.389 . S
C3795 C3796 1.524 . S
C3796 C3795 1.524 . S
C3796 C3797 1.397 . S
C3796 C3801 1.363 . S
C3797 H3768 0.950 . S
C3797 C3796 1.397 . S
C3797 C3798 1.334 . S
C3798 H3769 0.950 . S
C3798 C3797 1.334 . S
C3798 C3799 1.287 . S
C3799 C3798 1.287 . S
C3799 C3800 1.524 . S
C3799 H3802 0.999 . S
C3800 H3770 0.950 . S
C3800 C3799 1.524 . S
C3800 C3801 1.415 . S
C3801 H3771 0.950 . S
C3801 C3796 1.363 . S
C3801 C3800 1.415 . S
H3802 C3799 0.999 . S
H3803 C3784 0.913 . S
H3804 C3822 0.951 . S
H3805 C3824 0.951 . S
H3806 C3826 0.950 . S
H3807 C3827 0.950 . S
H3808 C3829 0.950 . S
H3809 C3832 0.950 . S
H3810 C3833 0.950 . S
H3811 C3835 0.950 . S
H3812 C3836 0.950 . S
H3813 C3837 0.951 . S
H3814 C3839 0.951 . S
H3815 C3841 0.950 . S
H3816 C3842 0.950 . S
H3817 C3844 0.950 . S
H3818 C3847 0.950 . S
H3819 C3848 0.950 . S
H3820 C3850 0.950 . S
H3821 C3851 0.950 . S
C3822 H3804 0.951 . S
C3822 C3823 1.366 . S
C3822 C3824 1.388 . S
C3823 C3822 1.366 . S
C3823 C3827 1.385 . S
C3824 H3805 0.951 . S
C3824 C3822 1.388 . S
C3824 C3825 1.366 . S
C3825 C3824 1.366 . S
C3825 C3826 1.414 . S
C3825 C3828 1.499 . S
C3826 H3806 0.950 . S
C3826 C3825 1.414 . S
C3826 C3827 1.374 . S
C3827 H3807 0.950 . S
C3827 C3823 1.385 . S
C3827 C3826 1.374 . S
C3828 C3825 1.499 . S
C3828 C3829 1.373 . S
C3828 C3830 1.389 . S
C3829 H3808 0.950 . S
C3829 C3828 1.373 . S
C3829 C3845 1.377 . S
C3830 C3828 1.389 . S
C3830 C3831 1.524 . S
C3830 C3844 1.377 . S
C3831 C3830 1.524 . S
C3831 C3832 1.397 . S
C3831 C3836 1.363 1_556 S
C3832 H3809 0.950 . S
C3832 C3831 1.397 . S
C3832 C3833 1.334 . S
C3833 H3810 0.950 . S
C3833 C3832 1.334 . S
C3833 C3834 1.287 1_556 S
C3834 C3833 1.287 1_554 S
C3834 C3835 1.524 . S
C3834 H3853 0.913 . S
C3835 H3811 0.950 . S
C3835 C3834 1.524 . S
C3835 C3836 1.415 . S
C3836 H3812 0.950 . S
C3836 C3831 1.363 1_554 S
C3836 C3835 1.415 . S
C3837 H3813 0.951 . S
C3837 C3838 1.366 . S
C3837 C3839 1.388 . S
C3838 C3837 1.366 . S
C3838 C3842 1.385 . S
C3839 H3814 0.951 . S
C3839 C3837 1.388 . S
C3839 C3840 1.366 . S
C3840 C3839 1.366 . S
C3840 C3841 1.414 . S
C3840 C3843 1.499 . S
C3841 H3815 0.950 . S
C3841 C3840 1.414 . S
C3841 C3842 1.374 . S
C3842 H3816 0.950 . S
C3842 C3838 1.385 . S
C3842 C3841 1.374 . S
C3843 C3840 1.499 . S
C3843 C3844 1.373 . S
C3843 C3845 1.389 . S
C3844 H3817 0.950 . S
C3844 C3830 1.377 . S
C3844 C3843 1.373 . S
C3845 C3829 1.377 . S
C3845 C3843 1.389 . S
C3845 C3846 1.524 . S
C3846 C3845 1.524 . S
C3846 C3847 1.397 . S
C3846 C3851 1.363 . S
C3847 H3818 0.950 . S
C3847 C3846 1.397 . S
C3847 C3848 1.334 . S
C3848 H3819 0.950 . S
C3848 C3847 1.334 . S
C3848 C3849 1.287 . S
C3849 C3848 1.287 . S
C3849 C3850 1.524 . S
C3849 H3852 0.999 . S
C3850 H3820 0.950 . S
C3850 C3849 1.524 . S
C3850 C3851 1.415 . S
C3851 H3821 0.950 . S
C3851 C3846 1.363 . S
C3851 C3850 1.415 . S
H3852 C3849 0.999 . S
H3853 C3834 0.913 . S
H3854 C3872 0.951 . S
H3855 C3874 0.951 . S
H3856 C3876 0.950 . S
H3857 C3877 0.950 . S
H3858 C3879 0.950 . S
H3859 C3882 0.950 . S
H3860 C3883 0.950 . S
H3861 C3885 0.950 . S
H3862 C3886 0.950 . S
H3863 C3887 0.951 . S
H3864 C3889 0.951 . S
H3865 C3891 0.950 . S
H3866 C3892 0.950 . S
H3867 C3894 0.950 . S
H3868 C3897 0.950 . S
H3869 C3898 0.950 . S
H3870 C3900 0.950 . S
H3871 C3901 0.950 . S
C3872 H3854 0.951 . S
C3872 C3873 1.366 . S
C3872 C3874 1.388 . S
C3873 C3872 1.366 . S
C3873 C3877 1.385 . S
C3874 H3855 0.951 . S
C3874 C3872 1.388 . S
C3874 C3875 1.366 . S
C3875 C3874 1.366 . S
C3875 C3876 1.414 . S
C3875 C3878 1.499 . S
C3876 H3856 0.950 . S
C3876 C3875 1.414 . S
C3876 C3877 1.374 . S
C3877 H3857 0.950 . S
C3877 C3873 1.385 . S
C3877 C3876 1.374 . S
C3878 C3875 1.499 . S
C3878 C3879 1.373 . S
C3878 C3880 1.389 . S
C3879 H3858 0.950 . S
C3879 C3878 1.373 . S
C3879 C3895 1.377 . S
C3880 C3878 1.389 . S
C3880 C3881 1.524 . S
C3880 C3894 1.377 . S
C3881 C3880 1.524 . S
C3881 C3882 1.397 1_556 S
C3881 C3886 1.363 . S
C3882 H3859 0.950 . S
C3882 C3881 1.397 1_554 S
C3882 C3883 1.334 . S
C3883 H3860 0.950 . S
C3883 C3882 1.334 . S
C3883 C3884 1.287 . S
C3884 C3883 1.287 . S
C3884 C3885 1.524 . S
C3884 H3903 0.913 . S
C3885 H3861 0.950 . S
C3885 C3884 1.524 . S
C3885 C3886 1.415 1_554 S
C3886 H3862 0.950 . S
C3886 C3881 1.363 . S
C3886 C3885 1.415 1_556 S
C3887 H3863 0.951 . S
C3887 C3888 1.366 . S
C3887 C3889 1.388 . S
C3888 C3887 1.366 . S
C3888 C3892 1.385 . S
C3889 H3864 0.951 . S
C3889 C3887 1.388 . S
C3889 C3890 1.366 . S
C3890 C3889 1.366 . S
C3890 C3891 1.414 . S
C3890 C3893 1.499 . S
C3891 H3865 0.950 . S
C3891 C3890 1.414 . S
C3891 C3892 1.374 . S
C3892 H3866 0.950 . S
C3892 C3888 1.385 . S
C3892 C3891 1.374 . S
C3893 C3890 1.499 . S
C3893 C3894 1.373 . S
C3893 C3895 1.389 . S
C3894 H3867 0.950 . S
C3894 C3880 1.377 . S
C3894 C3893 1.373 . S
C3895 C3879 1.377 . S
C3895 C3893 1.389 . S
C3895 C3896 1.524 . S
C3896 C3895 1.524 . S
C3896 C3897 1.397 . S
C3896 C3901 1.363 . S
C3897 H3868 0.950 . S
C3897 C3896 1.397 . S
C3897 C3898 1.334 . S
C3898 H3869 0.950 . S
C3898 C3897 1.334 . S
C3898 C3899 1.287 . S
C3899 C3898 1.287 . S
C3899 C3900 1.524 . S
C3899 H3902 0.999 . S
C3900 H3870 0.950 . S
C3900 C3899 1.524 . S
C3900 C3901 1.415 . S
C3901 H3871 0.950 . S
C3901 C3896 1.363 . S
C3901 C3900 1.415 . S
H3902 C3899 0.999 . S
H3903 C3884 0.913 . S
H3904 C3922 0.951 . S
H3905 C3924 0.951 . S
H3906 C3926 0.950 . S
H3907 C3927 0.950 . S
H3908 C3929 0.950 . S
H3909 C3932 0.950 . S
H3910 C3933 0.950 . S
H3911 C3935 0.950 . S
H3912 C3936 0.950 . S
H3913 C3937 0.951 . S
H3914 C3939 0.951 . S
H3915 C3941 0.950 . S
H3916 C3942 0.950 . S
H3917 C3944 0.950 . S
H3918 C3947 0.950 . S
H3919 C3948 0.950 . S
H3920 C3950 0.950 . S
H3921 C3951 0.950 . S
C3922 H3904 0.951 . S
C3922 C3923 1.366 . S
C3922 C3924 1.388 . S
C3923 C3922 1.366 . S
C3923 C3927 1.385 . S
C3924 H3905 0.951 . S
C3924 C3922 1.388 . S
C3924 C3925 1.366 . S
C3925 C3924 1.366 . S
C3925 C3926 1.414 . S
C3925 C3928 1.499 . S
C3926 H3906 0.950 . S
C3926 C3925 1.414 . S
C3926 C3927 1.374 . S
C3927 H3907 0.950 . S
C3927 C3923 1.385 . S
C3927 C3926 1.374 . S
C3928 C3925 1.499 . S
C3928 C3929 1.373 . S
C3928 C3930 1.389 . S
C3929 H3908 0.950 . S
C3929 C3928 1.373 . S
C3929 C3945 1.377 . S
C3930 C3928 1.389 . S
C3930 C3931 1.524 . S
C3930 C3944 1.377 . S
C3931 C3930 1.524 . S
C3931 C3932 1.397 . S
C3931 C3936 1.363 1_556 S
C3932 H3909 0.950 . S
C3932 C3931 1.397 . S
C3932 C3933 1.334 . S
C3933 H3910 0.950 . S
C3933 C3932 1.334 . S
C3933 C3934 1.287 1_556 S
C3934 C3933 1.287 1_554 S
C3934 C3935 1.524 . S
C3934 H3953 0.913 . S
C3935 H3911 0.950 . S
C3935 C3934 1.524 . S
C3935 C3936 1.415 . S
C3936 H3912 0.950 . S
C3936 C3931 1.363 1_554 S
C3936 C3935 1.415 . S
C3937 H3913 0.951 . S
C3937 C3938 1.366 . S
C3937 C3939 1.388 . S
C3938 C3937 1.366 . S
C3938 C3942 1.385 . S
C3939 H3914 0.951 . S
C3939 C3937 1.388 . S
C3939 C3940 1.366 . S
C3940 C3939 1.366 . S
C3940 C3941 1.414 . S
C3940 C3943 1.499 . S
C3941 H3915 0.950 . S
C3941 C3940 1.414 . S
C3941 C3942 1.374 . S
C3942 H3916 0.950 . S
C3942 C3938 1.385 . S
C3942 C3941 1.374 . S
C3943 C3940 1.499 . S
C3943 C3944 1.373 . S
C3943 C3945 1.389 . S
C3944 H3917 0.950 . S
C3944 C3930 1.377 . S
C3944 C3943 1.373 . S
C3945 C3929 1.377 . S
C3945 C3943 1.389 . S
C3945 C3946 1.524 . S
C3946 C3945 1.524 . S
C3946 C3947 1.397 . S
C3946 C3951 1.363 . S
C3947 H3918 0.950 . S
C3947 C3946 1.397 . S
C3947 C3948 1.334 . S
C3948 H3919 0.950 . S
C3948 C3947 1.334 . S
C3948 C3949 1.287 . S
C3949 C3948 1.287 . S
C3949 C3950 1.524 . S
C3949 H3952 0.999 . S
C3950 H3920 0.950 . S
C3950 C3949 1.524 . S
C3950 C3951 1.415 . S
C3951 H3921 0.950 . S
C3951 C3946 1.363 . S
C3951 C3950 1.415 . S
H3952 C3949 0.999 . S
H3953 C3934 0.913 . S
H3954 C3972 0.951 . S
H3955 C3974 0.951 . S
H3956 C3976 0.950 . S
H3957 C3977 0.950 . S
H3958 C3979 0.950 . S
H3959 C3982 0.950 . S
H3960 C3983 0.950 . S
H3961 C3985 0.950 . S
H3962 C3986 0.950 . S
H3963 C3987 0.951 . S
H3964 C3989 0.951 . S
H3965 C3991 0.950 . S
H3966 C3992 0.950 . S
H3967 C3994 0.950 . S
H3968 C3997 0.950 . S
H3969 C3998 0.950 . S
H3970 C4000 0.950 . S
H3971 C4001 0.950 . S
C3972 H3954 0.951 . S
C3972 C3973 1.366 . S
C3972 C3974 1.388 . S
C3973 C3972 1.366 . S
C3973 C3977 1.385 . S
C3974 H3955 0.951 . S
C3974 C3972 1.388 . S
C3974 C3975 1.366 . S
C3975 C3974 1.366 . S
C3975 C3976 1.414 . S
C3975 C3978 1.499 . S
C3976 H3956 0.950 . S
C3976 C3975 1.414 . S
C3976 C3977 1.374 . S
C3977 H3957 0.950 . S
C3977 C3973 1.385 . S
C3977 C3976 1.374 . S
C3978 C3975 1.499 . S
C3978 C3979 1.373 . S
C3978 C3980 1.389 . S
C3979 H3958 0.950 . S
C3979 C3978 1.373 . S
C3979 C3995 1.377 . S
C3980 C3978 1.389 . S
C3980 C3981 1.524 . S
C3980 C3994 1.377 . S
C3981 C3980 1.524 . S
C3981 C3982 1.397 . S
C3981 C3986 1.363 . S
C3982 H3959 0.950 . S
C3982 C3981 1.397 . S
C3982 C3983 1.334 . S
C3983 H3960 0.950 . S
C3983 C3982 1.334 . S
C3983 C3984 1.287 . S
C3984 C3983 1.287 . S
C3984 C3985 1.524 . S
C3984 H4003 0.913 . S
C3985 H3961 0.950 . S
C3985 C3984 1.524 . S
C3985 C3986 1.415 . S
C3986 H3962 0.950 . S
C3986 C3981 1.363 . S
C3986 C3985 1.415 . S
C3987 H3963 0.951 . S
C3987 C3988 1.366 . S
C3987 C3989 1.388 . S
C3988 C3987 1.366 . S
C3988 C3992 1.385 . S
C3989 H3964 0.951 . S
C3989 C3987 1.388 . S
C3989 C3990 1.366 . S
C3990 C3989 1.366 . S
C3990 C3991 1.414 . S
C3990 C3993 1.499 . S
C3991 H3965 0.950 . S
C3991 C3990 1.414 . S
C3991 C3992 1.374 . S
C3992 H3966 0.950 . S
C3992 C3988 1.385 . S
C3992 C3991 1.374 . S
C3993 C3990 1.499 . S
C3993 C3994 1.373 . S
C3993 C3995 1.389 . S
C3994 H3967 0.950 . S
C3994 C3980 1.377 . S
C3994 C3993 1.373 . S
C3995 C3979 1.377 . S
C3995 C3993 1.389 . S
C3995 C3996 1.524 . S
C3996 C3995 1.524 . S
C3996 C3997 1.397 . S
C3996 C4001 1.363 . S
C3997 H3968 0.950 . S
C3997 C3996 1.397 . S
C3997 C3998 1.334 . S
C3998 H3969 0.950 . S
C3998 C3997 1.334 . S
C3998 C3999 1.287 . S
C3999 C3998 1.287 . S
C3999 C4000 1.524 . S
C3999 H4002 0.999 . S
C4000 H3970 0.950 . S
C4000 C3999 1.524 . S
C4000 C4001 1.415 . S
C4001 H3971 0.950 . S
C4001 C3996 1.363 . S
C4001 C4000 1.415 . S
H4002 C3999 0.999 . S
H4003 C3984 0.913 . S
H4004 C4022 0.951 . S
H4005 C4024 0.951 . S
H4006 C4026 0.950 . S
H4007 C4027 0.950 . S
H4008 C4029 0.950 . S
H4009 C4032 0.950 . S
H4010 C4033 0.950 . S
H4011 C4035 0.950 . S
H4012 C4036 0.950 . S
H4013 C4037 0.951 . S
H4014 C4039 0.951 . S
H4015 C4041 0.950 . S
H4016 C4042 0.950 . S
H4017 C4044 0.950 . S
H4018 C4047 0.950 . S
H4019 C4048 0.950 . S
H4020 C4050 0.950 . S
H4021 C4051 0.950 . S
C4022 H4004 0.951 . S
C4022 C4023 1.366 . S
C4022 C4024 1.388 . S
C4023 C4022 1.366 . S
C4023 C4027 1.385 . S
C4024 H4005 0.951 . S
C4024 C4022 1.388 . S
C4024 C4025 1.366 . S
C4025 C4024 1.366 . S
C4025 C4026 1.414 . S
C4025 C4028 1.499 . S
C4026 H4006 0.950 . S
C4026 C4025 1.414 . S
C4026 C4027 1.374 . S
C4027 H4007 0.950 . S
C4027 C4023 1.385 . S
C4027 C4026 1.374 . S
C4028 C4025 1.499 . S
C4028 C4029 1.373 . S
C4028 C4030 1.389 . S
C4029 H4008 0.950 . S
C4029 C4028 1.373 . S
C4029 C4045 1.377 . S
C4030 C4028 1.389 . S
C4030 C4031 1.524 . S
C4030 C4044 1.377 . S
C4031 C4030 1.524 . S
C4031 C4032 1.397 . S
C4031 C4036 1.363 . S
C4032 H4009 0.950 . S
C4032 C4031 1.397 . S
C4032 C4033 1.334 . S
C4033 H4010 0.950 . S
C4033 C4032 1.334 . S
C4033 C4034 1.287 . S
C4034 C4033 1.287 . S
C4034 C4035 1.524 . S
C4034 H4053 0.913 . S
C4035 H4011 0.950 . S
C4035 C4034 1.524 . S
C4035 C4036 1.415 . S
C4036 H4012 0.950 . S
C4036 C4031 1.363 . S
C4036 C4035 1.415 . S
C4037 H4013 0.951 . S
C4037 C4038 1.366 . S
C4037 C4039 1.388 . S
C4038 C4037 1.366 . S
C4038 C4042 1.385 . S
C4039 H4014 0.951 . S
C4039 C4037 1.388 . S
C4039 C4040 1.366 . S
C4040 C4039 1.366 . S
C4040 C4041 1.414 . S
C4040 C4043 1.499 . S
C4041 H4015 0.950 . S
C4041 C4040 1.414 . S
C4041 C4042 1.374 . S
C4042 H4016 0.950 . S
C4042 C4038 1.385 . S
C4042 C4041 1.374 . S
C4043 C4040 1.499 . S
C4043 C4044 1.373 . S
C4043 C4045 1.389 . S
C4044 H4017 0.950 . S
C4044 C4030 1.377 . S
C4044 C4043 1.373 . S
C4045 C4029 1.377 . S
C4045 C4043 1.389 . S
C4045 C4046 1.524 . S
C4046 C4045 1.524 . S
C4046 C4047 1.397 . S
C4046 C4051 1.363 . S
C4047 H4018 0.950 . S
C4047 C4046 1.397 . S
C4047 C4048 1.334 . S
C4048 H4019 0.950 . S
C4048 C4047 1.334 . S
C4048 C4049 1.287 . S
C4049 C4048 1.287 . S
C4049 C4050 1.524 . S
C4049 H4052 0.999 . S
C4050 H4020 0.950 . S
C4050 C4049 1.524 . S
C4050 C4051 1.415 . S
C4051 H4021 0.950 . S
C4051 C4046 1.363 . S
C4051 C4050 1.415 . S
H4052 C4049 0.999 . S
H4053 C4034 0.913 . S
H4054 C4072 0.951 . S
H4055 C4074 0.951 . S
H4056 C4076 0.950 . S
H4057 C4077 0.950 . S
H4058 C4079 0.950 . S
H4059 C4082 0.950 . S
H4060 C4083 0.950 . S
H4061 C4085 0.950 . S
H4062 C4086 0.950 . S
H4063 C4087 0.951 . S
H4064 C4089 0.951 . S
H4065 C4091 0.950 . S
H4066 C4092 0.950 . S
H4067 C4094 0.950 . S
H4068 C4097 0.950 . S
H4069 C4098 0.950 . S
H4070 C4100 0.950 . S
H4071 C4101 0.950 . S
C4072 H4054 0.951 . S
C4072 C4073 1.366 . S
C4072 C4074 1.388 . S
C4073 C4072 1.366 . S
C4073 C4077 1.385 . S
C4074 H4055 0.951 . S
C4074 C4072 1.388 . S
C4074 C4075 1.366 . S
C4075 C4074 1.366 . S
C4075 C4076 1.414 . S
C4075 C4078 1.499 . S
C4076 H4056 0.950 . S
C4076 C4075 1.414 . S
C4076 C4077 1.374 . S
C4077 H4057 0.950 . S
C4077 C4073 1.385 . S
C4077 C4076 1.374 . S
C4078 C4075 1.499 . S
C4078 C4079 1.373 . S
C4078 C4080 1.389 . S
C4079 H4058 0.950 . S
C4079 C4078 1.373 . S
C4079 C4095 1.377 . S
C4080 C4078 1.389 . S
C4080 C4081 1.524 . S
C4080 C4094 1.377 . S
C4081 C4080 1.524 . S
C4081 C4082 1.397 . S
C4081 C4086 1.363 . S
C4082 H4059 0.950 . S
C4082 C4081 1.397 . S
C4082 C4083 1.334 . S
C4083 H4060 0.950 . S
C4083 C4082 1.334 . S
C4083 C4084 1.287 . S
C4084 C4083 1.287 . S
C4084 C4085 1.524 . S
C4084 H4103 0.913 . S
C4085 H4061 0.950 . S
C4085 C4084 1.524 . S
C4085 C4086 1.415 . S
C4086 H4062 0.950 . S
C4086 C4081 1.363 . S
C4086 C4085 1.415 . S
C4087 H4063 0.951 . S
C4087 C4088 1.366 . S
C4087 C4089 1.388 . S
C4088 C4087 1.366 . S
C4088 C4092 1.385 . S
C4089 H4064 0.951 . S
C4089 C4087 1.388 . S
C4089 C4090 1.366 . S
C4090 C4089 1.366 . S
C4090 C4091 1.414 . S
C4090 C4093 1.499 . S
C4091 H4065 0.950 . S
C4091 C4090 1.414 . S
C4091 C4092 1.374 . S
C4092 H4066 0.950 . S
C4092 C4088 1.385 . S
C4092 C4091 1.374 . S
C4093 C4090 1.499 . S
C4093 C4094 1.373 . S
C4093 C4095 1.389 . S
C4094 H4067 0.950 . S
C4094 C4080 1.377 . S
C4094 C4093 1.373 . S
C4095 C4079 1.377 . S
C4095 C4093 1.389 . S
C4095 C4096 1.524 . S
C4096 C4095 1.524 . S
C4096 C4097 1.397 . S
C4096 C4101 1.363 . S
C4097 H4068 0.950 . S
C4097 C4096 1.397 . S
C4097 C4098 1.334 . S
C4098 H4069 0.950 . S
C4098 C4097 1.334 . S
C4098 C4099 1.287 . S
C4099 C4098 1.287 . S
C4099 C4100 1.524 . S
C4099 H4102 0.999 . S
C4100 H4070 0.950 . S
C4100 C4099 1.524 . S
C4100 C4101 1.415 . S
C4101 H4071 0.950 . S
C4101 C4096 1.363 . S
C4101 C4100 1.415 . S
H4102 C4099 0.999 . S
H4103 C4084 0.913 . S
C523 C76 1.208 . S
C538 C6 1.210 . S
C573 C48 1.208 . S
C588 C20 1.209 . S
C623 C34 1.208 . S
C638 C62 1.210 . S
C673 C90 1.210 . S
C688 C160 1.208 . S
C723 C104 1.209 . S
C738 C132 1.209 . S
C773 C146 1.209 . S
C788 C118 1.209 . S
C823 C174 1.209 . S
C838 C244 1.208 1_556 S
C873 C188 1.209 . S
C888 C216 1.209 1_556 S
C923 C202 1.209 . S
C938 C230 1.210 1_556 S
C973 C328 1.208 . S
C988 C258 1.210 1_556 S
C1023 C272 1.209 1_556 S
C1038 C300 1.209 . S
C1073 C314 1.209 . S
C1088 C286 1.209 1_556 S
C1123 C412 1.208 . S
C1138 C342 1.209 1_554 S
C1173 C384 1.209 . S
C1188 C356 1.209 1_554 S
C1223 C398 1.208 . S
C1238 C370 1.210 1_554 S
C1273 C426 1.208 . S
C1288 C496 1.209 1_554 S
C1323 C440 1.208 . S
C1338 C468 1.209 1_554 S
C1373 C454 1.209 . S
C1388 C482 1.210 1_554 S
C1423 C78 2.138 . S
C1438 C8 2.138 . S
C1473 C22 2.138 . S
C1488 C50 2.138 . S
C1523 C64 2.138 . S
C1538 C36 2.138 . S
C1573 C92 2.138 . S
C1588 C162 2.138 . S
C1623 C106 2.138 . S
C1638 C134 2.138 . S
C1673 C148 2.138 . S
C1688 C120 2.138 . S
C1723 C176 2.138 . S
C1738 C246 2.138 . S
C1773 C218 2.138 . S
C1788 C190 2.138 . S
C1823 C232 2.138 . S
C1838 C204 2.138 . S
C1873 C260 2.138 . S
C1888 C330 2.138 . S
C1923 C274 2.138 . S
C1938 C302 2.138 . S
C1973 C316 2.138 . S
C1988 C288 2.138 . S
C2023 C414 2.138 . S
C2038 C344 2.138 . S
C2073 C358 2.138 . S
C2088 C386 2.138 . S
C2123 C372 2.138 . S
C2138 C400 2.138 . S
C2173 C498 2.138 . S
C2188 C428 2.138 . S
C2223 C470 2.138 . S
C2238 C442 2.138 . S
C2273 C484 2.138 . S
C2288 C456 2.139 . S
C2323 C233 1.597 . S
C2338 C9 1.597 . S
C2373 C247 1.597 . S
C2388 C23 1.597 . S
C2423 C219 1.597 . S
C2438 C37 1.597 . S
C2473 C51 1.597 . S
C2488 C373 1.597 . S
C2523 C65 1.597 . S
C2538 C345 1.597 . S
C2573 C79 1.596 . S
C2588 C359 1.597 . S
C2623 C93 1.597 . S
C2638 C485 1.597 . S
C2673 C107 1.597 . S
C2688 C499 1.597 . S
C2723 C121 1.597 . S
C2738 C471 1.597 . S
C2773 C135 1.596 . S
C2788 C289 1.597 . S
C2823 C261 1.597 . S
C2838 C149 1.597 . S
C2873 C275 1.597 . S
C2888 C163 1.596 . S
C2923 C401 1.597 . S
C2938 C177 1.597 . S
C2973 C191 1.597 . S
C2988 C415 1.597 . S
C3023 C205 1.597 . S
C3038 C387 1.597 . S
C3073 C303 1.597 . S
C3088 C457 1.596 . S
C3123 C317 1.597 . S
C3138 C429 1.597 . S
C3173 C443 1.597 . S
C3188 C331 1.596 . S
C3223 C7 1.423 . S
C3238 C147 1.422 . S
C3273 C161 1.423 . S
C3288 C21 1.422 . S
C3323 C133 1.423 . S
C3338 C35 1.423 . S
C3373 C49 1.423 . S
C3388 C119 1.423 . S
C3423 C63 1.422 . S
C3438 C91 1.423 . S
C3473 C77 1.422 . S
C3488 C105 1.423 . S
C3523 C175 1.423 . S
C3538 C315 1.424 . S
C3573 C329 1.422 . S
C3588 C189 1.422 . S
C3623 C301 1.423 . S
C3638 C203 1.422 . S
C3673 C217 1.423 . S
C3688 C287 1.422 . S
C3723 C231 1.422 . S
C3738 C259 1.423 . S
C3773 C273 1.422 . S
C3788 C245 1.423 . S
C3823 C343 1.422 . S
C3838 C483 1.422 . S
C3873 C497 1.422 . S
C3888 C357 1.423 . S
C3923 C371 1.423 . S
C3938 C469 1.423 . S
C3973 C385 1.421 . S
C3988 C455 1.422 . S
C4023 C427 1.423 . S
C4038 C399 1.423 . S
C4073 C413 1.423 . S
C4088 C441 1.422 . S
