# Generated by pormake.
# Topology wlc, (5)-cn, num edge types: 1
# Building blocks:
#     Node 0, Type 0, BuildingBlock: BEQFEK_clean_sbu_0, # of connection points: 5
#     Node 1, Type 0, BuildingBlock: BEQFEK_clean_sbu_0, # of connection points: 5
#     Node 2, Type 0, BuildingBlock: BEQFEK_clean_sbu_0, # of connection points: 5
#     Node 3, Type 0, BuildingBlock: BEQFEK_clean_sbu_0, # of connection points: 5
#     Node 4, Type 0, BuildingBlock: BEQFEK_clean_sbu_0, # of connection points: 5
#     Node 5, Type 0, BuildingBlock: BEQFEK_clean_sbu_0, # of connection points: 5
#     Node 6, Type 0, BuildingBlock: BEQFEK_clean_sbu_0, # of connection points: 5
#     Node 7, Type 0, BuildingBlock: BEQFEK_clean_sbu_0, # of connection points: 5
#     Node 8, Type 0, BuildingBlock: BEQFEK_clean_sbu_0, # of connection points: 5
#     Node 9, Type 0, BuildingBlock: BEQFEK_clean_sbu_0, # of connection points: 5
#     Node 10, Type 0, BuildingBlock: BEQFEK_clean_sbu_0, # of connection points: 5
#     Node 11, Type 0, BuildingBlock: BEQFEK_clean_sbu_0, # of connection points: 5
#     Edge 12, Type (0, 0), None
#     Edge 13, Type (0, 0), None
#     Edge 14, Type (0, 0), None
#     Edge 15, Type (0, 0), None
#     Edge 16, Type (0, 0), None
#     Edge 17, Type (0, 0), None
#     Edge 18, Type (0, 0), None
#     Edge 19, Type (0, 0), None
#     Edge 20, Type (0, 0), None
#     Edge 21, Type (0, 0), None
#     Edge 22, Type (0, 0), None
#     Edge 23, Type (0, 0), None
#     Edge 24, Type (0, 0), None
#     Edge 25, Type (0, 0), None
#     Edge 26, Type (0, 0), None
#     Edge 27, Type (0, 0), None
#     Edge 28, Type (0, 0), None
#     Edge 29, Type (0, 0), None
#     Edge 30, Type (0, 0), None
#     Edge 31, Type (0, 0), None
#     Edge 32, Type (0, 0), None
#     Edge 33, Type (0, 0), None
#     Edge 34, Type (0, 0), None
#     Edge 35, Type (0, 0), None
#     Edge 36, Type (0, 0), None
#     Edge 37, Type (0, 0), None
#     Edge 38, Type (0, 0), None
#     Edge 39, Type (0, 0), None
#     Edge 40, Type (0, 0), None
#     Edge 41, Type (0, 0), None
# Relax obj value: 0.913
# Max RMSD: 0.279
# Mean RMSD: 0.278
data_MOF--net-wlc--node1-BEQFEK_clean_sbu_0--edge1-none
_symmetry_space_group_name_H-M    P1
_symmetry_Int_Tables_number       1
_symmetry_cell_setting            triclinic
loop_
_symmetry_equiv_pos_as_xyz
'x, y, z'
_cell_length_a     23.086216
_cell_length_b     23.085441
_cell_length_c     15.100687
_cell_angle_alpha  89.99816
_cell_angle_beta   90.000892
_cell_angle_gamma 119.99455
loop_
_atom_site_label
_atom_site_type_symbol
_atom_site_fract_x
_atom_site_fract_y
_atom_site_fract_z
_atom_type_partial_charge
Co0 Co 0.04454 0.40535 0.26666 0.0
Co1 Co 0.00552 0.29548 0.132 0.0
C2 C 0.11451 0.34351 0.24728 0.0
O3 O 0.11609 0.39589 0.2224 0.0
O4 O 0.07917 0.2918 0.20184 0.0
C5 C 0.14426 0.53577 0.27457 0.0
O6 O 0.15621 0.52019 0.19578 0.0
C7 C 0.00305 0.26166 0.94696 0.0
C8 C 0.89659 0.1858 0.93917 0.0
C9 C -0.04926 0.22952 0.88779 0.0
N10 N -0.02027 0.24072 0.02947 0.0
N11 N 0.91682 0.19266 1.02358 0.0
C12 C 0.07488 0.30798 0.92439 0.0
H13 H 0.10358 0.33565 0.98394 0.0
H14 H 0.07983 0.34226 0.86973 0.0
H15 H 0.0964 0.27769 0.89917 0.0
C16 C -0.02676 0.45133 0.14989 0.0
N17 N -0.00354 0.41027 0.1724 0.0
N18 N -0.00063 0.37781 0.10361 0.0
C19 C -0.01432 0.40397 0.03116 0.0
C20 C -0.03874 0.44695 0.05802 0.0
C21 C -0.02722 0.49979 0.21501 0.0
H22 H 0.00433 0.50514 0.27253 0.0
H23 H -0.00921 0.54929 0.18378 0.0
H24 H 0.92208 0.47988 0.24318 0.0
O25 O -0.01298 0.32464 0.33448 0.0
O26 O 0.93956 0.24593 0.22937 0.0
H27 H 0.00352 0.38048 0.90004 0.0
H28 H 0.04506 0.46958 0.92514 0.0
C29 C 0.02926 0.41901 0.95147 0.0
H30 H 0.07615 0.42024 0.97053 0.0
H31 H 0.88534 0.17129 0.07788 0.0
O32 O 0.09652 0.49151 0.32099 0.0
C33 C 0.94652 0.26455 0.31051 0.0
Co34 Co 0.50889 0.622 0.26666 0.0
Co35 Co 0.61874 0.69286 0.13198 0.0
C36 C 0.57072 0.75381 0.24729 0.0
O37 O 0.51833 0.70302 0.22243 0.0
O38 O 0.62242 0.77017 0.20183 0.0
C39 C 0.37847 0.5913 0.27457 0.0
O40 O 0.39405 0.61883 0.19577 0.0
C41 C 0.65255 0.72421 0.94694 0.0
C42 C 0.72843 0.69363 0.93913 0.0
C43 C 0.6847 0.70405 0.88777 0.0
N44 N 0.67349 0.72182 0.02944 0.0
N45 N 0.72157 0.70699 1.02355 0.0
C46 C 0.60621 0.7497 0.92438 0.0
H47 H 0.57854 0.75074 0.98393 0.0
H48 H 0.57194 0.72039 0.86972 0.0
H49 H 0.63649 0.80152 0.89916 0.0
C50 C 0.46292 0.50473 0.14989 0.0
N51 N 0.50397 0.56901 0.17239 0.0
N52 N 0.53642 0.60439 0.1036 0.0
C53 C 0.51027 0.56453 0.03115 0.0
C54 C 0.46731 0.49715 0.05802 0.0
C55 C 0.41448 0.45581 0.21502 0.0
H56 H 0.40912 0.48201 0.27255 0.0
H57 H 0.36498 0.42432 0.1838 0.0
H58 H 0.4344 0.42503 0.24319 0.0
O59 O 0.58959 0.64518 0.33447 0.0
O60 O 0.6683 0.67644 0.22935 0.0
H61 H 0.53374 0.60587 0.90003 0.0
H62 H 0.44464 0.55829 0.92514 0.0
C63 C 0.49521 0.59307 0.95147 0.0
H64 H 0.49397 0.63872 0.97052 0.0
H65 H 0.74295 0.69688 0.07784 0.0
O66 O 0.42273 0.58782 0.321 0.0
C67 C 0.64969 0.66477 0.31049 0.0
Co68 Co 0.29226 0.86973 0.26666 0.0
Co69 Co 0.2214 0.90874 0.13199 0.0
C70 C 0.16046 0.79976 0.24729 0.0
O71 O 0.21125 0.79817 0.22243 0.0
O72 O 0.14409 0.83511 0.20184 0.0
C73 C 0.32296 0.77 0.27459 0.0
O74 O 0.29543 0.75805 0.19579 0.0
C75 C 0.19006 0.91122 0.94694 0.0
C76 C 0.22064 0.01768 0.93915 0.0
C77 C 0.21022 0.96353 0.88777 0.0
N78 N 0.19244 0.93454 0.02945 0.0
N79 N 0.20727 -0.00256 1.02356 0.0
C80 C 0.16457 0.83939 0.92438 0.0
H81 H 0.16354 0.81068 0.98393 0.0
H82 H 0.19388 0.83443 0.86971 0.0
H83 H 0.11275 0.81786 0.89916 0.0
C84 C 0.40953 0.94102 0.14989 0.0
N85 N 0.34525 0.9178 0.17239 0.0
N86 N 0.30988 0.91489 0.1036 0.0
C87 C 0.34973 0.92858 0.03115 0.0
C88 C 0.41712 0.953 0.05802 0.0
C89 C 0.45845 0.94148 0.21501 0.0
H90 H 0.43225 0.90993 0.27254 0.0
H91 H 0.48994 0.92347 0.18379 0.0
H92 H 0.48922 -0.00782 0.24319 0.0
O93 O 0.26908 0.92726 0.33447 0.0
O94 O 0.23782 -0.02528 0.22935 0.0
H95 H 0.3084 0.91074 0.90003 0.0
H96 H 0.35597 0.8692 0.92514 0.0
C97 C 0.3212 0.885 0.95146 0.0
H98 H 0.27555 0.83811 0.97052 0.0
H99 H 0.21737 0.02893 0.07785 0.0
O100 O 0.32645 0.81775 0.321 0.0
C101 C 0.24948 -0.03224 0.31049 0.0
Co102 Co 0.50601 0.84034 0.32681 0.0
Co103 Co 0.62637 0.92326 0.41839 0.0
C104 C 0.57194 0.78444 0.33444 0.0
O105 O 0.51651 0.76841 0.36923 0.0
O106 O 0.62086 0.84163 0.35272 0.0
C107 C 0.37596 0.75578 0.28773 0.0
O108 O 0.37841 0.72885 0.36305 0.0
C109 C 0.63311 0.90624 0.60423 0.0
C110 C 0.73529 -0.01843 0.63964 0.0
C111 C 0.67281 0.9389 0.67652 0.0
N112 N 0.66857 0.93086 0.52935 0.0
N113 N 0.73091 -0.02605 0.55101 0.0
C114 C 0.55918 0.85935 0.60699 0.0
H115 H 0.54121 0.83244 0.54314 0.0
H116 H 0.53306 0.88758 0.6216 0.0
H117 H 0.54695 0.82269 0.66141 0.0
C118 C 0.44156 0.88789 0.4643 0.0
N119 N 0.49136 0.88599 0.41928 0.0
N120 N 0.54891 0.93611 0.44204 0.0
C121 C 0.53774 -0.02171 0.49189 0.0
C122 C 0.46778 0.95139 0.50402 0.0
C123 C 0.38974 0.82522 0.50992 0.0
H124 H 0.40741 0.78856 0.51421 0.0
H125 H 0.38097 0.83594 0.57873 0.0
H126 H 0.34179 0.80076 0.47393 0.0
O127 O 0.58803 0.90633 0.25167 0.0
O128 O 0.67761 -0.01547 0.32438 0.0
H129 H 0.63808 0.03055 0.54258 0.0
H130 H 0.60982 0.08257 0.49583 0.0
C131 C 0.59393 0.03724 0.53675 0.0
H132 H 0.57863 0.04424 0.6034 0.0
H133 H 0.76838 0.00313 0.50563 0.0
O134 O 0.42975 0.79816 0.25096 0.0
C135 C 0.64796 0.95677 0.25201 0.0
Co136 Co 0.07391 0.64848 0.3268 0.0
Co137 Co -0.00901 0.68593 0.41837 0.0
C138 C 0.1298 0.77032 0.33442 0.0
O139 O 0.14584 0.73092 0.36919 0.0
O140 O 0.07261 0.76204 0.35269 0.0
C141 C 0.15847 0.60299 0.28772 0.0
O142 O 0.1854 0.63236 0.36304 0.0
C143 C 0.008 0.70969 0.6042 0.0
C144 C 0.93267 0.73656 0.63961 0.0
C145 C -0.02467 0.71673 0.67649 0.0
N146 N -0.01662 0.72054 0.52932 0.0
N147 N 0.94028 0.73978 0.55097 0.0
C148 C 0.05489 0.68265 0.60698 0.0
H149 H 0.0818 0.69159 0.54313 0.0
H150 H 0.02667 0.62831 0.62158 0.0
H151 H 0.09155 0.70709 0.6614 0.0
C152 C 0.02637 0.5365 0.46429 0.0
N153 N 0.02827 0.58819 0.41927 0.0
N154 N -0.02186 0.59562 0.44203 0.0
C155 C 0.93597 0.54228 0.49188 0.0
C156 C -0.03713 0.49922 0.50402 0.0
C157 C 0.08904 0.54733 0.50991 0.0
H158 H 0.1257 0.60166 0.5142 0.0
H159 H 0.07832 0.52784 0.57872 0.0
H160 H 0.1135 0.52384 0.47392 0.0
O161 O 0.00793 0.66453 0.25165 0.0
O162 O 0.92972 0.67591 0.32436 0.0
H163 H 0.8837 0.59037 0.54257 0.0
H164 H 0.83169 0.51009 0.49582 0.0
C165 C 0.87702 0.53954 0.53674 0.0
H166 H 0.87001 0.51723 0.60339 0.0
H167 H 0.9111 0.74808 0.50559 0.0
O168 O 0.11609 0.6144 0.25095 0.0
C169 C -0.04251 0.67402 0.25199 0.0
Co170 Co 0.26578 0.40825 0.3268 0.0
Co171 Co 0.22835 0.28789 0.4184 0.0
C172 C 0.14394 0.34231 0.33441 0.0
O173 O 0.18334 0.39775 0.36918 0.0
O174 O 0.15223 0.29339 0.3527 0.0
C175 C 0.31126 0.5383 0.28771 0.0
O176 O 0.28188 0.53586 0.36302 0.0
C177 C 0.20458 0.28115 0.60423 0.0
C178 C 0.17773 0.17897 0.63966 0.0
C179 C 0.19754 0.24146 0.67653 0.0
N180 N 0.19374 0.24569 0.52936 0.0
N181 N 0.17451 0.18335 0.55102 0.0
C182 C 0.23161 0.35509 0.60698 0.0
H183 H 0.22266 0.37305 0.54313 0.0
H184 H 0.28595 0.38121 0.62158 0.0
H185 H 0.20717 0.36731 0.6614 0.0
C186 C 0.37775 0.4727 0.4643 0.0
N187 N 0.32606 0.4229 0.41928 0.0
N188 N 0.31865 0.36535 0.44205 0.0
C189 C 0.37199 0.37652 0.4919 0.0
C190 C 0.41504 0.44648 0.50402 0.0
C191 C 0.36691 0.52453 0.50991 0.0
H192 H 0.31258 0.50686 0.5142 0.0
H193 H 0.38639 0.5333 0.57872 0.0
H194 H 0.39039 0.57248 0.47392 0.0
O195 O 0.24975 0.32622 0.25167 0.0
O196 O 0.23838 0.23664 0.32439 0.0
H197 H 0.32392 0.27617 0.5426 0.0
H198 H 0.40419 0.30444 0.49585 0.0
C199 C 0.37475 0.32032 0.53676 0.0
H200 H 0.39705 0.33563 0.60341 0.0
H201 H 0.16621 0.14587 0.50565 0.0
O202 O 0.29985 0.48451 0.25094 0.0
C203 C 0.24027 0.26629 0.25202 0.0
Co204 Co 0.8526 0.52643 0.79184 0.0
Co205 Co 0.89151 0.6363 0.92645 0.0
C206 C 0.78241 0.58804 0.8114 0.0
O207 O 0.78098 0.53572 0.83625 0.0
O208 O 0.81769 0.63978 0.85681 0.0
C209 C 0.75321 0.39591 0.78434 0.0
O210 O 0.74142 0.41154 0.86321 0.0
C211 C 0.89445 0.67023 0.11145 0.0
C212 C 0.00117 0.74558 0.11865 0.0
C213 C 0.94711 0.70195 0.17017 0.0
N214 N 0.91752 0.6912 1.02885 0.0
N215 N -0.01943 0.73899 0.03444 0.0
C216 C 0.82266 0.6241 0.13441 0.0
H217 H 0.79374 0.59636 0.07502 0.0
H218 H 0.81775 0.58988 0.18913 0.0
H219 H 0.80132 0.65456 0.15964 0.0
C220 C 0.92413 0.48067 0.90849 0.0
N221 N 0.90084 0.52169 0.88603 0.0
N222 N 0.89782 0.55406 0.95485 0.0
C223 C 0.91152 0.52788 1.02728 0.0
C224 C 0.93598 0.48494 1.00039 0.0
C225 C 0.92477 0.43236 0.84326 0.0
H226 H 0.89331 0.42708 0.78566 0.0
H227 H 0.90676 0.38282 0.87434 0.0
H228 H -0.02448 0.45238 0.81523 0.0
O229 O 0.90991 0.60707 0.72383 0.0
O230 O -0.04267 0.68582 0.82891 0.0
H231 H 0.89379 0.55138 0.15844 0.0
H232 H 0.85222 0.46229 0.13338 0.0
C233 C 0.86799 0.51286 0.10703 0.0
H234 H 0.8211 0.51166 0.08807 0.0
H235 H 0.01187 0.76029 0.97996 0.0
O236 O 0.80072 0.44021 0.73767 0.0
C237 C -0.04962 0.66718 0.74778 0.0
Co238 Co 0.38785 0.30901 0.79184 0.0
Co239 Co 0.27799 0.23806 0.92648 0.0
C240 C 0.32625 0.17722 0.8114 0.0
O241 O 0.37857 0.2281 0.83623 0.0
O242 O 0.27451 0.16077 0.85682 0.0
C243 C 0.51837 0.34014 0.78435 0.0
O244 O 0.50274 0.31273 0.86322 0.0
C245 C 0.24408 0.20706 0.11148 0.0
C246 C 0.1687 0.23841 0.1187 0.0
C247 C 0.21234 0.22798 0.17021 0.0
N248 N 0.2231 0.20916 1.02889 0.0
N249 N 0.17529 0.2244 0.03448 0.0
C250 C 0.29023 0.18141 0.13443 0.0
H251 H 0.31796 0.18023 0.07503 0.0
H252 H 0.32444 0.21072 0.18914 0.0
H253 H 0.25978 0.12961 0.15966 0.0
C254 C 0.43359 0.42629 0.9085 0.0
N255 N 0.39259 0.36199 0.88604 0.0
N256 N 0.36023 0.3266 0.95487 0.0
C257 C 0.3864 0.36648 1.0273 0.0
C258 C 0.42932 0.43387 1.00039 0.0
C259 C 0.48189 0.47524 0.84326 0.0
H260 H 0.48717 0.44906 0.78566 0.0
H261 H 0.53143 0.50678 0.87433 0.0
H262 H 0.46186 0.50597 0.81523 0.0
O263 O 0.3072 0.2857 0.72385 0.0
O264 O 0.22846 0.25436 0.82894 0.0
H265 H 0.36291 0.32524 0.15846 0.0
H266 H 0.452 0.37277 0.13338 0.0
C267 C 0.40144 0.33798 0.10704 0.0
H268 H 0.40264 0.29229 0.08808 0.0
H269 H 0.15399 0.2344 0.98001 0.0
O270 O 0.47407 0.34337 0.73767 0.0
C271 C 0.2471 0.26606 0.74781 0.0
Co272 Co 0.60525 0.06166 0.79184 0.0
Co273 Co 0.6762 0.02275 0.92647 0.0
C274 C 0.73703 0.13184 0.81139 0.0
O275 O 0.68615 0.13329 0.83622 0.0
O276 O 0.75349 0.09655 0.85681 0.0
C277 C 0.57411 0.16106 0.78434 0.0
O278 O 0.60152 0.17284 0.8632 0.0
C279 C 0.7072 0.01981 0.11147 0.0
C280 C 0.67584 0.91308 0.11868 0.0
C281 C 0.68627 -0.03285 0.1702 0.0
N282 N 0.7051 -0.00326 1.02888 0.0
N283 N 0.68985 0.93369 0.03447 0.0
C284 C 0.73284 0.0916 0.13443 0.0
H285 H 0.73402 0.12052 0.07503 0.0
H286 H 0.70354 0.09651 0.18914 0.0
H287 H 0.78464 0.11294 0.15965 0.0
C288 C 0.48798 -0.00986 0.90849 0.0
N289 N 0.55227 0.01343 0.88604 0.0
N290 N 0.58766 0.01645 0.95486 0.0
C291 C 0.54778 0.00275 1.02729 0.0
C292 C 0.4804 -0.02171 1.00039 0.0
C293 C 0.43903 -0.0105 0.84326 0.0
H294 H 0.4652 0.02096 0.78566 0.0
H295 H 0.40748 0.0075 0.87433 0.0
H296 H 0.4083 0.93875 0.81523 0.0
O297 O 0.62857 0.00433 0.72385 0.0
O298 O 0.6599 0.95691 0.82893 0.0
H299 H 0.58901 0.02048 0.15846 0.0
H300 H 0.54148 0.06204 0.13338 0.0
C301 C 0.57628 0.04627 0.10704 0.0
H302 H 0.62197 0.09316 0.08808 0.0
H303 H 0.67986 0.90239 0.97999 0.0
O304 O 0.57089 0.11354 0.73766 0.0
C305 C 0.64821 0.96386 0.74781 0.0
Co306 Co 0.39097 0.09047 0.73196 0.0
Co307 Co 0.27076 0.00789 0.63996 0.0
C308 C 0.32516 0.14654 0.72436 0.0
O309 O 0.38063 0.16256 0.68972 0.0
O310 O 0.27625 0.08939 0.70594 0.0
C311 C 0.52097 0.17507 0.77125 0.0
O312 O 0.51851 0.20211 0.69603 0.0
C313 C 0.26445 0.02527 0.45413 0.0
C314 C 0.16222 0.95011 0.41834 0.0
C315 C 0.22483 -0.00733 0.38178 0.0
N316 N 0.22881 0.00062 0.52887 0.0
N317 N 0.16647 0.95765 0.50699 0.0
C318 C 0.33841 0.07204 0.45159 0.0
H319 H 0.3563 0.09885 0.51552 0.0
H320 H 0.36446 0.04376 0.43699 0.0
H321 H 0.35078 0.1088 0.39725 0.0
C322 C 0.45553 0.04314 0.59436 0.0
N323 N 0.4057 0.04497 0.63938 0.0
N324 N 0.34816 -0.00508 0.61646 0.0
C325 C 0.35934 0.95279 0.56652 0.0
C326 C 0.42931 -0.0203 0.55444 0.0
C327 C 0.50734 0.10587 0.54885 0.0
H328 H 0.48969 0.14256 0.54476 0.0
H329 H 0.51606 0.09525 0.47997 0.0
H330 H 0.5553 0.13028 0.5848 0.0
O331 O 0.30878 0.02437 0.80687 0.0
O332 O 0.21928 0.94646 0.73366 0.0
H333 H 0.25909 0.9007 0.51552 0.0
H334 H 0.28714 0.84856 0.56242 0.0
C335 C 0.30317 0.89392 0.52151 0.0
H336 H 0.31856 0.8869 0.45493 0.0
H337 H 0.12888 0.92849 0.55225 0.0
O338 O 0.4672 0.13252 0.80788 0.0
C339 C 0.24882 -0.02602 0.80619 0.0
Co340 Co 0.8238 0.28334 0.73197 0.0
Co341 Co 0.90639 0.24571 0.63998 0.0
C342 C 0.76774 0.16147 0.72437 0.0
O343 O 0.75172 0.20093 0.68975 0.0
O344 O 0.82489 0.1697 0.70596 0.0
C345 C 0.7392 0.32876 0.77125 0.0
O346 O 0.71216 0.29926 0.69604 0.0
C347 C 0.88902 0.22202 0.45415 0.0
C348 C -0.03582 0.19494 0.41837 0.0
C349 C 0.92161 0.21499 0.3818 0.0
N350 N 0.91367 0.21103 0.5289 0.0
N351 N -0.04336 0.19165 0.50702 0.0
C352 C 0.84224 0.24921 0.45161 0.0
H353 H 0.81543 0.24029 0.51553 0.0
H354 H 0.87052 0.30354 0.437 0.0
H355 H 0.80548 0.22483 0.39727 0.0
C356 C 0.87113 0.39523 0.59436 0.0
N357 N 0.8693 0.34356 0.63939 0.0
N358 N 0.91935 0.33608 0.61646 0.0
C359 C -0.03852 0.38938 0.56652 0.0
C360 C 0.93457 0.43244 0.55444 0.0
C361 C 0.8084 0.38432 0.54885 0.0
H362 H 0.77171 0.32999 0.54477 0.0
H363 H 0.81902 0.40366 0.47997 0.0
H364 H 0.78399 0.40788 0.5848 0.0
O365 O 0.88991 0.26725 0.80688 0.0
O366 O -0.03219 0.25565 0.73368 0.0
H367 H 0.01358 0.34121 0.51553 0.0
H368 H 0.06571 0.4214 0.56242 0.0
C369 C 0.02035 0.39207 0.52152 0.0
H370 H 0.02737 0.41448 0.45493 0.0
H371 H -0.0142 0.18322 0.55228 0.0
O372 O 0.78176 0.31753 0.80789 0.0
C373 C 0.94029 0.25767 0.80621 0.0
Co374 Co 0.63091 0.5233 0.73197 0.0
Co375 Co 0.66853 0.64351 0.63996 0.0
C376 C 0.75278 0.5891 0.72438 0.0
O377 O 0.71334 0.53363 0.68977 0.0
O378 O 0.74454 0.63802 0.70595 0.0
C379 C 0.58552 0.39329 0.77127 0.0
O380 O 0.61502 0.39575 0.69606 0.0
C381 C 0.69222 0.64981 0.45414 0.0
C382 C 0.71928 0.75204 0.41833 0.0
C383 C 0.69925 0.68942 0.38178 0.0
N384 N 0.7032 0.68545 0.52887 0.0
N385 N 0.72257 0.74779 0.50698 0.0
C386 C 0.66505 0.57585 0.45161 0.0
H387 H 0.67397 0.55795 0.51554 0.0
H388 H 0.61072 0.5498 0.437 0.0
H389 H 0.68943 0.56347 0.39728 0.0
C390 C 0.51904 0.45873 0.59436 0.0
N391 N 0.57069 0.50856 0.63938 0.0
N392 N 0.57817 0.5661 0.61645 0.0
C393 C 0.52487 0.55492 0.56651 0.0
C394 C 0.48181 0.48495 0.55444 0.0
C395 C 0.52996 0.40692 0.54886 0.0
H396 H 0.58429 0.42457 0.54477 0.0
H397 H 0.51062 0.39819 0.47998 0.0
H398 H 0.5064 0.35895 0.58481 0.0
O399 O 0.64698 0.60548 0.80687 0.0
O400 O 0.65857 0.69499 0.73365 0.0
H401 H 0.57301 0.65518 0.51551 0.0
H402 H 0.49282 0.62713 0.56241 0.0
C403 C 0.52216 0.6111 0.5215 0.0
H404 H 0.49975 0.59571 0.45492 0.0
H405 H 0.731 0.78539 0.55223 0.0
O406 O 0.59673 0.44706 0.8079 0.0
C407 C 0.65655 0.66545 0.80619 0.0
loop_
_geom_bond_atom_site_label_1
_geom_bond_atom_site_label_2
_geom_bond_distance
_geom_bond_site_symmetry_2
_ccdc_geom_bond_type
Co0 O3 1.970 . S
Co0 N17 1.989 . S
Co0 O25 1.967 . S
Co0 O32 1.920 . S
Co1 O4 1.966 . S
Co1 N10 2.022 1_554 S
Co1 N18 1.993 . S
Co1 O26 1.941 1_455 S
C2 O3 1.258 . S
C2 O4 1.263 . S
O3 Co0 1.970 . S
O3 C2 1.258 . S
O4 Co1 1.966 . S
O4 C2 1.263 . S
C5 O6 1.235 . S
C5 O32 1.289 . S
O6 C5 1.235 . S
C7 C9 1.400 . S
C7 N10 1.351 . S
C7 C12 1.501 . S
C8 C9 1.387 1_655 S
C8 N11 1.341 . S
C9 C7 1.400 . S
C9 C8 1.387 1_455 S
N10 Co1 2.022 1_556 S
N10 C7 1.351 . S
N10 N11 1.365 1_455 S
N11 C8 1.341 . S
N11 N10 1.365 1_655 S
N11 H31 0.862 . S
C12 C7 1.501 . S
C12 H13 0.961 . S
C12 H14 0.961 . S
C12 H15 0.960 . S
H13 C12 0.961 . S
H14 C12 0.961 . S
H15 C12 0.960 . S
C16 N17 1.342 . S
C16 C20 1.401 1_554 S
C16 C21 1.499 . S
N17 Co0 1.989 . S
N17 C16 1.342 . S
N17 N18 1.388 . S
N18 Co1 1.993 . S
N18 N17 1.388 . S
N18 C19 1.346 1_554 S
C19 N18 1.346 1_556 S
C19 C20 1.396 . S
C19 C29 1.510 . S
C20 C16 1.401 1_556 S
C20 C19 1.396 . S
C21 C16 1.499 . S
C21 H22 0.959 . S
C21 H23 0.960 . S
C21 H24 0.961 . S
H22 C21 0.959 . S
H23 C21 0.960 . S
H24 C21 0.961 . S
O25 Co0 1.967 . S
O25 C33 1.258 1_455 S
O26 Co1 1.941 1_655 S
O26 C33 1.266 . S
H27 C29 0.959 1_655 S
H28 C29 0.961 . S
C29 C19 1.510 . S
C29 H27 0.959 1_455 S
C29 H28 0.961 . S
C29 H30 0.960 . S
H30 C29 0.960 . S
H31 N11 0.862 . S
O32 Co0 1.920 . S
O32 C5 1.289 . S
C33 O25 1.258 1_655 S
C33 O26 1.266 . S
Co34 O37 1.970 . S
Co34 N51 1.989 . S
Co34 O59 1.967 . S
Co34 O66 1.920 . S
Co35 O38 1.966 . S
Co35 N44 2.022 1_554 S
Co35 N52 1.993 . S
Co35 O60 1.941 . S
C36 O37 1.258 . S
C36 O38 1.263 . S
O37 Co34 1.970 . S
O37 C36 1.258 . S
O38 Co35 1.966 . S
O38 C36 1.263 . S
C39 O40 1.235 . S
C39 O66 1.289 . S
O40 C39 1.235 . S
C41 C43 1.400 . S
C41 N44 1.351 . S
C41 C46 1.501 . S
C42 C43 1.387 . S
C42 N45 1.341 . S
C43 C41 1.400 . S
C43 C42 1.387 . S
N44 Co35 2.022 1_556 S
N44 C41 1.351 . S
N44 N45 1.365 . S
N45 C42 1.341 . S
N45 N44 1.365 . S
N45 H65 0.862 . S
C46 C41 1.501 . S
C46 H47 0.961 . S
C46 H48 0.961 . S
C46 H49 0.960 . S
H47 C46 0.961 . S
H48 C46 0.961 . S
H49 C46 0.960 . S
C50 N51 1.342 . S
C50 C54 1.401 1_554 S
C50 C55 1.499 . S
N51 Co34 1.989 . S
N51 C50 1.342 . S
N51 N52 1.388 . S
N52 Co35 1.993 . S
N52 N51 1.388 . S
N52 C53 1.346 1_554 S
C53 N52 1.346 1_556 S
C53 C54 1.396 . S
C53 C63 1.510 . S
C54 C50 1.401 1_556 S
C54 C53 1.396 . S
C55 C50 1.499 . S
C55 H56 0.959 . S
C55 H57 0.960 . S
C55 H58 0.961 . S
H56 C55 0.959 . S
H57 C55 0.960 . S
H58 C55 0.961 . S
O59 Co34 1.967 . S
O59 C67 1.258 . S
O60 Co35 1.941 . S
O60 C67 1.266 . S
H61 C63 0.959 . S
H62 C63 0.961 . S
C63 C53 1.510 . S
C63 H61 0.959 . S
C63 H62 0.961 . S
C63 H64 0.960 . S
H64 C63 0.960 . S
H65 N45 0.862 . S
O66 Co34 1.920 . S
O66 C39 1.289 . S
C67 O59 1.258 . S
C67 O60 1.266 . S
Co68 O71 1.970 . S
Co68 N85 1.989 . S
Co68 O93 1.967 . S
Co68 O100 1.920 . S
Co69 O72 1.966 . S
Co69 N78 2.022 1_554 S
Co69 N86 1.993 . S
Co69 O94 1.941 1_565 S
C70 O71 1.258 . S
C70 O72 1.263 . S
O71 Co68 1.970 . S
O71 C70 1.258 . S
O72 Co69 1.966 . S
O72 C70 1.263 . S
C73 O74 1.235 . S
C73 O100 1.289 . S
O74 C73 1.235 . S
C75 C77 1.400 . S
C75 N78 1.351 . S
C75 C80 1.501 . S
C76 C77 1.387 1_545 S
C76 N79 1.341 . S
C77 C75 1.400 . S
C77 C76 1.387 1_565 S
N78 Co69 2.022 1_556 S
N78 C75 1.351 . S
N78 N79 1.365 1_565 S
N79 C76 1.341 . S
N79 N78 1.365 1_545 S
N79 H99 0.862 . S
C80 C75 1.501 . S
C80 H81 0.961 . S
C80 H82 0.961 . S
C80 H83 0.960 . S
H81 C80 0.961 . S
H82 C80 0.961 . S
H83 C80 0.960 . S
C84 N85 1.342 . S
C84 C88 1.401 1_554 S
C84 C89 1.499 . S
N85 Co68 1.989 . S
N85 C84 1.342 . S
N85 N86 1.388 . S
N86 Co69 1.993 . S
N86 N85 1.388 . S
N86 C87 1.346 1_554 S
C87 N86 1.346 1_556 S
C87 C88 1.396 . S
C87 C97 1.510 . S
C88 C84 1.401 1_556 S
C88 C87 1.396 . S
C89 C84 1.499 . S
C89 H90 0.959 . S
C89 H91 0.960 . S
C89 H92 0.961 . S
H90 C89 0.959 . S
H91 C89 0.960 . S
H92 C89 0.961 . S
O93 Co68 1.967 . S
O93 C101 1.258 1_565 S
O94 Co69 1.941 1_545 S
O94 C101 1.266 . S
H95 C97 0.959 1_545 S
H96 C97 0.961 . S
C97 C87 1.510 . S
C97 H95 0.959 1_565 S
C97 H96 0.961 . S
C97 H98 0.960 . S
H98 C97 0.960 . S
H99 N79 0.862 . S
O100 Co68 1.920 . S
O100 C73 1.289 . S
C101 O93 1.258 1_545 S
C101 O94 1.266 . S
Co102 O105 1.970 . S
Co102 N119 1.989 . S
Co102 O127 1.967 . S
Co102 O134 1.920 . S
Co103 O106 1.966 . S
Co103 N112 2.022 . S
Co103 N120 1.993 . S
Co103 O128 1.941 1_565 S
C104 O105 1.258 . S
C104 O106 1.263 . S
O105 Co102 1.970 . S
O105 C104 1.258 . S
O106 Co103 1.966 . S
O106 C104 1.263 . S
C107 O108 1.235 . S
C107 O134 1.289 . S
O108 C107 1.235 . S
C109 C111 1.400 . S
C109 N112 1.351 . S
C109 C114 1.501 . S
C110 C111 1.387 1_545 S
C110 N113 1.341 . S
C111 C109 1.400 . S
C111 C110 1.387 1_565 S
N112 Co103 2.022 . S
N112 C109 1.351 . S
N112 N113 1.365 1_565 S
N113 C110 1.341 . S
N113 N112 1.365 1_545 S
N113 H133 0.862 . S
C114 C109 1.501 . S
C114 H115 0.961 . S
C114 H116 0.961 . S
C114 H117 0.960 . S
H115 C114 0.961 . S
H116 C114 0.961 . S
H117 C114 0.960 . S
C118 N119 1.342 . S
C118 C122 1.401 . S
C118 C123 1.499 . S
N119 Co102 1.989 . S
N119 C118 1.342 . S
N119 N120 1.388 . S
N120 Co103 1.993 . S
N120 N119 1.388 . S
N120 C121 1.346 . S
C121 N120 1.346 . S
C121 C122 1.396 . S
C121 C131 1.510 . S
C122 C118 1.401 . S
C122 C121 1.396 . S
C123 C118 1.499 . S
C123 H124 0.959 . S
C123 H125 0.960 . S
C123 H126 0.961 . S
H124 C123 0.959 . S
H125 C123 0.960 . S
H126 C123 0.961 . S
O127 Co102 1.967 . S
O127 C135 1.258 1_565 S
O128 Co103 1.941 1_545 S
O128 C135 1.266 . S
H129 C131 0.959 1_545 S
H130 C131 0.961 . S
C131 C121 1.510 . S
C131 H129 0.959 1_565 S
C131 H130 0.961 . S
C131 H132 0.960 . S
H132 C131 0.960 . S
H133 N113 0.862 . S
O134 Co102 1.920 . S
O134 C107 1.289 . S
C135 O127 1.258 1_545 S
C135 O128 1.266 . S
Co136 O139 1.970 . S
Co136 N153 1.989 . S
Co136 O161 1.967 . S
Co136 O168 1.920 . S
Co137 O140 1.966 . S
Co137 N146 2.022 . S
Co137 N154 1.993 . S
Co137 O162 1.941 1_455 S
C138 O139 1.258 . S
C138 O140 1.263 . S
O139 Co136 1.970 . S
O139 C138 1.258 . S
O140 Co137 1.966 . S
O140 C138 1.263 . S
C141 O142 1.235 . S
C141 O168 1.289 . S
O142 C141 1.235 . S
C143 C145 1.400 . S
C143 N146 1.351 . S
C143 C148 1.501 . S
C144 C145 1.387 1_655 S
C144 N147 1.341 . S
C145 C143 1.400 . S
C145 C144 1.387 1_455 S
N146 Co137 2.022 . S
N146 C143 1.351 . S
N146 N147 1.365 1_455 S
N147 C144 1.341 . S
N147 N146 1.365 1_655 S
N147 H167 0.862 . S
C148 C143 1.501 . S
C148 H149 0.961 . S
C148 H150 0.961 . S
C148 H151 0.960 . S
H149 C148 0.961 . S
H150 C148 0.961 . S
H151 C148 0.960 . S
C152 N153 1.342 . S
C152 C156 1.401 . S
C152 C157 1.499 . S
N153 Co136 1.989 . S
N153 C152 1.342 . S
N153 N154 1.388 . S
N154 Co137 1.993 . S
N154 N153 1.388 . S
N154 C155 1.346 . S
C155 N154 1.346 . S
C155 C156 1.396 . S
C155 C165 1.510 . S
C156 C152 1.401 . S
C156 C155 1.396 . S
C157 C152 1.499 . S
C157 H158 0.959 . S
C157 H159 0.960 . S
C157 H160 0.961 . S
H158 C157 0.959 . S
H159 C157 0.960 . S
H160 C157 0.961 . S
O161 Co136 1.967 . S
O161 C169 1.258 1_455 S
O162 Co137 1.941 1_655 S
O162 C169 1.266 . S
H163 C165 0.959 1_655 S
H164 C165 0.961 . S
C165 C155 1.510 . S
C165 H163 0.959 1_455 S
C165 H164 0.961 . S
C165 H166 0.960 . S
H166 C165 0.960 . S
H167 N147 0.862 . S
O168 Co136 1.920 . S
O168 C141 1.289 . S
C169 O161 1.258 1_655 S
C169 O162 1.266 . S
Co170 O173 1.970 . S
Co170 N187 1.989 . S
Co170 O195 1.967 . S
Co170 O202 1.920 . S
Co171 O174 1.966 . S
Co171 N180 2.022 . S
Co171 N188 1.993 . S
Co171 O196 1.941 . S
C172 O173 1.258 . S
C172 O174 1.263 . S
O173 Co170 1.970 . S
O173 C172 1.258 . S
O174 Co171 1.966 . S
O174 C172 1.263 . S
C175 O176 1.235 . S
C175 O202 1.289 . S
O176 C175 1.235 . S
C177 C179 1.400 . S
C177 N180 1.351 . S
C177 C182 1.501 . S
C178 C179 1.387 . S
C178 N181 1.341 . S
C179 C177 1.400 . S
C179 C178 1.387 . S
N180 Co171 2.022 . S
N180 C177 1.351 . S
N180 N181 1.365 . S
N181 C178 1.341 . S
N181 N180 1.365 . S
N181 H201 0.862 . S
C182 C177 1.501 . S
C182 H183 0.961 . S
C182 H184 0.961 . S
C182 H185 0.960 . S
H183 C182 0.961 . S
H184 C182 0.961 . S
H185 C182 0.960 . S
C186 N187 1.342 . S
C186 C190 1.401 . S
C186 C191 1.499 . S
N187 Co170 1.989 . S
N187 C186 1.342 . S
N187 N188 1.388 . S
N188 Co171 1.993 . S
N188 N187 1.388 . S
N188 C189 1.346 . S
C189 N188 1.346 . S
C189 C190 1.396 . S
C189 C199 1.510 . S
C190 C186 1.401 . S
C190 C189 1.396 . S
C191 C186 1.499 . S
C191 H192 0.959 . S
C191 H193 0.960 . S
C191 H194 0.961 . S
H192 C191 0.959 . S
H193 C191 0.960 . S
H194 C191 0.961 . S
O195 Co170 1.967 . S
O195 C203 1.258 . S
O196 Co171 1.941 . S
O196 C203 1.266 . S
H197 C199 0.959 . S
H198 C199 0.961 . S
C199 C189 1.510 . S
C199 H197 0.959 . S
C199 H198 0.961 . S
C199 H200 0.960 . S
H200 C199 0.960 . S
H201 N181 0.862 . S
O202 Co170 1.920 . S
O202 C175 1.289 . S
C203 O195 1.258 . S
C203 O196 1.266 . S
Co204 O207 1.970 . S
Co204 N221 1.989 . S
Co204 O229 1.967 . S
Co204 O236 1.920 . S
Co205 O208 1.966 . S
Co205 N214 2.022 1_556 S
Co205 N222 1.993 . S
Co205 O230 1.941 1_655 S
C206 O207 1.258 . S
C206 O208 1.263 . S
O207 Co204 1.970 . S
O207 C206 1.258 . S
O208 Co205 1.966 . S
O208 C206 1.263 . S
C209 O210 1.235 . S
C209 O236 1.289 . S
O210 C209 1.235 . S
C211 C213 1.400 . S
C211 N214 1.351 . S
C211 C216 1.501 . S
C212 C213 1.387 1_455 S
C212 N215 1.341 . S
C213 C211 1.400 . S
C213 C212 1.387 1_655 S
N214 Co205 2.022 1_554 S
N214 C211 1.351 . S
N214 N215 1.365 1_655 S
N215 C212 1.341 . S
N215 N214 1.365 1_455 S
N215 H235 0.862 . S
C216 C211 1.501 . S
C216 H217 0.961 . S
C216 H218 0.961 . S
C216 H219 0.960 . S
H217 C216 0.961 . S
H218 C216 0.961 . S
H219 C216 0.960 . S
C220 N221 1.342 . S
C220 C224 1.401 1_556 S
C220 C225 1.499 . S
N221 Co204 1.989 . S
N221 C220 1.342 . S
N221 N222 1.388 . S
N222 Co205 1.993 . S
N222 N221 1.388 . S
N222 C223 1.346 1_556 S
C223 N222 1.346 1_554 S
C223 C224 1.396 . S
C223 C233 1.510 . S
C224 C220 1.401 1_554 S
C224 C223 1.396 . S
C225 C220 1.499 . S
C225 H226 0.959 . S
C225 H227 0.960 . S
C225 H228 0.961 . S
H226 C225 0.959 . S
H227 C225 0.960 . S
H228 C225 0.961 . S
O229 Co204 1.967 . S
O229 C237 1.258 1_655 S
O230 Co205 1.941 1_455 S
O230 C237 1.266 . S
H231 C233 0.959 1_455 S
H232 C233 0.961 . S
C233 C223 1.510 . S
C233 H231 0.959 1_655 S
C233 H232 0.961 . S
C233 H234 0.960 . S
H234 C233 0.960 . S
H235 N215 0.862 . S
O236 Co204 1.920 . S
O236 C209 1.289 . S
C237 O229 1.258 1_455 S
C237 O230 1.266 . S
Co238 O241 1.970 . S
Co238 N255 1.989 . S
Co238 O263 1.967 . S
Co238 O270 1.920 . S
Co239 O242 1.966 . S
Co239 N248 2.022 1_556 S
Co239 N256 1.993 . S
Co239 O264 1.941 . S
C240 O241 1.258 . S
C240 O242 1.263 . S
O241 Co238 1.970 . S
O241 C240 1.258 . S
O242 Co239 1.966 . S
O242 C240 1.263 . S
C243 O244 1.235 . S
C243 O270 1.289 . S
O244 C243 1.235 . S
C245 C247 1.400 . S
C245 N248 1.351 . S
C245 C250 1.501 . S
C246 C247 1.387 . S
C246 N249 1.341 . S
C247 C245 1.400 . S
C247 C246 1.387 . S
N248 Co239 2.022 1_554 S
N248 C245 1.351 . S
N248 N249 1.365 . S
N249 C246 1.341 . S
N249 N248 1.365 . S
N249 H269 0.862 . S
C250 C245 1.501 . S
C250 H251 0.961 . S
C250 H252 0.961 . S
C250 H253 0.960 . S
H251 C250 0.961 . S
H252 C250 0.961 . S
H253 C250 0.960 . S
C254 N255 1.342 . S
C254 C258 1.401 1_556 S
C254 C259 1.499 . S
N255 Co238 1.989 . S
N255 C254 1.342 . S
N255 N256 1.388 . S
N256 Co239 1.993 . S
N256 N255 1.388 . S
N256 C257 1.346 1_556 S
C257 N256 1.346 1_554 S
C257 C258 1.396 . S
C257 C267 1.510 . S
C258 C254 1.401 1_554 S
C258 C257 1.396 . S
C259 C254 1.499 . S
C259 H260 0.959 . S
C259 H261 0.960 . S
C259 H262 0.961 . S
H260 C259 0.959 . S
H261 C259 0.960 . S
H262 C259 0.961 . S
O263 Co238 1.967 . S
O263 C271 1.258 . S
O264 Co239 1.941 . S
O264 C271 1.266 . S
H265 C267 0.959 . S
H266 C267 0.961 . S
C267 C257 1.510 . S
C267 H265 0.959 . S
C267 H266 0.961 . S
C267 H268 0.960 . S
H268 C267 0.960 . S
H269 N249 0.862 . S
O270 Co238 1.920 . S
O270 C243 1.289 . S
C271 O263 1.258 . S
C271 O264 1.266 . S
Co272 O275 1.970 . S
Co272 N289 1.989 . S
Co272 O297 1.967 . S
Co272 O304 1.920 . S
Co273 O276 1.966 . S
Co273 N282 2.022 1_556 S
Co273 N290 1.993 . S
Co273 O298 1.941 1_545 S
C274 O275 1.258 . S
C274 O276 1.263 . S
O275 Co272 1.970 . S
O275 C274 1.258 . S
O276 Co273 1.966 . S
O276 C274 1.263 . S
C277 O278 1.235 . S
C277 O304 1.289 . S
O278 C277 1.235 . S
C279 C281 1.400 . S
C279 N282 1.351 . S
C279 C284 1.501 . S
C280 C281 1.387 1_565 S
C280 N283 1.341 . S
C281 C279 1.400 . S
C281 C280 1.387 1_545 S
N282 Co273 2.022 1_554 S
N282 C279 1.351 . S
N282 N283 1.365 1_545 S
N283 C280 1.341 . S
N283 N282 1.365 1_565 S
N283 H303 0.862 . S
C284 C279 1.501 . S
C284 H285 0.961 . S
C284 H286 0.961 . S
C284 H287 0.960 . S
H285 C284 0.961 . S
H286 C284 0.961 . S
H287 C284 0.960 . S
C288 N289 1.342 . S
C288 C292 1.401 1_556 S
C288 C293 1.499 . S
N289 Co272 1.989 . S
N289 C288 1.342 . S
N289 N290 1.388 . S
N290 Co273 1.993 . S
N290 N289 1.388 . S
N290 C291 1.346 1_556 S
C291 N290 1.346 1_554 S
C291 C292 1.396 . S
C291 C301 1.510 . S
C292 C288 1.401 1_554 S
C292 C291 1.396 . S
C293 C288 1.499 . S
C293 H294 0.959 . S
C293 H295 0.960 . S
C293 H296 0.961 . S
H294 C293 0.959 . S
H295 C293 0.960 . S
H296 C293 0.961 . S
O297 Co272 1.967 . S
O297 C305 1.258 1_545 S
O298 Co273 1.941 1_565 S
O298 C305 1.266 . S
H299 C301 0.959 1_565 S
H300 C301 0.961 . S
C301 C291 1.510 . S
C301 H299 0.959 1_545 S
C301 H300 0.961 . S
C301 H302 0.960 . S
H302 C301 0.960 . S
H303 N283 0.862 . S
O304 Co272 1.920 . S
O304 C277 1.289 . S
C305 O297 1.258 1_565 S
C305 O298 1.266 . S
Co306 O309 1.970 . S
Co306 N323 1.989 . S
Co306 O331 1.967 . S
Co306 O338 1.920 . S
Co307 O310 1.966 . S
Co307 N316 2.022 . S
Co307 N324 1.993 . S
Co307 O332 1.941 1_545 S
C308 O309 1.258 . S
C308 O310 1.263 . S
O309 Co306 1.970 . S
O309 C308 1.258 . S
O310 Co307 1.966 . S
O310 C308 1.263 . S
C311 O312 1.235 . S
C311 O338 1.289 . S
O312 C311 1.235 . S
C313 C315 1.400 . S
C313 N316 1.351 . S
C313 C318 1.501 . S
C314 C315 1.387 1_565 S
C314 N317 1.341 . S
C315 C313 1.400 . S
C315 C314 1.387 1_545 S
N316 Co307 2.022 . S
N316 C313 1.351 . S
N316 N317 1.365 1_545 S
N317 C314 1.341 . S
N317 N316 1.365 1_565 S
N317 H337 0.862 . S
C318 C313 1.501 . S
C318 H319 0.961 . S
C318 H320 0.961 . S
C318 H321 0.960 . S
H319 C318 0.961 . S
H320 C318 0.961 . S
H321 C318 0.960 . S
C322 N323 1.342 . S
C322 C326 1.401 . S
C322 C327 1.499 . S
N323 Co306 1.989 . S
N323 C322 1.342 . S
N323 N324 1.388 . S
N324 Co307 1.993 . S
N324 N323 1.388 . S
N324 C325 1.346 . S
C325 N324 1.346 . S
C325 C326 1.396 . S
C325 C335 1.510 . S
C326 C322 1.401 . S
C326 C325 1.396 . S
C327 C322 1.499 . S
C327 H328 0.959 . S
C327 H329 0.960 . S
C327 H330 0.961 . S
H328 C327 0.959 . S
H329 C327 0.960 . S
H330 C327 0.961 . S
O331 Co306 1.967 . S
O331 C339 1.258 1_545 S
O332 Co307 1.941 1_565 S
O332 C339 1.266 . S
H333 C335 0.959 1_565 S
H334 C335 0.961 . S
C335 C325 1.510 . S
C335 H333 0.959 1_545 S
C335 H334 0.961 . S
C335 H336 0.960 . S
H336 C335 0.960 . S
H337 N317 0.862 . S
O338 Co306 1.920 . S
O338 C311 1.289 . S
C339 O331 1.258 1_565 S
C339 O332 1.266 . S
Co340 O343 1.970 . S
Co340 N357 1.989 . S
Co340 O365 1.967 . S
Co340 O372 1.920 . S
Co341 O344 1.966 . S
Co341 N350 2.022 . S
Co341 N358 1.993 . S
Co341 O366 1.941 1_655 S
C342 O343 1.258 . S
C342 O344 1.263 . S
O343 Co340 1.970 . S
O343 C342 1.258 . S
O344 Co341 1.966 . S
O344 C342 1.263 . S
C345 O346 1.235 . S
C345 O372 1.289 . S
O346 C345 1.235 . S
C347 C349 1.400 . S
C347 N350 1.351 . S
C347 C352 1.501 . S
C348 C349 1.387 1_455 S
C348 N351 1.341 . S
C349 C347 1.400 . S
C349 C348 1.387 1_655 S
N350 Co341 2.022 . S
N350 C347 1.351 . S
N350 N351 1.365 1_655 S
N351 C348 1.341 . S
N351 N350 1.365 1_455 S
N351 H371 0.862 . S
C352 C347 1.501 . S
C352 H353 0.961 . S
C352 H354 0.961 . S
C352 H355 0.960 . S
H353 C352 0.961 . S
H354 C352 0.961 . S
H355 C352 0.960 . S
C356 N357 1.342 . S
C356 C360 1.401 . S
C356 C361 1.499 . S
N357 Co340 1.989 . S
N357 C356 1.342 . S
N357 N358 1.388 . S
N358 Co341 1.993 . S
N358 N357 1.388 . S
N358 C359 1.346 . S
C359 N358 1.346 . S
C359 C360 1.396 . S
C359 C369 1.510 . S
C360 C356 1.401 . S
C360 C359 1.396 . S
C361 C356 1.499 . S
C361 H362 0.959 . S
C361 H363 0.960 . S
C361 H364 0.961 . S
H362 C361 0.959 . S
H363 C361 0.960 . S
H364 C361 0.961 . S
O365 Co340 1.967 . S
O365 C373 1.258 1_655 S
O366 Co341 1.941 1_455 S
O366 C373 1.266 . S
H367 C369 0.959 1_455 S
H368 C369 0.961 . S
C369 C359 1.510 . S
C369 H367 0.959 1_655 S
C369 H368 0.961 . S
C369 H370 0.960 . S
H370 C369 0.960 . S
H371 N351 0.862 . S
O372 Co340 1.920 . S
O372 C345 1.289 . S
C373 O365 1.258 1_455 S
C373 O366 1.266 . S
Co374 O377 1.970 . S
Co374 N391 1.989 . S
Co374 O399 1.967 . S
Co374 O406 1.920 . S
Co375 O378 1.966 . S
Co375 N384 2.022 . S
Co375 N392 1.993 . S
Co375 O400 1.941 . S
C376 O377 1.258 . S
C376 O378 1.263 . S
O377 Co374 1.970 . S
O377 C376 1.258 . S
O378 Co375 1.966 . S
O378 C376 1.263 . S
C379 O380 1.235 . S
C379 O406 1.289 . S
O380 C379 1.235 . S
C381 C383 1.400 . S
C381 N384 1.351 . S
C381 C386 1.501 . S
C382 C383 1.387 . S
C382 N385 1.341 . S
C383 C381 1.400 . S
C383 C382 1.387 . S
N384 Co375 2.022 . S
N384 C381 1.351 . S
N384 N385 1.365 . S
N385 C382 1.341 . S
N385 N384 1.365 . S
N385 H405 0.862 . S
C386 C381 1.501 . S
C386 H387 0.961 . S
C386 H388 0.961 . S
C386 H389 0.960 . S
H387 C386 0.961 . S
H388 C386 0.961 . S
H389 C386 0.960 . S
C390 N391 1.342 . S
C390 C394 1.401 . S
C390 C395 1.499 . S
N391 Co374 1.989 . S
N391 C390 1.342 . S
N391 N392 1.388 . S
N392 Co375 1.993 . S
N392 N391 1.388 . S
N392 C393 1.346 . S
C393 N392 1.346 . S
C393 C394 1.396 . S
C393 C403 1.510 . S
C394 C390 1.401 . S
C394 C393 1.396 . S
C395 C390 1.499 . S
C395 H396 0.959 . S
C395 H397 0.960 . S
C395 H398 0.961 . S
H396 C395 0.959 . S
H397 C395 0.960 . S
H398 C395 0.961 . S
O399 Co374 1.967 . S
O399 C407 1.258 . S
O400 Co375 1.941 . S
O400 C407 1.266 . S
H401 C403 0.959 . S
H402 C403 0.961 . S
C403 C393 1.510 . S
C403 H401 0.959 . S
C403 H402 0.961 . S
C403 H404 0.960 . S
H404 C403 0.960 . S
H405 N385 0.862 . S
O406 Co374 1.920 . S
O406 C379 1.289 . S
C407 O399 1.258 . S
C407 O400 1.266 . S
C373 C9 2.859 . S
C43 C407 2.859 . S
C339 C77 2.859 . S
C111 C305 2.859 . S
C145 C237 2.859 . S
C179 C271 2.859 . S
C169 C213 2.859 . S
C203 C247 2.859 . S
C135 C281 2.859 . S
C101 C315 2.859 . S
C349 C33 2.859 . S
C67 C383 2.859 . S
C224 C20 2.157 1_654 S
C54 C258 2.157 1_556 S
C292 C88 2.157 1_544 S
C122 C326 2.157 1_565 S
C156 C360 2.157 1_455 S
C394 C190 2.157 . S
C5 C141 1.340 . S
C39 C175 1.340 . S
C73 C107 1.340 . S
C345 C209 1.340 . S
C243 C379 1.340 . S
C277 C311 1.340 . S
C172 C2 3.105 . S
C104 C36 3.104 . S
C70 C138 3.104 . S
C206 C376 3.105 . S
C308 C240 3.104 . S
C342 C274 3.104 . S
