# Generated by pormake.
# Topology upa, (4)-cn, num edge types: 1
# Building blocks:
#     Node 0, Type 0, BuildingBlock: KUFVIS_clean_sbu_0, # of connection points: 4
#     Node 1, Type 0, BuildingBlock: KUFVIS_clean_sbu_0, # of connection points: 4
#     Node 2, Type 0, BuildingBlock: KUFVIS_clean_sbu_0, # of connection points: 4
#     Node 3, Type 0, BuildingBlock: KUFVIS_clean_sbu_0, # of connection points: 4
#     Node 4, Type 0, BuildingBlock: KUFVIS_clean_sbu_0, # of connection points: 4
#     Node 5, Type 0, BuildingBlock: KUFVIS_clean_sbu_0, # of connection points: 4
#     Node 6, Type 0, BuildingBlock: KUFVIS_clean_sbu_0, # of connection points: 4
#     Node 7, Type 0, BuildingBlock: KUFVIS_clean_sbu_0, # of connection points: 4
#     Edge 8, Type (0, 0), BuildingBlock: AJUNOK_clean_linker_0, # of connection points: 2
#     Edge 9, Type (0, 0), BuildingBlock: AJUNOK_clean_linker_0, # of connection points: 2
#     Edge 10, Type (0, 0), BuildingBlock: AJUNOK_clean_linker_0, # of connection points: 2
#     Edge 11, Type (0, 0), BuildingBlock: AJUNOK_clean_linker_0, # of connection points: 2
#     Edge 12, Type (0, 0), BuildingBlock: AJUNOK_clean_linker_0, # of connection points: 2
#     Edge 13, Type (0, 0), BuildingBlock: AJUNOK_clean_linker_0, # of connection points: 2
#     Edge 14, Type (0, 0), BuildingBlock: AJUNOK_clean_linker_0, # of connection points: 2
#     Edge 15, Type (0, 0), BuildingBlock: AJUNOK_clean_linker_0, # of connection points: 2
#     Edge 16, Type (0, 0), BuildingBlock: AJUNOK_clean_linker_0, # of connection points: 2
#     Edge 17, Type (0, 0), BuildingBlock: AJUNOK_clean_linker_0, # of connection points: 2
#     Edge 18, Type (0, 0), BuildingBlock: AJUNOK_clean_linker_0, # of connection points: 2
#     Edge 19, Type (0, 0), BuildingBlock: AJUNOK_clean_linker_0, # of connection points: 2
#     Edge 20, Type (0, 0), BuildingBlock: AJUNOK_clean_linker_0, # of connection points: 2
#     Edge 21, Type (0, 0), BuildingBlock: AJUNOK_clean_linker_0, # of connection points: 2
#     Edge 22, Type (0, 0), BuildingBlock: AJUNOK_clean_linker_0, # of connection points: 2
#     Edge 23, Type (0, 0), BuildingBlock: AJUNOK_clean_linker_0, # of connection points: 2
# Relax obj value: 0.180
# Max RMSD: 0.138
# Mean RMSD: 0.138
data_MOF--net-upa--node1-KUFVIS_clean_sbu_0--edge1-AJUNOK_clean_linker_0
_symmetry_space_group_name_H-M    P1
_symmetry_Int_Tables_number       1
_symmetry_cell_setting            triclinic
loop_
_symmetry_equiv_pos_as_xyz
'x, y, z'
_cell_length_a     18.590669
_cell_length_b     18.611386
_cell_length_c     32.130657
_cell_angle_alpha  90.392488
_cell_angle_beta   89.936529
_cell_angle_gamma 89.827628
loop_
_atom_site_label
_atom_site_type_symbol
_atom_site_fract_x
_atom_site_fract_y
_atom_site_fract_z
_atom_type_partial_charge
Mn0 Mn 0.19388 0.22579 0.35585 0.0
Mn1 Mn 0.27682 0.07739 0.39002 0.0
C2 C 0.12714 0.13303 0.38349 0.0
C3 C 0.12579 0.2773 0.30149 0.0
C4 C 0.26021 0.21299 0.4429 0.0
O5 O 0.29516 0.23697 0.33087 0.0
O6 O 0.34575 0.13769 0.3579 0.0
C7 C 0.29955 1.01162 0.30676 0.0
N8 N 0.27064 1.00847 0.34568 0.0
C9 C 0.21434 0.89517 0.33016 0.0
C10 C 0.24558 0.8963 0.29049 0.0
C11 C 0.28788 0.95496 0.27859 0.0
C12 C 0.22839 0.95294 0.35702 0.0
H13 H 0.33088 0.05711 0.29712 0.0
C14 C 0.34927 0.19524 0.33642 0.0
O15 O 0.15137 0.31717 0.33147 0.0
O16 O 0.14944 0.21235 0.30026 0.0
N17 N 0.2179 1.01227 0.42062 0.0
C18 C 0.20126 1.01401 0.46185 0.0
C19 C 0.15941 0.95892 0.47882 0.0
C20 C 0.13683 0.9014 0.45357 0.0
C21 C 0.15873 0.89829 0.41186 0.0
C22 C 0.2006 0.95484 0.39671 0.0
H23 H 0.22014 0.05686 0.48168 0.0
O24 O 0.10149 0.1973 0.38185 0.0
O25 O 0.19145 0.12442 0.36795 0.0
O26 O 0.23138 0.25227 0.4147 0.0
O27 O 0.2793 0.14732 0.43696 0.0
C28 C 0.14248 0.84035 0.38506 0.0
C29 C 0.1704 0.83873 0.34423 0.0
H30 H 0.23759 0.85244 0.26894 0.0
H31 H 0.31135 0.95653 0.24777 0.0
H32 H 0.14437 0.9614 0.51123 0.0
H33 H 0.10435 0.85903 0.46675 0.0
H34 H 0.10968 0.79615 0.39578 0.0
H35 H 0.15854 0.79336 0.32415 0.0
Mn36 Mn 0.31106 0.68493 0.85466 0.0
Mn37 Mn 0.46037 0.7687 0.88718 0.0
C38 C 0.40503 0.61952 0.88275 0.0
C39 C 0.25576 0.61601 0.80189 0.0
C40 C 0.32445 0.75885 0.93999 0.0
O41 O 0.29984 0.78539 0.82839 0.0
O42 O 0.40255 0.83469 0.85192 0.0
C43 C 0.52676 0.77334 0.80333 0.0
N44 N 0.53045 0.75436 0.84414 0.0
C45 C 0.64243 0.69188 0.83267 0.0
C46 C 0.64084 0.71288 0.79089 0.0
C47 C 0.58263 0.75353 0.77611 0.0
C48 C 0.58541 0.71364 0.85837 0.0
H49 H 0.48086 0.80205 0.7914 0.0
C50 C 0.34388 0.83824 0.83125 0.0
O51 O 0.21807 0.64393 0.83218 0.0
O52 O 0.32155 0.63713 0.79952 0.0
N53 N 0.52291 0.71254 0.92107 0.0
C54 C 0.51728 0.69908 0.96251 0.0
C55 C 0.57167 0.66001 0.98236 0.0
C56 C 0.6317 0.63564 0.95961 0.0
C57 C 0.6373 0.65201 0.9172 0.0
C58 C 0.58199 0.69254 0.89929 0.0
H59 H 0.47145 0.71761 0.98028 0.0
O60 O 0.34091 0.59337 0.88149 0.0
O61 O 0.41217 0.68311 0.86682 0.0
O62 O 0.28615 0.72557 0.91283 0.0
O63 O 0.3892 0.77957 0.93307 0.0
C64 C 0.69549 0.62986 0.89201 0.0
C65 C 0.6978 0.64934 0.84966 0.0
H66 H 0.68346 0.69726 0.76979 0.0
H67 H 0.5804 0.76874 0.74368 0.0
H68 H 0.56637 0.64823 1.01497 0.0
H69 H 0.67321 0.60469 0.97496 0.0
H70 H 0.73862 0.59766 0.90485 0.0
H71 H 0.74244 0.63148 0.83048 0.0
Mn72 Mn 0.84286 0.82494 0.35597 0.0
Mn73 Mn 0.74929 0.9716 0.38518 0.0
C74 C 0.90209 0.92328 0.38337 0.0
C75 C 0.91712 0.77122 0.30454 0.0
C76 C 0.77389 0.84321 0.44246 0.0
O77 O 0.74536 0.80625 0.32785 0.0
O78 O 0.68673 0.90132 0.3552 0.0
C79 C 0.7213 0.02463 0.29997 0.0
N80 N 0.75316 0.03328 0.33775 0.0
C81 C 0.80891 0.14323 0.31578 0.0
C82 C 0.77787 0.13428 0.27638 0.0
C83 C 0.73367 0.07486 0.26847 0.0
C84 C 0.79628 0.09017 0.34557 0.0
H85 H 0.68625 0.98019 0.29408 0.0
C86 C 0.68828 0.84367 0.33334 0.0
O87 O 0.89091 0.73328 0.33489 0.0
O88 O 0.89196 0.8354 0.30149 0.0
N89 N 0.79984 0.04723 0.41309 0.0
C90 C 0.79486 0.06464 0.45413 0.0
C91 C 0.82947 0.1263 0.46942 0.0
C92 C 0.86276 0.1734 0.44151 0.0
C93 C 0.85489 0.16138 0.39865 0.0
C94 C 0.82092 0.09783 0.38571 0.0
H95 H 0.76 0.0345 0.47417 0.0
O96 O 0.9308 0.86019 0.38384 0.0
O97 O 0.83894 0.92768 0.36596 0.0
O98 O 0.80137 0.80155 0.41449 0.0
O99 O 0.75224 0.90792 0.43506 0.0
C100 C 0.87195 0.21349 0.36872 0.0
C101 C 0.84877 0.20443 0.3273 0.0
H102 H 0.7859 0.17353 0.25226 0.0
H103 H 0.70845 0.06829 0.23835 0.0
H104 H 0.82757 0.13907 0.5023 0.0
H105 H 0.88788 0.22195 0.45317 0.0
H106 H 0.89876 0.2628 0.37772 0.0
H107 H 0.85813 0.24691 0.30528 0.0
Mn108 Mn 0.72075 0.33794 0.85562 0.0
Mn109 Mn 0.57241 0.25275 0.88833 0.0
C110 C 0.62528 0.4025 0.88302 0.0
C111 C 0.77491 0.40583 0.80231 0.0
C112 C 0.70733 0.26779 0.94158 0.0
O113 O 0.73436 0.23673 0.83012 0.0
O114 O 0.63259 0.18588 0.85417 0.0
C115 C 0.50672 0.23885 0.80462 0.0
N116 N 0.5029 0.26272 0.84473 0.0
C117 C 0.39118 0.32403 0.83116 0.0
C118 C 0.39357 0.29916 0.78992 0.0
C119 C 0.45157 0.25633 0.7766 0.0
C120 C 0.44756 0.30449 0.85772 0.0
H121 H 0.552 0.20769 0.79391 0.0
C122 C 0.69175 0.18301 0.8338 0.0
O123 O 0.81308 0.38011 0.83281 0.0
O124 O 0.70966 0.38314 0.80017 0.0
N125 N 0.50804 0.31022 0.92098 0.0
C126 C 0.51266 0.32749 0.96212 0.0
C127 C 0.45779 0.36845 0.9807 0.0
C128 C 0.39846 0.39079 0.9569 0.0
C129 C 0.39405 0.37079 0.91486 0.0
C130 C 0.44971 0.32863 0.89828 0.0
H131 H 0.55816 0.31073 0.98056 0.0
O132 O 0.68886 0.4299 0.88182 0.0
O133 O 0.61944 0.33816 0.86739 0.0
O134 O 0.74562 0.30002 0.91416 0.0
O135 O 0.64279 0.24621 0.93475 0.0
C136 C 0.33671 0.39111 0.88876 0.0
C137 C 0.33552 0.36811 0.84684 0.0
H138 H 0.35157 0.31313 0.76815 0.0
H139 H 0.45413 0.23746 0.7447 0.0
H140 H 0.4622 0.38348 1.01309 0.0
H141 H 0.35654 0.42322 0.97104 0.0
H142 H 0.29337 0.42452 0.90057 0.0
H143 H 0.29142 0.3844 0.82699 0.0
Mn144 Mn 0.69357 0.31571 0.20375 0.0
Mn145 Mn 0.77803 0.46092 0.16647 0.0
C146 C 0.62841 0.40943 0.17618 0.0
C147 C 0.62583 0.26536 0.25841 0.0
C148 C 0.76001 0.3226 0.11625 0.0
O149 O 0.79592 0.30424 0.22786 0.0
O150 O 0.84653 0.40344 0.20056 0.0
C151 C 0.79642 0.53315 0.24827 0.0
N152 N 0.77074 0.53392 0.20857 0.0
C153 C 0.71073 0.64692 0.22075 0.0
C154 C 0.73755 0.64778 0.26148 0.0
C155 C 0.78067 0.5907 0.27529 0.0
C156 C 0.72881 0.58846 0.19511 0.0
H157 H 0.82758 0.48841 0.2595 0.0
C158 C 0.84992 0.34609 0.22226 0.0
O159 O 0.65133 0.22515 0.22847 0.0
O160 O 0.64959 0.33029 0.2596 0.0
N161 N 0.71852 0.52234 0.13373 0.0
C162 C 0.69626 0.51284 0.09372 0.0
C163 C 0.65259 0.56515 0.07523 0.0
C164 C 0.63259 0.62691 0.09795 0.0
C165 C 0.65738 0.63613 0.13878 0.0
C166 C 0.70187 0.58271 0.15532 0.0
H167 H 0.71079 0.46524 0.07623 0.0
O168 O 0.60086 0.34609 0.1785 0.0
O169 O 0.69352 0.41605 0.19042 0.0
O170 O 0.72924 0.28652 0.14511 0.0
O171 O 0.7824 0.38725 0.12147 0.0
C172 C 0.63892 0.69574 0.1639 0.0
C173 C 0.66541 0.70096 0.2049 0.0
H174 H 0.72437 0.69135 0.28259 0.0
H175 H 0.80084 0.59056 0.30687 0.0
H176 H 0.63348 0.55672 0.04387 0.0
H177 H 0.5978 0.66677 0.08404 0.0
H178 H 0.60397 0.73757 0.1521 0.0
H179 H 0.6504 0.7466 0.22403 0.0
Mn180 Mn 0.21418 0.1852 0.70216 0.0
Mn181 Mn 0.06291 0.27026 0.67347 0.0
C182 C 0.11892 0.12143 0.67418 0.0
C183 C 0.27013 0.11327 0.75302 0.0
C184 C 0.19562 0.25923 0.61786 0.0
O185 O 0.22706 0.28415 0.73017 0.0
O186 O 0.12509 0.33579 0.70686 0.0
C187 C 1.00561 0.27822 0.75946 0.0
N188 N 0.99782 0.25722 0.71902 0.0
C189 C 0.89017 0.19161 0.73544 0.0
C190 C 0.89661 0.21359 0.77704 0.0
C191 C 0.95454 0.2571 0.78911 0.0
C192 C 0.94292 0.21412 0.70733 0.0
H193 H 0.0512 0.30952 0.76922 0.0
C194 C 0.18417 0.33797 0.72719 0.0
O195 O 0.30763 0.14196 0.72318 0.0
O196 O 0.20468 0.13527 0.75632 0.0
N197 N 0.99561 0.21492 0.64173 0.0
C198 C 0.99169 0.20742 0.59962 0.0
C199 C 0.93459 0.16881 0.58186 0.0
C200 C 0.88071 0.14039 0.60753 0.0
C201 C 0.88336 0.15281 0.65055 0.0
C202 C 0.94105 0.1928 0.66626 0.0
H203 H 0.03018 0.23329 0.57972 0.0
O204 O 0.18315 0.09513 0.67372 0.0
O205 O 0.11237 0.18429 0.69158 0.0
O206 O 0.23687 0.22845 0.64442 0.0
O207 O 0.13005 0.2776 0.62541 0.0
C208 C 0.82982 0.12921 0.67825 0.0
C209 C 0.8337 0.14799 0.72076 0.0
H210 H 0.85785 0.1969 0.80005 0.0
H211 H 0.96029 0.27359 0.8213 0.0
H212 H 0.93133 0.16248 0.54846 0.0
H213 H 0.83595 0.1119 0.59378 0.0
H214 H 0.7851 0.09722 0.66714 0.0
H215 H 0.79233 0.12961 0.74169 0.0
Mn216 Mn 0.34518 0.7232 0.20129 0.0
Mn217 Mn 0.25768 0.57663 0.16752 0.0
C218 C 0.40948 0.62769 0.17353 0.0
C219 C 0.41338 0.7784 0.25412 0.0
C220 C 0.27468 0.71151 0.11516 0.0
O221 O 0.24464 0.73746 0.22697 0.0
O222 O 0.19204 0.63712 0.20228 0.0
C223 C 0.24188 0.50947 0.25041 0.0
N224 N 0.26622 0.50628 0.21043 0.0
C225 C 0.31998 0.39032 0.2219 0.0
C226 C 0.29372 0.39165 0.26276 0.0
C227 C 0.25491 0.45163 0.27719 0.0
C228 C 0.30513 0.44948 0.19661 0.0
H229 H 0.21322 0.55593 0.2619 0.0
C230 C 0.19023 0.69576 0.22324 0.0
O231 O 0.38727 0.81562 0.22343 0.0
O232 O 0.39116 0.71306 0.25684 0.0
N233 N 0.31268 0.51135 0.13414 0.0
C234 C 0.32588 0.51462 0.09252 0.0
C235 C 0.36204 0.45761 0.07279 0.0
C236 C 0.38309 0.39715 0.09581 0.0
C237 C 0.36589 0.39354 0.13823 0.0
C238 C 0.32893 0.45174 0.15607 0.0
H239 H 0.30946 0.56057 0.07451 0.0
O240 O 0.43639 0.69143 0.17491 0.0
O241 O 0.345 0.62146 0.1891 0.0
O242 O 0.30703 0.74884 0.14306 0.0
O243 O 0.2519 0.64744 0.12153 0.0
C244 C 0.38249 0.33387 0.16326 0.0
C245 C 0.35986 0.33241 0.20517 0.0
H246 H 0.30292 0.34689 0.28326 0.0
H247 H 0.2352 0.45332 0.30889 0.0
H248 H 0.37391 0.461 0.04003 0.0
H249 H 0.41126 0.3533 0.08055 0.0
H250 H 0.41189 0.28847 0.15046 0.0
H251 H 0.37257 0.28613 0.22411 0.0
Mn252 Mn 0.81249 0.83514 0.70359 0.0
Mn253 Mn 0.95711 0.74818 0.66536 0.0
C254 C 0.90619 0.89894 0.67448 0.0
C255 C 0.76019 0.90442 0.75744 0.0
C256 C 0.81825 0.76554 0.61645 0.0
O257 O 0.80114 0.73453 0.72909 0.0
O258 O 0.89954 0.68196 0.70088 0.0
C259 C 0.03176 0.72975 0.74603 0.0
N260 N 0.03108 0.75575 0.70653 0.0
C261 C 0.14705 0.8105 0.71617 0.0
C262 C 0.1497 0.7824 0.75647 0.0
C263 C 0.09162 0.74227 0.77158 0.0
C264 C 0.08614 0.79574 0.69203 0.0
H265 H 0.98678 0.70025 0.75807 0.0
C266 C 0.84304 0.6803 0.72372 0.0
O267 O 0.72109 0.87721 0.72768 0.0
O268 O 0.82588 0.88207 0.75897 0.0
N269 N 0.01879 0.80541 0.63136 0.0
C270 C 1.01034 0.82376 0.59067 0.0
C271 C 0.06412 0.8636 0.57075 0.0
C272 C 0.12646 0.88339 0.59268 0.0
C273 C 0.13502 0.86186 0.63408 0.0
C274 C 0.07988 0.82156 0.65215 0.0
H275 H 0.96281 0.80851 0.57356 0.0
O276 O 0.84255 0.92637 0.67724 0.0
O277 O 0.91333 0.83438 0.68932 0.0
O278 O 0.78282 0.79718 0.64558 0.0
O279 O 0.88303 0.74308 0.62079 0.0
C280 C 0.19649 0.87807 0.65794 0.0
C281 C 0.20247 0.85248 0.69901 0.0
H282 H 0.19597 0.79135 0.77604 0.0
H283 H 0.09287 0.72125 0.8029 0.0
H284 H 0.05696 0.87938 0.53872 0.0
H285 H 0.16784 0.91442 0.57744 0.0
H286 H 0.23971 0.90972 0.64491 0.0
H287 H 0.25009 0.865 0.71703 0.0
C288 C 0.05004 0.04427 0.34824 0.0
C289 C 0.07417 0.07511 0.38566 0.0
C290 C 0.98961 0.99967 0.34757 0.0
C291 C 0.95265 0.9831 0.38442 0.0
H292 H 0.07679 0.05641 0.31915 0.0
H293 H 0.97305 0.97603 0.31822 0.0
S294 S 0.99586 0.04811 0.49042 0.0
N295 N 0.05364 0.08967 0.45989 0.0
N296 N 0.94769 0.99592 0.45947 0.0
C297 C 0.9775 1.01174 0.42207 0.0
C298 C 0.03607 0.06081 0.42241 0.0
C299 C 0.4894 0.53927 0.92122 0.0
C300 C 0.46433 0.56776 0.88358 0.0
C301 C 0.54264 0.48564 0.9213 0.0
C302 C 0.56499 0.45305 0.88392 0.0
H303 H 0.46856 0.55912 0.95059 0.0
H304 H 0.56553 0.46886 0.95065 0.0
S305 S 0.50971 0.50351 0.77755 0.0
N306 N 0.465 0.5594 0.80822 0.0
N307 N 0.55734 0.45166 0.80861 0.0
C308 C 0.5376 0.4788 0.8463 0.0
C309 C 0.48818 0.53711 0.84609 0.0
C310 C 0.53912 0.48307 0.13761 0.0
C311 C 0.57816 0.4698 0.17412 0.0
C312 C 0.48486 0.53554 0.13709 0.0
C313 C 0.46177 0.5687 0.17409 0.0
H314 H 0.55193 0.4542 0.10916 0.0
H315 H 0.46153 0.55058 0.10765 0.0
S316 S 0.55005 0.55564 0.27712 0.0
N317 N 0.59531 0.49895 0.24716 0.0
N318 N 0.48661 0.59007 0.24732 0.0
C319 C 0.50064 0.55579 0.21072 0.0
C320 C 0.55963 0.50708 0.21059 0.0
C321 C 0.03636 0.03924 0.63597 0.0
C322 C 0.06006 0.06969 0.67355 0.0
C323 C 0.98693 0.98247 0.63607 0.0
C324 C 0.96569 0.95023 0.67351 0.0
H325 H 0.05536 0.05994 0.60653 0.0
H326 H 0.96584 0.9635 0.60676 0.0
S327 S 1.01394 1.01012 0.77993 0.0
N328 N 0.05696 0.06594 0.74898 0.0
N329 N 0.97051 0.95403 0.74895 0.0
C330 C 0.99038 0.97951 0.71112 0.0
C331 C 0.03664 0.04009 0.71115 0.0
C332 C 0.18794 0.19996 0.50596 0.0
C333 C 0.24666 0.23313 0.48684 0.0
C334 C 0.17382 0.20862 0.54823 0.0
C335 C 0.21579 0.25388 0.57333 0.0
H336 H 0.15344 0.16512 0.48809 0.0
H337 H 0.13078 0.17739 0.5616 0.0
S338 S 0.37718 0.3539 0.5389 0.0
N339 N 0.3493 0.31215 0.49624 0.0
N340 N 0.32042 0.33184 0.57639 0.0
C341 C 0.27516 0.28823 0.55493 0.0
C342 C 0.29072 0.27774 0.51139 0.0
C343 C 0.24723 0.7115 0.99782 0.0
C344 C 0.29796 0.76215 0.98395 0.0
C345 C 0.23545 0.6997 0.04044 0.0
C346 C 0.27345 0.7383 0.07127 0.0
H347 H 0.22013 0.67669 0.97574 0.0
H348 H 0.19935 0.65676 0.04916 0.0
S349 S 0.40174 0.88717 0.05135 0.0
N350 N 0.37853 0.85868 1.00452 0.0
N351 N 0.35641 0.83699 0.08437 0.0
C352 C 0.31895 0.79413 0.05776 0.0
C353 C 0.33124 0.80581 1.01427 0.0
C354 C 0.77861 0.73007 0.54289 0.0
C355 C 0.79636 0.78233 0.57319 0.0
C356 C 0.76888 0.74932 0.50052 0.0
C357 C 0.77877 0.8209 0.48717 0.0
H358 H 0.77315 0.67436 0.55183 0.0
H359 H 0.75486 0.708 0.4781 0.0
S360 S 0.84153 0.97221 0.55345 0.0
N361 N 0.82915 0.90593 0.58624 0.0
N362 N 0.82072 0.93886 0.50752 0.0
C363 C 0.80047 0.87137 0.51731 0.0
C364 C 0.8067 0.85295 0.56 0.0
C365 C 0.78598 0.31622 0.9988 0.0
C366 C 0.73375 0.26633 0.98558 0.0
C367 C 0.79856 0.32969 0.04127 0.0
C368 C 0.75993 0.29359 0.07261 0.0
H369 H 0.81388 0.34914 0.97633 0.0
H370 H 0.83595 0.372 0.04947 0.0
S371 S 0.62711 0.14772 0.0546 0.0
N372 N 0.65067 0.17314 1.00742 0.0
N373 N 0.67422 0.19819 0.08697 0.0
C374 C 0.71267 0.23854 0.0598 0.0
C375 C 0.69957 0.2251 1.01646 0.0
C376 C 0.53222 0.17567 0.28206 0.0
C377 C 0.55976 0.24604 0.28278 0.0
C378 C 0.46474 0.15954 0.29986 0.0
C379 C 0.42072 0.21343 0.31791 0.0
H380 H 0.56245 0.13286 0.2671 0.0
H381 H 0.44645 0.10447 0.29864 0.0
S382 S 0.46936 0.40491 0.33134 0.0
N383 N 0.53857 0.36932 0.30634 0.0
N384 N 0.41217 0.33853 0.33841 0.0
C385 C 0.44827 0.28336 0.31986 0.0
C386 C 0.51749 0.29971 0.3027 0.0
C387 C 0.25526 0.932 0.80715 0.0
C388 C 0.32684 0.90867 0.811 0.0
C389 C 0.23844 0.9993 0.78999 0.0
C390 C 0.29222 0.04639 0.77527 0.0
H391 H 0.21169 0.89862 0.81815 0.0
H392 H 0.18222 1.01368 0.78747 0.0
S393 S 0.48824 1.01273 0.7793 0.0
N394 N 0.45256 0.9402 0.80005 0.0
N395 N 0.42013 0.06515 0.76652 0.0
C396 C 0.36397 0.02418 0.77914 0.0
C397 C 0.38139 0.95604 0.79737 0.0
C398 C 0.59811 0.85742 0.27583 0.0
C399 C 0.61978 0.82295 0.31266 0.0
C400 C 0.52923 0.8468 0.25874 0.0
C401 C 0.47932 0.80028 0.2774 0.0
H402 H 0.63499 0.89189 0.25941 0.0
H403 H 0.51631 0.87289 0.22964 0.0
S404 S 0.5099 0.69651 0.37423 0.0
N405 N 0.58563 0.74125 0.36757 0.0
N406 N 0.45728 0.71886 0.33495 0.0
C407 C 0.50061 0.76515 0.31422 0.0
C408 C 0.57045 0.77694 0.33189 0.0
C409 C 0.66521 0.08081 0.78463 0.0
C410 C 0.71057 0.11225 0.8147 0.0
C411 C 0.67919 1.01192 0.76794 0.0
C412 C 0.73867 0.97088 0.78104 0.0
H413 H 0.61934 0.11033 0.77309 0.0
H414 H 0.64437 0.9918 0.74354 0.0
S415 S 0.87053 0.02665 0.86201 0.0
N416 N 0.81483 0.09564 0.85875 0.0
N417 N 0.84143 0.96649 0.82799 0.0
C418 C 0.78328 1.00116 0.81214 0.0
C419 C 0.7692 0.07157 0.82879 0.0
C420 C 0.03116 0.36665 0.27796 0.0
C421 C 0.05998 0.29664 0.27691 0.0
C422 C 0.9638 0.38232 0.25982 0.0
C423 C 0.92142 0.32833 0.24088 0.0
H424 H 0.06018 0.40945 0.29352 0.0
H425 H 0.94414 0.43703 0.26153 0.0
S426 S 0.97325 0.13729 0.22718 0.0
N427 N 0.04117 0.17331 0.25283 0.0
N428 N 0.91563 0.20347 0.21952 0.0
C429 C 0.95045 0.25885 0.23844 0.0
C430 C 0.01921 0.24286 0.25628 0.0
C431 C 0.15564 0.4436 0.77381 0.0
C432 C 0.20337 0.40847 0.74618 0.0
C433 C 0.17058 0.51253 0.79002 0.0
C434 C 0.23306 0.55007 0.77843 0.0
H435 H 0.10677 0.41729 0.78361 0.0
H436 H 0.1338 0.53561 0.81263 0.0
S437 S 0.36898 0.48607 0.70132 0.0
N438 N 0.31157 0.41892 0.70476 0.0
N439 N 0.3391 0.54883 0.73363 0.0
C440 C 0.27913 0.51676 0.74891 0.0
C441 C 0.26453 0.44602 0.73325 0.0
C442 C 0.07868 0.66321 0.26387 0.0
C443 C 0.12023 0.71546 0.24317 0.0
C444 C 1.01208 0.68049 0.28263 0.0
C445 C 0.98317 0.75032 0.28043 0.0
H446 H 0.09824 0.6086 0.26629 0.0
H447 H 0.98352 0.63901 0.29932 0.0
S448 S 0.06764 0.9051 0.22603 0.0
N449 N 0.12517 0.83839 0.21911 0.0
N450 N 1.00087 0.87141 0.2535 0.0
C451 C 0.02323 0.80234 0.2583 0.0
C452 C 0.09136 0.78484 0.23991 0.0
C453 C 0.85997 0.50834 0.78763 0.0
C454 C 0.79646 0.47075 0.77793 0.0
C455 C 0.87448 0.57621 0.77028 0.0
C456 C 0.82542 0.61015 0.74326 0.0
H457 H 0.89798 0.48618 0.80964 0.0
H458 H 0.92391 0.60273 0.77891 0.0
S459 S 0.65535 0.53253 0.70399 0.0
N460 N 0.68697 0.47117 0.73609 0.0
N461 N 0.71411 0.59879 0.70489 0.0
C462 C 0.76306 0.57255 0.73229 0.0
C463 C 0.74869 0.503 0.74921 0.0
loop_
_geom_bond_atom_site_label_1
_geom_bond_atom_site_label_2
_geom_bond_distance
_geom_bond_site_symmetry_2
_ccdc_geom_bond_type
Mn0 O5 2.095 . S
Mn0 O15 2.162 . S
Mn0 O16 2.297 . S
Mn0 O24 2.385 . S
Mn0 O25 2.209 . S
Mn0 O26 2.094 . S
Mn1 O6 2.121 . S
Mn1 N8 2.257 . S
Mn1 N17 2.282 . S
Mn1 O25 2.215 . S
Mn1 O27 2.117 . S
C2 O24 1.234 . S
C2 O25 1.283 . S
C3 O15 1.281 1_655 S
C3 O16 1.236 1_655 S
C4 O26 1.240 . S
C4 O27 1.264 . S
O5 Mn0 2.095 . S
O5 C14 1.250 . S
O6 Mn1 2.121 . S
O6 C14 1.258 . S
C7 N8 1.326 . S
C7 C11 1.460 1_545 S
C7 H13 0.929 . S
N8 Mn1 2.257 . S
N8 C7 1.326 . S
N8 C12 1.362 1_545 S
C9 C10 1.258 . S
C9 C12 1.431 . S
C9 C29 1.449 . S
C10 C9 1.258 . S
C10 C11 1.477 . S
C10 H30 0.931 . S
C11 C7 1.460 1_565 S
C11 C10 1.477 . S
C11 H31 0.930 . S
C12 N8 1.362 1_565 S
C12 C9 1.431 . S
C12 C22 1.476 . S
H13 C7 0.929 . S
C14 O5 1.250 . S
C14 O6 1.258 . S
O15 Mn0 2.162 . S
O15 C3 1.281 1_455 S
O16 Mn0 2.297 . S
O16 C3 1.236 1_455 S
N17 Mn1 2.282 . S
N17 C18 1.328 . S
N17 C22 1.318 1_545 S
C18 N17 1.328 . S
C18 C19 1.457 1_545 S
C18 H23 0.929 . S
C19 C18 1.457 1_565 S
C19 C20 1.291 . S
C19 H32 0.931 . S
C20 C19 1.291 . S
C20 C21 1.373 . S
C20 H33 0.929 . S
C21 C20 1.373 . S
C21 C22 1.396 . S
C21 C28 1.403 . S
C22 C12 1.476 . S
C22 N17 1.318 1_565 S
C22 C21 1.396 . S
H23 C18 0.929 . S
O24 Mn0 2.385 . S
O24 C2 1.234 . S
O25 Mn0 2.209 . S
O25 Mn1 2.215 . S
O25 C2 1.283 . S
O26 Mn0 2.094 . S
O26 C4 1.240 . S
O27 Mn1 2.117 . S
O27 C4 1.264 . S
C28 C21 1.403 . S
C28 C29 1.399 . S
C28 H34 0.929 . S
C29 C9 1.449 . S
C29 C28 1.399 . S
C29 H35 0.930 . S
H30 C10 0.931 . S
H31 C11 0.930 . S
H32 C19 0.931 . S
H33 C20 0.929 . S
H34 C28 0.929 . S
H35 C29 0.930 . S
Mn36 O41 2.095 . S
Mn36 O51 2.162 . S
Mn36 O52 2.297 . S
Mn36 O60 2.385 . S
Mn36 O61 2.209 . S
Mn36 O62 2.094 . S
Mn37 O42 2.121 . S
Mn37 N44 2.257 . S
Mn37 N53 2.282 . S
Mn37 O61 2.215 . S
Mn37 O63 2.117 . S
C38 O60 1.234 . S
C38 O61 1.283 . S
C39 O51 1.281 . S
C39 O52 1.236 . S
C40 O62 1.240 . S
C40 O63 1.264 . S
O41 Mn36 2.095 . S
O41 C50 1.250 . S
O42 Mn37 2.121 . S
O42 C50 1.258 . S
C43 N44 1.326 . S
C43 C47 1.460 . S
C43 H49 0.929 . S
N44 Mn37 2.257 . S
N44 C43 1.326 . S
N44 C48 1.362 . S
C45 C46 1.258 . S
C45 C48 1.431 . S
C45 C65 1.449 . S
C46 C45 1.258 . S
C46 C47 1.477 . S
C46 H66 0.931 . S
C47 C43 1.460 . S
C47 C46 1.477 . S
C47 H67 0.930 . S
C48 N44 1.362 . S
C48 C45 1.431 . S
C48 C58 1.476 . S
H49 C43 0.929 . S
C50 O41 1.250 . S
C50 O42 1.258 . S
O51 Mn36 2.162 . S
O51 C39 1.281 . S
O52 Mn36 2.297 . S
O52 C39 1.236 . S
N53 Mn37 2.282 . S
N53 C54 1.328 . S
N53 C58 1.318 . S
C54 N53 1.328 . S
C54 C55 1.457 . S
C54 H59 0.929 . S
C55 C54 1.457 . S
C55 C56 1.291 . S
C55 H68 0.931 . S
C56 C55 1.291 . S
C56 C57 1.373 . S
C56 H69 0.929 . S
C57 C56 1.373 . S
C57 C58 1.396 . S
C57 C64 1.403 . S
C58 C48 1.476 . S
C58 N53 1.318 . S
C58 C57 1.396 . S
H59 C54 0.929 . S
O60 Mn36 2.385 . S
O60 C38 1.234 . S
O61 Mn36 2.209 . S
O61 Mn37 2.215 . S
O61 C38 1.283 . S
O62 Mn36 2.094 . S
O62 C40 1.240 . S
O63 Mn37 2.117 . S
O63 C40 1.264 . S
C64 C57 1.403 . S
C64 C65 1.399 . S
C64 H70 0.929 . S
C65 C45 1.449 . S
C65 C64 1.399 . S
C65 H71 0.930 . S
H66 C46 0.931 . S
H67 C47 0.930 . S
H68 C55 0.931 . S
H69 C56 0.929 . S
H70 C64 0.929 . S
H71 C65 0.930 . S
Mn72 O77 2.095 . S
Mn72 O87 2.162 . S
Mn72 O88 2.297 . S
Mn72 O96 2.385 . S
Mn72 O97 2.209 . S
Mn72 O98 2.094 . S
Mn73 O78 2.121 . S
Mn73 N80 2.257 . S
Mn73 N89 2.282 . S
Mn73 O97 2.215 . S
Mn73 O99 2.117 . S
C74 O96 1.234 . S
C74 O97 1.283 . S
C75 O87 1.281 1_455 S
C75 O88 1.236 1_455 S
C76 O98 1.240 . S
C76 O99 1.264 . S
O77 Mn72 2.095 . S
O77 C86 1.250 . S
O78 Mn73 2.121 . S
O78 C86 1.258 . S
C79 N80 1.326 . S
C79 C83 1.460 1_565 S
C79 H85 0.929 . S
N80 Mn73 2.257 . S
N80 C79 1.326 . S
N80 C84 1.362 1_565 S
C81 C82 1.258 . S
C81 C84 1.431 . S
C81 C101 1.449 . S
C82 C81 1.258 . S
C82 C83 1.477 . S
C82 H102 0.931 . S
C83 C79 1.460 1_545 S
C83 C82 1.477 . S
C83 H103 0.930 . S
C84 N80 1.362 1_545 S
C84 C81 1.431 . S
C84 C94 1.476 . S
H85 C79 0.929 . S
C86 O77 1.250 . S
C86 O78 1.258 . S
O87 Mn72 2.162 . S
O87 C75 1.281 1_655 S
O88 Mn72 2.297 . S
O88 C75 1.236 1_655 S
N89 Mn73 2.282 . S
N89 C90 1.328 . S
N89 C94 1.318 1_565 S
C90 N89 1.328 . S
C90 C91 1.457 1_565 S
C90 H95 0.929 . S
C91 C90 1.457 1_545 S
C91 C92 1.291 . S
C91 H104 0.931 . S
C92 C91 1.291 . S
C92 C93 1.373 . S
C92 H105 0.929 . S
C93 C92 1.373 . S
C93 C94 1.396 . S
C93 C100 1.403 . S
C94 C84 1.476 . S
C94 N89 1.318 1_545 S
C94 C93 1.396 . S
H95 C90 0.929 . S
O96 Mn72 2.385 . S
O96 C74 1.234 . S
O97 Mn72 2.209 . S
O97 Mn73 2.215 . S
O97 C74 1.283 . S
O98 Mn72 2.094 . S
O98 C76 1.240 . S
O99 Mn73 2.117 . S
O99 C76 1.264 . S
C100 C93 1.403 . S
C100 C101 1.399 . S
C100 H106 0.929 . S
C101 C81 1.449 . S
C101 C100 1.399 . S
C101 H107 0.930 . S
H102 C82 0.931 . S
H103 C83 0.930 . S
H104 C91 0.931 . S
H105 C92 0.929 . S
H106 C100 0.929 . S
H107 C101 0.930 . S
Mn108 O113 2.095 . S
Mn108 O123 2.162 . S
Mn108 O124 2.297 . S
Mn108 O132 2.385 . S
Mn108 O133 2.209 . S
Mn108 O134 2.094 . S
Mn109 O114 2.121 . S
Mn109 N116 2.257 . S
Mn109 N125 2.282 . S
Mn109 O133 2.215 . S
Mn109 O135 2.117 . S
C110 O132 1.234 . S
C110 O133 1.283 . S
C111 O123 1.281 . S
C111 O124 1.236 . S
C112 O134 1.240 . S
C112 O135 1.264 . S
O113 Mn108 2.095 . S
O113 C122 1.250 . S
O114 Mn109 2.121 . S
O114 C122 1.258 . S
C115 N116 1.326 . S
C115 C119 1.460 . S
C115 H121 0.929 . S
N116 Mn109 2.257 . S
N116 C115 1.326 . S
N116 C120 1.362 . S
C117 C118 1.258 . S
C117 C120 1.431 . S
C117 C137 1.449 . S
C118 C117 1.258 . S
C118 C119 1.477 . S
C118 H138 0.931 . S
C119 C115 1.460 . S
C119 C118 1.477 . S
C119 H139 0.930 . S
C120 N116 1.362 . S
C120 C117 1.431 . S
C120 C130 1.476 . S
H121 C115 0.929 . S
C122 O113 1.250 . S
C122 O114 1.258 . S
O123 Mn108 2.162 . S
O123 C111 1.281 . S
O124 Mn108 2.297 . S
O124 C111 1.236 . S
N125 Mn109 2.282 . S
N125 C126 1.328 . S
N125 C130 1.318 . S
C126 N125 1.328 . S
C126 C127 1.457 . S
C126 H131 0.929 . S
C127 C126 1.457 . S
C127 C128 1.291 . S
C127 H140 0.931 . S
C128 C127 1.291 . S
C128 C129 1.373 . S
C128 H141 0.929 . S
C129 C128 1.373 . S
C129 C130 1.396 . S
C129 C136 1.403 . S
C130 C120 1.476 . S
C130 N125 1.318 . S
C130 C129 1.396 . S
H131 C126 0.929 . S
O132 Mn108 2.385 . S
O132 C110 1.234 . S
O133 Mn108 2.209 . S
O133 Mn109 2.215 . S
O133 C110 1.283 . S
O134 Mn108 2.094 . S
O134 C112 1.240 . S
O135 Mn109 2.117 . S
O135 C112 1.264 . S
C136 C129 1.403 . S
C136 C137 1.399 . S
C136 H142 0.929 . S
C137 C117 1.449 . S
C137 C136 1.399 . S
C137 H143 0.930 . S
H138 C118 0.931 . S
H139 C119 0.930 . S
H140 C127 0.931 . S
H141 C128 0.929 . S
H142 C136 0.929 . S
H143 C137 0.930 . S
Mn144 O149 2.095 . S
Mn144 O159 2.162 . S
Mn144 O160 2.297 . S
Mn144 O168 2.385 . S
Mn144 O169 2.209 . S
Mn144 O170 2.094 . S
Mn145 O150 2.121 . S
Mn145 N152 2.257 . S
Mn145 N161 2.282 . S
Mn145 O169 2.215 . S
Mn145 O171 2.117 . S
C146 O168 1.234 . S
C146 O169 1.283 . S
C147 O159 1.281 . S
C147 O160 1.236 . S
C148 O170 1.240 . S
C148 O171 1.264 . S
O149 Mn144 2.095 . S
O149 C158 1.250 . S
O150 Mn145 2.121 . S
O150 C158 1.258 . S
C151 N152 1.326 . S
C151 C155 1.460 . S
C151 H157 0.929 . S
N152 Mn145 2.257 . S
N152 C151 1.326 . S
N152 C156 1.362 . S
C153 C154 1.258 . S
C153 C156 1.431 . S
C153 C173 1.449 . S
C154 C153 1.258 . S
C154 C155 1.477 . S
C154 H174 0.931 . S
C155 C151 1.460 . S
C155 C154 1.477 . S
C155 H175 0.930 . S
C156 N152 1.362 . S
C156 C153 1.431 . S
C156 C166 1.476 . S
H157 C151 0.929 . S
C158 O149 1.250 . S
C158 O150 1.258 . S
O159 Mn144 2.162 . S
O159 C147 1.281 . S
O160 Mn144 2.297 . S
O160 C147 1.236 . S
N161 Mn145 2.282 . S
N161 C162 1.328 . S
N161 C166 1.318 . S
C162 N161 1.328 . S
C162 C163 1.457 . S
C162 H167 0.929 . S
C163 C162 1.457 . S
C163 C164 1.291 . S
C163 H176 0.931 . S
C164 C163 1.291 . S
C164 C165 1.373 . S
C164 H177 0.929 . S
C165 C164 1.373 . S
C165 C166 1.396 . S
C165 C172 1.403 . S
C166 C156 1.476 . S
C166 N161 1.318 . S
C166 C165 1.396 . S
H167 C162 0.929 . S
O168 Mn144 2.385 . S
O168 C146 1.234 . S
O169 Mn144 2.209 . S
O169 Mn145 2.215 . S
O169 C146 1.283 . S
O170 Mn144 2.094 . S
O170 C148 1.240 . S
O171 Mn145 2.117 . S
O171 C148 1.264 . S
C172 C165 1.403 . S
C172 C173 1.399 . S
C172 H178 0.929 . S
C173 C153 1.449 . S
C173 C172 1.399 . S
C173 H179 0.930 . S
H174 C154 0.931 . S
H175 C155 0.930 . S
H176 C163 0.931 . S
H177 C164 0.929 . S
H178 C172 0.929 . S
H179 C173 0.930 . S
Mn180 O185 2.095 . S
Mn180 O195 2.162 . S
Mn180 O196 2.297 . S
Mn180 O204 2.385 . S
Mn180 O205 2.209 . S
Mn180 O206 2.094 . S
Mn181 O186 2.121 . S
Mn181 N188 2.257 . S
Mn181 N197 2.282 . S
Mn181 O205 2.215 . S
Mn181 O207 2.117 . S
C182 O204 1.234 . S
C182 O205 1.283 . S
C183 O195 1.281 1_565 S
C183 O196 1.236 1_565 S
C184 O206 1.240 . S
C184 O207 1.264 . S
O185 Mn180 2.095 . S
O185 C194 1.250 . S
O186 Mn181 2.121 . S
O186 C194 1.258 . S
C187 N188 1.326 . S
C187 C191 1.460 1_455 S
C187 H193 0.929 . S
N188 Mn181 2.257 . S
N188 C187 1.326 . S
N188 C192 1.362 1_455 S
C189 C190 1.258 . S
C189 C192 1.431 . S
C189 C209 1.449 . S
C190 C189 1.258 . S
C190 C191 1.477 . S
C190 H210 0.931 . S
C191 C187 1.460 1_655 S
C191 C190 1.477 . S
C191 H211 0.930 . S
C192 N188 1.362 1_655 S
C192 C189 1.431 . S
C192 C202 1.476 . S
H193 C187 0.929 . S
C194 O185 1.250 . S
C194 O186 1.258 . S
O195 Mn180 2.162 . S
O195 C183 1.281 1_545 S
O196 Mn180 2.297 . S
O196 C183 1.236 1_545 S
N197 Mn181 2.282 . S
N197 C198 1.328 . S
N197 C202 1.318 1_455 S
C198 N197 1.328 . S
C198 C199 1.457 1_455 S
C198 H203 0.929 . S
C199 C198 1.457 1_655 S
C199 C200 1.291 . S
C199 H212 0.931 . S
C200 C199 1.291 . S
C200 C201 1.373 . S
C200 H213 0.929 . S
C201 C200 1.373 . S
C201 C202 1.396 . S
C201 C208 1.403 . S
C202 C192 1.476 . S
C202 N197 1.318 1_655 S
C202 C201 1.396 . S
H203 C198 0.929 . S
O204 Mn180 2.385 . S
O204 C182 1.234 . S
O205 Mn180 2.209 . S
O205 Mn181 2.215 . S
O205 C182 1.283 . S
O206 Mn180 2.094 . S
O206 C184 1.240 . S
O207 Mn181 2.117 . S
O207 C184 1.264 . S
C208 C201 1.403 . S
C208 C209 1.399 . S
C208 H214 0.929 . S
C209 C189 1.449 . S
C209 C208 1.399 . S
C209 H215 0.930 . S
H210 C190 0.931 . S
H211 C191 0.930 . S
H212 C199 0.931 . S
H213 C200 0.929 . S
H214 C208 0.929 . S
H215 C209 0.930 . S
Mn216 O221 2.095 . S
Mn216 O231 2.162 . S
Mn216 O232 2.297 . S
Mn216 O240 2.385 . S
Mn216 O241 2.209 . S
Mn216 O242 2.094 . S
Mn217 O222 2.121 . S
Mn217 N224 2.257 . S
Mn217 N233 2.282 . S
Mn217 O241 2.215 . S
Mn217 O243 2.117 . S
C218 O240 1.234 . S
C218 O241 1.283 . S
C219 O231 1.281 . S
C219 O232 1.236 . S
C220 O242 1.240 . S
C220 O243 1.264 . S
O221 Mn216 2.095 . S
O221 C230 1.250 . S
O222 Mn217 2.121 . S
O222 C230 1.258 . S
C223 N224 1.326 . S
C223 C227 1.460 . S
C223 H229 0.929 . S
N224 Mn217 2.257 . S
N224 C223 1.326 . S
N224 C228 1.362 . S
C225 C226 1.258 . S
C225 C228 1.431 . S
C225 C245 1.449 . S
C226 C225 1.258 . S
C226 C227 1.477 . S
C226 H246 0.931 . S
C227 C223 1.460 . S
C227 C226 1.477 . S
C227 H247 0.930 . S
C228 N224 1.362 . S
C228 C225 1.431 . S
C228 C238 1.476 . S
H229 C223 0.929 . S
C230 O221 1.250 . S
C230 O222 1.258 . S
O231 Mn216 2.162 . S
O231 C219 1.281 . S
O232 Mn216 2.297 . S
O232 C219 1.236 . S
N233 Mn217 2.282 . S
N233 C234 1.328 . S
N233 C238 1.318 . S
C234 N233 1.328 . S
C234 C235 1.457 . S
C234 H239 0.929 . S
C235 C234 1.457 . S
C235 C236 1.291 . S
C235 H248 0.931 . S
C236 C235 1.291 . S
C236 C237 1.373 . S
C236 H249 0.929 . S
C237 C236 1.373 . S
C237 C238 1.396 . S
C237 C244 1.403 . S
C238 C228 1.476 . S
C238 N233 1.318 . S
C238 C237 1.396 . S
H239 C234 0.929 . S
O240 Mn216 2.385 . S
O240 C218 1.234 . S
O241 Mn216 2.209 . S
O241 Mn217 2.215 . S
O241 C218 1.283 . S
O242 Mn216 2.094 . S
O242 C220 1.240 . S
O243 Mn217 2.117 . S
O243 C220 1.264 . S
C244 C237 1.403 . S
C244 C245 1.399 . S
C244 H250 0.929 . S
C245 C225 1.449 . S
C245 C244 1.399 . S
C245 H251 0.930 . S
H246 C226 0.931 . S
H247 C227 0.930 . S
H248 C235 0.931 . S
H249 C236 0.929 . S
H250 C244 0.929 . S
H251 C245 0.930 . S
Mn252 O257 2.095 . S
Mn252 O267 2.162 . S
Mn252 O268 2.297 . S
Mn252 O276 2.385 . S
Mn252 O277 2.209 . S
Mn252 O278 2.094 . S
Mn253 O258 2.121 . S
Mn253 N260 2.257 . S
Mn253 N269 2.282 . S
Mn253 O277 2.215 . S
Mn253 O279 2.117 . S
C254 O276 1.234 . S
C254 O277 1.283 . S
C255 O267 1.281 1_545 S
C255 O268 1.236 1_545 S
C256 O278 1.240 . S
C256 O279 1.264 . S
O257 Mn252 2.095 . S
O257 C266 1.250 . S
O258 Mn253 2.121 . S
O258 C266 1.258 . S
C259 N260 1.326 . S
C259 C263 1.460 1_655 S
C259 H265 0.929 . S
N260 Mn253 2.257 . S
N260 C259 1.326 . S
N260 C264 1.362 1_655 S
C261 C262 1.258 . S
C261 C264 1.431 . S
C261 C281 1.449 . S
C262 C261 1.258 . S
C262 C263 1.477 . S
C262 H282 0.931 . S
C263 C259 1.460 1_455 S
C263 C262 1.477 . S
C263 H283 0.930 . S
C264 N260 1.362 1_455 S
C264 C261 1.431 . S
C264 C274 1.476 . S
H265 C259 0.929 . S
C266 O257 1.250 . S
C266 O258 1.258 . S
O267 Mn252 2.162 . S
O267 C255 1.281 1_565 S
O268 Mn252 2.297 . S
O268 C255 1.236 1_565 S
N269 Mn253 2.282 . S
N269 C270 1.328 . S
N269 C274 1.318 1_655 S
C270 N269 1.328 . S
C270 C271 1.457 1_655 S
C270 H275 0.929 . S
C271 C270 1.457 1_455 S
C271 C272 1.291 . S
C271 H284 0.931 . S
C272 C271 1.291 . S
C272 C273 1.373 . S
C272 H285 0.929 . S
C273 C272 1.373 . S
C273 C274 1.396 . S
C273 C280 1.403 . S
C274 C264 1.476 . S
C274 N269 1.318 1_455 S
C274 C273 1.396 . S
H275 C270 0.929 . S
O276 Mn252 2.385 . S
O276 C254 1.234 . S
O277 Mn252 2.209 . S
O277 Mn253 2.215 . S
O277 C254 1.283 . S
O278 Mn252 2.094 . S
O278 C256 1.240 . S
O279 Mn253 2.117 . S
O279 C256 1.264 . S
C280 C273 1.403 . S
C280 C281 1.399 . S
C280 H286 0.929 . S
C281 C261 1.449 . S
C281 C280 1.399 . S
C281 H287 0.930 . S
H282 C262 0.931 . S
H283 C263 0.930 . S
H284 C271 0.931 . S
H285 C272 0.929 . S
H286 C280 0.929 . S
H287 C281 0.930 . S
C288 C289 1.369 . S
C288 C290 1.419 1_445 S
C288 H292 0.930 . S
C289 C288 1.369 . S
C289 C298 1.429 . S
C290 C288 1.419 1_665 S
C290 C291 1.363 . S
C290 H293 0.929 . S
C291 C290 1.363 . S
C291 C297 1.428 . S
H292 C288 0.930 . S
H293 C290 0.929 . S
S294 N295 1.613 1_655 S
S294 N296 1.610 1_545 S
N295 S294 1.613 1_455 S
N295 C298 1.350 . S
N296 S294 1.610 1_565 S
N296 C297 1.351 . S
C297 C291 1.428 . S
C297 N296 1.351 . S
C297 C298 1.434 1_665 S
C298 C289 1.429 . S
C298 N295 1.350 . S
C298 C297 1.434 1_445 S
C299 C300 1.369 . S
C299 C301 1.419 . S
C299 H303 0.930 . S
C300 C299 1.369 . S
C300 C309 1.429 . S
C301 C299 1.419 . S
C301 C302 1.363 . S
C301 H304 0.929 . S
C302 C301 1.363 . S
C302 C308 1.428 . S
H303 C299 0.930 . S
H304 C301 0.929 . S
S305 N306 1.613 . S
S305 N307 1.610 . S
N306 S305 1.613 . S
N306 C309 1.350 . S
N307 S305 1.610 . S
N307 C308 1.351 . S
C308 C302 1.428 . S
C308 N307 1.351 . S
C308 C309 1.434 . S
C309 C300 1.429 . S
C309 N306 1.350 . S
C309 C308 1.434 . S
C310 C311 1.369 . S
C310 C312 1.419 . S
C310 H314 0.930 . S
C311 C310 1.369 . S
C311 C320 1.429 . S
C312 C310 1.419 . S
C312 C313 1.363 . S
C312 H315 0.929 . S
C313 C312 1.363 . S
C313 C319 1.428 . S
H314 C310 0.930 . S
H315 C312 0.929 . S
S316 N317 1.613 . S
S316 N318 1.610 . S
N317 S316 1.613 . S
N317 C320 1.350 . S
N318 S316 1.610 . S
N318 C319 1.351 . S
C319 C313 1.428 . S
C319 N318 1.351 . S
C319 C320 1.434 . S
C320 C311 1.429 . S
C320 N317 1.350 . S
C320 C319 1.434 . S
C321 C322 1.369 . S
C321 C323 1.419 1_445 S
C321 H325 0.930 . S
C322 C321 1.369 . S
C322 C331 1.429 . S
C323 C321 1.419 1_665 S
C323 C324 1.363 . S
C323 H326 0.929 . S
C324 C323 1.363 . S
C324 C330 1.428 . S
H325 C321 0.930 . S
H326 C323 0.929 . S
S327 N328 1.613 1_655 S
S327 N329 1.610 1_545 S
N328 S327 1.613 1_455 S
N328 C331 1.350 . S
N329 S327 1.610 1_565 S
N329 C330 1.351 . S
C330 C324 1.428 . S
C330 N329 1.351 . S
C330 C331 1.434 1_665 S
C331 C322 1.429 . S
C331 N328 1.350 . S
C331 C330 1.434 1_445 S
C332 C333 1.369 . S
C332 C334 1.419 . S
C332 H336 0.930 . S
C333 C332 1.369 . S
C333 C342 1.429 . S
C334 C332 1.419 . S
C334 C335 1.363 . S
C334 H337 0.929 . S
C335 C334 1.363 . S
C335 C341 1.428 . S
H336 C332 0.930 . S
H337 C334 0.929 . S
S338 N339 1.613 . S
S338 N340 1.610 . S
N339 S338 1.613 . S
N339 C342 1.350 . S
N340 S338 1.610 . S
N340 C341 1.351 . S
C341 C335 1.428 . S
C341 N340 1.351 . S
C341 C342 1.434 . S
C342 C333 1.429 . S
C342 N339 1.350 . S
C342 C341 1.434 . S
C343 C344 1.369 . S
C343 C345 1.419 1_556 S
C343 H347 0.930 . S
C344 C343 1.369 . S
C344 C353 1.429 . S
C345 C343 1.419 1_554 S
C345 C346 1.363 . S
C345 H348 0.929 . S
C346 C345 1.363 . S
C346 C352 1.428 . S
H347 C343 0.930 . S
H348 C345 0.929 . S
S349 N350 1.613 . S
S349 N351 1.610 1_556 S
N350 S349 1.613 . S
N350 C353 1.350 . S
N351 S349 1.610 1_554 S
N351 C352 1.351 . S
C352 C346 1.428 . S
C352 N351 1.351 . S
C352 C353 1.434 1_554 S
C353 C344 1.429 . S
C353 N350 1.350 . S
C353 C352 1.434 1_556 S
C354 C355 1.369 . S
C354 C356 1.419 . S
C354 H358 0.930 . S
C355 C354 1.369 . S
C355 C364 1.429 . S
C356 C354 1.419 . S
C356 C357 1.363 . S
C356 H359 0.929 . S
C357 C356 1.363 . S
C357 C363 1.428 . S
H358 C354 0.930 . S
H359 C356 0.929 . S
S360 N361 1.613 . S
S360 N362 1.610 . S
N361 S360 1.613 . S
N361 C364 1.350 . S
N362 S360 1.610 . S
N362 C363 1.351 . S
C363 C357 1.428 . S
C363 N362 1.351 . S
C363 C364 1.434 . S
C364 C355 1.429 . S
C364 N361 1.350 . S
C364 C363 1.434 . S
C365 C366 1.369 . S
C365 C367 1.419 1_556 S
C365 H369 0.930 . S
C366 C365 1.369 . S
C366 C375 1.429 . S
C367 C365 1.419 1_554 S
C367 C368 1.363 . S
C367 H370 0.929 . S
C368 C367 1.363 . S
C368 C374 1.428 . S
H369 C365 0.930 . S
H370 C367 0.929 . S
S371 N372 1.611 . S
S371 N373 1.612 1_556 S
N372 S371 1.611 . S
N372 C375 1.350 . S
N373 S371 1.612 1_554 S
N373 C374 1.351 . S
C374 C368 1.428 . S
C374 N373 1.351 . S
C374 C375 1.434 1_554 S
C375 C366 1.429 . S
C375 N372 1.350 . S
C375 C374 1.434 1_556 S
C376 C377 1.369 . S
C376 C378 1.419 . S
C376 H380 0.930 . S
C377 C376 1.369 . S
C377 C386 1.429 . S
C378 C376 1.419 . S
C378 C379 1.363 . S
C378 H381 0.929 . S
C379 C378 1.363 . S
C379 C385 1.428 . S
H380 C376 0.930 . S
H381 C378 0.929 . S
S382 N383 1.613 . S
S382 N384 1.610 . S
N383 S382 1.613 . S
N383 C386 1.350 . S
N384 S382 1.610 . S
N384 C385 1.351 . S
C385 C379 1.428 . S
C385 N384 1.351 . S
C385 C386 1.434 . S
C386 C377 1.429 . S
C386 N383 1.350 . S
C386 C385 1.434 . S
C387 C388 1.369 . S
C387 C389 1.419 . S
C387 H391 0.930 . S
C388 C387 1.369 . S
C388 C397 1.429 . S
C389 C387 1.419 . S
C389 C390 1.363 . S
C389 H392 0.929 . S
C390 C389 1.363 . S
C390 C396 1.428 . S
H391 C387 0.930 . S
H392 C389 0.929 . S
S393 N394 1.613 . S
S393 N395 1.610 . S
N394 S393 1.613 . S
N394 C397 1.350 . S
N395 S393 1.610 . S
N395 C396 1.351 . S
C396 C390 1.428 . S
C396 N395 1.351 . S
C396 C397 1.434 . S
C397 C388 1.429 . S
C397 N394 1.350 . S
C397 C396 1.434 . S
C398 C399 1.369 . S
C398 C400 1.419 . S
C398 H402 0.930 . S
C399 C398 1.369 . S
C399 C408 1.429 . S
C400 C398 1.419 . S
C400 C401 1.363 . S
C400 H403 0.929 . S
C401 C400 1.363 . S
C401 C407 1.428 . S
H402 C398 0.930 . S
H403 C400 0.929 . S
S404 N405 1.613 . S
S404 N406 1.610 . S
N405 S404 1.613 . S
N405 C408 1.350 . S
N406 S404 1.610 . S
N406 C407 1.351 . S
C407 C401 1.428 . S
C407 N406 1.351 . S
C407 C408 1.434 . S
C408 C399 1.429 . S
C408 N405 1.350 . S
C408 C407 1.434 . S
C409 C410 1.369 . S
C409 C411 1.419 . S
C409 H413 0.930 . S
C410 C409 1.369 . S
C410 C419 1.429 . S
C411 C409 1.419 . S
C411 C412 1.363 . S
C411 H414 0.929 . S
C412 C411 1.363 . S
C412 C418 1.428 . S
H413 C409 0.930 . S
H414 C411 0.929 . S
S415 N416 1.613 . S
S415 N417 1.610 . S
N416 S415 1.613 . S
N416 C419 1.350 . S
N417 S415 1.610 . S
N417 C418 1.351 . S
C418 C412 1.428 . S
C418 N417 1.351 . S
C418 C419 1.434 . S
C419 C410 1.429 . S
C419 N416 1.350 . S
C419 C418 1.434 . S
C420 C421 1.369 . S
C420 C422 1.419 . S
C420 H424 0.930 . S
C421 C420 1.369 . S
C421 C430 1.429 . S
C422 C420 1.419 . S
C422 C423 1.363 . S
C422 H425 0.929 . S
C423 C422 1.363 . S
C423 C429 1.428 . S
H424 C420 0.930 . S
H425 C422 0.929 . S
S426 N427 1.613 . S
S426 N428 1.610 . S
N427 S426 1.613 . S
N427 C430 1.350 . S
N428 S426 1.610 . S
N428 C429 1.351 . S
C429 C423 1.428 . S
C429 N428 1.351 . S
C429 C430 1.434 . S
C430 C421 1.429 . S
C430 N427 1.350 . S
C430 C429 1.434 . S
C431 C432 1.369 . S
C431 C433 1.419 . S
C431 H435 0.930 . S
C432 C431 1.369 . S
C432 C441 1.429 . S
C433 C431 1.419 . S
C433 C434 1.363 . S
C433 H436 0.929 . S
C434 C433 1.363 . S
C434 C440 1.428 . S
H435 C431 0.930 . S
H436 C433 0.929 . S
S437 N438 1.613 . S
S437 N439 1.610 . S
N438 S437 1.613 . S
N438 C441 1.350 . S
N439 S437 1.610 . S
N439 C440 1.351 . S
C440 C434 1.428 . S
C440 N439 1.351 . S
C440 C441 1.434 . S
C441 C432 1.429 . S
C441 N438 1.350 . S
C441 C440 1.434 . S
C442 C443 1.369 . S
C442 C444 1.419 . S
C442 H446 0.930 . S
C443 C442 1.369 . S
C443 C452 1.429 . S
C444 C442 1.419 . S
C444 C445 1.363 . S
C444 H447 0.929 . S
C445 C444 1.363 . S
C445 C451 1.428 . S
H446 C442 0.930 . S
H447 C444 0.929 . S
S448 N449 1.613 . S
S448 N450 1.610 . S
N449 S448 1.613 . S
N449 C452 1.350 . S
N450 S448 1.610 . S
N450 C451 1.351 . S
C451 C445 1.428 . S
C451 N450 1.351 . S
C451 C452 1.434 . S
C452 C443 1.429 . S
C452 N449 1.350 . S
C452 C451 1.434 . S
C453 C454 1.369 . S
C453 C455 1.419 . S
C453 H457 0.930 . S
C454 C453 1.369 . S
C454 C463 1.429 . S
C455 C453 1.419 . S
C455 C456 1.363 . S
C455 H458 0.929 . S
C456 C455 1.363 . S
C456 C462 1.428 . S
H457 C453 0.930 . S
H458 C455 0.929 . S
S459 N460 1.613 . S
S459 N461 1.610 . S
N460 S459 1.613 . S
N460 C463 1.350 . S
N461 S459 1.610 . S
N461 C462 1.351 . S
C462 C456 1.428 . S
C462 N461 1.351 . S
C462 C463 1.434 . S
C463 C454 1.429 . S
C463 N460 1.350 . S
C463 C462 1.434 . S
C289 C2 0.764 . S
C291 C74 0.763 . S
C300 C38 0.758 . S
C302 C110 0.769 . S
C311 C146 0.758 . S
C313 C218 0.769 . S
C322 C182 0.766 . S
C324 C254 0.768 . S
C333 C4 1.497 . S
C335 C184 1.498 . S
C344 C40 1.492 . S
C346 C220 1.499 . S
C355 C256 1.497 . S
C357 C76 1.491 . S
C366 C112 1.494 . S
C368 C148 1.492 . S
C377 C147 1.710 . S
C379 C14 1.638 . S
C388 C50 1.627 . S
C390 C183 1.718 . S
C399 C86 1.632 . S
C401 C219 1.715 . S
C410 C122 1.639 . S
C412 C255 1.712 . S
C421 C3 1.710 . S
C423 C158 1.637 . S
C432 C194 1.638 . S
C434 C39 1.713 . S
C443 C230 1.635 . S
C445 C75 1.713 . S
C454 C111 1.712 . S
C456 C266 1.634 . S
