# Generated by pormake.
# Topology rob, (6)-cn, num edge types: 1
# Building blocks:
#     Node 0, Type 0, BuildingBlock: BETDEL_clean_sbu_0, # of connection points: 6
#     Node 1, Type 0, BuildingBlock: BETDEL_clean_sbu_0, # of connection points: 6
#     Node 2, Type 0, BuildingBlock: BETDEL_clean_sbu_0, # of connection points: 6
#     Node 3, Type 0, BuildingBlock: BETDEL_clean_sbu_0, # of connection points: 6
#     Edge 4, Type (0, 0), BuildingBlock: MIFKUJ_clean_linker_0, # of connection points: 2
#     Edge 5, Type (0, 0), BuildingBlock: MIFKUJ_clean_linker_0, # of connection points: 2
#     Edge 6, Type (0, 0), BuildingBlock: MIFKUJ_clean_linker_0, # of connection points: 2
#     Edge 7, Type (0, 0), BuildingBlock: MIFKUJ_clean_linker_0, # of connection points: 2
#     Edge 8, Type (0, 0), BuildingBlock: MIFKUJ_clean_linker_0, # of connection points: 2
#     Edge 9, Type (0, 0), BuildingBlock: MIFKUJ_clean_linker_0, # of connection points: 2
#     Edge 10, Type (0, 0), BuildingBlock: MIFKUJ_clean_linker_0, # of connection points: 2
#     Edge 11, Type (0, 0), BuildingBlock: MIFKUJ_clean_linker_0, # of connection points: 2
#     Edge 12, Type (0, 0), BuildingBlock: MIFKUJ_clean_linker_0, # of connection points: 2
#     Edge 13, Type (0, 0), BuildingBlock: MIFKUJ_clean_linker_0, # of connection points: 2
#     Edge 14, Type (0, 0), BuildingBlock: MIFKUJ_clean_linker_0, # of connection points: 2
#     Edge 15, Type (0, 0), BuildingBlock: MIFKUJ_clean_linker_0, # of connection points: 2
# Relax obj value: 0.070
# Max RMSD: 0.159
# Mean RMSD: 0.159
data_MOF--net-rob--node1-BETDEL_clean_sbu_0--edge1-MIFKUJ_clean_linker_0
_symmetry_space_group_name_H-M    P1
_symmetry_Int_Tables_number       1
_symmetry_cell_setting            triclinic
loop_
_symmetry_equiv_pos_as_xyz
'x, y, z'
_cell_length_a     16.49511
_cell_length_b     33.793403
_cell_length_c     37.683853
_cell_angle_alpha  89.658508
_cell_angle_beta   102.29268
_cell_angle_gamma 90.166316
loop_
_atom_site_label
_atom_site_type_symbol
_atom_site_fract_x
_atom_site_fract_y
_atom_site_fract_z
_atom_type_partial_charge
Dy0 Dy 0.14419 0.26147 0.01998 0.0
C1 C 0.37146 0.24966 0.91996 0.0
C2 C 0.04681 0.24297 0.06753 0.0
Dy3 Dy 0.28896 0.24776 0.97552 0.0
O4 O 0.03582 0.27365 0.04587 0.0
O5 O 0.10886 0.22201 0.06201 0.0
O6 O 0.16071 0.32833 0.026 0.0
O7 O 0.23536 0.29501 0.00037 0.0
C8 C 0.22294 0.32961 0.00975 0.0
C9 C 0.21976 0.18306 0.99874 0.0
O10 O 0.36806 0.257 0.03077 0.0
O11 O 0.25999 0.24885 0.06197 0.0
O12 O 0.31482 0.22421 0.92368 0.0
O13 O 0.3864 0.27337 0.94775 0.0
O14 O 0.2964 0.18431 0.99488 0.0
O15 O 0.18392 0.21503 0.98755 0.0
O16 O 0.06747 0.2585 0.96369 0.0
O17 O 0.17867 0.27115 0.93556 0.0
C18 C 0.33968 0.25263 0.06101 0.0
C19 C 0.09823 0.26719 0.93481 0.0
Dy20 Dy 0.66513 0.75958 0.0214 0.0
C21 C 0.87283 0.74797 0.91864 0.0
C22 C 0.56326 0.75389 0.07002 0.0
Dy23 Dy 0.79399 0.7456 0.97576 0.0
O24 O 0.5733 0.78527 0.0514 0.0
O25 O 0.6074 0.72521 0.06133 0.0
O26 O 0.67623 0.82536 0.0154 0.0
O27 O 0.78029 0.78964 0.01628 0.0
C28 C 0.75247 0.82443 0.01152 0.0
C29 C 0.70817 0.68103 0.98803 0.0
O30 O 0.87984 0.73639 0.0296 0.0
O31 O 0.77158 0.73126 0.06033 0.0
O32 O 0.80723 0.72752 0.92024 0.0
O33 O 0.8984 0.76648 0.94925 0.0
O34 O 0.78536 0.68022 0.98528 0.0
O35 O 0.67923 0.71547 0.98152 0.0
O36 O 0.58615 0.76265 0.96545 0.0
O37 O 0.69742 0.78547 0.9434 0.0
C38 C 0.8511 0.72777 0.05906 0.0
C39 C 0.61671 0.78052 0.93984 0.0
Dy40 Dy 0.32486 0.78261 0.47793 0.0
C41 C 0.08891 0.78438 0.57081 0.0
C42 C 0.41796 0.78731 0.42614 0.0
Dy43 Dy 0.17799 0.76538 0.52003 0.0
O44 O 0.36263 0.81279 0.43089 0.0
O45 O 0.42411 0.75929 0.45042 0.0
O46 O 0.32891 0.84483 0.49902 0.0
O47 O 0.2161 0.81385 0.48858 0.0
C48 C 0.25107 0.84569 0.50088 0.0
C49 C 0.26114 0.69853 0.51154 0.0
O50 O 0.10426 0.76493 0.46285 0.0
O51 O 0.21981 0.75762 0.43626 0.0
O52 O 0.07043 0.7554 0.54764 0.0
O53 O 0.1525 0.8038 0.56452 0.0
O54 O 0.19732 0.69889 0.52688 0.0
O55 O 0.27255 0.73335 0.50169 0.0
O56 O 0.40346 0.77155 0.53271 0.0
O57 O 0.29317 0.77515 0.56284 0.0
C58 C 0.13861 0.75733 0.43472 0.0
C59 C 0.37323 0.77251 0.56255 0.0
Dy60 Dy 0.83584 0.28635 0.47808 0.0
C61 C 0.60277 0.2837 0.57467 0.0
C62 C 0.92779 0.28639 0.42585 0.0
Dy63 Dy 0.69845 0.27074 0.52516 0.0
O64 O 0.87491 0.31334 0.43006 0.0
O65 O 0.93198 0.25925 0.45086 0.0
O66 O 0.83134 0.35095 0.4916 0.0
O67 O 0.72428 0.31619 0.4877 0.0
C68 C 0.75493 0.35009 0.4956 0.0
C69 C 0.79034 0.20501 0.52136 0.0
O70 O 0.61939 0.26776 0.46895 0.0
O71 O 0.72946 0.25747 0.43975 0.0
O72 O 0.59225 0.2546 0.55156 0.0
O73 O 0.66253 0.30651 0.56922 0.0
O74 O 0.72786 0.20557 0.53731 0.0
O75 O 0.79675 0.23912 0.50894 0.0
O76 O 0.91785 0.28599 0.53316 0.0
O77 O 0.80919 0.29687 0.56291 0.0
C78 C 0.64911 0.25779 0.44008 0.0
C79 C 0.88929 0.29562 0.56225 0.0
H80 H 0.75284 0.60412 0.9827 0.0
H81 H 0.6681 0.54479 0.98454 0.0
H82 H 0.46526 0.61747 0.00127 0.0
H83 H 0.54921 0.67715 0.99851 0.0
H84 H 0.50336 0.54955 0.04958 0.0
H85 H 0.45096 0.58258 0.9225 0.0
H86 H 0.4878 0.59784 0.86386 0.0
H87 H 0.6049 0.48438 0.86504 0.0
H88 H 0.57031 0.46876 0.92411 0.0
H89 H 0.18625 0.40555 0.02315 0.0
H90 H 0.2677 0.46508 0.01809 0.0
H91 H 0.45049 0.39438 0.98106 0.0
H92 H 0.36808 0.33473 0.98572 0.0
H93 H 0.42407 0.4614 0.94289 0.0
H94 H 0.48246 0.42744 0.06861 0.0
H95 H 0.45056 0.41008 0.12779 0.0
H96 H 0.33119 0.52242 0.13071 0.0
H97 H 0.36105 0.54018 0.07118 0.0
C98 C 0.69019 0.60748 0.98678 0.0
C99 C 0.65755 0.64526 0.99043 0.0
C100 C 0.64181 0.57356 0.98773 0.0
C101 C 0.56025 0.57672 0.99283 0.0
C102 C 0.52803 0.61439 0.99725 0.0
C103 C 0.57595 0.64841 0.99565 0.0
C104 C 0.50891 0.54064 0.99368 0.0
C105 C 0.48494 0.53055 0.02613 0.0
C106 C 0.48736 0.51519 0.96339 0.0
C107 C 0.50899 0.52472 0.92802 0.0
C108 C 0.48553 0.56108 0.91052 0.0
C109 C 0.50583 0.56976 0.87714 0.0
C110 C 0.54894 0.54216 0.8608 0.0
C111 C 0.57173 0.50579 0.87778 0.0
C112 C 0.55182 0.49702 0.91122 0.0
C113 C 0.24359 0.40274 0.01372 0.0
C114 C 0.27087 0.36551 0.00474 0.0
C115 C 0.29034 0.43677 0.01101 0.0
C116 C 0.36605 0.43426 -0.00027 0.0
C117 C 0.39241 0.39714 0.98987 0.0
C118 C 0.3453 0.36305 0.99246 0.0
C119 C 0.41798 0.47029 0.9988 0.0
C120 C 0.44235 0.48035 0.96639 0.0
C121 C 0.44098 0.49545 0.0293 0.0
C122 C 0.42325 0.48498 0.06522 0.0
C123 C 0.44879 0.44832 0.08171 0.0
C124 C 0.43115 0.43842 0.11534 0.0
C125 C 0.38869 0.46509 0.13295 0.0
C126 C 0.36395 0.50176 0.117 0.0
C127 C 0.38123 0.51177 0.08331 0.0
H128 H 0.37512 0.45738 0.159 0.0
H129 H 0.56446 0.54891 0.83492 0.0
H130 H 0.23919 0.62403 0.53497 0.0
H131 H 0.32566 0.56584 0.53299 0.0
H132 H 0.48626 0.63485 0.48 0.0
H133 H 0.39903 0.69333 0.48184 0.0
H134 H 0.45618 0.56242 0.44907 0.0
H135 H 0.54508 0.61269 0.56854 0.0
H136 H 0.52877 0.63786 0.62788 0.0
H137 H 0.42773 0.52603 0.65182 0.0
H138 H 0.44176 0.50042 0.59225 0.0
H139 H 0.80085 0.4272 0.49163 0.0
H140 H 0.71731 0.48642 0.49488 0.0
H141 H 0.51624 0.41327 0.51392 0.0
H142 H 0.5984 0.35365 0.50922 0.0
H143 H 0.57183 0.4885 0.56274 0.0
H144 H 0.47804 0.44117 0.43946 0.0
H145 H 0.49967 0.41811 0.38022 0.0
H146 H 0.62029 0.52777 0.36496 0.0
H147 H 0.6007 0.55118 0.42449 0.0
C148 C 0.29274 0.62681 0.52274 0.0
C149 C 0.31246 0.66329 0.50856 0.0
C150 C 0.34239 0.59353 0.52179 0.0
C151 C 0.41325 0.59597 0.50678 0.0
C152 C 0.43207 0.63221 0.49181 0.0
C153 C 0.38232 0.66563 0.49286 0.0
C154 C 0.46752 0.56066 0.50708 0.0
C155 C 0.48222 0.54663 0.47402 0.0
C156 C 0.50117 0.53967 0.53958 0.0
C157 C 0.49369 0.55474 0.57571 0.0
C158 C 0.51876 0.59354 0.58631 0.0
C159 C 0.51001 0.60788 0.62002 0.0
C160 C 0.47707 0.58358 0.64357 0.0
C161 C 0.45312 0.54483 0.63351 0.0
C162 C 0.46146 0.53038 0.59977 0.0
C163 C 0.73903 0.42369 0.49672 0.0
C164 C 0.70619 0.38577 0.50023 0.0
C165 C 0.69142 0.45756 0.49855 0.0
C166 C 0.61068 0.45422 0.50465 0.0
C167 C 0.57856 0.41646 0.50931 0.0
C168 C 0.6255 0.38247 0.50663 0.0
C169 C 0.55907 0.4902 0.50475 0.0
C170 C 0.54547 0.50441 0.5379 0.0
C171 C 0.52729 0.51164 0.47245 0.0
C172 C 0.53892 0.49769 0.43664 0.0
C173 C 0.51007 0.46017 0.42368 0.0
C174 C 0.52175 0.44708 0.39001 0.0
C175 C 0.56159 0.47141 0.3689 0.0
C176 C 0.58962 0.50892 0.38138 0.0
C177 C 0.57823 0.52212 0.41509 0.0
H178 H 0.57052 0.46125 0.34282 0.0
H179 H 0.47011 0.59474 0.6696 0.0
H180 H 0.05455 0.17414 0.99712 0.0
H181 H 0.97893 0.11254 0.00136 0.0
H182 H 0.20842 0.04724 0.01793 0.0
H183 H 0.2843 0.10891 0.01335 0.0
H184 H 0.09164 1.01234 0.96749 0.0
H185 H 0.10412 0.06156 0.08876 0.0
H186 H 0.08374 0.10784 0.13651 0.0
H187 H 0.82269 0.11249 0.08989 0.0
H188 H 0.84148 0.06625 0.04187 0.0
H189 H 0.91981 0.82926 0.01475 0.0
H190 H 0.0025 0.8895 0.01321 0.0
H191 H 0.78034 0.96012 -0.00023 0.0
H192 H 0.69816 0.90025 0.00202 0.0
H193 H 0.89718 0.99135 0.04969 0.0
H194 H 0.87942 0.94323 0.92938 0.0
H195 H 0.89285 0.8945 0.88251 0.0
H196 H 0.1558 0.88875 0.92443 0.0
H197 H 0.14382 0.93697 0.97197 0.0
C198 C 0.08905 0.14672 0.00218 0.0
C199 C 0.17539 0.14634 0.00495 0.0
C200 C 0.04575 0.11149 0.00469 0.0
C201 C 0.08791 0.07514 0.01021 0.0
C202 C 0.17445 0.07485 0.01365 0.0
C203 C 0.21781 0.11013 0.01118 0.0
C204 C 0.04128 0.03734 0.01066 0.0
C205 C 0.05012 1.0075 0.98589 0.0
C206 C 0.98494 0.03138 0.03378 0.0
C207 C 0.97434 0.06066 0.0616 0.0
C208 C 0.04254 0.07278 0.08848 0.0
C209 C 0.03118 0.09884 0.11569 0.0
C210 C 0.95193 0.11302 0.11624 0.0
C211 C 0.88398 0.10141 0.08946 0.0
C212 C 0.89491 0.07521 0.06231 0.0
C213 C 0.88877 0.85766 0.01126 0.0
C214 C 0.80268 0.86014 0.00865 0.0
C215 C 0.93595 0.89206 0.01023 0.0
C216 C 0.89766 0.92945 0.00618 0.0
C217 C 0.81143 0.93172 0.00306 0.0
C218 C 0.76447 0.89746 0.00425 0.0
C219 C 0.94726 0.96642 0.00649 0.0
C220 C 0.9389 0.99611 0.03136 0.0
C221 C 0.00309 0.97238 0.98314 0.0
C222 C 0.01059 0.94344 0.9545 0.0
C223 C 0.94003 0.93133 0.92882 0.0
C224 C 0.94738 0.90383 0.9021 0.0
C225 C 0.02509 0.8885 0.90054 0.0
C226 C 0.09562 0.90063 0.9257 0.0
C227 C 0.0886 0.92806 0.95254 0.0
H228 H 0.03068 0.86736 0.87976 0.0
H229 H 0.94302 0.13289 0.13748 0.0
H230 H 0.94605 0.20052 0.50624 0.0
H231 H 0.02827 0.14048 0.50389 0.0
H232 H 0.82486 0.06906 0.52383 0.0
H233 H 0.74533 0.12887 0.52815 0.0
H234 H 0.95306 0.03988 0.56159 0.0
H235 H 0.88426 0.07948 0.43659 0.0
H236 H 0.87533 0.12389 0.38371 0.0
H237 H 0.14091 0.13364 0.40585 0.0
H238 H 0.15142 0.08964 0.45916 0.0
H239 H 0.08648 0.85411 0.50197 0.0
H240 H 0.01119 0.91583 0.50636 0.0
H241 H 0.23813 0.9821 0.5145 0.0
H242 H 0.31379 0.92054 0.51062 0.0
H243 H 0.10304 1.01379 0.46327 0.0
H244 H 0.16376 0.96799 0.58792 0.0
H245 H 0.16264 0.91902 0.63662 0.0
H246 H 0.89637 0.9165 0.60964 0.0
H247 H 0.89587 0.96493 0.56034 0.0
C248 C 0.91899 0.17192 0.50978 0.0
C249 C 0.8392 0.16931 0.51713 0.0
C250 C 0.96583 0.13751 0.50833 0.0
C251 C 0.9328 0.09978 0.51322 0.0
C252 C 0.85247 0.0975 0.52012 0.0
C253 C 0.80667 0.13179 0.52237 0.0
C254 C 0.98169 0.06264 0.51202 0.0
C255 C 0.98482 0.03415 0.53973 0.0
C256 C 0.02467 0.05489 0.48395 0.0
C257 C 0.01857 0.08156 0.45207 0.0
C258 C 0.94073 0.09134 0.43035 0.0
C259 C 0.93539 0.1164 0.40028 0.0
C260 C 0.00752 0.13158 0.39147 0.0
C261 C 0.08512 0.12183 0.41274 0.0
C262 C 0.09081 0.09682 0.44286 0.0
C263 C 0.12042 0.8818 0.5051 0.0
C264 C 0.20611 0.88245 0.50609 0.0
C265 C 0.07735 0.91706 0.50755 0.0
C266 C 0.11901 0.95366 0.51076 0.0
C267 C 0.20464 0.95428 0.51193 0.0
C268 C 0.24787 0.91903 0.50992 0.0
C269 C 0.07328 0.99135 0.51252 0.0
C270 C 0.07107 0.01981 0.485 0.0
C271 C 0.02947 0.99866 0.54025 0.0
C272 C 0.02981 0.9699 0.57023 0.0
C273 C 0.10497 0.95679 0.59218 0.0
C274 C 0.10463 0.92914 0.61992 0.0
C275 C 0.02948 0.91466 0.6262 0.0
C276 C 0.95452 0.92776 0.60474 0.0
C277 C 0.95452 0.95532 0.57692 0.0
H278 H 0.02927 0.8934 0.64776 0.0
H279 H 0.00336 0.15072 0.36808 0.0
H280 H 0.62483 0.19045 0.40056 0.0
H281 H 0.56583 0.18626 0.33523 0.0
H282 H 0.5002 0.30996 0.3338 0.0
H283 H 0.55421 0.31323 0.39945 0.0
H284 H 0.39259 0.27453 0.28545 0.0
H285 H 0.68806 0.27247 0.31967 0.0
H286 H 0.8242 0.24702 0.35036 0.0
H287 H 0.7838 0.1415 0.28628 0.0
H288 H 0.64421 0.16505 0.25676 0.0
H289 H 0.39222 0.31671 0.10181 0.0
H290 H 0.44695 0.31633 0.16772 0.0
H291 H 0.46158 0.18891 0.1665 0.0
H292 H 0.40643 0.18938 0.10066 0.0
H293 H 0.59376 0.22508 0.21531 0.0
H294 H 0.29706 0.23198 0.17886 0.0
H295 H 0.1649 0.26146 0.14787 0.0
H296 H 0.21341 0.36369 0.21602 0.0
H297 H 0.34937 0.33626 0.24576 0.0
C298 C 0.59426 0.21613 0.38642 0.0
C299 C 0.59276 0.25199 0.4048 0.0
C300 C 0.56178 0.21395 0.34907 0.0
C301 C 0.53103 0.24812 0.32933 0.0
C302 C 0.52412 0.28324 0.3483 0.0
C303 C 0.55435 0.28508 0.38584 0.0
C304 C 0.51289 0.24843 0.28891 0.0
C305 C 0.43696 0.26404 0.27018 0.0
C306 C 0.57069 0.23449 0.2688 0.0
C307 C 0.65484 0.22029 0.28643 0.0
C308 C 0.70749 0.24357 0.31243 0.0
C309 C 0.78544 0.22945 0.32965 0.0
C310 C 0.81311 0.19279 0.32018 0.0
C311 C 0.76229 0.1699 0.29365 0.0
C312 C 0.68334 0.18345 0.27689 0.0
C313 C 0.41064 0.28885 0.11552 0.0
C314 C 0.39695 0.2531 0.09643 0.0
C315 C 0.44077 0.2886 0.1531 0.0
C316 C 0.45682 0.25254 0.17196 0.0
C317 C 0.44931 0.217 0.1524 0.0
C318 C 0.41866 0.21727 0.11486 0.0
C319 C 0.47408 0.25142 0.21215 0.0
C320 C 0.54965 0.23557 0.23072 0.0
C321 C 0.41658 0.26577 0.2321 0.0
C322 C 0.33449 0.28227 0.21415 0.0
C323 C 0.28055 0.26107 0.18686 0.0
C324 C 0.20466 0.2774 0.16953 0.0
C325 C 0.18023 0.31425 0.18009 0.0
C326 C 0.23232 0.33513 0.2078 0.0
C327 C 0.30925 0.31936 0.2247 0.0
H328 H 0.12099 0.3266 0.16678 0.0
H329 H 0.87389 0.18215 0.33336 0.0
H330 H 0.5511 0.69222 0.1159 0.0
H331 H 0.51385 0.69633 0.17536 0.0
H332 H 0.45322 0.81974 0.15595 0.0
H333 H 0.48931 0.81564 0.09644 0.0
H334 H 0.57003 0.80961 0.21621 0.0
H335 H 0.30623 0.75584 0.16662 0.0
H336 H 0.19707 0.71094 0.13481 0.0
H337 H 0.29163 0.61754 0.20983 0.0
H338 H 0.40241 0.66164 0.24175 0.0
H339 H 0.40394 0.84373 0.37385 0.0
H340 H 0.4312 0.83629 0.31305 0.0
H341 H 0.5318 0.71997 0.34167 0.0
H342 H 0.50597 0.72755 0.40316 0.0
H343 H 0.39396 0.72569 0.27759 0.0
H344 H 0.66099 0.7839 0.32654 0.0
H345 H 0.75573 0.83409 0.36001 0.0
H346 H 0.63869 0.92411 0.28579 0.0
H347 H 0.54257 0.87452 0.25212 0.0
C348 C 0.52725 0.71987 0.12386 0.0
C349 C 0.52385 0.75372 0.10176 0.0
C350 C 0.50565 0.72215 0.15779 0.0
C351 C 0.48118 0.75842 0.17022 0.0
C352 C 0.47218 0.7915 0.14698 0.0
C353 C 0.49271 0.78909 0.11294 0.0
C354 C 0.47758 0.76336 0.20903 0.0
C355 C 0.53077 0.79143 0.22944 0.0
C356 C 0.42747 0.73927 0.22657 0.0
C357 C 0.3638 0.71192 0.2062 0.0
C358 C 0.30487 0.72551 0.17594 0.0
C359 C 0.24236 0.70025 0.15799 0.0
C360 C 0.23769 0.66135 0.17015 0.0
C361 C 0.29557 0.64762 0.2003 0.0
C362 C 0.3583 0.67274 0.21832 0.0
C363 C 0.43415 0.81703 0.36759 0.0
C364 C 0.45242 0.78611 0.39311 0.0
C365 C 0.44939 0.81277 0.33279 0.0
C366 C 0.48282 0.77748 0.32285 0.0
C367 C 0.50579 0.74741 0.34891 0.0
C368 C 0.49173 0.75191 0.38405 0.0
C369 C 0.48724 0.77121 0.28446 0.0
C370 C 0.43391 0.74322 0.2642 0.0
C371 C 0.53619 0.79567 0.26687 0.0
C372 C 0.5941 0.82554 0.287 0.0
C373 C 0.655 0.81445 0.31753 0.0
C374 C 0.70907 0.84278 0.3365 0.0
C375 C 0.7031 0.88228 0.32509 0.0
C376 C 0.64321 0.89351 0.29461 0.0
C377 C 0.589 0.86529 0.27555 0.0
H378 H 0.74497 0.90418 0.33982 0.0
H379 H 0.18896 0.64191 0.15634 0.0
H380 H 0.63124 0.84241 0.89606 0.0
H381 H 0.58443 0.84341 0.83011 0.0
H382 H 0.44674 0.73559 0.83548 0.0
H383 H 0.49293 0.73475 0.90179 0.0
H384 H 0.56885 0.72975 0.79458 0.0
H385 H 0.34699 0.81605 0.80566 0.0
H386 H 0.2801 0.87476 0.82509 0.0
H387 H 0.41996 0.95017 0.7681 0.0
H388 H 0.48824 0.89185 0.74852 0.0
H389 H 0.37747 0.71118 0.60787 0.0
H390 H 0.42574 0.71344 0.67355 0.0
H391 H 0.53347 0.82865 0.66397 0.0
H392 H 0.48336 0.82644 0.59783 0.0
H393 H 0.42889 0.83139 0.70755 0.0
H394 H 0.64944 0.74462 0.69532 0.0
H395 H 0.71509 0.68564 0.67563 0.0
H396 H 0.57878 0.61093 0.73478 0.0
H397 H 0.5115 0.66947 0.7545 0.0
C398 C 0.58795 0.81992 0.88325 0.0
C399 C 0.56549 0.7885 0.90375 0.0
C400 C 0.56167 0.82041 0.8456 0.0
C401 C 0.51314 0.78931 0.82803 0.0
C402 C 0.48452 0.75976 0.84872 0.0
C403 C 0.50997 0.75956 0.88653 0.0
C404 C 0.50221 0.78493 0.78837 0.0
C405 C 0.53724 0.75165 0.77539 0.0
C406 C 0.46368 0.81433 0.76377 0.0
C407 C 0.42333 0.84951 0.77587 0.0
C408 C 0.36401 0.84513 0.79747 0.0
C409 C 0.32567 0.87836 0.80846 0.0
C410 C 0.34592 0.91619 0.79792 0.0
C411 C 0.40441 0.92085 0.77629 0.0
C412 C 0.44286 0.8877 0.7652 0.0
C413 C 0.41484 0.73612 0.61978 0.0
C414 C 0.42798 0.76844 0.5982 0.0
C415 C 0.44205 0.73752 0.65732 0.0
C416 C 0.48298 0.77128 0.67375 0.0
C417 C 0.50198 0.80231 0.65181 0.0
C418 C 0.47454 0.80088 0.6141 0.0
C419 C 0.49576 0.77615 0.71354 0.0
C420 C 0.46098 0.80953 0.72663 0.0
C421 C 0.5349 0.74688 0.73828 0.0
C422 C 0.57527 0.71155 0.72635 0.0
C423 C 0.63325 0.71565 0.70407 0.0
C424 C 0.67076 0.68227 0.69289 0.0
C425 C 0.65113 0.64456 0.70395 0.0
C426 C 0.59403 0.64017 0.72627 0.0
C427 C 0.55624 0.67346 0.73748 0.0
H428 H 0.68005 0.61873 0.69519 0.0
H429 H 0.31616 0.94189 0.80645 0.0
H430 H 0.63516 0.33857 0.62824 0.0
H431 H 0.59954 0.33513 0.68791 0.0
H432 H 0.46128 0.22774 0.65668 0.0
H433 H 0.49818 0.23071 0.59705 0.0
H434 H 0.4596 0.33637 0.7116 0.0
H435 H 0.47627 0.16758 0.72243 0.0
H436 H 0.55472 0.11114 0.70545 0.0
H437 H 0.76666 0.18615 0.70917 0.0
H438 H 0.68857 0.2433 0.72467 0.0
H439 H 0.31804 0.21063 0.85674 0.0
H440 H 0.35805 0.22185 0.79874 0.0
H441 H 0.53275 0.3111 0.84806 0.0
H442 H 0.4905 0.301 0.9062 0.0
H443 H 0.52378 0.21447 0.7862 0.0
H444 H 0.52437 0.36732 0.80733 0.0
H445 H 0.45407 0.42655 0.82426 0.0
H446 H 0.22357 0.38706 0.758 0.0
H447 H 0.29171 0.32661 0.74239 0.0
C448 C 0.59603 0.31456 0.63388 0.0
C449 C 0.56916 0.28496 0.60797 0.0
C450 C 0.57603 0.31254 0.66807 0.0
C451 C 0.52903 0.2808 0.67709 0.0
C452 C 0.49915 0.25207 0.65065 0.0
C453 C 0.5193 0.25405 0.61642 0.0
C454 C 0.51181 0.27773 0.71418 0.0
C455 C 0.47468 0.30985 0.72803 0.0
C456 C 0.53084 0.24322 0.73577 0.0
C457 C 0.57641 0.20964 0.72435 0.0
C458 C 0.53935 0.17204 0.71918 0.0
C459 C 0.5836 0.14002 0.7096 0.0
C460 C 0.66538 0.14519 0.70574 0.0
C461 C 0.70288 0.1824 0.71133 0.0
C462 C 0.65848 0.21467 0.72026 0.0
C463 C 0.36514 0.23264 0.85531 0.0
C464 C 0.40163 0.2548 0.88603 0.0
C465 C 0.38748 0.23919 0.82207 0.0
C466 C 0.4469 0.26796 0.81882 0.0
C467 C 0.48474 0.28969 0.84963 0.0
C468 C 0.46167 0.28344 0.88295 0.0
C469 C 0.47197 0.2731 0.78355 0.0
C470 C 0.50967 0.24112 0.76987 0.0
C471 C 0.45493 0.30796 0.76244 0.0
C472 C 0.41258 0.34218 0.77447 0.0
C473 C 0.45822 0.37083 0.79724 0.0
C474 C 0.41879 0.40459 0.80657 0.0
C475 C 0.33417 0.41038 0.7925 0.0
C476 C 0.28874 0.38225 0.76934 0.0
C477 C 0.32754 0.34807 0.76053 0.0
H478 H 0.3039 0.43675 0.79937 0.0
H479 H 0.6999 0.12031 0.69869 0.0
H480 H 0.82262 0.67558 0.10922 0.0
H481 H 0.88804 0.67613 0.17359 0.0
H482 H 0.07001 0.75993 0.15261 0.0
H483 H 0.00399 0.75962 0.08756 0.0
H484 H 0.12218 0.69971 0.2158 0.0
H485 H 0.93103 0.80345 0.16934 0.0
H486 H 0.80227 0.83084 0.13188 0.0
H487 H 0.65801 0.75987 0.19043 0.0
H488 H 0.78543 0.73134 0.22749 0.0
H489 H 0.05873 0.81152 0.3872 0.0
H490 H 0.01849 0.80277 0.32133 0.0
H491 H 0.0687 0.67763 0.33487 0.0
H492 H 0.11235 0.68693 0.40067 0.0
H493 H 0.9137 0.76531 0.27319 0.0
H494 H 0.16729 0.6465 0.26239 0.0
H495 H 0.29998 0.62285 0.29938 0.0
H496 H 0.33075 0.73262 0.35739 0.0
H497 H 0.20353 0.75837 0.31868 0.0
C498 C 0.87862 0.6929 0.11806 0.0
C499 C 0.90775 0.71797 0.09367 0.0
C500 C 0.9159 0.69315 0.15481 0.0
C501 C 0.98264 0.7186 0.16774 0.0
C502 C 0.01833 0.74015 0.14295 0.0
C503 C 0.98084 0.73985 0.10587 0.0
C504 C 0.00303 0.72783 0.20688 0.0
C505 C 0.07712 0.71402 0.22859 0.0
C506 C 0.9448 0.74762 0.22305 0.0
C507 C 0.86777 0.76493 0.20091 0.0
C508 C 0.87172 0.79335 0.1739 0.0
C509 C 0.7989 0.80913 0.15275 0.0
C510 C 0.72179 0.79707 0.15868 0.0
C511 C 0.71745 0.76918 0.18573 0.0
C512 C 0.78998 0.75316 0.20682 0.0
C513 C 0.05778 0.78197 0.3761 0.0
C514 C 0.08702 0.74976 0.39873 0.0
C515 C 0.03566 0.77698 0.33847 0.0
C516 C 0.04266 0.73968 0.32304 0.0
C517 C 0.06465 0.70682 0.34607 0.0
C518 C 0.0881 0.71197 0.38364 0.0
C519 C 0.03217 0.73589 0.28302 0.0
C520 C 0.95956 0.75096 0.26086 0.0
C521 C 0.09316 0.71812 0.26658 0.0
C522 C 0.17421 0.70405 0.28814 0.0
C523 C 0.20318 0.66591 0.28262 0.0
C524 C 0.27816 0.65224 0.30371 0.0
C525 C 0.32427 0.67623 0.33075 0.0
C526 C 0.2962 0.71419 0.3362 0.0
C527 C 0.22287 0.72848 0.31446 0.0
H528 H 0.38169 0.66545 0.34746 0.0
H529 H 0.66555 0.80951 0.14243 0.0
H530 H 0.0181 0.22561 0.40562 0.0
H531 H 0.04361 0.21479 0.34443 0.0
H532 H 0.93357 0.32795 0.30992 0.0
H533 H 0.90988 0.33936 0.37073 0.0
H534 H 0.8567 0.26414 0.26882 0.0
H535 H 0.13077 0.31641 0.31465 0.0
H536 H 0.26759 0.31958 0.35652 0.0
H537 H 0.32218 0.20175 0.32679 0.0
H538 H 0.18497 0.19758 0.28515 0.0
H539 H 0.94527 0.2942 0.09319 0.0
H540 H 0.92107 0.29542 0.15506 0.0
H541 H 0.05134 0.18466 0.17864 0.0
H542 H 0.07591 0.18348 0.11696 0.0
H543 H 0.11695 0.24104 0.22626 0.0
H544 H 0.84772 0.18986 0.17723 0.0
H545 H 0.71067 0.18578 0.1357 0.0
H546 H 0.64558 0.29943 0.17152 0.0
H547 H 0.78287 0.30458 0.21286 0.0
C548 C 0.00198 0.24867 0.38526 0.0
C549 C 0.96146 0.28317 0.39275 0.0
C550 C 0.01613 0.24237 0.35035 0.0
C551 C 0.98923 0.27033 0.32263 0.0
C552 C 0.95406 0.30589 0.33088 0.0
C553 C 0.94099 0.31243 0.3657 0.0
C554 C 0.99004 0.26125 0.28433 0.0
C555 C 0.91359 0.25943 0.25937 0.0
C556 C 0.06417 0.25386 0.27242 0.0
C557 C 0.14688 0.25641 0.29729 0.0
C558 C 0.17147 0.29097 0.31736 0.0
C559 C 0.24918 0.29299 0.34099 0.0
C560 C 0.30312 0.26072 0.34459 0.0
C561 C 0.27995 0.22656 0.32421 0.0
C562 C 0.20226 0.22438 0.30056 0.0
C563 C 0.96603 0.26943 0.11117 0.0
C564 C 0.0124 0.23872 0.10036 0.0
C565 C 0.95242 0.27019 0.14655 0.0
C566 C 0.98474 0.24018 0.1715 0.0
C567 C 0.02604 0.20813 0.15986 0.0
C568 C 0.03925 0.20728 0.12451 0.0
C569 C 0.98351 0.24445 0.21051 0.0
C570 C 0.05986 0.24535 0.23567 0.0
C571 C 0.90917 0.25084 0.22263 0.0
C572 C 0.82629 0.24785 0.19781 0.0
C573 C 0.80463 0.21421 0.176 0.0
C574 C 0.72679 0.21167 0.15253 0.0
C575 C 0.66975 0.24247 0.15077 0.0
C576 C 0.69011 0.27572 0.17273 0.0
C577 C 0.7679 0.27843 0.19624 0.0
H578 H 0.6097 0.24052 0.13247 0.0
H579 H 0.36297 0.26224 0.36308 0.0
H580 H 0.01605 0.24897 0.59649 0.0
H581 H 0.07006 0.24816 0.6624 0.0
H582 H 0.9402 0.35678 0.67214 0.0
H583 H 0.88558 0.3574 0.60661 0.0
H584 H 0.10013 0.34039 0.72918 0.0
H585 H 0.81875 0.28534 0.67299 0.0
H586 H 0.73738 0.24427 0.62405 0.0
H587 H 0.9014 0.14637 0.65787 0.0
H588 H 0.98401 0.18699 0.70696 0.0
H589 H 0.01275 0.32957 0.8998 0.0
H590 H 0.97391 0.33643 0.83349 0.0
H591 H 0.03837 0.21415 0.82213 0.0
H592 H 0.07344 0.20701 0.88816 0.0
H593 H 0.9195 0.23633 0.76554 0.0
H594 H 0.19444 0.28448 0.82349 0.0
H595 H 0.28744 0.32291 0.87107 0.0
H596 H 0.15162 0.42885 0.83428 0.0
H597 H 0.0578 0.39103 0.78645 0.0
C598 C 0.00312 0.27377 0.61251 0.0
C599 C 0.94659 0.30312 0.59689 0.0
C600 C 0.03371 0.27325 0.65008 0.0
C601 C 0.00815 0.30222 0.67195 0.0
C602 C 0.96079 0.33435 0.65564 0.0
C603 C 0.92949 0.3346 0.61827 0.0
C604 C 0.01149 0.29411 0.71069 0.0
C605 C 0.06073 0.31777 0.73722 0.0
C606 C 0.96052 0.26434 0.72102 0.0
C607 C 0.90724 0.23906 0.69357 0.0
C608 C 0.83705 0.25497 0.67007 0.0
C609 C 0.79095 0.23186 0.64224 0.0
C610 C 0.8143 0.1928 0.63776 0.0
C611 C 0.88345 0.17664 0.66133 0.0
C612 C 0.92975 0.19962 0.68925 0.0
C613 C 0.01382 0.30374 0.88302 0.0
C614 C 0.04479 0.26769 0.89865 0.0
C615 C 0.99306 0.30775 0.84525 0.0
C616 C 0.0058 0.27608 0.823 0.0
C617 C 0.02843 0.23897 0.83876 0.0
C618 C 0.0479 0.23483 0.87643 0.0
C619 C 0.00779 0.28287 0.78437 0.0
C620 C 0.95931 0.25892 0.75773 0.0
C621 C 0.06083 0.31185 0.77407 0.0
C622 C 0.1193 0.33502 0.8015 0.0
C623 C 0.1847 0.31601 0.82551 0.0
C624 C 0.23743 0.33763 0.85253 0.0
C625 C 0.22531 0.37823 0.85576 0.0
C626 C 0.16074 0.39737 0.83181 0.0
C627 C 0.10801 0.37592 0.80464 0.0
H628 H 0.26614 0.3949 0.87673 0.0
H629 H 0.77867 0.17501 0.61612 0.0
H630 H 0.15725 0.82864 0.62949 0.0
H631 H 0.12396 0.82707 0.68968 0.0
H632 H 0.91986 0.74787 0.65011 0.0
H633 H 0.95479 0.74817 0.58979 0.0
H634 H 0.89001 0.81527 0.69782 0.0
H635 H 0.0821 0.70937 0.68944 0.0
H636 H 0.2131 0.68032 0.68053 0.0
H637 H 0.34867 0.74726 0.77025 0.0
H638 H 0.21917 0.77831 0.77859 0.0
H639 H 0.79974 0.72183 0.8518 0.0
H640 H 0.84017 0.7347 0.79425 0.0
H641 H 0.05469 0.79943 0.85029 0.0
H642 H 0.01299 0.78739 0.90852 0.0
H643 H 0.08729 0.74618 0.79639 0.0
H644 H 0.90262 0.84814 0.80962 0.0
H645 H 0.77629 0.88 0.82059 0.0
H646 H 0.63317 0.82699 0.72417 0.0
H647 H 0.75751 0.79305 0.71352 0.0
C648 C 0.10444 0.81131 0.63338 0.0
C649 C 0.0586 0.78843 0.6049 0.0
C650 C 0.08582 0.81034 0.66788 0.0
C651 C 0.02001 0.78708 0.67444 0.0
C652 C 0.97105 0.76596 0.64556 0.0
C653 C 0.99084 0.76622 0.61114 0.0
C654 C 0.00489 0.78332 0.7118 0.0
C655 C 0.93247 0.79977 0.71932 0.0
C656 C 0.06258 0.76462 0.74016 0.0
C657 C 0.14085 0.74683 0.73419 0.0
C658 C 0.14 0.71871 0.70672 0.0
C659 C 0.21414 0.70184 0.70178 0.0
C660 C 0.28942 0.7123 0.72458 0.0
C661 C 0.29068 0.73969 0.75227 0.0
C662 C 0.21696 0.75702 0.75703 0.0
C663 C 0.85594 0.73859 0.85205 0.0
C664 C 0.90336 0.75355 0.88473 0.0
C665 C 0.87873 0.74606 0.81905 0.0
C666 C 0.94995 0.76834 0.8179 0.0
C667 C -0.00072 0.78228 0.8506 0.0
C668 C 0.97557 0.77536 0.88379 0.0
C669 C 0.97115 0.77722 0.78224 0.0
C670 C 0.04484 0.76188 0.77501 0.0
C671 C 0.91525 0.79751 0.7543 0.0
C672 C 0.83951 0.81727 0.76112 0.0
C673 C 0.84392 0.84242 0.79116 0.0
C674 C 0.77248 0.86088 0.79735 0.0
C675 C 0.69641 0.85511 0.77331 0.0
C676 C 0.69168 0.83086 0.74308 0.0
C677 C 0.7626 0.81189 0.73702 0.0
H678 H 0.64132 0.86975 0.77788 0.0
H679 H 0.34665 0.69887 0.72107 0.0
loop_
_geom_bond_atom_site_label_1
_geom_bond_atom_site_label_2
_geom_bond_distance
_geom_bond_site_symmetry_2
_ccdc_geom_bond_type
Dy0 O4 2.398 . S
Dy0 O5 2.491 . S
Dy0 O6 2.403 . S
Dy0 O7 2.664 1_554 S
Dy0 O11 2.326 . S
Dy0 O15 2.310 . S
Dy0 O16 2.351 1_554 S
C1 O12 1.185 . S
C1 O13 1.355 . S
C2 O4 1.185 . S
C2 O5 1.355 . S
Dy3 O7 2.310 . S
Dy3 O10 2.351 1_556 S
Dy3 O12 2.398 . S
Dy3 O13 2.491 . S
Dy3 O14 2.403 . S
Dy3 O15 2.664 1_556 S
Dy3 O17 2.326 . S
O4 Dy0 2.398 . S
O4 C2 1.185 . S
O5 Dy0 2.491 . S
O5 C2 1.355 . S
O6 Dy0 2.403 . S
O6 C8 1.254 . S
O7 Dy0 2.664 1_556 S
O7 Dy3 2.310 . S
O7 C8 1.268 1_556 S
C8 O6 1.254 . S
C8 O7 1.268 1_554 S
C9 O14 1.254 1_554 S
C9 O15 1.268 . S
O10 Dy3 2.351 1_554 S
O10 C18 1.249 . S
O11 Dy0 2.326 . S
O11 C18 1.267 . S
O12 C1 1.185 . S
O12 Dy3 2.398 . S
O13 C1 1.355 . S
O13 Dy3 2.491 . S
O14 Dy3 2.403 . S
O14 C9 1.254 1_556 S
O15 Dy0 2.310 . S
O15 Dy3 2.664 1_554 S
O15 C9 1.268 . S
O16 Dy0 2.351 1_556 S
O16 C19 1.249 . S
O17 Dy3 2.326 . S
O17 C19 1.267 . S
C18 O10 1.249 . S
C18 O11 1.267 . S
C19 O16 1.249 . S
C19 O17 1.267 . S
Dy20 O24 2.398 . S
Dy20 O25 2.491 . S
Dy20 O26 2.403 . S
Dy20 O27 2.664 1_554 S
Dy20 O31 2.326 . S
Dy20 O35 2.310 . S
Dy20 O36 2.351 1_554 S
C21 O32 1.185 . S
C21 O33 1.355 . S
C22 O24 1.185 . S
C22 O25 1.355 . S
Dy23 O27 2.310 . S
Dy23 O30 2.351 1_556 S
Dy23 O32 2.398 . S
Dy23 O33 2.491 . S
Dy23 O34 2.403 . S
Dy23 O35 2.664 1_556 S
Dy23 O37 2.326 . S
O24 Dy20 2.398 . S
O24 C22 1.185 . S
O25 Dy20 2.491 . S
O25 C22 1.355 . S
O26 Dy20 2.403 . S
O26 C28 1.254 . S
O27 Dy20 2.664 1_556 S
O27 Dy23 2.310 . S
O27 C28 1.268 1_556 S
C28 O26 1.254 . S
C28 O27 1.268 1_554 S
C29 O34 1.254 1_554 S
C29 O35 1.268 . S
O30 Dy23 2.351 1_554 S
O30 C38 1.249 . S
O31 Dy20 2.326 . S
O31 C38 1.267 . S
O32 C21 1.185 . S
O32 Dy23 2.398 . S
O33 C21 1.355 . S
O33 Dy23 2.491 . S
O34 Dy23 2.403 . S
O34 C29 1.254 1_556 S
O35 Dy20 2.310 . S
O35 Dy23 2.664 1_554 S
O35 C29 1.268 . S
O36 Dy20 2.351 1_556 S
O36 C39 1.249 . S
O37 Dy23 2.326 . S
O37 C39 1.267 . S
C38 O30 1.249 . S
C38 O31 1.267 . S
C39 O36 1.249 . S
C39 O37 1.267 . S
Dy40 O44 2.398 . S
Dy40 O45 2.491 . S
Dy40 O46 2.403 . S
Dy40 O47 2.664 . S
Dy40 O51 2.326 . S
Dy40 O55 2.310 . S
Dy40 O56 2.351 . S
C41 O52 1.185 . S
C41 O53 1.355 . S
C42 O44 1.185 . S
C42 O45 1.355 . S
Dy43 O47 2.310 . S
Dy43 O50 2.351 . S
Dy43 O52 2.398 . S
Dy43 O53 2.491 . S
Dy43 O54 2.403 . S
Dy43 O55 2.664 . S
Dy43 O57 2.326 . S
O44 Dy40 2.398 . S
O44 C42 1.185 . S
O45 Dy40 2.491 . S
O45 C42 1.355 . S
O46 Dy40 2.403 . S
O46 C48 1.254 . S
O47 Dy40 2.664 . S
O47 Dy43 2.310 . S
O47 C48 1.268 . S
C48 O46 1.254 . S
C48 O47 1.268 . S
C49 O54 1.254 . S
C49 O55 1.268 . S
O50 Dy43 2.351 . S
O50 C58 1.249 . S
O51 Dy40 2.326 . S
O51 C58 1.267 . S
O52 C41 1.185 . S
O52 Dy43 2.398 . S
O53 C41 1.355 . S
O53 Dy43 2.491 . S
O54 Dy43 2.403 . S
O54 C49 1.254 . S
O55 Dy40 2.310 . S
O55 Dy43 2.664 . S
O55 C49 1.268 . S
O56 Dy40 2.351 . S
O56 C59 1.249 . S
O57 Dy43 2.326 . S
O57 C59 1.267 . S
C58 O50 1.249 . S
C58 O51 1.267 . S
C59 O56 1.249 . S
C59 O57 1.267 . S
Dy60 O64 2.398 . S
Dy60 O65 2.491 . S
Dy60 O66 2.403 . S
Dy60 O67 2.664 . S
Dy60 O71 2.326 . S
Dy60 O75 2.310 . S
Dy60 O76 2.351 . S
C61 O72 1.185 . S
C61 O73 1.355 . S
C62 O64 1.185 . S
C62 O65 1.355 . S
Dy63 O67 2.310 . S
Dy63 O70 2.351 . S
Dy63 O72 2.398 . S
Dy63 O73 2.491 . S
Dy63 O74 2.403 . S
Dy63 O75 2.664 . S
Dy63 O77 2.326 . S
O64 Dy60 2.398 . S
O64 C62 1.185 . S
O65 Dy60 2.491 . S
O65 C62 1.355 . S
O66 Dy60 2.403 . S
O66 C68 1.254 . S
O67 Dy60 2.664 . S
O67 Dy63 2.310 . S
O67 C68 1.268 . S
C68 O66 1.254 . S
C68 O67 1.268 . S
C69 O74 1.254 . S
C69 O75 1.268 . S
O70 Dy63 2.351 . S
O70 C78 1.249 . S
O71 Dy60 2.326 . S
O71 C78 1.267 . S
O72 C61 1.185 . S
O72 Dy63 2.398 . S
O73 C61 1.355 . S
O73 Dy63 2.491 . S
O74 Dy63 2.403 . S
O74 C69 1.254 . S
O75 Dy60 2.310 . S
O75 Dy63 2.664 . S
O75 C69 1.268 . S
O76 Dy60 2.351 . S
O76 C79 1.249 . S
O77 Dy63 2.326 . S
O77 C79 1.267 . S
C78 O70 1.249 . S
C78 O71 1.267 . S
C79 O76 1.249 . S
C79 O77 1.267 . S
H80 C98 0.951 . S
H81 C100 0.951 . S
H82 C102 0.950 . S
H83 C103 0.950 . S
H84 C105 0.950 . S
H85 C108 0.950 . S
H86 C109 0.950 . S
H87 C111 0.950 . S
H88 C112 0.950 . S
H89 C113 0.951 . S
H90 C115 0.951 . S
H91 C117 0.950 . S
H92 C118 0.950 . S
H93 C120 0.950 . S
H94 C123 0.950 . S
H95 C124 0.950 . S
H96 C126 0.950 . S
H97 C127 0.950 . S
C98 H80 0.951 . S
C98 C99 1.366 1_556 S
C98 C100 1.388 . S
C99 C98 1.366 1_554 S
C99 C103 1.385 . S
C100 H81 0.951 . S
C100 C98 1.388 . S
C100 C101 1.359 1_556 S
C101 C100 1.359 1_554 S
C101 C102 1.420 . S
C101 C104 1.498 . S
C102 H82 0.950 . S
C102 C101 1.420 . S
C102 C103 1.374 . S
C103 H83 0.950 . S
C103 C99 1.385 . S
C103 C102 1.374 . S
C104 C101 1.498 . S
C104 C105 1.386 . S
C104 C106 1.379 1_554 S
C105 H84 0.950 . S
C105 C104 1.386 . S
C105 C121 1.377 . S
C106 C104 1.379 1_556 S
C106 C107 1.524 . S
C106 C120 1.377 . S
C107 C106 1.524 . S
C107 C108 1.397 . S
C107 C112 1.363 . S
C108 H85 0.950 . S
C108 C107 1.397 . S
C108 C109 1.334 . S
C109 H86 0.950 . S
C109 C108 1.334 . S
C109 C110 1.287 . S
C110 C109 1.287 . S
C110 C111 1.524 . S
C110 H129 0.913 . S
C111 H87 0.950 . S
C111 C110 1.524 . S
C111 C112 1.415 . S
C112 H88 0.950 . S
C112 C107 1.363 . S
C112 C111 1.415 . S
C113 H89 0.951 . S
C113 C114 1.369 . S
C113 C115 1.388 . S
C114 C113 1.369 . S
C114 C118 1.381 1_554 S
C115 H90 0.951 . S
C115 C113 1.388 . S
C115 C116 1.366 . S
C116 C115 1.366 . S
C116 C117 1.414 1_554 S
C116 C119 1.499 . S
C117 H91 0.950 . S
C117 C116 1.414 1_556 S
C117 C118 1.374 . S
C118 H92 0.950 . S
C118 C114 1.381 1_556 S
C118 C117 1.374 . S
C119 C116 1.499 . S
C119 C120 1.373 1_554 S
C119 C121 1.389 . S
C120 H93 0.950 . S
C120 C106 1.377 . S
C120 C119 1.373 1_556 S
C121 C105 1.377 . S
C121 C119 1.389 . S
C121 C122 1.524 . S
C122 C121 1.524 . S
C122 C123 1.397 . S
C122 C127 1.363 . S
C123 H94 0.950 . S
C123 C122 1.397 . S
C123 C124 1.334 . S
C124 H95 0.950 . S
C124 C123 1.334 . S
C124 C125 1.287 . S
C125 C124 1.287 . S
C125 C126 1.524 . S
C125 H128 0.999 . S
C126 H96 0.950 . S
C126 C125 1.524 . S
C126 C127 1.415 . S
C127 H97 0.950 . S
C127 C122 1.363 . S
C127 C126 1.415 . S
H128 C125 0.999 . S
H129 C110 0.913 . S
H130 C148 0.951 . S
H131 C150 0.951 . S
H132 C152 0.950 . S
H133 C153 0.950 . S
H134 C155 0.950 . S
H135 C158 0.950 . S
H136 C159 0.950 . S
H137 C161 0.950 . S
H138 C162 0.950 . S
H139 C163 0.951 . S
H140 C165 0.951 . S
H141 C167 0.950 . S
H142 C168 0.950 . S
H143 C170 0.950 . S
H144 C173 0.950 . S
H145 C174 0.950 . S
H146 C176 0.950 . S
H147 C177 0.950 . S
C148 H130 0.951 . S
C148 C149 1.366 . S
C148 C150 1.388 . S
C149 C148 1.366 . S
C149 C153 1.385 . S
C150 H131 0.951 . S
C150 C148 1.388 . S
C150 C151 1.366 . S
C151 C150 1.366 . S
C151 C152 1.414 . S
C151 C154 1.499 . S
C152 H132 0.950 . S
C152 C151 1.414 . S
C152 C153 1.374 . S
C153 H133 0.950 . S
C153 C149 1.385 . S
C153 C152 1.374 . S
C154 C151 1.499 . S
C154 C155 1.373 . S
C154 C156 1.389 . S
C155 H134 0.950 . S
C155 C154 1.373 . S
C155 C171 1.377 . S
C156 C154 1.389 . S
C156 C157 1.524 . S
C156 C170 1.377 . S
C157 C156 1.524 . S
C157 C158 1.397 . S
C157 C162 1.363 . S
C158 H135 0.950 . S
C158 C157 1.397 . S
C158 C159 1.334 . S
C159 H136 0.950 . S
C159 C158 1.334 . S
C159 C160 1.287 . S
C160 C159 1.287 . S
C160 C161 1.524 . S
C160 H179 0.913 . S
C161 H137 0.950 . S
C161 C160 1.524 . S
C161 C162 1.415 . S
C162 H138 0.950 . S
C162 C157 1.363 . S
C162 C161 1.415 . S
C163 H139 0.951 . S
C163 C164 1.366 . S
C163 C165 1.388 . S
C164 C163 1.366 . S
C164 C168 1.385 . S
C165 H140 0.951 . S
C165 C163 1.388 . S
C165 C166 1.366 . S
C166 C165 1.366 . S
C166 C167 1.414 . S
C166 C169 1.499 . S
C167 H141 0.950 . S
C167 C166 1.414 . S
C167 C168 1.374 . S
C168 H142 0.950 . S
C168 C164 1.385 . S
C168 C167 1.374 . S
C169 C166 1.499 . S
C169 C170 1.373 . S
C169 C171 1.389 . S
C170 H143 0.950 . S
C170 C156 1.377 . S
C170 C169 1.373 . S
C171 C155 1.377 . S
C171 C169 1.389 . S
C171 C172 1.524 . S
C172 C171 1.524 . S
C172 C173 1.397 . S
C172 C177 1.363 . S
C173 H144 0.950 . S
C173 C172 1.397 . S
C173 C174 1.334 . S
C174 H145 0.950 . S
C174 C173 1.334 . S
C174 C175 1.287 . S
C175 C174 1.287 . S
C175 C176 1.524 . S
C175 H178 0.999 . S
C176 H146 0.950 . S
C176 C175 1.524 . S
C176 C177 1.415 . S
C177 H147 0.950 . S
C177 C172 1.363 . S
C177 C176 1.415 . S
H178 C175 0.999 . S
H179 C160 0.913 . S
H180 C198 0.951 . S
H181 C200 0.951 1_655 S
H182 C202 0.950 . S
H183 C203 0.950 . S
H184 C205 0.950 . S
H185 C208 0.950 . S
H186 C209 0.950 . S
H187 C211 0.950 . S
H188 C212 0.950 . S
H189 C213 0.951 . S
H190 C215 0.951 1_455 S
H191 C217 0.950 . S
H192 C218 0.950 . S
H193 C220 0.950 . S
H194 C223 0.950 . S
H195 C224 0.950 . S
H196 C226 0.950 . S
H197 C227 0.950 . S
C198 H180 0.951 . S
C198 C199 1.366 1_556 S
C198 C200 1.388 . S
C199 C198 1.366 1_554 S
C199 C203 1.385 . S
C200 H181 0.951 1_455 S
C200 C198 1.388 . S
C200 C201 1.366 1_556 S
C201 C200 1.366 1_554 S
C201 C202 1.414 . S
C201 C204 1.499 . S
C202 H182 0.950 . S
C202 C201 1.414 . S
C202 C203 1.374 . S
C203 H183 0.950 . S
C203 C199 1.385 . S
C203 C202 1.374 . S
C204 C201 1.499 . S
C204 C205 1.373 1_554 S
C204 C206 1.389 1_455 S
C205 H184 0.950 . S
C205 C204 1.373 1_556 S
C205 C221 1.377 1_545 S
C206 C204 1.389 1_655 S
C206 C207 1.524 . S
C206 C220 1.377 1_545 S
C207 C206 1.524 . S
C207 C208 1.397 1_655 S
C207 C212 1.363 . S
C208 H185 0.950 . S
C208 C207 1.397 1_455 S
C208 C209 1.334 . S
C209 H186 0.950 . S
C209 C208 1.334 . S
C209 C210 1.287 1_455 S
C210 C209 1.287 1_655 S
C210 C211 1.524 . S
C210 H229 0.913 . S
C211 H187 0.950 . S
C211 C210 1.524 . S
C211 C212 1.415 . S
C212 H188 0.950 . S
C212 C207 1.363 . S
C212 C211 1.415 . S
C213 H189 0.951 . S
C213 C214 1.365 . S
C213 C215 1.388 . S
C214 C213 1.365 . S
C214 C218 1.384 1_554 S
C215 H190 0.951 1_655 S
C215 C213 1.388 . S
C215 C216 1.366 1_554 S
C216 C215 1.366 1_556 S
C216 C217 1.414 . S
C216 C219 1.499 . S
C217 H191 0.950 . S
C217 C216 1.414 . S
C217 C218 1.374 . S
C218 H192 0.950 . S
C218 C214 1.384 1_556 S
C218 C217 1.374 . S
C219 C216 1.499 . S
C219 C220 1.373 1_556 S
C219 C221 1.389 1_655 S
C220 H193 0.950 . S
C220 C206 1.377 1_565 S
C220 C219 1.373 1_554 S
C221 C205 1.377 1_565 S
C221 C219 1.389 1_455 S
C221 C222 1.524 . S
C222 C221 1.524 . S
C222 C223 1.397 1_455 S
C222 C227 1.363 . S
C223 H194 0.950 . S
C223 C222 1.397 1_655 S
C223 C224 1.334 . S
C224 H195 0.950 . S
C224 C223 1.334 . S
C224 C225 1.287 1_655 S
C225 C224 1.287 1_455 S
C225 C226 1.524 . S
C225 H228 0.999 . S
C226 H196 0.950 . S
C226 C225 1.524 . S
C226 C227 1.415 . S
C227 H197 0.950 . S
C227 C222 1.363 . S
C227 C226 1.415 . S
H228 C225 0.999 . S
H229 C210 0.913 . S
H230 C248 0.951 . S
H231 C250 0.951 . S
H232 C252 0.950 . S
H233 C253 0.950 . S
H234 C255 0.950 . S
H235 C258 0.950 . S
H236 C259 0.950 . S
H237 C261 0.950 . S
H238 C262 0.950 1_455 S
H239 C263 0.951 . S
H240 C265 0.951 . S
H241 C267 0.950 . S
H242 C268 0.950 . S
H243 C270 0.950 . S
H244 C273 0.950 . S
H245 C274 0.950 . S
H246 C276 0.950 . S
H247 C277 0.950 1_655 S
C248 H230 0.951 . S
C248 C249 1.366 . S
C248 C250 1.388 . S
C249 C248 1.366 . S
C249 C253 1.385 . S
C250 H231 0.951 . S
C250 C248 1.388 . S
C250 C251 1.366 . S
C251 C250 1.366 . S
C251 C252 1.414 . S
C251 C254 1.499 . S
C252 H232 0.950 . S
C252 C251 1.414 . S
C252 C253 1.374 . S
C253 H233 0.950 . S
C253 C249 1.385 . S
C253 C252 1.374 . S
C254 C251 1.499 . S
C254 C255 1.373 . S
C254 C256 1.389 . S
C255 H234 0.950 . S
C255 C254 1.373 . S
C255 C271 1.377 1_645 S
C256 C254 1.389 . S
C256 C257 1.524 . S
C256 C270 1.377 1_645 S
C257 C256 1.524 . S
C257 C258 1.397 . S
C257 C262 1.363 . S
C258 H235 0.950 . S
C258 C257 1.397 . S
C258 C259 1.334 . S
C259 H236 0.950 . S
C259 C258 1.334 . S
C259 C260 1.287 . S
C260 C259 1.287 . S
C260 C261 1.524 . S
C260 H279 0.913 . S
C261 H237 0.950 . S
C261 C260 1.524 . S
C261 C262 1.415 . S
C262 H238 0.950 1_655 S
C262 C257 1.363 . S
C262 C261 1.415 . S
C263 H239 0.951 . S
C263 C264 1.366 . S
C263 C265 1.388 . S
C264 C263 1.366 . S
C264 C268 1.385 . S
C265 H240 0.951 . S
C265 C263 1.388 . S
C265 C266 1.366 . S
C266 C265 1.366 . S
C266 C267 1.414 . S
C266 C269 1.499 . S
C267 H241 0.950 . S
C267 C266 1.414 . S
C267 C268 1.374 . S
C268 H242 0.950 . S
C268 C264 1.385 . S
C268 C267 1.374 . S
C269 C266 1.499 . S
C269 C270 1.373 . S
C269 C271 1.389 . S
C270 H243 0.950 . S
C270 C256 1.377 1_465 S
C270 C269 1.373 . S
C271 C255 1.377 1_465 S
C271 C269 1.389 . S
C271 C272 1.524 . S
C272 C271 1.524 . S
C272 C273 1.397 . S
C272 C277 1.363 . S
C273 H244 0.950 . S
C273 C272 1.397 . S
C273 C274 1.334 . S
C274 H245 0.950 . S
C274 C273 1.334 . S
C274 C275 1.287 . S
C275 C274 1.287 . S
C275 C276 1.524 . S
C275 H278 0.999 . S
C276 H246 0.950 . S
C276 C275 1.524 . S
C276 C277 1.415 . S
C277 H247 0.950 1_455 S
C277 C272 1.363 . S
C277 C276 1.415 . S
H278 C275 0.999 . S
H279 C260 0.913 . S
H280 C298 0.951 . S
H281 C300 0.951 . S
H282 C302 0.950 . S
H283 C303 0.950 . S
H284 C305 0.950 . S
H285 C308 0.950 . S
H286 C309 0.950 . S
H287 C311 0.950 . S
H288 C312 0.950 . S
H289 C313 0.951 . S
H290 C315 0.951 . S
H291 C317 0.950 . S
H292 C318 0.950 . S
H293 C320 0.950 . S
H294 C323 0.950 . S
H295 C324 0.950 . S
H296 C326 0.950 . S
H297 C327 0.950 . S
C298 H280 0.951 . S
C298 C299 1.366 . S
C298 C300 1.388 . S
C299 C298 1.366 . S
C299 C303 1.385 . S
C300 H281 0.951 . S
C300 C298 1.388 . S
C300 C301 1.366 . S
C301 C300 1.366 . S
C301 C302 1.414 . S
C301 C304 1.499 . S
C302 H282 0.950 . S
C302 C301 1.414 . S
C302 C303 1.374 . S
C303 H283 0.950 . S
C303 C299 1.385 . S
C303 C302 1.374 . S
C304 C301 1.499 . S
C304 C305 1.373 . S
C304 C306 1.389 . S
C305 H284 0.950 . S
C305 C304 1.373 . S
C305 C321 1.377 . S
C306 C304 1.389 . S
C306 C307 1.524 . S
C306 C320 1.377 . S
C307 C306 1.524 . S
C307 C308 1.397 . S
C307 C312 1.363 . S
C308 H285 0.950 . S
C308 C307 1.397 . S
C308 C309 1.334 . S
C309 H286 0.950 . S
C309 C308 1.334 . S
C309 C310 1.287 . S
C310 C309 1.287 . S
C310 C311 1.524 . S
C310 H329 0.913 . S
C311 H287 0.950 . S
C311 C310 1.524 . S
C311 C312 1.415 . S
C312 H288 0.950 . S
C312 C307 1.363 . S
C312 C311 1.415 . S
C313 H289 0.951 . S
C313 C314 1.366 . S
C313 C315 1.388 . S
C314 C313 1.366 . S
C314 C318 1.385 . S
C315 H290 0.951 . S
C315 C313 1.388 . S
C315 C316 1.366 . S
C316 C315 1.366 . S
C316 C317 1.414 . S
C316 C319 1.499 . S
C317 H291 0.950 . S
C317 C316 1.414 . S
C317 C318 1.374 . S
C318 H292 0.950 . S
C318 C314 1.385 . S
C318 C317 1.374 . S
C319 C316 1.499 . S
C319 C320 1.373 . S
C319 C321 1.389 . S
C320 H293 0.950 . S
C320 C306 1.377 . S
C320 C319 1.373 . S
C321 C305 1.377 . S
C321 C319 1.389 . S
C321 C322 1.524 . S
C322 C321 1.524 . S
C322 C323 1.397 . S
C322 C327 1.363 . S
C323 H294 0.950 . S
C323 C322 1.397 . S
C323 C324 1.334 . S
C324 H295 0.950 . S
C324 C323 1.334 . S
C324 C325 1.287 . S
C325 C324 1.287 . S
C325 C326 1.524 . S
C325 H328 0.999 . S
C326 H296 0.950 . S
C326 C325 1.524 . S
C326 C327 1.415 . S
C327 H297 0.950 . S
C327 C322 1.363 . S
C327 C326 1.415 . S
H328 C325 0.999 . S
H329 C310 0.913 . S
H330 C348 0.951 . S
H331 C350 0.951 . S
H332 C352 0.950 . S
H333 C353 0.950 . S
H334 C355 0.950 . S
H335 C358 0.950 . S
H336 C359 0.950 . S
H337 C361 0.950 . S
H338 C362 0.950 . S
H339 C363 0.951 . S
H340 C365 0.951 . S
H341 C367 0.950 . S
H342 C368 0.950 . S
H343 C370 0.950 . S
H344 C373 0.950 . S
H345 C374 0.950 . S
H346 C376 0.950 . S
H347 C377 0.950 . S
C348 H330 0.951 . S
C348 C349 1.366 . S
C348 C350 1.388 . S
C349 C348 1.366 . S
C349 C353 1.385 . S
C350 H331 0.951 . S
C350 C348 1.388 . S
C350 C351 1.366 . S
C351 C350 1.366 . S
C351 C352 1.414 . S
C351 C354 1.499 . S
C352 H332 0.950 . S
C352 C351 1.414 . S
C352 C353 1.374 . S
C353 H333 0.950 . S
C353 C349 1.385 . S
C353 C352 1.374 . S
C354 C351 1.499 . S
C354 C355 1.373 . S
C354 C356 1.389 . S
C355 H334 0.950 . S
C355 C354 1.373 . S
C355 C371 1.377 . S
C356 C354 1.389 . S
C356 C357 1.524 . S
C356 C370 1.377 . S
C357 C356 1.524 . S
C357 C358 1.397 . S
C357 C362 1.363 . S
C358 H335 0.950 . S
C358 C357 1.397 . S
C358 C359 1.334 . S
C359 H336 0.950 . S
C359 C358 1.334 . S
C359 C360 1.287 . S
C360 C359 1.287 . S
C360 C361 1.524 . S
C360 H379 0.913 . S
C361 H337 0.950 . S
C361 C360 1.524 . S
C361 C362 1.415 . S
C362 H338 0.950 . S
C362 C357 1.363 . S
C362 C361 1.415 . S
C363 H339 0.951 . S
C363 C364 1.366 . S
C363 C365 1.388 . S
C364 C363 1.366 . S
C364 C368 1.385 . S
C365 H340 0.951 . S
C365 C363 1.388 . S
C365 C366 1.366 . S
C366 C365 1.366 . S
C366 C367 1.414 . S
C366 C369 1.499 . S
C367 H341 0.950 . S
C367 C366 1.414 . S
C367 C368 1.374 . S
C368 H342 0.950 . S
C368 C364 1.385 . S
C368 C367 1.374 . S
C369 C366 1.499 . S
C369 C370 1.373 . S
C369 C371 1.389 . S
C370 H343 0.950 . S
C370 C356 1.377 . S
C370 C369 1.373 . S
C371 C355 1.377 . S
C371 C369 1.389 . S
C371 C372 1.524 . S
C372 C371 1.524 . S
C372 C373 1.397 . S
C372 C377 1.363 . S
C373 H344 0.950 . S
C373 C372 1.397 . S
C373 C374 1.334 . S
C374 H345 0.950 . S
C374 C373 1.334 . S
C374 C375 1.287 . S
C375 C374 1.287 . S
C375 C376 1.524 . S
C375 H378 0.999 . S
C376 H346 0.950 . S
C376 C375 1.524 . S
C376 C377 1.415 . S
C377 H347 0.950 . S
C377 C372 1.363 . S
C377 C376 1.415 . S
H378 C375 0.999 . S
H379 C360 0.913 . S
H380 C398 0.951 . S
H381 C400 0.951 . S
H382 C402 0.950 . S
H383 C403 0.950 . S
H384 C405 0.950 . S
H385 C408 0.950 . S
H386 C409 0.950 . S
H387 C411 0.950 . S
H388 C412 0.950 . S
H389 C413 0.951 . S
H390 C415 0.951 . S
H391 C417 0.950 . S
H392 C418 0.950 . S
H393 C420 0.950 . S
H394 C423 0.950 . S
H395 C424 0.950 . S
H396 C426 0.950 . S
H397 C427 0.950 . S
C398 H380 0.951 . S
C398 C399 1.366 . S
C398 C400 1.388 . S
C399 C398 1.366 . S
C399 C403 1.385 . S
C400 H381 0.951 . S
C400 C398 1.388 . S
C400 C401 1.366 . S
C401 C400 1.366 . S
C401 C402 1.414 . S
C401 C404 1.499 . S
C402 H382 0.950 . S
C402 C401 1.414 . S
C402 C403 1.374 . S
C403 H383 0.950 . S
C403 C399 1.385 . S
C403 C402 1.374 . S
C404 C401 1.499 . S
C404 C405 1.373 . S
C404 C406 1.389 . S
C405 H384 0.950 . S
C405 C404 1.373 . S
C405 C421 1.377 . S
C406 C404 1.389 . S
C406 C407 1.524 . S
C406 C420 1.377 . S
C407 C406 1.524 . S
C407 C408 1.397 . S
C407 C412 1.363 . S
C408 H385 0.950 . S
C408 C407 1.397 . S
C408 C409 1.334 . S
C409 H386 0.950 . S
C409 C408 1.334 . S
C409 C410 1.287 . S
C410 C409 1.287 . S
C410 C411 1.524 . S
C410 H429 0.913 . S
C411 H387 0.950 . S
C411 C410 1.524 . S
C411 C412 1.415 . S
C412 H388 0.950 . S
C412 C407 1.363 . S
C412 C411 1.415 . S
C413 H389 0.951 . S
C413 C414 1.366 . S
C413 C415 1.388 . S
C414 C413 1.366 . S
C414 C418 1.385 . S
C415 H390 0.951 . S
C415 C413 1.388 . S
C415 C416 1.366 . S
C416 C415 1.366 . S
C416 C417 1.414 . S
C416 C419 1.499 . S
C417 H391 0.950 . S
C417 C416 1.414 . S
C417 C418 1.374 . S
C418 H392 0.950 . S
C418 C414 1.385 . S
C418 C417 1.374 . S
C419 C416 1.499 . S
C419 C420 1.373 . S
C419 C421 1.389 . S
C420 H393 0.950 . S
C420 C406 1.377 . S
C420 C419 1.373 . S
C421 C405 1.377 . S
C421 C419 1.389 . S
C421 C422 1.524 . S
C422 C421 1.524 . S
C422 C423 1.397 . S
C422 C427 1.363 . S
C423 H394 0.950 . S
C423 C422 1.397 . S
C423 C424 1.334 . S
C424 H395 0.950 . S
C424 C423 1.334 . S
C424 C425 1.287 . S
C425 C424 1.287 . S
C425 C426 1.524 . S
C425 H428 0.999 . S
C426 H396 0.950 . S
C426 C425 1.524 . S
C426 C427 1.415 . S
C427 H397 0.950 . S
C427 C422 1.363 . S
C427 C426 1.415 . S
H428 C425 0.999 . S
H429 C410 0.913 . S
H430 C448 0.951 . S
H431 C450 0.951 . S
H432 C452 0.950 . S
H433 C453 0.950 . S
H434 C455 0.950 . S
H435 C458 0.950 . S
H436 C459 0.950 . S
H437 C461 0.950 . S
H438 C462 0.950 . S
H439 C463 0.951 . S
H440 C465 0.951 . S
H441 C467 0.950 . S
H442 C468 0.950 . S
H443 C470 0.950 . S
H444 C473 0.950 . S
H445 C474 0.950 . S
H446 C476 0.950 . S
H447 C477 0.950 . S
C448 H430 0.951 . S
C448 C449 1.366 . S
C448 C450 1.388 . S
C449 C448 1.366 . S
C449 C453 1.385 . S
C450 H431 0.951 . S
C450 C448 1.388 . S
C450 C451 1.366 . S
C451 C450 1.366 . S
C451 C452 1.414 . S
C451 C454 1.499 . S
C452 H432 0.950 . S
C452 C451 1.414 . S
C452 C453 1.374 . S
C453 H433 0.950 . S
C453 C449 1.385 . S
C453 C452 1.374 . S
C454 C451 1.499 . S
C454 C455 1.373 . S
C454 C456 1.389 . S
C455 H434 0.950 . S
C455 C454 1.373 . S
C455 C471 1.377 . S
C456 C454 1.389 . S
C456 C457 1.524 . S
C456 C470 1.377 . S
C457 C456 1.524 . S
C457 C458 1.397 . S
C457 C462 1.363 . S
C458 H435 0.950 . S
C458 C457 1.397 . S
C458 C459 1.334 . S
C459 H436 0.950 . S
C459 C458 1.334 . S
C459 C460 1.287 . S
C460 C459 1.287 . S
C460 C461 1.524 . S
C460 H479 0.913 . S
C461 H437 0.950 . S
C461 C460 1.524 . S
C461 C462 1.415 . S
C462 H438 0.950 . S
C462 C457 1.363 . S
C462 C461 1.415 . S
C463 H439 0.951 . S
C463 C464 1.366 . S
C463 C465 1.388 . S
C464 C463 1.366 . S
C464 C468 1.385 . S
C465 H440 0.951 . S
C465 C463 1.388 . S
C465 C466 1.366 . S
C466 C465 1.366 . S
C466 C467 1.414 . S
C466 C469 1.499 . S
C467 H441 0.950 . S
C467 C466 1.414 . S
C467 C468 1.374 . S
C468 H442 0.950 . S
C468 C464 1.385 . S
C468 C467 1.374 . S
C469 C466 1.499 . S
C469 C470 1.373 . S
C469 C471 1.389 . S
C470 H443 0.950 . S
C470 C456 1.377 . S
C470 C469 1.373 . S
C471 C455 1.377 . S
C471 C469 1.389 . S
C471 C472 1.524 . S
C472 C471 1.524 . S
C472 C473 1.397 . S
C472 C477 1.363 . S
C473 H444 0.950 . S
C473 C472 1.397 . S
C473 C474 1.334 . S
C474 H445 0.950 . S
C474 C473 1.334 . S
C474 C475 1.287 . S
C475 C474 1.287 . S
C475 C476 1.524 . S
C475 H478 0.999 . S
C476 H446 0.950 . S
C476 C475 1.524 . S
C476 C477 1.415 . S
C477 H447 0.950 . S
C477 C472 1.363 . S
C477 C476 1.415 . S
H478 C475 0.999 . S
H479 C460 0.913 . S
H480 C498 0.951 . S
H481 C500 0.951 . S
H482 C502 0.950 1_455 S
H483 C503 0.950 . S
H484 C505 0.950 . S
H485 C508 0.950 . S
H486 C509 0.950 . S
H487 C511 0.950 . S
H488 C512 0.950 . S
H489 C513 0.951 . S
H490 C515 0.951 . S
H491 C517 0.950 1_655 S
H492 C518 0.950 . S
H493 C520 0.950 . S
H494 C523 0.950 . S
H495 C524 0.950 . S
H496 C526 0.950 . S
H497 C527 0.950 . S
C498 H480 0.951 . S
C498 C499 1.366 . S
C498 C500 1.388 . S
C499 C498 1.366 . S
C499 C503 1.385 . S
C500 H481 0.951 . S
C500 C498 1.388 . S
C500 C501 1.366 . S
C501 C500 1.366 . S
C501 C502 1.414 . S
C501 C504 1.499 . S
C502 H482 0.950 1_655 S
C502 C501 1.414 . S
C502 C503 1.374 . S
C503 H483 0.950 . S
C503 C499 1.385 . S
C503 C502 1.374 . S
C504 C501 1.499 . S
C504 C505 1.373 1_655 S
C504 C506 1.389 . S
C505 H484 0.950 . S
C505 C504 1.373 1_455 S
C505 C521 1.377 . S
C506 C504 1.389 . S
C506 C507 1.524 . S
C506 C520 1.377 . S
C507 C506 1.524 . S
C507 C508 1.397 . S
C507 C512 1.363 . S
C508 H485 0.950 . S
C508 C507 1.397 . S
C508 C509 1.334 . S
C509 H486 0.950 . S
C509 C508 1.334 . S
C509 C510 1.287 . S
C510 C509 1.287 . S
C510 C511 1.524 . S
C510 H529 0.913 . S
C511 H487 0.950 . S
C511 C510 1.524 . S
C511 C512 1.415 . S
C512 H488 0.950 . S
C512 C507 1.363 . S
C512 C511 1.415 . S
C513 H489 0.951 . S
C513 C514 1.366 . S
C513 C515 1.388 . S
C514 C513 1.366 . S
C514 C518 1.385 . S
C515 H490 0.951 . S
C515 C513 1.388 . S
C515 C516 1.366 . S
C516 C515 1.366 . S
C516 C517 1.414 . S
C516 C519 1.499 . S
C517 H491 0.950 1_455 S
C517 C516 1.414 . S
C517 C518 1.374 . S
C518 H492 0.950 . S
C518 C514 1.385 . S
C518 C517 1.374 . S
C519 C516 1.499 . S
C519 C520 1.373 1_455 S
C519 C521 1.389 . S
C520 H493 0.950 . S
C520 C506 1.377 . S
C520 C519 1.373 1_655 S
C521 C505 1.377 . S
C521 C519 1.389 . S
C521 C522 1.524 . S
C522 C521 1.524 . S
C522 C523 1.397 . S
C522 C527 1.363 . S
C523 H494 0.950 . S
C523 C522 1.397 . S
C523 C524 1.334 . S
C524 H495 0.950 . S
C524 C523 1.334 . S
C524 C525 1.287 . S
C525 C524 1.287 . S
C525 C526 1.524 . S
C525 H528 0.999 . S
C526 H496 0.950 . S
C526 C525 1.524 . S
C526 C527 1.415 . S
C527 H497 0.950 . S
C527 C522 1.363 . S
C527 C526 1.415 . S
H528 C525 0.999 . S
H529 C510 0.913 . S
H530 C548 0.951 1_455 S
H531 C550 0.951 . S
H532 C552 0.950 . S
H533 C553 0.950 . S
H534 C555 0.950 . S
H535 C558 0.950 . S
H536 C559 0.950 . S
H537 C561 0.950 . S
H538 C562 0.950 . S
H539 C563 0.951 1_655 S
H540 C565 0.951 . S
H541 C567 0.950 . S
H542 C568 0.950 . S
H543 C570 0.950 . S
H544 C573 0.950 . S
H545 C574 0.950 . S
H546 C576 0.950 . S
H547 C577 0.950 . S
C548 H530 0.951 1_655 S
C548 C549 1.366 . S
C548 C550 1.388 1_655 S
C549 C548 1.366 . S
C549 C553 1.385 . S
C550 H531 0.951 . S
C550 C548 1.388 1_455 S
C550 C551 1.366 1_455 S
C551 C550 1.366 1_655 S
C551 C552 1.414 . S
C551 C554 1.499 . S
C552 H532 0.950 . S
C552 C551 1.414 . S
C552 C553 1.374 . S
C553 H533 0.950 . S
C553 C549 1.385 . S
C553 C552 1.374 . S
C554 C551 1.499 . S
C554 C555 1.373 . S
C554 C556 1.389 1_655 S
C555 H534 0.950 . S
C555 C554 1.373 . S
C555 C571 1.377 . S
C556 C554 1.389 1_455 S
C556 C557 1.524 . S
C556 C570 1.377 . S
C557 C556 1.524 . S
C557 C558 1.397 . S
C557 C562 1.363 . S
C558 H535 0.950 . S
C558 C557 1.397 . S
C558 C559 1.334 . S
C559 H536 0.950 . S
C559 C558 1.334 . S
C559 C560 1.287 . S
C560 C559 1.287 . S
C560 C561 1.524 . S
C560 H579 0.913 . S
C561 H537 0.950 . S
C561 C560 1.524 . S
C561 C562 1.415 . S
C562 H538 0.950 . S
C562 C557 1.363 . S
C562 C561 1.415 . S
C563 H539 0.951 1_455 S
C563 C564 1.366 . S
C563 C565 1.388 1_455 S
C564 C563 1.366 . S
C564 C568 1.385 . S
C565 H540 0.951 . S
C565 C563 1.388 1_655 S
C565 C566 1.366 1_655 S
C566 C565 1.366 1_455 S
C566 C567 1.414 . S
C566 C569 1.499 . S
C567 H541 0.950 . S
C567 C566 1.414 . S
C567 C568 1.374 . S
C568 H542 0.950 . S
C568 C564 1.385 . S
C568 C567 1.374 . S
C569 C566 1.499 . S
C569 C570 1.373 . S
C569 C571 1.389 1_455 S
C570 H543 0.950 . S
C570 C556 1.377 . S
C570 C569 1.373 . S
C571 C555 1.377 . S
C571 C569 1.389 1_655 S
C571 C572 1.524 . S
C572 C571 1.524 . S
C572 C573 1.397 . S
C572 C577 1.363 . S
C573 H544 0.950 . S
C573 C572 1.397 . S
C573 C574 1.334 . S
C574 H545 0.950 . S
C574 C573 1.334 . S
C574 C575 1.287 . S
C575 C574 1.287 . S
C575 C576 1.524 . S
C575 H578 0.999 . S
C576 H546 0.950 . S
C576 C575 1.524 . S
C576 C577 1.415 . S
C577 H547 0.950 . S
C577 C572 1.363 . S
C577 C576 1.415 . S
H578 C575 0.999 . S
H579 C560 0.913 . S
H580 C598 0.951 . S
H581 C600 0.951 . S
H582 C602 0.950 . S
H583 C603 0.950 . S
H584 C605 0.950 . S
H585 C608 0.950 . S
H586 C609 0.950 . S
H587 C611 0.950 . S
H588 C612 0.950 . S
H589 C613 0.951 . S
H590 C615 0.951 . S
H591 C617 0.950 . S
H592 C618 0.950 . S
H593 C620 0.950 . S
H594 C623 0.950 . S
H595 C624 0.950 . S
H596 C626 0.950 . S
H597 C627 0.950 . S
C598 H580 0.951 . S
C598 C599 1.366 . S
C598 C600 1.388 . S
C599 C598 1.366 . S
C599 C603 1.385 . S
C600 H581 0.951 . S
C600 C598 1.388 . S
C600 C601 1.366 . S
C601 C600 1.366 . S
C601 C602 1.414 . S
C601 C604 1.499 . S
C602 H582 0.950 . S
C602 C601 1.414 . S
C602 C603 1.374 . S
C603 H583 0.950 . S
C603 C599 1.385 . S
C603 C602 1.374 . S
C604 C601 1.499 . S
C604 C605 1.373 1_655 S
C604 C606 1.389 . S
C605 H584 0.950 . S
C605 C604 1.373 1_455 S
C605 C621 1.377 . S
C606 C604 1.389 . S
C606 C607 1.524 . S
C606 C620 1.377 . S
C607 C606 1.524 . S
C607 C608 1.397 . S
C607 C612 1.363 . S
C608 H585 0.950 . S
C608 C607 1.397 . S
C608 C609 1.334 . S
C609 H586 0.950 . S
C609 C608 1.334 . S
C609 C610 1.287 . S
C610 C609 1.287 . S
C610 C611 1.524 . S
C610 H629 0.913 . S
C611 H587 0.950 . S
C611 C610 1.524 . S
C611 C612 1.415 . S
C612 H588 0.950 . S
C612 C607 1.363 . S
C612 C611 1.415 . S
C613 H589 0.951 . S
C613 C614 1.366 . S
C613 C615 1.388 . S
C614 C613 1.366 . S
C614 C618 1.385 . S
C615 H590 0.951 . S
C615 C613 1.388 . S
C615 C616 1.366 . S
C616 C615 1.366 . S
C616 C617 1.414 . S
C616 C619 1.499 . S
C617 H591 0.950 . S
C617 C616 1.414 . S
C617 C618 1.374 . S
C618 H592 0.950 . S
C618 C614 1.385 . S
C618 C617 1.374 . S
C619 C616 1.499 . S
C619 C620 1.373 1_455 S
C619 C621 1.389 . S
C620 H593 0.950 . S
C620 C606 1.377 . S
C620 C619 1.373 1_655 S
C621 C605 1.377 . S
C621 C619 1.389 . S
C621 C622 1.524 . S
C622 C621 1.524 . S
C622 C623 1.397 . S
C622 C627 1.363 . S
C623 H594 0.950 . S
C623 C622 1.397 . S
C623 C624 1.334 . S
C624 H595 0.950 . S
C624 C623 1.334 . S
C624 C625 1.287 . S
C625 C624 1.287 . S
C625 C626 1.524 . S
C625 H628 0.999 . S
C626 H596 0.950 . S
C626 C625 1.524 . S
C626 C627 1.415 . S
C627 H597 0.950 . S
C627 C622 1.363 . S
C627 C626 1.415 . S
H628 C625 0.999 . S
H629 C610 0.913 . S
H630 C648 0.951 . S
H631 C650 0.951 . S
H632 C652 0.950 1_655 S
H633 C653 0.950 . S
H634 C655 0.950 . S
H635 C658 0.950 . S
H636 C659 0.950 . S
H637 C661 0.950 . S
H638 C662 0.950 . S
H639 C663 0.951 . S
H640 C665 0.951 . S
H641 C667 0.950 1_455 S
H642 C668 0.950 . S
H643 C670 0.950 . S
H644 C673 0.950 . S
H645 C674 0.950 . S
H646 C676 0.950 . S
H647 C677 0.950 . S
C648 H630 0.951 . S
C648 C649 1.366 . S
C648 C650 1.388 . S
C649 C648 1.366 . S
C649 C653 1.385 . S
C650 H631 0.951 . S
C650 C648 1.388 . S
C650 C651 1.366 . S
C651 C650 1.366 . S
C651 C652 1.414 . S
C651 C654 1.499 . S
C652 H632 0.950 1_455 S
C652 C651 1.414 . S
C652 C653 1.374 . S
C653 H633 0.950 . S
C653 C649 1.385 . S
C653 C652 1.374 . S
C654 C651 1.499 . S
C654 C655 1.373 1_455 S
C654 C656 1.389 . S
C655 H634 0.950 . S
C655 C654 1.373 1_655 S
C655 C671 1.377 . S
C656 C654 1.389 . S
C656 C657 1.524 . S
C656 C670 1.377 . S
C657 C656 1.524 . S
C657 C658 1.397 . S
C657 C662 1.363 . S
C658 H635 0.950 . S
C658 C657 1.397 . S
C658 C659 1.334 . S
C659 H636 0.950 . S
C659 C658 1.334 . S
C659 C660 1.287 . S
C660 C659 1.287 . S
C660 C661 1.524 . S
C660 H679 0.913 . S
C661 H637 0.950 . S
C661 C660 1.524 . S
C661 C662 1.415 . S
C662 H638 0.950 . S
C662 C657 1.363 . S
C662 C661 1.415 . S
C663 H639 0.951 . S
C663 C664 1.366 . S
C663 C665 1.388 . S
C664 C663 1.366 . S
C664 C668 1.385 . S
C665 H640 0.951 . S
C665 C663 1.388 . S
C665 C666 1.366 . S
C666 C665 1.366 . S
C666 C667 1.414 . S
C666 C669 1.499 . S
C667 H641 0.950 1_655 S
C667 C666 1.414 . S
C667 C668 1.374 . S
C668 H642 0.950 . S
C668 C664 1.385 . S
C668 C667 1.374 . S
C669 C666 1.499 . S
C669 C670 1.373 1_655 S
C669 C671 1.389 . S
C670 H643 0.950 . S
C670 C656 1.377 . S
C670 C669 1.373 1_455 S
C671 C655 1.377 . S
C671 C669 1.389 . S
C671 C672 1.524 . S
C672 C671 1.524 . S
C672 C673 1.397 . S
C672 C677 1.363 . S
C673 H644 0.950 . S
C673 C672 1.397 . S
C673 C674 1.334 . S
C674 H645 0.950 . S
C674 C673 1.334 . S
C674 C675 1.287 . S
C675 C674 1.287 . S
C675 C676 1.524 . S
C675 H678 0.999 . S
C676 H646 0.950 . S
C676 C675 1.524 . S
C676 C677 1.415 . S
C677 H647 0.950 . S
C677 C672 1.363 . S
C677 C676 1.415 . S
H678 C675 0.999 . S
H679 C660 0.913 . S
C99 C29 1.511 . S
C114 C8 1.512 . S
C149 C49 1.511 . S
C164 C68 1.511 . S
C199 C9 1.511 . S
C214 C28 1.513 . S
C249 C69 1.511 . S
C264 C48 1.511 . S
C299 C78 1.099 . S
C314 C18 1.100 . S
C349 C22 1.105 . S
C364 C42 1.105 . S
C399 C39 1.099 . S
C414 C59 1.100 . S
C449 C61 1.104 . S
C464 C1 1.104 . S
C499 C38 1.100 . S
C514 C58 1.099 . S
C549 C62 1.105 . S
C564 C2 1.105 . S
C599 C79 1.099 . S
C614 C19 1.099 . S
C649 C41 1.104 . S
C664 C21 1.104 . S
