# Generated by pormake.
# Topology nfb, (4)-cn, num edge types: 1
# Building blocks:
#     Node 0, Type 0, BuildingBlock: ICAMEG_clean_sbu_1, # of connection points: 4
#     Node 1, Type 0, BuildingBlock: ICAMEG_clean_sbu_1, # of connection points: 4
#     Node 2, Type 0, BuildingBlock: ICAMEG_clean_sbu_1, # of connection points: 4
#     Node 3, Type 0, BuildingBlock: ICAMEG_clean_sbu_1, # of connection points: 4
#     Node 4, Type 0, BuildingBlock: ICAMEG_clean_sbu_1, # of connection points: 4
#     Node 5, Type 0, BuildingBlock: ICAMEG_clean_sbu_1, # of connection points: 4
#     Node 6, Type 0, BuildingBlock: ICAMEG_clean_sbu_1, # of connection points: 4
#     Node 7, Type 0, BuildingBlock: ICAMEG_clean_sbu_1, # of connection points: 4
#     Node 8, Type 0, BuildingBlock: ICAMEG_clean_sbu_1, # of connection points: 4
#     Node 9, Type 0, BuildingBlock: ICAMEG_clean_sbu_1, # of connection points: 4
#     Node 10, Type 0, BuildingBlock: ICAMEG_clean_sbu_1, # of connection points: 4
#     Node 11, Type 0, BuildingBlock: ICAMEG_clean_sbu_1, # of connection points: 4
#     Node 12, Type 0, BuildingBlock: ICAMEG_clean_sbu_1, # of connection points: 4
#     Node 13, Type 0, BuildingBlock: ICAMEG_clean_sbu_1, # of connection points: 4
#     Node 14, Type 0, BuildingBlock: ICAMEG_clean_sbu_1, # of connection points: 4
#     Node 15, Type 0, BuildingBlock: ICAMEG_clean_sbu_1, # of connection points: 4
#     Node 16, Type 0, BuildingBlock: ICAMEG_clean_sbu_1, # of connection points: 4
#     Node 17, Type 0, BuildingBlock: ICAMEG_clean_sbu_1, # of connection points: 4
#     Node 18, Type 0, BuildingBlock: ICAMEG_clean_sbu_1, # of connection points: 4
#     Node 19, Type 0, BuildingBlock: ICAMEG_clean_sbu_1, # of connection points: 4
#     Node 20, Type 0, BuildingBlock: ICAMEG_clean_sbu_1, # of connection points: 4
#     Node 21, Type 0, BuildingBlock: ICAMEG_clean_sbu_1, # of connection points: 4
#     Node 22, Type 0, BuildingBlock: ICAMEG_clean_sbu_1, # of connection points: 4
#     Node 23, Type 0, BuildingBlock: ICAMEG_clean_sbu_1, # of connection points: 4
#     Node 24, Type 0, BuildingBlock: ICAMEG_clean_sbu_1, # of connection points: 4
#     Node 25, Type 0, BuildingBlock: ICAMEG_clean_sbu_1, # of connection points: 4
#     Node 26, Type 0, BuildingBlock: ICAMEG_clean_sbu_1, # of connection points: 4
#     Node 27, Type 0, BuildingBlock: ICAMEG_clean_sbu_1, # of connection points: 4
#     Node 28, Type 0, BuildingBlock: ICAMEG_clean_sbu_1, # of connection points: 4
#     Node 29, Type 0, BuildingBlock: ICAMEG_clean_sbu_1, # of connection points: 4
#     Node 30, Type 0, BuildingBlock: ICAMEG_clean_sbu_1, # of connection points: 4
#     Node 31, Type 0, BuildingBlock: ICAMEG_clean_sbu_1, # of connection points: 4
#     Node 32, Type 0, BuildingBlock: ICAMEG_clean_sbu_1, # of connection points: 4
#     Node 33, Type 0, BuildingBlock: ICAMEG_clean_sbu_1, # of connection points: 4
#     Node 34, Type 0, BuildingBlock: ICAMEG_clean_sbu_1, # of connection points: 4
#     Node 35, Type 0, BuildingBlock: ICAMEG_clean_sbu_1, # of connection points: 4
#     Node 36, Type 0, BuildingBlock: ICAMEG_clean_sbu_1, # of connection points: 4
#     Node 37, Type 0, BuildingBlock: ICAMEG_clean_sbu_1, # of connection points: 4
#     Node 38, Type 0, BuildingBlock: ICAMEG_clean_sbu_1, # of connection points: 4
#     Node 39, Type 0, BuildingBlock: ICAMEG_clean_sbu_1, # of connection points: 4
#     Node 40, Type 0, BuildingBlock: ICAMEG_clean_sbu_1, # of connection points: 4
#     Node 41, Type 0, BuildingBlock: ICAMEG_clean_sbu_1, # of connection points: 4
#     Node 42, Type 0, BuildingBlock: ICAMEG_clean_sbu_1, # of connection points: 4
#     Node 43, Type 0, BuildingBlock: ICAMEG_clean_sbu_1, # of connection points: 4
#     Node 44, Type 0, BuildingBlock: ICAMEG_clean_sbu_1, # of connection points: 4
#     Node 45, Type 0, BuildingBlock: ICAMEG_clean_sbu_1, # of connection points: 4
#     Node 46, Type 0, BuildingBlock: ICAMEG_clean_sbu_1, # of connection points: 4
#     Node 47, Type 0, BuildingBlock: ICAMEG_clean_sbu_1, # of connection points: 4
#     Edge 48, Type (0, 0), BuildingBlock: AJUNOK_clean_linker_0, # of connection points: 2
#     Edge 49, Type (0, 0), BuildingBlock: AJUNOK_clean_linker_0, # of connection points: 2
#     Edge 50, Type (0, 0), BuildingBlock: AJUNOK_clean_linker_0, # of connection points: 2
#     Edge 51, Type (0, 0), BuildingBlock: AJUNOK_clean_linker_0, # of connection points: 2
#     Edge 52, Type (0, 0), BuildingBlock: AJUNOK_clean_linker_0, # of connection points: 2
#     Edge 53, Type (0, 0), BuildingBlock: AJUNOK_clean_linker_0, # of connection points: 2
#     Edge 54, Type (0, 0), BuildingBlock: AJUNOK_clean_linker_0, # of connection points: 2
#     Edge 55, Type (0, 0), BuildingBlock: AJUNOK_clean_linker_0, # of connection points: 2
#     Edge 56, Type (0, 0), BuildingBlock: AJUNOK_clean_linker_0, # of connection points: 2
#     Edge 57, Type (0, 0), BuildingBlock: AJUNOK_clean_linker_0, # of connection points: 2
#     Edge 58, Type (0, 0), BuildingBlock: AJUNOK_clean_linker_0, # of connection points: 2
#     Edge 59, Type (0, 0), BuildingBlock: AJUNOK_clean_linker_0, # of connection points: 2
#     Edge 60, Type (0, 0), BuildingBlock: AJUNOK_clean_linker_0, # of connection points: 2
#     Edge 61, Type (0, 0), BuildingBlock: AJUNOK_clean_linker_0, # of connection points: 2
#     Edge 62, Type (0, 0), BuildingBlock: AJUNOK_clean_linker_0, # of connection points: 2
#     Edge 63, Type (0, 0), BuildingBlock: AJUNOK_clean_linker_0, # of connection points: 2
#     Edge 64, Type (0, 0), BuildingBlock: AJUNOK_clean_linker_0, # of connection points: 2
#     Edge 65, Type (0, 0), BuildingBlock: AJUNOK_clean_linker_0, # of connection points: 2
#     Edge 66, Type (0, 0), BuildingBlock: AJUNOK_clean_linker_0, # of connection points: 2
#     Edge 67, Type (0, 0), BuildingBlock: AJUNOK_clean_linker_0, # of connection points: 2
#     Edge 68, Type (0, 0), BuildingBlock: AJUNOK_clean_linker_0, # of connection points: 2
#     Edge 69, Type (0, 0), BuildingBlock: AJUNOK_clean_linker_0, # of connection points: 2
#     Edge 70, Type (0, 0), BuildingBlock: AJUNOK_clean_linker_0, # of connection points: 2
#     Edge 71, Type (0, 0), BuildingBlock: AJUNOK_clean_linker_0, # of connection points: 2
#     Edge 72, Type (0, 0), BuildingBlock: AJUNOK_clean_linker_0, # of connection points: 2
#     Edge 73, Type (0, 0), BuildingBlock: AJUNOK_clean_linker_0, # of connection points: 2
#     Edge 74, Type (0, 0), BuildingBlock: AJUNOK_clean_linker_0, # of connection points: 2
#     Edge 75, Type (0, 0), BuildingBlock: AJUNOK_clean_linker_0, # of connection points: 2
#     Edge 76, Type (0, 0), BuildingBlock: AJUNOK_clean_linker_0, # of connection points: 2
#     Edge 77, Type (0, 0), BuildingBlock: AJUNOK_clean_linker_0, # of connection points: 2
#     Edge 78, Type (0, 0), BuildingBlock: AJUNOK_clean_linker_0, # of connection points: 2
#     Edge 79, Type (0, 0), BuildingBlock: AJUNOK_clean_linker_0, # of connection points: 2
#     Edge 80, Type (0, 0), BuildingBlock: AJUNOK_clean_linker_0, # of connection points: 2
#     Edge 81, Type (0, 0), BuildingBlock: AJUNOK_clean_linker_0, # of connection points: 2
#     Edge 82, Type (0, 0), BuildingBlock: AJUNOK_clean_linker_0, # of connection points: 2
#     Edge 83, Type (0, 0), BuildingBlock: AJUNOK_clean_linker_0, # of connection points: 2
#     Edge 84, Type (0, 0), BuildingBlock: AJUNOK_clean_linker_0, # of connection points: 2
#     Edge 85, Type (0, 0), BuildingBlock: AJUNOK_clean_linker_0, # of connection points: 2
#     Edge 86, Type (0, 0), BuildingBlock: AJUNOK_clean_linker_0, # of connection points: 2
#     Edge 87, Type (0, 0), BuildingBlock: AJUNOK_clean_linker_0, # of connection points: 2
#     Edge 88, Type (0, 0), BuildingBlock: AJUNOK_clean_linker_0, # of connection points: 2
#     Edge 89, Type (0, 0), BuildingBlock: AJUNOK_clean_linker_0, # of connection points: 2
#     Edge 90, Type (0, 0), BuildingBlock: AJUNOK_clean_linker_0, # of connection points: 2
#     Edge 91, Type (0, 0), BuildingBlock: AJUNOK_clean_linker_0, # of connection points: 2
#     Edge 92, Type (0, 0), BuildingBlock: AJUNOK_clean_linker_0, # of connection points: 2
#     Edge 93, Type (0, 0), BuildingBlock: AJUNOK_clean_linker_0, # of connection points: 2
#     Edge 94, Type (0, 0), BuildingBlock: AJUNOK_clean_linker_0, # of connection points: 2
#     Edge 95, Type (0, 0), BuildingBlock: AJUNOK_clean_linker_0, # of connection points: 2
#     Edge 96, Type (0, 0), BuildingBlock: AJUNOK_clean_linker_0, # of connection points: 2
#     Edge 97, Type (0, 0), BuildingBlock: AJUNOK_clean_linker_0, # of connection points: 2
#     Edge 98, Type (0, 0), BuildingBlock: AJUNOK_clean_linker_0, # of connection points: 2
#     Edge 99, Type (0, 0), BuildingBlock: AJUNOK_clean_linker_0, # of connection points: 2
#     Edge 100, Type (0, 0), BuildingBlock: AJUNOK_clean_linker_0, # of connection points: 2
#     Edge 101, Type (0, 0), BuildingBlock: AJUNOK_clean_linker_0, # of connection points: 2
#     Edge 102, Type (0, 0), BuildingBlock: AJUNOK_clean_linker_0, # of connection points: 2
#     Edge 103, Type (0, 0), BuildingBlock: AJUNOK_clean_linker_0, # of connection points: 2
#     Edge 104, Type (0, 0), BuildingBlock: AJUNOK_clean_linker_0, # of connection points: 2
#     Edge 105, Type (0, 0), BuildingBlock: AJUNOK_clean_linker_0, # of connection points: 2
#     Edge 106, Type (0, 0), BuildingBlock: AJUNOK_clean_linker_0, # of connection points: 2
#     Edge 107, Type (0, 0), BuildingBlock: AJUNOK_clean_linker_0, # of connection points: 2
#     Edge 108, Type (0, 0), BuildingBlock: AJUNOK_clean_linker_0, # of connection points: 2
#     Edge 109, Type (0, 0), BuildingBlock: AJUNOK_clean_linker_0, # of connection points: 2
#     Edge 110, Type (0, 0), BuildingBlock: AJUNOK_clean_linker_0, # of connection points: 2
#     Edge 111, Type (0, 0), BuildingBlock: AJUNOK_clean_linker_0, # of connection points: 2
#     Edge 112, Type (0, 0), BuildingBlock: AJUNOK_clean_linker_0, # of connection points: 2
#     Edge 113, Type (0, 0), BuildingBlock: AJUNOK_clean_linker_0, # of connection points: 2
#     Edge 114, Type (0, 0), BuildingBlock: AJUNOK_clean_linker_0, # of connection points: 2
#     Edge 115, Type (0, 0), BuildingBlock: AJUNOK_clean_linker_0, # of connection points: 2
#     Edge 116, Type (0, 0), BuildingBlock: AJUNOK_clean_linker_0, # of connection points: 2
#     Edge 117, Type (0, 0), BuildingBlock: AJUNOK_clean_linker_0, # of connection points: 2
#     Edge 118, Type (0, 0), BuildingBlock: AJUNOK_clean_linker_0, # of connection points: 2
#     Edge 119, Type (0, 0), BuildingBlock: AJUNOK_clean_linker_0, # of connection points: 2
#     Edge 120, Type (0, 0), BuildingBlock: AJUNOK_clean_linker_0, # of connection points: 2
#     Edge 121, Type (0, 0), BuildingBlock: AJUNOK_clean_linker_0, # of connection points: 2
#     Edge 122, Type (0, 0), BuildingBlock: AJUNOK_clean_linker_0, # of connection points: 2
#     Edge 123, Type (0, 0), BuildingBlock: AJUNOK_clean_linker_0, # of connection points: 2
#     Edge 124, Type (0, 0), BuildingBlock: AJUNOK_clean_linker_0, # of connection points: 2
#     Edge 125, Type (0, 0), BuildingBlock: AJUNOK_clean_linker_0, # of connection points: 2
#     Edge 126, Type (0, 0), BuildingBlock: AJUNOK_clean_linker_0, # of connection points: 2
#     Edge 127, Type (0, 0), BuildingBlock: AJUNOK_clean_linker_0, # of connection points: 2
#     Edge 128, Type (0, 0), BuildingBlock: AJUNOK_clean_linker_0, # of connection points: 2
#     Edge 129, Type (0, 0), BuildingBlock: AJUNOK_clean_linker_0, # of connection points: 2
#     Edge 130, Type (0, 0), BuildingBlock: AJUNOK_clean_linker_0, # of connection points: 2
#     Edge 131, Type (0, 0), BuildingBlock: AJUNOK_clean_linker_0, # of connection points: 2
#     Edge 132, Type (0, 0), BuildingBlock: AJUNOK_clean_linker_0, # of connection points: 2
#     Edge 133, Type (0, 0), BuildingBlock: AJUNOK_clean_linker_0, # of connection points: 2
#     Edge 134, Type (0, 0), BuildingBlock: AJUNOK_clean_linker_0, # of connection points: 2
#     Edge 135, Type (0, 0), BuildingBlock: AJUNOK_clean_linker_0, # of connection points: 2
#     Edge 136, Type (0, 0), BuildingBlock: AJUNOK_clean_linker_0, # of connection points: 2
#     Edge 137, Type (0, 0), BuildingBlock: AJUNOK_clean_linker_0, # of connection points: 2
#     Edge 138, Type (0, 0), BuildingBlock: AJUNOK_clean_linker_0, # of connection points: 2
#     Edge 139, Type (0, 0), BuildingBlock: AJUNOK_clean_linker_0, # of connection points: 2
#     Edge 140, Type (0, 0), BuildingBlock: AJUNOK_clean_linker_0, # of connection points: 2
#     Edge 141, Type (0, 0), BuildingBlock: AJUNOK_clean_linker_0, # of connection points: 2
#     Edge 142, Type (0, 0), BuildingBlock: AJUNOK_clean_linker_0, # of connection points: 2
#     Edge 143, Type (0, 0), BuildingBlock: AJUNOK_clean_linker_0, # of connection points: 2
# Relax obj value: 0.319
# Max RMSD: 0.133
# Mean RMSD: 0.106
data_MOF--net-nfb--node1-ICAMEG_clean_sbu_1--edge1-AJUNOK_clean_linker_0
_symmetry_space_group_name_H-M    P1
_symmetry_Int_Tables_number       1
_symmetry_cell_setting            triclinic
loop_
_symmetry_equiv_pos_as_xyz
'x, y, z'
_cell_length_a     46.886306
_cell_length_b     47.070569
_cell_length_c     47.02995
_cell_angle_alpha  90.54784
_cell_angle_beta   91.719215
_cell_angle_gamma 93.362124
loop_
_atom_site_label
_atom_site_type_symbol
_atom_site_fract_x
_atom_site_fract_y
_atom_site_fract_z
_atom_type_partial_charge
Co0 Co 0.09686 0.08953 0.38577 0.0
Co1 Co 0.07836 0.14755 0.42217 0.0
O2 O 0.10366 0.12939 0.39634 0.0
C3 C 0.15943 0.09599 0.40316 0.0
O4 O 0.15005 0.10749 0.4263 0.0
C5 C 0.09391 0.19106 0.37801 0.0
O6 O 0.09174 0.17171 0.35768 0.0
O7 O 0.04531 0.1382 0.3953 0.0
O8 O 0.05282 0.09218 0.38817 0.0
H9 H 0.98394 0.16207 0.46601 0.0
H10 H 0.134 0.12537 0.34891 0.0
O11 O 0.14093 0.08655 0.38387 0.0
H12 H 0.05201 0.09128 0.28713 0.0
H13 H 0.10573 1.00178 0.3252 0.0
H14 H 0.05962 0.04265 0.40768 0.0
H15 H 0.05507 0.07699 0.33737 0.0
H16 H 0.11933 0.05096 0.34175 0.0
O17 O 0.08702 0.18477 0.40325 0.0
H18 H 0.01958 0.13428 0.44239 0.0
H19 H 0.08231 0.20246 0.45458 0.0
H20 H 0.0463 0.99335 0.39262 0.0
H21 H 0.13209 0.1397 0.29863 0.0
H22 H 0.06952 0.97248 0.35113 0.0
H23 H 0.09078 0.12274 0.2674 0.0
O24 O 0.09923 0.07917 0.42642 0.0
H25 H 0.18102 0.17641 0.44599 0.0
H26 H 0.08928 0.14041 0.48432 0.0
H27 H 0.13278 0.14116 0.51474 0.0
H28 H 0.17935 0.15915 0.49552 0.0
H29 H 0.13746 0.17249 0.41542 0.0
H30 H 0.04781 0.23036 0.47974 0.0
H31 H 0.99796 0.21071 0.48456 0.0
O32 O 0.06989 0.11069 0.4432 0.0
C33 C 0.03591 0.11288 0.3889 0.0
C34 C 1.00551 0.17106 0.46367 0.0
C35 C 0.04138 0.20936 0.47142 0.0
N36 N 0.05295 0.16678 0.44682 0.0
C37 C 0.02582 0.15538 0.45035 0.0
C38 C 0.06093 0.19329 0.45746 0.0
C39 C 0.01337 0.19833 0.47407 0.0
C40 C 0.11617 0.11756 0.33537 0.0
N41 N 0.09475 0.10027 0.34606 0.0
C42 C 0.11511 0.1259 0.30695 0.0
C43 C 0.09189 0.11643 0.28946 0.0
C44 C 0.07011 0.09882 0.30053 0.0
C45 C 0.07189 0.09093 0.32905 0.0
C46 C 0.09587 0.0105 0.34362 0.0
C47 C 0.07023 0.03363 0.38993 0.0
C48 C 0.10347 0.03827 0.35304 0.0
N49 N 0.0902 0.04966 0.37556 0.0
C50 C 0.06254 1.00567 0.38145 0.0
C51 C 0.07545 0.99406 0.35809 0.0
C52 C 0.08484 0.08893 0.44641 0.0
C53 C 0.16095 0.1686 0.45462 0.0
C54 C 0.10934 0.14829 0.47586 0.0
C55 C 0.13393 0.14898 0.49329 0.0
C56 C 0.15994 0.15901 0.48249 0.0
N57 N 0.11082 0.15596 0.44802 0.0
C58 C 0.13606 0.16672 0.43752 0.0
Co59 Co 0.38186 0.67182 0.92883 0.0
Co60 Co 0.3928 0.65216 0.86004 0.0
O61 O 0.39974 0.64869 0.90076 0.0
C62 C 0.42978 0.69 0.96759 0.0
O63 O 0.42609 0.71638 0.96011 0.0
C64 C 0.37867 0.59001 0.87233 0.0
O65 O 0.36164 0.6002 0.89105 0.0
O66 O 0.35078 0.64978 0.86479 0.0
O67 O 0.34632 0.67438 0.90513 0.0
H68 H 0.34758 0.69135 0.77168 0.0
H69 H 0.40612 0.61793 0.94765 0.0
O70 O 0.41711 0.66969 0.95328 0.0
H71 H 0.30364 0.60655 0.96822 0.0
H72 H 0.3505 0.69587 0.02747 0.0
H73 H 0.35186 0.72554 0.92728 0.0
H74 H 0.32355 0.65055 0.94667 0.0
H75 H 0.37381 0.6674 0.99179 0.0
O76 O 0.39265 0.60785 0.85651 0.0
H77 H 0.35727 0.68791 0.82335 0.0
H78 H 0.41334 0.62186 0.80944 0.0
H79 H 0.32885 0.755 0.96248 0.0
H80 H 0.38737 0.57422 0.97062 0.0
H81 H 0.32792 0.74022 0.01295 0.0
H82 H 0.33571 0.5681 0.98073 0.0
O83 O 0.39797 0.70692 0.91072 0.0
H84 H 0.49366 0.62319 0.87482 0.0
H85 H 0.43183 0.69139 0.82848 0.0
H86 H 0.48382 0.69603 0.82194 0.0
H87 H 0.51491 0.66176 0.84497 0.0
H88 H 0.44143 0.61953 0.88109 0.0
H89 H 0.40408 0.62437 0.75762 0.0
H90 H 0.37104 0.65938 0.73844 0.0
O91 O 0.39323 0.69639 0.86387 0.0
C92 C 0.3359 0.66308 0.88219 0.0
C93 C 0.36208 0.67606 0.77977 0.0
C94 C 0.39373 0.63842 0.77188 0.0
N95 N 0.3859 0.65478 0.81935 0.0
C96 C 0.36772 0.6741 0.80899 0.0
C97 C 0.39882 0.63703 0.80124 0.0
C98 C 0.37521 0.65809 0.76113 0.0
C99 C 0.38373 0.61578 0.95248 0.0
N100 N 0.36603 0.637 0.94588 0.0
C101 C 0.37319 0.59084 0.96533 0.0
C102 C 0.34419 0.58739 0.97092 0.0
C103 C 0.32619 0.60892 0.96384 0.0
C104 C 0.33754 0.63372 0.95134 0.0
C105 C 0.35082 0.70266 1.00558 0.0
C106 C 0.35193 0.71911 0.94928 0.0
C107 C 0.364 0.68658 0.98521 0.0
N108 N 0.36447 0.69486 0.95742 0.0
C109 C 0.33872 0.73583 0.9691 0.0
C110 C 0.33818 0.72749 0.99743 0.0
C111 C 0.3976 0.71446 0.88474 0.0
C112 C 0.4802 0.63822 0.86459 0.0
C113 C 0.44531 0.67647 0.83878 0.0
C114 C 0.4747 0.67915 0.83492 0.0
C115 C 0.49218 0.65986 0.8479 0.0
N116 N 0.43366 0.65512 0.85503 0.0
C117 C 0.45066 0.6362 0.86799 0.0
Co118 Co 0.91335 0.92385 0.40494 0.0
Co119 Co 0.93285 0.86492 0.43937 0.0
O120 O 0.90655 0.88379 0.41398 0.0
C121 C 0.85179 0.91773 0.42188 0.0
O122 O 0.86261 0.90586 0.44451 0.0
C123 C 0.91004 0.8203 0.39654 0.0
O124 O 0.90368 0.83911 0.37733 0.0
O125 O 0.96428 0.87418 0.41304 0.0
O126 O 0.95766 0.92043 0.4067 0.0
H127 H 0.02961 0.85111 0.48342 0.0
H128 H 0.87348 0.88903 0.36673 0.0
O129 O 0.86925 0.92745 0.40308 0.0
H130 H 0.95188 0.92353 0.30605 0.0
H131 H 0.90141 0.01153 0.34677 0.0
H132 H 0.95293 0.9702 0.42767 0.0
H133 H 0.95213 0.93691 0.35685 0.0
H134 H 0.88759 0.96299 0.36308 0.0
O135 O 0.92334 0.82772 0.4196 0.0
H136 H 0.99199 0.87892 0.46153 0.0
H137 H 0.93148 0.80883 0.46883 0.0
H138 H 0.96609 0.0193 0.41315 0.0
H139 H 0.87214 0.87553 0.3159 0.0
H140 H 0.94041 0.03996 0.37186 0.0
H141 H 0.91161 0.89272 0.28521 0.0
O142 O 0.91356 0.93375 0.44627 0.0
H143 H 0.83085 0.83739 0.46024 0.0
H144 H 0.92473 0.87082 0.50184 0.0
H145 H 0.88202 0.87041 0.53141 0.0
H146 H 0.83462 0.85409 0.51016 0.0
H147 H 0.87302 0.8414 0.43082 0.0
H148 H 0.96833 0.78042 0.49118 0.0
H149 H 0.01816 0.8011 0.49745 0.0
O150 O 0.94306 0.90127 0.46145 0.0
C151 C 0.97398 0.89916 0.40673 0.0
C152 C 1.00811 0.84169 0.48036 0.0
C153 C 0.97378 0.80193 0.48449 0.0
N154 N 0.95958 0.84544 0.46352 0.0
C155 C 0.98662 0.85742 0.46817 0.0
C156 C 0.95289 0.81825 0.47208 0.0
C157 C 1.00169 0.8136 0.48814 0.0
C158 C 0.89059 0.89684 0.35347 0.0
N159 N 0.91285 0.91372 0.3648 0.0
C160 C 0.88978 0.88901 0.32472 0.0
C161 C 0.91196 0.89862 0.30752 0.0
C162 C 0.93458 0.91586 0.31922 0.0
C163 C 0.93469 0.92323 0.34806 0.0
C164 C 0.91209 1.00289 0.3651 0.0
C165 C 0.94109 0.97943 0.41035 0.0
C166 C 0.90458 0.97542 0.3743 0.0
N167 N 0.91968 0.96375 0.39609 0.0
C168 C 0.9487 1.0072 0.40215 0.0
C169 C 0.93427 0.01883 0.37912 0.0
C170 C 0.92868 0.92303 0.4659 0.0
C171 C 0.85142 0.8445 0.46966 0.0
C172 C 0.9042 0.86343 0.49275 0.0
C173 C 0.88019 0.86291 0.50965 0.0
C174 C 0.85363 0.85365 0.49784 0.0
N175 N 0.90152 0.85638 0.46458 0.0
C176 C 0.87564 0.84634 0.45318 0.0
Co177 Co 0.68771 0.37771 0.91544 0.0
Co178 Co 0.66737 0.3925 0.84784 0.0
O179 O 0.66548 0.39823 0.88839 0.0
C180 C 0.62946 0.37408 0.93662 0.0
O181 O 0.62052 0.36336 0.91185 0.0
C182 C 0.67756 0.45664 0.83413 0.0
O183 O 0.69937 0.45101 0.81857 0.0
O184 O 0.70986 0.39929 0.8499 0.0
O185 O 0.71948 0.37487 0.88916 0.0
H186 H 0.70542 0.35412 0.75748 0.0
H187 H 0.66544 0.43309 0.93297 0.0
O188 O 0.65593 0.37999 0.9421 0.0
H189 H 0.77014 0.44463 0.94781 0.0
H190 H 0.73358 0.36269 0.01153 0.0
H191 H 0.72203 0.32676 0.91284 0.0
H192 H 0.74748 0.39963 0.92892 0.0
H193 H 0.69949 0.38369 0.97786 0.0
O194 O 0.66273 0.43592 0.84525 0.0
H195 H 0.70227 0.35953 0.80956 0.0
H196 H 0.63657 0.4171 0.79856 0.0
H197 H 0.75576 0.30472 0.94589 0.0
H198 H 0.68729 0.47847 0.95238 0.0
H199 H 0.76277 0.32366 0.99516 0.0
H200 H 0.74017 0.48414 0.96015 0.0
O201 O 0.67079 0.34132 0.89981 0.0
H202 H 0.56639 0.41262 0.87086 0.0
H203 H 0.62741 0.34855 0.81987 0.0
H204 H 0.5751 0.33884 0.81816 0.0
H205 H 0.54419 0.37105 0.84371 0.0
H206 H 0.61871 0.4213 0.87227 0.0
H207 H 0.63906 0.41252 0.74634 0.0
H208 H 0.67364 0.38077 0.72553 0.0
O209 O 0.67139 0.34849 0.85257 0.0
C210 C 0.72713 0.38683 0.86633 0.0
C211 C 0.69021 0.36797 0.7663 0.0
C212 C 0.65298 0.40077 0.76004 0.0
N213 N 0.66916 0.38847 0.80696 0.0
C214 C 0.6883 0.37104 0.79574 0.0
C215 C 0.65169 0.40332 0.78958 0.0
C216 C 0.67239 0.38294 0.74838 0.0
C217 C 0.68836 0.43549 0.93635 0.0
N218 N 0.70509 0.41361 0.93005 0.0
C219 C 0.70063 0.46125 0.94727 0.0
C220 C 0.73023 0.46451 0.95155 0.0
C221 C 0.74714 0.44228 0.94465 0.0
C222 C 0.73416 0.41689 0.93381 0.0
C223 C 0.73097 0.35454 0.98997 0.0
C224 C 0.72426 0.33452 0.93453 0.0
C225 C 0.71162 0.36622 0.9709 0.0
N226 N 0.70937 0.35696 0.94327 0.0
C227 C 0.74351 0.32205 0.9531 0.0
C228 C 0.74734 0.33262 0.98079 0.0
C229 C 0.6696 0.33168 0.87434 0.0
C230 C 0.57958 0.39851 0.85949 0.0
C231 C 0.6141 0.36264 0.83108 0.0
C232 C 0.58449 0.35706 0.82999 0.0
C233 C 0.56716 0.37515 0.84431 0.0
N234 N 0.62612 0.38565 0.84592 0.0
C235 C 0.60926 0.40343 0.86007 0.0
Co236 Co 0.13393 0.8678 0.66957 0.0
Co237 Co 0.1487 0.8497 0.60217 0.0
O238 O 0.12754 0.87113 0.62883 0.0
C239 C 0.07108 0.85641 0.6857 0.0
O240 O 0.07888 0.83438 0.70031 0.0
C241 C 0.15041 0.90677 0.57699 0.0
O242 O 0.16115 0.91729 0.60121 0.0
O243 O 0.18488 0.86875 0.61733 0.0
O244 O 0.17784 0.86469 0.66449 0.0
H245 H 0.22264 0.78251 0.57649 0.0
H246 H 0.10423 0.91723 0.64622 0.0
O247 O 0.09035 0.87184 0.67304 0.0
H248 H 0.18984 0.95802 0.69888 0.0
H249 H 0.11695 0.89268 0.77174 0.0
H250 H 0.16826 0.83186 0.70703 0.0
H251 H 0.17849 0.9063 0.69802 0.0
H252 H 0.11079 0.89691 0.71964 0.0
O253 O 0.14424 0.88021 0.57385 0.0
H254 H 0.20248 0.81951 0.60579 0.0
H255 H 0.14077 0.83429 0.54054 0.0
H256 H 0.17518 0.82695 0.75896 0.0
H257 H 0.11464 0.96932 0.64686 0.0
H258 H 0.14938 0.8575 0.79167 0.0
H259 H 0.15816 0.98975 0.67298 0.0
O260 O 0.12773 0.82532 0.66695 0.0
H261 H 0.04605 0.84493 0.56674 0.0
H262 H 0.12855 0.7889 0.59187 0.0
H263 H 0.08323 0.76417 0.57565 0.0
H264 H 0.04176 0.79208 0.56268 0.0
H265 H 0.09178 0.86893 0.58368 0.0
H266 H 0.15985 0.79665 0.51075 0.0
H267 H 0.19977 0.76928 0.52965 0.0
O268 O 0.15434 0.81894 0.62935 0.0
C269 C 0.19442 0.86878 0.64308 0.0
C270 C 0.20476 0.79386 0.56836 0.0
C271 C 0.16957 0.80193 0.53141 0.0
N272 N 0.16989 0.82841 0.57521 0.0
C273 C 0.1934 0.81506 0.58473 0.0
C274 C 0.15904 0.82333 0.54824 0.0
C275 C 0.19204 0.78661 0.54197 0.0
C276 C 0.1228 0.92614 0.65808 0.0
N277 N 0.14067 0.90877 0.67213 0.0
C278 C 0.12868 0.95559 0.65823 0.0
C279 C 0.15302 0.96711 0.67288 0.0
C280 C 0.17093 0.94928 0.6874 0.0
C281 C 0.16438 0.92 0.6868 0.0
C282 C 0.1283 0.87924 0.7577 0.0
C283 C 0.15704 0.84525 0.72117 0.0
C284 C 0.12485 0.88152 0.72823 0.0
N285 N 0.13916 0.86464 0.71041 0.0
C286 C 0.161 0.84237 0.75053 0.0
C287 C 0.14651 0.85951 0.76887 0.0
C288 C 0.14237 0.80972 0.65141 0.0
C289 C 0.0641 0.83251 0.57223 0.0
C290 C 0.11052 0.80134 0.58662 0.0
C291 C 0.08493 0.78717 0.57728 0.0
C292 C 0.06163 0.8029 0.56999 0.0
N293 N 0.11294 0.83043 0.58859 0.0
C294 C 0.09006 0.84599 0.58172 0.0
Co295 Co 0.6684 0.59638 0.08821 0.0
Co296 Co 0.60856 0.61521 0.12062 0.0
O297 O 0.64873 0.62263 0.11202 0.0
C298 C 0.71027 0.61279 0.13593 0.0
O299 O 0.69007 0.61001 0.1546 0.0
C300 C 0.61329 0.67724 0.10346 0.0
O301 O 0.62623 0.66747 0.08137 0.0
O302 O 0.59859 0.6152 0.07911 0.0
O303 O 0.63234 0.58685 0.06473 0.0
H304 H 0.51489 0.55838 0.11663 0.0
H305 H 0.6924 0.65543 0.0969 0.0
O306 O 0.705 0.60609 0.11 0.0
H307 H 0.66913 0.64616 0.99447 0.0
H308 H 0.75539 0.56033 0.04315 0.0
H309 H 0.65422 0.53835 0.06443 0.0
H310 H 0.66415 0.60445 0.02542 0.0
H311 H 0.72623 0.59727 0.06284 0.0
O312 O 0.6039 0.6591 0.12196 0.0
H313 H 0.56195 0.57474 0.09889 0.0
H314 H 0.56977 0.64011 0.16194 0.0
H315 H 0.6825 0.50079 0.04461 0.0
H316 H 0.70079 0.69685 0.06622 0.0
H317 H 0.73376 0.5114 0.03471 0.0
H318 H 0.6875 0.69301 0.01504 0.0
O319 O 0.65838 0.56465 0.11432 0.0
H320 H 0.65761 0.65606 0.20956 0.0
H321 H 0.59744 0.57542 0.16884 0.0
H322 H 0.61187 0.57525 0.21966 0.0
H323 H 0.64205 0.61585 0.24038 0.0
H324 H 0.64317 0.6551 0.15869 0.0
H325 H 0.52275 0.62444 0.18046 0.0
H326 H 0.49542 0.58268 0.15836 0.0
O327 O 0.61205 0.57122 0.11865 0.0
C328 C 0.60995 0.60059 0.05992 0.0
C329 C 0.52678 0.57629 0.12676 0.0
C330 C 0.5312 0.61338 0.16257 0.0
N331 N 0.56874 0.60805 0.12967 0.0
C332 C 0.55331 0.58584 0.11661 0.0
C333 C 0.55763 0.6224 0.15176 0.0
C334 C 0.51591 0.58991 0.1502 0.0
C335 C 0.68829 0.65299 0.07427 0.0
N336 N 0.67784 0.62749 0.06292 0.0
C337 C 0.69271 0.67667 0.05706 0.0
C338 C 0.68545 0.67439 0.02822 0.0
C339 C 0.67518 0.64821 0.01672 0.0
C340 C 0.67207 0.6247 0.03441 0.0
C341 C 0.73321 0.55531 0.04781 0.0
C342 C 0.67629 0.54338 0.05958 0.0
C343 C 0.71653 0.57621 0.05886 0.0
N344 N 0.68866 0.5699 0.06539 0.0
C345 C 0.69228 0.52192 0.04854 0.0
C346 C 0.72105 0.52787 0.04306 0.0
C347 C 0.63303 0.55463 0.1185 0.0
C348 C 0.64436 0.6383 0.2008 0.0
C349 C 0.61082 0.59304 0.17759 0.0
C350 C 0.61879 0.59289 0.20644 0.0
C351 C 0.63568 0.6157 0.21807 0.0
N352 N 0.61936 0.61532 0.1608 0.0
C353 C 0.63596 0.63773 0.17205 0.0
Co354 Co 0.87965 0.12045 0.66258 0.0
Co355 Co 0.86455 0.15275 0.59994 0.0
O356 O 0.886 0.12706 0.62265 0.0
C357 C 0.94308 0.13663 0.66018 0.0
O358 O 0.93515 0.15935 0.64689 0.0
C359 C 0.86061 0.09925 0.56743 0.0
O360 O 0.85037 0.08682 0.59012 0.0
O361 O 0.82792 0.13362 0.61041 0.0
O362 O 0.83554 0.12321 0.65652 0.0
H363 H 0.79486 0.22802 0.58482 0.0
H364 H 0.91403 0.0814 0.63014 0.0
O365 O 0.92365 0.11823 0.66849 0.0
H366 H 0.8288 0.02332 0.65821 0.0
H367 H 0.89811 0.07182 0.75545 0.0
H368 H 0.84313 0.14397 0.70639 0.0
H369 H 0.83675 0.07311 0.67501 0.0
H370 H 0.90478 0.08148 0.70449 0.0
O371 O 0.86652 0.12604 0.56709 0.0
H372 H 0.81373 0.18638 0.60869 0.0
H373 H 0.8707 0.17534 0.54155 0.0
H374 H 0.83561 0.13489 0.75731 0.0
H375 H 0.9072 0.03172 0.61333 0.0
H376 H 0.86323 0.09858 0.78215 0.0
H377 H 0.86383 1.00276 0.62624 0.0
O378 O 0.88325 0.16205 0.67146 0.0
H379 H 0.96198 0.15901 0.55856 0.0
H380 H 0.88736 0.21325 0.6017 0.0
H381 H 0.93072 0.23874 0.5851 0.0
H382 H 0.96788 0.21198 0.56194 0.0
H383 H 0.91895 0.13423 0.57706 0.0
H384 H 0.85374 0.21786 0.51775 0.0
H385 H 0.81613 0.24509 0.53993 0.0
O386 O 0.86163 0.17892 0.63252 0.0
C387 C 0.81862 0.12673 0.63469 0.0
C388 C 0.81147 0.21655 0.57513 0.0
C389 C 0.8444 0.21077 0.53741 0.0
N390 N 0.84371 0.17883 0.57675 0.0
C391 C 0.82199 0.19273 0.58836 0.0
C392 C 0.85374 0.18656 0.55081 0.0
C393 C 0.8234 0.22609 0.54993 0.0
C394 C 0.89563 0.0686 0.63688 0.0
N395 N 0.87582 0.08013 0.65357 0.0
C396 C 0.89175 0.04054 0.62705 0.0
C397 C 0.86741 0.02426 0.63444 0.0
C398 C 0.8477 0.03587 0.65218 0.0
C399 C 0.85231 0.06404 0.66165 0.0
C400 C 0.88593 0.08767 0.74486 0.0
C401 C 0.85511 0.12806 0.71706 0.0
C402 C 0.88967 0.09326 0.71605 0.0
N403 N 0.87424 0.11314 0.70253 0.0
C404 C 0.85082 0.12305 0.74589 0.0
C405 C 0.86635 0.10268 0.75982 0.0
C406 C 0.87095 0.18155 0.65806 0.0
C407 C 0.94591 0.17112 0.56828 0.0
C408 C 0.90397 0.20118 0.59292 0.0
C409 C 0.92838 0.21583 0.58317 0.0
C410 C 0.94924 0.20073 0.57031 0.0
N411 N 0.9004 0.17224 0.58997 0.0
C412 C 0.92136 0.15715 0.5786 0.0
Co413 Co 0.34846 0.41272 0.10114 0.0
Co414 Co 0.40591 0.3857 0.1345 0.0
O415 O 0.36526 0.38296 0.12339 0.0
C416 C 0.30024 0.38831 0.13761 0.0
O417 O 0.31603 0.36968 0.1501 0.0
C418 C 0.39226 0.32361 0.11506 0.0
O419 O 0.37687 0.33385 0.09426 0.0
O420 O 0.41609 0.38733 0.0938 0.0
O421 O 0.38488 0.41925 0.07983 0.0
H422 H 0.5056 0.43126 0.14128 0.0
H423 H 0.32074 0.35319 0.10136 0.0
O424 O 0.31124 0.40699 0.12106 0.0
H425 H 0.33344 0.37641 1.00094 0.0
H426 H 0.26696 0.46351 0.05744 0.0
H427 H 0.37016 0.46928 0.0805 0.0
H428 H 0.34984 0.41085 0.0383 0.0
H429 H 0.29024 0.4218 0.07611 0.0
O430 O 0.40576 0.34123 0.1328 0.0
H431 H 0.45629 0.42453 0.12164 0.0
H432 H 0.44216 0.35075 0.17173 0.0
H433 H 0.34801 0.51073 0.05972 0.0
H434 H 0.30284 0.31891 0.06477 0.0
H435 H 0.29574 0.50811 0.04853 0.0
H436 H 0.309 0.33025 0.01393 0.0
O437 O 0.36199 0.44151 0.1303 0.0
H438 H 0.35297 0.34614 0.21801 0.0
H439 H 0.4227 0.42073 0.18612 0.0
H440 H 0.40921 0.41973 0.23639 0.0
H441 H 0.37415 0.38219 0.25264 0.0
H442 H 0.36691 0.34809 0.16787 0.0
H443 H 0.49216 0.35507 0.18972 0.0
H444 H 0.52405 0.396 0.1751 0.0
O445 O 0.40725 0.43049 0.13567 0.0
C446 C 0.4072 0.40544 0.07609 0.0
C447 C 0.49184 0.41345 0.14799 0.0
C448 C 0.48436 0.3706 0.17502 0.0
N449 N 0.44614 0.38758 0.14587 0.0
C450 C 0.46381 0.40966 0.13709 0.0
C451 C 0.45617 0.36802 0.1644 0.0
C452 C 0.50221 0.39363 0.16691 0.0
C453 C 0.32258 0.35908 0.07951 0.0
N454 N 0.33521 0.38479 0.0722 0.0
C455 C 0.31281 0.3392 0.05873 0.0
C456 C 0.31644 0.34552 0.03021 0.0
C457 C 0.33 0.37141 0.0229 0.0
C458 C 0.33927 0.39087 0.04423 0.0
C459 C 0.28968 0.46476 0.06194 0.0
C460 C 0.34769 0.4676 0.07481 0.0
C461 C 0.30303 0.44127 0.07283 0.0
N462 N 0.3316 0.4431 0.07984 0.0
C463 C 0.33517 0.49131 0.06333 0.0
C464 C 0.30588 0.48991 0.05718 0.0
C465 C 0.3881 0.44921 0.13551 0.0
C466 C 0.36829 0.36259 0.21119 0.0
C467 C 0.40728 0.40445 0.19297 0.0
C468 C 0.39981 0.40393 0.22149 0.0
C469 C 0.38015 0.38284 0.23061 0.0
N470 N 0.39556 0.3845 0.17408 0.0
C471 C 0.3763 0.36376 0.18284 0.0
Co472 Co 0.41364 0.11401 0.1706 0.0
Co473 Co 0.37435 0.1344 0.1139 0.0
O474 O 0.3885 0.13991 0.15251 0.0
C475 C 0.3703 0.12691 0.21202 0.0
O476 O 0.35054 0.12009 0.1924 0.0
C477 C 0.39734 0.19647 0.11722 0.0
O478 O 0.42116 0.18572 0.12606 0.0
O479 O 0.41438 0.13369 0.10044 0.0
O480 O 0.43161 0.1048 0.13365 0.0
H481 H 0.35736 0.08117 0.02179 0.0
H482 H 0.41066 0.17189 0.19556 0.0
O483 O 0.39642 0.12283 0.20763 0.0
H484 H 0.50541 0.1695 0.15429 0.0
H485 H 0.48372 0.08576 0.24701 0.0
H486 H 0.42984 0.05477 0.15966 0.0
H487 H 0.47487 0.1257 0.1575 0.0
H488 H 0.4522 0.11833 0.22237 0.0
O489 O 0.37601 0.17888 0.10994 0.0
H490 H 0.38444 0.09464 0.06624 0.0
H491 H 0.33222 0.1641 0.07863 0.0
H492 H 0.45785 0.02031 0.18587 0.0
H493 H 0.44248 0.21512 0.19726 0.0
H494 H 0.48519 0.03579 0.22996 0.0
H495 H 0.48934 0.21485 0.17471 0.0
O496 O 0.38506 0.08175 0.16355 0.0
H497 H 0.29565 0.17397 0.16976 0.0
H498 H 0.32157 0.09612 0.10639 0.0
H499 H 0.27283 0.09579 0.1247 0.0
H500 H 0.25957 0.13496 0.15657 0.0
H501 H 0.34427 0.17324 0.15135 0.0
H502 H 0.30508 0.15192 0.03404 0.0
H503 H 0.31619 0.10902 1.00649 0.0
O504 O 0.37321 0.08984 0.11798 0.0
C505 C 0.43349 0.11763 0.10992 0.0
C506 C 0.35182 0.09951 0.03406 0.0
C507 C 0.32252 0.13928 0.04087 0.0
N508 N 0.3594 0.12965 0.07527 0.0
C509 C 0.36716 0.10729 0.05913 0.0
C510 C 0.33824 0.14632 0.06587 0.0
C511 C 0.32885 0.11521 0.02537 0.0
C512 C 0.43211 0.17074 0.18815 0.0
N513 N 0.44098 0.14609 0.17661 0.0
C514 C 0.44985 0.19553 0.18865 0.0
C515 C 0.47633 0.19527 0.17617 0.0
C516 C 0.48537 0.16998 0.16484 0.0
C517 C 0.4677 0.14525 0.16615 0.0
C518 C 0.47128 0.07852 0.22832 0.0
C519 C 0.44068 0.06137 0.17938 0.0
C520 C 0.45376 0.09704 0.21397 0.0
N521 N 0.43875 0.08839 0.18976 0.0
C522 C 0.45679 0.04181 0.194 0.0
C523 C 0.47216 0.05051 0.21869 0.0
C524 C 0.376 0.07254 0.13911 0.0
C525 C 0.30113 0.15685 0.15578 0.0
C526 C 0.31604 0.11315 0.12039 0.0
C527 C 0.28836 0.11291 0.1306 0.0
C528 C 0.28092 0.13492 0.14844 0.0
N529 N 0.33574 0.13475 0.12767 0.0
C530 C 0.32859 0.15642 0.14512 0.0
Co531 Co 0.38022 0.85314 0.64417 0.0
Co532 Co 0.36938 0.923 0.65587 0.0
O533 O 0.38818 0.89326 0.63571 0.0
C534 C 0.44475 0.85873 0.65582 0.0
O535 O 0.43922 0.87656 0.67626 0.0
C536 C 0.38052 0.94838 0.59726 0.0
O537 O 0.39218 0.92586 0.58718 0.0
O538 O 0.33184 0.90679 0.64112 0.0
O539 O 0.33681 0.85993 0.64779 0.0
H540 H 0.29624 0.96052 0.72004 0.0
H541 H 0.41343 0.8656 0.59225 0.0
O542 O 0.42375 0.847 0.64061 0.0
H543 H 0.32487 0.81236 0.55857 0.0
H544 H 0.39304 0.7484 0.6322 0.0
H545 H 0.34303 0.82114 0.68416 0.0
H546 H 0.33317 0.82372 0.60947 0.0
H547 H 0.40192 0.79941 0.62182 0.0
O548 O 0.37195 0.94924 0.62265 0.0
H549 H 0.31615 0.92477 0.68886 0.0
H550 H 0.38241 0.98464 0.6656 0.0
H551 H 0.33334 0.77039 0.6951 0.0
H552 H 0.40688 0.85239 0.54152 0.0
H553 H 0.35844 0.73362 0.66901 0.0
H554 H 0.36213 0.82656 0.52414 0.0
O555 O 0.38638 0.85994 0.68581 0.0
H556 H 0.47489 0.94864 0.64959 0.0
H557 H 0.39345 0.94084 0.71341 0.0
H558 H 0.44133 0.95422 0.7332 0.0
H559 H 0.48271 0.95801 0.70139 0.0
H560 H 0.42654 0.93493 0.63065 0.0
H561 H 0.36603 0.01913 0.69948 0.0
H562 H 0.32178 1.008 0.72646 0.0
O563 O 0.36431 0.89993 0.69043 0.0
C564 C 0.32101 0.88138 0.64371 0.0
C565 C 0.31521 0.96597 0.70822 0.0
C566 C 0.35389 0.99921 0.69632 0.0
N567 N 0.35071 0.95252 0.67576 0.0
C568 C 0.32639 0.94592 0.69024 0.0
C569 C 0.36348 0.97928 0.67744 0.0
C570 C 0.32947 0.99263 0.7117 0.0
C571 C 0.39405 0.85382 0.58501 0.0
N572 N 0.3737 0.84551 0.60385 0.0
C573 C 0.39033 0.84678 0.55617 0.0
C574 C 0.36525 0.83201 0.54648 0.0
C575 C 0.34437 0.82405 0.56576 0.0
C576 C 0.34908 0.83083 0.59456 0.0
C577 C 0.38194 0.76422 0.64368 0.0
C578 C 0.3539 0.80524 0.67262 0.0
C579 C 0.38694 0.79311 0.63794 0.0
N580 N 0.37287 0.81316 0.65226 0.0
C581 C 0.34839 0.77655 0.67896 0.0
C582 C 0.36251 0.75594 0.66433 0.0
C583 C 0.3749 0.87825 0.70104 0.0
C584 C 0.45709 0.94703 0.66373 0.0
C585 C 0.41115 0.9424 0.69927 0.0
C586 C 0.43838 0.94989 0.71069 0.0
C587 C 0.46152 0.95207 0.6928 0.0
N588 N 0.40688 0.93728 0.67073 0.0
C589 C 0.42949 0.9396 0.65304 0.0
Co590 Co 0.59045 0.89683 0.15617 0.0
Co591 Co 0.61457 0.8658 0.09736 0.0
O592 O 0.61195 0.86726 0.13849 0.0
C593 C 0.63643 0.88179 0.19909 0.0
O594 O 0.65351 0.87356 0.17943 0.0
C595 C 0.59825 0.80269 0.10997 0.0
O596 O 0.57571 0.81108 0.12279 0.0
O597 O 0.57184 0.8626 0.09381 0.0
O598 O 0.56543 0.90026 0.12132 0.0
H599 H 0.58892 0.89236 0.99694 0.0
H600 H 0.59642 0.83919 0.17956 0.0
O601 O 0.61354 0.89383 0.1925 0.0
H602 H 0.49296 0.85118 0.1726 0.0
H603 H 0.54397 0.94567 0.2372 0.0
H604 H 0.56817 0.95142 0.13619 0.0
H605 H 0.5269 0.89081 0.16135 0.0
H606 H 0.56797 0.90685 0.21424 0.0
O607 O 0.61537 0.82159 0.09868 0.0
H608 H 0.58559 0.89399 0.04925 0.0
H609 H 0.64818 0.83278 0.05753 0.0
H610 H 0.54434 0.99075 0.15837 0.0
H611 H 0.56314 0.79908 0.19109 0.0
H612 H 0.53237 0.9882 0.20946 0.0
H613 H 0.51124 0.80429 0.18623 0.0
O614 O 0.61764 0.92633 0.14057 0.0
H615 H 0.70976 0.83936 0.13753 0.0
H616 H 0.66071 0.9026 0.07159 0.0
H617 H 0.71328 0.90698 0.07688 0.0
H618 H 0.73816 0.87514 0.10998 0.0
H619 H 0.65718 0.83594 0.13181 0.0
H620 H 0.6518 0.82997 1.00544 0.0
H621 H 0.62245 0.86007 0.97487 0.0
O622 O 0.61448 0.91026 0.09544 0.0
C623 C 0.55609 0.88157 0.10317 0.0
C624 C 0.60198 0.87918 0.01009 0.0
C625 C 0.63725 0.84413 0.01485 0.0
N626 N 0.61686 0.86374 0.05636 0.0
C627 C 0.60025 0.88013 0.03968 0.0
C628 C 0.635 0.84572 0.04432 0.0
C629 C 0.6207 0.86108 0.99769 0.0
C630 C 0.57376 0.84215 0.1784 0.0
N631 N 0.56371 0.86749 0.16992 0.0
C632 C 0.55502 0.81926 0.18495 0.0
C633 C 0.52577 0.82235 0.18253 0.0
C634 C 0.51561 0.84848 0.17472 0.0
C635 C 0.535 0.87097 0.16846 0.0
C636 C 0.54963 0.94726 0.21513 0.0
C637 C 0.56312 0.95002 0.15837 0.0
C638 C 0.5632 0.92526 0.20196 0.0
N639 N 0.56994 0.92683 0.17392 0.0
C640 C 0.5496 0.97246 0.17084 0.0
C641 C 0.54297 0.97108 0.19948 0.0
C642 C 0.61859 0.93101 0.11383 0.0
C643 C 0.69917 0.85334 0.12302 0.0
C644 C 0.67136 0.88885 0.08624 0.0
C645 C 0.70115 0.89134 0.08904 0.0
C646 C 0.71509 0.87344 0.10758 0.0
N647 N 0.65592 0.86904 0.10142 0.0
C648 C 0.66942 0.85144 0.11964 0.0
Co649 Co 0.63372 0.15498 0.6341 0.0
Co650 Co 0.64496 0.08624 0.64643 0.0
O651 O 0.62554 0.11508 0.62558 0.0
C652 C 0.57145 0.16847 0.64561 0.0
O653 O 0.58035 0.18114 0.66952 0.0
C654 C 0.65405 0.04529 0.59993 0.0
O655 O 0.68156 0.05029 0.60521 0.0
O656 O 0.68112 0.10121 0.62999 0.0
O657 O 0.67744 0.14819 0.639 0.0
H658 H 0.72347 0.0501 0.70842 0.0
H659 H 0.59941 0.14209 0.5802 0.0
O660 O 0.59003 0.15897 0.62881 0.0
H661 H 0.68738 0.19559 0.55158 0.0
H662 H 0.61897 0.2592 0.62217 0.0
H663 H 0.6718 0.18813 0.67526 0.0
H664 H 0.67994 0.18413 0.60181 0.0
H665 H 0.61065 0.20792 0.61119 0.0
O666 O 0.63626 0.05947 0.61337 0.0
H667 H 0.70232 0.08347 0.67506 0.0
H668 H 0.63038 0.02578 0.66019 0.0
H669 H 0.68091 0.23916 0.68691 0.0
H670 H 0.605 0.15602 0.53009 0.0
H671 H 0.65435 0.27508 0.66027 0.0
H672 H 0.64946 0.18167 0.51527 0.0
O673 O 0.62846 0.14857 0.67538 0.0
H674 H 0.53908 0.06153 0.64334 0.0
H675 H 0.62551 0.07359 0.70562 0.0
H676 H 0.57901 0.0612 0.72664 0.0
H677 H 0.53545 0.0548 0.69542 0.0
H678 H 0.58598 0.07431 0.62315 0.0
H679 H 0.64803 0.99444 0.69704 0.0
H680 H 0.69568 1.0058 0.72099 0.0
O681 O 0.65454 0.11116 0.68026 0.0
C682 C 0.69247 0.12645 0.63362 0.0
C683 C 0.70292 0.04467 0.69808 0.0
C684 C 0.66102 0.013 0.69129 0.0
N685 N 0.66461 0.05697 0.66641 0.0
C686 C 0.69097 0.06333 0.67885 0.0
C687 C 0.65068 0.03124 0.67085 0.0
C688 C 0.68738 0.01971 0.70497 0.0
C689 C 0.61867 0.15392 0.5741 0.0
N690 N 0.63935 0.16216 0.59402 0.0
C691 C 0.62185 0.16127 0.5456 0.0
C692 C 0.64677 0.17604 0.53732 0.0
C693 C 0.66801 0.18383 0.55766 0.0
C694 C 0.6638 0.17693 0.58608 0.0
C695 C 0.63067 0.24376 0.63392 0.0
C696 C 0.66026 0.20367 0.66354 0.0
C697 C 0.62602 0.21473 0.62783 0.0
N698 N 0.64076 0.19516 0.64256 0.0
C699 C 0.66547 0.23251 0.67024 0.0
C700 C 0.65054 0.25265 0.6553 0.0
C701 C 0.64378 0.13291 0.69054 0.0
C702 C 0.55797 0.06407 0.65712 0.0
C703 C 0.60667 0.07097 0.69181 0.0
C704 C 0.58037 0.06394 0.70389 0.0
C705 C 0.5559 0.06047 0.68637 0.0
N706 N 0.60866 0.07416 0.66302 0.0
C707 C 0.58466 0.07102 0.64578 0.0
Co708 Co 0.45155 0.88613 0.8574 0.0
Co709 Co 0.38682 0.90053 0.8815 0.0
O710 O 0.42748 0.90761 0.8806 0.0
C711 C 0.48425 0.88708 0.91258 0.0
O712 O 0.46281 0.873 0.92441 0.0
C713 C 0.37027 0.96227 0.8698 0.0
O714 O 0.35153 0.95238 0.85031 0.0
O715 O 0.38305 0.902 0.8391 0.0
O716 O 0.42103 0.87804 0.82796 0.0
H717 H 0.29094 0.85425 0.8528 0.0
H718 H 0.46836 0.94485 0.87749 0.0
O719 O 0.48322 0.89352 0.88632 0.0
H720 H 0.47016 0.94916 0.77295 0.0
H721 H 0.53696 0.87564 0.79837 0.0
H722 H 0.44759 0.82831 0.83037 0.0
H723 H 0.45741 0.90391 0.79662 0.0
H724 H 0.50991 0.89738 0.83569 0.0
O725 O 0.38463 0.9445 0.88428 0.0
H726 H 0.34334 0.86246 0.85097 0.0
H727 H 0.34233 0.92567 0.91584 0.0
H728 H 0.477 0.80311 0.79699 0.0
H729 H 0.47902 0.99093 0.85444 0.0
H730 H 0.52209 0.82688 0.78038 0.0
H731 H 0.48032 0.99319 0.80175 0.0
O732 O 0.43814 0.85047 0.87654 0.0
H733 H 0.42735 0.93201 0.97744 0.0
H734 H 0.36774 0.85828 0.92457 0.0
H735 H 0.38067 0.8507 0.97475 0.0
H736 H 0.41029 0.88806 1.0019 0.0
H737 H 0.4162 0.93745 0.92638 0.0
H738 H 0.28987 0.91827 0.91838 0.0
H739 H 0.26387 0.8823 0.8867 0.0
O740 O 0.39084 0.8566 0.8784 0.0
C741 C 0.3967 0.88718 0.82181 0.0
C742 C 0.30202 0.86998 0.86672 0.0
C743 C 0.30142 0.90592 0.90352 0.0
N744 N 0.34575 0.89449 0.8833 0.0
C745 C 0.33167 0.87469 0.86579 0.0
C746 C 0.33108 0.91005 0.90199 0.0
C747 C 0.28685 0.88573 0.88574 0.0
C748 C 0.46852 0.94568 0.85453 0.0
N749 N 0.46264 0.92153 0.83848 0.0
C750 C 0.47449 0.97189 0.84161 0.0
C751 C 0.4751 0.97318 0.81206 0.0
C752 C 0.46929 0.94849 0.79585 0.0
C753 C 0.46244 0.92284 0.80943 0.0
C754 C 0.51832 0.86425 0.80639 0.0
C755 C 0.46776 0.83828 0.82428 0.0
C756 C 0.50241 0.87693 0.82699 0.0
N757 N 0.47667 0.86471 0.83448 0.0
C758 C 0.48421 0.82398 0.80512 0.0
C759 C 0.50949 0.83731 0.79581 0.0
C760 C 0.41235 0.8404 0.87903 0.0
C761 C 0.41416 0.91578 0.96602 0.0
C762 C 0.38079 0.87452 0.93605 0.0
C763 C 0.38784 0.87025 0.96463 0.0
C764 C 0.40456 0.89109 0.97973 0.0
N765 N 0.3911 0.89833 0.9225 0.0
C766 C 0.4074 0.91893 0.93716 0.0
Co767 Co 0.66348 0.89676 0.42332 0.0
Co768 Co 0.62932 0.91494 0.36235 0.0
O769 O 0.66185 0.8983 0.38168 0.0
C770 C 0.72468 0.91734 0.40842 0.0
O771 O 0.71369 0.93458 0.38988 0.0
C772 C 0.65074 0.87252 0.31968 0.0
O773 O 0.67314 0.86624 0.33527 0.0
O774 O 0.60321 0.88588 0.37984 0.0
O775 O 0.61895 0.89232 0.42485 0.0
H776 H 0.53142 0.9539 0.35658 0.0
H777 H 0.69738 0.85745 0.3906 0.0
O778 O 0.70776 0.90112 0.42312 0.0
H779 H 0.63391 0.79588 0.4486 0.0
H780 H 0.70764 0.87247 0.51805 0.0
H781 H 0.63122 0.92278 0.46927 0.0
H782 H 0.63256 0.84815 0.4515 0.0
H783 H 0.70111 0.86954 0.46586 0.0
O784 O 0.63277 0.88956 0.32859 0.0
H785 H 0.57249 0.93307 0.38053 0.0
H786 H 0.61575 0.93112 0.30248 0.0
H787 H 0.63656 0.92577 0.52154 0.0
H788 H 0.69958 0.80526 0.3871 0.0
H789 H 0.67551 0.90098 0.54621 0.0
H790 H 0.66766 0.77412 0.41625 0.0
O791 O 0.66166 0.93872 0.42507 0.0
H792 H 0.71833 0.95341 0.31417 0.0
H793 H 0.62722 0.9774 0.3552 0.0
H794 H 0.65785 0.01507 0.33417 0.0
H795 H 0.70389 1.00321 0.31315 0.0
H796 H 0.68722 0.91649 0.33572 0.0
H797 H 0.5754 0.9524 0.27789 0.0
H798 H 0.53281 0.96415 0.3049 0.0
O799 O 0.62403 0.941 0.39504 0.0
C800 C 0.59851 0.88576 0.4064 0.0
C801 C 0.54981 0.94886 0.34454 0.0
C802 C 0.57439 0.9479 0.30034 0.0
N803 N 0.59656 0.93062 0.34299 0.0
C804 C 0.57315 0.93691 0.35799 0.0
C805 C 0.5972 0.93572 0.31442 0.0
C806 C 0.55057 0.95453 0.31554 0.0
C807 C 0.68351 0.844 0.40338 0.0
N808 N 0.66491 0.85576 0.42124 0.0
C809 C 0.68481 0.81448 0.40129 0.0
C810 C 0.66687 0.79702 0.41764 0.0
C811 C 0.64791 0.80921 0.43578 0.0
C812 C 0.64718 0.83881 0.43727 0.0
C813 C 0.69075 0.8835 0.50752 0.0
C814 C 0.64778 0.91146 0.4799 0.0
C815 C 0.68695 0.88193 0.47799 0.0
N816 N 0.6659 0.89609 0.46453 0.0
C817 C 0.65081 0.91336 0.50951 0.0
C818 C 0.67264 0.89948 0.52332 0.0
C819 C 0.64018 0.95117 0.41525 0.0
C820 C 0.6982 0.95879 0.32287 0.0
C821 C 0.64706 0.97187 0.34606 0.0
C822 C 0.66443 0.99344 0.33421 0.0
C823 C 0.69014 0.98678 0.32244 0.0
N824 N 0.65476 0.94426 0.34592 0.0
C825 C 0.6802 0.93775 0.33483 0.0
Co826 Co 0.61637 0.16001 0.85993 0.0
Co827 Co 0.68544 0.14408 0.86878 0.0
O828 O 0.64578 0.13934 0.87872 0.0
C829 C 0.58267 0.1771 0.90854 0.0
O830 O 0.58974 0.20352 0.90175 0.0
C831 C 0.69627 0.081 0.85787 0.0
O832 O 0.70907 0.08856 0.83443 0.0
O833 O 0.675 0.13734 0.82776 0.0
O834 O 0.63727 0.16367 0.82388 0.0
H835 H 0.76809 0.1807 0.81146 0.0
H836 H 0.60224 0.10438 0.88684 0.0
O837 O 0.59398 0.15687 0.89556 0.0
H838 H 0.57803 0.08968 0.78479 0.0
H839 H 0.5151 0.17894 0.83263 0.0
H840 H 0.616 0.21234 0.82546 0.0
H841 H 0.59251 0.13753 0.80369 0.0
H842 H 0.55283 0.15276 0.85587 0.0
O843 O 0.68696 0.10046 0.87408 0.0
H844 H 0.7176 0.1761 0.82512 0.0
H845 H 0.73866 0.11966 0.89134 0.0
H846 H 0.57876 0.23938 0.80195 0.0
H847 H 0.58651 0.05637 0.86907 0.0
H848 H 0.52792 0.22274 0.80519 0.0
H849 H 0.57506 0.04862 0.81759 0.0
O850 O 0.6364 0.19615 0.87327 0.0
H851 H 0.68192 0.12286 0.97323 0.0
H852 H 0.72216 0.18776 0.90111 0.0
H853 H 0.7342 0.19704 0.9519 0.0
H854 H 0.71408 0.16437 0.98836 0.0
H855 H 0.66991 0.11471 0.92229 0.0
H856 H 0.78941 0.1236 0.87846 0.0
H857 H 0.80437 0.15429 0.83822 0.0
O858 O 0.68223 0.18802 0.86397 0.0
C859 C 0.65681 0.15015 0.81278 0.0
C860 C 0.76185 0.1673 0.82906 0.0
C861 C 0.77382 0.13523 0.86666 0.0
N862 N 0.72532 0.14772 0.85903 0.0
C863 C 0.73333 0.16467 0.8369 0.0
C864 C 0.74509 0.13309 0.87386 0.0
C865 C 0.78219 0.15246 0.84408 0.0
C866 C 0.59642 0.1014 0.86455 0.0
N867 N 0.59852 0.12382 0.84631 0.0
C868 C 0.58785 0.07407 0.85456 0.0
C869 C 0.58156 0.0697 0.82565 0.0
C870 C 0.58321 0.09273 0.80724 0.0
C871 C 0.59141 0.11982 0.81808 0.0
C872 C 0.53707 0.18655 0.83091 0.0
C873 C 0.59386 0.205 0.82713 0.0
C874 C 0.55858 0.17172 0.84405 0.0
N875 N 0.58657 0.18094 0.84193 0.0
C876 C 0.57288 0.2204 0.81374 0.0
C877 C 0.5443 0.21102 0.81562 0.0
C878 C 0.6622 0.20514 0.86921 0.0
C879 C 0.6908 0.13722 0.95755 0.0
C880 C 0.71319 0.17355 0.91686 0.0
C881 C 0.72015 0.17886 0.94558 0.0
C882 C 0.70886 0.16053 0.96602 0.0
N883 N 0.6955 0.15061 0.90872 0.0
C884 C 0.68422 0.13262 0.92865 0.0
Co885 Co 0.3468 0.10923 0.42124 0.0
Co886 Co 0.38031 0.10423 0.35886 0.0
O887 O 0.34784 0.11569 0.38028 0.0
C888 C 0.28606 0.09203 0.39874 0.0
O889 O 0.29755 0.07786 0.37832 0.0
C890 C 0.35648 0.15303 0.32572 0.0
O891 O 0.33464 0.15572 0.34216 0.0
O892 O 0.40597 0.12959 0.38335 0.0
O893 O 0.39133 0.11392 0.42543 0.0
H894 H 0.47898 0.06932 0.34758 0.0
H895 H 0.31155 0.15336 0.39606 0.0
O896 O 0.30254 0.10462 0.41794 0.0
H897 H 0.37497 0.2038 0.46789 0.0
H898 H 0.30148 0.1134 0.51652 0.0
H899 H 0.37966 0.07552 0.46263 0.0
H900 H 0.37712 0.15199 0.46019 0.0
H901 H 0.3081 0.12648 0.46645 0.0
O902 O 0.37576 0.13593 0.33174 0.0
H903 H 0.43789 0.08375 0.37435 0.0
H904 H 0.39303 0.10136 0.29732 0.0
H905 H 0.37476 0.06306 0.51317 0.0
H906 H 0.3084 0.20505 0.40332 0.0
H907 H 0.33499 0.0817 0.54024 0.0
H908 H 0.34032 0.23059 0.43946 0.0
O909 O 0.35017 0.06779 0.41443 0.0
H910 H 0.29068 0.07377 0.30101 0.0
H911 H 0.38428 0.04519 0.33716 0.0
H912 H 0.35465 0.01237 0.3063 0.0
H913 H 0.3073 0.02638 0.28796 0.0
H914 H 0.32119 0.10612 0.33157 0.0
H915 H 0.43319 0.0867 0.26983 0.0
H916 H 0.4768 0.07029 0.29487 0.0
O917 O 0.38664 0.07214 0.38489 0.0
C918 C 0.41138 0.12402 0.40933 0.0
C919 C 0.46025 0.07647 0.3364 0.0
C920 C 0.43474 0.08634 0.29274 0.0
N921 N 0.4131 0.09375 0.33757 0.0
C922 C 0.43691 0.08484 0.3515 0.0
C923 C 0.41197 0.0948 0.30852 0.0
C924 C 0.45904 0.07711 0.3068 0.0
C925 C 0.32538 0.16431 0.41192 0.0
N926 N 0.34446 0.14972 0.4277 0.0
C927 C 0.32355 0.19358 0.4159 0.0
C928 C 0.34147 0.2079 0.43617 0.0
C929 C 0.36092 0.19286 0.45215 0.0
C930 C 0.36212 0.16359 0.44762 0.0
C931 C 0.31887 0.10519 0.50492 0.0
C932 C 0.36298 0.08444 0.47456 0.0
C933 C 0.32277 0.11255 0.47657 0.0
N934 N 0.34448 0.10201 0.46168 0.0
C935 C 0.36008 0.07704 0.50307 0.0
C936 C 0.33774 0.0874 0.51824 0.0
C937 C 0.37191 0.05812 0.40278 0.0
C938 C 0.31145 0.06756 0.30844 0.0
C939 C 0.36397 0.05186 0.329 0.0
C940 C 0.34713 0.03297 0.31164 0.0
C941 C 0.32068 0.04091 0.30128 0.0
N942 N 0.35526 0.07841 0.33526 0.0
C943 C 0.3291 0.08608 0.32553 0.0
Co944 Co 0.14085 0.41643 0.07996 0.0
Co945 Co 0.07651 0.39498 0.1066 0.0
O946 O 0.11839 0.39624 0.1089 0.0
C947 C 0.1799 0.37401 0.10592 0.0
O948 O 0.15992 0.36162 0.12127 0.0
C949 C 0.08976 0.41285 0.16869 0.0
O950 O 0.10498 0.43442 0.15838 0.0
O951 O 0.07728 0.4371 0.10631 0.0
O952 O 0.11062 0.44432 0.07397 0.0
H953 H 0.97652 0.37909 0.0621 0.0
H954 H 0.15657 0.41095 0.14199 0.0
O955 O 0.17343 0.3906 0.08566 0.0
H956 H 0.18969 0.50818 0.11715 0.0
H957 H 0.22905 0.45235 0.02787 0.0
H958 H 0.12409 0.44269 0.02536 0.0
H959 H 0.16118 0.47819 0.08233 0.0
H960 H 0.20363 0.43001 0.06756 0.0
O961 O 0.07606 0.39546 0.15103 0.0
H962 H 0.02784 0.37407 0.06474 0.0
H963 H 0.03453 0.42145 0.14225 0.0
H964 H 0.14869 0.46698 0.98664 0.0
H965 H 0.18321 0.44083 0.17752 0.0
H966 H 0.20178 0.47202 0.98759 0.0
H967 H 0.20129 0.48935 0.16494 0.0
O968 O 0.12226 0.39055 0.05039 0.0
H969 H 0.09683 0.30087 0.15079 0.0
H970 H 0.06079 0.34581 0.06415 0.0
H971 H 0.05989 0.2943 0.06642 0.0
H972 H 0.0777 0.27102 0.11002 0.0
H973 H 0.09741 0.35257 0.14795 0.0
H974 H 0.98317 0.42808 0.13948 0.0
H975 H 0.95354 0.40672 0.09931 0.0
O976 O 0.07679 0.39517 0.06208 0.0
C977 C 0.08992 0.45269 0.08814 0.0
C978 C 0.98907 0.38785 0.08015 0.0
C979 C 0.99279 0.41536 0.12348 0.0
N980 N 0.03469 0.3952 0.10501 0.0
C981 C 0.01846 0.38434 0.08228 0.0
C982 C 0.022 0.41093 0.12522 0.0
C983 C 0.9762 0.40351 0.1009 0.0
C984 C 0.1636 0.43218 0.13609 0.0
N985 N 0.15864 0.44199 0.10917 0.0
C986 C 0.17875 0.4491 0.15656 0.0
C987 C 0.18868 0.47642 0.14954 0.0
C988 C 0.18222 0.48693 0.12269 0.0
C989 C 0.16648 0.46959 0.10289 0.0
C990 C 0.20599 0.45084 0.02767 0.0
C991 C 0.14707 0.44539 0.02674 0.0
C992 C 0.19135 0.43792 0.05005 0.0
N993 N 0.16212 0.43549 0.04963 0.0
C994 C 0.16096 0.45898 1.00437 0.0
C995 C 0.19066 0.46174 1.00489 0.0
C996 C 0.09577 0.39043 0.04338 0.0
C997 C 0.08799 0.3107 0.13204 0.0
C998 C 0.06726 0.33669 0.08393 0.0
C999 C 0.06729 0.30702 0.08477 0.0
C1000 C 0.07741 0.29397 0.10914 0.0
N1001 N 0.07622 0.35319 0.10704 0.0
C1002 C 0.0876 0.34029 0.13045 0.0
Co1003 Co 0.17917 0.59179 0.86221 0.0
Co1004 Co 0.15269 0.6566 0.8734 0.0
O1005 O 0.15306 0.61622 0.87963 0.0
C1006 C 0.12238 0.56383 0.85228 0.0
O1007 O 0.1145 0.58785 0.8415 0.0
C1008 C 0.15954 0.67332 0.93727 0.0
O1009 O 0.18066 0.69164 0.93128 0.0
O1010 O 0.19478 0.66192 0.88103 0.0
O1011 O 0.21008 0.62195 0.8622 0.0
H1012 H 0.18545 0.75109 0.83348 0.0
H1013 H 0.14893 0.57147 0.91349 0.0
O1014 O 0.14811 0.56101 0.86092 0.0
H1015 H 0.25135 0.5751 0.94119 0.0
H1016 H 0.23745 0.50584 0.85831 0.0
H1017 H 0.21671 0.59627 0.81253 0.0
H1018 H 0.23583 0.58881 0.89299 0.0
H1019 H 0.19772 0.53328 0.87407 0.0
O1020 O 0.1458 0.65964 0.91673 0.0
H1021 H 0.18607 0.69913 0.84005 0.0
H1022 H 0.11742 0.70129 0.89669 0.0
H1023 H 0.25547 0.56864 0.79466 0.0
H1024 H 0.16366 0.55665 0.96162 0.0
H1025 H 0.26696 0.52369 0.81836 0.0
H1026 H 0.21515 0.55856 0.9758 0.0
O1027 O 0.16684 0.60438 0.82402 0.0
H1028 H 0.05226 0.6189 0.89165 0.0
H1029 H 0.1135 0.67635 0.82787 0.0
H1030 H 0.06184 0.66943 0.81664 0.0
H1031 H 0.03086 0.64056 0.84861 0.0
H1032 H 0.10408 0.62606 0.90188 0.0
H1033 H 0.11613 0.75332 0.89096 0.0
H1034 H 0.15028 0.77851 0.85907 0.0
O1035 O 0.15951 0.65104 0.82973 0.0
C1036 C 0.21435 0.64731 0.87127 0.0
C1037 C 0.17042 0.74035 0.84738 0.0
C1038 C 0.13153 0.74161 0.87967 0.0
N1039 N 0.15171 0.69731 0.86861 0.0
C1040 C 0.17064 0.71096 0.85111 0.0
C1041 C 0.13239 0.7122 0.88288 0.0
C1042 C 0.1507 0.75573 0.86177 0.0
C1043 C 0.17142 0.572 0.91932 0.0
N1044 N 0.19146 0.58056 0.90019 0.0
C1045 C 0.17961 0.56377 0.9467 0.0
C1046 C 0.20852 0.56485 0.95465 0.0
C1047 C 0.22883 0.57412 0.93524 0.0
C1048 C 0.21987 0.58202 0.908 0.0
C1049 C 0.23271 0.52541 0.84773 0.0
C1050 C 0.22074 0.57618 0.82225 0.0
C1051 C 0.21013 0.54099 0.85658 0.0
N1052 N 0.20521 0.56668 0.84476 0.0
C1053 C 0.24291 0.56072 0.81216 0.0
C1054 C 0.24929 0.53546 0.82542 0.0
C1055 C 0.16259 0.62881 0.81365 0.0
C1056 C 0.06553 0.63163 0.87759 0.0
C1057 C 0.10017 0.66371 0.84189 0.0
C1058 C 0.07091 0.65993 0.83546 0.0
C1059 C 0.05353 0.64375 0.85345 0.0
N1060 N 0.11179 0.65178 0.86561 0.0
C1061 C 0.09488 0.63589 0.88337 0.0
Co1062 Co 0.94999 0.67036 0.38636 0.0
Co1063 Co 0.88673 0.64051 0.40829 0.0
O1064 O 0.92825 0.64589 0.41196 0.0
C1065 C 0.98452 0.61931 0.38362 0.0
O1066 O 0.96267 0.60426 0.37203 0.0
C1067 C 0.89825 0.65473 0.47091 0.0
O1068 O 0.91407 0.67638 0.46152 0.0
O1069 O 0.88293 0.68258 0.4103 0.0
O1070 O 0.91828 0.69609 0.38156 0.0
H1071 H 0.78899 0.65941 0.3689 0.0
H1072 H 0.97642 0.65643 0.44233 0.0
O1073 O 0.98265 0.64536 0.39036 0.0
H1074 H 0.97678 0.76114 0.4405 0.0
H1075 H 0.0356 0.73169 0.35838 0.0
H1076 H 0.93678 0.69841 0.33172 0.0
H1077 H 0.9556 0.73245 0.40053 0.0
H1078 H 0.01049 0.69405 0.38585 0.0
O1079 O 0.88479 0.63806 0.45248 0.0
H1080 H 0.84156 0.666 0.37314 0.0
H1081 H 0.84346 0.60325 0.43733 0.0
H1082 H 0.96135 0.7354 0.30324 0.0
H1083 H 0.99781 0.68442 0.48303 0.0
H1084 H 0.01043 0.75346 0.31749 0.0
H1085 H 0.99829 0.7372 0.48225 0.0
O1086 O 0.93428 0.64797 0.35311 0.0
H1087 H 0.92833 0.54932 0.43808 0.0
H1088 H 0.86371 0.59374 0.36919 0.0
H1089 H 0.87249 0.54284 0.36395 0.0
H1090 H 0.90529 0.5204 0.39859 0.0
H1091 H 0.91948 0.60027 0.4421 0.0
H1092 H 0.79089 0.59613 0.434 0.0
H1093 H 0.76332 0.62426 0.3995 0.0
O1094 O 0.88798 0.64262 0.36391 0.0
C1095 C 0.89548 0.70075 0.39423 0.0
C1096 C 0.80077 0.64698 0.38397 0.0
C1097 C 0.80183 0.61149 0.42053 0.0
N1098 N 0.8455 0.63491 0.40534 0.0
C1099 C 0.83053 0.65057 0.3864 0.0
C1100 C 0.83157 0.61566 0.42238 0.0
C1101 C 0.78637 0.62727 0.40116 0.0
C1102 C 0.97651 0.67939 0.44187 0.0
N1103 N 0.96495 0.69276 0.41897 0.0
C1104 C 0.98858 0.69512 0.46501 0.0
C1105 C 0.98875 0.72473 0.46459 0.0
C1106 C 0.97662 0.73818 0.44129 0.0
C1107 C 0.96455 0.72177 0.41868 0.0
C1108 C 0.01408 0.72417 0.35213 0.0
C1109 C 0.95858 0.70534 0.33745 0.0
C1110 C 0.99979 0.70284 0.36756 0.0
N1111 N 0.97196 0.69459 0.36086 0.0
C1112 C 0.97233 0.72639 0.32128 0.0
C1113 C 1.00001 0.73632 0.32915 0.0
C1114 C 0.90813 0.64297 0.34561 0.0
C1115 C 0.91402 0.55886 0.42294 0.0
C1116 C 0.87784 0.58406 0.38436 0.0
C1117 C 0.88271 0.55522 0.38132 0.0
C1118 C 0.90102 0.54262 0.40073 0.0
N1119 N 0.89096 0.59989 0.40601 0.0
C1120 C 0.90876 0.58764 0.42522 0.0
Co1121 Co 0.90032 0.44151 0.86847 0.0
Co1122 Co 0.90132 0.37482 0.89586 0.0
O1123 O 0.91103 0.41559 0.89876 0.0
C1124 C 0.95477 0.46677 0.89732 0.0
O1125 O 0.95889 0.4434 0.91143 0.0
C1126 C 0.88234 0.38992 0.95507 0.0
O1127 O 0.86642 0.40759 0.94138 0.0
O1128 O 0.86071 0.38277 0.89083 0.0
O1129 O 0.86412 0.41757 0.85881 0.0
H1130 H 0.84972 0.28694 0.85384 0.0
H1131 H 0.90834 0.45914 0.92971 0.0
O1132 O 0.93548 0.46702 0.87762 0.0
H1133 H 0.81107 0.48315 0.90074 0.0
H1134 H 0.90594 0.53442 0.81607 0.0
H1135 H 0.87239 0.43341 0.81094 0.0
H1136 H 0.84457 0.4682 0.86515 0.0
H1137 H 0.90852 0.50455 0.85863 0.0
O1138 O 0.89779 0.37402 0.94011 0.0
H1139 H 0.86422 0.33811 0.85664 0.0
H1140 H 0.9149 0.32486 0.93117 0.0
H1141 H 0.8664 0.46337 0.76908 0.0
H1142 H 0.87666 0.47687 0.96557 0.0
H1143 H 0.884 0.51416 0.77111 0.0
H1144 H 0.82687 0.48754 0.95135 0.0
O1145 O 0.92165 0.41932 0.84138 0.0
H1146 H 0.99835 0.38148 0.94476 0.0
H1147 H 0.93994 0.3381 0.86498 0.0
H1148 H 0.98955 0.32437 0.87289 0.0
H1149 H 0.01906 0.34605 0.9131 0.0
H1150 H 0.9484 0.39395 0.93652 0.0
H1151 H 0.90075 0.27354 0.92932 0.0
H1152 H 0.86802 0.25426 0.89037 0.0
O1153 O 0.90427 0.37553 0.85151 0.0
C1154 C 0.84972 0.39799 0.8716 0.0
C1155 C 0.8641 0.29506 0.87084 0.0
C1156 C 0.8927 0.28755 0.91324 0.0
N1157 N 0.89062 0.33441 0.89387 0.0
C1158 C 0.87248 0.32401 0.87247 0.0
C1159 C 0.90058 0.31663 0.91421 0.0
C1160 C 0.87434 0.27675 0.89137 0.0
C1161 C 0.88766 0.46573 0.9229 0.0
N1162 N 0.87852 0.46266 0.89512 0.0
C1163 C 0.86948 0.47521 0.94349 0.0
C1164 C 0.84162 0.48121 0.93556 0.0
C1165 C 0.83274 0.47883 0.90714 0.0
C1166 C 0.8518 0.47018 0.88704 0.0
C1167 C 0.89808 0.51233 0.81497 0.0
C1168 C 0.87894 0.45571 0.81268 0.0
C1169 C 0.89978 0.49516 0.83898 0.0
N1170 N 0.89108 0.46693 0.83744 0.0
C1171 C 0.8758 0.47255 0.78863 0.0
C1172 C 0.88577 0.50098 0.78974 0.0
C1173 C 0.91365 0.39416 0.83334 0.0
C1174 C 0.98567 0.3718 0.92723 0.0
C1175 C 0.95274 0.34777 0.88239 0.0
C1176 C 0.98072 0.33972 0.88692 0.0
C1177 C 0.99726 0.35187 0.90951 0.0
N1178 N 0.94135 0.36689 0.90022 0.0
C1179 C 0.95745 0.37896 0.92233 0.0
Co1180 Co 0.08186 0.35133 0.38825 0.0
Co1181 Co 0.10358 0.41363 0.35737 0.0
O1182 O 0.102 0.37196 0.35803 0.0
C1183 C 0.12484 0.30976 0.36834 0.0
O1184 O 0.13394 0.32526 0.34702 0.0
C1185 C 0.08418 0.39982 0.2951 0.0
O1186 O 0.06274 0.38402 0.30492 0.0
O1187 O 0.06131 0.41298 0.35752 0.0
O1188 O 0.05433 0.38174 0.39239 0.0
H1189 H 0.07473 0.51017 0.38789 0.0
H1190 H 0.08717 0.32995 0.32828 0.0
O1191 O 0.10792 0.31929 0.3863 0.0
H1192 H 0.98689 0.308 0.35113 0.0
H1193 H 0.04087 0.2641 0.43763 0.0
H1194 H 0.05944 0.36812 0.44418 0.0
H1195 H 0.019 0.33547 0.38505 0.0
H1196 H 0.06397 0.29021 0.39863 0.0
O1197 O 0.10218 0.41248 0.31303 0.0
H1198 H 0.07719 0.45811 0.39131 0.0
H1199 H 0.13124 0.45766 0.32052 0.0
H1200 H 0.03603 0.34283 0.48357 0.0
H1201 H 0.05607 0.30265 0.29421 0.0
H1202 H 0.02668 0.29038 0.48055 0.0
H1203 H 1.00587 0.29065 0.30567 0.0
O1204 O 0.10799 0.37093 0.41693 0.0
H1205 H 0.19786 0.38306 0.324 0.0
H1206 H 0.15052 0.4458 0.39012 0.0
H1207 H 0.2032 0.44664 0.39036 0.0
H1208 H 0.2272 0.41512 0.35708 0.0
H1209 H 0.14521 0.38288 0.3246 0.0
H1210 H 0.12699 0.5091 0.31451 0.0
H1211 H 0.09946 0.53603 0.34901 0.0
O1212 O 0.1054 0.41573 0.40186 0.0
C1213 C 0.04617 0.4019 0.37693 0.0
C1214 C 0.08711 0.49879 0.37295 0.0
C1215 C 0.11659 0.49826 0.3319 0.0
N1216 N 0.10438 0.45483 0.35613 0.0
C1217 C 0.08883 0.46933 0.37496 0.0
C1218 C 0.11857 0.469 0.33512 0.0
C1219 C 0.10095 0.51328 0.35112 0.0
C1220 C 0.06565 0.32449 0.3341 0.0
N1221 N 0.05579 0.33258 0.35983 0.0
C1222 C 0.04787 0.30934 0.31432 0.0
C1223 C 0.01953 0.30289 0.32068 0.0
C1224 C 1.00902 0.31255 0.34619 0.0
C1225 C 0.02743 0.32789 0.36541 0.0
C1226 C 0.0449 0.28693 0.43929 0.0
C1227 C 0.05525 0.34537 0.44251 0.0
C1228 C 0.05805 0.30188 0.41724 0.0
N1229 N 0.06288 0.33082 0.41889 0.0
C1230 C 0.0421 0.33112 0.46499 0.0
C1231 C 0.03691 0.30169 0.46332 0.0
C1232 C 0.10981 0.39764 0.42191 0.0
C1233 C 0.18766 0.39691 0.33858 0.0
C1234 C 0.16084 0.43196 0.37567 0.0
C1235 C 0.19066 0.43257 0.37585 0.0
C1236 C 0.20411 0.41489 0.35716 0.0
N1237 N 0.14489 0.41433 0.35733 0.0
C1238 C 0.15788 0.39691 0.33898 0.0
Co1239 Co 0.86561 0.59195 0.17856 0.0
Co1240 Co 0.88918 0.65738 0.15895 0.0
O1241 O 0.88895 0.61658 0.15503 0.0
C1242 C 0.90816 0.54943 0.19134 0.0
O1243 O 0.90765 0.55708 0.21824 0.0
C1244 C 0.88131 0.67109 0.09525 0.0
O1245 O 0.86115 0.68808 0.10165 0.0
O1246 O 0.84682 0.65475 0.15233 0.0
O1247 O 0.8367 0.621 0.18392 0.0
H1248 H 0.85344 0.74955 0.19359 0.0
H1249 H 0.88135 0.5749 0.12024 0.0
O1250 O 0.89387 0.56257 0.1728 0.0
H1251 H 0.77615 0.56297 0.12063 0.0
H1252 H 0.81807 0.49811 0.2046 0.0
H1253 H 0.83656 0.59854 0.23328 0.0
H1254 H 0.8037 0.57819 0.16409 0.0
H1255 H 0.84742 0.53038 0.17549 0.0
O1256 O 0.89458 0.65851 0.11547 0.0
H1257 H 0.85468 0.69723 0.19001 0.0
H1258 H 0.92306 0.70544 0.133 0.0
H1259 H 0.80771 0.56654 0.26383 0.0
H1260 H 0.85462 0.55915 0.07638 0.0
H1261 H 0.79814 0.51593 0.24963 0.0
H1262 H 0.80155 0.5534 0.07639 0.0
O1263 O 0.88722 0.60804 0.21244 0.0
H1264 H 0.98725 0.62492 0.14388 0.0
H1265 H 0.93013 0.68833 0.19999 0.0
H1266 H 0.98181 0.68678 0.21093 0.0
H1267 H 0.01083 0.65478 0.18286 0.0
H1268 H 0.9362 0.62837 0.13272 0.0
H1269 H 0.92255 0.75784 0.13578 0.0
H1270 H 0.88756 0.78018 0.16631 0.0
O1271 O 0.88496 0.65471 0.20302 0.0
C1272 C 0.82885 0.63982 0.16661 0.0
C1273 C 0.86881 0.74007 0.18025 0.0
C1274 C 0.90759 0.74472 0.14779 0.0
N1275 N 0.88897 0.69844 0.16142 0.0
C1276 C 0.86962 0.7105 0.1782 0.0
C1277 C 0.90777 0.71509 0.14626 0.0
C1278 C 0.88795 0.75724 0.16492 0.0
C1279 C 0.85832 0.57211 0.12052 0.0
N1280 N 0.84416 0.57753 0.14479 0.0
C1281 C 0.84328 0.56328 0.09556 0.0
C1282 C 0.81353 0.56007 0.09554 0.0
C1283 C 0.79925 0.56541 0.12038 0.0
C1284 C 0.81499 0.57409 0.14493 0.0
C1285 C 0.82223 0.51992 0.21144 0.0
C1286 C 0.8327 0.57645 0.2271 0.0
C1287 C 0.83881 0.5384 0.19487 0.0
N1288 N 0.84354 0.56636 0.20259 0.0
C1289 C 0.81632 0.55845 0.24445 0.0
C1290 C 0.81099 0.53001 0.23646 0.0
C1291 C 0.88864 0.63405 0.22061 0.0
C1292 C 0.9752 0.6395 0.15588 0.0
C1293 C 0.94278 0.67492 0.18723 0.0
C1294 C 0.97199 0.674 0.19363 0.0
C1295 C 0.98826 0.65605 0.17788 0.0
N1296 N 0.93024 0.65878 0.16543 0.0
C1297 C 0.94614 0.64145 0.14968 0.0
Co1298 Co 0.91662 0.34221 0.61364 0.0
Co1299 Co 0.88254 0.3944 0.64583 0.0
O1300 O 0.89445 0.35571 0.64509 0.0
C1301 C 0.87784 0.2949 0.63253 0.0
O1302 O 0.8569 0.3121 0.63404 0.0
C1303 C 0.8942 0.37645 0.7086 0.0
O1304 O 0.89646 0.35023 0.69991 0.0
O1305 O 0.92339 0.40825 0.64373 0.0
O1306 O 0.93382 0.38148 0.60658 0.0
H1307 H 0.87041 0.49012 0.60382 0.0
H1308 H 0.92006 0.3165 0.67039 0.0
O1309 O 0.90094 0.30283 0.62076 0.0
H1310 H 0.01755 0.35449 0.65291 0.0
H1311 H 0.96736 0.26873 0.55888 0.0
H1312 H 0.93109 0.36478 0.55672 0.0
H1313 H 0.98048 0.35361 0.6144 0.0
H1314 H 0.94692 0.28922 0.60169 0.0
O1315 O 0.88803 0.39583 0.69036 0.0
H1316 H 0.89227 0.44423 0.60855 0.0
H1317 H 0.84799 0.42786 0.68469 0.0
H1318 H 0.95239 0.34559 0.51402 0.0
H1319 H 0.9566 0.31571 0.70872 0.0
H1320 H 0.97019 0.29695 0.5147 0.0
H1321 H 1.00526 0.33617 0.70057 0.0
O1322 O 0.88455 0.3494 0.5869 0.0
H1323 H 0.7986 0.33459 0.68285 0.0
H1324 H 0.82942 0.4077 0.61421 0.0
H1325 H 0.7787 0.39138 0.61525 0.0
H1326 H 0.76286 0.35466 0.64988 0.0
H1327 H 0.84895 0.35102 0.68071 0.0
H1328 H 0.82803 0.47513 0.68246 0.0
H1329 H 0.83827 0.50623 0.64121 0.0
O1330 O 0.87808 0.39392 0.60124 0.0
C1331 C 0.94012 0.40183 0.62412 0.0
C1332 C 0.86586 0.47698 0.62204 0.0
C1333 C 0.84205 0.46847 0.66611 0.0
N1334 N 0.87111 0.43322 0.64663 0.0
C1335 C 0.87804 0.4508 0.62468 0.0
C1336 C 0.8538 0.44192 0.66751 0.0
C1337 C 0.84778 0.48589 0.64294 0.0
C1338 C 0.94145 0.3246 0.66626 0.0
N1339 N 0.94784 0.33581 0.64039 0.0
C1340 C 0.9621 0.32404 0.6881 0.0
C1341 C 0.98955 0.33521 0.68336 0.0
C1342 C 0.99634 0.3455 0.6566 0.0
C1343 C 0.97522 0.34514 0.63499 0.0
C1344 C 0.95937 0.28982 0.55828 0.0
C1345 C 0.93935 0.34388 0.55758 0.0
C1346 C 0.94779 0.30156 0.58249 0.0
N1347 N 0.9375 0.32811 0.58181 0.0
C1348 C 0.95121 0.33303 0.53316 0.0
C1349 C 0.96106 0.3057 0.5335 0.0
C1350 C 0.87688 0.37436 0.58153 0.0
C1351 C 0.80518 0.35077 0.6678 0.0
C1352 C 0.8229 0.39162 0.62931 0.0
C1353 C 0.79403 0.38252 0.62982 0.0
C1354 C 0.78516 0.36196 0.64926 0.0
N1355 N 0.84252 0.38073 0.64772 0.0
C1356 C 0.83387 0.36043 0.66669 0.0
Co1357 Co 0.11119 0.63273 0.64699 0.0
Co1358 Co 0.17942 0.64032 0.62501 0.0
O1359 O 0.14058 0.62326 0.62081 0.0
C1360 C 0.0791 0.57862 0.65847 0.0
O1361 O 0.08786 0.58074 0.68524 0.0
C1362 C 0.16174 0.65232 0.56399 0.0
O1363 O 0.13991 0.66332 0.57588 0.0
O1364 O 0.16523 0.67932 0.62625 0.0
O1365 O 0.12848 0.67176 0.6546 0.0
H1366 H 0.25793 0.70633 0.66728 0.0
H1367 H 0.09302 0.60847 0.59069 0.0
O1368 O 0.09237 0.59371 0.64017 0.0
H1369 H 0.06193 0.70645 0.5889 0.0
H1370 H 0.01174 0.63854 0.68364 0.0
H1371 H 0.11406 0.65737 0.70495 0.0
H1372 H 0.08292 0.6872 0.63284 0.0
H1373 H 0.04655 0.6312 0.64667 0.0
O1374 O 0.18087 0.64191 0.58055 0.0
H1375 H 0.20904 0.68404 0.6631 0.0
H1376 H 0.23268 0.63316 0.59358 0.0
H1377 H 0.0799 0.66562 0.74201 0.0
H1378 H 0.06906 0.62579 0.54762 0.0
H1379 H 0.02833 0.65543 0.7319 0.0
H1380 H 0.0538 0.67539 0.54632 0.0
O1381 O 0.1347 0.61836 0.67874 0.0
H1382 H 0.19023 0.54249 0.58445 0.0
H1383 H 0.21942 0.60972 0.66229 0.0
H1384 H 0.23841 0.56199 0.66184 0.0
H1385 H 0.22392 0.52803 0.62255 0.0
H1386 H 0.17013 0.58971 0.58675 0.0
H1387 H 0.28185 0.65501 0.5969 0.0
H1388 H 0.29474 0.69184 0.63401 0.0
O1389 O 0.1777 0.6392 0.66953 0.0
C1390 C 0.14703 0.6883 0.64327 0.0
C1391 C 0.2526 0.69025 0.65108 0.0
C1392 C 0.26601 0.66148 0.61154 0.0
N1393 N 0.21809 0.65722 0.62822 0.0
C1394 C 0.22497 0.67749 0.64866 0.0
C1395 C 0.23814 0.64923 0.60972 0.0
C1396 C 0.27323 0.68213 0.63238 0.0
C1397 C 0.08509 0.62955 0.59102 0.0
N1398 N 0.08911 0.64661 0.61472 0.0
C1399 C 0.07194 0.63941 0.56629 0.0
C1400 C 0.06344 0.66722 0.56554 0.0
C1401 C 0.06779 0.6846 0.58958 0.0
C1402 C 0.08016 0.67371 0.61429 0.0
C1403 C 0.0341 0.64284 0.6884 0.0
C1404 C 0.09166 0.65273 0.70011 0.0
C1405 C 0.05399 0.63842 0.66758 0.0
N1406 N 0.0825 0.64226 0.67392 0.0
C1407 C 0.07236 0.65777 0.72125 0.0
C1408 C 0.04338 0.65229 0.71544 0.0
C1409 C 0.15951 0.62805 0.68709 0.0
C1410 C 0.19625 0.5569 0.6019 0.0
C1411 C 0.21247 0.59484 0.64551 0.0
C1412 C 0.22347 0.56791 0.64525 0.0
C1413 C 0.21534 0.54887 0.62321 0.0
N1414 N 0.19366 0.6025 0.62457 0.0
C1415 C 0.18524 0.58381 0.60313 0.0
Co1416 Co 0.88261 0.8733 0.67757 0.0
Co1417 Co 0.91023 0.85867 0.61212 0.0
O1418 O 0.88472 0.879 0.63624 0.0
C1419 C 0.82142 0.85814 0.65699 0.0
O1420 O 0.83244 0.84043 0.63926 0.0
C1421 C 0.90877 0.91702 0.58334 0.0
O1422 O 0.88776 0.92608 0.59816 0.0
O1423 O 0.94343 0.87036 0.63738 0.0
O1424 O 0.92683 0.8717 0.68164 0.0
H1425 H 0.99087 0.79501 0.59827 0.0
H1426 H 0.85093 0.92058 0.65373 0.0
O1427 O 0.8384 0.87349 0.67385 0.0
H1428 H 0.92322 0.9659 0.72059 0.0
H1429 H 0.8426 0.89119 0.77376 0.0
H1430 H 0.91198 0.83862 0.72052 0.0
H1431 H 0.92074 0.91394 0.71247 0.0
H1432 H 0.84707 0.89767 0.72206 0.0
O1433 O 0.91924 0.89323 0.58864 0.0
H1434 H 0.9527 0.81591 0.62487 0.0
H1435 H 0.92634 0.86005 0.55131 0.0
H1436 H 0.90846 0.83157 0.77221 0.0
H1437 H 0.85097 0.97198 0.66316 0.0
H1438 H 0.8735 0.85797 0.7992 0.0
H1439 H 0.88791 0.99535 0.69605 0.0
O1440 O 0.87892 0.83145 0.67328 0.0
H1441 H 0.81149 0.86582 0.56821 0.0
H1442 H 0.89391 0.80611 0.57812 0.0
H1443 H 0.85055 0.78732 0.55229 0.0
H1444 H 0.80843 0.81675 0.54811 0.0
H1445 H 0.85534 0.88413 0.59321 0.0
H1446 H 0.96566 0.84227 0.52509 0.0
H1447 H 0.99761 0.80806 0.54782 0.0
O1448 O 0.90215 0.82304 0.6334 0.0
C1449 C 0.94765 0.87187 0.66417 0.0
C1450 C 0.97655 0.80901 0.58771 0.0
C1451 C 0.96233 0.83517 0.54647 0.0
N1452 N 0.93675 0.83878 0.58945 0.0
C1453 C 0.95463 0.82066 0.60255 0.0
C1454 C 0.94016 0.84565 0.56163 0.0
C1455 C 0.98042 0.81644 0.55945 0.0
C1456 C 0.86671 0.93037 0.66853 0.0
N1457 N 0.88577 0.91426 0.68256 0.0
C1458 C 0.8669 0.95964 0.67349 0.0
C1459 C 0.88746 0.97262 0.69213 0.0
C1460 C 0.90727 0.95611 0.70589 0.0
C1461 C 0.90597 0.92673 0.70098 0.0
C1462 C 0.8579 0.87955 0.76225 0.0
C1463 C 0.89684 0.85021 0.73213 0.0
C1464 C 0.86045 0.88306 0.73296 0.0
N1465 N 0.87976 0.86848 0.7183 0.0
C1466 C 0.89489 0.84613 0.7614 0.0
C1467 C 0.87526 0.86092 0.77651 0.0
C1468 C 0.88856 0.81478 0.65506 0.0
C1469 C 0.82967 0.85274 0.56997 0.0
C1470 C 0.87638 0.81979 0.57529 0.0
C1471 C 0.85158 0.80874 0.561 0.0
C1472 C 0.82793 0.82518 0.55879 0.0
N1473 N 0.87784 0.84664 0.58689 0.0
C1474 C 0.85494 0.8632 0.58386 0.0
Co1475 Co 0.6592 0.34522 0.07951 0.0
Co1476 Co 0.5971 0.36695 0.10982 0.0
O1477 O 0.63898 0.36737 0.10766 0.0
C1478 C 0.68122 0.3257 0.13491 0.0
O1479 O 0.65556 0.32639 0.14515 0.0
C1480 C 0.61706 0.42926 0.1018 0.0
O1481 O 0.63495 0.4198 0.0835 0.0
O1482 O 0.59209 0.37007 0.06791 0.0
O1483 O 0.63239 0.35589 0.049 0.0
H1484 H 0.49667 0.3207 0.11403 0.0
H1485 H 0.69442 0.38626 0.1162 0.0
O1486 O 0.68615 0.33353 0.10968 0.0
H1487 H 0.70686 0.42005 0.01817 0.0
H1488 H 0.74548 0.30128 0.04116 0.0
H1489 H 0.64129 0.30814 0.0299 0.0
H1490 H 0.67631 0.37684 0.02744 0.0
H1491 H 0.7205 0.33448 0.07107 0.0
O1492 O 0.59958 0.41125 0.11376 0.0
H1493 H 0.5479 0.32263 0.12198 0.0
H1494 H 0.55446 0.40767 0.0918 0.0
H1495 H 0.6658 0.27632 0.9981 0.0
H1496 H 0.7265 0.42851 0.10768 0.0
H1497 H 0.71818 0.27215 1.00409 0.0
H1498 H 0.73229 0.4461 0.05844 0.0
O1499 O 0.6354 0.31023 0.08635 0.0
H1500 H 0.63867 0.4003 0.20481 0.0
H1501 H 0.57689 0.3258 0.15649 0.0
H1502 H 0.58366 0.32446 0.20792 0.0
H1503 H 0.61471 0.36192 0.23283 0.0
H1504 H 0.63123 0.40101 0.15307 0.0
H1505 H 0.50318 0.40541 0.08163 0.0
H1506 H 0.47357 0.36174 0.09263 0.0
O1507 O 0.59534 0.32301 0.10681 0.0
C1508 C 0.60735 0.36466 0.04696 0.0
C1509 C 0.50922 0.34018 0.1099 0.0
C1510 C 0.51288 0.38758 0.09164 0.0
N1511 N 0.55512 0.36637 0.11032 0.0
C1512 C 0.53872 0.34192 0.11543 0.0
C1513 C 0.54216 0.38897 0.09836 0.0
C1514 C 0.49629 0.36308 0.09768 0.0
C1515 C 0.69735 0.39335 0.09464 0.0
N1516 N 0.68353 0.37902 0.07235 0.0
C1517 C 0.71537 0.41744 0.08996 0.0
C1518 C 0.71865 0.42727 0.06233 0.0
C1519 C 0.70435 0.41267 0.03973 0.0
C1520 C 0.68692 0.38833 0.04514 0.0
C1521 C 0.72265 0.30293 0.0383 0.0
C1522 C 0.66425 0.30738 0.03191 0.0
C1523 C 0.70836 0.32168 0.05522 0.0
N1524 N 0.67943 0.32335 0.05225 0.0
C1525 C 0.67795 0.28899 0.01407 0.0
C1526 C 0.70731 0.28657 0.01753 0.0
C1527 C 0.61143 0.30404 0.0971 0.0
C1528 C 0.62443 0.38427 0.19433 0.0
C1529 C 0.58931 0.34302 0.16658 0.0
C1530 C 0.59358 0.34179 0.19607 0.0
C1531 C 0.61109 0.3627 0.21002 0.0
N1532 N 0.60167 0.36475 0.15124 0.0
C1533 C 0.61969 0.38478 0.16489 0.0
Co1534 Co 0.13278 0.13714 0.66121 0.0
Co1535 Co 0.09818 0.14085 0.59743 0.0
O1536 O 0.12854 0.12553 0.62107 0.0
C1537 C 0.19397 0.14992 0.64244 0.0
O1538 O 0.18325 0.16747 0.62405 0.0
C1539 C 0.10863 0.08575 0.56432 0.0
O1540 O 0.13288 0.08031 0.57724 0.0
O1541 O 0.06958 0.12247 0.62261 0.0
O1542 O 0.08844 0.13879 0.66438 0.0
H1543 H 1.00626 0.1884 0.58356 0.0
H1544 H 0.15865 0.08527 0.64088 0.0
O1545 O 0.17684 0.13558 0.65873 0.0
H1546 H 0.09235 0.05295 0.715 0.0
H1547 H 0.17629 0.13471 0.7602 0.0
H1548 H 0.1066 0.17984 0.69718 0.0
H1549 H 0.09903 0.1039 0.70363 0.0
H1550 H 0.16958 0.11962 0.70991 0.0
O1551 O 0.09442 0.10637 0.57235 0.0
H1552 H 0.04658 0.17104 0.61097 0.0
H1553 H 0.08233 0.14057 0.53547 0.0
H1554 H 0.11236 0.19541 0.74741 0.0
H1555 H 0.1524 0.03415 0.65121 0.0
H1556 H 0.14744 0.17278 0.77926 0.0
H1557 H 0.11887 0.01763 0.68862 0.0
O1558 O 0.13668 0.17782 0.65023 0.0
H1559 H 0.19598 0.15357 0.55582 0.0
H1560 H 0.10262 0.19491 0.56369 0.0
H1561 H 0.14116 0.22188 0.54022 0.0
H1562 H 0.18865 0.20163 0.53666 0.0
H1563 H 0.15699 0.12734 0.57932 0.0
H1564 H 0.04121 0.15538 0.50742 0.0
H1565 H 1.00276 0.18045 0.53107 0.0
O1566 O 0.09914 0.17668 0.62059 0.0
C1567 C 0.06685 0.12877 0.64871 0.0
C1568 C 0.0226 0.17774 0.57267 0.0
C1569 C 0.04231 0.1595 0.52998 0.0
N1570 N 0.06705 0.15511 0.57483 0.0
C1571 C 0.04572 0.16799 0.58818 0.0
C1572 C 0.0655 0.15074 0.54608 0.0
C1573 C 0.02082 0.17335 0.54333 0.0
C1574 C 0.14427 0.07825 0.65727 0.0
N1575 N 0.12928 0.09747 0.67167 0.0
C1576 C 0.14078 0.04925 0.66306 0.0
C1577 C 0.12197 0.04004 0.68395 0.0
C1578 C 0.107 0.05985 0.69876 0.0
C1579 C 0.11088 0.08865 0.69223 0.0
C1580 C 0.16091 0.1447 0.74654 0.0
C1581 C 0.12176 0.1698 0.711 0.0
C1582 C 0.1571 0.13631 0.71805 0.0
N1583 N 0.13761 0.14875 0.70075 0.0
C1584 C 0.12499 0.17875 0.73937 0.0
C1585 C 0.1447 0.16606 0.75723 0.0
C1586 C 0.11961 0.19036 0.63386 0.0
C1587 C 0.17542 0.16271 0.55735 0.0
C1588 C 0.12278 0.18543 0.56195 0.0
C1589 C 0.14473 0.20102 0.54863 0.0
C1590 C 0.17134 0.1897 0.5467 0.0
N1591 N 0.12696 0.1592 0.57315 0.0
C1592 C 0.15289 0.14769 0.57042 0.0
Co1593 Co 0.35357 0.65568 0.11602 0.0
Co1594 Co 0.4206 0.63783 0.13483 0.0
O1595 O 0.37924 0.63155 0.13714 0.0
C1596 C 0.31329 0.66828 0.16028 0.0
O1597 O 0.32561 0.69393 0.16314 0.0
C1598 C 0.40695 0.57478 0.12269 0.0
O1599 O 0.38803 0.58363 0.10421 0.0
O1600 O 0.41748 0.63581 0.09292 0.0
O1601 O 0.38145 0.66375 0.08532 0.0
H1602 H 0.51609 0.69384 0.1403 0.0
H1603 H 0.32978 0.59833 0.13226 0.0
O1604 O 0.32527 0.64913 0.14634 0.0
H1605 H 0.31949 0.60103 0.02769 0.0
H1606 H 0.25785 0.68199 0.07571 0.0
H1607 H 0.35953 0.71307 0.09006 0.0
H1608 H 0.342 0.642 0.0545 0.0
H1609 H 0.29125 0.6508 0.09958 0.0
O1610 O 0.4238 0.5936 0.13587 0.0
H1611 H 0.46777 0.68176 0.15557 0.0
H1612 H 0.46202 0.60846 0.10183 0.0
H1613 H 0.32666 0.7453 0.0671 0.0
H1614 H 0.30674 0.55695 0.10616 0.0
H1615 H 0.27543 0.72975 0.05946 0.0
H1616 H 0.30127 0.55837 0.05348 0.0
O1617 O 0.37074 0.68873 0.137 0.0
H1618 H 0.4147 0.59609 0.23344 0.0
H1619 H 0.43101 0.68489 0.18089 0.0
H1620 H 0.43452 0.68599 0.23228 0.0
H1621 H 0.42681 0.64147 0.25944 0.0
H1622 H 0.41084 0.59541 0.18194 0.0
H1623 H 0.50972 0.6214 0.08409 0.0
H1624 H 0.5372 0.6644 0.10327 0.0
O1625 O 0.41733 0.68224 0.13271 0.0
C1626 C 0.40417 0.65284 0.07754 0.0
C1627 C 0.50444 0.67487 0.13199 0.0
C1628 C 0.50087 0.6343 0.10044 0.0
N1629 N 0.46184 0.64362 0.13067 0.0
C1630 C 0.47699 0.66735 0.14124 0.0
C1631 C 0.47392 0.62685 0.11096 0.0
C1632 C 0.51622 0.65847 0.11108 0.0
C1633 C 0.32746 0.59906 0.10935 0.0
N1634 N 0.33721 0.62261 0.09498 0.0
C1635 C 0.31449 0.57553 0.09468 0.0
C1636 C 0.31156 0.57624 0.06513 0.0
C1637 C 0.32181 0.60019 0.05061 0.0
C1638 C 0.33472 0.62327 0.06594 0.0
C1639 C 0.28015 0.68898 0.07878 0.0
C1640 C 0.33726 0.70618 0.08718 0.0
C1641 C 0.29922 0.67136 0.09222 0.0
N1642 N 0.32743 0.68001 0.09628 0.0
C1643 C 0.31873 0.72452 0.07401 0.0
C1644 C 0.29001 0.71578 0.06973 0.0
C1645 C 0.3964 0.69858 0.13661 0.0
C1646 C 0.4191 0.61553 0.22183 0.0
C1647 C 0.42849 0.66487 0.19148 0.0
C1648 C 0.43014 0.66587 0.22118 0.0
C1649 C 0.42572 0.64096 0.23642 0.0
N1650 N 0.42339 0.63959 0.17686 0.0
C1651 C 0.41761 0.6153 0.19211 0.0
Co1652 Co 0.84659 0.09572 0.39109 0.0
Co1653 Co 0.83529 0.15275 0.43537 0.0
O1654 O 0.85404 0.13531 0.40365 0.0
C1655 C 0.91092 0.10353 0.4009 0.0
O1656 O 0.90525 0.11635 0.42476 0.0
C1657 C 0.81932 0.18609 0.38594 0.0
O1658 O 0.8159 0.16229 0.37123 0.0
O1659 O 0.79758 0.13698 0.42269 0.0
O1660 O 0.80294 0.09742 0.39714 0.0
H1661 H 0.76543 0.15317 0.51398 0.0
H1662 H 0.87918 0.13582 0.35425 0.0
O1663 O 0.89007 0.09347 0.38453 0.0
H1664 H 0.79322 0.10365 0.29714 0.0
H1665 H 0.85338 0.01287 0.32366 0.0
H1666 H 0.81235 0.04608 0.41246 0.0
H1667 H 0.80136 0.08517 0.3454 0.0
H1668 H 0.86609 0.0613 0.34248 0.0
O1669 O 0.82861 0.18638 0.41162 0.0
H1670 H 0.79687 0.13098 0.48037 0.0
H1671 H 0.83133 0.2125 0.45639 0.0
H1672 H 0.80042 0.99695 0.39531 0.0
H1673 H 0.87215 0.15446 0.3059 0.0
H1674 H 0.82058 0.98035 0.35022 0.0
H1675 H 0.82881 0.13849 0.27705 0.0
O1676 O 0.85259 0.08192 0.43067 0.0
H1677 H 0.92976 0.20734 0.42501 0.0
H1678 H 0.86654 0.15545 0.4913 0.0
H1679 H 0.91332 0.17647 0.5089 0.0
H1680 H 0.94506 0.20293 0.47572 0.0
H1681 H 0.88299 0.18555 0.40822 0.0
H1682 H 0.79798 0.23552 0.48743 0.0
H1683 H 0.76482 0.20583 0.51669 0.0
O1684 O 0.84127 0.11868 0.4586 0.0
C1685 C 0.78718 0.11539 0.40908 0.0
C1686 C 0.77976 0.16634 0.50133 0.0
C1687 C 0.79792 0.21254 0.48633 0.0
N1688 N 0.81607 0.17036 0.46638 0.0
C1689 C 0.79811 0.15388 0.48266 0.0
C1690 C 0.81679 0.19935 0.46876 0.0
C1691 C 0.77933 0.19587 0.50274 0.0
C1692 C 0.86055 0.12838 0.34165 0.0
N1693 N 0.84086 0.10924 0.35258 0.0
C1694 C 0.85656 0.13917 0.31436 0.0
C1695 C 0.83221 0.13026 0.29821 0.0
C1696 C 0.81222 0.11073 0.30948 0.0
C1697 C 0.8169 0.10041 0.33687 0.0
C1698 C 0.84454 0.01989 0.34334 0.0
C1699 C 0.82173 0.03873 0.3932 0.0
C1700 C 0.85164 0.04726 0.35407 0.0
N1701 N 0.83972 0.05656 0.37835 0.0
C1702 C 0.81477 0.01096 0.38353 0.0
C1703 C 0.82611 1.00162 0.35828 0.0
C1704 C 0.84825 0.09319 0.4548 0.0
C1705 C 0.91602 0.19598 0.4397 0.0
C1706 C 0.88038 0.16674 0.4767 0.0
C1707 C 0.90679 0.17865 0.4868 0.0
C1708 C 0.92463 0.19345 0.46815 0.0
N1709 N 0.87204 0.16942 0.44881 0.0
C1710 C 0.8895 0.1837 0.43033 0.0
Co1711 Co 0.36432 0.41957 0.92345 0.0
Co1712 Co 0.38786 0.40122 0.85762 0.0
O1713 O 0.38818 0.39797 0.89911 0.0
C1714 C 0.41956 0.41446 0.95884 0.0
O1715 O 0.43176 0.39893 0.9399 0.0
C1716 C 0.37221 0.33894 0.86767 0.0
O1717 O 0.35234 0.3487 0.88349 0.0
O1718 O 0.34533 0.39693 0.85444 0.0
O1719 O 0.33226 0.41663 0.89492 0.0
H1720 H 0.35733 0.4386 0.76248 0.0
H1721 H 0.38979 0.36569 0.94293 0.0
O1722 O 0.39495 0.42377 0.95401 0.0
H1723 H 0.28601 0.34887 0.95254 0.0
H1724 H 0.32265 0.448 0.01588 0.0
H1725 H 0.32664 0.46719 0.91337 0.0
H1726 H 0.30628 0.39567 0.93818 0.0
H1727 H 0.35278 0.42053 0.98535 0.0
O1728 O 0.38894 0.35712 0.85486 0.0
H1729 H 0.35739 0.43505 0.81481 0.0
H1730 H 0.41862 0.37216 0.81235 0.0
H1731 H 0.29646 0.49563 0.94328 0.0
H1732 H 0.37072 0.31923 0.95902 0.0
H1733 H 0.29398 0.48589 0.99496 0.0
H1734 H 0.31835 0.31014 0.96314 0.0
O1735 O 0.37933 0.45566 0.90648 0.0
H1736 H 0.48562 0.3734 0.88923 0.0
H1737 H 0.43169 0.44213 0.83407 0.0
H1738 H 0.48434 0.44767 0.83703 0.0
H1739 H 0.51164 0.41309 0.8647 0.0
H1740 H 0.43292 0.36888 0.886 0.0
H1741 H 0.41903 0.37478 0.75996 0.0
H1742 H 0.38831 0.40829 0.73471 0.0
O1743 O 0.38619 0.44551 0.86045 0.0
C1744 C 0.32633 0.40585 0.87047 0.0
C1745 C 0.37088 0.42399 0.77324 0.0
C1746 C 0.40548 0.38814 0.77182 0.0
N1747 N 0.38817 0.40361 0.81656 0.0
C1748 C 0.37108 0.42197 0.80286 0.0
C1749 C 0.40511 0.38669 0.80146 0.0
C1750 C 0.38825 0.40695 0.75767 0.0
C1751 C 0.36719 0.36266 0.94582 0.0
N1752 N 0.34934 0.38388 0.9397 0.0
C1753 C 0.35641 0.33597 0.95455 0.0
C1754 C 0.32702 0.33082 0.9567 0.0
C1755 C 0.30888 0.3525 0.95068 0.0
C1756 C 0.3205 0.37904 0.94241 0.0
C1757 C 0.32328 0.4524 0.99347 0.0
C1758 C 0.3257 0.46285 0.93586 0.0
C1759 C 0.34023 0.43674 0.97603 0.0
N1760 N 0.34083 0.44166 0.94751 0.0
C1761 C 0.30861 0.47906 0.95269 0.0
C1762 C 0.30728 0.47362 0.98169 0.0
C1763 C 0.38408 0.46368 0.8811 0.0
C1764 C 0.47395 0.3886 0.8771 0.0
C1765 C 0.44341 0.42716 0.84637 0.0
C1766 C 0.47323 0.43032 0.84786 0.0
C1767 C 0.48854 0.41088 0.86335 0.0
N1768 N 0.42926 0.40524 0.85992 0.0
C1769 C 0.44411 0.3861 0.87514 0.0
Co1770 Co 0.16335 0.91923 0.40019 0.0
Co1771 Co 0.17977 0.8584 0.43629 0.0
O1772 O 0.15857 0.87852 0.40711 0.0
C1773 C 0.10038 0.90791 0.41143 0.0
O1774 O 0.10899 0.89113 0.43166 0.0
C1775 C 0.19747 0.83437 0.38227 0.0
O1776 O 0.19919 0.86017 0.37201 0.0
O1777 O 0.21652 0.87894 0.42862 0.0
O1778 O 0.20725 0.91761 0.40341 0.0
H1779 H 0.25185 0.85 0.51621 0.0
H1780 H 0.12777 0.88217 0.36023 0.0
O1781 O 0.11922 0.92149 0.39645 0.0
H1782 H 0.20545 0.92426 0.30285 0.0
H1783 H 0.15422 1.00805 0.34318 0.0
H1784 H 0.19851 0.96606 0.42782 0.0
H1785 H 0.20234 0.93711 0.35358 0.0
H1786 H 0.13966 0.95891 0.35731 0.0
O1787 O 0.18883 0.82959 0.40729 0.0
H1788 H 0.21871 0.87535 0.48531 0.0
H1789 H 0.1864 0.797 0.44788 0.0
H1790 H 0.21077 0.01623 0.41635 0.0
H1791 H 0.1298 0.86903 0.30947 0.0
H1792 H 0.18908 0.03683 0.37309 0.0
H1793 H 0.16894 0.89003 0.28046 0.0
O1794 O 0.16136 0.9281 0.44162 0.0
H1795 H 0.08904 0.79996 0.41158 0.0
H1796 H 0.14806 0.8467 0.48903 0.0
H1797 H 0.10181 0.82205 0.5 0.0
H1798 H 0.07186 0.79868 0.46103 0.0
H1799 H 0.13504 0.82544 0.40151 0.0
H1800 H 0.22059 0.77102 0.47698 0.0
H1801 H 0.25385 0.79758 0.51126 0.0
O1802 O 0.17166 0.88789 0.46472 0.0
C1803 C 0.22481 0.90119 0.41567 0.0
C1804 C 0.23757 0.83821 0.50125 0.0
C1805 C 0.22011 0.7939 0.47915 0.0
N1806 N 0.2006 0.8377 0.46477 0.0
C1807 C 0.21838 0.8524 0.48403 0.0
C1808 C 0.20071 0.80873 0.4628 0.0
C1809 C 0.23879 0.80882 0.49836 0.0
C1810 C 0.14466 0.89167 0.34766 0.0
N1811 N 0.16487 0.91044 0.35985 0.0
C1812 C 0.14578 0.88404 0.31896 0.0
C1813 C 0.16778 0.89579 0.30271 0.0
C1814 C 0.18828 0.91498 0.31526 0.0
C1815 C 0.18649 0.92207 0.34403 0.0
C1816 C 0.16292 0.99928 0.36247 0.0
C1817 C 0.18789 0.97549 0.40984 0.0
C1818 C 0.15513 0.97147 0.37038 0.0
N1819 N 0.1685 0.95959 0.39315 0.0
C1820 C 0.19514 1.00378 0.40331 0.0
C1821 C 0.18286 0.01547 0.37916 0.0
C1822 C 0.16533 0.91386 0.46416 0.0
C1823 C 0.10183 0.81021 0.42871 0.0
C1824 C 0.13515 0.83651 0.47202 0.0
C1825 C 0.10901 0.82258 0.47834 0.0
C1826 C 0.09223 0.80944 0.45647 0.0
N1827 N 0.14429 0.83738 0.44472 0.0
C1828 C 0.12802 0.82444 0.42317 0.0
Co1829 Co 0.67394 0.61287 0.91266 0.0
Co1830 Co 0.66521 0.64376 0.84854 0.0
O1831 O 0.6562 0.6414 0.88903 0.0
C1832 C 0.61754 0.62154 0.94303 0.0
O1833 O 0.61012 0.64377 0.92854 0.0
C1834 C 0.67473 0.7054 0.86778 0.0
O1835 O 0.69051 0.69563 0.88849 0.0
O1836 O 0.70637 0.65036 0.8591 0.0
O1837 O 0.70861 0.61429 0.88911 0.0
H1838 H 0.72011 0.62148 0.76188 0.0
H1839 H 0.65749 0.66962 0.93407 0.0
O1840 O 0.64028 0.60928 0.93775 0.0
H1841 H 0.75653 0.66065 0.96914 0.0
H1842 H 0.69285 0.56122 1.00304 0.0
H1843 H 0.70783 0.56277 0.9 0.0
H1844 H 0.73131 0.62174 0.94166 0.0
H1845 H 0.67562 0.59976 0.9743 0.0
O1846 O 0.66187 0.68747 0.85012 0.0
H1847 H 0.70753 0.61792 0.81238 0.0
H1848 H 0.64291 0.67641 0.79956 0.0
H1849 H 0.72741 0.52454 0.92852 0.0
H1850 H 0.68252 0.70962 0.96001 0.0
H1851 H 0.71979 0.52339 0.98073 0.0
H1852 H 0.73243 0.70534 0.9779 0.0
O1853 O 0.6557 0.58264 0.88783 0.0
H1854 H 0.56193 0.66058 0.85971 0.0
H1855 H 0.63052 0.60609 0.8074 0.0
H1856 H 0.57883 0.59743 0.79678 0.0
H1857 H 0.54406 0.62467 0.82305 0.0
H1858 H 0.61355 0.66867 0.86925 0.0
H1859 H 0.65494 0.68088 0.749 0.0
H1860 H 0.69372 0.65317 0.72984 0.0
O1861 O 0.66895 0.59957 0.84575 0.0
C1862 C 0.72038 0.63467 0.87544 0.0
C1863 C 0.70311 0.63359 0.76995 0.0
C1864 C 0.66656 0.66696 0.76273 0.0
N1865 N 0.67439 0.64676 0.80877 0.0
C1866 C 0.69584 0.63158 0.79848 0.0
C1867 C 0.65989 0.6644 0.79137 0.0
C1868 C 0.68831 0.65139 0.75199 0.0
C1869 C 0.67898 0.66725 0.94195 0.0
N1870 N 0.69245 0.64284 0.93682 0.0
C1871 C 0.6932 0.69018 0.95649 0.0
C1872 C 0.7212 0.68778 0.9665 0.0
C1873 C 0.73467 0.66268 0.96172 0.0
C1874 C 0.72006 0.64051 0.94642 0.0
C1875 C 0.69685 0.5615 0.98064 0.0
C1876 C 0.70501 0.5628 0.9227 0.0
C1877 C 0.68673 0.58326 0.9641 0.0
N1878 N 0.69067 0.58368 0.93547 0.0
C1879 C 0.71599 0.54093 0.93875 0.0
C1880 C 0.71174 0.54028 0.96795 0.0
C1881 C 0.66135 0.57844 0.86191 0.0
C1882 C 0.57667 0.64862 0.84787 0.0
C1883 C 0.61547 0.61811 0.81879 0.0
C1884 C 0.58626 0.61314 0.81268 0.0
C1885 C 0.56676 0.62847 0.82742 0.0
N1886 N 0.62493 0.63793 0.83885 0.0
C1887 C 0.60599 0.65316 0.85324 0.0
Co1888 Co 0.62271 0.91596 0.86257 0.0
Co1889 Co 0.68986 0.893 0.87113 0.0
O1890 O 0.64973 0.89167 0.88117 0.0
C1891 C 0.59989 0.90702 0.92196 0.0
O1892 O 0.62174 0.89306 0.93099 0.0
C1893 C 0.67123 0.83138 0.85999 0.0
O1894 O 0.65117 0.84185 0.84395 0.0
O1895 O 0.67962 0.88809 0.83 0.0
O1896 O 0.64425 0.91716 0.82683 0.0
H1897 H 0.77538 0.9261 0.81599 0.0
H1898 H 0.60247 0.86127 0.88927 0.0
O1899 O 0.599 0.91711 0.897 0.0
H1900 H 0.58024 0.84865 0.787 0.0
H1901 H 0.52508 0.94658 0.83467 0.0
H1902 H 0.62854 0.96805 0.82756 0.0
H1903 H 0.59608 0.89586 0.80671 0.0
H1904 H 0.55918 0.91623 0.8584 0.0
O1905 O 0.68906 0.8489 0.87367 0.0
H1906 H 0.72483 0.92499 0.82946 0.0
H1907 H 0.74018 0.86246 0.89164 0.0
H1908 H 0.59498 0.9992 0.80383 0.0
H1909 H 0.58178 0.81525 0.87153 0.0
H1910 H 0.54266 0.98855 0.80727 0.0
H1911 H 0.57184 0.80812 0.81971 0.0
O1912 O 0.64579 0.95026 0.87647 0.0
H1913 H 0.68445 0.86663 0.9741 0.0
H1914 H 0.72927 0.93274 0.90556 0.0
H1915 H 0.74166 0.93852 0.95675 0.0
H1916 H 0.71918 0.90528 0.9914 0.0
H1917 H 0.67244 0.86185 0.92276 0.0
H1918 H 0.79088 0.86273 0.87878 0.0
H1919 H 0.80875 0.89476 0.84072 0.0
O1920 O 0.69033 0.93736 0.86796 0.0
C1921 C 0.66119 0.90076 0.81544 0.0
C1922 C 0.76787 0.91213 0.83267 0.0
C1923 C 0.77656 0.87652 0.86789 0.0
N1924 N 0.72973 0.89387 0.86145 0.0
C1925 C 0.73932 0.91149 0.84045 0.0
C1926 C 0.74786 0.87643 0.87506 0.0
C1927 C 0.78658 0.89451 0.84654 0.0
C1928 C 0.59627 0.85927 0.86714 0.0
N1929 N 0.60103 0.88151 0.84902 0.0
C1930 C 0.58515 0.83277 0.85703 0.0
C1931 C 0.57976 0.82872 0.82797 0.0
C1932 C 0.58458 0.85141 0.80963 0.0
C1933 C 0.594 0.87807 0.82079 0.0
C1934 C 0.54766 0.95157 0.83309 0.0
C1935 C 0.60583 0.96328 0.82924 0.0
C1936 C 0.56713 0.93439 0.84645 0.0
N1937 N 0.59584 0.9402 0.84421 0.0
C1938 C 0.58692 0.98103 0.81574 0.0
C1939 C 0.55761 0.97505 0.81767 0.0
C1940 C 0.67234 0.95663 0.87313 0.0
C1941 C 0.69437 0.88124 0.95922 0.0
C1942 C 0.71929 0.91831 0.92054 0.0
C1943 C 0.72646 0.92162 0.94948 0.0
C1944 C 0.71385 0.90295 0.96891 0.0
N1945 N 0.70013 0.897 0.91124 0.0
C1946 C 0.68774 0.87858 0.93013 0.0
Co1947 Co 0.59852 0.11857 0.41781 0.0
Co1948 Co 0.6249 0.1056 0.35211 0.0
O1949 O 0.59907 0.12518 0.37659 0.0
C1950 C 0.53476 0.10544 0.42528 0.0
O1951 O 0.542 0.08187 0.43757 0.0
C1952 C 0.65087 0.15084 0.31752 0.0
O1953 O 0.67503 0.14608 0.33092 0.0
O1954 O 0.65718 0.12223 0.37526 0.0
O1955 O 0.64272 0.11486 0.41988 0.0
H1956 H 0.71426 0.05576 0.33195 0.0
H1957 H 0.5726 0.16947 0.39393 0.0
O1958 O 0.55464 0.1224 0.4155 0.0
H1959 H 0.64551 0.20637 0.46482 0.0
H1960 H 0.55783 0.12726 0.51504 0.0
H1961 H 0.62725 0.07962 0.45721 0.0
H1962 H 0.63735 0.15469 0.4562 0.0
H1963 H 0.56612 0.14204 0.46564 0.0
O1964 O 0.62733 0.13918 0.32612 0.0
H1965 H 0.67849 0.07586 0.36231 0.0
H1966 H 0.62813 0.0955 0.28932 0.0
H1967 H 0.62127 0.06575 0.50718 0.0
H1968 H 0.57987 0.22132 0.40203 0.0
H1969 H 0.58577 0.0891 0.53625 0.0
H1970 H 0.61658 0.24005 0.43769 0.0
O1971 O 0.59293 0.07707 0.41101 0.0
H1972 H 0.53141 0.10803 0.29722 0.0
H1973 H 0.60613 0.04665 0.33263 0.0
H1974 H 0.56456 0.02526 0.30513 0.0
H1975 H 0.52703 0.05607 0.28691 0.0
H1976 H 0.57326 0.12852 0.32518 0.0
H1977 H 0.6628 0.07449 0.25822 0.0
H1978 H 0.70645 0.05474 0.27946 0.0
O1979 O 0.62468 0.07195 0.37719 0.0
C1980 C 0.66259 0.11916 0.40161 0.0
C1981 C 0.69529 0.06422 0.32242 0.0
C1982 C 0.66635 0.07461 0.28107 0.0
N1983 N 0.6511 0.08679 0.32774 0.0
C1984 C 0.67492 0.07566 0.33955 0.0
C1985 C 0.64667 0.08628 0.29884 0.0
C1986 C 0.69088 0.06363 0.29299 0.0
C1987 C 0.5885 0.17749 0.40958 0.0
N1988 N 0.60444 0.15914 0.42467 0.0
C1989 C 0.59257 0.20685 0.41403 0.0
C1990 C 0.61318 0.21735 0.43403 0.0
C1991 C 0.62943 0.19846 0.44926 0.0
C1992 C 0.62476 0.16924 0.44424 0.0
C1993 C 0.57331 0.11687 0.50256 0.0
C1994 C 0.6125 0.0906 0.46997 0.0
C1995 C 0.57816 0.12522 0.47462 0.0
N1996 N 0.59689 0.11148 0.4584 0.0
C1997 C 0.60898 0.08243 0.49819 0.0
C1998 C 0.58901 0.09547 0.51446 0.0
C1999 C 0.61039 0.06246 0.39794 0.0
C2000 C 0.54772 0.09442 0.30492 0.0
C2001 C 0.58972 0.06017 0.32508 0.0
C2002 C 0.56629 0.04795 0.3094 0.0
C2003 C 0.54522 0.06525 0.2992 0.0
N2004 N 0.59219 0.08886 0.33033 0.0
C2005 C 0.57148 0.10591 0.32068 0.0
Co2006 Co 0.43692 0.13053 0.85981 0.0
Co2007 Co 0.37023 0.15076 0.87223 0.0
O2008 O 0.41143 0.15581 0.87787 0.0
C2009 C 0.46679 0.14877 0.91593 0.0
O2010 O 0.44497 0.16225 0.92478 0.0
C2011 C 0.38207 0.21327 0.85786 0.0
O2012 O 0.39971 0.20429 0.83908 0.0
O2013 O 0.37384 0.15231 0.83028 0.0
O2014 O 0.41002 0.12407 0.82649 0.0
H2015 H 0.27862 0.10782 0.82817 0.0
H2016 H 0.45583 0.18997 0.87766 0.0
O2017 O 0.46552 0.1355 0.89217 0.0
H2018 H 0.46831 0.1857 0.77413 0.0
H2019 H 0.53267 0.0995 0.83242 0.0
H2020 H 0.42918 0.07479 0.82922 0.0
H2021 H 0.45549 0.14219 0.80065 0.0
H2022 H 0.49967 0.13169 0.85303 0.0
O2023 O 0.36799 0.19471 0.87285 0.0
H2024 H 0.331 0.11374 0.83564 0.0
H2025 H 0.32141 0.17869 0.89726 0.0
H2026 H 0.46164 0.04185 0.8078 0.0
H2027 H 0.46986 0.2337 0.85228 0.0
H2028 H 0.51402 0.05397 0.80933 0.0
H2029 H 0.47479 0.23208 0.79987 0.0
O2030 O 0.41818 0.09727 0.87894 0.0
H2031 H 0.39283 0.18644 0.97147 0.0
H2032 H 0.342 0.1107 0.91316 0.0
H2033 H 0.34337 0.10675 0.96526 0.0
H2034 H 0.36914 0.14507 0.99488 0.0
H2035 H 0.39236 0.18865 0.91923 0.0
H2036 H 0.26894 0.17367 0.89038 0.0
H2037 H 0.24724 0.13795 0.85567 0.0
O2038 O 0.37217 0.10635 0.87122 0.0
C2039 C 0.39038 0.13826 0.81537 0.0
C2040 C 0.28782 0.1234 0.84341 0.0
C2041 C 0.28238 0.16038 0.87831 0.0
N2042 N 0.32913 0.14639 0.86698 0.0
C2043 C 0.31743 0.12678 0.84777 0.0
C2044 C 0.31208 0.16317 0.88209 0.0
C2045 C 0.27022 0.14033 0.85883 0.0
C2046 C 0.4592 0.18865 0.85514 0.0
N2047 N 0.45442 0.16339 0.84069 0.0
C2048 C 0.46676 0.21369 0.84076 0.0
C2049 C 0.46943 0.21277 0.81136 0.0
C2050 C 0.46575 0.18679 0.7969 0.0
C2051 C 0.45849 0.16217 0.81205 0.0
C2052 C 0.5101 0.09379 0.83137 0.0
C2053 C 0.45188 0.08033 0.82975 0.0
C2054 C 0.49122 0.11204 0.84313 0.0
N2055 N 0.4625 0.10526 0.84217 0.0
C2056 C 0.47018 0.06153 0.81765 0.0
C2057 C 0.49953 0.06835 0.81852 0.0
C2058 C 0.39184 0.08873 0.87678 0.0
C2059 C 0.38155 0.16977 0.95885 0.0
C2060 C 0.35324 0.12728 0.92585 0.0
C2061 C 0.35374 0.12509 0.95543 0.0
C2062 C 0.36811 0.14648 0.97197 0.0
N2063 N 0.36721 0.1498 0.91315 0.0
C2064 C 0.38095 0.17103 0.92924 0.0
Co2065 Co 0.41149 0.88723 0.41987 0.0
Co2066 Co 0.39084 0.90169 0.35098 0.0
O2067 O 0.4116 0.88057 0.37905 0.0
C2068 C 0.47634 0.89873 0.42983 0.0
O2069 O 0.47107 0.9216 0.44454 0.0
C2070 C 0.36156 0.84727 0.32952 0.0
O2071 O 0.34439 0.8465 0.35101 0.0
O2072 O 0.35542 0.89532 0.37191 0.0
O2073 O 0.36744 0.89175 0.41839 0.0
H2074 H 0.31917 0.97021 0.31702 0.0
H2075 H 0.43699 0.83592 0.39638 0.0
O2076 O 0.45521 0.88272 0.41952 0.0
H2077 H 0.36227 0.79976 0.46061 0.0
H2078 H 0.45081 0.87584 0.51928 0.0
H2079 H 0.38277 0.92578 0.45866 0.0
H2080 H 0.37145 0.85139 0.45399 0.0
H2081 H 0.44341 0.8628 0.46857 0.0
O2082 O 0.38273 0.86558 0.32855 0.0
H2083 H 0.34887 0.94671 0.35271 0.0
H2084 H 0.38654 0.89972 0.28753 0.0
H2085 H 0.38813 0.93827 0.5097 0.0
H2086 H 0.42861 0.78413 0.40244 0.0
H2087 H 0.42301 0.91375 0.54017 0.0
H2088 H 0.39101 0.76575 0.43474 0.0
O2089 O 0.41766 0.92896 0.41552 0.0
H2090 H 0.48347 0.87592 0.30895 0.0
H2091 H 0.41921 0.9532 0.32554 0.0
H2092 H 0.46356 0.96317 0.29952 0.0
H2093 H 0.49583 0.92419 0.29081 0.0
H2094 H 0.43829 0.86653 0.33393 0.0
H2095 H 0.35718 0.92287 0.25116 0.0
H2096 H 0.32331 0.95846 0.26578 0.0
O2097 O 0.39743 0.93766 0.37286 0.0
C2098 C 0.34856 0.89387 0.39785 0.0
C2099 C 0.33411 0.95497 0.31034 0.0
C2100 C 0.35545 0.92839 0.27338 0.0
N2101 N 0.36952 0.92187 0.32229 0.0
C2102 C 0.35111 0.94166 0.33046 0.0
C2103 C 0.37195 0.91531 0.29411 0.0
C2104 C 0.33637 0.9483 0.2816 0.0
C2105 C 0.42069 0.82808 0.41058 0.0
N2106 N 0.40483 0.84662 0.42495 0.0
C2107 C 0.41599 0.79873 0.41387 0.0
C2108 C 0.39487 0.78843 0.43198 0.0
C2109 C 0.37872 0.8075 0.44649 0.0
C2110 C 0.38399 0.8367 0.44263 0.0
C2111 C 0.43558 0.8867 0.5062 0.0
C2112 C 0.3972 0.91433 0.47202 0.0
C2113 C 0.43128 0.87937 0.47751 0.0
N2114 N 0.41283 0.89365 0.46067 0.0
C2115 C 0.40037 0.9217 0.50084 0.0
C2116 C 0.41996 0.90798 0.51792 0.0
C2117 C 0.40765 0.9456 0.39715 0.0
C2118 C 0.46928 0.89288 0.31222 0.0
C2119 C 0.43314 0.93613 0.32179 0.0
C2120 C 0.45823 0.94192 0.30707 0.0
C2121 C 0.47634 0.92007 0.30222 0.0
N2122 N 0.42603 0.90923 0.33096 0.0
C2123 C 0.44377 0.88774 0.32644 0.0
Co2124 Co 0.58521 0.1403 0.15886 0.0
Co2125 Co 0.61373 0.11716 0.09843 0.0
O2126 O 0.61049 0.11609 0.13937 0.0
C2127 C 0.6355 0.15253 0.19785 0.0
O2128 O 0.65129 0.16175 0.17688 0.0
C2129 C 0.60563 0.05296 0.08598 0.0
O2130 O 0.58627 0.0589 0.06652 0.0
O2131 O 0.57146 0.10966 0.09366 0.0
O2132 O 0.55799 0.14163 0.12522 0.0
H2133 H 0.58629 0.14508 0.99893 0.0
H2134 H 0.60198 0.08698 0.18637 0.0
O2135 O 0.61071 0.14064 0.19332 0.0
H2136 H 0.49811 0.07507 0.16769 0.0
H2137 H 0.53583 0.1726 0.24579 0.0
H2138 H 0.56116 0.19659 0.14766 0.0
H2139 H 0.52401 0.12065 0.15904 0.0
H2140 H 0.55848 0.13791 0.21572 0.0
O2141 O 0.61876 0.07363 0.10014 0.0
H2142 H 0.58331 0.14505 0.05128 0.0
H2143 H 0.65071 0.08885 0.05763 0.0
H2144 H 0.54211 0.23315 0.17829 0.0
H2145 H 0.57645 0.04126 0.1977 0.0
H2146 H 0.52875 0.22114 0.22765 0.0
H2147 H 0.52411 0.03485 0.18771 0.0
O2148 O 0.60675 0.17371 0.14402 0.0
H2149 H 0.71068 0.10168 0.14204 0.0
H2150 H 0.65658 0.15856 0.07398 0.0
H2151 H 0.70848 0.16899 0.08119 0.0
H2152 H 0.73589 0.1404 0.1154 0.0
H2153 H 0.65873 0.09206 0.13428 0.0
H2154 H 0.65418 0.08786 1.00536 0.0
H2155 H 0.62192 0.11629 0.97566 0.0
O2156 O 0.60904 0.16123 0.09804 0.0
C2157 C 0.55266 0.1249 0.10403 0.0
C2158 C 0.60052 0.13268 0.01164 0.0
C2159 C 0.63863 0.10057 0.01524 0.0
N2160 N 0.61686 0.11703 0.05742 0.0
C2161 C 0.59897 0.13263 0.04127 0.0
C2162 C 0.63654 0.10114 0.0448 0.0
C2163 C 0.6205 0.1165 0.99859 0.0
C2164 C 0.57904 0.08463 0.18311 0.0
N2165 N 0.56438 0.10646 0.1721 0.0
C2166 C 0.56476 0.05863 0.1893 0.0
C2167 C 0.5354 0.05504 0.18374 0.0
C2168 C 0.52069 0.07756 0.17277 0.0
C2169 C 0.53552 0.10336 0.16757 0.0
C2170 C 0.54151 0.1781 0.22432 0.0
C2171 C 0.55636 0.19139 0.16934 0.0
C2172 C 0.55381 0.15829 0.20689 0.0
N2173 N 0.56139 0.16513 0.17982 0.0
C2174 C 0.54529 0.21215 0.18655 0.0
C2175 C 0.53774 0.20537 0.21421 0.0
C2176 C 0.60947 0.18049 0.11808 0.0
C2177 C 0.69899 0.11421 0.127 0.0
C2178 C 0.66836 0.14604 0.08892 0.0
C2179 C 0.69775 0.15202 0.09288 0.0
C2180 C 0.71312 0.13597 0.11207 0.0
N2181 N 0.65469 0.12457 0.10353 0.0
C2182 C 0.66959 0.1088 0.12244 0.0
Co2183 Co 0.38226 0.16226 0.63457 0.0
Co2184 Co 0.40503 0.0963 0.64832 0.0
O2185 O 0.37991 0.12117 0.62772 0.0
C2186 C 0.32096 0.14582 0.64788 0.0
O2187 O 0.33245 0.12794 0.66536 0.0
C2188 C 0.39273 0.06574 0.59107 0.0
O2189 O 0.37833 0.08632 0.58019 0.0
O2190 O 0.43899 0.11681 0.63203 0.0
O2191 O 0.4269 0.16228 0.63721 0.0
H2192 H 0.49035 0.07374 0.70954 0.0
H2193 H 0.34707 0.14066 0.58447 0.0
O2194 O 0.33779 0.16176 0.63267 0.0
H2195 H 0.42426 0.20316 0.54567 0.0
H2196 H 0.35245 0.262 0.6193 0.0
H2197 H 0.41755 0.20171 0.67251 0.0
H2198 H 0.4213 0.19596 0.59736 0.0
H2199 H 0.35073 0.21008 0.61076 0.0
O2200 O 0.40365 0.06787 0.61615 0.0
H2201 H 0.45942 0.10506 0.68248 0.0
H2202 H 0.40393 0.03405 0.65762 0.0
H2203 H 0.42017 0.25355 0.68161 0.0
H2204 H 0.34844 0.14866 0.5327 0.0
H2205 H 0.38743 0.28404 0.6549 0.0
H2206 H 0.3876 0.1793 0.51296 0.0
O2207 O 0.37997 0.15752 0.67636 0.0
H2208 H 0.30365 0.0545 0.64477 0.0
H2209 H 0.38739 0.08081 0.70716 0.0
H2210 H 0.34131 0.0674 0.72852 0.0
H2211 H 0.29912 0.05341 0.69721 0.0
H2212 H 0.34894 0.07189 0.62456 0.0
H2213 H 0.43425 1.00209 0.68397 0.0
H2214 H 0.47804 0.02163 0.71028 0.0
O2215 O 0.40899 0.12241 0.68183 0.0
C2216 C 0.44578 0.14356 0.63327 0.0
C2217 C 0.47153 0.0648 0.69807 0.0
C2218 C 0.4401 0.02455 0.68381 0.0
N2219 N 0.42978 0.0714 0.66866 0.0
C2220 C 0.45387 0.08246 0.68277 0.0
C2221 C 0.42293 0.04282 0.66886 0.0
C2222 C 0.46457 0.03561 0.69854 0.0
C2223 C 0.36393 0.15449 0.57605 0.0
N2224 N 0.38413 0.16774 0.59389 0.0
C2225 C 0.36473 0.15867 0.54672 0.0
C2226 C 0.38665 0.17608 0.53565 0.0
C2227 C 0.40724 0.18942 0.55399 0.0
C2228 C 0.40556 0.18508 0.58323 0.0
C2229 C 0.36686 0.24895 0.63103 0.0
C2230 C 0.4034 0.21491 0.66067 0.0
C2231 C 0.36595 0.21956 0.62632 0.0
N2232 N 0.38417 0.20301 0.64098 0.0
C2233 C 0.40491 0.24421 0.66598 0.0
C2234 C 0.3865 0.2613 0.651 0.0
C2235 C 0.39433 0.14161 0.69206 0.0
C2236 C 0.3219 0.06043 0.65865 0.0
C2237 C 0.36898 0.07587 0.69339 0.0
C2238 C 0.34292 0.06804 0.70562 0.0
C2239 C 0.3193 0.06004 0.68806 0.0
N2240 N 0.3711 0.07756 0.66452 0.0
C2241 C 0.34795 0.06968 0.64723 0.0
Co2242 Co 0.41167 0.86786 0.18438 0.0
Co2243 Co 0.37669 0.88367 0.12206 0.0
O2244 O 0.38411 0.88849 0.16268 0.0
C2245 C 0.35968 0.85171 0.21527 0.0
O2246 O 0.34667 0.84382 0.19115 0.0
C2247 C 0.3863 0.94754 0.13198 0.0
O2248 O 0.40872 0.94108 0.14744 0.0
O2249 O 0.41802 0.89052 0.11439 0.0
O2250 O 0.43907 0.87016 0.15239 0.0
H2251 H 0.38366 0.83841 0.02577 0.0
H2252 H 0.38688 0.91767 0.2108 0.0
O2253 O 0.38461 0.86405 0.21597 0.0
H2254 H 0.49049 0.94147 0.21031 0.0
H2255 H 0.46157 0.84239 0.27581 0.0
H2256 H 0.44487 0.81668 0.17466 0.0
H2257 H 0.47043 0.89571 0.19046 0.0
H2258 H 0.43397 0.87282 0.24432 0.0
O2259 O 0.37085 0.92721 0.11953 0.0
H2260 H 0.39986 0.84981 0.07511 0.0
H2261 H 0.33524 0.90881 0.0823 0.0
H2262 H 0.46977 0.78426 0.20635 0.0
H2263 H 0.40616 0.96352 0.23142 0.0
H2264 H 0.47957 0.79774 0.25697 0.0
H2265 H 0.45845 0.97572 0.23113 0.0
O2266 O 0.39569 0.83114 0.16902 0.0
H2267 H 0.28448 0.90298 0.16838 0.0
H2268 H 0.33234 0.83844 0.1045 0.0
H2269 H 0.28173 0.82794 0.1155 0.0
H2270 H 0.25745 0.86039 0.1476 0.0
H2271 H 0.33515 0.9125 0.15704 0.0
H2272 H 0.31932 0.89921 0.03258 0.0
H2273 H 0.34245 0.86279 1.00448 0.0
O2274 O 0.38313 0.84024 0.12384 0.0
C2275 C 0.43954 0.88046 0.12728 0.0
C2276 C 0.37312 0.85416 0.0379 0.0
C2277 C 0.33705 0.88832 0.04172 0.0
N2278 N 0.36824 0.87962 0.08166 0.0
C2279 C 0.3822 0.86065 0.06587 0.0
C2280 C 0.34641 0.89392 0.06975 0.0
C2281 C 0.35016 0.86791 0.02592 0.0
C2282 C 0.40965 0.92272 0.21098 0.0
N2283 N 0.42753 0.90397 0.19972 0.0
C2284 C 0.42044 0.94877 0.22251 0.0
C2285 C 0.44974 0.95562 0.22229 0.0
C2286 C 0.46778 0.93644 0.21056 0.0
C2287 C 0.45626 0.91059 0.19924 0.0
C2288 C 0.45833 0.83688 0.25356 0.0
C2289 C 0.44845 0.82253 0.19681 0.0
C2290 C 0.44297 0.85417 0.23547 0.0
N2291 N 0.4383 0.847 0.20738 0.0
C2292 C 0.46285 0.80418 0.21459 0.0
C2293 C 0.46823 0.81167 0.24302 0.0
C2294 C 0.38925 0.82279 0.14386 0.0
C2295 C 0.29479 0.88875 0.15427 0.0
C2296 C 0.32194 0.85262 0.11854 0.0
C2297 C 0.29326 0.8466 0.12464 0.0
C2298 C 0.27965 0.86482 0.14264 0.0
N2299 N 0.33661 0.87619 0.12994 0.0
C2300 C 0.32344 0.89411 0.14766 0.0
Co2301 Co 0.63264 0.84256 0.64371 0.0
Co2302 Co 0.61138 0.91052 0.6498 0.0
O2303 O 0.63438 0.88233 0.63212 0.0
C2304 C 0.6944 0.861 0.65556 0.0
O2305 O 0.6835 0.88167 0.66965 0.0
C2306 C 0.61933 0.93173 0.58932 0.0
O2307 O 0.63296 0.90959 0.58131 0.0
O2308 O 0.57571 0.88793 0.63797 0.0
O2309 O 0.58824 0.84307 0.6465 0.0
H2310 H 0.53218 0.94284 0.70973 0.0
H2311 H 0.66462 0.85704 0.5918 0.0
O2312 O 0.67705 0.84277 0.64215 0.0
H2313 H 0.58527 0.78971 0.55991 0.0
H2314 H 0.66172 0.74148 0.64029 0.0
H2315 H 0.60019 0.80884 0.68609 0.0
H2316 H 0.59116 0.8042 0.61037 0.0
H2317 H 0.66255 0.79175 0.6256 0.0
O2318 O 0.60901 0.93287 0.61397 0.0
H2319 H 0.56181 0.90767 0.68775 0.0
H2320 H 0.61171 0.97386 0.64883 0.0
H2321 H 0.59852 0.75875 0.70138 0.0
H2322 H 0.66022 0.84202 0.54131 0.0
H2323 H 0.62948 0.72471 0.67842 0.0
H2324 H 0.6201 0.80862 0.525 0.0
O2325 O 0.63795 0.85301 0.68441 0.0
H2326 H 0.71287 0.94891 0.63715 0.0
H2327 H 0.63439 0.93775 0.70389 0.0
H2328 H 0.6826 0.95311 0.72217 0.0
H2329 H 0.72213 0.95997 0.68844 0.0
H2330 H 0.66582 0.92873 0.62104 0.0
H2331 H 0.582 0.0096 0.66959 0.0
H2332 H 0.542 0.99435 0.7005 0.0
O2333 O 0.61174 0.8906 0.68701 0.0
C2334 C 0.56916 0.86148 0.64147 0.0
C2335 C 0.54951 0.94986 0.69631 0.0
C2336 C 0.57752 0.98734 0.67388 0.0
N2337 N 0.58859 0.93868 0.66715 0.0
C2338 C 0.56648 0.93002 0.6839 0.0
C2339 C 0.59422 0.96695 0.66207 0.0
C2340 C 0.55507 0.97873 0.69117 0.0
C2341 C 0.64728 0.84218 0.5849 0.0
N2342 N 0.62814 0.83155 0.60396 0.0
C2343 C 0.64478 0.83397 0.55627 0.0
C2344 C 0.62229 0.81509 0.54714 0.0
C2345 C 0.60274 0.8045 0.56671 0.0
C2346 C 0.60607 0.81294 0.59522 0.0
C2347 C 0.64808 0.75609 0.6504 0.0
C2348 C 0.61352 0.79405 0.67586 0.0
C2349 C 0.64849 0.78454 0.64219 0.0
N2350 N 0.63125 0.80304 0.65482 0.0
C2351 C 0.61257 0.76577 0.68466 0.0
C2352 C 0.62997 0.74669 0.67179 0.0
C2353 C 0.62691 0.87223 0.69863 0.0
C2354 C 0.69579 0.94629 0.65206 0.0
C2355 C 0.65169 0.93909 0.68942 0.0
C2356 C 0.67894 0.94831 0.69976 0.0
C2357 C 0.70104 0.95228 0.68083 0.0
N2358 N 0.64693 0.93174 0.66147 0.0
C2359 C 0.66864 0.93553 0.64282 0.0
Co2360 Co 0.87391 0.59284 0.93952 0.0
Co2361 Co 0.89662 0.6556 0.908 0.0
O2362 O 0.89565 0.61388 0.91055 0.0
C2363 C 0.93233 0.57175 0.94254 0.0
O2364 O 0.94276 0.59816 0.94155 0.0
C2365 C 0.88299 0.63634 0.84654 0.0
O2366 O 0.86365 0.61818 0.85665 0.0
O2367 O 0.85497 0.65352 0.90365 0.0
O2368 O 0.84131 0.61873 0.93398 0.0
H2369 H 0.86315 0.75277 0.92914 0.0
H2370 H 0.89136 0.56851 0.88426 0.0
O2371 O 0.90546 0.56614 0.9432 0.0
H2372 H 0.79038 0.53545 0.8941 0.0
H2373 H 0.84477 0.50749 0.99841 0.0
H2374 H 0.83673 0.61053 0.98565 0.0
H2375 H 0.81559 0.56401 0.93191 0.0
H2376 H 0.86859 0.53244 0.95888 0.0
O2377 O 0.89862 0.65225 0.86411 0.0
H2378 H 0.86393 0.70066 0.93392 0.0
H2379 H 0.92985 0.69841 0.87413 0.0
H2380 H 0.81162 0.58625 0.02472 0.0
H2381 H 0.86523 0.54355 0.84434 0.0
H2382 H 0.81547 0.53423 0.03111 0.0
H2383 H 0.81505 0.52555 0.8494 0.0
O2384 O 0.89255 0.61696 0.96994 0.0
H2385 H 0.99428 0.62655 0.88379 0.0
H2386 H 0.94019 0.68847 0.94487 0.0
H2387 H 0.99278 0.68971 0.95014 0.0
H2388 H 0.0202 0.65866 0.91937 0.0
H2389 H 0.94172 0.62598 0.87933 0.0
H2390 H 0.92966 0.75047 0.86848 0.0
H2391 H 0.89617 0.77801 0.89619 0.0
O2392 O 0.8937 0.66064 0.95186 0.0
C2393 C 0.83601 0.63854 0.91631 0.0
C2394 C 0.87791 0.74103 0.91703 0.0
C2395 C 0.91521 0.73973 0.88296 0.0
N2396 N 0.89705 0.69659 0.90447 0.0
C2397 C 0.8785 0.71154 0.91972 0.0
C2398 C 0.9152 0.71027 0.8862 0.0
C2399 C 0.89642 0.75517 0.89852 0.0
C2400 C 0.8692 0.56146 0.88655 0.0
N2401 N 0.85515 0.56799 0.91052 0.0
C2402 C 0.85475 0.54676 0.86401 0.0
C2403 C 0.82636 0.5371 0.86672 0.0
C2404 C 0.81255 0.54257 0.89178 0.0
C2405 C 0.82727 0.55833 0.91346 0.0
C2406 C 0.8426 0.53004 0.99549 0.0
C2407 C 0.83804 0.58782 0.98792 0.0
C2408 C 0.85616 0.54428 0.97323 0.0
N2409 N 0.85357 0.57277 0.96948 0.0
C2410 C 0.82397 0.57424 0.01027 0.0
C2411 C 0.82622 0.54511 0.01394 0.0
C2412 C 0.89473 0.64372 0.97325 0.0
C2413 C 0.98263 0.64034 0.89718 0.0
C2414 C 0.95197 0.67476 0.93156 0.0
C2415 C 0.98175 0.67565 0.93454 0.0
C2416 C 0.99713 0.65826 0.91723 0.0
N2417 N 0.93795 0.6571 0.91185 0.0
C2418 C 0.95287 0.64014 0.8947 0.0
Co2419 Co 0.82904 0.40863 0.16551 0.0
Co2420 Co 0.88809 0.37539 0.14388 0.0
O2421 O 0.84798 0.38429 0.13915 0.0
C2422 C 0.79198 0.35661 0.16694 0.0
O2423 O 0.81498 0.34218 0.16988 0.0
C2424 C 0.88201 0.39445 0.08278 0.0
O2425 O 0.87133 0.41686 0.09429 0.0
O2426 O 0.90035 0.4166 0.14589 0.0
O2427 O 0.86442 0.43395 0.17049 0.0
H2428 H 0.98628 0.38085 0.19036 0.0
H2429 H 0.80003 0.39499 0.10977 0.0
O2430 O 0.79377 0.38323 0.16215 0.0
H2431 H 0.81581 0.49951 0.11253 0.0
H2432 H 0.7441 0.456 0.2025 0.0
H2433 H 0.84453 0.43479 0.22205 0.0
H2434 H 0.83159 0.47063 0.15285 0.0
H2435 H 0.77146 0.43217 0.16622 0.0
O2436 O 0.8911 0.37529 0.09966 0.0
H2437 H 0.93659 0.39444 0.18296 0.0
H2438 H 0.92498 0.33682 0.113 0.0
H2439 H 0.81753 0.45742 0.25941 0.0
H2440 H 0.7834 0.42311 0.06913 0.0
H2441 H 0.76684 0.46791 0.24982 0.0
H2442 H 0.79124 0.47578 0.07036 0.0
O2443 O 0.84112 0.38611 0.198 0.0
H2444 H 0.83252 0.28868 0.10425 0.0
H2445 H 0.90027 0.32555 0.17992 0.0
H2446 H 0.8838 0.2748 0.17946 0.0
H2447 H 0.84971 0.25605 0.14139 0.0
H2448 H 0.84936 0.33933 0.10567 0.0
H2449 H 0.97481 0.32315 0.11914 0.0
H2450 H 1.0057 0.34497 0.15829 0.0
O2451 O 0.88578 0.37575 0.18809 0.0
C2452 C 0.88958 0.43589 0.16074 0.0
C2453 C 0.97295 0.37102 0.17338 0.0
C2454 C 0.96654 0.33868 0.13337 0.0
N2455 N 0.92781 0.36618 0.14779 0.0
C2456 C 0.94479 0.37862 0.16909 0.0
C2457 C 0.93841 0.34666 0.12985 0.0
C2458 C 0.98384 0.35088 0.15537 0.0
C2459 C 0.80335 0.4179 0.11049 0.0
N2460 N 0.81668 0.43115 0.13363 0.0
C2461 C 0.79391 0.43372 0.08744 0.0
C2462 C 0.79839 0.46327 0.08811 0.0
C2463 C 0.8122 0.4766 0.11173 0.0
C2464 C 0.82124 0.46011 0.13444 0.0
C2465 C 0.76614 0.45146 0.20696 0.0
C2466 C 0.82255 0.43946 0.21763 0.0
C2467 C 0.78185 0.43826 0.18638 0.0
N2468 N 0.8096 0.43215 0.19196 0.0
C2469 C 0.80732 0.45213 0.23894 0.0
C2470 C 0.77889 0.45805 0.23353 0.0
C2471 C 0.86553 0.37853 0.20579 0.0
C2472 C 0.84748 0.29656 0.12088 0.0
C2473 C 0.8854 0.31755 0.16332 0.0
C2474 C 0.87619 0.28879 0.16313 0.0
C2475 C 0.85708 0.27828 0.14175 0.0
N2476 N 0.87593 0.33531 0.14272 0.0
C2477 C 0.8572 0.32519 0.1217 0.0
Co2478 Co 0.09554 0.35187 0.63359 0.0
Co2479 Co 0.11921 0.41593 0.60863 0.0
O2480 O 0.11776 0.37465 0.60716 0.0
C2481 C 0.13643 0.31031 0.61181 0.0
O2482 O 0.13816 0.32292 0.58714 0.0
C2483 C 0.1064 0.42602 0.54514 0.0
O2484 O 0.08685 0.4433 0.55258 0.0
O2485 O 0.07701 0.41506 0.60501 0.0
O2486 O 0.06634 0.38138 0.63692 0.0
H2487 H 0.08862 0.5115 0.64019 0.0
H2488 H 0.09868 0.34983 0.56863 0.0
O2489 O 0.12358 0.32149 0.6321 0.0
H2490 H 1.0078 0.29867 0.58982 0.0
H2491 H 0.06462 0.26086 0.68309 0.0
H2492 H 0.06906 0.36564 0.68805 0.0
H2493 H 0.03736 0.31967 0.628 0.0
H2494 H 0.08162 0.28922 0.64271 0.0
O2495 O 0.12147 0.41438 0.56471 0.0
H2496 H 0.08921 0.45909 0.64072 0.0
H2497 H 0.15103 0.46121 0.57653 0.0
H2498 H 0.05362 0.33813 0.72961 0.0
H2499 H 0.06853 0.33022 0.5298 0.0
H2500 H 0.05078 0.28531 0.7272 0.0
H2501 H 0.0227 0.30379 0.53963 0.0
O2502 O 0.11928 0.37007 0.66432 0.0
H2503 H 0.21659 0.38601 0.58369 0.0
H2504 H 0.16297 0.44664 0.64651 0.0
H2505 H 0.21549 0.44705 0.65202 0.0
H2506 H 0.24266 0.41662 0.62041 0.0
H2507 H 0.16405 0.38612 0.57906 0.0
H2508 H 0.14975 0.51339 0.57399 0.0
H2509 H 0.11902 0.53904 0.60655 0.0
O2510 O 0.11689 0.41608 0.65304 0.0
C2511 C 0.05981 0.40266 0.6219 0.0
C2512 C 0.1024 0.50064 0.62615 0.0
C2513 C 0.13689 0.50176 0.58917 0.0
N2514 N 0.12026 0.45717 0.60879 0.0
C2515 C 0.10295 0.47099 0.62648 0.0
C2516 C 0.13731 0.47217 0.59048 0.0
C2517 C 0.11945 0.51608 0.60728 0.0
C2518 C 0.07923 0.33831 0.57417 0.0
N2519 N 0.07157 0.33453 0.60195 0.0
C2520 C 0.06189 0.32737 0.55149 0.0
C2521 C 0.03611 0.31275 0.55698 0.0
C2522 C 0.02774 0.30987 0.58494 0.0
C2523 C 0.04536 0.32144 0.607 0.0
C2524 C 0.06557 0.28388 0.68438 0.0
C2525 C 0.06801 0.34271 0.6867 0.0
C2526 C 0.07517 0.3001 0.66148 0.0
N2527 N 0.07607 0.32923 0.66261 0.0
C2528 C 0.05939 0.32721 0.71044 0.0
C2529 C 0.05784 0.29759 0.70911 0.0
C2530 C 0.12013 0.39616 0.67151 0.0
C2531 C 0.20501 0.39943 0.59753 0.0
C2532 C 0.17466 0.43331 0.63272 0.0
C2533 C 0.20439 0.43366 0.63591 0.0
C2534 C 0.21961 0.41659 0.61815 0.0
N2535 N 0.16052 0.41654 0.61234 0.0
C2536 C 0.17527 0.39965 0.59494 0.0
Co2537 Co 0.16087 0.59581 0.09749 0.0
Co2538 Co 0.13663 0.65872 0.12378 0.0
O2539 O 0.13507 0.61721 0.12024 0.0
C2540 C 0.10142 0.57046 0.08356 0.0
O2541 O 0.08935 0.59214 0.0948 0.0
C2542 C 0.14869 0.63869 0.18418 0.0
O2543 O 0.1652 0.62067 0.17242 0.0
O2544 O 0.17838 0.66123 0.12904 0.0
O2545 O 0.19406 0.62031 0.11252 0.0
H2546 H 0.17177 0.75867 0.10163 0.0
H2547 H 0.12185 0.56746 0.13871 0.0
O2548 O 0.12848 0.56997 0.08251 0.0
H2549 H 0.21887 0.54483 0.17045 0.0
H2550 H 0.1973 0.50761 0.05305 0.0
H2551 H 0.21152 0.61181 0.06353 0.0
H2552 H 0.21113 0.57078 0.12584 0.0
H2553 H 0.16481 0.53449 0.08187 0.0
O2554 O 0.13454 0.65523 0.16783 0.0
H2555 H 0.16955 0.70634 0.09677 0.0
H2556 H 0.10615 0.69908 0.1593 0.0
H2557 H 0.24478 0.58569 0.03479 0.0
H2558 H 0.1283 0.53975 0.18228 0.0
H2559 H 0.23778 0.53316 0.02944 0.0
H2560 H 0.17721 0.52902 0.19897 0.0
O2561 O 0.15522 0.62079 0.06412 0.0
H2562 H 0.03731 0.62154 0.14484 0.0
H2563 H 0.09537 0.68789 0.08657 0.0
H2564 H 0.04298 0.68432 0.07919 0.0
H2565 H 0.01357 0.65086 0.10813 0.0
H2566 H 0.08963 0.62589 0.15144 0.0
H2567 H 0.10776 0.75135 0.16498 0.0
H2568 H 0.14072 0.7815 0.13596 0.0
O2569 O 0.14008 0.66244 0.08001 0.0
C2570 C 0.19805 0.64457 0.12465 0.0
C2571 C 0.15725 0.74578 0.11432 0.0
C2572 C 0.12136 0.74166 0.14993 0.0
N2573 N 0.13762 0.69976 0.12762 0.0
C2574 C 0.15583 0.71616 0.11159 0.0
C2575 C 0.12057 0.7121 0.14666 0.0
C2576 C 0.13985 0.75857 0.13362 0.0
C2577 C 0.14306 0.56197 0.14514 0.0
N2578 N 0.1661 0.57096 0.12976 0.0
C2579 C 0.14664 0.54657 0.17009 0.0
C2580 C 0.17408 0.54065 0.17949 0.0
C2581 C 0.19746 0.54958 0.16354 0.0
C2582 C 0.19298 0.56439 0.13836 0.0
C2583 C 0.20066 0.53045 0.05533 0.0
C2584 C 0.20853 0.58892 0.06158 0.0
C2585 C 0.18231 0.5458 0.07162 0.0
N2586 N 0.18657 0.57463 0.07487 0.0
C2587 C 0.22734 0.57427 0.04514 0.0
C2588 C 0.22338 0.54481 0.0421 0.0
C2589 C 0.14717 0.64581 0.05965 0.0
C2590 C 0.04976 0.63635 0.13206 0.0
C2591 C 0.08267 0.6733 0.09932 0.0
C2592 C 0.05303 0.67144 0.09512 0.0
C2593 C 0.03652 0.6527 0.1115 0.0
N2594 N 0.09546 0.65699 0.11932 0.0
C2595 C 0.07942 0.63894 0.13582 0.0
Co2596 Co 0.94549 0.66451 0.64601 0.0
Co2597 Co 0.87948 0.63249 0.65805 0.0
O2598 O 0.92024 0.6374 0.66456 0.0
C2599 C 0.96941 0.60873 0.63615 0.0
O2600 O 0.94426 0.59937 0.62589 0.0
C2601 C 0.8882 0.64683 0.72027 0.0
O2602 O 0.90404 0.66804 0.71036 0.0
O2603 O 0.87469 0.67411 0.66126 0.0
O2604 O 0.91714 0.69396 0.648 0.0
H2605 H 0.78405 0.65091 0.61283 0.0
H2606 H 0.96118 0.63491 0.69944 0.0
O2607 O 0.97412 0.63463 0.64422 0.0
H2608 H 0.97583 0.73736 0.72181 0.0
H2609 H 0.03956 0.71911 0.63357 0.0
H2610 H 0.93904 0.70642 0.59989 0.0
H2611 H 0.95974 0.72109 0.67373 0.0
H2612 H 1.00761 0.68114 0.65292 0.0
O2613 O 0.87537 0.62934 0.70205 0.0
H2614 H 0.83624 0.65851 0.62089 0.0
H2615 H 0.83506 0.59374 0.68309 0.0
H2616 H 0.97086 0.74316 0.57815 0.0
H2617 H 0.97581 0.65032 0.74819 0.0
H2618 H 0.02148 0.74999 0.59534 0.0
H2619 H 0.98405 0.70185 0.75946 0.0
O2620 O 0.92957 0.65241 0.60777 0.0
H2621 H 0.92326 0.54213 0.68615 0.0
H2622 H 0.862 0.58762 0.61494 0.0
H2623 H 0.87747 0.53955 0.60557 0.0
H2624 H 0.90895 0.51659 0.64122 0.0
H2625 H 0.90878 0.59097 0.69378 0.0
H2626 H 0.7828 0.58553 0.67593 0.0
H2627 H 0.75701 0.61419 0.64049 0.0
O2628 O 0.88395 0.63668 0.61412 0.0
C2629 C 0.8914 0.69544 0.65544 0.0
C2630 C 0.79506 0.63825 0.62829 0.0
C2631 C 0.79435 0.60157 0.66373 0.0
N2632 N 0.83857 0.62645 0.6523 0.0
C2633 C 0.82458 0.64242 0.63288 0.0
C2634 C 0.82389 0.60633 0.66774 0.0
C2635 C 0.77989 0.61765 0.64383 0.0
C2636 C 0.9646 0.65738 0.70415 0.0
N2637 N 0.96034 0.67699 0.68345 0.0
C2638 C 0.97279 0.66599 0.73184 0.0
C2639 C 0.97736 0.6949 0.73816 0.0
C2640 C 0.97284 0.71482 0.71704 0.0
C2641 C 0.96393 0.70544 0.68977 0.0
C2642 C 0.01773 0.71604 0.62554 0.0
C2643 C 0.96125 0.70871 0.60686 0.0
C2644 C 0.99955 0.69458 0.63648 0.0
N2645 N 0.97152 0.6916 0.62763 0.0
C2646 C 0.97911 0.7297 0.59463 0.0
C2647 C 1.00749 0.73351 0.60426 0.0
C2648 C 0.90485 0.64397 0.5977 0.0
C2649 C 0.90963 0.55186 0.67052 0.0
C2650 C 0.87527 0.57766 0.63067 0.0
C2651 C 0.88393 0.55034 0.62532 0.0
C2652 C 0.90149 0.53751 0.64529 0.0
N2653 N 0.88456 0.59213 0.6548 0.0
C2654 C 0.901 0.57938 0.6749 0.0
Co2655 Co 0.15334 0.42329 0.84183 0.0
Co2656 Co 0.08962 0.38958 0.85505 0.0
O2657 O 0.13018 0.39655 0.8644 0.0
C2658 C 0.20611 0.39252 0.8347 0.0
O2659 O 0.20084 0.39229 0.80712 0.0
C2660 C 0.09007 0.40251 0.91897 0.0
O2661 O 0.10345 0.42688 0.91314 0.0
O2662 O 0.084 0.43091 0.85864 0.0
O2663 O 0.12008 0.44648 0.83206 0.0
H2664 H 1.00152 0.361 0.7941 0.0
H2665 H 0.16865 0.41144 0.90183 0.0
O2666 O 0.18737 0.40099 0.85147 0.0
H2667 H 0.15868 0.51487 0.89841 0.0
H2668 H 0.24516 0.4747 0.81412 0.0
H2669 H 0.14453 0.45119 0.78602 0.0
H2670 H 0.15384 0.48578 0.85447 0.0
H2671 H 0.21248 0.45117 0.84775 0.0
O2672 O 0.0823 0.38513 0.89839 0.0
H2673 H 0.05226 0.36236 0.80657 0.0
H2674 H 0.03852 0.40832 0.88264 0.0
H2675 H 0.17541 0.47832 0.75334 0.0
H2676 H 0.17602 0.44008 0.94572 0.0
H2677 H 0.22645 0.48965 0.76697 0.0
H2678 H 0.17088 0.49241 0.94422 0.0
O2679 O 0.14414 0.39928 0.80805 0.0
H2680 H 0.11303 0.29382 0.89446 0.0
H2681 H 0.09297 0.34517 0.80643 0.0
H2682 H 0.10014 0.29477 0.804 0.0
H2683 H 0.10992 0.26813 0.8481 0.0
H2684 H 0.10606 0.34445 0.89645 0.0
H2685 H 0.98741 0.40911 0.86967 0.0
H2686 H 0.96869 0.38497 0.8252 0.0
O2687 O 0.0966 0.39518 0.81157 0.0
C2688 C 0.09672 0.45018 0.84428 0.0
C2689 C 1.00944 0.37099 0.81385 0.0
C2690 C 1.00155 0.39808 0.85618 0.0
N2691 N 0.04876 0.38384 0.84639 0.0
C2692 C 0.03841 0.37121 0.82153 0.0
C2693 C 0.03054 0.39716 0.8636 0.0
C2694 C 0.99099 0.38464 0.83124 0.0
C2695 C 0.16728 0.43424 0.90081 0.0
N2696 N 0.16138 0.44693 0.87548 0.0
C2697 C 0.17121 0.45036 0.92583 0.0
C2698 C 0.16832 0.47963 0.92496 0.0
C2699 C 0.16178 0.49234 0.89917 0.0
C2700 C 0.15882 0.47567 0.87441 0.0
C2701 C 0.22287 0.47039 0.8081 0.0
C2702 C 0.16634 0.45699 0.7927 0.0
C2703 C 0.20436 0.45665 0.82694 0.0
N2704 N 0.17681 0.44893 0.81867 0.0
C2705 C 0.18383 0.47217 0.77392 0.0
C2706 C 0.21242 0.47852 0.78156 0.0
C2707 C 0.11932 0.39589 0.79651 0.0
C2708 C 0.10773 0.30495 0.87515 0.0
C2709 C 0.09594 0.33451 0.82623 0.0
C2710 C 0.10056 0.3055 0.82449 0.0
C2711 C 0.10616 0.29058 0.84917 0.0
N2712 N 0.0959 0.34852 0.85198 0.0
C2713 C 0.10298 0.33396 0.87611 0.0
Co2714 Co 0.12296 0.69125 0.35237 0.0
Co2715 Co 0.16439 0.63658 0.3745 0.0
O2716 O 0.15377 0.67618 0.37561 0.0
C2717 C 0.17398 0.72692 0.33794 0.0
O2718 O 0.18791 0.70369 0.33545 0.0
C2719 C 0.15257 0.64948 0.43655 0.0
O2720 O 0.13024 0.66158 0.42581 0.0
O2721 O 0.12379 0.62217 0.37804 0.0
O2722 O 0.0979 0.65661 0.35912 0.0
H2723 H 0.16408 0.53655 0.33633 0.0
H2724 H 0.14957 0.72883 0.39819 0.0
O2725 O 0.14794 0.72571 0.3449 0.0
H2726 H 0.04808 0.71426 0.4221 0.0
H2727 H 0.06928 0.77015 0.30896 0.0
H2728 H 0.0802 0.66663 0.30987 0.0
H2729 H 0.06633 0.69167 0.37928 0.0
H2730 H 0.10185 0.74924 0.34406 0.0
O2731 O 0.16896 0.63741 0.41906 0.0
H2732 H 0.14656 0.5848 0.34007 0.0
H2733 H 0.20658 0.60469 0.40782 0.0
H2734 H 0.04658 0.68654 0.27519 0.0
H2735 H 0.13198 0.75266 0.44062 0.0
H2736 H 0.04177 0.73875 0.27388 0.0
H2737 H 0.08095 0.7451 0.45297 0.0
O2738 O 0.13648 0.67393 0.31767 0.0
H2739 H 0.2547 0.69254 0.40561 0.0
H2740 H 0.21057 0.62424 0.33487 0.0
H2741 H 0.2614 0.63991 0.33138 0.0
H2742 H 0.28389 0.67406 0.36715 0.0
H2743 H 0.20342 0.67776 0.40723 0.0
H2744 H 0.22279 0.55587 0.40635 0.0
H2745 H 0.20162 0.52144 0.37014 0.0
O2746 O 0.15964 0.63538 0.32988 0.0
C2747 C 0.10025 0.63196 0.36961 0.0
C2748 C 0.17288 0.55112 0.35256 0.0
C2749 C 0.20607 0.56204 0.39171 0.0
N2750 N 0.17558 0.5976 0.37407 0.0
C2751 C 0.16338 0.57862 0.35453 0.0
C2752 C 0.19657 0.58959 0.39262 0.0
C2753 C 0.1942 0.54274 0.3714 0.0
C2754 C 0.12724 0.72584 0.40316 0.0
N2755 N 0.10896 0.70901 0.38618 0.0
C2756 C 0.11743 0.73929 0.42727 0.0
C2757 C 0.08879 0.73506 0.43419 0.0
C2758 C 0.07035 0.71768 0.41691 0.0
C2759 C 0.08085 0.70481 0.3928 0.0
C2760 C 0.07145 0.74739 0.30913 0.0
C2761 C 0.07738 0.68926 0.31022 0.0
C2762 C 0.08977 0.73541 0.32902 0.0
N2763 N 0.09297 0.70673 0.32901 0.0
C2764 C 0.0586 0.70045 0.29026 0.0
C2765 C 0.056 0.72975 0.28946 0.0
C2766 C 0.14893 0.65184 0.31083 0.0
C2767 C 0.24508 0.67782 0.3898 0.0
C2768 C 0.21996 0.6397 0.35006 0.0
C2769 C 0.24885 0.64828 0.34814 0.0
C2770 C 0.26147 0.6674 0.36823 0.0
N2771 N 0.204 0.65009 0.37124 0.0
C2772 C 0.2161 0.66919 0.39074 0.0
Co2773 Co 0.89858 0.33 0.3674 0.0
Co2774 Co 0.86633 0.38765 0.39426 0.0
O2775 O 0.87329 0.34735 0.39359 0.0
C2776 C 0.84432 0.29735 0.35703 0.0
O2777 O 0.83165 0.32143 0.35527 0.0
C2778 C 0.87683 0.40064 0.45808 0.0
O2779 O 0.89215 0.42361 0.45102 0.0
O2780 O 0.90814 0.39777 0.3973 0.0
O2781 O 0.92618 0.36359 0.37036 0.0
H2782 H 0.87765 0.48909 0.36296 0.0
H2783 H 0.87858 0.29646 0.41698 0.0
O2784 O 0.87086 0.29683 0.36324 0.0
H2785 H 0.98363 0.30605 0.42834 0.0
H2786 H 0.94009 0.24589 0.32131 0.0
H2787 H 0.93235 0.34984 0.31823 0.0
H2788 H 0.95914 0.32742 0.38747 0.0
H2789 H 0.91652 0.27093 0.3596 0.0
O2790 O 0.86497 0.38454 0.4382 0.0
H2791 H 0.88922 0.43874 0.36442 0.0
H2792 H 0.82738 0.42238 0.42724 0.0
H2793 H 0.95585 0.32567 0.27937 0.0
H2794 H 0.90222 0.27446 0.45818 0.0
H2795 H 0.95888 0.27316 0.28026 0.0
H2796 H 0.95515 0.27911 0.46399 0.0
O2797 O 0.87986 0.34712 0.3345 0.0
H2798 H 0.77483 0.335 0.4212 0.0
H2799 H 0.81863 0.40569 0.35652 0.0
H2800 H 0.76696 0.3929 0.35182 0.0
H2801 H 0.74469 0.35745 0.38445 0.0
H2802 H 0.8266 0.34765 0.42453 0.0
H2803 H 0.81598 0.47291 0.42743 0.0
H2804 H 0.84087 0.50656 0.39484 0.0
O2805 O 0.86809 0.39005 0.35016 0.0
C2806 C 0.92826 0.38743 0.38355 0.0
C2807 C 0.86673 0.47472 0.3774 0.0
C2808 C 0.83208 0.4656 0.41353 0.0
N2809 N 0.85893 0.42769 0.39583 0.0
C2810 C 0.87313 0.44615 0.37822 0.0
C2811 C 0.83874 0.43707 0.41346 0.0
C2812 C 0.84608 0.48447 0.39523 0.0
C2813 C 0.90163 0.29839 0.41929 0.0
N2814 N 0.91751 0.31288 0.39965 0.0
C2815 C 0.91488 0.28599 0.44271 0.0
C2816 C 0.94458 0.28865 0.446 0.0
C2817 C 0.96058 0.30372 0.42601 0.0
C2818 C 0.9466 0.31579 0.40287 0.0
C2819 C 0.93856 0.26873 0.32051 0.0
C2820 C 0.93433 0.32712 0.31917 0.0
C2821 C 0.92547 0.28305 0.34225 0.0
N2822 N 0.92297 0.3118 0.34107 0.0
C2823 C 0.9474 0.31351 0.29697 0.0
C2824 C 0.94906 0.28404 0.29747 0.0
C2825 C 0.87216 0.37202 0.32996 0.0
C2826 C 0.78429 0.35049 0.40688 0.0
C2827 C 0.80919 0.38999 0.37057 0.0
C2828 C 0.77987 0.38294 0.3679 0.0
C2829 C 0.76739 0.36308 0.38624 0.0
N2830 N 0.82563 0.37758 0.39091 0.0
C2831 C 0.81357 0.3579 0.4088 0.0
C2832 C 0.12762 0.26465 0.39411 0.0
C2833 C 0.12591 0.27851 0.36787 0.0
C2834 C 0.11828 0.23611 0.3967 0.0
C2835 C 0.10677 0.2201 0.37314 0.0
H2836 H 0.13428 0.27658 0.41325 0.0
H2837 H 0.11906 0.22691 0.41771 0.0
S2838 S 0.10042 0.24567 0.29903 0.0
N2839 N 0.1141 0.27364 0.31732 0.0
N2840 N 0.09671 0.21957 0.32212 0.0
C2841 C 0.10701 0.23302 0.3463 0.0
C2842 C 0.11659 0.26232 0.34367 0.0
C2843 C 0.28719 0.67326 0.8988 0.0
C2844 C 0.30469 0.66416 0.87689 0.0
C2845 C 0.25733 0.6703 0.8961 0.0
C2846 C 0.24411 0.6587 0.87121 0.0
H2847 H 0.29647 0.6814 0.91882 0.0
H2848 H 0.24469 0.67523 0.91423 0.0
S2849 S 0.27943 0.63872 0.80503 0.0
N2850 N 0.30603 0.64764 0.82775 0.0
N2851 N 0.24996 0.64332 0.8224 0.0
C2852 C 0.26111 0.65265 0.84807 0.0
C2853 C 0.29142 0.65507 0.85094 0.0
C2854 C 0.89248 0.77529 0.41921 0.0
C2855 C 0.89874 0.7904 0.39413 0.0
C2856 C 0.8869 0.74577 0.41874 0.0
C2857 C 0.88751 0.73041 0.39316 0.0
H2858 H 0.89341 0.78612 0.43965 0.0
H2859 H 0.8851 0.73472 0.43878 0.0
S2860 S 0.897 0.76025 0.32111 0.0
N2861 N 0.90074 0.78826 0.34264 0.0
N2862 N 0.89019 0.73257 0.34168 0.0
C2863 C 0.89043 0.74557 0.36762 0.0
C2864 C 0.89611 0.77567 0.36809 0.0
C2865 C 0.80381 0.3698 0.87693 0.0
C2866 C 0.8188 0.39297 0.86452 0.0
C2867 C 0.77414 0.36677 0.87497 0.0
C2868 C 0.75799 0.38701 0.86094 0.0
H2869 H 0.8149 0.35435 0.88935 0.0
H2870 H 0.76374 0.34911 0.88599 0.0
S2871 S 0.7869 0.44786 0.81912 0.0
N2872 N 0.81542 0.43335 0.83267 0.0
N2873 N 0.75916 0.42843 0.8305 0.0
C2874 C 0.7726 0.40868 0.84597 0.0
C2875 C 0.80314 0.4115 0.84747 0.0
C2876 C 0.16989 0.73729 0.6417 0.0
C2877 C 0.14713 0.71909 0.65035 0.0
C2878 C 0.16929 0.76665 0.64523 0.0
C2879 C 0.14553 0.77923 0.65673 0.0
H2880 H 0.18801 0.72897 0.63133 0.0
H2881 H 0.18702 0.77973 0.63728 0.0
S2882 S 0.08297 0.74109 0.68798 0.0
N2883 N 0.10243 0.71568 0.676 0.0
N2884 N 0.10058 0.77134 0.6804 0.0
C2885 C 0.12377 0.76142 0.66777 0.0
C2886 C 0.1247 0.73123 0.66498 0.0
C2887 C 0.7495 0.62291 0.1728 0.0
C2888 C 0.73957 0.62415 0.14438 0.0
C2889 C 0.77813 0.63054 0.18039 0.0
C2890 C 0.79781 0.64001 0.15992 0.0
H2891 H 0.73549 0.61465 0.18906 0.0
H2892 H 0.7853 0.6275 0.20222 0.0
S2893 S 0.78174 0.6506 0.08322 0.0
N2894 N 0.75112 0.63852 0.09618 0.0
N2895 N 0.80471 0.65248 0.11053 0.0
C2896 C 0.78765 0.64335 0.13187 0.0
C2897 C 0.75862 0.6354 0.12407 0.0
C2898 C 0.8481 0.22624 0.66433 0.0
C2899 C 0.87284 0.21096 0.66826 0.0
C2900 C 0.84985 0.25411 0.65406 0.0
C2901 C 0.87638 0.2673 0.6473 0.0
H2902 H 0.82717 0.21531 0.66548 0.0
H2903 H 0.83022 0.26437 0.64925 0.0
S2904 S 0.94766 0.23842 0.66131 0.0
N2905 N 0.92448 0.21304 0.67134 0.0
N2906 N 0.92824 0.26446 0.65026 0.0
C2907 C 0.90138 0.25337 0.65475 0.0
C2908 C 0.89946 0.22555 0.66626 0.0
C2909 C 0.2528 0.4072 0.12804 0.0
C2910 C 0.26863 0.38392 0.13571 0.0
C2911 C 0.22427 0.40349 0.11887 0.0
C2912 C 0.20989 0.37641 0.11721 0.0
H2913 H 0.26291 0.42851 0.12787 0.0
H2914 H 0.21363 0.42227 0.11284 0.0
S2915 S 0.24061 0.30852 0.13752 0.0
N2916 N 0.26732 0.33267 0.14281 0.0
N2917 N 0.21292 0.326 0.12632 0.0
C2918 C 0.22475 0.35304 0.12663 0.0
C2919 C 0.25426 0.35672 0.13572 0.0
C2920 C 0.38504 0.15645 0.25459 0.0
C2921 C 0.36316 0.1411 0.23884 0.0
C2922 C 0.38071 0.16607 0.28217 0.0
C2923 C 0.35464 0.15986 0.29535 0.0
H2924 H 0.40632 0.15952 0.24637 0.0
H2925 H 0.39904 0.17497 0.29454 0.0
S2926 S 0.28838 0.12725 0.26079 0.0
N2927 N 0.31268 0.12569 0.23619 0.0
N2928 N 0.30484 0.14306 0.28874 0.0
C2929 C 0.33143 0.14827 0.27855 0.0
C2930 C 0.33572 0.13872 0.25015 0.0
C2931 C 0.36478 0.89885 0.7487 0.0
C2932 C 0.37574 0.87665 0.73254 0.0
C2933 C 0.3698 0.90121 0.77812 0.0
C2934 C 0.38561 0.88124 0.79252 0.0
H2935 H 0.35346 0.91555 0.73847 0.0
H2936 H 0.36278 0.91969 0.78925 0.0
S2937 S 0.41241 0.81518 0.76174 0.0
N2938 N 0.39884 0.83177 0.73418 0.0
N2939 N 0.40724 0.83552 0.78967 0.0
C2940 C 0.39388 0.85727 0.77724 0.0
C2941 C 0.38917 0.85509 0.7472 0.0
C2942 C 0.6687 0.87545 0.24215 0.0
C2943 C 0.64116 0.87397 0.22925 0.0
C2944 C 0.67245 0.87186 0.27172 0.0
C2945 C 0.64876 0.8662 0.28897 0.0
H2946 H 0.68718 0.88121 0.22969 0.0
H2947 H 0.69361 0.87573 0.28135 0.0
S2948 S 0.57302 0.85479 0.26489 0.0
N2949 N 0.59044 0.8626 0.23578 0.0
N2950 N 0.59768 0.85538 0.29067 0.0
C2951 C 0.62163 0.86198 0.27587 0.0
C2952 C 0.61775 0.86607 0.24617 0.0
C2953 C 0.63447 0.16072 0.7653 0.0
C2954 C 0.65642 0.14822 0.78121 0.0
C2955 C 0.63098 0.1564 0.7359 0.0
C2956 C 0.64945 0.13963 0.72109 0.0
H2957 H 0.61913 0.17334 0.77566 0.0
H2958 H 0.61313 0.16555 0.72492 0.0
S2959 S 0.71377 0.1069 0.75148 0.0
N2960 N 0.6991 0.12144 0.77911 0.0
N2961 N 0.69306 0.11392 0.72375 0.0
C2962 C 0.67275 0.12874 0.7363 0.0
C2963 C 0.67616 0.13295 0.76633 0.0
C2964 C 0.87338 0.76783 0.63392 0.0
C2965 C 0.88283 0.78408 0.65799 0.0
C2966 C 0.87297 0.73818 0.63419 0.0
C2967 C 0.88177 0.72404 0.65865 0.0
H2968 H 0.86751 0.7781 0.61435 0.0
H2969 H 0.86782 0.72641 0.6146 0.0
S2970 S 0.90546 0.75663 0.72803 0.0
N2971 N 0.89866 0.7839 0.70758 0.0
N2972 N 0.89798 0.72789 0.70815 0.0
C2973 C 0.8891 0.73986 0.68351 0.0
C2974 C 0.8895 0.77007 0.68322 0.0
C2975 C 0.75741 0.31758 0.15093 0.0
C2976 C 0.76358 0.34217 0.16754 0.0
C2977 C 0.72904 0.30887 0.14387 0.0
C2978 C 0.70641 0.32435 0.15361 0.0
H2979 H 0.77441 0.30697 0.14085 0.0
H2980 H 0.72493 0.29211 0.12805 0.0
S2981 S 0.71181 0.38578 0.20347 0.0
N2982 N 0.74525 0.37845 0.19802 0.0
N2983 N 0.6918 0.36184 0.1848 0.0
C2984 C 0.71233 0.34627 0.1736 0.0
C2985 C 0.74113 0.3554 0.18044 0.0
C2986 C 0.1489 0.23688 0.63906 0.0
C2987 C 0.12407 0.22136 0.6286 0.0
C2988 C 0.15433 0.26564 0.632 0.0
C2989 C 0.13608 0.27918 0.6129 0.0
H2990 H 0.16401 0.22694 0.65309 0.0
H2991 H 0.17252 0.27751 0.64196 0.0
S2992 S 0.06764 0.24916 0.58093 0.0
N2993 N 0.07944 0.22358 0.60096 0.0
N2994 N 0.09252 0.27534 0.58382 0.0
C2995 C 0.11189 0.26371 0.60162 0.0
C2996 C 0.10506 0.23547 0.61059 0.0
C2997 C 0.24243 0.63061 0.14917 0.0
C2998 C 0.22624 0.65217 0.13779 0.0
C2999 C 0.26978 0.63672 0.16069 0.0
C3000 C 0.28206 0.66463 0.16086 0.0
H3001 H 0.23429 0.60871 0.14865 0.0
H3002 H 0.28232 0.61915 0.16724 0.0
S3003 S 0.24635 0.7295 0.13845 0.0
N3004 N 0.22253 0.70301 0.13125 0.0
N3005 N 0.27441 0.71474 0.15269 0.0
C3006 C 0.26495 0.68688 0.15245 0.0
C3007 C 0.23695 0.68055 0.14072 0.0
C3008 C 0.83094 0.21964 0.34763 0.0
C3009 C 0.81591 0.21333 0.3723 0.0
C3010 C 0.83714 0.24794 0.34024 0.0
C3011 C 0.8278 0.27026 0.35697 0.0
H3012 H 0.84073 0.20296 0.336 0.0
H3013 H 0.85166 0.25242 0.32312 0.0
S3014 S 0.78264 0.26404 0.41996 0.0
N3015 N 0.78798 0.23088 0.41073 0.0
N3016 N 0.79922 0.28425 0.39634 0.0
C3017 C 0.80955 0.26401 0.37932 0.0
C3018 C 0.80368 0.2353 0.38717 0.0
C3019 C 0.25788 0.38373 0.82774 0.0
C3020 C 0.23625 0.39243 0.84549 0.0
C3021 C 0.28697 0.38808 0.83579 0.0
C3022 C 0.29556 0.40201 0.86157 0.0
H3023 H 0.25235 0.37394 0.80722 0.0
H3024 H 0.30277 0.38079 0.82152 0.0
S3025 S 0.24719 0.42971 0.91542 0.0
N3026 N 0.22573 0.41452 0.8907 0.0
N3027 N 0.27956 0.42557 0.90413 0.0
C3028 C 0.27401 0.41099 0.87932 0.0
C3029 C 0.24462 0.40533 0.8718 0.0
C3030 C 0.18222 0.80569 0.33988 0.0
C3031 C 0.20064 0.80985 0.36377 0.0
C3032 C 0.17635 0.77833 0.32854 0.0
C3033 C 0.18925 0.75481 0.34051 0.0
H3034 H 0.16981 0.82288 0.33211 0.0
H3035 H 0.15949 0.77513 0.31235 0.0
S3036 S 0.24339 0.75632 0.39949 0.0
N3037 N 0.2349 0.7897 0.39628 0.0
N3038 N 0.22452 0.73826 0.37438 0.0
C3039 C 0.21059 0.75953 0.36181 0.0
C3040 C 0.21609 0.78721 0.37371 0.0
C3041 C 0.79563 0.61646 0.88808 0.0
C3042 C 0.80689 0.63964 0.90458 0.0
C3043 C 0.76797 0.61586 0.87644 0.0
C3044 C 0.75128 0.63931 0.87946 0.0
H3045 H 0.80845 0.59886 0.88371 0.0
H3046 H 0.75927 0.59663 0.86572 0.0
S3047 S 0.77393 0.70842 0.9141 0.0
N3048 N 0.80148 0.68853 0.9193 0.0
N3049 N 0.74952 0.68832 0.89593 0.0
C3050 C 0.76348 0.66406 0.89303 0.0
C3051 C 0.79145 0.66415 0.90582 0.0
C3052 C 0.63513 0.90894 0.76995 0.0
C3053 C 0.65587 0.89399 0.78482 0.0
C3054 C 0.6239 0.89954 0.74366 0.0
C3055 C 0.63517 0.87675 0.72911 0.0
H3056 H 0.62611 0.92738 0.77933 0.0
H3057 H 0.60673 0.91111 0.73431 0.0
S3058 S 0.69137 0.83126 0.75743 0.0
N3059 N 0.68722 0.85461 0.7832 0.0
N3060 N 0.66898 0.83937 0.73137 0.0
C3061 C 0.6568 0.86204 0.74307 0.0
C3062 C 0.6669 0.87046 0.77112 0.0
C3063 C 0.62308 0.1697 0.2453 0.0
C3064 C 0.6438 0.15928 0.22756 0.0
C3065 C 0.6268 0.16974 0.27482 0.0
C3066 C 0.65161 0.15973 0.28758 0.0
H3067 H 0.60311 0.17639 0.23634 0.0
H3068 H 0.60932 0.17578 0.28772 0.0
S3069 S 0.71451 0.13513 0.25001 0.0
N3070 N 0.6914 0.14233 0.22425 0.0
N3071 N 0.69915 0.14295 0.28002 0.0
C3072 C 0.67397 0.15234 0.26992 0.0
C3073 C 0.66988 0.15198 0.23972 0.0
C3074 C 0.41013 0.12535 0.73959 0.0
C3075 C 0.39303 0.14319 0.7235 0.0
C3076 C 0.40742 0.12272 0.76873 0.0
C3077 C 0.38875 0.13914 0.78386 0.0
H3078 H 0.4255 0.11248 0.72962 0.0
H3079 H 0.42081 0.10793 0.77945 0.0
S3080 S 0.33944 0.18996 0.75226 0.0
N3081 N 0.35608 0.17741 0.72477 0.0
N3082 N 0.35266 0.17423 0.78058 0.0
C3083 C 0.37166 0.15756 0.76832 0.0
C3084 C 0.37365 0.15943 0.73803 0.0
C3085 C 0.33051 0.85496 0.2578 0.0
C3086 C 0.3498 0.84009 0.24209 0.0
C3087 C 0.33066 0.85291 0.28749 0.0
C3088 C 0.35067 0.8366 0.30186 0.0
H3089 H 0.31782 0.8707 0.24759 0.0
H3090 H 0.31811 0.86732 0.2993 0.0
S3091 S 0.40025 0.78846 0.26937 0.0
N3092 N 0.38473 0.80397 0.2421 0.0
N3093 N 0.38603 0.80135 0.29815 0.0
C3094 C 0.3671 0.81875 0.28606 0.0
C3095 C 0.36644 0.82026 0.25593 0.0
C3096 C 0.07286 0.07858 0.52446 0.0
C3097 C 0.10077 0.07468 0.53526 0.0
C3098 C 0.06702 0.08052 0.49521 0.0
C3099 C 0.0886 0.07756 0.47554 0.0
H3100 H 0.05603 0.08326 0.53879 0.0
H3101 H 0.04604 0.08654 0.48811 0.0
S3102 S 0.16318 0.05922 0.49234 0.0
N3103 N 0.14883 0.06273 0.52373 0.0
N3104 N 0.13744 0.06456 0.4686 0.0
C3105 C 0.11541 0.06926 0.48582 0.0
C3106 C 0.12159 0.06811 0.51577 0.0
C3107 C 0.42452 0.70229 0.01811 0.0
C3108 C 0.43501 0.68374 0.99786 0.0
C3109 C 0.41502 0.692 0.0441 0.0
C3110 C 0.41727 0.66333 0.05139 0.0
H3111 H 0.42003 0.72391 0.01258 0.0
H3112 H 0.4044 0.70626 0.05791 0.0
S3113 S 0.4506 0.60825 0.00904 0.0
N3114 N 0.45203 0.63676 0.9888 0.0
N3115 N 0.4357 0.61789 0.03874 0.0
C3116 C 0.43152 0.64562 0.03314 0.0
C3117 C 0.44039 0.65586 1.00621 0.0
C3118 C 0.94844 0.92661 0.5157 0.0
C3119 C 0.92651 0.93263 0.49597 0.0
C3120 C 0.94343 0.92519 0.54488 0.0
C3121 C 0.9163 0.92972 0.55556 0.0
H3122 H 0.96885 0.92032 0.50834 0.0
H3123 H 0.9602 0.91786 0.55886 0.0
S3124 S 0.85338 0.95189 0.51354 0.0
N3125 N 0.87809 0.94801 0.48975 0.0
N3126 N 0.86857 0.9448 0.54461 0.0
C3127 C 0.89529 0.93925 0.53656 0.0
C3128 C 0.90045 0.94087 0.50672 0.0
C3129 C 0.61267 0.39911 0.97833 0.0
C3130 C 0.61024 0.37501 0.96039 0.0
C3131 C 0.606 0.39691 1.00699 0.0
C3132 C 0.5972 0.37048 0.01824 0.0
H3133 H 0.62298 0.41883 0.97106 0.0
H3134 H 0.6117 0.41486 0.02106 0.0
S3135 S 0.58151 0.30286 0.97865 0.0
N3136 N 0.59328 0.32551 0.95442 0.0
N3137 N 0.58141 0.32123 1.00875 0.0
C3138 C 0.59068 0.3474 0.99967 0.0
C3139 C 0.59711 0.34971 0.97041 0.0
C3140 C 0.12888 0.92135 0.53163 0.0
C3141 C 0.15247 0.92316 0.55083 0.0
C3142 C 0.13279 0.92329 0.50234 0.0
C3143 C 0.16039 0.92674 0.49172 0.0
H3144 H 0.10781 0.91494 0.53901 0.0
H3145 H 0.11462 0.91834 0.48799 0.0
S3146 S 0.22832 0.93775 0.5334 0.0
N3147 N 0.20363 0.93319 0.55755 0.0
N3148 N 0.211 0.93621 0.50226 0.0
C3149 C 0.18362 0.93231 0.51077 0.0
C3150 C 0.17961 0.93075 0.54059 0.0
C3151 C 0.59683 0.63527 0.98937 0.0
C3152 C 0.60431 0.61386 0.97037 0.0
C3153 C 0.59482 0.62986 0.01867 0.0
C3154 C 0.60044 0.60296 0.02975 0.0
H3155 H 0.5955 0.65695 0.98215 0.0
H3156 H 0.59195 0.6476 0.03293 0.0
S3157 S 0.6144 0.53835 0.98796 0.0
N3158 N 0.61205 0.5636 0.96401 0.0
N3159 N 0.60876 0.55366 0.01885 0.0
C3160 C 0.60438 0.58067 0.01047 0.0
C3161 C 0.60619 0.58608 0.9808 0.0
C3162 C 0.83097 0.07131 0.49829 0.0
C3163 C 0.85423 0.07787 0.48086 0.0
C3164 C 0.83409 0.07409 0.5279 0.0
C3165 C 0.86046 0.08377 0.54041 0.0
H3166 H 0.8096 0.06809 0.48893 0.0
H3167 H 0.8151 0.07243 0.54051 0.0
S3168 S 0.92903 0.09636 0.5044 0.0
N3169 N 0.9054 0.08808 0.47845 0.0
N3170 N 0.91114 0.09422 0.53411 0.0
C3171 C 0.88458 0.08606 0.52356 0.0
C3172 C 0.8815 0.08263 0.49359 0.0
C3173 C 0.4319 0.38829 1.00279 0.0
C3174 C 0.42886 0.41443 0.98904 0.0
C3175 C 0.42818 0.3859 0.03228 0.0
C3176 C 0.42129 0.40959 0.04863 0.0
H3177 H 0.43391 0.36905 0.99037 0.0
H3178 H 0.42773 0.36494 0.04164 0.0
S3179 S 0.41767 0.48376 0.02362 0.0
N3180 N 0.42345 0.4651 0.99465 0.0
N3181 N 0.41713 0.46078 0.04993 0.0
C3182 C 0.42193 0.43637 0.03565 0.0
C3183 C 0.42557 0.43875 1.00582 0.0
C3184 C 0.50654 0.14552 0.09082 0.0
C3185 C 0.52244 0.12125 0.09423 0.0
C3186 C 0.47657 0.14361 0.09154 0.0
C3187 C 0.46165 0.11746 0.09662 0.0
H3188 H 0.51745 0.16643 0.09002 0.0
H3189 H 0.46544 0.16314 0.09153 0.0
S3190 S 0.49306 0.04721 0.10295 0.0
N3191 N 0.52087 0.06989 0.09897 0.0
N3192 N 0.46465 0.06637 0.10152 0.0
C3193 C 0.47713 0.09272 0.09726 0.0
C3194 C 0.50756 0.0946 0.0958 0.0
C3195 C 0.4102 0.98994 0.58086 0.0
C3196 C 0.38303 0.97595 0.58269 0.0
C3197 C 0.41326 0.01978 0.57954 0.0
C3198 C 0.38926 0.03644 0.5794 0.0
H3199 H 0.42921 0.97816 0.58392 0.0
H3200 H 0.43457 0.02998 0.58155 0.0
S3201 S 0.31346 1.00937 0.57926 0.0
N3202 N 0.33176 0.98046 0.58095 0.0
N3203 N 0.33745 0.03637 0.57743 0.0
C3204 C 0.36199 0.02239 0.57768 0.0
C3205 C 0.3589 0.99211 0.57964 0.0
C3206 C 0.48053 0.85458 0.11017 0.0
C3207 C 0.46677 0.88024 0.11262 0.0
C3208 C 0.50916 0.85449 0.10232 0.0
C3209 C 0.52496 0.88018 0.09749 0.0
H3210 H 0.46969 0.8347 0.11628 0.0
H3211 H 0.51976 0.83467 0.10342 0.0
S3212 S 0.49728 0.95241 0.0969 0.0
N3213 N 0.46967 0.93132 0.10585 0.0
N3214 N 0.52369 0.93138 0.09173 0.0
C3215 C 0.51048 0.90556 0.09699 0.0
C3216 C 0.48128 0.90557 0.10458 0.0
C3217 C 0.66337 0.99804 0.5781 0.0
C3218 C 0.6437 0.01838 0.58508 0.0
C3219 C 0.65445 0.96926 0.57387 0.0
C3220 C 0.62566 0.95996 0.57683 0.0
H3221 H 0.68611 1.00369 0.57879 0.0
H3222 H 0.67067 0.95391 0.57216 0.0
S3223 S 0.56482 1.00569 0.58565 0.0
N3224 N 0.59333 0.02803 0.58719 0.0
N3225 N 0.5769 0.97389 0.58026 0.0
C3226 C 0.60542 0.98065 0.57902 0.0
C3227 C 0.61438 0.00992 0.58304 0.0
C3228 C 0.52397 0.92054 0.92875 0.0
C3229 C 0.51166 0.89264 0.92806 0.0
C3230 C 0.55353 0.92569 0.93254 0.0
C3231 C 0.57172 0.90303 0.93485 0.0
H3232 H 0.51105 0.93822 0.92346 0.0
H3233 H 0.56247 0.94721 0.9297 0.0
S3234 S 0.54908 0.82645 0.93924 0.0
N3235 N 0.51893 0.84252 0.93457 0.0
N3236 N 0.57478 0.85203 0.9407 0.0
C3237 C 0.55924 0.87537 0.93796 0.0
C3238 C 0.52901 0.87018 0.93454 0.0
C3239 C 0.65558 1.00141 0.4158 0.0
C3240 C 0.63511 0.98027 0.42337 0.0
C3241 C 0.64726 0.02844 0.4087 0.0
C3242 C 0.61846 0.03529 0.40974 0.0
H3243 H 0.67733 0.99613 0.41192 0.0
H3244 H 0.66327 0.04353 0.4007 0.0
S3245 S 0.55794 0.98846 0.43356 0.0
N3246 N 0.58577 0.9685 0.43524 0.0
N3247 N 0.57031 0.02006 0.4229 0.0
C3248 C 0.59846 0.01534 0.42059 0.0
C3249 C 0.60684 0.9876 0.42734 0.0
C3250 C 0.51576 0.13448 0.9265 0.0
C3251 C 0.49589 0.15564 0.92768 0.0
C3252 C 0.54499 0.14167 0.9244 0.0
C3253 C 0.55527 0.17034 0.92283 0.0
H3254 H 0.5084 0.1123 0.92408 0.0
H3255 H 0.55905 0.12461 0.92085 0.0
S3256 S 0.51256 0.23344 0.93312 0.0
N3257 N 0.48889 0.20605 0.93339 0.0
N3258 N 0.54391 0.2198 0.92935 0.0
C3259 C 0.53609 0.19153 0.92847 0.0
C3260 C 0.50627 0.18411 0.93086 0.0
C3261 C 0.42004 0.99708 0.40476 0.0
C3262 C 0.40035 0.97381 0.40654 0.0
C3263 C 0.41081 0.02473 0.40644 0.0
C3264 C 0.3816 0.02976 0.40941 0.0
H3265 H 0.44217 0.99394 0.40024 0.0
H3266 H 0.42642 0.04227 0.4036 0.0
S3267 S 0.32267 0.97531 0.41889 0.0
N3268 N 0.35133 0.95706 0.41492 0.0
N3269 N 0.33387 1.00916 0.4173 0.0
C3270 C 0.36226 1.0066 0.41372 0.0
C3271 C 0.37171 0.97849 0.41228 0.0
C3272 C 0.09006 0.49609 0.05857 0.0
C3273 C 0.0823 0.48241 0.08395 0.0
C3274 C 0.09199 0.52572 0.0569 0.0
C3275 C 0.08583 0.54264 0.08037 0.0
H3276 H 0.09712 0.48396 0.04068 0.0
H3277 H 0.10126 0.53543 0.03823 0.0
S3278 S 0.05824 0.51738 0.14924 0.0
N3279 N 0.06363 0.48795 0.13127 0.0
N3280 N 0.06677 0.54394 0.1278 0.0
C3281 C 0.07411 0.52932 0.10433 0.0
C3282 C 0.07247 0.49901 0.10622 0.0
C3283 C 0.09934 0.52514 0.82291 0.0
C3284 C 0.10334 0.53828 0.8497 0.0
C3285 C 0.09186 0.49602 0.82072 0.0
C3286 C 0.08807 0.47957 0.84529 0.0
H3287 H 0.10531 0.53654 0.80389 0.0
H3288 H 0.09266 0.48573 0.80006 0.0
S3289 S 0.08832 0.50633 0.91959 0.0
N3290 N 0.09755 0.53458 0.90062 0.0
N3291 N 0.0823 0.47984 0.89648 0.0
C3292 C 0.08727 0.49358 0.8717 0.0
C3293 C 0.09554 0.52308 0.87397 0.0
C3294 C 0.05453 0.60863 0.35196 0.0
C3295 C 0.07325 0.61604 0.3751 0.0
C3296 C 0.02499 0.60498 0.35566 0.0
C3297 C 0.01351 0.60945 0.38247 0.0
H3298 H 0.06244 0.60852 0.33055 0.0
H3299 H 0.01099 0.60225 0.33695 0.0
S3300 S 0.05389 0.62512 0.4502 0.0
N3301 N 0.0787 0.62372 0.4261 0.0
N3302 N 0.02306 0.61809 0.43289 0.0
C3303 C 0.03224 0.61386 0.40613 0.0
C3304 C 0.06227 0.61689 0.40246 0.0
C3305 C 0.95034 0.52409 0.95161 0.0
C3306 C 0.94979 0.54825 0.93438 0.0
C3307 C 0.95723 0.49776 0.94032 0.0
C3308 C 0.96233 0.49462 0.91112 0.0
H3309 H 0.94301 0.525 0.97321 0.0
H3310 H 0.95478 0.47921 0.95369 0.0
S3311 S 0.96802 0.55251 0.85843 0.0
N3312 N 0.95929 0.56845 0.8881 0.0
N3313 N 0.97087 0.51868 0.86648 0.0
C3314 C 0.96502 0.51929 0.8946 0.0
C3315 C 0.95884 0.54621 0.90631 0.0
C3316 C 0.99891 0.41087 0.35537 0.0
C3317 C 0.01648 0.40939 0.37989 0.0
C3318 C 0.96923 0.40709 0.35715 0.0
C3319 C 0.95642 0.40238 0.38347 0.0
H3320 H 1.00811 0.41171 0.3345 0.0
H3321 H 0.95647 0.40517 0.33762 0.0
S3322 S 0.99296 0.40247 0.45422 0.0
N3323 N 0.01901 0.4075 0.43158 0.0
N3324 N 0.96297 0.40047 0.43474 0.0
C3325 C 0.9735 0.4044 0.40837 0.0
C3326 C 1.00373 0.40794 0.40659 0.0
C3327 C 0.90935 0.47056 0.19651 0.0
C3328 C 0.90629 0.46235 0.16774 0.0
C3329 C 0.91441 0.49916 0.20436 0.0
C3330 C 0.91587 0.52042 0.18357 0.0
H3331 H 0.90499 0.45513 0.21303 0.0
H3332 H 0.91375 0.50473 0.22672 0.0
S3333 S 0.91571 0.50874 0.10537 0.0
N3334 N 0.91007 0.47656 0.11855 0.0
N3335 N 0.91972 0.53061 0.13307 0.0
C3336 C 0.91678 0.51191 0.15477 0.0
C3337 C 0.9118 0.4827 0.14686 0.0
C3338 C 0.98428 0.41458 0.59826 0.0
C3339 C 0.96996 0.41376 0.62419 0.0
C3340 C 0.01408 0.41376 0.5977 0.0
C3341 C 0.03037 0.41181 0.62304 0.0
H3342 H 0.97219 0.41302 0.57824 0.0
H3343 H 0.02405 0.41194 0.57731 0.0
S3344 S 1.004 0.41504 0.69641 0.0
N3345 N 0.97488 0.4158 0.67581 0.0
N3346 N 0.03094 0.41394 0.67465 0.0
C3347 C 0.01677 0.41445 0.64905 0.0
C3348 C 0.98645 0.4157 0.64966 0.0
C3349 C 0.03818 0.57513 0.62333 0.0
C3350 C 0.04829 0.5714 0.65159 0.0
C3351 C 0.01079 0.58461 0.61771 0.0
C3352 C 0.99239 0.58913 0.64001 0.0
H3353 H 0.0527 0.57461 0.60589 0.0
H3354 H 1.00516 0.59108 0.59631 0.0
S3355 S 1.004 0.57125 0.71571 0.0
N3356 N 0.03447 0.56491 0.70078 0.0
N3357 N 0.98267 0.58175 0.68979 0.0
C3358 C 1.00004 0.58002 0.66731 0.0
C3359 C 0.02807 0.57087 0.67318 0.0
C3360 C 0.96025 0.08469 0.40824 0.0
C3361 C 0.94192 0.10248 0.39325 0.0
C3362 C 0.9903 0.08648 0.40485 0.0
C3363 C 1.00374 0.1072 0.38739 0.0
H3364 H 0.9513 0.0697 0.42337 0.0
H3365 H 1.00327 0.07271 0.41747 0.0
S3366 S 0.96588 0.16039 0.34497 0.0
N3367 N 0.93985 0.1418 0.36052 0.0
N3368 N 0.9959 0.14638 0.35545 0.0
C3369 C 0.98564 0.12527 0.3725 0.0
C3370 C 0.95499 0.12272 0.37518 0.0
C3371 C 0.37835 0.51355 0.89999 0.0
C3372 C 0.38502 0.49598 0.87676 0.0
C3373 C 0.37691 0.54323 0.89786 0.0
C3374 C 0.38257 0.55804 0.87256 0.0
H3375 H 0.37357 0.50437 0.92044 0.0
H3376 H 0.3711 0.5547 0.91665 0.0
S3377 S 0.40208 0.52352 0.80497 0.0
N3378 N 0.39783 0.49653 0.82702 0.0
N3379 N 0.39592 0.55256 0.82335 0.0
C3380 C 0.39006 0.54122 0.84908 0.0
C3381 C 0.39104 0.51039 0.85109 0.0
C3382 C 0.05233 0.93142 0.40999 0.0
C3383 C 0.0686 0.90767 0.40474 0.0
C3384 C 0.02182 0.92927 0.40891 0.0
C3385 C 1.00615 0.90315 0.40282 0.0
H3386 H 0.06325 0.95143 0.41649 0.0
H3387 H 0.01052 0.94788 0.41436 0.0
S3388 S 0.03881 0.83511 0.38526 0.0
N3389 N 0.06654 0.85774 0.39164 0.0
N3390 N 0.01028 0.85349 0.3894 0.0
C3391 C 0.02247 0.87965 0.39636 0.0
C3392 C 0.05325 0.88193 0.39747 0.0
C3393 C 0.6831 0.51004 0.82331 0.0
C3394 C 0.67109 0.48752 0.8398 0.0
C3395 C 0.67881 0.53915 0.82938 0.0
C3396 C 0.66246 0.54742 0.85248 0.0
H3397 H 0.69639 0.5052 0.80567 0.0
H3398 H 0.68926 0.55531 0.81644 0.0
S3399 S 0.62599 0.49709 0.90244 0.0
N3400 N 0.64181 0.47615 0.88027 0.0
N3401 N 0.63357 0.5298 0.89156 0.0
C3402 C 0.64987 0.52498 0.86876 0.0
C3403 C 0.65419 0.4955 0.8625 0.0
C3404 C 1.00019 0.88562 0.65781 0.0
C3405 C 0.97874 0.87158 0.67404 0.0
C3406 C 0.02968 0.88151 0.66238 0.0
C3407 C 0.03955 0.8626 0.68308 0.0
H3408 H 0.99403 0.8994 0.64065 0.0
H3409 H 0.04479 0.89254 0.64874 0.0
S3410 S 0.99253 0.82047 0.73171 0.0
N3411 N 0.96995 0.83826 0.71217 0.0
N3412 N 0.02475 0.83016 0.72067 0.0
C3413 C 0.01835 0.84888 0.69996 0.0
C3414 C 0.98829 0.85345 0.69552 0.0
C3415 C 0.5966 0.47823 0.11043 0.0
C3416 C 0.62 0.46057 0.11018 0.0
C3417 C 0.60053 0.50834 0.11447 0.0
C3418 C 0.62802 0.52222 0.11887 0.0
H3419 H 0.57521 0.46893 0.10617 0.0
H3420 H 0.58193 0.5209 0.11305 0.0
S3421 S 0.69597 0.48498 0.12394 0.0
N3422 N 0.67129 0.4592 0.11709 0.0
N3423 N 0.6787 0.51447 0.12549 0.0
C3424 C 0.65127 0.5043 0.12031 0.0
C3425 C 0.64727 0.474 0.11574 0.0
C3426 C 0.98669 0.10727 0.65438 0.0
C3427 C 0.97485 0.13257 0.6634 0.0
C3428 C 0.01665 0.10557 0.65157 0.0
C3429 C 0.03639 0.12873 0.65853 0.0
H3430 H 0.97264 0.08923 0.64762 0.0
H3431 H 0.02437 0.08624 0.64272 0.0
S3432 S 0.01677 0.19937 0.68459 0.0
N3433 N 0.98575 0.1811 0.68014 0.0
N3434 N 0.04143 0.17746 0.67587 0.0
C3435 C 0.02489 0.15357 0.66903 0.0
C3436 C 0.99442 0.15558 0.67115 0.0
C3437 C 0.37723 0.52985 0.13302 0.0
C3438 C 0.40468 0.54333 0.13035 0.0
C3439 C 0.37279 0.50017 0.13661 0.0
C3440 C 0.39542 0.48146 0.13703 0.0
H3441 H 0.35862 0.54243 0.13182 0.0
H3442 H 0.35088 0.49174 0.13791 0.0
S3443 S 0.47212 0.50562 0.13193 0.0
N3444 N 0.45536 0.53552 0.12976 0.0
N3445 N 0.44711 0.47976 0.13555 0.0
C3446 C 0.42327 0.49474 0.1353 0.0
C3447 C 0.42784 0.52543 0.13216 0.0
C3448 C 0.37577 0.0229 0.16001 0.0
C3449 C 0.37304 0.04007 0.13556 0.0
C3450 C 0.37877 0.99325 0.15833 0.0
C3451 C 0.37833 0.97837 0.13218 0.0
H3452 H 0.37697 0.03261 0.18101 0.0
H3453 H 0.38216 0.98187 0.17796 0.0
S3454 S 0.36954 0.01162 0.06138 0.0
N3455 N 0.36879 0.03874 0.08389 0.0
N3456 N 0.37335 0.983 0.08094 0.0
C3457 C 0.37399 0.99465 0.10748 0.0
C3458 C 0.37152 0.02528 0.10912 0.0
C3459 C 0.48801 0.85568 0.62398 0.0
C3460 C 0.47589 0.85336 0.65107 0.0
C3461 C 0.51815 0.85637 0.62059 0.0
C3462 C 0.53756 0.85368 0.64394 0.0
H3463 H 0.47429 0.85884 0.60548 0.0
H3464 H 0.52639 0.86017 0.59961 0.0
S3465 S 0.51712 0.84626 0.71914 0.0
N3466 N 0.48624 0.84803 0.70159 0.0
N3467 N 0.54195 0.84809 0.69496 0.0
C3468 C 0.52557 0.85009 0.67082 0.0
C3469 C 0.49512 0.85021 0.67442 0.0
C3470 C 0.62379 0.01347 0.11774 0.0
C3471 C 0.6115 0.02197 0.09163 0.0
C3472 C 0.62709 0.98438 0.12412 0.0
C3473 C 0.61879 0.96202 0.10461 0.0
H3474 H 0.63007 0.02937 0.13389 0.0
H3475 H 0.6357 0.97936 0.14498 0.0
S3476 S 0.58706 0.9725 0.03235 0.0
N3477 N 0.59207 1.00511 0.04555 0.0
N3478 N 0.59863 0.95124 0.05732 0.0
C3479 C 0.60746 0.97035 0.07802 0.0
C3480 C 0.60372 0.99992 0.07165 0.0
C3481 C 0.51968 0.18059 0.65311 0.0
C3482 C 0.53944 0.16384 0.63935 0.0
C3483 C 0.48961 0.17516 0.64976 0.0
C3484 C 0.47756 0.15225 0.63292 0.0
H3485 H 0.52751 0.19792 0.66709 0.0
H3486 H 0.47574 0.18828 0.66153 0.0
S3487 S 0.51932 0.10231 0.59131 0.0
N3488 N 0.54406 0.1239 0.60711 0.0
N3489 N 0.48833 0.1133 0.60138 0.0
C3490 C 0.49706 0.13574 0.61854 0.0
C3491 C 0.52762 0.1416 0.62155 0.0
C3492 C 0.35972 0.04352 0.86552 0.0
C3493 C 0.38505 0.05656 0.878 0.0
C3494 C 0.35501 0.0134 0.86344 0.0
C3495 C 0.37513 0.99444 0.87405 0.0
H3496 H 0.34369 0.05668 0.85638 0.0
H3497 H 0.33537 1.0049 0.85305 0.0
S3498 S 0.44473 0.017 0.9096 0.0
N3499 N 0.43037 0.04727 0.90185 0.0
N3500 N 0.42135 0.9916 0.89808 0.0
C3501 C 0.40018 1.00718 0.88723 0.0
C3502 C 0.40514 0.03777 0.88913 0.0
C3503 C 0.5587 0.89958 0.43877 0.0
C3504 C 0.56739 0.88445 0.41477 0.0
C3505 C 0.52947 0.90352 0.44367 0.0
C3506 C 0.5072 0.89207 0.4252 0.0
H3507 H 0.57467 0.90974 0.45323 0.0
H3508 H 0.52434 0.91617 0.46198 0.0
S3509 S 0.51788 0.84917 0.36011 0.0
N3510 N 0.55064 0.85696 0.37283 0.0
N3511 N 0.49633 0.86379 0.38241 0.0
C3512 C 0.51551 0.87585 0.40182 0.0
C3513 C 0.54527 0.87221 0.39656 0.0
C3514 C 0.7078 0.02897 0.8507 0.0
C3515 C 0.6919 0.04947 0.86456 0.0
C3516 C 0.70274 0.99924 0.85477 0.0
C3517 C 0.68114 0.98826 0.87259 0.0
H3518 H 0.72413 0.03592 0.83608 0.0
H3519 H 0.71505 0.98472 0.84285 0.0
S3520 S 0.63402 0.03237 0.91496 0.0
N3521 N 0.65427 0.05604 0.89791 0.0
N3522 N 0.64449 1.00093 0.90524 0.0
C3523 C 0.6656 1.00857 0.88714 0.0
C3524 C 0.67101 0.03879 0.88326 0.0
C3525 C 0.46396 0.13806 0.40218 0.0
C3526 C 0.44281 0.12285 0.41788 0.0
C3527 C 0.49344 0.13309 0.40522 0.0
C3528 C 0.50347 0.1123 0.42383 0.0
H3529 H 0.45759 0.15334 0.38651 0.0
H3530 H 0.50836 0.14499 0.39206 0.0
S3531 S 0.4576 0.06752 0.47125 0.0
N3532 N 0.43481 0.08697 0.45391 0.0
N3533 N 0.48945 0.07747 0.45954 0.0
C3534 C 0.48268 0.09766 0.44042 0.0
C3535 C 0.45272 0.10299 0.43754 0.0
C3536 C 0.10061 0.37373 0.96324 0.0
C3537 C 0.08585 0.39552 0.94997 0.0
C3538 C 0.10221 0.37111 0.99332 0.0
C3539 C 0.08845 0.38959 0.01171 0.0
H3540 H 0.1126 0.3597 0.95041 0.0
H3541 H 0.1153 0.35505 1.00234 0.0
S3542 S 0.04631 0.4498 0.98782 0.0
N3543 N 0.05698 0.43582 0.95787 0.0
N3544 N 0.05887 0.43013 0.01372 0.0
C3545 C 0.07248 0.41059 0.99857 0.0
C3546 C 0.07155 0.41376 0.96802 0.0
C3547 C 0.16271 0.68694 0.99031 0.0
C3548 C 0.15306 0.66747 0.96835 0.0
C3549 C 0.15919 0.68092 0.01967 0.0
C3550 C 0.14632 0.65483 0.02869 0.0
H3551 H 0.17361 0.70696 0.98482 0.0
H3552 H 0.16784 0.69629 0.0354 0.0
S3553 S 0.11618 0.59674 0.98048 0.0
N3554 N 0.12879 0.62126 0.95852 0.0
N3555 N 0.12289 0.60979 0.01286 0.0
C3556 C 0.136 0.6355 1.00698 0.0
C3557 C 0.13913 0.64181 0.9772 0.0
C3558 C 0.922 0.6609 0.51964 0.0
C3559 C 0.89846 0.64963 0.50292 0.0
C3560 C 0.92353 0.6583 0.54948 0.0
C3561 C 0.90141 0.64466 0.56518 0.0
H3562 H 0.93983 0.67197 0.50954 0.0
H3563 H 0.94256 0.66765 0.5603 0.0
S3564 S 0.83454 0.61096 0.53213 0.0
N3565 N 0.85227 0.6235 0.50461 0.0
N3566 N 0.85477 0.61928 0.56076 0.0
C3567 C 0.87757 0.63305 0.54881 0.0
C3568 C 0.87623 0.63531 0.51792 0.0
C3569 C 0.8996 0.37274 1.00482 0.0
C3570 C 0.88208 0.38976 0.9877 0.0
C3571 C 0.89942 0.37369 0.03527 0.0
C3572 C 0.88193 0.39194 0.05026 0.0
H3573 H 0.91377 0.35868 0.99466 0.0
H3574 H 0.91348 0.36036 0.04714 0.0
S3575 S 0.83094 0.44002 0.01608 0.0
N3576 N 0.84578 0.42465 0.98909 0.0
N3577 N 0.8459 0.42673 0.04476 0.0
C3578 C 0.86418 0.40871 0.03328 0.0
C3579 C 0.86413 0.40756 1.00263 0.0
C3580 C 0.09958 0.43798 0.49255 0.0
C3581 C 0.11022 0.41982 0.51374 0.0
C3582 C 0.10104 0.43176 0.46303 0.0
C3583 C 0.11288 0.40679 0.45302 0.0
H3584 H 0.08955 0.45713 0.4988 0.0
H3585 H 0.09168 0.44609 0.44799 0.0
S3586 S 0.14434 0.35214 0.4993 0.0
N3587 N 0.13374 0.37597 0.52204 0.0
N3588 N 0.13623 0.3641 0.46735 0.0
C3589 C 0.12415 0.38876 0.47402 0.0
C3590 C 0.12292 0.39528 0.504 0.0
C3591 C 0.88013 0.67703 0.01294 0.0
C3592 C 0.89584 0.65411 1.00392 0.0
C3593 C 0.87614 0.68272 0.04227 0.0
C3594 C 0.88784 0.66597 0.06417 0.0
H3595 H 0.86957 0.6898 0.99724 0.0
H3596 H 0.86313 0.7001 0.04776 0.0
S3597 S 0.93235 0.60445 0.05212 0.0
N3598 N 0.92438 0.61541 0.01976 0.0
N3599 N 0.91705 0.62608 0.07402 0.0
C3600 C 0.90454 0.64373 0.05534 0.0
C3601 C 0.90845 0.63785 0.02562 0.0
C3602 C 0.87918 0.4152 0.51062 0.0
C3603 C 0.87368 0.3938 0.48943 0.0
C3604 C 0.87831 0.40928 0.54015 0.0
C3605 C 0.87228 0.38149 0.55026 0.0
H3606 H 0.88467 0.43687 0.50437 0.0
H3607 H 0.88368 0.4265 0.55515 0.0
S3608 S 0.85562 0.31753 0.50401 0.0
N3609 N 0.86112 0.34359 0.4812 0.0
N3610 N 0.85981 0.33234 0.53596 0.0
C3611 C 0.86605 0.35999 0.52924 0.0
C3612 C 0.86665 0.36612 0.49921 0.0
C3613 C 0.17645 0.63233 0.51498 0.0
C3614 C 0.16282 0.65269 0.53146 0.0
C3615 C 0.1741 0.63157 0.48449 0.0
C3616 C 0.15792 0.65107 0.46891 0.0
H3617 H 0.18826 0.61627 0.52571 0.0
H3618 H 0.18432 0.61503 0.47313 0.0
S3619 S 0.12109 0.71089 0.50145 0.0
N3620 N 0.13479 0.69442 0.52895 0.0
N3621 N 0.13027 0.69291 0.47324 0.0
C3622 C 0.14532 0.67211 0.48531 0.0
C3623 C 0.14778 0.67293 0.51594 0.0
C3624 C 0.23968 0.0974 0.42478 0.0
C3625 C 0.25377 0.09333 0.39914 0.0
C3626 C 0.20953 0.09783 0.4256 0.0
C3627 C 0.1916 0.09456 0.4008 0.0
H3628 H 0.25202 0.09985 0.44458 0.0
H3629 H 0.20018 0.10071 0.44613 0.0
S3630 S 0.21764 0.08603 0.32762 0.0
N3631 N 0.24711 0.0873 0.34787 0.0
N3632 N 0.191 0.08925 0.34942 0.0
C3633 C 0.20547 0.09145 0.37488 0.0
C3634 C 0.23621 0.09044 0.37407 0.0
C3635 C 0.38066 0.76265 0.8686 0.0
C3636 C 0.40241 0.74606 0.87989 0.0
C3637 C 0.38337 0.79299 0.86907 0.0
C3638 C 0.40803 0.80818 0.88073 0.0
H3639 H 0.36101 0.75214 0.86013 0.0
H3640 H 0.36611 0.80461 0.85995 0.0
S3641 S 0.47096 0.7747 0.91337 0.0
N3642 N 0.44914 0.74738 0.9034 0.0
N3643 N 0.45454 0.80339 0.90397 0.0
C3644 C 0.42988 0.7916 0.89188 0.0
C3645 C 0.42697 0.76097 0.89161 0.0
C3646 C 0.77535 0.9275 0.39062 0.0
C3647 C 0.75702 0.91724 0.41218 0.0
C3648 C 0.80564 0.9278 0.39368 0.0
C3649 C 0.81935 0.91837 0.4187 0.0
H3650 H 0.76621 0.93509 0.37089 0.0
H3651 H 0.81841 0.9353 0.37618 0.0
S3652 S 0.78146 0.8914 0.48264 0.0
N3653 N 0.75538 0.89836 0.4599 0.0
N3654 N 0.81135 0.89967 0.46618 0.0
C3655 C 0.80116 0.90865 0.44066 0.0
C3656 C 0.77043 0.9079 0.4373 0.0
C3657 C 0.6785 0.2537 0.84839 0.0
C3658 C 0.6677 0.23714 0.87111 0.0
C3659 C 0.67838 0.28409 0.84869 0.0
C3660 C 0.66738 0.29927 0.87168 0.0
H3661 H 0.68633 0.24311 0.8299 0.0
H3662 H 0.68721 0.29572 0.83092 0.0
S3663 S 0.63635 0.26562 0.93624 0.0
N3664 N 0.64594 0.23849 0.91706 0.0
N3665 N 0.645 0.29421 0.91766 0.0
C3666 C 0.65655 0.28259 0.89438 0.0
C3667 C 0.65688 0.25207 0.89406 0.0
C3668 C 0.27387 0.85366 0.65544 0.0
C3669 C 0.28852 0.87785 0.64387 0.0
C3670 C 0.24352 0.85139 0.65697 0.0
C3671 C 0.2264 0.87316 0.64697 0.0
H3672 H 0.28591 0.83634 0.66346 0.0
H3673 H 0.23334 0.83203 0.66516 0.0
S3674 S 0.25322 0.94083 0.61481 0.0
N3675 N 0.28243 0.92412 0.62231 0.0
N3676 N 0.22642 0.9195 0.62516 0.0
C3677 C 0.24069 0.89732 0.63554 0.0
C3678 C 0.27132 0.89977 0.63405 0.0
C3679 C 0.59102 0.72133 0.12462 0.0
C3680 C 0.61021 0.70936 0.10595 0.0
C3681 C 0.58747 0.75117 0.1258 0.0
C3682 C 0.60315 0.77089 0.10869 0.0
H3683 H 0.57823 0.70751 0.13815 0.0
H3684 H 0.57214 0.75883 0.14039 0.0
S3685 S 0.6567 0.75121 0.05648 0.0
N3686 N 0.64534 0.7205 0.06994 0.0
N3687 N 0.639 0.7756 0.0727 0.0
C3688 C 0.62268 0.75924 0.0903 0.0
C3689 C 0.62606 0.72893 0.0888 0.0
C3690 C 0.77184 0.13821 0.65812 0.0
C3691 C 0.78641 0.12457 0.63641 0.0
C3692 C 0.74162 0.14034 0.6566 0.0
C3693 C 0.7247 0.12889 0.63335 0.0
H3694 H 0.78391 0.14795 0.67601 0.0
H3695 H 0.73139 0.15044 0.67406 0.0
S3696 S 0.75205 0.09091 0.57117 0.0
N3697 N 0.78096 0.09943 0.59103 0.0
N3698 N 0.72514 0.10319 0.58846 0.0
C3699 C 0.73908 0.1151 0.6118 0.0
C3700 C 0.76953 0.11306 0.61323 0.0
C3701 C 0.37163 0.24257 0.1067 0.0
C3702 C 0.39598 0.22903 0.1169 0.0
C3703 C 0.37062 0.27279 0.10647 0.0
C3704 C 0.39357 0.29135 0.11705 0.0
H3705 H 0.3532 0.22976 0.09856 0.0
H3706 H 0.35142 0.28173 0.09796 0.0
S3707 S 0.46287 0.2678 0.14527 0.0
N3708 N 0.4444 0.23781 0.13681 0.0
N3709 N 0.4416 0.29351 0.13749 0.0
C3710 C 0.41786 0.27822 0.12748 0.0
C3711 C 0.41927 0.24756 0.12709 0.0
C3712 C 0.0688 0.39023 0.2137 0.0
C3713 C 0.08894 0.40922 0.20093 0.0
C3714 C 0.06762 0.38735 0.24374 0.0
C3715 C 0.08666 0.40304 0.26291 0.0
H3716 H 0.0535 0.37765 0.20039 0.0
H3717 H 0.05141 0.37257 0.25198 0.0
S3718 S 0.1444 0.455 0.24089 0.0
N3719 N 0.12896 0.44366 0.21054 0.0
N3720 N 0.1269 0.43789 0.26608 0.0
C3721 C 0.10717 0.42175 0.25038 0.0
C3722 C 0.10824 0.4249 0.21984 0.0
C3723 C 0.17272 0.65298 0.73511 0.0
C3724 C 0.16491 0.62792 0.71906 0.0
C3725 C 0.17127 0.65388 0.76545 0.0
C3726 C 0.16188 0.62974 0.78117 0.0
H3727 H 0.17897 0.67235 0.72408 0.0
H3728 H 0.17771 0.67354 0.77663 0.0
S3729 S 0.1386 0.55899 0.74917 0.0
N3730 N 0.14747 0.57862 0.7216 0.0
N3731 N 0.14434 0.58003 0.77725 0.0
C3732 C 0.15415 0.60467 0.76506 0.0
C3733 C 0.15575 0.60383 0.73458 0.0
C3734 C 0.87414 0.65062 0.26993 0.0
C3735 C 0.89442 0.63915 0.25205 0.0
C3736 C 0.87779 0.65083 0.30015 0.0
C3737 C 0.90195 0.63969 0.31383 0.0
H3738 H 0.85496 0.65882 0.26055 0.0
H3739 H 0.86182 0.66024 0.31283 0.0
S3740 S 0.96102 0.6069 0.2766 0.0
N3741 N 0.93916 0.61605 0.25055 0.0
N3742 N 0.94629 0.61671 0.3063 0.0
C3743 C 0.92225 0.62827 0.29594 0.0
C3744 C 0.91839 0.62787 0.26549 0.0
C3745 C 0.89485 0.36485 0.78979 0.0
C3746 C 0.91097 0.38872 0.8013 0.0
C3747 C 0.88917 0.36155 0.76009 0.0
C3748 C 0.89861 0.38223 0.74021 0.0
H3749 H 0.88609 0.3487 0.80384 0.0
H3750 H 0.87691 0.34258 0.75262 0.0
S3751 S 0.94367 0.44761 0.75815 0.0
N3752 N 0.93825 0.43252 0.78923 0.0
N3753 N 0.92632 0.42665 0.73428 0.0
C3754 C 0.915 0.40597 0.75123 0.0
C3755 C 0.92151 0.40905 0.78136 0.0
C3756 C 0.74111 0.84302 0.63699 0.0
C3757 C 0.72676 0.85972 0.65636 0.0
C3758 C 0.7714 0.84287 0.63733 0.0
C3759 C 0.78908 0.85932 0.65712 0.0
H3760 H 0.72889 0.83016 0.62118 0.0
H3761 H 0.78101 0.82966 0.62173 0.0
S3762 S 0.76254 0.90586 0.71349 0.0
N3763 N 0.73321 0.89254 0.69683 0.0
N3764 N 0.78931 0.89229 0.69706 0.0
C3765 C 0.77499 0.87589 0.67675 0.0
C3766 C 0.74423 0.87605 0.67647 0.0
C3767 C 0.60644 0.22312 0.08446 0.0
C3768 C 0.60982 0.21224 0.11216 0.0
C3769 C 0.605 0.25279 0.07967 0.0
C3770 C 0.60557 0.27287 0.10233 0.0
H3771 H 0.60522 0.20872 0.06632 0.0
H3772 H 0.60397 0.26018 0.05793 0.0
S3773 S 0.6163 0.25666 0.17866 0.0
N3774 N 0.61613 0.22539 0.16253 0.0
N3775 N 0.61107 0.27976 0.1532 0.0
C3776 C 0.60871 0.26234 0.12993 0.0
C3777 C 0.61142 0.23254 0.13489 0.0
C3778 C 0.24391 0.16302 0.62464 0.0
C3779 C 0.22623 0.14798 0.64412 0.0
C3780 C 0.27416 0.16248 0.62589 0.0
C3781 C 0.28854 0.14684 0.64669 0.0
H3782 H 0.23432 0.17551 0.60809 0.0
H3783 H 0.28633 0.17438 0.61029 0.0
S3784 S 0.25275 0.10415 0.7034 0.0
N3785 N 0.226 0.11715 0.68511 0.0
N3786 N 0.28207 0.11623 0.68787 0.0
C3787 C 0.27108 0.13176 0.6664 0.0
C3788 C 0.24031 0.13228 0.66502 0.0
C3789 C 0.37888 0.77287 0.16022 0.0
C3790 C 0.39027 0.79113 0.13927 0.0
C3791 C 0.38321 0.74353 0.16029 0.0
C3792 C 0.39974 0.73054 0.13979 0.0
H3793 H 0.36643 0.78144 0.17699 0.0
H3794 H 0.37289 0.73063 0.17641 0.0
S3795 S 0.4368 0.7689 0.08157 0.0
N3796 N 0.42048 0.79413 0.09822 0.0
N3797 N 0.42886 0.73899 0.09855 0.0
C3798 C 0.41216 0.74861 0.11918 0.0
C3799 C 0.40734 0.77874 0.11884 0.0
C3800 C 0.7071 0.09468 0.41829 0.0
C3801 C 0.69389 0.11943 0.40912 0.0
C3802 C 0.73717 0.09226 0.41679 0.0
C3803 C 0.75511 0.11439 0.40577 0.0
H3804 H 0.69406 0.07677 0.42585 0.0
H3805 H 0.74642 0.07321 0.4247 0.0
S3806 S 0.7312 0.18382 0.37987 0.0
N3807 N 0.7015 0.16653 0.38954 0.0
N3808 N 0.7569 0.16211 0.38643 0.0
C3809 C 0.74195 0.13923 0.39708 0.0
C3810 C 0.71179 0.14173 0.39884 0.0
C3811 C 0.39532 0.29471 0.84865 0.0
C3812 C 0.3746 0.30681 0.86539 0.0
C3813 C 0.39748 0.2648 0.84651 0.0
C3814 C 0.37917 0.24517 0.86109 0.0
H3815 H 0.41005 0.30844 0.83698 0.0
H3816 H 0.41387 0.25704 0.83321 0.0
S3817 S 0.32105 0.26517 0.90788 0.0
N3818 N 0.33505 0.29594 0.89682 0.0
N3819 N 0.33956 0.24058 0.893 0.0
C3820 C 0.35849 0.25694 0.87801 0.0
C3821 C 0.35611 0.28735 0.88007 0.0
C3822 C 0.27608 0.90033 0.43458 0.0
C3823 C 0.25651 0.90444 0.41162 0.0
C3824 C 0.30562 0.89711 0.43041 0.0
C3825 C 0.31689 0.89681 0.40293 0.0
H3826 H 0.26833 0.89901 0.45602 0.0
H3827 H 0.31957 0.89435 0.44883 0.0
S3828 S 0.27371 0.90412 0.33535 0.0
N3829 N 0.25044 0.90708 0.36061 0.0
N3830 N 0.30448 0.89962 0.35207 0.0
C3831 C 0.29709 0.90053 0.37979 0.0
C3832 C 0.26744 0.90469 0.38428 0.0
C3833 C 0.68938 0.75606 0.88423 0.0
C3834 C 0.67323 0.73742 0.86515 0.0
C3835 C 0.68904 0.78609 0.88239 0.0
C3836 C 0.67238 0.79924 0.86146 0.0
H3837 H 0.70262 0.74743 0.90092 0.0
H3838 H 0.70177 0.79908 0.89773 0.0
S3839 S 0.62667 0.76061 0.80556 0.0
N3840 N 0.64045 0.73493 0.8242 0.0
N3841 N 0.63968 0.79066 0.82055 0.0
C3842 C 0.65625 0.78084 0.84209 0.0
C3843 C 0.65669 0.75028 0.84396 0.0
C3844 C 0.87211 0.61787 0.79568 0.0
C3845 C 0.88526 0.63888 0.81445 0.0
C3846 C 0.87286 0.6203 0.76556 0.0
C3847 C 0.88662 0.64403 0.75251 0.0
H3848 H 0.86107 0.59917 0.80431 0.0
H3849 H 0.86259 0.6034 0.75245 0.0
S3850 S 0.92331 0.70584 0.79182 0.0
N3851 N 0.91197 0.68449 0.81721 0.0
N3852 N 0.91308 0.68957 0.76169 0.0
C3853 C 0.89964 0.66528 0.77119 0.0
C3854 C 0.89908 0.6626 0.8017 0.0
C3855 C 0.84614 0.3655 0.28306 0.0
C3856 C 0.869 0.37889 0.29909 0.0
C3857 C 0.84613 0.36429 0.25309 0.0
C3858 C 0.86941 0.37558 0.23745 0.0
H3859 H 0.82836 0.35512 0.29386 0.0
H3860 H 0.82753 0.35433 0.24194 0.0
S3861 S 0.935 0.4125 0.26916 0.0
N3862 N 0.9158 0.40353 0.29695 0.0
N3863 N 0.91594 0.401 0.24077 0.0
C3864 C 0.89256 0.38886 0.2532 0.0
C3865 C 0.89231 0.39053 0.28385 0.0
C3866 C 0.09852 0.41089 0.74823 0.0
C3867 C 0.11822 0.39551 0.76439 0.0
C3868 C 0.10054 0.41363 0.7182 0.0
C3869 C 0.12242 0.40122 0.70314 0.0
H3870 H 0.08165 0.42115 0.75886 0.0
H3871 H 0.0842 0.42448 0.7066 0.0
S3872 S 0.17905 0.3586 0.73513 0.0
N3873 N 0.16004 0.36754 0.76242 0.0
N3874 N 0.16396 0.37303 0.70706 0.0
C3875 C 0.14225 0.38619 0.71923 0.0
C3876 C 0.14012 0.38324 0.74941 0.0
C3877 C 0.13583 0.66574 0.26012 0.0
C3878 C 0.14945 0.64659 0.2787 0.0
C3879 C 0.13518 0.66274 0.23018 0.0
C3880 C 0.14824 0.64047 0.21655 0.0
H3881 H 0.12538 0.68373 0.26864 0.0
H3882 H 0.1246 0.67842 0.21762 0.0
S3883 S 0.18618 0.58352 0.2542 0.0
N3884 N 0.17578 0.60381 0.28034 0.0
N3885 N 0.17493 0.5981 0.2244 0.0
C3886 C 0.16177 0.62084 0.23465 0.0
C3887 C 0.16229 0.62388 0.2654 0.0
loop_
_geom_bond_atom_site_label_1
_geom_bond_atom_site_label_2
_geom_bond_distance
_geom_bond_site_symmetry_2
_ccdc_geom_bond_type
Co0 O2 2.143 . S
Co0 O8 2.074 . S
Co0 O11 2.093 . S
Co0 O24 2.097 . S
Co0 N41 2.151 . S
Co0 N49 2.214 . S
Co1 O2 2.160 . S
Co1 O7 2.058 . S
Co1 O17 2.057 . S
Co1 O32 2.037 . S
Co1 N36 2.145 . S
Co1 N57 2.257 . S
O2 Co0 2.143 . S
O2 Co1 2.160 . S
C3 O4 1.278 . S
C3 O11 1.224 . S
O4 C3 1.278 . S
C5 O6 1.245 . S
C5 O17 1.232 . S
O6 C5 1.245 . S
O7 Co1 2.058 . S
O7 C33 1.269 . S
O8 Co0 2.074 . S
O8 C33 1.257 . S
H9 C34 0.930 . S
H10 C40 0.930 . S
O11 Co0 2.093 . S
O11 C3 1.224 . S
H12 C44 0.929 . S
H13 C46 0.930 . S
H14 C47 0.930 . S
H15 C45 0.929 . S
H16 C48 0.928 . S
O17 Co1 2.057 . S
O17 C5 1.232 . S
H18 C37 0.929 . S
H19 C38 0.929 . S
H20 C50 0.934 . S
H21 C42 0.929 . S
H22 C51 0.930 . S
H23 C43 0.931 . S
O24 Co0 2.097 . S
O24 C52 1.214 . S
H25 C53 0.929 . S
H26 C54 0.929 . S
H27 C55 0.930 . S
H28 C56 0.929 . S
H29 C58 0.930 . S
H30 C35 0.930 . S
H31 C39 0.930 . S
O32 Co1 2.037 . S
O32 C52 1.234 . S
C33 O7 1.269 . S
C33 O8 1.257 . S
C34 H9 0.930 . S
C34 C37 1.388 . S
C34 C39 1.418 . S
C35 H30 0.930 . S
C35 C38 1.404 . S
C35 C39 1.353 . S
N36 Co1 2.145 . S
N36 C37 1.397 . S
N36 C38 1.334 . S
C37 H18 0.929 . S
C37 C34 1.388 . S
C37 N36 1.397 . S
C38 H19 0.929 . S
C38 C35 1.404 . S
C38 N36 1.334 . S
C39 H31 0.930 . S
C39 C34 1.418 . S
C39 C35 1.353 . S
C40 H10 0.930 . S
C40 N41 1.330 . S
C40 C42 1.446 . S
N41 Co0 2.151 . S
N41 C40 1.330 . S
N41 C45 1.418 . S
C42 H21 0.929 . S
C42 C40 1.446 . S
C42 C43 1.332 . S
C43 H23 0.931 . S
C43 C42 1.332 . S
C43 C44 1.267 . S
C44 H12 0.929 . S
C44 C43 1.267 . S
C44 C45 1.251 . S
C45 H15 0.929 . S
C45 N41 1.418 . S
C45 C44 1.251 . S
C46 H13 0.930 . S
C46 C48 1.406 1_565 S
C46 C51 1.261 . S
C47 H14 0.930 . S
C47 N49 1.325 . S
C47 C50 1.345 1_545 S
C48 H16 0.928 . S
C48 C46 1.406 1_545 S
C48 N49 1.261 . S
N49 Co0 2.214 . S
N49 C47 1.325 . S
N49 C48 1.261 . S
C50 H20 0.934 . S
C50 C47 1.345 1_565 S
C50 C51 1.321 . S
C51 H22 0.930 . S
C51 C46 1.261 . S
C51 C50 1.321 . S
C52 O24 1.214 . S
C52 O32 1.234 . S
C53 H25 0.929 . S
C53 C56 1.391 . S
C53 C58 1.391 . S
C54 H26 0.929 . S
C54 C55 1.390 . S
C54 N57 1.391 . S
C55 H27 0.930 . S
C55 C54 1.390 . S
C55 C56 1.392 . S
C56 H28 0.929 . S
C56 C53 1.391 . S
C56 C55 1.392 . S
N57 Co1 2.257 . S
N57 C54 1.391 . S
N57 C58 1.388 . S
C58 H29 0.930 . S
C58 C53 1.391 . S
C58 N57 1.388 . S
Co59 O61 2.143 . S
Co59 O67 2.074 . S
Co59 O70 2.093 . S
Co59 O83 2.097 . S
Co59 N100 2.151 . S
Co59 N108 2.214 . S
Co60 O61 2.160 . S
Co60 O66 2.058 . S
Co60 O76 2.057 . S
Co60 O91 2.037 . S
Co60 N95 2.145 . S
Co60 N116 2.257 . S
O61 Co59 2.143 . S
O61 Co60 2.160 . S
C62 O63 1.278 . S
C62 O70 1.224 . S
O63 C62 1.278 . S
C64 O65 1.245 . S
C64 O76 1.232 . S
O65 C64 1.245 . S
O66 Co60 2.058 . S
O66 C92 1.269 . S
O67 Co59 2.074 . S
O67 C92 1.257 . S
H68 C93 0.930 . S
H69 C99 0.930 . S
O70 Co59 2.093 . S
O70 C62 1.224 . S
H71 C103 0.929 . S
H72 C105 0.930 . S
H73 C106 0.930 . S
H74 C104 0.929 . S
H75 C107 0.928 . S
O76 Co60 2.057 . S
O76 C64 1.232 . S
H77 C96 0.929 . S
H78 C97 0.929 . S
H79 C109 0.931 . S
H80 C101 0.929 . S
H81 C110 0.930 . S
H82 C102 0.931 . S
O83 Co59 2.097 . S
O83 C111 1.214 . S
H84 C112 0.929 . S
H85 C113 0.929 . S
H86 C114 0.930 . S
H87 C115 0.929 . S
H88 C117 0.930 . S
H89 C94 0.930 . S
H90 C98 0.930 . S
O91 Co60 2.037 . S
O91 C111 1.234 . S
C92 O66 1.269 . S
C92 O67 1.257 . S
C93 H68 0.930 . S
C93 C96 1.388 . S
C93 C98 1.418 . S
C94 H89 0.930 . S
C94 C97 1.404 . S
C94 C98 1.353 . S
N95 Co60 2.145 . S
N95 C96 1.397 . S
N95 C97 1.334 . S
C96 H77 0.929 . S
C96 C93 1.388 . S
C96 N95 1.397 . S
C97 H78 0.929 . S
C97 C94 1.404 . S
C97 N95 1.334 . S
C98 H90 0.930 . S
C98 C93 1.418 . S
C98 C94 1.353 . S
C99 H69 0.930 . S
C99 N100 1.330 . S
C99 C101 1.446 . S
N100 Co59 2.151 . S
N100 C99 1.330 . S
N100 C104 1.418 . S
C101 H80 0.929 . S
C101 C99 1.446 . S
C101 C102 1.332 . S
C102 H82 0.931 . S
C102 C101 1.332 . S
C102 C103 1.267 . S
C103 H71 0.929 . S
C103 C102 1.267 . S
C103 C104 1.251 . S
C104 H74 0.929 . S
C104 N100 1.418 . S
C104 C103 1.251 . S
C105 H72 0.930 . S
C105 C107 1.406 . S
C105 C110 1.261 . S
C106 H73 0.930 . S
C106 N108 1.325 . S
C106 C109 1.357 . S
C107 H75 0.928 . S
C107 C105 1.406 . S
C107 N108 1.261 . S
N108 Co59 2.214 . S
N108 C106 1.325 . S
N108 C107 1.261 . S
C109 H79 0.931 . S
C109 C106 1.357 . S
C109 C110 1.312 . S
C110 H81 0.930 . S
C110 C105 1.261 . S
C110 C109 1.312 . S
C111 O83 1.214 . S
C111 O91 1.234 . S
C112 H84 0.929 . S
C112 C115 1.391 . S
C112 C117 1.391 . S
C113 H85 0.929 . S
C113 C114 1.390 . S
C113 N116 1.391 . S
C114 H86 0.930 . S
C114 C113 1.390 . S
C114 C115 1.392 . S
C115 H87 0.929 . S
C115 C112 1.391 . S
C115 C114 1.392 . S
N116 Co60 2.257 . S
N116 C113 1.391 . S
N116 C117 1.388 . S
C117 H88 0.930 . S
C117 C112 1.391 . S
C117 N116 1.388 . S
Co118 O120 2.143 . S
Co118 O126 2.074 . S
Co118 O129 2.093 . S
Co118 O142 2.097 . S
Co118 N159 2.151 . S
Co118 N167 2.214 . S
Co119 O120 2.160 . S
Co119 O125 2.058 . S
Co119 O135 2.057 . S
Co119 O150 2.037 . S
Co119 N154 2.145 . S
Co119 N175 2.257 . S
O120 Co118 2.143 . S
O120 Co119 2.160 . S
C121 O122 1.278 . S
C121 O129 1.224 . S
O122 C121 1.278 . S
C123 O124 1.245 . S
C123 O135 1.232 . S
O124 C123 1.245 . S
O125 Co119 2.058 . S
O125 C151 1.269 . S
O126 Co118 2.074 . S
O126 C151 1.257 . S
H127 C152 0.930 . S
H128 C158 0.930 . S
O129 Co118 2.093 . S
O129 C121 1.224 . S
H130 C162 0.929 . S
H131 C164 0.930 . S
H132 C165 0.930 . S
H133 C163 0.929 . S
H134 C166 0.928 . S
O135 Co119 2.057 . S
O135 C123 1.232 . S
H136 C155 0.929 . S
H137 C156 0.929 . S
H138 C168 0.931 . S
H139 C160 0.929 . S
H140 C169 0.930 . S
H141 C161 0.931 . S
O142 Co118 2.097 . S
O142 C170 1.214 . S
H143 C171 0.929 . S
H144 C172 0.929 . S
H145 C173 0.930 . S
H146 C174 0.929 . S
H147 C176 0.930 . S
H148 C153 0.930 . S
H149 C157 0.930 . S
O150 Co119 2.037 . S
O150 C170 1.234 . S
C151 O125 1.269 . S
C151 O126 1.257 . S
C152 H127 0.930 . S
C152 C155 1.388 . S
C152 C157 1.418 . S
C153 H148 0.930 . S
C153 C156 1.404 . S
C153 C157 1.353 . S
N154 Co119 2.145 . S
N154 C155 1.397 . S
N154 C156 1.334 . S
C155 H136 0.929 . S
C155 C152 1.388 . S
C155 N154 1.397 . S
C156 H137 0.929 . S
C156 C153 1.404 . S
C156 N154 1.334 . S
C157 H149 0.930 . S
C157 C152 1.418 . S
C157 C153 1.353 . S
C158 H128 0.930 . S
C158 N159 1.330 . S
C158 C160 1.446 . S
N159 Co118 2.151 . S
N159 C158 1.330 . S
N159 C163 1.418 . S
C160 H139 0.929 . S
C160 C158 1.446 . S
C160 C161 1.332 . S
C161 H141 0.931 . S
C161 C160 1.332 . S
C161 C162 1.267 . S
C162 H130 0.929 . S
C162 C161 1.267 . S
C162 C163 1.251 . S
C163 H133 0.929 . S
C163 N159 1.418 . S
C163 C162 1.251 . S
C164 H131 0.930 . S
C164 C166 1.406 1_545 S
C164 C169 1.261 . S
C165 H132 0.930 . S
C165 N167 1.325 . S
C165 C168 1.357 . S
C166 H134 0.928 . S
C166 C164 1.406 1_565 S
C166 N167 1.261 . S
N167 Co118 2.214 . S
N167 C165 1.325 . S
N167 C166 1.261 . S
C168 H138 0.931 . S
C168 C165 1.357 . S
C168 C169 1.312 1_565 S
C169 H140 0.930 . S
C169 C164 1.261 . S
C169 C168 1.312 1_545 S
C170 O142 1.214 . S
C170 O150 1.234 . S
C171 H143 0.929 . S
C171 C174 1.391 . S
C171 C176 1.391 . S
C172 H144 0.929 . S
C172 C173 1.390 . S
C172 N175 1.391 . S
C173 H145 0.930 . S
C173 C172 1.390 . S
C173 C174 1.392 . S
C174 H146 0.929 . S
C174 C171 1.391 . S
C174 C173 1.392 . S
N175 Co119 2.257 . S
N175 C172 1.391 . S
N175 C176 1.388 . S
C176 H147 0.930 . S
C176 C171 1.391 . S
C176 N175 1.388 . S
Co177 O179 2.143 . S
Co177 O185 2.074 . S
Co177 O188 2.093 . S
Co177 O201 2.097 . S
Co177 N218 2.151 . S
Co177 N226 2.214 . S
Co178 O179 2.160 . S
Co178 O184 2.058 . S
Co178 O194 2.057 . S
Co178 O209 2.037 . S
Co178 N213 2.145 . S
Co178 N234 2.257 . S
O179 Co177 2.143 . S
O179 Co178 2.160 . S
C180 O181 1.278 . S
C180 O188 1.224 . S
O181 C180 1.278 . S
C182 O183 1.245 . S
C182 O194 1.232 . S
O183 C182 1.245 . S
O184 Co178 2.058 . S
O184 C210 1.269 . S
O185 Co177 2.074 . S
O185 C210 1.257 . S
H186 C211 0.930 . S
H187 C217 0.930 . S
O188 Co177 2.093 . S
O188 C180 1.224 . S
H189 C221 0.929 . S
H190 C223 0.930 . S
H191 C224 0.930 . S
H192 C222 0.929 . S
H193 C225 0.928 . S
O194 Co178 2.057 . S
O194 C182 1.232 . S
H195 C214 0.929 . S
H196 C215 0.929 . S
H197 C227 0.931 . S
H198 C219 0.929 . S
H199 C228 0.930 . S
H200 C220 0.931 . S
O201 Co177 2.097 . S
O201 C229 1.214 . S
H202 C230 0.929 . S
H203 C231 0.929 . S
H204 C232 0.930 . S
H205 C233 0.929 . S
H206 C235 0.930 . S
H207 C212 0.930 . S
H208 C216 0.930 . S
O209 Co178 2.037 . S
O209 C229 1.234 . S
C210 O184 1.269 . S
C210 O185 1.257 . S
C211 H186 0.930 . S
C211 C214 1.388 . S
C211 C216 1.418 . S
C212 H207 0.930 . S
C212 C215 1.404 . S
C212 C216 1.353 . S
N213 Co178 2.145 . S
N213 C214 1.397 . S
N213 C215 1.334 . S
C214 H195 0.929 . S
C214 C211 1.388 . S
C214 N213 1.397 . S
C215 H196 0.929 . S
C215 C212 1.404 . S
C215 N213 1.334 . S
C216 H208 0.930 . S
C216 C211 1.418 . S
C216 C212 1.353 . S
C217 H187 0.930 . S
C217 N218 1.330 . S
C217 C219 1.446 . S
N218 Co177 2.151 . S
N218 C217 1.330 . S
N218 C222 1.418 . S
C219 H198 0.929 . S
C219 C217 1.446 . S
C219 C220 1.332 . S
C220 H200 0.931 . S
C220 C219 1.332 . S
C220 C221 1.267 . S
C221 H189 0.929 . S
C221 C220 1.267 . S
C221 C222 1.251 . S
C222 H192 0.929 . S
C222 N218 1.418 . S
C222 C221 1.251 . S
C223 H190 0.930 . S
C223 C225 1.406 . S
C223 C228 1.261 . S
C224 H191 0.930 . S
C224 N226 1.325 . S
C224 C227 1.357 . S
C225 H193 0.928 . S
C225 C223 1.406 . S
C225 N226 1.261 . S
N226 Co177 2.214 . S
N226 C224 1.325 . S
N226 C225 1.261 . S
C227 H197 0.931 . S
C227 C224 1.357 . S
C227 C228 1.312 . S
C228 H199 0.930 . S
C228 C223 1.261 . S
C228 C227 1.312 . S
C229 O201 1.214 . S
C229 O209 1.234 . S
C230 H202 0.929 . S
C230 C233 1.391 . S
C230 C235 1.391 . S
C231 H203 0.929 . S
C231 C232 1.390 . S
C231 N234 1.391 . S
C232 H204 0.930 . S
C232 C231 1.390 . S
C232 C233 1.392 . S
C233 H205 0.929 . S
C233 C230 1.391 . S
C233 C232 1.392 . S
N234 Co178 2.257 . S
N234 C231 1.391 . S
N234 C235 1.388 . S
C235 H206 0.930 . S
C235 C230 1.391 . S
C235 N234 1.388 . S
Co236 O238 2.143 . S
Co236 O244 2.074 . S
Co236 O247 2.093 . S
Co236 O260 2.097 . S
Co236 N277 2.151 . S
Co236 N285 2.214 . S
Co237 O238 2.160 . S
Co237 O243 2.058 . S
Co237 O253 2.057 . S
Co237 O268 2.037 . S
Co237 N272 2.145 . S
Co237 N293 2.257 . S
O238 Co236 2.143 . S
O238 Co237 2.160 . S
C239 O240 1.278 . S
C239 O247 1.224 . S
O240 C239 1.278 . S
C241 O242 1.245 . S
C241 O253 1.232 . S
O242 C241 1.245 . S
O243 Co237 2.058 . S
O243 C269 1.269 . S
O244 Co236 2.074 . S
O244 C269 1.257 . S
H245 C270 0.930 . S
H246 C276 0.930 . S
O247 Co236 2.093 . S
O247 C239 1.224 . S
H248 C280 0.929 . S
H249 C282 0.930 . S
H250 C283 0.930 . S
H251 C281 0.929 . S
H252 C284 0.928 . S
O253 Co237 2.057 . S
O253 C241 1.232 . S
H254 C273 0.929 . S
H255 C274 0.929 . S
H256 C286 0.931 . S
H257 C278 0.929 . S
H258 C287 0.930 . S
H259 C279 0.931 . S
O260 Co236 2.097 . S
O260 C288 1.214 . S
H261 C289 0.929 . S
H262 C290 0.929 . S
H263 C291 0.930 . S
H264 C292 0.929 . S
H265 C294 0.930 . S
H266 C271 0.930 . S
H267 C275 0.930 . S
O268 Co237 2.037 . S
O268 C288 1.234 . S
C269 O243 1.269 . S
C269 O244 1.257 . S
C270 H245 0.930 . S
C270 C273 1.388 . S
C270 C275 1.418 . S
C271 H266 0.930 . S
C271 C274 1.404 . S
C271 C275 1.353 . S
N272 Co237 2.145 . S
N272 C273 1.397 . S
N272 C274 1.334 . S
C273 H254 0.929 . S
C273 C270 1.388 . S
C273 N272 1.397 . S
C274 H255 0.929 . S
C274 C271 1.404 . S
C274 N272 1.334 . S
C275 H267 0.930 . S
C275 C270 1.418 . S
C275 C271 1.353 . S
C276 H246 0.930 . S
C276 N277 1.330 . S
C276 C278 1.446 . S
N277 Co236 2.151 . S
N277 C276 1.330 . S
N277 C281 1.418 . S
C278 H257 0.929 . S
C278 C276 1.446 . S
C278 C279 1.332 . S
C279 H259 0.931 . S
C279 C278 1.332 . S
C279 C280 1.267 . S
C280 H248 0.929 . S
C280 C279 1.267 . S
C280 C281 1.251 . S
C281 H251 0.929 . S
C281 N277 1.418 . S
C281 C280 1.251 . S
C282 H249 0.930 . S
C282 C284 1.406 . S
C282 C287 1.261 . S
C283 H250 0.930 . S
C283 N285 1.325 . S
C283 C286 1.357 . S
C284 H252 0.928 . S
C284 C282 1.406 . S
C284 N285 1.261 . S
N285 Co236 2.214 . S
N285 C283 1.325 . S
N285 C284 1.261 . S
C286 H256 0.931 . S
C286 C283 1.357 . S
C286 C287 1.312 . S
C287 H258 0.930 . S
C287 C282 1.261 . S
C287 C286 1.312 . S
C288 O260 1.214 . S
C288 O268 1.234 . S
C289 H261 0.929 . S
C289 C292 1.391 . S
C289 C294 1.391 . S
C290 H262 0.929 . S
C290 C291 1.390 . S
C290 N293 1.391 . S
C291 H263 0.930 . S
C291 C290 1.390 . S
C291 C292 1.392 . S
C292 H264 0.929 . S
C292 C289 1.391 . S
C292 C291 1.392 . S
N293 Co237 2.257 . S
N293 C290 1.391 . S
N293 C294 1.388 . S
C294 H265 0.930 . S
C294 C289 1.391 . S
C294 N293 1.388 . S
Co295 O297 2.143 . S
Co295 O303 2.074 . S
Co295 O306 2.093 . S
Co295 O319 2.097 . S
Co295 N336 2.151 . S
Co295 N344 2.214 . S
Co296 O297 2.160 . S
Co296 O302 2.058 . S
Co296 O312 2.057 . S
Co296 O327 2.037 . S
Co296 N331 2.145 . S
Co296 N352 2.257 . S
O297 Co295 2.143 . S
O297 Co296 2.160 . S
C298 O299 1.278 . S
C298 O306 1.224 . S
O299 C298 1.278 . S
C300 O301 1.245 . S
C300 O312 1.232 . S
O301 C300 1.245 . S
O302 Co296 2.058 . S
O302 C328 1.269 . S
O303 Co295 2.074 . S
O303 C328 1.257 . S
H304 C329 0.930 . S
H305 C335 0.930 . S
O306 Co295 2.093 . S
O306 C298 1.224 . S
H307 C339 0.929 . S
H308 C341 0.930 . S
H309 C342 0.930 . S
H310 C340 0.929 . S
H311 C343 0.928 . S
O312 Co296 2.057 . S
O312 C300 1.232 . S
H313 C332 0.929 . S
H314 C333 0.929 . S
H315 C345 0.931 . S
H316 C337 0.929 . S
H317 C346 0.930 . S
H318 C338 0.931 . S
O319 Co295 2.097 . S
O319 C347 1.214 . S
H320 C348 0.929 . S
H321 C349 0.929 . S
H322 C350 0.930 . S
H323 C351 0.929 . S
H324 C353 0.930 . S
H325 C330 0.930 . S
H326 C334 0.930 . S
O327 Co296 2.037 . S
O327 C347 1.234 . S
C328 O302 1.269 . S
C328 O303 1.257 . S
C329 H304 0.930 . S
C329 C332 1.388 . S
C329 C334 1.418 . S
C330 H325 0.930 . S
C330 C333 1.404 . S
C330 C334 1.353 . S
N331 Co296 2.145 . S
N331 C332 1.397 . S
N331 C333 1.334 . S
C332 H313 0.929 . S
C332 C329 1.388 . S
C332 N331 1.397 . S
C333 H314 0.929 . S
C333 C330 1.404 . S
C333 N331 1.334 . S
C334 H326 0.930 . S
C334 C329 1.418 . S
C334 C330 1.353 . S
C335 H305 0.930 . S
C335 N336 1.330 . S
C335 C337 1.446 . S
N336 Co295 2.151 . S
N336 C335 1.330 . S
N336 C340 1.418 . S
C337 H316 0.929 . S
C337 C335 1.446 . S
C337 C338 1.332 . S
C338 H318 0.931 . S
C338 C337 1.332 . S
C338 C339 1.267 . S
C339 H307 0.929 . S
C339 C338 1.267 . S
C339 C340 1.251 . S
C340 H310 0.929 . S
C340 N336 1.418 . S
C340 C339 1.251 . S
C341 H308 0.930 . S
C341 C343 1.406 . S
C341 C346 1.261 . S
C342 H309 0.930 . S
C342 N344 1.325 . S
C342 C345 1.357 . S
C343 H311 0.928 . S
C343 C341 1.406 . S
C343 N344 1.261 . S
N344 Co295 2.214 . S
N344 C342 1.325 . S
N344 C343 1.261 . S
C345 H315 0.931 . S
C345 C342 1.357 . S
C345 C346 1.312 . S
C346 H317 0.930 . S
C346 C341 1.261 . S
C346 C345 1.312 . S
C347 O319 1.214 . S
C347 O327 1.234 . S
C348 H320 0.929 . S
C348 C351 1.391 . S
C348 C353 1.391 . S
C349 H321 0.929 . S
C349 C350 1.390 . S
C349 N352 1.391 . S
C350 H322 0.930 . S
C350 C349 1.390 . S
C350 C351 1.392 . S
C351 H323 0.929 . S
C351 C348 1.391 . S
C351 C350 1.392 . S
N352 Co296 2.257 . S
N352 C349 1.391 . S
N352 C353 1.388 . S
C353 H324 0.930 . S
C353 C348 1.391 . S
C353 N352 1.388 . S
Co354 O356 2.143 . S
Co354 O362 2.074 . S
Co354 O365 2.093 . S
Co354 O378 2.097 . S
Co354 N395 2.151 . S
Co354 N403 2.214 . S
Co355 O356 2.160 . S
Co355 O361 2.058 . S
Co355 O371 2.057 . S
Co355 O386 2.037 . S
Co355 N390 2.145 . S
Co355 N411 2.257 . S
O356 Co354 2.143 . S
O356 Co355 2.160 . S
C357 O358 1.278 . S
C357 O365 1.224 . S
O358 C357 1.278 . S
C359 O360 1.245 . S
C359 O371 1.232 . S
O360 C359 1.245 . S
O361 Co355 2.058 . S
O361 C387 1.269 . S
O362 Co354 2.074 . S
O362 C387 1.257 . S
H363 C388 0.930 . S
H364 C394 0.930 . S
O365 Co354 2.093 . S
O365 C357 1.224 . S
H366 C398 0.929 . S
H367 C400 0.930 . S
H368 C401 0.930 . S
H369 C399 0.929 . S
H370 C402 0.928 . S
O371 Co355 2.057 . S
O371 C359 1.232 . S
H372 C391 0.929 . S
H373 C392 0.929 . S
H374 C404 0.931 . S
H375 C396 0.929 . S
H376 C405 0.930 . S
H377 C397 0.931 1_565 S
O378 Co354 2.097 . S
O378 C406 1.214 . S
H379 C407 0.929 . S
H380 C408 0.929 . S
H381 C409 0.930 . S
H382 C410 0.929 . S
H383 C412 0.930 . S
H384 C389 0.930 . S
H385 C393 0.930 . S
O386 Co355 2.037 . S
O386 C406 1.234 . S
C387 O361 1.269 . S
C387 O362 1.257 . S
C388 H363 0.930 . S
C388 C391 1.388 . S
C388 C393 1.418 . S
C389 H384 0.930 . S
C389 C392 1.404 . S
C389 C393 1.353 . S
N390 Co355 2.145 . S
N390 C391 1.397 . S
N390 C392 1.334 . S
C391 H372 0.929 . S
C391 C388 1.388 . S
C391 N390 1.397 . S
C392 H373 0.929 . S
C392 C389 1.404 . S
C392 N390 1.334 . S
C393 H385 0.930 . S
C393 C388 1.418 . S
C393 C389 1.353 . S
C394 H364 0.930 . S
C394 N395 1.330 . S
C394 C396 1.446 . S
N395 Co354 2.151 . S
N395 C394 1.330 . S
N395 C399 1.418 . S
C396 H375 0.929 . S
C396 C394 1.446 . S
C396 C397 1.332 . S
C397 H377 0.931 1_545 S
C397 C396 1.332 . S
C397 C398 1.267 . S
C398 H366 0.929 . S
C398 C397 1.267 . S
C398 C399 1.251 . S
C399 H369 0.929 . S
C399 N395 1.418 . S
C399 C398 1.251 . S
C400 H367 0.930 . S
C400 C402 1.406 . S
C400 C405 1.261 . S
C401 H368 0.930 . S
C401 N403 1.325 . S
C401 C404 1.357 . S
C402 H370 0.928 . S
C402 C400 1.406 . S
C402 N403 1.261 . S
N403 Co354 2.214 . S
N403 C401 1.325 . S
N403 C402 1.261 . S
C404 H374 0.931 . S
C404 C401 1.357 . S
C404 C405 1.312 . S
C405 H376 0.930 . S
C405 C400 1.261 . S
C405 C404 1.312 . S
C406 O378 1.214 . S
C406 O386 1.234 . S
C407 H379 0.929 . S
C407 C410 1.391 . S
C407 C412 1.391 . S
C408 H380 0.929 . S
C408 C409 1.390 . S
C408 N411 1.391 . S
C409 H381 0.930 . S
C409 C408 1.390 . S
C409 C410 1.392 . S
C410 H382 0.929 . S
C410 C407 1.391 . S
C410 C409 1.392 . S
N411 Co355 2.257 . S
N411 C408 1.391 . S
N411 C412 1.388 . S
C412 H383 0.930 . S
C412 C407 1.391 . S
C412 N411 1.388 . S
Co413 O415 2.143 . S
Co413 O421 2.074 . S
Co413 O424 2.093 . S
Co413 O437 2.097 . S
Co413 N454 2.151 . S
Co413 N462 2.214 . S
Co414 O415 2.160 . S
Co414 O420 2.058 . S
Co414 O430 2.057 . S
Co414 O445 2.037 . S
Co414 N449 2.145 . S
Co414 N470 2.257 . S
O415 Co413 2.143 . S
O415 Co414 2.160 . S
C416 O417 1.278 . S
C416 O424 1.224 . S
O417 C416 1.278 . S
C418 O419 1.245 . S
C418 O430 1.232 . S
O419 C418 1.245 . S
O420 Co414 2.058 . S
O420 C446 1.269 . S
O421 Co413 2.074 . S
O421 C446 1.257 . S
H422 C447 0.930 . S
H423 C453 0.930 . S
O424 Co413 2.093 . S
O424 C416 1.224 . S
H425 C457 0.929 1_556 S
H426 C459 0.930 . S
H427 C460 0.930 . S
H428 C458 0.929 . S
H429 C461 0.928 . S
O430 Co414 2.057 . S
O430 C418 1.232 . S
H431 C450 0.929 . S
H432 C451 0.929 . S
H433 C463 0.931 . S
H434 C455 0.929 . S
H435 C464 0.930 . S
H436 C456 0.931 . S
O437 Co413 2.097 . S
O437 C465 1.214 . S
H438 C466 0.929 . S
H439 C467 0.929 . S
H440 C468 0.930 . S
H441 C469 0.929 . S
H442 C471 0.930 . S
H443 C448 0.930 . S
H444 C452 0.930 . S
O445 Co414 2.037 . S
O445 C465 1.234 . S
C446 O420 1.269 . S
C446 O421 1.257 . S
C447 H422 0.930 . S
C447 C450 1.388 . S
C447 C452 1.418 . S
C448 H443 0.930 . S
C448 C451 1.404 . S
C448 C452 1.353 . S
N449 Co414 2.145 . S
N449 C450 1.397 . S
N449 C451 1.334 . S
C450 H431 0.929 . S
C450 C447 1.388 . S
C450 N449 1.397 . S
C451 H432 0.929 . S
C451 C448 1.404 . S
C451 N449 1.334 . S
C452 H444 0.930 . S
C452 C447 1.418 . S
C452 C448 1.353 . S
C453 H423 0.930 . S
C453 N454 1.330 . S
C453 C455 1.446 . S
N454 Co413 2.151 . S
N454 C453 1.330 . S
N454 C458 1.418 . S
C455 H434 0.929 . S
C455 C453 1.446 . S
C455 C456 1.332 . S
C456 H436 0.931 . S
C456 C455 1.332 . S
C456 C457 1.267 . S
C457 H425 0.929 1_554 S
C457 C456 1.267 . S
C457 C458 1.251 . S
C458 H428 0.929 . S
C458 N454 1.418 . S
C458 C457 1.251 . S
C459 H426 0.930 . S
C459 C461 1.406 . S
C459 C464 1.261 . S
C460 H427 0.930 . S
C460 N462 1.325 . S
C460 C463 1.357 . S
C461 H429 0.928 . S
C461 C459 1.406 . S
C461 N462 1.261 . S
N462 Co413 2.214 . S
N462 C460 1.325 . S
N462 C461 1.261 . S
C463 H433 0.931 . S
C463 C460 1.357 . S
C463 C464 1.312 . S
C464 H435 0.930 . S
C464 C459 1.261 . S
C464 C463 1.312 . S
C465 O437 1.214 . S
C465 O445 1.234 . S
C466 H438 0.929 . S
C466 C469 1.391 . S
C466 C471 1.391 . S
C467 H439 0.929 . S
C467 C468 1.390 . S
C467 N470 1.391 . S
C468 H440 0.930 . S
C468 C467 1.390 . S
C468 C469 1.392 . S
C469 H441 0.929 . S
C469 C466 1.391 . S
C469 C468 1.392 . S
N470 Co414 2.257 . S
N470 C467 1.391 . S
N470 C471 1.388 . S
C471 H442 0.930 . S
C471 C466 1.391 . S
C471 N470 1.388 . S
Co472 O474 2.143 . S
Co472 O480 2.074 . S
Co472 O483 2.093 . S
Co472 O496 2.097 . S
Co472 N513 2.151 . S
Co472 N521 2.214 . S
Co473 O474 2.160 . S
Co473 O479 2.058 . S
Co473 O489 2.057 . S
Co473 O504 2.037 . S
Co473 N508 2.145 . S
Co473 N529 2.257 . S
O474 Co472 2.143 . S
O474 Co473 2.160 . S
C475 O476 1.278 . S
C475 O483 1.224 . S
O476 C475 1.278 . S
C477 O478 1.245 . S
C477 O489 1.232 . S
O478 C477 1.245 . S
O479 Co473 2.058 . S
O479 C505 1.269 . S
O480 Co472 2.074 . S
O480 C505 1.257 . S
H481 C506 0.930 . S
H482 C512 0.930 . S
O483 Co472 2.093 . S
O483 C475 1.224 . S
H484 C516 0.929 . S
H485 C518 0.930 . S
H486 C519 0.930 . S
H487 C517 0.929 . S
H488 C520 0.928 . S
O489 Co473 2.057 . S
O489 C477 1.232 . S
H490 C509 0.929 . S
H491 C510 0.929 . S
H492 C522 0.931 . S
H493 C514 0.929 . S
H494 C523 0.930 . S
H495 C515 0.931 . S
O496 Co472 2.097 . S
O496 C524 1.214 . S
H497 C525 0.929 . S
H498 C526 0.929 . S
H499 C527 0.930 . S
H500 C528 0.929 . S
H501 C530 0.930 . S
H502 C507 0.930 . S
H503 C511 0.930 . S
O504 Co473 2.037 . S
O504 C524 1.234 . S
C505 O479 1.269 . S
C505 O480 1.257 . S
C506 H481 0.930 . S
C506 C509 1.388 1_556 S
C506 C511 1.418 . S
C507 H502 0.930 . S
C507 C510 1.404 1_556 S
C507 C511 1.353 . S
N508 Co473 2.145 . S
N508 C509 1.397 . S
N508 C510 1.334 . S
C509 H490 0.929 . S
C509 C506 1.388 1_554 S
C509 N508 1.397 . S
C510 H491 0.929 . S
C510 C507 1.404 1_554 S
C510 N508 1.334 . S
C511 H503 0.930 . S
C511 C506 1.418 . S
C511 C507 1.353 . S
C512 H482 0.930 . S
C512 N513 1.330 . S
C512 C514 1.446 . S
N513 Co472 2.151 . S
N513 C512 1.330 . S
N513 C517 1.418 . S
C514 H493 0.929 . S
C514 C512 1.446 . S
C514 C515 1.332 . S
C515 H495 0.931 . S
C515 C514 1.332 . S
C515 C516 1.267 . S
C516 H484 0.929 . S
C516 C515 1.267 . S
C516 C517 1.251 . S
C517 H487 0.929 . S
C517 N513 1.418 . S
C517 C516 1.251 . S
C518 H485 0.930 . S
C518 C520 1.406 . S
C518 C523 1.261 . S
C519 H486 0.930 . S
C519 N521 1.325 . S
C519 C522 1.357 . S
C520 H488 0.928 . S
C520 C518 1.406 . S
C520 N521 1.261 . S
N521 Co472 2.214 . S
N521 C519 1.325 . S
N521 C520 1.261 . S
C522 H492 0.931 . S
C522 C519 1.357 . S
C522 C523 1.312 . S
C523 H494 0.930 . S
C523 C518 1.261 . S
C523 C522 1.312 . S
C524 O496 1.214 . S
C524 O504 1.234 . S
C525 H497 0.929 . S
C525 C528 1.391 . S
C525 C530 1.391 . S
C526 H498 0.929 . S
C526 C527 1.390 . S
C526 N529 1.391 . S
C527 H499 0.930 . S
C527 C526 1.390 . S
C527 C528 1.392 . S
C528 H500 0.929 . S
C528 C525 1.391 . S
C528 C527 1.392 . S
N529 Co473 2.257 . S
N529 C526 1.391 . S
N529 C530 1.388 . S
C530 H501 0.930 . S
C530 C525 1.391 . S
C530 N529 1.388 . S
Co531 O533 2.143 . S
Co531 O539 2.074 . S
Co531 O542 2.093 . S
Co531 O555 2.097 . S
Co531 N572 2.151 . S
Co531 N580 2.214 . S
Co532 O533 2.160 . S
Co532 O538 2.058 . S
Co532 O548 2.057 . S
Co532 O563 2.037 . S
Co532 N567 2.145 . S
Co532 N588 2.257 . S
O533 Co531 2.143 . S
O533 Co532 2.160 . S
C534 O535 1.278 . S
C534 O542 1.224 . S
O535 C534 1.278 . S
C536 O537 1.245 . S
C536 O548 1.232 . S
O537 C536 1.245 . S
O538 Co532 2.058 . S
O538 C564 1.269 . S
O539 Co531 2.074 . S
O539 C564 1.257 . S
H540 C565 0.930 . S
H541 C571 0.930 . S
O542 Co531 2.093 . S
O542 C534 1.224 . S
H543 C575 0.929 . S
H544 C577 0.930 . S
H545 C578 0.930 . S
H546 C576 0.929 . S
H547 C579 0.928 . S
O548 Co532 2.057 . S
O548 C536 1.232 . S
H549 C568 0.929 . S
H550 C569 0.929 . S
H551 C581 0.931 . S
H552 C573 0.929 . S
H553 C582 0.930 . S
H554 C574 0.931 . S
O555 Co531 2.097 . S
O555 C583 1.214 . S
H556 C584 0.929 . S
H557 C585 0.929 . S
H558 C586 0.930 . S
H559 C587 0.929 . S
H560 C589 0.930 . S
H561 C566 0.930 . S
H562 C570 0.930 . S
O563 Co532 2.037 . S
O563 C583 1.234 . S
C564 O538 1.269 . S
C564 O539 1.257 . S
C565 H540 0.930 . S
C565 C568 1.388 . S
C565 C570 1.418 . S
C566 H561 0.930 . S
C566 C569 1.404 . S
C566 C570 1.353 . S
N567 Co532 2.145 . S
N567 C568 1.397 . S
N567 C569 1.334 . S
C568 H549 0.929 . S
C568 C565 1.388 . S
C568 N567 1.397 . S
C569 H550 0.929 . S
C569 C566 1.404 . S
C569 N567 1.334 . S
C570 H562 0.930 . S
C570 C565 1.418 . S
C570 C566 1.353 . S
C571 H541 0.930 . S
C571 N572 1.330 . S
C571 C573 1.446 . S
N572 Co531 2.151 . S
N572 C571 1.330 . S
N572 C576 1.418 . S
C573 H552 0.929 . S
C573 C571 1.446 . S
C573 C574 1.332 . S
C574 H554 0.931 . S
C574 C573 1.332 . S
C574 C575 1.267 . S
C575 H543 0.929 . S
C575 C574 1.267 . S
C575 C576 1.251 . S
C576 H546 0.929 . S
C576 N572 1.418 . S
C576 C575 1.251 . S
C577 H544 0.930 . S
C577 C579 1.406 . S
C577 C582 1.261 . S
C578 H545 0.930 . S
C578 N580 1.325 . S
C578 C581 1.357 . S
C579 H547 0.928 . S
C579 C577 1.406 . S
C579 N580 1.261 . S
N580 Co531 2.214 . S
N580 C578 1.325 . S
N580 C579 1.261 . S
C581 H551 0.931 . S
C581 C578 1.357 . S
C581 C582 1.312 . S
C582 H553 0.930 . S
C582 C577 1.261 . S
C582 C581 1.312 . S
C583 O555 1.214 . S
C583 O563 1.234 . S
C584 H556 0.929 . S
C584 C587 1.391 . S
C584 C589 1.391 . S
C585 H557 0.929 . S
C585 C586 1.390 . S
C585 N588 1.391 . S
C586 H558 0.930 . S
C586 C585 1.390 . S
C586 C587 1.392 . S
C587 H559 0.929 . S
C587 C584 1.391 . S
C587 C586 1.392 . S
N588 Co532 2.257 . S
N588 C585 1.391 . S
N588 C589 1.388 . S
C589 H560 0.930 . S
C589 C584 1.391 . S
C589 N588 1.388 . S
Co590 O592 2.143 . S
Co590 O598 2.074 . S
Co590 O601 2.093 . S
Co590 O614 2.097 . S
Co590 N631 2.151 . S
Co590 N639 2.214 . S
Co591 O592 2.160 . S
Co591 O597 2.058 . S
Co591 O607 2.057 . S
Co591 O622 2.037 . S
Co591 N626 2.145 . S
Co591 N647 2.257 . S
O592 Co590 2.143 . S
O592 Co591 2.160 . S
C593 O594 1.278 . S
C593 O601 1.224 . S
O594 C593 1.278 . S
C595 O596 1.245 . S
C595 O607 1.232 . S
O596 C595 1.245 . S
O597 Co591 2.058 . S
O597 C623 1.269 . S
O598 Co590 2.074 . S
O598 C623 1.257 . S
H599 C624 0.930 . S
H600 C630 0.930 . S
O601 Co590 2.093 . S
O601 C593 1.224 . S
H602 C634 0.929 . S
H603 C636 0.930 . S
H604 C637 0.930 . S
H605 C635 0.929 . S
H606 C638 0.928 . S
O607 Co591 2.057 . S
O607 C595 1.232 . S
H608 C627 0.929 . S
H609 C628 0.929 . S
H610 C640 0.931 . S
H611 C632 0.929 . S
H612 C641 0.930 . S
H613 C633 0.931 . S
O614 Co590 2.097 . S
O614 C642 1.214 . S
H615 C643 0.929 . S
H616 C644 0.929 . S
H617 C645 0.930 . S
H618 C646 0.929 . S
H619 C648 0.930 . S
H620 C625 0.930 . S
H621 C629 0.930 . S
O622 Co591 2.037 . S
O622 C642 1.234 . S
C623 O597 1.269 . S
C623 O598 1.257 . S
C624 H599 0.930 . S
C624 C627 1.388 1_556 S
C624 C629 1.418 . S
C625 H620 0.930 . S
C625 C628 1.404 1_556 S
C625 C629 1.353 . S
N626 Co591 2.145 . S
N626 C627 1.397 . S
N626 C628 1.334 . S
C627 H608 0.929 . S
C627 C624 1.388 1_554 S
C627 N626 1.397 . S
C628 H609 0.929 . S
C628 C625 1.404 1_554 S
C628 N626 1.334 . S
C629 H621 0.930 . S
C629 C624 1.418 . S
C629 C625 1.353 . S
C630 H600 0.930 . S
C630 N631 1.330 . S
C630 C632 1.446 . S
N631 Co590 2.151 . S
N631 C630 1.330 . S
N631 C635 1.418 . S
C632 H611 0.929 . S
C632 C630 1.446 . S
C632 C633 1.332 . S
C633 H613 0.931 . S
C633 C632 1.332 . S
C633 C634 1.267 . S
C634 H602 0.929 . S
C634 C633 1.267 . S
C634 C635 1.251 . S
C635 H605 0.929 . S
C635 N631 1.418 . S
C635 C634 1.251 . S
C636 H603 0.930 . S
C636 C638 1.406 . S
C636 C641 1.261 . S
C637 H604 0.930 . S
C637 N639 1.325 . S
C637 C640 1.357 . S
C638 H606 0.928 . S
C638 C636 1.406 . S
C638 N639 1.261 . S
N639 Co590 2.214 . S
N639 C637 1.325 . S
N639 C638 1.261 . S
C640 H610 0.931 . S
C640 C637 1.357 . S
C640 C641 1.312 . S
C641 H612 0.930 . S
C641 C636 1.261 . S
C641 C640 1.312 . S
C642 O614 1.214 . S
C642 O622 1.234 . S
C643 H615 0.929 . S
C643 C646 1.391 . S
C643 C648 1.391 . S
C644 H616 0.929 . S
C644 C645 1.390 . S
C644 N647 1.391 . S
C645 H617 0.930 . S
C645 C644 1.390 . S
C645 C646 1.392 . S
C646 H618 0.929 . S
C646 C643 1.391 . S
C646 C645 1.392 . S
N647 Co591 2.257 . S
N647 C644 1.391 . S
N647 C648 1.388 . S
C648 H619 0.930 . S
C648 C643 1.391 . S
C648 N647 1.388 . S
Co649 O651 2.143 . S
Co649 O657 2.074 . S
Co649 O660 2.093 . S
Co649 O673 2.097 . S
Co649 N690 2.151 . S
Co649 N698 2.214 . S
Co650 O651 2.160 . S
Co650 O656 2.058 . S
Co650 O666 2.057 . S
Co650 O681 2.037 . S
Co650 N685 2.145 . S
Co650 N706 2.257 . S
O651 Co649 2.143 . S
O651 Co650 2.160 . S
C652 O653 1.278 . S
C652 O660 1.224 . S
O653 C652 1.278 . S
C654 O655 1.245 . S
C654 O666 1.232 . S
O655 C654 1.245 . S
O656 Co650 2.058 . S
O656 C682 1.269 . S
O657 Co649 2.074 . S
O657 C682 1.257 . S
H658 C683 0.930 . S
H659 C689 0.930 . S
O660 Co649 2.093 . S
O660 C652 1.224 . S
H661 C693 0.929 . S
H662 C695 0.930 . S
H663 C696 0.930 . S
H664 C694 0.929 . S
H665 C697 0.928 . S
O666 Co650 2.057 . S
O666 C654 1.232 . S
H667 C686 0.929 . S
H668 C687 0.929 . S
H669 C699 0.931 . S
H670 C691 0.929 . S
H671 C700 0.930 . S
H672 C692 0.931 . S
O673 Co649 2.097 . S
O673 C701 1.214 . S
H674 C702 0.929 . S
H675 C703 0.929 . S
H676 C704 0.930 . S
H677 C705 0.929 . S
H678 C707 0.930 . S
H679 C684 0.930 . S
H680 C688 0.930 . S
O681 Co650 2.037 . S
O681 C701 1.234 . S
C682 O656 1.269 . S
C682 O657 1.257 . S
C683 H658 0.930 . S
C683 C686 1.388 . S
C683 C688 1.418 . S
C684 H679 0.930 . S
C684 C687 1.404 . S
C684 C688 1.353 . S
N685 Co650 2.145 . S
N685 C686 1.397 . S
N685 C687 1.334 . S
C686 H667 0.929 . S
C686 C683 1.388 . S
C686 N685 1.397 . S
C687 H668 0.929 . S
C687 C684 1.404 . S
C687 N685 1.334 . S
C688 H680 0.930 . S
C688 C683 1.418 . S
C688 C684 1.353 . S
C689 H659 0.930 . S
C689 N690 1.330 . S
C689 C691 1.446 . S
N690 Co649 2.151 . S
N690 C689 1.330 . S
N690 C694 1.418 . S
C691 H670 0.929 . S
C691 C689 1.446 . S
C691 C692 1.332 . S
C692 H672 0.931 . S
C692 C691 1.332 . S
C692 C693 1.267 . S
C693 H661 0.929 . S
C693 C692 1.267 . S
C693 C694 1.251 . S
C694 H664 0.929 . S
C694 N690 1.418 . S
C694 C693 1.251 . S
C695 H662 0.930 . S
C695 C697 1.406 . S
C695 C700 1.261 . S
C696 H663 0.930 . S
C696 N698 1.325 . S
C696 C699 1.357 . S
C697 H665 0.928 . S
C697 C695 1.406 . S
C697 N698 1.261 . S
N698 Co649 2.214 . S
N698 C696 1.325 . S
N698 C697 1.261 . S
C699 H669 0.931 . S
C699 C696 1.357 . S
C699 C700 1.312 . S
C700 H671 0.930 . S
C700 C695 1.261 . S
C700 C699 1.312 . S
C701 O673 1.214 . S
C701 O681 1.234 . S
C702 H674 0.929 . S
C702 C705 1.391 . S
C702 C707 1.391 . S
C703 H675 0.929 . S
C703 C704 1.390 . S
C703 N706 1.391 . S
C704 H676 0.930 . S
C704 C703 1.390 . S
C704 C705 1.392 . S
C705 H677 0.929 . S
C705 C702 1.391 . S
C705 C704 1.392 . S
N706 Co650 2.257 . S
N706 C703 1.391 . S
N706 C707 1.388 . S
C707 H678 0.930 . S
C707 C702 1.391 . S
C707 N706 1.388 . S
Co708 O710 2.143 . S
Co708 O716 2.074 . S
Co708 O719 2.093 . S
Co708 O732 2.097 . S
Co708 N749 2.151 . S
Co708 N757 2.214 . S
Co709 O710 2.160 . S
Co709 O715 2.058 . S
Co709 O725 2.057 . S
Co709 O740 2.037 . S
Co709 N744 2.145 . S
Co709 N765 2.257 . S
O710 Co708 2.143 . S
O710 Co709 2.160 . S
C711 O712 1.278 . S
C711 O719 1.224 . S
O712 C711 1.278 . S
C713 O714 1.245 . S
C713 O725 1.232 . S
O714 C713 1.245 . S
O715 Co709 2.058 . S
O715 C741 1.269 . S
O716 Co708 2.074 . S
O716 C741 1.257 . S
H717 C742 0.930 . S
H718 C748 0.930 . S
O719 Co708 2.093 . S
O719 C711 1.224 . S
H720 C752 0.929 . S
H721 C754 0.930 . S
H722 C755 0.930 . S
H723 C753 0.929 . S
H724 C756 0.928 . S
O725 Co709 2.057 . S
O725 C713 1.232 . S
H726 C745 0.929 . S
H727 C746 0.929 . S
H728 C758 0.931 . S
H729 C750 0.929 . S
H730 C759 0.930 . S
H731 C751 0.931 . S
O732 Co708 2.097 . S
O732 C760 1.214 . S
H733 C761 0.929 . S
H734 C762 0.929 . S
H735 C763 0.930 . S
H736 C764 0.929 . S
H737 C766 0.930 . S
H738 C743 0.930 . S
H739 C747 0.930 . S
O740 Co709 2.037 . S
O740 C760 1.234 . S
C741 O715 1.269 . S
C741 O716 1.257 . S
C742 H717 0.930 . S
C742 C745 1.388 . S
C742 C747 1.418 . S
C743 H738 0.930 . S
C743 C746 1.404 . S
C743 C747 1.353 . S
N744 Co709 2.145 . S
N744 C745 1.397 . S
N744 C746 1.334 . S
C745 H726 0.929 . S
C745 C742 1.388 . S
C745 N744 1.397 . S
C746 H727 0.929 . S
C746 C743 1.404 . S
C746 N744 1.334 . S
C747 H739 0.930 . S
C747 C742 1.418 . S
C747 C743 1.353 . S
C748 H718 0.930 . S
C748 N749 1.330 . S
C748 C750 1.446 . S
N749 Co708 2.151 . S
N749 C748 1.330 . S
N749 C753 1.418 . S
C750 H729 0.929 . S
C750 C748 1.446 . S
C750 C751 1.332 . S
C751 H731 0.931 . S
C751 C750 1.332 . S
C751 C752 1.267 . S
C752 H720 0.929 . S
C752 C751 1.267 . S
C752 C753 1.251 . S
C753 H723 0.929 . S
C753 N749 1.418 . S
C753 C752 1.251 . S
C754 H721 0.930 . S
C754 C756 1.406 . S
C754 C759 1.261 . S
C755 H722 0.930 . S
C755 N757 1.325 . S
C755 C758 1.357 . S
C756 H724 0.928 . S
C756 C754 1.406 . S
C756 N757 1.261 . S
N757 Co708 2.214 . S
N757 C755 1.325 . S
N757 C756 1.261 . S
C758 H728 0.931 . S
C758 C755 1.357 . S
C758 C759 1.312 . S
C759 H730 0.930 . S
C759 C754 1.261 . S
C759 C758 1.312 . S
C760 O732 1.214 . S
C760 O740 1.234 . S
C761 H733 0.929 . S
C761 C764 1.391 . S
C761 C766 1.391 . S
C762 H734 0.929 . S
C762 C763 1.390 . S
C762 N765 1.391 . S
C763 H735 0.930 . S
C763 C762 1.390 . S
C763 C764 1.392 . S
C764 H736 0.929 . S
C764 C761 1.391 . S
C764 C763 1.392 . S
N765 Co709 2.257 . S
N765 C762 1.391 . S
N765 C766 1.388 . S
C766 H737 0.930 . S
C766 C761 1.391 . S
C766 N765 1.388 . S
Co767 O769 2.143 . S
Co767 O775 2.074 . S
Co767 O778 2.093 . S
Co767 O791 2.097 . S
Co767 N808 2.151 . S
Co767 N816 2.214 . S
Co768 O769 2.160 . S
Co768 O774 2.058 . S
Co768 O784 2.057 . S
Co768 O799 2.037 . S
Co768 N803 2.145 . S
Co768 N824 2.257 . S
O769 Co767 2.143 . S
O769 Co768 2.160 . S
C770 O771 1.278 . S
C770 O778 1.224 . S
O771 C770 1.278 . S
C772 O773 1.245 . S
C772 O784 1.232 . S
O773 C772 1.245 . S
O774 Co768 2.058 . S
O774 C800 1.269 . S
O775 Co767 2.074 . S
O775 C800 1.257 . S
H776 C801 0.930 . S
H777 C807 0.930 . S
O778 Co767 2.093 . S
O778 C770 1.224 . S
H779 C811 0.929 . S
H780 C813 0.930 . S
H781 C814 0.930 . S
H782 C812 0.929 . S
H783 C815 0.928 . S
O784 Co768 2.057 . S
O784 C772 1.232 . S
H785 C804 0.929 . S
H786 C805 0.929 . S
H787 C817 0.931 . S
H788 C809 0.929 . S
H789 C818 0.930 . S
H790 C810 0.931 . S
O791 Co767 2.097 . S
O791 C819 1.214 . S
H792 C820 0.929 . S
H793 C821 0.929 . S
H794 C822 0.930 . S
H795 C823 0.929 . S
H796 C825 0.930 . S
H797 C802 0.930 . S
H798 C806 0.930 . S
O799 Co768 2.037 . S
O799 C819 1.234 . S
C800 O774 1.269 . S
C800 O775 1.257 . S
C801 H776 0.930 . S
C801 C804 1.388 . S
C801 C806 1.418 . S
C802 H797 0.930 . S
C802 C805 1.404 . S
C802 C806 1.353 . S
N803 Co768 2.145 . S
N803 C804 1.397 . S
N803 C805 1.334 . S
C804 H785 0.929 . S
C804 C801 1.388 . S
C804 N803 1.397 . S
C805 H786 0.929 . S
C805 C802 1.404 . S
C805 N803 1.334 . S
C806 H798 0.930 . S
C806 C801 1.418 . S
C806 C802 1.353 . S
C807 H777 0.930 . S
C807 N808 1.330 . S
C807 C809 1.446 . S
N808 Co767 2.151 . S
N808 C807 1.330 . S
N808 C812 1.418 . S
C809 H788 0.929 . S
C809 C807 1.446 . S
C809 C810 1.332 . S
C810 H790 0.931 . S
C810 C809 1.332 . S
C810 C811 1.267 . S
C811 H779 0.929 . S
C811 C810 1.267 . S
C811 C812 1.251 . S
C812 H782 0.929 . S
C812 N808 1.418 . S
C812 C811 1.251 . S
C813 H780 0.930 . S
C813 C815 1.406 . S
C813 C818 1.261 . S
C814 H781 0.930 . S
C814 N816 1.325 . S
C814 C817 1.357 . S
C815 H783 0.928 . S
C815 C813 1.406 . S
C815 N816 1.261 . S
N816 Co767 2.214 . S
N816 C814 1.325 . S
N816 C815 1.261 . S
C817 H787 0.931 . S
C817 C814 1.357 . S
C817 C818 1.312 . S
C818 H789 0.930 . S
C818 C813 1.261 . S
C818 C817 1.312 . S
C819 O791 1.214 . S
C819 O799 1.234 . S
C820 H792 0.929 . S
C820 C823 1.391 . S
C820 C825 1.391 . S
C821 H793 0.929 . S
C821 C822 1.390 . S
C821 N824 1.391 . S
C822 H794 0.930 . S
C822 C821 1.390 . S
C822 C823 1.392 . S
C823 H795 0.929 . S
C823 C820 1.391 . S
C823 C822 1.392 . S
N824 Co768 2.257 . S
N824 C821 1.391 . S
N824 C825 1.388 . S
C825 H796 0.930 . S
C825 C820 1.391 . S
C825 N824 1.388 . S
Co826 O828 2.143 . S
Co826 O834 2.074 . S
Co826 O837 2.093 . S
Co826 O850 2.097 . S
Co826 N867 2.151 . S
Co826 N875 2.214 . S
Co827 O828 2.160 . S
Co827 O833 2.058 . S
Co827 O843 2.057 . S
Co827 O858 2.037 . S
Co827 N862 2.145 . S
Co827 N883 2.257 . S
O828 Co826 2.143 . S
O828 Co827 2.160 . S
C829 O830 1.278 . S
C829 O837 1.224 . S
O830 C829 1.278 . S
C831 O832 1.245 . S
C831 O843 1.232 . S
O832 C831 1.245 . S
O833 Co827 2.058 . S
O833 C859 1.269 . S
O834 Co826 2.074 . S
O834 C859 1.257 . S
H835 C860 0.930 . S
H836 C866 0.930 . S
O837 Co826 2.093 . S
O837 C829 1.224 . S
H838 C870 0.929 . S
H839 C872 0.930 . S
H840 C873 0.930 . S
H841 C871 0.929 . S
H842 C874 0.928 . S
O843 Co827 2.057 . S
O843 C831 1.232 . S
H844 C863 0.929 . S
H845 C864 0.929 . S
H846 C876 0.931 . S
H847 C868 0.929 . S
H848 C877 0.930 . S
H849 C869 0.931 . S
O850 Co826 2.097 . S
O850 C878 1.214 . S
H851 C879 0.929 . S
H852 C880 0.929 . S
H853 C881 0.930 . S
H854 C882 0.929 1_554 S
H855 C884 0.930 . S
H856 C861 0.930 . S
H857 C865 0.930 . S
O858 Co827 2.037 . S
O858 C878 1.234 . S
C859 O833 1.269 . S
C859 O834 1.257 . S
C860 H835 0.930 . S
C860 C863 1.388 . S
C860 C865 1.418 . S
C861 H856 0.930 . S
C861 C864 1.404 . S
C861 C865 1.353 . S
N862 Co827 2.145 . S
N862 C863 1.397 . S
N862 C864 1.334 . S
C863 H844 0.929 . S
C863 C860 1.388 . S
C863 N862 1.397 . S
C864 H845 0.929 . S
C864 C861 1.404 . S
C864 N862 1.334 . S
C865 H857 0.930 . S
C865 C860 1.418 . S
C865 C861 1.353 . S
C866 H836 0.930 . S
C866 N867 1.330 . S
C866 C868 1.446 . S
N867 Co826 2.151 . S
N867 C866 1.330 . S
N867 C871 1.418 . S
C868 H847 0.929 . S
C868 C866 1.446 . S
C868 C869 1.332 . S
C869 H849 0.931 . S
C869 C868 1.332 . S
C869 C870 1.267 . S
C870 H838 0.929 . S
C870 C869 1.267 . S
C870 C871 1.251 . S
C871 H841 0.929 . S
C871 N867 1.418 . S
C871 C870 1.251 . S
C872 H839 0.930 . S
C872 C874 1.406 . S
C872 C877 1.261 . S
C873 H840 0.930 . S
C873 N875 1.325 . S
C873 C876 1.357 . S
C874 H842 0.928 . S
C874 C872 1.406 . S
C874 N875 1.261 . S
N875 Co826 2.214 . S
N875 C873 1.325 . S
N875 C874 1.261 . S
C876 H846 0.931 . S
C876 C873 1.357 . S
C876 C877 1.312 . S
C877 H848 0.930 . S
C877 C872 1.261 . S
C877 C876 1.312 . S
C878 O850 1.214 . S
C878 O858 1.234 . S
C879 H851 0.929 . S
C879 C882 1.391 . S
C879 C884 1.391 . S
C880 H852 0.929 . S
C880 C881 1.390 . S
C880 N883 1.391 . S
C881 H853 0.930 . S
C881 C880 1.390 . S
C881 C882 1.392 . S
C882 H854 0.929 1_556 S
C882 C879 1.391 . S
C882 C881 1.392 . S
N883 Co827 2.257 . S
N883 C880 1.391 . S
N883 C884 1.388 . S
C884 H855 0.930 . S
C884 C879 1.391 . S
C884 N883 1.388 . S
Co885 O887 2.143 . S
Co885 O893 2.074 . S
Co885 O896 2.093 . S
Co885 O909 2.097 . S
Co885 N926 2.151 . S
Co885 N934 2.214 . S
Co886 O887 2.160 . S
Co886 O892 2.058 . S
Co886 O902 2.057 . S
Co886 O917 2.037 . S
Co886 N921 2.145 . S
Co886 N942 2.257 . S
O887 Co885 2.143 . S
O887 Co886 2.160 . S
C888 O889 1.278 . S
C888 O896 1.224 . S
O889 C888 1.278 . S
C890 O891 1.245 . S
C890 O902 1.232 . S
O891 C890 1.245 . S
O892 Co886 2.058 . S
O892 C918 1.269 . S
O893 Co885 2.074 . S
O893 C918 1.257 . S
H894 C919 0.930 . S
H895 C925 0.930 . S
O896 Co885 2.093 . S
O896 C888 1.224 . S
H897 C929 0.929 . S
H898 C931 0.930 . S
H899 C932 0.930 . S
H900 C930 0.929 . S
H901 C933 0.928 . S
O902 Co886 2.057 . S
O902 C890 1.232 . S
H903 C922 0.929 . S
H904 C923 0.929 . S
H905 C935 0.931 . S
H906 C927 0.929 . S
H907 C936 0.930 . S
H908 C928 0.931 . S
O909 Co885 2.097 . S
O909 C937 1.214 . S
H910 C938 0.929 . S
H911 C939 0.929 . S
H912 C940 0.930 . S
H913 C941 0.929 . S
H914 C943 0.930 . S
H915 C920 0.930 . S
H916 C924 0.930 . S
O917 Co886 2.037 . S
O917 C937 1.234 . S
C918 O892 1.269 . S
C918 O893 1.257 . S
C919 H894 0.930 . S
C919 C922 1.388 . S
C919 C924 1.418 . S
C920 H915 0.930 . S
C920 C923 1.404 . S
C920 C924 1.353 . S
N921 Co886 2.145 . S
N921 C922 1.397 . S
N921 C923 1.334 . S
C922 H903 0.929 . S
C922 C919 1.388 . S
C922 N921 1.397 . S
C923 H904 0.929 . S
C923 C920 1.404 . S
C923 N921 1.334 . S
C924 H916 0.930 . S
C924 C919 1.418 . S
C924 C920 1.353 . S
C925 H895 0.930 . S
C925 N926 1.330 . S
C925 C927 1.446 . S
N926 Co885 2.151 . S
N926 C925 1.330 . S
N926 C930 1.418 . S
C927 H906 0.929 . S
C927 C925 1.446 . S
C927 C928 1.332 . S
C928 H908 0.931 . S
C928 C927 1.332 . S
C928 C929 1.267 . S
C929 H897 0.929 . S
C929 C928 1.267 . S
C929 C930 1.251 . S
C930 H900 0.929 . S
C930 N926 1.418 . S
C930 C929 1.251 . S
C931 H898 0.930 . S
C931 C933 1.406 . S
C931 C936 1.261 . S
C932 H899 0.930 . S
C932 N934 1.325 . S
C932 C935 1.357 . S
C933 H901 0.928 . S
C933 C931 1.406 . S
C933 N934 1.261 . S
N934 Co885 2.214 . S
N934 C932 1.325 . S
N934 C933 1.261 . S
C935 H905 0.931 . S
C935 C932 1.357 . S
C935 C936 1.312 . S
C936 H907 0.930 . S
C936 C931 1.261 . S
C936 C935 1.312 . S
C937 O909 1.214 . S
C937 O917 1.234 . S
C938 H910 0.929 . S
C938 C941 1.391 . S
C938 C943 1.391 . S
C939 H911 0.929 . S
C939 C940 1.390 . S
C939 N942 1.391 . S
C940 H912 0.930 . S
C940 C939 1.390 . S
C940 C941 1.392 . S
C941 H913 0.929 . S
C941 C938 1.391 . S
C941 C940 1.392 . S
N942 Co886 2.257 . S
N942 C939 1.391 . S
N942 C943 1.388 . S
C943 H914 0.930 . S
C943 C938 1.391 . S
C943 N942 1.388 . S
Co944 O946 2.143 . S
Co944 O952 2.074 . S
Co944 O955 2.093 . S
Co944 O968 2.097 . S
Co944 N985 2.151 . S
Co944 N993 2.214 . S
Co945 O946 2.160 . S
Co945 O951 2.058 . S
Co945 O961 2.057 . S
Co945 O976 2.037 . S
Co945 N980 2.145 . S
Co945 N1001 2.257 . S
O946 Co944 2.143 . S
O946 Co945 2.160 . S
C947 O948 1.278 . S
C947 O955 1.224 . S
O948 C947 1.278 . S
C949 O950 1.245 . S
C949 O961 1.232 . S
O950 C949 1.245 . S
O951 Co945 2.058 . S
O951 C977 1.269 . S
O952 Co944 2.074 . S
O952 C977 1.257 . S
H953 C978 0.930 . S
H954 C984 0.930 . S
O955 Co944 2.093 . S
O955 C947 1.224 . S
H956 C988 0.929 . S
H957 C990 0.930 . S
H958 C991 0.930 . S
H959 C989 0.929 . S
H960 C992 0.928 . S
O961 Co945 2.057 . S
O961 C949 1.232 . S
H962 C981 0.929 . S
H963 C982 0.929 . S
H964 C994 0.931 . S
H965 C986 0.929 . S
H966 C995 0.930 . S
H967 C987 0.931 . S
O968 Co944 2.097 . S
O968 C996 1.214 . S
H969 C997 0.929 . S
H970 C998 0.929 . S
H971 C999 0.930 . S
H972 C1000 0.929 . S
H973 C1002 0.930 . S
H974 C979 0.930 . S
H975 C983 0.930 . S
O976 Co945 2.037 . S
O976 C996 1.234 . S
C977 O951 1.269 . S
C977 O952 1.257 . S
C978 H953 0.930 . S
C978 C981 1.388 1_655 S
C978 C983 1.418 . S
C979 H974 0.930 . S
C979 C982 1.404 1_655 S
C979 C983 1.353 . S
N980 Co945 2.145 . S
N980 C981 1.397 . S
N980 C982 1.334 . S
C981 H962 0.929 . S
C981 C978 1.388 1_455 S
C981 N980 1.397 . S
C982 H963 0.929 . S
C982 C979 1.404 1_455 S
C982 N980 1.334 . S
C983 H975 0.930 . S
C983 C978 1.418 . S
C983 C979 1.353 . S
C984 H954 0.930 . S
C984 N985 1.330 . S
C984 C986 1.446 . S
N985 Co944 2.151 . S
N985 C984 1.330 . S
N985 C989 1.418 . S
C986 H965 0.929 . S
C986 C984 1.446 . S
C986 C987 1.332 . S
C987 H967 0.931 . S
C987 C986 1.332 . S
C987 C988 1.267 . S
C988 H956 0.929 . S
C988 C987 1.267 . S
C988 C989 1.251 . S
C989 H959 0.929 . S
C989 N985 1.418 . S
C989 C988 1.251 . S
C990 H957 0.930 . S
C990 C992 1.406 . S
C990 C995 1.261 . S
C991 H958 0.930 . S
C991 N993 1.325 . S
C991 C994 1.357 . S
C992 H960 0.928 . S
C992 C990 1.406 . S
C992 N993 1.261 . S
N993 Co944 2.214 . S
N993 C991 1.325 . S
N993 C992 1.261 . S
C994 H964 0.931 . S
C994 C991 1.357 . S
C994 C995 1.312 . S
C995 H966 0.930 . S
C995 C990 1.261 . S
C995 C994 1.312 . S
C996 O968 1.214 . S
C996 O976 1.234 . S
C997 H969 0.929 . S
C997 C1000 1.391 . S
C997 C1002 1.391 . S
C998 H970 0.929 . S
C998 C999 1.390 . S
C998 N1001 1.391 . S
C999 H971 0.930 . S
C999 C998 1.390 . S
C999 C1000 1.392 . S
C1000 H972 0.929 . S
C1000 C997 1.391 . S
C1000 C999 1.392 . S
N1001 Co945 2.257 . S
N1001 C998 1.391 . S
N1001 C1002 1.388 . S
C1002 H973 0.930 . S
C1002 C997 1.391 . S
C1002 N1001 1.388 . S
Co1003 O1005 2.143 . S
Co1003 O1011 2.074 . S
Co1003 O1014 2.093 . S
Co1003 O1027 2.097 . S
Co1003 N1044 2.151 . S
Co1003 N1052 2.214 . S
Co1004 O1005 2.160 . S
Co1004 O1010 2.058 . S
Co1004 O1020 2.057 . S
Co1004 O1035 2.037 . S
Co1004 N1039 2.145 . S
Co1004 N1060 2.257 . S
O1005 Co1003 2.143 . S
O1005 Co1004 2.160 . S
C1006 O1007 1.278 . S
C1006 O1014 1.224 . S
O1007 C1006 1.278 . S
C1008 O1009 1.245 . S
C1008 O1020 1.232 . S
O1009 C1008 1.245 . S
O1010 Co1004 2.058 . S
O1010 C1036 1.269 . S
O1011 Co1003 2.074 . S
O1011 C1036 1.257 . S
H1012 C1037 0.930 . S
H1013 C1043 0.930 . S
O1014 Co1003 2.093 . S
O1014 C1006 1.224 . S
H1015 C1047 0.929 . S
H1016 C1049 0.930 . S
H1017 C1050 0.930 . S
H1018 C1048 0.929 . S
H1019 C1051 0.928 . S
O1020 Co1004 2.057 . S
O1020 C1008 1.232 . S
H1021 C1040 0.929 . S
H1022 C1041 0.929 . S
H1023 C1053 0.931 . S
H1024 C1045 0.929 . S
H1025 C1054 0.930 . S
H1026 C1046 0.931 . S
O1027 Co1003 2.097 . S
O1027 C1055 1.214 . S
H1028 C1056 0.929 . S
H1029 C1057 0.929 . S
H1030 C1058 0.930 . S
H1031 C1059 0.929 1_655 S
H1032 C1061 0.930 . S
H1033 C1038 0.930 . S
H1034 C1042 0.930 . S
O1035 Co1004 2.037 . S
O1035 C1055 1.234 . S
C1036 O1010 1.269 . S
C1036 O1011 1.257 . S
C1037 H1012 0.930 . S
C1037 C1040 1.388 . S
C1037 C1042 1.418 . S
C1038 H1033 0.930 . S
C1038 C1041 1.404 . S
C1038 C1042 1.353 . S
N1039 Co1004 2.145 . S
N1039 C1040 1.397 . S
N1039 C1041 1.334 . S
C1040 H1021 0.929 . S
C1040 C1037 1.388 . S
C1040 N1039 1.397 . S
C1041 H1022 0.929 . S
C1041 C1038 1.404 . S
C1041 N1039 1.334 . S
C1042 H1034 0.930 . S
C1042 C1037 1.418 . S
C1042 C1038 1.353 . S
C1043 H1013 0.930 . S
C1043 N1044 1.330 . S
C1043 C1045 1.446 . S
N1044 Co1003 2.151 . S
N1044 C1043 1.330 . S
N1044 C1048 1.418 . S
C1045 H1024 0.929 . S
C1045 C1043 1.446 . S
C1045 C1046 1.332 . S
C1046 H1026 0.931 . S
C1046 C1045 1.332 . S
C1046 C1047 1.267 . S
C1047 H1015 0.929 . S
C1047 C1046 1.267 . S
C1047 C1048 1.251 . S
C1048 H1018 0.929 . S
C1048 N1044 1.418 . S
C1048 C1047 1.251 . S
C1049 H1016 0.930 . S
C1049 C1051 1.406 . S
C1049 C1054 1.261 . S
C1050 H1017 0.930 . S
C1050 N1052 1.325 . S
C1050 C1053 1.357 . S
C1051 H1019 0.928 . S
C1051 C1049 1.406 . S
C1051 N1052 1.261 . S
N1052 Co1003 2.214 . S
N1052 C1050 1.325 . S
N1052 C1051 1.261 . S
C1053 H1023 0.931 . S
C1053 C1050 1.357 . S
C1053 C1054 1.312 . S
C1054 H1025 0.930 . S
C1054 C1049 1.261 . S
C1054 C1053 1.312 . S
C1055 O1027 1.214 . S
C1055 O1035 1.234 . S
C1056 H1028 0.929 . S
C1056 C1059 1.391 . S
C1056 C1061 1.391 . S
C1057 H1029 0.929 . S
C1057 C1058 1.390 . S
C1057 N1060 1.391 . S
C1058 H1030 0.930 . S
C1058 C1057 1.390 . S
C1058 C1059 1.392 . S
C1059 H1031 0.929 1_455 S
C1059 C1056 1.391 . S
C1059 C1058 1.392 . S
N1060 Co1004 2.257 . S
N1060 C1057 1.391 . S
N1060 C1061 1.388 . S
C1061 H1032 0.930 . S
C1061 C1056 1.391 . S
C1061 N1060 1.388 . S
Co1062 O1064 2.143 . S
Co1062 O1070 2.074 . S
Co1062 O1073 2.093 . S
Co1062 O1086 2.097 . S
Co1062 N1103 2.151 . S
Co1062 N1111 2.214 . S
Co1063 O1064 2.160 . S
Co1063 O1069 2.058 . S
Co1063 O1079 2.057 . S
Co1063 O1094 2.037 . S
Co1063 N1098 2.145 . S
Co1063 N1119 2.257 . S
O1064 Co1062 2.143 . S
O1064 Co1063 2.160 . S
C1065 O1066 1.278 . S
C1065 O1073 1.224 . S
O1066 C1065 1.278 . S
C1067 O1068 1.245 . S
C1067 O1079 1.232 . S
O1068 C1067 1.245 . S
O1069 Co1063 2.058 . S
O1069 C1095 1.269 . S
O1070 Co1062 2.074 . S
O1070 C1095 1.257 . S
H1071 C1096 0.930 . S
H1072 C1102 0.930 . S
O1073 Co1062 2.093 . S
O1073 C1065 1.224 . S
H1074 C1106 0.929 . S
H1075 C1108 0.930 . S
H1076 C1109 0.930 . S
H1077 C1107 0.929 . S
H1078 C1110 0.928 . S
O1079 Co1063 2.057 . S
O1079 C1067 1.232 . S
H1080 C1099 0.929 . S
H1081 C1100 0.929 . S
H1082 C1112 0.931 . S
H1083 C1104 0.929 . S
H1084 C1113 0.930 . S
H1085 C1105 0.931 . S
O1086 Co1062 2.097 . S
O1086 C1114 1.214 . S
H1087 C1115 0.929 . S
H1088 C1116 0.929 . S
H1089 C1117 0.930 . S
H1090 C1118 0.929 . S
H1091 C1120 0.930 . S
H1092 C1097 0.930 . S
H1093 C1101 0.930 . S
O1094 Co1063 2.037 . S
O1094 C1114 1.234 . S
C1095 O1069 1.269 . S
C1095 O1070 1.257 . S
C1096 H1071 0.930 . S
C1096 C1099 1.388 . S
C1096 C1101 1.418 . S
C1097 H1092 0.930 . S
C1097 C1100 1.404 . S
C1097 C1101 1.353 . S
N1098 Co1063 2.145 . S
N1098 C1099 1.397 . S
N1098 C1100 1.334 . S
C1099 H1080 0.929 . S
C1099 C1096 1.388 . S
C1099 N1098 1.397 . S
C1100 H1081 0.929 . S
C1100 C1097 1.404 . S
C1100 N1098 1.334 . S
C1101 H1093 0.930 . S
C1101 C1096 1.418 . S
C1101 C1097 1.353 . S
C1102 H1072 0.930 . S
C1102 N1103 1.330 . S
C1102 C1104 1.446 . S
N1103 Co1062 2.151 . S
N1103 C1102 1.330 . S
N1103 C1107 1.418 . S
C1104 H1083 0.929 . S
C1104 C1102 1.446 . S
C1104 C1105 1.332 . S
C1105 H1085 0.931 . S
C1105 C1104 1.332 . S
C1105 C1106 1.267 . S
C1106 H1074 0.929 . S
C1106 C1105 1.267 . S
C1106 C1107 1.251 . S
C1107 H1077 0.929 . S
C1107 N1103 1.418 . S
C1107 C1106 1.251 . S
C1108 H1075 0.930 . S
C1108 C1110 1.406 . S
C1108 C1113 1.261 . S
C1109 H1076 0.930 . S
C1109 N1111 1.325 . S
C1109 C1112 1.357 . S
C1110 H1078 0.928 . S
C1110 C1108 1.406 . S
C1110 N1111 1.261 . S
N1111 Co1062 2.214 . S
N1111 C1109 1.325 . S
N1111 C1110 1.261 . S
C1112 H1082 0.931 . S
C1112 C1109 1.357 . S
C1112 C1113 1.312 . S
C1113 H1084 0.930 . S
C1113 C1108 1.261 . S
C1113 C1112 1.312 . S
C1114 O1086 1.214 . S
C1114 O1094 1.234 . S
C1115 H1087 0.929 . S
C1115 C1118 1.391 . S
C1115 C1120 1.391 . S
C1116 H1088 0.929 . S
C1116 C1117 1.390 . S
C1116 N1119 1.391 . S
C1117 H1089 0.930 . S
C1117 C1116 1.390 . S
C1117 C1118 1.392 . S
C1118 H1090 0.929 . S
C1118 C1115 1.391 . S
C1118 C1117 1.392 . S
N1119 Co1063 2.257 . S
N1119 C1116 1.391 . S
N1119 C1120 1.388 . S
C1120 H1091 0.930 . S
C1120 C1115 1.391 . S
C1120 N1119 1.388 . S
Co1121 O1123 2.143 . S
Co1121 O1129 2.074 . S
Co1121 O1132 2.093 . S
Co1121 O1145 2.097 . S
Co1121 N1162 2.151 . S
Co1121 N1170 2.214 . S
Co1122 O1123 2.160 . S
Co1122 O1128 2.058 . S
Co1122 O1138 2.057 . S
Co1122 O1153 2.037 . S
Co1122 N1157 2.145 . S
Co1122 N1178 2.257 . S
O1123 Co1121 2.143 . S
O1123 Co1122 2.160 . S
C1124 O1125 1.278 . S
C1124 O1132 1.224 . S
O1125 C1124 1.278 . S
C1126 O1127 1.245 . S
C1126 O1138 1.232 . S
O1127 C1126 1.245 . S
O1128 Co1122 2.058 . S
O1128 C1154 1.269 . S
O1129 Co1121 2.074 . S
O1129 C1154 1.257 . S
H1130 C1155 0.930 . S
H1131 C1161 0.930 . S
O1132 Co1121 2.093 . S
O1132 C1124 1.224 . S
H1133 C1165 0.929 . S
H1134 C1167 0.930 . S
H1135 C1168 0.930 . S
H1136 C1166 0.929 . S
H1137 C1169 0.928 . S
O1138 Co1122 2.057 . S
O1138 C1126 1.232 . S
H1139 C1158 0.929 . S
H1140 C1159 0.929 . S
H1141 C1171 0.931 . S
H1142 C1163 0.929 . S
H1143 C1172 0.930 . S
H1144 C1164 0.931 . S
O1145 Co1121 2.097 . S
O1145 C1173 1.214 . S
H1146 C1174 0.929 . S
H1147 C1175 0.929 . S
H1148 C1176 0.930 . S
H1149 C1177 0.929 . S
H1150 C1179 0.930 . S
H1151 C1156 0.930 . S
H1152 C1160 0.930 . S
O1153 Co1122 2.037 . S
O1153 C1173 1.234 . S
C1154 O1128 1.269 . S
C1154 O1129 1.257 . S
C1155 H1130 0.930 . S
C1155 C1158 1.388 . S
C1155 C1160 1.418 . S
C1156 H1151 0.930 . S
C1156 C1159 1.404 . S
C1156 C1160 1.353 . S
N1157 Co1122 2.145 . S
N1157 C1158 1.397 . S
N1157 C1159 1.334 . S
C1158 H1139 0.929 . S
C1158 C1155 1.388 . S
C1158 N1157 1.397 . S
C1159 H1140 0.929 . S
C1159 C1156 1.404 . S
C1159 N1157 1.334 . S
C1160 H1152 0.930 . S
C1160 C1155 1.418 . S
C1160 C1156 1.353 . S
C1161 H1131 0.930 . S
C1161 N1162 1.330 . S
C1161 C1163 1.446 . S
N1162 Co1121 2.151 . S
N1162 C1161 1.330 . S
N1162 C1166 1.418 . S
C1163 H1142 0.929 . S
C1163 C1161 1.446 . S
C1163 C1164 1.332 . S
C1164 H1144 0.931 . S
C1164 C1163 1.332 . S
C1164 C1165 1.267 . S
C1165 H1133 0.929 . S
C1165 C1164 1.267 . S
C1165 C1166 1.251 . S
C1166 H1136 0.929 . S
C1166 N1162 1.418 . S
C1166 C1165 1.251 . S
C1167 H1134 0.930 . S
C1167 C1169 1.406 . S
C1167 C1172 1.261 . S
C1168 H1135 0.930 . S
C1168 N1170 1.325 . S
C1168 C1171 1.357 . S
C1169 H1137 0.928 . S
C1169 C1167 1.406 . S
C1169 N1170 1.261 . S
N1170 Co1121 2.214 . S
N1170 C1168 1.325 . S
N1170 C1169 1.261 . S
C1171 H1141 0.931 . S
C1171 C1168 1.357 . S
C1171 C1172 1.312 . S
C1172 H1143 0.930 . S
C1172 C1167 1.261 . S
C1172 C1171 1.312 . S
C1173 O1145 1.214 . S
C1173 O1153 1.234 . S
C1174 H1146 0.929 . S
C1174 C1177 1.391 1_655 S
C1174 C1179 1.391 . S
C1175 H1147 0.929 . S
C1175 C1176 1.390 . S
C1175 N1178 1.391 . S
C1176 H1148 0.930 . S
C1176 C1175 1.390 . S
C1176 C1177 1.392 1_655 S
C1177 H1149 0.929 . S
C1177 C1174 1.391 1_455 S
C1177 C1176 1.392 1_455 S
N1178 Co1122 2.257 . S
N1178 C1175 1.391 . S
N1178 C1179 1.388 . S
C1179 H1150 0.930 . S
C1179 C1174 1.391 . S
C1179 N1178 1.388 . S
Co1180 O1182 2.143 . S
Co1180 O1188 2.074 . S
Co1180 O1191 2.093 . S
Co1180 O1204 2.097 . S
Co1180 N1221 2.151 . S
Co1180 N1229 2.214 . S
Co1181 O1182 2.160 . S
Co1181 O1187 2.058 . S
Co1181 O1197 2.057 . S
Co1181 O1212 2.037 . S
Co1181 N1216 2.145 . S
Co1181 N1237 2.257 . S
O1182 Co1180 2.143 . S
O1182 Co1181 2.160 . S
C1183 O1184 1.278 . S
C1183 O1191 1.224 . S
O1184 C1183 1.278 . S
C1185 O1186 1.245 . S
C1185 O1197 1.232 . S
O1186 C1185 1.245 . S
O1187 Co1181 2.058 . S
O1187 C1213 1.269 . S
O1188 Co1180 2.074 . S
O1188 C1213 1.257 . S
H1189 C1214 0.930 . S
H1190 C1220 0.930 . S
O1191 Co1180 2.093 . S
O1191 C1183 1.224 . S
H1192 C1224 0.929 1_655 S
H1193 C1226 0.930 . S
H1194 C1227 0.930 . S
H1195 C1225 0.929 . S
H1196 C1228 0.928 . S
O1197 Co1181 2.057 . S
O1197 C1185 1.232 . S
H1198 C1217 0.929 . S
H1199 C1218 0.929 . S
H1200 C1230 0.931 . S
H1201 C1222 0.929 . S
H1202 C1231 0.933 1_655 S
H1203 C1223 0.922 1_655 S
O1204 Co1180 2.097 . S
O1204 C1232 1.214 . S
H1205 C1233 0.929 . S
H1206 C1234 0.929 . S
H1207 C1235 0.930 . S
H1208 C1236 0.929 . S
H1209 C1238 0.930 . S
H1210 C1215 0.930 . S
H1211 C1219 0.930 . S
O1212 Co1181 2.037 . S
O1212 C1232 1.234 . S
C1213 O1187 1.269 . S
C1213 O1188 1.257 . S
C1214 H1189 0.930 . S
C1214 C1217 1.388 . S
C1214 C1219 1.418 . S
C1215 H1210 0.930 . S
C1215 C1218 1.404 . S
C1215 C1219 1.353 . S
N1216 Co1181 2.145 . S
N1216 C1217 1.397 . S
N1216 C1218 1.334 . S
C1217 H1198 0.929 . S
C1217 C1214 1.388 . S
C1217 N1216 1.397 . S
C1218 H1199 0.929 . S
C1218 C1215 1.404 . S
C1218 N1216 1.334 . S
C1219 H1211 0.930 . S
C1219 C1214 1.418 . S
C1219 C1215 1.353 . S
C1220 H1190 0.930 . S
C1220 N1221 1.330 . S
C1220 C1222 1.446 . S
N1221 Co1180 2.151 . S
N1221 C1220 1.330 . S
N1221 C1225 1.418 . S
C1222 H1201 0.929 . S
C1222 C1220 1.446 . S
C1222 C1223 1.332 . S
C1223 H1203 0.922 1_455 S
C1223 C1222 1.332 . S
C1223 C1224 1.267 . S
C1224 H1192 0.929 1_455 S
C1224 C1223 1.267 . S
C1224 C1225 1.251 . S
C1225 H1195 0.929 . S
C1225 N1221 1.418 . S
C1225 C1224 1.251 . S
C1226 H1193 0.930 . S
C1226 C1228 1.406 . S
C1226 C1231 1.261 . S
C1227 H1194 0.930 . S
C1227 N1229 1.325 . S
C1227 C1230 1.357 . S
C1228 H1196 0.928 . S
C1228 C1226 1.406 . S
C1228 N1229 1.261 . S
N1229 Co1180 2.214 . S
N1229 C1227 1.325 . S
N1229 C1228 1.261 . S
C1230 H1200 0.931 . S
C1230 C1227 1.357 . S
C1230 C1231 1.312 . S
C1231 H1202 0.933 1_455 S
C1231 C1226 1.261 . S
C1231 C1230 1.312 . S
C1232 O1204 1.214 . S
C1232 O1212 1.234 . S
C1233 H1205 0.929 . S
C1233 C1236 1.391 . S
C1233 C1238 1.391 . S
C1234 H1206 0.929 . S
C1234 C1235 1.390 . S
C1234 N1237 1.391 . S
C1235 H1207 0.930 . S
C1235 C1234 1.390 . S
C1235 C1236 1.392 . S
C1236 H1208 0.929 . S
C1236 C1233 1.391 . S
C1236 C1235 1.392 . S
N1237 Co1181 2.257 . S
N1237 C1234 1.391 . S
N1237 C1238 1.388 . S
C1238 H1209 0.930 . S
C1238 C1233 1.391 . S
C1238 N1237 1.388 . S
Co1239 O1241 2.143 . S
Co1239 O1247 2.074 . S
Co1239 O1250 2.093 . S
Co1239 O1263 2.097 . S
Co1239 N1280 2.151 . S
Co1239 N1288 2.214 . S
Co1240 O1241 2.160 . S
Co1240 O1246 2.058 . S
Co1240 O1256 2.057 . S
Co1240 O1271 2.037 . S
Co1240 N1275 2.145 . S
Co1240 N1296 2.257 . S
O1241 Co1239 2.143 . S
O1241 Co1240 2.160 . S
C1242 O1243 1.278 . S
C1242 O1250 1.224 . S
O1243 C1242 1.278 . S
C1244 O1245 1.245 . S
C1244 O1256 1.232 . S
O1245 C1244 1.245 . S
O1246 Co1240 2.058 . S
O1246 C1272 1.269 . S
O1247 Co1239 2.074 . S
O1247 C1272 1.257 . S
H1248 C1273 0.930 . S
H1249 C1279 0.930 . S
O1250 Co1239 2.093 . S
O1250 C1242 1.224 . S
H1251 C1283 0.929 . S
H1252 C1285 0.930 . S
H1253 C1286 0.930 . S
H1254 C1284 0.929 . S
H1255 C1287 0.928 . S
O1256 Co1240 2.057 . S
O1256 C1244 1.232 . S
H1257 C1276 0.929 . S
H1258 C1277 0.929 . S
H1259 C1289 0.931 . S
H1260 C1281 0.929 . S
H1261 C1290 0.930 . S
H1262 C1282 0.931 . S
O1263 Co1239 2.097 . S
O1263 C1291 1.214 . S
H1264 C1292 0.929 . S
H1265 C1293 0.929 . S
H1266 C1294 0.930 . S
H1267 C1295 0.929 1_455 S
H1268 C1297 0.930 . S
H1269 C1274 0.930 . S
H1270 C1278 0.930 . S
O1271 Co1240 2.037 . S
O1271 C1291 1.234 . S
C1272 O1246 1.269 . S
C1272 O1247 1.257 . S
C1273 H1248 0.930 . S
C1273 C1276 1.388 . S
C1273 C1278 1.418 . S
C1274 H1269 0.930 . S
C1274 C1277 1.404 . S
C1274 C1278 1.353 . S
N1275 Co1240 2.145 . S
N1275 C1276 1.397 . S
N1275 C1277 1.334 . S
C1276 H1257 0.929 . S
C1276 C1273 1.388 . S
C1276 N1275 1.397 . S
C1277 H1258 0.929 . S
C1277 C1274 1.404 . S
C1277 N1275 1.334 . S
C1278 H1270 0.930 . S
C1278 C1273 1.418 . S
C1278 C1274 1.353 . S
C1279 H1249 0.930 . S
C1279 N1280 1.330 . S
C1279 C1281 1.446 . S
N1280 Co1239 2.151 . S
N1280 C1279 1.330 . S
N1280 C1284 1.418 . S
C1281 H1260 0.929 . S
C1281 C1279 1.446 . S
C1281 C1282 1.332 . S
C1282 H1262 0.931 . S
C1282 C1281 1.332 . S
C1282 C1283 1.267 . S
C1283 H1251 0.929 . S
C1283 C1282 1.267 . S
C1283 C1284 1.251 . S
C1284 H1254 0.929 . S
C1284 N1280 1.418 . S
C1284 C1283 1.251 . S
C1285 H1252 0.930 . S
C1285 C1287 1.406 . S
C1285 C1290 1.261 . S
C1286 H1253 0.930 . S
C1286 N1288 1.325 . S
C1286 C1289 1.357 . S
C1287 H1255 0.928 . S
C1287 C1285 1.406 . S
C1287 N1288 1.261 . S
N1288 Co1239 2.214 . S
N1288 C1286 1.325 . S
N1288 C1287 1.261 . S
C1289 H1259 0.931 . S
C1289 C1286 1.357 . S
C1289 C1290 1.312 . S
C1290 H1261 0.930 . S
C1290 C1285 1.261 . S
C1290 C1289 1.312 . S
C1291 O1263 1.214 . S
C1291 O1271 1.234 . S
C1292 H1264 0.929 . S
C1292 C1295 1.391 . S
C1292 C1297 1.391 . S
C1293 H1265 0.929 . S
C1293 C1294 1.390 . S
C1293 N1296 1.391 . S
C1294 H1266 0.930 . S
C1294 C1293 1.390 . S
C1294 C1295 1.392 . S
C1295 H1267 0.929 1_655 S
C1295 C1292 1.391 . S
C1295 C1294 1.392 . S
N1296 Co1240 2.257 . S
N1296 C1293 1.391 . S
N1296 C1297 1.388 . S
C1297 H1268 0.930 . S
C1297 C1292 1.391 . S
C1297 N1296 1.388 . S
Co1298 O1300 2.143 . S
Co1298 O1306 2.074 . S
Co1298 O1309 2.093 . S
Co1298 O1322 2.097 . S
Co1298 N1339 2.151 . S
Co1298 N1347 2.214 . S
Co1299 O1300 2.160 . S
Co1299 O1305 2.058 . S
Co1299 O1315 2.057 . S
Co1299 O1330 2.037 . S
Co1299 N1334 2.145 . S
Co1299 N1355 2.257 . S
O1300 Co1298 2.143 . S
O1300 Co1299 2.160 . S
C1301 O1302 1.278 . S
C1301 O1309 1.224 . S
O1302 C1301 1.278 . S
C1303 O1304 1.245 . S
C1303 O1315 1.232 . S
O1304 C1303 1.245 . S
O1305 Co1299 2.058 . S
O1305 C1331 1.269 . S
O1306 Co1298 2.074 . S
O1306 C1331 1.257 . S
H1307 C1332 0.930 . S
H1308 C1338 0.930 . S
O1309 Co1298 2.093 . S
O1309 C1301 1.224 . S
H1310 C1342 0.929 . S
H1311 C1344 0.930 . S
H1312 C1345 0.930 . S
H1313 C1343 0.929 . S
H1314 C1346 0.928 . S
O1315 Co1299 2.057 . S
O1315 C1303 1.232 . S
H1316 C1335 0.929 . S
H1317 C1336 0.929 . S
H1318 C1348 0.931 . S
H1319 C1340 0.929 . S
H1320 C1349 0.930 . S
H1321 C1341 0.931 . S
O1322 Co1298 2.097 . S
O1322 C1350 1.214 . S
H1323 C1351 0.929 . S
H1324 C1352 0.929 . S
H1325 C1353 0.930 . S
H1326 C1354 0.929 . S
H1327 C1356 0.930 . S
H1328 C1333 0.930 . S
H1329 C1337 0.930 . S
O1330 Co1299 2.037 . S
O1330 C1350 1.234 . S
C1331 O1305 1.269 . S
C1331 O1306 1.257 . S
C1332 H1307 0.930 . S
C1332 C1335 1.388 . S
C1332 C1337 1.418 . S
C1333 H1328 0.930 . S
C1333 C1336 1.404 . S
C1333 C1337 1.353 . S
N1334 Co1299 2.145 . S
N1334 C1335 1.397 . S
N1334 C1336 1.334 . S
C1335 H1316 0.929 . S
C1335 C1332 1.388 . S
C1335 N1334 1.397 . S
C1336 H1317 0.929 . S
C1336 C1333 1.404 . S
C1336 N1334 1.334 . S
C1337 H1329 0.930 . S
C1337 C1332 1.418 . S
C1337 C1333 1.353 . S
C1338 H1308 0.930 . S
C1338 N1339 1.330 . S
C1338 C1340 1.446 . S
N1339 Co1298 2.151 . S
N1339 C1338 1.330 . S
N1339 C1343 1.418 . S
C1340 H1319 0.929 . S
C1340 C1338 1.446 . S
C1340 C1341 1.332 . S
C1341 H1321 0.931 . S
C1341 C1340 1.332 . S
C1341 C1342 1.267 . S
C1342 H1310 0.929 . S
C1342 C1341 1.267 . S
C1342 C1343 1.251 . S
C1343 H1313 0.929 . S
C1343 N1339 1.418 . S
C1343 C1342 1.251 . S
C1344 H1311 0.930 . S
C1344 C1346 1.406 . S
C1344 C1349 1.261 . S
C1345 H1312 0.930 . S
C1345 N1347 1.325 . S
C1345 C1348 1.357 . S
C1346 H1314 0.928 . S
C1346 C1344 1.406 . S
C1346 N1347 1.261 . S
N1347 Co1298 2.214 . S
N1347 C1345 1.325 . S
N1347 C1346 1.261 . S
C1348 H1318 0.931 . S
C1348 C1345 1.357 . S
C1348 C1349 1.312 . S
C1349 H1320 0.930 . S
C1349 C1344 1.261 . S
C1349 C1348 1.312 . S
C1350 O1322 1.214 . S
C1350 O1330 1.234 . S
C1351 H1323 0.929 . S
C1351 C1354 1.391 . S
C1351 C1356 1.391 . S
C1352 H1324 0.929 . S
C1352 C1353 1.390 . S
C1352 N1355 1.391 . S
C1353 H1325 0.930 . S
C1353 C1352 1.390 . S
C1353 C1354 1.392 . S
C1354 H1326 0.929 . S
C1354 C1351 1.391 . S
C1354 C1353 1.392 . S
N1355 Co1299 2.257 . S
N1355 C1352 1.391 . S
N1355 C1356 1.388 . S
C1356 H1327 0.930 . S
C1356 C1351 1.391 . S
C1356 N1355 1.388 . S
Co1357 O1359 2.143 . S
Co1357 O1365 2.074 . S
Co1357 O1368 2.093 . S
Co1357 O1381 2.097 . S
Co1357 N1398 2.151 . S
Co1357 N1406 2.214 . S
Co1358 O1359 2.160 . S
Co1358 O1364 2.058 . S
Co1358 O1374 2.057 . S
Co1358 O1389 2.037 . S
Co1358 N1393 2.145 . S
Co1358 N1414 2.257 . S
O1359 Co1357 2.143 . S
O1359 Co1358 2.160 . S
C1360 O1361 1.278 . S
C1360 O1368 1.224 . S
O1361 C1360 1.278 . S
C1362 O1363 1.245 . S
C1362 O1374 1.232 . S
O1363 C1362 1.245 . S
O1364 Co1358 2.058 . S
O1364 C1390 1.269 . S
O1365 Co1357 2.074 . S
O1365 C1390 1.257 . S
H1366 C1391 0.930 . S
H1367 C1397 0.930 . S
O1368 Co1357 2.093 . S
O1368 C1360 1.224 . S
H1369 C1401 0.929 . S
H1370 C1403 0.930 . S
H1371 C1404 0.930 . S
H1372 C1402 0.929 . S
H1373 C1405 0.928 . S
O1374 Co1358 2.057 . S
O1374 C1362 1.232 . S
H1375 C1394 0.929 . S
H1376 C1395 0.929 . S
H1377 C1407 0.931 . S
H1378 C1399 0.929 . S
H1379 C1408 0.930 . S
H1380 C1400 0.931 . S
O1381 Co1357 2.097 . S
O1381 C1409 1.214 . S
H1382 C1410 0.929 . S
H1383 C1411 0.929 . S
H1384 C1412 0.930 . S
H1385 C1413 0.929 . S
H1386 C1415 0.930 . S
H1387 C1392 0.930 . S
H1388 C1396 0.930 . S
O1389 Co1358 2.037 . S
O1389 C1409 1.234 . S
C1390 O1364 1.269 . S
C1390 O1365 1.257 . S
C1391 H1366 0.930 . S
C1391 C1394 1.388 . S
C1391 C1396 1.418 . S
C1392 H1387 0.930 . S
C1392 C1395 1.404 . S
C1392 C1396 1.353 . S
N1393 Co1358 2.145 . S
N1393 C1394 1.397 . S
N1393 C1395 1.334 . S
C1394 H1375 0.929 . S
C1394 C1391 1.388 . S
C1394 N1393 1.397 . S
C1395 H1376 0.929 . S
C1395 C1392 1.404 . S
C1395 N1393 1.334 . S
C1396 H1388 0.930 . S
C1396 C1391 1.418 . S
C1396 C1392 1.353 . S
C1397 H1367 0.930 . S
C1397 N1398 1.330 . S
C1397 C1399 1.446 . S
N1398 Co1357 2.151 . S
N1398 C1397 1.330 . S
N1398 C1402 1.418 . S
C1399 H1378 0.929 . S
C1399 C1397 1.446 . S
C1399 C1400 1.332 . S
C1400 H1380 0.931 . S
C1400 C1399 1.332 . S
C1400 C1401 1.267 . S
C1401 H1369 0.929 . S
C1401 C1400 1.267 . S
C1401 C1402 1.251 . S
C1402 H1372 0.929 . S
C1402 N1398 1.418 . S
C1402 C1401 1.251 . S
C1403 H1370 0.930 . S
C1403 C1405 1.406 . S
C1403 C1408 1.261 . S
C1404 H1371 0.930 . S
C1404 N1406 1.325 . S
C1404 C1407 1.357 . S
C1405 H1373 0.928 . S
C1405 C1403 1.406 . S
C1405 N1406 1.261 . S
N1406 Co1357 2.214 . S
N1406 C1404 1.325 . S
N1406 C1405 1.261 . S
C1407 H1377 0.931 . S
C1407 C1404 1.357 . S
C1407 C1408 1.312 . S
C1408 H1379 0.930 . S
C1408 C1403 1.261 . S
C1408 C1407 1.312 . S
C1409 O1381 1.214 . S
C1409 O1389 1.234 . S
C1410 H1382 0.929 . S
C1410 C1413 1.391 . S
C1410 C1415 1.391 . S
C1411 H1383 0.929 . S
C1411 C1412 1.390 . S
C1411 N1414 1.391 . S
C1412 H1384 0.930 . S
C1412 C1411 1.390 . S
C1412 C1413 1.392 . S
C1413 H1385 0.929 . S
C1413 C1410 1.391 . S
C1413 C1412 1.392 . S
N1414 Co1358 2.257 . S
N1414 C1411 1.391 . S
N1414 C1415 1.388 . S
C1415 H1386 0.930 . S
C1415 C1410 1.391 . S
C1415 N1414 1.388 . S
Co1416 O1418 2.143 . S
Co1416 O1424 2.074 . S
Co1416 O1427 2.093 . S
Co1416 O1440 2.097 . S
Co1416 N1457 2.151 . S
Co1416 N1465 2.214 . S
Co1417 O1418 2.160 . S
Co1417 O1423 2.058 . S
Co1417 O1433 2.057 . S
Co1417 O1448 2.037 . S
Co1417 N1452 2.145 . S
Co1417 N1473 2.257 . S
O1418 Co1416 2.143 . S
O1418 Co1417 2.160 . S
C1419 O1420 1.278 . S
C1419 O1427 1.224 . S
O1420 C1419 1.278 . S
C1421 O1422 1.245 . S
C1421 O1433 1.232 . S
O1422 C1421 1.245 . S
O1423 Co1417 2.058 . S
O1423 C1449 1.269 . S
O1424 Co1416 2.074 . S
O1424 C1449 1.257 . S
H1425 C1450 0.930 . S
H1426 C1456 0.930 . S
O1427 Co1416 2.093 . S
O1427 C1419 1.224 . S
H1428 C1460 0.929 . S
H1429 C1462 0.930 . S
H1430 C1463 0.930 . S
H1431 C1461 0.929 . S
H1432 C1464 0.928 . S
O1433 Co1417 2.057 . S
O1433 C1421 1.232 . S
H1434 C1453 0.929 . S
H1435 C1454 0.929 . S
H1436 C1466 0.931 . S
H1437 C1458 0.929 . S
H1438 C1467 0.930 . S
H1439 C1459 0.931 . S
O1440 Co1416 2.097 . S
O1440 C1468 1.214 . S
H1441 C1469 0.929 . S
H1442 C1470 0.929 . S
H1443 C1471 0.930 . S
H1444 C1472 0.929 . S
H1445 C1474 0.930 . S
H1446 C1451 0.930 . S
H1447 C1455 0.930 . S
O1448 Co1417 2.037 . S
O1448 C1468 1.234 . S
C1449 O1423 1.269 . S
C1449 O1424 1.257 . S
C1450 H1425 0.930 . S
C1450 C1453 1.388 . S
C1450 C1455 1.418 . S
C1451 H1446 0.930 . S
C1451 C1454 1.404 . S
C1451 C1455 1.353 . S
N1452 Co1417 2.145 . S
N1452 C1453 1.397 . S
N1452 C1454 1.334 . S
C1453 H1434 0.929 . S
C1453 C1450 1.388 . S
C1453 N1452 1.397 . S
C1454 H1435 0.929 . S
C1454 C1451 1.404 . S
C1454 N1452 1.334 . S
C1455 H1447 0.930 . S
C1455 C1450 1.418 . S
C1455 C1451 1.353 . S
C1456 H1426 0.930 . S
C1456 N1457 1.330 . S
C1456 C1458 1.446 . S
N1457 Co1416 2.151 . S
N1457 C1456 1.330 . S
N1457 C1461 1.418 . S
C1458 H1437 0.929 . S
C1458 C1456 1.446 . S
C1458 C1459 1.332 . S
C1459 H1439 0.931 . S
C1459 C1458 1.332 . S
C1459 C1460 1.267 . S
C1460 H1428 0.929 . S
C1460 C1459 1.267 . S
C1460 C1461 1.251 . S
C1461 H1431 0.929 . S
C1461 N1457 1.418 . S
C1461 C1460 1.251 . S
C1462 H1429 0.930 . S
C1462 C1464 1.406 . S
C1462 C1467 1.261 . S
C1463 H1430 0.930 . S
C1463 N1465 1.325 . S
C1463 C1466 1.357 . S
C1464 H1432 0.928 . S
C1464 C1462 1.406 . S
C1464 N1465 1.261 . S
N1465 Co1416 2.214 . S
N1465 C1463 1.325 . S
N1465 C1464 1.261 . S
C1466 H1436 0.931 . S
C1466 C1463 1.357 . S
C1466 C1467 1.312 . S
C1467 H1438 0.930 . S
C1467 C1462 1.261 . S
C1467 C1466 1.312 . S
C1468 O1440 1.214 . S
C1468 O1448 1.234 . S
C1469 H1441 0.929 . S
C1469 C1472 1.391 . S
C1469 C1474 1.391 . S
C1470 H1442 0.929 . S
C1470 C1471 1.390 . S
C1470 N1473 1.391 . S
C1471 H1443 0.930 . S
C1471 C1470 1.390 . S
C1471 C1472 1.392 . S
C1472 H1444 0.929 . S
C1472 C1469 1.391 . S
C1472 C1471 1.392 . S
N1473 Co1417 2.257 . S
N1473 C1470 1.391 . S
N1473 C1474 1.388 . S
C1474 H1445 0.930 . S
C1474 C1469 1.391 . S
C1474 N1473 1.388 . S
Co1475 O1477 2.143 . S
Co1475 O1483 2.074 . S
Co1475 O1486 2.093 . S
Co1475 O1499 2.097 . S
Co1475 N1516 2.151 . S
Co1475 N1524 2.214 . S
Co1476 O1477 2.160 . S
Co1476 O1482 2.058 . S
Co1476 O1492 2.057 . S
Co1476 O1507 2.037 . S
Co1476 N1511 2.145 . S
Co1476 N1532 2.257 . S
O1477 Co1475 2.143 . S
O1477 Co1476 2.160 . S
C1478 O1479 1.278 . S
C1478 O1486 1.224 . S
O1479 C1478 1.278 . S
C1480 O1481 1.245 . S
C1480 O1492 1.232 . S
O1481 C1480 1.245 . S
O1482 Co1476 2.058 . S
O1482 C1508 1.269 . S
O1483 Co1475 2.074 . S
O1483 C1508 1.257 . S
H1484 C1509 0.930 . S
H1485 C1515 0.930 . S
O1486 Co1475 2.093 . S
O1486 C1478 1.224 . S
H1487 C1519 0.929 . S
H1488 C1521 0.930 . S
H1489 C1522 0.930 . S
H1490 C1520 0.929 . S
H1491 C1523 0.928 . S
O1492 Co1476 2.057 . S
O1492 C1480 1.232 . S
H1493 C1512 0.929 . S
H1494 C1513 0.929 . S
H1495 C1525 0.931 . S
H1496 C1517 0.929 . S
H1497 C1526 0.930 . S
H1498 C1518 0.931 . S
O1499 Co1475 2.097 . S
O1499 C1527 1.214 . S
H1500 C1528 0.929 . S
H1501 C1529 0.929 . S
H1502 C1530 0.930 . S
H1503 C1531 0.929 . S
H1504 C1533 0.930 . S
H1505 C1510 0.930 . S
H1506 C1514 0.930 . S
O1507 Co1476 2.037 . S
O1507 C1527 1.234 . S
C1508 O1482 1.269 . S
C1508 O1483 1.257 . S
C1509 H1484 0.930 . S
C1509 C1512 1.388 . S
C1509 C1514 1.418 . S
C1510 H1505 0.930 . S
C1510 C1513 1.404 . S
C1510 C1514 1.353 . S
N1511 Co1476 2.145 . S
N1511 C1512 1.397 . S
N1511 C1513 1.334 . S
C1512 H1493 0.929 . S
C1512 C1509 1.388 . S
C1512 N1511 1.397 . S
C1513 H1494 0.929 . S
C1513 C1510 1.404 . S
C1513 N1511 1.334 . S
C1514 H1506 0.930 . S
C1514 C1509 1.418 . S
C1514 C1510 1.353 . S
C1515 H1485 0.930 . S
C1515 N1516 1.330 . S
C1515 C1517 1.446 . S
N1516 Co1475 2.151 . S
N1516 C1515 1.330 . S
N1516 C1520 1.418 . S
C1517 H1496 0.929 . S
C1517 C1515 1.446 . S
C1517 C1518 1.332 . S
C1518 H1498 0.931 . S
C1518 C1517 1.332 . S
C1518 C1519 1.267 . S
C1519 H1487 0.929 . S
C1519 C1518 1.267 . S
C1519 C1520 1.251 . S
C1520 H1490 0.929 . S
C1520 N1516 1.418 . S
C1520 C1519 1.251 . S
C1521 H1488 0.930 . S
C1521 C1523 1.406 . S
C1521 C1526 1.261 . S
C1522 H1489 0.930 . S
C1522 N1524 1.325 . S
C1522 C1525 1.357 . S
C1523 H1491 0.928 . S
C1523 C1521 1.406 . S
C1523 N1524 1.261 . S
N1524 Co1475 2.214 . S
N1524 C1522 1.325 . S
N1524 C1523 1.261 . S
C1525 H1495 0.931 . S
C1525 C1522 1.357 . S
C1525 C1526 1.312 . S
C1526 H1497 0.930 . S
C1526 C1521 1.261 . S
C1526 C1525 1.312 . S
C1527 O1499 1.214 . S
C1527 O1507 1.234 . S
C1528 H1500 0.929 . S
C1528 C1531 1.391 . S
C1528 C1533 1.391 . S
C1529 H1501 0.929 . S
C1529 C1530 1.390 . S
C1529 N1532 1.391 . S
C1530 H1502 0.930 . S
C1530 C1529 1.390 . S
C1530 C1531 1.392 . S
C1531 H1503 0.929 . S
C1531 C1528 1.391 . S
C1531 C1530 1.392 . S
N1532 Co1476 2.257 . S
N1532 C1529 1.391 . S
N1532 C1533 1.388 . S
C1533 H1504 0.930 . S
C1533 C1528 1.391 . S
C1533 N1532 1.388 . S
Co1534 O1536 2.143 . S
Co1534 O1542 2.074 . S
Co1534 O1545 2.093 . S
Co1534 O1558 2.097 . S
Co1534 N1575 2.151 . S
Co1534 N1583 2.214 . S
Co1535 O1536 2.160 . S
Co1535 O1541 2.058 . S
Co1535 O1551 2.057 . S
Co1535 O1566 2.037 . S
Co1535 N1570 2.145 . S
Co1535 N1591 2.257 . S
O1536 Co1534 2.143 . S
O1536 Co1535 2.160 . S
C1537 O1538 1.278 . S
C1537 O1545 1.224 . S
O1538 C1537 1.278 . S
C1539 O1540 1.245 . S
C1539 O1551 1.232 . S
O1540 C1539 1.245 . S
O1541 Co1535 2.058 . S
O1541 C1567 1.269 . S
O1542 Co1534 2.074 . S
O1542 C1567 1.257 . S
H1543 C1568 0.930 . S
H1544 C1574 0.930 . S
O1545 Co1534 2.093 . S
O1545 C1537 1.224 . S
H1546 C1578 0.929 . S
H1547 C1580 0.930 . S
H1548 C1581 0.930 . S
H1549 C1579 0.929 . S
H1550 C1582 0.928 . S
O1551 Co1535 2.057 . S
O1551 C1539 1.232 . S
H1552 C1571 0.929 . S
H1553 C1572 0.929 . S
H1554 C1584 0.931 . S
H1555 C1576 0.929 . S
H1556 C1585 0.930 . S
H1557 C1577 0.908 1_565 S
O1558 Co1534 2.097 . S
O1558 C1586 1.214 . S
H1559 C1587 0.929 . S
H1560 C1588 0.929 . S
H1561 C1589 0.930 . S
H1562 C1590 0.929 . S
H1563 C1592 0.930 . S
H1564 C1569 0.930 . S
H1565 C1573 0.930 . S
O1566 Co1535 2.037 . S
O1566 C1586 1.234 . S
C1567 O1541 1.269 . S
C1567 O1542 1.257 . S
C1568 H1543 0.930 . S
C1568 C1571 1.388 . S
C1568 C1573 1.418 . S
C1569 H1564 0.930 . S
C1569 C1572 1.404 . S
C1569 C1573 1.353 . S
N1570 Co1535 2.145 . S
N1570 C1571 1.397 . S
N1570 C1572 1.334 . S
C1571 H1552 0.929 . S
C1571 C1568 1.388 . S
C1571 N1570 1.397 . S
C1572 H1553 0.929 . S
C1572 C1569 1.404 . S
C1572 N1570 1.334 . S
C1573 H1565 0.930 . S
C1573 C1568 1.418 . S
C1573 C1569 1.353 . S
C1574 H1544 0.930 . S
C1574 N1575 1.330 . S
C1574 C1576 1.446 . S
N1575 Co1534 2.151 . S
N1575 C1574 1.330 . S
N1575 C1579 1.418 . S
C1576 H1555 0.929 . S
C1576 C1574 1.446 . S
C1576 C1577 1.332 . S
C1577 H1557 0.908 1_545 S
C1577 C1576 1.332 . S
C1577 C1578 1.267 . S
C1578 H1546 0.929 . S
C1578 C1577 1.267 . S
C1578 C1579 1.251 . S
C1579 H1549 0.929 . S
C1579 N1575 1.418 . S
C1579 C1578 1.251 . S
C1580 H1547 0.930 . S
C1580 C1582 1.406 . S
C1580 C1585 1.261 . S
C1581 H1548 0.930 . S
C1581 N1583 1.325 . S
C1581 C1584 1.357 . S
C1582 H1550 0.928 . S
C1582 C1580 1.406 . S
C1582 N1583 1.261 . S
N1583 Co1534 2.214 . S
N1583 C1581 1.325 . S
N1583 C1582 1.261 . S
C1584 H1554 0.931 . S
C1584 C1581 1.357 . S
C1584 C1585 1.312 . S
C1585 H1556 0.930 . S
C1585 C1580 1.261 . S
C1585 C1584 1.312 . S
C1586 O1558 1.214 . S
C1586 O1566 1.234 . S
C1587 H1559 0.929 . S
C1587 C1590 1.391 . S
C1587 C1592 1.391 . S
C1588 H1560 0.929 . S
C1588 C1589 1.390 . S
C1588 N1591 1.391 . S
C1589 H1561 0.930 . S
C1589 C1588 1.390 . S
C1589 C1590 1.392 . S
C1590 H1562 0.929 . S
C1590 C1587 1.391 . S
C1590 C1589 1.392 . S
N1591 Co1535 2.257 . S
N1591 C1588 1.391 . S
N1591 C1592 1.388 . S
C1592 H1563 0.930 . S
C1592 C1587 1.391 . S
C1592 N1591 1.388 . S
Co1593 O1595 2.143 . S
Co1593 O1601 2.074 . S
Co1593 O1604 2.093 . S
Co1593 O1617 2.097 . S
Co1593 N1634 2.151 . S
Co1593 N1642 2.214 . S
Co1594 O1595 2.160 . S
Co1594 O1600 2.058 . S
Co1594 O1610 2.057 . S
Co1594 O1625 2.037 . S
Co1594 N1629 2.145 . S
Co1594 N1650 2.257 . S
O1595 Co1593 2.143 . S
O1595 Co1594 2.160 . S
C1596 O1597 1.278 . S
C1596 O1604 1.224 . S
O1597 C1596 1.278 . S
C1598 O1599 1.245 . S
C1598 O1610 1.232 . S
O1599 C1598 1.245 . S
O1600 Co1594 2.058 . S
O1600 C1626 1.269 . S
O1601 Co1593 2.074 . S
O1601 C1626 1.257 . S
H1602 C1627 0.930 . S
H1603 C1633 0.930 . S
O1604 Co1593 2.093 . S
O1604 C1596 1.224 . S
H1605 C1637 0.929 1_556 S
H1606 C1639 0.930 . S
H1607 C1640 0.930 . S
H1608 C1638 0.929 . S
H1609 C1641 0.928 . S
O1610 Co1594 2.057 . S
O1610 C1598 1.232 . S
H1611 C1630 0.929 . S
H1612 C1631 0.929 . S
H1613 C1643 0.931 . S
H1614 C1635 0.929 . S
H1615 C1644 0.930 . S
H1616 C1636 0.931 . S
O1617 Co1593 2.097 . S
O1617 C1645 1.214 . S
H1618 C1646 0.929 . S
H1619 C1647 0.929 . S
H1620 C1648 0.930 . S
H1621 C1649 0.929 . S
H1622 C1651 0.930 . S
H1623 C1628 0.930 . S
H1624 C1632 0.930 . S
O1625 Co1594 2.037 . S
O1625 C1645 1.234 . S
C1626 O1600 1.269 . S
C1626 O1601 1.257 . S
C1627 H1602 0.930 . S
C1627 C1630 1.388 . S
C1627 C1632 1.418 . S
C1628 H1623 0.930 . S
C1628 C1631 1.404 . S
C1628 C1632 1.353 . S
N1629 Co1594 2.145 . S
N1629 C1630 1.397 . S
N1629 C1631 1.334 . S
C1630 H1611 0.929 . S
C1630 C1627 1.388 . S
C1630 N1629 1.397 . S
C1631 H1612 0.929 . S
C1631 C1628 1.404 . S
C1631 N1629 1.334 . S
C1632 H1624 0.930 . S
C1632 C1627 1.418 . S
C1632 C1628 1.353 . S
C1633 H1603 0.930 . S
C1633 N1634 1.330 . S
C1633 C1635 1.446 . S
N1634 Co1593 2.151 . S
N1634 C1633 1.330 . S
N1634 C1638 1.418 . S
C1635 H1614 0.929 . S
C1635 C1633 1.446 . S
C1635 C1636 1.332 . S
C1636 H1616 0.931 . S
C1636 C1635 1.332 . S
C1636 C1637 1.267 . S
C1637 H1605 0.929 1_554 S
C1637 C1636 1.267 . S
C1637 C1638 1.251 . S
C1638 H1608 0.929 . S
C1638 N1634 1.418 . S
C1638 C1637 1.251 . S
C1639 H1606 0.930 . S
C1639 C1641 1.406 . S
C1639 C1644 1.261 . S
C1640 H1607 0.930 . S
C1640 N1642 1.325 . S
C1640 C1643 1.357 . S
C1641 H1609 0.928 . S
C1641 C1639 1.406 . S
C1641 N1642 1.261 . S
N1642 Co1593 2.214 . S
N1642 C1640 1.325 . S
N1642 C1641 1.261 . S
C1643 H1613 0.931 . S
C1643 C1640 1.357 . S
C1643 C1644 1.312 . S
C1644 H1615 0.930 . S
C1644 C1639 1.261 . S
C1644 C1643 1.312 . S
C1645 O1617 1.214 . S
C1645 O1625 1.234 . S
C1646 H1618 0.929 . S
C1646 C1649 1.391 . S
C1646 C1651 1.391 . S
C1647 H1619 0.929 . S
C1647 C1648 1.390 . S
C1647 N1650 1.391 . S
C1648 H1620 0.930 . S
C1648 C1647 1.390 . S
C1648 C1649 1.392 . S
C1649 H1621 0.929 . S
C1649 C1646 1.391 . S
C1649 C1648 1.392 . S
N1650 Co1594 2.257 . S
N1650 C1647 1.391 . S
N1650 C1651 1.388 . S
C1651 H1622 0.930 . S
C1651 C1646 1.391 . S
C1651 N1650 1.388 . S
Co1652 O1654 2.143 . S
Co1652 O1660 2.074 . S
Co1652 O1663 2.093 . S
Co1652 O1676 2.097 . S
Co1652 N1693 2.151 . S
Co1652 N1701 2.214 . S
Co1653 O1654 2.160 . S
Co1653 O1659 2.058 . S
Co1653 O1669 2.057 . S
Co1653 O1684 2.037 . S
Co1653 N1688 2.145 . S
Co1653 N1709 2.257 . S
O1654 Co1652 2.143 . S
O1654 Co1653 2.160 . S
C1655 O1656 1.278 . S
C1655 O1663 1.224 . S
O1656 C1655 1.278 . S
C1657 O1658 1.245 . S
C1657 O1669 1.232 . S
O1658 C1657 1.245 . S
O1659 Co1653 2.058 . S
O1659 C1685 1.269 . S
O1660 Co1652 2.074 . S
O1660 C1685 1.257 . S
H1661 C1686 0.930 . S
H1662 C1692 0.930 . S
O1663 Co1652 2.093 . S
O1663 C1655 1.224 . S
H1664 C1696 0.929 . S
H1665 C1698 0.930 . S
H1666 C1699 0.930 . S
H1667 C1697 0.929 . S
H1668 C1700 0.928 . S
O1669 Co1653 2.057 . S
O1669 C1657 1.232 . S
H1670 C1689 0.929 . S
H1671 C1690 0.929 . S
H1672 C1702 0.931 . S
H1673 C1694 0.929 . S
H1674 C1703 0.930 . S
H1675 C1695 0.931 . S
O1676 Co1652 2.097 . S
O1676 C1704 1.214 . S
H1677 C1705 0.929 . S
H1678 C1706 0.929 . S
H1679 C1707 0.930 . S
H1680 C1708 0.929 . S
H1681 C1710 0.930 . S
H1682 C1687 0.930 . S
H1683 C1691 0.930 . S
O1684 Co1653 2.037 . S
O1684 C1704 1.234 . S
C1685 O1659 1.269 . S
C1685 O1660 1.257 . S
C1686 H1661 0.930 . S
C1686 C1689 1.388 . S
C1686 C1691 1.418 . S
C1687 H1682 0.930 . S
C1687 C1690 1.404 . S
C1687 C1691 1.353 . S
N1688 Co1653 2.145 . S
N1688 C1689 1.397 . S
N1688 C1690 1.334 . S
C1689 H1670 0.929 . S
C1689 C1686 1.388 . S
C1689 N1688 1.397 . S
C1690 H1671 0.929 . S
C1690 C1687 1.404 . S
C1690 N1688 1.334 . S
C1691 H1683 0.930 . S
C1691 C1686 1.418 . S
C1691 C1687 1.353 . S
C1692 H1662 0.930 . S
C1692 N1693 1.330 . S
C1692 C1694 1.446 . S
N1693 Co1652 2.151 . S
N1693 C1692 1.330 . S
N1693 C1697 1.418 . S
C1694 H1673 0.929 . S
C1694 C1692 1.446 . S
C1694 C1695 1.332 . S
C1695 H1675 0.931 . S
C1695 C1694 1.332 . S
C1695 C1696 1.267 . S
C1696 H1664 0.929 . S
C1696 C1695 1.267 . S
C1696 C1697 1.251 . S
C1697 H1667 0.929 . S
C1697 N1693 1.418 . S
C1697 C1696 1.251 . S
C1698 H1665 0.930 . S
C1698 C1700 1.406 1_565 S
C1698 C1703 1.261 . S
C1699 H1666 0.930 . S
C1699 N1701 1.325 . S
C1699 C1702 1.357 1_545 S
C1700 H1668 0.928 . S
C1700 C1698 1.406 1_545 S
C1700 N1701 1.261 . S
N1701 Co1652 2.214 . S
N1701 C1699 1.325 . S
N1701 C1700 1.261 . S
C1702 H1672 0.931 . S
C1702 C1699 1.357 1_565 S
C1702 C1703 1.312 . S
C1703 H1674 0.930 . S
C1703 C1698 1.261 . S
C1703 C1702 1.312 . S
C1704 O1676 1.214 . S
C1704 O1684 1.234 . S
C1705 H1677 0.929 . S
C1705 C1708 1.391 . S
C1705 C1710 1.391 . S
C1706 H1678 0.929 . S
C1706 C1707 1.390 . S
C1706 N1709 1.391 . S
C1707 H1679 0.930 . S
C1707 C1706 1.390 . S
C1707 C1708 1.392 . S
C1708 H1680 0.929 . S
C1708 C1705 1.391 . S
C1708 C1707 1.392 . S
N1709 Co1653 2.257 . S
N1709 C1706 1.391 . S
N1709 C1710 1.388 . S
C1710 H1681 0.930 . S
C1710 C1705 1.391 . S
C1710 N1709 1.388 . S
Co1711 O1713 2.143 . S
Co1711 O1719 2.074 . S
Co1711 O1722 2.093 . S
Co1711 O1735 2.097 . S
Co1711 N1752 2.151 . S
Co1711 N1760 2.214 . S
Co1712 O1713 2.160 . S
Co1712 O1718 2.058 . S
Co1712 O1728 2.057 . S
Co1712 O1743 2.037 . S
Co1712 N1747 2.145 . S
Co1712 N1768 2.257 . S
O1713 Co1711 2.143 . S
O1713 Co1712 2.160 . S
C1714 O1715 1.278 . S
C1714 O1722 1.224 . S
O1715 C1714 1.278 . S
C1716 O1717 1.245 . S
C1716 O1728 1.232 . S
O1717 C1716 1.245 . S
O1718 Co1712 2.058 . S
O1718 C1744 1.269 . S
O1719 Co1711 2.074 . S
O1719 C1744 1.257 . S
H1720 C1745 0.930 . S
H1721 C1751 0.930 . S
O1722 Co1711 2.093 . S
O1722 C1714 1.224 . S
H1723 C1755 0.929 . S
H1724 C1757 0.930 . S
H1725 C1758 0.930 . S
H1726 C1756 0.929 . S
H1727 C1759 0.928 . S
O1728 Co1712 2.057 . S
O1728 C1716 1.232 . S
H1729 C1748 0.929 . S
H1730 C1749 0.929 . S
H1731 C1761 0.931 . S
H1732 C1753 0.929 . S
H1733 C1762 0.930 . S
H1734 C1754 0.931 . S
O1735 Co1711 2.097 . S
O1735 C1763 1.214 . S
H1736 C1764 0.929 . S
H1737 C1765 0.929 . S
H1738 C1766 0.930 . S
H1739 C1767 0.929 . S
H1740 C1769 0.930 . S
H1741 C1746 0.930 . S
H1742 C1750 0.930 . S
O1743 Co1712 2.037 . S
O1743 C1763 1.234 . S
C1744 O1718 1.269 . S
C1744 O1719 1.257 . S
C1745 H1720 0.930 . S
C1745 C1748 1.388 . S
C1745 C1750 1.418 . S
C1746 H1741 0.930 . S
C1746 C1749 1.404 . S
C1746 C1750 1.353 . S
N1747 Co1712 2.145 . S
N1747 C1748 1.397 . S
N1747 C1749 1.334 . S
C1748 H1729 0.929 . S
C1748 C1745 1.388 . S
C1748 N1747 1.397 . S
C1749 H1730 0.929 . S
C1749 C1746 1.404 . S
C1749 N1747 1.334 . S
C1750 H1742 0.930 . S
C1750 C1745 1.418 . S
C1750 C1746 1.353 . S
C1751 H1721 0.930 . S
C1751 N1752 1.330 . S
C1751 C1753 1.446 . S
N1752 Co1711 2.151 . S
N1752 C1751 1.330 . S
N1752 C1756 1.418 . S
C1753 H1732 0.929 . S
C1753 C1751 1.446 . S
C1753 C1754 1.332 . S
C1754 H1734 0.931 . S
C1754 C1753 1.332 . S
C1754 C1755 1.267 . S
C1755 H1723 0.929 . S
C1755 C1754 1.267 . S
C1755 C1756 1.251 . S
C1756 H1726 0.929 . S
C1756 N1752 1.418 . S
C1756 C1755 1.251 . S
C1757 H1724 0.930 . S
C1757 C1759 1.406 . S
C1757 C1762 1.261 . S
C1758 H1725 0.930 . S
C1758 N1760 1.325 . S
C1758 C1761 1.357 . S
C1759 H1727 0.928 . S
C1759 C1757 1.406 . S
C1759 N1760 1.261 . S
N1760 Co1711 2.214 . S
N1760 C1758 1.325 . S
N1760 C1759 1.261 . S
C1761 H1731 0.931 . S
C1761 C1758 1.357 . S
C1761 C1762 1.312 . S
C1762 H1733 0.930 . S
C1762 C1757 1.261 . S
C1762 C1761 1.312 . S
C1763 O1735 1.214 . S
C1763 O1743 1.234 . S
C1764 H1736 0.929 . S
C1764 C1767 1.391 . S
C1764 C1769 1.391 . S
C1765 H1737 0.929 . S
C1765 C1766 1.390 . S
C1765 N1768 1.391 . S
C1766 H1738 0.930 . S
C1766 C1765 1.390 . S
C1766 C1767 1.392 . S
C1767 H1739 0.929 . S
C1767 C1764 1.391 . S
C1767 C1766 1.392 . S
N1768 Co1712 2.257 . S
N1768 C1765 1.391 . S
N1768 C1769 1.388 . S
C1769 H1740 0.930 . S
C1769 C1764 1.391 . S
C1769 N1768 1.388 . S
Co1770 O1772 2.143 . S
Co1770 O1778 2.074 . S
Co1770 O1781 2.093 . S
Co1770 O1794 2.097 . S
Co1770 N1811 2.151 . S
Co1770 N1819 2.214 . S
Co1771 O1772 2.160 . S
Co1771 O1777 2.058 . S
Co1771 O1787 2.057 . S
Co1771 O1802 2.037 . S
Co1771 N1806 2.145 . S
Co1771 N1827 2.257 . S
O1772 Co1770 2.143 . S
O1772 Co1771 2.160 . S
C1773 O1774 1.278 . S
C1773 O1781 1.224 . S
O1774 C1773 1.278 . S
C1775 O1776 1.245 . S
C1775 O1787 1.232 . S
O1776 C1775 1.245 . S
O1777 Co1771 2.058 . S
O1777 C1803 1.269 . S
O1778 Co1770 2.074 . S
O1778 C1803 1.257 . S
H1779 C1804 0.930 . S
H1780 C1810 0.930 . S
O1781 Co1770 2.093 . S
O1781 C1773 1.224 . S
H1782 C1814 0.929 . S
H1783 C1816 0.930 . S
H1784 C1817 0.930 . S
H1785 C1815 0.929 . S
H1786 C1818 0.928 . S
O1787 Co1771 2.057 . S
O1787 C1775 1.232 . S
H1788 C1807 0.929 . S
H1789 C1808 0.929 . S
H1790 C1820 0.931 . S
H1791 C1812 0.929 . S
H1792 C1821 0.930 . S
H1793 C1813 0.931 . S
O1794 Co1770 2.097 . S
O1794 C1822 1.214 . S
H1795 C1823 0.929 . S
H1796 C1824 0.929 . S
H1797 C1825 0.930 . S
H1798 C1826 0.929 . S
H1799 C1828 0.930 . S
H1800 C1805 0.930 . S
H1801 C1809 0.930 . S
O1802 Co1771 2.037 . S
O1802 C1822 1.234 . S
C1803 O1777 1.269 . S
C1803 O1778 1.257 . S
C1804 H1779 0.930 . S
C1804 C1807 1.388 . S
C1804 C1809 1.418 . S
C1805 H1800 0.930 . S
C1805 C1808 1.404 . S
C1805 C1809 1.353 . S
N1806 Co1771 2.145 . S
N1806 C1807 1.397 . S
N1806 C1808 1.334 . S
C1807 H1788 0.929 . S
C1807 C1804 1.388 . S
C1807 N1806 1.397 . S
C1808 H1789 0.929 . S
C1808 C1805 1.404 . S
C1808 N1806 1.334 . S
C1809 H1801 0.930 . S
C1809 C1804 1.418 . S
C1809 C1805 1.353 . S
C1810 H1780 0.930 . S
C1810 N1811 1.330 . S
C1810 C1812 1.446 . S
N1811 Co1770 2.151 . S
N1811 C1810 1.330 . S
N1811 C1815 1.418 . S
C1812 H1791 0.929 . S
C1812 C1810 1.446 . S
C1812 C1813 1.332 . S
C1813 H1793 0.931 . S
C1813 C1812 1.332 . S
C1813 C1814 1.267 . S
C1814 H1782 0.929 . S
C1814 C1813 1.267 . S
C1814 C1815 1.251 . S
C1815 H1785 0.929 . S
C1815 N1811 1.418 . S
C1815 C1814 1.251 . S
C1816 H1783 0.930 . S
C1816 C1818 1.406 1_545 S
C1816 C1821 1.261 . S
C1817 H1784 0.930 . S
C1817 N1819 1.325 . S
C1817 C1820 1.357 1_565 S
C1818 H1786 0.928 . S
C1818 C1816 1.406 1_565 S
C1818 N1819 1.261 . S
N1819 Co1770 2.214 . S
N1819 C1817 1.325 . S
N1819 C1818 1.261 . S
C1820 H1790 0.931 . S
C1820 C1817 1.357 1_545 S
C1820 C1821 1.312 . S
C1821 H1792 0.930 . S
C1821 C1816 1.261 . S
C1821 C1820 1.312 . S
C1822 O1794 1.214 . S
C1822 O1802 1.234 . S
C1823 H1795 0.929 . S
C1823 C1826 1.391 . S
C1823 C1828 1.391 . S
C1824 H1796 0.929 . S
C1824 C1825 1.390 . S
C1824 N1827 1.391 . S
C1825 H1797 0.930 . S
C1825 C1824 1.390 . S
C1825 C1826 1.392 . S
C1826 H1798 0.929 . S
C1826 C1823 1.391 . S
C1826 C1825 1.392 . S
N1827 Co1771 2.257 . S
N1827 C1824 1.391 . S
N1827 C1828 1.388 . S
C1828 H1799 0.930 . S
C1828 C1823 1.391 . S
C1828 N1827 1.388 . S
Co1829 O1831 2.143 . S
Co1829 O1837 2.074 . S
Co1829 O1840 2.093 . S
Co1829 O1853 2.097 . S
Co1829 N1870 2.151 . S
Co1829 N1878 2.214 . S
Co1830 O1831 2.160 . S
Co1830 O1836 2.058 . S
Co1830 O1846 2.057 . S
Co1830 O1861 2.037 . S
Co1830 N1865 2.145 . S
Co1830 N1886 2.257 . S
O1831 Co1829 2.143 . S
O1831 Co1830 2.160 . S
C1832 O1833 1.278 . S
C1832 O1840 1.224 . S
O1833 C1832 1.278 . S
C1834 O1835 1.245 . S
C1834 O1846 1.232 . S
O1835 C1834 1.245 . S
O1836 Co1830 2.058 . S
O1836 C1862 1.269 . S
O1837 Co1829 2.074 . S
O1837 C1862 1.257 . S
H1838 C1863 0.930 . S
H1839 C1869 0.930 . S
O1840 Co1829 2.093 . S
O1840 C1832 1.224 . S
H1841 C1873 0.929 . S
H1842 C1875 0.930 . S
H1843 C1876 0.930 . S
H1844 C1874 0.929 . S
H1845 C1877 0.928 . S
O1846 Co1830 2.057 . S
O1846 C1834 1.232 . S
H1847 C1866 0.929 . S
H1848 C1867 0.929 . S
H1849 C1879 0.931 . S
H1850 C1871 0.929 . S
H1851 C1880 0.930 . S
H1852 C1872 0.931 . S
O1853 Co1829 2.097 . S
O1853 C1881 1.214 . S
H1854 C1882 0.929 . S
H1855 C1883 0.929 . S
H1856 C1884 0.930 . S
H1857 C1885 0.929 . S
H1858 C1887 0.930 . S
H1859 C1864 0.930 . S
H1860 C1868 0.930 . S
O1861 Co1830 2.037 . S
O1861 C1881 1.234 . S
C1862 O1836 1.269 . S
C1862 O1837 1.257 . S
C1863 H1838 0.930 . S
C1863 C1866 1.388 . S
C1863 C1868 1.418 . S
C1864 H1859 0.930 . S
C1864 C1867 1.404 . S
C1864 C1868 1.353 . S
N1865 Co1830 2.145 . S
N1865 C1866 1.397 . S
N1865 C1867 1.334 . S
C1866 H1847 0.929 . S
C1866 C1863 1.388 . S
C1866 N1865 1.397 . S
C1867 H1848 0.929 . S
C1867 C1864 1.404 . S
C1867 N1865 1.334 . S
C1868 H1860 0.930 . S
C1868 C1863 1.418 . S
C1868 C1864 1.353 . S
C1869 H1839 0.930 . S
C1869 N1870 1.330 . S
C1869 C1871 1.446 . S
N1870 Co1829 2.151 . S
N1870 C1869 1.330 . S
N1870 C1874 1.418 . S
C1871 H1850 0.929 . S
C1871 C1869 1.446 . S
C1871 C1872 1.332 . S
C1872 H1852 0.931 . S
C1872 C1871 1.332 . S
C1872 C1873 1.267 . S
C1873 H1841 0.929 . S
C1873 C1872 1.267 . S
C1873 C1874 1.251 . S
C1874 H1844 0.929 . S
C1874 N1870 1.418 . S
C1874 C1873 1.251 . S
C1875 H1842 0.930 . S
C1875 C1877 1.406 . S
C1875 C1880 1.261 . S
C1876 H1843 0.930 . S
C1876 N1878 1.325 . S
C1876 C1879 1.357 . S
C1877 H1845 0.928 . S
C1877 C1875 1.406 . S
C1877 N1878 1.261 . S
N1878 Co1829 2.214 . S
N1878 C1876 1.325 . S
N1878 C1877 1.261 . S
C1879 H1849 0.931 . S
C1879 C1876 1.357 . S
C1879 C1880 1.312 . S
C1880 H1851 0.930 . S
C1880 C1875 1.261 . S
C1880 C1879 1.312 . S
C1881 O1853 1.214 . S
C1881 O1861 1.234 . S
C1882 H1854 0.929 . S
C1882 C1885 1.391 . S
C1882 C1887 1.391 . S
C1883 H1855 0.929 . S
C1883 C1884 1.390 . S
C1883 N1886 1.391 . S
C1884 H1856 0.930 . S
C1884 C1883 1.390 . S
C1884 C1885 1.392 . S
C1885 H1857 0.929 . S
C1885 C1882 1.391 . S
C1885 C1884 1.392 . S
N1886 Co1830 2.257 . S
N1886 C1883 1.391 . S
N1886 C1887 1.388 . S
C1887 H1858 0.930 . S
C1887 C1882 1.391 . S
C1887 N1886 1.388 . S
Co1888 O1890 2.143 . S
Co1888 O1896 2.074 . S
Co1888 O1899 2.093 . S
Co1888 O1912 2.097 . S
Co1888 N1929 2.151 . S
Co1888 N1937 2.214 . S
Co1889 O1890 2.160 . S
Co1889 O1895 2.058 . S
Co1889 O1905 2.057 . S
Co1889 O1920 2.037 . S
Co1889 N1924 2.145 . S
Co1889 N1945 2.257 . S
O1890 Co1888 2.143 . S
O1890 Co1889 2.160 . S
C1891 O1892 1.278 . S
C1891 O1899 1.224 . S
O1892 C1891 1.278 . S
C1893 O1894 1.245 . S
C1893 O1905 1.232 . S
O1894 C1893 1.245 . S
O1895 Co1889 2.058 . S
O1895 C1921 1.269 . S
O1896 Co1888 2.074 . S
O1896 C1921 1.257 . S
H1897 C1922 0.930 . S
H1898 C1928 0.930 . S
O1899 Co1888 2.093 . S
O1899 C1891 1.224 . S
H1900 C1932 0.929 . S
H1901 C1934 0.930 . S
H1902 C1935 0.930 . S
H1903 C1933 0.929 . S
H1904 C1936 0.928 . S
O1905 Co1889 2.057 . S
O1905 C1893 1.232 . S
H1906 C1925 0.929 . S
H1907 C1926 0.929 . S
H1908 C1938 0.931 . S
H1909 C1930 0.929 . S
H1910 C1939 0.930 . S
H1911 C1931 0.931 . S
O1912 Co1888 2.097 . S
O1912 C1940 1.214 . S
H1913 C1941 0.929 . S
H1914 C1942 0.929 . S
H1915 C1943 0.930 . S
H1916 C1944 0.929 1_554 S
H1917 C1946 0.930 . S
H1918 C1923 0.930 . S
H1919 C1927 0.930 . S
O1920 Co1889 2.037 . S
O1920 C1940 1.234 . S
C1921 O1895 1.269 . S
C1921 O1896 1.257 . S
C1922 H1897 0.930 . S
C1922 C1925 1.388 . S
C1922 C1927 1.418 . S
C1923 H1918 0.930 . S
C1923 C1926 1.404 . S
C1923 C1927 1.353 . S
N1924 Co1889 2.145 . S
N1924 C1925 1.397 . S
N1924 C1926 1.334 . S
C1925 H1906 0.929 . S
C1925 C1922 1.388 . S
C1925 N1924 1.397 . S
C1926 H1907 0.929 . S
C1926 C1923 1.404 . S
C1926 N1924 1.334 . S
C1927 H1919 0.930 . S
C1927 C1922 1.418 . S
C1927 C1923 1.353 . S
C1928 H1898 0.930 . S
C1928 N1929 1.330 . S
C1928 C1930 1.446 . S
N1929 Co1888 2.151 . S
N1929 C1928 1.330 . S
N1929 C1933 1.418 . S
C1930 H1909 0.929 . S
C1930 C1928 1.446 . S
C1930 C1931 1.332 . S
C1931 H1911 0.931 . S
C1931 C1930 1.332 . S
C1931 C1932 1.267 . S
C1932 H1900 0.929 . S
C1932 C1931 1.267 . S
C1932 C1933 1.251 . S
C1933 H1903 0.929 . S
C1933 N1929 1.418 . S
C1933 C1932 1.251 . S
C1934 H1901 0.930 . S
C1934 C1936 1.406 . S
C1934 C1939 1.261 . S
C1935 H1902 0.930 . S
C1935 N1937 1.325 . S
C1935 C1938 1.357 . S
C1936 H1904 0.928 . S
C1936 C1934 1.406 . S
C1936 N1937 1.261 . S
N1937 Co1888 2.214 . S
N1937 C1935 1.325 . S
N1937 C1936 1.261 . S
C1938 H1908 0.931 . S
C1938 C1935 1.357 . S
C1938 C1939 1.312 . S
C1939 H1910 0.930 . S
C1939 C1934 1.261 . S
C1939 C1938 1.312 . S
C1940 O1912 1.214 . S
C1940 O1920 1.234 . S
C1941 H1913 0.929 . S
C1941 C1944 1.391 . S
C1941 C1946 1.391 . S
C1942 H1914 0.929 . S
C1942 C1943 1.390 . S
C1942 N1945 1.391 . S
C1943 H1915 0.930 . S
C1943 C1942 1.390 . S
C1943 C1944 1.392 . S
C1944 H1916 0.929 1_556 S
C1944 C1941 1.391 . S
C1944 C1943 1.392 . S
N1945 Co1889 2.257 . S
N1945 C1942 1.391 . S
N1945 C1946 1.388 . S
C1946 H1917 0.930 . S
C1946 C1941 1.391 . S
C1946 N1945 1.388 . S
Co1947 O1949 2.143 . S
Co1947 O1955 2.074 . S
Co1947 O1958 2.093 . S
Co1947 O1971 2.097 . S
Co1947 N1988 2.151 . S
Co1947 N1996 2.214 . S
Co1948 O1949 2.160 . S
Co1948 O1954 2.058 . S
Co1948 O1964 2.057 . S
Co1948 O1979 2.037 . S
Co1948 N1983 2.145 . S
Co1948 N2004 2.257 . S
O1949 Co1947 2.143 . S
O1949 Co1948 2.160 . S
C1950 O1951 1.278 . S
C1950 O1958 1.224 . S
O1951 C1950 1.278 . S
C1952 O1953 1.245 . S
C1952 O1964 1.232 . S
O1953 C1952 1.245 . S
O1954 Co1948 2.058 . S
O1954 C1980 1.269 . S
O1955 Co1947 2.074 . S
O1955 C1980 1.257 . S
H1956 C1981 0.930 . S
H1957 C1987 0.930 . S
O1958 Co1947 2.093 . S
O1958 C1950 1.224 . S
H1959 C1991 0.929 . S
H1960 C1993 0.930 . S
H1961 C1994 0.930 . S
H1962 C1992 0.929 . S
H1963 C1995 0.928 . S
O1964 Co1948 2.057 . S
O1964 C1952 1.232 . S
H1965 C1984 0.929 . S
H1966 C1985 0.929 . S
H1967 C1997 0.931 . S
H1968 C1989 0.929 . S
H1969 C1998 0.930 . S
H1970 C1990 0.931 . S
O1971 Co1947 2.097 . S
O1971 C1999 1.214 . S
H1972 C2000 0.929 . S
H1973 C2001 0.929 . S
H1974 C2002 0.930 . S
H1975 C2003 0.929 . S
H1976 C2005 0.930 . S
H1977 C1982 0.930 . S
H1978 C1986 0.930 . S
O1979 Co1948 2.037 . S
O1979 C1999 1.234 . S
C1980 O1954 1.269 . S
C1980 O1955 1.257 . S
C1981 H1956 0.930 . S
C1981 C1984 1.388 . S
C1981 C1986 1.418 . S
C1982 H1977 0.930 . S
C1982 C1985 1.404 . S
C1982 C1986 1.353 . S
N1983 Co1948 2.145 . S
N1983 C1984 1.397 . S
N1983 C1985 1.334 . S
C1984 H1965 0.929 . S
C1984 C1981 1.388 . S
C1984 N1983 1.397 . S
C1985 H1966 0.929 . S
C1985 C1982 1.404 . S
C1985 N1983 1.334 . S
C1986 H1978 0.930 . S
C1986 C1981 1.418 . S
C1986 C1982 1.353 . S
C1987 H1957 0.930 . S
C1987 N1988 1.330 . S
C1987 C1989 1.446 . S
N1988 Co1947 2.151 . S
N1988 C1987 1.330 . S
N1988 C1992 1.418 . S
C1989 H1968 0.929 . S
C1989 C1987 1.446 . S
C1989 C1990 1.332 . S
C1990 H1970 0.931 . S
C1990 C1989 1.332 . S
C1990 C1991 1.267 . S
C1991 H1959 0.929 . S
C1991 C1990 1.267 . S
C1991 C1992 1.251 . S
C1992 H1962 0.929 . S
C1992 N1988 1.418 . S
C1992 C1991 1.251 . S
C1993 H1960 0.930 . S
C1993 C1995 1.406 . S
C1993 C1998 1.261 . S
C1994 H1961 0.930 . S
C1994 N1996 1.325 . S
C1994 C1997 1.357 . S
C1995 H1963 0.928 . S
C1995 C1993 1.406 . S
C1995 N1996 1.261 . S
N1996 Co1947 2.214 . S
N1996 C1994 1.325 . S
N1996 C1995 1.261 . S
C1997 H1967 0.931 . S
C1997 C1994 1.357 . S
C1997 C1998 1.312 . S
C1998 H1969 0.930 . S
C1998 C1993 1.261 . S
C1998 C1997 1.312 . S
C1999 O1971 1.214 . S
C1999 O1979 1.234 . S
C2000 H1972 0.929 . S
C2000 C2003 1.391 . S
C2000 C2005 1.391 . S
C2001 H1973 0.929 . S
C2001 C2002 1.390 . S
C2001 N2004 1.391 . S
C2002 H1974 0.930 . S
C2002 C2001 1.390 . S
C2002 C2003 1.392 . S
C2003 H1975 0.929 . S
C2003 C2000 1.391 . S
C2003 C2002 1.392 . S
N2004 Co1948 2.257 . S
N2004 C2001 1.391 . S
N2004 C2005 1.388 . S
C2005 H1976 0.930 . S
C2005 C2000 1.391 . S
C2005 N2004 1.388 . S
Co2006 O2008 2.143 . S
Co2006 O2014 2.074 . S
Co2006 O2017 2.093 . S
Co2006 O2030 2.097 . S
Co2006 N2047 2.151 . S
Co2006 N2055 2.214 . S
Co2007 O2008 2.160 . S
Co2007 O2013 2.058 . S
Co2007 O2023 2.057 . S
Co2007 O2038 2.037 . S
Co2007 N2042 2.145 . S
Co2007 N2063 2.257 . S
O2008 Co2006 2.143 . S
O2008 Co2007 2.160 . S
C2009 O2010 1.278 . S
C2009 O2017 1.224 . S
O2010 C2009 1.278 . S
C2011 O2012 1.245 . S
C2011 O2023 1.232 . S
O2012 C2011 1.245 . S
O2013 Co2007 2.058 . S
O2013 C2039 1.269 . S
O2014 Co2006 2.074 . S
O2014 C2039 1.257 . S
H2015 C2040 0.930 . S
H2016 C2046 0.930 . S
O2017 Co2006 2.093 . S
O2017 C2009 1.224 . S
H2018 C2050 0.929 . S
H2019 C2052 0.930 . S
H2020 C2053 0.930 . S
H2021 C2051 0.929 . S
H2022 C2054 0.928 . S
O2023 Co2007 2.057 . S
O2023 C2011 1.232 . S
H2024 C2043 0.929 . S
H2025 C2044 0.929 . S
H2026 C2056 0.931 . S
H2027 C2048 0.929 . S
H2028 C2057 0.930 . S
H2029 C2049 0.931 . S
O2030 Co2006 2.097 . S
O2030 C2058 1.214 . S
H2031 C2059 0.929 . S
H2032 C2060 0.929 . S
H2033 C2061 0.930 . S
H2034 C2062 0.929 . S
H2035 C2064 0.930 . S
H2036 C2041 0.930 . S
H2037 C2045 0.930 . S
O2038 Co2007 2.037 . S
O2038 C2058 1.234 . S
C2039 O2013 1.269 . S
C2039 O2014 1.257 . S
C2040 H2015 0.930 . S
C2040 C2043 1.388 . S
C2040 C2045 1.418 . S
C2041 H2036 0.930 . S
C2041 C2044 1.404 . S
C2041 C2045 1.353 . S
N2042 Co2007 2.145 . S
N2042 C2043 1.397 . S
N2042 C2044 1.334 . S
C2043 H2024 0.929 . S
C2043 C2040 1.388 . S
C2043 N2042 1.397 . S
C2044 H2025 0.929 . S
C2044 C2041 1.404 . S
C2044 N2042 1.334 . S
C2045 H2037 0.930 . S
C2045 C2040 1.418 . S
C2045 C2041 1.353 . S
C2046 H2016 0.930 . S
C2046 N2047 1.330 . S
C2046 C2048 1.446 . S
N2047 Co2006 2.151 . S
N2047 C2046 1.330 . S
N2047 C2051 1.418 . S
C2048 H2027 0.929 . S
C2048 C2046 1.446 . S
C2048 C2049 1.332 . S
C2049 H2029 0.931 . S
C2049 C2048 1.332 . S
C2049 C2050 1.267 . S
C2050 H2018 0.929 . S
C2050 C2049 1.267 . S
C2050 C2051 1.251 . S
C2051 H2021 0.929 . S
C2051 N2047 1.418 . S
C2051 C2050 1.251 . S
C2052 H2019 0.930 . S
C2052 C2054 1.406 . S
C2052 C2057 1.261 . S
C2053 H2020 0.930 . S
C2053 N2055 1.325 . S
C2053 C2056 1.357 . S
C2054 H2022 0.928 . S
C2054 C2052 1.406 . S
C2054 N2055 1.261 . S
N2055 Co2006 2.214 . S
N2055 C2053 1.325 . S
N2055 C2054 1.261 . S
C2056 H2026 0.931 . S
C2056 C2053 1.357 . S
C2056 C2057 1.312 . S
C2057 H2028 0.930 . S
C2057 C2052 1.261 . S
C2057 C2056 1.312 . S
C2058 O2030 1.214 . S
C2058 O2038 1.234 . S
C2059 H2031 0.929 . S
C2059 C2062 1.391 . S
C2059 C2064 1.391 . S
C2060 H2032 0.929 . S
C2060 C2061 1.390 . S
C2060 N2063 1.391 . S
C2061 H2033 0.930 . S
C2061 C2060 1.390 . S
C2061 C2062 1.392 . S
C2062 H2034 0.929 . S
C2062 C2059 1.391 . S
C2062 C2061 1.392 . S
N2063 Co2007 2.257 . S
N2063 C2060 1.391 . S
N2063 C2064 1.388 . S
C2064 H2035 0.930 . S
C2064 C2059 1.391 . S
C2064 N2063 1.388 . S
Co2065 O2067 2.143 . S
Co2065 O2073 2.074 . S
Co2065 O2076 2.093 . S
Co2065 O2089 2.097 . S
Co2065 N2106 2.151 . S
Co2065 N2114 2.214 . S
Co2066 O2067 2.160 . S
Co2066 O2072 2.058 . S
Co2066 O2082 2.057 . S
Co2066 O2097 2.037 . S
Co2066 N2101 2.145 . S
Co2066 N2122 2.257 . S
O2067 Co2065 2.143 . S
O2067 Co2066 2.160 . S
C2068 O2069 1.278 . S
C2068 O2076 1.224 . S
O2069 C2068 1.278 . S
C2070 O2071 1.245 . S
C2070 O2082 1.232 . S
O2071 C2070 1.245 . S
O2072 Co2066 2.058 . S
O2072 C2098 1.269 . S
O2073 Co2065 2.074 . S
O2073 C2098 1.257 . S
H2074 C2099 0.930 . S
H2075 C2105 0.930 . S
O2076 Co2065 2.093 . S
O2076 C2068 1.224 . S
H2077 C2109 0.929 . S
H2078 C2111 0.930 . S
H2079 C2112 0.930 . S
H2080 C2110 0.929 . S
H2081 C2113 0.928 . S
O2082 Co2066 2.057 . S
O2082 C2070 1.232 . S
H2083 C2102 0.929 . S
H2084 C2103 0.929 . S
H2085 C2115 0.931 . S
H2086 C2107 0.929 . S
H2087 C2116 0.930 . S
H2088 C2108 0.931 . S
O2089 Co2065 2.097 . S
O2089 C2117 1.214 . S
H2090 C2118 0.929 . S
H2091 C2119 0.929 . S
H2092 C2120 0.930 . S
H2093 C2121 0.929 . S
H2094 C2123 0.930 . S
H2095 C2100 0.930 . S
H2096 C2104 0.930 . S
O2097 Co2066 2.037 . S
O2097 C2117 1.234 . S
C2098 O2072 1.269 . S
C2098 O2073 1.257 . S
C2099 H2074 0.930 . S
C2099 C2102 1.388 . S
C2099 C2104 1.418 . S
C2100 H2095 0.930 . S
C2100 C2103 1.404 . S
C2100 C2104 1.353 . S
N2101 Co2066 2.145 . S
N2101 C2102 1.397 . S
N2101 C2103 1.334 . S
C2102 H2083 0.929 . S
C2102 C2099 1.388 . S
C2102 N2101 1.397 . S
C2103 H2084 0.929 . S
C2103 C2100 1.404 . S
C2103 N2101 1.334 . S
C2104 H2096 0.930 . S
C2104 C2099 1.418 . S
C2104 C2100 1.353 . S
C2105 H2075 0.930 . S
C2105 N2106 1.330 . S
C2105 C2107 1.446 . S
N2106 Co2065 2.151 . S
N2106 C2105 1.330 . S
N2106 C2110 1.418 . S
C2107 H2086 0.929 . S
C2107 C2105 1.446 . S
C2107 C2108 1.332 . S
C2108 H2088 0.931 . S
C2108 C2107 1.332 . S
C2108 C2109 1.267 . S
C2109 H2077 0.929 . S
C2109 C2108 1.267 . S
C2109 C2110 1.251 . S
C2110 H2080 0.929 . S
C2110 N2106 1.418 . S
C2110 C2109 1.251 . S
C2111 H2078 0.930 . S
C2111 C2113 1.406 . S
C2111 C2116 1.261 . S
C2112 H2079 0.930 . S
C2112 N2114 1.325 . S
C2112 C2115 1.357 . S
C2113 H2081 0.928 . S
C2113 C2111 1.406 . S
C2113 N2114 1.261 . S
N2114 Co2065 2.214 . S
N2114 C2112 1.325 . S
N2114 C2113 1.261 . S
C2115 H2085 0.931 . S
C2115 C2112 1.357 . S
C2115 C2116 1.312 . S
C2116 H2087 0.930 . S
C2116 C2111 1.261 . S
C2116 C2115 1.312 . S
C2117 O2089 1.214 . S
C2117 O2097 1.234 . S
C2118 H2090 0.929 . S
C2118 C2121 1.391 . S
C2118 C2123 1.391 . S
C2119 H2091 0.929 . S
C2119 C2120 1.390 . S
C2119 N2122 1.391 . S
C2120 H2092 0.930 . S
C2120 C2119 1.390 . S
C2120 C2121 1.392 . S
C2121 H2093 0.929 . S
C2121 C2118 1.391 . S
C2121 C2120 1.392 . S
N2122 Co2066 2.257 . S
N2122 C2119 1.391 . S
N2122 C2123 1.388 . S
C2123 H2094 0.930 . S
C2123 C2118 1.391 . S
C2123 N2122 1.388 . S
Co2124 O2126 2.143 . S
Co2124 O2132 2.074 . S
Co2124 O2135 2.093 . S
Co2124 O2148 2.097 . S
Co2124 N2165 2.151 . S
Co2124 N2173 2.214 . S
Co2125 O2126 2.160 . S
Co2125 O2131 2.058 . S
Co2125 O2141 2.057 . S
Co2125 O2156 2.037 . S
Co2125 N2160 2.145 . S
Co2125 N2181 2.257 . S
O2126 Co2124 2.143 . S
O2126 Co2125 2.160 . S
C2127 O2128 1.278 . S
C2127 O2135 1.224 . S
O2128 C2127 1.278 . S
C2129 O2130 1.245 . S
C2129 O2141 1.232 . S
O2130 C2129 1.245 . S
O2131 Co2125 2.058 . S
O2131 C2157 1.269 . S
O2132 Co2124 2.074 . S
O2132 C2157 1.257 . S
H2133 C2158 0.930 . S
H2134 C2164 0.930 . S
O2135 Co2124 2.093 . S
O2135 C2127 1.224 . S
H2136 C2168 0.929 . S
H2137 C2170 0.930 . S
H2138 C2171 0.930 . S
H2139 C2169 0.929 . S
H2140 C2172 0.928 . S
O2141 Co2125 2.057 . S
O2141 C2129 1.232 . S
H2142 C2161 0.929 . S
H2143 C2162 0.929 . S
H2144 C2174 0.931 . S
H2145 C2166 0.929 . S
H2146 C2175 0.930 . S
H2147 C2167 0.931 . S
O2148 Co2124 2.097 . S
O2148 C2176 1.214 . S
H2149 C2177 0.929 . S
H2150 C2178 0.929 . S
H2151 C2179 0.930 . S
H2152 C2180 0.929 . S
H2153 C2182 0.930 . S
H2154 C2159 0.930 . S
H2155 C2163 0.930 . S
O2156 Co2125 2.037 . S
O2156 C2176 1.234 . S
C2157 O2131 1.269 . S
C2157 O2132 1.257 . S
C2158 H2133 0.930 . S
C2158 C2161 1.388 1_556 S
C2158 C2163 1.418 . S
C2159 H2154 0.930 . S
C2159 C2162 1.404 1_556 S
C2159 C2163 1.353 . S
N2160 Co2125 2.145 . S
N2160 C2161 1.397 . S
N2160 C2162 1.334 . S
C2161 H2142 0.929 . S
C2161 C2158 1.388 1_554 S
C2161 N2160 1.397 . S
C2162 H2143 0.929 . S
C2162 C2159 1.404 1_554 S
C2162 N2160 1.334 . S
C2163 H2155 0.930 . S
C2163 C2158 1.418 . S
C2163 C2159 1.353 . S
C2164 H2134 0.930 . S
C2164 N2165 1.330 . S
C2164 C2166 1.446 . S
N2165 Co2124 2.151 . S
N2165 C2164 1.330 . S
N2165 C2169 1.418 . S
C2166 H2145 0.929 . S
C2166 C2164 1.446 . S
C2166 C2167 1.332 . S
C2167 H2147 0.931 . S
C2167 C2166 1.332 . S
C2167 C2168 1.267 . S
C2168 H2136 0.929 . S
C2168 C2167 1.267 . S
C2168 C2169 1.251 . S
C2169 H2139 0.929 . S
C2169 N2165 1.418 . S
C2169 C2168 1.251 . S
C2170 H2137 0.930 . S
C2170 C2172 1.406 . S
C2170 C2175 1.261 . S
C2171 H2138 0.930 . S
C2171 N2173 1.325 . S
C2171 C2174 1.357 . S
C2172 H2140 0.928 . S
C2172 C2170 1.406 . S
C2172 N2173 1.261 . S
N2173 Co2124 2.214 . S
N2173 C2171 1.325 . S
N2173 C2172 1.261 . S
C2174 H2144 0.931 . S
C2174 C2171 1.357 . S
C2174 C2175 1.312 . S
C2175 H2146 0.930 . S
C2175 C2170 1.261 . S
C2175 C2174 1.312 . S
C2176 O2148 1.214 . S
C2176 O2156 1.234 . S
C2177 H2149 0.929 . S
C2177 C2180 1.391 . S
C2177 C2182 1.391 . S
C2178 H2150 0.929 . S
C2178 C2179 1.390 . S
C2178 N2181 1.391 . S
C2179 H2151 0.930 . S
C2179 C2178 1.390 . S
C2179 C2180 1.392 . S
C2180 H2152 0.929 . S
C2180 C2177 1.391 . S
C2180 C2179 1.392 . S
N2181 Co2125 2.257 . S
N2181 C2178 1.391 . S
N2181 C2182 1.388 . S
C2182 H2153 0.930 . S
C2182 C2177 1.391 . S
C2182 N2181 1.388 . S
Co2183 O2185 2.143 . S
Co2183 O2191 2.074 . S
Co2183 O2194 2.093 . S
Co2183 O2207 2.097 . S
Co2183 N2224 2.151 . S
Co2183 N2232 2.214 . S
Co2184 O2185 2.160 . S
Co2184 O2190 2.058 . S
Co2184 O2200 2.057 . S
Co2184 O2215 2.037 . S
Co2184 N2219 2.145 . S
Co2184 N2240 2.257 . S
O2185 Co2183 2.143 . S
O2185 Co2184 2.160 . S
C2186 O2187 1.278 . S
C2186 O2194 1.224 . S
O2187 C2186 1.278 . S
C2188 O2189 1.245 . S
C2188 O2200 1.232 . S
O2189 C2188 1.245 . S
O2190 Co2184 2.058 . S
O2190 C2216 1.269 . S
O2191 Co2183 2.074 . S
O2191 C2216 1.257 . S
H2192 C2217 0.930 . S
H2193 C2223 0.930 . S
O2194 Co2183 2.093 . S
O2194 C2186 1.224 . S
H2195 C2227 0.929 . S
H2196 C2229 0.930 . S
H2197 C2230 0.930 . S
H2198 C2228 0.929 . S
H2199 C2231 0.928 . S
O2200 Co2184 2.057 . S
O2200 C2188 1.232 . S
H2201 C2220 0.929 . S
H2202 C2221 0.929 . S
H2203 C2233 0.931 . S
H2204 C2225 0.929 . S
H2205 C2234 0.930 . S
H2206 C2226 0.931 . S
O2207 Co2183 2.097 . S
O2207 C2235 1.214 . S
H2208 C2236 0.929 . S
H2209 C2237 0.929 . S
H2210 C2238 0.930 . S
H2211 C2239 0.929 . S
H2212 C2241 0.930 . S
H2213 C2218 0.954 . S
H2214 C2222 0.930 . S
O2215 Co2184 2.037 . S
O2215 C2235 1.234 . S
C2216 O2190 1.269 . S
C2216 O2191 1.257 . S
C2217 H2192 0.930 . S
C2217 C2220 1.388 . S
C2217 C2222 1.418 . S
C2218 H2213 0.954 . S
C2218 C2221 1.404 . S
C2218 C2222 1.353 . S
N2219 Co2184 2.145 . S
N2219 C2220 1.397 . S
N2219 C2221 1.334 . S
C2220 H2201 0.929 . S
C2220 C2217 1.388 . S
C2220 N2219 1.397 . S
C2221 H2202 0.929 . S
C2221 C2218 1.404 . S
C2221 N2219 1.334 . S
C2222 H2214 0.930 . S
C2222 C2217 1.418 . S
C2222 C2218 1.353 . S
C2223 H2193 0.930 . S
C2223 N2224 1.330 . S
C2223 C2225 1.446 . S
N2224 Co2183 2.151 . S
N2224 C2223 1.330 . S
N2224 C2228 1.418 . S
C2225 H2204 0.929 . S
C2225 C2223 1.446 . S
C2225 C2226 1.332 . S
C2226 H2206 0.931 . S
C2226 C2225 1.332 . S
C2226 C2227 1.267 . S
C2227 H2195 0.929 . S
C2227 C2226 1.267 . S
C2227 C2228 1.251 . S
C2228 H2198 0.929 . S
C2228 N2224 1.418 . S
C2228 C2227 1.251 . S
C2229 H2196 0.930 . S
C2229 C2231 1.406 . S
C2229 C2234 1.261 . S
C2230 H2197 0.930 . S
C2230 N2232 1.325 . S
C2230 C2233 1.357 . S
C2231 H2199 0.928 . S
C2231 C2229 1.406 . S
C2231 N2232 1.261 . S
N2232 Co2183 2.214 . S
N2232 C2230 1.325 . S
N2232 C2231 1.261 . S
C2233 H2203 0.931 . S
C2233 C2230 1.357 . S
C2233 C2234 1.312 . S
C2234 H2205 0.930 . S
C2234 C2229 1.261 . S
C2234 C2233 1.312 . S
C2235 O2207 1.214 . S
C2235 O2215 1.234 . S
C2236 H2208 0.929 . S
C2236 C2239 1.391 . S
C2236 C2241 1.391 . S
C2237 H2209 0.929 . S
C2237 C2238 1.390 . S
C2237 N2240 1.391 . S
C2238 H2210 0.930 . S
C2238 C2237 1.390 . S
C2238 C2239 1.392 . S
C2239 H2211 0.929 . S
C2239 C2236 1.391 . S
C2239 C2238 1.392 . S
N2240 Co2184 2.257 . S
N2240 C2237 1.391 . S
N2240 C2241 1.388 . S
C2241 H2212 0.930 . S
C2241 C2236 1.391 . S
C2241 N2240 1.388 . S
Co2242 O2244 2.143 . S
Co2242 O2250 2.074 . S
Co2242 O2253 2.093 . S
Co2242 O2266 2.097 . S
Co2242 N2283 2.151 . S
Co2242 N2291 2.214 . S
Co2243 O2244 2.160 . S
Co2243 O2249 2.058 . S
Co2243 O2259 2.057 . S
Co2243 O2274 2.037 . S
Co2243 N2278 2.145 . S
Co2243 N2299 2.257 . S
O2244 Co2242 2.143 . S
O2244 Co2243 2.160 . S
C2245 O2246 1.278 . S
C2245 O2253 1.224 . S
O2246 C2245 1.278 . S
C2247 O2248 1.245 . S
C2247 O2259 1.232 . S
O2248 C2247 1.245 . S
O2249 Co2243 2.058 . S
O2249 C2275 1.269 . S
O2250 Co2242 2.074 . S
O2250 C2275 1.257 . S
H2251 C2276 0.930 . S
H2252 C2282 0.930 . S
O2253 Co2242 2.093 . S
O2253 C2245 1.224 . S
H2254 C2286 0.929 . S
H2255 C2288 0.930 . S
H2256 C2289 0.930 . S
H2257 C2287 0.929 . S
H2258 C2290 0.928 . S
O2259 Co2243 2.057 . S
O2259 C2247 1.232 . S
H2260 C2279 0.929 . S
H2261 C2280 0.929 . S
H2262 C2292 0.931 . S
H2263 C2284 0.929 . S
H2264 C2293 0.930 . S
H2265 C2285 0.931 . S
O2266 Co2242 2.097 . S
O2266 C2294 1.214 . S
H2267 C2295 0.929 . S
H2268 C2296 0.929 . S
H2269 C2297 0.930 . S
H2270 C2298 0.929 . S
H2271 C2300 0.930 . S
H2272 C2277 0.930 . S
H2273 C2281 0.930 . S
O2274 Co2243 2.037 . S
O2274 C2294 1.234 . S
C2275 O2249 1.269 . S
C2275 O2250 1.257 . S
C2276 H2251 0.930 . S
C2276 C2279 1.388 1_556 S
C2276 C2281 1.418 . S
C2277 H2272 0.930 . S
C2277 C2280 1.404 1_556 S
C2277 C2281 1.353 . S
N2278 Co2243 2.145 . S
N2278 C2279 1.397 . S
N2278 C2280 1.334 . S
C2279 H2260 0.929 . S
C2279 C2276 1.388 1_554 S
C2279 N2278 1.397 . S
C2280 H2261 0.929 . S
C2280 C2277 1.404 1_554 S
C2280 N2278 1.334 . S
C2281 H2273 0.930 . S
C2281 C2276 1.418 . S
C2281 C2277 1.353 . S
C2282 H2252 0.930 . S
C2282 N2283 1.330 . S
C2282 C2284 1.446 . S
N2283 Co2242 2.151 . S
N2283 C2282 1.330 . S
N2283 C2287 1.418 . S
C2284 H2263 0.929 . S
C2284 C2282 1.446 . S
C2284 C2285 1.332 . S
C2285 H2265 0.931 . S
C2285 C2284 1.332 . S
C2285 C2286 1.267 . S
C2286 H2254 0.929 . S
C2286 C2285 1.267 . S
C2286 C2287 1.251 . S
C2287 H2257 0.929 . S
C2287 N2283 1.418 . S
C2287 C2286 1.251 . S
C2288 H2255 0.930 . S
C2288 C2290 1.406 . S
C2288 C2293 1.261 . S
C2289 H2256 0.930 . S
C2289 N2291 1.325 . S
C2289 C2292 1.357 . S
C2290 H2258 0.928 . S
C2290 C2288 1.406 . S
C2290 N2291 1.261 . S
N2291 Co2242 2.214 . S
N2291 C2289 1.325 . S
N2291 C2290 1.261 . S
C2292 H2262 0.931 . S
C2292 C2289 1.357 . S
C2292 C2293 1.312 . S
C2293 H2264 0.930 . S
C2293 C2288 1.261 . S
C2293 C2292 1.312 . S
C2294 O2266 1.214 . S
C2294 O2274 1.234 . S
C2295 H2267 0.929 . S
C2295 C2298 1.391 . S
C2295 C2300 1.391 . S
C2296 H2268 0.929 . S
C2296 C2297 1.390 . S
C2296 N2299 1.391 . S
C2297 H2269 0.930 . S
C2297 C2296 1.390 . S
C2297 C2298 1.392 . S
C2298 H2270 0.929 . S
C2298 C2295 1.391 . S
C2298 C2297 1.392 . S
N2299 Co2243 2.257 . S
N2299 C2296 1.391 . S
N2299 C2300 1.388 . S
C2300 H2271 0.930 . S
C2300 C2295 1.391 . S
C2300 N2299 1.388 . S
Co2301 O2303 2.143 . S
Co2301 O2309 2.074 . S
Co2301 O2312 2.093 . S
Co2301 O2325 2.097 . S
Co2301 N2342 2.151 . S
Co2301 N2350 2.214 . S
Co2302 O2303 2.160 . S
Co2302 O2308 2.058 . S
Co2302 O2318 2.057 . S
Co2302 O2333 2.037 . S
Co2302 N2337 2.145 . S
Co2302 N2358 2.257 . S
O2303 Co2301 2.143 . S
O2303 Co2302 2.160 . S
C2304 O2305 1.278 . S
C2304 O2312 1.224 . S
O2305 C2304 1.278 . S
C2306 O2307 1.245 . S
C2306 O2318 1.232 . S
O2307 C2306 1.245 . S
O2308 Co2302 2.058 . S
O2308 C2334 1.269 . S
O2309 Co2301 2.074 . S
O2309 C2334 1.257 . S
H2310 C2335 0.930 . S
H2311 C2341 0.930 . S
O2312 Co2301 2.093 . S
O2312 C2304 1.224 . S
H2313 C2345 0.929 . S
H2314 C2347 0.930 . S
H2315 C2348 0.930 . S
H2316 C2346 0.929 . S
H2317 C2349 0.928 . S
O2318 Co2302 2.057 . S
O2318 C2306 1.232 . S
H2319 C2338 0.929 . S
H2320 C2339 0.929 . S
H2321 C2351 0.931 . S
H2322 C2343 0.929 . S
H2323 C2352 0.930 . S
H2324 C2344 0.931 . S
O2325 Co2301 2.097 . S
O2325 C2353 1.214 . S
H2326 C2354 0.929 . S
H2327 C2355 0.929 . S
H2328 C2356 0.930 . S
H2329 C2357 0.929 . S
H2330 C2359 0.930 . S
H2331 C2336 0.930 . S
H2332 C2340 0.930 . S
O2333 Co2302 2.037 . S
O2333 C2353 1.234 . S
C2334 O2308 1.269 . S
C2334 O2309 1.257 . S
C2335 H2310 0.930 . S
C2335 C2338 1.388 . S
C2335 C2340 1.418 . S
C2336 H2331 0.930 . S
C2336 C2339 1.404 . S
C2336 C2340 1.353 . S
N2337 Co2302 2.145 . S
N2337 C2338 1.397 . S
N2337 C2339 1.334 . S
C2338 H2319 0.929 . S
C2338 C2335 1.388 . S
C2338 N2337 1.397 . S
C2339 H2320 0.929 . S
C2339 C2336 1.404 . S
C2339 N2337 1.334 . S
C2340 H2332 0.930 . S
C2340 C2335 1.418 . S
C2340 C2336 1.353 . S
C2341 H2311 0.930 . S
C2341 N2342 1.330 . S
C2341 C2343 1.446 . S
N2342 Co2301 2.151 . S
N2342 C2341 1.330 . S
N2342 C2346 1.418 . S
C2343 H2322 0.929 . S
C2343 C2341 1.446 . S
C2343 C2344 1.332 . S
C2344 H2324 0.931 . S
C2344 C2343 1.332 . S
C2344 C2345 1.267 . S
C2345 H2313 0.929 . S
C2345 C2344 1.267 . S
C2345 C2346 1.251 . S
C2346 H2316 0.929 . S
C2346 N2342 1.418 . S
C2346 C2345 1.251 . S
C2347 H2314 0.930 . S
C2347 C2349 1.406 . S
C2347 C2352 1.261 . S
C2348 H2315 0.930 . S
C2348 N2350 1.325 . S
C2348 C2351 1.357 . S
C2349 H2317 0.928 . S
C2349 C2347 1.406 . S
C2349 N2350 1.261 . S
N2350 Co2301 2.214 . S
N2350 C2348 1.325 . S
N2350 C2349 1.261 . S
C2351 H2321 0.931 . S
C2351 C2348 1.357 . S
C2351 C2352 1.312 . S
C2352 H2323 0.930 . S
C2352 C2347 1.261 . S
C2352 C2351 1.312 . S
C2353 O2325 1.214 . S
C2353 O2333 1.234 . S
C2354 H2326 0.929 . S
C2354 C2357 1.391 . S
C2354 C2359 1.391 . S
C2355 H2327 0.929 . S
C2355 C2356 1.390 . S
C2355 N2358 1.391 . S
C2356 H2328 0.930 . S
C2356 C2355 1.390 . S
C2356 C2357 1.392 . S
C2357 H2329 0.929 . S
C2357 C2354 1.391 . S
C2357 C2356 1.392 . S
N2358 Co2302 2.257 . S
N2358 C2355 1.391 . S
N2358 C2359 1.388 . S
C2359 H2330 0.930 . S
C2359 C2354 1.391 . S
C2359 N2358 1.388 . S
Co2360 O2362 2.143 . S
Co2360 O2368 2.074 . S
Co2360 O2371 2.093 . S
Co2360 O2384 2.097 . S
Co2360 N2401 2.151 . S
Co2360 N2409 2.214 . S
Co2361 O2362 2.160 . S
Co2361 O2367 2.058 . S
Co2361 O2377 2.057 . S
Co2361 O2392 2.037 . S
Co2361 N2396 2.145 . S
Co2361 N2417 2.257 . S
O2362 Co2360 2.143 . S
O2362 Co2361 2.160 . S
C2363 O2364 1.278 . S
C2363 O2371 1.224 . S
O2364 C2363 1.278 . S
C2365 O2366 1.245 . S
C2365 O2377 1.232 . S
O2366 C2365 1.245 . S
O2367 Co2361 2.058 . S
O2367 C2393 1.269 . S
O2368 Co2360 2.074 . S
O2368 C2393 1.257 . S
H2369 C2394 0.930 . S
H2370 C2400 0.930 . S
O2371 Co2360 2.093 . S
O2371 C2363 1.224 . S
H2372 C2404 0.929 . S
H2373 C2406 0.930 . S
H2374 C2407 0.930 . S
H2375 C2405 0.929 . S
H2376 C2408 0.928 . S
O2377 Co2361 2.057 . S
O2377 C2365 1.232 . S
H2378 C2397 0.929 . S
H2379 C2398 0.929 . S
H2380 C2410 0.931 . S
H2381 C2402 0.929 . S
H2382 C2411 0.930 . S
H2383 C2403 0.931 . S
O2384 Co2360 2.097 . S
O2384 C2412 1.214 . S
H2385 C2413 0.929 . S
H2386 C2414 0.929 . S
H2387 C2415 0.930 . S
H2388 C2416 0.929 . S
H2389 C2418 0.930 . S
H2390 C2395 0.930 . S
H2391 C2399 0.930 . S
O2392 Co2361 2.037 . S
O2392 C2412 1.234 . S
C2393 O2367 1.269 . S
C2393 O2368 1.257 . S
C2394 H2369 0.930 . S
C2394 C2397 1.388 . S
C2394 C2399 1.418 . S
C2395 H2390 0.930 . S
C2395 C2398 1.404 . S
C2395 C2399 1.353 . S
N2396 Co2361 2.145 . S
N2396 C2397 1.397 . S
N2396 C2398 1.334 . S
C2397 H2378 0.929 . S
C2397 C2394 1.388 . S
C2397 N2396 1.397 . S
C2398 H2379 0.929 . S
C2398 C2395 1.404 . S
C2398 N2396 1.334 . S
C2399 H2391 0.930 . S
C2399 C2394 1.418 . S
C2399 C2395 1.353 . S
C2400 H2370 0.930 . S
C2400 N2401 1.330 . S
C2400 C2402 1.446 . S
N2401 Co2360 2.151 . S
N2401 C2400 1.330 . S
N2401 C2405 1.418 . S
C2402 H2381 0.929 . S
C2402 C2400 1.446 . S
C2402 C2403 1.332 . S
C2403 H2383 0.931 . S
C2403 C2402 1.332 . S
C2403 C2404 1.267 . S
C2404 H2372 0.929 . S
C2404 C2403 1.267 . S
C2404 C2405 1.251 . S
C2405 H2375 0.929 . S
C2405 N2401 1.418 . S
C2405 C2404 1.251 . S
C2406 H2373 0.930 . S
C2406 C2408 1.406 . S
C2406 C2411 1.261 . S
C2407 H2374 0.930 . S
C2407 N2409 1.325 . S
C2407 C2410 1.357 . S
C2408 H2376 0.928 . S
C2408 C2406 1.406 . S
C2408 N2409 1.261 . S
N2409 Co2360 2.214 . S
N2409 C2407 1.325 . S
N2409 C2408 1.261 . S
C2410 H2380 0.931 . S
C2410 C2407 1.357 . S
C2410 C2411 1.312 . S
C2411 H2382 0.930 . S
C2411 C2406 1.261 . S
C2411 C2410 1.312 . S
C2412 O2384 1.214 . S
C2412 O2392 1.234 . S
C2413 H2385 0.929 . S
C2413 C2416 1.391 1_655 S
C2413 C2418 1.391 . S
C2414 H2386 0.929 . S
C2414 C2415 1.390 . S
C2414 N2417 1.391 . S
C2415 H2387 0.930 . S
C2415 C2414 1.390 . S
C2415 C2416 1.392 1_655 S
C2416 H2388 0.929 . S
C2416 C2413 1.391 1_455 S
C2416 C2415 1.392 1_455 S
N2417 Co2361 2.257 . S
N2417 C2414 1.391 . S
N2417 C2418 1.388 . S
C2418 H2389 0.930 . S
C2418 C2413 1.391 . S
C2418 N2417 1.388 . S
Co2419 O2421 2.143 . S
Co2419 O2427 2.074 . S
Co2419 O2430 2.093 . S
Co2419 O2443 2.097 . S
Co2419 N2460 2.151 . S
Co2419 N2468 2.214 . S
Co2420 O2421 2.160 . S
Co2420 O2426 2.058 . S
Co2420 O2436 2.057 . S
Co2420 O2451 2.037 . S
Co2420 N2455 2.145 . S
Co2420 N2476 2.257 . S
O2421 Co2419 2.143 . S
O2421 Co2420 2.160 . S
C2422 O2423 1.278 . S
C2422 O2430 1.224 . S
O2423 C2422 1.278 . S
C2424 O2425 1.245 . S
C2424 O2436 1.232 . S
O2425 C2424 1.245 . S
O2426 Co2420 2.058 . S
O2426 C2452 1.269 . S
O2427 Co2419 2.074 . S
O2427 C2452 1.257 . S
H2428 C2453 0.930 1_455 S
H2429 C2459 0.930 . S
O2430 Co2419 2.093 . S
O2430 C2422 1.224 . S
H2431 C2463 0.929 . S
H2432 C2465 0.930 . S
H2433 C2466 0.930 . S
H2434 C2464 0.929 . S
H2435 C2467 0.928 . S
O2436 Co2420 2.057 . S
O2436 C2424 1.232 . S
H2437 C2456 0.929 . S
H2438 C2457 0.929 . S
H2439 C2469 0.931 . S
H2440 C2461 0.929 . S
H2441 C2470 0.930 . S
H2442 C2462 0.931 . S
O2443 Co2419 2.097 . S
O2443 C2471 1.214 . S
H2444 C2472 0.929 . S
H2445 C2473 0.929 . S
H2446 C2474 0.930 . S
H2447 C2475 0.929 . S
H2448 C2477 0.930 . S
H2449 C2454 0.934 . S
H2450 C2458 0.930 . S
O2451 Co2420 2.037 . S
O2451 C2471 1.234 . S
C2452 O2426 1.269 . S
C2452 O2427 1.257 . S
C2453 H2428 0.930 1_655 S
C2453 C2456 1.388 . S
C2453 C2458 1.418 1_655 S
C2454 H2449 0.934 . S
C2454 C2457 1.396 1_455 S
C2454 C2458 1.356 . S
N2455 Co2420 2.145 . S
N2455 C2456 1.397 . S
N2455 C2457 1.334 . S
C2456 H2437 0.929 . S
C2456 C2453 1.388 . S
C2456 N2455 1.397 . S
C2457 H2438 0.929 . S
C2457 C2454 1.396 1_655 S
C2457 N2455 1.334 . S
C2458 H2450 0.930 . S
C2458 C2453 1.418 1_455 S
C2458 C2454 1.356 . S
C2459 H2429 0.930 . S
C2459 N2460 1.330 . S
C2459 C2461 1.446 . S
N2460 Co2419 2.151 . S
N2460 C2459 1.330 . S
N2460 C2464 1.418 . S
C2461 H2440 0.929 . S
C2461 C2459 1.446 . S
C2461 C2462 1.332 . S
C2462 H2442 0.931 . S
C2462 C2461 1.332 . S
C2462 C2463 1.267 . S
C2463 H2431 0.929 . S
C2463 C2462 1.267 . S
C2463 C2464 1.251 . S
C2464 H2434 0.929 . S
C2464 N2460 1.418 . S
C2464 C2463 1.251 . S
C2465 H2432 0.930 . S
C2465 C2467 1.406 . S
C2465 C2470 1.261 . S
C2466 H2433 0.930 . S
C2466 N2468 1.325 . S
C2466 C2469 1.357 . S
C2467 H2435 0.928 . S
C2467 C2465 1.406 . S
C2467 N2468 1.261 . S
N2468 Co2419 2.214 . S
N2468 C2466 1.325 . S
N2468 C2467 1.261 . S
C2469 H2439 0.931 . S
C2469 C2466 1.357 . S
C2469 C2470 1.312 . S
C2470 H2441 0.930 . S
C2470 C2465 1.261 . S
C2470 C2469 1.312 . S
C2471 O2443 1.214 . S
C2471 O2451 1.234 . S
C2472 H2444 0.929 . S
C2472 C2475 1.391 . S
C2472 C2477 1.391 . S
C2473 H2445 0.929 . S
C2473 C2474 1.390 . S
C2473 N2476 1.391 . S
C2474 H2446 0.930 . S
C2474 C2473 1.390 . S
C2474 C2475 1.392 . S
C2475 H2447 0.929 . S
C2475 C2472 1.391 . S
C2475 C2474 1.392 . S
N2476 Co2420 2.257 . S
N2476 C2473 1.391 . S
N2476 C2477 1.388 . S
C2477 H2448 0.930 . S
C2477 C2472 1.391 . S
C2477 N2476 1.388 . S
Co2478 O2480 2.143 . S
Co2478 O2486 2.074 . S
Co2478 O2489 2.093 . S
Co2478 O2502 2.097 . S
Co2478 N2519 2.151 . S
Co2478 N2527 2.214 . S
Co2479 O2480 2.160 . S
Co2479 O2485 2.058 . S
Co2479 O2495 2.057 . S
Co2479 O2510 2.037 . S
Co2479 N2514 2.145 . S
Co2479 N2535 2.257 . S
O2480 Co2478 2.143 . S
O2480 Co2479 2.160 . S
C2481 O2482 1.278 . S
C2481 O2489 1.224 . S
O2482 C2481 1.278 . S
C2483 O2484 1.245 . S
C2483 O2495 1.232 . S
O2484 C2483 1.245 . S
O2485 Co2479 2.058 . S
O2485 C2511 1.269 . S
O2486 Co2478 2.074 . S
O2486 C2511 1.257 . S
H2487 C2512 0.930 . S
H2488 C2518 0.930 . S
O2489 Co2478 2.093 . S
O2489 C2481 1.224 . S
H2490 C2522 0.929 1_655 S
H2491 C2524 0.930 . S
H2492 C2525 0.930 . S
H2493 C2523 0.929 . S
H2494 C2526 0.928 . S
O2495 Co2479 2.057 . S
O2495 C2483 1.232 . S
H2496 C2515 0.929 . S
H2497 C2516 0.929 . S
H2498 C2528 0.931 . S
H2499 C2520 0.929 . S
H2500 C2529 0.930 . S
H2501 C2521 0.951 . S
O2502 Co2478 2.097 . S
O2502 C2530 1.214 . S
H2503 C2531 0.929 . S
H2504 C2532 0.929 . S
H2505 C2533 0.930 . S
H2506 C2534 0.929 . S
H2507 C2536 0.930 . S
H2508 C2513 0.930 . S
H2509 C2517 0.930 . S
O2510 Co2479 2.037 . S
O2510 C2530 1.234 . S
C2511 O2485 1.269 . S
C2511 O2486 1.257 . S
C2512 H2487 0.930 . S
C2512 C2515 1.388 . S
C2512 C2517 1.418 . S
C2513 H2508 0.930 . S
C2513 C2516 1.404 . S
C2513 C2517 1.353 . S
N2514 Co2479 2.145 . S
N2514 C2515 1.397 . S
N2514 C2516 1.334 . S
C2515 H2496 0.929 . S
C2515 C2512 1.388 . S
C2515 N2514 1.397 . S
C2516 H2497 0.929 . S
C2516 C2513 1.404 . S
C2516 N2514 1.334 . S
C2517 H2509 0.930 . S
C2517 C2512 1.418 . S
C2517 C2513 1.353 . S
C2518 H2488 0.930 . S
C2518 N2519 1.330 . S
C2518 C2520 1.446 . S
N2519 Co2478 2.151 . S
N2519 C2518 1.330 . S
N2519 C2523 1.418 . S
C2520 H2499 0.929 . S
C2520 C2518 1.446 . S
C2520 C2521 1.332 . S
C2521 H2501 0.951 . S
C2521 C2520 1.332 . S
C2521 C2522 1.267 . S
C2522 H2490 0.929 1_455 S
C2522 C2521 1.267 . S
C2522 C2523 1.251 . S
C2523 H2493 0.929 . S
C2523 N2519 1.418 . S
C2523 C2522 1.251 . S
C2524 H2491 0.930 . S
C2524 C2526 1.406 . S
C2524 C2529 1.261 . S
C2525 H2492 0.930 . S
C2525 N2527 1.325 . S
C2525 C2528 1.357 . S
C2526 H2494 0.928 . S
C2526 C2524 1.406 . S
C2526 N2527 1.261 . S
N2527 Co2478 2.214 . S
N2527 C2525 1.325 . S
N2527 C2526 1.261 . S
C2528 H2498 0.931 . S
C2528 C2525 1.357 . S
C2528 C2529 1.312 . S
C2529 H2500 0.930 . S
C2529 C2524 1.261 . S
C2529 C2528 1.312 . S
C2530 O2502 1.214 . S
C2530 O2510 1.234 . S
C2531 H2503 0.929 . S
C2531 C2534 1.391 . S
C2531 C2536 1.391 . S
C2532 H2504 0.929 . S
C2532 C2533 1.390 . S
C2532 N2535 1.391 . S
C2533 H2505 0.930 . S
C2533 C2532 1.390 . S
C2533 C2534 1.392 . S
C2534 H2506 0.929 . S
C2534 C2531 1.391 . S
C2534 C2533 1.392 . S
N2535 Co2479 2.257 . S
N2535 C2532 1.391 . S
N2535 C2536 1.388 . S
C2536 H2507 0.930 . S
C2536 C2531 1.391 . S
C2536 N2535 1.388 . S
Co2537 O2539 2.143 . S
Co2537 O2545 2.074 . S
Co2537 O2548 2.093 . S
Co2537 O2561 2.097 . S
Co2537 N2578 2.151 . S
Co2537 N2586 2.214 . S
Co2538 O2539 2.160 . S
Co2538 O2544 2.058 . S
Co2538 O2554 2.057 . S
Co2538 O2569 2.037 . S
Co2538 N2573 2.145 . S
Co2538 N2594 2.257 . S
O2539 Co2537 2.143 . S
O2539 Co2538 2.160 . S
C2540 O2541 1.278 . S
C2540 O2548 1.224 . S
O2541 C2540 1.278 . S
C2542 O2543 1.245 . S
C2542 O2554 1.232 . S
O2543 C2542 1.245 . S
O2544 Co2538 2.058 . S
O2544 C2570 1.269 . S
O2545 Co2537 2.074 . S
O2545 C2570 1.257 . S
H2546 C2571 0.930 . S
H2547 C2577 0.930 . S
O2548 Co2537 2.093 . S
O2548 C2540 1.224 . S
H2549 C2581 0.929 . S
H2550 C2583 0.930 . S
H2551 C2584 0.930 . S
H2552 C2582 0.929 . S
H2553 C2585 0.928 . S
O2554 Co2538 2.057 . S
O2554 C2542 1.232 . S
H2555 C2574 0.929 . S
H2556 C2575 0.929 . S
H2557 C2587 0.931 . S
H2558 C2579 0.929 . S
H2559 C2588 0.930 . S
H2560 C2580 0.931 . S
O2561 Co2537 2.097 . S
O2561 C2589 1.214 . S
H2562 C2590 0.929 . S
H2563 C2591 0.929 . S
H2564 C2592 0.930 . S
H2565 C2593 0.929 1_655 S
H2566 C2595 0.930 . S
H2567 C2572 0.930 . S
H2568 C2576 0.930 . S
O2569 Co2538 2.037 . S
O2569 C2589 1.234 . S
C2570 O2544 1.269 . S
C2570 O2545 1.257 . S
C2571 H2546 0.930 . S
C2571 C2574 1.388 . S
C2571 C2576 1.418 . S
C2572 H2567 0.930 . S
C2572 C2575 1.404 . S
C2572 C2576 1.353 . S
N2573 Co2538 2.145 . S
N2573 C2574 1.397 . S
N2573 C2575 1.334 . S
C2574 H2555 0.929 . S
C2574 C2571 1.388 . S
C2574 N2573 1.397 . S
C2575 H2556 0.929 . S
C2575 C2572 1.404 . S
C2575 N2573 1.334 . S
C2576 H2568 0.930 . S
C2576 C2571 1.418 . S
C2576 C2572 1.353 . S
C2577 H2547 0.930 . S
C2577 N2578 1.330 . S
C2577 C2579 1.446 . S
N2578 Co2537 2.151 . S
N2578 C2577 1.330 . S
N2578 C2582 1.418 . S
C2579 H2558 0.929 . S
C2579 C2577 1.446 . S
C2579 C2580 1.332 . S
C2580 H2560 0.931 . S
C2580 C2579 1.332 . S
C2580 C2581 1.267 . S
C2581 H2549 0.929 . S
C2581 C2580 1.267 . S
C2581 C2582 1.251 . S
C2582 H2552 0.929 . S
C2582 N2578 1.418 . S
C2582 C2581 1.251 . S
C2583 H2550 0.930 . S
C2583 C2585 1.406 . S
C2583 C2588 1.261 . S
C2584 H2551 0.930 . S
C2584 N2586 1.325 . S
C2584 C2587 1.357 . S
C2585 H2553 0.928 . S
C2585 C2583 1.406 . S
C2585 N2586 1.261 . S
N2586 Co2537 2.214 . S
N2586 C2584 1.325 . S
N2586 C2585 1.261 . S
C2587 H2557 0.931 . S
C2587 C2584 1.357 . S
C2587 C2588 1.312 . S
C2588 H2559 0.930 . S
C2588 C2583 1.261 . S
C2588 C2587 1.312 . S
C2589 O2561 1.214 . S
C2589 O2569 1.234 . S
C2590 H2562 0.929 . S
C2590 C2593 1.391 . S
C2590 C2595 1.391 . S
C2591 H2563 0.929 . S
C2591 C2592 1.390 . S
C2591 N2594 1.391 . S
C2592 H2564 0.930 . S
C2592 C2591 1.390 . S
C2592 C2593 1.392 . S
C2593 H2565 0.929 1_455 S
C2593 C2590 1.391 . S
C2593 C2592 1.392 . S
N2594 Co2538 2.257 . S
N2594 C2591 1.391 . S
N2594 C2595 1.388 . S
C2595 H2566 0.930 . S
C2595 C2590 1.391 . S
C2595 N2594 1.388 . S
Co2596 O2598 2.143 . S
Co2596 O2604 2.074 . S
Co2596 O2607 2.093 . S
Co2596 O2620 2.097 . S
Co2596 N2637 2.151 . S
Co2596 N2645 2.214 . S
Co2597 O2598 2.160 . S
Co2597 O2603 2.058 . S
Co2597 O2613 2.057 . S
Co2597 O2628 2.037 . S
Co2597 N2632 2.145 . S
Co2597 N2653 2.257 . S
O2598 Co2596 2.143 . S
O2598 Co2597 2.160 . S
C2599 O2600 1.278 . S
C2599 O2607 1.224 . S
O2600 C2599 1.278 . S
C2601 O2602 1.245 . S
C2601 O2613 1.232 . S
O2602 C2601 1.245 . S
O2603 Co2597 2.058 . S
O2603 C2629 1.269 . S
O2604 Co2596 2.074 . S
O2604 C2629 1.257 . S
H2605 C2630 0.930 . S
H2606 C2636 0.930 . S
O2607 Co2596 2.093 . S
O2607 C2599 1.224 . S
H2608 C2640 0.929 . S
H2609 C2642 0.930 1_455 S
H2610 C2643 0.930 . S
H2611 C2641 0.929 . S
H2612 C2644 0.928 . S
O2613 Co2597 2.057 . S
O2613 C2601 1.232 . S
H2614 C2633 0.929 . S
H2615 C2634 0.929 . S
H2616 C2646 0.931 . S
H2617 C2638 0.929 . S
H2618 C2647 0.930 . S
H2619 C2639 0.931 . S
O2620 Co2596 2.097 . S
O2620 C2648 1.214 . S
H2621 C2649 0.929 . S
H2622 C2650 0.929 . S
H2623 C2651 0.930 . S
H2624 C2652 0.929 . S
H2625 C2654 0.930 . S
H2626 C2631 0.930 . S
H2627 C2635 0.930 . S
O2628 Co2597 2.037 . S
O2628 C2648 1.234 . S
C2629 O2603 1.269 . S
C2629 O2604 1.257 . S
C2630 H2605 0.930 . S
C2630 C2633 1.388 . S
C2630 C2635 1.418 . S
C2631 H2626 0.930 . S
C2631 C2634 1.404 . S
C2631 C2635 1.353 . S
N2632 Co2597 2.145 . S
N2632 C2633 1.397 . S
N2632 C2634 1.334 . S
C2633 H2614 0.929 . S
C2633 C2630 1.388 . S
C2633 N2632 1.397 . S
C2634 H2615 0.929 . S
C2634 C2631 1.404 . S
C2634 N2632 1.334 . S
C2635 H2627 0.930 . S
C2635 C2630 1.418 . S
C2635 C2631 1.353 . S
C2636 H2606 0.930 . S
C2636 N2637 1.330 . S
C2636 C2638 1.446 . S
N2637 Co2596 2.151 . S
N2637 C2636 1.330 . S
N2637 C2641 1.418 . S
C2638 H2617 0.929 . S
C2638 C2636 1.446 . S
C2638 C2639 1.332 . S
C2639 H2619 0.931 . S
C2639 C2638 1.332 . S
C2639 C2640 1.267 . S
C2640 H2608 0.929 . S
C2640 C2639 1.267 . S
C2640 C2641 1.251 . S
C2641 H2611 0.929 . S
C2641 N2637 1.418 . S
C2641 C2640 1.251 . S
C2642 H2609 0.930 1_655 S
C2642 C2644 1.406 . S
C2642 C2647 1.261 . S
C2643 H2610 0.930 . S
C2643 N2645 1.325 . S
C2643 C2646 1.357 . S
C2644 H2612 0.928 . S
C2644 C2642 1.406 . S
C2644 N2645 1.261 . S
N2645 Co2596 2.214 . S
N2645 C2643 1.325 . S
N2645 C2644 1.261 . S
C2646 H2616 0.931 . S
C2646 C2643 1.357 . S
C2646 C2647 1.312 . S
C2647 H2618 0.930 . S
C2647 C2642 1.261 . S
C2647 C2646 1.312 . S
C2648 O2620 1.214 . S
C2648 O2628 1.234 . S
C2649 H2621 0.929 . S
C2649 C2652 1.391 . S
C2649 C2654 1.391 . S
C2650 H2622 0.929 . S
C2650 C2651 1.390 . S
C2650 N2653 1.391 . S
C2651 H2623 0.930 . S
C2651 C2650 1.390 . S
C2651 C2652 1.392 . S
C2652 H2624 0.929 . S
C2652 C2649 1.391 . S
C2652 C2651 1.392 . S
N2653 Co2597 2.257 . S
N2653 C2650 1.391 . S
N2653 C2654 1.388 . S
C2654 H2625 0.930 . S
C2654 C2649 1.391 . S
C2654 N2653 1.388 . S
Co2655 O2657 2.143 . S
Co2655 O2663 2.074 . S
Co2655 O2666 2.093 . S
Co2655 O2679 2.097 . S
Co2655 N2696 2.151 . S
Co2655 N2704 2.214 . S
Co2656 O2657 2.160 . S
Co2656 O2662 2.058 . S
Co2656 O2672 2.057 . S
Co2656 O2687 2.037 . S
Co2656 N2691 2.145 . S
Co2656 N2712 2.257 . S
O2657 Co2655 2.143 . S
O2657 Co2656 2.160 . S
C2658 O2659 1.278 . S
C2658 O2666 1.224 . S
O2659 C2658 1.278 . S
C2660 O2661 1.245 . S
C2660 O2672 1.232 . S
O2661 C2660 1.245 . S
O2662 Co2656 2.058 . S
O2662 C2688 1.269 . S
O2663 Co2655 2.074 . S
O2663 C2688 1.257 . S
H2664 C2689 0.930 . S
H2665 C2695 0.930 . S
O2666 Co2655 2.093 . S
O2666 C2658 1.224 . S
H2667 C2699 0.929 . S
H2668 C2701 0.930 . S
H2669 C2702 0.930 . S
H2670 C2700 0.929 . S
H2671 C2703 0.928 . S
O2672 Co2656 2.057 . S
O2672 C2660 1.232 . S
H2673 C2692 0.929 . S
H2674 C2693 0.929 . S
H2675 C2705 0.931 . S
H2676 C2697 0.929 . S
H2677 C2706 0.930 . S
H2678 C2698 0.931 . S
O2679 Co2655 2.097 . S
O2679 C2707 1.214 . S
H2680 C2708 0.929 . S
H2681 C2709 0.929 . S
H2682 C2710 0.930 . S
H2683 C2711 0.929 . S
H2684 C2713 0.930 . S
H2685 C2690 0.930 . S
H2686 C2694 0.930 . S
O2687 Co2656 2.037 . S
O2687 C2707 1.234 . S
C2688 O2662 1.269 . S
C2688 O2663 1.257 . S
C2689 H2664 0.930 . S
C2689 C2692 1.388 1_655 S
C2689 C2694 1.418 . S
C2690 H2685 0.930 . S
C2690 C2693 1.404 1_655 S
C2690 C2694 1.353 . S
N2691 Co2656 2.145 . S
N2691 C2692 1.397 . S
N2691 C2693 1.334 . S
C2692 H2673 0.929 . S
C2692 C2689 1.388 1_455 S
C2692 N2691 1.397 . S
C2693 H2674 0.929 . S
C2693 C2690 1.404 1_455 S
C2693 N2691 1.334 . S
C2694 H2686 0.930 . S
C2694 C2689 1.418 . S
C2694 C2690 1.353 . S
C2695 H2665 0.930 . S
C2695 N2696 1.330 . S
C2695 C2697 1.446 . S
N2696 Co2655 2.151 . S
N2696 C2695 1.330 . S
N2696 C2700 1.418 . S
C2697 H2676 0.929 . S
C2697 C2695 1.446 . S
C2697 C2698 1.332 . S
C2698 H2678 0.931 . S
C2698 C2697 1.332 . S
C2698 C2699 1.267 . S
C2699 H2667 0.929 . S
C2699 C2698 1.267 . S
C2699 C2700 1.251 . S
C2700 H2670 0.929 . S
C2700 N2696 1.418 . S
C2700 C2699 1.251 . S
C2701 H2668 0.930 . S
C2701 C2703 1.406 . S
C2701 C2706 1.261 . S
C2702 H2669 0.930 . S
C2702 N2704 1.325 . S
C2702 C2705 1.357 . S
C2703 H2671 0.928 . S
C2703 C2701 1.406 . S
C2703 N2704 1.261 . S
N2704 Co2655 2.214 . S
N2704 C2702 1.325 . S
N2704 C2703 1.261 . S
C2705 H2675 0.931 . S
C2705 C2702 1.357 . S
C2705 C2706 1.312 . S
C2706 H2677 0.930 . S
C2706 C2701 1.261 . S
C2706 C2705 1.312 . S
C2707 O2679 1.214 . S
C2707 O2687 1.234 . S
C2708 H2680 0.929 . S
C2708 C2711 1.391 . S
C2708 C2713 1.391 . S
C2709 H2681 0.929 . S
C2709 C2710 1.390 . S
C2709 N2712 1.391 . S
C2710 H2682 0.930 . S
C2710 C2709 1.390 . S
C2710 C2711 1.392 . S
C2711 H2683 0.929 . S
C2711 C2708 1.391 . S
C2711 C2710 1.392 . S
N2712 Co2656 2.257 . S
N2712 C2709 1.391 . S
N2712 C2713 1.388 . S
C2713 H2684 0.930 . S
C2713 C2708 1.391 . S
C2713 N2712 1.388 . S
Co2714 O2716 2.143 . S
Co2714 O2722 2.074 . S
Co2714 O2725 2.093 . S
Co2714 O2738 2.097 . S
Co2714 N2755 2.151 . S
Co2714 N2763 2.214 . S
Co2715 O2716 2.160 . S
Co2715 O2721 2.058 . S
Co2715 O2731 2.057 . S
Co2715 O2746 2.037 . S
Co2715 N2750 2.145 . S
Co2715 N2771 2.257 . S
O2716 Co2714 2.143 . S
O2716 Co2715 2.160 . S
C2717 O2718 1.278 . S
C2717 O2725 1.224 . S
O2718 C2717 1.278 . S
C2719 O2720 1.245 . S
C2719 O2731 1.232 . S
O2720 C2719 1.245 . S
O2721 Co2715 2.058 . S
O2721 C2747 1.269 . S
O2722 Co2714 2.074 . S
O2722 C2747 1.257 . S
H2723 C2748 0.930 . S
H2724 C2754 0.930 . S
O2725 Co2714 2.093 . S
O2725 C2717 1.224 . S
H2726 C2758 0.929 . S
H2727 C2760 0.930 . S
H2728 C2761 0.930 . S
H2729 C2759 0.929 . S
H2730 C2762 0.928 . S
O2731 Co2715 2.057 . S
O2731 C2719 1.232 . S
H2732 C2751 0.929 . S
H2733 C2752 0.929 . S
H2734 C2764 0.931 . S
H2735 C2756 0.929 . S
H2736 C2765 0.930 . S
H2737 C2757 0.931 . S
O2738 Co2714 2.097 . S
O2738 C2766 1.214 . S
H2739 C2767 0.929 . S
H2740 C2768 0.929 . S
H2741 C2769 0.930 . S
H2742 C2770 0.929 . S
H2743 C2772 0.930 . S
H2744 C2749 0.930 . S
H2745 C2753 0.930 . S
O2746 Co2715 2.037 . S
O2746 C2766 1.234 . S
C2747 O2721 1.269 . S
C2747 O2722 1.257 . S
C2748 H2723 0.930 . S
C2748 C2751 1.388 . S
C2748 C2753 1.418 . S
C2749 H2744 0.930 . S
C2749 C2752 1.404 . S
C2749 C2753 1.353 . S
N2750 Co2715 2.145 . S
N2750 C2751 1.397 . S
N2750 C2752 1.334 . S
C2751 H2732 0.929 . S
C2751 C2748 1.388 . S
C2751 N2750 1.397 . S
C2752 H2733 0.929 . S
C2752 C2749 1.404 . S
C2752 N2750 1.334 . S
C2753 H2745 0.930 . S
C2753 C2748 1.418 . S
C2753 C2749 1.353 . S
C2754 H2724 0.930 . S
C2754 N2755 1.330 . S
C2754 C2756 1.446 . S
N2755 Co2714 2.151 . S
N2755 C2754 1.330 . S
N2755 C2759 1.418 . S
C2756 H2735 0.929 . S
C2756 C2754 1.446 . S
C2756 C2757 1.332 . S
C2757 H2737 0.931 . S
C2757 C2756 1.332 . S
C2757 C2758 1.267 . S
C2758 H2726 0.929 . S
C2758 C2757 1.267 . S
C2758 C2759 1.251 . S
C2759 H2729 0.929 . S
C2759 N2755 1.418 . S
C2759 C2758 1.251 . S
C2760 H2727 0.930 . S
C2760 C2762 1.406 . S
C2760 C2765 1.261 . S
C2761 H2728 0.930 . S
C2761 N2763 1.325 . S
C2761 C2764 1.357 . S
C2762 H2730 0.928 . S
C2762 C2760 1.406 . S
C2762 N2763 1.261 . S
N2763 Co2714 2.214 . S
N2763 C2761 1.325 . S
N2763 C2762 1.261 . S
C2764 H2734 0.931 . S
C2764 C2761 1.357 . S
C2764 C2765 1.312 . S
C2765 H2736 0.930 . S
C2765 C2760 1.261 . S
C2765 C2764 1.312 . S
C2766 O2738 1.214 . S
C2766 O2746 1.234 . S
C2767 H2739 0.929 . S
C2767 C2770 1.391 . S
C2767 C2772 1.391 . S
C2768 H2740 0.929 . S
C2768 C2769 1.390 . S
C2768 N2771 1.391 . S
C2769 H2741 0.930 . S
C2769 C2768 1.390 . S
C2769 C2770 1.392 . S
C2770 H2742 0.929 . S
C2770 C2767 1.391 . S
C2770 C2769 1.392 . S
N2771 Co2715 2.257 . S
N2771 C2768 1.391 . S
N2771 C2772 1.388 . S
C2772 H2743 0.930 . S
C2772 C2767 1.391 . S
C2772 N2771 1.388 . S
Co2773 O2775 2.143 . S
Co2773 O2781 2.074 . S
Co2773 O2784 2.093 . S
Co2773 O2797 2.097 . S
Co2773 N2814 2.151 . S
Co2773 N2822 2.214 . S
Co2774 O2775 2.160 . S
Co2774 O2780 2.058 . S
Co2774 O2790 2.057 . S
Co2774 O2805 2.037 . S
Co2774 N2809 2.145 . S
Co2774 N2830 2.257 . S
O2775 Co2773 2.143 . S
O2775 Co2774 2.160 . S
C2776 O2777 1.278 . S
C2776 O2784 1.224 . S
O2777 C2776 1.278 . S
C2778 O2779 1.245 . S
C2778 O2790 1.232 . S
O2779 C2778 1.245 . S
O2780 Co2774 2.058 . S
O2780 C2806 1.269 . S
O2781 Co2773 2.074 . S
O2781 C2806 1.257 . S
H2782 C2807 0.930 . S
H2783 C2813 0.930 . S
O2784 Co2773 2.093 . S
O2784 C2776 1.224 . S
H2785 C2817 0.929 . S
H2786 C2819 0.930 . S
H2787 C2820 0.930 . S
H2788 C2818 0.929 . S
H2789 C2821 0.928 . S
O2790 Co2774 2.057 . S
O2790 C2778 1.232 . S
H2791 C2810 0.929 . S
H2792 C2811 0.929 . S
H2793 C2823 0.931 . S
H2794 C2815 0.929 . S
H2795 C2824 0.930 . S
H2796 C2816 0.931 . S
O2797 Co2773 2.097 . S
O2797 C2825 1.214 . S
H2798 C2826 0.929 . S
H2799 C2827 0.929 . S
H2800 C2828 0.930 . S
H2801 C2829 0.929 . S
H2802 C2831 0.930 . S
H2803 C2808 0.930 . S
H2804 C2812 0.930 . S
O2805 Co2774 2.037 . S
O2805 C2825 1.234 . S
C2806 O2780 1.269 . S
C2806 O2781 1.257 . S
C2807 H2782 0.930 . S
C2807 C2810 1.388 . S
C2807 C2812 1.418 . S
C2808 H2803 0.930 . S
C2808 C2811 1.404 . S
C2808 C2812 1.353 . S
N2809 Co2774 2.145 . S
N2809 C2810 1.397 . S
N2809 C2811 1.334 . S
C2810 H2791 0.929 . S
C2810 C2807 1.388 . S
C2810 N2809 1.397 . S
C2811 H2792 0.929 . S
C2811 C2808 1.404 . S
C2811 N2809 1.334 . S
C2812 H2804 0.930 . S
C2812 C2807 1.418 . S
C2812 C2808 1.353 . S
C2813 H2783 0.930 . S
C2813 N2814 1.330 . S
C2813 C2815 1.446 . S
N2814 Co2773 2.151 . S
N2814 C2813 1.330 . S
N2814 C2818 1.418 . S
C2815 H2794 0.929 . S
C2815 C2813 1.446 . S
C2815 C2816 1.332 . S
C2816 H2796 0.931 . S
C2816 C2815 1.332 . S
C2816 C2817 1.267 . S
C2817 H2785 0.929 . S
C2817 C2816 1.267 . S
C2817 C2818 1.251 . S
C2818 H2788 0.929 . S
C2818 N2814 1.418 . S
C2818 C2817 1.251 . S
C2819 H2786 0.930 . S
C2819 C2821 1.406 . S
C2819 C2824 1.261 . S
C2820 H2787 0.930 . S
C2820 N2822 1.325 . S
C2820 C2823 1.357 . S
C2821 H2789 0.928 . S
C2821 C2819 1.406 . S
C2821 N2822 1.261 . S
N2822 Co2773 2.214 . S
N2822 C2820 1.325 . S
N2822 C2821 1.261 . S
C2823 H2793 0.931 . S
C2823 C2820 1.357 . S
C2823 C2824 1.312 . S
C2824 H2795 0.930 . S
C2824 C2819 1.261 . S
C2824 C2823 1.312 . S
C2825 O2797 1.214 . S
C2825 O2805 1.234 . S
C2826 H2798 0.929 . S
C2826 C2829 1.391 . S
C2826 C2831 1.391 . S
C2827 H2799 0.929 . S
C2827 C2828 1.390 . S
C2827 N2830 1.391 . S
C2828 H2800 0.930 . S
C2828 C2827 1.390 . S
C2828 C2829 1.392 . S
C2829 H2801 0.929 . S
C2829 C2826 1.391 . S
C2829 C2828 1.392 . S
N2830 Co2774 2.257 . S
N2830 C2827 1.391 . S
N2830 C2831 1.388 . S
C2831 H2802 0.930 . S
C2831 C2826 1.391 . S
C2831 N2830 1.388 . S
C2832 C2833 1.369 . S
C2832 C2834 1.419 . S
C2832 H2836 0.930 . S
C2833 C2832 1.369 . S
C2833 C2842 1.429 . S
C2834 C2832 1.419 . S
C2834 C2835 1.363 . S
C2834 H2837 0.929 . S
C2835 C2834 1.363 . S
C2835 C2841 1.428 . S
H2836 C2832 0.930 . S
H2837 C2834 0.929 . S
S2838 N2839 1.613 . S
S2838 N2840 1.610 . S
N2839 S2838 1.613 . S
N2839 C2842 1.350 . S
N2840 S2838 1.610 . S
N2840 C2841 1.351 . S
C2841 C2835 1.428 . S
C2841 N2840 1.351 . S
C2841 C2842 1.434 . S
C2842 C2833 1.429 . S
C2842 N2839 1.350 . S
C2842 C2841 1.434 . S
C2843 C2844 1.369 . S
C2843 C2845 1.419 . S
C2843 H2847 0.930 . S
C2844 C2843 1.369 . S
C2844 C2853 1.429 . S
C2845 C2843 1.419 . S
C2845 C2846 1.363 . S
C2845 H2848 0.929 . S
C2846 C2845 1.363 . S
C2846 C2852 1.428 . S
H2847 C2843 0.930 . S
H2848 C2845 0.929 . S
S2849 N2850 1.613 . S
S2849 N2851 1.610 . S
N2850 S2849 1.613 . S
N2850 C2853 1.350 . S
N2851 S2849 1.610 . S
N2851 C2852 1.351 . S
C2852 C2846 1.428 . S
C2852 N2851 1.351 . S
C2852 C2853 1.434 . S
C2853 C2844 1.429 . S
C2853 N2850 1.350 . S
C2853 C2852 1.434 . S
C2854 C2855 1.369 . S
C2854 C2856 1.419 . S
C2854 H2858 0.930 . S
C2855 C2854 1.369 . S
C2855 C2864 1.429 . S
C2856 C2854 1.419 . S
C2856 C2857 1.363 . S
C2856 H2859 0.929 . S
C2857 C2856 1.363 . S
C2857 C2863 1.428 . S
H2858 C2854 0.930 . S
H2859 C2856 0.929 . S
S2860 N2861 1.613 . S
S2860 N2862 1.610 . S
N2861 S2860 1.613 . S
N2861 C2864 1.350 . S
N2862 S2860 1.610 . S
N2862 C2863 1.351 . S
C2863 C2857 1.428 . S
C2863 N2862 1.351 . S
C2863 C2864 1.434 . S
C2864 C2855 1.429 . S
C2864 N2861 1.350 . S
C2864 C2863 1.434 . S
C2865 C2866 1.369 . S
C2865 C2867 1.419 . S
C2865 H2869 0.930 . S
C2866 C2865 1.369 . S
C2866 C2875 1.429 . S
C2867 C2865 1.419 . S
C2867 C2868 1.363 . S
C2867 H2870 0.929 . S
C2868 C2867 1.363 . S
C2868 C2874 1.428 . S
H2869 C2865 0.930 . S
H2870 C2867 0.929 . S
S2871 N2872 1.613 . S
S2871 N2873 1.610 . S
N2872 S2871 1.613 . S
N2872 C2875 1.350 . S
N2873 S2871 1.610 . S
N2873 C2874 1.351 . S
C2874 C2868 1.428 . S
C2874 N2873 1.351 . S
C2874 C2875 1.434 . S
C2875 C2866 1.429 . S
C2875 N2872 1.350 . S
C2875 C2874 1.434 . S
C2876 C2877 1.369 . S
C2876 C2878 1.419 . S
C2876 H2880 0.930 . S
C2877 C2876 1.369 . S
C2877 C2886 1.429 . S
C2878 C2876 1.419 . S
C2878 C2879 1.363 . S
C2878 H2881 0.929 . S
C2879 C2878 1.363 . S
C2879 C2885 1.428 . S
H2880 C2876 0.930 . S
H2881 C2878 0.929 . S
S2882 N2883 1.613 . S
S2882 N2884 1.610 . S
N2883 S2882 1.613 . S
N2883 C2886 1.350 . S
N2884 S2882 1.610 . S
N2884 C2885 1.351 . S
C2885 C2879 1.428 . S
C2885 N2884 1.351 . S
C2885 C2886 1.434 . S
C2886 C2877 1.429 . S
C2886 N2883 1.350 . S
C2886 C2885 1.434 . S
C2887 C2888 1.369 . S
C2887 C2889 1.419 . S
C2887 H2891 0.930 . S
C2888 C2887 1.369 . S
C2888 C2897 1.429 . S
C2889 C2887 1.419 . S
C2889 C2890 1.363 . S
C2889 H2892 0.929 . S
C2890 C2889 1.363 . S
C2890 C2896 1.428 . S
H2891 C2887 0.930 . S
H2892 C2889 0.929 . S
S2893 N2894 1.613 . S
S2893 N2895 1.610 . S
N2894 S2893 1.613 . S
N2894 C2897 1.350 . S
N2895 S2893 1.610 . S
N2895 C2896 1.351 . S
C2896 C2890 1.428 . S
C2896 N2895 1.351 . S
C2896 C2897 1.434 . S
C2897 C2888 1.429 . S
C2897 N2894 1.350 . S
C2897 C2896 1.434 . S
C2898 C2899 1.369 . S
C2898 C2900 1.419 . S
C2898 H2902 0.930 . S
C2899 C2898 1.369 . S
C2899 C2908 1.429 . S
C2900 C2898 1.419 . S
C2900 C2901 1.363 . S
C2900 H2903 0.929 . S
C2901 C2900 1.363 . S
C2901 C2907 1.428 . S
H2902 C2898 0.930 . S
H2903 C2900 0.929 . S
S2904 N2905 1.613 . S
S2904 N2906 1.610 . S
N2905 S2904 1.613 . S
N2905 C2908 1.350 . S
N2906 S2904 1.610 . S
N2906 C2907 1.351 . S
C2907 C2901 1.428 . S
C2907 N2906 1.351 . S
C2907 C2908 1.434 . S
C2908 C2899 1.429 . S
C2908 N2905 1.350 . S
C2908 C2907 1.434 . S
C2909 C2910 1.369 . S
C2909 C2911 1.419 . S
C2909 H2913 0.930 . S
C2910 C2909 1.369 . S
C2910 C2919 1.429 . S
C2911 C2909 1.419 . S
C2911 C2912 1.363 . S
C2911 H2914 0.929 . S
C2912 C2911 1.363 . S
C2912 C2918 1.428 . S
H2913 C2909 0.930 . S
H2914 C2911 0.929 . S
S2915 N2916 1.613 . S
S2915 N2917 1.610 . S
N2916 S2915 1.613 . S
N2916 C2919 1.350 . S
N2917 S2915 1.610 . S
N2917 C2918 1.351 . S
C2918 C2912 1.428 . S
C2918 N2917 1.351 . S
C2918 C2919 1.434 . S
C2919 C2910 1.429 . S
C2919 N2916 1.350 . S
C2919 C2918 1.434 . S
C2920 C2921 1.369 . S
C2920 C2922 1.419 . S
C2920 H2924 0.930 . S
C2921 C2920 1.369 . S
C2921 C2930 1.429 . S
C2922 C2920 1.419 . S
C2922 C2923 1.363 . S
C2922 H2925 0.929 . S
C2923 C2922 1.363 . S
C2923 C2929 1.428 . S
H2924 C2920 0.930 . S
H2925 C2922 0.929 . S
S2926 N2927 1.613 . S
S2926 N2928 1.610 . S
N2927 S2926 1.613 . S
N2927 C2930 1.350 . S
N2928 S2926 1.610 . S
N2928 C2929 1.351 . S
C2929 C2923 1.428 . S
C2929 N2928 1.351 . S
C2929 C2930 1.434 . S
C2930 C2921 1.429 . S
C2930 N2927 1.350 . S
C2930 C2929 1.434 . S
C2931 C2932 1.369 . S
C2931 C2933 1.419 . S
C2931 H2935 0.930 . S
C2932 C2931 1.369 . S
C2932 C2941 1.429 . S
C2933 C2931 1.419 . S
C2933 C2934 1.363 . S
C2933 H2936 0.929 . S
C2934 C2933 1.363 . S
C2934 C2940 1.428 . S
H2935 C2931 0.930 . S
H2936 C2933 0.929 . S
S2937 N2938 1.613 . S
S2937 N2939 1.610 . S
N2938 S2937 1.613 . S
N2938 C2941 1.350 . S
N2939 S2937 1.610 . S
N2939 C2940 1.351 . S
C2940 C2934 1.428 . S
C2940 N2939 1.351 . S
C2940 C2941 1.434 . S
C2941 C2932 1.429 . S
C2941 N2938 1.350 . S
C2941 C2940 1.434 . S
C2942 C2943 1.369 . S
C2942 C2944 1.419 . S
C2942 H2946 0.930 . S
C2943 C2942 1.369 . S
C2943 C2952 1.429 . S
C2944 C2942 1.419 . S
C2944 C2945 1.363 . S
C2944 H2947 0.929 . S
C2945 C2944 1.363 . S
C2945 C2951 1.428 . S
H2946 C2942 0.930 . S
H2947 C2944 0.929 . S
S2948 N2949 1.613 . S
S2948 N2950 1.610 . S
N2949 S2948 1.613 . S
N2949 C2952 1.350 . S
N2950 S2948 1.610 . S
N2950 C2951 1.351 . S
C2951 C2945 1.428 . S
C2951 N2950 1.351 . S
C2951 C2952 1.434 . S
C2952 C2943 1.429 . S
C2952 N2949 1.350 . S
C2952 C2951 1.434 . S
C2953 C2954 1.369 . S
C2953 C2955 1.419 . S
C2953 H2957 0.930 . S
C2954 C2953 1.369 . S
C2954 C2963 1.429 . S
C2955 C2953 1.419 . S
C2955 C2956 1.363 . S
C2955 H2958 0.929 . S
C2956 C2955 1.363 . S
C2956 C2962 1.428 . S
H2957 C2953 0.930 . S
H2958 C2955 0.929 . S
S2959 N2960 1.613 . S
S2959 N2961 1.610 . S
N2960 S2959 1.613 . S
N2960 C2963 1.350 . S
N2961 S2959 1.610 . S
N2961 C2962 1.351 . S
C2962 C2956 1.428 . S
C2962 N2961 1.351 . S
C2962 C2963 1.434 . S
C2963 C2954 1.429 . S
C2963 N2960 1.350 . S
C2963 C2962 1.434 . S
C2964 C2965 1.369 . S
C2964 C2966 1.419 . S
C2964 H2968 0.930 . S
C2965 C2964 1.369 . S
C2965 C2974 1.429 . S
C2966 C2964 1.419 . S
C2966 C2967 1.363 . S
C2966 H2969 0.929 . S
C2967 C2966 1.363 . S
C2967 C2973 1.428 . S
H2968 C2964 0.930 . S
H2969 C2966 0.929 . S
S2970 N2971 1.613 . S
S2970 N2972 1.610 . S
N2971 S2970 1.613 . S
N2971 C2974 1.350 . S
N2972 S2970 1.610 . S
N2972 C2973 1.351 . S
C2973 C2967 1.428 . S
C2973 N2972 1.351 . S
C2973 C2974 1.434 . S
C2974 C2965 1.429 . S
C2974 N2971 1.350 . S
C2974 C2973 1.434 . S
C2975 C2976 1.369 . S
C2975 C2977 1.419 . S
C2975 H2979 0.930 . S
C2976 C2975 1.369 . S
C2976 C2985 1.429 . S
C2977 C2975 1.419 . S
C2977 C2978 1.363 . S
C2977 H2980 0.929 . S
C2978 C2977 1.363 . S
C2978 C2984 1.428 . S
H2979 C2975 0.930 . S
H2980 C2977 0.929 . S
S2981 N2982 1.613 . S
S2981 N2983 1.610 . S
N2982 S2981 1.613 . S
N2982 C2985 1.350 . S
N2983 S2981 1.610 . S
N2983 C2984 1.351 . S
C2984 C2978 1.428 . S
C2984 N2983 1.351 . S
C2984 C2985 1.434 . S
C2985 C2976 1.429 . S
C2985 N2982 1.350 . S
C2985 C2984 1.434 . S
C2986 C2987 1.369 . S
C2986 C2988 1.419 . S
C2986 H2990 0.930 . S
C2987 C2986 1.369 . S
C2987 C2996 1.429 . S
C2988 C2986 1.419 . S
C2988 C2989 1.363 . S
C2988 H2991 0.929 . S
C2989 C2988 1.363 . S
C2989 C2995 1.428 . S
H2990 C2986 0.930 . S
H2991 C2988 0.929 . S
S2992 N2993 1.613 . S
S2992 N2994 1.610 . S
N2993 S2992 1.613 . S
N2993 C2996 1.350 . S
N2994 S2992 1.610 . S
N2994 C2995 1.351 . S
C2995 C2989 1.428 . S
C2995 N2994 1.351 . S
C2995 C2996 1.434 . S
C2996 C2987 1.429 . S
C2996 N2993 1.350 . S
C2996 C2995 1.434 . S
C2997 C2998 1.369 . S
C2997 C2999 1.419 . S
C2997 H3001 0.930 . S
C2998 C2997 1.369 . S
C2998 C3007 1.429 . S
C2999 C2997 1.419 . S
C2999 C3000 1.363 . S
C2999 H3002 0.929 . S
C3000 C2999 1.363 . S
C3000 C3006 1.428 . S
H3001 C2997 0.930 . S
H3002 C2999 0.929 . S
S3003 N3004 1.613 . S
S3003 N3005 1.610 . S
N3004 S3003 1.613 . S
N3004 C3007 1.350 . S
N3005 S3003 1.610 . S
N3005 C3006 1.351 . S
C3006 C3000 1.428 . S
C3006 N3005 1.351 . S
C3006 C3007 1.434 . S
C3007 C2998 1.429 . S
C3007 N3004 1.350 . S
C3007 C3006 1.434 . S
C3008 C3009 1.369 . S
C3008 C3010 1.419 . S
C3008 H3012 0.930 . S
C3009 C3008 1.369 . S
C3009 C3018 1.429 . S
C3010 C3008 1.419 . S
C3010 C3011 1.363 . S
C3010 H3013 0.929 . S
C3011 C3010 1.363 . S
C3011 C3017 1.428 . S
H3012 C3008 0.930 . S
H3013 C3010 0.929 . S
S3014 N3015 1.613 . S
S3014 N3016 1.610 . S
N3015 S3014 1.613 . S
N3015 C3018 1.350 . S
N3016 S3014 1.610 . S
N3016 C3017 1.351 . S
C3017 C3011 1.428 . S
C3017 N3016 1.351 . S
C3017 C3018 1.434 . S
C3018 C3009 1.429 . S
C3018 N3015 1.350 . S
C3018 C3017 1.434 . S
C3019 C3020 1.369 . S
C3019 C3021 1.419 . S
C3019 H3023 0.930 . S
C3020 C3019 1.369 . S
C3020 C3029 1.429 . S
C3021 C3019 1.419 . S
C3021 C3022 1.363 . S
C3021 H3024 0.929 . S
C3022 C3021 1.363 . S
C3022 C3028 1.428 . S
H3023 C3019 0.930 . S
H3024 C3021 0.929 . S
S3025 N3026 1.613 . S
S3025 N3027 1.610 . S
N3026 S3025 1.613 . S
N3026 C3029 1.350 . S
N3027 S3025 1.610 . S
N3027 C3028 1.351 . S
C3028 C3022 1.428 . S
C3028 N3027 1.351 . S
C3028 C3029 1.434 . S
C3029 C3020 1.429 . S
C3029 N3026 1.350 . S
C3029 C3028 1.434 . S
C3030 C3031 1.369 . S
C3030 C3032 1.419 . S
C3030 H3034 0.930 . S
C3031 C3030 1.369 . S
C3031 C3040 1.429 . S
C3032 C3030 1.419 . S
C3032 C3033 1.363 . S
C3032 H3035 0.929 . S
C3033 C3032 1.363 . S
C3033 C3039 1.428 . S
H3034 C3030 0.930 . S
H3035 C3032 0.929 . S
S3036 N3037 1.613 . S
S3036 N3038 1.610 . S
N3037 S3036 1.613 . S
N3037 C3040 1.350 . S
N3038 S3036 1.610 . S
N3038 C3039 1.351 . S
C3039 C3033 1.428 . S
C3039 N3038 1.351 . S
C3039 C3040 1.434 . S
C3040 C3031 1.429 . S
C3040 N3037 1.350 . S
C3040 C3039 1.434 . S
C3041 C3042 1.369 . S
C3041 C3043 1.419 . S
C3041 H3045 0.930 . S
C3042 C3041 1.369 . S
C3042 C3051 1.429 . S
C3043 C3041 1.419 . S
C3043 C3044 1.363 . S
C3043 H3046 0.929 . S
C3044 C3043 1.363 . S
C3044 C3050 1.428 . S
H3045 C3041 0.930 . S
H3046 C3043 0.929 . S
S3047 N3048 1.613 . S
S3047 N3049 1.610 . S
N3048 S3047 1.613 . S
N3048 C3051 1.350 . S
N3049 S3047 1.610 . S
N3049 C3050 1.351 . S
C3050 C3044 1.428 . S
C3050 N3049 1.351 . S
C3050 C3051 1.434 . S
C3051 C3042 1.429 . S
C3051 N3048 1.350 . S
C3051 C3050 1.434 . S
C3052 C3053 1.369 . S
C3052 C3054 1.419 . S
C3052 H3056 0.930 . S
C3053 C3052 1.369 . S
C3053 C3062 1.429 . S
C3054 C3052 1.419 . S
C3054 C3055 1.363 . S
C3054 H3057 0.929 . S
C3055 C3054 1.363 . S
C3055 C3061 1.428 . S
H3056 C3052 0.930 . S
H3057 C3054 0.929 . S
S3058 N3059 1.613 . S
S3058 N3060 1.610 . S
N3059 S3058 1.613 . S
N3059 C3062 1.350 . S
N3060 S3058 1.610 . S
N3060 C3061 1.351 . S
C3061 C3055 1.428 . S
C3061 N3060 1.351 . S
C3061 C3062 1.434 . S
C3062 C3053 1.429 . S
C3062 N3059 1.350 . S
C3062 C3061 1.434 . S
C3063 C3064 1.369 . S
C3063 C3065 1.419 . S
C3063 H3067 0.930 . S
C3064 C3063 1.369 . S
C3064 C3073 1.429 . S
C3065 C3063 1.419 . S
C3065 C3066 1.363 . S
C3065 H3068 0.929 . S
C3066 C3065 1.363 . S
C3066 C3072 1.428 . S
H3067 C3063 0.930 . S
H3068 C3065 0.929 . S
S3069 N3070 1.613 . S
S3069 N3071 1.610 . S
N3070 S3069 1.613 . S
N3070 C3073 1.350 . S
N3071 S3069 1.610 . S
N3071 C3072 1.351 . S
C3072 C3066 1.428 . S
C3072 N3071 1.351 . S
C3072 C3073 1.434 . S
C3073 C3064 1.429 . S
C3073 N3070 1.350 . S
C3073 C3072 1.434 . S
C3074 C3075 1.369 . S
C3074 C3076 1.419 . S
C3074 H3078 0.930 . S
C3075 C3074 1.369 . S
C3075 C3084 1.429 . S
C3076 C3074 1.419 . S
C3076 C3077 1.363 . S
C3076 H3079 0.929 . S
C3077 C3076 1.363 . S
C3077 C3083 1.428 . S
H3078 C3074 0.930 . S
H3079 C3076 0.929 . S
S3080 N3081 1.613 . S
S3080 N3082 1.610 . S
N3081 S3080 1.613 . S
N3081 C3084 1.350 . S
N3082 S3080 1.610 . S
N3082 C3083 1.351 . S
C3083 C3077 1.428 . S
C3083 N3082 1.351 . S
C3083 C3084 1.434 . S
C3084 C3075 1.429 . S
C3084 N3081 1.350 . S
C3084 C3083 1.434 . S
C3085 C3086 1.369 . S
C3085 C3087 1.419 . S
C3085 H3089 0.930 . S
C3086 C3085 1.369 . S
C3086 C3095 1.429 . S
C3087 C3085 1.419 . S
C3087 C3088 1.363 . S
C3087 H3090 0.929 . S
C3088 C3087 1.363 . S
C3088 C3094 1.428 . S
H3089 C3085 0.930 . S
H3090 C3087 0.929 . S
S3091 N3092 1.613 . S
S3091 N3093 1.610 . S
N3092 S3091 1.613 . S
N3092 C3095 1.350 . S
N3093 S3091 1.610 . S
N3093 C3094 1.351 . S
C3094 C3088 1.428 . S
C3094 N3093 1.351 . S
C3094 C3095 1.434 . S
C3095 C3086 1.429 . S
C3095 N3092 1.350 . S
C3095 C3094 1.434 . S
C3096 C3097 1.369 . S
C3096 C3098 1.419 . S
C3096 H3100 0.930 . S
C3097 C3096 1.369 . S
C3097 C3106 1.429 . S
C3098 C3096 1.419 . S
C3098 C3099 1.363 . S
C3098 H3101 0.929 . S
C3099 C3098 1.363 . S
C3099 C3105 1.428 . S
H3100 C3096 0.930 . S
H3101 C3098 0.929 . S
S3102 N3103 1.613 . S
S3102 N3104 1.610 . S
N3103 S3102 1.613 . S
N3103 C3106 1.350 . S
N3104 S3102 1.610 . S
N3104 C3105 1.351 . S
C3105 C3099 1.428 . S
C3105 N3104 1.351 . S
C3105 C3106 1.434 . S
C3106 C3097 1.429 . S
C3106 N3103 1.350 . S
C3106 C3105 1.434 . S
C3107 C3108 1.369 . S
C3107 C3109 1.419 1_556 S
C3107 H3111 0.930 . S
C3108 C3107 1.369 . S
C3108 C3117 1.429 . S
C3109 C3107 1.419 1_554 S
C3109 C3110 1.363 . S
C3109 H3112 0.929 . S
C3110 C3109 1.363 . S
C3110 C3116 1.428 . S
H3111 C3107 0.930 . S
H3112 C3109 0.929 . S
S3113 N3114 1.613 . S
S3113 N3115 1.610 1_556 S
N3114 S3113 1.613 . S
N3114 C3117 1.350 . S
N3115 S3113 1.610 1_554 S
N3115 C3116 1.351 . S
C3116 C3110 1.428 . S
C3116 N3115 1.351 . S
C3116 C3117 1.434 1_554 S
C3117 C3108 1.429 . S
C3117 N3114 1.350 . S
C3117 C3116 1.434 1_556 S
C3118 C3119 1.369 . S
C3118 C3120 1.419 . S
C3118 H3122 0.930 . S
C3119 C3118 1.369 . S
C3119 C3128 1.429 . S
C3120 C3118 1.419 . S
C3120 C3121 1.363 . S
C3120 H3123 0.929 . S
C3121 C3120 1.363 . S
C3121 C3127 1.428 . S
H3122 C3118 0.930 . S
H3123 C3120 0.929 . S
S3124 N3125 1.613 . S
S3124 N3126 1.610 . S
N3125 S3124 1.613 . S
N3125 C3128 1.350 . S
N3126 S3124 1.610 . S
N3126 C3127 1.351 . S
C3127 C3121 1.428 . S
C3127 N3126 1.351 . S
C3127 C3128 1.434 . S
C3128 C3119 1.429 . S
C3128 N3125 1.350 . S
C3128 C3127 1.434 . S
C3129 C3130 1.369 . S
C3129 C3131 1.419 1_556 S
C3129 H3133 0.930 . S
C3130 C3129 1.369 . S
C3130 C3139 1.429 . S
C3131 C3129 1.419 1_554 S
C3131 C3132 1.363 . S
C3131 H3134 0.929 . S
C3132 C3131 1.363 . S
C3132 C3138 1.428 . S
H3133 C3129 0.930 . S
H3134 C3131 0.929 . S
S3135 N3136 1.613 1_554 S
S3135 N3137 1.610 . S
N3136 S3135 1.613 1_556 S
N3136 C3139 1.350 . S
N3137 S3135 1.610 . S
N3137 C3138 1.351 . S
C3138 C3132 1.428 . S
C3138 N3137 1.351 . S
C3138 C3139 1.434 1_554 S
C3139 C3130 1.429 . S
C3139 N3136 1.350 . S
C3139 C3138 1.434 1_556 S
C3140 C3141 1.369 . S
C3140 C3142 1.419 . S
C3140 H3144 0.930 . S
C3141 C3140 1.369 . S
C3141 C3150 1.429 . S
C3142 C3140 1.419 . S
C3142 C3143 1.363 . S
C3142 H3145 0.929 . S
C3143 C3142 1.363 . S
C3143 C3149 1.428 . S
H3144 C3140 0.930 . S
H3145 C3142 0.929 . S
S3146 N3147 1.613 . S
S3146 N3148 1.610 . S
N3147 S3146 1.613 . S
N3147 C3150 1.350 . S
N3148 S3146 1.610 . S
N3148 C3149 1.351 . S
C3149 C3143 1.428 . S
C3149 N3148 1.351 . S
C3149 C3150 1.434 . S
C3150 C3141 1.429 . S
C3150 N3147 1.350 . S
C3150 C3149 1.434 . S
C3151 C3152 1.369 . S
C3151 C3153 1.419 1_556 S
C3151 H3155 0.930 . S
C3152 C3151 1.369 . S
C3152 C3161 1.442 . S
C3153 C3151 1.419 1_554 S
C3153 C3154 1.363 . S
C3153 H3156 0.929 . S
C3154 C3153 1.363 . S
C3154 C3160 1.428 . S
H3155 C3151 0.930 . S
H3156 C3153 0.929 . S
S3157 N3158 1.613 1_554 S
S3157 N3159 1.610 . S
N3158 S3157 1.613 1_556 S
N3158 C3161 1.359 . S
N3159 S3157 1.610 . S
N3159 C3160 1.351 . S
C3160 C3154 1.428 . S
C3160 N3159 1.351 . S
C3160 C3161 1.410 1_554 S
C3161 C3152 1.442 . S
C3161 N3158 1.359 . S
C3161 C3160 1.410 1_556 S
C3162 C3163 1.369 . S
C3162 C3164 1.419 . S
C3162 H3166 0.930 . S
C3163 C3162 1.369 . S
C3163 C3172 1.429 . S
C3164 C3162 1.419 . S
C3164 C3165 1.363 . S
C3164 H3167 0.929 . S
C3165 C3164 1.363 . S
C3165 C3171 1.428 . S
H3166 C3162 0.930 . S
H3167 C3164 0.929 . S
S3168 N3169 1.613 . S
S3168 N3170 1.610 . S
N3169 S3168 1.613 . S
N3169 C3172 1.350 . S
N3170 S3168 1.610 . S
N3170 C3171 1.351 . S
C3171 C3165 1.428 . S
C3171 N3170 1.351 . S
C3171 C3172 1.434 . S
C3172 C3163 1.429 . S
C3172 N3169 1.350 . S
C3172 C3171 1.434 . S
C3173 C3174 1.369 . S
C3173 C3175 1.419 1_556 S
C3173 H3177 0.930 . S
C3174 C3173 1.369 . S
C3174 C3183 1.429 . S
C3175 C3173 1.419 1_554 S
C3175 C3176 1.363 . S
C3175 H3178 0.929 . S
C3176 C3175 1.363 . S
C3176 C3182 1.428 . S
H3177 C3173 0.930 . S
H3178 C3175 0.929 . S
S3179 N3180 1.613 . S
S3179 N3181 1.610 1_556 S
N3180 S3179 1.613 . S
N3180 C3183 1.350 . S
N3181 S3179 1.610 1_554 S
N3181 C3182 1.351 . S
C3182 C3176 1.428 . S
C3182 N3181 1.351 . S
C3182 C3183 1.434 1_554 S
C3183 C3174 1.429 . S
C3183 N3180 1.350 . S
C3183 C3182 1.434 1_556 S
C3184 C3185 1.369 . S
C3184 C3186 1.419 . S
C3184 H3188 0.930 . S
C3185 C3184 1.369 . S
C3185 C3194 1.429 . S
C3186 C3184 1.419 . S
C3186 C3187 1.363 . S
C3186 H3189 0.929 . S
C3187 C3186 1.363 . S
C3187 C3193 1.428 . S
H3188 C3184 0.930 . S
H3189 C3186 0.929 . S
S3190 N3191 1.613 . S
S3190 N3192 1.610 . S
N3191 S3190 1.613 . S
N3191 C3194 1.350 . S
N3192 S3190 1.610 . S
N3192 C3193 1.351 . S
C3193 C3187 1.428 . S
C3193 N3192 1.351 . S
C3193 C3194 1.434 . S
C3194 C3185 1.429 . S
C3194 N3191 1.350 . S
C3194 C3193 1.434 . S
C3195 C3196 1.369 . S
C3195 C3197 1.419 1_565 S
C3195 H3199 0.930 . S
C3196 C3195 1.369 . S
C3196 C3205 1.429 . S
C3197 C3195 1.419 1_545 S
C3197 C3198 1.363 . S
C3197 H3200 0.929 . S
C3198 C3197 1.363 . S
C3198 C3204 1.428 . S
H3199 C3195 0.930 . S
H3200 C3197 0.929 . S
S3201 N3202 1.613 . S
S3201 N3203 1.610 1_565 S
N3202 S3201 1.613 . S
N3202 C3205 1.350 . S
N3203 S3201 1.610 1_545 S
N3203 C3204 1.351 . S
C3204 C3198 1.428 . S
C3204 N3203 1.351 . S
C3204 C3205 1.434 1_545 S
C3205 C3196 1.429 . S
C3205 N3202 1.350 . S
C3205 C3204 1.434 1_565 S
C3206 C3207 1.369 . S
C3206 C3208 1.419 . S
C3206 H3210 0.930 . S
C3207 C3206 1.369 . S
C3207 C3216 1.429 . S
C3208 C3206 1.419 . S
C3208 C3209 1.363 . S
C3208 H3211 0.929 . S
C3209 C3208 1.363 . S
C3209 C3215 1.428 . S
H3210 C3206 0.930 . S
H3211 C3208 0.929 . S
S3212 N3213 1.613 . S
S3212 N3214 1.610 . S
N3213 S3212 1.613 . S
N3213 C3216 1.350 . S
N3214 S3212 1.610 . S
N3214 C3215 1.351 . S
C3215 C3209 1.428 . S
C3215 N3214 1.351 . S
C3215 C3216 1.434 . S
C3216 C3207 1.429 . S
C3216 N3213 1.350 . S
C3216 C3215 1.434 . S
C3217 C3218 1.369 . S
C3217 C3219 1.419 1_545 S
C3217 H3221 0.930 . S
C3218 C3217 1.369 . S
C3218 C3227 1.429 . S
C3219 C3217 1.419 1_565 S
C3219 C3220 1.363 . S
C3219 H3222 0.929 . S
C3220 C3219 1.363 . S
C3220 C3226 1.428 . S
H3221 C3217 0.930 . S
H3222 C3219 0.929 . S
S3223 N3224 1.631 . S
S3223 N3225 1.593 1_545 S
N3224 S3223 1.631 . S
N3224 C3227 1.350 . S
N3225 S3223 1.593 1_565 S
N3225 C3226 1.351 . S
C3226 C3220 1.428 . S
C3226 N3225 1.351 . S
C3226 C3227 1.434 1_565 S
C3227 C3218 1.429 . S
C3227 N3224 1.350 . S
C3227 C3226 1.434 1_545 S
C3228 C3229 1.369 . S
C3228 C3230 1.419 . S
C3228 H3232 0.930 . S
C3229 C3228 1.369 . S
C3229 C3238 1.429 . S
C3230 C3228 1.419 . S
C3230 C3231 1.363 . S
C3230 H3233 0.929 . S
C3231 C3230 1.363 . S
C3231 C3237 1.428 . S
H3232 C3228 0.930 . S
H3233 C3230 0.929 . S
S3234 N3235 1.613 . S
S3234 N3236 1.610 . S
N3235 S3234 1.613 . S
N3235 C3238 1.350 . S
N3236 S3234 1.610 . S
N3236 C3237 1.351 . S
C3237 C3231 1.428 . S
C3237 N3236 1.351 . S
C3237 C3238 1.434 . S
C3238 C3229 1.429 . S
C3238 N3235 1.350 . S
C3238 C3237 1.434 . S
C3239 C3240 1.369 . S
C3239 C3241 1.419 1_565 S
C3239 H3243 0.930 . S
C3240 C3239 1.369 . S
C3240 C3249 1.429 . S
C3241 C3239 1.419 1_545 S
C3241 C3242 1.363 . S
C3241 H3244 0.929 . S
C3242 C3241 1.363 . S
C3242 C3248 1.428 . S
H3243 C3239 0.930 . S
H3244 C3241 0.929 . S
S3245 N3246 1.609 1_545 S
S3245 N3247 1.614 . S
N3246 S3245 1.609 1_565 S
N3246 C3249 1.350 . S
N3247 S3245 1.614 . S
N3247 C3248 1.351 . S
C3248 C3242 1.428 . S
C3248 N3247 1.351 . S
C3248 C3249 1.434 1_545 S
C3249 C3240 1.429 . S
C3249 N3246 1.350 . S
C3249 C3248 1.434 1_565 S
C3250 C3251 1.369 . S
C3250 C3252 1.419 . S
C3250 H3254 0.930 . S
C3251 C3250 1.369 . S
C3251 C3260 1.429 . S
C3252 C3250 1.419 . S
C3252 C3253 1.363 . S
C3252 H3255 0.929 . S
C3253 C3252 1.363 . S
C3253 C3259 1.428 . S
H3254 C3250 0.930 . S
H3255 C3252 0.929 . S
S3256 N3257 1.613 . S
S3256 N3258 1.610 . S
N3257 S3256 1.613 . S
N3257 C3260 1.350 . S
N3258 S3256 1.610 . S
N3258 C3259 1.351 . S
C3259 C3253 1.428 . S
C3259 N3258 1.351 . S
C3259 C3260 1.434 . S
C3260 C3251 1.429 . S
C3260 N3257 1.350 . S
C3260 C3259 1.434 . S
C3261 C3262 1.369 . S
C3261 C3263 1.419 1_565 S
C3261 H3265 0.930 . S
C3262 C3261 1.369 . S
C3262 C3271 1.429 . S
C3263 C3261 1.419 1_545 S
C3263 C3264 1.363 . S
C3263 H3266 0.929 . S
C3264 C3263 1.363 . S
C3264 C3270 1.428 . S
H3265 C3261 0.930 . S
H3266 C3263 0.929 . S
S3267 N3268 1.613 . S
S3267 N3269 1.610 1_565 S
N3268 S3267 1.613 . S
N3268 C3271 1.350 . S
N3269 S3267 1.610 1_545 S
N3269 C3270 1.351 . S
C3270 C3264 1.428 . S
C3270 N3269 1.351 . S
C3270 C3271 1.434 1_545 S
C3271 C3262 1.429 . S
C3271 N3268 1.350 . S
C3271 C3270 1.434 1_565 S
C3272 C3273 1.369 . S
C3272 C3274 1.419 . S
C3272 H3276 0.930 . S
C3273 C3272 1.369 . S
C3273 C3282 1.429 . S
C3274 C3272 1.419 . S
C3274 C3275 1.363 . S
C3274 H3277 0.929 . S
C3275 C3274 1.363 . S
C3275 C3281 1.428 . S
H3276 C3272 0.930 . S
H3277 C3274 0.929 . S
S3278 N3279 1.613 . S
S3278 N3280 1.610 . S
N3279 S3278 1.613 . S
N3279 C3282 1.350 . S
N3280 S3278 1.610 . S
N3280 C3281 1.351 . S
C3281 C3275 1.428 . S
C3281 N3280 1.351 . S
C3281 C3282 1.434 . S
C3282 C3273 1.429 . S
C3282 N3279 1.350 . S
C3282 C3281 1.434 . S
C3283 C3284 1.369 . S
C3283 C3285 1.419 . S
C3283 H3287 0.930 . S
C3284 C3283 1.369 . S
C3284 C3293 1.429 . S
C3285 C3283 1.419 . S
C3285 C3286 1.363 . S
C3285 H3288 0.929 . S
C3286 C3285 1.363 . S
C3286 C3292 1.428 . S
H3287 C3283 0.930 . S
H3288 C3285 0.929 . S
S3289 N3290 1.613 . S
S3289 N3291 1.610 . S
N3290 S3289 1.613 . S
N3290 C3293 1.350 . S
N3291 S3289 1.610 . S
N3291 C3292 1.351 . S
C3292 C3286 1.428 . S
C3292 N3291 1.351 . S
C3292 C3293 1.434 . S
C3293 C3284 1.429 . S
C3293 N3290 1.350 . S
C3293 C3292 1.434 . S
C3294 C3295 1.369 . S
C3294 C3296 1.419 . S
C3294 H3298 0.930 . S
C3295 C3294 1.369 . S
C3295 C3304 1.429 . S
C3296 C3294 1.419 . S
C3296 C3297 1.363 1_455 S
C3296 H3299 0.929 1_455 S
C3297 C3296 1.363 1_655 S
C3297 C3303 1.428 1_655 S
H3298 C3294 0.930 . S
H3299 C3296 0.929 1_655 S
S3300 N3301 1.613 . S
S3300 N3302 1.610 . S
N3301 S3300 1.613 . S
N3301 C3304 1.350 . S
N3302 S3300 1.610 . S
N3302 C3303 1.351 . S
C3303 C3297 1.428 1_455 S
C3303 N3302 1.351 . S
C3303 C3304 1.434 . S
C3304 C3295 1.429 . S
C3304 N3301 1.350 . S
C3304 C3303 1.434 . S
C3305 C3306 1.369 . S
C3305 C3307 1.419 . S
C3305 H3309 0.930 . S
C3306 C3305 1.369 . S
C3306 C3315 1.429 . S
C3307 C3305 1.419 . S
C3307 C3308 1.363 . S
C3307 H3310 0.929 . S
C3308 C3307 1.363 . S
C3308 C3314 1.428 . S
H3309 C3305 0.930 . S
H3310 C3307 0.929 . S
S3311 N3312 1.613 . S
S3311 N3313 1.610 . S
N3312 S3311 1.613 . S
N3312 C3315 1.350 . S
N3313 S3311 1.610 . S
N3313 C3314 1.351 . S
C3314 C3308 1.428 . S
C3314 N3313 1.351 . S
C3314 C3315 1.434 . S
C3315 C3306 1.429 . S
C3315 N3312 1.350 . S
C3315 C3314 1.434 . S
C3316 C3317 1.369 1_655 S
C3316 C3318 1.419 . S
C3316 H3320 0.930 1_655 S
C3317 C3316 1.369 1_455 S
C3317 C3326 1.429 1_455 S
C3318 C3316 1.419 . S
C3318 C3319 1.363 . S
C3318 H3321 0.929 . S
C3319 C3318 1.363 . S
C3319 C3325 1.428 . S
H3320 C3316 0.930 1_455 S
H3321 C3318 0.929 . S
S3322 N3323 1.613 1_655 S
S3322 N3324 1.610 . S
N3323 S3322 1.613 1_455 S
N3323 C3326 1.350 1_455 S
N3324 S3322 1.610 . S
N3324 C3325 1.351 . S
C3325 C3319 1.428 . S
C3325 N3324 1.351 . S
C3325 C3326 1.434 . S
C3326 C3317 1.429 1_655 S
C3326 N3323 1.350 1_655 S
C3326 C3325 1.434 . S
C3327 C3328 1.369 . S
C3327 C3329 1.419 . S
C3327 H3331 0.930 . S
C3328 C3327 1.369 . S
C3328 C3337 1.429 . S
C3329 C3327 1.419 . S
C3329 C3330 1.363 . S
C3329 H3332 0.929 . S
C3330 C3329 1.363 . S
C3330 C3336 1.428 . S
H3331 C3327 0.930 . S
H3332 C3329 0.929 . S
S3333 N3334 1.613 . S
S3333 N3335 1.610 . S
N3334 S3333 1.613 . S
N3334 C3337 1.350 . S
N3335 S3333 1.610 . S
N3335 C3336 1.351 . S
C3336 C3330 1.428 . S
C3336 N3335 1.351 . S
C3336 C3337 1.434 . S
C3337 C3328 1.429 . S
C3337 N3334 1.350 . S
C3337 C3336 1.434 . S
C3338 C3339 1.369 . S
C3338 C3340 1.419 . S
C3338 H3342 0.930 . S
C3339 C3338 1.369 . S
C3339 C3348 1.429 . S
C3340 C3338 1.419 . S
C3340 C3341 1.363 1_655 S
C3340 H3343 0.929 1_655 S
C3341 C3340 1.363 1_455 S
C3341 C3347 1.431 . S
H3342 C3338 0.930 . S
H3343 C3340 0.929 1_455 S
S3344 N3345 1.613 . S
S3344 N3346 1.610 1_655 S
N3345 S3344 1.613 . S
N3345 C3348 1.350 . S
N3346 S3344 1.610 1_455 S
N3346 C3347 1.353 . S
C3347 C3341 1.431 . S
C3347 N3346 1.353 . S
C3347 C3348 1.429 1_455 S
C3348 C3339 1.429 . S
C3348 N3345 1.350 . S
C3348 C3347 1.429 1_655 S
C3349 C3350 1.369 . S
C3349 C3351 1.419 . S
C3349 H3353 0.930 . S
C3350 C3349 1.369 . S
C3350 C3359 1.429 . S
C3351 C3349 1.419 . S
C3351 C3352 1.363 1_455 S
C3351 H3354 0.929 1_455 S
C3352 C3351 1.363 1_655 S
C3352 C3358 1.428 1_655 S
H3353 C3349 0.930 . S
H3354 C3351 0.929 1_655 S
S3355 N3356 1.613 . S
S3355 N3357 1.610 . S
N3356 S3355 1.613 . S
N3356 C3359 1.350 . S
N3357 S3355 1.610 . S
N3357 C3358 1.351 . S
C3358 C3352 1.428 1_455 S
C3358 N3357 1.351 . S
C3358 C3359 1.434 . S
C3359 C3350 1.429 . S
C3359 N3356 1.350 . S
C3359 C3358 1.434 . S
C3360 C3361 1.369 . S
C3360 C3362 1.378 1_655 S
C3360 H3364 0.930 . S
C3361 C3360 1.369 . S
C3361 C3370 1.429 . S
C3362 C3360 1.378 1_455 S
C3362 C3363 1.386 . S
C3362 H3365 0.949 . S
C3363 C3362 1.386 . S
C3363 C3369 1.444 . S
H3364 C3360 0.930 . S
H3365 C3362 0.949 . S
S3366 N3367 1.613 . S
S3366 N3368 1.610 1_655 S
N3367 S3366 1.613 . S
N3367 C3370 1.350 . S
N3368 S3366 1.610 1_455 S
N3368 C3369 1.364 . S
C3369 C3363 1.444 . S
C3369 N3368 1.364 . S
C3369 C3370 1.403 1_455 S
C3370 C3361 1.429 . S
C3370 N3367 1.350 . S
C3370 C3369 1.403 1_655 S
C3371 C3372 1.369 . S
C3371 C3373 1.419 . S
C3371 H3375 0.930 . S
C3372 C3371 1.369 . S
C3372 C3381 1.429 . S
C3373 C3371 1.419 . S
C3373 C3374 1.363 . S
C3373 H3376 0.929 . S
C3374 C3373 1.363 . S
C3374 C3380 1.428 . S
H3375 C3371 0.930 . S
H3376 C3373 0.929 . S
S3377 N3378 1.613 . S
S3377 N3379 1.610 . S
N3378 S3377 1.613 . S
N3378 C3381 1.350 . S
N3379 S3377 1.610 . S
N3379 C3380 1.351 . S
C3380 C3374 1.428 . S
C3380 N3379 1.351 . S
C3380 C3381 1.434 . S
C3381 C3372 1.429 . S
C3381 N3378 1.350 . S
C3381 C3380 1.434 . S
C3382 C3383 1.369 . S
C3382 C3384 1.419 1_455 S
C3382 H3386 0.930 . S
C3383 C3382 1.369 . S
C3383 C3392 1.429 . S
C3384 C3382 1.419 1_655 S
C3384 C3385 1.363 . S
C3384 H3387 0.929 . S
C3385 C3384 1.363 . S
C3385 C3391 1.428 . S
H3386 C3382 0.930 . S
H3387 C3384 0.929 . S
S3388 N3389 1.613 . S
S3388 N3390 1.610 1_455 S
N3389 S3388 1.613 . S
N3389 C3392 1.350 . S
N3390 S3388 1.610 1_655 S
N3390 C3391 1.351 . S
C3391 C3385 1.428 . S
C3391 N3390 1.351 . S
C3391 C3392 1.434 1_655 S
C3392 C3383 1.429 . S
C3392 N3389 1.350 . S
C3392 C3391 1.434 1_455 S
C3393 C3394 1.369 . S
C3393 C3395 1.419 . S
C3393 H3397 0.930 . S
C3394 C3393 1.369 . S
C3394 C3403 1.429 . S
C3395 C3393 1.419 . S
C3395 C3396 1.363 . S
C3395 H3398 0.929 . S
C3396 C3395 1.363 . S
C3396 C3402 1.428 . S
H3397 C3393 0.930 . S
H3398 C3395 0.929 . S
S3399 N3400 1.613 . S
S3399 N3401 1.610 . S
N3400 S3399 1.613 . S
N3400 C3403 1.350 . S
N3401 S3399 1.610 . S
N3401 C3402 1.351 . S
C3402 C3396 1.428 . S
C3402 N3401 1.351 . S
C3402 C3403 1.434 . S
C3403 C3394 1.429 . S
C3403 N3400 1.350 . S
C3403 C3402 1.434 . S
C3404 C3405 1.369 1_455 S
C3404 C3406 1.419 . S
C3404 H3408 0.930 1_455 S
C3405 C3404 1.369 1_655 S
C3405 C3414 1.429 . S
C3406 C3404 1.419 . S
C3406 C3407 1.363 . S
C3406 H3409 0.929 . S
C3407 C3406 1.363 . S
C3407 C3413 1.428 . S
H3408 C3404 0.930 1_655 S
H3409 C3406 0.929 . S
S3410 N3411 1.613 1_455 S
S3410 N3412 1.610 . S
N3411 S3410 1.613 1_655 S
N3411 C3414 1.351 . S
N3412 S3410 1.610 . S
N3412 C3413 1.351 . S
C3413 C3407 1.428 . S
C3413 N3412 1.351 . S
C3413 C3414 1.432 1_455 S
C3414 C3405 1.429 . S
C3414 N3411 1.351 . S
C3414 C3413 1.432 1_655 S
C3415 C3416 1.369 . S
C3415 C3417 1.419 . S
C3415 H3419 0.930 . S
C3416 C3415 1.369 . S
C3416 C3425 1.429 . S
C3417 C3415 1.419 . S
C3417 C3418 1.363 . S
C3417 H3420 0.929 . S
C3418 C3417 1.363 . S
C3418 C3424 1.428 . S
H3419 C3415 0.930 . S
H3420 C3417 0.929 . S
S3421 N3422 1.613 . S
S3421 N3423 1.610 . S
N3422 S3421 1.613 . S
N3422 C3425 1.350 . S
N3423 S3421 1.610 . S
N3423 C3424 1.351 . S
C3424 C3418 1.428 . S
C3424 N3423 1.351 . S
C3424 C3425 1.434 . S
C3425 C3416 1.429 . S
C3425 N3422 1.350 . S
C3425 C3424 1.434 . S
C3426 C3427 1.369 . S
C3426 C3428 1.419 1_655 S
C3426 H3430 0.930 . S
C3427 C3426 1.369 . S
C3427 C3436 1.429 . S
C3428 C3426 1.419 1_455 S
C3428 C3429 1.363 . S
C3428 H3431 0.929 . S
C3429 C3428 1.363 . S
C3429 C3435 1.428 . S
H3430 C3426 0.930 . S
H3431 C3428 0.929 . S
S3432 N3433 1.613 . S
S3432 N3434 1.610 1_655 S
N3433 S3432 1.613 . S
N3433 C3436 1.350 . S
N3434 S3432 1.610 1_455 S
N3434 C3435 1.351 . S
C3435 C3429 1.428 . S
C3435 N3434 1.351 . S
C3435 C3436 1.434 1_455 S
C3436 C3427 1.429 . S
C3436 N3433 1.350 . S
C3436 C3435 1.434 1_655 S
C3437 C3438 1.369 . S
C3437 C3439 1.419 . S
C3437 H3441 0.930 . S
C3438 C3437 1.369 . S
C3438 C3447 1.429 . S
C3439 C3437 1.419 . S
C3439 C3440 1.363 . S
C3439 H3442 0.929 . S
C3440 C3439 1.363 . S
C3440 C3446 1.428 . S
H3441 C3437 0.930 . S
H3442 C3439 0.929 . S
S3443 N3444 1.613 . S
S3443 N3445 1.610 . S
N3444 S3443 1.613 . S
N3444 C3447 1.350 . S
N3445 S3443 1.610 . S
N3445 C3446 1.351 . S
C3446 C3440 1.428 . S
C3446 N3445 1.351 . S
C3446 C3447 1.434 . S
C3447 C3438 1.429 . S
C3447 N3444 1.350 . S
C3447 C3446 1.434 . S
C3448 C3449 1.369 . S
C3448 C3450 1.419 1_545 S
C3448 H3452 0.930 . S
C3449 C3448 1.369 . S
C3449 C3458 1.429 . S
C3450 C3448 1.419 1_565 S
C3450 C3451 1.363 . S
C3450 H3453 0.929 . S
C3451 C3450 1.363 . S
C3451 C3457 1.428 . S
H3452 C3448 0.930 . S
H3453 C3450 0.929 . S
S3454 N3455 1.613 . S
S3454 N3456 1.610 1_545 S
N3455 S3454 1.613 . S
N3455 C3458 1.350 . S
N3456 S3454 1.610 1_565 S
N3456 C3457 1.351 . S
C3457 C3451 1.428 . S
C3457 N3456 1.351 . S
C3457 C3458 1.434 1_565 S
C3458 C3449 1.429 . S
C3458 N3455 1.350 . S
C3458 C3457 1.434 1_545 S
C3459 C3460 1.369 . S
C3459 C3461 1.419 . S
C3459 H3463 0.930 . S
C3460 C3459 1.369 . S
C3460 C3469 1.429 . S
C3461 C3459 1.419 . S
C3461 C3462 1.363 . S
C3461 H3464 0.929 . S
C3462 C3461 1.363 . S
C3462 C3468 1.428 . S
H3463 C3459 0.930 . S
H3464 C3461 0.929 . S
S3465 N3466 1.613 . S
S3465 N3467 1.610 . S
N3466 S3465 1.613 . S
N3466 C3469 1.350 . S
N3467 S3465 1.610 . S
N3467 C3468 1.351 . S
C3468 C3462 1.428 . S
C3468 N3467 1.351 . S
C3468 C3469 1.434 . S
C3469 C3460 1.429 . S
C3469 N3466 1.350 . S
C3469 C3468 1.434 . S
C3470 C3471 1.369 . S
C3470 C3472 1.419 1_545 S
C3470 H3474 0.930 . S
C3471 C3470 1.369 . S
C3471 C3480 1.429 . S
C3472 C3470 1.419 1_565 S
C3472 C3473 1.363 . S
C3472 H3475 0.929 . S
C3473 C3472 1.363 . S
C3473 C3479 1.428 . S
H3474 C3470 0.930 . S
H3475 C3472 0.929 . S
S3476 N3477 1.613 1_565 S
S3476 N3478 1.610 . S
N3477 S3476 1.613 1_545 S
N3477 C3480 1.350 . S
N3478 S3476 1.610 . S
N3478 C3479 1.351 . S
C3479 C3473 1.428 . S
C3479 N3478 1.351 . S
C3479 C3480 1.434 1_565 S
C3480 C3471 1.429 . S
C3480 N3477 1.350 . S
C3480 C3479 1.434 1_545 S
C3481 C3482 1.369 . S
C3481 C3483 1.419 . S
C3481 H3485 0.930 . S
C3482 C3481 1.369 . S
C3482 C3491 1.429 . S
C3483 C3481 1.419 . S
C3483 C3484 1.363 . S
C3483 H3486 0.929 . S
C3484 C3483 1.363 . S
C3484 C3490 1.428 . S
H3485 C3481 0.930 . S
H3486 C3483 0.929 . S
S3487 N3488 1.613 . S
S3487 N3489 1.610 . S
N3488 S3487 1.613 . S
N3488 C3491 1.350 . S
N3489 S3487 1.610 . S
N3489 C3490 1.351 . S
C3490 C3484 1.428 . S
C3490 N3489 1.351 . S
C3490 C3491 1.434 . S
C3491 C3482 1.429 . S
C3491 N3488 1.350 . S
C3491 C3490 1.434 . S
C3492 C3493 1.369 . S
C3492 C3494 1.419 1_545 S
C3492 H3496 0.930 . S
C3493 C3492 1.369 . S
C3493 C3502 1.429 . S
C3494 C3492 1.419 1_565 S
C3494 C3495 1.363 . S
C3494 H3497 0.929 . S
C3495 C3494 1.363 . S
C3495 C3501 1.428 . S
H3496 C3492 0.930 . S
H3497 C3494 0.929 . S
S3498 N3499 1.613 . S
S3498 N3500 1.610 1_545 S
N3499 S3498 1.613 . S
N3499 C3502 1.350 . S
N3500 S3498 1.610 1_565 S
N3500 C3501 1.351 . S
C3501 C3495 1.428 . S
C3501 N3500 1.351 . S
C3501 C3502 1.434 1_565 S
C3502 C3493 1.429 . S
C3502 N3499 1.350 . S
C3502 C3501 1.434 1_545 S
C3503 C3504 1.369 . S
C3503 C3505 1.419 . S
C3503 H3507 0.930 . S
C3504 C3503 1.369 . S
C3504 C3513 1.429 . S
C3505 C3503 1.419 . S
C3505 C3506 1.363 . S
C3505 H3508 0.929 . S
C3506 C3505 1.363 . S
C3506 C3512 1.428 . S
H3507 C3503 0.930 . S
H3508 C3505 0.929 . S
S3509 N3510 1.613 . S
S3509 N3511 1.610 . S
N3510 S3509 1.613 . S
N3510 C3513 1.350 . S
N3511 S3509 1.610 . S
N3511 C3512 1.351 . S
C3512 C3506 1.428 . S
C3512 N3511 1.351 . S
C3512 C3513 1.434 . S
C3513 C3504 1.429 . S
C3513 N3510 1.350 . S
C3513 C3512 1.434 . S
C3514 C3515 1.369 . S
C3514 C3516 1.419 1_545 S
C3514 H3518 0.930 . S
C3515 C3514 1.369 . S
C3515 C3524 1.429 . S
C3516 C3514 1.419 1_565 S
C3516 C3517 1.363 . S
C3516 H3519 0.929 . S
C3517 C3516 1.363 . S
C3517 C3523 1.428 . S
H3518 C3514 0.930 . S
H3519 C3516 0.929 . S
S3520 N3521 1.613 1_565 S
S3520 N3522 1.610 . S
N3521 S3520 1.613 1_545 S
N3521 C3524 1.350 . S
N3522 S3520 1.610 . S
N3522 C3523 1.351 . S
C3523 C3517 1.428 . S
C3523 N3522 1.351 . S
C3523 C3524 1.434 1_565 S
C3524 C3515 1.429 . S
C3524 N3521 1.350 . S
C3524 C3523 1.434 1_545 S
C3525 C3526 1.369 . S
C3525 C3527 1.419 . S
C3525 H3529 0.930 . S
C3526 C3525 1.369 . S
C3526 C3535 1.429 . S
C3527 C3525 1.419 . S
C3527 C3528 1.363 . S
C3527 H3530 0.929 . S
C3528 C3527 1.363 . S
C3528 C3534 1.428 . S
H3529 C3525 0.930 . S
H3530 C3527 0.929 . S
S3531 N3532 1.613 . S
S3531 N3533 1.610 . S
N3532 S3531 1.613 . S
N3532 C3535 1.350 . S
N3533 S3531 1.610 . S
N3533 C3534 1.351 . S
C3534 C3528 1.428 . S
C3534 N3533 1.351 . S
C3534 C3535 1.434 . S
C3535 C3526 1.429 . S
C3535 N3532 1.350 . S
C3535 C3534 1.434 . S
C3536 C3537 1.369 . S
C3536 C3538 1.419 1_556 S
C3536 H3540 0.930 . S
C3537 C3536 1.369 . S
C3537 C3546 1.429 . S
C3538 C3536 1.419 1_554 S
C3538 C3539 1.363 . S
C3538 H3541 0.929 . S
C3539 C3538 1.363 . S
C3539 C3545 1.428 . S
H3540 C3536 0.930 . S
H3541 C3538 0.929 . S
S3542 N3543 1.613 . S
S3542 N3544 1.610 1_556 S
N3543 S3542 1.613 . S
N3543 C3546 1.350 . S
N3544 S3542 1.610 1_554 S
N3544 C3545 1.351 . S
C3545 C3539 1.428 . S
C3545 N3544 1.351 . S
C3545 C3546 1.434 1_554 S
C3546 C3537 1.429 . S
C3546 N3543 1.350 . S
C3546 C3545 1.434 1_556 S
C3547 C3548 1.369 . S
C3547 C3549 1.419 1_556 S
C3547 H3551 0.930 . S
C3548 C3547 1.369 . S
C3548 C3557 1.429 . S
C3549 C3547 1.419 1_554 S
C3549 C3550 1.363 . S
C3549 H3552 0.929 . S
C3550 C3549 1.363 . S
C3550 C3556 1.428 . S
H3551 C3547 0.930 . S
H3552 C3549 0.929 . S
S3553 N3554 1.613 . S
S3553 N3555 1.610 1_556 S
N3554 S3553 1.613 . S
N3554 C3557 1.350 . S
N3555 S3553 1.610 1_554 S
N3555 C3556 1.351 . S
C3556 C3550 1.428 . S
C3556 N3555 1.351 . S
C3556 C3557 1.434 1_554 S
C3557 C3548 1.429 . S
C3557 N3554 1.350 . S
C3557 C3556 1.434 1_556 S
C3558 C3559 1.369 . S
C3558 C3560 1.419 . S
C3558 H3562 0.930 . S
C3559 C3558 1.369 . S
C3559 C3568 1.429 . S
C3560 C3558 1.419 . S
C3560 C3561 1.363 . S
C3560 H3563 0.929 . S
C3561 C3560 1.363 . S
C3561 C3567 1.428 . S
H3562 C3558 0.930 . S
H3563 C3560 0.929 . S
S3564 N3565 1.613 . S
S3564 N3566 1.610 . S
N3565 S3564 1.613 . S
N3565 C3568 1.350 . S
N3566 S3564 1.610 . S
N3566 C3567 1.351 . S
C3567 C3561 1.428 . S
C3567 N3566 1.351 . S
C3567 C3568 1.434 . S
C3568 C3559 1.429 . S
C3568 N3565 1.350 . S
C3568 C3567 1.434 . S
C3569 C3570 1.369 1_554 S
C3569 C3571 1.419 . S
C3569 H3573 0.930 . S
C3570 C3569 1.369 1_556 S
C3570 C3579 1.429 1_556 S
C3571 C3569 1.419 . S
C3571 C3572 1.363 . S
C3571 H3574 0.929 . S
C3572 C3571 1.363 . S
C3572 C3578 1.428 . S
H3573 C3569 0.930 . S
H3574 C3571 0.929 . S
S3575 N3576 1.613 1_554 S
S3575 N3577 1.610 . S
N3576 S3575 1.613 1_556 S
N3576 C3579 1.350 1_556 S
N3577 S3575 1.610 . S
N3577 C3578 1.351 . S
C3578 C3572 1.428 . S
C3578 N3577 1.351 . S
C3578 C3579 1.434 . S
C3579 C3570 1.429 1_554 S
C3579 N3576 1.350 1_554 S
C3579 C3578 1.434 . S
C3580 C3581 1.369 . S
C3580 C3582 1.419 . S
C3580 H3584 0.930 . S
C3581 C3580 1.369 . S
C3581 C3590 1.429 . S
C3582 C3580 1.419 . S
C3582 C3583 1.363 . S
C3582 H3585 0.929 . S
C3583 C3582 1.363 . S
C3583 C3589 1.428 . S
H3584 C3580 0.930 . S
H3585 C3582 0.929 . S
S3586 N3587 1.613 . S
S3586 N3588 1.610 . S
N3587 S3586 1.613 . S
N3587 C3590 1.350 . S
N3588 S3586 1.610 . S
N3588 C3589 1.351 . S
C3589 C3583 1.428 . S
C3589 N3588 1.351 . S
C3589 C3590 1.434 . S
C3590 C3581 1.429 . S
C3590 N3587 1.350 . S
C3590 C3589 1.434 . S
C3591 C3592 1.369 . S
C3591 C3593 1.419 1_556 S
C3591 H3595 0.930 . S
C3592 C3591 1.369 . S
C3592 C3601 1.429 . S
C3593 C3591 1.419 1_554 S
C3593 C3594 1.363 . S
C3593 H3596 0.929 . S
C3594 C3593 1.363 . S
C3594 C3600 1.428 . S
H3595 C3591 0.930 . S
H3596 C3593 0.929 . S
S3597 N3598 1.613 1_554 S
S3597 N3599 1.610 . S
N3598 S3597 1.613 1_556 S
N3598 C3601 1.350 . S
N3599 S3597 1.610 . S
N3599 C3600 1.351 . S
C3600 C3594 1.428 . S
C3600 N3599 1.351 . S
C3600 C3601 1.434 1_554 S
C3601 C3592 1.429 . S
C3601 N3598 1.350 . S
C3601 C3600 1.434 1_556 S
C3602 C3603 1.369 . S
C3602 C3604 1.419 . S
C3602 H3606 0.930 . S
C3603 C3602 1.369 . S
C3603 C3612 1.429 . S
C3604 C3602 1.419 . S
C3604 C3605 1.363 . S
C3604 H3607 0.929 . S
C3605 C3604 1.363 . S
C3605 C3611 1.428 . S
H3606 C3602 0.930 . S
H3607 C3604 0.929 . S
S3608 N3609 1.613 . S
S3608 N3610 1.610 . S
N3609 S3608 1.613 . S
N3609 C3612 1.350 . S
N3610 S3608 1.610 . S
N3610 C3611 1.351 . S
C3611 C3605 1.428 . S
C3611 N3610 1.351 . S
C3611 C3612 1.434 . S
C3612 C3603 1.429 . S
C3612 N3609 1.350 . S
C3612 C3611 1.434 . S
C3613 C3614 1.369 . S
C3613 C3615 1.419 . S
C3613 H3617 0.930 . S
C3614 C3613 1.369 . S
C3614 C3623 1.429 . S
C3615 C3613 1.419 . S
C3615 C3616 1.363 . S
C3615 H3618 0.929 . S
C3616 C3615 1.363 . S
C3616 C3622 1.428 . S
H3617 C3613 0.930 . S
H3618 C3615 0.929 . S
S3619 N3620 1.613 . S
S3619 N3621 1.610 . S
N3620 S3619 1.613 . S
N3620 C3623 1.350 . S
N3621 S3619 1.610 . S
N3621 C3622 1.351 . S
C3622 C3616 1.428 . S
C3622 N3621 1.351 . S
C3622 C3623 1.434 . S
C3623 C3614 1.429 . S
C3623 N3620 1.350 . S
C3623 C3622 1.434 . S
C3624 C3625 1.369 . S
C3624 C3626 1.419 . S
C3624 H3628 0.930 . S
C3625 C3624 1.369 . S
C3625 C3634 1.429 . S
C3626 C3624 1.419 . S
C3626 C3627 1.363 . S
C3626 H3629 0.929 . S
C3627 C3626 1.363 . S
C3627 C3633 1.428 . S
H3628 C3624 0.930 . S
H3629 C3626 0.929 . S
S3630 N3631 1.613 . S
S3630 N3632 1.610 . S
N3631 S3630 1.613 . S
N3631 C3634 1.350 . S
N3632 S3630 1.610 . S
N3632 C3633 1.351 . S
C3633 C3627 1.428 . S
C3633 N3632 1.351 . S
C3633 C3634 1.434 . S
C3634 C3625 1.429 . S
C3634 N3631 1.350 . S
C3634 C3633 1.434 . S
C3635 C3636 1.369 . S
C3635 C3637 1.419 . S
C3635 H3639 0.930 . S
C3636 C3635 1.369 . S
C3636 C3645 1.429 . S
C3637 C3635 1.419 . S
C3637 C3638 1.363 . S
C3637 H3640 0.929 . S
C3638 C3637 1.363 . S
C3638 C3644 1.428 . S
H3639 C3635 0.930 . S
H3640 C3637 0.929 . S
S3641 N3642 1.613 . S
S3641 N3643 1.610 . S
N3642 S3641 1.613 . S
N3642 C3645 1.350 . S
N3643 S3641 1.610 . S
N3643 C3644 1.351 . S
C3644 C3638 1.428 . S
C3644 N3643 1.351 . S
C3644 C3645 1.434 . S
C3645 C3636 1.429 . S
C3645 N3642 1.350 . S
C3645 C3644 1.434 . S
C3646 C3647 1.369 . S
C3646 C3648 1.419 . S
C3646 H3650 0.930 . S
C3647 C3646 1.369 . S
C3647 C3656 1.429 . S
C3648 C3646 1.419 . S
C3648 C3649 1.363 . S
C3648 H3651 0.929 . S
C3649 C3648 1.363 . S
C3649 C3655 1.428 . S
H3650 C3646 0.930 . S
H3651 C3648 0.929 . S
S3652 N3653 1.613 . S
S3652 N3654 1.610 . S
N3653 S3652 1.613 . S
N3653 C3656 1.350 . S
N3654 S3652 1.610 . S
N3654 C3655 1.351 . S
C3655 C3649 1.428 . S
C3655 N3654 1.351 . S
C3655 C3656 1.434 . S
C3656 C3647 1.429 . S
C3656 N3653 1.350 . S
C3656 C3655 1.434 . S
C3657 C3658 1.369 . S
C3657 C3659 1.419 . S
C3657 H3661 0.930 . S
C3658 C3657 1.369 . S
C3658 C3667 1.429 . S
C3659 C3657 1.419 . S
C3659 C3660 1.363 . S
C3659 H3662 0.929 . S
C3660 C3659 1.363 . S
C3660 C3666 1.428 . S
H3661 C3657 0.930 . S
H3662 C3659 0.929 . S
S3663 N3664 1.613 . S
S3663 N3665 1.610 . S
N3664 S3663 1.613 . S
N3664 C3667 1.350 . S
N3665 S3663 1.610 . S
N3665 C3666 1.351 . S
C3666 C3660 1.428 . S
C3666 N3665 1.351 . S
C3666 C3667 1.434 . S
C3667 C3658 1.429 . S
C3667 N3664 1.350 . S
C3667 C3666 1.434 . S
C3668 C3669 1.369 . S
C3668 C3670 1.419 . S
C3668 H3672 0.930 . S
C3669 C3668 1.369 . S
C3669 C3678 1.429 . S
C3670 C3668 1.419 . S
C3670 C3671 1.363 . S
C3670 H3673 0.929 . S
C3671 C3670 1.363 . S
C3671 C3677 1.428 . S
H3672 C3668 0.930 . S
H3673 C3670 0.929 . S
S3674 N3675 1.613 . S
S3674 N3676 1.610 . S
N3675 S3674 1.613 . S
N3675 C3678 1.350 . S
N3676 S3674 1.610 . S
N3676 C3677 1.351 . S
C3677 C3671 1.428 . S
C3677 N3676 1.351 . S
C3677 C3678 1.434 . S
C3678 C3669 1.429 . S
C3678 N3675 1.350 . S
C3678 C3677 1.434 . S
C3679 C3680 1.369 . S
C3679 C3681 1.419 . S
C3679 H3683 0.930 . S
C3680 C3679 1.369 . S
C3680 C3689 1.429 . S
C3681 C3679 1.419 . S
C3681 C3682 1.363 . S
C3681 H3684 0.929 . S
C3682 C3681 1.363 . S
C3682 C3688 1.428 . S
H3683 C3679 0.930 . S
H3684 C3681 0.929 . S
S3685 N3686 1.613 . S
S3685 N3687 1.610 . S
N3686 S3685 1.613 . S
N3686 C3689 1.350 . S
N3687 S3685 1.610 . S
N3687 C3688 1.351 . S
C3688 C3682 1.428 . S
C3688 N3687 1.351 . S
C3688 C3689 1.434 . S
C3689 C3680 1.429 . S
C3689 N3686 1.350 . S
C3689 C3688 1.434 . S
C3690 C3691 1.369 . S
C3690 C3692 1.419 . S
C3690 H3694 0.930 . S
C3691 C3690 1.369 . S
C3691 C3700 1.429 . S
C3692 C3690 1.419 . S
C3692 C3693 1.363 . S
C3692 H3695 0.929 . S
C3693 C3692 1.363 . S
C3693 C3699 1.428 . S
H3694 C3690 0.930 . S
H3695 C3692 0.929 . S
S3696 N3697 1.613 . S
S3696 N3698 1.610 . S
N3697 S3696 1.613 . S
N3697 C3700 1.350 . S
N3698 S3696 1.610 . S
N3698 C3699 1.351 . S
C3699 C3693 1.428 . S
C3699 N3698 1.351 . S
C3699 C3700 1.434 . S
C3700 C3691 1.429 . S
C3700 N3697 1.350 . S
C3700 C3699 1.434 . S
C3701 C3702 1.369 . S
C3701 C3703 1.419 . S
C3701 H3705 0.930 . S
C3702 C3701 1.369 . S
C3702 C3711 1.429 . S
C3703 C3701 1.419 . S
C3703 C3704 1.363 . S
C3703 H3706 0.929 . S
C3704 C3703 1.363 . S
C3704 C3710 1.428 . S
H3705 C3701 0.930 . S
H3706 C3703 0.929 . S
S3707 N3708 1.613 . S
S3707 N3709 1.610 . S
N3708 S3707 1.613 . S
N3708 C3711 1.350 . S
N3709 S3707 1.610 . S
N3709 C3710 1.351 . S
C3710 C3704 1.428 . S
C3710 N3709 1.351 . S
C3710 C3711 1.434 . S
C3711 C3702 1.429 . S
C3711 N3708 1.350 . S
C3711 C3710 1.434 . S
C3712 C3713 1.369 . S
C3712 C3714 1.419 . S
C3712 H3716 0.930 . S
C3713 C3712 1.369 . S
C3713 C3722 1.429 . S
C3714 C3712 1.419 . S
C3714 C3715 1.363 . S
C3714 H3717 0.929 . S
C3715 C3714 1.363 . S
C3715 C3721 1.428 . S
H3716 C3712 0.930 . S
H3717 C3714 0.929 . S
S3718 N3719 1.613 . S
S3718 N3720 1.610 . S
N3719 S3718 1.613 . S
N3719 C3722 1.350 . S
N3720 S3718 1.610 . S
N3720 C3721 1.351 . S
C3721 C3715 1.428 . S
C3721 N3720 1.351 . S
C3721 C3722 1.434 . S
C3722 C3713 1.429 . S
C3722 N3719 1.350 . S
C3722 C3721 1.434 . S
C3723 C3724 1.369 . S
C3723 C3725 1.419 . S
C3723 H3727 0.930 . S
C3724 C3723 1.369 . S
C3724 C3733 1.429 . S
C3725 C3723 1.419 . S
C3725 C3726 1.363 . S
C3725 H3728 0.929 . S
C3726 C3725 1.363 . S
C3726 C3732 1.428 . S
H3727 C3723 0.930 . S
H3728 C3725 0.929 . S
S3729 N3730 1.613 . S
S3729 N3731 1.610 . S
N3730 S3729 1.613 . S
N3730 C3733 1.350 . S
N3731 S3729 1.610 . S
N3731 C3732 1.351 . S
C3732 C3726 1.428 . S
C3732 N3731 1.351 . S
C3732 C3733 1.434 . S
C3733 C3724 1.429 . S
C3733 N3730 1.350 . S
C3733 C3732 1.434 . S
C3734 C3735 1.369 . S
C3734 C3736 1.419 . S
C3734 H3738 0.930 . S
C3735 C3734 1.369 . S
C3735 C3744 1.429 . S
C3736 C3734 1.419 . S
C3736 C3737 1.363 . S
C3736 H3739 0.929 . S
C3737 C3736 1.363 . S
C3737 C3743 1.428 . S
H3738 C3734 0.930 . S
H3739 C3736 0.929 . S
S3740 N3741 1.613 . S
S3740 N3742 1.610 . S
N3741 S3740 1.613 . S
N3741 C3744 1.350 . S
N3742 S3740 1.610 . S
N3742 C3743 1.351 . S
C3743 C3737 1.428 . S
C3743 N3742 1.351 . S
C3743 C3744 1.434 . S
C3744 C3735 1.429 . S
C3744 N3741 1.350 . S
C3744 C3743 1.434 . S
C3745 C3746 1.369 . S
C3745 C3747 1.419 . S
C3745 H3749 0.930 . S
C3746 C3745 1.369 . S
C3746 C3755 1.429 . S
C3747 C3745 1.419 . S
C3747 C3748 1.363 . S
C3747 H3750 0.929 . S
C3748 C3747 1.363 . S
C3748 C3754 1.428 . S
H3749 C3745 0.930 . S
H3750 C3747 0.929 . S
S3751 N3752 1.613 . S
S3751 N3753 1.610 . S
N3752 S3751 1.613 . S
N3752 C3755 1.350 . S
N3753 S3751 1.610 . S
N3753 C3754 1.351 . S
C3754 C3748 1.428 . S
C3754 N3753 1.351 . S
C3754 C3755 1.434 . S
C3755 C3746 1.429 . S
C3755 N3752 1.350 . S
C3755 C3754 1.434 . S
C3756 C3757 1.369 . S
C3756 C3758 1.419 . S
C3756 H3760 0.930 . S
C3757 C3756 1.369 . S
C3757 C3766 1.429 . S
C3758 C3756 1.419 . S
C3758 C3759 1.363 . S
C3758 H3761 0.929 . S
C3759 C3758 1.363 . S
C3759 C3765 1.428 . S
H3760 C3756 0.930 . S
H3761 C3758 0.929 . S
S3762 N3763 1.613 . S
S3762 N3764 1.610 . S
N3763 S3762 1.613 . S
N3763 C3766 1.350 . S
N3764 S3762 1.610 . S
N3764 C3765 1.351 . S
C3765 C3759 1.428 . S
C3765 N3764 1.351 . S
C3765 C3766 1.434 . S
C3766 C3757 1.429 . S
C3766 N3763 1.350 . S
C3766 C3765 1.434 . S
C3767 C3768 1.369 . S
C3767 C3769 1.419 . S
C3767 H3771 0.930 . S
C3768 C3767 1.369 . S
C3768 C3777 1.429 . S
C3769 C3767 1.419 . S
C3769 C3770 1.363 . S
C3769 H3772 0.929 . S
C3770 C3769 1.363 . S
C3770 C3776 1.428 . S
H3771 C3767 0.930 . S
H3772 C3769 0.929 . S
S3773 N3774 1.613 . S
S3773 N3775 1.610 . S
N3774 S3773 1.613 . S
N3774 C3777 1.350 . S
N3775 S3773 1.610 . S
N3775 C3776 1.351 . S
C3776 C3770 1.428 . S
C3776 N3775 1.351 . S
C3776 C3777 1.434 . S
C3777 C3768 1.429 . S
C3777 N3774 1.350 . S
C3777 C3776 1.434 . S
C3778 C3779 1.369 . S
C3778 C3780 1.419 . S
C3778 H3782 0.930 . S
C3779 C3778 1.369 . S
C3779 C3788 1.429 . S
C3780 C3778 1.419 . S
C3780 C3781 1.363 . S
C3780 H3783 0.929 . S
C3781 C3780 1.363 . S
C3781 C3787 1.428 . S
H3782 C3778 0.930 . S
H3783 C3780 0.929 . S
S3784 N3785 1.613 . S
S3784 N3786 1.610 . S
N3785 S3784 1.613 . S
N3785 C3788 1.350 . S
N3786 S3784 1.610 . S
N3786 C3787 1.351 . S
C3787 C3781 1.428 . S
C3787 N3786 1.351 . S
C3787 C3788 1.434 . S
C3788 C3779 1.429 . S
C3788 N3785 1.350 . S
C3788 C3787 1.434 . S
C3789 C3790 1.369 . S
C3789 C3791 1.419 . S
C3789 H3793 0.930 . S
C3790 C3789 1.369 . S
C3790 C3799 1.429 . S
C3791 C3789 1.419 . S
C3791 C3792 1.363 . S
C3791 H3794 0.929 . S
C3792 C3791 1.363 . S
C3792 C3798 1.428 . S
H3793 C3789 0.930 . S
H3794 C3791 0.929 . S
S3795 N3796 1.613 . S
S3795 N3797 1.610 . S
N3796 S3795 1.613 . S
N3796 C3799 1.350 . S
N3797 S3795 1.610 . S
N3797 C3798 1.351 . S
C3798 C3792 1.428 . S
C3798 N3797 1.351 . S
C3798 C3799 1.434 . S
C3799 C3790 1.429 . S
C3799 N3796 1.350 . S
C3799 C3798 1.434 . S
C3800 C3801 1.369 . S
C3800 C3802 1.419 . S
C3800 H3804 0.930 . S
C3801 C3800 1.369 . S
C3801 C3810 1.429 . S
C3802 C3800 1.419 . S
C3802 C3803 1.363 . S
C3802 H3805 0.929 . S
C3803 C3802 1.363 . S
C3803 C3809 1.428 . S
H3804 C3800 0.930 . S
H3805 C3802 0.929 . S
S3806 N3807 1.613 . S
S3806 N3808 1.610 . S
N3807 S3806 1.613 . S
N3807 C3810 1.350 . S
N3808 S3806 1.610 . S
N3808 C3809 1.351 . S
C3809 C3803 1.428 . S
C3809 N3808 1.351 . S
C3809 C3810 1.434 . S
C3810 C3801 1.429 . S
C3810 N3807 1.350 . S
C3810 C3809 1.434 . S
C3811 C3812 1.369 . S
C3811 C3813 1.419 . S
C3811 H3815 0.930 . S
C3812 C3811 1.369 . S
C3812 C3821 1.429 . S
C3813 C3811 1.419 . S
C3813 C3814 1.363 . S
C3813 H3816 0.929 . S
C3814 C3813 1.363 . S
C3814 C3820 1.428 . S
H3815 C3811 0.930 . S
H3816 C3813 0.929 . S
S3817 N3818 1.613 . S
S3817 N3819 1.610 . S
N3818 S3817 1.613 . S
N3818 C3821 1.350 . S
N3819 S3817 1.610 . S
N3819 C3820 1.351 . S
C3820 C3814 1.428 . S
C3820 N3819 1.351 . S
C3820 C3821 1.434 . S
C3821 C3812 1.429 . S
C3821 N3818 1.350 . S
C3821 C3820 1.434 . S
C3822 C3823 1.369 . S
C3822 C3824 1.419 . S
C3822 H3826 0.930 . S
C3823 C3822 1.369 . S
C3823 C3832 1.429 . S
C3824 C3822 1.419 . S
C3824 C3825 1.363 . S
C3824 H3827 0.929 . S
C3825 C3824 1.363 . S
C3825 C3831 1.428 . S
H3826 C3822 0.930 . S
H3827 C3824 0.929 . S
S3828 N3829 1.613 . S
S3828 N3830 1.610 . S
N3829 S3828 1.613 . S
N3829 C3832 1.350 . S
N3830 S3828 1.610 . S
N3830 C3831 1.351 . S
C3831 C3825 1.428 . S
C3831 N3830 1.351 . S
C3831 C3832 1.434 . S
C3832 C3823 1.429 . S
C3832 N3829 1.350 . S
C3832 C3831 1.434 . S
C3833 C3834 1.369 . S
C3833 C3835 1.419 . S
C3833 H3837 0.930 . S
C3834 C3833 1.369 . S
C3834 C3843 1.429 . S
C3835 C3833 1.419 . S
C3835 C3836 1.363 . S
C3835 H3838 0.929 . S
C3836 C3835 1.363 . S
C3836 C3842 1.428 . S
H3837 C3833 0.930 . S
H3838 C3835 0.929 . S
S3839 N3840 1.613 . S
S3839 N3841 1.610 . S
N3840 S3839 1.613 . S
N3840 C3843 1.350 . S
N3841 S3839 1.610 . S
N3841 C3842 1.351 . S
C3842 C3836 1.428 . S
C3842 N3841 1.351 . S
C3842 C3843 1.434 . S
C3843 C3834 1.429 . S
C3843 N3840 1.350 . S
C3843 C3842 1.434 . S
C3844 C3845 1.369 . S
C3844 C3846 1.419 . S
C3844 H3848 0.930 . S
C3845 C3844 1.369 . S
C3845 C3854 1.429 . S
C3846 C3844 1.419 . S
C3846 C3847 1.363 . S
C3846 H3849 0.929 . S
C3847 C3846 1.363 . S
C3847 C3853 1.428 . S
H3848 C3844 0.930 . S
H3849 C3846 0.929 . S
S3850 N3851 1.613 . S
S3850 N3852 1.610 . S
N3851 S3850 1.613 . S
N3851 C3854 1.350 . S
N3852 S3850 1.610 . S
N3852 C3853 1.351 . S
C3853 C3847 1.428 . S
C3853 N3852 1.351 . S
C3853 C3854 1.434 . S
C3854 C3845 1.429 . S
C3854 N3851 1.350 . S
C3854 C3853 1.434 . S
C3855 C3856 1.369 . S
C3855 C3857 1.419 . S
C3855 H3859 0.930 . S
C3856 C3855 1.369 . S
C3856 C3865 1.429 . S
C3857 C3855 1.419 . S
C3857 C3858 1.363 . S
C3857 H3860 0.929 . S
C3858 C3857 1.363 . S
C3858 C3864 1.428 . S
H3859 C3855 0.930 . S
H3860 C3857 0.929 . S
S3861 N3862 1.613 . S
S3861 N3863 1.610 . S
N3862 S3861 1.613 . S
N3862 C3865 1.350 . S
N3863 S3861 1.610 . S
N3863 C3864 1.351 . S
C3864 C3858 1.428 . S
C3864 N3863 1.351 . S
C3864 C3865 1.434 . S
C3865 C3856 1.429 . S
C3865 N3862 1.350 . S
C3865 C3864 1.434 . S
C3866 C3867 1.369 . S
C3866 C3868 1.419 . S
C3866 H3870 0.930 . S
C3867 C3866 1.369 . S
C3867 C3876 1.429 . S
C3868 C3866 1.419 . S
C3868 C3869 1.363 . S
C3868 H3871 0.929 . S
C3869 C3868 1.363 . S
C3869 C3875 1.428 . S
H3870 C3866 0.930 . S
H3871 C3868 0.929 . S
S3872 N3873 1.613 . S
S3872 N3874 1.610 . S
N3873 S3872 1.613 . S
N3873 C3876 1.350 . S
N3874 S3872 1.610 . S
N3874 C3875 1.351 . S
C3875 C3869 1.428 . S
C3875 N3874 1.351 . S
C3875 C3876 1.434 . S
C3876 C3867 1.429 . S
C3876 N3873 1.350 . S
C3876 C3875 1.434 . S
C3877 C3878 1.369 . S
C3877 C3879 1.419 . S
C3877 H3881 0.930 . S
C3878 C3877 1.369 . S
C3878 C3887 1.429 . S
C3879 C3877 1.419 . S
C3879 C3880 1.363 . S
C3879 H3882 0.929 . S
C3880 C3879 1.363 . S
C3880 C3886 1.428 . S
H3881 C3877 0.930 . S
H3882 C3879 0.929 . S
S3883 N3884 1.613 . S
S3883 N3885 1.610 . S
N3884 S3883 1.613 . S
N3884 C3887 1.350 . S
N3885 S3883 1.610 . S
N3885 C3886 1.351 . S
C3886 C3880 1.428 . S
C3886 N3885 1.351 . S
C3886 C3887 1.434 . S
C3887 C3878 1.429 . S
C3887 N3884 1.350 . S
C3887 C3886 1.434 . S
C2833 C1183 1.771 . S
C2835 C5 1.752 . S
C2844 C92 1.861 . S
C2846 C1036 1.862 . S
C2855 C123 1.868 . S
C2857 C1095 1.862 . S
C2866 C1154 1.928 . S
C2868 C210 1.942 . S
C2877 C1390 1.907 . S
C2879 C288 1.936 . S
C2888 C298 1.881 . S
C2890 C1272 1.888 . S
C2899 C406 1.776 . S
C2901 C1301 1.789 . S
C2910 C416 1.759 . S
C2912 C947 1.766 . S
C2921 C475 1.771 . S
C2923 C890 1.764 . S
C2932 C583 1.827 . S
C2934 C741 1.843 . S
C2943 C593 1.696 . S
C2945 C772 1.693 . S
C2954 C859 1.880 . S
C2956 C701 1.866 . S
C2965 C1468 1.951 . S
C2967 C2629 1.967 . S
C2976 C2422 1.600 . S
C2978 C1478 1.611 . S
C2987 C1586 1.909 . S
C2989 C2481 1.912 . S
C2998 C2570 1.840 . S
C3000 C1596 1.816 . S
C3009 C1657 1.670 . S
C3011 C2776 1.655 . S
C3020 C2658 1.873 . S
C3022 C1744 1.894 . S
C3031 C1775 1.566 . S
C3033 C2717 1.533 . S
C3042 C2393 1.985 . S
C3044 C1862 1.988 . S
C3053 C1921 1.877 . S
C3055 C2353 1.855 . S
C3064 C2127 1.747 . S
C3066 C1952 1.762 . S
C3075 C2235 1.802 . S
C3077 C2039 1.836 . S
C3086 C2245 1.775 . S
C3088 C2070 1.804 . S
C3097 C1539 1.356 . S
C3099 C52 1.350 . S
C3108 C62 1.299 . S
C3110 C1626 1.314 . S
C3119 C170 1.343 . S
C3121 C1421 1.362 . S
C3130 C180 1.467 . S
C3132 C1508 1.449 . S
C3141 C241 1.511 . S
C3143 C1822 1.465 . S
C3152 C1832 1.354 . S
C3154 C328 1.361 . S
C3163 C1704 1.353 . S
C3165 C359 1.373 . S
C3174 C1714 1.346 . S
C3176 C446 1.370 . S
C3185 C2157 1.467 . S
C3187 C505 1.477 . S
C3196 C536 1.267 . S
C3198 C2188 1.271 . S
C3207 C2275 1.457 . S
C3209 C623 1.464 . S
C3218 C654 1.248 . S
C3220 C2306 1.251 . S
C3229 C711 1.285 . S
C3231 C1891 1.289 . S
C3240 C819 1.420 . S
C3242 C1999 1.408 . S
C3251 C2009 1.301 . S
C3253 C829 1.298 . S
C3262 C2117 1.412 . S
C3264 C937 1.426 . S
C3273 C977 1.428 . S
C3275 C2540 1.398 . S
C3284 C1006 1.354 . S
C3286 C2688 1.361 . S
C3295 C2747 1.471 . S
C3297 C1065 1.458 . S
C3306 C2363 1.214 . S
C3308 C1124 1.191 . S
C3317 C1213 1.445 . S
C3319 C2806 1.429 . S
C3328 C2452 1.492 . S
C3330 C1242 1.492 . S
C3339 C1331 1.470 . S
C3341 C2511 1.466 . S
C3350 C1360 1.192 . S
C3352 C2599 1.207 . S
C3361 C1655 1.777 . S
C3363 C33 1.797 . S
C3372 C1763 1.840 . S
C3374 C64 1.802 . S
C3383 C1773 1.862 . S
C3385 C151 1.898 . S
C3394 C182 1.811 . S
C3396 C1881 1.857 . S
C3405 C1449 1.874 . S
C3407 C239 1.825 . S
C3416 C1480 1.853 . S
C3418 C347 1.887 . S
C3427 C357 1.751 . S
C3429 C1567 1.808 . S
C3438 C1598 1.817 . S
C3440 C465 1.827 . S
C3449 C524 1.798 . S
C3451 C2247 1.777 . S
C3460 C534 1.846 . S
C3462 C2334 1.895 . S
C3471 C2129 1.783 . S
C3473 C642 1.811 . S
C3482 C652 1.881 . S
C3484 C2216 1.914 . S
C3493 C2058 1.919 . S
C3495 C713 1.877 . S
C3504 C800 1.781 . S
C3506 C2068 1.764 . S
C3515 C831 1.871 . S
C3517 C1940 1.912 . S
C3526 C918 1.795 . S
C3528 C1950 1.775 . S
C3537 C2660 1.807 . S
C3539 C996 1.806 . S
C3548 C1008 1.923 . S
C3550 C2589 1.956 . S
C3559 C1067 1.846 . S
C3561 C2648 1.874 . S
C3570 C1126 1.747 . S
C3572 C2424 1.759 . S
C3581 C2483 1.780 . S
C3583 C1232 1.790 . S
C3592 C2412 1.876 . S
C3594 C1244 1.862 . S
C3603 C2778 1.929 . S
C3605 C1350 1.968 . S
C3614 C1362 1.767 . S
C3616 C2719 1.784 . S
C3625 C888 1.632 . S
C3627 C3 1.624 . S
C3636 C111 1.548 . S
C3638 C760 1.524 . S
C3647 C770 1.634 . S
C3649 C121 1.588 . S
C3658 C878 1.509 . S
C3660 C229 1.526 . S
C3669 C564 1.506 . S
C3671 C269 1.511 . S
C3680 C300 1.617 . S
C3682 C595 1.641 . S
C3691 C387 1.552 . S
C3693 C682 1.551 . S
C3702 C477 1.618 . S
C3704 C418 1.614 . S
C3713 C949 1.573 . S
C3715 C1185 1.597 . S
C3724 C1409 1.650 . S
C3726 C1055 1.688 . S
C3735 C1291 1.407 . S
C3737 C1114 1.405 . S
C3746 C1173 1.689 . S
C3748 C1303 1.675 . S
C3757 C2304 1.561 . S
C3759 C1419 1.565 . S
C3768 C2176 1.570 . S
C3770 C1527 1.580 . S
C3779 C1537 1.634 . S
C3781 C2186 1.602 . S
C3790 C2294 1.551 . S
C3792 C1645 1.550 . S
C3801 C1980 1.552 . S
C3803 C1685 1.545 . S
C3812 C1716 1.608 . S
C3814 C2011 1.616 . S
C3823 C1803 1.568 . S
C3825 C2098 1.571 . S
C3834 C1834 1.578 . S
C3836 C1893 1.573 . S
C3845 C2365 1.600 . S
C3847 C2601 1.609 . S
C3856 C2825 1.645 . S
C3858 C2471 1.663 . S
C3867 C2707 1.514 . S
C3869 C2530 1.517 . S
C3878 C2766 1.739 . S
C3880 C2542 1.680 . S
