# Generated by pormake.
# Topology ume, (4)-cn, num edge types: 1
# Building blocks:
#     Node 0, Type 0, BuildingBlock: MUDLON_clean_sbu_0, # of connection points: 4
#     Node 1, Type 0, BuildingBlock: MUDLON_clean_sbu_0, # of connection points: 4
#     Node 2, Type 0, BuildingBlock: MUDLON_clean_sbu_0, # of connection points: 4
#     Node 3, Type 0, BuildingBlock: MUDLON_clean_sbu_0, # of connection points: 4
#     Node 4, Type 0, BuildingBlock: MUDLON_clean_sbu_0, # of connection points: 4
#     Node 5, Type 0, BuildingBlock: MUDLON_clean_sbu_0, # of connection points: 4
#     Node 6, Type 0, BuildingBlock: MUDLON_clean_sbu_0, # of connection points: 4
#     Node 7, Type 0, BuildingBlock: MUDLON_clean_sbu_0, # of connection points: 4
#     Node 8, Type 0, BuildingBlock: MUDLON_clean_sbu_0, # of connection points: 4
#     Node 9, Type 0, BuildingBlock: MUDLON_clean_sbu_0, # of connection points: 4
#     Node 10, Type 0, BuildingBlock: MUDLON_clean_sbu_0, # of connection points: 4
#     Node 11, Type 0, BuildingBlock: MUDLON_clean_sbu_0, # of connection points: 4
#     Node 12, Type 0, BuildingBlock: MUDLON_clean_sbu_0, # of connection points: 4
#     Node 13, Type 0, BuildingBlock: MUDLON_clean_sbu_0, # of connection points: 4
#     Node 14, Type 0, BuildingBlock: MUDLON_clean_sbu_0, # of connection points: 4
#     Node 15, Type 0, BuildingBlock: MUDLON_clean_sbu_0, # of connection points: 4
#     Edge 16, Type (0, 0), BuildingBlock: XIVTED_clean_linker_0, # of connection points: 2
#     Edge 17, Type (0, 0), BuildingBlock: XIVTED_clean_linker_0, # of connection points: 2
#     Edge 18, Type (0, 0), BuildingBlock: XIVTED_clean_linker_0, # of connection points: 2
#     Edge 19, Type (0, 0), BuildingBlock: XIVTED_clean_linker_0, # of connection points: 2
#     Edge 20, Type (0, 0), BuildingBlock: XIVTED_clean_linker_0, # of connection points: 2
#     Edge 21, Type (0, 0), BuildingBlock: XIVTED_clean_linker_0, # of connection points: 2
#     Edge 22, Type (0, 0), BuildingBlock: XIVTED_clean_linker_0, # of connection points: 2
#     Edge 23, Type (0, 0), BuildingBlock: XIVTED_clean_linker_0, # of connection points: 2
#     Edge 24, Type (0, 0), BuildingBlock: XIVTED_clean_linker_0, # of connection points: 2
#     Edge 25, Type (0, 0), BuildingBlock: XIVTED_clean_linker_0, # of connection points: 2
#     Edge 26, Type (0, 0), BuildingBlock: XIVTED_clean_linker_0, # of connection points: 2
#     Edge 27, Type (0, 0), BuildingBlock: XIVTED_clean_linker_0, # of connection points: 2
#     Edge 28, Type (0, 0), BuildingBlock: XIVTED_clean_linker_0, # of connection points: 2
#     Edge 29, Type (0, 0), BuildingBlock: XIVTED_clean_linker_0, # of connection points: 2
#     Edge 30, Type (0, 0), BuildingBlock: XIVTED_clean_linker_0, # of connection points: 2
#     Edge 31, Type (0, 0), BuildingBlock: XIVTED_clean_linker_0, # of connection points: 2
#     Edge 32, Type (0, 0), BuildingBlock: XIVTED_clean_linker_0, # of connection points: 2
#     Edge 33, Type (0, 0), BuildingBlock: XIVTED_clean_linker_0, # of connection points: 2
#     Edge 34, Type (0, 0), BuildingBlock: XIVTED_clean_linker_0, # of connection points: 2
#     Edge 35, Type (0, 0), BuildingBlock: XIVTED_clean_linker_0, # of connection points: 2
#     Edge 36, Type (0, 0), BuildingBlock: XIVTED_clean_linker_0, # of connection points: 2
#     Edge 37, Type (0, 0), BuildingBlock: XIVTED_clean_linker_0, # of connection points: 2
#     Edge 38, Type (0, 0), BuildingBlock: XIVTED_clean_linker_0, # of connection points: 2
#     Edge 39, Type (0, 0), BuildingBlock: XIVTED_clean_linker_0, # of connection points: 2
#     Edge 40, Type (0, 0), BuildingBlock: XIVTED_clean_linker_0, # of connection points: 2
#     Edge 41, Type (0, 0), BuildingBlock: XIVTED_clean_linker_0, # of connection points: 2
#     Edge 42, Type (0, 0), BuildingBlock: XIVTED_clean_linker_0, # of connection points: 2
#     Edge 43, Type (0, 0), BuildingBlock: XIVTED_clean_linker_0, # of connection points: 2
#     Edge 44, Type (0, 0), BuildingBlock: XIVTED_clean_linker_0, # of connection points: 2
#     Edge 45, Type (0, 0), BuildingBlock: XIVTED_clean_linker_0, # of connection points: 2
#     Edge 46, Type (0, 0), BuildingBlock: XIVTED_clean_linker_0, # of connection points: 2
#     Edge 47, Type (0, 0), BuildingBlock: XIVTED_clean_linker_0, # of connection points: 2
# Relax obj value: 0.086
# Max RMSD: 0.263
# Mean RMSD: 0.263
data_MOF--net-ume--node1-MUDLON_clean_sbu_0--edge1-XIVTED_clean_linker_0
_symmetry_space_group_name_H-M    P1
_symmetry_Int_Tables_number       1
_symmetry_cell_setting            triclinic
loop_
_symmetry_equiv_pos_as_xyz
'x, y, z'
_cell_length_a     28.821323
_cell_length_b     29.239417
_cell_length_c     116.63122
_cell_angle_alpha  90.115306
_cell_angle_beta   90.273965
_cell_angle_gamma 89.718914
loop_
_atom_site_label
_atom_site_type_symbol
_atom_site_fract_x
_atom_site_fract_y
_atom_site_fract_z
_atom_type_partial_charge
Mg0 Mg 0.26838 0.11734 0.33298 0.0
C1 C 0.34675 0.04833 0.3381 0.0
O2 O 0.3235 0.04166 0.34761 0.0
C3 C 0.18477 0.05591 0.3257 0.0
O4 O 0.20598 0.05212 0.3158 0.0
C5 C 0.23434 0.16866 0.31146 0.0
O6 O 0.19425 0.15054 0.31414 0.0
O7 O 0.26873 0.16342 0.31823 0.0
O8 O 0.33051 0.07565 0.33061 0.0
O9 O 0.27511 0.1502 0.34975 0.0
C10 C 0.2387 0.16132 0.35525 0.0
O11 O 0.1982 0.15729 0.35013 0.0
O12 O 0.20376 0.07858 0.33376 0.0
Mg13 Mg 0.9204 0.75166 0.58795 0.0
C14 C 0.88083 0.71305 0.61041 0.0
O15 O 0.89571 0.67417 0.60611 0.0
C16 C 0.89461 0.74664 0.56335 0.0
O17 O 0.93792 0.7324 0.56342 0.0
C18 C 0.94175 0.65306 0.58318 0.0
O19 O 0.89687 0.65492 0.58117 0.0
O20 O 0.96261 0.68957 0.58615 0.0
O21 O 0.88437 0.74936 0.60447 0.0
O22 O 0.96023 0.81531 0.58798 0.0
C23 C 0.94325 0.8483 0.59377 0.0
O24 O 0.90501 0.84138 0.59959 0.0
O25 O 0.87554 0.75665 0.57286 0.0
Mg26 Mg 0.28071 0.39855 0.83247 0.0
C27 C 0.18546 0.43081 0.82506 0.0
O28 O 0.19342 0.39903 0.81734 0.0
C29 C 0.37174 0.44336 0.83987 0.0
O30 O 0.35914 0.42753 0.84992 0.0
C31 C 0.29667 0.37206 0.80822 0.0
O32 O 0.31736 0.41188 0.80901 0.0
O33 O 0.27877 0.35504 0.81721 0.0
O34 O 0.21699 0.4399 0.8324 0.0
O35 O 0.28246 0.36219 0.84879 0.0
C36 C 0.245 0.35294 0.854 0.0
O37 O 0.20521 0.36115 0.84884 0.0
O38 O 0.34461 0.43835 0.83133 0.0
Mg39 Mg 0.60896 0.7632 0.08433 0.0
C40 C 0.65343 0.73329 0.107 0.0
O41 O 0.64218 0.69254 0.10318 0.0
C42 C 0.69245 0.74548 0.06825 0.0
O43 O 0.7128 0.72902 0.07747 0.0
C44 C 0.58847 0.86271 0.08369 0.0
O45 O 0.63397 0.86168 0.08447 0.0
O46 O 0.56664 0.82499 0.08335 0.0
O47 O 0.64626 0.76792 0.10064 0.0
O48 O 0.56708 0.70106 0.08411 0.0
C49 C 0.58692 0.66345 0.08151 0.0
O50 O 0.63126 0.66373 0.07897 0.0
O51 O 0.65177 0.76215 0.06901 0.0
Mg52 Mg 0.27903 0.40164 0.96057 0.0
C53 C 0.35716 0.463 0.96922 0.0
O54 O 0.3341 0.45953 0.97887 0.0
C55 C 0.19353 0.45931 0.96831 0.0
O56 O 0.21365 0.45935 0.97844 0.0
C57 C 0.25012 0.35015 0.98251 0.0
O58 O 0.20784 0.36026 0.97908 0.0
O59 O 0.28435 0.36085 0.97622 0.0
O60 O 0.34081 0.44438 0.96022 0.0
O61 O 0.28187 0.36257 0.94463 0.0
C62 C 0.2448 0.35361 0.93911 0.0
O63 O 0.20465 0.36324 0.94385 0.0
O64 O 0.21388 0.44019 0.9599 0.0
Mg65 Mg 0.60345 0.74879 0.21329 0.0
C66 C 0.6509 0.77833 0.19119 0.0
O67 O 0.63963 0.81913 0.19504 0.0
C68 C 0.6854 0.76397 0.23023 0.0
O69 O 0.70768 0.77916 0.22121 0.0
C70 C 0.58093 0.64987 0.21172 0.0
O71 O 0.62516 0.65037 0.20904 0.0
O72 O 0.56073 0.68762 0.21398 0.0
O73 O 0.64278 0.74358 0.1974 0.0
O74 O 0.56199 0.81158 0.21281 0.0
C75 C 0.58021 0.84835 0.21653 0.0
O76 O 0.62258 0.84679 0.22071 0.0
O77 O 0.64422 0.74928 0.22905 0.0
Mg78 Mg 0.27598 0.111 0.46274 0.0
C79 C 0.17941 0.08783 0.47027 0.0
O80 O 0.18805 0.1239 0.47664 0.0
C81 C 0.37583 0.08616 0.46402 0.0
O82 O 0.37671 0.13106 0.4645 0.0
C83 C 0.29324 0.13139 0.48716 0.0
O84 O 0.30703 0.08876 0.48597 0.0
O85 O 0.27921 0.15286 0.47829 0.0
O86 O 0.2107 0.07324 0.46349 0.0
O87 O 0.27848 0.14686 0.44633 0.0
C88 C 0.24151 0.15484 0.44066 0.0
O89 O 0.2013 0.14581 0.44538 0.0
O90 O 0.33675 0.06634 0.46313 0.0
Mg91 Mg 0.91627 0.75222 0.71687 0.0
C92 C 0.86392 0.71782 0.69552 0.0
O93 O 0.86312 0.67921 0.70127 0.0
C94 C 0.84233 0.7272 0.73467 0.0
O95 O 0.83294 0.69412 0.7274 0.0
C96 C 0.93777 0.85087 0.71676 0.0
O97 O 0.89221 0.85005 0.71632 0.0
O98 O 0.95973 0.81301 0.71714 0.0
O99 O 0.8807 0.75325 0.7003 0.0
O100 O 0.95495 0.68816 0.71859 0.0
C101 C 0.97081 0.6657 0.71011 0.0
O102 O 0.96723 0.68314 0.69976 0.0
O103 O 0.8727 0.75674 0.73205 0.0
Mg104 Mg 0.78241 0.6172 0.83779 0.0
C105 C 0.86206 0.56111 0.82817 0.0
O106 O 0.83973 0.56998 0.81858 0.0
C107 C 0.69906 0.55524 0.83071 0.0
O108 O 0.72058 0.55065 0.82086 0.0
C109 C 0.75125 0.6646 0.81549 0.0
O110 O 0.71044 0.64864 0.81837 0.0
O111 O 0.78546 0.65911 0.8223 0.0
O112 O 0.84467 0.57452 0.83761 0.0
O113 O 0.78572 0.65548 0.85383 0.0
C114 C 0.74845 0.66758 0.85881 0.0
O115 O 0.70869 0.66147 0.85349 0.0
O116 O 0.71777 0.57858 0.83868 0.0
Mg117 Mg 0.39694 0.26318 0.08369 0.0
C118 C 0.34621 0.29451 0.10533 0.0
O119 O 0.35604 0.335 0.10118 0.0
C120 C 0.32033 0.2784 0.06478 0.0
O121 O 0.29346 0.29384 0.07301 0.0
C122 C 0.41784 0.16378 0.08296 0.0
O123 O 0.37228 0.16479 0.08244 0.0
O124 O 0.4396 0.20149 0.08357 0.0
O125 O 0.35595 0.25914 0.09942 0.0
O126 O 0.43883 0.32523 0.0842 0.0
C127 C 0.41987 0.36242 0.08091 0.0
O128 O 0.37659 0.36162 0.07734 0.0
O129 O 0.36078 0.26371 0.06722 0.0
Mg130 Mg 0.76752 0.89824 0.33092 0.0
C131 C 0.66682 0.91226 0.33188 0.0
O132 O 0.67334 0.86919 0.33468 0.0
C133 C 0.85886 0.94381 0.33741 0.0
O134 O 0.84743 0.92772 0.3475 0.0
C135 C 0.79185 0.85389 0.30841 0.0
O136 O 0.82417 0.88531 0.30901 0.0
O137 O 0.76462 0.84888 0.31687 0.0
O138 O 0.70211 0.93623 0.32934 0.0
O139 O 0.76618 0.8693 0.34824 0.0
C140 C 0.74779 0.89627 0.35552 0.0
O141 O 0.73353 0.93669 0.35204 0.0
O142 O 0.83087 0.93871 0.32903 0.0
Mg143 Mg 0.12703 0.24893 0.58352 0.0
C144 C 0.17407 0.28331 0.60548 0.0
O145 O 0.16899 0.32305 0.6004 0.0
C146 C 0.19777 0.21409 0.56645 0.0
O147 O 0.19911 0.18011 0.5738 0.0
C148 C 0.10369 0.34767 0.57952 0.0
O149 O 0.14742 0.34612 0.57641 0.0
O150 O 0.08427 0.31088 0.58277 0.0
O151 O 0.16229 0.24718 0.60014 0.0
O152 O 0.08748 0.18552 0.58251 0.0
C153 C 0.07024 0.1681 0.59151 0.0
O154 O 0.07331 0.19075 0.60122 0.0
O155 O 0.17251 0.24871 0.56867 0.0
Mg156 Mg 0.77921 0.89207 0.46452 0.0
C157 C 0.86108 0.94944 0.47263 0.0
O158 O 0.84046 0.94482 0.48258 0.0
C159 C 0.67813 0.9133 0.46647 0.0
O160 O 0.67783 0.86899 0.46456 0.0
C161 C 0.76843 0.85555 0.48836 0.0
O162 O 0.74131 0.89175 0.48869 0.0
O163 O 0.78803 0.84511 0.47893 0.0
O164 O 0.84216 0.93261 0.46371 0.0
O165 O 0.77171 0.86171 0.44745 0.0
C166 C 0.75188 0.8888 0.44042 0.0
O167 O 0.7384 0.92917 0.44411 0.0
O168 O 0.71701 0.93357 0.46726 0.0
Mg169 Mg 0.12554 0.25081 0.71225 0.0
C170 C 0.17332 0.28156 0.69062 0.0
O171 O 0.16596 0.32151 0.69548 0.0
C172 C 0.20034 0.28389 0.72896 0.0
O173 O 0.20904 0.31262 0.7206 0.0
C174 C 0.10545 0.1518 0.7142 0.0
O175 O 0.15103 0.15276 0.71409 0.0
O176 O 0.08325 0.18948 0.71359 0.0
O177 O 0.16277 0.24549 0.69608 0.0
O178 O 0.08548 0.3143 0.71125 0.0
C179 C 0.08115 0.341 0.71981 0.0
O180 O 0.09765 0.32814 0.72982 0.0
O181 O 0.16921 0.25376 0.72751 0.0
Mg182 Mg 0.77567 0.62137 0.96601 0.0
C183 C 0.67715 0.59873 0.9718 0.0
O184 O 0.68338 0.63695 0.97753 0.0
C185 C 0.86565 0.57392 0.95905 0.0
O186 O 0.85288 0.58952 0.94896 0.0
C187 C 0.79452 0.6535 0.99 0.0
O188 O 0.81949 0.61583 0.98964 0.0
O189 O 0.77359 0.66658 0.98093 0.0
O190 O 0.71098 0.58212 0.96613 0.0
O191 O 0.77913 0.65677 0.94958 0.0
C192 C 0.7426 0.66626 0.94389 0.0
O193 O 0.70195 0.6586 0.94854 0.0
O194 O 0.83884 0.57994 0.96757 0.0
Mg195 Mg 0.39111 0.24966 0.21165 0.0
C196 C 0.34045 0.2844 0.19035 0.0
O197 O 0.3456 0.32364 0.19569 0.0
C198 C 0.3147 0.22921 0.22973 0.0
O199 O 0.29593 0.20352 0.22172 0.0
C200 C 0.4168 0.34748 0.21577 0.0
O201 O 0.37495 0.34616 0.22017 0.0
O202 O 0.43402 0.31096 0.21158 0.0
O203 O 0.35305 0.24781 0.19539 0.0
O204 O 0.43262 0.1872 0.21243 0.0
C205 C 0.41266 0.14995 0.20972 0.0
O206 O 0.36904 0.15134 0.2064 0.0
O207 O 0.35107 0.25184 0.22747 0.0
H208 H 0.92197 0.96888 0.35379 0.0
H209 H 0.12626 0.01984 0.30937 0.0
H210 H 0.90301 0.96261 0.31709 0.0
H211 H 0.13429 0.0514 0.3455 0.0
H212 H 0.04621 0.99423 0.31204 0.0
H213 H 1.00111 0.99569 0.35091 0.0
C214 C 0.93434 0.97339 0.34511 0.0
C215 C 0.90569 0.96347 0.33567 0.0
C216 C 0.06554 0.00673 0.31938 0.0
C217 C 0.99681 0.99377 0.3323 0.0
C218 C 0.11136 0.02112 0.31788 0.0
C219 C 0.13716 0.03779 0.32723 0.0
C220 C 0.04543 0.00867 0.33032 0.0
C221 C 0.11582 0.03887 0.33803 0.0
C222 C 0.97963 0.98869 0.34347 0.0
C223 C 0.92375 0.97001 0.32462 0.0
N224 N 0.07135 0.02448 0.33927 0.0
N225 N 0.96823 0.98447 0.32324 0.0
H226 H 0.03582 0.63663 0.58394 0.0
H227 H 1.01067 0.36386 0.58299 0.0
H228 H 0.90414 0.56789 0.58089 0.0
H229 H 0.14007 0.43316 0.57687 0.0
H230 H 0.97129 0.43829 0.5838 0.0
H231 H 0.07518 0.5622 0.58293 0.0
C232 C 0.01519 0.60595 0.58306 0.0
C233 C 0.9666 0.60858 0.58248 0.0
C234 C 1.00829 0.43714 0.58225 0.0
C235 C 1.01137 0.52328 0.5814 0.0
C236 C 0.03079 0.39466 0.58181 0.0
C237 C 0.07874 0.39218 0.57984 0.0
C238 C 0.03399 0.4775 0.58085 0.0
C239 C 0.10303 0.43332 0.57837 0.0
C240 C 0.03767 0.56348 0.58246 0.0
C241 C 0.94166 0.56761 0.58133 0.0
N242 N 0.08047 0.4742 0.57895 0.0
N243 N 0.96427 0.52673 0.58088 0.0
H244 H 0.64864 0.55068 0.85052 0.0
H245 H 0.41612 0.46389 0.81975 0.0
H246 H 0.64045 0.51953 0.81437 0.0
H247 H 0.4352 0.46598 0.85648 0.0
H248 H 0.49596 0.4905 0.81746 0.0
H249 H 0.56867 0.52494 0.85272 0.0
C250 C 0.63012 0.53823 0.84304 0.0
C251 C 0.65144 0.5372 0.83224 0.0
C252 C 0.48261 0.48521 0.82602 0.0
C253 C 0.55942 0.5081 0.8347 0.0
C254 C 0.43692 0.47028 0.82734 0.0
C255 C 0.41885 0.46263 0.83833 0.0
C256 C 0.51041 0.49295 0.83575 0.0
C257 C 0.44761 0.4713 0.84784 0.0
C258 C 0.58439 0.52355 0.84431 0.0
C259 C 0.62557 0.52075 0.82287 0.0
N260 N 0.49186 0.486 0.84633 0.0
N261 N 0.58088 0.50708 0.82431 0.0
H262 H 0.38055 0.07805 0.08181 0.0
H263 H 0.62586 0.94847 0.08432 0.0
H264 H 0.51194 0.14786 0.084 0.0
H265 H 0.49443 0.87865 0.08236 0.0
H266 H 0.58481 0.02164 0.08401 0.0
H267 H 0.42165 1.00491 0.08182 0.0
C268 C 0.41809 0.07807 0.08229 0.0
C269 C 0.4428 0.1193 0.08291 0.0
C270 C 0.5649 0.99036 0.08364 0.0
C271 C 0.4902 0.0353 0.08293 0.0
C272 C 0.58833 0.94846 0.08381 0.0
C273 C 0.56358 0.90722 0.08337 0.0
C274 C 0.51624 0.99124 0.08303 0.0
C275 C 0.51496 0.90952 0.08272 0.0
C276 C 0.44155 0.03618 0.0823 0.0
C277 C 0.49143 0.117 0.08351 0.0
N278 N 0.49292 0.95079 0.08258 0.0
N279 N 0.5135 0.07574 0.08351 0.0
H280 H 0.14414 0.46964 0.94834 0.0
H281 H 0.90994 0.55133 0.97921 0.0
H282 H 0.13337 0.48972 0.98491 0.0
H283 H 0.92903 0.55161 0.94253 0.0
H284 H 0.9898 0.52376 0.98157 0.0
H285 H 0.06399 0.49569 0.94614 0.0
C286 C 0.12502 0.47972 0.95592 0.0
C287 C 0.14569 0.47754 0.96683 0.0
C288 C 0.97645 0.52975 0.973 0.0
C289 C 0.0534 0.50707 0.96437 0.0
C290 C 0.93074 0.54525 0.97165 0.0
C291 C 0.91267 0.55388 0.96065 0.0
C292 C 1.00428 0.52254 0.9633 0.0
C293 C 0.94142 0.54555 0.95117 0.0
C294 C 0.07915 0.49456 0.95465 0.0
C295 C 0.11901 0.491 0.97632 0.0
N296 N 0.98569 0.53041 0.95271 0.0
N297 N 0.07424 0.50501 0.97488 0.0
H298 H 0.50459 0.36356 0.20762 0.0
H299 H 0.49096 0.63449 0.21838 0.0
H300 H 0.38657 0.43187 0.22272 0.0
H301 H 0.61367 0.56462 0.20629 0.0
H302 H 0.45117 0.56085 0.21943 0.0
H303 H 0.54444 0.43717 0.20655 0.0
C304 C 0.48708 0.39397 0.21073 0.0
C305 C 0.44215 0.39145 0.21527 0.0
C306 C 0.48682 0.56164 0.21655 0.0
C307 C 0.48749 0.47593 0.21403 0.0
C308 C 0.50952 0.60372 0.21593 0.0
C309 C 0.55576 0.60581 0.21225 0.0
C310 C 0.51043 0.52132 0.21344 0.0
C311 C 0.57805 0.56473 0.20919 0.0
C312 C 0.50985 0.43602 0.21012 0.0
C313 C 0.42119 0.43207 0.21916 0.0
N314 N 0.5552 0.52427 0.20985 0.0
N315 N 0.44396 0.47255 0.21843 0.0
H316 H 0.38795 0.99284 0.46326 0.0
H317 H 0.66523 1.00596 0.46895 0.0
H318 H 0.46395 0.11913 0.46641 0.0
H319 H 0.5899 0.87967 0.4649 0.0
H320 H 0.59153 0.04782 0.46873 0.0
H321 H 0.46133 0.9505 0.46441 0.0
C322 C 0.42002 0.01167 0.46419 0.0
C323 C 0.41973 0.05964 0.46471 0.0
C324 C 0.59111 0.01093 0.46792 0.0
C325 C 0.5039 0.01139 0.46606 0.0
C326 C 0.63322 0.98699 0.46807 0.0
C327 C 0.63383 0.93921 0.46692 0.0
C328 C 0.54923 0.98696 0.46661 0.0
C329 C 0.59119 0.91649 0.4658 0.0
C330 C 0.46192 0.98748 0.46486 0.0
C331 C 0.46241 0.08219 0.46595 0.0
N332 N 0.5507 0.94055 0.46564 0.0
N333 N 0.50267 0.05792 0.46657 0.0
H334 H 0.14378 0.06622 0.7156 0.0
H335 H 0.89967 0.9366 0.71604 0.0
H336 H 1.01142 0.1358 0.71431 0.0
H337 H 0.03189 0.86673 0.71721 0.0
H338 H 0.94002 0.00968 0.71564 0.0
H339 H 0.10352 0.9931 0.71643 0.0
C340 C 0.10621 0.0662 0.7155 0.0
C341 C 0.08097 0.10736 0.71487 0.0
C342 C 0.96028 0.97842 0.71599 0.0
C343 C 0.03454 0.02337 0.71582 0.0
C344 C 0.93724 0.93656 0.71622 0.0
C345 C 0.9624 0.89531 0.71665 0.0
C346 C 1.00896 0.9793 0.71618 0.0
C347 C 1.01105 0.8976 0.71688 0.0
C348 C 0.08323 0.02432 0.71598 0.0
C349 C 0.03233 0.105 0.71478 0.0
N350 N 0.03272 0.93886 0.71663 0.0
N351 N 1.01073 0.06375 0.71524 0.0
H352 H 0.59062 0.87523 0.3419 0.0
H353 H 0.41337 0.07097 0.32239 0.0
H354 H 0.63489 0.99452 0.32324 0.0
H355 H 0.38644 0.9781 0.35027 0.0
H356 H 0.49146 0.03831 0.3206 0.0
H357 H 0.51268 0.90753 0.34306 0.0
C358 C 0.58396 0.90822 0.338 0.0
C359 C 0.61947 0.93221 0.33245 0.0
C360 C 0.4684 0.0251 0.32709 0.0
C361 C 0.52978 0.96934 0.33373 0.0
C362 C 0.42371 0.04349 0.32809 0.0
C363 C 0.39322 0.02724 0.33651 0.0
C364 C 0.48254 0.98973 0.33446 0.0
C365 C 0.40871 0.99177 0.34368 0.0
C366 C 0.53938 0.9267 0.33871 0.0
C367 C 0.60862 0.97492 0.32762 0.0
N368 N 0.45217 0.97412 0.34246 0.0
N369 N 0.56464 0.99206 0.32832 0.0
H370 H 0.9251 0.9191 0.60831 0.0
H371 H 0.0752 0.10354 0.57436 0.0
H372 H 1.00812 0.88343 0.57889 0.0
H373 H 0.02079 0.12566 0.60834 0.0
H374 H 0.04587 0.02494 0.57487 0.0
H375 H 0.95545 0.99667 0.60756 0.0
C376 C 0.94989 0.92752 0.6017 0.0
C377 C 0.96408 0.8946 0.59365 0.0
C378 C 0.04036 0.04707 0.58219 0.0
C379 C 0.99877 0.98395 0.59268 0.0
C380 C 0.05681 0.09203 0.58189 0.0
C381 C 0.05042 0.12134 0.59132 0.0
C382 C 0.01691 0.03143 0.59195 0.0
C383 C 0.0266 0.10438 0.60087 0.0
C384 C 0.96726 0.97192 0.60129 0.0
C385 C 0.99639 0.90764 0.5853 0.0
N386 N 1.01067 0.0607 0.60093 0.0
N387 N 1.01244 0.95141 0.58498 0.0
H388 H 0.14836 0.48377 0.84234 0.0
H389 H 0.90541 0.52107 0.80988 0.0
H390 H 0.11621 0.42709 0.80906 0.0
H391 H 0.92594 0.55349 0.84566 0.0
H392 H 0.98441 0.49074 0.80912 0.0
H393 H 0.06922 0.5149 0.84333 0.0
C394 C 0.12485 0.47818 0.83521 0.0
C395 C 0.13899 0.45274 0.82561 0.0
C396 C 0.97163 0.50431 0.81716 0.0
C397 C 0.04843 0.48806 0.8267 0.0
C398 C 0.92643 0.52162 0.8176 0.0
C399 C 0.90889 0.53983 0.82785 0.0
C400 C 0.99987 0.50552 0.82701 0.0
C401 C 0.9379 0.53961 0.83758 0.0
C402 C 0.0796 0.49571 0.83581 0.0
C403 C 0.10689 0.44634 0.81665 0.0
N404 N 0.98202 0.52297 0.83691 0.0
N405 N 0.06327 0.46387 0.81742 0.0
H406 H 0.49289 0.64985 0.08326 0.0
H407 H 0.51299 0.3765 0.08463 0.0
H408 H 0.62286 0.57695 0.08022 0.0
H409 H 0.38448 0.44861 0.07819 0.0
H410 H 0.55362 0.44993 0.08505 0.0
H411 H 0.45212 0.57647 0.08341 0.0
C412 C 0.51285 0.61847 0.08264 0.0
C413 C 0.56135 0.61959 0.08169 0.0
C414 C 0.51652 0.44961 0.08354 0.0
C415 C 0.515 0.53556 0.08193 0.0
C416 C 0.49331 0.40773 0.08333 0.0
C417 C 0.44528 0.40635 0.08133 0.0
C418 C 0.49147 0.49046 0.08187 0.0
C419 C 0.42156 0.44796 0.07969 0.0
C420 C 0.48957 0.57661 0.0827 0.0
C421 C 0.58542 0.57779 0.08091 0.0
N422 N 0.44484 0.48826 0.08003 0.0
N423 N 0.56204 0.53754 0.08108 0.0
H424 H 0.42333 0.45845 0.95238 0.0
H425 H 0.60382 0.61803 0.9857 0.0
H426 H 0.39737 0.51615 0.98585 0.0
H427 H 0.64385 0.53148 0.95737 0.0
H428 H 0.52593 0.58602 0.98486 0.0
H429 H 0.50172 0.49047 0.95295 0.0
C430 C 0.43394 0.47814 0.95981 0.0
C431 C 0.40364 0.4846 0.96909 0.0
C432 C 0.55173 0.57383 0.97885 0.0
C433 C 0.49339 0.52127 0.96978 0.0
C434 C 0.5963 0.59214 0.97931 0.0
C435 C 0.63056 0.57738 0.9716 0.0
C436 C 0.54089 0.54076 0.97053 0.0
C437 C 0.61863 0.54369 0.96352 0.0
C438 C 0.47881 0.49615 0.96015 0.0
C439 C 0.41948 0.51019 0.97851 0.0
N440 N 0.57469 0.52669 0.96315 0.0
N441 N 0.46314 0.52764 0.9786 0.0
H442 H 0.61148 0.93269 0.22305 0.0
H443 H 0.37982 0.06521 0.20403 0.0
H444 H 0.49244 0.86559 0.20815 0.0
H445 H 0.50161 0.13289 0.21729 0.0
H446 H 0.42001 0.99185 0.20572 0.0
H447 H 0.57122 1.00597 0.22134 0.0
C448 C 0.5768 0.93329 0.21944 0.0
C449 C 0.55534 0.89278 0.21574 0.0
C450 C 0.43801 0.02271 0.20825 0.0
C451 C 0.50894 0.97695 0.21374 0.0
C452 C 0.41507 0.06472 0.20728 0.0
C453 C 0.43734 0.10541 0.21052 0.0
C454 C 0.48362 0.02117 0.21252 0.0
C455 C 0.48306 0.10247 0.21468 0.0
C456 C 0.55384 0.97526 0.21845 0.0
C457 C 0.51035 0.89587 0.21112 0.0
N458 N 0.50463 0.06111 0.21557 0.0
N459 N 0.48868 0.9372 0.21025 0.0
H460 H 0.92071 0.95044 0.45436 0.0
H461 H 0.11236 0.10118 0.48637 0.0
H462 H 0.90745 0.99704 0.48934 0.0
H463 H 0.14068 0.0256 0.45533 0.0
H464 H 0.03487 0.06812 0.48684 0.0
H465 H 0.99869 0.9831 0.45375 0.0
C466 C 0.93405 0.96776 0.46189 0.0
C467 C 0.90743 0.97099 0.47193 0.0
C468 C 0.05803 0.0586 0.47995 0.0
C469 C 0.99672 0.0084 0.47126 0.0
C470 C 0.10233 0.07752 0.47965 0.0
C471 C 0.13313 0.06613 0.47079 0.0
C472 C 0.04402 0.02836 0.47125 0.0
C473 C 0.11814 0.03518 0.46235 0.0
C474 C 0.97868 0.98617 0.46155 0.0
C475 C 0.92668 0.99365 0.48143 0.0
N476 N 0.07453 0.01755 0.46275 0.0
N477 N 0.97005 0.01156 0.48085 0.0
H478 H 0.05552 0.38363 0.69979 0.0
H479 H 0.98615 0.62001 0.73031 0.0
H480 H 0.06413 0.40562 0.73635 0.0
H481 H 0.9959 0.60342 0.69362 0.0
H482 H 1.01157 0.5407 0.73273 0.0
H483 H 0.02933 0.46274 0.69741 0.0
C484 C 0.05157 0.40494 0.70733 0.0
C485 C 0.06207 0.38785 0.71829 0.0
C486 C 1.00831 0.55444 0.72415 0.0
C487 C 0.03233 0.47872 0.71561 0.0
C488 C 0.99386 0.5998 0.72276 0.0
C489 C 0.98892 0.61854 0.71174 0.0
C490 C 0.01764 0.52737 0.71446 0.0
C491 C 0.99934 0.59057 0.70228 0.0
C492 C 0.03684 0.45023 0.70596 0.0
C493 C 0.05649 0.41725 0.72773 0.0
N494 N 1.01302 0.54641 0.70385 0.0
N495 N 0.04205 0.46117 0.72618 0.0
H496 H 0.16731 0.18566 0.36943 0.0
H497 H 0.31849 0.16159 0.4269 0.0
H498 H 0.31499 0.16041 0.36956 0.0
H499 H 0.16936 0.17566 0.42619 0.0
H500 H 0.31971 0.17202 0.40608 0.0
H501 H 0.16946 0.19313 0.39026 0.0
C502 C 0.20034 0.18219 0.37381 0.0
C503 C 0.24096 0.17195 0.3677 0.0
C504 C 0.28678 0.17329 0.4105 0.0
C505 C 0.24359 0.18013 0.39168 0.0
C506 C 0.28605 0.16751 0.42241 0.0
C507 C 0.24369 0.16731 0.42833 0.0
C508 C 0.24487 0.17901 0.40445 0.0
C509 C 0.20281 0.17516 0.42201 0.0
C510 C 0.20151 0.18637 0.38574 0.0
C511 C 0.28275 0.1681 0.3739 0.0
N512 N 0.20441 0.18033 0.41044 0.0
N513 N 0.28291 0.17176 0.38554 0.0
H514 H 0.86475 0.78939 0.62364 0.0
H515 H 0.84131 0.6453 0.68167 0.0
H516 H 0.86443 0.64189 0.62504 0.0
H517 H 0.86379 0.79111 0.68083 0.0
H518 H 0.83574 0.64493 0.66075 0.0
H519 H 0.85072 0.79181 0.64432 0.0
C520 C 0.86109 0.7575 0.62825 0.0
C521 C 0.86625 0.71535 0.62259 0.0
C522 C 0.84141 0.6771 0.66515 0.0
C523 C 0.85036 0.71792 0.64629 0.0
C524 C 0.8444 0.67738 0.67711 0.0
C525 C 0.85352 0.71823 0.68304 0.0
C526 C 0.8475 0.71796 0.65903 0.0
C527 C 0.85711 0.75872 0.67663 0.0
C528 C 0.85325 0.75893 0.64007 0.0
C529 C 0.86114 0.67517 0.62904 0.0
N530 N 0.85449 0.7575 0.66499 0.0
N531 N 0.85381 0.67746 0.64053 0.0
H532 H 0.17142 0.33213 0.86778 0.0
H533 H 0.32178 0.34257 0.92552 0.0
H534 H 0.32051 0.34534 0.86839 0.0
H535 H 0.17226 0.33509 0.9246 0.0
H536 H 0.32309 0.3322 0.9047 0.0
H537 H 0.17229 0.32181 0.88854 0.0
C538 C 0.20444 0.3323 0.87225 0.0
C539 C 0.24591 0.34012 0.86631 0.0
C540 C 0.29003 0.33229 0.90907 0.0
C541 C 0.24711 0.32869 0.89019 0.0
C542 C 0.28924 0.33806 0.92098 0.0
C543 C 0.24679 0.34024 0.92683 0.0
C544 C 0.24807 0.32873 0.90295 0.0
C545 C 0.2058 0.33406 0.92047 0.0
C546 C 0.2049 0.32648 0.88414 0.0
C547 C 0.28765 0.33969 0.8726 0.0
N548 N 0.20745 0.32905 0.90888 0.0
N549 N 0.28713 0.33461 0.88419 0.0
H550 H 0.66933 0.66699 0.12314 0.0
H551 H 0.66703 0.8448 0.17518 0.0
H552 H 0.66756 0.81356 0.11877 0.0
H553 H 0.6667 0.6982 0.17949 0.0
H554 H 0.6788 0.83407 0.15462 0.0
H555 H 0.67994 0.67783 0.14374 0.0
C556 C 0.67178 0.70149 0.12648 0.0
C557 C 0.66694 0.73943 0.1192 0.0
C558 C 0.67671 0.80424 0.16008 0.0
C559 C 0.67871 0.75209 0.14287 0.0
C560 C 0.67007 0.81033 0.17184 0.0
C561 C 0.66526 0.77235 0.17908 0.0
C562 C 0.67837 0.75981 0.15548 0.0
C563 C 0.66981 0.72852 0.17424 0.0
C564 C 0.67777 0.70765 0.13827 0.0
C565 C 0.67074 0.78329 0.12405 0.0
N566 N 0.67556 0.72347 0.16274 0.0
N567 N 0.67585 0.7884 0.13558 0.0
H568 H 0.67487 0.69232 0.87228 0.0
H569 H 0.82067 0.6737 0.9306 0.0
H570 H 0.82323 0.67178 0.8735 0.0
H571 H 0.67155 0.68713 0.92908 0.0
H572 H 0.82375 0.68438 0.90983 0.0
H573 H 0.67466 0.70219 0.89307 0.0
C574 C 0.70754 0.69048 0.87689 0.0
C575 C 0.74907 0.68065 0.87112 0.0
C576 C 0.7904 0.6855 0.91405 0.0
C577 C 0.74899 0.69152 0.89501 0.0
C578 C 0.78861 0.67953 0.92594 0.0
C579 C 0.74571 0.67902 0.93161 0.0
C580 C 0.74902 0.69097 0.90777 0.0
C581 C 0.70537 0.68685 0.92509 0.0
C582 C 0.70737 0.69602 0.88879 0.0
C583 C 0.79033 0.67898 0.87758 0.0
N584 N 0.70798 0.69206 0.91353 0.0
N585 N 0.78917 0.68382 0.88918 0.0
H586 H 0.31327 0.35648 0.17691 0.0
H587 H 0.33883 0.2163 0.11828 0.0
H588 H 0.33956 0.21113 0.17549 0.0
H589 H 0.32173 0.36284 0.12023 0.0
H590 H 0.32696 0.21171 0.13902 0.0
H591 H 0.30398 0.3572 0.15611 0.0
C592 C 0.31651 0.32455 0.17225 0.0
C593 C 0.32776 0.28377 0.17799 0.0
C594 C 0.32525 0.2448 0.13489 0.0
C595 C 0.31755 0.28444 0.15405 0.0
C596 C 0.33184 0.24745 0.12302 0.0
C597 C 0.33181 0.2901 0.11749 0.0
C598 C 0.31853 0.28508 0.14128 0.0
C599 C 0.32253 0.32925 0.12411 0.0
C600 C 0.31129 0.32502 0.16034 0.0
C601 C 0.3312 0.24344 0.17145 0.0
N602 N 0.31672 0.32582 0.13564 0.0
N603 N 0.32664 0.24489 0.15983 0.0
H604 H 0.68298 0.92859 0.3701 0.0
H605 H 0.80251 0.82906 0.42688 0.0
H606 H 0.80052 0.83694 0.36874 0.0
H607 H 0.68757 0.92403 0.42596 0.0
H608 H 0.79719 0.82169 0.40584 0.0
H609 H 0.67856 0.91721 0.39066 0.0
C610 C 0.70779 0.90576 0.37416 0.0
C611 C 0.74252 0.88413 0.36774 0.0
C612 C 0.77281 0.84361 0.4103 0.0
C613 C 0.7382 0.87131 0.39148 0.0
C614 C 0.77569 0.84764 0.42228 0.0
C615 C 0.74578 0.87763 0.42813 0.0
C616 C 0.73957 0.86951 0.40423 0.0
C617 C 0.71179 0.90103 0.42179 0.0
C618 C 0.70526 0.8992 0.38593 0.0
C619 C 0.77329 0.85435 0.37342 0.0
N620 N 0.70985 0.89668 0.41023 0.0
N621 N 0.77087 0.84929 0.38504 0.0
H622 H 0.17927 0.20551 0.67679 0.0
H623 H 0.19975 0.354 0.61955 0.0
H624 H 0.19605 0.35212 0.67634 0.0
H625 H 0.17616 0.20832 0.61966 0.0
H626 H 0.20984 0.35201 0.64033 0.0
H627 H 0.18946 0.20405 0.65598 0.0
C628 C 0.18577 0.23733 0.67236 0.0
C629 C 0.18627 0.27908 0.67834 0.0
C630 C 0.20293 0.32036 0.63581 0.0
C631 C 0.19762 0.27766 0.65447 0.0
C632 C 0.19723 0.32145 0.62391 0.0
C633 C 0.18658 0.28134 0.61783 0.0
C634 C 0.19776 0.27889 0.64172 0.0
C635 C 0.18405 0.24016 0.62398 0.0
C636 C 0.19143 0.23648 0.66046 0.0
C637 C 0.19495 0.31917 0.67211 0.0
N638 N 0.1891 0.24008 0.63559 0.0
N639 N 0.19983 0.3175 0.66052 0.0
H640 H 0.30993 0.21515 0.3034 0.0
H641 H 0.23612 0.18756 0.23786 0.0
H642 H 0.17598 0.16429 0.29286 0.0
H643 H 0.35363 0.26758 0.24893 0.0
H644 H 0.2124 0.18001 0.25789 0.0
H645 H 0.32559 0.23646 0.28353 0.0
C646 C 0.28355 0.20898 0.29694 0.0
C647 C 0.24167 0.18764 0.29981 0.0
C648 C 0.24311 0.19961 0.25592 0.0
C649 C 0.2597 0.21133 0.27698 0.0
C650 C 0.25672 0.20389 0.24447 0.0
C651 C 0.29713 0.22797 0.24168 0.0
C652 C 0.27039 0.2191 0.26467 0.0
C653 C 0.32233 0.24852 0.25065 0.0
C654 C 0.29253 0.22113 0.28558 0.0
C655 C 0.20877 0.1806 0.29106 0.0
N656 N 0.30884 0.24321 0.26172 0.0
N657 N 0.21872 0.19186 0.28003 0.0
H658 H 0.72841 0.8664 0.5094 0.0
H659 H 0.92346 0.72113 0.542 0.0
H660 H 0.83593 0.79028 0.49204 0.0
H661 H 0.81136 0.79052 0.55933 0.0
H662 H 0.88812 0.74081 0.52361 0.0
H663 H 0.75416 0.83369 0.52759 0.0
C664 C 0.75718 0.84242 0.50938 0.0
C665 C 0.78029 0.83139 0.49916 0.0
C666 C 0.87097 0.75144 0.53142 0.0
C667 C 0.81025 0.79401 0.52006 0.0
C668 C 0.89117 0.74023 0.54195 0.0
C669 C 0.87058 0.75455 0.55225 0.0
C670 C 0.82995 0.7775 0.53113 0.0
C671 C 0.82855 0.77891 0.55162 0.0
C672 C 0.77188 0.82376 0.5198 0.0
C673 C 0.81715 0.79989 0.4997 0.0
N674 N 0.80987 0.78999 0.54124 0.0
N675 N 0.83127 0.78269 0.50998 0.0
H676 H 0.26859 0.34416 0.7351 0.0
H677 H 0.24247 0.29809 0.80238 0.0
H678 H 0.18105 0.23868 0.74898 0.0
H679 H 0.33398 0.39883 0.78788 0.0
H680 H 0.22454 0.27085 0.78297 0.0
H681 H 0.2979 0.3598 0.75438 0.0
C682 C 0.25582 0.32397 0.74218 0.0
C683 C 0.22202 0.29029 0.74041 0.0
C684 C 0.2489 0.29861 0.78405 0.0
C685 C 0.25521 0.30831 0.76259 0.0
C686 C 0.25925 0.31408 0.79514 0.0
C687 C 0.28947 0.35108 0.79677 0.0
C688 C 0.26885 0.32035 0.77454 0.0
C689 C 0.31015 0.37049 0.78705 0.0
C690 C 0.27256 0.33294 0.75321 0.0
C691 C 0.20696 0.26511 0.74994 0.0
N692 N 0.29919 0.35517 0.77639 0.0
N693 N 0.22332 0.27492 0.76062 0.0
H694 H 0.73147 0.72143 0.99504 0.0
H695 H 0.77387 0.70154 0.06281 0.0
H696 H 0.83754 0.63667 1.0105 0.0
H697 H 0.66001 0.77653 0.04754 0.0
H698 H 0.8042 0.68613 0.04363 0.0
H699 H 0.71157 0.75075 1.01408 0.0
C700 C 0.75102 0.70945 1.00241 0.0
C701 C 0.78596 0.67621 1.00117 0.0
C702 C 0.77278 0.70629 0.04448 0.0
C703 C 0.76313 0.70937 1.023 0.0
C704 C 0.75549 0.71519 0.05544 0.0
C705 C 0.71406 0.73999 0.05681 0.0
C706 C 0.74851 0.72229 0.03479 0.0
C707 C 0.69185 0.75691 0.04692 0.0
C708 C 0.73951 0.72607 1.01329 0.0
C709 C 0.81007 0.66195 1.01104 0.0
N710 N 0.70915 0.74748 0.03635 0.0
N711 N 0.79798 0.67833 1.02153 0.0
H712 H 0.23697 0.30858 0.05586 0.0
H713 H 0.33143 0.31721 0.99163 0.0
H714 H 0.37156 0.2576 0.04576 0.0
H715 H 0.18796 0.34221 1.00015 0.0
H716 H 0.34617 0.29438 1.01145 0.0
H717 H 0.21749 0.32037 0.03559 0.0
C718 C 0.26228 0.29952 0.0494 0.0
C719 C 0.30608 0.28231 0.05256 0.0
C720 C 0.31134 0.30446 1.00898 0.0
C721 C 0.28415 0.29607 0.02934 0.0
C722 C 0.3029 0.31752 0.99764 0.0
C723 C 0.25841 0.33182 0.99421 0.0
C724 C 0.27521 0.30617 1.01702 0.0
C725 C 0.2228 0.33142 1.0024 0.0
C726 C 0.25113 0.30625 0.03782 0.0
C727 C 0.33743 0.27112 0.04378 0.0
N728 N 0.23206 0.31927 1.01345 0.0
N729 N 0.326 0.27854 0.03262 0.0
H730 H 0.84291 0.85805 0.28873 0.0
H731 H 0.64816 0.73608 0.2506 0.0
H732 H 0.71934 0.79727 0.30272 0.0
H733 H 0.76889 0.80178 0.2365 0.0
H734 H 0.67848 0.74984 0.26986 0.0
H735 H 0.82143 0.82898 0.26981 0.0
C736 C 0.81152 0.83808 0.28786 0.0
C737 C 0.78264 0.83053 0.29733 0.0
C738 C 0.69856 0.76093 0.26256 0.0
C739 C 0.75761 0.79741 0.27561 0.0
C740 C 0.68127 0.75308 0.25154 0.0
C741 C 0.70578 0.7682 0.24188 0.0
C742 C 0.74068 0.78422 0.264 0.0
C743 C 0.74864 0.78976 0.24367 0.0
C744 C 0.79923 0.82158 0.27703 0.0
C745 C 0.74256 0.80416 0.29567 0.0
N746 N 0.76452 0.79745 0.25451 0.0
N747 N 0.73101 0.78897 0.285 0.0
H748 H 0.32888 0.09721 0.50705 0.0
H749 H 0.18869 0.26978 0.54759 0.0
H750 H 0.24663 0.20945 0.49397 0.0
H751 H 0.25768 0.14707 0.55934 0.0
H752 H 0.21892 0.25562 0.5283 0.0
H753 H 0.31287 0.12277 0.52651 0.0
C754 C 0.30778 0.12758 0.50826 0.0
C755 C 0.28866 0.15093 0.49884 0.0
C756 C 0.22779 0.23208 0.53513 0.0
C757 C 0.26979 0.18029 0.52123 0.0
C758 C 0.21068 0.24019 0.54616 0.0
C759 C 0.2203 0.20931 0.5551 0.0
C760 C 0.2549 0.19293 0.53302 0.0
C761 C 0.24901 0.1716 0.55272 0.0
C762 C 0.29858 0.14213 0.51941 0.0
C763 C 0.26196 0.19033 0.50098 0.0
N764 N 0.265 0.16436 0.54192 0.0
N765 N 0.2529 0.20352 0.51196 0.0
H766 H 0.87169 0.77524 0.75353 0.0
H767 H 0.69411 0.65723 0.79676 0.0
H768 H 0.7694 0.67663 0.7427 0.0
H769 H 0.82642 0.71171 0.80741 0.0
H770 H 0.71162 0.67857 0.77696 0.0
H771 H 0.84541 0.76651 0.77332 0.0
C772 C 0.84326 0.75222 0.75527 0.0
C773 C 0.82294 0.72634 0.74643 0.0
C774 C 0.73658 0.68621 0.78366 0.0
C775 C 0.7927 0.71637 0.76909 0.0
C776 C 0.72654 0.6743 0.79498 0.0
C777 C 0.75899 0.68245 0.80376 0.0
C778 C 0.77909 0.707 0.78112 0.0
C779 C 0.80052 0.70452 0.8009 0.0
C780 C 0.82848 0.74712 0.76659 0.0
C781 C 0.78629 0.69701 0.74924 0.0
N782 N 0.80942 0.71594 0.78983 0.0
N783 N 0.77241 0.69273 0.76033 0.0
loop_
_geom_bond_atom_site_label_1
_geom_bond_atom_site_label_2
_geom_bond_distance
_geom_bond_site_symmetry_2
_ccdc_geom_bond_type
Mg0 O7 2.141 . S
Mg0 O8 2.048 . S
Mg0 O9 2.048 . S
Mg0 O12 2.141 . S
C1 O2 1.313 . S
C1 O8 1.195 . S
O2 C1 1.313 . S
C3 O4 1.245 . S
C3 O12 1.289 . S
O4 C3 1.245 . S
C5 O6 1.245 . S
C5 O7 1.289 . S
O6 C5 1.245 . S
O7 Mg0 2.141 . S
O7 C5 1.289 . S
O8 Mg0 2.048 . S
O8 C1 1.195 . S
O9 Mg0 2.048 . S
O9 C10 1.195 . S
C10 O9 1.195 . S
C10 O11 1.313 . S
O11 C10 1.313 . S
O12 Mg0 2.141 . S
O12 C3 1.289 . S
Mg13 O20 2.141 . S
Mg13 O21 2.048 . S
Mg13 O22 2.048 . S
Mg13 O25 2.141 . S
C14 O15 1.313 . S
C14 O21 1.195 . S
O15 C14 1.313 . S
C16 O17 1.245 . S
C16 O25 1.289 . S
O17 C16 1.245 . S
C18 O19 1.245 . S
C18 O20 1.289 . S
O19 C18 1.245 . S
O20 Mg13 2.141 . S
O20 C18 1.289 . S
O21 Mg13 2.048 . S
O21 C14 1.195 . S
O22 Mg13 2.048 . S
O22 C23 1.195 . S
C23 O22 1.195 . S
C23 O24 1.313 . S
O24 C23 1.313 . S
O25 Mg13 2.141 . S
O25 C16 1.289 . S
Mg26 O33 2.141 . S
Mg26 O34 2.048 . S
Mg26 O35 2.048 . S
Mg26 O38 2.141 . S
C27 O28 1.313 . S
C27 O34 1.195 . S
O28 C27 1.313 . S
C29 O30 1.245 . S
C29 O38 1.289 . S
O30 C29 1.245 . S
C31 O32 1.245 . S
C31 O33 1.289 . S
O32 C31 1.245 . S
O33 Mg26 2.141 . S
O33 C31 1.289 . S
O34 Mg26 2.048 . S
O34 C27 1.195 . S
O35 Mg26 2.048 . S
O35 C36 1.195 . S
C36 O35 1.195 . S
C36 O37 1.313 . S
O37 C36 1.313 . S
O38 Mg26 2.141 . S
O38 C29 1.289 . S
Mg39 O46 2.141 . S
Mg39 O47 2.048 . S
Mg39 O48 2.048 . S
Mg39 O51 2.141 . S
C40 O41 1.313 . S
C40 O47 1.195 . S
O41 C40 1.313 . S
C42 O43 1.245 . S
C42 O51 1.289 . S
O43 C42 1.245 . S
C44 O45 1.245 . S
C44 O46 1.289 . S
O45 C44 1.245 . S
O46 Mg39 2.141 . S
O46 C44 1.289 . S
O47 Mg39 2.048 . S
O47 C40 1.195 . S
O48 Mg39 2.048 . S
O48 C49 1.195 . S
C49 O48 1.195 . S
C49 O50 1.313 . S
O50 C49 1.313 . S
O51 Mg39 2.141 . S
O51 C42 1.289 . S
Mg52 O59 2.141 . S
Mg52 O60 2.048 . S
Mg52 O61 2.048 . S
Mg52 O64 2.141 . S
C53 O54 1.313 . S
C53 O60 1.195 . S
O54 C53 1.313 . S
C55 O56 1.245 . S
C55 O64 1.289 . S
O56 C55 1.245 . S
C57 O58 1.245 . S
C57 O59 1.289 . S
O58 C57 1.245 . S
O59 Mg52 2.141 . S
O59 C57 1.289 . S
O60 Mg52 2.048 . S
O60 C53 1.195 . S
O61 Mg52 2.048 . S
O61 C62 1.195 . S
C62 O61 1.195 . S
C62 O63 1.313 . S
O63 C62 1.313 . S
O64 Mg52 2.141 . S
O64 C55 1.289 . S
Mg65 O72 2.141 . S
Mg65 O73 2.048 . S
Mg65 O74 2.048 . S
Mg65 O77 2.141 . S
C66 O67 1.313 . S
C66 O73 1.195 . S
O67 C66 1.313 . S
C68 O69 1.245 . S
C68 O77 1.289 . S
O69 C68 1.245 . S
C70 O71 1.245 . S
C70 O72 1.289 . S
O71 C70 1.245 . S
O72 Mg65 2.141 . S
O72 C70 1.289 . S
O73 Mg65 2.048 . S
O73 C66 1.195 . S
O74 Mg65 2.048 . S
O74 C75 1.195 . S
C75 O74 1.195 . S
C75 O76 1.313 . S
O76 C75 1.313 . S
O77 Mg65 2.141 . S
O77 C68 1.289 . S
Mg78 O85 2.141 . S
Mg78 O86 2.048 . S
Mg78 O87 2.048 . S
Mg78 O90 2.141 . S
C79 O80 1.313 . S
C79 O86 1.195 . S
O80 C79 1.313 . S
C81 O82 1.245 . S
C81 O90 1.289 . S
O82 C81 1.245 . S
C83 O84 1.245 . S
C83 O85 1.289 . S
O84 C83 1.245 . S
O85 Mg78 2.141 . S
O85 C83 1.289 . S
O86 Mg78 2.048 . S
O86 C79 1.195 . S
O87 Mg78 2.048 . S
O87 C88 1.195 . S
C88 O87 1.195 . S
C88 O89 1.313 . S
O89 C88 1.313 . S
O90 Mg78 2.141 . S
O90 C81 1.289 . S
Mg91 O98 2.141 . S
Mg91 O99 2.048 . S
Mg91 O100 2.048 . S
Mg91 O103 2.141 . S
C92 O93 1.313 . S
C92 O99 1.195 . S
O93 C92 1.313 . S
C94 O95 1.245 . S
C94 O103 1.289 . S
O95 C94 1.245 . S
C96 O97 1.245 . S
C96 O98 1.289 . S
O97 C96 1.245 . S
O98 Mg91 2.141 . S
O98 C96 1.289 . S
O99 Mg91 2.048 . S
O99 C92 1.195 . S
O100 Mg91 2.048 . S
O100 C101 1.195 . S
C101 O100 1.195 . S
C101 O102 1.313 . S
O102 C101 1.313 . S
O103 Mg91 2.141 . S
O103 C94 1.289 . S
Mg104 O111 2.141 . S
Mg104 O112 2.048 . S
Mg104 O113 2.048 . S
Mg104 O116 2.141 . S
C105 O106 1.313 . S
C105 O112 1.195 . S
O106 C105 1.313 . S
C107 O108 1.245 . S
C107 O116 1.289 . S
O108 C107 1.245 . S
C109 O110 1.245 . S
C109 O111 1.289 . S
O110 C109 1.245 . S
O111 Mg104 2.141 . S
O111 C109 1.289 . S
O112 Mg104 2.048 . S
O112 C105 1.195 . S
O113 Mg104 2.048 . S
O113 C114 1.195 . S
C114 O113 1.195 . S
C114 O115 1.313 . S
O115 C114 1.313 . S
O116 Mg104 2.141 . S
O116 C107 1.289 . S
Mg117 O124 2.141 . S
Mg117 O125 2.048 . S
Mg117 O126 2.048 . S
Mg117 O129 2.141 . S
C118 O119 1.313 . S
C118 O125 1.195 . S
O119 C118 1.313 . S
C120 O121 1.245 . S
C120 O129 1.289 . S
O121 C120 1.245 . S
C122 O123 1.245 . S
C122 O124 1.289 . S
O123 C122 1.245 . S
O124 Mg117 2.141 . S
O124 C122 1.289 . S
O125 Mg117 2.048 . S
O125 C118 1.195 . S
O126 Mg117 2.048 . S
O126 C127 1.195 . S
C127 O126 1.195 . S
C127 O128 1.313 . S
O128 C127 1.313 . S
O129 Mg117 2.141 . S
O129 C120 1.289 . S
Mg130 O137 2.141 . S
Mg130 O138 2.048 . S
Mg130 O139 2.048 . S
Mg130 O142 2.141 . S
C131 O132 1.313 . S
C131 O138 1.195 . S
O132 C131 1.313 . S
C133 O134 1.245 . S
C133 O142 1.289 . S
O134 C133 1.245 . S
C135 O136 1.245 . S
C135 O137 1.289 . S
O136 C135 1.245 . S
O137 Mg130 2.141 . S
O137 C135 1.289 . S
O138 Mg130 2.048 . S
O138 C131 1.195 . S
O139 Mg130 2.048 . S
O139 C140 1.195 . S
C140 O139 1.195 . S
C140 O141 1.313 . S
O141 C140 1.313 . S
O142 Mg130 2.141 . S
O142 C133 1.289 . S
Mg143 O150 2.141 . S
Mg143 O151 2.048 . S
Mg143 O152 2.048 . S
Mg143 O155 2.141 . S
C144 O145 1.313 . S
C144 O151 1.195 . S
O145 C144 1.313 . S
C146 O147 1.245 . S
C146 O155 1.289 . S
O147 C146 1.245 . S
C148 O149 1.245 . S
C148 O150 1.289 . S
O149 C148 1.245 . S
O150 Mg143 2.141 . S
O150 C148 1.289 . S
O151 Mg143 2.048 . S
O151 C144 1.195 . S
O152 Mg143 2.048 . S
O152 C153 1.195 . S
C153 O152 1.195 . S
C153 O154 1.313 . S
O154 C153 1.313 . S
O155 Mg143 2.141 . S
O155 C146 1.289 . S
Mg156 O163 2.141 . S
Mg156 O164 2.048 . S
Mg156 O165 2.048 . S
Mg156 O168 2.141 . S
C157 O158 1.313 . S
C157 O164 1.195 . S
O158 C157 1.313 . S
C159 O160 1.245 . S
C159 O168 1.289 . S
O160 C159 1.245 . S
C161 O162 1.245 . S
C161 O163 1.289 . S
O162 C161 1.245 . S
O163 Mg156 2.141 . S
O163 C161 1.289 . S
O164 Mg156 2.048 . S
O164 C157 1.195 . S
O165 Mg156 2.048 . S
O165 C166 1.195 . S
C166 O165 1.195 . S
C166 O167 1.313 . S
O167 C166 1.313 . S
O168 Mg156 2.141 . S
O168 C159 1.289 . S
Mg169 O176 2.141 . S
Mg169 O177 2.048 . S
Mg169 O178 2.048 . S
Mg169 O181 2.141 . S
C170 O171 1.313 . S
C170 O177 1.195 . S
O171 C170 1.313 . S
C172 O173 1.245 . S
C172 O181 1.289 . S
O173 C172 1.245 . S
C174 O175 1.245 . S
C174 O176 1.289 . S
O175 C174 1.245 . S
O176 Mg169 2.141 . S
O176 C174 1.289 . S
O177 Mg169 2.048 . S
O177 C170 1.195 . S
O178 Mg169 2.048 . S
O178 C179 1.195 . S
C179 O178 1.195 . S
C179 O180 1.313 . S
O180 C179 1.313 . S
O181 Mg169 2.141 . S
O181 C172 1.289 . S
Mg182 O189 2.141 . S
Mg182 O190 2.048 . S
Mg182 O191 2.048 . S
Mg182 O194 2.141 . S
C183 O184 1.313 . S
C183 O190 1.195 . S
O184 C183 1.313 . S
C185 O186 1.245 . S
C185 O194 1.289 . S
O186 C185 1.245 . S
C187 O188 1.245 . S
C187 O189 1.289 . S
O188 C187 1.245 . S
O189 Mg182 2.141 . S
O189 C187 1.289 . S
O190 Mg182 2.048 . S
O190 C183 1.195 . S
O191 Mg182 2.048 . S
O191 C192 1.195 . S
C192 O191 1.195 . S
C192 O193 1.313 . S
O193 C192 1.313 . S
O194 Mg182 2.141 . S
O194 C185 1.289 . S
Mg195 O202 2.141 . S
Mg195 O203 2.048 . S
Mg195 O204 2.048 . S
Mg195 O207 2.141 . S
C196 O197 1.313 . S
C196 O203 1.195 . S
O197 C196 1.313 . S
C198 O199 1.245 . S
C198 O207 1.289 . S
O199 C198 1.245 . S
C200 O201 1.245 . S
C200 O202 1.289 . S
O201 C200 1.245 . S
O202 Mg195 2.141 . S
O202 C200 1.289 . S
O203 Mg195 2.048 . S
O203 C196 1.195 . S
O204 Mg195 2.048 . S
O204 C205 1.195 . S
C205 O204 1.195 . S
C205 O206 1.313 . S
O206 C205 1.313 . S
O207 Mg195 2.141 . S
O207 C198 1.289 . S
H208 C214 0.930 . S
H209 C218 0.930 . S
H210 C223 0.929 . S
H211 C221 0.929 . S
H212 C216 0.929 . S
H213 C222 0.929 . S
C214 H208 0.930 . S
C214 C215 1.367 . S
C214 C222 1.378 1_565 S
C215 C214 1.367 . S
C215 C223 1.433 . S
C216 H212 0.929 . S
C216 C218 1.378 1_565 S
C216 C220 1.350 1_565 S
C217 C220 1.463 1_665 S
C217 C222 1.350 1_565 S
C217 N225 1.427 . S
C218 H209 0.930 . S
C218 C216 1.378 1_545 S
C218 C219 1.367 . S
C219 C218 1.367 . S
C219 C221 1.433 . S
C220 C216 1.350 1_545 S
C220 C217 1.463 1_445 S
C220 N224 1.427 . S
C221 H211 0.929 . S
C221 C219 1.433 . S
C221 N224 1.384 . S
C222 H213 0.929 . S
C222 C214 1.378 1_545 S
C222 C217 1.350 1_545 S
C223 H210 0.929 . S
C223 C215 1.433 . S
C223 N225 1.384 . S
N224 C220 1.427 . S
N224 C221 1.384 . S
N225 C217 1.427 . S
N225 C223 1.384 . S
H226 C232 0.930 . S
H227 C236 0.930 . S
H228 C241 0.929 . S
H229 C239 0.929 . S
H230 C234 0.929 . S
H231 C240 0.929 . S
C232 H226 0.930 . S
C232 C233 1.367 . S
C232 C240 1.378 . S
C233 C232 1.367 . S
C233 C241 1.433 . S
C234 H230 0.929 . S
C234 C236 1.378 . S
C234 C238 1.350 . S
C235 C238 1.463 1_655 S
C235 C240 1.350 . S
C235 N243 1.427 . S
C236 H227 0.930 . S
C236 C234 1.378 . S
C236 C237 1.367 . S
C237 C236 1.367 . S
C237 C239 1.433 . S
C238 C234 1.350 . S
C238 C235 1.463 1_455 S
C238 N242 1.427 . S
C239 H229 0.929 . S
C239 C237 1.433 . S
C239 N242 1.384 . S
C240 H231 0.929 . S
C240 C232 1.378 . S
C240 C235 1.350 . S
C241 H228 0.929 . S
C241 C233 1.433 . S
C241 N243 1.384 . S
N242 C238 1.427 . S
N242 C239 1.384 . S
N243 C235 1.427 . S
N243 C241 1.384 . S
H244 C250 0.930 . S
H245 C254 0.930 . S
H246 C259 0.929 . S
H247 C257 0.929 . S
H248 C252 0.929 . S
H249 C258 0.929 . S
C250 H244 0.930 . S
C250 C251 1.367 . S
C250 C258 1.378 . S
C251 C250 1.367 . S
C251 C259 1.433 . S
C252 H248 0.929 . S
C252 C254 1.378 . S
C252 C256 1.350 . S
C253 C256 1.463 . S
C253 C258 1.350 . S
C253 N261 1.427 . S
C254 H245 0.930 . S
C254 C252 1.378 . S
C254 C255 1.367 . S
C255 C254 1.367 . S
C255 C257 1.433 . S
C256 C252 1.350 . S
C256 C253 1.463 . S
C256 N260 1.427 . S
C257 H247 0.929 . S
C257 C255 1.433 . S
C257 N260 1.384 . S
C258 H249 0.929 . S
C258 C250 1.378 . S
C258 C253 1.350 . S
C259 H246 0.929 . S
C259 C251 1.433 . S
C259 N261 1.384 . S
N260 C256 1.427 . S
N260 C257 1.384 . S
N261 C253 1.427 . S
N261 C259 1.384 . S
H262 C268 0.930 . S
H263 C272 0.930 . S
H264 C277 0.929 . S
H265 C275 0.929 . S
H266 C270 0.929 1_545 S
H267 C276 0.929 1_565 S
C268 H262 0.930 . S
C268 C269 1.367 . S
C268 C276 1.378 . S
C269 C268 1.367 . S
C269 C277 1.433 . S
C270 H266 0.929 1_565 S
C270 C272 1.378 . S
C270 C274 1.350 . S
C271 C274 1.463 1_545 S
C271 C276 1.350 . S
C271 N279 1.427 . S
C272 H263 0.930 . S
C272 C270 1.378 . S
C272 C273 1.367 . S
C273 C272 1.367 . S
C273 C275 1.433 . S
C274 C270 1.350 . S
C274 C271 1.463 1_565 S
C274 N278 1.427 . S
C275 H265 0.929 . S
C275 C273 1.433 . S
C275 N278 1.384 . S
C276 H267 0.929 1_545 S
C276 C268 1.378 . S
C276 C271 1.350 . S
C277 H264 0.929 . S
C277 C269 1.433 . S
C277 N279 1.384 . S
N278 C274 1.427 . S
N278 C275 1.384 . S
N279 C271 1.427 . S
N279 C277 1.384 . S
H280 C286 0.930 . S
H281 C290 0.930 . S
H282 C295 0.929 . S
H283 C293 0.929 . S
H284 C288 0.929 . S
H285 C294 0.929 . S
C286 H280 0.930 . S
C286 C287 1.367 . S
C286 C294 1.378 . S
C287 C286 1.367 . S
C287 C295 1.433 . S
C288 H284 0.929 . S
C288 C290 1.378 . S
C288 C292 1.350 . S
C289 C292 1.463 1_455 S
C289 C294 1.350 . S
C289 N297 1.427 . S
C290 H281 0.930 . S
C290 C288 1.378 . S
C290 C291 1.367 . S
C291 C290 1.367 . S
C291 C293 1.433 . S
C292 C288 1.350 . S
C292 C289 1.463 1_655 S
C292 N296 1.427 . S
C293 H283 0.929 . S
C293 C291 1.433 . S
C293 N296 1.384 . S
C294 H285 0.929 . S
C294 C286 1.378 . S
C294 C289 1.350 . S
C295 H282 0.929 . S
C295 C287 1.433 . S
C295 N297 1.384 . S
N296 C292 1.427 . S
N296 C293 1.384 . S
N297 C289 1.427 . S
N297 C295 1.384 . S
H298 C304 0.930 . S
H299 C308 0.930 . S
H300 C313 0.929 . S
H301 C311 0.929 . S
H302 C306 0.929 . S
H303 C312 0.929 . S
C304 H298 0.930 . S
C304 C305 1.367 . S
C304 C312 1.378 . S
C305 C304 1.367 . S
C305 C313 1.433 . S
C306 H302 0.929 . S
C306 C308 1.378 . S
C306 C310 1.350 . S
C307 C310 1.463 . S
C307 C312 1.350 . S
C307 N315 1.427 . S
C308 H299 0.930 . S
C308 C306 1.378 . S
C308 C309 1.367 . S
C309 C308 1.367 . S
C309 C311 1.433 . S
C310 C306 1.350 . S
C310 C307 1.463 . S
C310 N314 1.427 . S
C311 H301 0.929 . S
C311 C309 1.433 . S
C311 N314 1.384 . S
C312 H303 0.929 . S
C312 C304 1.378 . S
C312 C307 1.350 . S
C313 H300 0.929 . S
C313 C305 1.433 . S
C313 N315 1.384 . S
N314 C310 1.427 . S
N314 C311 1.384 . S
N315 C307 1.427 . S
N315 C313 1.384 . S
H316 C322 0.930 . S
H317 C326 0.930 . S
H318 C331 0.929 . S
H319 C329 0.929 . S
H320 C324 0.929 . S
H321 C330 0.929 . S
C322 H316 0.930 . S
C322 C323 1.367 . S
C322 C330 1.378 . S
C323 C322 1.367 . S
C323 C331 1.433 . S
C324 H320 0.929 . S
C324 C326 1.378 . S
C324 C328 1.350 . S
C325 C328 1.463 1_545 S
C325 C330 1.350 . S
C325 N333 1.427 . S
C326 H317 0.930 . S
C326 C324 1.378 . S
C326 C327 1.367 . S
C327 C326 1.367 . S
C327 C329 1.433 . S
C328 C324 1.350 . S
C328 C325 1.463 1_565 S
C328 N332 1.427 . S
C329 H319 0.929 . S
C329 C327 1.433 . S
C329 N332 1.384 . S
C330 H321 0.929 . S
C330 C322 1.378 . S
C330 C325 1.350 . S
C331 H318 0.929 . S
C331 C323 1.433 . S
C331 N333 1.384 . S
N332 C328 1.427 . S
N332 C329 1.384 . S
N333 C325 1.427 . S
N333 C331 1.384 . S
H334 C340 0.930 . S
H335 C344 0.930 . S
H336 C349 0.929 . S
H337 C347 0.929 . S
H338 C342 0.929 1_545 S
H339 C348 0.929 1_565 S
C340 H334 0.930 . S
C340 C341 1.367 . S
C340 C348 1.378 . S
C341 C340 1.367 . S
C341 C349 1.433 . S
C342 H338 0.929 1_565 S
C342 C344 1.378 . S
C342 C346 1.350 . S
C343 C346 1.463 1_445 S
C343 C348 1.350 . S
C343 N351 1.427 . S
C344 H335 0.930 . S
C344 C342 1.378 . S
C344 C345 1.367 . S
C345 C344 1.367 . S
C345 C347 1.433 . S
C346 C342 1.350 . S
C346 C343 1.463 1_665 S
C346 N350 1.427 . S
C347 H337 0.929 . S
C347 C345 1.433 . S
C347 N350 1.384 . S
C348 H339 0.929 1_545 S
C348 C340 1.378 . S
C348 C343 1.350 . S
C349 H336 0.929 . S
C349 C341 1.433 . S
C349 N351 1.384 . S
N350 C346 1.427 . S
N350 C347 1.384 . S
N351 C343 1.427 . S
N351 C349 1.384 . S
H352 C358 0.930 . S
H353 C362 0.930 . S
H354 C367 0.929 . S
H355 C365 0.929 . S
H356 C360 0.929 . S
H357 C366 0.929 . S
C358 H352 0.930 . S
C358 C359 1.367 . S
C358 C366 1.378 . S
C359 C358 1.367 . S
C359 C367 1.433 . S
C360 H356 0.929 . S
C360 C362 1.378 . S
C360 C364 1.350 . S
C361 C364 1.463 1_565 S
C361 C366 1.350 . S
C361 N369 1.427 . S
C362 H353 0.930 . S
C362 C360 1.378 . S
C362 C363 1.367 . S
C363 C362 1.367 . S
C363 C365 1.433 . S
C364 C360 1.350 . S
C364 C361 1.463 1_545 S
C364 N368 1.427 . S
C365 H355 0.929 . S
C365 C363 1.433 . S
C365 N368 1.384 . S
C366 H357 0.929 . S
C366 C358 1.378 . S
C366 C361 1.350 . S
C367 H354 0.929 . S
C367 C359 1.433 . S
C367 N369 1.384 . S
N368 C364 1.427 . S
N368 C365 1.384 . S
N369 C361 1.427 . S
N369 C367 1.384 . S
H370 C376 0.930 . S
H371 C380 0.930 . S
H372 C385 0.929 . S
H373 C383 0.929 . S
H374 C378 0.929 . S
H375 C384 0.929 . S
C376 H370 0.930 . S
C376 C377 1.367 . S
C376 C384 1.378 . S
C377 C376 1.367 . S
C377 C385 1.433 . S
C378 H374 0.929 . S
C378 C380 1.378 . S
C378 C382 1.350 . S
C379 C382 1.463 1_665 S
C379 C384 1.350 . S
C379 N387 1.427 . S
C380 H371 0.930 . S
C380 C378 1.378 . S
C380 C381 1.367 . S
C381 C380 1.367 . S
C381 C383 1.433 . S
C382 C378 1.350 . S
C382 C379 1.463 1_445 S
C382 N386 1.427 . S
C383 H373 0.929 . S
C383 C381 1.433 . S
C383 N386 1.384 . S
C384 H375 0.929 . S
C384 C376 1.378 . S
C384 C379 1.350 . S
C385 H372 0.929 . S
C385 C377 1.433 . S
C385 N387 1.384 . S
N386 C382 1.427 . S
N386 C383 1.384 . S
N387 C379 1.427 . S
N387 C385 1.384 . S
H388 C394 0.930 . S
H389 C398 0.930 . S
H390 C403 0.929 . S
H391 C401 0.929 . S
H392 C396 0.929 . S
H393 C402 0.929 . S
C394 H388 0.930 . S
C394 C395 1.367 . S
C394 C402 1.378 . S
C395 C394 1.367 . S
C395 C403 1.433 . S
C396 H392 0.929 . S
C396 C398 1.378 . S
C396 C400 1.350 . S
C397 C400 1.463 1_455 S
C397 C402 1.350 . S
C397 N405 1.427 . S
C398 H389 0.930 . S
C398 C396 1.378 . S
C398 C399 1.367 . S
C399 C398 1.367 . S
C399 C401 1.433 . S
C400 C396 1.350 . S
C400 C397 1.463 1_655 S
C400 N404 1.427 . S
C401 H391 0.929 . S
C401 C399 1.433 . S
C401 N404 1.384 . S
C402 H393 0.929 . S
C402 C394 1.378 . S
C402 C397 1.350 . S
C403 H390 0.929 . S
C403 C395 1.433 . S
C403 N405 1.384 . S
N404 C400 1.427 . S
N404 C401 1.384 . S
N405 C397 1.427 . S
N405 C403 1.384 . S
H406 C412 0.930 . S
H407 C416 0.930 . S
H408 C421 0.929 . S
H409 C419 0.929 . S
H410 C414 0.929 . S
H411 C420 0.929 . S
C412 H406 0.930 . S
C412 C413 1.367 . S
C412 C420 1.378 . S
C413 C412 1.367 . S
C413 C421 1.433 . S
C414 H410 0.929 . S
C414 C416 1.378 . S
C414 C418 1.350 . S
C415 C418 1.463 . S
C415 C420 1.350 . S
C415 N423 1.427 . S
C416 H407 0.930 . S
C416 C414 1.378 . S
C416 C417 1.367 . S
C417 C416 1.367 . S
C417 C419 1.433 . S
C418 C414 1.350 . S
C418 C415 1.463 . S
C418 N422 1.427 . S
C419 H409 0.929 . S
C419 C417 1.433 . S
C419 N422 1.384 . S
C420 H411 0.929 . S
C420 C412 1.378 . S
C420 C415 1.350 . S
C421 H408 0.929 . S
C421 C413 1.433 . S
C421 N423 1.384 . S
N422 C418 1.427 . S
N422 C419 1.384 . S
N423 C415 1.427 . S
N423 C421 1.384 . S
H424 C430 0.930 . S
H425 C434 0.930 . S
H426 C439 0.929 . S
H427 C437 0.929 . S
H428 C432 0.929 . S
H429 C438 0.929 . S
C430 H424 0.930 . S
C430 C431 1.367 . S
C430 C438 1.378 . S
C431 C430 1.367 . S
C431 C439 1.433 . S
C432 H428 0.929 . S
C432 C434 1.378 . S
C432 C436 1.350 . S
C433 C436 1.463 . S
C433 C438 1.350 . S
C433 N441 1.427 . S
C434 H425 0.930 . S
C434 C432 1.378 . S
C434 C435 1.367 . S
C435 C434 1.367 . S
C435 C437 1.433 . S
C436 C432 1.350 . S
C436 C433 1.463 . S
C436 N440 1.427 . S
C437 H427 0.929 . S
C437 C435 1.433 . S
C437 N440 1.384 . S
C438 H429 0.929 . S
C438 C430 1.378 . S
C438 C433 1.350 . S
C439 H426 0.929 . S
C439 C431 1.433 . S
C439 N441 1.384 . S
N440 C436 1.427 . S
N440 C437 1.384 . S
N441 C433 1.427 . S
N441 C439 1.384 . S
H442 C448 0.930 . S
H443 C452 0.930 . S
H444 C457 0.929 . S
H445 C455 0.929 . S
H446 C450 0.929 . S
H447 C456 0.929 . S
C448 H442 0.930 . S
C448 C449 1.367 . S
C448 C456 1.378 . S
C449 C448 1.367 . S
C449 C457 1.433 . S
C450 H446 0.929 . S
C450 C452 1.378 . S
C450 C454 1.350 . S
C451 C454 1.463 1_565 S
C451 C456 1.350 . S
C451 N459 1.427 . S
C452 H443 0.930 . S
C452 C450 1.378 . S
C452 C453 1.367 . S
C453 C452 1.367 . S
C453 C455 1.433 . S
C454 C450 1.350 . S
C454 C451 1.463 1_545 S
C454 N458 1.427 . S
C455 H445 0.929 . S
C455 C453 1.433 . S
C455 N458 1.384 . S
C456 H447 0.929 . S
C456 C448 1.378 . S
C456 C451 1.350 . S
C457 H444 0.929 . S
C457 C449 1.433 . S
C457 N459 1.384 . S
N458 C454 1.427 . S
N458 C455 1.384 . S
N459 C451 1.427 . S
N459 C457 1.384 . S
H460 C466 0.930 . S
H461 C470 0.930 . S
H462 C475 0.929 . S
H463 C473 0.929 . S
H464 C468 0.929 . S
H465 C474 0.929 . S
C466 H460 0.930 . S
C466 C467 1.367 . S
C466 C474 1.378 . S
C467 C466 1.367 . S
C467 C475 1.433 . S
C468 H464 0.929 . S
C468 C470 1.378 . S
C468 C472 1.350 . S
C469 C472 1.463 1_665 S
C469 C474 1.350 . S
C469 N477 1.427 . S
C470 H461 0.930 . S
C470 C468 1.378 . S
C470 C471 1.367 . S
C471 C470 1.367 . S
C471 C473 1.433 . S
C472 C468 1.350 . S
C472 C469 1.463 1_445 S
C472 N476 1.427 . S
C473 H463 0.929 . S
C473 C471 1.433 . S
C473 N476 1.384 . S
C474 H465 0.929 . S
C474 C466 1.378 . S
C474 C469 1.350 . S
C475 H462 0.929 . S
C475 C467 1.433 . S
C475 N477 1.384 . S
N476 C472 1.427 . S
N476 C473 1.384 . S
N477 C469 1.427 . S
N477 C475 1.384 . S
H478 C484 0.930 . S
H479 C488 0.930 . S
H480 C493 0.929 . S
H481 C491 0.929 . S
H482 C486 0.929 . S
H483 C492 0.929 . S
C484 H478 0.930 . S
C484 C485 1.367 . S
C484 C492 1.378 . S
C485 C484 1.367 . S
C485 C493 1.433 . S
C486 H482 0.929 . S
C486 C488 1.378 . S
C486 C490 1.350 . S
C487 C490 1.463 1_455 S
C487 C492 1.350 . S
C487 N495 1.427 . S
C488 H479 0.930 . S
C488 C486 1.378 . S
C488 C489 1.367 . S
C489 C488 1.367 . S
C489 C491 1.433 . S
C490 C486 1.350 . S
C490 C487 1.463 1_655 S
C490 N494 1.427 . S
C491 H481 0.929 . S
C491 C489 1.433 . S
C491 N494 1.384 . S
C492 H483 0.929 . S
C492 C484 1.378 . S
C492 C487 1.350 . S
C493 H480 0.929 . S
C493 C485 1.433 . S
C493 N495 1.384 . S
N494 C490 1.427 . S
N494 C491 1.384 . S
N495 C487 1.427 . S
N495 C493 1.384 . S
H496 C502 0.930 . S
H497 C506 0.930 . S
H498 C511 0.929 . S
H499 C509 0.929 . S
H500 C504 0.929 . S
H501 C510 0.929 . S
C502 H496 0.930 . S
C502 C503 1.367 . S
C502 C510 1.378 . S
C503 C502 1.367 . S
C503 C511 1.433 . S
C504 H500 0.929 . S
C504 C506 1.378 . S
C504 C508 1.350 . S
C505 C508 1.463 . S
C505 C510 1.350 . S
C505 N513 1.427 . S
C506 H497 0.930 . S
C506 C504 1.378 . S
C506 C507 1.367 . S
C507 C506 1.367 . S
C507 C509 1.433 . S
C508 C504 1.350 . S
C508 C505 1.463 . S
C508 N512 1.427 . S
C509 H499 0.929 . S
C509 C507 1.433 . S
C509 N512 1.384 . S
C510 H501 0.929 . S
C510 C502 1.378 . S
C510 C505 1.350 . S
C511 H498 0.929 . S
C511 C503 1.433 . S
C511 N513 1.384 . S
N512 C508 1.427 . S
N512 C509 1.384 . S
N513 C505 1.427 . S
N513 C511 1.384 . S
H514 C520 0.930 . S
H515 C524 0.930 . S
H516 C529 0.929 . S
H517 C527 0.929 . S
H518 C522 0.929 . S
H519 C528 0.929 . S
C520 H514 0.930 . S
C520 C521 1.367 . S
C520 C528 1.378 . S
C521 C520 1.367 . S
C521 C529 1.433 . S
C522 H518 0.929 . S
C522 C524 1.378 . S
C522 C526 1.350 . S
C523 C526 1.463 . S
C523 C528 1.350 . S
C523 N531 1.427 . S
C524 H515 0.930 . S
C524 C522 1.378 . S
C524 C525 1.367 . S
C525 C524 1.367 . S
C525 C527 1.433 . S
C526 C522 1.350 . S
C526 C523 1.463 . S
C526 N530 1.427 . S
C527 H517 0.929 . S
C527 C525 1.433 . S
C527 N530 1.384 . S
C528 H519 0.929 . S
C528 C520 1.378 . S
C528 C523 1.350 . S
C529 H516 0.929 . S
C529 C521 1.433 . S
C529 N531 1.384 . S
N530 C526 1.427 . S
N530 C527 1.384 . S
N531 C523 1.427 . S
N531 C529 1.384 . S
H532 C538 0.930 . S
H533 C542 0.930 . S
H534 C547 0.929 . S
H535 C545 0.929 . S
H536 C540 0.929 . S
H537 C546 0.929 . S
C538 H532 0.930 . S
C538 C539 1.367 . S
C538 C546 1.378 . S
C539 C538 1.367 . S
C539 C547 1.433 . S
C540 H536 0.929 . S
C540 C542 1.378 . S
C540 C544 1.350 . S
C541 C544 1.463 . S
C541 C546 1.350 . S
C541 N549 1.427 . S
C542 H533 0.930 . S
C542 C540 1.378 . S
C542 C543 1.367 . S
C543 C542 1.367 . S
C543 C545 1.433 . S
C544 C540 1.350 . S
C544 C541 1.463 . S
C544 N548 1.427 . S
C545 H535 0.929 . S
C545 C543 1.433 . S
C545 N548 1.384 . S
C546 H537 0.929 . S
C546 C538 1.378 . S
C546 C541 1.350 . S
C547 H534 0.929 . S
C547 C539 1.433 . S
C547 N549 1.384 . S
N548 C544 1.427 . S
N548 C545 1.384 . S
N549 C541 1.427 . S
N549 C547 1.384 . S
H550 C556 0.930 . S
H551 C560 0.930 . S
H552 C565 0.929 . S
H553 C563 0.929 . S
H554 C558 0.929 . S
H555 C564 0.929 . S
C556 H550 0.930 . S
C556 C557 1.367 . S
C556 C564 1.378 . S
C557 C556 1.367 . S
C557 C565 1.433 . S
C558 H554 0.929 . S
C558 C560 1.378 . S
C558 C562 1.350 . S
C559 C562 1.463 . S
C559 C564 1.350 . S
C559 N567 1.427 . S
C560 H551 0.930 . S
C560 C558 1.378 . S
C560 C561 1.367 . S
C561 C560 1.367 . S
C561 C563 1.433 . S
C562 C558 1.350 . S
C562 C559 1.463 . S
C562 N566 1.427 . S
C563 H553 0.929 . S
C563 C561 1.433 . S
C563 N566 1.384 . S
C564 H555 0.929 . S
C564 C556 1.378 . S
C564 C559 1.350 . S
C565 H552 0.929 . S
C565 C557 1.433 . S
C565 N567 1.384 . S
N566 C562 1.427 . S
N566 C563 1.384 . S
N567 C559 1.427 . S
N567 C565 1.384 . S
H568 C574 0.930 . S
H569 C578 0.930 . S
H570 C583 0.929 . S
H571 C581 0.929 . S
H572 C576 0.929 . S
H573 C582 0.929 . S
C574 H568 0.930 . S
C574 C575 1.367 . S
C574 C582 1.378 . S
C575 C574 1.367 . S
C575 C583 1.433 . S
C576 H572 0.929 . S
C576 C578 1.378 . S
C576 C580 1.350 . S
C577 C580 1.463 . S
C577 C582 1.350 . S
C577 N585 1.427 . S
C578 H569 0.930 . S
C578 C576 1.378 . S
C578 C579 1.367 . S
C579 C578 1.367 . S
C579 C581 1.433 . S
C580 C576 1.350 . S
C580 C577 1.463 . S
C580 N584 1.427 . S
C581 H571 0.929 . S
C581 C579 1.433 . S
C581 N584 1.384 . S
C582 H573 0.929 . S
C582 C574 1.378 . S
C582 C577 1.350 . S
C583 H570 0.929 . S
C583 C575 1.433 . S
C583 N585 1.384 . S
N584 C580 1.427 . S
N584 C581 1.384 . S
N585 C577 1.427 . S
N585 C583 1.384 . S
H586 C592 0.930 . S
H587 C596 0.930 . S
H588 C601 0.929 . S
H589 C599 0.929 . S
H590 C594 0.929 . S
H591 C600 0.929 . S
C592 H586 0.930 . S
C592 C593 1.367 . S
C592 C600 1.378 . S
C593 C592 1.367 . S
C593 C601 1.433 . S
C594 H590 0.929 . S
C594 C596 1.378 . S
C594 C598 1.350 . S
C595 C598 1.463 . S
C595 C600 1.350 . S
C595 N603 1.427 . S
C596 H587 0.930 . S
C596 C594 1.378 . S
C596 C597 1.367 . S
C597 C596 1.367 . S
C597 C599 1.433 . S
C598 C594 1.350 . S
C598 C595 1.463 . S
C598 N602 1.427 . S
C599 H589 0.929 . S
C599 C597 1.433 . S
C599 N602 1.384 . S
C600 H591 0.929 . S
C600 C592 1.378 . S
C600 C595 1.350 . S
C601 H588 0.929 . S
C601 C593 1.433 . S
C601 N603 1.384 . S
N602 C598 1.427 . S
N602 C599 1.384 . S
N603 C595 1.427 . S
N603 C601 1.384 . S
H604 C610 0.930 . S
H605 C614 0.930 . S
H606 C619 0.929 . S
H607 C617 0.929 . S
H608 C612 0.929 . S
H609 C618 0.929 . S
C610 H604 0.930 . S
C610 C611 1.367 . S
C610 C618 1.378 . S
C611 C610 1.367 . S
C611 C619 1.433 . S
C612 H608 0.929 . S
C612 C614 1.378 . S
C612 C616 1.350 . S
C613 C616 1.463 . S
C613 C618 1.350 . S
C613 N621 1.427 . S
C614 H605 0.930 . S
C614 C612 1.378 . S
C614 C615 1.367 . S
C615 C614 1.367 . S
C615 C617 1.433 . S
C616 C612 1.350 . S
C616 C613 1.463 . S
C616 N620 1.427 . S
C617 H607 0.929 . S
C617 C615 1.433 . S
C617 N620 1.384 . S
C618 H609 0.929 . S
C618 C610 1.378 . S
C618 C613 1.350 . S
C619 H606 0.929 . S
C619 C611 1.433 . S
C619 N621 1.384 . S
N620 C616 1.427 . S
N620 C617 1.384 . S
N621 C613 1.427 . S
N621 C619 1.384 . S
H622 C628 0.930 . S
H623 C632 0.930 . S
H624 C637 0.929 . S
H625 C635 0.929 . S
H626 C630 0.929 . S
H627 C636 0.929 . S
C628 H622 0.930 . S
C628 C629 1.367 . S
C628 C636 1.378 . S
C629 C628 1.367 . S
C629 C637 1.433 . S
C630 H626 0.929 . S
C630 C632 1.378 . S
C630 C634 1.350 . S
C631 C634 1.463 . S
C631 C636 1.350 . S
C631 N639 1.427 . S
C632 H623 0.930 . S
C632 C630 1.378 . S
C632 C633 1.367 . S
C633 C632 1.367 . S
C633 C635 1.433 . S
C634 C630 1.350 . S
C634 C631 1.463 . S
C634 N638 1.427 . S
C635 H625 0.929 . S
C635 C633 1.433 . S
C635 N638 1.384 . S
C636 H627 0.929 . S
C636 C628 1.378 . S
C636 C631 1.350 . S
C637 H624 0.929 . S
C637 C629 1.433 . S
C637 N639 1.384 . S
N638 C634 1.427 . S
N638 C635 1.384 . S
N639 C631 1.427 . S
N639 C637 1.384 . S
H640 C646 0.930 . S
H641 C650 0.930 . S
H642 C655 0.929 . S
H643 C653 0.929 . S
H644 C648 0.929 . S
H645 C654 0.929 . S
C646 H640 0.930 . S
C646 C647 1.367 . S
C646 C654 1.378 . S
C647 C646 1.367 . S
C647 C655 1.433 . S
C648 H644 0.929 . S
C648 C650 1.378 . S
C648 C652 1.350 . S
C649 C652 1.463 . S
C649 C654 1.350 . S
C649 N657 1.427 . S
C650 H641 0.930 . S
C650 C648 1.378 . S
C650 C651 1.367 . S
C651 C650 1.367 . S
C651 C653 1.433 . S
C652 C648 1.350 . S
C652 C649 1.463 . S
C652 N656 1.427 . S
C653 H643 0.929 . S
C653 C651 1.433 . S
C653 N656 1.384 . S
C654 H645 0.929 . S
C654 C646 1.378 . S
C654 C649 1.350 . S
C655 H642 0.929 . S
C655 C647 1.433 . S
C655 N657 1.384 . S
N656 C652 1.427 . S
N656 C653 1.384 . S
N657 C649 1.427 . S
N657 C655 1.384 . S
H658 C664 0.930 . S
H659 C668 0.930 . S
H660 C673 0.929 . S
H661 C671 0.929 . S
H662 C666 0.929 . S
H663 C672 0.929 . S
C664 H658 0.930 . S
C664 C665 1.367 . S
C664 C672 1.378 . S
C665 C664 1.367 . S
C665 C673 1.433 . S
C666 H662 0.929 . S
C666 C668 1.378 . S
C666 C670 1.350 . S
C667 C670 1.463 . S
C667 C672 1.350 . S
C667 N675 1.427 . S
C668 H659 0.930 . S
C668 C666 1.378 . S
C668 C669 1.367 . S
C669 C668 1.367 . S
C669 C671 1.433 . S
C670 C666 1.350 . S
C670 C667 1.463 . S
C670 N674 1.427 . S
C671 H661 0.929 . S
C671 C669 1.433 . S
C671 N674 1.384 . S
C672 H663 0.929 . S
C672 C664 1.378 . S
C672 C667 1.350 . S
C673 H660 0.929 . S
C673 C665 1.433 . S
C673 N675 1.384 . S
N674 C670 1.427 . S
N674 C671 1.384 . S
N675 C667 1.427 . S
N675 C673 1.384 . S
H676 C682 0.930 . S
H677 C686 0.930 . S
H678 C691 0.929 . S
H679 C689 0.929 . S
H680 C684 0.929 . S
H681 C690 0.929 . S
C682 H676 0.930 . S
C682 C683 1.367 . S
C682 C690 1.378 . S
C683 C682 1.367 . S
C683 C691 1.433 . S
C684 H680 0.929 . S
C684 C686 1.378 . S
C684 C688 1.350 . S
C685 C688 1.463 . S
C685 C690 1.350 . S
C685 N693 1.427 . S
C686 H677 0.930 . S
C686 C684 1.378 . S
C686 C687 1.367 . S
C687 C686 1.367 . S
C687 C689 1.433 . S
C688 C684 1.350 . S
C688 C685 1.463 . S
C688 N692 1.427 . S
C689 H679 0.929 . S
C689 C687 1.433 . S
C689 N692 1.384 . S
C690 H681 0.929 . S
C690 C682 1.378 . S
C690 C685 1.350 . S
C691 H678 0.929 . S
C691 C683 1.433 . S
C691 N693 1.384 . S
N692 C688 1.427 . S
N692 C689 1.384 . S
N693 C685 1.427 . S
N693 C691 1.384 . S
H694 C700 0.930 . S
H695 C704 0.930 . S
H696 C709 0.929 . S
H697 C707 0.929 . S
H698 C702 0.929 . S
H699 C708 0.929 . S
C700 H694 0.930 . S
C700 C701 1.367 . S
C700 C708 1.378 . S
C701 C700 1.367 . S
C701 C709 1.433 . S
C702 H698 0.929 . S
C702 C704 1.378 . S
C702 C706 1.350 . S
C703 C706 1.463 1_556 S
C703 C708 1.350 . S
C703 N711 1.427 . S
C704 H695 0.930 . S
C704 C702 1.378 . S
C704 C705 1.367 . S
C705 C704 1.367 . S
C705 C707 1.433 . S
C706 C702 1.350 . S
C706 C703 1.463 1_554 S
C706 N710 1.427 . S
C707 H697 0.929 . S
C707 C705 1.433 . S
C707 N710 1.384 . S
C708 H699 0.929 . S
C708 C700 1.378 . S
C708 C703 1.350 . S
C709 H696 0.929 . S
C709 C701 1.433 . S
C709 N711 1.384 . S
N710 C706 1.427 . S
N710 C707 1.384 . S
N711 C703 1.427 . S
N711 C709 1.384 . S
H712 C718 0.930 . S
H713 C722 0.930 . S
H714 C727 0.929 . S
H715 C725 0.929 . S
H716 C720 0.929 . S
H717 C726 0.929 . S
C718 H712 0.930 . S
C718 C719 1.367 . S
C718 C726 1.378 . S
C719 C718 1.367 . S
C719 C727 1.433 . S
C720 H716 0.929 . S
C720 C722 1.378 . S
C720 C724 1.350 . S
C721 C724 1.463 1_554 S
C721 C726 1.350 . S
C721 N729 1.427 . S
C722 H713 0.930 . S
C722 C720 1.378 . S
C722 C723 1.367 . S
C723 C722 1.367 . S
C723 C725 1.433 . S
C724 C720 1.350 . S
C724 C721 1.463 1_556 S
C724 N728 1.427 . S
C725 H715 0.929 . S
C725 C723 1.433 . S
C725 N728 1.384 . S
C726 H717 0.929 . S
C726 C718 1.378 . S
C726 C721 1.350 . S
C727 H714 0.929 . S
C727 C719 1.433 . S
C727 N729 1.384 . S
N728 C724 1.427 . S
N728 C725 1.384 . S
N729 C721 1.427 . S
N729 C727 1.384 . S
H730 C736 0.930 . S
H731 C740 0.930 . S
H732 C745 0.929 . S
H733 C743 0.929 . S
H734 C738 0.929 . S
H735 C744 0.929 . S
C736 H730 0.930 . S
C736 C737 1.367 . S
C736 C744 1.378 . S
C737 C736 1.367 . S
C737 C745 1.433 . S
C738 H734 0.929 . S
C738 C740 1.378 . S
C738 C742 1.350 . S
C739 C742 1.463 . S
C739 C744 1.350 . S
C739 N747 1.427 . S
C740 H731 0.930 . S
C740 C738 1.378 . S
C740 C741 1.367 . S
C741 C740 1.367 . S
C741 C743 1.433 . S
C742 C738 1.350 . S
C742 C739 1.463 . S
C742 N746 1.427 . S
C743 H733 0.929 . S
C743 C741 1.433 . S
C743 N746 1.384 . S
C744 H735 0.929 . S
C744 C736 1.378 . S
C744 C739 1.350 . S
C745 H732 0.929 . S
C745 C737 1.433 . S
C745 N747 1.384 . S
N746 C742 1.427 . S
N746 C743 1.384 . S
N747 C739 1.427 . S
N747 C745 1.384 . S
H748 C754 0.930 . S
H749 C758 0.930 . S
H750 C763 0.929 . S
H751 C761 0.929 . S
H752 C756 0.929 . S
H753 C762 0.929 . S
C754 H748 0.930 . S
C754 C755 1.367 . S
C754 C762 1.378 . S
C755 C754 1.367 . S
C755 C763 1.433 . S
C756 H752 0.929 . S
C756 C758 1.378 . S
C756 C760 1.350 . S
C757 C760 1.463 . S
C757 C762 1.350 . S
C757 N765 1.427 . S
C758 H749 0.930 . S
C758 C756 1.378 . S
C758 C759 1.367 . S
C759 C758 1.367 . S
C759 C761 1.433 . S
C760 C756 1.350 . S
C760 C757 1.463 . S
C760 N764 1.427 . S
C761 H751 0.929 . S
C761 C759 1.433 . S
C761 N764 1.384 . S
C762 H753 0.929 . S
C762 C754 1.378 . S
C762 C757 1.350 . S
C763 H750 0.929 . S
C763 C755 1.433 . S
C763 N765 1.384 . S
N764 C760 1.427 . S
N764 C761 1.384 . S
N765 C757 1.427 . S
N765 C763 1.384 . S
H766 C772 0.930 . S
H767 C776 0.930 . S
H768 C781 0.929 . S
H769 C779 0.929 . S
H770 C774 0.929 . S
H771 C780 0.929 . S
C772 H766 0.930 . S
C772 C773 1.367 . S
C772 C780 1.378 . S
C773 C772 1.367 . S
C773 C781 1.433 . S
C774 H770 0.929 . S
C774 C776 1.378 . S
C774 C778 1.350 . S
C775 C778 1.463 . S
C775 C780 1.350 . S
C775 N783 1.427 . S
C776 H767 0.930 . S
C776 C774 1.378 . S
C776 C777 1.367 . S
C777 C776 1.367 . S
C777 C779 1.433 . S
C778 C774 1.350 . S
C778 C775 1.463 . S
C778 N782 1.427 . S
C779 H769 0.929 . S
C779 C777 1.433 . S
C779 N782 1.384 . S
C780 H771 0.929 . S
C780 C772 1.378 . S
C780 C775 1.350 . S
C781 H768 0.929 . S
C781 C773 1.433 . S
C781 N783 1.384 . S
N782 C778 1.427 . S
N782 C779 1.384 . S
N783 C775 1.427 . S
N783 C781 1.384 . S
C215 C133 2.000 . S
C219 C3 2.000 . S
C233 C18 2.156 . S
C237 C148 2.155 . S
C251 C107 2.010 . S
C255 C29 2.009 . S
C269 C122 2.160 . S
C273 C44 2.160 . S
C287 C55 2.012 . S
C291 C185 2.011 . S
C305 C200 2.156 . S
C309 C70 2.155 . S
C323 C81 2.008 . S
C327 C159 2.009 . S
C341 C174 2.159 . S
C345 C96 2.160 . S
C359 C131 1.674 . S
C363 C1 1.673 . S
C377 C23 1.772 . S
C381 C153 1.772 . S
C395 C27 1.677 . S
C399 C105 1.678 . S
C413 C49 1.770 . S
C417 C127 1.771 . S
C431 C53 1.676 . S
C435 C183 1.677 . S
C449 C75 1.774 . S
C453 C205 1.773 . S
C467 C157 1.677 . S
C471 C79 1.678 . S
C485 C179 1.771 . S
C489 C101 1.772 . S
C503 C10 1.620 . S
C507 C88 1.621 . S
C521 C14 1.603 . S
C525 C92 1.595 . S
C539 C36 1.619 . S
C543 C62 1.620 . S
C557 C40 1.599 . S
C561 C66 1.596 . S
C575 C114 1.618 . S
C579 C192 1.619 . S
C593 C196 1.595 . S
C597 C118 1.604 . S
C611 C140 1.618 . S
C615 C166 1.619 . S
C629 C170 1.603 . S
C633 C144 1.599 . S
C647 C5 1.742 . S
C651 C198 1.682 . S
C665 C161 1.741 . S
C669 C16 1.685 . S
C683 C172 1.681 . S
C687 C31 1.740 . S
C701 C187 1.740 . S
C705 C42 1.681 . S
C719 C120 1.681 . S
C723 C57 1.741 . S
C737 C135 1.746 . S
C741 C68 1.694 . S
C755 C83 1.745 . S
C759 C146 1.693 . S
C773 C94 1.691 . S
C777 C109 1.744 . S
