# Generated by pormake.
# Topology utp, (3)-cn, num edge types: 1
# Building blocks:
#     Node 0, Type 0, BuildingBlock: WUSLED_clean_sbu_0, # of connection points: 3
#     Node 1, Type 0, BuildingBlock: WUSLED_clean_sbu_0, # of connection points: 3
#     Node 2, Type 0, BuildingBlock: WUSLED_clean_sbu_0, # of connection points: 3
#     Node 3, Type 0, BuildingBlock: WUSLED_clean_sbu_0, # of connection points: 3
#     Node 4, Type 0, BuildingBlock: WUSLED_clean_sbu_0, # of connection points: 3
#     Node 5, Type 0, BuildingBlock: WUSLED_clean_sbu_0, # of connection points: 3
#     Node 6, Type 0, BuildingBlock: WUSLED_clean_sbu_0, # of connection points: 3
#     Node 7, Type 0, BuildingBlock: WUSLED_clean_sbu_0, # of connection points: 3
#     Edge 8, Type (0, 0), None
#     Edge 9, Type (0, 0), None
#     Edge 10, Type (0, 0), None
#     Edge 11, Type (0, 0), None
#     Edge 12, Type (0, 0), None
#     Edge 13, Type (0, 0), None
#     Edge 14, Type (0, 0), None
#     Edge 15, Type (0, 0), None
#     Edge 16, Type (0, 0), None
#     Edge 17, Type (0, 0), None
#     Edge 18, Type (0, 0), None
#     Edge 19, Type (0, 0), None
# Relax obj value: 0.000
# Max RMSD: 0.000
# Mean RMSD: 0.000
data_MOF--net-utp--node1-WUSLED_clean_sbu_0--edge1-none
_symmetry_space_group_name_H-M    P1
_symmetry_Int_Tables_number       1
_symmetry_cell_setting            triclinic
loop_
_symmetry_equiv_pos_as_xyz
'x, y, z'
_cell_length_a     48.472185
_cell_length_b     42.396063
_cell_length_c     14.237227
_cell_angle_alpha  90.002008
_cell_angle_beta   89.99942
_cell_angle_gamma 90.01117
loop_
_atom_site_label
_atom_site_type_symbol
_atom_site_fract_x
_atom_site_fract_y
_atom_site_fract_z
_atom_type_partial_charge
C0 C 0.09019 0.10578 0.02785 0.0
C1 C 0.09933 0.07836 -0.01775 0.0
C2 C 0.05197 0.05931 -0.03031 0.0
C3 C 0.08042 0.0554 0.95319 0.0
C4 C 0.04299 0.08683 0.01601 0.0
C5 C 0.06194 0.10983 0.04469 0.0
U6 U 0.16365 0.13007 0.08348 0.0
O7 O 0.18685 0.1732 0.05048 0.0
O8 O 0.18084 0.15919 0.19767 0.0
C9 C 0.19077 0.18037 0.13932 0.0
C10 C 0.10999 0.12999 0.05887 0.0
C11 C 0.18703 0.2137 0.16531 0.0
C12 C 0.16169 0.2633 0.16141 0.0
C13 C 0.16319 0.23085 0.14183 0.0
C14 C 0.20743 0.26128 0.22969 0.0
C15 C 0.1841 0.27895 0.20379 0.0
C16 C 0.20885 0.22905 0.21065 0.0
C17 C 0.22082 0.06897 0.05482 0.0
C18 C 0.26881 0.08149 0.08737 0.0
C19 C 0.25648 1.02966 0.02919 0.0
C20 C 0.2287 1.03858 0.02711 0.0
C21 C 0.27691 0.05103 0.05904 0.0
C22 C 0.241 0.09037 0.08524 0.0
C23 C 0.1916 0.07814 0.05051 0.0
O24 O 0.12169 0.12466 0.14066 0.0
O25 O 0.12754 0.13962 -0.0055 0.0
O26 O 0.18536 0.09873 -0.01507 0.0
O27 O 0.17994 0.0844 0.13172 0.0
H28 H 0.12111 0.07475 -0.03113 0.0
H29 H 0.0881 1.03479 0.91671 0.0
H30 H 1.02135 0.09045 0.03133 0.0
H31 H 0.05453 0.13075 0.08039 0.0
H32 H 0.14347 0.27632 0.14058 0.0
H33 H 0.14611 0.21933 0.10673 0.0
H34 H 0.22482 0.27249 0.26391 0.0
H35 H 0.22735 0.21619 0.22962 0.0
H36 H 0.28393 0.0984 0.11185 0.0
H37 H 0.26198 1.0062 0.00567 0.0
H38 H 0.21338 1.02181 0.00312 0.0
H39 H 0.23524 0.11396 0.10708 0.0
C40 C 0.49329 0.987 0.02782 0.0
C41 C 0.48414 1.01444 -0.01763 0.0
C42 C 0.5315 1.03347 -0.03037 0.0
C43 C 0.50305 1.0374 0.95329 0.0
C44 C 0.54049 1.00592 0.0158 0.0
C45 C 0.52155 0.98292 0.04448 0.0
U46 U 0.41983 0.9627 0.08346 0.0
O47 O 0.39665 0.91955 0.05054 0.0
O48 O 0.40265 0.9336 0.1977 0.0
C49 C 0.39273 0.9124 0.13938 0.0
C50 C 0.47349 0.96279 0.05885 0.0
C51 C 0.39648 0.87907 0.16545 0.0
C52 C 0.42173 0.82942 0.16108 0.0
C53 C 0.42024 0.86187 0.14145 0.0
C54 C 0.37614 0.83156 0.23047 0.0
C55 C 0.39939 0.81383 0.20403 0.0
C56 C 0.37474 0.86379 0.21138 0.0
C57 C 0.36265 1.02378 0.05475 0.0
C58 C 0.31467 1.01128 0.08748 0.0
C59 C 0.32699 0.06307 0.029 0.0
C60 C 0.35476 0.05415 0.02689 0.0
C61 C 0.30656 1.04172 0.05902 0.0
C62 C 0.34248 1.00239 0.08533 0.0
C63 C 0.39187 1.01461 0.05043 0.0
O64 O 0.4618 0.96812 0.14063 0.0
O65 O 0.45595 0.95315 -0.00551 0.0
O66 O 0.39812 0.99401 -0.01513 0.0
O67 O 0.40354 1.00837 0.13163 0.0
H68 H 0.46235 1.01807 -0.03088 0.0
H69 H 0.49536 0.05804 0.91694 0.0
H70 H 0.56214 1.00229 0.03098 0.0
H71 H 0.52896 0.96198 0.08007 0.0
H72 H 0.43989 0.81635 0.13982 0.0
H73 H 0.43727 0.87334 0.1059 0.0
H74 H 0.3588 0.82039 0.26513 0.0
H75 H 0.35629 0.87669 0.23075 0.0
H76 H 0.29956 0.99438 0.1121 0.0
H77 H 0.32147 0.08652 0.00537 0.0
H78 H 0.37008 0.07091 0.00278 0.0
H79 H 0.34825 0.97882 0.10728 0.0
C80 C 0.09019 0.48694 0.3926 0.0
C81 C 0.09933 0.51438 0.43808 0.0
C82 C 0.05197 0.53343 0.45056 0.0
C83 C 0.08042 0.53734 0.46705 0.0
C84 C 0.043 0.50588 0.40436 0.0
C85 C 0.06194 0.48287 0.37579 0.0
U86 U 0.16365 0.46267 0.33707 0.0
O87 O 0.18688 0.4196 0.3704 0.0
O88 O 0.18085 0.43347 0.22311 0.0
C89 C 0.19081 0.41237 0.28162 0.0
C90 C 0.10999 0.46271 0.3617 0.0
C91 C 0.18713 0.379 0.25592 0.0
C92 C 0.16152 0.32957 0.25813 0.0
C93 C 0.16305 0.36203 0.27755 0.0
C94 C 0.20777 0.33123 0.19379 0.0
C95 C 0.18415 0.31374 0.21779 0.0
C96 C 0.2092 0.36347 0.21266 0.0
C97 C 0.22081 0.52381 0.36537 0.0
C98 C 0.26878 0.51128 0.33274 0.0
C99 C 0.25649 0.5631 0.39105 0.0
C100 C 0.22871 0.55419 0.39314 0.0
C101 C 0.2769 0.54173 0.36112 0.0
C102 C 0.24097 0.5024 0.33489 0.0
C103 C 0.19158 0.51465 0.36972 0.0
O104 O 0.12168 0.46799 0.27988 0.0
O105 O 0.12754 0.45314 0.42612 0.0
O106 O 0.18533 0.4941 0.43544 0.0
O107 O 0.17992 0.50831 0.28855 0.0
H108 H 0.12112 0.518 0.45144 0.0
H109 H 0.08811 0.55798 0.50344 0.0
H110 H 1.02135 0.50225 0.38907 0.0
H111 H 0.05452 0.46193 0.34018 0.0
H112 H 0.14308 0.31669 0.27746 0.0
H113 H 0.14577 0.3737 0.31104 0.0
H114 H 0.22534 0.31988 0.16114 0.0
H115 H 0.2279 0.3762 0.19512 0.0
H116 H 0.28388 0.49437 0.3082 0.0
H117 H 0.26201 0.58655 0.41461 0.0
H118 H 0.21339 0.57096 0.41719 0.0
H119 H 0.23519 0.47883 0.31301 0.0
C120 C 0.49326 0.60585 0.39257 0.0
C121 C 0.48411 0.57838 0.4379 0.0
C122 C 0.53148 0.55936 0.45051 0.0
C123 C 0.50302 0.55542 0.46686 0.0
C124 C 0.54046 0.58693 0.40445 0.0
C125 C 0.52151 0.60995 0.37589 0.0
U126 U 0.4198 0.6301 0.33706 0.0
O127 O 0.39655 0.67316 0.37048 0.0
O128 O 0.40259 0.65932 0.22317 0.0
C129 C 0.39262 0.6804 0.28172 0.0
C130 C 0.47345 0.63007 0.3617 0.0
C131 C 0.39629 0.71377 0.25609 0.0
C132 C 0.42199 0.76315 0.25779 0.0
C133 C 0.42044 0.73069 0.27718 0.0
C134 C 0.3756 0.7616 0.1946 0.0
C135 C 0.3993 0.77904 0.21804 0.0
C136 C 0.37415 0.72937 0.21343 0.0
C137 C 0.36265 0.56894 0.3653 0.0
C138 C 0.31468 0.58147 0.3327 0.0
C139 C 0.32698 0.52965 0.39103 0.0
C140 C 0.35476 0.53857 0.3931 0.0
C141 C 0.30656 0.55102 0.3611 0.0
C142 C 0.34249 0.59035 0.33482 0.0
C143 C 0.39188 0.57811 0.36964 0.0
O144 O 0.46177 0.6248 0.27987 0.0
O145 O 0.4559 0.63963 0.42613 0.0
O146 O 0.39813 0.59865 0.4354 0.0
O147 O 0.40353 0.58446 0.28848 0.0
H148 H 0.46233 0.57474 0.45116 0.0
H149 H 0.49534 0.53476 0.50313 0.0
H150 H 0.56211 0.59059 0.38926 0.0
H151 H 0.52893 0.6309 0.3404 0.0
H152 H 0.44049 0.77599 0.27669 0.0
H153 H 0.43777 0.71898 0.3102 0.0
H154 H 0.35798 0.773 0.1624 0.0
H155 H 0.35539 0.71668 0.19632 0.0
H156 H 0.29957 0.59838 0.30815 0.0
H157 H 0.32145 0.5062 0.41461 0.0
H158 H 0.37007 0.5218 0.41715 0.0
H159 H 0.34827 0.61392 0.31293 0.0
C160 C 0.99364 0.98835 0.87998 0.0
C161 C 0.98695 1.02049 0.87356 0.0
C162 C 1.03179 1.0348 0.93881 0.0
C163 C 1.00586 1.04348 0.90236 0.0
C164 C 1.03826 1.00247 0.94549 0.0
C165 C 1.01936 0.97951 0.91626 0.0
U166 U 0.92026 0.96385 0.82253 0.0
O167 O 0.90351 0.93349 0.71052 0.0
O168 O 0.89683 0.92116 0.8587 0.0
C169 C 0.89326 0.91303 0.77043 0.0
C170 C 0.97377 0.96396 0.8507 0.0
C171 C 0.89697 0.87942 0.74784 0.0
C172 C 0.9224 0.82994 0.75575 0.0
C173 C 0.92087 0.86257 0.77246 0.0
C174 C 0.87655 0.83119 0.68811 0.0
C175 C 0.89995 0.81384 0.71514 0.0
C176 C 0.87511 0.86358 0.7043 0.0
C177 C 0.86292 1.02498 0.84229 0.0
C178 C 0.81517 1.01168 0.80839 0.0
C179 C 0.82673 0.06373 0.86659 0.0
C180 C 0.8546 0.05526 0.86948 0.0
C181 C 0.80662 1.042 0.83645 0.0
C182 C 0.84308 1.00324 0.81136 0.0
C183 C 0.89218 1.01611 0.84874 0.0
O184 O 0.95587 0.95546 0.91528 0.0
O185 O 0.96249 0.96814 0.76758 0.0
O186 O 0.90421 1.00895 0.76881 0.0
O187 O 0.89822 0.99634 0.91674 0.0
H188 H 0.96711 1.02779 0.84608 0.0
H189 H 1.00027 0.06808 0.89496 0.0
H190 H 0.05779 0.99485 -0.02543 0.0
H191 H 1.02479 0.9548 0.92246 0.0
H192 H 0.94067 0.81717 0.77738 0.0
H193 H 0.93798 0.87448 0.80616 0.0
H194 H 0.85913 0.8196 0.6552 0.0
H195 H 0.85656 0.87621 0.68445 0.0
H196 H 0.80032 0.99449 0.78371 0.0
H197 H 0.82087 0.0871 0.88997 0.0
H198 H 0.86966 0.07228 0.89397 0.0
H199 H 0.84917 0.97971 0.79006 0.0
C200 C 0.58984 0.10443 0.87995 0.0
C201 C 0.5965 0.0723 0.87334 0.0
C202 C 0.55168 0.05798 0.93875 0.0
C203 C 0.57759 0.0493 0.90212 0.0
C204 C 0.54523 0.09031 0.9456 0.0
C205 C 0.56413 0.11327 0.91639 0.0
U206 U 0.66322 0.12891 0.82254 0.0
O207 O 0.67998 0.15931 0.71065 0.0
O208 O 0.68668 0.17157 0.85887 0.0
C209 C 0.69026 0.17973 0.77064 0.0
C210 C 0.60971 0.12883 0.85072 0.0
C211 C 0.68656 0.21335 0.74821 0.0
C212 C 0.66098 0.26274 0.75517 0.0
C213 C 0.66253 0.2301 0.7718 0.0
C214 C 0.7071 0.26169 0.68969 0.0
C215 C 0.68354 0.27894 0.71567 0.0
C216 C 0.70856 0.22929 0.7058 0.0
C217 C 0.72054 0.06775 0.84215 0.0
C218 C 0.76829 0.08107 0.80846 0.0
C219 C 0.75672 1.02898 0.86638 0.0
C220 C 0.72884 1.03745 0.86922 0.0
C221 C 0.77684 0.05073 0.83642 0.0
C222 C 0.74039 0.08951 0.81139 0.0
C223 C 0.69128 0.07663 0.8486 0.0
O224 O 0.62761 0.1373 0.91532 0.0
O225 O 0.62098 0.12467 0.76759 0.0
O226 O 0.67926 0.08382 0.76868 0.0
O227 O 0.68523 0.09638 0.91666 0.0
H228 H 0.61633 0.06499 0.84575 0.0
H229 H 0.58317 1.0247 0.89459 0.0
H230 H 0.52572 0.09793 -0.02519 0.0
H231 H 0.55872 0.13798 0.92274 0.0
H232 H 0.64258 0.27544 0.77598 0.0
H233 H 0.64531 0.21812 0.80462 0.0
H234 H 0.72462 0.27336 0.65764 0.0
H235 H 0.72722 0.21674 0.68674 0.0
H236 H 0.78315 0.09827 0.78392 0.0
H237 H 0.76256 1.0056 0.88967 0.0
H238 H 0.71378 1.02043 0.8936 0.0
H239 H 0.7343 0.11305 0.79019 0.0
C240 C 0.99365 0.60441 0.54004 0.0
C241 C 0.98696 0.57227 0.54658 0.0
C242 C 1.0318 0.55794 0.48136 0.0
C243 C 1.00587 0.54927 0.51785 0.0
C244 C 1.03827 0.59027 0.47456 0.0
C245 C 1.01938 0.61324 0.50372 0.0
U246 U 0.92027 0.62889 0.59733 0.0
O247 O 0.90351 0.65929 0.70918 0.0
O248 O 0.89683 0.67155 0.56095 0.0
C249 C 0.89324 0.67972 0.64918 0.0
C250 C 0.97378 0.6288 0.56922 0.0
C251 C 0.89693 0.71334 0.67163 0.0
C252 C 0.92248 0.76276 0.66451 0.0
C253 C 0.92094 0.73012 0.64788 0.0
C254 C 0.87639 0.76164 0.73031 0.0
C255 C 0.89993 0.77893 0.70417 0.0
C256 C 0.87495 0.72925 0.7142 0.0
C257 C 0.86293 0.56774 0.57767 0.0
C258 C 0.81518 0.58108 0.61121 0.0
C259 C 0.82674 0.52896 0.55356 0.0
C260 C 0.85462 0.53742 0.55073 0.0
C261 C 0.80663 0.55073 0.58338 0.0
C262 C 0.84309 0.58951 0.60829 0.0
C263 C 0.8922 0.57661 0.57125 0.0
O264 O 0.9559 0.63727 0.50459 0.0
O265 O 0.9625 0.62465 0.65234 0.0
O266 O 0.90422 0.58381 0.65118 0.0
O267 O 0.89826 0.59635 0.50319 0.0
H268 H 0.96712 0.56497 0.57408 0.0
H269 H 1.00027 0.52467 0.52534 0.0
H270 H 0.0578 0.59789 0.44545 0.0
H271 H 1.02481 0.63794 0.49742 0.0
H272 H 0.94085 0.77548 0.64357 0.0
H273 H 0.93815 0.71816 0.61493 0.0
H274 H 0.85889 0.77328 0.76249 0.0
H275 H 0.85631 0.71666 0.73339 0.0
H276 H 0.80032 0.5983 0.63565 0.0
H277 H 0.82089 0.50557 0.53037 0.0
H278 H 0.86968 0.52038 0.52647 0.0
H279 H 0.84918 0.61306 0.6294 0.0
C280 C 0.5898 0.48838 0.54 0.0
C281 C 0.59647 0.52052 0.54667 0.0
C282 C 0.55165 0.53485 0.4813 0.0
C283 C 0.57756 0.54352 0.51793 0.0
C284 C 0.5452 0.50252 0.47435 0.0
C285 C 0.56409 0.47955 0.50353 0.0
U286 U 0.66317 0.46387 0.59732 0.0
O287 O 0.67992 0.43351 0.7093 0.0
O288 O 0.68658 0.42117 0.56111 0.0
C289 C 0.69016 0.41304 0.64937 0.0
C290 C 0.60966 0.46398 0.56923 0.0
C291 C 0.68645 0.37944 0.67198 0.0
C292 C 0.66106 0.32992 0.66393 0.0
C293 C 0.66258 0.36255 0.64721 0.0
C294 C 0.70687 0.33123 0.73189 0.0
C295 C 0.6835 0.31385 0.7047 0.0
C296 C 0.7083 0.36363 0.71569 0.0
C297 C 0.72054 0.52499 0.57752 0.0
C298 C 0.76827 0.51169 0.61154 0.0
C299 C 0.75675 0.56372 0.55306 0.0
C300 C 0.72887 0.55525 0.55019 0.0
C301 C 0.77684 0.542 0.58334 0.0
C302 C 0.74036 0.50326 0.60857 0.0
C303 C 0.69127 0.51612 0.57109 0.0
O304 O 0.62754 0.45548 0.50462 0.0
O305 O 0.62095 0.46815 0.65234 0.0
O306 O 0.67924 0.50896 0.65103 0.0
O307 O 0.68521 0.49635 0.5031 0.0
H308 H 0.6163 0.52782 0.57429 0.0
H309 H 0.58315 0.56812 0.52553 0.0
H310 H 0.52568 0.4949 0.44513 0.0
H311 H 0.55867 0.45485 0.49713 0.0
H312 H 0.64281 0.31712 0.64217 0.0
H313 H 0.64548 0.37443 0.61338 0.0
H314 H 0.72428 0.31967 0.76493 0.0
H315 H 0.72682 0.37628 0.73567 0.0
H316 H 0.78311 0.49452 0.63632 0.0
H317 H 0.76261 0.58707 0.52958 0.0
H318 H 0.71382 0.57226 0.52559 0.0
H319 H 0.73425 0.47975 0.62998 0.0
loop_
_geom_bond_atom_site_label_1
_geom_bond_atom_site_label_2
_geom_bond_distance
_geom_bond_site_symmetry_2
_ccdc_geom_bond_type
C0 C1 1.264 . S
C0 C5 1.479 1_556 S
C0 C10 1.465 1_556 S
C1 C0 1.264 . S
C1 C3 1.343 . S
C1 H28 0.931 . S
C2 C3 1.398 . S
C2 C4 1.320 1_556 S
C3 C1 1.343 . S
C3 C2 1.398 . S
C3 H29 0.921 1_545 S
C4 C2 1.320 1_554 S
C4 C5 1.405 . S
C4 H30 0.930 1_455 S
C5 C0 1.479 1_554 S
C5 C4 1.405 . S
C5 H31 0.931 . S
U6 O7 2.454 . S
U6 O8 2.458 . S
U6 C9 2.984 . S
U6 C10 2.847 . S
U6 C23 2.882 . S
U6 O24 2.441 . S
U6 O25 2.420 1_554 S
U6 O26 2.455 . S
U6 O27 2.449 . S
O7 U6 2.454 . S
O7 C9 1.353 . S
O8 U6 2.458 . S
O8 C9 1.286 . S
C9 U6 2.984 . S
C9 O7 1.353 . S
C9 O8 1.286 . S
C9 C11 1.363 . S
C10 C0 1.465 1_554 S
C10 U6 2.847 . S
C10 O24 1.249 . S
C10 O25 1.202 1_554 S
C11 C9 1.363 . S
C11 C13 1.408 . S
C11 C16 1.342 . S
C12 C13 1.310 . S
C12 C15 1.461 . S
C12 H32 0.932 . S
C13 C11 1.408 . S
C13 C12 1.310 . S
C13 H33 0.930 . S
C14 C15 1.474 . S
C14 C16 1.285 . S
C14 H34 0.929 . S
C15 C12 1.461 . S
C15 C14 1.474 . S
C16 C11 1.342 . S
C16 C14 1.285 . S
C16 H35 0.930 . S
C17 C20 1.424 . S
C17 C22 1.245 . S
C17 C23 1.428 . S
C18 C21 1.260 . S
C18 C22 1.477 . S
C18 H36 0.932 . S
C19 C20 1.384 1_565 S
C19 C21 1.479 1_565 S
C19 H37 0.929 . S
C20 C17 1.424 . S
C20 C19 1.384 1_545 S
C20 H38 0.928 . S
C21 C18 1.260 . S
C21 C19 1.479 1_545 S
C22 C17 1.245 . S
C22 C18 1.477 . S
C22 H39 0.932 . S
C23 U6 2.882 . S
C23 C17 1.428 . S
C23 O26 1.301 . S
C23 O27 1.282 . S
O24 U6 2.441 . S
O24 C10 1.249 . S
O25 U6 2.420 1_556 S
O25 C10 1.202 1_556 S
O26 U6 2.455 . S
O26 C23 1.301 . S
O27 U6 2.449 . S
O27 C23 1.282 . S
H28 C1 0.931 . S
H29 C3 0.921 1_565 S
H30 C4 0.930 1_655 S
H31 C5 0.931 . S
H32 C12 0.932 . S
H33 C13 0.930 . S
H34 C14 0.929 . S
H35 C16 0.930 . S
H36 C18 0.932 . S
H37 C19 0.929 . S
H38 C20 0.928 . S
H39 C22 0.932 . S
C40 C41 1.264 . S
C40 C45 1.479 1_556 S
C40 C50 1.465 1_556 S
C41 C40 1.264 . S
C41 C43 1.343 . S
C41 H68 0.931 . S
C42 C43 1.398 . S
C42 C44 1.320 1_556 S
C43 C41 1.343 . S
C43 C42 1.398 . S
C43 H69 0.921 1_565 S
C44 C42 1.320 1_554 S
C44 C45 1.405 . S
C44 H70 0.930 . S
C45 C40 1.479 1_554 S
C45 C44 1.405 . S
C45 H71 0.931 . S
U46 O47 2.454 . S
U46 O48 2.458 . S
U46 C49 2.984 . S
U46 C50 2.847 . S
U46 C63 2.882 . S
U46 O64 2.441 . S
U46 O65 2.420 1_554 S
U46 O66 2.455 . S
U46 O67 2.449 . S
O47 U46 2.454 . S
O47 C49 1.353 . S
O48 U46 2.458 . S
O48 C49 1.286 . S
C49 U46 2.984 . S
C49 O47 1.353 . S
C49 O48 1.286 . S
C49 C51 1.363 . S
C50 C40 1.465 1_554 S
C50 U46 2.847 . S
C50 O64 1.249 . S
C50 O65 1.202 1_554 S
C51 C49 1.363 . S
C51 C53 1.408 . S
C51 C56 1.342 . S
C52 C53 1.310 . S
C52 C55 1.461 . S
C52 H72 0.932 . S
C53 C51 1.408 . S
C53 C52 1.310 . S
C53 H73 0.930 . S
C54 C55 1.474 . S
C54 C56 1.285 . S
C54 H74 0.929 . S
C55 C52 1.461 . S
C55 C54 1.474 . S
C56 C51 1.342 . S
C56 C54 1.285 . S
C56 H75 0.930 . S
C57 C60 1.424 . S
C57 C62 1.245 . S
C57 C63 1.428 . S
C58 C61 1.260 . S
C58 C62 1.477 . S
C58 H76 0.932 . S
C59 C60 1.384 1_545 S
C59 C61 1.479 1_545 S
C59 H77 0.929 . S
C60 C57 1.424 . S
C60 C59 1.384 1_565 S
C60 H78 0.928 . S
C61 C58 1.260 . S
C61 C59 1.479 1_565 S
C62 C57 1.245 . S
C62 C58 1.477 . S
C62 H79 0.932 . S
C63 U46 2.882 . S
C63 C57 1.428 . S
C63 O66 1.301 . S
C63 O67 1.282 . S
O64 U46 2.441 . S
O64 C50 1.249 . S
O65 U46 2.420 1_556 S
O65 C50 1.202 1_556 S
O66 U46 2.455 . S
O66 C63 1.301 . S
O67 U46 2.449 . S
O67 C63 1.282 . S
H68 C41 0.931 . S
H69 C43 0.921 1_545 S
H70 C44 0.930 . S
H71 C45 0.931 . S
H72 C52 0.932 . S
H73 C53 0.930 . S
H74 C54 0.929 . S
H75 C56 0.930 . S
H76 C58 0.932 . S
H77 C59 0.929 . S
H78 C60 0.928 . S
H79 C62 0.932 . S
C80 C81 1.264 . S
C80 C85 1.479 . S
C80 C90 1.465 . S
C81 C80 1.264 . S
C81 C83 1.339 . S
C81 H108 0.931 . S
C82 C83 1.395 . S
C82 C84 1.320 . S
C83 C81 1.339 . S
C83 C82 1.395 . S
C83 H109 0.929 . S
C84 C82 1.320 . S
C84 C85 1.405 . S
C84 H110 0.930 1_455 S
C85 C80 1.479 . S
C85 C84 1.405 . S
C85 H111 0.931 . S
U86 O87 2.454 . S
U86 O88 2.458 . S
U86 C89 2.984 . S
U86 C90 2.847 . S
U86 C103 2.882 . S
U86 O104 2.441 . S
U86 O105 2.420 . S
U86 O106 2.455 . S
U86 O107 2.449 . S
O87 U86 2.454 . S
O87 C89 1.353 . S
O88 U86 2.458 . S
O88 C89 1.286 . S
C89 U86 2.984 . S
C89 O87 1.353 . S
C89 O88 1.286 . S
C89 C91 1.363 . S
C90 C80 1.465 . S
C90 U86 2.847 . S
C90 O104 1.249 . S
C90 O105 1.202 . S
C91 C89 1.363 . S
C91 C93 1.408 . S
C91 C96 1.342 . S
C92 C93 1.310 . S
C92 C95 1.461 . S
C92 H112 0.932 . S
C93 C91 1.408 . S
C93 C92 1.310 . S
C93 H113 0.930 . S
C94 C95 1.474 . S
C94 C96 1.285 . S
C94 H114 0.929 . S
C95 C92 1.461 . S
C95 C94 1.474 . S
C96 C91 1.342 . S
C96 C94 1.285 . S
C96 H115 0.930 . S
C97 C100 1.424 . S
C97 C102 1.245 . S
C97 C103 1.428 . S
C98 C101 1.260 . S
C98 C102 1.477 . S
C98 H116 0.932 . S
C99 C100 1.384 . S
C99 C101 1.479 . S
C99 H117 0.929 . S
C100 C97 1.424 . S
C100 C99 1.384 . S
C100 H118 0.928 . S
C101 C98 1.260 . S
C101 C99 1.479 . S
C102 C97 1.245 . S
C102 C98 1.477 . S
C102 H119 0.932 . S
C103 U86 2.882 . S
C103 C97 1.428 . S
C103 O106 1.301 . S
C103 O107 1.282 . S
O104 U86 2.441 . S
O104 C90 1.249 . S
O105 U86 2.420 . S
O105 C90 1.202 . S
O106 U86 2.455 . S
O106 C103 1.301 . S
O107 U86 2.449 . S
O107 C103 1.282 . S
H108 C81 0.931 . S
H109 C83 0.929 . S
H110 C84 0.930 1_655 S
H111 C85 0.931 . S
H112 C92 0.932 . S
H113 C93 0.930 . S
H114 C94 0.929 . S
H115 C96 0.930 . S
H116 C98 0.932 . S
H117 C99 0.929 . S
H118 C100 0.928 . S
H119 C102 0.932 . S
C120 C121 1.264 . S
C120 C125 1.479 . S
C120 C130 1.465 . S
C121 C120 1.264 . S
C121 C123 1.339 . S
C121 H148 0.931 . S
C122 C123 1.395 . S
C122 C124 1.320 . S
C123 C121 1.339 . S
C123 C122 1.395 . S
C123 H149 0.929 . S
C124 C122 1.320 . S
C124 C125 1.405 . S
C124 H150 0.930 . S
C125 C120 1.479 . S
C125 C124 1.405 . S
C125 H151 0.931 . S
U126 O127 2.454 . S
U126 O128 2.458 . S
U126 C129 2.984 . S
U126 C130 2.847 . S
U126 C143 2.882 . S
U126 O144 2.441 . S
U126 O145 2.420 . S
U126 O146 2.455 . S
U126 O147 2.449 . S
O127 U126 2.454 . S
O127 C129 1.353 . S
O128 U126 2.458 . S
O128 C129 1.286 . S
C129 U126 2.984 . S
C129 O127 1.353 . S
C129 O128 1.286 . S
C129 C131 1.363 . S
C130 C120 1.465 . S
C130 U126 2.847 . S
C130 O144 1.249 . S
C130 O145 1.202 . S
C131 C129 1.363 . S
C131 C133 1.408 . S
C131 C136 1.342 . S
C132 C133 1.310 . S
C132 C135 1.461 . S
C132 H152 0.932 . S
C133 C131 1.408 . S
C133 C132 1.310 . S
C133 H153 0.930 . S
C134 C135 1.474 . S
C134 C136 1.285 . S
C134 H154 0.929 . S
C135 C132 1.461 . S
C135 C134 1.474 . S
C136 C131 1.342 . S
C136 C134 1.285 . S
C136 H155 0.930 . S
C137 C140 1.424 . S
C137 C142 1.245 . S
C137 C143 1.428 . S
C138 C141 1.260 . S
C138 C142 1.477 . S
C138 H156 0.932 . S
C139 C140 1.384 . S
C139 C141 1.479 . S
C139 H157 0.929 . S
C140 C137 1.424 . S
C140 C139 1.384 . S
C140 H158 0.928 . S
C141 C138 1.260 . S
C141 C139 1.479 . S
C142 C137 1.245 . S
C142 C138 1.477 . S
C142 H159 0.932 . S
C143 U126 2.882 . S
C143 C137 1.428 . S
C143 O146 1.301 . S
C143 O147 1.282 . S
O144 U126 2.441 . S
O144 C130 1.249 . S
O145 U126 2.420 . S
O145 C130 1.202 . S
O146 U126 2.455 . S
O146 C143 1.301 . S
O147 U126 2.449 . S
O147 C143 1.282 . S
H148 C121 0.931 . S
H149 C123 0.929 . S
H150 C124 0.930 . S
H151 C125 0.931 . S
H152 C132 0.932 . S
H153 C133 0.930 . S
H154 C134 0.929 . S
H155 C136 0.930 . S
H156 C138 0.932 . S
H157 C139 0.929 . S
H158 C140 0.928 . S
H159 C142 0.932 . S
C160 C161 1.264 . S
C160 C165 1.479 . S
C160 C170 1.465 . S
C161 C160 1.264 . S
C161 C163 1.339 1_565 S
C161 H188 0.933 1_565 S
C162 C163 1.395 1_565 S
C162 C164 1.320 . S
C163 C161 1.339 1_545 S
C163 C162 1.395 1_545 S
C163 H189 0.929 . S
C164 C162 1.320 . S
C164 C165 1.405 . S
C164 H190 0.930 1_655 S
C165 C160 1.479 . S
C165 C164 1.405 . S
C165 H191 0.931 . S
U166 O167 2.454 . S
U166 O168 2.458 . S
U166 C169 2.984 . S
U166 C170 2.847 . S
U166 C183 2.882 . S
U166 O184 2.441 . S
U166 O185 2.420 . S
U166 O186 2.455 . S
U166 O187 2.449 . S
O167 U166 2.454 . S
O167 C169 1.353 . S
O168 U166 2.458 . S
O168 C169 1.286 . S
C169 U166 2.984 . S
C169 O167 1.353 . S
C169 O168 1.286 . S
C169 C171 1.363 . S
C170 C160 1.465 . S
C170 U166 2.847 . S
C170 O184 1.249 . S
C170 O185 1.202 . S
C171 C169 1.363 . S
C171 C173 1.408 . S
C171 C176 1.342 . S
C172 C173 1.310 . S
C172 C175 1.461 . S
C172 H192 0.932 . S
C173 C171 1.408 . S
C173 C172 1.310 . S
C173 H193 0.930 . S
C174 C175 1.474 . S
C174 C176 1.285 . S
C174 H194 0.929 . S
C175 C172 1.461 . S
C175 C174 1.474 . S
C176 C171 1.342 . S
C176 C174 1.285 . S
C176 H195 0.930 . S
C177 C180 1.424 . S
C177 C182 1.245 . S
C177 C183 1.428 . S
C178 C181 1.260 . S
C178 C182 1.477 . S
C178 H196 0.932 . S
C179 C180 1.384 1_545 S
C179 C181 1.479 1_545 S
C179 H197 0.929 . S
C180 C177 1.424 . S
C180 C179 1.384 1_565 S
C180 H198 0.928 . S
C181 C178 1.260 . S
C181 C179 1.479 1_565 S
C182 C177 1.245 . S
C182 C178 1.477 . S
C182 H199 0.932 . S
C183 U166 2.882 . S
C183 C177 1.428 . S
C183 O186 1.301 . S
C183 O187 1.282 . S
O184 U166 2.441 . S
O184 C170 1.249 . S
O185 U166 2.420 . S
O185 C170 1.202 . S
O186 U166 2.455 . S
O186 C183 1.301 . S
O187 U166 2.449 . S
O187 C183 1.282 . S
H188 C161 0.933 1_545 S
H189 C163 0.929 . S
H190 C164 0.930 1_455 S
H191 C165 0.931 . S
H192 C172 0.932 . S
H193 C173 0.930 . S
H194 C174 0.929 . S
H195 C176 0.930 . S
H196 C178 0.932 . S
H197 C179 0.929 . S
H198 C180 0.928 . S
H199 C182 0.932 . S
C200 C201 1.264 . S
C200 C205 1.479 . S
C200 C210 1.465 . S
C201 C200 1.264 . S
C201 C203 1.339 1_545 S
C201 H228 0.933 1_545 S
C202 C203 1.395 1_545 S
C202 C204 1.320 . S
C203 C201 1.339 1_565 S
C203 C202 1.395 1_565 S
C203 H229 0.929 . S
C204 C202 1.320 . S
C204 C205 1.405 . S
C204 H230 0.930 . S
C205 C200 1.479 . S
C205 C204 1.405 . S
C205 H231 0.931 . S
U206 O207 2.454 . S
U206 O208 2.458 . S
U206 C209 2.984 . S
U206 C210 2.847 . S
U206 C223 2.882 . S
U206 O224 2.441 . S
U206 O225 2.420 . S
U206 O226 2.455 . S
U206 O227 2.449 . S
O207 U206 2.454 . S
O207 C209 1.353 . S
O208 U206 2.458 . S
O208 C209 1.286 . S
C209 U206 2.984 . S
C209 O207 1.353 . S
C209 O208 1.286 . S
C209 C211 1.363 . S
C210 C200 1.465 . S
C210 U206 2.847 . S
C210 O224 1.249 . S
C210 O225 1.202 . S
C211 C209 1.363 . S
C211 C213 1.408 . S
C211 C216 1.342 . S
C212 C213 1.310 . S
C212 C215 1.461 . S
C212 H232 0.932 . S
C213 C211 1.408 . S
C213 C212 1.310 . S
C213 H233 0.930 . S
C214 C215 1.474 . S
C214 C216 1.285 . S
C214 H234 0.929 . S
C215 C212 1.461 . S
C215 C214 1.474 . S
C216 C211 1.342 . S
C216 C214 1.285 . S
C216 H235 0.930 . S
C217 C220 1.424 . S
C217 C222 1.245 . S
C217 C223 1.428 . S
C218 C221 1.260 . S
C218 C222 1.477 . S
C218 H236 0.932 . S
C219 C220 1.384 1_565 S
C219 C221 1.479 1_565 S
C219 H237 0.929 . S
C220 C217 1.424 . S
C220 C219 1.384 1_545 S
C220 H238 0.928 . S
C221 C218 1.260 . S
C221 C219 1.479 1_545 S
C222 C217 1.245 . S
C222 C218 1.477 . S
C222 H239 0.932 . S
C223 U206 2.882 . S
C223 C217 1.428 . S
C223 O226 1.301 . S
C223 O227 1.282 . S
O224 U206 2.441 . S
O224 C210 1.249 . S
O225 U206 2.420 . S
O225 C210 1.202 . S
O226 U206 2.455 . S
O226 C223 1.301 . S
O227 U206 2.449 . S
O227 C223 1.282 . S
H228 C201 0.933 1_565 S
H229 C203 0.929 . S
H230 C204 0.930 . S
H231 C205 0.931 . S
H232 C212 0.932 . S
H233 C213 0.930 . S
H234 C214 0.929 . S
H235 C216 0.930 . S
H236 C218 0.932 . S
H237 C219 0.929 . S
H238 C220 0.928 . S
H239 C222 0.932 . S
C240 C241 1.264 . S
C240 C245 1.479 . S
C240 C250 1.465 . S
C241 C240 1.264 . S
C241 C243 1.339 . S
C241 H268 0.931 . S
C242 C243 1.395 . S
C242 C244 1.320 . S
C243 C241 1.339 . S
C243 C242 1.395 . S
C243 H269 0.929 . S
C244 C242 1.320 . S
C244 C245 1.405 . S
C244 H270 0.930 1_655 S
C245 C240 1.479 . S
C245 C244 1.405 . S
C245 H271 0.931 . S
U246 O247 2.454 . S
U246 O248 2.458 . S
U246 C249 2.984 . S
U246 C250 2.847 . S
U246 C263 2.882 . S
U246 O264 2.441 . S
U246 O265 2.420 . S
U246 O266 2.455 . S
U246 O267 2.449 . S
O247 U246 2.454 . S
O247 C249 1.353 . S
O248 U246 2.458 . S
O248 C249 1.286 . S
C249 U246 2.984 . S
C249 O247 1.353 . S
C249 O248 1.286 . S
C249 C251 1.363 . S
C250 C240 1.465 . S
C250 U246 2.847 . S
C250 O264 1.249 . S
C250 O265 1.202 . S
C251 C249 1.363 . S
C251 C253 1.408 . S
C251 C256 1.342 . S
C252 C253 1.310 . S
C252 C255 1.461 . S
C252 H272 0.932 . S
C253 C251 1.408 . S
C253 C252 1.310 . S
C253 H273 0.930 . S
C254 C255 1.474 . S
C254 C256 1.285 . S
C254 H274 0.929 . S
C255 C252 1.461 . S
C255 C254 1.474 . S
C256 C251 1.342 . S
C256 C254 1.285 . S
C256 H275 0.930 . S
C257 C260 1.424 . S
C257 C262 1.245 . S
C257 C263 1.428 . S
C258 C261 1.260 . S
C258 C262 1.477 . S
C258 H276 0.932 . S
C259 C260 1.384 . S
C259 C261 1.479 . S
C259 H277 0.929 . S
C260 C257 1.424 . S
C260 C259 1.384 . S
C260 H278 0.928 . S
C261 C258 1.260 . S
C261 C259 1.479 . S
C262 C257 1.245 . S
C262 C258 1.477 . S
C262 H279 0.932 . S
C263 U246 2.882 . S
C263 C257 1.428 . S
C263 O266 1.301 . S
C263 O267 1.282 . S
O264 U246 2.441 . S
O264 C250 1.249 . S
O265 U246 2.420 . S
O265 C250 1.202 . S
O266 U246 2.455 . S
O266 C263 1.301 . S
O267 U246 2.449 . S
O267 C263 1.282 . S
H268 C241 0.931 . S
H269 C243 0.929 . S
H270 C244 0.930 1_455 S
H271 C245 0.931 . S
H272 C252 0.932 . S
H273 C253 0.930 . S
H274 C254 0.929 . S
H275 C256 0.930 . S
H276 C258 0.932 . S
H277 C259 0.929 . S
H278 C260 0.928 . S
H279 C262 0.932 . S
C280 C281 1.264 . S
C280 C285 1.479 . S
C280 C290 1.465 . S
C281 C280 1.264 . S
C281 C283 1.339 . S
C281 H308 0.931 . S
C282 C283 1.395 . S
C282 C284 1.320 . S
C283 C281 1.339 . S
C283 C282 1.395 . S
C283 H309 0.929 . S
C284 C282 1.320 . S
C284 C285 1.405 . S
C284 H310 0.930 . S
C285 C280 1.479 . S
C285 C284 1.405 . S
C285 H311 0.931 . S
U286 O287 2.454 . S
U286 O288 2.458 . S
U286 C289 2.984 . S
U286 C290 2.847 . S
U286 C303 2.882 . S
U286 O304 2.441 . S
U286 O305 2.420 . S
U286 O306 2.455 . S
U286 O307 2.449 . S
O287 U286 2.454 . S
O287 C289 1.353 . S
O288 U286 2.458 . S
O288 C289 1.286 . S
C289 U286 2.984 . S
C289 O287 1.353 . S
C289 O288 1.286 . S
C289 C291 1.363 . S
C290 C280 1.465 . S
C290 U286 2.847 . S
C290 O304 1.249 . S
C290 O305 1.202 . S
C291 C289 1.363 . S
C291 C293 1.408 . S
C291 C296 1.342 . S
C292 C293 1.310 . S
C292 C295 1.461 . S
C292 H312 0.932 . S
C293 C291 1.408 . S
C293 C292 1.310 . S
C293 H313 0.930 . S
C294 C295 1.474 . S
C294 C296 1.285 . S
C294 H314 0.929 . S
C295 C292 1.461 . S
C295 C294 1.474 . S
C296 C291 1.342 . S
C296 C294 1.285 . S
C296 H315 0.930 . S
C297 C300 1.424 . S
C297 C302 1.245 . S
C297 C303 1.428 . S
C298 C301 1.260 . S
C298 C302 1.477 . S
C298 H316 0.932 . S
C299 C300 1.384 . S
C299 C301 1.479 . S
C299 H317 0.929 . S
C300 C297 1.424 . S
C300 C299 1.384 . S
C300 H318 0.928 . S
C301 C298 1.260 . S
C301 C299 1.479 . S
C302 C297 1.245 . S
C302 C298 1.477 . S
C302 H319 0.932 . S
C303 U286 2.882 . S
C303 C297 1.428 . S
C303 O306 1.301 . S
C303 O307 1.282 . S
O304 U286 2.441 . S
O304 C290 1.249 . S
O305 U286 2.420 . S
O305 C290 1.202 . S
O306 U286 2.455 . S
O306 C303 1.301 . S
O307 U286 2.449 . S
O307 C303 1.282 . S
H308 C281 0.931 . S
H309 C283 0.929 . S
H310 C284 0.930 . S
H311 C285 0.931 . S
H312 C292 0.932 . S
H313 C293 0.930 . S
H314 C294 0.929 . S
H315 C296 0.930 . S
H316 C298 0.932 . S
H317 C299 0.929 . S
H318 C300 0.928 . S
H319 C302 0.932 . S
C15 C95 1.538 . S
C55 C135 1.538 . S
C175 C255 1.525 . S
C295 C215 1.525 . S
C61 C21 1.471 1_565 S
C141 C101 1.470 . S
C221 C181 1.454 1_545 S
C301 C261 1.452 . S
C162 C2 1.494 1_665 S
C42 C202 1.493 1_565 S
C242 C82 1.495 1_655 S
C122 C282 1.495 . S
