# Generated by pormake.
# Topology ske, (6)-cn, num edge types: 1
# Building blocks:
#     Node 0, Type 0, BuildingBlock: BETDEL_clean_sbu_0, # of connection points: 6
#     Node 1, Type 0, BuildingBlock: BETDEL_clean_sbu_0, # of connection points: 6
#     Node 2, Type 0, BuildingBlock: BETDEL_clean_sbu_0, # of connection points: 6
#     Node 3, Type 0, BuildingBlock: BETDEL_clean_sbu_0, # of connection points: 6
#     Node 4, Type 0, BuildingBlock: BETDEL_clean_sbu_0, # of connection points: 6
#     Node 5, Type 0, BuildingBlock: BETDEL_clean_sbu_0, # of connection points: 6
#     Node 6, Type 0, BuildingBlock: BETDEL_clean_sbu_0, # of connection points: 6
#     Node 7, Type 0, BuildingBlock: BETDEL_clean_sbu_0, # of connection points: 6
#     Edge 8, Type (0, 0), BuildingBlock: UVAHIK_clean_linker_0, # of connection points: 2
#     Edge 9, Type (0, 0), BuildingBlock: UVAHIK_clean_linker_0, # of connection points: 2
#     Edge 10, Type (0, 0), BuildingBlock: UVAHIK_clean_linker_0, # of connection points: 2
#     Edge 11, Type (0, 0), BuildingBlock: UVAHIK_clean_linker_0, # of connection points: 2
#     Edge 12, Type (0, 0), BuildingBlock: UVAHIK_clean_linker_0, # of connection points: 2
#     Edge 13, Type (0, 0), BuildingBlock: UVAHIK_clean_linker_0, # of connection points: 2
#     Edge 14, Type (0, 0), BuildingBlock: UVAHIK_clean_linker_0, # of connection points: 2
#     Edge 15, Type (0, 0), BuildingBlock: UVAHIK_clean_linker_0, # of connection points: 2
#     Edge 16, Type (0, 0), BuildingBlock: UVAHIK_clean_linker_0, # of connection points: 2
#     Edge 17, Type (0, 0), BuildingBlock: UVAHIK_clean_linker_0, # of connection points: 2
#     Edge 18, Type (0, 0), BuildingBlock: UVAHIK_clean_linker_0, # of connection points: 2
#     Edge 19, Type (0, 0), BuildingBlock: UVAHIK_clean_linker_0, # of connection points: 2
#     Edge 20, Type (0, 0), BuildingBlock: UVAHIK_clean_linker_0, # of connection points: 2
#     Edge 21, Type (0, 0), BuildingBlock: UVAHIK_clean_linker_0, # of connection points: 2
#     Edge 22, Type (0, 0), BuildingBlock: UVAHIK_clean_linker_0, # of connection points: 2
#     Edge 23, Type (0, 0), BuildingBlock: UVAHIK_clean_linker_0, # of connection points: 2
#     Edge 24, Type (0, 0), BuildingBlock: UVAHIK_clean_linker_0, # of connection points: 2
#     Edge 25, Type (0, 0), BuildingBlock: UVAHIK_clean_linker_0, # of connection points: 2
#     Edge 26, Type (0, 0), BuildingBlock: UVAHIK_clean_linker_0, # of connection points: 2
#     Edge 27, Type (0, 0), BuildingBlock: UVAHIK_clean_linker_0, # of connection points: 2
#     Edge 28, Type (0, 0), BuildingBlock: UVAHIK_clean_linker_0, # of connection points: 2
#     Edge 29, Type (0, 0), BuildingBlock: UVAHIK_clean_linker_0, # of connection points: 2
#     Edge 30, Type (0, 0), BuildingBlock: UVAHIK_clean_linker_0, # of connection points: 2
#     Edge 31, Type (0, 0), BuildingBlock: UVAHIK_clean_linker_0, # of connection points: 2
# Relax obj value: 0.143
# Max RMSD: 0.160
# Mean RMSD: 0.158
data_MOF--net-ske--node1-BETDEL_clean_sbu_0--edge1-UVAHIK_clean_linker_0
_symmetry_space_group_name_H-M    P1
_symmetry_Int_Tables_number       1
_symmetry_cell_setting            triclinic
loop_
_symmetry_equiv_pos_as_xyz
'x, y, z'
_cell_length_a     87.89617
_cell_length_b     37.72576
_cell_length_c     20.025701
_cell_angle_alpha  89.982557
_cell_angle_beta   90.03719
_cell_angle_gamma 84.964116
loop_
_atom_site_label
_atom_site_type_symbol
_atom_site_fract_x
_atom_site_fract_y
_atom_site_fract_z
_atom_type_partial_charge
Dy0 Dy 0.15529 0.25386 0.55198 0.0
C1 C 0.09033 0.25585 0.54156 0.0
C2 C 0.18559 0.25991 0.57754 0.0
Dy3 Dy 0.12124 0.25835 0.55561 0.0
O4 O 0.17973 0.23095 0.56008 0.0
O5 O 0.17493 0.28605 0.57901 0.0
O6 O 0.15582 0.20248 0.49756 0.0
O7 O 0.13881 0.21435 0.5708 0.0
C8 C 0.14372 0.19238 0.52636 0.0
C9 C 0.13335 0.32084 0.57374 0.0
O10 O 0.12505 0.24374 0.66214 0.0
O11 O 0.15017 0.25731 0.66209 0.0
O12 O 0.09735 0.28445 0.54749 0.0
O13 O 0.10023 0.22815 0.54286 0.0
O14 O 0.12178 0.31106 0.60698 0.0
O15 O 0.13774 0.29695 0.5324 0.0
O16 O 0.15117 0.26849 0.44526 0.0
O17 O 0.12622 0.25285 0.44553 0.0
C18 C 0.13772 0.24955 0.69423 0.0
C19 C 0.1386 0.26123 0.41317 0.0
Dy20 Dy 0.86142 0.259 0.55046 0.0
C21 C 0.92633 0.25896 0.53698 0.0
C22 C 0.83109 0.25387 0.57649 0.0
Dy23 Dy 0.89558 0.25513 0.5532 0.0
O24 O 0.83729 0.283 0.56349 0.0
O25 O 0.84141 0.22704 0.57323 0.0
O26 O 0.86066 0.30995 0.49448 0.0
O27 O 0.87784 0.29886 0.56745 0.0
C28 C 0.87278 0.32044 0.52256 0.0
C29 C 0.88377 0.19248 0.5733 0.0
O30 O 0.89195 0.26783 0.66061 0.0
O31 O 0.86671 0.25501 0.66029 0.0
O32 O 0.91916 0.23072 0.52874 0.0
O33 O 0.91667 0.28553 0.55367 0.0
O34 O 0.89553 0.20242 0.60509 0.0
O35 O 0.87914 0.21616 0.53189 0.0
O36 O 0.86552 0.24433 0.44381 0.0
O37 O 0.89016 0.2619 0.44373 0.0
C38 C 0.87924 0.26221 0.69248 0.0
C39 C 0.87792 0.25248 0.41155 0.0
Dy40 Dy 0.12115 0.75862 0.43037 0.0
C41 C 0.18568 0.75753 0.40679 0.0
C42 C 0.09033 0.75579 0.4464 0.0
Dy43 Dy 0.15528 0.75363 0.43301 0.0
O44 O 0.09755 0.78419 0.4505 0.0
O45 O 0.09998 0.72849 0.43392 0.0
O46 O 0.12144 0.81134 0.37903 0.0
O47 O 0.13784 0.79704 0.45213 0.0
C48 C 0.13323 0.82096 0.41108 0.0
C49 C 0.14344 0.69254 0.46004 0.0
O50 O 0.15139 0.76791 0.53995 0.0
O51 O 0.12647 0.75207 0.53997 0.0
O52 O 0.17914 0.72854 0.4169 0.0
O53 O 0.17567 0.78481 0.41303 0.0
O54 O 0.15559 0.70255 0.48868 0.0
O55 O 0.13863 0.71444 0.41527 0.0
O56 O 0.12473 0.74566 0.32305 0.0
O57 O 0.14992 0.75878 0.32338 0.0
C58 C 0.13886 0.76061 0.57215 0.0
C59 C 0.13741 0.75153 0.29113 0.0
Dy60 Dy 0.89555 0.75515 0.43281 0.0
C61 C 0.83115 0.75325 0.41027 0.0
C62 C 0.92636 0.75848 0.44809 0.0
Dy63 Dy 0.86143 0.75931 0.43606 0.0
O64 O 0.91937 0.72967 0.44783 0.0
O65 O 0.91649 0.78591 0.44042 0.0
O66 O 0.89533 0.70263 0.38078 0.0
O67 O 0.87906 0.71627 0.45477 0.0
C68 C 0.88366 0.69267 0.41313 0.0
C69 C 0.87301 0.82079 0.46242 0.0
O70 O 0.86558 0.74429 0.54257 0.0
O71 O 0.89037 0.76091 0.54266 0.0
O72 O 0.83698 0.78214 0.42842 0.0
O73 O 0.84183 0.72717 0.40824 0.0
O74 O 0.86089 0.81062 0.49105 0.0
O75 O 0.87787 0.79891 0.41779 0.0
O76 O 0.89183 0.76892 0.32583 0.0
O77 O 0.86657 0.75628 0.32596 0.0
C78 C 0.87806 0.75195 0.57483 0.0
C79 C 0.87909 0.76354 0.29383 0.0
Dy80 Dy 0.65548 0.75428 0.05204 0.0
C81 C 0.59053 0.75624 0.04207 0.0
C82 C 0.68578 0.76036 0.07752 0.0
Dy83 Dy 0.62145 0.75859 0.05597 0.0
O84 O 0.67994 0.73145 0.05957 0.0
O85 O 0.6751 0.78645 0.07952 0.0
O86 O 0.65606 0.70321 -0.00325 0.0
O87 O 0.63905 0.71454 0.07034 0.0
C88 C 0.64399 0.69289 0.02538 0.0
C89 C 0.63353 0.82111 0.07448 0.0
O90 O 0.62531 0.74367 0.16235 0.0
O91 O 0.65041 0.75732 0.1622 0.0
O92 O 0.59756 0.78476 0.04868 0.0
O93 O 0.60042 0.72851 0.04262 0.0
O94 O 0.622 0.81119 0.10781 0.0
O95 O 0.6379 0.79733 0.03292 0.0
O96 O 0.65129 0.76923 0.94548 0.0
O97 O 0.62637 0.75348 0.94578 0.0
C98 C 0.63799 0.74944 0.19438 0.0
C99 C 0.63873 0.76198 0.9134 0.0
Dy100 Dy 0.36155 0.76116 0.05056 0.0
C101 C 0.42648 0.76069 0.03676 0.0
C102 C 0.33119 0.7567 0.07685 0.0
Dy103 Dy 0.39572 0.75703 0.05308 0.0
O104 O 0.33766 0.78583 0.0673 0.0
O105 O 0.34125 0.72955 0.07002 0.0
O106 O 0.36086 0.81199 -0.00579 0.0
O107 O 0.37804 0.8009 0.06718 0.0
C108 C 0.373 0.82244 0.02219 0.0
C109 C 0.38384 0.69446 0.07339 0.0
O110 O 0.39211 0.76967 0.16051 0.0
O111 O 0.36692 0.75644 0.1602 0.0
O112 O 0.41925 0.73261 0.02769 0.0
O113 O 0.41688 0.78719 0.05434 0.0
O114 O 0.39566 0.7043 0.10495 0.0
O115 O 0.37922 0.71818 0.03204 0.0
O116 O 0.36556 0.74674 0.94374 0.0
O117 O 0.39028 0.76385 0.94364 0.0
C118 C 0.37943 0.76378 0.1924 0.0
C119 C 0.378 0.75465 0.91149 0.0
Dy120 Dy 0.62113 0.25906 0.93011 0.0
C121 C 0.68565 0.2576 0.90757 0.0
C122 C 0.59025 0.25686 0.94506 0.0
Dy123 Dy 0.65523 0.25365 0.93341 0.0
O124 O 0.59741 0.2854 0.94343 0.0
O125 O 0.59999 0.22907 0.93895 0.0
O126 O 0.62166 0.31152 0.87809 0.0
O127 O 0.63789 0.29733 0.95202 0.0
C128 C 0.63341 0.3211 0.91048 0.0
C129 C 0.64322 0.19279 0.96043 0.0
O130 O 0.6513 0.26842 0.04012 0.0
O131 O 0.62624 0.25351 0.04008 0.0
O132 O 0.67924 0.22874 0.92066 0.0
O133 O 0.67549 0.28475 0.91063 0.0
O134 O 0.65535 0.2027 0.98931 0.0
O135 O 0.63851 0.21464 0.91541 0.0
O136 O 0.6248 0.24502 0.82327 0.0
O137 O 0.65001 0.25796 0.8235 0.0
C138 C 0.63869 0.26167 0.07229 0.0
C139 C 0.6375 0.25061 0.79128 0.0
Dy140 Dy 0.39546 0.25732 0.93229 0.0
C141 C 0.33105 0.25506 0.90919 0.0
C142 C 0.42623 0.26094 0.94839 0.0
Dy143 Dy 0.36132 0.26125 0.9351 0.0
O144 O 0.41911 0.23245 0.95387 0.0
O145 O 0.4165 0.2879 0.93454 0.0
O146 O 0.39542 0.20476 0.8803 0.0
O147 O 0.37901 0.2183 0.95376 0.0
C148 C 0.38369 0.19474 0.91221 0.0
C149 C 0.37279 0.32282 0.96182 0.0
O150 O 0.36548 0.24636 0.04166 0.0
O151 O 0.39011 0.26387 0.04182 0.0
O152 O 0.33689 0.28409 0.92634 0.0
O153 O 0.34171 0.22891 0.90823 0.0
O154 O 0.36065 0.31257 0.99016 0.0
O155 O 0.37772 0.30097 0.91727 0.0
O156 O 0.39183 0.27031 0.82495 0.0
O157 O 0.3665 0.25813 0.82509 0.0
C158 C 0.37788 0.25449 0.07397 0.0
C159 C 0.37907 0.2651 0.79298 0.0
C160 C 0.20593 0.29228 0.63243 0.0
C161 C 0.20129 0.26113 0.60334 0.0
C162 C 0.22012 0.29194 0.66442 0.0
C163 C 0.25782 0.2398 0.68194 0.0
H164 H 0.25891 0.28831 0.85232 0.0
C165 C 0.31075 0.22257 0.85421 0.0
C166 C 0.31537 0.25375 0.88325 0.0
C167 C 0.29657 0.22284 0.82214 0.0
C168 C 0.25885 0.27487 0.80456 0.0
H169 H 0.20798 0.20554 0.583 0.0
H170 H 0.23266 0.20486 0.63876 0.0
H171 H 0.23521 0.2914 0.78851 0.0
H172 H 0.30864 0.30935 0.90339 0.0
H173 H 0.28399 0.30992 0.84751 0.0
H174 H 0.28147 0.22327 0.698 0.0
C175 C 0.22547 0.22966 0.63657 0.0
C176 C 0.24526 0.27675 0.76781 0.0
C177 C 0.2113 0.23001 0.60472 0.0
C178 C 0.30535 0.28485 0.88171 0.0
C179 C 0.29119 0.28513 0.8498 0.0
C180 C 0.27141 0.23792 0.71869 0.0
C181 C 0.22996 0.26045 0.66787 0.0
C182 C 0.24457 0.25925 0.70601 0.0
C183 C 0.28672 0.2543 0.81858 0.0
C184 C 0.27211 0.25544 0.78048 0.0
H185 H 0.19842 0.31664 0.63217 0.0
H186 H 0.22332 0.31628 0.68707 0.0
H187 H 0.25776 0.22636 0.63417 0.0
H188 H 0.31827 0.19823 0.85458 0.0
H189 H 0.29339 0.19848 0.79953 0.0
C190 C 0.70668 0.28984 0.85785 0.0
C191 C 0.70137 0.25819 0.88175 0.0
C192 C 0.72088 0.28931 0.82596 0.0
C193 C 0.74871 0.22809 0.73432 0.0
H194 H 0.77576 0.30277 0.7594 0.0
C195 C 0.81028 0.22098 0.6267 0.0
C196 C 0.8154 0.25278 0.60251 0.0
C197 C 0.79612 0.22118 0.65891 0.0
C198 C 0.76825 0.28191 0.75118 0.0
H199 H 0.70692 0.2014 0.89325 0.0
H200 H 0.73174 0.20051 0.83868 0.0
H201 H 0.75197 0.30442 0.82229 0.0
H202 H 0.80955 0.30945 0.59075 0.0
H203 H 0.78483 0.30976 0.64592 0.0
H204 H 0.76501 0.20558 0.66321 0.0
C205 C 0.72488 0.22567 0.84337 0.0
C206 C 0.75461 0.28286 0.78735 0.0
C207 C 0.71072 0.22623 0.87522 0.0
C208 C 0.80591 0.28452 0.60901 0.0
C209 C 0.7918 0.28475 0.64121 0.0
C210 C 0.76236 0.22714 0.69816 0.0
C211 C 0.73003 0.25708 0.81725 0.0
C212 C 0.74466 0.25596 0.77939 0.0
C213 C 0.78685 0.25322 0.66769 0.0
C214 C 0.77229 0.25409 0.70601 0.0
H215 H 0.69966 0.31482 0.86188 0.0
H216 H 0.72444 0.31396 0.80606 0.0
H217 H 0.7412 0.20725 0.72604 0.0
H218 H 0.81742 0.19617 0.62267 0.0
H219 H 0.7927 0.19645 0.67903 0.0
C220 C 0.31001 0.72332 0.12245 0.0
C221 C 0.31548 0.75555 0.10259 0.0
C222 C 0.29581 0.72315 0.15416 0.0
C223 C 0.25945 0.77879 0.18602 0.0
H224 H 0.25692 0.71745 0.34025 0.0
C225 C 0.20693 0.79053 0.36089 0.0
C226 C 0.20139 0.75841 0.38095 0.0
C227 C 0.22112 0.79049 0.32905 0.0
C228 C 0.25738 0.73453 0.29696 0.0
H229 H 0.31027 0.81273 0.09859 0.0
H230 H 0.28563 0.81252 0.15396 0.0
H231 H 0.28059 0.71565 0.27647 0.0
H232 H 0.20649 0.70119 0.38519 0.0
H233 H 0.23112 0.70105 0.32956 0.0
H234 H 0.23624 0.79769 0.20652 0.0
C235 C 0.29214 0.7873 0.14463 0.0
C236 C 0.27095 0.7334 0.2602 0.0
C237 C 0.3063 0.78744 0.11303 0.0
C238 C 0.2105 0.7264 0.37059 0.0
C239 C 0.22466 0.72634 0.33884 0.0
C240 C 0.24588 0.77992 0.22278 0.0
C241 C 0.2868 0.75522 0.16656 0.0
C242 C 0.27217 0.75554 0.20428 0.0
C243 C 0.23006 0.75832 0.31668 0.0
C244 C 0.24467 0.75782 0.27876 0.0
H245 H 0.31688 0.69835 0.11508 0.0
H246 H 0.29194 0.69791 0.16948 0.0
H247 H 0.2599 0.79588 0.14274 0.0
H248 H 0.20012 0.81558 0.3682 0.0
H249 H 0.22503 0.81566 0.31358 0.0
C250 C 0.70606 0.79242 0.13359 0.0
C251 C 0.70148 0.76151 0.10338 0.0
C252 C 0.72024 0.79191 0.1657 0.0
C253 C 0.75801 0.73998 0.18176 0.0
H254 H 0.75896 0.7866 0.35407 0.0
C255 C 0.81089 0.72122 0.35401 0.0
C256 C 0.81546 0.75212 0.3843 0.0
C257 C 0.79671 0.72175 0.32183 0.0
C258 C 0.75894 0.77369 0.30577 0.0
H259 H 0.70827 0.70617 0.08115 0.0
H260 H 0.73294 0.70519 0.13709 0.0
H261 H 0.73528 0.79018 0.29002 0.0
H262 H 0.80866 0.80745 0.40659 0.0
H263 H 0.78401 0.80846 0.35054 0.0
H264 H 0.78167 0.72349 0.19752 0.0
C265 C 0.7257 0.72994 0.13571 0.0
C266 C 0.74536 0.77585 0.2689 0.0
C267 C 0.71154 0.73046 0.10376 0.0
C268 C 0.8054 0.78317 0.38393 0.0
C269 C 0.79124 0.7837 0.35191 0.0
C270 C 0.77159 0.73782 0.21863 0.0
C271 C 0.73013 0.76047 0.16814 0.0
C272 C 0.74472 0.75902 0.20641 0.0
C273 C 0.78682 0.75319 0.31941 0.0
C274 C 0.77223 0.75464 0.28113 0.0
H275 H 0.69851 0.81671 0.13412 0.0
H276 H 0.72339 0.81605 0.18926 0.0
H277 H 0.75799 0.72707 0.13347 0.0
H278 H 0.81844 0.69694 0.35347 0.0
H279 H 0.79357 0.69762 0.29823 0.0
C280 C 0.13117 0.8839 0.37135 0.0
C281 C 0.13556 0.85885 0.42099 0.0
C282 C 0.13156 0.92031 0.38378 0.0
C283 C 0.14567 0.98512 0.50673 0.0
H284 H 0.11515 0.04997 0.41989 0.0
C285 C 0.13483 0.13575 0.57129 0.0
C286 C 0.13885 0.15642 0.51685 0.0
C287 C 0.13289 0.09955 0.56237 0.0
C288 C 0.12364 0.03203 0.44476 0.0
H289 H 0.144 0.85197 0.52226 0.0
H290 H 0.14401 0.91518 0.54526 0.0
H291 H 0.11561 0.98625 0.39845 0.0
H292 H 0.14312 0.15662 0.4104 0.0
H293 H 0.13898 0.09388 0.39434 0.0
H294 H 0.15329 0.03134 0.55443 0.0
C295 C 0.14074 0.90713 0.4958 0.0
C296 C 0.12409 0.99552 0.43186 0.0
C297 C 0.1407 0.87073 0.48276 0.0
C298 C 0.14 0.1411 0.45302 0.0
C299 C 0.13763 0.10534 0.44382 0.0
C300 C 0.14496 0.02155 0.52075 0.0
C301 C 0.13597 0.93255 0.44681 0.0
C302 C 0.13527 0.97151 0.46188 0.0
C303 C 0.13448 0.08405 0.49863 0.0
C304 C 0.13406 0.04529 0.48929 0.0
H305 H 0.12723 0.87535 0.32319 0.0
H306 H 0.12824 0.93879 0.34394 0.0
H307 H 0.15463 0.96786 0.53001 0.0
H308 H 0.13404 0.14701 0.62106 0.0
H309 H 0.13046 0.0835 0.60528 0.0
C310 C 0.88047 0.37858 0.56527 0.0
C311 C 0.87754 0.35634 0.51159 0.0
C312 C 0.88197 0.41481 0.55425 0.0
C313 C 0.87211 0.48477 0.42482 0.0
H314 H 0.89529 0.54253 0.54027 0.0
C315 C 0.88544 0.63035 0.37028 0.0
C316 C 0.88114 0.65478 0.42117 0.0
C317 C 0.8847 0.59387 0.38063 0.0
C318 C 0.88874 0.52661 0.50788 0.0
H319 H 0.87502 0.35321 0.40442 0.0
H320 H 0.87878 0.41539 0.38429 0.0
H321 H 0.89624 0.47837 0.55877 0.0
H322 H 0.8725 0.66047 0.52238 0.0
H323 H 0.87164 0.59648 0.54099 0.0
H324 H 0.86517 0.53314 0.37253 0.0
C325 C 0.87909 0.4059 0.43532 0.0
C326 C 0.88919 0.48986 0.51857 0.0
C327 C 0.87716 0.37009 0.44659 0.0
C328 C 0.8758 0.6422 0.48214 0.0
C329 C 0.87541 0.60568 0.49303 0.0
C330 C 0.87195 0.52132 0.41332 0.0
C331 C 0.88091 0.42919 0.48913 0.0
C332 C 0.88085 0.46834 0.47726 0.0
C333 C 0.88 0.58123 0.44257 0.0
C334 C 0.88019 0.54255 0.45492 0.0
H335 H 0.88063 0.36849 0.61595 0.0
H336 H 0.88323 0.43172 0.59718 0.0
H337 H 0.86514 0.46959 0.39298 0.0
H338 H 0.88963 0.63942 0.32294 0.0
H339 H 0.88828 0.57543 0.34103 0.0
C340 C 0.87653 0.87227 0.53557 0.0
C341 C 0.87786 0.85675 0.47193 0.0
C342 C 0.87893 0.90802 0.54461 0.0
C343 C 0.87183 0.99153 0.46725 0.0
H344 H 0.90132 0.02711 0.5885 0.0
C345 C 0.87628 0.14237 0.50262 0.0
C346 C 0.88147 0.15453 0.56407 0.0
C347 C 0.8762 0.10592 0.49022 0.0
C348 C 0.8928 0.01775 0.55539 0.0
H349 H 0.88303 0.8658 0.36795 0.0
H350 H 0.88666 0.92931 0.38341 0.0
H351 H 0.90171 0.9633 0.56794 0.0
H352 H 0.88989 0.13849 0.66199 0.0
H353 H 0.88883 0.07496 0.64238 0.0
H354 H 0.8622 0.0452 0.45743 0.0
C355 C 0.88407 0.9134 0.42631 0.0
C356 C 0.89321 0.9812 0.54299 0.0
C357 C 0.88209 0.87722 0.41757 0.0
C358 C 0.8859 0.12971 0.61406 0.0
C359 C 0.88548 0.09326 0.60229 0.0
C360 C 0.87117 0.02799 0.48078 0.0
C361 C 0.8823 0.9291 0.48981 0.0
C362 C 0.88274 0.96785 0.4988 0.0
C363 C 0.88099 0.08073 0.53958 0.0
C364 C 0.88163 0.04171 0.5252 0.0
H365 H 0.87325 0.85691 0.57813 0.0
H366 H 0.87744 0.91965 0.5939 0.0
H367 H 0.86347 0.98164 0.43384 0.0
H368 H 0.87294 0.16094 0.46287 0.0
H369 H 0.87289 0.09765 0.44098 0.0
C370 C 0.13445 0.63605 0.41502 0.0
C371 C 0.13855 0.65659 0.46949 0.0
C372 C 0.13251 0.59984 0.42375 0.0
C373 C 0.12362 0.532 0.54184 0.0
H374 H 0.15408 0.46801 0.45312 0.0
C375 C 0.13151 0.38369 0.61376 0.0
C376 C 0.1356 0.35876 0.5636 0.0
C377 C 0.13182 0.42012 0.60141 0.0
C378 C 0.14527 0.48522 0.4774 0.0
H379 H 0.14299 0.65654 0.57584 0.0
H380 H 0.13888 0.59376 0.5916 0.0
H381 H 0.15266 0.53157 0.42932 0.0
H382 H 0.14344 0.3521 0.46147 0.0
H383 H 0.14334 0.41538 0.43866 0.0
H384 H 0.11581 0.4861 0.58858 0.0
C385 C 0.13744 0.60534 0.54222 0.0
C386 C 0.14451 0.5217 0.46372 0.0
C387 C 0.1398 0.64112 0.5332 0.0
C388 C 0.14038 0.37078 0.50134 0.0
C389 C 0.14035 0.4072 0.48841 0.0
C390 C 0.12411 0.49546 0.55442 0.0
C391 C 0.13421 0.58417 0.48735 0.0
C392 C 0.13381 0.54538 0.49643 0.0
C393 C 0.13588 0.43251 0.53798 0.0
C394 C 0.1351 0.4715 0.52316 0.0
H395 H 0.13358 0.64743 0.36534 0.0
H396 H 0.13001 0.58389 0.38079 0.0
H397 H 0.11527 0.54988 0.56764 0.0
H398 H 0.12785 0.37503 0.6623 0.0
H399 H 0.12874 0.43851 0.64165 0.0
C400 C 0.63674 0.63441 0.06841 0.0
C401 C 0.63914 0.65705 0.01465 0.0
C402 C 0.63529 0.59818 0.05708 0.0
C403 C 0.64448 0.52923 0.92536 0.0
H404 H 0.62241 0.47007 0.04262 0.0
C405 C 0.63161 0.38369 0.86888 0.0
C406 C 0.63599 0.35893 0.91916 0.0
C407 C 0.63234 0.4201 0.88002 0.0
C408 C 0.62867 0.48637 0.00973 0.0
H409 H 0.64076 0.66087 0.90723 0.0
H410 H 0.63707 0.59869 0.88676 0.0
H411 H 0.62133 0.53413 0.06245 0.0
H412 H 0.64479 0.35259 0.02008 0.0
H413 H 0.64566 0.41645 0.04005 0.0
H414 H 0.65127 0.48136 0.87134 0.0
C415 C 0.63714 0.60789 0.93794 0.0
C416 C 0.62812 0.52307 0.02115 0.0
C417 C 0.63902 0.64369 0.94944 0.0
C418 C 0.64143 0.37111 0.98029 0.0
C419 C 0.64181 0.40757 0.99196 0.0
C420 C 0.64473 0.49273 0.91318 0.0
C421 C 0.63588 0.58421 0.99163 0.0
C422 C 0.63605 0.54509 0.97915 0.0
C423 C 0.63713 0.43236 0.94216 0.0
C424 C 0.63689 0.47098 0.95539 0.0
H425 H 0.63699 0.64419 0.11923 0.0
H426 H 0.63446 0.58096 0.09991 0.0
H427 H 0.65113 0.54482 0.89291 0.0
H428 H 0.62734 0.37493 0.82144 0.0
H429 H 0.62867 0.43879 0.84091 0.0
C430 C 0.38064 0.88066 0.06476 0.0
C431 C 0.37777 0.85834 0.01113 0.0
C432 C 0.38214 0.91688 0.05363 0.0
C433 C 0.3724 0.98667 0.92369 0.0
H434 H 0.39535 0.04466 0.03963 0.0
C435 C 0.38564 0.13238 0.8694 0.0
C436 C 0.38122 0.15681 0.92015 0.0
C437 C 0.38493 0.09589 0.87972 0.0
C438 C 0.38886 0.02868 0.0071 0.0
H439 H 0.37535 0.85506 0.90393 0.0
H440 H 0.37912 0.91722 0.88361 0.0
H441 H 0.39634 0.98051 0.05829 0.0
H442 H 0.37241 0.16246 0.02109 0.0
H443 H 0.37161 0.09844 0.03967 0.0
H444 H 0.36548 0.03497 0.87111 0.0
C445 C 0.37938 0.9078 0.93469 0.0
C446 C 0.38934 0.99193 0.01788 0.0
C447 C 0.37745 0.872 0.94607 0.0
C448 C 0.3758 0.1442 0.98095 0.0
C449 C 0.37545 0.10766 0.99182 0.0
C450 C 0.37222 0.02322 0.9121 0.0
C451 C 0.38113 0.93117 0.98843 0.0
C452 C 0.38107 0.97033 0.9764 0.0
C453 C 0.38015 0.08322 0.94152 0.0
C454 C 0.38037 0.04453 0.95389 0.0
H455 H 0.38075 0.87064 0.11549 0.0
H456 H 0.38335 0.93385 0.09652 0.0
H457 H 0.36549 0.97143 0.8917 0.0
H458 H 0.38989 0.14148 0.82219 0.0
H459 H 0.38861 0.07746 0.84024 0.0
C460 C 0.38197 0.37926 0.91741 0.0
C461 C 0.37761 0.35881 0.97156 0.0
C462 C 0.38396 0.41543 0.92628 0.0
C463 C 0.39302 0.48314 0.04305 0.0
H464 H 0.36211 0.54735 0.95742 0.0
C465 C 0.38591 0.63168 0.11412 0.0
C466 C 0.38151 0.65653 0.06415 0.0
C467 C 0.38546 0.59524 0.10234 0.0
C468 C 0.37105 0.53008 0.98079 0.0
H469 H 0.37276 0.359 0.07757 0.0
H470 H 0.37697 0.42172 0.09359 0.0
H471 H 0.3633 0.48381 0.93377 0.0
H472 H 0.37296 0.663 0.96298 0.0
H473 H 0.37283 0.59973 0.94107 0.0
H474 H 0.40119 0.52897 0.08862 0.0
C475 C 0.37855 0.41008 0.04435 0.0
C476 C 0.37167 0.49362 0.96723 0.0
C477 C 0.37615 0.37434 0.03516 0.0
C478 C 0.37628 0.64441 0.00272 0.0
C479 C 0.37617 0.60797 0.99031 0.0
C480 C 0.39266 0.51968 0.05547 0.0
C481 C 0.38207 0.43113 0.98973 0.0
C482 C 0.38254 0.46987 -0.0012 0.0
C483 C 0.38094 0.58274 0.03964 0.0
C484 C 0.38153 0.54373 0.02525 0.0
H485 H 0.38302 0.36783 0.86783 0.0
H486 H 0.38666 0.43132 0.88352 0.0
H487 H 0.40149 0.46518 0.06802 0.0
H488 H 0.38993 0.64043 0.16203 0.0
H489 H 0.38879 0.57692 0.14242 0.0
C490 C 0.63935 0.14154 0.03363 0.0
C491 C 0.63828 0.15689 0.96979 0.0
C492 C 0.637 0.10576 0.04268 0.0
C493 C 0.64442 0.02207 0.96455 0.0
H494 H 0.61564 0.98624 0.08874 0.0
C495 C 0.64053 0.87112 0.00225 0.0
C496 C 0.63571 0.85907 0.06442 0.0
C497 C 0.64045 0.90755 0.9893 0.0
C498 C 0.62396 0.99567 0.05477 0.0
H499 H 0.63362 0.14752 0.86542 0.0
H500 H 0.63007 0.08398 0.88093 0.0
H501 H 0.61498 0.05003 0.0676 0.0
H502 H 0.62783 0.8753 0.16296 0.0
H503 H 0.62862 0.93881 0.14226 0.0
H504 H 0.65412 0.96847 0.95437 0.0
C505 C 0.63242 0.10002 0.92397 0.0
C506 C 0.6234 0.03221 0.04207 0.0
C507 C 0.63435 0.13623 0.91519 0.0
C508 C 0.63152 0.88398 0.11449 0.0
C509 C 0.63178 0.92042 0.10212 0.0
C510 C 0.64524 0.98561 0.97835 0.0
C511 C 0.63395 0.08447 0.98771 0.0
C512 C 0.63363 0.04567 -0.00311 0.0
C513 C 0.63588 0.93283 0.03875 0.0
C514 C 0.63504 0.97181 0.02387 0.0
H515 H 0.64242 0.15705 0.07637 0.0
H516 H 0.63832 0.09427 0.09217 0.0
H517 H 0.6526 0.03201 0.93035 0.0
H518 H 0.64368 0.85246 0.96244 0.0
H519 H 0.64347 0.91574 0.9396 0.0
C520 C 0.15148 0.26846 0.30281 0.0
C521 C 0.1384 0.26158 0.33926 0.0
C522 C 0.15141 0.26722 0.23304 0.0
C523 C 0.12556 0.27124 0.08717 0.0
H524 H 0.1606 0.22426 -0.00438 0.0
C525 C 0.12484 0.2418 0.80442 0.0
C526 C 0.13796 0.24854 0.76814 0.0
C527 C 0.12492 0.24258 0.87421 0.0
C528 C 0.15079 0.23777 0.02039 0.0
H529 H 0.11492 0.24837 0.33078 0.0
H530 H 0.11486 0.24605 0.2094 0.0
H531 H 0.16071 0.22843 0.11714 0.0
H532 H 0.16155 0.2609 0.77698 0.0
H533 H 0.16163 0.26252 0.89837 0.0
H534 H 0.11565 0.28066 0.99046 0.0
C535 C 0.12512 0.25274 0.23468 0.0
C536 C 0.15086 0.2402 0.09 0.0
C537 C 0.12519 0.2539 0.30436 0.0
C538 C 0.15123 0.25551 0.80325 0.0
C539 C 0.15132 0.25627 0.87296 0.0
C540 C 0.12549 0.26883 0.01756 0.0
C541 C 0.13825 0.25916 0.19822 0.0
C542 C 0.13825 0.25697 0.12418 0.0
C543 C 0.13813 0.25007 0.90926 0.0
C544 C 0.13811 0.25208 0.98335 0.0
H545 H 0.16184 0.27451 0.32808 0.0
H546 H 0.16165 0.27274 0.20632 0.0
H547 H 0.11575 0.28475 0.11196 0.0
H548 H 0.11443 0.23625 0.779 0.0
H549 H 0.11464 0.2372 0.90075 0.0
C550 C 0.89119 0.2605 0.30277 0.0
C551 C 0.8781 0.25211 0.33766 0.0
C552 C 0.89129 0.26129 0.23309 0.0
C553 C 0.86568 0.27138 0.08769 0.0
H554 H 0.90131 0.23195 0.98998 0.0
C555 C 0.86578 0.2553 0.80125 0.0
C556 C 0.87901 0.26279 0.76641 0.0
C557 C 0.86566 0.25448 0.87094 0.0
C558 C 0.89135 0.24349 0.01654 0.0
H559 H 0.85488 0.23763 0.32648 0.0
H560 H 0.85511 0.2388 0.20464 0.0
H561 H 0.90108 0.2286 0.11156 0.0
H562 H 0.90244 0.27583 0.77773 0.0
H563 H 0.90214 0.27484 0.89949 0.0
H564 H 0.85596 0.28638 -0.00726 0.0
C565 C 0.86524 0.24512 0.2314 0.0
C566 C 0.8912 0.2415 0.08619 0.0
C567 C 0.86514 0.24424 0.3012 0.0
C568 C 0.89207 0.26986 0.80294 0.0
C569 C 0.89193 0.26907 0.87275 0.0
C570 C 0.86583 0.27342 0.01803 0.0
C571 C 0.87831 0.25378 0.19661 0.0
C572 C 0.87837 0.25542 0.12254 0.0
C573 C 0.87874 0.26119 0.90753 0.0
C574 C 0.87867 0.25949 0.98164 0.0
H575 H 0.90136 0.26679 0.32918 0.0
H576 H 0.90147 0.26847 0.2078 0.0
H577 H 0.85571 0.28287 0.11431 0.0
H578 H 0.85553 0.24959 0.77479 0.0
H579 H 0.85538 0.24787 0.89612 0.0
C580 C 0.12453 0.74429 0.18067 0.0
C581 C 0.13761 0.75112 0.21722 0.0
C582 C 0.12467 0.74512 0.11088 0.0
C583 C 0.15077 0.74004 0.96577 0.0
H584 H 0.11575 0.78571 0.87194 0.0
C585 C 0.15169 0.76851 0.68246 0.0
C586 C 0.13867 0.76109 0.64603 0.0
C587 C 0.15157 0.76779 0.75226 0.0
C588 C 0.12556 0.77257 0.89739 0.0
H589 H 0.16115 0.76394 0.20889 0.0
H590 H 0.16131 0.76569 0.08755 0.0
H591 H 0.11547 0.78254 -0.00645 0.0
H592 H 0.11526 0.74736 0.65454 0.0
H593 H 0.11512 0.74591 0.77592 0.0
H594 H 0.16086 0.73013 0.86958 0.0
C595 C 0.151 0.75927 0.11273 0.0
C596 C 0.12539 0.77069 0.96705 0.0
C597 C 0.15087 0.75844 0.18241 0.0
C598 C 0.12549 0.7533 0.68094 0.0
C599 C 0.12537 0.75265 0.75062 0.0
C600 C 0.15095 0.74195 0.89612 0.0
C601 C 0.13789 0.75277 0.07614 0.0
C602 C 0.13799 0.75439 0.00204 0.0
C603 C 0.13842 0.75972 0.78708 0.0
C604 C 0.13833 0.75821 0.86115 0.0
H605 H 0.11414 0.73848 0.20587 0.0
H606 H 0.11444 0.73954 0.0841 0.0
H607 H 0.16058 0.72685 0.99117 0.0
H608 H 0.16202 0.77468 0.65718 0.0
H609 H 0.16175 0.77378 0.779 0.0
C610 C 0.89149 0.75885 0.68372 0.0
C611 C 0.87825 0.75151 0.64874 0.0
C612 C 0.89156 0.75992 0.7534 0.0
C613 C 0.86588 0.77301 0.89807 0.0
H614 H 0.90091 0.73144 -0.00254 0.0
C615 C 0.8655 0.758 0.18488 0.0
C616 C 0.87885 0.76447 0.2199 0.0
C617 C 0.86539 0.75717 0.11518 0.0
C618 C 0.89112 0.74358 0.97041 0.0
H619 H 0.85473 0.73911 0.65979 0.0
H620 H 0.85492 0.74075 0.78159 0.0
H621 H 0.90076 0.72738 0.87595 0.0
H622 H 0.9025 0.77579 0.20886 0.0
H623 H 0.90225 0.77473 0.08711 0.0
H624 H 0.85626 0.78928 -0.00751 0.0
C625 C 0.86519 0.74605 0.75492 0.0
C626 C 0.89102 0.74118 0.9008 0.0
C627 C 0.86512 0.74488 0.68513 0.0
C628 C 0.89203 0.77063 0.18352 0.0
C629 C 0.89192 0.76979 0.11372 0.0
C630 C 0.86599 0.77545 0.96769 0.0
C631 C 0.87839 0.75376 0.7898 0.0
C632 C 0.8784 0.75586 0.86384 0.0
C633 C 0.87863 0.7628 0.07877 0.0
C634 C 0.87861 0.76075 0.00468 0.0
H635 H 0.9018 0.76417 0.65736 0.0
H636 H 0.90186 0.76632 0.77874 0.0
H637 H 0.8561 0.7851 0.87096 0.0
H638 H 0.85513 0.75306 0.21122 0.0
H639 H 0.85501 0.7513 0.08985 0.0
C640 C 0.65159 0.75511 0.30327 0.0
C641 C 0.63826 0.74841 0.2683 0.0
C642 C 0.65169 0.75609 0.37296 0.0
C643 C 0.63122 0.72798 0.52213 0.0
H644 H 0.6511 0.80337 0.60912 0.0
C645 C 0.62528 0.7549 0.8046 0.0
C646 C 0.63851 0.76236 0.83949 0.0
C647 C 0.62522 0.75357 0.73492 0.0
C648 C 0.64565 0.78193 0.58564 0.0
H649 H 0.61463 0.7369 0.27943 0.0
H650 H 0.6148 0.73879 0.40116 0.0
H651 H 0.65114 0.7994 0.48762 0.0
H652 H 0.66204 0.77464 0.82828 0.0
H653 H 0.66196 0.77203 0.70665 0.0
H654 H 0.62575 0.71047 0.62016 0.0
C655 C 0.62521 0.743 0.37455 0.0
C656 C 0.64568 0.77964 0.51601 0.0
C657 C 0.62511 0.74206 0.30474 0.0
C658 C 0.65163 0.76894 0.80302 0.0
C659 C 0.65157 0.76759 0.73325 0.0
C660 C 0.63121 0.73024 0.59178 0.0
C661 C 0.63847 0.75036 0.40941 0.0
C662 C 0.63847 0.75264 0.48346 0.0
C663 C 0.63839 0.75963 0.69842 0.0
C664 C 0.63842 0.75726 0.62435 0.0
H665 H 0.66196 0.75998 0.27689 0.0
H666 H 0.66215 0.76125 0.39835 0.0
H667 H 0.62575 0.70658 0.49861 0.0
H668 H 0.61495 0.74981 0.83102 0.0
H669 H 0.61481 0.74794 0.70961 0.0
C670 C 0.36524 0.74627 0.80115 0.0
C671 C 0.37818 0.75425 0.8376 0.0
C672 C 0.36536 0.74703 0.73135 0.0
C673 C 0.39137 0.74331 0.58627 0.0
H674 H 0.35609 0.78769 0.49236 0.0
C675 C 0.39224 0.77144 0.30289 0.0
C676 C 0.37922 0.76421 0.26633 0.0
C677 C 0.3921 0.77064 0.37269 0.0
C678 C 0.36597 0.77487 0.51779 0.0
H679 H 0.40143 0.76906 0.82911 0.0
H680 H 0.40156 0.77056 0.70773 0.0
H681 H 0.35581 0.78441 0.61395 0.0
H682 H 0.35578 0.75066 0.27466 0.0
H683 H 0.35562 0.74893 0.39598 0.0
H684 H 0.40152 0.7337 0.49016 0.0
C685 C 0.39139 0.76335 0.73303 0.0
C686 C 0.3658 0.77296 0.58745 0.0
C687 C 0.39127 0.76267 0.80271 0.0
C688 C 0.36601 0.7565 0.30114 0.0
C689 C 0.36588 0.75568 0.37082 0.0
C690 C 0.39153 0.74518 0.51661 0.0
C691 C 0.37842 0.7557 0.69654 0.0
C692 C 0.3785 0.75719 0.62247 0.0
C693 C 0.37894 0.76259 0.40744 0.0
C694 C 0.37884 0.76099 0.48155 0.0
H695 H 0.35498 0.73962 0.82643 0.0
H696 H 0.35525 0.74059 0.7046 0.0
H697 H 0.40125 0.73056 0.61176 0.0
H698 H 0.40259 0.77757 0.2777 0.0
H699 H 0.40229 0.77656 0.39947 0.0
C700 C 0.62518 0.25543 0.18111 0.0
C701 C 0.63849 0.26225 0.14619 0.0
C702 C 0.62508 0.25453 0.2508 0.0
C703 C 0.6507 0.24102 0.39578 0.0
H704 H 0.6158 0.28349 0.49459 0.0
C705 C 0.65109 0.25629 0.68246 0.0
C706 C 0.63772 0.24991 0.71736 0.0
C707 C 0.6512 0.25719 0.61276 0.0
C708 C 0.62555 0.27112 0.46769 0.0
H709 H 0.6621 0.27391 0.15735 0.0
H710 H 0.66187 0.27259 0.27915 0.0
H711 H 0.616 0.2874 0.37305 0.0
H712 H 0.61403 0.23893 0.70614 0.0
H713 H 0.61428 0.24014 0.58438 0.0
H714 H 0.66024 0.22469 0.49039 0.0
C715 C 0.65156 0.26755 0.25243 0.0
C716 C 0.62568 0.27341 0.39807 0.0
C717 C 0.65166 0.26853 0.18263 0.0
C718 C 0.62451 0.24399 0.68088 0.0
C719 C 0.62462 0.24492 0.61109 0.0
C720 C 0.65057 0.2387 0.4654 0.0
C721 C 0.63829 0.26035 0.28726 0.0
C722 C 0.63825 0.25839 0.36132 0.0
C723 C 0.63794 0.25174 0.57626 0.0
C724 C 0.63799 0.25373 0.50217 0.0
H725 H 0.61483 0.25039 0.15471 0.0
H726 H 0.61473 0.24851 0.27609 0.0
H727 H 0.66045 0.22867 0.36885 0.0
H728 H 0.66147 0.26105 0.70888 0.0
H729 H 0.66159 0.26293 0.58751 0.0
C730 C 0.39126 0.26172 0.18283 0.0
C731 C 0.37805 0.25414 0.14787 0.0
C732 C 0.39135 0.26267 0.25251 0.0
C733 C 0.36573 0.27497 0.39743 0.0
H734 H 0.40087 0.23345 0.49615 0.0
C735 C 0.36549 0.25939 0.68407 0.0
C736 C 0.37883 0.26593 0.71906 0.0
C737 C 0.36537 0.25862 0.61437 0.0
C738 C 0.39106 0.24558 0.4693 0.0
H739 H 0.3546 0.24125 0.15892 0.0
H740 H 0.35481 0.24273 0.28075 0.0
H741 H 0.40067 0.22976 0.37461 0.0
H742 H 0.40247 0.27737 0.70796 0.0
H743 H 0.40219 0.27643 0.58622 0.0
H744 H 0.35613 0.29089 0.49206 0.0
C745 C 0.36505 0.24828 0.25405 0.0
C746 C 0.39093 0.24339 0.39967 0.0
C747 C 0.36496 0.24721 0.18425 0.0
C748 C 0.392 0.27216 0.68265 0.0
C749 C 0.39188 0.27139 0.61285 0.0
C750 C 0.36587 0.27721 0.46706 0.0
C751 C 0.37822 0.25616 0.28891 0.0
C752 C 0.37827 0.25805 0.36296 0.0
C753 C 0.37858 0.26439 0.57793 0.0
C754 C 0.37853 0.26252 0.50382 0.0
H755 H 0.40154 0.26726 0.15646 0.0
H756 H 0.40163 0.26922 0.27785 0.0
H757 H 0.35591 0.28703 0.37051 0.0
H758 H 0.35513 0.25438 0.71042 0.0
H759 H 0.35499 0.25272 0.58907 0.0
C760 C 0.0643 0.28768 0.54258 0.0
C761 C 0.07358 0.25557 0.53696 0.0
C762 C 0.04842 0.28798 0.54035 0.0
C763 C 0.01708 0.2368 0.48375 0.0
H764 H 0.99322 0.29457 0.61292 0.0
C765 C 0.95224 0.22822 0.51789 0.0
C766 C 0.94306 0.25968 0.53195 0.0
C767 C 0.96813 0.22808 0.51607 0.0
C768 C 0.99967 0.27871 0.57581 0.0
H769 H 0.07359 0.1986 0.52378 0.0
H770 H 0.04568 0.19906 0.51951 0.0
H771 H 0.02098 0.29299 0.61472 0.0
H772 H 0.94322 0.31583 0.55392 0.0
H773 H 0.97103 0.31587 0.54961 0.0
H774 H 0.99577 0.22271 0.44446 0.0
C775 C 0.05073 0.22403 0.52548 0.0
C776 C 0.0156 0.27772 0.57702 0.0
C777 C 0.06668 0.22372 0.52819 0.0
C778 C 0.95004 0.29119 0.54313 0.0
C779 C 0.96597 0.2911 0.54111 0.0
C780 C 1.00112 0.23794 0.4823 0.0
C781 C 0.04143 0.25618 0.53208 0.0
C782 C 0.02449 0.25676 0.53103 0.0
C783 C 0.97523 0.25945 0.52805 0.0
C784 C 0.99221 0.25888 0.5284 0.0
H785 H 0.06932 0.31267 0.54924 0.0
H786 H 0.0416 0.31322 0.54465 0.0
H787 H 0.0236 0.22077 0.44709 0.0
H788 H 0.94715 0.20349 0.50932 0.0
H789 H 0.97486 0.20313 0.50682 0.0
C790 C 0.9499 0.79142 0.45489 0.0
C791 C 0.94309 0.75915 0.45314 0.0
C792 C 0.96582 0.79148 0.45777 0.0
C793 C 1.00121 0.73325 0.49651 0.0
H794 H 0.02084 0.80262 0.39169 0.0
C795 C 0.06652 0.72366 0.44722 0.0
C796 C 0.07359 0.75552 0.45175 0.0
C797 C 0.05058 0.7241 0.45014 0.0
C798 C 0.01552 0.78327 0.42175 0.0
H799 H 0.94749 0.70172 0.45309 0.0
H800 H 0.97516 0.70175 0.45666 0.0
H801 H 0.99307 0.80393 0.39234 0.0
H802 H 0.06964 0.8127 0.46365 0.0
H803 H 0.0419 0.81348 0.46871 0.0
H804 H 0.02374 0.71227 0.52492 0.0
C805 C 0.96831 0.72706 0.45724 0.0
C806 C 0.99959 0.78409 0.42232 0.0
C807 C 0.95244 0.72702 0.45474 0.0
C808 C 0.06449 0.78773 0.45985 0.0
C809 C 0.0486 0.7882 0.46235 0.0
C810 C 0.01716 0.7323 0.49558 0.0
C811 C 0.97524 0.75926 0.45863 0.0
C812 C 0.99221 0.75905 0.45961 0.0
C813 C 0.04144 0.75645 0.45716 0.0
C814 C 0.02449 0.7573 0.45818 0.0
H815 H 0.94293 0.81656 0.45389 0.0
H816 H 0.97074 0.81679 0.45969 0.0
H817 H 0.99594 0.7139 0.5267 0.0
H818 H 0.07329 0.69849 0.44084 0.0
H819 H 0.04539 0.69922 0.44549 0.0
C820 C 0.56685 0.72432 0.02758 0.0
C821 C 0.57378 0.75604 0.03751 0.0
C822 C 0.55089 0.72474 0.02483 0.0
C823 C 0.51581 0.77805 0.07816 0.0
H824 H 0.4959 0.72472 0.94328 0.0
C825 C 0.45027 0.79259 0.04415 0.0
C826 C 0.44322 0.76129 0.03174 0.0
C827 C 0.46621 0.79234 0.04223 0.0
C828 C 0.50127 0.73947 0.98176 0.0
H829 H 0.56956 0.81302 0.05184 0.0
H830 H 0.54184 0.81374 0.0472 0.0
H831 H 0.52373 0.7225 0.94611 0.0
H832 H 0.44719 0.70533 0.00698 0.0
H833 H 0.47492 0.7047 0.00463 0.0
H834 H 0.49345 0.79471 0.11448 0.0
C835 C 0.54864 0.78852 0.04202 0.0
C836 C 0.51723 0.73817 0.98332 0.0
C837 C 0.56452 0.78812 0.04427 0.0
C838 C 0.45233 0.72991 0.01652 0.0
C839 C 0.46823 0.72961 0.01479 0.0
C840 C 0.49988 0.77921 0.07683 0.0
C841 C 0.54162 0.75685 0.03256 0.0
C842 C 0.52468 0.75754 0.03143 0.0
C843 C 0.4754 0.76075 0.02805 0.0
C844 C 0.49239 0.75998 0.02857 0.0
H845 H 0.57374 0.69923 0.02227 0.0
H846 H 0.54581 0.69986 0.01792 0.0
H847 H 0.52122 0.79286 0.11649 0.0
H848 H 0.44349 0.81717 0.05585 0.0
H849 H 0.47132 0.81694 0.05173 0.0
C850 C 0.44989 0.29353 0.94684 0.0
C851 C 0.44296 0.26161 0.95348 0.0
C852 C 0.46583 0.29346 0.94922 0.0
C853 C 0.50103 0.23802 0.00119 0.0
H854 H 0.52087 0.29861 0.87827 0.0
C855 C 0.56647 0.22484 0.9535 0.0
C856 C 0.57349 0.25679 0.94994 0.0
C857 C 0.55052 0.22537 0.9563 0.0
C858 C 0.51549 0.28176 0.91334 0.0
H859 H 0.44713 0.20467 0.96818 0.0
H860 H 0.47482 0.20437 0.97108 0.0
H861 H 0.4931 0.30026 0.8796 0.0
H862 H 0.56945 0.31429 0.94708 0.0
H863 H 0.54171 0.31524 0.95179 0.0
H864 H 0.52352 0.21918 0.03406 0.0
C865 C 0.46807 0.2296 0.96529 0.0
C866 C 0.49956 0.28279 0.91429 0.0
C867 C 0.45218 0.22973 0.9632 0.0
C868 C 0.56434 0.28923 0.94967 0.0
C869 C 0.54844 0.28977 0.95196 0.0
C870 C 0.51698 0.23684 -8e-05 0.0
C871 C 0.47513 0.26142 0.95803 0.0
C872 C 0.49211 0.26093 0.95822 0.0
C873 C 0.54133 0.25788 0.95499 0.0
C874 C 0.52439 0.25873 0.95604 0.0
H875 H 0.44303 0.3185 0.93946 0.0
H876 H 0.47085 0.31854 0.9444 0.0
H877 H 0.4957 0.2212 0.03642 0.0
H878 H 0.57328 0.19948 0.95371 0.0
H879 H 0.54536 0.20035 0.95814 0.0
loop_
_geom_bond_atom_site_label_1
_geom_bond_atom_site_label_2
_geom_bond_distance
_geom_bond_site_symmetry_2
_ccdc_geom_bond_type
Dy0 O4 2.398 . S
Dy0 O5 2.491 . S
Dy0 O6 2.403 . S
Dy0 O7 2.664 . S
Dy0 O11 2.326 . S
Dy0 O15 2.310 . S
Dy0 O16 2.351 . S
C1 O12 1.185 . S
C1 O13 1.355 . S
C2 O4 1.185 . S
C2 O5 1.355 . S
Dy3 O7 2.310 . S
Dy3 O10 2.351 . S
Dy3 O12 2.398 . S
Dy3 O13 2.491 . S
Dy3 O14 2.403 . S
Dy3 O15 2.664 . S
Dy3 O17 2.326 . S
O4 Dy0 2.398 . S
O4 C2 1.185 . S
O5 Dy0 2.491 . S
O5 C2 1.355 . S
O6 Dy0 2.403 . S
O6 C8 1.254 . S
O7 Dy0 2.664 . S
O7 Dy3 2.310 . S
O7 C8 1.268 . S
C8 O6 1.254 . S
C8 O7 1.268 . S
C9 O14 1.254 . S
C9 O15 1.268 . S
O10 Dy3 2.351 . S
O10 C18 1.249 . S
O11 Dy0 2.326 . S
O11 C18 1.267 . S
O12 C1 1.185 . S
O12 Dy3 2.398 . S
O13 C1 1.355 . S
O13 Dy3 2.491 . S
O14 Dy3 2.403 . S
O14 C9 1.254 . S
O15 Dy0 2.310 . S
O15 Dy3 2.664 . S
O15 C9 1.268 . S
O16 Dy0 2.351 . S
O16 C19 1.249 . S
O17 Dy3 2.326 . S
O17 C19 1.267 . S
C18 O10 1.249 . S
C18 O11 1.267 . S
C19 O16 1.249 . S
C19 O17 1.267 . S
Dy20 O24 2.398 . S
Dy20 O25 2.491 . S
Dy20 O26 2.403 . S
Dy20 O27 2.664 . S
Dy20 O31 2.326 . S
Dy20 O35 2.310 . S
Dy20 O36 2.351 . S
C21 O32 1.185 . S
C21 O33 1.355 . S
C22 O24 1.185 . S
C22 O25 1.355 . S
Dy23 O27 2.310 . S
Dy23 O30 2.351 . S
Dy23 O32 2.398 . S
Dy23 O33 2.491 . S
Dy23 O34 2.403 . S
Dy23 O35 2.664 . S
Dy23 O37 2.326 . S
O24 Dy20 2.398 . S
O24 C22 1.185 . S
O25 Dy20 2.491 . S
O25 C22 1.355 . S
O26 Dy20 2.403 . S
O26 C28 1.254 . S
O27 Dy20 2.664 . S
O27 Dy23 2.310 . S
O27 C28 1.268 . S
C28 O26 1.254 . S
C28 O27 1.268 . S
C29 O34 1.254 . S
C29 O35 1.268 . S
O30 Dy23 2.351 . S
O30 C38 1.249 . S
O31 Dy20 2.326 . S
O31 C38 1.267 . S
O32 C21 1.185 . S
O32 Dy23 2.398 . S
O33 C21 1.355 . S
O33 Dy23 2.491 . S
O34 Dy23 2.403 . S
O34 C29 1.254 . S
O35 Dy20 2.310 . S
O35 Dy23 2.664 . S
O35 C29 1.268 . S
O36 Dy20 2.351 . S
O36 C39 1.249 . S
O37 Dy23 2.326 . S
O37 C39 1.267 . S
C38 O30 1.249 . S
C38 O31 1.267 . S
C39 O36 1.249 . S
C39 O37 1.267 . S
Dy40 O44 2.398 . S
Dy40 O45 2.491 . S
Dy40 O46 2.403 . S
Dy40 O47 2.664 . S
Dy40 O51 2.326 . S
Dy40 O55 2.310 . S
Dy40 O56 2.351 . S
C41 O52 1.185 . S
C41 O53 1.355 . S
C42 O44 1.185 . S
C42 O45 1.355 . S
Dy43 O47 2.310 . S
Dy43 O50 2.351 . S
Dy43 O52 2.398 . S
Dy43 O53 2.491 . S
Dy43 O54 2.403 . S
Dy43 O55 2.664 . S
Dy43 O57 2.326 . S
O44 Dy40 2.398 . S
O44 C42 1.185 . S
O45 Dy40 2.491 . S
O45 C42 1.355 . S
O46 Dy40 2.403 . S
O46 C48 1.254 . S
O47 Dy40 2.664 . S
O47 Dy43 2.310 . S
O47 C48 1.268 . S
C48 O46 1.254 . S
C48 O47 1.268 . S
C49 O54 1.254 . S
C49 O55 1.268 . S
O50 Dy43 2.351 . S
O50 C58 1.249 . S
O51 Dy40 2.326 . S
O51 C58 1.267 . S
O52 C41 1.185 . S
O52 Dy43 2.398 . S
O53 C41 1.355 . S
O53 Dy43 2.491 . S
O54 Dy43 2.403 . S
O54 C49 1.254 . S
O55 Dy40 2.310 . S
O55 Dy43 2.664 . S
O55 C49 1.268 . S
O56 Dy40 2.351 . S
O56 C59 1.249 . S
O57 Dy43 2.326 . S
O57 C59 1.267 . S
C58 O50 1.249 . S
C58 O51 1.267 . S
C59 O56 1.249 . S
C59 O57 1.267 . S
Dy60 O64 2.398 . S
Dy60 O65 2.491 . S
Dy60 O66 2.403 . S
Dy60 O67 2.664 . S
Dy60 O71 2.326 . S
Dy60 O75 2.310 . S
Dy60 O76 2.351 . S
C61 O72 1.185 . S
C61 O73 1.355 . S
C62 O64 1.185 . S
C62 O65 1.355 . S
Dy63 O67 2.310 . S
Dy63 O70 2.351 . S
Dy63 O72 2.398 . S
Dy63 O73 2.491 . S
Dy63 O74 2.403 . S
Dy63 O75 2.664 . S
Dy63 O77 2.326 . S
O64 Dy60 2.398 . S
O64 C62 1.185 . S
O65 Dy60 2.491 . S
O65 C62 1.355 . S
O66 Dy60 2.403 . S
O66 C68 1.254 . S
O67 Dy60 2.664 . S
O67 Dy63 2.310 . S
O67 C68 1.268 . S
C68 O66 1.254 . S
C68 O67 1.268 . S
C69 O74 1.254 . S
C69 O75 1.268 . S
O70 Dy63 2.351 . S
O70 C78 1.249 . S
O71 Dy60 2.326 . S
O71 C78 1.267 . S
O72 C61 1.185 . S
O72 Dy63 2.398 . S
O73 C61 1.355 . S
O73 Dy63 2.491 . S
O74 Dy63 2.403 . S
O74 C69 1.254 . S
O75 Dy60 2.310 . S
O75 Dy63 2.664 . S
O75 C69 1.268 . S
O76 Dy60 2.351 . S
O76 C79 1.249 . S
O77 Dy63 2.326 . S
O77 C79 1.267 . S
C78 O70 1.249 . S
C78 O71 1.267 . S
C79 O76 1.249 . S
C79 O77 1.267 . S
Dy80 O84 2.398 1_556 S
Dy80 O85 2.491 1_556 S
Dy80 O86 2.403 . S
Dy80 O87 2.664 . S
Dy80 O91 2.326 1_556 S
Dy80 O95 2.310 1_556 S
Dy80 O96 2.351 . S
C81 O92 1.185 . S
C81 O93 1.355 . S
C82 O84 1.185 . S
C82 O85 1.355 . S
Dy83 O87 2.310 1_554 S
Dy83 O90 2.351 . S
Dy83 O92 2.398 1_554 S
Dy83 O93 2.491 1_554 S
Dy83 O94 2.403 . S
Dy83 O95 2.664 . S
Dy83 O97 2.326 1_554 S
O84 Dy80 2.398 1_554 S
O84 C82 1.185 . S
O85 Dy80 2.491 1_554 S
O85 C82 1.355 . S
O86 Dy80 2.403 . S
O86 C88 1.254 . S
O87 Dy80 2.664 . S
O87 Dy83 2.310 1_556 S
O87 C88 1.268 . S
C88 O86 1.254 . S
C88 O87 1.268 . S
C89 O94 1.254 . S
C89 O95 1.268 . S
O90 Dy83 2.351 . S
O90 C98 1.249 . S
O91 Dy80 2.326 1_554 S
O91 C98 1.267 . S
O92 C81 1.185 . S
O92 Dy83 2.398 1_556 S
O93 C81 1.355 . S
O93 Dy83 2.491 1_556 S
O94 Dy83 2.403 . S
O94 C89 1.254 . S
O95 Dy80 2.310 1_554 S
O95 Dy83 2.664 . S
O95 C89 1.268 . S
O96 Dy80 2.351 . S
O96 C99 1.249 . S
O97 Dy83 2.326 1_556 S
O97 C99 1.267 . S
C98 O90 1.249 . S
C98 O91 1.267 . S
C99 O96 1.249 . S
C99 O97 1.267 . S
Dy100 O104 2.398 1_556 S
Dy100 O105 2.491 1_556 S
Dy100 O106 2.403 . S
Dy100 O107 2.664 . S
Dy100 O111 2.326 1_556 S
Dy100 O115 2.310 1_556 S
Dy100 O116 2.351 . S
C101 O112 1.185 . S
C101 O113 1.355 . S
C102 O104 1.185 . S
C102 O105 1.355 . S
Dy103 O107 2.310 1_554 S
Dy103 O110 2.351 . S
Dy103 O112 2.398 1_554 S
Dy103 O113 2.491 1_554 S
Dy103 O114 2.403 . S
Dy103 O115 2.664 . S
Dy103 O117 2.326 1_554 S
O104 Dy100 2.398 1_554 S
O104 C102 1.185 . S
O105 Dy100 2.491 1_554 S
O105 C102 1.355 . S
O106 Dy100 2.403 . S
O106 C108 1.254 . S
O107 Dy100 2.664 . S
O107 Dy103 2.310 1_556 S
O107 C108 1.268 . S
C108 O106 1.254 . S
C108 O107 1.268 . S
C109 O114 1.254 . S
C109 O115 1.268 . S
O110 Dy103 2.351 . S
O110 C118 1.249 . S
O111 Dy100 2.326 1_554 S
O111 C118 1.267 . S
O112 C101 1.185 . S
O112 Dy103 2.398 1_556 S
O113 C101 1.355 . S
O113 Dy103 2.491 1_556 S
O114 Dy103 2.403 . S
O114 C109 1.254 . S
O115 Dy100 2.310 1_554 S
O115 Dy103 2.664 . S
O115 C109 1.268 . S
O116 Dy100 2.351 . S
O116 C119 1.249 . S
O117 Dy103 2.326 1_556 S
O117 C119 1.267 . S
C118 O110 1.249 . S
C118 O111 1.267 . S
C119 O116 1.249 . S
C119 O117 1.267 . S
Dy120 O124 2.398 1_556 S
Dy120 O125 2.491 1_556 S
Dy120 O126 2.403 . S
Dy120 O127 2.664 . S
Dy120 O131 2.326 1_556 S
Dy120 O135 2.310 1_556 S
Dy120 O136 2.351 . S
C121 O132 1.185 . S
C121 O133 1.355 . S
C122 O124 1.185 . S
C122 O125 1.355 . S
Dy123 O127 2.310 1_554 S
Dy123 O130 2.351 . S
Dy123 O132 2.398 1_554 S
Dy123 O133 2.491 1_554 S
Dy123 O134 2.403 . S
Dy123 O135 2.664 . S
Dy123 O137 2.326 1_554 S
O124 Dy120 2.398 1_554 S
O124 C122 1.185 . S
O125 Dy120 2.491 1_554 S
O125 C122 1.355 . S
O126 Dy120 2.403 . S
O126 C128 1.254 . S
O127 Dy120 2.664 . S
O127 Dy123 2.310 1_556 S
O127 C128 1.268 . S
C128 O126 1.254 . S
C128 O127 1.268 . S
C129 O134 1.254 . S
C129 O135 1.268 . S
O130 Dy123 2.351 . S
O130 C138 1.249 . S
O131 Dy120 2.326 1_554 S
O131 C138 1.267 . S
O132 C121 1.185 . S
O132 Dy123 2.398 1_556 S
O133 C121 1.355 . S
O133 Dy123 2.491 1_556 S
O134 Dy123 2.403 . S
O134 C129 1.254 . S
O135 Dy120 2.310 1_554 S
O135 Dy123 2.664 . S
O135 C129 1.268 . S
O136 Dy120 2.351 . S
O136 C139 1.249 . S
O137 Dy123 2.326 1_556 S
O137 C139 1.267 . S
C138 O130 1.249 . S
C138 O131 1.267 . S
C139 O136 1.249 . S
C139 O137 1.267 . S
Dy140 O144 2.398 1_556 S
Dy140 O145 2.491 1_556 S
Dy140 O146 2.403 . S
Dy140 O147 2.664 . S
Dy140 O151 2.326 1_556 S
Dy140 O155 2.310 1_556 S
Dy140 O156 2.351 . S
C141 O152 1.185 . S
C141 O153 1.355 . S
C142 O144 1.185 . S
C142 O145 1.355 . S
Dy143 O147 2.310 1_554 S
Dy143 O150 2.351 . S
Dy143 O152 2.398 1_554 S
Dy143 O153 2.491 1_554 S
Dy143 O154 2.403 . S
Dy143 O155 2.664 . S
Dy143 O157 2.326 1_554 S
O144 Dy140 2.398 1_554 S
O144 C142 1.185 . S
O145 Dy140 2.491 1_554 S
O145 C142 1.355 . S
O146 Dy140 2.403 . S
O146 C148 1.254 . S
O147 Dy140 2.664 . S
O147 Dy143 2.310 1_556 S
O147 C148 1.268 . S
C148 O146 1.254 . S
C148 O147 1.268 . S
C149 O154 1.254 . S
C149 O155 1.268 . S
O150 Dy143 2.351 . S
O150 C158 1.249 . S
O151 Dy140 2.326 1_554 S
O151 C158 1.267 . S
O152 C141 1.185 . S
O152 Dy143 2.398 1_556 S
O153 C141 1.355 . S
O153 Dy143 2.491 1_556 S
O154 Dy143 2.403 . S
O154 C149 1.254 . S
O155 Dy140 2.310 1_554 S
O155 Dy143 2.664 . S
O155 C149 1.268 . S
O156 Dy140 2.351 . S
O156 C159 1.249 . S
O157 Dy143 2.326 1_556 S
O157 C159 1.267 . S
C158 O150 1.249 . S
C158 O151 1.267 . S
C159 O156 1.249 . S
C159 O157 1.267 . S
C160 C161 1.349 . S
C160 C162 1.327 . S
C160 H185 0.950 . S
C161 C160 1.349 . S
C161 C177 1.349 . S
C162 C160 1.327 . S
C162 C181 1.429 . S
C162 H186 0.950 . S
C163 C180 1.574 . S
C163 C182 1.368 . S
C163 H187 0.949 . S
H164 C168 0.949 . S
C165 C166 1.349 . S
C165 C167 1.327 . S
C165 H188 0.950 . S
C166 C165 1.349 . S
C166 C178 1.349 . S
C167 C165 1.327 . S
C167 C183 1.429 . S
C167 H189 0.950 . S
C168 H164 0.949 . S
C168 C176 1.574 . S
C168 C184 1.368 . S
H169 C177 0.950 . S
H170 C175 0.950 . S
H171 C176 0.949 . S
H172 C178 0.950 . S
H173 C179 0.950 . S
H174 C180 0.949 . S
C175 H170 0.950 . S
C175 C177 1.327 . S
C175 C181 1.429 . S
C176 C168 1.574 . S
C176 H171 0.949 . S
C176 C182 1.368 . S
C177 C161 1.349 . S
C177 H169 0.950 . S
C177 C175 1.327 . S
C178 C166 1.349 . S
C178 H172 0.950 . S
C178 C179 1.327 . S
C179 H173 0.950 . S
C179 C178 1.327 . S
C179 C183 1.429 . S
C180 C163 1.574 . S
C180 H174 0.949 . S
C180 C184 1.368 . S
C181 C162 1.429 . S
C181 C175 1.429 . S
C181 C182 1.523 . S
C182 C163 1.368 . S
C182 C176 1.368 . S
C182 C181 1.523 . S
C183 C167 1.429 . S
C183 C179 1.429 . S
C183 C184 1.523 . S
C184 C168 1.368 . S
C184 C180 1.368 . S
C184 C183 1.523 . S
H185 C160 0.950 . S
H186 C162 0.950 . S
H187 C163 0.949 . S
H188 C165 0.950 . S
H189 C167 0.950 . S
C190 C191 1.349 . S
C190 C192 1.327 . S
C190 H215 0.950 . S
C191 C190 1.349 . S
C191 C207 1.349 . S
C192 C190 1.327 . S
C192 C211 1.429 . S
C192 H216 0.950 . S
C193 C210 1.574 . S
C193 C212 1.368 . S
C193 H217 0.949 . S
H194 C198 0.949 . S
C195 C196 1.349 . S
C195 C197 1.327 . S
C195 H218 0.950 . S
C196 C195 1.349 . S
C196 C208 1.349 . S
C197 C195 1.327 . S
C197 C213 1.429 . S
C197 H219 0.950 . S
C198 H194 0.949 . S
C198 C206 1.574 . S
C198 C214 1.368 . S
H199 C207 0.950 . S
H200 C205 0.950 . S
H201 C206 0.949 . S
H202 C208 0.950 . S
H203 C209 0.950 . S
H204 C210 0.949 . S
C205 H200 0.950 . S
C205 C207 1.327 . S
C205 C211 1.429 . S
C206 C198 1.574 . S
C206 H201 0.949 . S
C206 C212 1.368 . S
C207 C191 1.349 . S
C207 H199 0.950 . S
C207 C205 1.327 . S
C208 C196 1.349 . S
C208 H202 0.950 . S
C208 C209 1.327 . S
C209 H203 0.950 . S
C209 C208 1.327 . S
C209 C213 1.429 . S
C210 C193 1.574 . S
C210 H204 0.949 . S
C210 C214 1.368 . S
C211 C192 1.429 . S
C211 C205 1.429 . S
C211 C212 1.523 . S
C212 C193 1.368 . S
C212 C206 1.368 . S
C212 C211 1.523 . S
C213 C197 1.429 . S
C213 C209 1.429 . S
C213 C214 1.523 . S
C214 C198 1.368 . S
C214 C210 1.368 . S
C214 C213 1.523 . S
H215 C190 0.950 . S
H216 C192 0.950 . S
H217 C193 0.949 . S
H218 C195 0.950 . S
H219 C197 0.950 . S
C220 C221 1.349 . S
C220 C222 1.327 . S
C220 H245 0.950 . S
C221 C220 1.349 . S
C221 C237 1.349 . S
C222 C220 1.327 . S
C222 C241 1.429 . S
C222 H246 0.950 . S
C223 C240 1.574 . S
C223 C242 1.368 . S
C223 H247 0.949 . S
H224 C228 0.949 . S
C225 C226 1.349 . S
C225 C227 1.327 . S
C225 H248 0.950 . S
C226 C225 1.349 . S
C226 C238 1.349 . S
C227 C225 1.327 . S
C227 C243 1.429 . S
C227 H249 0.950 . S
C228 H224 0.949 . S
C228 C236 1.574 . S
C228 C244 1.368 . S
H229 C237 0.950 . S
H230 C235 0.950 . S
H231 C236 0.949 . S
H232 C238 0.950 . S
H233 C239 0.950 . S
H234 C240 0.949 . S
C235 H230 0.950 . S
C235 C237 1.327 . S
C235 C241 1.429 . S
C236 C228 1.574 . S
C236 H231 0.949 . S
C236 C242 1.368 . S
C237 C221 1.349 . S
C237 H229 0.950 . S
C237 C235 1.327 . S
C238 C226 1.349 . S
C238 H232 0.950 . S
C238 C239 1.327 . S
C239 H233 0.950 . S
C239 C238 1.327 . S
C239 C243 1.429 . S
C240 C223 1.574 . S
C240 H234 0.949 . S
C240 C244 1.368 . S
C241 C222 1.429 . S
C241 C235 1.429 . S
C241 C242 1.523 . S
C242 C223 1.368 . S
C242 C236 1.368 . S
C242 C241 1.523 . S
C243 C227 1.429 . S
C243 C239 1.429 . S
C243 C244 1.523 . S
C244 C228 1.368 . S
C244 C240 1.368 . S
C244 C243 1.523 . S
H245 C220 0.950 . S
H246 C222 0.950 . S
H247 C223 0.949 . S
H248 C225 0.950 . S
H249 C227 0.950 . S
C250 C251 1.349 . S
C250 C252 1.327 . S
C250 H275 0.950 . S
C251 C250 1.349 . S
C251 C267 1.349 . S
C252 C250 1.327 . S
C252 C271 1.429 . S
C252 H276 0.950 . S
C253 C270 1.574 . S
C253 C272 1.368 . S
C253 H277 0.949 . S
H254 C258 0.949 . S
C255 C256 1.349 . S
C255 C257 1.327 . S
C255 H278 0.950 . S
C256 C255 1.349 . S
C256 C268 1.349 . S
C257 C255 1.327 . S
C257 C273 1.429 . S
C257 H279 0.950 . S
C258 H254 0.949 . S
C258 C266 1.574 . S
C258 C274 1.368 . S
H259 C267 0.950 . S
H260 C265 0.950 . S
H261 C266 0.949 . S
H262 C268 0.950 . S
H263 C269 0.950 . S
H264 C270 0.949 . S
C265 H260 0.950 . S
C265 C267 1.327 . S
C265 C271 1.429 . S
C266 C258 1.574 . S
C266 H261 0.949 . S
C266 C272 1.368 . S
C267 C251 1.349 . S
C267 H259 0.950 . S
C267 C265 1.327 . S
C268 C256 1.349 . S
C268 H262 0.950 . S
C268 C269 1.327 . S
C269 H263 0.950 . S
C269 C268 1.327 . S
C269 C273 1.429 . S
C270 C253 1.574 . S
C270 H264 0.949 . S
C270 C274 1.368 . S
C271 C252 1.429 . S
C271 C265 1.429 . S
C271 C272 1.523 . S
C272 C253 1.368 . S
C272 C266 1.368 . S
C272 C271 1.523 . S
C273 C257 1.429 . S
C273 C269 1.429 . S
C273 C274 1.523 . S
C274 C258 1.368 . S
C274 C270 1.368 . S
C274 C273 1.523 . S
H275 C250 0.950 . S
H276 C252 0.950 . S
H277 C253 0.949 . S
H278 C255 0.950 . S
H279 C257 0.950 . S
C280 C281 1.349 . S
C280 C282 1.327 . S
C280 H305 0.950 . S
C281 C280 1.349 . S
C281 C297 1.349 . S
C282 C280 1.327 . S
C282 C301 1.429 . S
C282 H306 0.950 . S
C283 C300 1.574 1_565 S
C283 C302 1.368 . S
C283 H307 0.949 . S
H284 C288 0.949 . S
C285 C286 1.349 . S
C285 C287 1.327 . S
C285 H308 0.950 . S
C286 C285 1.349 . S
C286 C298 1.349 . S
C287 C285 1.327 . S
C287 C303 1.429 . S
C287 H309 0.950 . S
C288 H284 0.949 . S
C288 C296 1.574 1_545 S
C288 C304 1.368 . S
H289 C297 0.950 . S
H290 C295 0.950 . S
H291 C296 0.949 . S
H292 C298 0.950 . S
H293 C299 0.950 . S
H294 C300 0.949 . S
C295 H290 0.950 . S
C295 C297 1.327 . S
C295 C301 1.429 . S
C296 C288 1.574 1_565 S
C296 H291 0.949 . S
C296 C302 1.368 . S
C297 C281 1.349 . S
C297 H289 0.950 . S
C297 C295 1.327 . S
C298 C286 1.349 . S
C298 H292 0.950 . S
C298 C299 1.327 . S
C299 H293 0.950 . S
C299 C298 1.327 . S
C299 C303 1.429 . S
C300 C283 1.574 1_545 S
C300 H294 0.949 . S
C300 C304 1.368 . S
C301 C282 1.429 . S
C301 C295 1.429 . S
C301 C302 1.523 . S
C302 C283 1.368 . S
C302 C296 1.368 . S
C302 C301 1.523 . S
C303 C287 1.429 . S
C303 C299 1.429 . S
C303 C304 1.523 . S
C304 C288 1.368 . S
C304 C300 1.368 . S
C304 C303 1.523 . S
H305 C280 0.950 . S
H306 C282 0.950 . S
H307 C283 0.949 . S
H308 C285 0.950 . S
H309 C287 0.950 . S
C310 C311 1.349 . S
C310 C312 1.327 . S
C310 H335 0.950 . S
C311 C310 1.349 . S
C311 C327 1.349 . S
C312 C310 1.327 . S
C312 C331 1.429 . S
C312 H336 0.950 . S
C313 C330 1.574 . S
C313 C332 1.368 . S
C313 H337 0.949 . S
H314 C318 0.949 . S
C315 C316 1.349 . S
C315 C317 1.327 . S
C315 H338 0.950 . S
C316 C315 1.349 . S
C316 C328 1.349 . S
C317 C315 1.327 . S
C317 C333 1.429 . S
C317 H339 0.950 . S
C318 H314 0.949 . S
C318 C326 1.574 . S
C318 C334 1.368 . S
H319 C327 0.950 . S
H320 C325 0.950 . S
H321 C326 0.949 . S
H322 C328 0.950 . S
H323 C329 0.950 . S
H324 C330 0.949 . S
C325 H320 0.950 . S
C325 C327 1.327 . S
C325 C331 1.429 . S
C326 C318 1.574 . S
C326 H321 0.949 . S
C326 C332 1.368 . S
C327 C311 1.349 . S
C327 H319 0.950 . S
C327 C325 1.327 . S
C328 C316 1.349 . S
C328 H322 0.950 . S
C328 C329 1.327 . S
C329 H323 0.950 . S
C329 C328 1.327 . S
C329 C333 1.429 . S
C330 C313 1.574 . S
C330 H324 0.949 . S
C330 C334 1.368 . S
C331 C312 1.429 . S
C331 C325 1.429 . S
C331 C332 1.523 . S
C332 C313 1.368 . S
C332 C326 1.368 . S
C332 C331 1.523 . S
C333 C317 1.429 . S
C333 C329 1.429 . S
C333 C334 1.523 . S
C334 C318 1.368 . S
C334 C330 1.368 . S
C334 C333 1.523 . S
H335 C310 0.950 . S
H336 C312 0.950 . S
H337 C313 0.949 . S
H338 C315 0.950 . S
H339 C317 0.950 . S
C340 C341 1.349 . S
C340 C342 1.327 . S
C340 H365 0.950 . S
C341 C340 1.349 . S
C341 C357 1.349 . S
C342 C340 1.327 . S
C342 C361 1.429 . S
C342 H366 0.950 . S
C343 C360 1.574 1_565 S
C343 C362 1.368 . S
C343 H367 0.949 . S
H344 C348 0.949 . S
C345 C346 1.349 . S
C345 C347 1.327 . S
C345 H368 0.950 . S
C346 C345 1.349 . S
C346 C358 1.349 . S
C347 C345 1.327 . S
C347 C363 1.429 . S
C347 H369 0.950 . S
C348 H344 0.949 . S
C348 C356 1.574 1_545 S
C348 C364 1.368 . S
H349 C357 0.950 . S
H350 C355 0.950 . S
H351 C356 0.949 . S
H352 C358 0.950 . S
H353 C359 0.950 . S
H354 C360 0.949 . S
C355 H350 0.950 . S
C355 C357 1.327 . S
C355 C361 1.429 . S
C356 C348 1.574 1_565 S
C356 H351 0.949 . S
C356 C362 1.368 . S
C357 C341 1.349 . S
C357 H349 0.950 . S
C357 C355 1.327 . S
C358 C346 1.349 . S
C358 H352 0.950 . S
C358 C359 1.327 . S
C359 H353 0.950 . S
C359 C358 1.327 . S
C359 C363 1.429 . S
C360 C343 1.574 1_545 S
C360 H354 0.949 . S
C360 C364 1.368 . S
C361 C342 1.429 . S
C361 C355 1.429 . S
C361 C362 1.523 . S
C362 C343 1.368 . S
C362 C356 1.368 . S
C362 C361 1.523 . S
C363 C347 1.429 . S
C363 C359 1.429 . S
C363 C364 1.523 . S
C364 C348 1.368 . S
C364 C360 1.368 . S
C364 C363 1.523 . S
H365 C340 0.950 . S
H366 C342 0.950 . S
H367 C343 0.949 . S
H368 C345 0.950 . S
H369 C347 0.950 . S
C370 C371 1.349 . S
C370 C372 1.327 . S
C370 H395 0.950 . S
C371 C370 1.349 . S
C371 C387 1.349 . S
C372 C370 1.327 . S
C372 C391 1.429 . S
C372 H396 0.950 . S
C373 C390 1.574 . S
C373 C392 1.368 . S
C373 H397 0.949 . S
H374 C378 0.949 . S
C375 C376 1.349 . S
C375 C377 1.327 . S
C375 H398 0.950 . S
C376 C375 1.349 . S
C376 C388 1.349 . S
C377 C375 1.327 . S
C377 C393 1.429 . S
C377 H399 0.950 . S
C378 H374 0.949 . S
C378 C386 1.574 . S
C378 C394 1.368 . S
H379 C387 0.950 . S
H380 C385 0.950 . S
H381 C386 0.949 . S
H382 C388 0.950 . S
H383 C389 0.950 . S
H384 C390 0.949 . S
C385 H380 0.950 . S
C385 C387 1.327 . S
C385 C391 1.429 . S
C386 C378 1.574 . S
C386 H381 0.949 . S
C386 C392 1.368 . S
C387 C371 1.349 . S
C387 H379 0.950 . S
C387 C385 1.327 . S
C388 C376 1.349 . S
C388 H382 0.950 . S
C388 C389 1.327 . S
C389 H383 0.950 . S
C389 C388 1.327 . S
C389 C393 1.429 . S
C390 C373 1.574 . S
C390 H384 0.949 . S
C390 C394 1.368 . S
C391 C372 1.429 . S
C391 C385 1.429 . S
C391 C392 1.523 . S
C392 C373 1.368 . S
C392 C386 1.368 . S
C392 C391 1.523 . S
C393 C377 1.429 . S
C393 C389 1.429 . S
C393 C394 1.523 . S
C394 C378 1.368 . S
C394 C390 1.368 . S
C394 C393 1.523 . S
H395 C370 0.950 . S
H396 C372 0.950 . S
H397 C373 0.949 . S
H398 C375 0.950 . S
H399 C377 0.950 . S
C400 C401 1.349 1_554 S
C400 C402 1.327 . S
C400 H425 0.950 . S
C401 C400 1.349 1_556 S
C401 C417 1.349 . S
C402 C400 1.327 . S
C402 C421 1.429 1_554 S
C402 H426 0.950 . S
C403 C420 1.574 . S
C403 C422 1.368 . S
C403 H427 0.949 . S
H404 C408 0.949 . S
C405 C406 1.349 . S
C405 C407 1.327 . S
C405 H428 0.950 . S
C406 C405 1.349 . S
C406 C418 1.349 1_556 S
C407 C405 1.327 . S
C407 C423 1.429 . S
C407 H429 0.950 . S
C408 H404 0.949 . S
C408 C416 1.574 . S
C408 C424 1.368 1_554 S
H409 C417 0.950 . S
H410 C415 0.950 . S
H411 C416 0.949 . S
H412 C418 0.950 . S
H413 C419 0.950 . S
H414 C420 0.949 . S
C415 H410 0.950 . S
C415 C417 1.327 . S
C415 C421 1.429 . S
C416 C408 1.574 . S
C416 H411 0.949 . S
C416 C422 1.368 1_554 S
C417 C401 1.349 . S
C417 H409 0.950 . S
C417 C415 1.327 . S
C418 C406 1.349 1_554 S
C418 H412 0.950 . S
C418 C419 1.327 . S
C419 H413 0.950 . S
C419 C418 1.327 . S
C419 C423 1.429 1_554 S
C420 C403 1.574 . S
C420 H414 0.949 . S
C420 C424 1.368 . S
C421 C402 1.429 1_556 S
C421 C415 1.429 . S
C421 C422 1.523 . S
C422 C403 1.368 . S
C422 C416 1.368 1_556 S
C422 C421 1.523 . S
C423 C407 1.429 . S
C423 C419 1.429 1_556 S
C423 C424 1.523 . S
C424 C408 1.368 1_556 S
C424 C420 1.368 . S
C424 C423 1.523 . S
H425 C400 0.950 . S
H426 C402 0.950 . S
H427 C403 0.949 . S
H428 C405 0.950 . S
H429 C407 0.950 . S
C430 C431 1.349 1_554 S
C430 C432 1.327 . S
C430 H455 0.950 . S
C431 C430 1.349 1_556 S
C431 C447 1.349 . S
C432 C430 1.327 . S
C432 C451 1.429 1_554 S
C432 H456 0.950 . S
C433 C450 1.574 1_565 S
C433 C452 1.368 . S
C433 H457 0.949 . S
H434 C438 0.949 . S
C435 C436 1.349 . S
C435 C437 1.327 . S
C435 H458 0.950 . S
C436 C435 1.349 . S
C436 C448 1.349 1_556 S
C437 C435 1.327 . S
C437 C453 1.429 . S
C437 H459 0.950 . S
C438 H434 0.949 . S
C438 C446 1.574 1_545 S
C438 C454 1.368 1_554 S
H439 C447 0.950 . S
H440 C445 0.950 . S
H441 C446 0.949 . S
H442 C448 0.950 . S
H443 C449 0.950 . S
H444 C450 0.949 . S
C445 H440 0.950 . S
C445 C447 1.327 . S
C445 C451 1.429 . S
C446 C438 1.574 1_565 S
C446 H441 0.949 . S
C446 C452 1.368 1_554 S
C447 C431 1.349 . S
C447 H439 0.950 . S
C447 C445 1.327 . S
C448 C436 1.349 1_554 S
C448 H442 0.950 . S
C448 C449 1.327 . S
C449 H443 0.950 . S
C449 C448 1.327 . S
C449 C453 1.429 1_554 S
C450 C433 1.574 1_545 S
C450 H444 0.949 . S
C450 C454 1.368 . S
C451 C432 1.429 1_556 S
C451 C445 1.429 . S
C451 C452 1.523 . S
C452 C433 1.368 . S
C452 C446 1.368 1_556 S
C452 C451 1.523 . S
C453 C437 1.429 . S
C453 C449 1.429 1_556 S
C453 C454 1.523 . S
C454 C438 1.368 1_556 S
C454 C450 1.368 . S
C454 C453 1.523 . S
H455 C430 0.950 . S
H456 C432 0.950 . S
H457 C433 0.949 . S
H458 C435 0.950 . S
H459 C437 0.950 . S
C460 C461 1.349 1_556 S
C460 C462 1.327 . S
C460 H485 0.950 . S
C461 C460 1.349 1_554 S
C461 C477 1.349 . S
C462 C460 1.327 . S
C462 C481 1.429 1_556 S
C462 H486 0.950 . S
C463 C480 1.574 . S
C463 C482 1.368 . S
C463 H487 0.949 . S
H464 C468 0.949 . S
C465 C466 1.349 . S
C465 C467 1.327 . S
C465 H488 0.950 . S
C466 C465 1.349 . S
C466 C478 1.349 1_554 S
C467 C465 1.327 . S
C467 C483 1.429 . S
C467 H489 0.950 . S
C468 H464 0.949 . S
C468 C476 1.574 . S
C468 C484 1.368 1_556 S
H469 C477 0.950 . S
H470 C475 0.950 . S
H471 C476 0.949 . S
H472 C478 0.950 . S
H473 C479 0.950 . S
H474 C480 0.949 . S
C475 H470 0.950 . S
C475 C477 1.327 . S
C475 C481 1.429 . S
C476 C468 1.574 . S
C476 H471 0.949 . S
C476 C482 1.368 1_556 S
C477 C461 1.349 . S
C477 H469 0.950 . S
C477 C475 1.327 . S
C478 C466 1.349 1_556 S
C478 H472 0.950 . S
C478 C479 1.327 . S
C479 H473 0.950 . S
C479 C478 1.327 . S
C479 C483 1.429 1_556 S
C480 C463 1.574 . S
C480 H474 0.949 . S
C480 C484 1.368 . S
C481 C462 1.429 1_554 S
C481 C475 1.429 . S
C481 C482 1.523 . S
C482 C463 1.368 . S
C482 C476 1.368 1_554 S
C482 C481 1.523 . S
C483 C467 1.429 . S
C483 C479 1.429 1_554 S
C483 C484 1.523 . S
C484 C468 1.368 1_554 S
C484 C480 1.368 . S
C484 C483 1.523 . S
H485 C460 0.950 . S
H486 C462 0.950 . S
H487 C463 0.949 . S
H488 C465 0.950 . S
H489 C467 0.950 . S
C490 C491 1.349 . S
C490 C492 1.327 . S
C490 H515 0.950 . S
C491 C490 1.349 . S
C491 C507 1.349 1_554 S
C492 C490 1.327 . S
C492 C511 1.429 . S
C492 H516 0.950 . S
C493 C510 1.574 1_545 S
C493 C512 1.368 1_556 S
C493 H517 0.949 . S
H494 C498 0.949 . S
C495 C496 1.349 1_556 S
C495 C497 1.327 . S
C495 H518 0.950 . S
C496 C495 1.349 1_554 S
C496 C508 1.349 . S
C497 C495 1.327 . S
C497 C513 1.429 1_556 S
C497 H519 0.950 . S
C498 H494 0.949 . S
C498 C506 1.574 1_565 S
C498 C514 1.368 . S
H499 C507 0.950 . S
H500 C505 0.950 . S
H501 C506 0.949 . S
H502 C508 0.950 . S
H503 C509 0.950 . S
H504 C510 0.949 . S
C505 H500 0.950 . S
C505 C507 1.327 . S
C505 C511 1.429 1_556 S
C506 C498 1.574 1_545 S
C506 H501 0.949 . S
C506 C512 1.368 . S
C507 C491 1.349 1_556 S
C507 H499 0.950 . S
C507 C505 1.327 . S
C508 C496 1.349 . S
C508 H502 0.950 . S
C508 C509 1.327 . S
C509 H503 0.950 . S
C509 C508 1.327 . S
C509 C513 1.429 . S
C510 C493 1.574 1_565 S
C510 H504 0.949 . S
C510 C514 1.368 1_556 S
C511 C492 1.429 . S
C511 C505 1.429 1_554 S
C511 C512 1.523 . S
C512 C493 1.368 1_554 S
C512 C506 1.368 . S
C512 C511 1.523 . S
C513 C497 1.429 1_554 S
C513 C509 1.429 . S
C513 C514 1.523 . S
C514 C498 1.368 . S
C514 C510 1.368 1_554 S
C514 C513 1.523 . S
H515 C490 0.950 . S
H516 C492 0.950 . S
H517 C493 0.949 . S
H518 C495 0.950 . S
H519 C497 0.950 . S
C520 C521 1.349 . S
C520 C522 1.327 . S
C520 H545 0.950 . S
C521 C520 1.349 . S
C521 C537 1.349 . S
C522 C520 1.327 . S
C522 C541 1.429 . S
C522 H546 0.950 . S
C523 C540 1.574 1_554 S
C523 C542 1.368 . S
C523 H547 0.949 . S
H524 C528 0.949 . S
C525 C526 1.349 . S
C525 C527 1.327 . S
C525 H548 0.950 . S
C526 C525 1.349 . S
C526 C538 1.349 . S
C527 C525 1.327 . S
C527 C543 1.429 . S
C527 H549 0.950 . S
C528 H524 0.949 . S
C528 C536 1.574 1_556 S
C528 C544 1.368 . S
H529 C537 0.950 . S
H530 C535 0.950 . S
H531 C536 0.949 . S
H532 C538 0.950 . S
H533 C539 0.950 . S
H534 C540 0.949 . S
C535 H530 0.950 . S
C535 C537 1.327 . S
C535 C541 1.429 . S
C536 C528 1.574 1_554 S
C536 H531 0.949 . S
C536 C542 1.368 . S
C537 C521 1.349 . S
C537 H529 0.950 . S
C537 C535 1.327 . S
C538 C526 1.349 . S
C538 H532 0.950 . S
C538 C539 1.327 . S
C539 H533 0.950 . S
C539 C538 1.327 . S
C539 C543 1.429 . S
C540 C523 1.574 1_556 S
C540 H534 0.949 . S
C540 C544 1.368 . S
C541 C522 1.429 . S
C541 C535 1.429 . S
C541 C542 1.523 . S
C542 C523 1.368 . S
C542 C536 1.368 . S
C542 C541 1.523 . S
C543 C527 1.429 . S
C543 C539 1.429 . S
C543 C544 1.523 . S
C544 C528 1.368 . S
C544 C540 1.368 . S
C544 C543 1.523 . S
H545 C520 0.950 . S
H546 C522 0.950 . S
H547 C523 0.949 . S
H548 C525 0.950 . S
H549 C527 0.950 . S
C550 C551 1.349 . S
C550 C552 1.327 . S
C550 H575 0.950 . S
C551 C550 1.349 . S
C551 C567 1.349 . S
C552 C550 1.327 . S
C552 C571 1.429 . S
C552 H576 0.950 . S
C553 C570 1.574 1_554 S
C553 C572 1.368 . S
C553 H577 0.949 . S
H554 C558 0.949 . S
C555 C556 1.349 . S
C555 C557 1.327 . S
C555 H578 0.950 . S
C556 C555 1.349 . S
C556 C568 1.349 . S
C557 C555 1.327 . S
C557 C573 1.429 . S
C557 H579 0.950 . S
C558 H554 0.949 . S
C558 C566 1.574 1_556 S
C558 C574 1.368 . S
H559 C567 0.950 . S
H560 C565 0.950 . S
H561 C566 0.949 . S
H562 C568 0.950 . S
H563 C569 0.950 . S
H564 C570 0.949 . S
C565 H560 0.950 . S
C565 C567 1.327 . S
C565 C571 1.429 . S
C566 C558 1.574 1_554 S
C566 H561 0.949 . S
C566 C572 1.368 . S
C567 C551 1.349 . S
C567 H559 0.950 . S
C567 C565 1.327 . S
C568 C556 1.349 . S
C568 H562 0.950 . S
C568 C569 1.327 . S
C569 H563 0.950 . S
C569 C568 1.327 . S
C569 C573 1.429 . S
C570 C553 1.574 1_556 S
C570 H564 0.949 . S
C570 C574 1.368 . S
C571 C552 1.429 . S
C571 C565 1.429 . S
C571 C572 1.523 . S
C572 C553 1.368 . S
C572 C566 1.368 . S
C572 C571 1.523 . S
C573 C557 1.429 . S
C573 C569 1.429 . S
C573 C574 1.523 . S
C574 C558 1.368 . S
C574 C570 1.368 . S
C574 C573 1.523 . S
H575 C550 0.950 . S
H576 C552 0.950 . S
H577 C553 0.949 . S
H578 C555 0.950 . S
H579 C557 0.950 . S
C580 C581 1.349 . S
C580 C582 1.327 . S
C580 H605 0.950 . S
C581 C580 1.349 . S
C581 C597 1.349 . S
C582 C580 1.327 . S
C582 C601 1.429 . S
C582 H606 0.950 . S
C583 C600 1.574 1_554 S
C583 C602 1.368 . S
C583 H607 0.949 . S
H584 C588 0.949 . S
C585 C586 1.349 . S
C585 C587 1.327 . S
C585 H608 0.950 . S
C586 C585 1.349 . S
C586 C598 1.349 . S
C587 C585 1.327 . S
C587 C603 1.429 . S
C587 H609 0.950 . S
C588 H584 0.949 . S
C588 C596 1.574 1_556 S
C588 C604 1.368 . S
H589 C597 0.950 . S
H590 C595 0.950 . S
H591 C596 0.949 . S
H592 C598 0.950 . S
H593 C599 0.950 . S
H594 C600 0.949 . S
C595 H590 0.950 . S
C595 C597 1.327 . S
C595 C601 1.429 . S
C596 C588 1.574 1_554 S
C596 H591 0.949 . S
C596 C602 1.368 . S
C597 C581 1.349 . S
C597 H589 0.950 . S
C597 C595 1.327 . S
C598 C586 1.349 . S
C598 H592 0.950 . S
C598 C599 1.327 . S
C599 H593 0.950 . S
C599 C598 1.327 . S
C599 C603 1.429 . S
C600 C583 1.574 1_556 S
C600 H594 0.949 . S
C600 C604 1.368 . S
C601 C582 1.429 . S
C601 C595 1.429 . S
C601 C602 1.523 . S
C602 C583 1.368 . S
C602 C596 1.368 . S
C602 C601 1.523 . S
C603 C587 1.429 . S
C603 C599 1.429 . S
C603 C604 1.523 . S
C604 C588 1.368 . S
C604 C600 1.368 . S
C604 C603 1.523 . S
H605 C580 0.950 . S
H606 C582 0.950 . S
H607 C583 0.949 . S
H608 C585 0.950 . S
H609 C587 0.950 . S
C610 C611 1.349 . S
C610 C612 1.327 . S
C610 H635 0.950 . S
C611 C610 1.349 . S
C611 C627 1.349 . S
C612 C610 1.327 . S
C612 C631 1.429 . S
C612 H636 0.950 . S
C613 C630 1.574 1_556 S
C613 C632 1.368 . S
C613 H637 0.949 . S
H614 C618 0.949 . S
C615 C616 1.349 . S
C615 C617 1.327 . S
C615 H638 0.950 . S
C616 C615 1.349 . S
C616 C628 1.349 . S
C617 C615 1.327 . S
C617 C633 1.429 . S
C617 H639 0.950 . S
C618 H614 0.949 . S
C618 C626 1.574 1_554 S
C618 C634 1.368 . S
H619 C627 0.950 . S
H620 C625 0.950 . S
H621 C626 0.949 . S
H622 C628 0.950 . S
H623 C629 0.950 . S
H624 C630 0.949 . S
C625 H620 0.950 . S
C625 C627 1.327 . S
C625 C631 1.429 . S
C626 C618 1.574 1_556 S
C626 H621 0.949 . S
C626 C632 1.368 . S
C627 C611 1.349 . S
C627 H619 0.950 . S
C627 C625 1.327 . S
C628 C616 1.349 . S
C628 H622 0.950 . S
C628 C629 1.327 . S
C629 H623 0.950 . S
C629 C628 1.327 . S
C629 C633 1.429 . S
C630 C613 1.574 1_554 S
C630 H624 0.949 . S
C630 C634 1.368 . S
C631 C612 1.429 . S
C631 C625 1.429 . S
C631 C632 1.523 . S
C632 C613 1.368 . S
C632 C626 1.368 . S
C632 C631 1.523 . S
C633 C617 1.429 . S
C633 C629 1.429 . S
C633 C634 1.523 . S
C634 C618 1.368 . S
C634 C630 1.368 . S
C634 C633 1.523 . S
H635 C610 0.950 . S
H636 C612 0.950 . S
H637 C613 0.949 . S
H638 C615 0.950 . S
H639 C617 0.950 . S
C640 C641 1.349 . S
C640 C642 1.327 . S
C640 H665 0.950 . S
C641 C640 1.349 . S
C641 C657 1.349 . S
C642 C640 1.327 . S
C642 C661 1.429 . S
C642 H666 0.950 . S
C643 C660 1.574 . S
C643 C662 1.368 . S
C643 H667 0.949 . S
H644 C648 0.949 . S
C645 C646 1.349 . S
C645 C647 1.327 . S
C645 H668 0.950 . S
C646 C645 1.349 . S
C646 C658 1.349 . S
C647 C645 1.327 . S
C647 C663 1.429 . S
C647 H669 0.950 . S
C648 H644 0.949 . S
C648 C656 1.574 . S
C648 C664 1.368 . S
H649 C657 0.950 . S
H650 C655 0.950 . S
H651 C656 0.949 . S
H652 C658 0.950 . S
H653 C659 0.950 . S
H654 C660 0.949 . S
C655 H650 0.950 . S
C655 C657 1.327 . S
C655 C661 1.429 . S
C656 C648 1.574 . S
C656 H651 0.949 . S
C656 C662 1.368 . S
C657 C641 1.349 . S
C657 H649 0.950 . S
C657 C655 1.327 . S
C658 C646 1.349 . S
C658 H652 0.950 . S
C658 C659 1.327 . S
C659 H653 0.950 . S
C659 C658 1.327 . S
C659 C663 1.429 . S
C660 C643 1.574 . S
C660 H654 0.949 . S
C660 C664 1.368 . S
C661 C642 1.429 . S
C661 C655 1.429 . S
C661 C662 1.523 . S
C662 C643 1.368 . S
C662 C656 1.368 . S
C662 C661 1.523 . S
C663 C647 1.429 . S
C663 C659 1.429 . S
C663 C664 1.523 . S
C664 C648 1.368 . S
C664 C660 1.368 . S
C664 C663 1.523 . S
H665 C640 0.950 . S
H666 C642 0.950 . S
H667 C643 0.949 . S
H668 C645 0.950 . S
H669 C647 0.950 . S
C670 C671 1.349 . S
C670 C672 1.327 . S
C670 H695 0.950 . S
C671 C670 1.349 . S
C671 C687 1.349 . S
C672 C670 1.327 . S
C672 C691 1.429 . S
C672 H696 0.950 . S
C673 C690 1.574 . S
C673 C692 1.368 . S
C673 H697 0.949 . S
H674 C678 0.949 . S
C675 C676 1.349 . S
C675 C677 1.327 . S
C675 H698 0.950 . S
C676 C675 1.349 . S
C676 C688 1.349 . S
C677 C675 1.327 . S
C677 C693 1.429 . S
C677 H699 0.950 . S
C678 H674 0.949 . S
C678 C686 1.574 . S
C678 C694 1.368 . S
H679 C687 0.950 . S
H680 C685 0.950 . S
H681 C686 0.949 . S
H682 C688 0.950 . S
H683 C689 0.950 . S
H684 C690 0.949 . S
C685 H680 0.950 . S
C685 C687 1.327 . S
C685 C691 1.429 . S
C686 C678 1.574 . S
C686 H681 0.949 . S
C686 C692 1.368 . S
C687 C671 1.349 . S
C687 H679 0.950 . S
C687 C685 1.327 . S
C688 C676 1.349 . S
C688 H682 0.950 . S
C688 C689 1.327 . S
C689 H683 0.950 . S
C689 C688 1.327 . S
C689 C693 1.429 . S
C690 C673 1.574 . S
C690 H684 0.949 . S
C690 C694 1.368 . S
C691 C672 1.429 . S
C691 C685 1.429 . S
C691 C692 1.523 . S
C692 C673 1.368 . S
C692 C686 1.368 . S
C692 C691 1.523 . S
C693 C677 1.429 . S
C693 C689 1.429 . S
C693 C694 1.523 . S
C694 C678 1.368 . S
C694 C690 1.368 . S
C694 C693 1.523 . S
H695 C670 0.950 . S
H696 C672 0.950 . S
H697 C673 0.949 . S
H698 C675 0.950 . S
H699 C677 0.950 . S
C700 C701 1.349 . S
C700 C702 1.327 . S
C700 H725 0.950 . S
C701 C700 1.349 . S
C701 C717 1.349 . S
C702 C700 1.327 . S
C702 C721 1.429 . S
C702 H726 0.950 . S
C703 C720 1.574 . S
C703 C722 1.368 . S
C703 H727 0.949 . S
H704 C708 0.949 . S
C705 C706 1.349 . S
C705 C707 1.327 . S
C705 H728 0.950 . S
C706 C705 1.349 . S
C706 C718 1.349 . S
C707 C705 1.327 . S
C707 C723 1.429 . S
C707 H729 0.950 . S
C708 H704 0.949 . S
C708 C716 1.574 . S
C708 C724 1.368 . S
H709 C717 0.950 . S
H710 C715 0.950 . S
H711 C716 0.949 . S
H712 C718 0.950 . S
H713 C719 0.950 . S
H714 C720 0.949 . S
C715 H710 0.950 . S
C715 C717 1.327 . S
C715 C721 1.429 . S
C716 C708 1.574 . S
C716 H711 0.949 . S
C716 C722 1.368 . S
C717 C701 1.349 . S
C717 H709 0.950 . S
C717 C715 1.327 . S
C718 C706 1.349 . S
C718 H712 0.950 . S
C718 C719 1.327 . S
C719 H713 0.950 . S
C719 C718 1.327 . S
C719 C723 1.429 . S
C720 C703 1.574 . S
C720 H714 0.949 . S
C720 C724 1.368 . S
C721 C702 1.429 . S
C721 C715 1.429 . S
C721 C722 1.523 . S
C722 C703 1.368 . S
C722 C716 1.368 . S
C722 C721 1.523 . S
C723 C707 1.429 . S
C723 C719 1.429 . S
C723 C724 1.523 . S
C724 C708 1.368 . S
C724 C720 1.368 . S
C724 C723 1.523 . S
H725 C700 0.950 . S
H726 C702 0.950 . S
H727 C703 0.949 . S
H728 C705 0.950 . S
H729 C707 0.950 . S
C730 C731 1.349 . S
C730 C732 1.327 . S
C730 H755 0.950 . S
C731 C730 1.349 . S
C731 C747 1.349 . S
C732 C730 1.327 . S
C732 C751 1.429 . S
C732 H756 0.950 . S
C733 C750 1.574 . S
C733 C752 1.368 . S
C733 H757 0.949 . S
H734 C738 0.949 . S
C735 C736 1.349 . S
C735 C737 1.327 . S
C735 H758 0.950 . S
C736 C735 1.349 . S
C736 C748 1.349 . S
C737 C735 1.327 . S
C737 C753 1.429 . S
C737 H759 0.950 . S
C738 H734 0.949 . S
C738 C746 1.574 . S
C738 C754 1.368 . S
H739 C747 0.950 . S
H740 C745 0.950 . S
H741 C746 0.949 . S
H742 C748 0.950 . S
H743 C749 0.950 . S
H744 C750 0.949 . S
C745 H740 0.950 . S
C745 C747 1.327 . S
C745 C751 1.429 . S
C746 C738 1.574 . S
C746 H741 0.949 . S
C746 C752 1.368 . S
C747 C731 1.349 . S
C747 H739 0.950 . S
C747 C745 1.327 . S
C748 C736 1.349 . S
C748 H742 0.950 . S
C748 C749 1.327 . S
C749 H743 0.950 . S
C749 C748 1.327 . S
C749 C753 1.429 . S
C750 C733 1.574 . S
C750 H744 0.949 . S
C750 C754 1.368 . S
C751 C732 1.429 . S
C751 C745 1.429 . S
C751 C752 1.523 . S
C752 C733 1.368 . S
C752 C746 1.368 . S
C752 C751 1.523 . S
C753 C737 1.429 . S
C753 C749 1.429 . S
C753 C754 1.523 . S
C754 C738 1.368 . S
C754 C750 1.368 . S
C754 C753 1.523 . S
H755 C730 0.950 . S
H756 C732 0.950 . S
H757 C733 0.949 . S
H758 C735 0.950 . S
H759 C737 0.950 . S
C760 C761 1.349 . S
C760 C762 1.327 . S
C760 H785 0.950 . S
C761 C760 1.349 . S
C761 C777 1.349 . S
C762 C760 1.327 . S
C762 C781 1.429 . S
C762 H786 0.950 . S
C763 C780 1.574 1_455 S
C763 C782 1.368 . S
C763 H787 0.949 . S
H764 C768 0.949 . S
C765 C766 1.349 . S
C765 C767 1.327 . S
C765 H788 0.950 . S
C766 C765 1.349 . S
C766 C778 1.349 . S
C767 C765 1.327 . S
C767 C783 1.429 . S
C767 H789 0.950 . S
C768 H764 0.949 . S
C768 C776 1.574 1_655 S
C768 C784 1.368 . S
H769 C777 0.950 . S
H770 C775 0.950 . S
H771 C776 0.949 . S
H772 C778 0.950 . S
H773 C779 0.950 . S
H774 C780 0.949 . S
C775 H770 0.950 . S
C775 C777 1.327 . S
C775 C781 1.429 . S
C776 C768 1.574 1_455 S
C776 H771 0.949 . S
C776 C782 1.368 . S
C777 C761 1.349 . S
C777 H769 0.950 . S
C777 C775 1.327 . S
C778 C766 1.349 . S
C778 H772 0.950 . S
C778 C779 1.327 . S
C779 H773 0.950 . S
C779 C778 1.327 . S
C779 C783 1.429 . S
C780 C763 1.574 1_655 S
C780 H774 0.949 . S
C780 C784 1.368 . S
C781 C762 1.429 . S
C781 C775 1.429 . S
C781 C782 1.523 . S
C782 C763 1.368 . S
C782 C776 1.368 . S
C782 C781 1.523 . S
C783 C767 1.429 . S
C783 C779 1.429 . S
C783 C784 1.523 . S
C784 C768 1.368 . S
C784 C780 1.368 . S
C784 C783 1.523 . S
H785 C760 0.950 . S
H786 C762 0.950 . S
H787 C763 0.949 . S
H788 C765 0.950 . S
H789 C767 0.950 . S
C790 C791 1.349 . S
C790 C792 1.327 . S
C790 H815 0.950 . S
C791 C790 1.349 . S
C791 C807 1.349 . S
C792 C790 1.327 . S
C792 C811 1.429 . S
C792 H816 0.950 . S
C793 C810 1.574 1_655 S
C793 C812 1.368 . S
C793 H817 0.949 . S
H794 C798 0.949 . S
C795 C796 1.349 . S
C795 C797 1.327 . S
C795 H818 0.950 . S
C796 C795 1.349 . S
C796 C808 1.349 . S
C797 C795 1.327 . S
C797 C813 1.429 . S
C797 H819 0.950 . S
C798 H794 0.949 . S
C798 C806 1.574 1_455 S
C798 C814 1.368 . S
H799 C807 0.950 . S
H800 C805 0.950 . S
H801 C806 0.949 . S
H802 C808 0.950 . S
H803 C809 0.950 . S
H804 C810 0.949 . S
C805 H800 0.950 . S
C805 C807 1.327 . S
C805 C811 1.429 . S
C806 C798 1.574 1_655 S
C806 H801 0.949 . S
C806 C812 1.368 . S
C807 C791 1.349 . S
C807 H799 0.950 . S
C807 C805 1.327 . S
C808 C796 1.349 . S
C808 H802 0.950 . S
C808 C809 1.327 . S
C809 H803 0.950 . S
C809 C808 1.327 . S
C809 C813 1.429 . S
C810 C793 1.574 1_455 S
C810 H804 0.949 . S
C810 C814 1.368 . S
C811 C792 1.429 . S
C811 C805 1.429 . S
C811 C812 1.523 . S
C812 C793 1.368 . S
C812 C806 1.368 . S
C812 C811 1.523 . S
C813 C797 1.429 . S
C813 C809 1.429 . S
C813 C814 1.523 . S
C814 C798 1.368 . S
C814 C810 1.368 . S
C814 C813 1.523 . S
H815 C790 0.950 . S
H816 C792 0.950 . S
H817 C793 0.949 . S
H818 C795 0.950 . S
H819 C797 0.950 . S
C820 C821 1.349 . S
C820 C822 1.327 . S
C820 H845 0.950 . S
C821 C820 1.349 . S
C821 C837 1.349 . S
C822 C820 1.327 . S
C822 C841 1.429 . S
C822 H846 0.950 . S
C823 C840 1.574 . S
C823 C842 1.368 . S
C823 H847 0.949 . S
H824 C828 0.949 . S
C825 C826 1.349 . S
C825 C827 1.327 . S
C825 H848 0.950 . S
C826 C825 1.349 . S
C826 C838 1.349 . S
C827 C825 1.327 . S
C827 C843 1.429 . S
C827 H849 0.950 . S
C828 H824 0.949 . S
C828 C836 1.574 . S
C828 C844 1.368 . S
H829 C837 0.950 . S
H830 C835 0.950 . S
H831 C836 0.949 . S
H832 C838 0.950 . S
H833 C839 0.950 . S
H834 C840 0.949 . S
C835 H830 0.950 . S
C835 C837 1.327 . S
C835 C841 1.429 . S
C836 C828 1.574 . S
C836 H831 0.949 . S
C836 C842 1.368 . S
C837 C821 1.349 . S
C837 H829 0.950 . S
C837 C835 1.327 . S
C838 C826 1.349 . S
C838 H832 0.950 . S
C838 C839 1.327 . S
C839 H833 0.950 . S
C839 C838 1.327 . S
C839 C843 1.429 . S
C840 C823 1.574 . S
C840 H834 0.949 . S
C840 C844 1.368 . S
C841 C822 1.429 . S
C841 C835 1.429 . S
C841 C842 1.523 . S
C842 C823 1.368 . S
C842 C836 1.368 . S
C842 C841 1.523 . S
C843 C827 1.429 . S
C843 C839 1.429 . S
C843 C844 1.523 . S
C844 C828 1.368 . S
C844 C840 1.368 . S
C844 C843 1.523 . S
H845 C820 0.950 . S
H846 C822 0.950 . S
H847 C823 0.949 . S
H848 C825 0.950 . S
H849 C827 0.950 . S
C850 C851 1.349 . S
C850 C852 1.327 . S
C850 H875 0.950 . S
C851 C850 1.349 . S
C851 C867 1.349 . S
C852 C850 1.327 . S
C852 C871 1.429 . S
C852 H876 0.950 . S
C853 C870 1.574 . S
C853 C872 1.368 . S
C853 H877 0.949 . S
H854 C858 0.949 . S
C855 C856 1.349 . S
C855 C857 1.327 . S
C855 H878 0.950 . S
C856 C855 1.349 . S
C856 C868 1.349 . S
C857 C855 1.327 . S
C857 C873 1.429 . S
C857 H879 0.950 . S
C858 H854 0.949 . S
C858 C866 1.574 . S
C858 C874 1.368 . S
H859 C867 0.950 . S
H860 C865 0.950 . S
H861 C866 0.949 . S
H862 C868 0.950 . S
H863 C869 0.950 . S
H864 C870 0.949 . S
C865 H860 0.950 . S
C865 C867 1.327 . S
C865 C871 1.429 . S
C866 C858 1.574 . S
C866 H861 0.949 . S
C866 C872 1.368 . S
C867 C851 1.349 . S
C867 H859 0.950 . S
C867 C865 1.327 . S
C868 C856 1.349 . S
C868 H862 0.950 . S
C868 C869 1.327 . S
C869 H863 0.950 . S
C869 C868 1.327 . S
C869 C873 1.429 . S
C870 C853 1.574 . S
C870 H864 0.949 . S
C870 C874 1.368 . S
C871 C852 1.429 . S
C871 C865 1.429 . S
C871 C872 1.523 . S
C872 C853 1.368 . S
C872 C866 1.368 . S
C872 C871 1.523 . S
C873 C857 1.429 . S
C873 C869 1.429 . S
C873 C874 1.523 . S
C874 C858 1.368 . S
C874 C870 1.368 . S
C874 C873 1.523 . S
H875 C850 0.950 . S
H876 C852 0.950 . S
H877 C853 0.949 . S
H878 C855 0.950 . S
H879 C857 0.950 . S
C161 C2 1.724 . S
C166 C141 1.723 . S
C191 C121 1.724 . S
C196 C22 1.723 . S
C221 C102 1.724 . S
C226 C41 1.723 . S
C251 C82 1.724 . S
C256 C61 1.723 . S
C281 C48 1.461 . S
C286 C8 1.463 . S
C311 C28 1.463 . S
C316 C68 1.461 . S
C341 C69 1.463 . S
C346 C29 1.461 . S
C371 C49 1.463 . S
C376 C9 1.461 . S
C401 C88 1.459 . S
C406 C128 1.459 . S
C431 C108 1.459 . S
C436 C148 1.459 . S
C461 C149 1.459 . S
C466 C109 1.459 . S
C491 C129 1.459 . S
C496 C89 1.459 . S
C521 C19 1.625 . S
C526 C18 1.625 . S
C551 C39 1.625 . S
C556 C38 1.625 . S
C581 C59 1.625 . S
C586 C58 1.625 . S
C611 C78 1.625 . S
C616 C79 1.625 . S
C641 C98 1.625 . S
C646 C99 1.625 . S
C671 C119 1.625 . S
C676 C118 1.625 . S
C701 C138 1.625 . S
C706 C139 1.625 . S
C731 C158 1.625 . S
C736 C159 1.625 . S
C761 C1 1.920 . S
C766 C21 1.920 . S
C791 C62 1.920 . S
C796 C42 1.920 . S
C821 C81 1.920 . S
C826 C101 1.920 . S
C851 C142 1.920 . S
C856 C122 1.920 . S
