# Generated by pormake.
# Topology wlf, (5)-cn, num edge types: 1
# Building blocks:
#     Node 0, Type 0, BuildingBlock: BEQFEK_clean_sbu_0, # of connection points: 5
#     Node 1, Type 0, BuildingBlock: BEQFEK_clean_sbu_0, # of connection points: 5
#     Node 2, Type 0, BuildingBlock: BEQFEK_clean_sbu_0, # of connection points: 5
#     Node 3, Type 0, BuildingBlock: BEQFEK_clean_sbu_0, # of connection points: 5
#     Node 4, Type 0, BuildingBlock: BEQFEK_clean_sbu_0, # of connection points: 5
#     Node 5, Type 0, BuildingBlock: BEQFEK_clean_sbu_0, # of connection points: 5
#     Node 6, Type 0, BuildingBlock: BEQFEK_clean_sbu_0, # of connection points: 5
#     Node 7, Type 0, BuildingBlock: BEQFEK_clean_sbu_0, # of connection points: 5
#     Node 8, Type 0, BuildingBlock: BEQFEK_clean_sbu_0, # of connection points: 5
#     Node 9, Type 0, BuildingBlock: BEQFEK_clean_sbu_0, # of connection points: 5
#     Node 10, Type 0, BuildingBlock: BEQFEK_clean_sbu_0, # of connection points: 5
#     Node 11, Type 0, BuildingBlock: BEQFEK_clean_sbu_0, # of connection points: 5
#     Node 12, Type 0, BuildingBlock: BEQFEK_clean_sbu_0, # of connection points: 5
#     Node 13, Type 0, BuildingBlock: BEQFEK_clean_sbu_0, # of connection points: 5
#     Node 14, Type 0, BuildingBlock: BEQFEK_clean_sbu_0, # of connection points: 5
#     Node 15, Type 0, BuildingBlock: BEQFEK_clean_sbu_0, # of connection points: 5
#     Node 16, Type 0, BuildingBlock: BEQFEK_clean_sbu_0, # of connection points: 5
#     Node 17, Type 0, BuildingBlock: BEQFEK_clean_sbu_0, # of connection points: 5
#     Node 18, Type 0, BuildingBlock: BEQFEK_clean_sbu_0, # of connection points: 5
#     Node 19, Type 0, BuildingBlock: BEQFEK_clean_sbu_0, # of connection points: 5
#     Node 20, Type 0, BuildingBlock: BEQFEK_clean_sbu_0, # of connection points: 5
#     Node 21, Type 0, BuildingBlock: BEQFEK_clean_sbu_0, # of connection points: 5
#     Node 22, Type 0, BuildingBlock: BEQFEK_clean_sbu_0, # of connection points: 5
#     Node 23, Type 0, BuildingBlock: BEQFEK_clean_sbu_0, # of connection points: 5
#     Node 24, Type 0, BuildingBlock: BEQFEK_clean_sbu_0, # of connection points: 5
#     Node 25, Type 0, BuildingBlock: BEQFEK_clean_sbu_0, # of connection points: 5
#     Node 26, Type 0, BuildingBlock: BEQFEK_clean_sbu_0, # of connection points: 5
#     Node 27, Type 0, BuildingBlock: BEQFEK_clean_sbu_0, # of connection points: 5
#     Node 28, Type 0, BuildingBlock: BEQFEK_clean_sbu_0, # of connection points: 5
#     Node 29, Type 0, BuildingBlock: BEQFEK_clean_sbu_0, # of connection points: 5
#     Node 30, Type 0, BuildingBlock: BEQFEK_clean_sbu_0, # of connection points: 5
#     Node 31, Type 0, BuildingBlock: BEQFEK_clean_sbu_0, # of connection points: 5
#     Node 32, Type 0, BuildingBlock: BEQFEK_clean_sbu_0, # of connection points: 5
#     Node 33, Type 0, BuildingBlock: BEQFEK_clean_sbu_0, # of connection points: 5
#     Node 34, Type 0, BuildingBlock: BEQFEK_clean_sbu_0, # of connection points: 5
#     Node 35, Type 0, BuildingBlock: BEQFEK_clean_sbu_0, # of connection points: 5
#     Edge 36, Type (0, 0), BuildingBlock: UVAHIK_clean_linker_0, # of connection points: 2
#     Edge 37, Type (0, 0), BuildingBlock: UVAHIK_clean_linker_0, # of connection points: 2
#     Edge 38, Type (0, 0), BuildingBlock: UVAHIK_clean_linker_0, # of connection points: 2
#     Edge 39, Type (0, 0), BuildingBlock: UVAHIK_clean_linker_0, # of connection points: 2
#     Edge 40, Type (0, 0), BuildingBlock: UVAHIK_clean_linker_0, # of connection points: 2
#     Edge 41, Type (0, 0), BuildingBlock: UVAHIK_clean_linker_0, # of connection points: 2
#     Edge 42, Type (0, 0), BuildingBlock: UVAHIK_clean_linker_0, # of connection points: 2
#     Edge 43, Type (0, 0), BuildingBlock: UVAHIK_clean_linker_0, # of connection points: 2
#     Edge 44, Type (0, 0), BuildingBlock: UVAHIK_clean_linker_0, # of connection points: 2
#     Edge 45, Type (0, 0), BuildingBlock: UVAHIK_clean_linker_0, # of connection points: 2
#     Edge 46, Type (0, 0), BuildingBlock: UVAHIK_clean_linker_0, # of connection points: 2
#     Edge 47, Type (0, 0), BuildingBlock: UVAHIK_clean_linker_0, # of connection points: 2
#     Edge 48, Type (0, 0), BuildingBlock: UVAHIK_clean_linker_0, # of connection points: 2
#     Edge 49, Type (0, 0), BuildingBlock: UVAHIK_clean_linker_0, # of connection points: 2
#     Edge 50, Type (0, 0), BuildingBlock: UVAHIK_clean_linker_0, # of connection points: 2
#     Edge 51, Type (0, 0), BuildingBlock: UVAHIK_clean_linker_0, # of connection points: 2
#     Edge 52, Type (0, 0), BuildingBlock: UVAHIK_clean_linker_0, # of connection points: 2
#     Edge 53, Type (0, 0), BuildingBlock: UVAHIK_clean_linker_0, # of connection points: 2
#     Edge 54, Type (0, 0), BuildingBlock: UVAHIK_clean_linker_0, # of connection points: 2
#     Edge 55, Type (0, 0), BuildingBlock: UVAHIK_clean_linker_0, # of connection points: 2
#     Edge 56, Type (0, 0), BuildingBlock: UVAHIK_clean_linker_0, # of connection points: 2
#     Edge 57, Type (0, 0), BuildingBlock: UVAHIK_clean_linker_0, # of connection points: 2
#     Edge 58, Type (0, 0), BuildingBlock: UVAHIK_clean_linker_0, # of connection points: 2
#     Edge 59, Type (0, 0), BuildingBlock: UVAHIK_clean_linker_0, # of connection points: 2
#     Edge 60, Type (0, 0), BuildingBlock: UVAHIK_clean_linker_0, # of connection points: 2
#     Edge 61, Type (0, 0), BuildingBlock: UVAHIK_clean_linker_0, # of connection points: 2
#     Edge 62, Type (0, 0), BuildingBlock: UVAHIK_clean_linker_0, # of connection points: 2
#     Edge 63, Type (0, 0), BuildingBlock: UVAHIK_clean_linker_0, # of connection points: 2
#     Edge 64, Type (0, 0), BuildingBlock: UVAHIK_clean_linker_0, # of connection points: 2
#     Edge 65, Type (0, 0), BuildingBlock: UVAHIK_clean_linker_0, # of connection points: 2
#     Edge 66, Type (0, 0), BuildingBlock: UVAHIK_clean_linker_0, # of connection points: 2
#     Edge 67, Type (0, 0), BuildingBlock: UVAHIK_clean_linker_0, # of connection points: 2
#     Edge 68, Type (0, 0), BuildingBlock: UVAHIK_clean_linker_0, # of connection points: 2
#     Edge 69, Type (0, 0), BuildingBlock: UVAHIK_clean_linker_0, # of connection points: 2
#     Edge 70, Type (0, 0), BuildingBlock: UVAHIK_clean_linker_0, # of connection points: 2
#     Edge 71, Type (0, 0), BuildingBlock: UVAHIK_clean_linker_0, # of connection points: 2
#     Edge 72, Type (0, 0), BuildingBlock: UVAHIK_clean_linker_0, # of connection points: 2
#     Edge 73, Type (0, 0), BuildingBlock: UVAHIK_clean_linker_0, # of connection points: 2
#     Edge 74, Type (0, 0), BuildingBlock: UVAHIK_clean_linker_0, # of connection points: 2
#     Edge 75, Type (0, 0), BuildingBlock: UVAHIK_clean_linker_0, # of connection points: 2
#     Edge 76, Type (0, 0), BuildingBlock: UVAHIK_clean_linker_0, # of connection points: 2
#     Edge 77, Type (0, 0), BuildingBlock: UVAHIK_clean_linker_0, # of connection points: 2
#     Edge 78, Type (0, 0), BuildingBlock: UVAHIK_clean_linker_0, # of connection points: 2
#     Edge 79, Type (0, 0), BuildingBlock: UVAHIK_clean_linker_0, # of connection points: 2
#     Edge 80, Type (0, 0), BuildingBlock: UVAHIK_clean_linker_0, # of connection points: 2
#     Edge 81, Type (0, 0), BuildingBlock: UVAHIK_clean_linker_0, # of connection points: 2
#     Edge 82, Type (0, 0), BuildingBlock: UVAHIK_clean_linker_0, # of connection points: 2
#     Edge 83, Type (0, 0), BuildingBlock: UVAHIK_clean_linker_0, # of connection points: 2
#     Edge 84, Type (0, 0), BuildingBlock: UVAHIK_clean_linker_0, # of connection points: 2
#     Edge 85, Type (0, 0), BuildingBlock: UVAHIK_clean_linker_0, # of connection points: 2
#     Edge 86, Type (0, 0), BuildingBlock: UVAHIK_clean_linker_0, # of connection points: 2
#     Edge 87, Type (0, 0), BuildingBlock: UVAHIK_clean_linker_0, # of connection points: 2
#     Edge 88, Type (0, 0), BuildingBlock: UVAHIK_clean_linker_0, # of connection points: 2
#     Edge 89, Type (0, 0), BuildingBlock: UVAHIK_clean_linker_0, # of connection points: 2
#     Edge 90, Type (0, 0), BuildingBlock: UVAHIK_clean_linker_0, # of connection points: 2
#     Edge 91, Type (0, 0), BuildingBlock: UVAHIK_clean_linker_0, # of connection points: 2
#     Edge 92, Type (0, 0), BuildingBlock: UVAHIK_clean_linker_0, # of connection points: 2
#     Edge 93, Type (0, 0), BuildingBlock: UVAHIK_clean_linker_0, # of connection points: 2
#     Edge 94, Type (0, 0), BuildingBlock: UVAHIK_clean_linker_0, # of connection points: 2
#     Edge 95, Type (0, 0), BuildingBlock: UVAHIK_clean_linker_0, # of connection points: 2
#     Edge 96, Type (0, 0), BuildingBlock: UVAHIK_clean_linker_0, # of connection points: 2
#     Edge 97, Type (0, 0), BuildingBlock: UVAHIK_clean_linker_0, # of connection points: 2
#     Edge 98, Type (0, 0), BuildingBlock: UVAHIK_clean_linker_0, # of connection points: 2
#     Edge 99, Type (0, 0), BuildingBlock: UVAHIK_clean_linker_0, # of connection points: 2
#     Edge 100, Type (0, 0), BuildingBlock: UVAHIK_clean_linker_0, # of connection points: 2
#     Edge 101, Type (0, 0), BuildingBlock: UVAHIK_clean_linker_0, # of connection points: 2
#     Edge 102, Type (0, 0), BuildingBlock: UVAHIK_clean_linker_0, # of connection points: 2
#     Edge 103, Type (0, 0), BuildingBlock: UVAHIK_clean_linker_0, # of connection points: 2
#     Edge 104, Type (0, 0), BuildingBlock: UVAHIK_clean_linker_0, # of connection points: 2
#     Edge 105, Type (0, 0), BuildingBlock: UVAHIK_clean_linker_0, # of connection points: 2
#     Edge 106, Type (0, 0), BuildingBlock: UVAHIK_clean_linker_0, # of connection points: 2
#     Edge 107, Type (0, 0), BuildingBlock: UVAHIK_clean_linker_0, # of connection points: 2
#     Edge 108, Type (0, 0), BuildingBlock: UVAHIK_clean_linker_0, # of connection points: 2
#     Edge 109, Type (0, 0), BuildingBlock: UVAHIK_clean_linker_0, # of connection points: 2
#     Edge 110, Type (0, 0), BuildingBlock: UVAHIK_clean_linker_0, # of connection points: 2
#     Edge 111, Type (0, 0), BuildingBlock: UVAHIK_clean_linker_0, # of connection points: 2
#     Edge 112, Type (0, 0), BuildingBlock: UVAHIK_clean_linker_0, # of connection points: 2
#     Edge 113, Type (0, 0), BuildingBlock: UVAHIK_clean_linker_0, # of connection points: 2
#     Edge 114, Type (0, 0), BuildingBlock: UVAHIK_clean_linker_0, # of connection points: 2
#     Edge 115, Type (0, 0), BuildingBlock: UVAHIK_clean_linker_0, # of connection points: 2
#     Edge 116, Type (0, 0), BuildingBlock: UVAHIK_clean_linker_0, # of connection points: 2
#     Edge 117, Type (0, 0), BuildingBlock: UVAHIK_clean_linker_0, # of connection points: 2
#     Edge 118, Type (0, 0), BuildingBlock: UVAHIK_clean_linker_0, # of connection points: 2
#     Edge 119, Type (0, 0), BuildingBlock: UVAHIK_clean_linker_0, # of connection points: 2
#     Edge 120, Type (0, 0), BuildingBlock: UVAHIK_clean_linker_0, # of connection points: 2
#     Edge 121, Type (0, 0), BuildingBlock: UVAHIK_clean_linker_0, # of connection points: 2
#     Edge 122, Type (0, 0), BuildingBlock: UVAHIK_clean_linker_0, # of connection points: 2
#     Edge 123, Type (0, 0), BuildingBlock: UVAHIK_clean_linker_0, # of connection points: 2
#     Edge 124, Type (0, 0), BuildingBlock: UVAHIK_clean_linker_0, # of connection points: 2
#     Edge 125, Type (0, 0), BuildingBlock: UVAHIK_clean_linker_0, # of connection points: 2
# Relax obj value: 0.493
# Max RMSD: 0.266
# Mean RMSD: 0.266
data_MOF--net-wlf--node1-BEQFEK_clean_sbu_0--edge1-UVAHIK_clean_linker_0
_symmetry_space_group_name_H-M    P1
_symmetry_Int_Tables_number       1
_symmetry_cell_setting            triclinic
loop_
_symmetry_equiv_pos_as_xyz
'x, y, z'
_cell_length_a     139.69104
_cell_length_b     139.69057
_cell_length_c     34.733122
_cell_angle_alpha  89.995146
_cell_angle_beta   90.00607
_cell_angle_gamma 119.99807
loop_
_atom_site_label
_atom_site_type_symbol
_atom_site_fract_x
_atom_site_fract_y
_atom_site_fract_z
_atom_type_partial_charge
Co0 Co 0.27377 0.16203 0.31926 0.0
Co1 Co 0.25575 0.16836 0.33916 0.0
C2 C 0.27997 0.18468 0.34757 0.0
O3 O 0.28222 0.17747 0.33535 0.0
O4 O 0.26999 0.18249 0.3515 0.0
C5 C 0.29456 0.16321 0.30818 0.0
O6 O 0.29756 0.16984 0.33809 0.0
C7 C 0.24324 0.17982 0.32647 0.0
C8 C 0.22671 0.16772 0.34863 0.0
C9 C 0.2325 0.17783 0.33009 0.0
N10 N 0.24375 0.17126 0.34198 0.0
N11 N 0.23388 0.16414 0.35574 0.0
C12 C 0.25252 0.18899 0.30462 0.0
H13 H 0.25855 0.1865 0.29516 0.0
H14 H 0.24931 0.19136 0.27927 0.0
H15 H 0.25682 0.19631 0.3237 0.0
C16 C 0.26225 0.1561 0.24549 0.0
N17 N 0.26367 0.16042 0.28099 0.0
N18 N 0.25582 0.16274 0.28853 0.0
C19 C 0.24895 0.15967 0.25775 0.0
C20 C 0.25291 0.15549 0.22952 0.0
C21 C 0.26929 0.15192 0.2283 0.0
H22 H 0.26919 0.14551 0.24744 0.0
H23 H 0.27794 0.15883 0.22619 0.0
H24 H 0.26639 0.14833 0.19924 0.0
O25 O 0.26595 0.15223 0.36304 0.0
O26 O 0.25332 0.15683 0.37866 0.0
H27 H 0.23348 0.15618 0.28224 0.0
H28 H 0.23353 0.15576 0.23015 0.0
C29 C 0.23846 0.16007 0.25607 0.0
H30 H 0.24047 0.16881 0.25512 0.0
H31 H 0.23192 0.1566 0.3684 0.0
O32 O 0.28456 0.15842 0.29714 0.0
C33 C 0.25796 0.15105 0.38412 0.0
Co34 Co 0.83737 0.11148 0.32837 0.0
Co35 Co 0.83181 0.08719 0.34535 0.0
C36 C 0.81499 0.09402 0.35746 0.0
O37 O 0.82205 0.10365 0.34638 0.0
O38 O 0.81736 0.08633 0.35936 0.0
C39 C 0.83142 0.1241 0.28521 0.0
O40 O 0.82319 0.11402 0.27931 0.0
C41 C 0.82092 0.06329 0.3332 0.0
C42 C 0.8339 0.05947 0.35012 0.0
C43 C 0.82334 0.05479 0.33482 0.0
N44 N 0.82965 0.07256 0.34682 0.0
N45 N 0.83732 0.07018 0.35746 0.0
C46 C 0.81108 0.06296 0.31482 0.0
H47 H 0.81324 0.07128 0.30393 0.0
H48 H 0.80789 0.0569 0.29083 0.0
H49 H 0.80445 0.0604 0.33667 0.0
C50 C 0.84452 0.10703 0.25447 0.0
N51 N 0.8397 0.10364 0.28915 0.0
N52 N 0.83705 0.09328 0.29476 0.0
C53 C 0.83998 0.08971 0.26298 0.0
C54 C 0.84479 0.09833 0.23664 0.0
C55 C 0.84921 0.11855 0.23923 0.0
H56 H 0.85335 0.12463 0.26271 0.0
H57 H 0.8424 0.11958 0.22749 0.0
H58 H 0.85523 0.1203 0.21571 0.0
O59 O 0.84741 0.11382 0.37158 0.0
O60 O 0.84339 0.09659 0.3847 0.0
H61 H 0.84338 0.0772 0.28255 0.0
H62 H 0.84236 0.07781 0.23082 0.0
C63 C 0.83893 0.07858 0.25871 0.0
H64 H 0.83009 0.07212 0.2603 0.0
H65 H 0.84507 0.07598 0.36814 0.0
O66 O 0.83932 0.12546 0.30705 0.0
C67 C 0.84887 0.10698 0.39149 0.0
Co68 Co 0.88873 0.72931 0.32102 0.0
Co69 Co 0.91359 0.74466 0.34244 0.0
C70 C 0.90273 0.71981 0.34555 0.0
O71 O 0.89367 0.71888 0.33416 0.0
O72 O 0.91126 0.72928 0.3507 0.0
C73 C 0.86676 0.71134 0.31443 0.0
O74 O 0.8687 0.70888 0.349 0.0
C75 C 0.93718 0.75477 0.32475 0.0
C76 C 0.94474 0.76918 0.36375 0.0
C77 C 0.94722 0.7639 0.33492 0.0
N78 N 0.92914 0.75477 0.34611 0.0
N79 N 0.93373 0.76337 0.36956 0.0
C80 C 0.93527 0.74586 0.29662 0.0
H81 H 0.92746 0.73815 0.30315 0.0
H82 H 0.93461 0.74847 0.26711 0.0
H83 H 0.9423 0.74426 0.29718 0.0
C84 C 0.89563 0.74178 0.24941 0.0
N85 N 0.89807 0.73942 0.28424 0.0
N86 N 0.90846 0.74645 0.29274 0.0
C87 C 0.91286 0.75381 0.26339 0.0
C88 C 0.90486 0.75098 0.23505 0.0
C89 C 0.88458 0.73533 0.23039 0.0
H90 H 0.87831 0.73611 0.24756 0.0
H91 H 0.88222 0.72648 0.22954 0.0
H92 H 0.88462 0.73818 0.20056 0.0
O93 O 0.88799 0.73729 0.36669 0.0
O94 O 0.9056 0.74787 0.38424 0.0
H95 H 0.92644 0.76708 0.29369 0.0
H96 H 0.92404 0.77058 0.24582 0.0
C97 C 0.92402 0.764 0.26386 0.0
H98 H 0.9302 0.76208 0.25171 0.0
H99 H 0.92933 0.76536 0.38915 0.0
O100 O 0.87399 0.72021 0.29847 0.0
C101 C 0.89531 0.74436 0.38924 0.0
Co102 Co 0.16105 0.27462 0.18229 0.0
Co103 Co 0.16836 0.25725 0.1627 0.0
C104 C 0.1838 0.28173 0.15331 0.0
O105 O 0.17642 0.28364 0.16614 0.0
O106 O 0.18194 0.27187 0.14915 0.0
C107 C 0.16137 0.29498 0.19359 0.0
O108 O 0.16804 0.29821 0.16375 0.0
C109 C 0.18066 0.24545 0.17691 0.0
C110 C 0.16953 0.22916 0.15097 0.0
C111 C 0.17927 0.2349 0.17186 0.0
N112 N 0.17205 0.24573 0.16054 0.0
N113 N 0.1655 0.23599 0.14476 0.0
C114 C 0.19003 0.25522 0.19628 0.0
H115 H 0.1906 0.263 0.18629 0.0
H116 H 0.1886 0.25465 0.22781 0.0
H117 H 0.19796 0.25549 0.19039 0.0
C118 C 0.15554 0.26318 0.25615 0.0
N119 N 0.15993 0.26475 0.22072 0.0
N120 N 0.16272 0.25722 0.21347 0.0
C121 C 0.15995 0.25044 0.24445 0.0
C122 C 0.15536 0.25407 0.27236 0.0
C123 C 0.15132 0.27016 0.2737 0.0
H124 H 0.14441 0.26951 0.25599 0.0
H125 H 0.15803 0.27892 0.27379 0.0
H126 H 0.14842 0.26764 0.30369 0.0
O127 O 0.1514 0.2664 0.13874 0.0
O128 O 0.15646 0.25408 0.12357 0.0
H129 H 0.15734 0.23531 0.21937 0.0
H130 H 0.1561 0.23495 0.27131 0.0
C131 C 0.1607 0.24014 0.24622 0.0
H132 H 0.16949 0.2424 0.24887 0.0
H133 H 0.15812 0.23391 0.13064 0.0
O134 O 0.15679 0.28495 0.20424 0.0
C135 C 0.1504 0.25842 0.11804 0.0
Co136 Co 0.72706 0.88885 0.17697 0.0
Co137 Co 0.74521 0.91337 0.15961 0.0
C138 C 0.72108 0.90558 0.14987 0.0
O139 O 0.71867 0.89598 0.16104 0.0
O140 O 0.73108 0.91338 0.14708 0.0
C141 C 0.70609 0.86934 0.18903 0.0
O142 O 0.7027 0.87346 0.16175 0.0
C143 C 0.75762 0.93725 0.17378 0.0
C144 C 0.77433 0.94177 0.1533 0.0
C145 C 0.76838 0.94601 0.17127 0.0
N146 N 0.75724 0.92826 0.15816 0.0
N147 N 0.76722 0.93106 0.1454 0.0
C148 C 0.74817 0.93706 0.1947 0.0
H149 H 0.74213 0.92852 0.20398 0.0
H150 H 0.75116 0.94262 0.2201 0.0
H151 H 0.74393 0.94001 0.17503 0.0
C152 C 0.73837 0.89384 0.25117 0.0
N153 N 0.73703 0.89704 0.21609 0.0
N154 N 0.74481 0.90732 0.20981 0.0
C155 C 0.75146 0.91095 0.24119 0.0
C156 C 0.74756 0.90249 0.26821 0.0
C157 C 0.73107 0.88257 0.26769 0.0
H158 H 0.73151 0.87631 0.24925 0.0
H159 H 0.7224 0.8808 0.26786 0.0
H160 H 0.73346 0.88184 0.29754 0.0
O161 O 0.73514 0.8872 0.13346 0.0
O162 O 0.74788 0.90454 0.11958 0.0
H163 H 0.76708 0.92328 0.21871 0.0
H164 H 0.76652 0.92247 0.27072 0.0
C165 C 0.7618 0.92193 0.24429 0.0
H166 H 0.75963 0.92854 0.24512 0.0
H167 H 0.76928 0.92554 0.13289 0.0
O168 O 0.71627 0.87424 0.19785 0.0
C169 C 0.74327 0.89416 0.11326 0.0
Co170 Co 0.11497 0.8422 0.17974 0.0
Co171 Co 0.08981 0.83226 0.16135 0.0
C172 C 0.10092 0.81868 0.15396 0.0
O173 O 0.10999 0.82697 0.16436 0.0
O174 O 0.09215 0.8193 0.15116 0.0
C175 C 0.13621 0.84443 0.18881 0.0
O176 O 0.13327 0.83805 0.15821 0.0
C177 C 0.06614 0.81874 0.17924 0.0
C178 C 0.05878 0.82608 0.14151 0.0
C179 C 0.05617 0.81802 0.16931 0.0
N180 N 0.07427 0.82694 0.15865 0.0
N181 N 0.0698 0.83125 0.13601 0.0
C182 C 0.06788 0.81136 0.20612 0.0
H183 H 0.07594 0.81189 0.20052 0.0
H184 H 0.06788 0.81393 0.23628 0.0
H185 H 0.06107 0.80269 0.20299 0.0
C186 C 0.10846 0.84728 0.25313 0.0
N187 N 0.10579 0.84253 0.21824 0.0
N188 N 0.09528 0.83896 0.21109 0.0
C189 C 0.09102 0.8417 0.24143 0.0
C190 C 0.09926 0.847 0.26894 0.0
C191 C 0.11975 0.8522 0.27064 0.0
H192 H 0.12564 0.85948 0.25346 0.0
H193 H 0.12252 0.84602 0.26987 0.0
H194 H 0.11987 0.85476 0.30094 0.0
O195 O 0.11526 0.85126 0.13589 0.0
O196 O 0.09746 0.84372 0.12002 0.0
H197 H 0.07719 0.84145 0.2133 0.0
H198 H 0.07965 0.84674 0.26206 0.0
C199 C 0.07976 0.8405 0.24256 0.0
H200 H 0.07376 0.8322 0.25374 0.0
H201 H 0.07428 0.8378 0.11707 0.0
O202 O 0.12993 0.84791 0.20096 0.0
C203 C 0.10764 0.85083 0.11451 0.0
Co204 Co 0.72789 0.83956 0.68184 0.0
Co205 Co 0.74515 0.83235 0.66082 0.0
C206 C 0.72054 0.81672 0.65449 0.0
O207 O 0.71863 0.82411 0.66719 0.0
O208 O 0.7304 0.81866 0.64955 0.0
C209 C 0.70787 0.83986 0.69303 0.0
O210 O 0.70454 0.83323 0.66307 0.0
C211 C 0.75681 0.82042 0.67945 0.0
C212 C 0.7714 0.82828 0.64132 0.0
C213 C 0.76644 0.82037 0.66994 0.0
N214 N 0.75622 0.82811 0.65792 0.0
N215 N 0.76493 0.83274 0.63501 0.0
C216 C 0.748 0.81291 0.70703 0.0
H217 H 0.74005 0.8125 0.7003 0.0
H218 H 0.75036 0.8161 0.73677 0.0
H219 H 0.74697 0.8045 0.70602 0.0
C220 C 0.73991 0.84556 0.75449 0.0
N221 N 0.73807 0.84093 0.71942 0.0
N222 N 0.74583 0.83856 0.71104 0.0
C223 C 0.75316 0.84203 0.7406 0.0
C224 C 0.74952 0.84646 0.76905 0.0
C225 C 0.7328 0.84947 0.77302 0.0
H226 H 0.73339 0.85651 0.7563 0.0
H227 H 0.72406 0.84269 0.77266 0.0
H228 H 0.73528 0.85211 0.80325 0.0
O229 O 0.73577 0.84889 0.63709 0.0
O230 O 0.74802 0.84383 0.62069 0.0
H231 H 0.76731 0.8437 0.71013 0.0
H232 H 0.77015 0.84925 0.75853 0.0
C233 C 0.76407 0.84246 0.73993 0.0
H234 H 0.76306 0.8346 0.75124 0.0
H235 H 0.76653 0.83903 0.61542 0.0
O236 O 0.71784 0.84414 0.70402 0.0
C237 C 0.74356 0.8498 0.6155 0.0
Co238 Co 0.16253 0.88767 0.67933 0.0
Co239 Co 0.16981 0.91228 0.65983 0.0
C240 C 0.18526 0.90325 0.65057 0.0
O241 O 0.17787 0.89393 0.6631 0.0
O242 O 0.1834 0.91125 0.64669 0.0
C243 C 0.16277 0.86754 0.68977 0.0
O244 O 0.16923 0.87091 0.65937 0.0
C245 C 0.18224 0.93602 0.67657 0.0
C246 C 0.17367 0.94256 0.64114 0.0
C247 C 0.18221 0.94567 0.66731 0.0
N248 N 0.174 0.92758 0.6572 0.0
N249 N 0.16894 0.93155 0.63595 0.0
C250 C 0.19041 0.93491 0.70139 0.0
H251 H 0.18937 0.92654 0.69875 0.0
H252 H 0.18923 0.93632 0.73197 0.0
H253 H 0.19894 0.94126 0.69314 0.0
C254 C 0.15743 0.89368 0.75376 0.0
N255 N 0.16149 0.89643 0.71791 0.0
N256 N 0.16408 0.90669 0.71054 0.0
C257 C 0.16137 0.91069 0.74173 0.0
C258 C 0.15729 0.90261 0.77026 0.0
C259 C 0.15288 0.88234 0.77052 0.0
H260 H 0.14658 0.87619 0.75068 0.0
H261 H 0.15965 0.88042 0.77348 0.0
H262 H 0.14897 0.88153 0.79901 0.0
O263 O 0.15284 0.88626 0.63588 0.0
O264 O 0.15797 0.90367 0.62063 0.0
H265 H 0.16016 0.92396 0.71542 0.0
H266 H 0.15645 0.92182 0.76587 0.0
C267 C 0.16214 0.92175 0.74379 0.0
H268 H 0.17066 0.92807 0.75194 0.0
H269 H 0.1622 0.92674 0.61808 0.0
O270 O 0.15835 0.87307 0.70116 0.0
C271 C 0.15186 0.89327 0.61518 0.0
Co272 Co 0.11102 0.27269 0.68612 0.0
Co273 Co 0.08682 0.2551 0.66361 0.0
C274 C 0.09528 0.2795 0.65621 0.0
O275 O 0.1046 0.28163 0.6694 0.0
O276 O 0.08742 0.26959 0.65161 0.0
C277 C 0.13292 0.29159 0.69363 0.0
O278 O 0.13201 0.2934 0.65705 0.0
C279 C 0.06284 0.24292 0.67467 0.0
C280 C 0.05819 0.22646 0.65124 0.0
C281 C 0.05398 0.23227 0.67029 0.0
N282 N 0.07186 0.24336 0.65912 0.0
N283 N 0.06899 0.23354 0.64455 0.0
C284 C 0.06306 0.25212 0.69744 0.0
H285 H 0.07162 0.25806 0.70684 0.0
H286 H 0.05756 0.24882 0.7229 0.0
H287 H 0.06004 0.25655 0.67907 0.0
C288 C 0.10474 0.26055 0.75868 0.0
N289 N 0.10214 0.26234 0.72322 0.0
N290 N 0.09196 0.25469 0.71473 0.0
C291 C 0.08782 0.24764 0.74501 0.0
C292 C 0.09582 0.2512 0.77369 0.0
C293 C 0.1157 0.26762 0.77761 0.0
H294 H 0.12234 0.2678 0.75955 0.0
H295 H 0.11716 0.27616 0.78 0.0
H296 H 0.11607 0.26463 0.80685 0.0
O297 O 0.11327 0.26512 0.64215 0.0
O298 O 0.09612 0.2527 0.6248 0.0
H299 H 0.07567 0.23251 0.71895 0.0
H300 H 0.07598 0.2321 0.77101 0.0
C301 C 0.0768 0.2373 0.74567 0.0
H302 H 0.07021 0.2395 0.74703 0.0
H303 H 0.07451 0.23152 0.63178 0.0
O304 O 0.12521 0.2831 0.70994 0.0
C305 C 0.10658 0.2573 0.62025 0.0
Co306 Co 0.83796 0.72561 0.83497 0.0
Co307 Co 0.83263 0.74466 0.84808 0.0
C308 C 0.81621 0.7213 0.86758 0.0
O309 O 0.82315 0.71843 0.85789 0.0
O310 O 0.81842 0.73129 0.86485 0.0
C311 C 0.8314 0.70586 0.79761 0.0
O312 O 0.82255 0.70684 0.79465 0.0
C313 C 0.82171 0.75726 0.82925 0.0
C314 C 0.83203 0.77318 0.85888 0.0
C315 C 0.82282 0.76757 0.8355 0.0
N316 N 0.82996 0.75683 0.84766 0.0
N317 N 0.83608 0.76636 0.86547 0.0
C318 C 0.81257 0.74767 0.80835 0.0
H319 H 0.81441 0.74085 0.80528 0.0
H320 H 0.8113 0.7502 0.77945 0.0
H321 H 0.80476 0.74468 0.82472 0.0
C322 C 0.84342 0.73529 0.75757 0.0
N323 N 0.83933 0.73477 0.79306 0.0
N324 N 0.83727 0.74293 0.79761 0.0
C325 C 0.84005 0.74893 0.76467 0.0
C326 C 0.84386 0.74414 0.73812 0.0
C327 C 0.84819 0.72835 0.74417 0.0
H328 H 0.85263 0.72701 0.7681 0.0
H329 H 0.8414 0.72023 0.73424 0.0
H330 H 0.85406 0.73231 0.71997 0.0
O331 O 0.84899 0.73452 0.87423 0.0
O332 O 0.84474 0.74765 0.88635 0.0
H333 H 0.84286 0.76466 0.78464 0.0
H334 H 0.84401 0.76384 0.73299 0.0
C335 C 0.83945 0.75924 0.75905 0.0
H336 H 0.8307 0.757 0.75552 0.0
H337 H 0.84304 0.76823 0.88196 0.0
O338 O 0.83975 0.71326 0.81574 0.0
C339 C 0.85059 0.74309 0.8927 0.0
Co340 Co 0.27435 0.1138 0.82058 0.0
Co341 Co 0.25827 0.08877 0.83845 0.0
C342 C 0.28302 0.09895 0.84359 0.0
O343 O 0.2842 0.10818 0.83315 0.0
O344 O 0.27343 0.09051 0.84772 0.0
C345 C 0.29385 0.13463 0.81058 0.0
O346 O 0.29741 0.13131 0.83986 0.0
C347 C 0.24751 0.06517 0.81896 0.0
C348 C 0.23285 0.0579 0.85685 0.0
C349 C 0.2381 0.05526 0.8284 0.0
N350 N 0.2477 0.07329 0.84042 0.0
N351 N 0.23894 0.06887 0.86315 0.0
C352 C 0.25651 0.06683 0.79168 0.0
H353 H 0.26419 0.07473 0.79769 0.0
H354 H 0.25397 0.06713 0.7617 0.0
H355 H 0.25813 0.05983 0.79386 0.0
C356 C 0.26227 0.10797 0.74798 0.0
N357 N 0.26431 0.10504 0.7825 0.0
N358 N 0.25713 0.09458 0.78931 0.0
C359 C 0.25002 0.09061 0.75916 0.0
C360 C 0.25314 0.09898 0.73209 0.0
C361 C 0.26896 0.11925 0.73074 0.0
H362 H 0.26803 0.12532 0.74865 0.0
H363 H 0.27781 0.12163 0.73065 0.0
H364 H 0.2664 0.11961 0.70078 0.0
O365 O 0.26637 0.1143 0.86649 0.0
O366 O 0.25491 0.0966 0.88049 0.0
H367 H 0.23627 0.07688 0.78704 0.0
H368 H 0.23347 0.0797 0.73873 0.0
C369 C 0.23976 0.07951 0.75777 0.0
H370 H 0.24178 0.07338 0.74589 0.0
H371 H 0.23705 0.07336 0.88269 0.0
O372 O 0.28388 0.12876 0.7998 0.0
C373 C 0.25883 0.10688 0.88752 0.0
Co374 Co 0.88699 0.16314 0.8227 0.0
Co375 Co 0.91146 0.17011 0.84381 0.0
C376 C 0.9027 0.18586 0.8513 0.0
O377 O 0.8934 0.17855 0.83827 0.0
O378 O 0.91057 0.18384 0.85622 0.0
C379 C 0.86712 0.16369 0.80879 0.0
O380 O 0.87062 0.17079 0.83741 0.0
C381 C 0.93554 0.18216 0.83001 0.0
C382 C 0.94057 0.17101 0.85669 0.0
C383 C 0.94461 0.18065 0.83527 0.0
N384 N 0.92662 0.17367 0.84671 0.0
N385 N 0.92973 0.16712 0.86299 0.0
C386 C 0.93524 0.19151 0.81009 0.0
H387 H 0.92829 0.19243 0.82076 0.0
H388 H 0.93401 0.1898 0.77876 0.0
H389 H 0.9431 0.19938 0.81473 0.0
C390 C 0.89322 0.1578 0.74899 0.0
N391 N 0.89582 0.16191 0.78485 0.0
N392 N 0.906 0.16438 0.79303 0.0
C393 C 0.91008 0.16153 0.76244 0.0
C394 C 0.90214 0.15743 0.73351 0.0
C395 C 0.88207 0.15352 0.73101 0.0
H396 H 0.88013 0.16031 0.72943 0.0
H397 H 0.88165 0.15021 0.70165 0.0
H398 H 0.87573 0.14686 0.74932 0.0
O399 O 0.8853 0.15356 0.86693 0.0
O400 O 0.90256 0.1584 0.88314 0.0
H401 H 0.92232 0.15871 0.78879 0.0
H402 H 0.92155 0.15724 0.73691 0.0
C403 C 0.92102 0.16202 0.76152 0.0
H404 H 0.92768 0.17074 0.7585 0.0
H405 H 0.92438 0.1598 0.87738 0.0
O406 O 0.87249 0.15888 0.79992 0.0
C407 C 0.89213 0.1525 0.88833 0.0
Co408 Co 0.94181 0.49695 0.66285 0.0
Co409 Co 0.9238 0.50357 0.67881 0.0
C410 C 0.94755 0.52 0.68847 0.0
O411 O 0.94958 0.51243 0.67903 0.0
O412 O 0.93765 0.51813 0.69021 0.0
C413 C 0.95968 0.50236 0.61739 0.0
O414 O 0.95729 0.51015 0.61001 0.0
C415 C 0.91044 0.51414 0.66556 0.0
C416 C 0.8939 0.50113 0.68459 0.0
C417 C 0.89946 0.51149 0.66759 0.0
N418 N 0.91131 0.50572 0.68046 0.0
N419 N 0.90142 0.49805 0.69239 0.0
C420 C 0.9197 0.52388 0.6457 0.0
H421 H 0.92609 0.52189 0.63607 0.0
H422 H 0.91658 0.52644 0.62063 0.0
H423 H 0.92357 0.5309 0.6662 0.0
C424 C 0.9297 0.48914 0.5902 0.0
N425 N 0.93144 0.49438 0.62415 0.0
N426 N 0.92413 0.49761 0.62896 0.0
C427 C 0.91763 0.49468 0.59719 0.0
C428 C 0.92098 0.48923 0.57185 0.0
C429 C 0.93608 0.48385 0.57592 0.0
H430 H 0.93833 0.48024 0.60029 0.0
H431 H 0.94373 0.4902 0.56163 0.0
H432 H 0.9313 0.47727 0.55455 0.0
O433 O 0.93428 0.48741 0.70712 0.0
O434 O 0.92173 0.49239 0.71986 0.0
H435 H 0.9021 0.49256 0.61592 0.0
H436 H 0.90368 0.49287 0.56422 0.0
C437 C 0.90801 0.49645 0.59182 0.0
H438 H 0.91095 0.50543 0.59198 0.0
H439 H 0.89972 0.49049 0.70416 0.0
O440 O 0.95369 0.49478 0.64122 0.0
C441 C 0.92628 0.48659 0.72734 0.0
Co442 Co 0.50764 0.44773 0.65516 0.0
Co443 Co 0.49952 0.42279 0.67235 0.0
C444 C 0.48419 0.43187 0.67915 0.0
O445 O 0.49208 0.44126 0.6691 0.0
O446 O 0.4856 0.42355 0.68242 0.0
C447 C 0.50735 0.4678 0.64289 0.0
O448 O 0.49995 0.46402 0.67059 0.0
C449 C 0.48743 0.39876 0.65899 0.0
C450 C 0.4993 0.39399 0.6809 0.0
C451 C 0.48921 0.38987 0.66241 0.0
N452 N 0.4961 0.40772 0.67454 0.0
N453 N 0.50307 0.40476 0.68816 0.0
C454 C 0.47831 0.39907 0.63744 0.0
H455 H 0.48097 0.40762 0.62786 0.0
H456 H 0.47576 0.39345 0.61218 0.0
H457 H 0.47107 0.39624 0.65677 0.0
C458 C 0.51376 0.44223 0.58153 0.0
N459 N 0.50916 0.43924 0.6166 0.0
N460 N 0.50589 0.42876 0.62273 0.0
C461 C 0.50854 0.42479 0.59133 0.0
C462 C 0.51352 0.43321 0.56431 0.0
C463 C 0.5187 0.45368 0.56541 0.0
H464 H 0.52505 0.45962 0.5856 0.0
H465 H 0.51214 0.4559 0.56251 0.0
H466 H 0.52256 0.4544 0.53683 0.0
O467 O 0.51663 0.4488 0.70021 0.0
O468 O 0.51076 0.43116 0.71374 0.0
H469 H 0.51029 0.41141 0.61308 0.0
H470 H 0.5107 0.41247 0.56111 0.0
C471 C 0.50678 0.41336 0.58762 0.0
H472 H 0.49779 0.40736 0.58649 0.0
H473 H 0.51066 0.41021 0.70084 0.0
O474 O 0.51222 0.4625 0.63396 0.0
C475 C 0.51697 0.44145 0.72089 0.0
Co476 Co 0.55426 0.05874 0.65918 0.0
Co477 Co 0.5791 0.07568 0.67674 0.0
C478 C 0.56985 0.05117 0.68473 0.0
O479 O 0.56048 0.04946 0.67357 0.0
O480 O 0.57802 0.06095 0.6884 0.0
C481 C 0.53397 0.03851 0.64789 0.0
O482 O 0.53766 0.03484 0.67568 0.0
C483 C 0.6028 0.08682 0.65932 0.0
C484 C 0.60945 0.10214 0.69369 0.0
C485 C 0.61248 0.09654 0.66793 0.0
N486 N 0.59442 0.08674 0.67871 0.0
N487 N 0.59847 0.0959 0.69935 0.0
C488 C 0.60159 0.07739 0.63524 0.0
H489 H 0.59276 0.07097 0.63222 0.0
H490 H 0.60518 0.08028 0.60627 0.0
H491 H 0.60618 0.07372 0.64903 0.0
C492 C 0.55988 0.06978 0.58462 0.0
N493 N 0.56281 0.06855 0.6203 0.0
N494 N 0.57325 0.07593 0.62649 0.0
C495 C 0.57724 0.08227 0.59446 0.0
C496 C 0.56891 0.07842 0.56679 0.0
C497 C 0.54837 0.06322 0.56896 0.0
H498 H 0.54248 0.0635 0.58969 0.0
H499 H 0.54623 0.05447 0.56547 0.0
H500 H 0.54743 0.06644 0.54091 0.0
O501 O 0.55331 0.06698 0.70329 0.0
O502 O 0.57086 0.079 0.71749 0.0
H503 H 0.59136 0.09665 0.61753 0.0
H504 H 0.58918 0.09742 0.56651 0.0
C505 C 0.58869 0.09189 0.59029 0.0
H506 H 0.59442 0.0888 0.58356 0.0
H507 H 0.59371 0.09793 0.71705 0.0
O508 O 0.53943 0.04865 0.63855 0.0
C509 C 0.56051 0.07484 0.72381 0.0
Co510 Co 0.83142 0.60963 0.50196 0.0
Co511 Co 0.83645 0.59038 0.48672 0.0
C512 C 0.85275 0.61382 0.46641 0.0
O513 O 0.84602 0.61679 0.47783 0.0
O514 O 0.85043 0.60379 0.4682 0.0
C515 C 0.83812 0.62951 0.53895 0.0
O516 O 0.84714 0.62879 0.54038 0.0
C517 C 0.84736 0.57743 0.50336 0.0
C518 C 0.83515 0.56088 0.48183 0.0
C519 C 0.84519 0.56655 0.50101 0.0
N520 N 0.83889 0.57801 0.48721 0.0
N521 N 0.83169 0.5681 0.47404 0.0
C522 C 0.85736 0.58722 0.52001 0.0
H523 H 0.85858 0.59499 0.50722 0.0
H524 H 0.85621 0.58762 0.55145 0.0
H525 H 0.86486 0.58658 0.51499 0.0
C526 C 0.8266 0.59993 0.57943 0.0
N527 N 0.83045 0.60051 0.54347 0.0
N528 N 0.83218 0.59218 0.53766 0.0
C529 C 0.82925 0.58591 0.56999 0.0
C530 C 0.82584 0.59077 0.59755 0.0
C531 C 0.82237 0.60716 0.59465 0.0
H532 H 0.81733 0.60829 0.57236 0.0
H533 H 0.82948 0.61535 0.60218 0.0
H534 H 0.81723 0.60362 0.62082 0.0
O535 O 0.82018 0.60072 0.46297 0.0
O536 O 0.82413 0.58744 0.44971 0.0
H537 H 0.82462 0.56985 0.54795 0.0
H538 H 0.82428 0.57054 0.59992 0.0
C539 C 0.82877 0.57501 0.57354 0.0
H540 H 0.83728 0.57638 0.57501 0.0
H541 H 0.82426 0.56621 0.46062 0.0
O542 O 0.82964 0.62191 0.52201 0.0
C543 C 0.81838 0.59214 0.44407 0.0
Co544 Co 0.39075 0.22166 0.50997 0.0
Co545 Co 0.40878 0.24634 0.49401 0.0
C546 C 0.38445 0.23808 0.48368 0.0
O547 O 0.38208 0.22854 0.4952 0.0
O548 O 0.39443 0.24588 0.48055 0.0
C549 C 0.37006 0.20172 0.51946 0.0
O550 O 0.36686 0.20568 0.49105 0.0
C551 C 0.42098 0.27026 0.51122 0.0
C552 C 0.43713 0.27546 0.48407 0.0
C553 C 0.43154 0.2794 0.50607 0.0
N554 N 0.42055 0.26145 0.49368 0.0
N555 N 0.43021 0.26465 0.47727 0.0
C556 C 0.41133 0.26979 0.53173 0.0
H557 H 0.40351 0.26243 0.52283 0.0
H558 H 0.41225 0.26915 0.56318 0.0
H559 H 0.41086 0.27735 0.52577 0.0
C560 C 0.40208 0.22635 0.58413 0.0
N561 N 0.40064 0.22974 0.54951 0.0
N562 N 0.40842 0.24005 0.54367 0.0
C563 C 0.41522 0.24348 0.57468 0.0
C564 C 0.41138 0.23488 0.60118 0.0
C565 C 0.39477 0.21502 0.60018 0.0
H566 H 0.39537 0.20885 0.58181 0.0
H567 H 0.38607 0.21319 0.59976 0.0
H568 H 0.39701 0.21425 0.6302 0.0
O569 O 0.39892 0.22049 0.46561 0.0
O570 O 0.41188 0.23789 0.45378 0.0
H571 H 0.43054 0.25586 0.55033 0.0
H572 H 0.43088 0.25442 0.60204 0.0
C573 C 0.42576 0.2543 0.57737 0.0
H574 H 0.42383 0.26102 0.58126 0.0
H575 H 0.43215 0.2594 0.46208 0.0
O576 O 0.38012 0.20687 0.52986 0.0
C577 C 0.4072 0.22757 0.44619 0.0
Co578 Co 0.77961 0.17093 0.50569 0.0
Co579 Co 0.75487 0.16371 0.48969 0.0
C580 C 0.7636 0.14786 0.48275 0.0
O581 O 0.77315 0.15528 0.49327 0.0
O582 O 0.75569 0.14986 0.47907 0.0
C583 C 0.80011 0.17131 0.51411 0.0
O584 O 0.79632 0.16413 0.48573 0.0
C585 C 0.73144 0.1517 0.51141 0.0
C586 C 0.72429 0.15943 0.47461 0.0
C587 C 0.72162 0.1515 0.50295 0.0
N588 N 0.73954 0.15949 0.48949 0.0
N589 N 0.7352 0.16405 0.46746 0.0
C590 C 0.73303 0.14419 0.53812 0.0
H591 H 0.74081 0.14424 0.53155 0.0
H592 H 0.7335 0.147 0.56823 0.0
H593 H 0.72591 0.13564 0.53597 0.0
C594 C 0.77468 0.17723 0.58019 0.0
N595 N 0.77147 0.17273 0.54503 0.0
N596 N 0.76122 0.17034 0.53866 0.0
C597 C 0.75776 0.17374 0.56953 0.0
C598 C 0.76613 0.178 0.59695 0.0
C599 C 0.78601 0.18136 0.59641 0.0
H600 H 0.79216 0.18803 0.57765 0.0
H601 H 0.78789 0.17452 0.5967 0.0
H602 H 0.7868 0.18463 0.62605 0.0
O603 O 0.78031 0.17966 0.45991 0.0
O604 O 0.76282 0.17477 0.44759 0.0
H605 H 0.74449 0.17492 0.54291 0.0
H606 H 0.74783 0.18038 0.59139 0.0
C607 C 0.74707 0.17374 0.57187 0.0
H608 H 0.74059 0.16573 0.58372 0.0
H609 H 0.73969 0.17036 0.44766 0.0
O610 O 0.7946 0.1758 0.52503 0.0
C611 C 0.77313 0.18048 0.43975 0.0
Co612 Co 0.39398 0.17429 0.01571 0.0
Co613 Co 0.41069 0.16615 0.99628 0.0
C614 C 0.38615 0.1512 0.98806 0.0
O615 O 0.38468 0.15898 0.99969 0.0
O616 O 0.39586 0.15259 0.98447 0.0
C617 C 0.37401 0.17478 0.02569 0.0
O618 O 0.37083 0.16835 0.99522 0.0
C619 C 0.42239 0.15368 0.00987 0.0
C620 C 0.43874 0.16495 0.98457 0.0
C621 C 0.43297 0.15515 0.00507 0.0
N622 N 0.42212 0.16233 0.9938 0.0
N623 N 0.43189 0.16894 0.97834 0.0
C624 C 0.41259 0.14419 0.02865 0.0
H625 H 0.40481 0.14334 0.01733 0.0
H626 H 0.41283 0.14569 0.06008 0.0
H627 H 0.41262 0.13636 0.02365 0.0
C628 C 0.40529 0.17939 0.08972 0.0
N629 N 0.40374 0.17516 0.05406 0.0
N630 N 0.41109 0.17214 0.04675 0.0
C631 C 0.41781 0.17469 0.07784 0.0
C632 C 0.41421 0.17923 0.10605 0.0
C633 C 0.39873 0.18414 0.1069 0.0
H634 H 0.39933 0.19082 0.08799 0.0
H635 H 0.38991 0.1776 0.10859 0.0
H636 H 0.40168 0.18755 0.13613 0.0
O637 O 0.40222 0.18374 0.97196 0.0
O638 O 0.4138 0.17779 0.95604 0.0
H639 H 0.4328 0.17678 0.05339 0.0
H640 H 0.43299 0.17783 0.10537 0.0
C641 C 0.42782 0.17346 0.07996 0.0
H642 H 0.42521 0.16457 0.08226 0.0
H643 H 0.43398 0.17638 0.96456 0.0
O644 O 0.38389 0.17888 0.03751 0.0
C645 C 0.40985 0.18419 0.95061 0.0
Co646 Co 0.83113 0.22361 0.00584 0.0
Co647 Co 0.83609 0.24773 0.9894 0.0
C648 C 0.85321 0.24112 0.97691 0.0
O649 O 0.84636 0.23136 0.9873 0.0
O650 O 0.85061 0.24864 0.97608 0.0
C651 C 0.83718 0.2108 0.04755 0.0
O652 O 0.84552 0.22083 0.05321 0.0
C653 C 0.84643 0.27106 0.0099 0.0
C654 C 0.83766 0.27716 0.97339 0.0
C655 C 0.84584 0.28045 0.00118 0.0
N656 N 0.83886 0.2626 0.98869 0.0
N657 N 0.83365 0.26629 0.96685 0.0
C658 C 0.85457 0.27029 0.03592 0.0
H659 H 0.85433 0.2623 0.03203 0.0
H660 H 0.85259 0.27091 0.06638 0.0
H661 H 0.86302 0.27726 0.03011 0.0
C662 C 0.82414 0.22788 0.08065 0.0
N663 N 0.82882 0.23136 0.04578 0.0
N664 N 0.83047 0.24136 0.03927 0.0
C665 C 0.82659 0.24443 0.06988 0.0
C666 C 0.82271 0.23606 0.09724 0.0
C667 C 0.81992 0.21645 0.09617 0.0
H668 H 0.8157 0.21027 0.07306 0.0
H669 H 0.82699 0.21571 0.10699 0.0
H670 H 0.81405 0.2146 0.1203 0.0
O671 O 0.82103 0.2214 0.96249 0.0
O672 O 0.82478 0.23856 0.94927 0.0
H673 H 0.82343 0.25638 0.04272 0.0
H674 H 0.81904 0.25348 0.09246 0.0
C675 C 0.82551 0.25455 0.07155 0.0
H676 H 0.83346 0.26166 0.08107 0.0
H677 H 0.82738 0.26141 0.94744 0.0
O678 O 0.82919 0.20955 0.02642 0.0
C679 C 0.81947 0.22816 0.94243 0.0
Co680 Co 0.78069 0.60878 0.01357 0.0
Co681 Co 0.75619 0.59189 0.99146 0.0
C682 C 0.76445 0.61603 0.99017 0.0
O683 O 0.77376 0.61759 0.00122 0.0
O684 O 0.75644 0.60632 0.98429 0.0
C685 C 0.79192 0.62361 0.06912 0.0
O686 O 0.78145 0.61967 0.07778 0.0
C687 C 0.73248 0.58019 0.00461 0.0
C688 C 0.72649 0.56472 0.97155 0.0
C689 C 0.72305 0.57023 0.99616 0.0
N690 N 0.74111 0.58048 0.98636 0.0
N691 N 0.73747 0.57126 0.96633 0.0
C692 C 0.73337 0.58963 0.02786 0.0
H693 H 0.74099 0.59328 0.04564 0.0
H694 H 0.72604 0.58716 0.04629 0.0
H695 H 0.73412 0.59616 0.00784 0.0
C696 C 0.77509 0.59402 0.08042 0.0
N697 N 0.77218 0.59714 0.04788 0.0
N698 N 0.7616 0.59045 0.04107 0.0
C699 C 0.75737 0.58307 0.07041 0.0
C700 C 0.76582 0.58515 0.09612 0.0
C701 C 0.78664 0.59925 0.0959 0.0
H702 H 0.79275 0.60312 0.07238 0.0
H703 H 0.78785 0.60559 0.11755 0.0
H704 H 0.78816 0.59307 0.11046 0.0
O705 O 0.78296 0.60252 0.96612 0.0
O706 O 0.76555 0.59035 0.94998 0.0
H707 H 0.74329 0.56915 0.0453 0.0
H708 H 0.7447 0.56797 0.09656 0.0
C709 C 0.74571 0.57374 0.0729 0.0
H710 H 0.74014 0.5771 0.07839 0.0
H711 H 0.74251 0.56933 0.94978 0.0
O712 O 0.79439 0.61986 0.03966 0.0
C713 C 0.77598 0.59505 0.94368 0.0
Co714 Co 0.50472 0.0602 0.16127 0.0
Co715 Co 0.49886 0.07877 0.17752 0.0
C716 C 0.48232 0.05517 0.19089 0.0
O717 O 0.48952 0.05264 0.18114 0.0
O718 O 0.48442 0.06515 0.19063 0.0
C719 C 0.4987 0.04123 0.11988 0.0
O720 O 0.49015 0.04263 0.115 0.0
C721 C 0.48808 0.09187 0.16422 0.0
C722 C 0.50085 0.10852 0.1832 0.0
C723 C 0.49047 0.10277 0.16643 0.0
N724 N 0.49665 0.09123 0.17887 0.0
N725 N 0.50419 0.10118 0.19072 0.0
C726 C 0.47845 0.08249 0.14443 0.0
H727 H 0.48066 0.0763 0.13431 0.0
H728 H 0.47566 0.08552 0.11969 0.0
H729 H 0.4715 0.07841 0.16514 0.0
C730 C 0.51165 0.0716 0.08707 0.0
N731 N 0.5067 0.07013 0.12151 0.0
N732 N 0.50422 0.07796 0.12721 0.0
C733 C 0.50744 0.08461 0.09584 0.0
C734 C 0.51225 0.08077 0.0696 0.0
C735 C 0.51625 0.06467 0.07203 0.0
H736 H 0.52079 0.06316 0.09523 0.0
H737 H 0.50934 0.05661 0.06227 0.0
H738 H 0.52186 0.06859 0.04721 0.0
O739 O 0.51521 0.0684 0.20282 0.0
O740 O 0.51033 0.08095 0.21738 0.0
H741 H 0.51114 0.10048 0.11695 0.0
H742 H 0.51072 0.09942 0.06505 0.0
C743 C 0.50685 0.09497 0.09221 0.0
H744 H 0.49808 0.09287 0.09262 0.0
H745 H 0.51181 0.10305 0.20241 0.0
O746 O 0.50676 0.04817 0.1403 0.0
C747 C 0.51628 0.07649 0.22311 0.0
Co748 Co 0.94378 0.44663 0.15692 0.0
Co749 Co 0.92572 0.42247 0.17798 0.0
C750 C 0.95018 0.43035 0.18297 0.0
O751 O 0.95256 0.43983 0.17062 0.0
O752 O 0.94018 0.42278 0.18825 0.0
C753 C 0.96425 0.46649 0.14507 0.0
O754 O 0.9675 0.46295 0.1746 0.0
C755 C 0.91322 0.39896 0.15883 0.0
C756 C 0.89881 0.39261 0.19768 0.0
C757 C 0.90344 0.38946 0.16853 0.0
N758 N 0.91422 0.40735 0.18075 0.0
N759 N 0.9056 0.40348 0.20408 0.0
C760 C 0.92181 0.39998 0.13069 0.0
H761 H 0.9299 0.4074 0.13699 0.0
H762 H 0.91936 0.40083 0.10112 0.0
H763 H 0.9226 0.39246 0.13155 0.0
C764 C 0.93177 0.44099 0.08398 0.0
N765 N 0.93336 0.43814 0.11934 0.0
N766 N 0.92521 0.42822 0.12804 0.0
C767 C 0.91784 0.42466 0.09862 0.0
C768 C 0.92193 0.43256 0.06959 0.0
C769 C 0.93911 0.45199 0.06569 0.0
H770 H 0.9477 0.45353 0.06464 0.0
H771 H 0.93639 0.45247 0.0361 0.0
H772 H 0.93907 0.45856 0.08351 0.0
O773 O 0.93631 0.44846 0.20236 0.0
O774 O 0.92344 0.43136 0.21855 0.0
H775 H 0.90349 0.41259 0.12942 0.0
H776 H 0.90074 0.41562 0.08133 0.0
C777 C 0.90665 0.41451 0.09951 0.0
H778 H 0.9072 0.40742 0.08779 0.0
H779 H 0.9043 0.4083 0.22407 0.0
O780 O 0.9542 0.46112 0.13467 0.0
C781 C 0.92839 0.4418 0.22405 0.0
Co782 Co 0.55595 0.49636 0.15225 0.0
Co783 Co 0.5806 0.50396 0.17189 0.0
C784 C 0.57141 0.51944 0.17724 0.0
O785 O 0.56209 0.51188 0.16542 0.0
O786 O 0.57944 0.51766 0.18216 0.0
C787 C 0.53542 0.49565 0.14262 0.0
O788 O 0.53873 0.50215 0.17295 0.0
C789 C 0.60421 0.51604 0.15295 0.0
C790 C 0.611 0.50826 0.19121 0.0
C791 C 0.61393 0.51618 0.16263 0.0
N792 N 0.59593 0.5083 0.17437 0.0
N793 N 0.60006 0.50372 0.19732 0.0
C794 C 0.60287 0.52354 0.12539 0.0
H795 H 0.5952 0.52374 0.13163 0.0
H796 H 0.6023 0.52049 0.09557 0.0
H797 H 0.61013 0.53201 0.12702 0.0
C798 C 0.56181 0.49021 0.07936 0.0
N799 N 0.56465 0.49486 0.1144 0.0
N800 N 0.57487 0.49742 0.12229 0.0
C801 C 0.5787 0.49398 0.09258 0.0
C802 C 0.57058 0.48951 0.06431 0.0
C803 C 0.5506 0.48582 0.06176 0.0
H804 H 0.54435 0.47914 0.08026 0.0
H805 H 0.54855 0.49253 0.06034 0.0
H806 H 0.55015 0.48251 0.03238 0.0
O807 O 0.55482 0.48747 0.19809 0.0
O808 O 0.57227 0.4927 0.21287 0.0
H809 H 0.59151 0.49268 0.12219 0.0
H810 H 0.58878 0.48721 0.07366 0.0
C811 C 0.58935 0.49388 0.09257 0.0
H812 H 0.59603 0.50186 0.08128 0.0
H813 H 0.59538 0.49741 0.21689 0.0
O814 O 0.54121 0.49157 0.13073 0.0
C815 C 0.5619 0.48677 0.21933 0.0
Co816 Co 0.60958 0.82904 0.98941 0.0
Co817 Co 0.59187 0.83596 0.00745 0.0
C818 C 0.61632 0.85178 0.01687 0.0
O819 O 0.61843 0.84449 0.00461 0.0
O820 O 0.60638 0.84974 0.02076 0.0
C821 C 0.63 0.82934 0.97984 0.0
O822 O 0.63314 0.83612 0.00937 0.0
C823 C 0.57971 0.84783 0.99211 0.0
C824 C 0.56336 0.83638 0.01706 0.0
C825 C 0.56903 0.84613 0.99626 0.0
N826 N 0.58015 0.83935 0.00882 0.0
N827 N 0.57038 0.83262 0.02406 0.0
C828 C 0.58945 0.85738 0.97331 0.0
H829 H 0.59727 0.85839 0.98494 0.0
H830 H 0.58931 0.85582 0.94195 0.0
H831 H 0.58925 0.86514 0.97789 0.0
C832 C 0.59854 0.82352 0.91462 0.0
N833 N 0.59975 0.82765 0.95035 0.0
N834 N 0.59202 0.83019 0.95716 0.0
C835 C 0.58538 0.82738 0.92577 0.0
C836 C 0.58944 0.82322 0.89779 0.0
C837 C 0.60558 0.81926 0.89791 0.0
H838 H 0.61429 0.82607 0.89684 0.0
H839 H 0.60289 0.81588 0.8685 0.0
H840 H 0.60517 0.81266 0.91679 0.0
O841 O 0.6015 0.81963 0.03376 0.0
O842 O 0.58883 0.82433 0.04725 0.0
H843 H 0.57008 0.82463 0.94967 0.0
H844 H 0.57002 0.82343 0.89776 0.0
C845 C 0.57505 0.82804 0.92312 0.0
H846 H 0.57725 0.8368 0.92033 0.0
H847 H 0.5684 0.82527 0.03825 0.0
O848 O 0.62003 0.8248 0.96857 0.0
C849 C 0.59341 0.81856 0.05401 0.0
Co850 Co 0.17503 0.78082 0.98285 0.0
Co851 Co 0.16638 0.75582 0.00039 0.0
C852 C 0.15165 0.76578 0.00706 0.0
O853 O 0.15957 0.77503 0.99624 0.0
O854 O 0.15293 0.7574 0.01086 0.0
C855 C 0.17623 0.80162 0.97483 0.0
O856 O 0.16976 0.79828 0.00522 0.0
C857 C 0.15354 0.73212 0.98186 0.0
C858 C 0.16115 0.72506 0.01964 0.0
C859 C 0.15304 0.72225 0.99189 0.0
N860 N 0.16164 0.74036 0.00239 0.0
N861 N 0.16614 0.73607 0.02499 0.0
C862 C 0.14597 0.73363 0.95519 0.0
H863 H 0.14674 0.74185 0.95933 0.0
H864 H 0.1481 0.73302 0.92492 0.0
H865 H 0.13729 0.727 0.96007 0.0
C866 C 0.18108 0.77514 0.90962 0.0
N867 N 0.17629 0.77215 0.94439 0.0
N868 N 0.17307 0.76169 0.9509 0.0
C869 C 0.17605 0.75777 0.92019 0.0
C870 C 0.18115 0.76618 0.89314 0.0
C871 C 0.18559 0.78645 0.89269 0.0
H872 H 0.19254 0.79252 0.91074 0.0
H873 H 0.17904 0.78873 0.89275 0.0
H874 H 0.18853 0.7869 0.86273 0.0
O875 O 0.1837 0.78142 0.02828 0.0
O876 O 0.1777 0.76376 0.04207 0.0
H877 H 0.17623 0.74399 0.94689 0.0
H878 H 0.18128 0.74672 0.8978 0.0
C879 C 0.17508 0.74662 0.91801 0.0
H880 H 0.16676 0.74055 0.90719 0.0
H881 H 0.17264 0.74067 0.044 0.0
O882 O 0.18017 0.79576 0.96242 0.0
C883 C 0.18398 0.77405 0.0491 0.0
Co884 Co 0.22313 0.39343 0.98941 0.0
Co885 Co 0.24782 0.41104 0.00809 0.0
C886 C 0.23951 0.38717 0.02042 0.0
O887 O 0.23005 0.38515 0.00917 0.0
O888 O 0.24765 0.39699 0.02177 0.0
C889 C 0.21193 0.37687 0.93921 0.0
O890 O 0.22239 0.38004 0.93314 0.0
C891 C 0.27215 0.42348 0.00072 0.0
C892 C 0.27584 0.44058 0.01138 0.0
C893 C 0.28068 0.43445 1.00015 0.0
N894 N 0.2627 0.42325 0.01057 0.0
N895 N 0.26502 0.43348 0.01755 0.0
C896 C 0.27291 0.41333 0.99304 0.0
H897 H 0.26792 0.40687 0.01442 0.0
H898 H 0.26954 0.41009 0.96399 0.0
H899 H 0.28154 0.41504 0.99506 0.0
C900 C 0.22879 0.40535 0.91604 0.0
N901 N 0.23169 0.40366 0.95118 0.0
N902 N 0.24226 0.41064 0.95698 0.0
C903 C 0.24648 0.41678 0.92462 0.0
C904 C 0.23804 0.41349 0.89768 0.0
C905 C 0.21715 0.40017 0.90146 0.0
H906 H 0.21123 0.39764 0.92572 0.0
H907 H 0.21529 0.39286 0.88362 0.0
H908 H 0.2161 0.40606 0.88291 0.0
O909 O 0.2208 0.40144 0.03137 0.0
O910 O 0.23835 0.41349 0.04675 0.0
H911 H 0.26022 0.43247 0.93967 0.0
H912 H 0.25988 0.42886 0.88957 0.0
C913 C 0.25826 0.4256 0.91944 0.0
H914 H 0.26374 0.42221 0.92613 0.0
H915 H 0.25913 0.43568 0.02494 0.0
O916 O 0.20947 0.38171 0.96515 0.0
C917 C 0.22794 0.40934 0.05207 0.0
Co918 Co 0.49807 0.94108 0.84097 0.0
Co919 Co 0.50339 0.92225 0.82254 0.0
C920 C 0.52012 0.94579 0.8091 0.0
O921 O 0.51313 0.94848 0.82004 0.0
O922 O 0.51782 0.93575 0.80864 0.0
C923 C 0.50451 0.96006 0.88309 0.0
O924 O 0.51307 0.95863 0.88692 0.0
C925 C 0.51394 0.90891 0.83419 0.0
C926 C 0.50101 0.89235 0.81503 0.0
C927 C 0.51143 0.89799 0.83153 0.0
N928 N 0.5054 0.90968 0.82005 0.0
N929 N 0.49776 0.89979 0.80806 0.0
C930 C 0.52366 0.91819 0.85406 0.0
H931 H 0.52157 0.92444 0.86438 0.0
H932 H 0.52638 0.91505 0.87866 0.0
H933 H 0.53061 0.92222 0.83334 0.0
C934 C 0.49149 0.92959 0.91509 0.0
N935 N 0.49617 0.93102 0.88016 0.0
N936 N 0.4984 0.92307 0.8735 0.0
C937 C 0.49526 0.91634 0.90468 0.0
C938 C 0.49081 0.9203 0.93186 0.0
C939 C 0.48712 0.93661 0.93121 0.0
H940 H 0.48251 0.93825 0.90867 0.0
H941 H 0.49416 0.9446 0.94087 0.0
H942 H 0.48163 0.93267 0.95631 0.0
O943 O 0.48731 0.93308 0.79979 0.0
O944 O 0.49177 0.92032 0.78384 0.0
H945 H 0.49117 0.90047 0.88237 0.0
H946 H 0.49169 0.90128 0.93434 0.0
C947 C 0.49558 0.90582 0.90733 0.0
H948 H 0.50428 0.90772 0.90657 0.0
H949 H 0.49013 0.89802 0.79673 0.0
O950 O 0.49632 0.95317 0.86304 0.0
C951 C 0.48597 0.92498 0.77901 0.0
Co952 Co 0.06022 0.55374 0.84407 0.0
Co953 Co 0.07612 0.5787 0.82508 0.0
C954 C 0.05132 0.56838 0.82074 0.0
O955 O 0.05026 0.55919 0.83092 0.0
O956 O 0.06088 0.5769 0.81668 0.0
C957 C 0.04092 0.53277 0.85411 0.0
O958 O 0.03734 0.53589 0.82437 0.0
C959 C 0.08692 0.60239 0.84366 0.0
C960 C 0.10143 0.60953 0.80509 0.0
C961 C 0.09628 0.61227 0.83362 0.0
N962 N 0.08667 0.59419 0.82244 0.0
N963 N 0.09534 0.59854 0.79932 0.0
C964 C 0.07802 0.60081 0.87128 0.0
H965 H 0.07031 0.59291 0.86559 0.0
H966 H 0.08065 0.60055 0.90115 0.0
H967 H 0.07642 0.60782 0.86914 0.0
C968 C 0.07207 0.55995 0.91712 0.0
N969 N 0.07016 0.56267 0.88202 0.0
N970 N 0.07742 0.57307 0.87452 0.0
C971 C 0.08452 0.57716 0.90469 0.0
C972 C 0.08118 0.569 0.93274 0.0
C973 C 0.06563 0.54865 0.93444 0.0
H974 H 0.05676 0.54622 0.9358 0.0
H975 H 0.06855 0.5483 0.96382 0.0
H976 H 0.06642 0.54263 0.91581 0.0
O977 O 0.06826 0.55311 0.79866 0.0
O978 O 0.07934 0.57075 0.7828 0.0
H979 H 0.09819 0.59083 0.87627 0.0
H980 H 0.10115 0.58801 0.92437 0.0
C981 C 0.09481 0.58823 0.90568 0.0
H982 H 0.09288 0.5944 0.91787 0.0
H983 H 0.09717 0.59399 0.77984 0.0
O984 O 0.05082 0.53885 0.86533 0.0
C985 C 0.0756 0.56044 0.77684 0.0
Co986 Co 0.44771 0.5069 0.84736 0.0
Co987 Co 0.42288 0.49836 0.82735 0.0
C988 C 0.43235 0.48344 0.82149 0.0
O989 O 0.44159 0.49146 0.83207 0.0
O990 O 0.42388 0.48458 0.81794 0.0
C991 C 0.46803 0.50722 0.8584 0.0
O992 O 0.46483 0.50082 0.82785 0.0
C993 C 0.39884 0.48638 0.83986 0.0
C994 C 0.39412 0.49799 0.81491 0.0
C995 C 0.38998 0.48817 0.83523 0.0
N996 N 0.4078 0.49481 0.82333 0.0
N997 N 0.40487 0.5016 0.80782 0.0
C998 C 0.39914 0.47759 0.86354 0.0
H999 H 0.40774 0.48022 0.87238 0.0
H1000 H 0.3938 0.47568 0.88937 0.0
H1001 H 0.39592 0.46995 0.84605 0.0
C1002 C 0.44152 0.51282 0.91978 0.0
N1003 N 0.4388 0.50808 0.88488 0.0
N1004 N 0.42834 0.50471 0.87758 0.0
C1005 C 0.4241 0.50737 0.90818 0.0
C1006 C 0.43235 0.5126 0.93568 0.0
C1007 C 0.45277 0.51753 0.93739 0.0
H1008 H 0.45891 0.52427 0.91881 0.0
H1009 H 0.45504 0.51098 0.93898 0.0
H1010 H 0.45312 0.52078 0.9668 0.0
O1011 O 0.4491 0.5163 0.80339 0.0
O1012 O 0.43152 0.50968 0.78638 0.0
H1013 H 0.41081 0.50878 0.8835 0.0
H1014 H 0.41173 0.51009 0.93536 0.0
C1015 C 0.41268 0.50571 0.91026 0.0
H1016 H 0.40665 0.49677 0.9131 0.0
H1017 H 0.41034 0.50901 0.79417 0.0
O1018 O 0.46229 0.51141 0.86984 0.0
C1019 C 0.44184 0.51634 0.78136 0.0
Co1020 Co 0.06013 0.50345 0.33891 0.0
Co1021 Co 0.07881 0.49776 0.3225 0.0
C1022 C 0.05493 0.48103 0.31084 0.0
O1023 O 0.05238 0.48812 0.32158 0.0
O1024 O 0.06498 0.4834 0.30905 0.0
C1025 C 0.04162 0.49774 0.38165 0.0
O1026 O 0.04355 0.48959 0.38808 0.0
C1027 C 0.09142 0.48692 0.34289 0.0
C1028 C 0.10634 0.49554 0.30659 0.0
C1029 C 0.10131 0.48732 0.33417 0.0
N1030 N 0.0907 0.49463 0.32187 0.0
N1031 N 0.09965 0.49975 0.30016 0.0
C1032 C 0.08241 0.47885 0.36879 0.0
H1033 H 0.07463 0.47894 0.36378 0.0
H1034 H 0.08482 0.48107 0.39929 0.0
H1035 H 0.08107 0.47041 0.36406 0.0
C1036 C 0.07196 0.51114 0.41218 0.0
N1037 N 0.07033 0.50586 0.37831 0.0
N1038 N 0.07834 0.50367 0.37228 0.0
C1039 C 0.08542 0.50763 0.40251 0.0
C1040 C 0.08151 0.51237 0.42874 0.0
C1041 C 0.06486 0.51553 0.42736 0.0
H1042 H 0.063 0.51977 0.40402 0.0
H1043 H 0.05699 0.50854 0.43809 0.0
H1044 H 0.06882 0.52137 0.45158 0.0
O1045 O 0.06802 0.51328 0.29502 0.0
O1046 O 0.0812 0.50915 0.2822 0.0
H1047 H 0.10034 0.51021 0.3754 0.0
H1048 H 0.10198 0.5146 0.42516 0.0
C1049 C 0.09641 0.50824 0.40423 0.0
H1050 H 0.09525 0.50015 0.4136 0.0
H1051 H 0.10117 0.5061 0.28093 0.0
O1052 O 0.04815 0.50562 0.35972 0.0
C1053 C 0.0763 0.51463 0.27511 0.0
Co1054 Co 0.49795 0.55506 0.33864 0.0
Co1055 Co 0.50322 0.5794 0.32408 0.0
C1056 C 0.51998 0.57257 0.30831 0.0
O1057 O 0.51316 0.56282 0.31919 0.0
O1058 O 0.51749 0.58019 0.30811 0.0
C1059 C 0.50115 0.53642 0.35028 0.0
O1060 O 0.50895 0.54117 0.32417 0.0
C1061 C 0.51397 0.60336 0.33717 0.0
C1062 C 0.50051 0.60674 0.32339 0.0
C1063 C 0.51124 0.61164 0.3372 0.0
N1064 N 0.50523 0.59399 0.32414 0.0
N1065 N 0.49728 0.59612 0.31534 0.0
C1066 C 0.52416 0.60394 0.35355 0.0
H1067 H 0.52241 0.59563 0.36295 0.0
H1068 H 0.52733 0.60976 0.37822 0.0
H1069 H 0.53064 0.60698 0.33098 0.0
C1070 C 0.49268 0.55956 0.41552 0.0
N1071 N 0.49642 0.56291 0.37959 0.0
N1072 N 0.49858 0.57314 0.37467 0.0
C1073 C 0.49623 0.57662 0.4079 0.0
C1074 C 0.49252 0.56813 0.43488 0.0
C1075 C 0.48834 0.54797 0.42962 0.0
H1076 H 0.48258 0.54207 0.40796 0.0
H1077 H 0.49534 0.54642 0.43324 0.0
H1078 H 0.48387 0.54642 0.45734 0.0
O1079 O 0.48737 0.55301 0.29789 0.0
O1080 O 0.49128 0.57024 0.28562 0.0
H1081 H 0.49252 0.58919 0.39181 0.0
H1082 H 0.4947 0.58863 0.44291 0.0
C1083 C 0.49744 0.58778 0.41378 0.0
H1084 H 0.50623 0.59419 0.41021 0.0
H1085 H 0.48947 0.5902 0.30551 0.0
O1086 O 0.49517 0.54063 0.35838 0.0
C1087 C 0.48565 0.55985 0.27914 0.0
Co1088 Co 0.44831 0.94346 0.33898 0.0
Co1089 Co 0.42364 0.92558 0.32289 0.0
C1090 C 0.43157 0.94962 0.31247 0.0
O1091 O 0.44111 0.95176 0.32326 0.0
O1092 O 0.42359 0.93969 0.3098 0.0
C1093 C 0.46767 0.96459 0.35053 0.0
O1094 O 0.46347 0.96788 0.32321 0.0
C1095 C 0.39952 0.9128 0.33519 0.0
C1096 C 0.39584 0.89596 0.31966 0.0
C1097 C 0.3911 0.90184 0.33437 0.0
N1098 N 0.40883 0.91334 0.32183 0.0
N1099 N 0.40651 0.90327 0.31196 0.0
C1100 C 0.3991 0.92238 0.35256 0.0
H1101 H 0.40745 0.92883 0.36206 0.0
H1102 H 0.3933 0.91965 0.37732 0.0
H1103 H 0.39609 0.92601 0.33054 0.0
C1104 C 0.44336 0.93287 0.41434 0.0
N1105 N 0.44021 0.9337 0.37856 0.0
N1106 N 0.42976 0.92622 0.37338 0.0
C1107 C 0.42592 0.92034 0.40642 0.0
C1108 C 0.43442 0.92448 0.43348 0.0
C1109 C 0.45497 0.93956 0.42892 0.0
H1110 H 0.4608 0.93972 0.40689 0.0
H1111 H 0.45687 0.94817 0.43414 0.0
H1112 H 0.45627 0.93613 0.45593 0.0
O1113 O 0.44986 0.9353 0.29598 0.0
O1114 O 0.43242 0.92273 0.28278 0.0
H1115 H 0.41224 0.90471 0.39002 0.0
H1116 H 0.41322 0.90732 0.44127 0.0
C1117 C 0.41434 0.91112 0.41237 0.0
H1118 H 0.40857 0.91435 0.4095 0.0
H1119 H 0.41234 0.90131 0.30171 0.0
O1120 O 0.4629 0.95441 0.35937 0.0
C1121 C 0.44278 0.92717 0.27615 0.0
Co1122 Co 0.17467 0.39297 0.4935 0.0
Co1123 Co 0.16628 0.40963 0.50964 0.0
C1124 C 0.15156 0.38523 0.52118 0.0
O1125 O 0.15935 0.38368 0.5103 0.0
O1126 O 0.15286 0.39493 0.52316 0.0
C1127 C 0.17489 0.37275 0.48503 0.0
O1128 O 0.16824 0.36962 0.51491 0.0
C1129 C 0.15359 0.42062 0.49151 0.0
C1130 C 0.1626 0.43631 0.52371 0.0
C1131 C 0.15381 0.43051 0.49878 0.0
N1132 N 0.16195 0.42065 0.51085 0.0
N1133 N 0.16726 0.43002 0.53025 0.0
C1134 C 0.14519 0.41099 0.46859 0.0
H1135 H 0.14776 0.4047 0.46506 0.0
H1136 H 0.14399 0.41367 0.43988 0.0
H1137 H 0.13713 0.40723 0.4838 0.0
C1138 C 0.17929 0.40324 0.41765 0.0
N1139 N 0.17532 0.40224 0.45353 0.0
N1140 N 0.1721 0.40952 0.45914 0.0
C1141 C 0.17417 0.41558 0.42649 0.0
C1142 C 0.17861 0.41162 0.39908 0.0
C1143 C 0.1844 0.39677 0.40253 0.0
H1144 H 0.19066 0.39727 0.4233 0.0
H1145 H 0.17789 0.38796 0.39956 0.0
H1146 H 0.18848 0.39989 0.37429 0.0
O1147 O 0.18438 0.40194 0.53571 0.0
O1148 O 0.17814 0.41343 0.54966 0.0
H1149 H 0.1744 0.43007 0.44822 0.0
H1150 H 0.17694 0.43038 0.39702 0.0
C1151 C 0.17214 0.42505 0.42155 0.0
H1152 H 0.16326 0.42179 0.41557 0.0
H1153 H 0.17417 0.43221 0.5475 0.0
O1154 O 0.17923 0.38267 0.47336 0.0
C1155 C 0.18478 0.40978 0.55564 0.0
Co1156 Co 0.60981 0.77923 0.48946 0.0
Co1157 Co 0.5916 0.75475 0.50759 0.0
C1158 C 0.61595 0.76292 0.51808 0.0
O1159 O 0.61842 0.77241 0.50556 0.0
O1160 O 0.60592 0.75522 0.52157 0.0
C1161 C 0.63056 0.799 0.47731 0.0
O1162 O 0.63407 0.79505 0.50477 0.0
C1163 C 0.57931 0.73079 0.49172 0.0
C1164 C 0.56311 0.7258 0.51815 0.0
C1165 C 0.56869 0.72176 0.49661 0.0
N1166 N 0.57979 0.73968 0.50884 0.0
N1167 N 0.57011 0.7366 0.52489 0.0
C1168 C 0.58896 0.73106 0.47189 0.0
H1169 H 0.59683 0.73804 0.48241 0.0
H1170 H 0.58846 0.73223 0.44052 0.0
H1171 H 0.58896 0.72321 0.47669 0.0
C1172 C 0.59884 0.77379 0.41444 0.0
N1173 N 0.59996 0.77083 0.45023 0.0
N1174 N 0.59199 0.76068 0.45726 0.0
C1175 C 0.58528 0.757 0.42605 0.0
C1176 C 0.58953 0.76515 0.39787 0.0
C1177 C 0.60607 0.78503 0.39758 0.0
H1178 H 0.61476 0.78683 0.39718 0.0
H1179 H 0.60355 0.78571 0.36788 0.0
H1180 H 0.60566 0.79131 0.41597 0.0
O1181 O 0.6017 0.78075 0.5335 0.0
O1182 O 0.58866 0.76349 0.5469 0.0
H1183 H 0.5699 0.7449 0.45096 0.0
H1184 H 0.56955 0.74609 0.39911 0.0
C1185 C 0.57464 0.74626 0.42395 0.0
H1186 H 0.57644 0.73943 0.42053 0.0
H1187 H 0.56819 0.74193 0.53963 0.0
O1188 O 0.62038 0.79389 0.46839 0.0
C1189 C 0.59347 0.77387 0.55357 0.0
Co1190 Co 0.22313 0.83076 0.48153 0.0
Co1191 Co 0.24748 0.83688 0.50118 0.0
C1192 C 0.23935 0.85306 0.51164 0.0
O1193 O 0.22992 0.8461 0.49857 0.0
O1194 O 0.24702 0.85071 0.51539 0.0
C1195 C 0.20342 0.83182 0.47101 0.0
O1196 O 0.20697 0.83826 0.50145 0.0
C1197 C 0.27136 0.84862 0.48507 0.0
C1198 C 0.27673 0.83797 0.51351 0.0
C1199 C 0.28057 0.84737 0.49083 0.0
N1200 N 0.26259 0.84027 0.50286 0.0
N1201 N 0.26589 0.83398 0.52005 0.0
C1202 C 0.27079 0.85763 0.46369 0.0
H1203 H 0.2635 0.8582 0.47275 0.0
H1204 H 0.26994 0.85578 0.43243 0.0
H1205 H 0.27839 0.8657 0.46863 0.0
C1206 C 0.22879 0.82517 0.40714 0.0
N1207 N 0.23169 0.82942 0.44276 0.0
N1208 N 0.24174 0.83143 0.45054 0.0
C1209 C 0.24542 0.82812 0.42005 0.0
C1210 C 0.23737 0.82422 0.3915 0.0
C1211 C 0.21761 0.82117 0.38982 0.0
H1212 H 0.21125 0.81457 0.40828 0.0
H1213 H 0.21588 0.8281 0.38877 0.0
H1214 H 0.217 0.81787 0.3603 0.0
O1215 O 0.22131 0.8208 0.5249 0.0
O1216 O 0.23852 0.8251 0.54 0.0
H1217 H 0.25705 0.82452 0.44714 0.0
H1218 H 0.25596 0.82249 0.39546 0.0
C1219 C 0.25593 0.82775 0.41936 0.0
H1220 H 0.26299 0.83623 0.41527 0.0
H1221 H 0.26068 0.82684 0.53557 0.0
O1222 O 0.20869 0.82711 0.45958 0.0
C1223 C 0.22808 0.8194 0.54552 0.0
C1224 C 0.3544 0.16844 0.04367 0.0
C1225 C 0.36575 0.17536 0.05064 0.0
C1226 C 0.34663 0.16747 0.07097 0.0
C1227 C 0.3426 0.18021 0.15812 0.0
H1228 H 0.32031 0.15005 0.18268 0.0
C1229 C 0.31429 0.17022 0.28987 0.0
C1230 C 0.30299 0.16299 0.2831 0.0
C1231 C 0.32215 0.17135 0.26266 0.0
C1232 C 0.32642 0.15852 0.17597 0.0
H1233 H 0.37781 0.18729 0.09039 0.0
H1234 H 0.36425 0.18557 0.13796 0.0
H1235 H 0.33329 0.15356 0.13036 0.0
H1236 H 0.29113 0.15073 0.24369 0.0
H1237 H 0.30481 0.15278 0.19621 0.0
H1238 H 0.33571 0.18518 0.20365 0.0
C1239 C 0.36136 0.18088 0.11148 0.0
C1240 C 0.33382 0.16054 0.1459 0.0
C1241 C 0.36913 0.18183 0.08426 0.0
C1242 C 0.29977 0.15643 0.24969 0.0
C1243 C 0.30762 0.15757 0.22251 0.0
C1244 C 0.33518 0.1782 0.18815 0.0
C1245 C 0.35006 0.17344 0.10564 0.0
C1246 C 0.34197 0.1714 0.13663 0.0
C1247 C 0.31886 0.16526 0.22822 0.0
C1248 C 0.32701 0.16733 0.19739 0.0
H1249 H 0.35153 0.16338 0.01798 0.0
H1250 H 0.33795 0.16183 0.06539 0.0
H1251 H 0.34874 0.18867 0.15142 0.0
H1252 H 0.31705 0.17535 0.31542 0.0
H1253 H 0.33079 0.17719 0.2682 0.0
C1254 C 0.84146 0.14384 0.26335 0.0
C1255 C 0.83187 0.13338 0.26347 0.0
C1256 C 0.84202 0.15231 0.24035 0.0
C1257 C 0.82471 0.16106 0.18783 0.0
H1258 H 0.85119 0.17834 0.12704 0.0
C1259 C 0.82707 0.19103 0.06914 0.0
C1260 C 0.8367 0.20146 0.06898 0.0
C1261 C 0.82648 0.18251 0.09193 0.0
C1262 C 0.84378 0.17364 0.14407 0.0
H1263 H 0.81527 0.12367 0.24043 0.0
H1264 H 0.81629 0.1384 0.20032 0.0
H1265 H 0.85021 0.16425 0.17095 0.0
H1266 H 0.85335 0.21106 0.09174 0.0
H1267 H 0.85228 0.19627 0.13152 0.0
H1268 H 0.81828 0.17046 0.161 0.0
C1269 C 0.82333 0.14009 0.21812 0.0
C1270 C 0.84323 0.16561 0.16929 0.0
C1271 C 0.82278 0.13163 0.24095 0.0
C1272 C 0.8458 0.20312 0.09123 0.0
C1273 C 0.84522 0.19462 0.11388 0.0
C1274 C 0.82526 0.16909 0.16262 0.0
C1275 C 0.83299 0.15048 0.21725 0.0
C1276 C 0.8337 0.15924 0.19142 0.0
C1277 C 0.83553 0.18426 0.1148 0.0
C1278 C 0.8348 0.17547 0.14051 0.0
H1279 H 0.8486 0.14541 0.2804 0.0
H1280 H 0.84953 0.16029 0.24056 0.0
H1281 H 0.8173 0.15636 0.20486 0.0
H1282 H 0.81992 0.18952 0.05228 0.0
H1283 H 0.81894 0.17456 0.09175 0.0
C1284 C 0.79815 0.63176 0.13394 0.0
C1285 C 0.80042 0.6319 0.0945 0.0
C1286 C 0.80559 0.64016 0.15803 0.0
C1287 C 0.82471 0.66904 0.15858 0.0
H1288 H 0.83631 0.66383 0.2528 0.0
C1289 C 0.85714 0.70459 0.25139 0.0
C1290 C 0.85751 0.70296 0.29115 0.0
C1291 C 0.84968 0.696 0.22789 0.0
C1292 C 0.83297 0.66543 0.22703 0.0
H1293 H 0.81225 0.64072 0.0492 0.0
H1294 H 0.82522 0.65577 0.09152 0.0
H1295 H 0.82496 0.64839 0.21007 0.0
H1296 H 0.84973 0.69133 0.33795 0.0
H1297 H 0.8363 0.67646 0.29718 0.0
H1298 H 0.83222 0.68593 0.17594 0.0
C1299 C 0.81773 0.64903 0.10362 0.0
C1300 C 0.8266 0.6566 0.20239 0.0
C1301 C 0.81038 0.64044 0.07959 0.0
C1302 C 0.84972 0.6928 0.30734 0.0
C1303 C 0.84212 0.68424 0.28386 0.0
C1304 C 0.83089 0.67784 0.18355 0.0
C1305 C 0.8153 0.64897 0.1429 0.0
C1306 C 0.8225 0.65836 0.16793 0.0
C1307 C 0.84225 0.68562 0.24367 0.0
C1308 C 0.83515 0.67616 0.21803 0.0
H1309 H 0.79052 0.62522 0.14608 0.0
H1310 H 0.80355 0.64 0.18821 0.0
H1311 H 0.82143 0.67052 0.1324 0.0
H1312 H 0.86296 0.71234 0.23795 0.0
H1313 H 0.85014 0.6974 0.19712 0.0
C1314 C 0.16801 0.35311 0.46601 0.0
C1315 C 0.17532 0.36444 0.45994 0.0
C1316 C 0.16682 0.34538 0.43814 0.0
C1317 C 0.17927 0.34135 0.35 0.0
H1318 H 0.14885 0.3202 0.32397 0.0
C1319 C 0.16852 0.31456 0.21411 0.0
C1320 C 0.16112 0.30322 0.21959 0.0
C1321 C 0.16981 0.32218 0.24253 0.0
C1322 C 0.15738 0.326 0.33107 0.0
H1323 H 0.18775 0.37645 0.42137 0.0
H1324 H 0.18562 0.36299 0.37277 0.0
H1325 H 0.15279 0.33275 0.37806 0.0
H1326 H 0.14867 0.2911 0.25783 0.0
H1327 H 0.15097 0.30438 0.3074 0.0
H1328 H 0.18387 0.3346 0.30297 0.0
C1329 C 0.18079 0.36007 0.39896 0.0
C1330 C 0.15965 0.33315 0.36217 0.0
C1331 C 0.18198 0.36779 0.42678 0.0
C1332 C 0.1545 0.29977 0.25285 0.0
C1333 C 0.15579 0.30739 0.28123 0.0
C1334 C 0.17701 0.3342 0.3189 0.0
C1335 C 0.17294 0.34883 0.40378 0.0
C1336 C 0.17062 0.3409 0.37195 0.0
C1337 C 0.1637 0.31863 0.27689 0.0
C1338 C 0.16604 0.32646 0.30906 0.0
H1339 H 0.1628 0.35025 0.49135 0.0
H1340 H 0.16087 0.33674 0.44297 0.0
H1341 H 0.18781 0.34716 0.35706 0.0
H1342 H 0.1737 0.3175 0.18872 0.0
H1343 H 0.17581 0.33083 0.23807 0.0
C1344 C 0.6499 0.81177 0.45518 0.0
C1345 C 0.63852 0.80792 0.45193 0.0
C1346 C 0.65724 0.81878 0.4272 0.0
C1347 C 0.6575 0.82573 0.32512 0.0
H1348 H 0.68702 0.84966 0.34793 0.0
C1349 C 0.68667 0.85682 0.2111 0.0
C1350 C 0.69801 0.86048 0.21436 0.0
C1351 C 0.67926 0.84988 0.23906 0.0
C1352 C 0.67885 0.84291 0.3411 0.0
H1353 H 0.62602 0.80906 0.41835 0.0
H1354 H 0.63885 0.82141 0.3699 0.0
H1355 H 0.67446 0.83955 0.40061 0.0
H1356 H 0.71036 0.85907 0.24794 0.0
H1357 H 0.69741 0.84687 0.2964 0.0
H1358 H 0.66189 0.8291 0.2656 0.0
C1359 C 0.64206 0.81878 0.39353 0.0
C1360 C 0.67165 0.83715 0.37128 0.0
C1361 C 0.63473 0.81177 0.42146 0.0
C1362 C 0.70169 0.85651 0.24483 0.0
C1363 C 0.69429 0.84958 0.27275 0.0
C1364 C 0.6647 0.8315 0.29494 0.0
C1365 C 0.65334 0.8221 0.39552 0.0
C1366 C 0.6609 0.8285 0.36361 0.0
C1367 C 0.68306 0.84645 0.27074 0.0
C1368 C 0.67546 0.84013 0.30262 0.0
H1369 H 0.65309 0.80896 0.47831 0.0
H1370 H 0.66589 0.82117 0.42947 0.0
H1371 H 0.64933 0.81896 0.31828 0.0
H1372 H 0.68357 0.85973 0.18797 0.0
H1373 H 0.67065 0.84762 0.23679 0.0
C1374 C 0.15013 0.83895 0.20684 0.0
C1375 C 0.14524 0.84547 0.21379 0.0
C1376 C 0.15705 0.83826 0.23431 0.0
C1377 C 0.16172 0.84106 0.33876 0.0
H1378 H 0.18705 0.8379 0.3139 0.0
C1379 C 0.19095 0.83915 0.45291 0.0
C1380 C 0.19496 0.83189 0.44566 0.0
C1381 C 0.1845 0.84065 0.42549 0.0
C1382 C 0.17991 0.83864 0.32121 0.0
H1383 H 0.1445 0.85707 0.25352 0.0
H1384 H 0.15674 0.856 0.30111 0.0
H1385 H 0.17768 0.84202 0.26284 0.0
H1386 H 0.19465 0.81988 0.40525 0.0
H1387 H 0.18333 0.82244 0.35764 0.0
H1388 H 0.16397 0.83768 0.39716 0.0
C1389 C 0.15498 0.8512 0.27492 0.0
C1390 C 0.17457 0.84104 0.292 0.0
C1391 C 0.14803 0.85187 0.24751 0.0
C1392 C 0.19182 0.82565 0.41153 0.0
C1393 C 0.1854 0.82716 0.38412 0.0
C1394 C 0.16708 0.83869 0.368 0.0
C1395 C 0.15927 0.84411 0.26918 0.0
C1396 C 0.16538 0.84222 0.3004 0.0
C1397 C 0.18194 0.83491 0.39034 0.0
C1398 C 0.17618 0.83738 0.35947 0.0
H1399 H 0.14814 0.83391 0.18116 0.0
H1400 H 0.16019 0.83268 0.22906 0.0
H1401 H 0.15453 0.84171 0.34609 0.0
H1402 H 0.19322 0.84408 0.47894 0.0
H1403 H 0.18196 0.84668 0.43106 0.0
C1404 C 0.68835 0.83341 0.71259 0.0
C1405 C 0.69973 0.84046 0.71855 0.0
C1406 C 0.68074 0.83248 0.74052 0.0
C1407 C 0.67718 0.84549 0.82781 0.0
H1408 H 0.65523 0.81538 0.85444 0.0
C1409 C 0.64964 0.836 0.96125 0.0
C1410 C 0.6383 0.82881 0.95499 0.0
C1411 C 0.65738 0.83695 0.93383 0.0
C1412 C 0.66126 0.82383 0.84717 0.0
H1413 H 0.71199 0.85267 0.7571 0.0
H1414 H 0.69872 0.851 0.80577 0.0
H1415 H 0.66789 0.81877 0.80111 0.0
H1416 H 0.62625 0.81638 0.91648 0.0
H1417 H 0.63973 0.81811 0.86865 0.0
H1418 H 0.67053 0.85057 0.87377 0.0
C1419 C 0.69568 0.84618 0.77962 0.0
C1420 C 0.66847 0.82578 0.81652 0.0
C1421 C 0.70329 0.8471 0.75176 0.0
C1422 C 0.63492 0.82206 0.92205 0.0
C1423 C 0.64266 0.82302 0.89467 0.0
C1424 C 0.66996 0.84355 0.85843 0.0
C1425 C 0.68436 0.83861 0.77481 0.0
C1426 C 0.67649 0.83663 0.80648 0.0
C1427 C 0.65393 0.83071 0.89973 0.0
C1428 C 0.66192 0.8327 0.86842 0.0
H1429 H 0.68534 0.82823 0.68723 0.0
H1430 H 0.67204 0.82674 0.73573 0.0
H1431 H 0.68321 0.85395 0.82052 0.0
H1432 H 0.65251 0.84127 0.98645 0.0
H1433 H 0.66604 0.84279 0.93885 0.0
C1434 C 0.18316 0.81357 0.91629 0.0
C1435 C 0.17682 0.81052 0.9502 0.0
C1436 C 0.18205 0.82029 0.88905 0.0
C1437 C 0.1613 0.82705 0.85562 0.0
H1438 H 0.18539 0.84935 0.79468 0.0
C1439 C 0.15625 0.85595 0.74924 0.0
C1440 C 0.16257 0.85898 0.71529 0.0
C1441 C 0.15758 0.84948 0.77696 0.0
C1442 C 0.17856 0.84303 0.81109 0.0
H1443 H 0.16498 0.81283 0.9835 0.0
H1444 H 0.16316 0.8247 0.93611 0.0
H1445 H 0.18939 0.84038 0.84751 0.0
H1446 H 0.17467 0.85695 0.68256 0.0
H1447 H 0.17684 0.84548 0.73075 0.0
H1448 H 0.15047 0.82966 0.81915 0.0
C1449 C 0.16881 0.82168 0.93027 0.0
C1450 C 0.18086 0.83795 0.84147 0.0
C1451 C 0.16993 0.81497 0.95756 0.0
C1452 C 0.16972 0.85481 0.70851 0.0
C1453 C 0.17105 0.84833 0.73627 0.0
C1454 C 0.159 0.83213 0.82523 0.0
C1455 C 0.17458 0.82411 0.89521 0.0
C1456 C 0.17225 0.82991 0.86407 0.0
C1457 C 0.16524 0.84588 0.77126 0.0
C1458 C 0.1676 0.84016 0.80262 0.0
H1459 H 0.1886 0.81034 0.90986 0.0
H1460 H 0.1866 0.82201 0.86229 0.0
H1461 H 0.15447 0.82072 0.87202 0.0
H1462 H 0.15062 0.85897 0.75525 0.0
H1463 H 0.153 0.84776 0.80365 0.0
C1464 C 0.15099 0.30929 0.70052 0.0
C1465 C 0.142 0.30001 0.71735 0.0
C1466 C 0.15901 0.31766 0.7237 0.0
C1467 C 0.16899 0.3238 0.82542 0.0
H1468 H 0.18099 0.35424 0.79287 0.0
C1469 C 0.19267 0.3616 0.92603 0.0
C1470 C 0.20351 0.36866 0.91334 0.0
C1471 C 0.18501 0.35338 0.90155 0.0
C1472 C 0.17765 0.34576 0.80219 0.0
H1473 H 0.1345 0.29216 0.77167 0.0
H1474 H 0.14804 0.30676 0.81161 0.0
H1475 H 0.16833 0.33929 0.75045 0.0
H1476 H 0.21478 0.37311 0.86495 0.0
H1477 H 0.20129 0.35898 0.82195 0.0
H1478 H 0.17806 0.3304 0.87776 0.0
C1479 C 0.14919 0.30754 0.78071 0.0
C1480 C 0.17052 0.33719 0.77781 0.0
C1481 C 0.14132 0.29915 0.75766 0.0
C1482 C 0.20648 0.36768 0.87552 0.0
C1483 C 0.19878 0.35968 0.85086 0.0
C1484 C 0.17593 0.33237 0.85004 0.0
C1485 C 0.15809 0.31695 0.76412 0.0
C1486 C 0.16608 0.32609 0.78915 0.0
C1487 C 0.18806 0.35237 0.86389 0.0
C1488 C 0.1803 0.34339 0.83857 0.0
H1489 H 0.15177 0.31016 0.66951 0.0
H1490 H 0.16587 0.3247 0.70991 0.0
H1491 H 0.16596 0.31538 0.83483 0.0
H1492 H 0.19022 0.36222 0.9551 0.0
H1493 H 0.17674 0.3478 0.912 0.0
C1494 C 0.84702 0.64642 0.57982 0.0
C1495 C 0.83749 0.63809 0.56169 0.0
C1496 C 0.84635 0.65387 0.6048 0.0
C1497 C 0.82668 0.65642 0.66775 0.0
H1498 H 0.84925 0.68741 0.6705 0.0
C1499 C 0.82255 0.68889 0.75707 0.0
C1500 C 0.83204 0.6972 0.77541 0.0
C1501 C 0.82324 0.68137 0.7325 0.0
C1502 C 0.84297 0.67874 0.67042 0.0
H1503 H 0.81983 0.63126 0.55448 0.0
H1504 H 0.81868 0.64441 0.59789 0.0
H1505 H 0.85024 0.67531 0.62202 0.0
H1506 H 0.84966 0.70395 0.78345 0.0
H1507 H 0.85086 0.6907 0.74064 0.0
H1508 H 0.81939 0.65986 0.7161 0.0
C1509 C 0.82665 0.64506 0.59313 0.0
C1510 C 0.84351 0.67183 0.64257 0.0
C1511 C 0.82732 0.6376 0.56802 0.0
C1512 C 0.8422 0.69762 0.76974 0.0
C1513 C 0.8429 0.6901 0.745 0.0
C1514 C 0.82613 0.66333 0.69558 0.0
C1515 C 0.83614 0.65316 0.61222 0.0
C1516 C 0.83537 0.66059 0.64093 0.0
C1517 C 0.83345 0.68202 0.72567 0.0
C1518 C 0.83426 0.67457 0.69718 0.0
H1519 H 0.85499 0.64703 0.57552 0.0
H1520 H 0.85379 0.65995 0.61932 0.0
H1521 H 0.82039 0.64775 0.66767 0.0
H1522 H 0.81459 0.68834 0.76089 0.0
H1523 H 0.81583 0.67531 0.71778 0.0
C1524 C 0.29803 0.14664 0.75249 0.0
C1525 C 0.3018 0.1435 0.785 0.0
C1526 C 0.30544 0.15334 0.72418 0.0
C1527 C 0.33222 0.15984 0.6842 0.0
H1528 H 0.33019 0.18286 0.62889 0.0
C1529 C 0.36525 0.18926 0.57651 0.0
C1530 C 0.3618 0.19291 0.54448 0.0
C1531 C 0.35764 0.18255 0.60431 0.0
C1532 C 0.33075 0.17633 0.64366 0.0
H1533 H 0.3164 0.14561 0.8147 0.0
H1534 H 0.32936 0.15742 0.76541 0.0
H1535 H 0.31785 0.17365 0.68305 0.0
H1536 H 0.34753 0.19169 0.51501 0.0
H1537 H 0.3342 0.17977 0.56324 0.0
H1538 H 0.34507 0.16245 0.64477 0.0
C1539 C 0.32063 0.1545 0.76152 0.0
C1540 C 0.32372 0.17111 0.67482 0.0
C1541 C 0.31322 0.14782 0.7899 0.0
C1542 C 0.35047 0.18908 0.53948 0.0
C1543 C 0.34284 0.18235 0.5673 0.0
C1544 C 0.33922 0.16502 0.65299 0.0
C1545 C 0.31678 0.15703 0.72783 0.0
C1546 C 0.32442 0.16285 0.6955 0.0
C1547 C 0.3464 0.17929 0.60059 0.0
C1548 C 0.33858 0.17335 0.63244 0.0
H1549 H 0.28928 0.1435 0.74798 0.0
H1550 H 0.30223 0.15515 0.69852 0.0
H1551 H 0.33279 0.15333 0.6991 0.0
H1552 H 0.37391 0.19198 0.58108 0.0
H1553 H 0.36066 0.18038 0.62966 0.0
C1554 C 0.81331 0.16504 0.53386 0.0
C1555 C 0.8092 0.17232 0.53866 0.0
C1556 C 0.82025 0.16449 0.5616 0.0
C1557 C 0.83761 0.17865 0.64658 0.0
H1558 H 0.82885 0.14883 0.6794 0.0
C1559 C 0.85467 0.17052 0.78546 0.0
C1560 C 0.85861 0.16306 0.78207 0.0
C1561 C 0.84821 0.1713 0.75633 0.0
C1562 C 0.83145 0.1572 0.67037 0.0
H1563 H 0.80986 0.18535 0.57462 0.0
H1564 H 0.82189 0.18432 0.623 0.0
H1565 H 0.81968 0.15166 0.62447 0.0
H1566 H 0.85819 0.15002 0.74683 0.0
H1567 H 0.84697 0.15143 0.69603 0.0
H1568 H 0.84935 0.1842 0.6926 0.0
C1569 C 0.81976 0.17903 0.59792 0.0
C1570 C 0.82625 0.15883 0.63879 0.0
C1571 C 0.81281 0.17958 0.57024 0.0
C1572 C 0.85535 0.15591 0.7502 0.0
C1573 C 0.84888 0.15669 0.72112 0.0
C1574 C 0.84281 0.17703 0.67816 0.0
C1575 C 0.82324 0.17123 0.59453 0.0
C1576 C 0.82926 0.16957 0.62661 0.0
C1577 C 0.84552 0.16461 0.72336 0.0
C1578 C 0.83976 0.16629 0.69047 0.0
H1579 H 0.81073 0.15938 0.50973 0.0
H1580 H 0.823 0.15854 0.55788 0.0
H1581 H 0.84018 0.18703 0.63763 0.0
H1582 H 0.85699 0.17611 0.80974 0.0
H1583 H 0.84553 0.17733 0.75918 0.0
C1584 C 0.02544 0.48905 0.4258 0.0
C1585 C 0.03271 0.49813 0.40309 0.0
C1586 C 0.01749 0.48954 0.44851 0.0
C1587 C 0.00204 0.50419 0.46134 0.0
H1588 H 0.99846 0.4932 0.56605 0.0
C1589 C 0.97556 0.51103 0.57201 0.0
C1590 C 0.96853 0.50202 0.59544 0.0
C1591 C 0.98352 0.51061 0.54912 0.0
C1592 C 0.99927 0.49618 0.53677 0.0
H1593 H 0.03719 0.51476 0.38561 0.0
H1594 H 0.02322 0.51563 0.42559 0.0
H1595 H 0.01199 0.49241 0.52385 0.0
H1596 H 0.96445 0.48558 0.61386 0.0
H1597 H 0.97838 0.4848 0.57346 0.0
H1598 H 0.9893 0.50792 0.4742 0.0
C1599 C 0.02368 0.50811 0.42555 0.0
C1600 C 0.00703 0.49574 0.51263 0.0
C1601 C 0.03167 0.50763 0.40275 0.0
C1602 C 0.96979 0.49266 0.59619 0.0
C1603 C 0.97777 0.49223 0.57314 0.0
C1604 C 0.99427 0.50461 0.48547 0.0
C1605 C 0.01661 0.49912 0.44905 0.0
C1606 C 0.00847 0.49973 0.47466 0.0
C1607 C 0.98463 0.50116 0.54905 0.0
C1608 C 0.99282 0.50062 0.52345 0.0
H1609 H 0.02596 0.48157 0.42646 0.0
H1610 H 0.01202 0.48241 0.46575 0.0
H1611 H 0.00288 0.50718 0.43207 0.0
H1612 H 0.97486 0.51841 0.57105 0.0
H1613 H 0.98883 0.5177 0.53146 0.0
C1614 C 0.51593 0.48038 0.58655 0.0
C1615 C 0.50827 0.47661 0.617 0.0
C1616 C 0.51551 0.48719 0.55798 0.0
C1617 C 0.49551 0.49308 0.51191 0.0
H1618 H 0.52131 0.51775 0.46563 0.0
C1619 C 0.49283 0.52316 0.40497 0.0
C1620 C 0.5007 0.52766 0.3753 0.0
C1621 C 0.4935 0.51631 0.43274 0.0
C1622 C 0.51403 0.51077 0.47783 0.0
H1623 H 0.49465 0.47762 0.64272 0.0
H1624 H 0.494 0.48959 0.59295 0.0
H1625 H 0.52359 0.50802 0.52002 0.0
H1626 H 0.51501 0.52787 0.35 0.0
H1627 H 0.51604 0.5157 0.39812 0.0
H1628 H 0.48595 0.49575 0.46968 0.0
C1629 C 0.50019 0.48711 0.59089 0.0
C1630 C 0.51534 0.50525 0.50912 0.0
C1631 C 0.50063 0.48034 0.61956 0.0
C1632 C 0.50886 0.5246 0.37263 0.0
C1633 C 0.50952 0.51772 0.4004 0.0
C1634 C 0.4942 0.49856 0.48054 0.0
C1635 C 0.50742 0.49034 0.55927 0.0
C1636 C 0.50609 0.49639 0.5266 0.0
C1637 C 0.50203 0.51375 0.43135 0.0
C1638 C 0.50344 0.5075 0.46326 0.0
H1639 H 0.52196 0.4777 0.58386 0.0
H1640 H 0.52118 0.48953 0.53392 0.0
H1641 H 0.48824 0.48613 0.5243 0.0
H1642 H 0.48639 0.52528 0.40773 0.0
H1643 H 0.48763 0.51344 0.45628 0.0
C1644 C 0.52137 0.03467 0.59181 0.0
C1645 C 0.52509 0.03069 0.62213 0.0
C1646 C 0.51461 0.02754 0.563 0.0
C1647 C 0.49703 0.99807 0.53678 0.0
H1648 H 0.5062 0.00901 0.43278 0.0
C1649 C 0.48034 0.96911 0.40678 0.0
C1650 C 0.47629 0.97273 0.37639 0.0
C1651 C 0.48681 0.97643 0.43565 0.0
C1652 C 0.5035 0.00587 0.46164 0.0
H1653 H 0.524 0.01599 0.64746 0.0
H1654 H 0.51226 0.00354 0.59707 0.0
H1655 H 0.51537 0.02116 0.48741 0.0
H1656 H 0.47651 0.98703 0.35094 0.0
H1657 H 0.48786 0.99982 0.40138 0.0
H1658 H 0.48523 0.98276 0.51098 0.0
C1659 C 0.51454 0.01217 0.59559 0.0
C1660 C 0.5087 0.01284 0.49293 0.0
C1661 C 0.52129 0.01931 0.62448 0.0
C1662 C 0.47949 0.98398 0.37401 0.0
C1663 C 0.48599 0.99132 0.4029 0.0
C1664 C 0.49186 0.9911 0.50551 0.0
C1665 C 0.51143 0.01628 0.56393 0.0
C1666 C 0.50553 0.009 0.53083 0.0
C1667 C 0.4894 0.98752 0.43462 0.0
C1668 C 0.49507 0.99492 0.46763 0.0
H1669 H 0.52405 0.04339 0.58943 0.0
H1670 H 0.51213 0.03089 0.53943 0.0
H1671 H 0.49433 0.99492 0.56561 0.0
H1672 H 0.47814 0.96052 0.40919 0.0
H1673 H 0.48955 0.97334 0.45932 0.0
C1674 C 0.49435 0.96949 0.90654 0.0
C1675 C 0.50406 0.96884 0.9052 0.0
C1676 C 0.49383 0.9774 0.9297 0.0
C1677 C 0.51125 0.00378 0.98038 0.0
H1678 H 0.48508 0.99455 0.04294 0.0
C1679 C 0.50902 0.03181 0.09789 0.0
C1680 C 0.49927 0.03239 0.09856 0.0
C1681 C 0.50965 0.02385 0.07539 0.0
C1682 C 0.4924 0.99727 0.02542 0.0
H1683 H 0.5209 0.9761 0.9264 0.0
H1684 H 0.51993 0.98979 0.96684 0.0
H1685 H 0.48603 0.98133 0.99957 0.0
H1686 H 0.48246 0.02495 0.07692 0.0
H1687 H 0.48361 0.01117 0.03765 0.0
H1688 H 0.51761 0.01973 0.00618 0.0
C1689 C 0.51276 0.98428 0.94982 0.0
C1690 C 0.49293 0.98971 0.00051 0.0
C1691 C 0.51329 0.97639 0.92677 0.0
C1692 C 0.4901 0.02472 0.07705 0.0
C1693 C 0.49073 0.01677 0.05469 0.0
C1694 C 0.51072 0.01134 0.0053 0.0
C1695 C 0.503 0.98481 0.95182 0.0
C1696 C 0.50235 0.9929 0.97768 0.0
C1697 C 0.50053 0.01631 0.05332 0.0
C1698 C 0.50128 0.00817 0.028 0.0
H1699 H 0.48711 0.96379 0.89024 0.0
H1700 H 0.48623 0.9777 0.93033 0.0
H1701 H 0.51857 0.00651 0.96281 0.0
H1702 H 0.51622 0.03762 0.11417 0.0
H1703 H 0.51728 0.0236 0.07522 0.0
C1704 C 0.9838 0.47902 0.12446 0.0
C1705 C 0.97245 0.47504 0.11919 0.0
C1706 C 0.99138 0.48549 0.09613 0.0
C1707 C 0.99249 0.49003 0.99198 0.0
H1708 H 0.02152 0.51504 0.01312 0.0
C1709 C 0.0216 0.5193 0.87437 0.0
C1710 C 0.03303 0.52383 0.87955 0.0
C1711 C 0.0142 0.51253 0.90264 0.0
C1712 C 0.0135 0.50795 0.00682 0.0
H1713 H 0.96025 0.47546 0.08156 0.0
H1714 H 0.9735 0.48683 0.0324 0.0
H1715 H 0.00868 0.50588 0.0661 0.0
H1716 H 0.04562 0.52406 0.9168 0.0
H1717 H 0.03269 0.5121 0.96577 0.0
H1718 H 0.99731 0.49208 0.93271 0.0
C1719 C 0.9765 0.48472 0.05797 0.0
C1720 C 0.00614 0.50276 0.03714 0.0
C1721 C 0.96892 0.47828 0.08627 0.0
C1722 C 0.03687 0.52081 0.91219 0.0
C1723 C 0.02947 0.51403 0.94038 0.0
C1724 C 0.99986 0.4952 0.96166 0.0
C1725 C 0.98775 0.48811 0.06207 0.0
C1726 C 0.99555 0.49378 0.03 0.0
C1727 C 0.0181 0.51013 0.93651 0.0
C1728 C 0.01044 0.50424 0.96874 0.0
H1729 H 0.98678 0.47669 0.14952 0.0
H1730 H 1.00001 0.48797 0.10005 0.0
H1731 H 0.98445 0.48297 0.98569 0.0
H1732 H 0.01838 0.52147 0.84955 0.0
H1733 H 0.00549 0.50968 0.89886 0.0
C1734 C 0.52356 0.48868 0.08389 0.0
C1735 C 0.52655 0.49504 0.11776 0.0
C1736 C 0.51675 0.48966 0.05669 0.0
C1737 C 0.50936 0.50999 0.02328 0.0
H1738 H 0.48725 0.48554 0.96306 0.0
C1739 C 0.47964 0.51398 0.91777 0.0
C1740 C 0.47671 0.50766 0.88384 0.0
C1741 C 0.48629 0.51289 0.94534 0.0
C1742 C 0.49352 0.49247 0.97928 0.0
H1743 H 0.52409 0.50679 0.15097 0.0
H1744 H 0.51206 0.50838 0.10364 0.0
H1745 H 0.49657 0.48191 0.01565 0.0
H1746 H 0.47911 0.49581 0.85099 0.0
H1747 H 0.49089 0.49404 0.89893 0.0
H1748 H 0.50633 0.52055 0.98688 0.0
C1749 C 0.51519 0.50282 0.0978 0.0
C1750 C 0.4988 0.49038 0.00951 0.0
C1751 C 0.522 0.50183 0.12506 0.0
C1752 C 0.48116 0.50075 0.87693 0.0
C1753 C 0.48782 0.49966 0.90454 0.0
C1754 C 0.50408 0.51208 0.99305 0.0
C1755 C 0.51278 0.497 0.06284 0.0
C1756 C 0.50678 0.49911 0.03183 0.0
C1757 C 0.49018 0.50547 0.9395 0.0
C1758 C 0.49611 0.50334 0.9707 0.0
H1759 H 0.52687 0.48331 0.07751 0.0
H1760 H 0.51506 0.48509 0.02999 0.0
H1761 H 0.51564 0.51692 0.03947 0.0
H1762 H 0.4764 0.51943 0.92387 0.0
H1763 H 0.48794 0.51747 0.97202 0.0
C1764 C 0.23263 0.1956 0.31804 0.0
C1765 C 0.22761 0.18412 0.31318 0.0
C1766 C 0.22777 0.20142 0.30255 0.0
C1767 C 0.20099 0.19683 0.26073 0.0
H1768 H 0.2191 0.22729 0.22797 0.0
C1769 C 0.18489 0.22047 0.16866 0.0
C1770 C 0.18589 0.22998 0.18657 0.0
C1771 C 0.19035 0.21517 0.18342 0.0
C1772 C 0.21397 0.21879 0.23709 0.0
H1773 H 0.21378 0.16973 0.28767 0.0
H1774 H 0.2056 0.17982 0.25884 0.0
H1775 H 0.22792 0.2174 0.25422 0.0
H1776 H 0.19322 0.24094 0.23569 0.0
H1777 H 0.20327 0.23214 0.25952 0.0
H1778 H 0.1871 0.19819 0.24185 0.0
C1779 C 0.21302 0.18439 0.27589 0.0
C1780 C 0.21899 0.21311 0.25247 0.0
C1781 C 0.21775 0.17857 0.29216 0.0
C1782 C 0.1926 0.23406 0.21962 0.0
C1783 C 0.19827 0.2289 0.23381 0.0
C1784 C 0.19602 0.20243 0.24453 0.0
C1785 C 0.21787 0.1959 0.28116 0.0
C1786 C 0.21258 0.20203 0.26463 0.0
C1787 C 0.19709 0.21935 0.2161 0.0
C1788 C 0.20246 0.21345 0.23269 0.0
H1789 H 0.24019 0.20004 0.33458 0.0
H1790 H 0.23169 0.21021 0.30802 0.0
H1791 H 0.19568 0.18844 0.27059 0.0
H1792 H 0.17975 0.217 0.14337 0.0
H1793 H 0.18929 0.20779 0.16932 0.0
C1794 C 0.76814 0.9636 0.18299 0.0
C1795 C 0.77311 0.95711 0.18869 0.0
C1796 C 0.77283 0.97419 0.19911 0.0
C1797 C 0.7889 0.99098 0.27882 0.0
H1798 H 0.80009 0.01655 0.21166 0.0
C1799 C 0.80559 0.03684 0.32736 0.0
C1800 C 0.81687 0.04353 0.31876 0.0
C1801 C 0.79956 0.02617 0.312 0.0
C1802 C 0.79691 0.00946 0.23064 0.0
H1803 H 0.78669 0.95642 0.21596 0.0
H1804 H 0.79468 0.9748 0.24528 0.0
H1805 H 0.79042 0.99786 0.18391 0.0
H1806 H 0.83069 0.04444 0.2873 0.0
H1807 H 0.82002 0.02589 0.25934 0.0
H1808 H 0.7953 0.00259 0.32557 0.0
C1809 C 0.78726 0.97175 0.22798 0.0
C1810 C 0.79137 0.99882 0.21487 0.0
C1811 C 0.78274 0.9613 0.21109 0.0
C1812 C 0.82201 0.03942 0.29441 0.0
C1813 C 0.81592 0.02887 0.27832 0.0
C1814 C 0.79419 0.00162 0.29466 0.0
C1815 C 0.78239 0.97831 0.22191 0.0
C1816 C 0.78747 0.98951 0.2388 0.0
C1817 C 0.80467 0.02215 0.28713 0.0
C1818 C 0.79837 0.01093 0.27063 0.0
H1819 H 0.76076 0.96057 0.16554 0.0
H1820 H 0.76897 0.97914 0.19404 0.0
H1821 H 0.78595 0.9839 0.29776 0.0
H1822 H 0.80149 0.03982 0.34633 0.0
H1823 H 0.79089 0.02109 0.31918 0.0
C1824 C 0.9595 0.76761 0.27754 0.0
C1825 C 0.95827 0.76793 0.31758 0.0
C1826 C 0.97 0.77209 0.26109 0.0
C1827 C 0.99907 0.78063 0.28226 0.0
H1828 H 0.00533 0.7998 0.19379 0.0
C1829 C 0.04349 0.80894 0.22544 0.0
C1830 C 0.04502 0.81083 0.18563 0.0
C1831 C 0.03285 0.80291 0.24094 0.0
C1832 C 0.0037 0.79432 0.21804 0.0
H1833 H 0.96705 0.77322 0.37178 0.0
H1834 H 0.98546 0.78101 0.34305 0.0
H1835 H 0.9869 0.79064 0.22184 0.0
H1836 H 0.03665 0.80785 0.13076 0.0
H1837 H 0.01808 0.79705 0.15751 0.0
H1838 H 0.01585 0.78426 0.27838 0.0
C1839 C 0.97828 0.77718 0.32443 0.0
C1840 C 0.99312 0.78909 0.2342 0.0
C1841 C 0.96776 0.77278 0.34085 0.0
C1842 C 0.0357 0.80648 0.16157 0.0
C1843 C 0.02507 0.80037 0.17699 0.0
C1844 C 0.00964 0.78579 0.26589 0.0
C1845 C 0.97952 0.77698 0.28431 0.0
C1846 C 0.9907 0.78224 0.2666 0.0
C1847 C 0.02348 0.79862 0.21696 0.0
C1848 C 0.01212 0.79276 0.23367 0.0
H1849 H 0.95239 0.76426 0.25869 0.0
H1850 H 0.97069 0.7718 0.2301 0.0
H1851 H 0.99741 0.7753 0.30698 0.0
H1852 H 0.05047 0.81251 0.2449 0.0
H1853 H 0.03198 0.80195 0.2719 0.0
C1854 C 0.81439 0.77194 0.77958 0.0
C1855 C 0.81614 0.77212 0.81941 0.0
C1856 C 0.80846 0.77665 0.76415 0.0
C1857 C 0.79917 0.79673 0.78731 0.0
H1858 H 0.78026 0.78352 0.69842 0.0
C1859 C 0.77083 0.8124 0.72754 0.0
C1860 C 0.77111 0.81393 0.68749 0.0
C1861 C 0.77583 0.80688 0.74414 0.0
C1862 C 0.78556 0.78733 0.72312 0.0
H1863 H 0.81327 0.7775 0.8744 0.0
H1864 H 0.8026 0.78548 0.84779 0.0
H1865 H 0.78973 0.77456 0.72696 0.0
H1866 H 0.77691 0.81096 0.63344 0.0
H1867 H 0.78556 0.80117 0.66241 0.0
H1868 H 0.79486 0.80942 0.7836 0.0
C1869 C 0.80591 0.78183 0.82824 0.0
C1870 C 0.79103 0.78223 0.73945 0.0
C1871 C 0.81195 0.7772 0.84358 0.0
C1872 C 0.77648 0.80981 0.66437 0.0
C1873 C 0.78138 0.80417 0.68092 0.0
C1874 C 0.79362 0.80176 0.7712 0.0
C1875 C 0.80412 0.78166 0.78826 0.0
C1876 C 0.79798 0.78689 0.77162 0.0
C1877 C 0.78118 0.80272 0.72104 0.0
C1878 C 0.78681 0.79716 0.73878 0.0
H1879 H 0.81792 0.76846 0.76017 0.0
H1880 H 0.80753 0.77661 0.7332 0.0
H1881 H 0.8046 0.80069 0.81158 0.0
H1882 H 0.76707 0.81578 0.74625 0.0
H1883 H 0.77553 0.80588 0.77513 0.0
C1884 C 0.19353 0.96612 0.65806 0.0
C1885 C 0.18928 0.95695 0.68277 0.0
C1886 C 0.19975 0.97685 0.67272 0.0
C1887 C 0.21491 0.99256 0.76053 0.0
H1888 H 0.21068 0.01558 0.71557 0.0
C1889 C 0.22879 0.0347 0.83442 0.0
C1890 C 0.23388 0.04418 0.8111 0.0
C1891 C 0.22418 0.02416 0.81809 0.0
C1892 C 0.21205 0.00928 0.72817 0.0
H1893 H 0.18771 0.95183 0.74238 0.0
H1894 H 0.19846 0.97047 0.76808 0.0
H1895 H 0.20105 0.99704 0.68835 0.0
H1896 H 0.23775 0.05001 0.75222 0.0
H1897 H 0.2298 0.03163 0.72374 0.0
H1898 H 0.22568 0.00481 0.80105 0.0
C1899 C 0.19739 0.96942 0.7372 0.0
C1900 C 0.20655 0.99863 0.71249 0.0
C1901 C 0.19126 0.9587 0.72246 0.0
C1902 C 0.23422 0.0429 0.77109 0.0
C1903 C 0.2295 0.03236 0.75471 0.0
C1904 C 0.22033 0.00319 0.77642 0.0
C1905 C 0.2017 0.97866 0.71256 0.0
C1906 C 0.20787 0.99011 0.72853 0.0
C1907 C 0.22439 0.02287 0.77801 0.0
C1908 C 0.21893 0.01166 0.76048 0.0
H1909 H 0.19206 0.96498 0.62733 0.0
H1910 H 0.20304 0.98372 0.65276 0.0
H1911 H 0.2163 0.98628 0.77327 0.0
H1912 H 0.22833 0.03545 0.86532 0.0
H1913 H 0.22018 0.017 0.83676 0.0
C1914 C 0.95858 0.19337 0.78591 0.0
C1915 C 0.9561 0.18707 0.81992 0.0
C1916 C 0.96934 0.19887 0.77113 0.0
C1917 C 0.99331 0.19648 0.75985 0.0
H1918 H 0.01056 0.22834 0.74927 0.0
C1919 C 0.03856 0.21759 0.70864 0.0
C1920 C 0.04285 0.22744 0.68755 0.0
C1921 C 0.02812 0.21299 0.72564 0.0
C1922 C 0.00583 0.21942 0.75126 0.0
H1923 H 0.96309 0.1814 0.86417 0.0
H1924 H 0.98175 0.19063 0.83721 0.0
H1925 H 0.99202 0.2198 0.77687 0.0
H1926 H 0.03959 0.24012 0.66678 0.0
H1927 H 0.02109 0.23183 0.69455 0.0
H1928 H 0.00667 0.19586 0.73264 0.0
C1929 C 0.97536 0.19152 0.82285 0.0
C1930 C 0.99524 0.21457 0.76743 0.0
C1931 C 0.96466 0.18624 0.83817 0.0
C1932 C 0.03648 0.23257 0.68331 0.0
C1933 C 0.0259 0.22783 0.69952 0.0
C1934 C 0.00377 0.20128 0.74285 0.0
C1935 C 0.97777 0.19789 0.78926 0.0
C1936 C 0.98895 0.20307 0.77212 0.0
C1937 C 0.02155 0.21796 0.72108 0.0
C1938 C 0.01026 0.21284 0.73856 0.0
H1939 H 0.95223 0.19378 0.76958 0.0
H1940 H 0.97099 0.20357 0.74472 0.0
H1941 H 0.98853 0.18757 0.76278 0.0
H1942 H 0.04339 0.21355 0.71268 0.0
H1943 H 0.02529 0.20558 0.74275 0.0
C1944 C 0.8847 0.51159 0.62759 0.0
C1945 C 0.89423 0.5174 0.65016 0.0
C1946 C 0.87973 0.51707 0.61051 0.0
C1947 C 0.88471 0.54542 0.58716 0.0
H1948 H 0.85294 0.5295 0.57222 0.0
C1949 C 0.85823 0.56568 0.54968 0.0
C1950 C 0.85149 0.56143 0.51681 0.0
C1951 C 0.86382 0.56054 0.56466 0.0
C1952 C 0.86183 0.53401 0.57603 0.0
H1953 H 0.90592 0.53341 0.67358 0.0
H1954 H 0.89698 0.54296 0.64546 0.0
H1955 H 0.86181 0.5202 0.60233 0.0
H1956 H 0.84504 0.54809 0.47505 0.0
H1957 H 0.85449 0.53889 0.50229 0.0
H1958 H 0.88449 0.55939 0.56236 0.0
C1959 C 0.89353 0.53425 0.63946 0.0
C1960 C 0.86697 0.52868 0.59308 0.0
C1961 C 0.89865 0.52878 0.65584 0.0
C1962 C 0.85024 0.55168 0.50012 0.0
C1963 C 0.85564 0.54641 0.51564 0.0
C1964 C 0.87952 0.55081 0.57089 0.0
C1965 C 0.884 0.52848 0.6164 0.0
C1966 C 0.87851 0.53427 0.5987 0.0
C1967 C 0.86252 0.55083 0.54794 0.0
C1968 C 0.86805 0.54513 0.56498 0.0
H1969 H 0.8812 0.50282 0.62248 0.0
H1970 H 0.8726 0.51234 0.59229 0.0
H1971 H 0.89361 0.54999 0.59019 0.0
H1972 H 0.85896 0.57275 0.5649 0.0
H1973 H 0.86889 0.56397 0.59012 0.0
C1974 C 0.48824 0.37434 0.62416 0.0
C1975 C 0.48278 0.37873 0.64531 0.0
C1976 C 0.48234 0.36378 0.60811 0.0
C1977 C 0.45356 0.34104 0.58568 0.0
H1978 H 0.46839 0.32397 0.57578 0.0
C1979 C 0.4325 0.29363 0.55396 0.0
C1980 C 0.43655 0.29095 0.52094 0.0
C1981 C 0.43769 0.30447 0.56801 0.0
C1982 C 0.46418 0.32868 0.57827 0.0
H1983 H 0.46694 0.37554 0.66699 0.0
H1984 H 0.45662 0.35684 0.64076 0.0
H1985 H 0.47821 0.34237 0.6039 0.0
H1986 H 0.4495 0.29773 0.47762 0.0
H1987 H 0.45877 0.3165 0.50334 0.0
H1988 H 0.43933 0.32692 0.5616 0.0
C1989 C 0.4654 0.36166 0.63509 0.0
C1990 C 0.46982 0.33929 0.5941 0.0
C1991 C 0.4713 0.37236 0.65037 0.0
C1992 C 0.44606 0.29942 0.50293 0.0
C1993 C 0.45139 0.31019 0.51754 0.0
C1994 C 0.44784 0.3303 0.57067 0.0
C1995 C 0.47084 0.35719 0.61373 0.0
C1996 C 0.46465 0.34571 0.59769 0.0
C1997 C 0.44724 0.3128 0.55016 0.0
C1998 C 0.45315 0.32409 0.56652 0.0
H1999 H 0.49708 0.37916 0.61951 0.0
H2000 H 0.48684 0.36085 0.59103 0.0
H2001 H 0.4493 0.34571 0.58725 0.0
H2002 H 0.42562 0.28741 0.57011 0.0
H2003 H 0.43447 0.30627 0.59369 0.0
C2004 C 0.70936 0.14275 0.56036 0.0
C2005 C 0.71055 0.14468 0.52049 0.0
C2006 C 0.69886 0.13681 0.57695 0.0
C2007 C 0.6696 0.11706 0.55481 0.0
H2008 H 0.66374 0.12896 0.64694 0.0
C2009 C 0.6253 0.10116 0.61186 0.0
C2010 C 0.62367 0.10076 0.65182 0.0
C2011 C 0.63598 0.10587 0.59658 0.0
C2012 C 0.66525 0.12539 0.62161 0.0
H2013 H 0.7017 0.14201 0.46677 0.0
H2014 H 0.68332 0.13157 0.49568 0.0
H2015 H 0.6822 0.13825 0.61901 0.0
H2016 H 0.63185 0.10503 0.7072 0.0
H2017 H 0.65051 0.11302 0.68075 0.0
H2018 H 0.65268 0.10418 0.55743 0.0
C2019 C 0.69051 0.13453 0.51406 0.0
C2020 C 0.67585 0.13075 0.60554 0.0
C2021 C 0.70102 0.14056 0.49755 0.0
C2022 C 0.6329 0.10517 0.67627 0.0
C2023 C 0.64358 0.10981 0.66104 0.0
C2024 C 0.65902 0.11165 0.57105 0.0
C2025 C 0.68931 0.13266 0.55401 0.0
C2026 C 0.67813 0.1267 0.5718 0.0
C2027 C 0.64527 0.11031 0.62095 0.0
C2028 C 0.65667 0.11579 0.60452 0.0
H2029 H 0.71651 0.14612 0.57902 0.0
H2030 H 0.69821 0.13549 0.60779 0.0
H2031 H 0.67114 0.11366 0.52908 0.0
H2032 H 0.61837 0.09826 0.59228 0.0
H2033 H 0.63694 0.10635 0.56559 0.0
C2034 C 0.44738 0.1495 0.0022 0.0
C2035 C 0.43792 0.1486 0.02015 0.0
C2036 C 0.45274 0.14417 0.01746 0.0
C2037 C 0.44926 0.12098 0.07412 0.0
H2038 H 0.47995 0.13944 0.10358 0.0
C2039 C 0.47281 0.10299 0.15637 0.0
C2040 C 0.48419 0.10772 0.14987 0.0
C2041 C 0.46698 0.10782 0.14077 0.0
C2042 C 0.47146 0.13408 0.09488 0.0
H2043 H 0.42711 0.14163 0.0698 0.0
H2044 H 0.43602 0.13177 0.09462 0.0
H2045 H 0.47008 0.1478 0.0741 0.0
H2046 H 0.49842 0.12104 0.12156 0.0
H2047 H 0.48826 0.12914 0.09264 0.0
H2048 H 0.45065 0.10718 0.09319 0.0
C2049 C 0.43917 0.13658 0.06848 0.0
C2050 C 0.4658 0.13893 0.07824 0.0
C2051 C 0.43395 0.14213 0.05374 0.0
C2052 C 0.48964 0.11729 0.12729 0.0
C2053 C 0.48379 0.12198 0.11095 0.0
C2054 C 0.45499 0.11608 0.08996 0.0
C2055 C 0.44868 0.13766 0.05073 0.0
C2056 C 0.45465 0.13243 0.06783 0.0
C2057 C 0.47237 0.11738 0.11765 0.0
C2058 C 0.46619 0.12256 0.1007 0.0
H2059 H 0.45075 0.15447 0.9765 0.0
H2060 H 0.46008 0.14513 0.00329 0.0
H2061 H 0.44066 0.11581 0.06611 0.0
H2062 H 0.46845 0.09568 0.17415 0.0
H2063 H 0.45827 0.10412 0.14739 0.0
C2064 C 0.85658 0.301 0.99386 0.0
C2065 C 0.85233 0.29166 0.01777 0.0
C2066 C 0.86261 0.31163 0.00948 0.0
C2067 C 0.87754 0.32664 0.09845 0.0
H2068 H 0.87403 0.35028 0.05502 0.0
C2069 C 0.89296 0.36885 0.17402 0.0
C2070 C 0.89842 0.37833 0.15089 0.0
C2071 C 0.88781 0.35831 0.15742 0.0
C2072 C 0.87518 0.34379 0.06722 0.0
H2073 H 0.85044 0.28613 0.07697 0.0
H2074 H 0.86082 0.3046 0.10434 0.0
H2075 H 0.86407 0.33186 0.02679 0.0
H2076 H 0.90234 0.38422 0.09208 0.0
H2077 H 0.89344 0.36585 0.06312 0.0
H2078 H 0.88846 0.33859 0.13947 0.0
C2079 C 0.85993 0.30377 0.07336 0.0
C2080 C 0.86949 0.33322 0.05098 0.0
C2081 C 0.854 0.29315 0.05767 0.0
C2082 C 0.89851 0.37708 0.11078 0.0
C2083 C 0.89326 0.36656 0.09414 0.0
C2084 C 0.88314 0.33719 0.11491 0.0
C2085 C 0.86435 0.31317 0.0495 0.0
C2086 C 0.87057 0.32449 0.06639 0.0
C2087 C 0.88784 0.35705 0.11726 0.0
C2088 C 0.88202 0.34588 0.09949 0.0
H2089 H 0.85536 0.30007 0.96298 0.0
H2090 H 0.86599 0.31864 0.9901 0.0
H2091 H 0.87875 0.3202 0.11071 0.0
H2092 H 0.89268 0.36959 0.205 0.0
H2093 H 0.88358 0.35115 0.17596 0.0
C2094 C 0.62652 0.52457 0.10575 0.0
C2095 C 0.6251 0.52279 0.14565 0.0
C2096 C 0.63712 0.53022 0.08972 0.0
C2097 C 0.6662 0.53809 0.11107 0.0
H2098 H 0.67266 0.55753 0.02323 0.0
C2099 C 0.7105 0.56535 0.05304 0.0
C2100 C 0.71188 0.56558 0.01295 0.0
C2101 C 0.69993 0.56048 0.06915 0.0
C2102 C 0.67095 0.55206 0.04758 0.0
H2103 H 0.63364 0.52553 0.20007 0.0
H2104 H 0.65215 0.53565 0.17238 0.0
H2105 H 0.65425 0.54866 0.052 0.0
H2106 H 0.70336 0.56067 0.95825 0.0
H2107 H 0.68478 0.55219 0.98639 0.0
H2108 H 0.68293 0.5416 0.10683 0.0
C2109 C 0.6451 0.53254 0.15326 0.0
C2110 C 0.66039 0.54695 0.06406 0.0
C2111 C 0.63449 0.52681 0.16921 0.0
C2112 C 0.70249 0.56073 0.98923 0.0
C2113 C 0.69189 0.55594 0.00533 0.0
C2114 C 0.67676 0.54327 0.09479 0.0
C2115 C 0.64656 0.53424 0.11323 0.0
C2116 C 0.65786 0.53988 0.096 0.0
C2117 C 0.6905 0.55571 0.0455 0.0
C2118 C 0.67926 0.55029 0.06283 0.0
H2119 H 0.61946 0.52123 0.08665 0.0
H2120 H 0.63789 0.53114 0.05873 0.0
H2121 H 0.66452 0.53253 0.13508 0.0
H2122 H 0.71761 0.56873 0.07201 0.0
H2123 H 0.69914 0.56046 0.10018 0.0
C2124 C 0.56791 0.85887 0.94674 0.0
C2125 C 0.56394 0.85247 0.98047 0.0
C2126 C 0.56262 0.86428 0.93146 0.0
C2127 C 0.53592 0.86176 0.92079 0.0
H2128 H 0.55105 0.89347 0.90502 0.0
C2129 C 0.51214 0.88336 0.87046 0.0
C2130 C 0.51763 0.89291 0.8478 0.0
C2131 C 0.51795 0.87865 0.8869 0.0
C2132 C 0.54671 0.88458 0.90847 0.0
H2133 H 0.551 0.84654 0.02375 0.0
H2134 H 0.54155 0.85565 0.99603 0.0
H2135 H 0.56102 0.88493 0.93284 0.0
H2136 H 0.53338 0.90487 0.82334 0.0
H2137 H 0.5435 0.89637 0.85028 0.0
H2138 H 0.52178 0.86117 0.89497 0.0
C2139 C 0.54895 0.85667 0.98216 0.0
C2140 C 0.55244 0.87973 0.92473 0.0
C2141 C 0.55438 0.85147 0.99796 0.0
C2142 C 0.529 0.89757 0.84119 0.0
C2143 C 0.53479 0.89272 0.85691 0.0
C2144 C 0.53026 0.86656 0.90373 0.0
C2145 C 0.55303 0.86313 0.94882 0.0
C2146 C 0.54706 0.8683 0.93131 0.0
C2147 C 0.52937 0.88321 0.88024 0.0
C2148 C 0.53553 0.87806 0.89759 0.0
H2149 H 0.57483 0.85943 0.93101 0.0
H2150 H 0.56579 0.86906 0.90526 0.0
H2151 H 0.53165 0.8529 0.92516 0.0
H2152 H 0.50338 0.87968 0.87626 0.0
H2153 H 0.51347 0.87152 0.90534 0.0
C2154 C 0.1003 0.62487 0.89035 0.0
C2155 C 0.10056 0.62343 0.85041 0.0
C2156 C 0.10508 0.63549 0.90622 0.0
C2157 C 0.11449 0.66466 0.88317 0.0
H2158 H 0.13373 0.67088 0.97138 0.0
C2159 C 0.1438 0.70924 0.93665 0.0
C2160 C 0.14582 0.711 0.97634 0.0
C2161 C 0.13758 0.69851 0.92196 0.0
C2162 C 0.12824 0.66928 0.94719 0.0
H2163 H 0.10605 0.63195 0.7958 0.0
H2164 H 0.11434 0.65052 0.82348 0.0
H2165 H 0.12398 0.65228 0.94476 0.0
H2166 H 0.1429 0.70296 0.03182 0.0
H2167 H 0.13178 0.68425 0.00651 0.0
H2168 H 0.11867 0.68162 0.8857 0.0
C2169 C 0.11033 0.64344 0.84248 0.0
C2170 C 0.12267 0.65859 0.93186 0.0
C2171 C 0.10564 0.63282 0.82666 0.0
C2172 C 0.14144 0.70183 0.00108 0.0
C2173 C 0.13514 0.69111 0.98649 0.0
C2174 C 0.11999 0.67533 0.89873 0.0
C2175 C 0.11021 0.64489 0.8825 0.0
C2176 C 0.11579 0.65617 0.89953 0.0
C2177 C 0.13321 0.68928 0.94665 0.0
C2178 C 0.12701 0.67782 0.93082 0.0
H2179 H 0.09677 0.61784 0.90956 0.0
H2180 H 0.10484 0.63633 0.93715 0.0
H2181 H 0.10915 0.66302 0.8585 0.0
H2182 H 0.14739 0.7161 0.91668 0.0
H2183 H 0.13651 0.69746 0.89108 0.0
C2184 C 0.37246 0.47069 0.85146 0.0
C2185 C 0.37898 0.48223 0.85361 0.0
C2186 C 0.36192 0.46524 0.86822 0.0
C2187 C 0.34019 0.47082 0.90768 0.0
H2188 H 0.32795 0.44112 0.94832 0.0
C2189 C 0.30057 0.44933 0.00108 0.0
C2190 C 0.29223 0.4392 0.98617 0.0
C2191 C 0.31131 0.45436 0.98619 0.0
C2192 C 0.3313 0.44942 0.93702 0.0
H2193 H 0.37987 0.49713 0.87577 0.0
H2194 H 0.36187 0.4877 0.9067 0.0
H2195 H 0.3465 0.45038 0.92054 0.0
H2196 H 0.28861 0.42684 0.94197 0.0
H2197 H 0.30749 0.43526 0.91789 0.0
H2198 H 0.32508 0.46992 0.92565 0.0
C2199 C 0.36453 0.48278 0.89081 0.0
C2200 C 0.34189 0.45472 0.92078 0.0
C2201 C 0.37492 0.48822 0.87332 0.0
C2202 C 0.2949 0.43427 0.95582 0.0
C2203 C 0.30569 0.43918 0.94152 0.0
C2204 C 0.32973 0.46562 0.92467 0.0
C2205 C 0.35779 0.47121 0.88815 0.0
C2206 C 0.3465 0.4655 0.90573 0.0
C2207 C 0.31395 0.44931 0.95633 0.0
C2208 C 0.32518 0.45487 0.93935 0.0
H2209 H 0.37539 0.46591 0.83604 0.0
H2210 H 0.35697 0.45637 0.86485 0.0
H2211 H 0.34324 0.47898 0.89559 0.0
H2212 H 0.29876 0.45343 0.02406 0.0
H2213 H 0.31755 0.46221 0.99795 0.0
C2214 C 0.1053 0.47846 0.39009 0.0
C2215 C 0.10587 0.48061 0.35042 0.0
C2216 C 0.10992 0.47242 0.40541 0.0
C2217 C 0.13035 0.46353 0.38321 0.0
H2218 H 0.11626 0.44354 0.46894 0.0
C2219 C 0.14604 0.43506 0.44126 0.0
C2220 C 0.14705 0.43482 0.48141 0.0
C2221 C 0.14046 0.44002 0.42474 0.0
C2222 C 0.12032 0.44914 0.44514 0.0
H2223 H 0.11181 0.47825 0.29571 0.0
H2224 H 0.11964 0.46745 0.32213 0.0
H2225 H 0.10754 0.45329 0.44072 0.0
H2226 H 0.14322 0.43968 0.53579 0.0
H2227 H 0.13334 0.44828 0.50699 0.0
H2228 H 0.14308 0.45929 0.38751 0.0
C2229 C 0.11576 0.47054 0.34164 0.0
C2230 C 0.11535 0.45477 0.429 0.0
C2231 C 0.11122 0.47668 0.3264 0.0
C2232 C 0.14239 0.43962 0.50477 0.0
C2233 C 0.13671 0.44449 0.48828 0.0
C2234 C 0.13527 0.45784 0.39914 0.0
C2235 C 0.11521 0.46836 0.38142 0.0
C2236 C 0.12033 0.4621 0.39794 0.0
C2237 C 0.13579 0.44486 0.44804 0.0
C2238 C 0.13034 0.45062 0.43042 0.0
H2239 H 0.10162 0.48175 0.40956 0.0
H2240 H 0.10957 0.47117 0.43626 0.0
H2241 H 0.13456 0.46925 0.35984 0.0
H2242 H 0.14992 0.4318 0.42252 0.0
H2243 H 0.13989 0.44016 0.39366 0.0
C2244 C 0.51226 0.62674 0.37833 0.0
C2245 C 0.51754 0.62288 0.35367 0.0
C2246 C 0.51811 0.6373 0.39439 0.0
C2247 C 0.54684 0.66088 0.41051 0.0
H2248 H 0.53114 0.67667 0.43148 0.0
C2249 C 0.56742 0.7078 0.44722 0.0
C2250 C 0.56363 0.71028 0.4813 0.0
C2251 C 0.56219 0.69703 0.4326 0.0
C2252 C 0.5356 0.67232 0.42594 0.0
H2253 H 0.53297 0.62708 0.32552 0.0
H2254 H 0.54311 0.64575 0.35197 0.0
H2255 H 0.52132 0.65836 0.40262 0.0
H2256 H 0.55109 0.70328 0.5259 0.0
H2257 H 0.54174 0.68458 0.49938 0.0
H2258 H 0.56125 0.67522 0.43242 0.0
C2259 C 0.53457 0.64051 0.36031 0.0
C2260 C 0.52997 0.66177 0.40962 0.0
C2261 C 0.52876 0.62983 0.34491 0.0
C2262 C 0.55431 0.7017 0.49979 0.0
C2263 C 0.54895 0.69099 0.48469 0.0
C2264 C 0.55251 0.67154 0.42608 0.0
C2265 C 0.52933 0.64441 0.38539 0.0
C2266 C 0.53546 0.65582 0.40196 0.0
C2267 C 0.55285 0.68856 0.45098 0.0
C2268 C 0.54692 0.67731 0.43422 0.0
H2269 H 0.50364 0.62149 0.38582 0.0
H2270 H 0.5138 0.63981 0.41425 0.0
H2271 H 0.55136 0.65656 0.40578 0.0
H2272 H 0.57414 0.71416 0.43079 0.0
H2273 H 0.56521 0.69538 0.40611 0.0
C2274 C 0.30074 0.8535 0.49481 0.0
C2275 C 0.29208 0.85396 0.47576 0.0
C2276 C 0.31151 0.85907 0.48017 0.0
C2277 C 0.33086 0.88233 0.42261 0.0
H2278 H 0.34456 0.86483 0.39857 0.0
C2279 C 0.37294 0.90119 0.34293 0.0
C2280 C 0.3799 0.89691 0.35117 0.0
C2281 C 0.36222 0.89619 0.3582 0.0
C2282 C 0.34102 0.86994 0.40577 0.0
H2283 H 0.28816 0.86035 0.42466 0.0
H2284 H 0.30699 0.87059 0.40085 0.0
H2285 H 0.32615 0.85596 0.42671 0.0
H2286 H 0.38134 0.88431 0.38253 0.0
H2287 H 0.36299 0.87595 0.41082 0.0
H2288 H 0.3458 0.8964 0.40326 0.0
C2289 C 0.30536 0.86596 0.42741 0.0
C2290 C 0.33041 0.8648 0.42166 0.0
C2291 C 0.29454 0.86018 0.44156 0.0
C2292 C 0.37606 0.88769 0.3754 0.0
C2293 C 0.36548 0.88284 0.39136 0.0
C2294 C 0.34159 0.88754 0.40751 0.0
C2295 C 0.31391 0.86537 0.44639 0.0
C2296 C 0.32523 0.87093 0.43012 0.0
C2297 C 0.35832 0.88692 0.38266 0.0
C2298 C 0.34684 0.88142 0.39878 0.0
H2299 H 0.2992 0.84875 0.52103 0.0
H2300 H 0.31798 0.85848 0.49528 0.0
H2301 H 0.32703 0.88723 0.42909 0.0
H2302 H 0.37569 0.90824 0.32395 0.0
H2303 H 0.35696 0.89949 0.35015 0.0
C2304 C 0.24719 0.10285 0.94744 0.0
C2305 C 0.25469 0.11048 0.9207 0.0
C2306 C 0.24371 0.1065 0.97929 0.0
C2307 C 0.24283 0.131 0.01749 0.0
H2308 H 0.24417 0.11937 0.11738 0.0
C2309 C 0.25242 0.1557 0.1582 0.0
C2310 C 0.24787 0.15008 0.19274 0.0
C2311 C 0.25001 0.14989 0.12347 0.0
C2312 C 0.2435 0.12256 0.08971 0.0
H2313 H 0.26419 0.12793 0.90621 0.0
H2314 H 0.25827 0.13422 0.96143 0.0
H2315 H 0.24613 0.11075 0.05927 0.0
H2316 H 0.23694 0.13419 0.21852 0.0
H2317 H 0.23254 0.12396 0.15763 0.0
H2318 H 0.24068 0.14312 0.04807 0.0
C2319 C 0.25494 0.12541 0.95773 0.0
C2320 C 0.24464 0.11761 0.05634 0.0
C2321 C 0.25843 0.12179 0.92615 0.0
C2322 C 0.24036 0.13868 0.19196 0.0
C2323 C 0.23798 0.13284 0.15724 0.0
C2324 C 0.24172 0.13597 0.05085 0.0
C2325 C 0.24761 0.11785 0.98488 0.0
C2326 C 0.24465 0.12198 0.01987 0.0
C2327 C 0.24309 0.13833 0.1228 0.0
C2328 C 0.24236 0.132 0.08738 0.0
H2329 H 0.24412 0.09408 0.94406 0.0
H2330 H 0.23801 0.10045 0.99958 0.0
H2331 H 0.24257 0.13443 0.9898 0.0
H2332 H 0.25843 0.16445 0.15844 0.0
H2333 H 0.2542 0.15436 0.09762 0.0
C2334 C 0.89441 0.14477 0.95106 0.0
C2335 C 0.88768 0.14435 0.92026 0.0
C2336 C 0.88984 0.13759 0.98253 0.0
C2337 C 0.86291 0.12095 0.03133 0.0
H2338 H 0.87837 0.10923 0.08996 0.0
C2339 C 0.84287 0.09517 0.16597 0.0
C2340 C 0.84967 0.09878 0.19858 0.0
C2341 C 0.84748 0.09837 0.1292 0.0
C2342 C 0.87395 0.11244 0.07384 0.0
H2343 H 0.87099 0.1356 0.89734 0.0
H2344 H 0.86314 0.12301 0.95137 0.0
H2345 H 0.88665 0.11967 0.03086 0.0
H2346 H 0.86653 0.10788 0.21892 0.0
H2347 H 0.87466 0.11349 0.15479 0.0
H2348 H 0.85035 0.11398 0.07441 0.0
C2349 C 0.87187 0.12908 0.95198 0.0
C2350 C 0.87871 0.11846 0.04007 0.0
C2351 C 0.8764 0.13629 0.92084 0.0
C2352 C 0.86117 0.1049 0.19395 0.0
C2353 C 0.8658 0.10811 0.15723 0.0
C2354 C 0.85815 0.11492 0.06486 0.0
C2355 C 0.87845 0.12979 0.98368 0.0
C2356 C 0.87328 0.12288 0.01857 0.0
C2357 C 0.85897 0.10529 0.12453 0.0
C2358 C 0.86364 0.11067 0.08678 0.0
H2359 H 0.90313 0.15088 0.9515 0.0
H2360 H 0.89515 0.13844 0.00654 0.0
H2361 H 0.85858 0.12442 0.01611 0.0
H2362 H 0.83396 0.09053 0.16906 0.0
H2363 H 0.842 0.0959 0.10456 0.0
C2364 C 0.86778 0.74496 0.92198 0.0
C2365 C 0.85929 0.74757 0.92276 0.0
C2366 C 0.87549 0.74826 0.95182 0.0
C2367 C 0.88605 0.76606 0.03965 0.0
H2368 H 0.89256 0.74336 0.07209 0.0
C2369 C 0.89869 0.76131 0.1935 0.0
C2370 C 0.90532 0.75648 0.1983 0.0
C2371 C 0.89597 0.76318 0.15661 0.0
C2372 C 0.89107 0.74992 0.06302 0.0
H2373 H 0.85249 0.7561 0.95483 0.0
H2374 H 0.86573 0.76157 0.00779 0.0
H2375 H 0.88186 0.74066 0.01417 0.0
H2376 H 0.91504 0.75059 0.16907 0.0
H2377 H 0.91048 0.75403 0.10428 0.0
H2378 H 0.89488 0.77504 0.09002 0.0
C2379 C 0.86658 0.75714 0.98366 0.0
C2380 C 0.88489 0.74837 0.02966 0.0
C2381 C 0.85894 0.75396 0.95341 0.0
C2382 C 0.91002 0.75445 0.16591 0.0
C2383 C 0.90728 0.75629 0.12893 0.0
C2384 C 0.8922 0.76758 0.07331 0.0
C2385 C 0.87482 0.75413 0.98365 0.0
C2386 C 0.88216 0.75633 0.01771 0.0
C2387 C 0.89978 0.76016 0.12389 0.0
C2388 C 0.89465 0.75945 0.08564 0.0
H2389 H 0.86841 0.74021 0.89845 0.0
H2390 H 0.88187 0.74604 0.95019 0.0
H2391 H 0.88426 0.77245 0.03107 0.0
H2392 H 0.89486 0.76276 0.21822 0.0
H2393 H 0.89013 0.7661 0.15386 0.0
C2394 C 0.12241 0.25671 0.58897 0.0
C2395 C 0.1112 0.25377 0.58842 0.0
C2396 C 0.1271 0.25418 0.55793 0.0
C2397 C 0.12058 0.23779 0.46706 0.0
H2398 H 0.14965 0.26139 0.43741 0.0
C2399 C 0.13873 0.24422 0.31371 0.0
C2400 C 0.15021 0.24902 0.3095 0.0
C2401 C 0.13398 0.24223 0.35035 0.0
C2402 C 0.14164 0.25459 0.44565 0.0
H2403 H 0.09604 0.24551 0.55528 0.0
H2404 H 0.10432 0.24139 0.50041 0.0
H2405 H 0.14124 0.26308 0.49613 0.0
H2406 H 0.1657 0.25492 0.3395 0.0
H2407 H 0.15742 0.25132 0.40392 0.0
H2408 H 0.12088 0.22956 0.41528 0.0
C2409 C 0.10944 0.24547 0.52522 0.0
C2410 C 0.13678 0.25557 0.47943 0.0
C2411 C 0.1047 0.24789 0.55659 0.0
C2412 C 0.15681 0.25109 0.34224 0.0
C2413 C 0.15208 0.24914 0.37898 0.0
C2414 C 0.12543 0.23685 0.43301 0.0
C2415 C 0.12077 0.24877 0.5252 0.0
C2416 C 0.12614 0.24725 0.49043 0.0
C2417 C 0.14066 0.24511 0.38343 0.0
C2418 C 0.13597 0.24531 0.4217 0.0
H2419 H 0.12762 0.26109 0.6133 0.0
H2420 H 0.13577 0.25661 0.55944 0.0
H2421 H 0.11245 0.23114 0.47488 0.0
H2422 H 0.13353 0.24273 0.28869 0.0
H2423 H 0.1252 0.23922 0.35268 0.0
C2424 C 0.7528 0.8569 0.55134 0.0
C2425 C 0.74728 0.8579 0.58355 0.0
C2426 C 0.75536 0.86407 0.51989 0.0
C2427 C 0.74612 0.88215 0.4752 0.0
H2428 H 0.77155 0.89108 0.40903 0.0
C2429 C 0.75092 0.90682 0.33812 0.0
C2430 C 0.75245 0.90196 0.30517 0.0
C2431 C 0.75288 0.90391 0.37464 0.0
C2432 C 0.76443 0.88867 0.42735 0.0
H2433 H 0.74078 0.86766 0.60911 0.0
H2434 H 0.74552 0.88029 0.55516 0.0
H2435 H 0.76988 0.88101 0.4686 0.0
H2436 H 0.75783 0.8909 0.28365 0.0
H2437 H 0.76135 0.88585 0.34726 0.0
H2438 H 0.74054 0.88958 0.43382 0.0
C2439 C 0.74754 0.87376 0.55337 0.0
C2440 C 0.76344 0.88285 0.46136 0.0
C2441 C 0.74487 0.86653 0.58445 0.0
C2442 C 0.75673 0.89482 0.30886 0.0
C2443 C 0.75874 0.89195 0.34526 0.0
C2444 C 0.74714 0.88801 0.44146 0.0
C2445 C 0.75256 0.87246 0.52023 0.0
C2446 C 0.75417 0.87937 0.48545 0.0
C2447 C 0.75639 0.8961 0.37862 0.0
C2448 C 0.75621 0.8912 0.41681 0.0
H2449 H 0.75478 0.85033 0.5498 0.0
H2450 H 0.75914 0.86275 0.49477 0.0
H2451 H 0.73875 0.87942 0.49247 0.0
H2452 H 0.74752 0.91227 0.33576 0.0
H2453 H 0.75112 0.90735 0.39981 0.0
C2454 C 0.09405 0.84537 0.33812 0.0
C2455 C 0.09899 0.85206 0.30586 0.0
C2456 C 0.09667 0.84994 0.37512 0.0
C2457 C 0.1117 0.87633 0.43061 0.0
H2458 H 0.12131 0.85954 0.4921 0.0
C2459 C 0.14429 0.89576 0.55254 0.0
C2460 C 0.14352 0.88906 0.58393 0.0
C2461 C 0.13688 0.89133 0.52165 0.0
C2462 C 0.11849 0.86428 0.47589 0.0
H2463 H 0.10975 0.86878 0.28608 0.0
H2464 H 0.11429 0.87682 0.35046 0.0
H2465 H 0.11092 0.85155 0.43358 0.0
H2466 H 0.13391 0.87267 0.60871 0.0
H2467 H 0.12087 0.8651 0.55574 0.0
H2468 H 0.11955 0.88919 0.47272 0.0
C2469 C 0.10836 0.86809 0.3476 0.0
C2470 C 0.11248 0.85966 0.44221 0.0
C2471 C 0.10577 0.86351 0.31072 0.0
C2472 C 0.13486 0.87802 0.58465 0.0
C2473 C 0.1274 0.87365 0.55414 0.0
C2474 C 0.11768 0.88095 0.46455 0.0
C2475 C 0.10427 0.86128 0.38028 0.0
C2476 C 0.10917 0.86569 0.41878 0.0
C2477 C 0.12846 0.88015 0.52174 0.0
C2478 C 0.12131 0.87504 0.4873 0.0
H2479 H 0.08888 0.8365 0.33489 0.0
H2480 H 0.09325 0.84451 0.39974 0.0
H2481 H 0.10922 0.88117 0.41327 0.0
H2482 H 0.15086 0.9043 0.55115 0.0
H2483 H 0.13802 0.89657 0.49707 0.0
C2484 C 0.75311 0.89661 0.05019 0.0
C2485 C 0.74729 0.88993 0.08176 0.0
C2486 C 0.75603 0.89217 0.01916 0.0
C2487 C 0.74757 0.86502 0.97406 0.0
H2488 H 0.77338 0.88209 0.91004 0.0
C2489 C 0.75361 0.84573 0.83826 0.0
C2490 C 0.7549 0.85204 0.80529 0.0
C2491 C 0.75552 0.8506 0.87474 0.0
C2492 C 0.76617 0.87722 0.9278 0.0
H2493 H 0.74065 0.87359 0.10673 0.0
H2494 H 0.74606 0.86601 0.05364 0.0
H2495 H 0.77106 0.89021 0.96925 0.0
H2496 H 0.75989 0.86839 0.78373 0.0
H2497 H 0.76339 0.87698 0.8473 0.0
H2498 H 0.74257 0.85212 0.93251 0.0
C2499 C 0.74801 0.87454 0.0519 0.0
C2500 C 0.76479 0.88188 0.96159 0.0
C2501 C 0.74495 0.87891 0.08251 0.0
C2502 C 0.75902 0.86344 0.80892 0.0
C2503 C 0.76099 0.86833 0.84531 0.0
C2504 C 0.749 0.86035 0.94061 0.0
C2505 C 0.75334 0.88101 0.01932 0.0
C2506 C 0.75538 0.8759 0.98487 0.0
C2507 C 0.75876 0.86185 0.87869 0.0
C2508 C 0.75821 0.86643 0.91674 0.0
H2509 H 0.75503 0.90514 0.04881 0.0
H2510 H 0.76003 0.89739 0.99447 0.0
H2511 H 0.74009 0.86021 0.99061 0.0
H2512 H 0.7503 0.83689 0.83598 0.0
H2513 H 0.75386 0.84543 0.89993 0.0
C2514 C 0.15831 0.90083 0.84082 0.0
C2515 C 0.15328 0.90284 0.80937 0.0
C2516 C 0.15313 0.89813 0.87667 0.0
C2517 C 0.14216 0.89436 0.95367 0.0
H2518 H 0.11054 0.8743 0.94923 0.0
C2519 C 0.11928 0.86976 0.08802 0.0
C2520 C 0.11091 0.85877 0.08245 0.0
C2521 C 0.12339 0.8771 0.05702 0.0
C2522 C 0.11938 0.87981 0.95107 0.0
H2523 H 0.1393 0.90431 0.79082 0.0
H2524 H 0.1304 0.9001 0.85421 0.0
H2525 H 0.12036 0.88407 0.89153 0.0
H2526 H 0.09999 0.84685 0.0406 0.0
H2527 H 0.10759 0.85937 0.98584 0.0
H2528 H 0.14143 0.88941 0.01201 0.0
C2529 C 0.13821 0.90032 0.85104 0.0
C2530 C 0.12501 0.88561 0.91797 0.0
C2531 C 0.14338 0.90292 0.8149 0.0
C2532 C 0.10642 0.85532 0.04557 0.0
C2533 C 0.11076 0.86256 0.01424 0.0
C2534 C 0.13658 0.8884 0.98646 0.0
C2535 C 0.14283 0.89748 0.88207 0.0
C2536 C 0.13654 0.89275 0.91855 0.0
C2537 C 0.1195 0.87351 0.01936 0.0
C2538 C 0.12513 0.88082 0.9855 0.0
H2539 H 0.16589 0.9006 0.83695 0.0
H2540 H 0.15692 0.89584 0.89937 0.0
H2541 H 0.15098 0.89997 0.95564 0.0
H2542 H 0.12277 0.87266 0.11638 0.0
H2543 H 0.12981 0.88552 0.06264 0.0
C2544 C 0.09152 0.24834 0.84357 0.0
C2545 C 0.09579 0.24601 0.81067 0.0
C2546 C 0.09458 0.24666 0.88022 0.0
C2547 C 0.10983 0.23523 0.93416 0.0
H2548 H 0.12031 0.26204 0.9941 0.0
C2549 C 0.14274 0.24831 0.05543 0.0
C2550 C 0.14207 0.25434 0.0867 0.0
C2551 C 0.13535 0.24539 0.02447 0.0
C2552 C 0.11726 0.25438 0.9783 0.0
H2553 H 0.10594 0.23949 0.78961 0.0
H2554 H 0.11127 0.23647 0.85344 0.0
H2555 H 0.1096 0.25953 0.93631 0.0
H2556 H 0.13265 0.26137 0.11113 0.0
H2557 H 0.11967 0.25604 0.05807 0.0
H2558 H 0.11776 0.23024 0.97602 0.0
C2559 C 0.10548 0.23946 0.85134 0.0
C2560 C 0.11107 0.25292 0.94505 0.0
C2561 C 0.10241 0.24115 0.81476 0.0
C2562 C 0.13353 0.2569 0.08719 0.0
C2563 C 0.1261 0.25388 0.05661 0.0
C2564 C 0.116 0.23667 0.96768 0.0
C2565 C 0.10202 0.24269 0.88446 0.0
C2566 C 0.10738 0.24341 0.92225 0.0
C2567 C 0.12706 0.24834 0.02436 0.0
C2568 C 0.1199 0.24633 0.98995 0.0
H2569 H 0.08652 0.25225 0.84094 0.0
H2570 H 0.09164 0.24907 0.90519 0.0
H2571 H 0.10706 0.22778 0.91732 0.0
H2572 H 0.14922 0.2462 0.05421 0.0
H2573 H 0.1364 0.2412 1.00002 0.0
C2574 C 0.89636 0.74971 0.45868 0.0
C2575 C 0.89153 0.74829 0.42219 0.0
C2576 C 0.89166 0.75189 0.49075 0.0
C2577 C 0.8647 0.74891 0.52152 0.0
H2578 H 0.88111 0.76271 0.61459 0.0
C2579 C 0.85754 0.75786 0.6913 0.0
C2580 C 0.84808 0.7476 0.69854 0.0
C2581 C 0.86272 0.76008 0.6552 0.0
C2582 C 0.87639 0.75902 0.58867 0.0
H2583 H 0.8786 0.74891 0.38985 0.0
H2584 H 0.87085 0.75341 0.44491 0.0
H2585 H 0.89102 0.76338 0.55618 0.0
H2586 H 0.8364 0.73179 0.67391 0.0
H2587 H 0.84543 0.73544 0.61164 0.0
H2588 H 0.85011 0.74484 0.55351 0.0
C2589 C 0.87788 0.75228 0.44959 0.0
C2590 C 0.88208 0.75923 0.5552 0.0
C2591 C 0.88238 0.7498 0.41785 0.0
C2592 C 0.84362 0.73981 0.66878 0.0
C2593 C 0.8488 0.74196 0.63298 0.0
C2594 C 0.85904 0.74888 0.55468 0.0
C2595 C 0.88218 0.75296 0.4868 0.0
C2596 C 0.87631 0.75392 0.52137 0.0
C2597 C 0.85858 0.75203 0.62586 0.0
C2598 C 0.86476 0.75362 0.58911 0.0
H2599 H 0.90339 0.74853 0.46277 0.0
H2600 H 0.89519 0.75222 0.5188 0.0
H2601 H 0.85985 0.74459 0.49648 0.0
H2602 H 0.86125 0.76393 0.71408 0.0
H2603 H 0.87013 0.76798 0.65068 0.0
C2604 C 0.24828 0.14358 0.44737 0.0
C2605 C 0.25422 0.14288 0.4159 0.0
C2606 C 0.24559 0.13634 0.47864 0.0
C2607 C 0.25491 0.11849 0.52496 0.0
H2608 H 0.22887 0.1091 0.58836 0.0
C2609 C 0.24957 0.094 0.66274 0.0
C2610 C 0.24793 0.09897 0.69517 0.0
C2611 C 0.24764 0.0967 0.62585 0.0
C2612 C 0.23615 0.11162 0.5708 0.0
H2613 H 0.26139 0.13359 0.39151 0.0
H2614 H 0.25643 0.12081 0.44514 0.0
H2615 H 0.23088 0.1192 0.52858 0.0
H2616 H 0.24226 0.10992 0.71534 0.0
H2617 H 0.23873 0.11456 0.65108 0.0
H2618 H 0.26029 0.11113 0.56733 0.0
C2619 C 0.25416 0.12717 0.44651 0.0
C2620 C 0.23735 0.11747 0.53667 0.0
C2621 C 0.25697 0.13448 0.4156 0.0
C2622 C 0.24344 0.10591 0.69057 0.0
C2623 C 0.24144 0.10856 0.65378 0.0
C2624 C 0.25368 0.11259 0.55879 0.0
C2625 C 0.24868 0.12816 0.4789 0.0
C2626 C 0.24684 0.12114 0.51362 0.0
C2627 C 0.244 0.10439 0.62095 0.0
C2628 C 0.24438 0.10924 0.58247 0.0
H2629 H 0.24604 0.14997 0.44847 0.0
H2630 H 0.24147 0.13744 0.50319 0.0
H2631 H 0.26245 0.12136 0.50855 0.0
H2632 H 0.25314 0.08871 0.66577 0.0
H2633 H 0.24956 0.09325 0.60109 0.0
C2634 C 0.89955 0.14145 0.69398 0.0
C2635 C 0.9022 0.15253 0.69602 0.0
C2636 C 0.89651 0.13582 0.65876 0.0
C2637 C 0.89501 0.13945 0.55287 0.0
H2638 H 0.86707 0.11201 0.56068 0.0
C2639 C 0.86352 0.12277 0.42946 0.0
C2640 C 0.85698 0.1113 0.4236 0.0
C2641 C 0.87079 0.12697 0.46057 0.0
C2642 C 0.87498 0.11952 0.55787 0.0
H2643 H 0.9043 0.16662 0.6634 0.0
H2644 H 0.89916 0.15692 0.6018 0.0
H2645 H 0.87737 0.12099 0.61887 0.0
H2646 H 0.85325 0.09526 0.44555 0.0
H2647 H 0.866 0.10263 0.50007 0.0
H2648 H 0.89241 0.13817 0.49189 0.0
C2649 C 0.89952 0.15254 0.62698 0.0
C2650 C 0.88091 0.12468 0.5913 0.0
C2651 C 0.90249 0.15813 0.66218 0.0
C2652 C 0.85811 0.10413 0.44926 0.0
C2653 C 0.86539 0.10835 0.48058 0.0
C2654 C 0.88909 0.13428 0.51943 0.0
C2655 C 0.89608 0.14121 0.62508 0.0
C2656 C 0.89085 0.13486 0.58929 0.0
C2657 C 0.87175 0.11983 0.48679 0.0
C2658 C 0.87884 0.12443 0.52161 0.0
H2659 H 0.8991 0.13696 0.71997 0.0
H2660 H 0.89401 0.12713 0.65819 0.0
H2661 H 0.90272 0.1472 0.55028 0.0
H2662 H 0.86291 0.12857 0.41032 0.0
H2663 H 0.87541 0.13584 0.46474 0.0
C2664 C 0.92037 0.49145 0.50112 0.0
C2665 C 0.91668 0.48455 0.53346 0.0
C2666 C 0.91916 0.48692 0.4643 0.0
C2667 C 0.90655 0.46065 0.40787 0.0
H2668 H 0.93459 0.47536 0.35398 0.0
C2669 C 0.91832 0.43974 0.28647 0.0
C2670 C 0.92503 0.44646 0.25632 0.0
C2671 C 0.9158 0.4444 0.31786 0.0
C2672 C 0.92662 0.47122 0.36811 0.0
H2673 H 0.9082 0.4676 0.55317 0.0
H2674 H 0.90602 0.45962 0.48893 0.0
H2675 H 0.93214 0.48362 0.41175 0.0
H2676 H 0.93387 0.46328 0.23463 0.0
H2677 H 0.9293 0.47131 0.28854 0.0
H2678 H 0.90113 0.44812 0.36433 0.0
C2679 C 0.90975 0.4685 0.49162 0.0
C2680 C 0.9252 0.476 0.40133 0.0
C2681 C 0.91096 0.47305 0.5284 0.0
C2682 C 0.92882 0.45786 0.25761 0.0
C2683 C 0.92623 0.46249 0.28868 0.0
C2684 C 0.90795 0.45587 0.3744 0.0
C2685 C 0.91428 0.47541 0.45933 0.0
C2686 C 0.9152 0.47074 0.42186 0.0
C2687 C 0.91988 0.45588 0.31962 0.0
C2688 C 0.91805 0.46107 0.35427 0.0
H2689 H 0.9249 0.50035 0.50455 0.0
H2690 H 0.92257 0.49246 0.43994 0.0
H2691 H 0.89872 0.45642 0.42293 0.0
H2692 H 0.91525 0.43092 0.28636 0.0
H2693 H 0.91096 0.43906 0.3413 0.0
C2694 C 0.51248 0.43262 0.49305 0.0
C2695 C 0.51835 0.43329 0.52658 0.0
C2696 C 0.51792 0.43581 0.4576 0.0
C2697 C 0.54538 0.45552 0.42104 0.0
H2698 H 0.53205 0.44345 0.32191 0.0
C2699 C 0.56524 0.47833 0.27836 0.0
C2700 C 0.55786 0.47895 0.25229 0.0
C2701 C 0.56126 0.47119 0.31008 0.0
C2702 C 0.53588 0.44694 0.34938 0.0
H2703 H 0.53429 0.43734 0.5498 0.0
H2704 H 0.54386 0.44277 0.48763 0.0
H2705 H 0.52341 0.43304 0.38052 0.0
H2706 H 0.54048 0.47231 0.23885 0.0
H2707 H 0.53363 0.46006 0.29402 0.0
H2708 H 0.5576 0.4696 0.39014 0.0
C2709 C 0.53507 0.43981 0.48858 0.0
C2710 C 0.53094 0.44095 0.38294 0.0
C2711 C 0.5296 0.43658 0.52402 0.0
C2712 C 0.54644 0.47209 0.25828 0.0
C2713 C 0.54248 0.46496 0.28982 0.0
C2714 C 0.55031 0.46151 0.3875 0.0
C2715 C 0.52938 0.43986 0.4552 0.0
C2716 C 0.53548 0.4453 0.41924 0.0
C2717 C 0.54982 0.46447 0.31632 0.0
C2718 C 0.54545 0.45743 0.35133 0.0
H2719 H 0.50385 0.43035 0.49469 0.0
H2720 H 0.5133 0.43586 0.43263 0.0
H2721 H 0.54902 0.4592 0.44853 0.0
H2722 H 0.57409 0.48346 0.27455 0.0
H2723 H 0.56715 0.47094 0.3298 0.0
C2724 C 0.5702 0.09244 0.51891 0.0
C2725 C 0.56915 0.08211 0.52678 0.0
C2726 C 0.56764 0.09472 0.48221 0.0
C2727 C 0.55308 0.09363 0.41543 0.0
H2728 H 0.5538 0.07777 0.32509 0.0
C2729 C 0.52204 0.08299 0.29076 0.0
C2730 C 0.52458 0.0806 0.25426 0.0
C2731 C 0.52945 0.08556 0.32139 0.0
C2732 C 0.55366 0.0825 0.34951 0.0
H2733 H 0.56524 0.06632 0.50259 0.0
H2734 H 0.56049 0.07002 0.43943 0.0
H2735 H 0.56449 0.07874 0.38097 0.0
H2736 H 0.5371 0.07978 0.22015 0.0
H2737 H 0.55037 0.08502 0.27244 0.0
H2738 H 0.54262 0.09779 0.38334 0.0
C2739 C 0.56352 0.07657 0.46061 0.0
C2740 C 0.55969 0.08288 0.38212 0.0
C2741 C 0.56621 0.07439 0.49697 0.0
C2742 C 0.5349 0.08144 0.24826 0.0
C2743 C 0.54246 0.08435 0.27848 0.0
C2744 C 0.54725 0.09349 0.38242 0.0
C2745 C 0.56384 0.08663 0.45295 0.0
C2746 C 0.55915 0.08806 0.41611 0.0
C2747 C 0.53972 0.08608 0.3159 0.0
C2748 C 0.54713 0.08759 0.34935 0.0
H2749 H 0.57235 0.09848 0.54167 0.0
H2750 H 0.56822 0.10264 0.47729 0.0
H2751 H 0.55236 0.09768 0.44093 0.0
H2752 H 0.51408 0.08233 0.2961 0.0
H2753 H 0.52687 0.08664 0.34964 0.0
C2754 C 0.82643 0.59261 0.66863 0.0
C2755 C 0.82086 0.58662 0.63571 0.0
C2756 C 0.82092 0.5905 0.70385 0.0
C2757 C 0.79322 0.58133 0.74044 0.0
H2758 H 0.80701 0.58388 0.83965 0.0
C2759 C 0.77298 0.5837 0.88361 0.0
C2760 C 0.7802 0.59181 0.90972 0.0
C2761 C 0.77713 0.58087 0.85151 0.0
C2762 C 0.80305 0.58319 0.81217 0.0
H2763 H 0.80533 0.57357 0.61342 0.0
H2764 H 0.79558 0.5698 0.67529 0.0
H2765 H 0.81591 0.58239 0.78133 0.0
H2766 H 0.79749 0.60321 0.92248 0.0
H2767 H 0.80464 0.59841 0.86671 0.0
H2768 H 0.78059 0.5826 0.77105 0.0
C2769 C 0.80423 0.57609 0.67396 0.0
C2770 C 0.80814 0.58229 0.77879 0.0
C2771 C 0.80981 0.57814 0.63875 0.0
C2772 C 0.79165 0.59691 0.90313 0.0
C2773 C 0.79578 0.59408 0.87121 0.0
C2774 C 0.78815 0.58228 0.77385 0.0
C2775 C 0.80965 0.58246 0.70666 0.0
C2776 C 0.80343 0.58164 0.74245 0.0
C2777 C 0.7886 0.58605 0.84491 0.0
C2778 C 0.79316 0.58353 0.81003 0.0
H2779 H 0.83489 0.59934 0.6666 0.0
H2780 H 0.8253 0.59566 0.72828 0.0
H2781 H 0.78943 0.58097 0.71286 0.0
H2782 H 0.76411 0.57957 0.88784 0.0
H2783 H 0.77137 0.57459 0.83195 0.0
C2784 C 0.41846 0.19037 0.88507 0.0
C2785 C 0.41384 0.19218 0.91826 0.0
C2786 C 0.42094 0.1973 0.85295 0.0
C2787 C 0.4126 0.2163 0.80986 0.0
H2788 H 0.43601 0.2225 0.73694 0.0
C2789 C 0.41613 0.23971 0.67038 0.0
C2790 C 0.41649 0.23413 0.6374 0.0
C2791 C 0.41848 0.23694 0.70654 0.0
C2792 C 0.42946 0.22087 0.75714 0.0
H2793 H 0.40897 0.20314 0.94491 0.0
H2794 H 0.41362 0.21538 0.8898 0.0
H2795 H 0.435 0.21301 0.79729 0.0
H2796 H 0.42027 0.22193 0.61534 0.0
H2797 H 0.42446 0.21711 0.67826 0.0
H2798 H 0.40692 0.22393 0.76961 0.0
C2799 C 0.41496 0.2084 0.88776 0.0
C2800 C 0.42884 0.21538 0.79163 0.0
C2801 C 0.41234 0.2014 0.9195 0.0
C2802 C 0.42002 0.22637 0.64055 0.0
C2803 C 0.42243 0.22364 0.67656 0.0
C2804 C 0.41327 0.22184 0.77563 0.0
C2805 C 0.41897 0.20626 0.8536 0.0
C2806 C 0.42029 0.21287 0.8182 0.0
C2807 C 0.42127 0.22858 0.71014 0.0
C2808 C 0.42159 0.22403 0.74855 0.0
H2809 H 0.4197 0.18332 0.88325 0.0
H2810 H 0.42394 0.19534 0.8271 0.0
H2811 H 0.40576 0.21433 0.82907 0.0
H2812 H 0.41336 0.24569 0.66848 0.0
H2813 H 0.41765 0.241 0.73186 0.0
C2814 C 0.80512 0.21229 0.9038 0.0
C2815 C 0.8115 0.22376 0.90989 0.0
C2816 C 0.79804 0.20805 0.87217 0.0
C2817 C 0.79422 0.21553 0.77433 0.0
H2818 H 0.76643 0.18788 0.7806 0.0
C2819 C 0.76964 0.1942 0.63723 0.0
C2820 C 0.76657 0.18301 0.63474 0.0
C2821 C 0.7729 0.19974 0.67261 0.0
C2822 C 0.77417 0.19562 0.77835 0.0
H2823 H 0.81516 0.23977 0.88775 0.0
H2824 H 0.80275 0.23234 0.8324 0.0
H2825 H 0.77657 0.19672 0.83944 0.0
H2826 H 0.76408 0.16868 0.66669 0.0
H2827 H 0.76965 0.17822 0.72852 0.0
H2828 H 0.79202 0.21426 0.71323 0.0
C2829 C 0.80333 0.22663 0.85209 0.0
C2830 C 0.77999 0.20067 0.81206 0.0
C2831 C 0.81041 0.23089 0.88392 0.0
C2832 C 0.7662 0.17726 0.66827 0.0
C2833 C 0.76942 0.18276 0.70361 0.0
C2834 C 0.7884 0.21048 0.74062 0.0
C2835 C 0.79713 0.21516 0.84565 0.0
C2836 C 0.79023 0.21055 0.81041 0.0
C2837 C 0.77317 0.19416 0.706 0.0
C2838 C 0.77843 0.20031 0.74213 0.0
H2839 H 0.80571 0.20653 0.92317 0.0
H2840 H 0.79353 0.19919 0.86787 0.0
H2841 H 0.80213 0.22307 0.77191 0.0
H2842 H 0.77015 0.19881 0.61148 0.0
H2843 H 0.77563 0.20848 0.67352 0.0
C2844 C 0.41364 0.17817 0.17725 0.0
C2845 C 0.41905 0.18395 0.14382 0.0
C2846 C 0.4159 0.18363 0.21264 0.0
C2847 C 0.42409 0.21125 0.24835 0.0
H2848 H 0.42151 0.19766 0.34798 0.0
C2849 C 0.41978 0.23097 0.38944 0.0
C2850 C 0.41133 0.22357 0.41415 0.0
C2851 C 0.4233 0.22702 0.35856 0.0
C2852 C 0.42224 0.20158 0.32037 0.0
H2853 H 0.43137 0.19974 0.12081 0.0
H2854 H 0.43553 0.20935 0.18292 0.0
H2855 H 0.4237 0.18898 0.29021 0.0
H2856 H 0.40015 0.20618 0.42614 0.0
H2857 H 0.40617 0.19938 0.3725 0.0
H2858 H 0.42219 0.2236 0.27824 0.0
C2859 C 0.42952 0.20061 0.18191 0.0
C2860 C 0.42352 0.19661 0.28729 0.0
C2861 C 0.42726 0.1951 0.14651 0.0
C2862 C 0.40666 0.21215 0.40773 0.0
C2863 C 0.4102 0.20822 0.37709 0.0
C2864 C 0.42281 0.21621 0.28142 0.0
C2865 C 0.42354 0.19503 0.2151 0.0
C2866 C 0.42415 0.20122 0.25076 0.0
C2867 C 0.41849 0.21559 0.35191 0.0
C2868 C 0.42154 0.21126 0.3177 0.0
H2869 H 0.40709 0.16962 0.1755 0.0
H2870 H 0.41105 0.1791 0.23743 0.0
H2871 H 0.42439 0.21496 0.22066 0.0
H2872 H 0.42359 0.23981 0.39361 0.0
H2873 H 0.42976 0.23292 0.33983 0.0
C2874 C 0.82278 0.23562 0.16853 0.0
C2875 C 0.81721 0.23513 0.1344 0.0
C2876 C 0.817 0.23202 0.20324 0.0
C2877 C 0.78946 0.21176 0.23758 0.0
H2878 H 0.80206 0.22393 0.33743 0.0
C2879 C 0.76951 0.18862 0.38032 0.0
C2880 C 0.77699 0.18824 0.40654 0.0
C2881 C 0.77337 0.19572 0.34841 0.0
C2882 C 0.79843 0.22042 0.30976 0.0
H2883 H 0.80139 0.23083 0.10938 0.0
H2884 H 0.7912 0.22458 0.17034 0.0
H2885 H 0.8108 0.23453 0.27927 0.0
H2886 H 0.79442 0.19525 0.42001 0.0
H2887 H 0.80106 0.20746 0.36473 0.0
H2888 H 0.77733 0.19747 0.26797 0.0
C2889 C 0.80003 0.22778 0.17037 0.0
C2890 C 0.80343 0.2265 0.27645 0.0
C2891 C 0.80586 0.23147 0.13564 0.0
C2892 C 0.78838 0.19528 0.40048 0.0
C2893 C 0.79221 0.20238 0.36886 0.0
C2894 C 0.78446 0.20566 0.27093 0.0
C2895 C 0.80549 0.22771 0.20437 0.0
C2896 C 0.79919 0.22212 0.23988 0.0
C2897 C 0.78478 0.20266 0.34225 0.0
C2898 C 0.78908 0.20978 0.30736 0.0
H2899 H 0.83149 0.23819 0.16792 0.0
H2900 H 0.82146 0.23194 0.22865 0.0
H2901 H 0.78604 0.20807 0.20988 0.0
H2902 H 0.76068 0.18333 0.38413 0.0
H2903 H 0.76742 0.19578 0.32856 0.0
C2904 C 0.8097 0.58113 0.38386 0.0
C2905 C 0.80975 0.58796 0.41371 0.0
C2906 C 0.80228 0.57828 0.35306 0.0
C2907 C 0.78593 0.58874 0.30325 0.0
H2908 H 0.77393 0.56128 0.24613 0.0
C2909 C 0.76142 0.58341 0.1659 0.0
C2910 C 0.76534 0.58021 0.13413 0.0
C2911 C 0.76405 0.58178 0.20329 0.0
C2912 C 0.77721 0.56898 0.26185 0.0
H2913 H 0.80151 0.59648 0.43593 0.0
H2914 H 0.78844 0.59128 0.38308 0.0
H2915 H 0.78414 0.5635 0.30586 0.0
H2916 H 0.77418 0.57198 0.11594 0.0
H2917 H 0.77881 0.56909 0.18114 0.0
H2918 H 0.77931 0.59436 0.25908 0.0
C2919 C 0.79435 0.58841 0.38264 0.0
C2920 C 0.7831 0.57028 0.296 0.0
C2921 C 0.80183 0.59136 0.41311 0.0
C2922 C 0.77102 0.57443 0.1402 0.0
C2923 C 0.77367 0.5728 0.17755 0.0
C2924 C 0.78004 0.58744 0.26936 0.0
C2925 C 0.79467 0.5821 0.35164 0.0
C2926 C 0.78766 0.58024 0.31688 0.0
C2927 C 0.77068 0.57694 0.20946 0.0
C2928 C 0.77572 0.57761 0.2479 0.0
H2929 H 0.8157 0.57838 0.38345 0.0
H2930 H 0.80284 0.57348 0.3296 0.0
H2931 H 0.78951 0.59663 0.31794 0.0
H2932 H 0.75708 0.58795 0.16176 0.0
H2933 H 0.76144 0.58488 0.22728 0.0
C2934 C 0.56321 0.08445 0.78769 0.0
C2935 C 0.55653 0.079 0.7557 0.0
C2936 C 0.55883 0.08726 0.81927 0.0
C2937 C 0.53174 0.07842 0.86466 0.0
H2938 H 0.54821 0.10417 0.92945 0.0
C2939 C 0.51145 0.08363 0.99926 0.0
C2940 C 0.51776 0.08562 0.0327 0.0
C2941 C 0.51646 0.08546 0.96306 0.0
C2942 C 0.54351 0.09695 0.91157 0.0
H2943 H 0.54029 0.07296 0.73053 0.0
H2944 H 0.53281 0.07808 0.78466 0.0
H2945 H 0.55666 0.10218 0.87046 0.0
H2946 H 0.53424 0.09181 0.05531 0.0
H2947 H 0.54305 0.095 0.9922 0.0
H2948 H 0.51872 0.07301 0.90583 0.0
C2949 C 0.54129 0.07986 0.7862 0.0
C2950 C 0.54836 0.09578 0.87788 0.0
C2951 C 0.5456 0.07696 0.75504 0.0
C2952 C 0.52926 0.09032 0.02969 0.0
C2953 C 0.53428 0.09214 0.99355 0.0
C2954 C 0.5269 0.07959 0.8981 0.0
C2955 C 0.54773 0.08475 0.81922 0.0
C2956 C 0.54256 0.08644 0.85416 0.0
C2957 C 0.52786 0.08926 0.95981 0.0
C2958 C 0.53274 0.08881 0.92221 0.0
H2959 H 0.57166 0.08614 0.789 0.0
H2960 H 0.56401 0.09096 0.84429 0.0
H2961 H 0.5271 0.07098 0.8477 0.0
H2962 H 0.50255 0.07995 0.00109 0.0
H2963 H 0.51131 0.08336 0.93761 0.0
C2964 C 0.91463 0.47856 0.78691 0.0
C2965 C 0.92233 0.47877 0.76033 0.0
C2966 C 0.91137 0.47147 0.81881 0.0
C2967 C 0.91135 0.44662 0.85761 0.0
H2968 H 0.9125 0.45966 0.9572 0.0
C2969 C 0.92112 0.43172 0.99835 0.0
C2970 C 0.91677 0.43296 0.03309 0.0
C2971 C 0.91861 0.43504 0.96367 0.0
C2972 C 0.91188 0.45576 0.92964 0.0
H2973 H 0.93239 0.47142 0.74604 0.0
H2974 H 0.92679 0.45921 0.80139 0.0
H2975 H 0.91419 0.47005 0.89885 0.0
H2976 H 0.90607 0.43815 0.05928 0.0
H2977 H 0.90145 0.44381 0.99844 0.0
H2978 H 0.90942 0.43248 0.88848 0.0
C2979 C 0.92318 0.46443 0.79754 0.0
C2980 C 0.91287 0.46175 0.89612 0.0
C2981 C 0.92647 0.47154 0.76591 0.0
C2982 C 0.90935 0.43696 0.03258 0.0
C2983 C 0.90684 0.44032 0.99787 0.0
C2984 C 0.91034 0.44063 0.89112 0.0
C2985 C 0.91567 0.46437 0.82461 0.0
C2986 C 0.91295 0.45738 0.85975 0.0
C2987 C 0.91176 0.43977 0.96318 0.0
C2988 C 0.91091 0.44525 0.92759 0.0
H2989 H 0.91124 0.484 0.78344 0.0
H2990 H 0.90552 0.47157 0.83903 0.0
H2991 H 0.91116 0.44293 0.83 0.0
H2992 H 0.92705 0.42887 0.99835 0.0
H2993 H 0.92267 0.43462 0.93769 0.0
C2994 C 0.57199 0.48977 0.9932 0.0
C2995 C 0.57039 0.48404 0.02786 0.0
C2996 C 0.56871 0.48402 0.95833 0.0
C2997 C 0.54747 0.45689 0.92365 0.0
H2998 H 0.56074 0.46883 0.82434 0.0
C2999 C 0.5246 0.43741 0.78066 0.0
C3000 C 0.52474 0.44506 0.754 0.0
C3001 C 0.53167 0.44104 0.81264 0.0
C3002 C 0.55693 0.46538 0.85187 0.0
H3003 H 0.56462 0.46801 0.05377 0.0
H3004 H 0.55906 0.45789 0.99266 0.0
H3005 H 0.57117 0.47727 0.8831 0.0
H3006 H 0.53268 0.46252 0.73963 0.0
H3007 H 0.54484 0.46877 0.79516 0.0
H3008 H 0.53309 0.44525 0.89254 0.0
C3009 C 0.56279 0.46681 0.99226 0.0
C3010 C 0.56291 0.47021 0.88553 0.0
C3011 C 0.5661 0.47258 0.02714 0.0
C3012 C 0.5323 0.45637 0.75957 0.0
C3013 C 0.53937 0.45997 0.7913 0.0
C3014 C 0.5415 0.45205 0.89 0.0
C3015 C 0.56366 0.47242 0.95761 0.0
C3016 C 0.55814 0.46622 0.92186 0.0
C3017 C 0.53908 0.45237 0.81845 0.0
C3018 C 0.54603 0.45644 0.85375 0.0
H3019 H 0.57505 0.49859 0.99337 0.0
H3020 H 0.56938 0.48861 0.93236 0.0
H3021 H 0.54346 0.45368 0.95111 0.0
H3022 H 0.51892 0.42864 0.77719 0.0
H3023 H 0.5313 0.43497 0.83292 0.0
C3024 C 0.59467 0.7896 0.59208 0.0
C3025 C 0.58965 0.77815 0.58576 0.0
C3026 C 0.59158 0.79375 0.62332 0.0
C3027 C 0.57959 0.786 0.72015 0.0
H3028 H 0.57998 0.81392 0.71367 0.0
C3029 C 0.57636 0.80744 0.85678 0.0
C3030 C 0.58486 0.81847 0.85975 0.0
C3031 C 0.574 0.80198 0.82126 0.0
C3032 C 0.57981 0.8061 0.71594 0.0
H3033 H 0.57719 0.76207 0.60699 0.0
H3034 H 0.57177 0.76935 0.66166 0.0
H3035 H 0.58137 0.80508 0.65497 0.0
H3036 H 0.59726 0.83263 0.82848 0.0
H3037 H 0.5931 0.82322 0.76633 0.0
H3038 H 0.57839 0.78719 0.78117 0.0
C3039 C 0.57818 0.77511 0.64248 0.0
C3040 C 0.58063 0.80104 0.68233 0.0
C3041 C 0.58126 0.77094 0.61106 0.0
C3042 C 0.59052 0.82418 0.82652 0.0
C3043 C 0.58813 0.81876 0.79102 0.0
C3044 C 0.57874 0.79104 0.75375 0.0
C3045 C 0.58339 0.78657 0.64918 0.0
C3046 C 0.58086 0.79109 0.68412 0.0
C3047 C 0.58012 0.80748 0.78821 0.0
C3048 C 0.57915 0.80131 0.75214 0.0
H3049 H 0.60115 0.79543 0.57324 0.0
H3050 H 0.5959 0.8026 0.62787 0.0
H3051 H 0.57985 0.77841 0.72269 0.0
H3052 H 0.57204 0.80286 0.88231 0.0
H3053 H 0.56772 0.79332 0.81998 0.0
C3054 C 0.21236 0.80295 0.57707 0.0
C3055 C 0.22359 0.81112 0.577 0.0
C3056 C 0.20782 0.79558 0.60784 0.0
C3057 C 0.21489 0.78522 0.69653 0.0
H3058 H 0.18597 0.77953 0.72931 0.0
C3059 C 0.19761 0.77298 0.85084 0.0
C3060 C 0.18616 0.76624 0.8557 0.0
C3061 C 0.20216 0.77583 0.81394 0.0
C3062 C 0.19394 0.78081 0.72017 0.0
H3063 H 0.23896 0.81775 0.60878 0.0
H3064 H 0.23098 0.80513 0.66323 0.0
H3065 H 0.19403 0.78992 0.67078 0.0
H3066 H 0.17053 0.75659 0.8265 0.0
H3067 H 0.17848 0.76145 0.76164 0.0
H3068 H 0.21492 0.77648 0.74734 0.0
C3069 C 0.2257 0.80424 0.63907 0.0
C3070 C 0.1986 0.78681 0.68648 0.0
C3071 C 0.23028 0.81154 0.60794 0.0
C3072 C 0.17941 0.7617 0.82328 0.0
C3073 C 0.18395 0.76459 0.78628 0.0
C3074 C 0.21025 0.77927 0.73051 0.0
C3075 C 0.21435 0.79629 0.63973 0.0
C3076 C 0.20919 0.78922 0.67436 0.0
C3077 C 0.19532 0.77207 0.78125 0.0
C3078 C 0.19977 0.77712 0.74294 0.0
H3079 H 0.207 0.80228 0.55341 0.0
H3080 H 0.19913 0.78941 0.60677 0.0
H3081 H 0.22298 0.78676 0.68783 0.0
H3082 H 0.20292 0.7767 0.8756 0.0
H3083 H 0.21092 0.78167 0.81116 0.0
C3084 C 0.23454 0.409 0.82852 0.0
C3085 C 0.23828 0.41704 0.8575 0.0
C3086 C 0.23183 0.41118 0.79222 0.0
C3087 C 0.22863 0.41776 0.71334 0.0
H3088 H 0.21147 0.4326 0.71488 0.0
C3089 C 0.20374 0.41607 0.58009 0.0
C3090 C 0.19317 0.41458 0.5864 0.0
C3091 C 0.21139 0.41933 0.6101 0.0
C3092 C 0.21617 0.42837 0.71389 0.0
H3093 H 0.24274 0.43387 0.87115 0.0
H3094 H 0.23829 0.4379 0.80683 0.0
H3095 H 0.2215 0.43268 0.7723 0.0
H3096 H 0.18236 0.41569 0.62851 0.0
H3097 H 0.19543 0.42074 0.68175 0.0
H3098 H 0.22264 0.41261 0.65641 0.0
C3099 C 0.23729 0.42982 0.81236 0.0
C3100 C 0.22212 0.42859 0.74673 0.0
C3101 C 0.23999 0.4276 0.84894 0.0
C3102 C 0.1905 0.41683 0.62294 0.0
C3103 C 0.19806 0.4198 0.65338 0.0
C3104 C 0.22257 0.41737 0.68085 0.0
C3105 C 0.23283 0.4215 0.78392 0.0
C3106 C 0.22817 0.42301 0.74723 0.0
C3107 C 0.20853 0.42082 0.6476 0.0
C3108 C 0.21602 0.42245 0.68085 0.0
H3109 H 0.23303 0.40076 0.83474 0.0
H3110 H 0.22826 0.40448 0.77158 0.0
H3111 H 0.23337 0.41356 0.71228 0.0
H3112 H 0.20605 0.41453 0.55195 0.0
H3113 H 0.21946 0.42039 0.60394 0.0
C3114 C 0.44016 0.91712 0.21329 0.0
C3115 C 0.44689 0.92299 0.24471 0.0
C3116 C 0.44459 0.91423 0.1821 0.0
C3117 C 0.47166 0.92334 0.13607 0.0
H3118 H 0.45543 0.89699 0.07376 0.0
C3119 C 0.49188 0.91772 0.00218 0.0
C3120 C 0.48544 0.91544 0.9689 0.0
C3121 C 0.48696 0.91598 0.03851 0.0
C3122 C 0.46007 0.90438 0.09096 0.0
H3123 H 0.46328 0.92969 0.26935 0.0
H3124 H 0.47085 0.92442 0.21593 0.0
H3125 H 0.44703 0.8992 0.13252 0.0
H3126 H 0.46886 0.90887 0.94675 0.0
H3127 H 0.46021 0.90582 0.01011 0.0
H3128 H 0.48456 0.92867 0.09445 0.0
C3129 C 0.46228 0.92238 0.21448 0.0
C3130 C 0.45524 0.90567 0.12452 0.0
C3131 C 0.45792 0.92537 0.24525 0.0
C3132 C 0.47393 0.91056 0.97225 0.0
C3133 C 0.469 0.90883 0.00853 0.0
C3134 C 0.47648 0.92203 0.1028 0.0
C3135 C 0.45579 0.91706 0.18198 0.0
C3136 C 0.46096 0.91522 0.14731 0.0
C3137 C 0.47553 0.912 0.04204 0.0
C3138 C 0.47072 0.9126 0.07958 0.0
H3139 H 0.43162 0.91516 0.21209 0.0
H3140 H 0.43936 0.91019 0.15746 0.0
H3141 H 0.47623 0.93093 0.15229 0.0
H3142 H 0.50079 0.92157 1.00008 0.0
H3143 H 0.49219 0.91833 0.06379 0.0
C3144 C 0.08828 0.52356 0.21684 0.0
C3145 C 0.08012 0.52267 0.24272 0.0
C3146 C 0.09142 0.53081 0.18541 0.0
C3147 C 0.09003 0.55497 0.14684 0.0
H3148 H 0.09109 0.54303 0.04726 0.0
C3149 C 0.0813 0.56998 0.00395 0.0
C3150 C 0.08625 0.56911 0.97006 0.0
C3151 C 0.08358 0.56671 0.03921 0.0
C3152 C 0.09109 0.54664 0.07485 0.0
H3153 H 0.06911 0.52897 0.25624 0.0
H3154 H 0.0745 0.54146 0.20163 0.0
H3155 H 0.08925 0.53249 0.10527 0.0
H3156 H 0.09779 0.56468 0.94612 0.0
H3157 H 0.10204 0.5592 0.00796 0.0
H3158 H 0.09151 0.56897 0.11625 0.0
C3159 C 0.07856 0.53665 0.20571 0.0
C3160 C 0.09001 0.54056 0.10819 0.0
C3161 C 0.0754 0.52939 0.23692 0.0
C3162 C 0.09405 0.5656 0.97214 0.0
C3163 C 0.09634 0.56232 0.00743 0.0
C3164 C 0.09113 0.56107 0.11349 0.0
C3165 C 0.08653 0.53738 0.17931 0.0
C3166 C 0.08917 0.54451 0.14452 0.0
C3167 C 0.09079 0.56241 0.04115 0.0
C3168 C 0.09139 0.55685 0.07698 0.0
H3169 H 0.09212 0.51854 0.22048 0.0
H3170 H 0.09764 0.53124 0.16577 0.0
H3171 H 0.08962 0.55836 0.17444 0.0
H3172 H 0.07506 0.57241 0.00272 0.0
H3173 H 0.07904 0.56678 0.06439 0.0
C3174 C 0.43864 0.52904 0.97761 0.0
C3175 C 0.4321 0.51757 0.9728 0.0
C3176 C 0.44119 0.53364 0.01448 0.0
C3177 C 0.44585 0.52551 0.10874 0.0
H3178 H 0.45202 0.55473 0.13963 0.0
C3179 C 0.46861 0.54434 0.24997 0.0
C3180 C 0.47702 0.55548 0.2489 0.0
C3181 C 0.46096 0.53979 0.22007 0.0
C3182 C 0.45039 0.54658 0.13135 0.0
H3183 H 0.42239 0.50194 0.0019 0.0
H3184 H 0.42671 0.50996 0.06673 0.0
H3185 H 0.44165 0.54648 0.08041 0.0
H3186 H 0.48373 0.57071 0.21631 0.0
H3187 H 0.47058 0.56268 0.16319 0.0
H3188 H 0.45498 0.52571 0.15818 0.0
C3189 C 0.42996 0.51541 0.04209 0.0
C3190 C 0.4444 0.54183 0.09755 0.0
C3191 C 0.42738 0.51082 0.00511 0.0
C3192 C 0.47734 0.5621 0.21792 0.0
C3193 C 0.46975 0.55749 0.18759 0.0
C3194 C 0.45187 0.53026 0.14225 0.0
C3195 C 0.4373 0.52681 0.04718 0.0
C3196 C 0.4422 0.5313 0.08558 0.0
C3197 C 0.46161 0.54621 0.18791 0.0
C3198 C 0.45438 0.54092 0.15379 0.0
H3199 H 0.44246 0.53435 0.95291 0.0
H3200 H 0.44693 0.54242 0.01729 0.0
H3201 H 0.44454 0.5175 0.09997 0.0
H3202 H 0.46801 0.53906 0.27379 0.0
H3203 H 0.45464 0.53116 0.22189 0.0
C3204 C 0.08452 0.56336 0.71141 0.0
C3205 C 0.07959 0.55665 0.74384 0.0
C3206 C 0.08722 0.55916 0.67906 0.0
C3207 C 0.07911 0.53222 0.63327 0.0
H3208 H 0.10419 0.5494 0.56641 0.0
C3209 C 0.08494 0.5122 0.4989 0.0
C3210 C 0.08648 0.51825 0.46507 0.0
C3211 C 0.08667 0.51735 0.53481 0.0
C3212 C 0.09715 0.5445 0.58484 0.0
H3213 H 0.07437 0.54052 0.76872 0.0
H3214 H 0.07931 0.53336 0.71325 0.0
H3215 H 0.10209 0.55769 0.62563 0.0
H3216 H 0.09177 0.53447 0.44151 0.0
H3217 H 0.0948 0.54353 0.50411 0.0
H3218 H 0.074 0.51913 0.5925 0.0
C3219 C 0.08076 0.54173 0.71201 0.0
C3220 C 0.09592 0.54927 0.61868 0.0
C3221 C 0.07796 0.54587 0.74397 0.0
C3222 C 0.09065 0.52969 0.46741 0.0
C3223 C 0.09236 0.53486 0.50327 0.0
C3224 C 0.08035 0.52747 0.59969 0.0
C3225 C 0.08514 0.54819 0.6787 0.0
C3226 C 0.08684 0.54319 0.64324 0.0
C3227 C 0.0899 0.52864 0.53741 0.0
C3228 C 0.08934 0.53355 0.57487 0.0
H3229 H 0.08589 0.57171 0.71045 0.0
H3230 H 0.09053 0.56436 0.65385 0.0
H3231 H 0.07186 0.52735 0.65086 0.0
H3232 H 0.08166 0.50335 0.49764 0.0
H3233 H 0.0849 0.51237 0.56055 0.0
C3234 C 0.45481 0.53491 0.75446 0.0
C3235 C 0.44567 0.5243 0.74923 0.0
C3236 C 0.45931 0.54217 0.72343 0.0
C3237 C 0.45509 0.54577 0.61857 0.0
H3238 H 0.48708 0.56316 0.62015 0.0
C3239 C 0.49321 0.56443 0.50438 0.0
C3240 C 0.48865 0.56769 0.47476 0.0
C3241 C 0.48821 0.56161 0.5405 0.0
C3242 C 0.47815 0.55833 0.61904 0.0
H3243 H 0.43379 0.51304 0.70791 0.0
H3244 H 0.442 0.52541 0.65302 0.0
H3245 H 0.47733 0.55288 0.67678 0.0
H3246 H 0.47573 0.57128 0.45995 0.0
H3247 H 0.46716 0.56681 0.52389 0.0
H3248 H 0.45606 0.55052 0.55955 0.0
C3249 C 0.44553 0.52836 0.68125 0.0
C3250 C 0.47249 0.55254 0.65197 0.0
C3251 C 0.44083 0.52121 0.71265 0.0
C3252 C 0.47943 0.56885 0.48255 0.0
C3253 C 0.47444 0.56612 0.51897 0.0
C3254 C 0.46079 0.55141 0.58532 0.0
C3255 C 0.455 0.53888 0.68605 0.0
C3256 C 0.46087 0.54598 0.65206 0.0
C3257 C 0.47857 0.56212 0.54806 0.0
C3258 C 0.47242 0.55754 0.58483 0.0
H3259 H 0.45859 0.53755 0.78259 0.0
H3260 H 0.46634 0.55029 0.72876 0.0
H3261 H 0.44616 0.54104 0.61762 0.0
H3262 H 0.5003 0.56343 0.49886 0.0
H3263 H 0.49157 0.55842 0.5617 0.0
C3264 C 0.47978 0.91818 0.71188 0.0
C3265 C 0.47762 0.92116 0.74803 0.0
C3266 C 0.47241 0.9159 0.68127 0.0
C3267 C 0.44964 0.92102 0.65171 0.0
H3268 H 0.44919 0.9042 0.56243 0.0
C3269 C 0.43236 0.91057 0.48329 0.0
C3270 C 0.4344 0.9212 0.47395 0.0
C3271 C 0.43479 0.90835 0.52029 0.0
C3272 C 0.44897 0.90874 0.58734 0.0
H3273 H 0.46576 0.92329 0.78156 0.0
H3274 H 0.45257 0.91859 0.72929 0.0
H3275 H 0.45856 0.90368 0.62052 0.0
H3276 H 0.43984 0.9376 0.49596 0.0
H3277 H 0.44438 0.93395 0.55959 0.0
H3278 H 0.4397 0.92574 0.61916 0.0
C3279 C 0.46017 0.91857 0.72353 0.0
C3280 C 0.45458 0.90863 0.62061 0.0
C3281 C 0.46769 0.92117 0.75372 0.0
C3282 C 0.43819 0.92933 0.50264 0.0
C3283 C 0.44072 0.92718 0.53928 0.0
C3284 C 0.44383 0.92093 0.61885 0.0
C3285 C 0.46258 0.91625 0.68643 0.0
C3286 C 0.45533 0.91508 0.65287 0.0
C3287 C 0.43938 0.91675 0.5484 0.0
C3288 C 0.44377 0.91514 0.58562 0.0
H3289 H 0.48742 0.91817 0.70673 0.0
H3290 H 0.47473 0.91433 0.65324 0.0
H3291 H 0.45002 0.9262 0.67551 0.0
H3292 H 0.4295 0.90419 0.46145 0.0
H3293 H 0.43342 0.90016 0.52638 0.0
C3294 C 0.21437 0.41431 0.07813 0.0
C3295 C 0.22391 0.41352 0.0835 0.0
C3296 C 0.20982 0.41719 0.10872 0.0
C3297 C 0.21455 0.42645 0.21244 0.0
H3298 H 0.18254 0.41117 0.21315 0.0
C3299 C 0.17715 0.40717 0.32956 0.0
C3300 C 0.18191 0.4151 0.35878 0.0
C3301 C 0.18186 0.40926 0.29294 0.0
C3302 C 0.19149 0.41546 0.21367 0.0
H3303 H 0.23634 0.41536 0.12462 0.0
H3304 H 0.22806 0.41967 0.17876 0.0
H3305 H 0.19208 0.41029 0.15654 0.0
H3306 H 0.19486 0.43168 0.37241 0.0
H3307 H 0.20287 0.43564 0.30759 0.0
H3308 H 0.21385 0.43074 0.271 0.0
C3309 C 0.22426 0.41853 0.15072 0.0
C3310 C 0.19703 0.41514 0.18067 0.0
C3311 C 0.22901 0.41598 0.11974 0.0
C3312 C 0.19099 0.42549 0.35011 0.0
C3313 C 0.19567 0.42765 0.31316 0.0
C3314 C 0.20898 0.42656 0.24582 0.0
C3315 C 0.21445 0.41897 0.14588 0.0
C3316 C 0.20865 0.42042 0.17974 0.0
C3317 C 0.1914 0.41941 0.28444 0.0
C3318 C 0.19735 0.42082 0.24725 0.0
H3319 H 0.21037 0.4126 0.05025 0.0
H3320 H 0.20251 0.41779 0.10321 0.0
H3321 H 0.2235 0.43088 0.21275 0.0
H3322 H 0.1702 0.39905 0.33581 0.0
H3323 H 0.17838 0.40259 0.27217 0.0
C3324 C 0.58138 0.80975 0.11227 0.0
C3325 C 0.58951 0.81056 0.08645 0.0
C3326 C 0.57824 0.80257 0.14389 0.0
C3327 C 0.5799 0.77862 0.18348 0.0
H3328 H 0.57887 0.79082 0.28257 0.0
C3329 C 0.59019 0.7652 0.32652 0.0
C3330 C 0.58485 0.76551 0.36025 0.0
C3331 C 0.58771 0.76829 0.29131 0.0
C3332 C 0.57888 0.78716 0.2551 0.0
H3333 H 0.60046 0.80416 0.07322 0.0
H3334 H 0.59511 0.79184 0.12815 0.0
H3335 H 0.58029 0.80104 0.22402 0.0
H3336 H 0.57251 0.76884 0.38403 0.0
H3337 H 0.56804 0.77418 0.32221 0.0
H3338 H 0.57896 0.76495 0.21478 0.0
C3339 C 0.59104 0.79663 0.12387 0.0
C3340 C 0.5797 0.79303 0.22146 0.0
C3341 C 0.59419 0.8038 0.09246 0.0
C3342 C 0.57658 0.76839 0.35811 0.0
C3343 C 0.57414 0.77156 0.32288 0.0
C3344 C 0.57911 0.77276 0.21711 0.0
C3345 C 0.58311 0.79599 0.15024 0.0
C3346 C 0.58055 0.78899 0.18532 0.0
C3347 C 0.57993 0.77188 0.28929 0.0
C3348 C 0.57889 0.77711 0.25338 0.0
H3349 H 0.57757 0.8148 0.10844 0.0
H3350 H 0.57204 0.80221 0.16349 0.0
H3351 H 0.5803 0.77515 0.15604 0.0
H3352 H 0.59675 0.76321 0.32783 0.0
H3353 H 0.59244 0.76858 0.26617 0.0
C3354 C 0.19934 0.78904 0.08727 0.0
C3355 C 0.19172 0.77773 0.0823 0.0
C3356 C 0.20633 0.79277 0.11918 0.0
C3357 C 0.2082 0.78538 0.21896 0.0
H3358 H 0.23771 0.81086 0.21165 0.0
C3359 C 0.23287 0.80712 0.3553 0.0
C3360 C 0.23683 0.81853 0.35519 0.0
C3361 C 0.2295 0.8011 0.32091 0.0
C3362 C 0.2295 0.80372 0.21417 0.0
H3363 H 0.18571 0.76142 0.10675 0.0
H3364 H 0.19798 0.76798 0.16284 0.0
H3365 H 0.22752 0.8019 0.15303 0.0
H3366 H 0.2408 0.83274 0.31969 0.0
H3367 H 0.23509 0.82233 0.25945 0.0
H3368 H 0.21004 0.78743 0.28006 0.0
C3369 C 0.19845 0.77395 0.14193 0.0
C3370 C 0.22365 0.79859 0.1806 0.0
C3371 C 0.19145 0.77019 0.10974 0.0
C3372 C 0.23799 0.82397 0.32016 0.0
C3373 C 0.23469 0.81798 0.28576 0.0
C3374 C 0.21407 0.79049 0.25254 0.0
C3375 C 0.20592 0.78531 0.14714 0.0
C3376 C 0.21279 0.78958 0.18257 0.0
C3377 C 0.23004 0.80642 0.2859 0.0
C3378 C 0.22466 0.79993 0.25053 0.0
H3379 H 0.19983 0.79511 0.06676 0.0
H3380 H 0.21182 0.80159 0.12252 0.0
H3381 H 0.19983 0.77853 0.22158 0.0
H3382 H 0.23174 0.80277 0.38224 0.0
H3383 H 0.22605 0.79222 0.32193 0.0
C3384 C 0.37292 0.23996 0.43301 0.0
C3385 C 0.37515 0.23958 0.47214 0.0
C3386 C 0.36246 0.2379 0.42122 0.0
C3387 C 0.33361 0.22266 0.45726 0.0
H3388 H 0.32734 0.23123 0.35848 0.0
C3389 C 0.28957 0.20017 0.39499 0.0
C3390 C 0.2894 0.19546 0.3591 0.0
C3391 C 0.29956 0.2087 0.40988 0.0
C3392 C 0.32896 0.22885 0.38634 0.0
H3393 H 0.36863 0.23756 0.52986 0.0
H3394 H 0.35065 0.23471 0.50977 0.0
H3395 H 0.34618 0.24093 0.38379 0.0
H3396 H 0.29922 0.1965 0.30935 0.0
H3397 H 0.31648 0.21151 0.33466 0.0
H3398 H 0.31644 0.21044 0.45936 0.0
C3399 C 0.35674 0.23618 0.48784 0.0
C3400 C 0.33978 0.23435 0.40077 0.0
C3401 C 0.36711 0.238 0.49949 0.0
C3402 C 0.29913 0.20003 0.33705 0.0
C3403 C 0.30902 0.20865 0.35153 0.0
C3404 C 0.3228 0.21728 0.44308 0.0
C3405 C 0.35407 0.23553 0.44846 0.0
C3406 C 0.34234 0.23109 0.43588 0.0
C3407 C 0.30946 0.21278 0.38875 0.0
C3408 C 0.3204 0.22006 0.40691 0.0
H3409 H 0.37893 0.24092 0.4114 0.0
H3410 H 0.36076 0.23738 0.39066 0.0
H3411 H 0.33517 0.2197 0.48401 0.0
H3412 H 0.28221 0.19671 0.4127 0.0
H3413 H 0.29965 0.21176 0.43862 0.0
C3414 C 0.76421 0.13113 0.50251 0.0
C3415 C 0.76214 0.13691 0.47378 0.0
C3416 C 0.76584 0.12233 0.4929 0.0
C3417 C 0.76602 0.10497 0.41019 0.0
H3418 H 0.79091 0.10689 0.46638 0.0
C3419 C 0.79889 0.09651 0.34591 0.0
C3420 C 0.80412 0.09231 0.3694 0.0
C3421 C 0.79044 0.09804 0.36047 0.0
C3422 C 0.78378 0.10601 0.45088 0.0
H3423 H 0.75975 0.13789 0.41276 0.0
H3424 H 0.76297 0.12279 0.39548 0.0
H3425 H 0.78223 0.11713 0.48888 0.0
H3426 H 0.80422 0.08578 0.42575 0.0
H3427 H 0.78942 0.08857 0.45168 0.0
H3428 H 0.76822 0.09441 0.37064 0.0
C3429 C 0.76297 0.12471 0.42567 0.0
C3430 C 0.77875 0.1119 0.46383 0.0
C3431 C 0.76111 0.13338 0.43546 0.0
C3432 C 0.8002 0.08889 0.40695 0.0
C3433 C 0.79182 0.09059 0.42183 0.0
C3434 C 0.77116 0.09916 0.39697 0.0
C3435 C 0.7658 0.11934 0.45414 0.0
C3436 C 0.76997 0.11171 0.44318 0.0
C3437 C 0.78716 0.09559 0.39914 0.0
C3438 C 0.78028 0.09985 0.41667 0.0
H3439 H 0.76512 0.13378 0.53226 0.0
H3440 H 0.76766 0.11823 0.51581 0.0
H3441 H 0.75915 0.10441 0.39389 0.0
H3442 H 0.80185 0.0993 0.31693 0.0
H3443 H 0.78712 0.10199 0.3423 0.0
C3444 C 0.86345 0.62569 0.4118 0.0
C3445 C 0.86323 0.62248 0.45013 0.0
C3446 C 0.87178 0.63604 0.39905 0.0
C3447 C 0.88945 0.66374 0.43987 0.0
H3448 H 0.8981 0.67114 0.33313 0.0
C3449 C 0.90906 0.70873 0.38418 0.0
C3450 C 0.90293 0.70951 0.35349 0.0
C3451 C 0.90762 0.6984 0.39505 0.0
C3452 C 0.89584 0.66921 0.36314 0.0
H3453 H 0.87171 0.62717 0.50487 0.0
H3454 H 0.88655 0.64512 0.48243 0.0
H3455 H 0.88965 0.65193 0.35419 0.0
H3456 H 0.8911 0.70028 0.30854 0.0
H3457 H 0.88878 0.68245 0.32686 0.0
H3458 H 0.89532 0.68098 0.44844 0.0
C3459 C 0.88025 0.63975 0.46216 0.0
C3460 C 0.89096 0.65819 0.37521 0.0
C3461 C 0.87187 0.62941 0.47491 0.0
C3462 C 0.89591 0.69993 0.33242 0.0
C3463 C 0.89464 0.68971 0.34276 0.0
C3464 C 0.89443 0.67477 0.42785 0.0
C3465 C 0.88003 0.64341 0.42454 0.0
C3466 C 0.88729 0.65525 0.41341 0.0
C3467 C 0.90022 0.68876 0.37484 0.0
C3468 C 0.89729 0.67756 0.38905 0.0
H3469 H 0.85669 0.62059 0.39253 0.0
H3470 H 0.87119 0.63856 0.37009 0.0
H3471 H 0.88664 0.66184 0.46939 0.0
H3472 H 0.91449 0.71597 0.40101 0.0
H3473 H 0.91205 0.69791 0.41986 0.0
C3474 C 0.19867 0.30112 0.164 0.0
C3475 C 0.19446 0.2914 0.14203 0.0
C3476 C 0.20737 0.31106 0.15024 0.0
C3477 C 0.21732 0.32511 0.05965 0.0
H3478 H 0.24025 0.34814 0.12228 0.0
C3479 C 0.23936 0.36975 0.00542 0.0
C3480 C 0.24058 0.37768 0.03272 0.0
C3481 C 0.23718 0.35927 0.01711 0.0
C3482 C 0.23387 0.34184 0.10436 0.0
H3483 H 0.19639 0.2843 0.08926 0.0
H3484 H 0.21158 0.30186 0.06451 0.0
H3485 H 0.23006 0.32921 0.1466 0.0
H3486 H 0.24086 0.38112 0.09347 0.0
H3487 H 0.23676 0.36276 0.1142 0.0
H3488 H 0.22045 0.3377 0.0186 0.0
C3489 C 0.20817 0.30171 0.09266 0.0
C3490 C 0.22809 0.33097 0.11823 0.0
C3491 C 0.19955 0.29167 0.10689 0.0
C3492 C 0.2402 0.37519 0.07197 0.0
C3493 C 0.23783 0.36464 0.08374 0.0
C3494 C 0.22298 0.33598 0.04598 0.0
C3495 C 0.21196 0.31157 0.1138 0.0
C3496 C 0.21955 0.32255 0.09644 0.0
C3497 C 0.23585 0.35637 0.0564 0.0
C3498 C 0.23114 0.34458 0.06856 0.0
H3499 H 0.19487 0.30114 0.19118 0.0
H3500 H 0.21 0.31849 0.16706 0.0
H3501 H 0.21067 0.31886 0.04239 0.0
H3502 H 0.23948 0.37147 0.97494 0.0
H3503 H 0.23601 0.35327 0.99518 0.0
C3504 C 0.70945 0.90728 0.09927 0.0
C3505 C 0.71182 0.90714 0.1384 0.0
C3506 C 0.69897 0.90521 0.08774 0.0
C3507 C 0.67026 0.89026 0.12501 0.0
H3508 H 0.66371 0.89827 0.02565 0.0
C3509 C 0.62607 0.86741 0.06376 0.0
C3510 C 0.62584 0.86253 0.02818 0.0
C3511 C 0.63609 0.87599 0.07828 0.0
C3512 C 0.66541 0.89605 0.05368 0.0
H3513 H 0.70553 0.90551 0.19631 0.0
H3514 H 0.68751 0.90263 0.17661 0.0
H3515 H 0.68262 0.90813 0.05033 0.0
H3516 H 0.63559 0.86331 0.97856 0.0
H3517 H 0.6529 0.8784 0.00321 0.0
H3518 H 0.6531 0.87803 0.12789 0.0
C3519 C 0.69351 0.90393 0.15452 0.0
C3520 C 0.67627 0.90164 0.06775 0.0
C3521 C 0.7039 0.90577 0.16594 0.0
C3522 C 0.63555 0.86696 0.00605 0.0
C3523 C 0.64546 0.87563 0.02013 0.0
C3524 C 0.65941 0.88479 0.11117 0.0
C3525 C 0.69069 0.90306 0.11522 0.0
C3526 C 0.67892 0.89857 0.10306 0.0
C3527 C 0.64595 0.87996 0.05704 0.0
C3528 C 0.65692 0.88736 0.0748 0.0
H3529 H 0.71536 0.90805 0.07754 0.0
H3530 H 0.69716 0.9045 0.05724 0.0
H3531 H 0.6719 0.88746 0.15195 0.0
H3532 H 0.61872 0.86407 0.08152 0.0
H3533 H 0.63622 0.8792 0.10679 0.0
C3534 C 0.10975 0.80701 0.15764 0.0
C3535 C 0.10104 0.8084 0.14408 0.0
C3536 C 0.11101 0.79824 0.14493 0.0
C3537 C 0.10535 0.78067 0.06046 0.0
H3538 H 0.12035 0.76913 0.12268 0.0
C3539 C 0.13418 0.7584 0.04642 0.0
C3540 C 0.14111 0.76531 0.01707 0.0
C3541 C 0.12555 0.75981 0.06062 0.0
C3542 C 0.11594 0.77201 0.10486 0.0
H3543 H 0.08643 0.80127 0.10798 0.0
H3544 H 0.08866 0.78582 0.08542 0.0
H3545 H 0.11163 0.77843 0.15362 0.0
H3546 H 0.14386 0.77844 0.97742 0.0
H3547 H 0.12903 0.7809 0.00187 0.0
H3548 H 0.10988 0.77446 0.01161 0.0
C3549 C 0.09456 0.79163 0.10586 0.0
C3550 C 0.11105 0.77749 0.12262 0.0
C3551 C 0.09324 0.80043 0.11891 0.0
C3552 C 0.13872 0.77303 0.00027 0.0
C3553 C 0.13011 0.77437 0.01413 0.0
C3554 C 0.11019 0.77512 0.04271 0.0
C3555 C 0.10361 0.79057 0.11815 0.0
C3556 C 0.10619 0.78239 0.10049 0.0
C3557 C 0.12363 0.76806 0.04537 0.0
C3558 C 0.11604 0.77123 0.06451 0.0
H3559 H 0.11587 0.81294 0.17728 0.0
H3560 H 0.11817 0.79786 0.15466 0.0
H3561 H 0.10168 0.7843 0.04244 0.0
H3562 H 0.13584 0.75239 0.05994 0.0
H3563 H 0.12064 0.75473 0.08446 0.0
C3564 C 0.71067 0.80087 0.60853 0.0
C3565 C 0.71088 0.80603 0.64346 0.0
C3566 C 0.70063 0.79229 0.59412 0.0
C3567 C 0.67121 0.77265 0.6183 0.0
H3568 H 0.6651 0.78079 0.51851 0.0
C3569 C 0.62737 0.76138 0.56984 0.0
C3570 C 0.62515 0.76139 0.53051 0.0
C3571 C 0.63779 0.76344 0.58211 0.0
C3572 C 0.66663 0.7781 0.54589 0.0
H3573 H 0.70105 0.80575 0.69215 0.0
H3574 H 0.68371 0.79067 0.66769 0.0
H3575 H 0.68383 0.79023 0.54323 0.0
H3576 H 0.63163 0.76276 0.47302 0.0
H3577 H 0.64954 0.76561 0.49404 0.0
H3578 H 0.65396 0.76066 0.62138 0.0
C3579 C 0.69118 0.79323 0.65119 0.0
C3580 C 0.67744 0.78358 0.56012 0.0
C3581 C 0.70111 0.8019 0.66514 0.0
C3582 C 0.63316 0.76261 0.50355 0.0
C3583 C 0.64348 0.76443 0.51571 0.0
C3584 C 0.66039 0.76704 0.60384 0.0
C3585 C 0.69073 0.78861 0.61486 0.0
C3586 C 0.67979 0.78118 0.59698 0.0
C3587 C 0.64616 0.76545 0.55517 0.0
C3588 C 0.65788 0.76995 0.56795 0.0
H3589 H 0.71806 0.80397 0.59112 0.0
H3590 H 0.70053 0.78886 0.56607 0.0
H3591 H 0.6728 0.77057 0.64673 0.0
H3592 H 0.62139 0.7607 0.59112 0.0
H3593 H 0.63949 0.76426 0.6127 0.0
C3594 C 0.20106 0.90934 0.60425 0.0
C3595 C 0.19592 0.90428 0.63907 0.0
C3596 C 0.20967 0.90797 0.58958 0.0
C3597 C 0.22945 0.89831 0.61304 0.0
H3598 H 0.22137 0.88423 0.51299 0.0
C3599 C 0.24087 0.86594 0.56372 0.0
C3600 C 0.24085 0.86376 0.52434 0.0
C3601 C 0.23878 0.87426 0.57619 0.0
C3602 C 0.22404 0.88841 0.54045 0.0
H3603 H 0.19624 0.89462 0.68732 0.0
H3604 H 0.21137 0.8925 0.66241 0.0
H3605 H 0.21184 0.89339 0.53809 0.0
H3606 H 0.23947 0.86895 0.46698 0.0
H3607 H 0.23658 0.88395 0.48837 0.0
H3608 H 0.2415 0.89314 0.61583 0.0
C3609 C 0.20878 0.89744 0.64618 0.0
C3610 C 0.21851 0.89366 0.55488 0.0
C3611 C 0.20008 0.89861 0.66038 0.0
C3612 C 0.23962 0.87058 0.49754 0.0
C3613 C 0.23777 0.87905 0.50991 0.0
C3614 C 0.23511 0.89319 0.59837 0.0
C3615 C 0.2134 0.90173 0.60997 0.0
C3616 C 0.22089 0.89835 0.59184 0.0
C3617 C 0.23675 0.88064 0.54941 0.0
C3618 C 0.23222 0.88782 0.5624 0.0
H3619 H 0.19794 0.91367 0.58714 0.0
H3620 H 0.2131 0.91139 0.5616 0.0
H3621 H 0.23151 0.90194 0.64154 0.0
H3622 H 0.24156 0.86061 0.58486 0.0
H3623 H 0.23796 0.8751 0.60681 0.0
C3624 C 0.1373 0.36556 0.51105 0.0
C3625 C 0.14104 0.37536 0.53228 0.0
C3626 C 0.12864 0.35556 0.52464 0.0
C3627 C 0.11811 0.34159 0.61469 0.0
H3628 H 0.0953 0.31851 0.55188 0.0
C3629 C 0.09573 0.29712 0.67054 0.0
C3630 C 0.09422 0.289 0.64365 0.0
C3631 C 0.09805 0.30761 0.65832 0.0
C3632 C 0.10165 0.32482 0.56985 0.0
H3633 H 0.13838 0.38248 0.58366 0.0
H3634 H 0.12332 0.3648 0.60826 0.0
H3635 H 0.10574 0.33736 0.527 0.0
H3636 H 0.09356 0.28523 0.58306 0.0
H3637 H 0.09799 0.30359 0.5614 0.0
H3638 H 0.11477 0.3291 0.65633 0.0
C3639 C 0.12703 0.36495 0.58072 0.0
C3640 C 0.10757 0.33565 0.55565 0.0
C3641 C 0.13558 0.37506 0.56659 0.0
C3642 C 0.09444 0.2913 0.6043 0.0
C3643 C 0.09701 0.30188 0.59198 0.0
C3644 C 0.11234 0.33076 0.62865 0.0
C3645 C 0.12366 0.35506 0.56025 0.0
C3646 C 0.11603 0.3441 0.57758 0.0
C3647 C 0.09929 0.31034 0.61887 0.0
C3648 C 0.1042 0.32212 0.60609 0.0
H3649 H 0.1414 0.36556 0.48455 0.0
H3650 H 0.12633 0.34809 0.50841 0.0
H3651 H 0.1247 0.34789 0.63205 0.0
H3652 H 0.09572 0.29554 0.7011 0.0
H3653 H 0.0994 0.31373 0.67998 0.0
C3654 C 0.79723 0.70567 0.85673 0.0
C3655 C 0.80554 0.7126 0.88255 0.0
C3656 C 0.78858 0.69541 0.86896 0.0
C3657 C 0.77623 0.67731 0.95585 0.0
H3658 H 0.77265 0.65412 0.88585 0.0
C3659 C 0.76972 0.63545 0.0049 0.0
C3660 C 0.76353 0.62595 0.98236 0.0
C3661 C 0.77103 0.64562 0.99363 0.0
C3662 C 0.77329 0.66045 0.90547 0.0
H3663 H 0.81127 0.71455 0.94135 0.0
H3664 H 0.79628 0.6967 0.96292 0.0
H3665 H 0.78203 0.6732 0.86401 0.0
H3666 H 0.75333 0.61949 0.93146 0.0
H3667 H 0.75574 0.63744 0.91121 0.0
H3668 H 0.76806 0.66453 0.99801 0.0
C3669 C 0.79616 0.69918 0.93347 0.0
C3670 C 0.77869 0.67144 0.89293 0.0
C3671 C 0.80476 0.70944 0.92122 0.0
C3672 C 0.75808 0.62668 0.94948 0.0
C3673 C 0.75954 0.63695 0.93777 0.0
C3674 C 0.77088 0.66632 0.96844 0.0
C3675 C 0.7882 0.69183 0.90714 0.0
C3676 C 0.78058 0.68007 0.91834 0.0
C3677 C 0.76631 0.64659 0.95919 0.0
C3678 C 0.7697 0.6578 0.94379 0.0
H3679 H 0.79782 0.70786 0.82655 0.0
H3680 H 0.78253 0.69004 0.848 0.0
H3681 H 0.77733 0.6837 0.97599 0.0
H3682 H 0.77402 0.63512 0.03041 0.0
H3683 H 0.77638 0.65285 0.01062 0.0
C3684 C 0.30329 0.10669 0.83656 0.0
C3685 C 0.29322 0.09857 0.85244 0.0
C3686 C 0.3133 0.10788 0.84913 0.0
C3687 C 0.32533 0.1036 0.93633 0.0
H3688 H 0.35178 0.11794 0.87344 0.0
C3689 C 0.37635 0.13349 0.94958 0.0
C3690 C 0.37615 0.14061 0.97773 0.0
C3691 C 0.36641 0.12457 0.93583 0.0
C3692 C 0.34452 0.11372 0.89151 0.0
H3693 H 0.28571 0.0848 0.89219 0.0
H3694 H 0.30333 0.08684 0.91434 0.0
H3695 H 0.33372 0.10846 0.84273 0.0
H3696 H 0.36548 0.14347 0.01562 0.0
H3697 H 0.34841 0.12824 0.99181 0.0
H3698 H 0.33612 0.109 0.98512 0.0
C3699 C 0.30344 0.09238 0.89232 0.0
C3700 C 0.33412 0.10839 0.87386 0.0
C3701 C 0.29334 0.09114 0.87947 0.0
C3702 C 0.36594 0.13821 0.99365 0.0
C3703 C 0.3561 0.12934 0.98021 0.0
C3704 C 0.33573 0.10883 0.95397 0.0
C3705 C 0.31357 0.10098 0.87805 0.0
C3706 C 0.32438 0.10382 0.89607 0.0
C3707 C 0.35613 0.12258 0.95033 0.0
C3708 C 0.34544 0.1145 0.93185 0.0
H3709 H 0.3035 0.1125 0.81542 0.0
H3710 H 0.32085 0.1147 0.83774 0.0
H3711 H 0.31806 0.10016 0.95449 0.0
H3712 H 0.3841 0.13513 0.93681 0.0
H3713 H 0.36675 0.11946 0.91303 0.0
C3714 C 0.86606 0.24235 0.92544 0.0
C3715 C 0.86415 0.24321 0.96455 0.0
C3716 C 0.87453 0.24036 0.91414 0.0
C3717 C 0.88915 0.22676 0.95457 0.0
H3718 H 0.90214 0.23244 0.85265 0.0
C3719 C 0.90897 0.20205 0.89614 0.0
C3720 C 0.90387 0.19666 0.86165 0.0
C3721 C 0.90782 0.21092 0.9094 0.0
C3722 C 0.89867 0.23087 0.88138 0.0
H3723 H 0.86991 0.24339 0.02244 0.0
H3724 H 0.8851 0.24054 0.00287 0.0
H3725 H 0.89355 0.24292 0.87551 0.0
H3726 H 0.89437 0.19681 0.81258 0.0
H3727 H 0.89261 0.21234 0.83505 0.0
H3728 H 0.89397 0.21449 0.95993 0.0
C3729 C 0.87994 0.24111 0.98077 0.0
C3730 C 0.89368 0.23683 0.89443 0.0
C3731 C 0.87137 0.24294 0.99203 0.0
C3732 C 0.89838 0.20081 0.83931 0.0
C3733 C 0.89742 0.20976 0.8521 0.0
C3734 C 0.89423 0.2209 0.94167 0.0
C3735 C 0.88128 0.23921 0.94182 0.0
C3736 C 0.88848 0.23456 0.93068 0.0
C3737 C 0.90177 0.21467 0.88792 0.0
C3738 C 0.89869 0.2226 0.9044 0.0
H3739 H 0.8604 0.24224 0.90386 0.0
H3740 H 0.87516 0.23884 0.88395 0.0
H3741 H 0.88512 0.22461 0.98239 0.0
H3742 H 0.91318 0.19895 0.91402 0.0
H3743 H 0.9113 0.21458 0.93708 0.0
C3744 C 0.04088 0.57689 0.78978 0.0
C3745 C 0.04103 0.56873 0.81305 0.0
C3746 C 0.03076 0.57606 0.77918 0.0
C3747 C 1.00023 0.55995 0.80019 0.0
H3748 H 0.99723 0.56313 0.69083 0.0
C3749 C 0.95728 0.53704 0.73001 0.0
C3750 C 0.95719 0.5309 0.69788 0.0
C3751 C 0.96733 0.54579 0.74381 0.0
C3752 C 0.9979 0.56223 0.72152 0.0
H3753 H 0.0307 0.55372 0.84541 0.0
H3754 H 0.01339 0.5522 0.82679 0.0
H3755 H 0.01556 0.57059 0.71875 0.0
H3756 H 0.96729 0.52972 0.6529 0.0
H3757 H 0.98457 0.54466 0.67658 0.0
H3758 H 0.98259 0.55069 0.80243 0.0
C3759 C 0.02093 0.55932 0.81679 0.0
C3760 C 0.00846 0.56665 0.73767 0.0
C3761 C 0.03094 0.56012 0.82715 0.0
C3762 C 0.96711 0.53427 0.67791 0.0
C3763 C 0.97706 0.54296 0.69142 0.0
C3764 C 0.98968 0.55539 0.78397 0.0
C3765 C 0.02064 0.56712 0.792 0.0
C3766 C 0.00975 0.56506 0.77688 0.0
C3767 C 0.97742 0.54857 0.72548 0.0
C3768 C 0.98836 0.55597 0.74404 0.0
H3769 H 0.04851 0.58364 0.77853 0.0
H3770 H 0.03086 0.58228 0.76029 0.0
H3771 H 1.0009 0.55885 0.83075 0.0
H3772 H 0.94974 0.5346 0.746 0.0
H3773 H 0.96726 0.55003 0.76981 0.0
C3774 C 0.44009 0.4709 0.82798 0.0
C3775 C 0.43198 0.47289 0.81222 0.0
C3776 C 0.44126 0.46208 0.81528 0.0
C3777 C 0.43687 0.44564 0.72827 0.0
H3778 H 0.45093 0.43334 0.7917 0.0
C3779 C 0.4711 0.43889 0.6716 0.0
C3780 C 0.47349 0.43116 0.68834 0.0
C3781 C 0.46225 0.43997 0.68461 0.0
C3782 C 0.44679 0.43643 0.77346 0.0
H3783 H 0.41823 0.4667 0.7724 0.0
H3784 H 0.42023 0.45111 0.75001 0.0
H3785 H 0.44165 0.44217 0.82202 0.0
H3786 H 0.46798 0.41794 0.7301 0.0
H3787 H 0.45233 0.41977 0.75303 0.0
H3788 H 0.44212 0.44001 0.6797 0.0
C3789 C 0.42578 0.45651 0.77207 0.0
C3790 C 0.44158 0.44165 0.7909 0.0
C3791 C 0.42456 0.46539 0.78506 0.0
C3792 C 0.46633 0.42397 0.71668 0.0
C3793 C 0.45743 0.4251 0.72998 0.0
C3794 C 0.44197 0.4403 0.71084 0.0
C3795 C 0.43435 0.45493 0.78634 0.0
C3796 C 0.4371 0.44687 0.7685 0.0
C3797 C 0.45549 0.43335 0.71485 0.0
C3798 C 0.44754 0.43618 0.73314 0.0
H3799 H 0.4459 0.47646 0.8492 0.0
H3800 H 0.44806 0.46131 0.82667 0.0
H3801 H 0.43349 0.4495 0.70998 0.0
H3802 H 0.4764 0.44451 0.64947 0.0
H3803 H 0.46119 0.44652 0.67247 0.0
C3804 C 0.57617 0.04092 0.72777 0.0
C3805 C 0.57079 0.04136 0.69422 0.0
C3806 C 0.57489 0.0308 0.74044 0.0
C3807 C 0.56492 0.00162 0.71159 0.0
H3808 H 0.55229 0.99443 0.814 0.0
C3809 C 0.5324 0.95761 0.75681 0.0
C3810 C 0.53088 0.95477 0.79591 0.0
C3811 C 0.54078 0.96808 0.74518 0.0
C3812 C 0.55606 0.99627 0.78574 0.0
H3813 H 0.56059 0.03182 0.64616 0.0
H3814 H 0.5586 0.01434 0.66755 0.0
H3815 H 0.5612 0.01343 0.79177 0.0
H3816 H 0.53717 0.96025 0.85338 0.0
H3817 H 0.55219 0.97832 0.83314 0.0
H3818 H 0.55951 0.98441 0.70508 0.0
C3819 C 0.56374 0.0217 0.68432 0.0
C3820 C 0.56117 0.00723 0.77298 0.0
C3821 C 0.56483 0.03172 0.67215 0.0
C3822 C 0.53834 0.96222 0.82295 0.0
C3823 C 0.54682 0.97263 0.81134 0.0
C3824 C 0.55991 0.99066 0.72448 0.0
C3825 C 0.56842 0.02103 0.71926 0.0
C3826 C 0.5653 0.00997 0.73529 0.0
C3827 C 0.54782 0.97592 0.77251 0.0
C3828 C 0.55504 0.98776 0.76125 0.0
H3829 H 0.58074 0.04822 0.74544 0.0
H3830 H 0.57862 0.03052 0.76746 0.0
H3831 H 0.56814 0.0035 0.6825 0.0
H3832 H 0.52655 0.9521 0.73562 0.0
H3833 H 0.54114 0.97028 0.71511 0.0
C3834 C 0.46439 0.03864 0.17486 0.0
C3835 C 0.47147 0.04605 0.20278 0.0
C3836 C 0.45582 0.02817 0.18552 0.0
C3837 C 0.44151 0.00992 0.27071 0.0
H3838 H 0.4413 0.98733 0.20525 0.0
C3839 C 0.43546 0.96867 0.32568 0.0
C3840 C 0.43022 0.95917 0.30253 0.0
C3841 C 0.43665 0.97868 0.31298 0.0
C3842 C 0.44101 0.99347 0.22347 0.0
H3843 H 0.47506 0.04857 0.26362 0.0
H3844 H 0.46027 0.03028 0.28253 0.0
H3845 H 0.45058 0.0064 0.18358 0.0
H3846 H 0.42161 0.9525 0.24877 0.0
H3847 H 0.42384 0.97018 0.22598 0.0
H3848 H 0.43252 0.99697 0.31164 0.0
C3849 C 0.46101 0.03257 0.25244 0.0
C3850 C 0.44635 0.00447 0.21103 0.0
C3851 C 0.4695 0.04309 0.24172 0.0
C3852 C 0.42558 0.95969 0.26731 0.0
C3853 C 0.42694 0.96982 0.25419 0.0
C3854 C 0.43624 0.99892 0.28328 0.0
C3855 C 0.45434 0.02479 0.22433 0.0
C3856 C 0.44698 0.01292 0.23496 0.0
C3857 C 0.43279 0.97949 0.27647 0.0
C3858 C 0.43623 0.99063 0.26028 0.0
H3859 H 0.46591 0.0407 0.14455 0.0
H3860 H 0.45074 0.02252 0.16311 0.0
H3861 H 0.44161 0.01614 0.28962 0.0
H3862 H 0.43917 0.96849 0.35289 0.0
H3863 H 0.4413 0.98595 0.3307 0.0
C3864 C 0.03628 0.46501 0.32233 0.0
C3865 C 0.04576 0.47015 0.29904 0.0
C3866 C 0.02631 0.45655 0.30772 0.0
C3867 C 0.01188 0.44978 0.21692 0.0
H3868 H 0.98862 0.42538 0.27403 0.0
C3869 C 0.96737 0.43054 0.16405 0.0
C3870 C 0.95948 0.42864 0.19247 0.0
C3871 C 0.97771 0.43202 0.17409 0.0
C3872 C 0.99499 0.43219 0.25768 0.0
H3873 H 0.05247 0.47007 0.24302 0.0
H3874 H 0.03491 0.45527 0.217 0.0
H3875 H 0.00763 0.43437 0.29778 0.0
H3876 H 0.95595 0.42635 0.25341 0.0
H3877 H 0.97414 0.42931 0.27145 0.0
H3878 H 0.99934 0.44826 0.17835 0.0
C3879 C 0.03524 0.45775 0.24675 0.0
C3880 C 0.00591 0.43728 0.27119 0.0
C3881 C 0.04531 0.46613 0.26168 0.0
C3882 C 0.96185 0.42759 0.23094 0.0
C3883 C 0.97231 0.42931 0.24117 0.0
C3884 C 1.00099 0.4448 0.20367 0.0
C3885 C 0.02554 0.45318 0.26919 0.0
C3886 C 0.01443 0.44632 0.25145 0.0
C3887 C 0.98055 0.432 0.21299 0.0
C3888 C 0.99231 0.4361 0.22434 0.0
H3889 H 0.03641 0.46804 0.35116 0.0
H3890 H 0.01901 0.45331 0.3257 0.0
H3891 H 0.01819 0.45685 0.20136 0.0
H3892 H 0.96573 0.43146 0.13417 0.0
H3893 H 0.98367 0.43373 0.1514 0.0
C3894 C 0.53841 0.57472 0.32105 0.0
C3895 C 0.53077 0.57458 0.29452 0.0
C3896 C 0.54704 0.57311 0.3087 0.0
C3897 C 0.56032 0.56903 0.22068 0.0
H3898 H 0.56237 0.54762 0.28602 0.0
C3899 C 0.56645 0.53393 0.16498 0.0
C3900 C 0.57239 0.5302 0.18692 0.0
C3901 C 0.56518 0.5427 0.17776 0.0
C3902 C 0.56214 0.55379 0.26776 0.0
H3903 H 0.52627 0.57303 0.23441 0.0
H3904 H 0.54114 0.57001 0.21263 0.0
H3905 H 0.55303 0.55716 0.30958 0.0
H3906 H 0.58219 0.53309 0.23842 0.0
H3907 H 0.57981 0.54842 0.2614 0.0
H3908 H 0.5688 0.56499 0.17789 0.0
C3909 C 0.54079 0.5717 0.24285 0.0
C3910 C 0.55677 0.55931 0.28129 0.0
C3911 C 0.53225 0.57346 0.25522 0.0
C3912 C 0.57764 0.53586 0.22084 0.0
C3913 C 0.5762 0.54456 0.23407 0.0
C3914 C 0.5656 0.56342 0.20701 0.0
C3915 C 0.54802 0.57104 0.26962 0.0
C3916 C 0.55547 0.56676 0.25753 0.0
C3917 C 0.56968 0.54785 0.21316 0.0
C3918 C 0.56626 0.55548 0.22999 0.0
H3919 H 0.53729 0.57539 0.35161 0.0
H3920 H 0.55257 0.5729 0.33009 0.0
H3921 H 0.5597 0.57487 0.20181 0.0
H3922 H 0.5623 0.5297 0.13871 0.0
H3923 H 0.56002 0.54493 0.16114 0.0
loop_
_geom_bond_atom_site_label_1
_geom_bond_atom_site_label_2
_geom_bond_distance
_geom_bond_site_symmetry_2
_ccdc_geom_bond_type
Co0 O3 1.970 . S
Co0 N17 1.989 . S
Co0 O25 1.967 . S
Co0 O32 1.920 . S
Co1 O4 1.966 . S
Co1 N10 2.022 . S
Co1 N18 1.993 . S
Co1 O26 1.941 . S
C2 O3 1.258 . S
C2 O4 1.263 . S
O3 Co0 1.970 . S
O3 C2 1.258 . S
O4 Co1 1.966 . S
O4 C2 1.263 . S
C5 O6 1.235 . S
C5 O32 1.289 . S
O6 C5 1.235 . S
C7 C9 1.400 . S
C7 N10 1.351 . S
C7 C12 1.501 . S
C8 C9 1.387 . S
C8 N11 1.341 . S
C9 C7 1.400 . S
C9 C8 1.387 . S
N10 Co1 2.022 . S
N10 C7 1.351 . S
N10 N11 1.365 . S
N11 C8 1.341 . S
N11 N10 1.365 . S
N11 H31 0.862 . S
C12 C7 1.501 . S
C12 H13 0.961 . S
C12 H14 0.961 . S
C12 H15 0.960 . S
H13 C12 0.961 . S
H14 C12 0.961 . S
H15 C12 0.960 . S
C16 N17 1.342 . S
C16 C20 1.401 . S
C16 C21 1.499 . S
N17 Co0 1.989 . S
N17 C16 1.342 . S
N17 N18 1.388 . S
N18 Co1 1.993 . S
N18 N17 1.388 . S
N18 C19 1.346 . S
C19 N18 1.346 . S
C19 C20 1.396 . S
C19 C29 1.510 . S
C20 C16 1.401 . S
C20 C19 1.396 . S
C21 C16 1.499 . S
C21 H22 0.959 . S
C21 H23 0.960 . S
C21 H24 0.961 . S
H22 C21 0.959 . S
H23 C21 0.960 . S
H24 C21 0.961 . S
O25 Co0 1.967 . S
O25 C33 1.258 . S
O26 Co1 1.941 . S
O26 C33 1.266 . S
H27 C29 0.959 . S
H28 C29 0.961 . S
C29 C19 1.510 . S
C29 H27 0.959 . S
C29 H28 0.961 . S
C29 H30 0.960 . S
H30 C29 0.960 . S
H31 N11 0.862 . S
O32 Co0 1.920 . S
O32 C5 1.289 . S
C33 O25 1.258 . S
C33 O26 1.266 . S
Co34 O37 1.970 . S
Co34 N51 1.989 . S
Co34 O59 1.967 . S
Co34 O66 1.920 . S
Co35 O38 1.966 . S
Co35 N44 2.022 . S
Co35 N52 1.993 . S
Co35 O60 1.941 . S
C36 O37 1.258 . S
C36 O38 1.263 . S
O37 Co34 1.970 . S
O37 C36 1.258 . S
O38 Co35 1.966 . S
O38 C36 1.263 . S
C39 O40 1.235 . S
C39 O66 1.289 . S
O40 C39 1.235 . S
C41 C43 1.400 . S
C41 N44 1.351 . S
C41 C46 1.501 . S
C42 C43 1.387 . S
C42 N45 1.341 . S
C43 C41 1.400 . S
C43 C42 1.387 . S
N44 Co35 2.022 . S
N44 C41 1.351 . S
N44 N45 1.365 . S
N45 C42 1.341 . S
N45 N44 1.365 . S
N45 H65 0.862 . S
C46 C41 1.501 . S
C46 H47 0.961 . S
C46 H48 0.961 . S
C46 H49 0.960 . S
H47 C46 0.961 . S
H48 C46 0.961 . S
H49 C46 0.960 . S
C50 N51 1.342 . S
C50 C54 1.401 . S
C50 C55 1.499 . S
N51 Co34 1.989 . S
N51 C50 1.342 . S
N51 N52 1.388 . S
N52 Co35 1.993 . S
N52 N51 1.388 . S
N52 C53 1.346 . S
C53 N52 1.346 . S
C53 C54 1.396 . S
C53 C63 1.510 . S
C54 C50 1.401 . S
C54 C53 1.396 . S
C55 C50 1.499 . S
C55 H56 0.959 . S
C55 H57 0.960 . S
C55 H58 0.961 . S
H56 C55 0.959 . S
H57 C55 0.960 . S
H58 C55 0.961 . S
O59 Co34 1.967 . S
O59 C67 1.258 . S
O60 Co35 1.941 . S
O60 C67 1.266 . S
H61 C63 0.959 . S
H62 C63 0.961 . S
C63 C53 1.510 . S
C63 H61 0.959 . S
C63 H62 0.961 . S
C63 H64 0.960 . S
H64 C63 0.960 . S
H65 N45 0.862 . S
O66 Co34 1.920 . S
O66 C39 1.289 . S
C67 O59 1.258 . S
C67 O60 1.266 . S
Co68 O71 1.970 . S
Co68 N85 1.989 . S
Co68 O93 1.967 . S
Co68 O100 1.920 . S
Co69 O72 1.966 . S
Co69 N78 2.022 . S
Co69 N86 1.993 . S
Co69 O94 1.941 . S
C70 O71 1.258 . S
C70 O72 1.263 . S
O71 Co68 1.970 . S
O71 C70 1.258 . S
O72 Co69 1.966 . S
O72 C70 1.263 . S
C73 O74 1.235 . S
C73 O100 1.289 . S
O74 C73 1.235 . S
C75 C77 1.400 . S
C75 N78 1.351 . S
C75 C80 1.501 . S
C76 C77 1.387 . S
C76 N79 1.341 . S
C77 C75 1.400 . S
C77 C76 1.387 . S
N78 Co69 2.022 . S
N78 C75 1.351 . S
N78 N79 1.365 . S
N79 C76 1.341 . S
N79 N78 1.365 . S
N79 H99 0.862 . S
C80 C75 1.501 . S
C80 H81 0.961 . S
C80 H82 0.961 . S
C80 H83 0.960 . S
H81 C80 0.961 . S
H82 C80 0.961 . S
H83 C80 0.960 . S
C84 N85 1.342 . S
C84 C88 1.401 . S
C84 C89 1.499 . S
N85 Co68 1.989 . S
N85 C84 1.342 . S
N85 N86 1.388 . S
N86 Co69 1.993 . S
N86 N85 1.388 . S
N86 C87 1.346 . S
C87 N86 1.346 . S
C87 C88 1.396 . S
C87 C97 1.510 . S
C88 C84 1.401 . S
C88 C87 1.396 . S
C89 C84 1.499 . S
C89 H90 0.959 . S
C89 H91 0.960 . S
C89 H92 0.961 . S
H90 C89 0.959 . S
H91 C89 0.960 . S
H92 C89 0.961 . S
O93 Co68 1.967 . S
O93 C101 1.258 . S
O94 Co69 1.941 . S
O94 C101 1.266 . S
H95 C97 0.959 . S
H96 C97 0.961 . S
C97 C87 1.510 . S
C97 H95 0.959 . S
C97 H96 0.961 . S
C97 H98 0.960 . S
H98 C97 0.960 . S
H99 N79 0.862 . S
O100 Co68 1.920 . S
O100 C73 1.289 . S
C101 O93 1.258 . S
C101 O94 1.266 . S
Co102 O105 1.970 . S
Co102 N119 1.989 . S
Co102 O127 1.967 . S
Co102 O134 1.920 . S
Co103 O106 1.966 . S
Co103 N112 2.022 . S
Co103 N120 1.993 . S
Co103 O128 1.941 . S
C104 O105 1.258 . S
C104 O106 1.263 . S
O105 Co102 1.970 . S
O105 C104 1.258 . S
O106 Co103 1.966 . S
O106 C104 1.263 . S
C107 O108 1.235 . S
C107 O134 1.289 . S
O108 C107 1.235 . S
C109 C111 1.400 . S
C109 N112 1.351 . S
C109 C114 1.501 . S
C110 C111 1.387 . S
C110 N113 1.341 . S
C111 C109 1.400 . S
C111 C110 1.387 . S
N112 Co103 2.022 . S
N112 C109 1.351 . S
N112 N113 1.365 . S
N113 C110 1.341 . S
N113 N112 1.365 . S
N113 H133 0.862 . S
C114 C109 1.501 . S
C114 H115 0.961 . S
C114 H116 0.961 . S
C114 H117 0.960 . S
H115 C114 0.961 . S
H116 C114 0.961 . S
H117 C114 0.960 . S
C118 N119 1.342 . S
C118 C122 1.401 . S
C118 C123 1.499 . S
N119 Co102 1.989 . S
N119 C118 1.342 . S
N119 N120 1.388 . S
N120 Co103 1.993 . S
N120 N119 1.388 . S
N120 C121 1.346 . S
C121 N120 1.346 . S
C121 C122 1.396 . S
C121 C131 1.510 . S
C122 C118 1.401 . S
C122 C121 1.396 . S
C123 C118 1.499 . S
C123 H124 0.959 . S
C123 H125 0.960 . S
C123 H126 0.961 . S
H124 C123 0.959 . S
H125 C123 0.960 . S
H126 C123 0.961 . S
O127 Co102 1.967 . S
O127 C135 1.258 . S
O128 Co103 1.941 . S
O128 C135 1.266 . S
H129 C131 0.959 . S
H130 C131 0.961 . S
C131 C121 1.510 . S
C131 H129 0.959 . S
C131 H130 0.961 . S
C131 H132 0.960 . S
H132 C131 0.960 . S
H133 N113 0.862 . S
O134 Co102 1.920 . S
O134 C107 1.289 . S
C135 O127 1.258 . S
C135 O128 1.266 . S
Co136 O139 1.970 . S
Co136 N153 1.989 . S
Co136 O161 1.967 . S
Co136 O168 1.920 . S
Co137 O140 1.966 . S
Co137 N146 2.022 . S
Co137 N154 1.993 . S
Co137 O162 1.941 . S
C138 O139 1.258 . S
C138 O140 1.263 . S
O139 Co136 1.970 . S
O139 C138 1.258 . S
O140 Co137 1.966 . S
O140 C138 1.263 . S
C141 O142 1.235 . S
C141 O168 1.289 . S
O142 C141 1.235 . S
C143 C145 1.400 . S
C143 N146 1.351 . S
C143 C148 1.501 . S
C144 C145 1.387 . S
C144 N147 1.341 . S
C145 C143 1.400 . S
C145 C144 1.387 . S
N146 Co137 2.022 . S
N146 C143 1.351 . S
N146 N147 1.365 . S
N147 C144 1.341 . S
N147 N146 1.365 . S
N147 H167 0.862 . S
C148 C143 1.501 . S
C148 H149 0.961 . S
C148 H150 0.961 . S
C148 H151 0.960 . S
H149 C148 0.961 . S
H150 C148 0.961 . S
H151 C148 0.960 . S
C152 N153 1.342 . S
C152 C156 1.401 . S
C152 C157 1.499 . S
N153 Co136 1.989 . S
N153 C152 1.342 . S
N153 N154 1.388 . S
N154 Co137 1.993 . S
N154 N153 1.388 . S
N154 C155 1.346 . S
C155 N154 1.346 . S
C155 C156 1.396 . S
C155 C165 1.510 . S
C156 C152 1.401 . S
C156 C155 1.396 . S
C157 C152 1.499 . S
C157 H158 0.959 . S
C157 H159 0.960 . S
C157 H160 0.961 . S
H158 C157 0.959 . S
H159 C157 0.960 . S
H160 C157 0.961 . S
O161 Co136 1.967 . S
O161 C169 1.258 . S
O162 Co137 1.941 . S
O162 C169 1.266 . S
H163 C165 0.959 . S
H164 C165 0.961 . S
C165 C155 1.510 . S
C165 H163 0.959 . S
C165 H164 0.961 . S
C165 H166 0.960 . S
H166 C165 0.960 . S
H167 N147 0.862 . S
O168 Co136 1.920 . S
O168 C141 1.289 . S
C169 O161 1.258 . S
C169 O162 1.266 . S
Co170 O173 1.970 . S
Co170 N187 1.989 . S
Co170 O195 1.967 . S
Co170 O202 1.920 . S
Co171 O174 1.966 . S
Co171 N180 2.022 . S
Co171 N188 1.993 . S
Co171 O196 1.941 . S
C172 O173 1.258 . S
C172 O174 1.263 . S
O173 Co170 1.970 . S
O173 C172 1.258 . S
O174 Co171 1.966 . S
O174 C172 1.263 . S
C175 O176 1.235 . S
C175 O202 1.289 . S
O176 C175 1.235 . S
C177 C179 1.400 . S
C177 N180 1.351 . S
C177 C182 1.501 . S
C178 C179 1.387 . S
C178 N181 1.341 . S
C179 C177 1.400 . S
C179 C178 1.387 . S
N180 Co171 2.022 . S
N180 C177 1.351 . S
N180 N181 1.365 . S
N181 C178 1.341 . S
N181 N180 1.365 . S
N181 H201 0.862 . S
C182 C177 1.501 . S
C182 H183 0.961 . S
C182 H184 0.961 . S
C182 H185 0.960 . S
H183 C182 0.961 . S
H184 C182 0.961 . S
H185 C182 0.960 . S
C186 N187 1.342 . S
C186 C190 1.401 . S
C186 C191 1.499 . S
N187 Co170 1.989 . S
N187 C186 1.342 . S
N187 N188 1.388 . S
N188 Co171 1.993 . S
N188 N187 1.388 . S
N188 C189 1.346 . S
C189 N188 1.346 . S
C189 C190 1.396 . S
C189 C199 1.510 . S
C190 C186 1.401 . S
C190 C189 1.396 . S
C191 C186 1.499 . S
C191 H192 0.959 . S
C191 H193 0.960 . S
C191 H194 0.961 . S
H192 C191 0.959 . S
H193 C191 0.960 . S
H194 C191 0.961 . S
O195 Co170 1.967 . S
O195 C203 1.258 . S
O196 Co171 1.941 . S
O196 C203 1.266 . S
H197 C199 0.959 . S
H198 C199 0.961 . S
C199 C189 1.510 . S
C199 H197 0.959 . S
C199 H198 0.961 . S
C199 H200 0.960 . S
H200 C199 0.960 . S
H201 N181 0.862 . S
O202 Co170 1.920 . S
O202 C175 1.289 . S
C203 O195 1.258 . S
C203 O196 1.266 . S
Co204 O207 1.970 . S
Co204 N221 1.989 . S
Co204 O229 1.967 . S
Co204 O236 1.920 . S
Co205 O208 1.966 . S
Co205 N214 2.022 . S
Co205 N222 1.993 . S
Co205 O230 1.941 . S
C206 O207 1.258 . S
C206 O208 1.263 . S
O207 Co204 1.970 . S
O207 C206 1.258 . S
O208 Co205 1.966 . S
O208 C206 1.263 . S
C209 O210 1.235 . S
C209 O236 1.289 . S
O210 C209 1.235 . S
C211 C213 1.400 . S
C211 N214 1.351 . S
C211 C216 1.501 . S
C212 C213 1.387 . S
C212 N215 1.341 . S
C213 C211 1.400 . S
C213 C212 1.387 . S
N214 Co205 2.022 . S
N214 C211 1.351 . S
N214 N215 1.365 . S
N215 C212 1.341 . S
N215 N214 1.365 . S
N215 H235 0.862 . S
C216 C211 1.501 . S
C216 H217 0.961 . S
C216 H218 0.961 . S
C216 H219 0.960 . S
H217 C216 0.961 . S
H218 C216 0.961 . S
H219 C216 0.960 . S
C220 N221 1.342 . S
C220 C224 1.401 . S
C220 C225 1.499 . S
N221 Co204 1.989 . S
N221 C220 1.342 . S
N221 N222 1.388 . S
N222 Co205 1.993 . S
N222 N221 1.388 . S
N222 C223 1.346 . S
C223 N222 1.346 . S
C223 C224 1.396 . S
C223 C233 1.510 . S
C224 C220 1.401 . S
C224 C223 1.396 . S
C225 C220 1.499 . S
C225 H226 0.959 . S
C225 H227 0.960 . S
C225 H228 0.961 . S
H226 C225 0.959 . S
H227 C225 0.960 . S
H228 C225 0.961 . S
O229 Co204 1.967 . S
O229 C237 1.258 . S
O230 Co205 1.941 . S
O230 C237 1.266 . S
H231 C233 0.959 . S
H232 C233 0.961 . S
C233 C223 1.510 . S
C233 H231 0.959 . S
C233 H232 0.961 . S
C233 H234 0.960 . S
H234 C233 0.960 . S
H235 N215 0.862 . S
O236 Co204 1.920 . S
O236 C209 1.289 . S
C237 O229 1.258 . S
C237 O230 1.266 . S
Co238 O241 1.970 . S
Co238 N255 1.989 . S
Co238 O263 1.967 . S
Co238 O270 1.920 . S
Co239 O242 1.966 . S
Co239 N248 2.022 . S
Co239 N256 1.993 . S
Co239 O264 1.941 . S
C240 O241 1.258 . S
C240 O242 1.263 . S
O241 Co238 1.970 . S
O241 C240 1.258 . S
O242 Co239 1.966 . S
O242 C240 1.263 . S
C243 O244 1.235 . S
C243 O270 1.289 . S
O244 C243 1.235 . S
C245 C247 1.400 . S
C245 N248 1.351 . S
C245 C250 1.501 . S
C246 C247 1.387 . S
C246 N249 1.341 . S
C247 C245 1.400 . S
C247 C246 1.387 . S
N248 Co239 2.022 . S
N248 C245 1.351 . S
N248 N249 1.365 . S
N249 C246 1.341 . S
N249 N248 1.365 . S
N249 H269 0.862 . S
C250 C245 1.501 . S
C250 H251 0.961 . S
C250 H252 0.961 . S
C250 H253 0.960 . S
H251 C250 0.961 . S
H252 C250 0.961 . S
H253 C250 0.960 . S
C254 N255 1.342 . S
C254 C258 1.401 . S
C254 C259 1.499 . S
N255 Co238 1.989 . S
N255 C254 1.342 . S
N255 N256 1.388 . S
N256 Co239 1.993 . S
N256 N255 1.388 . S
N256 C257 1.346 . S
C257 N256 1.346 . S
C257 C258 1.396 . S
C257 C267 1.510 . S
C258 C254 1.401 . S
C258 C257 1.396 . S
C259 C254 1.499 . S
C259 H260 0.959 . S
C259 H261 0.960 . S
C259 H262 0.961 . S
H260 C259 0.959 . S
H261 C259 0.960 . S
H262 C259 0.961 . S
O263 Co238 1.967 . S
O263 C271 1.258 . S
O264 Co239 1.941 . S
O264 C271 1.266 . S
H265 C267 0.959 . S
H266 C267 0.961 . S
C267 C257 1.510 . S
C267 H265 0.959 . S
C267 H266 0.961 . S
C267 H268 0.960 . S
H268 C267 0.960 . S
H269 N249 0.862 . S
O270 Co238 1.920 . S
O270 C243 1.289 . S
C271 O263 1.258 . S
C271 O264 1.266 . S
Co272 O275 1.970 . S
Co272 N289 1.989 . S
Co272 O297 1.967 . S
Co272 O304 1.920 . S
Co273 O276 1.966 . S
Co273 N282 2.022 . S
Co273 N290 1.993 . S
Co273 O298 1.941 . S
C274 O275 1.258 . S
C274 O276 1.263 . S
O275 Co272 1.970 . S
O275 C274 1.258 . S
O276 Co273 1.966 . S
O276 C274 1.263 . S
C277 O278 1.235 . S
C277 O304 1.289 . S
O278 C277 1.235 . S
C279 C281 1.400 . S
C279 N282 1.351 . S
C279 C284 1.501 . S
C280 C281 1.387 . S
C280 N283 1.341 . S
C281 C279 1.400 . S
C281 C280 1.387 . S
N282 Co273 2.022 . S
N282 C279 1.351 . S
N282 N283 1.365 . S
N283 C280 1.341 . S
N283 N282 1.365 . S
N283 H303 0.862 . S
C284 C279 1.501 . S
C284 H285 0.961 . S
C284 H286 0.961 . S
C284 H287 0.960 . S
H285 C284 0.961 . S
H286 C284 0.961 . S
H287 C284 0.960 . S
C288 N289 1.342 . S
C288 C292 1.401 . S
C288 C293 1.499 . S
N289 Co272 1.989 . S
N289 C288 1.342 . S
N289 N290 1.388 . S
N290 Co273 1.993 . S
N290 N289 1.388 . S
N290 C291 1.346 . S
C291 N290 1.346 . S
C291 C292 1.396 . S
C291 C301 1.510 . S
C292 C288 1.401 . S
C292 C291 1.396 . S
C293 C288 1.499 . S
C293 H294 0.959 . S
C293 H295 0.960 . S
C293 H296 0.961 . S
H294 C293 0.959 . S
H295 C293 0.960 . S
H296 C293 0.961 . S
O297 Co272 1.967 . S
O297 C305 1.258 . S
O298 Co273 1.941 . S
O298 C305 1.266 . S
H299 C301 0.959 . S
H300 C301 0.961 . S
C301 C291 1.510 . S
C301 H299 0.959 . S
C301 H300 0.961 . S
C301 H302 0.960 . S
H302 C301 0.960 . S
H303 N283 0.862 . S
O304 Co272 1.920 . S
O304 C277 1.289 . S
C305 O297 1.258 . S
C305 O298 1.266 . S
Co306 O309 1.970 . S
Co306 N323 1.989 . S
Co306 O331 1.967 . S
Co306 O338 1.920 . S
Co307 O310 1.966 . S
Co307 N316 2.022 . S
Co307 N324 1.993 . S
Co307 O332 1.941 . S
C308 O309 1.258 . S
C308 O310 1.263 . S
O309 Co306 1.970 . S
O309 C308 1.258 . S
O310 Co307 1.966 . S
O310 C308 1.263 . S
C311 O312 1.235 . S
C311 O338 1.289 . S
O312 C311 1.235 . S
C313 C315 1.400 . S
C313 N316 1.351 . S
C313 C318 1.501 . S
C314 C315 1.387 . S
C314 N317 1.341 . S
C315 C313 1.400 . S
C315 C314 1.387 . S
N316 Co307 2.022 . S
N316 C313 1.351 . S
N316 N317 1.365 . S
N317 C314 1.341 . S
N317 N316 1.365 . S
N317 H337 0.862 . S
C318 C313 1.501 . S
C318 H319 0.961 . S
C318 H320 0.961 . S
C318 H321 0.960 . S
H319 C318 0.961 . S
H320 C318 0.961 . S
H321 C318 0.960 . S
C322 N323 1.342 . S
C322 C326 1.401 . S
C322 C327 1.499 . S
N323 Co306 1.989 . S
N323 C322 1.342 . S
N323 N324 1.388 . S
N324 Co307 1.993 . S
N324 N323 1.388 . S
N324 C325 1.346 . S
C325 N324 1.346 . S
C325 C326 1.396 . S
C325 C335 1.510 . S
C326 C322 1.401 . S
C326 C325 1.396 . S
C327 C322 1.499 . S
C327 H328 0.959 . S
C327 H329 0.960 . S
C327 H330 0.961 . S
H328 C327 0.959 . S
H329 C327 0.960 . S
H330 C327 0.961 . S
O331 Co306 1.967 . S
O331 C339 1.258 . S
O332 Co307 1.941 . S
O332 C339 1.266 . S
H333 C335 0.959 . S
H334 C335 0.961 . S
C335 C325 1.510 . S
C335 H333 0.959 . S
C335 H334 0.961 . S
C335 H336 0.960 . S
H336 C335 0.960 . S
H337 N317 0.862 . S
O338 Co306 1.920 . S
O338 C311 1.289 . S
C339 O331 1.258 . S
C339 O332 1.266 . S
Co340 O343 1.970 . S
Co340 N357 1.989 . S
Co340 O365 1.967 . S
Co340 O372 1.920 . S
Co341 O344 1.966 . S
Co341 N350 2.022 . S
Co341 N358 1.993 . S
Co341 O366 1.941 . S
C342 O343 1.258 . S
C342 O344 1.263 . S
O343 Co340 1.970 . S
O343 C342 1.258 . S
O344 Co341 1.966 . S
O344 C342 1.263 . S
C345 O346 1.235 . S
C345 O372 1.289 . S
O346 C345 1.235 . S
C347 C349 1.400 . S
C347 N350 1.351 . S
C347 C352 1.501 . S
C348 C349 1.387 . S
C348 N351 1.341 . S
C349 C347 1.400 . S
C349 C348 1.387 . S
N350 Co341 2.022 . S
N350 C347 1.351 . S
N350 N351 1.365 . S
N351 C348 1.341 . S
N351 N350 1.365 . S
N351 H371 0.862 . S
C352 C347 1.501 . S
C352 H353 0.961 . S
C352 H354 0.961 . S
C352 H355 0.960 . S
H353 C352 0.961 . S
H354 C352 0.961 . S
H355 C352 0.960 . S
C356 N357 1.342 . S
C356 C360 1.401 . S
C356 C361 1.499 . S
N357 Co340 1.989 . S
N357 C356 1.342 . S
N357 N358 1.388 . S
N358 Co341 1.993 . S
N358 N357 1.388 . S
N358 C359 1.346 . S
C359 N358 1.346 . S
C359 C360 1.396 . S
C359 C369 1.510 . S
C360 C356 1.401 . S
C360 C359 1.396 . S
C361 C356 1.499 . S
C361 H362 0.959 . S
C361 H363 0.960 . S
C361 H364 0.961 . S
H362 C361 0.959 . S
H363 C361 0.960 . S
H364 C361 0.961 . S
O365 Co340 1.967 . S
O365 C373 1.258 . S
O366 Co341 1.941 . S
O366 C373 1.266 . S
H367 C369 0.959 . S
H368 C369 0.961 . S
C369 C359 1.510 . S
C369 H367 0.959 . S
C369 H368 0.961 . S
C369 H370 0.960 . S
H370 C369 0.960 . S
H371 N351 0.862 . S
O372 Co340 1.920 . S
O372 C345 1.289 . S
C373 O365 1.258 . S
C373 O366 1.266 . S
Co374 O377 1.970 . S
Co374 N391 1.989 . S
Co374 O399 1.967 . S
Co374 O406 1.920 . S
Co375 O378 1.966 . S
Co375 N384 2.022 . S
Co375 N392 1.993 . S
Co375 O400 1.941 . S
C376 O377 1.258 . S
C376 O378 1.263 . S
O377 Co374 1.970 . S
O377 C376 1.258 . S
O378 Co375 1.966 . S
O378 C376 1.263 . S
C379 O380 1.235 . S
C379 O406 1.289 . S
O380 C379 1.235 . S
C381 C383 1.400 . S
C381 N384 1.351 . S
C381 C386 1.501 . S
C382 C383 1.387 . S
C382 N385 1.341 . S
C383 C381 1.400 . S
C383 C382 1.387 . S
N384 Co375 2.022 . S
N384 C381 1.351 . S
N384 N385 1.365 . S
N385 C382 1.341 . S
N385 N384 1.365 . S
N385 H405 0.862 . S
C386 C381 1.501 . S
C386 H387 0.961 . S
C386 H388 0.961 . S
C386 H389 0.960 . S
H387 C386 0.961 . S
H388 C386 0.961 . S
H389 C386 0.960 . S
C390 N391 1.342 . S
C390 C394 1.401 . S
C390 C395 1.499 . S
N391 Co374 1.989 . S
N391 C390 1.342 . S
N391 N392 1.388 . S
N392 Co375 1.993 . S
N392 N391 1.388 . S
N392 C393 1.346 . S
C393 N392 1.346 . S
C393 C394 1.396 . S
C393 C403 1.510 . S
C394 C390 1.401 . S
C394 C393 1.396 . S
C395 C390 1.499 . S
C395 H396 0.959 . S
C395 H397 0.960 . S
C395 H398 0.961 . S
H396 C395 0.959 . S
H397 C395 0.960 . S
H398 C395 0.961 . S
O399 Co374 1.967 . S
O399 C407 1.258 . S
O400 Co375 1.941 . S
O400 C407 1.266 . S
H401 C403 0.959 . S
H402 C403 0.961 . S
C403 C393 1.510 . S
C403 H401 0.959 . S
C403 H402 0.961 . S
C403 H404 0.960 . S
H404 C403 0.960 . S
H405 N385 0.862 . S
O406 Co374 1.920 . S
O406 C379 1.289 . S
C407 O399 1.258 . S
C407 O400 1.266 . S
Co408 O411 1.970 . S
Co408 N425 1.989 . S
Co408 O433 1.967 . S
Co408 O440 1.920 . S
Co409 O412 1.966 . S
Co409 N418 2.022 . S
Co409 N426 1.993 . S
Co409 O434 1.941 . S
C410 O411 1.258 . S
C410 O412 1.263 . S
O411 Co408 1.970 . S
O411 C410 1.258 . S
O412 Co409 1.966 . S
O412 C410 1.263 . S
C413 O414 1.235 . S
C413 O440 1.289 . S
O414 C413 1.235 . S
C415 C417 1.400 . S
C415 N418 1.351 . S
C415 C420 1.501 . S
C416 C417 1.387 . S
C416 N419 1.341 . S
C417 C415 1.400 . S
C417 C416 1.387 . S
N418 Co409 2.022 . S
N418 C415 1.351 . S
N418 N419 1.365 . S
N419 C416 1.341 . S
N419 N418 1.365 . S
N419 H439 0.862 . S
C420 C415 1.501 . S
C420 H421 0.961 . S
C420 H422 0.961 . S
C420 H423 0.960 . S
H421 C420 0.961 . S
H422 C420 0.961 . S
H423 C420 0.960 . S
C424 N425 1.342 . S
C424 C428 1.401 . S
C424 C429 1.499 . S
N425 Co408 1.989 . S
N425 C424 1.342 . S
N425 N426 1.388 . S
N426 Co409 1.993 . S
N426 N425 1.388 . S
N426 C427 1.346 . S
C427 N426 1.346 . S
C427 C428 1.396 . S
C427 C437 1.510 . S
C428 C424 1.401 . S
C428 C427 1.396 . S
C429 C424 1.499 . S
C429 H430 0.959 . S
C429 H431 0.960 . S
C429 H432 0.961 . S
H430 C429 0.959 . S
H431 C429 0.960 . S
H432 C429 0.961 . S
O433 Co408 1.967 . S
O433 C441 1.258 . S
O434 Co409 1.941 . S
O434 C441 1.266 . S
H435 C437 0.959 . S
H436 C437 0.961 . S
C437 C427 1.510 . S
C437 H435 0.959 . S
C437 H436 0.961 . S
C437 H438 0.960 . S
H438 C437 0.960 . S
H439 N419 0.862 . S
O440 Co408 1.920 . S
O440 C413 1.289 . S
C441 O433 1.258 . S
C441 O434 1.266 . S
Co442 O445 1.970 . S
Co442 N459 1.989 . S
Co442 O467 1.967 . S
Co442 O474 1.920 . S
Co443 O446 1.966 . S
Co443 N452 2.022 . S
Co443 N460 1.993 . S
Co443 O468 1.941 . S
C444 O445 1.258 . S
C444 O446 1.263 . S
O445 Co442 1.970 . S
O445 C444 1.258 . S
O446 Co443 1.966 . S
O446 C444 1.263 . S
C447 O448 1.235 . S
C447 O474 1.289 . S
O448 C447 1.235 . S
C449 C451 1.400 . S
C449 N452 1.351 . S
C449 C454 1.501 . S
C450 C451 1.387 . S
C450 N453 1.341 . S
C451 C449 1.400 . S
C451 C450 1.387 . S
N452 Co443 2.022 . S
N452 C449 1.351 . S
N452 N453 1.365 . S
N453 C450 1.341 . S
N453 N452 1.365 . S
N453 H473 0.862 . S
C454 C449 1.501 . S
C454 H455 0.961 . S
C454 H456 0.961 . S
C454 H457 0.960 . S
H455 C454 0.961 . S
H456 C454 0.961 . S
H457 C454 0.960 . S
C458 N459 1.342 . S
C458 C462 1.401 . S
C458 C463 1.499 . S
N459 Co442 1.989 . S
N459 C458 1.342 . S
N459 N460 1.388 . S
N460 Co443 1.993 . S
N460 N459 1.388 . S
N460 C461 1.346 . S
C461 N460 1.346 . S
C461 C462 1.396 . S
C461 C471 1.510 . S
C462 C458 1.401 . S
C462 C461 1.396 . S
C463 C458 1.499 . S
C463 H464 0.959 . S
C463 H465 0.960 . S
C463 H466 0.961 . S
H464 C463 0.959 . S
H465 C463 0.960 . S
H466 C463 0.961 . S
O467 Co442 1.967 . S
O467 C475 1.258 . S
O468 Co443 1.941 . S
O468 C475 1.266 . S
H469 C471 0.959 . S
H470 C471 0.961 . S
C471 C461 1.510 . S
C471 H469 0.959 . S
C471 H470 0.961 . S
C471 H472 0.960 . S
H472 C471 0.960 . S
H473 N453 0.862 . S
O474 Co442 1.920 . S
O474 C447 1.289 . S
C475 O467 1.258 . S
C475 O468 1.266 . S
Co476 O479 1.970 . S
Co476 N493 1.989 . S
Co476 O501 1.967 . S
Co476 O508 1.920 . S
Co477 O480 1.966 . S
Co477 N486 2.022 . S
Co477 N494 1.993 . S
Co477 O502 1.941 . S
C478 O479 1.258 . S
C478 O480 1.263 . S
O479 Co476 1.970 . S
O479 C478 1.258 . S
O480 Co477 1.966 . S
O480 C478 1.263 . S
C481 O482 1.235 . S
C481 O508 1.289 . S
O482 C481 1.235 . S
C483 C485 1.400 . S
C483 N486 1.351 . S
C483 C488 1.501 . S
C484 C485 1.387 . S
C484 N487 1.341 . S
C485 C483 1.400 . S
C485 C484 1.387 . S
N486 Co477 2.022 . S
N486 C483 1.351 . S
N486 N487 1.365 . S
N487 C484 1.341 . S
N487 N486 1.365 . S
N487 H507 0.862 . S
C488 C483 1.501 . S
C488 H489 0.961 . S
C488 H490 0.961 . S
C488 H491 0.960 . S
H489 C488 0.961 . S
H490 C488 0.961 . S
H491 C488 0.960 . S
C492 N493 1.342 . S
C492 C496 1.401 . S
C492 C497 1.499 . S
N493 Co476 1.989 . S
N493 C492 1.342 . S
N493 N494 1.388 . S
N494 Co477 1.993 . S
N494 N493 1.388 . S
N494 C495 1.346 . S
C495 N494 1.346 . S
C495 C496 1.396 . S
C495 C505 1.510 . S
C496 C492 1.401 . S
C496 C495 1.396 . S
C497 C492 1.499 . S
C497 H498 0.959 . S
C497 H499 0.960 . S
C497 H500 0.961 . S
H498 C497 0.959 . S
H499 C497 0.960 . S
H500 C497 0.961 . S
O501 Co476 1.967 . S
O501 C509 1.258 . S
O502 Co477 1.941 . S
O502 C509 1.266 . S
H503 C505 0.959 . S
H504 C505 0.961 . S
C505 C495 1.510 . S
C505 H503 0.959 . S
C505 H504 0.961 . S
C505 H506 0.960 . S
H506 C505 0.960 . S
H507 N487 0.862 . S
O508 Co476 1.920 . S
O508 C481 1.289 . S
C509 O501 1.258 . S
C509 O502 1.266 . S
Co510 O513 1.970 . S
Co510 N527 1.989 . S
Co510 O535 1.967 . S
Co510 O542 1.920 . S
Co511 O514 1.966 . S
Co511 N520 2.022 . S
Co511 N528 1.993 . S
Co511 O536 1.941 . S
C512 O513 1.258 . S
C512 O514 1.263 . S
O513 Co510 1.970 . S
O513 C512 1.258 . S
O514 Co511 1.966 . S
O514 C512 1.263 . S
C515 O516 1.235 . S
C515 O542 1.289 . S
O516 C515 1.235 . S
C517 C519 1.400 . S
C517 N520 1.351 . S
C517 C522 1.501 . S
C518 C519 1.387 . S
C518 N521 1.341 . S
C519 C517 1.400 . S
C519 C518 1.387 . S
N520 Co511 2.022 . S
N520 C517 1.351 . S
N520 N521 1.365 . S
N521 C518 1.341 . S
N521 N520 1.365 . S
N521 H541 0.862 . S
C522 C517 1.501 . S
C522 H523 0.961 . S
C522 H524 0.961 . S
C522 H525 0.960 . S
H523 C522 0.961 . S
H524 C522 0.961 . S
H525 C522 0.960 . S
C526 N527 1.342 . S
C526 C530 1.401 . S
C526 C531 1.499 . S
N527 Co510 1.989 . S
N527 C526 1.342 . S
N527 N528 1.388 . S
N528 Co511 1.993 . S
N528 N527 1.388 . S
N528 C529 1.346 . S
C529 N528 1.346 . S
C529 C530 1.396 . S
C529 C539 1.510 . S
C530 C526 1.401 . S
C530 C529 1.396 . S
C531 C526 1.499 . S
C531 H532 0.959 . S
C531 H533 0.960 . S
C531 H534 0.961 . S
H532 C531 0.959 . S
H533 C531 0.960 . S
H534 C531 0.961 . S
O535 Co510 1.967 . S
O535 C543 1.258 . S
O536 Co511 1.941 . S
O536 C543 1.266 . S
H537 C539 0.959 . S
H538 C539 0.961 . S
C539 C529 1.510 . S
C539 H537 0.959 . S
C539 H538 0.961 . S
C539 H540 0.960 . S
H540 C539 0.960 . S
H541 N521 0.862 . S
O542 Co510 1.920 . S
O542 C515 1.289 . S
C543 O535 1.258 . S
C543 O536 1.266 . S
Co544 O547 1.970 . S
Co544 N561 1.989 . S
Co544 O569 1.967 . S
Co544 O576 1.920 . S
Co545 O548 1.966 . S
Co545 N554 2.022 . S
Co545 N562 1.993 . S
Co545 O570 1.941 . S
C546 O547 1.258 . S
C546 O548 1.263 . S
O547 Co544 1.970 . S
O547 C546 1.258 . S
O548 Co545 1.966 . S
O548 C546 1.263 . S
C549 O550 1.235 . S
C549 O576 1.289 . S
O550 C549 1.235 . S
C551 C553 1.400 . S
C551 N554 1.351 . S
C551 C556 1.501 . S
C552 C553 1.387 . S
C552 N555 1.341 . S
C553 C551 1.400 . S
C553 C552 1.387 . S
N554 Co545 2.022 . S
N554 C551 1.351 . S
N554 N555 1.365 . S
N555 C552 1.341 . S
N555 N554 1.365 . S
N555 H575 0.862 . S
C556 C551 1.501 . S
C556 H557 0.961 . S
C556 H558 0.961 . S
C556 H559 0.960 . S
H557 C556 0.961 . S
H558 C556 0.961 . S
H559 C556 0.960 . S
C560 N561 1.342 . S
C560 C564 1.401 . S
C560 C565 1.499 . S
N561 Co544 1.989 . S
N561 C560 1.342 . S
N561 N562 1.388 . S
N562 Co545 1.993 . S
N562 N561 1.388 . S
N562 C563 1.346 . S
C563 N562 1.346 . S
C563 C564 1.396 . S
C563 C573 1.510 . S
C564 C560 1.401 . S
C564 C563 1.396 . S
C565 C560 1.499 . S
C565 H566 0.959 . S
C565 H567 0.960 . S
C565 H568 0.961 . S
H566 C565 0.959 . S
H567 C565 0.960 . S
H568 C565 0.961 . S
O569 Co544 1.967 . S
O569 C577 1.258 . S
O570 Co545 1.941 . S
O570 C577 1.266 . S
H571 C573 0.959 . S
H572 C573 0.961 . S
C573 C563 1.510 . S
C573 H571 0.959 . S
C573 H572 0.961 . S
C573 H574 0.960 . S
H574 C573 0.960 . S
H575 N555 0.862 . S
O576 Co544 1.920 . S
O576 C549 1.289 . S
C577 O569 1.258 . S
C577 O570 1.266 . S
Co578 O581 1.970 . S
Co578 N595 1.989 . S
Co578 O603 1.967 . S
Co578 O610 1.920 . S
Co579 O582 1.966 . S
Co579 N588 2.022 . S
Co579 N596 1.993 . S
Co579 O604 1.941 . S
C580 O581 1.258 . S
C580 O582 1.263 . S
O581 Co578 1.970 . S
O581 C580 1.258 . S
O582 Co579 1.966 . S
O582 C580 1.263 . S
C583 O584 1.235 . S
C583 O610 1.289 . S
O584 C583 1.235 . S
C585 C587 1.400 . S
C585 N588 1.351 . S
C585 C590 1.501 . S
C586 C587 1.387 . S
C586 N589 1.341 . S
C587 C585 1.400 . S
C587 C586 1.387 . S
N588 Co579 2.022 . S
N588 C585 1.351 . S
N588 N589 1.365 . S
N589 C586 1.341 . S
N589 N588 1.365 . S
N589 H609 0.862 . S
C590 C585 1.501 . S
C590 H591 0.961 . S
C590 H592 0.961 . S
C590 H593 0.960 . S
H591 C590 0.961 . S
H592 C590 0.961 . S
H593 C590 0.960 . S
C594 N595 1.342 . S
C594 C598 1.401 . S
C594 C599 1.499 . S
N595 Co578 1.989 . S
N595 C594 1.342 . S
N595 N596 1.388 . S
N596 Co579 1.993 . S
N596 N595 1.388 . S
N596 C597 1.346 . S
C597 N596 1.346 . S
C597 C598 1.396 . S
C597 C607 1.510 . S
C598 C594 1.401 . S
C598 C597 1.396 . S
C599 C594 1.499 . S
C599 H600 0.959 . S
C599 H601 0.960 . S
C599 H602 0.961 . S
H600 C599 0.959 . S
H601 C599 0.960 . S
H602 C599 0.961 . S
O603 Co578 1.967 . S
O603 C611 1.258 . S
O604 Co579 1.941 . S
O604 C611 1.266 . S
H605 C607 0.959 . S
H606 C607 0.961 . S
C607 C597 1.510 . S
C607 H605 0.959 . S
C607 H606 0.961 . S
C607 H608 0.960 . S
H608 C607 0.960 . S
H609 N589 0.862 . S
O610 Co578 1.920 . S
O610 C583 1.289 . S
C611 O603 1.258 . S
C611 O604 1.266 . S
Co612 O615 1.970 . S
Co612 N629 1.989 . S
Co612 O637 1.967 . S
Co612 O644 1.920 . S
Co613 O616 1.966 . S
Co613 N622 2.022 . S
Co613 N630 1.993 . S
Co613 O638 1.941 . S
C614 O615 1.258 . S
C614 O616 1.263 . S
O615 Co612 1.970 . S
O615 C614 1.258 . S
O616 Co613 1.966 . S
O616 C614 1.263 . S
C617 O618 1.235 . S
C617 O644 1.289 . S
O618 C617 1.235 . S
C619 C621 1.400 . S
C619 N622 1.351 . S
C619 C624 1.501 . S
C620 C621 1.387 . S
C620 N623 1.341 . S
C621 C619 1.400 . S
C621 C620 1.387 . S
N622 Co613 2.022 . S
N622 C619 1.351 . S
N622 N623 1.365 . S
N623 C620 1.341 . S
N623 N622 1.365 . S
N623 H643 0.862 . S
C624 C619 1.501 . S
C624 H625 0.961 . S
C624 H626 0.961 . S
C624 H627 0.960 . S
H625 C624 0.961 . S
H626 C624 0.961 . S
H627 C624 0.960 . S
C628 N629 1.342 . S
C628 C632 1.401 . S
C628 C633 1.499 . S
N629 Co612 1.989 . S
N629 C628 1.342 . S
N629 N630 1.388 . S
N630 Co613 1.993 . S
N630 N629 1.388 . S
N630 C631 1.346 . S
C631 N630 1.346 . S
C631 C632 1.396 . S
C631 C641 1.510 . S
C632 C628 1.401 . S
C632 C631 1.396 . S
C633 C628 1.499 . S
C633 H634 0.959 . S
C633 H635 0.960 . S
C633 H636 0.961 . S
H634 C633 0.959 . S
H635 C633 0.960 . S
H636 C633 0.961 . S
O637 Co612 1.967 . S
O637 C645 1.258 . S
O638 Co613 1.941 . S
O638 C645 1.266 . S
H639 C641 0.959 . S
H640 C641 0.961 . S
C641 C631 1.510 . S
C641 H639 0.959 . S
C641 H640 0.961 . S
C641 H642 0.960 . S
H642 C641 0.960 . S
H643 N623 0.862 . S
O644 Co612 1.920 . S
O644 C617 1.289 . S
C645 O637 1.258 . S
C645 O638 1.266 . S
Co646 O649 1.970 . S
Co646 N663 1.989 . S
Co646 O671 1.967 . S
Co646 O678 1.920 . S
Co647 O650 1.966 . S
Co647 N656 2.022 . S
Co647 N664 1.993 . S
Co647 O672 1.941 . S
C648 O649 1.258 . S
C648 O650 1.263 . S
O649 Co646 1.970 . S
O649 C648 1.258 . S
O650 Co647 1.966 . S
O650 C648 1.263 . S
C651 O652 1.235 . S
C651 O678 1.289 . S
O652 C651 1.235 . S
C653 C655 1.400 . S
C653 N656 1.351 . S
C653 C658 1.501 . S
C654 C655 1.387 . S
C654 N657 1.341 . S
C655 C653 1.400 . S
C655 C654 1.387 . S
N656 Co647 2.022 . S
N656 C653 1.351 . S
N656 N657 1.365 . S
N657 C654 1.341 . S
N657 N656 1.365 . S
N657 H677 0.862 . S
C658 C653 1.501 . S
C658 H659 0.961 . S
C658 H660 0.961 . S
C658 H661 0.960 . S
H659 C658 0.961 . S
H660 C658 0.961 . S
H661 C658 0.960 . S
C662 N663 1.342 . S
C662 C666 1.401 . S
C662 C667 1.499 . S
N663 Co646 1.989 . S
N663 C662 1.342 . S
N663 N664 1.388 . S
N664 Co647 1.993 . S
N664 N663 1.388 . S
N664 C665 1.346 . S
C665 N664 1.346 . S
C665 C666 1.396 . S
C665 C675 1.510 . S
C666 C662 1.401 . S
C666 C665 1.396 . S
C667 C662 1.499 . S
C667 H668 0.959 . S
C667 H669 0.960 . S
C667 H670 0.961 . S
H668 C667 0.959 . S
H669 C667 0.960 . S
H670 C667 0.961 . S
O671 Co646 1.967 . S
O671 C679 1.258 . S
O672 Co647 1.941 . S
O672 C679 1.266 . S
H673 C675 0.959 . S
H674 C675 0.961 . S
C675 C665 1.510 . S
C675 H673 0.959 . S
C675 H674 0.961 . S
C675 H676 0.960 . S
H676 C675 0.960 . S
H677 N657 0.862 . S
O678 Co646 1.920 . S
O678 C651 1.289 . S
C679 O671 1.258 . S
C679 O672 1.266 . S
Co680 O683 1.970 . S
Co680 N697 1.989 . S
Co680 O705 1.967 . S
Co680 O712 1.920 . S
Co681 O684 1.966 . S
Co681 N690 2.022 . S
Co681 N698 1.993 . S
Co681 O706 1.941 . S
C682 O683 1.258 . S
C682 O684 1.263 . S
O683 Co680 1.970 . S
O683 C682 1.258 . S
O684 Co681 1.966 . S
O684 C682 1.263 . S
C685 O686 1.235 . S
C685 O712 1.289 . S
O686 C685 1.235 . S
C687 C689 1.400 . S
C687 N690 1.351 . S
C687 C692 1.501 . S
C688 C689 1.387 . S
C688 N691 1.341 . S
C689 C687 1.400 . S
C689 C688 1.387 . S
N690 Co681 2.022 . S
N690 C687 1.351 . S
N690 N691 1.365 . S
N691 C688 1.341 . S
N691 N690 1.365 . S
N691 H711 0.862 . S
C692 C687 1.501 . S
C692 H693 0.961 . S
C692 H694 0.961 . S
C692 H695 0.960 . S
H693 C692 0.961 . S
H694 C692 0.961 . S
H695 C692 0.960 . S
C696 N697 1.342 . S
C696 C700 1.401 . S
C696 C701 1.499 . S
N697 Co680 1.989 . S
N697 C696 1.342 . S
N697 N698 1.388 . S
N698 Co681 1.993 . S
N698 N697 1.388 . S
N698 C699 1.346 . S
C699 N698 1.346 . S
C699 C700 1.396 . S
C699 C709 1.510 . S
C700 C696 1.401 . S
C700 C699 1.396 . S
C701 C696 1.499 . S
C701 H702 0.959 . S
C701 H703 0.960 . S
C701 H704 0.961 . S
H702 C701 0.959 . S
H703 C701 0.960 . S
H704 C701 0.961 . S
O705 Co680 1.967 . S
O705 C713 1.258 . S
O706 Co681 1.941 . S
O706 C713 1.266 . S
H707 C709 0.959 . S
H708 C709 0.961 . S
C709 C699 1.510 . S
C709 H707 0.959 . S
C709 H708 0.961 . S
C709 H710 0.960 . S
H710 C709 0.960 . S
H711 N691 0.862 . S
O712 Co680 1.920 . S
O712 C685 1.289 . S
C713 O705 1.258 . S
C713 O706 1.266 . S
Co714 O717 1.970 . S
Co714 N731 1.989 . S
Co714 O739 1.967 . S
Co714 O746 1.920 . S
Co715 O718 1.966 . S
Co715 N724 2.022 . S
Co715 N732 1.993 . S
Co715 O740 1.941 . S
C716 O717 1.258 . S
C716 O718 1.263 . S
O717 Co714 1.970 . S
O717 C716 1.258 . S
O718 Co715 1.966 . S
O718 C716 1.263 . S
C719 O720 1.235 . S
C719 O746 1.289 . S
O720 C719 1.235 . S
C721 C723 1.400 . S
C721 N724 1.351 . S
C721 C726 1.501 . S
C722 C723 1.387 . S
C722 N725 1.341 . S
C723 C721 1.400 . S
C723 C722 1.387 . S
N724 Co715 2.022 . S
N724 C721 1.351 . S
N724 N725 1.365 . S
N725 C722 1.341 . S
N725 N724 1.365 . S
N725 H745 0.862 . S
C726 C721 1.501 . S
C726 H727 0.961 . S
C726 H728 0.961 . S
C726 H729 0.960 . S
H727 C726 0.961 . S
H728 C726 0.961 . S
H729 C726 0.960 . S
C730 N731 1.342 . S
C730 C734 1.401 1_554 S
C730 C735 1.499 1_554 S
N731 Co714 1.989 . S
N731 C730 1.342 . S
N731 N732 1.388 . S
N732 Co715 1.993 . S
N732 N731 1.388 . S
N732 C733 1.346 . S
C733 N732 1.346 . S
C733 C734 1.396 1_554 S
C733 C743 1.510 . S
C734 C730 1.401 1_556 S
C734 C733 1.396 1_556 S
C735 C730 1.499 1_556 S
C735 H736 0.959 1_556 S
C735 H737 0.960 . S
C735 H738 0.961 . S
H736 C735 0.959 1_554 S
H737 C735 0.960 . S
H738 C735 0.961 . S
O739 Co714 1.967 . S
O739 C747 1.258 . S
O740 Co715 1.941 . S
O740 C747 1.266 . S
H741 C743 0.959 . S
H742 C743 0.961 1_556 S
C743 C733 1.510 . S
C743 H741 0.959 . S
C743 H742 0.961 1_554 S
C743 H744 0.960 . S
H744 C743 0.960 . S
H745 N725 0.862 . S
O746 Co714 1.920 . S
O746 C719 1.289 . S
C747 O739 1.258 . S
C747 O740 1.266 . S
Co748 O751 1.970 . S
Co748 N765 1.989 . S
Co748 O773 1.967 . S
Co748 O780 1.920 . S
Co749 O752 1.966 . S
Co749 N758 2.022 . S
Co749 N766 1.993 . S
Co749 O774 1.941 . S
C750 O751 1.258 . S
C750 O752 1.263 . S
O751 Co748 1.970 . S
O751 C750 1.258 . S
O752 Co749 1.966 . S
O752 C750 1.263 . S
C753 O754 1.235 . S
C753 O780 1.289 . S
O754 C753 1.235 . S
C755 C757 1.400 . S
C755 N758 1.351 . S
C755 C760 1.501 . S
C756 C757 1.387 . S
C756 N759 1.341 . S
C757 C755 1.400 . S
C757 C756 1.387 . S
N758 Co749 2.022 . S
N758 C755 1.351 . S
N758 N759 1.365 . S
N759 C756 1.341 . S
N759 N758 1.365 . S
N759 H779 0.862 . S
C760 C755 1.501 . S
C760 H761 0.961 . S
C760 H762 0.961 . S
C760 H763 0.960 . S
H761 C760 0.961 . S
H762 C760 0.961 . S
H763 C760 0.960 . S
C764 N765 1.342 . S
C764 C768 1.401 1_554 S
C764 C769 1.499 1_554 S
N765 Co748 1.989 . S
N765 C764 1.342 . S
N765 N766 1.388 . S
N766 Co749 1.993 . S
N766 N765 1.388 . S
N766 C767 1.346 . S
C767 N766 1.346 . S
C767 C768 1.396 1_554 S
C767 C777 1.510 . S
C768 C764 1.401 1_556 S
C768 C767 1.396 1_556 S
C769 C764 1.499 1_556 S
C769 H770 0.959 1_556 S
C769 H771 0.960 . S
C769 H772 0.961 . S
H770 C769 0.959 1_554 S
H771 C769 0.960 . S
H772 C769 0.961 . S
O773 Co748 1.967 . S
O773 C781 1.258 . S
O774 Co749 1.941 . S
O774 C781 1.266 . S
H775 C777 0.959 . S
H776 C777 0.961 1_556 S
C777 C767 1.510 . S
C777 H775 0.959 . S
C777 H776 0.961 1_554 S
C777 H778 0.960 . S
H778 C777 0.960 . S
H779 N759 0.862 . S
O780 Co748 1.920 . S
O780 C753 1.289 . S
C781 O773 1.258 . S
C781 O774 1.266 . S
Co782 O785 1.970 . S
Co782 N799 1.989 . S
Co782 O807 1.967 . S
Co782 O814 1.920 . S
Co783 O786 1.966 . S
Co783 N792 2.022 . S
Co783 N800 1.993 . S
Co783 O808 1.941 . S
C784 O785 1.258 . S
C784 O786 1.263 . S
O785 Co782 1.970 . S
O785 C784 1.258 . S
O786 Co783 1.966 . S
O786 C784 1.263 . S
C787 O788 1.235 . S
C787 O814 1.289 . S
O788 C787 1.235 . S
C789 C791 1.400 . S
C789 N792 1.351 . S
C789 C794 1.501 . S
C790 C791 1.387 . S
C790 N793 1.341 . S
C791 C789 1.400 . S
C791 C790 1.387 . S
N792 Co783 2.022 . S
N792 C789 1.351 . S
N792 N793 1.365 . S
N793 C790 1.341 . S
N793 N792 1.365 . S
N793 H813 0.862 . S
C794 C789 1.501 . S
C794 H795 0.961 . S
C794 H796 0.961 . S
C794 H797 0.960 . S
H795 C794 0.961 . S
H796 C794 0.961 . S
H797 C794 0.960 . S
C798 N799 1.342 . S
C798 C802 1.401 1_554 S
C798 C803 1.499 1_554 S
N799 Co782 1.989 . S
N799 C798 1.342 . S
N799 N800 1.388 . S
N800 Co783 1.993 . S
N800 N799 1.388 . S
N800 C801 1.346 . S
C801 N800 1.346 . S
C801 C802 1.396 1_554 S
C801 C811 1.510 . S
C802 C798 1.401 1_556 S
C802 C801 1.396 1_556 S
C803 C798 1.499 1_556 S
C803 H804 0.959 1_556 S
C803 H805 0.960 . S
C803 H806 0.961 . S
H804 C803 0.959 1_554 S
H805 C803 0.960 . S
H806 C803 0.961 . S
O807 Co782 1.967 . S
O807 C815 1.258 . S
O808 Co783 1.941 . S
O808 C815 1.266 . S
H809 C811 0.959 . S
H810 C811 0.961 1_556 S
C811 C801 1.510 . S
C811 H809 0.959 . S
C811 H810 0.961 1_554 S
C811 H812 0.960 . S
H812 C811 0.960 . S
H813 N793 0.862 . S
O814 Co782 1.920 . S
O814 C787 1.289 . S
C815 O807 1.258 . S
C815 O808 1.266 . S
Co816 O819 1.970 . S
Co816 N833 1.989 . S
Co816 O841 1.967 . S
Co816 O848 1.920 . S
Co817 O820 1.966 . S
Co817 N826 2.022 . S
Co817 N834 1.993 . S
Co817 O842 1.941 . S
C818 O819 1.258 . S
C818 O820 1.263 . S
O819 Co816 1.970 . S
O819 C818 1.258 . S
O820 Co817 1.966 . S
O820 C818 1.263 . S
C821 O822 1.235 . S
C821 O848 1.289 . S
O822 C821 1.235 . S
C823 C825 1.400 . S
C823 N826 1.351 . S
C823 C828 1.501 . S
C824 C825 1.387 . S
C824 N827 1.341 . S
C825 C823 1.400 . S
C825 C824 1.387 . S
N826 Co817 2.022 . S
N826 C823 1.351 . S
N826 N827 1.365 . S
N827 C824 1.341 . S
N827 N826 1.365 . S
N827 H847 0.862 . S
C828 C823 1.501 . S
C828 H829 0.961 . S
C828 H830 0.961 . S
C828 H831 0.960 . S
H829 C828 0.961 . S
H830 C828 0.961 . S
H831 C828 0.960 . S
C832 N833 1.342 . S
C832 C836 1.401 . S
C832 C837 1.499 . S
N833 Co816 1.989 . S
N833 C832 1.342 . S
N833 N834 1.388 . S
N834 Co817 1.993 . S
N834 N833 1.388 . S
N834 C835 1.346 . S
C835 N834 1.346 . S
C835 C836 1.396 . S
C835 C845 1.510 . S
C836 C832 1.401 . S
C836 C835 1.396 . S
C837 C832 1.499 . S
C837 H838 0.959 . S
C837 H839 0.960 . S
C837 H840 0.961 . S
H838 C837 0.959 . S
H839 C837 0.960 . S
H840 C837 0.961 . S
O841 Co816 1.967 . S
O841 C849 1.258 . S
O842 Co817 1.941 . S
O842 C849 1.266 . S
H843 C845 0.959 . S
H844 C845 0.961 . S
C845 C835 1.510 . S
C845 H843 0.959 . S
C845 H844 0.961 . S
C845 H846 0.960 . S
H846 C845 0.960 . S
H847 N827 0.862 . S
O848 Co816 1.920 . S
O848 C821 1.289 . S
C849 O841 1.258 . S
C849 O842 1.266 . S
Co850 O853 1.970 . S
Co850 N867 1.989 . S
Co850 O875 1.967 . S
Co850 O882 1.920 . S
Co851 O854 1.966 . S
Co851 N860 2.022 . S
Co851 N868 1.993 . S
Co851 O876 1.941 . S
C852 O853 1.258 . S
C852 O854 1.263 . S
O853 Co850 1.970 . S
O853 C852 1.258 . S
O854 Co851 1.966 . S
O854 C852 1.263 . S
C855 O856 1.235 . S
C855 O882 1.289 . S
O856 C855 1.235 . S
C857 C859 1.400 . S
C857 N860 1.351 . S
C857 C862 1.501 . S
C858 C859 1.387 . S
C858 N861 1.341 . S
C859 C857 1.400 . S
C859 C858 1.387 . S
N860 Co851 2.022 . S
N860 C857 1.351 . S
N860 N861 1.365 . S
N861 C858 1.341 . S
N861 N860 1.365 . S
N861 H881 0.862 . S
C862 C857 1.501 . S
C862 H863 0.961 . S
C862 H864 0.961 . S
C862 H865 0.960 . S
H863 C862 0.961 . S
H864 C862 0.961 . S
H865 C862 0.960 . S
C866 N867 1.342 . S
C866 C870 1.401 . S
C866 C871 1.499 . S
N867 Co850 1.989 . S
N867 C866 1.342 . S
N867 N868 1.388 . S
N868 Co851 1.993 . S
N868 N867 1.388 . S
N868 C869 1.346 . S
C869 N868 1.346 . S
C869 C870 1.396 . S
C869 C879 1.510 . S
C870 C866 1.401 . S
C870 C869 1.396 . S
C871 C866 1.499 . S
C871 H872 0.959 . S
C871 H873 0.960 . S
C871 H874 0.961 . S
H872 C871 0.959 . S
H873 C871 0.960 . S
H874 C871 0.961 . S
O875 Co850 1.967 . S
O875 C883 1.258 . S
O876 Co851 1.941 . S
O876 C883 1.266 . S
H877 C879 0.959 . S
H878 C879 0.961 . S
C879 C869 1.510 . S
C879 H877 0.959 . S
C879 H878 0.961 . S
C879 H880 0.960 . S
H880 C879 0.960 . S
H881 N861 0.862 . S
O882 Co850 1.920 . S
O882 C855 1.289 . S
C883 O875 1.258 . S
C883 O876 1.266 . S
Co884 O887 1.970 . S
Co884 N901 1.989 . S
Co884 O909 1.967 . S
Co884 O916 1.920 . S
Co885 O888 1.966 . S
Co885 N894 2.022 . S
Co885 N902 1.993 . S
Co885 O910 1.941 . S
C886 O887 1.258 . S
C886 O888 1.263 . S
O887 Co884 1.970 . S
O887 C886 1.258 . S
O888 Co885 1.966 . S
O888 C886 1.263 . S
C889 O890 1.235 . S
C889 O916 1.289 . S
O890 C889 1.235 . S
C891 C893 1.400 . S
C891 N894 1.351 . S
C891 C896 1.501 . S
C892 C893 1.387 . S
C892 N895 1.341 . S
C893 C891 1.400 . S
C893 C892 1.387 . S
N894 Co885 2.022 . S
N894 C891 1.351 . S
N894 N895 1.365 . S
N895 C892 1.341 . S
N895 N894 1.365 . S
N895 H915 0.862 . S
C896 C891 1.501 . S
C896 H897 0.961 . S
C896 H898 0.961 . S
C896 H899 0.960 . S
H897 C896 0.961 . S
H898 C896 0.961 . S
H899 C896 0.960 . S
C900 N901 1.342 . S
C900 C904 1.401 . S
C900 C905 1.499 . S
N901 Co884 1.989 . S
N901 C900 1.342 . S
N901 N902 1.388 . S
N902 Co885 1.993 . S
N902 N901 1.388 . S
N902 C903 1.346 . S
C903 N902 1.346 . S
C903 C904 1.396 . S
C903 C913 1.510 . S
C904 C900 1.401 . S
C904 C903 1.396 . S
C905 C900 1.499 . S
C905 H906 0.959 . S
C905 H907 0.960 . S
C905 H908 0.961 . S
H906 C905 0.959 . S
H907 C905 0.960 . S
H908 C905 0.961 . S
O909 Co884 1.967 . S
O909 C917 1.258 . S
O910 Co885 1.941 . S
O910 C917 1.266 . S
H911 C913 0.959 . S
H912 C913 0.961 . S
C913 C903 1.510 . S
C913 H911 0.959 . S
C913 H912 0.961 . S
C913 H914 0.960 . S
H914 C913 0.960 . S
H915 N895 0.862 . S
O916 Co884 1.920 . S
O916 C889 1.289 . S
C917 O909 1.258 . S
C917 O910 1.266 . S
Co918 O921 1.970 . S
Co918 N935 1.989 . S
Co918 O943 1.967 . S
Co918 O950 1.920 . S
Co919 O922 1.966 . S
Co919 N928 2.022 . S
Co919 N936 1.993 . S
Co919 O944 1.941 . S
C920 O921 1.258 . S
C920 O922 1.263 . S
O921 Co918 1.970 . S
O921 C920 1.258 . S
O922 Co919 1.966 . S
O922 C920 1.263 . S
C923 O924 1.235 . S
C923 O950 1.289 . S
O924 C923 1.235 . S
C925 C927 1.400 . S
C925 N928 1.351 . S
C925 C930 1.501 . S
C926 C927 1.387 . S
C926 N929 1.341 . S
C927 C925 1.400 . S
C927 C926 1.387 . S
N928 Co919 2.022 . S
N928 C925 1.351 . S
N928 N929 1.365 . S
N929 C926 1.341 . S
N929 N928 1.365 . S
N929 H949 0.862 . S
C930 C925 1.501 . S
C930 H931 0.961 . S
C930 H932 0.961 . S
C930 H933 0.960 . S
H931 C930 0.961 . S
H932 C930 0.961 . S
H933 C930 0.960 . S
C934 N935 1.342 . S
C934 C938 1.401 1_556 S
C934 C939 1.499 1_556 S
N935 Co918 1.989 . S
N935 C934 1.342 . S
N935 N936 1.388 . S
N936 Co919 1.993 . S
N936 N935 1.388 . S
N936 C937 1.346 . S
C937 N936 1.346 . S
C937 C938 1.396 1_556 S
C937 C947 1.510 . S
C938 C934 1.401 1_554 S
C938 C937 1.396 1_554 S
C939 C934 1.499 1_554 S
C939 H940 0.959 1_554 S
C939 H941 0.960 . S
C939 H942 0.961 . S
H940 C939 0.959 1_556 S
H941 C939 0.960 . S
H942 C939 0.961 . S
O943 Co918 1.967 . S
O943 C951 1.258 . S
O944 Co919 1.941 . S
O944 C951 1.266 . S
H945 C947 0.959 . S
H946 C947 0.961 1_554 S
C947 C937 1.510 . S
C947 H945 0.959 . S
C947 H946 0.961 1_556 S
C947 H948 0.960 . S
H948 C947 0.960 . S
H949 N929 0.862 . S
O950 Co918 1.920 . S
O950 C923 1.289 . S
C951 O943 1.258 . S
C951 O944 1.266 . S
Co952 O955 1.970 . S
Co952 N969 1.989 . S
Co952 O977 1.967 . S
Co952 O984 1.920 . S
Co953 O956 1.966 . S
Co953 N962 2.022 . S
Co953 N970 1.993 . S
Co953 O978 1.941 . S
C954 O955 1.258 . S
C954 O956 1.263 . S
O955 Co952 1.970 . S
O955 C954 1.258 . S
O956 Co953 1.966 . S
O956 C954 1.263 . S
C957 O958 1.235 . S
C957 O984 1.289 . S
O958 C957 1.235 . S
C959 C961 1.400 . S
C959 N962 1.351 . S
C959 C964 1.501 . S
C960 C961 1.387 . S
C960 N963 1.341 . S
C961 C959 1.400 . S
C961 C960 1.387 . S
N962 Co953 2.022 . S
N962 C959 1.351 . S
N962 N963 1.365 . S
N963 C960 1.341 . S
N963 N962 1.365 . S
N963 H983 0.862 . S
C964 C959 1.501 . S
C964 H965 0.961 . S
C964 H966 0.961 . S
C964 H967 0.960 . S
H965 C964 0.961 . S
H966 C964 0.961 . S
H967 C964 0.960 . S
C968 N969 1.342 . S
C968 C972 1.401 1_556 S
C968 C973 1.499 1_556 S
N969 Co952 1.989 . S
N969 C968 1.342 . S
N969 N970 1.388 . S
N970 Co953 1.993 . S
N970 N969 1.388 . S
N970 C971 1.346 . S
C971 N970 1.346 . S
C971 C972 1.396 1_556 S
C971 C981 1.510 . S
C972 C968 1.401 1_554 S
C972 C971 1.396 1_554 S
C973 C968 1.499 1_554 S
C973 H974 0.959 1_554 S
C973 H975 0.960 . S
C973 H976 0.961 . S
H974 C973 0.959 1_556 S
H975 C973 0.960 . S
H976 C973 0.961 . S
O977 Co952 1.967 . S
O977 C985 1.258 . S
O978 Co953 1.941 . S
O978 C985 1.266 . S
H979 C981 0.959 . S
H980 C981 0.961 1_554 S
C981 C971 1.510 . S
C981 H979 0.959 . S
C981 H980 0.961 1_556 S
C981 H982 0.960 . S
H982 C981 0.960 . S
H983 N963 0.862 . S
O984 Co952 1.920 . S
O984 C957 1.289 . S
C985 O977 1.258 . S
C985 O978 1.266 . S
Co986 O989 1.970 . S
Co986 N1003 1.989 . S
Co986 O1011 1.967 . S
Co986 O1018 1.920 . S
Co987 O990 1.966 . S
Co987 N996 2.022 . S
Co987 N1004 1.993 . S
Co987 O1012 1.941 . S
C988 O989 1.258 . S
C988 O990 1.263 . S
O989 Co986 1.970 . S
O989 C988 1.258 . S
O990 Co987 1.966 . S
O990 C988 1.263 . S
C991 O992 1.235 . S
C991 O1018 1.289 . S
O992 C991 1.235 . S
C993 C995 1.400 . S
C993 N996 1.351 . S
C993 C998 1.501 . S
C994 C995 1.387 . S
C994 N997 1.341 . S
C995 C993 1.400 . S
C995 C994 1.387 . S
N996 Co987 2.022 . S
N996 C993 1.351 . S
N996 N997 1.365 . S
N997 C994 1.341 . S
N997 N996 1.365 . S
N997 H1017 0.862 . S
C998 C993 1.501 . S
C998 H999 0.961 . S
C998 H1000 0.961 . S
C998 H1001 0.960 . S
H999 C998 0.961 . S
H1000 C998 0.961 . S
H1001 C998 0.960 . S
C1002 N1003 1.342 . S
C1002 C1006 1.401 1_556 S
C1002 C1007 1.499 1_556 S
N1003 Co986 1.989 . S
N1003 C1002 1.342 . S
N1003 N1004 1.388 . S
N1004 Co987 1.993 . S
N1004 N1003 1.388 . S
N1004 C1005 1.346 . S
C1005 N1004 1.346 . S
C1005 C1006 1.396 1_556 S
C1005 C1015 1.510 . S
C1006 C1002 1.401 1_554 S
C1006 C1005 1.396 1_554 S
C1007 C1002 1.499 1_554 S
C1007 H1008 0.959 1_554 S
C1007 H1009 0.960 . S
C1007 H1010 0.961 . S
H1008 C1007 0.959 1_556 S
H1009 C1007 0.960 . S
H1010 C1007 0.961 . S
O1011 Co986 1.967 . S
O1011 C1019 1.258 . S
O1012 Co987 1.941 . S
O1012 C1019 1.266 . S
H1013 C1015 0.959 . S
H1014 C1015 0.961 1_554 S
C1015 C1005 1.510 . S
C1015 H1013 0.959 . S
C1015 H1014 0.961 1_556 S
C1015 H1016 0.960 . S
H1016 C1015 0.960 . S
H1017 N997 0.862 . S
O1018 Co986 1.920 . S
O1018 C991 1.289 . S
C1019 O1011 1.258 . S
C1019 O1012 1.266 . S
Co1020 O1023 1.970 . S
Co1020 N1037 1.989 . S
Co1020 O1045 1.967 . S
Co1020 O1052 1.920 . S
Co1021 O1024 1.966 . S
Co1021 N1030 2.022 . S
Co1021 N1038 1.993 . S
Co1021 O1046 1.941 . S
C1022 O1023 1.258 . S
C1022 O1024 1.263 . S
O1023 Co1020 1.970 . S
O1023 C1022 1.258 . S
O1024 Co1021 1.966 . S
O1024 C1022 1.263 . S
C1025 O1026 1.235 . S
C1025 O1052 1.289 . S
O1026 C1025 1.235 . S
C1027 C1029 1.400 . S
C1027 N1030 1.351 . S
C1027 C1032 1.501 . S
C1028 C1029 1.387 . S
C1028 N1031 1.341 . S
C1029 C1027 1.400 . S
C1029 C1028 1.387 . S
N1030 Co1021 2.022 . S
N1030 C1027 1.351 . S
N1030 N1031 1.365 . S
N1031 C1028 1.341 . S
N1031 N1030 1.365 . S
N1031 H1051 0.862 . S
C1032 C1027 1.501 . S
C1032 H1033 0.961 . S
C1032 H1034 0.961 . S
C1032 H1035 0.960 . S
H1033 C1032 0.961 . S
H1034 C1032 0.961 . S
H1035 C1032 0.960 . S
C1036 N1037 1.342 . S
C1036 C1040 1.401 . S
C1036 C1041 1.499 . S
N1037 Co1020 1.989 . S
N1037 C1036 1.342 . S
N1037 N1038 1.388 . S
N1038 Co1021 1.993 . S
N1038 N1037 1.388 . S
N1038 C1039 1.346 . S
C1039 N1038 1.346 . S
C1039 C1040 1.396 . S
C1039 C1049 1.510 . S
C1040 C1036 1.401 . S
C1040 C1039 1.396 . S
C1041 C1036 1.499 . S
C1041 H1042 0.959 . S
C1041 H1043 0.960 . S
C1041 H1044 0.961 . S
H1042 C1041 0.959 . S
H1043 C1041 0.960 . S
H1044 C1041 0.961 . S
O1045 Co1020 1.967 . S
O1045 C1053 1.258 . S
O1046 Co1021 1.941 . S
O1046 C1053 1.266 . S
H1047 C1049 0.959 . S
H1048 C1049 0.961 . S
C1049 C1039 1.510 . S
C1049 H1047 0.959 . S
C1049 H1048 0.961 . S
C1049 H1050 0.960 . S
H1050 C1049 0.960 . S
H1051 N1031 0.862 . S
O1052 Co1020 1.920 . S
O1052 C1025 1.289 . S
C1053 O1045 1.258 . S
C1053 O1046 1.266 . S
Co1054 O1057 1.970 . S
Co1054 N1071 1.989 . S
Co1054 O1079 1.967 . S
Co1054 O1086 1.920 . S
Co1055 O1058 1.966 . S
Co1055 N1064 2.022 . S
Co1055 N1072 1.993 . S
Co1055 O1080 1.941 . S
C1056 O1057 1.258 . S
C1056 O1058 1.263 . S
O1057 Co1054 1.970 . S
O1057 C1056 1.258 . S
O1058 Co1055 1.966 . S
O1058 C1056 1.263 . S
C1059 O1060 1.235 . S
C1059 O1086 1.289 . S
O1060 C1059 1.235 . S
C1061 C1063 1.400 . S
C1061 N1064 1.351 . S
C1061 C1066 1.501 . S
C1062 C1063 1.387 . S
C1062 N1065 1.341 . S
C1063 C1061 1.400 . S
C1063 C1062 1.387 . S
N1064 Co1055 2.022 . S
N1064 C1061 1.351 . S
N1064 N1065 1.365 . S
N1065 C1062 1.341 . S
N1065 N1064 1.365 . S
N1065 H1085 0.862 . S
C1066 C1061 1.501 . S
C1066 H1067 0.961 . S
C1066 H1068 0.961 . S
C1066 H1069 0.960 . S
H1067 C1066 0.961 . S
H1068 C1066 0.961 . S
H1069 C1066 0.960 . S
C1070 N1071 1.342 . S
C1070 C1074 1.401 . S
C1070 C1075 1.499 . S
N1071 Co1054 1.989 . S
N1071 C1070 1.342 . S
N1071 N1072 1.388 . S
N1072 Co1055 1.993 . S
N1072 N1071 1.388 . S
N1072 C1073 1.346 . S
C1073 N1072 1.346 . S
C1073 C1074 1.396 . S
C1073 C1083 1.510 . S
C1074 C1070 1.401 . S
C1074 C1073 1.396 . S
C1075 C1070 1.499 . S
C1075 H1076 0.959 . S
C1075 H1077 0.960 . S
C1075 H1078 0.961 . S
H1076 C1075 0.959 . S
H1077 C1075 0.960 . S
H1078 C1075 0.961 . S
O1079 Co1054 1.967 . S
O1079 C1087 1.258 . S
O1080 Co1055 1.941 . S
O1080 C1087 1.266 . S
H1081 C1083 0.959 . S
H1082 C1083 0.961 . S
C1083 C1073 1.510 . S
C1083 H1081 0.959 . S
C1083 H1082 0.961 . S
C1083 H1084 0.960 . S
H1084 C1083 0.960 . S
H1085 N1065 0.862 . S
O1086 Co1054 1.920 . S
O1086 C1059 1.289 . S
C1087 O1079 1.258 . S
C1087 O1080 1.266 . S
Co1088 O1091 1.970 . S
Co1088 N1105 1.989 . S
Co1088 O1113 1.967 . S
Co1088 O1120 1.920 . S
Co1089 O1092 1.966 . S
Co1089 N1098 2.022 . S
Co1089 N1106 1.993 . S
Co1089 O1114 1.941 . S
C1090 O1091 1.258 . S
C1090 O1092 1.263 . S
O1091 Co1088 1.970 . S
O1091 C1090 1.258 . S
O1092 Co1089 1.966 . S
O1092 C1090 1.263 . S
C1093 O1094 1.235 . S
C1093 O1120 1.289 . S
O1094 C1093 1.235 . S
C1095 C1097 1.400 . S
C1095 N1098 1.351 . S
C1095 C1100 1.501 . S
C1096 C1097 1.387 . S
C1096 N1099 1.341 . S
C1097 C1095 1.400 . S
C1097 C1096 1.387 . S
N1098 Co1089 2.022 . S
N1098 C1095 1.351 . S
N1098 N1099 1.365 . S
N1099 C1096 1.341 . S
N1099 N1098 1.365 . S
N1099 H1119 0.862 . S
C1100 C1095 1.501 . S
C1100 H1101 0.961 . S
C1100 H1102 0.961 . S
C1100 H1103 0.960 . S
H1101 C1100 0.961 . S
H1102 C1100 0.961 . S
H1103 C1100 0.960 . S
C1104 N1105 1.342 . S
C1104 C1108 1.401 . S
C1104 C1109 1.499 . S
N1105 Co1088 1.989 . S
N1105 C1104 1.342 . S
N1105 N1106 1.388 . S
N1106 Co1089 1.993 . S
N1106 N1105 1.388 . S
N1106 C1107 1.346 . S
C1107 N1106 1.346 . S
C1107 C1108 1.396 . S
C1107 C1117 1.510 . S
C1108 C1104 1.401 . S
C1108 C1107 1.396 . S
C1109 C1104 1.499 . S
C1109 H1110 0.959 . S
C1109 H1111 0.960 . S
C1109 H1112 0.961 . S
H1110 C1109 0.959 . S
H1111 C1109 0.960 . S
H1112 C1109 0.961 . S
O1113 Co1088 1.967 . S
O1113 C1121 1.258 . S
O1114 Co1089 1.941 . S
O1114 C1121 1.266 . S
H1115 C1117 0.959 . S
H1116 C1117 0.961 . S
C1117 C1107 1.510 . S
C1117 H1115 0.959 . S
C1117 H1116 0.961 . S
C1117 H1118 0.960 . S
H1118 C1117 0.960 . S
H1119 N1099 0.862 . S
O1120 Co1088 1.920 . S
O1120 C1093 1.289 . S
C1121 O1113 1.258 . S
C1121 O1114 1.266 . S
Co1122 O1125 1.970 . S
Co1122 N1139 1.989 . S
Co1122 O1147 1.967 . S
Co1122 O1154 1.920 . S
Co1123 O1126 1.966 . S
Co1123 N1132 2.022 . S
Co1123 N1140 1.993 . S
Co1123 O1148 1.941 . S
C1124 O1125 1.258 . S
C1124 O1126 1.263 . S
O1125 Co1122 1.970 . S
O1125 C1124 1.258 . S
O1126 Co1123 1.966 . S
O1126 C1124 1.263 . S
C1127 O1128 1.235 . S
C1127 O1154 1.289 . S
O1128 C1127 1.235 . S
C1129 C1131 1.400 . S
C1129 N1132 1.351 . S
C1129 C1134 1.501 . S
C1130 C1131 1.387 . S
C1130 N1133 1.341 . S
C1131 C1129 1.400 . S
C1131 C1130 1.387 . S
N1132 Co1123 2.022 . S
N1132 C1129 1.351 . S
N1132 N1133 1.365 . S
N1133 C1130 1.341 . S
N1133 N1132 1.365 . S
N1133 H1153 0.862 . S
C1134 C1129 1.501 . S
C1134 H1135 0.961 . S
C1134 H1136 0.961 . S
C1134 H1137 0.960 . S
H1135 C1134 0.961 . S
H1136 C1134 0.961 . S
H1137 C1134 0.960 . S
C1138 N1139 1.342 . S
C1138 C1142 1.401 . S
C1138 C1143 1.499 . S
N1139 Co1122 1.989 . S
N1139 C1138 1.342 . S
N1139 N1140 1.388 . S
N1140 Co1123 1.993 . S
N1140 N1139 1.388 . S
N1140 C1141 1.346 . S
C1141 N1140 1.346 . S
C1141 C1142 1.396 . S
C1141 C1151 1.510 . S
C1142 C1138 1.401 . S
C1142 C1141 1.396 . S
C1143 C1138 1.499 . S
C1143 H1144 0.959 . S
C1143 H1145 0.960 . S
C1143 H1146 0.961 . S
H1144 C1143 0.959 . S
H1145 C1143 0.960 . S
H1146 C1143 0.961 . S
O1147 Co1122 1.967 . S
O1147 C1155 1.258 . S
O1148 Co1123 1.941 . S
O1148 C1155 1.266 . S
H1149 C1151 0.959 . S
H1150 C1151 0.961 . S
C1151 C1141 1.510 . S
C1151 H1149 0.959 . S
C1151 H1150 0.961 . S
C1151 H1152 0.960 . S
H1152 C1151 0.960 . S
H1153 N1133 0.862 . S
O1154 Co1122 1.920 . S
O1154 C1127 1.289 . S
C1155 O1147 1.258 . S
C1155 O1148 1.266 . S
Co1156 O1159 1.970 . S
Co1156 N1173 1.989 . S
Co1156 O1181 1.967 . S
Co1156 O1188 1.920 . S
Co1157 O1160 1.966 . S
Co1157 N1166 2.022 . S
Co1157 N1174 1.993 . S
Co1157 O1182 1.941 . S
C1158 O1159 1.258 . S
C1158 O1160 1.263 . S
O1159 Co1156 1.970 . S
O1159 C1158 1.258 . S
O1160 Co1157 1.966 . S
O1160 C1158 1.263 . S
C1161 O1162 1.235 . S
C1161 O1188 1.289 . S
O1162 C1161 1.235 . S
C1163 C1165 1.400 . S
C1163 N1166 1.351 . S
C1163 C1168 1.501 . S
C1164 C1165 1.387 . S
C1164 N1167 1.341 . S
C1165 C1163 1.400 . S
C1165 C1164 1.387 . S
N1166 Co1157 2.022 . S
N1166 C1163 1.351 . S
N1166 N1167 1.365 . S
N1167 C1164 1.341 . S
N1167 N1166 1.365 . S
N1167 H1187 0.862 . S
C1168 C1163 1.501 . S
C1168 H1169 0.961 . S
C1168 H1170 0.961 . S
C1168 H1171 0.960 . S
H1169 C1168 0.961 . S
H1170 C1168 0.961 . S
H1171 C1168 0.960 . S
C1172 N1173 1.342 . S
C1172 C1176 1.401 . S
C1172 C1177 1.499 . S
N1173 Co1156 1.989 . S
N1173 C1172 1.342 . S
N1173 N1174 1.388 . S
N1174 Co1157 1.993 . S
N1174 N1173 1.388 . S
N1174 C1175 1.346 . S
C1175 N1174 1.346 . S
C1175 C1176 1.396 . S
C1175 C1185 1.510 . S
C1176 C1172 1.401 . S
C1176 C1175 1.396 . S
C1177 C1172 1.499 . S
C1177 H1178 0.959 . S
C1177 H1179 0.960 . S
C1177 H1180 0.961 . S
H1178 C1177 0.959 . S
H1179 C1177 0.960 . S
H1180 C1177 0.961 . S
O1181 Co1156 1.967 . S
O1181 C1189 1.258 . S
O1182 Co1157 1.941 . S
O1182 C1189 1.266 . S
H1183 C1185 0.959 . S
H1184 C1185 0.961 . S
C1185 C1175 1.510 . S
C1185 H1183 0.959 . S
C1185 H1184 0.961 . S
C1185 H1186 0.960 . S
H1186 C1185 0.960 . S
H1187 N1167 0.862 . S
O1188 Co1156 1.920 . S
O1188 C1161 1.289 . S
C1189 O1181 1.258 . S
C1189 O1182 1.266 . S
Co1190 O1193 1.970 . S
Co1190 N1207 1.989 . S
Co1190 O1215 1.967 . S
Co1190 O1222 1.920 . S
Co1191 O1194 1.966 . S
Co1191 N1200 2.022 . S
Co1191 N1208 1.993 . S
Co1191 O1216 1.941 . S
C1192 O1193 1.258 . S
C1192 O1194 1.263 . S
O1193 Co1190 1.970 . S
O1193 C1192 1.258 . S
O1194 Co1191 1.966 . S
O1194 C1192 1.263 . S
C1195 O1196 1.235 . S
C1195 O1222 1.289 . S
O1196 C1195 1.235 . S
C1197 C1199 1.400 . S
C1197 N1200 1.351 . S
C1197 C1202 1.501 . S
C1198 C1199 1.387 . S
C1198 N1201 1.341 . S
C1199 C1197 1.400 . S
C1199 C1198 1.387 . S
N1200 Co1191 2.022 . S
N1200 C1197 1.351 . S
N1200 N1201 1.365 . S
N1201 C1198 1.341 . S
N1201 N1200 1.365 . S
N1201 H1221 0.862 . S
C1202 C1197 1.501 . S
C1202 H1203 0.961 . S
C1202 H1204 0.961 . S
C1202 H1205 0.960 . S
H1203 C1202 0.961 . S
H1204 C1202 0.961 . S
H1205 C1202 0.960 . S
C1206 N1207 1.342 . S
C1206 C1210 1.401 . S
C1206 C1211 1.499 . S
N1207 Co1190 1.989 . S
N1207 C1206 1.342 . S
N1207 N1208 1.388 . S
N1208 Co1191 1.993 . S
N1208 N1207 1.388 . S
N1208 C1209 1.346 . S
C1209 N1208 1.346 . S
C1209 C1210 1.396 . S
C1209 C1219 1.510 . S
C1210 C1206 1.401 . S
C1210 C1209 1.396 . S
C1211 C1206 1.499 . S
C1211 H1212 0.959 . S
C1211 H1213 0.960 . S
C1211 H1214 0.961 . S
H1212 C1211 0.959 . S
H1213 C1211 0.960 . S
H1214 C1211 0.961 . S
O1215 Co1190 1.967 . S
O1215 C1223 1.258 . S
O1216 Co1191 1.941 . S
O1216 C1223 1.266 . S
H1217 C1219 0.959 . S
H1218 C1219 0.961 . S
C1219 C1209 1.510 . S
C1219 H1217 0.959 . S
C1219 H1218 0.961 . S
C1219 H1220 0.960 . S
H1220 C1219 0.960 . S
H1221 N1201 0.862 . S
O1222 Co1190 1.920 . S
O1222 C1195 1.289 . S
C1223 O1215 1.258 . S
C1223 O1216 1.266 . S
C1224 C1225 1.349 . S
C1224 C1226 1.327 . S
C1224 H1249 0.950 . S
C1225 C1224 1.349 . S
C1225 C1241 1.349 . S
C1226 C1224 1.327 . S
C1226 C1245 1.429 . S
C1226 H1250 0.950 . S
C1227 C1244 1.574 . S
C1227 C1246 1.368 . S
C1227 H1251 0.949 . S
H1228 C1232 0.949 . S
C1229 C1230 1.349 . S
C1229 C1231 1.327 . S
C1229 H1252 0.950 . S
C1230 C1229 1.349 . S
C1230 C1242 1.349 . S
C1231 C1229 1.327 . S
C1231 C1247 1.429 . S
C1231 H1253 0.950 . S
C1232 H1228 0.949 . S
C1232 C1240 1.574 . S
C1232 C1248 1.368 . S
H1233 C1241 0.950 . S
H1234 C1239 0.950 . S
H1235 C1240 0.949 . S
H1236 C1242 0.950 . S
H1237 C1243 0.950 . S
H1238 C1244 0.949 . S
C1239 H1234 0.950 . S
C1239 C1241 1.327 . S
C1239 C1245 1.429 . S
C1240 C1232 1.574 . S
C1240 H1235 0.949 . S
C1240 C1246 1.368 . S
C1241 C1225 1.349 . S
C1241 H1233 0.950 . S
C1241 C1239 1.327 . S
C1242 C1230 1.349 . S
C1242 H1236 0.950 . S
C1242 C1243 1.327 . S
C1243 H1237 0.950 . S
C1243 C1242 1.327 . S
C1243 C1247 1.429 . S
C1244 C1227 1.574 . S
C1244 H1238 0.949 . S
C1244 C1248 1.368 . S
C1245 C1226 1.429 . S
C1245 C1239 1.429 . S
C1245 C1246 1.523 . S
C1246 C1227 1.368 . S
C1246 C1240 1.368 . S
C1246 C1245 1.523 . S
C1247 C1231 1.429 . S
C1247 C1243 1.429 . S
C1247 C1248 1.523 . S
C1248 C1232 1.368 . S
C1248 C1244 1.368 . S
C1248 C1247 1.523 . S
H1249 C1224 0.950 . S
H1250 C1226 0.950 . S
H1251 C1227 0.949 . S
H1252 C1229 0.950 . S
H1253 C1231 0.950 . S
C1254 C1255 1.349 . S
C1254 C1256 1.327 . S
C1254 H1279 0.950 . S
C1255 C1254 1.349 . S
C1255 C1271 1.349 . S
C1256 C1254 1.327 . S
C1256 C1275 1.429 . S
C1256 H1280 0.950 . S
C1257 C1274 1.574 . S
C1257 C1276 1.368 . S
C1257 H1281 0.949 . S
H1258 C1262 0.949 . S
C1259 C1260 1.349 . S
C1259 C1261 1.327 . S
C1259 H1282 0.950 . S
C1260 C1259 1.349 . S
C1260 C1272 1.349 . S
C1261 C1259 1.327 . S
C1261 C1277 1.429 . S
C1261 H1283 0.950 . S
C1262 H1258 0.949 . S
C1262 C1270 1.574 . S
C1262 C1278 1.368 . S
H1263 C1271 0.950 . S
H1264 C1269 0.950 . S
H1265 C1270 0.949 . S
H1266 C1272 0.950 . S
H1267 C1273 0.950 . S
H1268 C1274 0.949 . S
C1269 H1264 0.950 . S
C1269 C1271 1.327 . S
C1269 C1275 1.429 . S
C1270 C1262 1.574 . S
C1270 H1265 0.949 . S
C1270 C1276 1.368 . S
C1271 C1255 1.349 . S
C1271 H1263 0.950 . S
C1271 C1269 1.327 . S
C1272 C1260 1.349 . S
C1272 H1266 0.950 . S
C1272 C1273 1.327 . S
C1273 H1267 0.950 . S
C1273 C1272 1.327 . S
C1273 C1277 1.429 . S
C1274 C1257 1.574 . S
C1274 H1268 0.949 . S
C1274 C1278 1.368 . S
C1275 C1256 1.429 . S
C1275 C1269 1.429 . S
C1275 C1276 1.523 . S
C1276 C1257 1.368 . S
C1276 C1270 1.368 . S
C1276 C1275 1.523 . S
C1277 C1261 1.429 . S
C1277 C1273 1.429 . S
C1277 C1278 1.523 . S
C1278 C1262 1.368 . S
C1278 C1274 1.368 . S
C1278 C1277 1.523 . S
H1279 C1254 0.950 . S
H1280 C1256 0.950 . S
H1281 C1257 0.949 . S
H1282 C1259 0.950 . S
H1283 C1261 0.950 . S
C1284 C1285 1.349 . S
C1284 C1286 1.327 . S
C1284 H1309 0.950 . S
C1285 C1284 1.349 . S
C1285 C1301 1.349 . S
C1286 C1284 1.327 . S
C1286 C1305 1.429 . S
C1286 H1310 0.950 . S
C1287 C1304 1.574 . S
C1287 C1306 1.368 . S
C1287 H1311 0.949 . S
H1288 C1292 0.949 . S
C1289 C1290 1.349 . S
C1289 C1291 1.327 . S
C1289 H1312 0.950 . S
C1290 C1289 1.349 . S
C1290 C1302 1.349 . S
C1291 C1289 1.327 . S
C1291 C1307 1.429 . S
C1291 H1313 0.950 . S
C1292 H1288 0.949 . S
C1292 C1300 1.574 . S
C1292 C1308 1.368 . S
H1293 C1301 0.950 . S
H1294 C1299 0.950 . S
H1295 C1300 0.949 . S
H1296 C1302 0.950 . S
H1297 C1303 0.950 . S
H1298 C1304 0.949 . S
C1299 H1294 0.950 . S
C1299 C1301 1.327 . S
C1299 C1305 1.429 . S
C1300 C1292 1.574 . S
C1300 H1295 0.949 . S
C1300 C1306 1.368 . S
C1301 C1285 1.349 . S
C1301 H1293 0.950 . S
C1301 C1299 1.327 . S
C1302 C1290 1.349 . S
C1302 H1296 0.950 . S
C1302 C1303 1.327 . S
C1303 H1297 0.950 . S
C1303 C1302 1.327 . S
C1303 C1307 1.429 . S
C1304 C1287 1.574 . S
C1304 H1298 0.949 . S
C1304 C1308 1.368 . S
C1305 C1286 1.429 . S
C1305 C1299 1.429 . S
C1305 C1306 1.523 . S
C1306 C1287 1.368 . S
C1306 C1300 1.368 . S
C1306 C1305 1.523 . S
C1307 C1291 1.429 . S
C1307 C1303 1.429 . S
C1307 C1308 1.523 . S
C1308 C1292 1.368 . S
C1308 C1304 1.368 . S
C1308 C1307 1.523 . S
H1309 C1284 0.950 . S
H1310 C1286 0.950 . S
H1311 C1287 0.949 . S
H1312 C1289 0.950 . S
H1313 C1291 0.950 . S
C1314 C1315 1.349 . S
C1314 C1316 1.327 . S
C1314 H1339 0.950 . S
C1315 C1314 1.349 . S
C1315 C1331 1.349 . S
C1316 C1314 1.327 . S
C1316 C1335 1.429 . S
C1316 H1340 0.950 . S
C1317 C1334 1.574 . S
C1317 C1336 1.368 . S
C1317 H1341 0.949 . S
H1318 C1322 0.949 . S
C1319 C1320 1.349 . S
C1319 C1321 1.327 . S
C1319 H1342 0.950 . S
C1320 C1319 1.349 . S
C1320 C1332 1.349 . S
C1321 C1319 1.327 . S
C1321 C1337 1.429 . S
C1321 H1343 0.950 . S
C1322 H1318 0.949 . S
C1322 C1330 1.574 . S
C1322 C1338 1.368 . S
H1323 C1331 0.950 . S
H1324 C1329 0.950 . S
H1325 C1330 0.949 . S
H1326 C1332 0.950 . S
H1327 C1333 0.950 . S
H1328 C1334 0.949 . S
C1329 H1324 0.950 . S
C1329 C1331 1.327 . S
C1329 C1335 1.429 . S
C1330 C1322 1.574 . S
C1330 H1325 0.949 . S
C1330 C1336 1.368 . S
C1331 C1315 1.349 . S
C1331 H1323 0.950 . S
C1331 C1329 1.327 . S
C1332 C1320 1.349 . S
C1332 H1326 0.950 . S
C1332 C1333 1.327 . S
C1333 H1327 0.950 . S
C1333 C1332 1.327 . S
C1333 C1337 1.429 . S
C1334 C1317 1.574 . S
C1334 H1328 0.949 . S
C1334 C1338 1.368 . S
C1335 C1316 1.429 . S
C1335 C1329 1.429 . S
C1335 C1336 1.523 . S
C1336 C1317 1.368 . S
C1336 C1330 1.368 . S
C1336 C1335 1.523 . S
C1337 C1321 1.429 . S
C1337 C1333 1.429 . S
C1337 C1338 1.523 . S
C1338 C1322 1.368 . S
C1338 C1334 1.368 . S
C1338 C1337 1.523 . S
H1339 C1314 0.950 . S
H1340 C1316 0.950 . S
H1341 C1317 0.949 . S
H1342 C1319 0.950 . S
H1343 C1321 0.950 . S
C1344 C1345 1.349 . S
C1344 C1346 1.327 . S
C1344 H1369 0.950 . S
C1345 C1344 1.349 . S
C1345 C1361 1.349 . S
C1346 C1344 1.327 . S
C1346 C1365 1.429 . S
C1346 H1370 0.950 . S
C1347 C1364 1.574 . S
C1347 C1366 1.368 . S
C1347 H1371 0.949 . S
H1348 C1352 0.949 . S
C1349 C1350 1.349 . S
C1349 C1351 1.327 . S
C1349 H1372 0.950 . S
C1350 C1349 1.349 . S
C1350 C1362 1.349 . S
C1351 C1349 1.327 . S
C1351 C1367 1.429 . S
C1351 H1373 0.950 . S
C1352 H1348 0.949 . S
C1352 C1360 1.574 . S
C1352 C1368 1.368 . S
H1353 C1361 0.950 . S
H1354 C1359 0.950 . S
H1355 C1360 0.949 . S
H1356 C1362 0.950 . S
H1357 C1363 0.950 . S
H1358 C1364 0.949 . S
C1359 H1354 0.950 . S
C1359 C1361 1.327 . S
C1359 C1365 1.429 . S
C1360 C1352 1.574 . S
C1360 H1355 0.949 . S
C1360 C1366 1.368 . S
C1361 C1345 1.349 . S
C1361 H1353 0.950 . S
C1361 C1359 1.327 . S
C1362 C1350 1.349 . S
C1362 H1356 0.950 . S
C1362 C1363 1.327 . S
C1363 H1357 0.950 . S
C1363 C1362 1.327 . S
C1363 C1367 1.429 . S
C1364 C1347 1.574 . S
C1364 H1358 0.949 . S
C1364 C1368 1.368 . S
C1365 C1346 1.429 . S
C1365 C1359 1.429 . S
C1365 C1366 1.523 . S
C1366 C1347 1.368 . S
C1366 C1360 1.368 . S
C1366 C1365 1.523 . S
C1367 C1351 1.429 . S
C1367 C1363 1.429 . S
C1367 C1368 1.523 . S
C1368 C1352 1.368 . S
C1368 C1364 1.368 . S
C1368 C1367 1.523 . S
H1369 C1344 0.950 . S
H1370 C1346 0.950 . S
H1371 C1347 0.949 . S
H1372 C1349 0.950 . S
H1373 C1351 0.950 . S
C1374 C1375 1.349 . S
C1374 C1376 1.327 . S
C1374 H1399 0.950 . S
C1375 C1374 1.349 . S
C1375 C1391 1.349 . S
C1376 C1374 1.327 . S
C1376 C1395 1.429 . S
C1376 H1400 0.950 . S
C1377 C1394 1.574 . S
C1377 C1396 1.368 . S
C1377 H1401 0.949 . S
H1378 C1382 0.949 . S
C1379 C1380 1.349 . S
C1379 C1381 1.327 . S
C1379 H1402 0.950 . S
C1380 C1379 1.349 . S
C1380 C1392 1.349 . S
C1381 C1379 1.327 . S
C1381 C1397 1.429 . S
C1381 H1403 0.950 . S
C1382 H1378 0.949 . S
C1382 C1390 1.574 . S
C1382 C1398 1.368 . S
H1383 C1391 0.950 . S
H1384 C1389 0.950 . S
H1385 C1390 0.949 . S
H1386 C1392 0.950 . S
H1387 C1393 0.950 . S
H1388 C1394 0.949 . S
C1389 H1384 0.950 . S
C1389 C1391 1.327 . S
C1389 C1395 1.429 . S
C1390 C1382 1.574 . S
C1390 H1385 0.949 . S
C1390 C1396 1.368 . S
C1391 C1375 1.349 . S
C1391 H1383 0.950 . S
C1391 C1389 1.327 . S
C1392 C1380 1.349 . S
C1392 H1386 0.950 . S
C1392 C1393 1.327 . S
C1393 H1387 0.950 . S
C1393 C1392 1.327 . S
C1393 C1397 1.429 . S
C1394 C1377 1.574 . S
C1394 H1388 0.949 . S
C1394 C1398 1.368 . S
C1395 C1376 1.429 . S
C1395 C1389 1.429 . S
C1395 C1396 1.523 . S
C1396 C1377 1.368 . S
C1396 C1390 1.368 . S
C1396 C1395 1.523 . S
C1397 C1381 1.429 . S
C1397 C1393 1.429 . S
C1397 C1398 1.523 . S
C1398 C1382 1.368 . S
C1398 C1394 1.368 . S
C1398 C1397 1.523 . S
H1399 C1374 0.950 . S
H1400 C1376 0.950 . S
H1401 C1377 0.949 . S
H1402 C1379 0.950 . S
H1403 C1381 0.950 . S
C1404 C1405 1.349 . S
C1404 C1406 1.327 . S
C1404 H1429 0.950 . S
C1405 C1404 1.349 . S
C1405 C1421 1.349 . S
C1406 C1404 1.327 . S
C1406 C1425 1.429 . S
C1406 H1430 0.950 . S
C1407 C1424 1.574 . S
C1407 C1426 1.368 . S
C1407 H1431 0.949 . S
H1408 C1412 0.949 . S
C1409 C1410 1.349 . S
C1409 C1411 1.327 . S
C1409 H1432 0.950 . S
C1410 C1409 1.349 . S
C1410 C1422 1.349 . S
C1411 C1409 1.327 . S
C1411 C1427 1.429 . S
C1411 H1433 0.950 . S
C1412 H1408 0.949 . S
C1412 C1420 1.574 . S
C1412 C1428 1.368 . S
H1413 C1421 0.950 . S
H1414 C1419 0.950 . S
H1415 C1420 0.949 . S
H1416 C1422 0.950 . S
H1417 C1423 0.950 . S
H1418 C1424 0.949 . S
C1419 H1414 0.950 . S
C1419 C1421 1.327 . S
C1419 C1425 1.429 . S
C1420 C1412 1.574 . S
C1420 H1415 0.949 . S
C1420 C1426 1.368 . S
C1421 C1405 1.349 . S
C1421 H1413 0.950 . S
C1421 C1419 1.327 . S
C1422 C1410 1.349 . S
C1422 H1416 0.950 . S
C1422 C1423 1.327 . S
C1423 H1417 0.950 . S
C1423 C1422 1.327 . S
C1423 C1427 1.429 . S
C1424 C1407 1.574 . S
C1424 H1418 0.949 . S
C1424 C1428 1.368 . S
C1425 C1406 1.429 . S
C1425 C1419 1.429 . S
C1425 C1426 1.523 . S
C1426 C1407 1.368 . S
C1426 C1420 1.368 . S
C1426 C1425 1.523 . S
C1427 C1411 1.429 . S
C1427 C1423 1.429 . S
C1427 C1428 1.523 . S
C1428 C1412 1.368 . S
C1428 C1424 1.368 . S
C1428 C1427 1.523 . S
H1429 C1404 0.950 . S
H1430 C1406 0.950 . S
H1431 C1407 0.949 . S
H1432 C1409 0.950 . S
H1433 C1411 0.950 . S
C1434 C1435 1.349 . S
C1434 C1436 1.327 . S
C1434 H1459 0.950 . S
C1435 C1434 1.349 . S
C1435 C1451 1.349 . S
C1436 C1434 1.327 . S
C1436 C1455 1.429 . S
C1436 H1460 0.950 . S
C1437 C1454 1.574 . S
C1437 C1456 1.368 . S
C1437 H1461 0.949 . S
H1438 C1442 0.949 . S
C1439 C1440 1.349 . S
C1439 C1441 1.327 . S
C1439 H1462 0.950 . S
C1440 C1439 1.349 . S
C1440 C1452 1.349 . S
C1441 C1439 1.327 . S
C1441 C1457 1.429 . S
C1441 H1463 0.950 . S
C1442 H1438 0.949 . S
C1442 C1450 1.574 . S
C1442 C1458 1.368 . S
H1443 C1451 0.950 . S
H1444 C1449 0.950 . S
H1445 C1450 0.949 . S
H1446 C1452 0.950 . S
H1447 C1453 0.950 . S
H1448 C1454 0.949 . S
C1449 H1444 0.950 . S
C1449 C1451 1.327 . S
C1449 C1455 1.429 . S
C1450 C1442 1.574 . S
C1450 H1445 0.949 . S
C1450 C1456 1.368 . S
C1451 C1435 1.349 . S
C1451 H1443 0.950 . S
C1451 C1449 1.327 . S
C1452 C1440 1.349 . S
C1452 H1446 0.950 . S
C1452 C1453 1.327 . S
C1453 H1447 0.950 . S
C1453 C1452 1.327 . S
C1453 C1457 1.429 . S
C1454 C1437 1.574 . S
C1454 H1448 0.949 . S
C1454 C1458 1.368 . S
C1455 C1436 1.429 . S
C1455 C1449 1.429 . S
C1455 C1456 1.523 . S
C1456 C1437 1.368 . S
C1456 C1450 1.368 . S
C1456 C1455 1.523 . S
C1457 C1441 1.429 . S
C1457 C1453 1.429 . S
C1457 C1458 1.523 . S
C1458 C1442 1.368 . S
C1458 C1454 1.368 . S
C1458 C1457 1.523 . S
H1459 C1434 0.950 . S
H1460 C1436 0.950 . S
H1461 C1437 0.949 . S
H1462 C1439 0.950 . S
H1463 C1441 0.950 . S
C1464 C1465 1.349 . S
C1464 C1466 1.327 . S
C1464 H1489 0.950 . S
C1465 C1464 1.349 . S
C1465 C1481 1.349 . S
C1466 C1464 1.327 . S
C1466 C1485 1.429 . S
C1466 H1490 0.950 . S
C1467 C1484 1.574 . S
C1467 C1486 1.368 . S
C1467 H1491 0.949 . S
H1468 C1472 0.949 . S
C1469 C1470 1.349 . S
C1469 C1471 1.327 . S
C1469 H1492 0.950 . S
C1470 C1469 1.349 . S
C1470 C1482 1.349 . S
C1471 C1469 1.327 . S
C1471 C1487 1.429 . S
C1471 H1493 0.950 . S
C1472 H1468 0.949 . S
C1472 C1480 1.574 . S
C1472 C1488 1.368 . S
H1473 C1481 0.950 . S
H1474 C1479 0.950 . S
H1475 C1480 0.949 . S
H1476 C1482 0.950 . S
H1477 C1483 0.950 . S
H1478 C1484 0.949 . S
C1479 H1474 0.950 . S
C1479 C1481 1.327 . S
C1479 C1485 1.429 . S
C1480 C1472 1.574 . S
C1480 H1475 0.949 . S
C1480 C1486 1.368 . S
C1481 C1465 1.349 . S
C1481 H1473 0.950 . S
C1481 C1479 1.327 . S
C1482 C1470 1.349 . S
C1482 H1476 0.950 . S
C1482 C1483 1.327 . S
C1483 H1477 0.950 . S
C1483 C1482 1.327 . S
C1483 C1487 1.429 . S
C1484 C1467 1.574 . S
C1484 H1478 0.949 . S
C1484 C1488 1.368 . S
C1485 C1466 1.429 . S
C1485 C1479 1.429 . S
C1485 C1486 1.523 . S
C1486 C1467 1.368 . S
C1486 C1480 1.368 . S
C1486 C1485 1.523 . S
C1487 C1471 1.429 . S
C1487 C1483 1.429 . S
C1487 C1488 1.523 . S
C1488 C1472 1.368 . S
C1488 C1484 1.368 . S
C1488 C1487 1.523 . S
H1489 C1464 0.950 . S
H1490 C1466 0.950 . S
H1491 C1467 0.949 . S
H1492 C1469 0.950 . S
H1493 C1471 0.950 . S
C1494 C1495 1.349 . S
C1494 C1496 1.327 . S
C1494 H1519 0.950 . S
C1495 C1494 1.349 . S
C1495 C1511 1.349 . S
C1496 C1494 1.327 . S
C1496 C1515 1.429 . S
C1496 H1520 0.950 . S
C1497 C1514 1.574 . S
C1497 C1516 1.368 . S
C1497 H1521 0.949 . S
H1498 C1502 0.949 . S
C1499 C1500 1.349 . S
C1499 C1501 1.327 . S
C1499 H1522 0.950 . S
C1500 C1499 1.349 . S
C1500 C1512 1.349 . S
C1501 C1499 1.327 . S
C1501 C1517 1.429 . S
C1501 H1523 0.950 . S
C1502 H1498 0.949 . S
C1502 C1510 1.574 . S
C1502 C1518 1.368 . S
H1503 C1511 0.950 . S
H1504 C1509 0.950 . S
H1505 C1510 0.949 . S
H1506 C1512 0.950 . S
H1507 C1513 0.950 . S
H1508 C1514 0.949 . S
C1509 H1504 0.950 . S
C1509 C1511 1.327 . S
C1509 C1515 1.429 . S
C1510 C1502 1.574 . S
C1510 H1505 0.949 . S
C1510 C1516 1.368 . S
C1511 C1495 1.349 . S
C1511 H1503 0.950 . S
C1511 C1509 1.327 . S
C1512 C1500 1.349 . S
C1512 H1506 0.950 . S
C1512 C1513 1.327 . S
C1513 H1507 0.950 . S
C1513 C1512 1.327 . S
C1513 C1517 1.429 . S
C1514 C1497 1.574 . S
C1514 H1508 0.949 . S
C1514 C1518 1.368 . S
C1515 C1496 1.429 . S
C1515 C1509 1.429 . S
C1515 C1516 1.523 . S
C1516 C1497 1.368 . S
C1516 C1510 1.368 . S
C1516 C1515 1.523 . S
C1517 C1501 1.429 . S
C1517 C1513 1.429 . S
C1517 C1518 1.523 . S
C1518 C1502 1.368 . S
C1518 C1514 1.368 . S
C1518 C1517 1.523 . S
H1519 C1494 0.950 . S
H1520 C1496 0.950 . S
H1521 C1497 0.949 . S
H1522 C1499 0.950 . S
H1523 C1501 0.950 . S
C1524 C1525 1.349 . S
C1524 C1526 1.327 . S
C1524 H1549 0.950 . S
C1525 C1524 1.349 . S
C1525 C1541 1.349 . S
C1526 C1524 1.327 . S
C1526 C1545 1.429 . S
C1526 H1550 0.950 . S
C1527 C1544 1.574 . S
C1527 C1546 1.368 . S
C1527 H1551 0.949 . S
H1528 C1532 0.949 . S
C1529 C1530 1.349 . S
C1529 C1531 1.327 . S
C1529 H1552 0.950 . S
C1530 C1529 1.349 . S
C1530 C1542 1.349 . S
C1531 C1529 1.327 . S
C1531 C1547 1.429 . S
C1531 H1553 0.950 . S
C1532 H1528 0.949 . S
C1532 C1540 1.574 . S
C1532 C1548 1.368 . S
H1533 C1541 0.950 . S
H1534 C1539 0.950 . S
H1535 C1540 0.949 . S
H1536 C1542 0.950 . S
H1537 C1543 0.950 . S
H1538 C1544 0.949 . S
C1539 H1534 0.950 . S
C1539 C1541 1.327 . S
C1539 C1545 1.429 . S
C1540 C1532 1.574 . S
C1540 H1535 0.949 . S
C1540 C1546 1.368 . S
C1541 C1525 1.349 . S
C1541 H1533 0.950 . S
C1541 C1539 1.327 . S
C1542 C1530 1.349 . S
C1542 H1536 0.950 . S
C1542 C1543 1.327 . S
C1543 H1537 0.950 . S
C1543 C1542 1.327 . S
C1543 C1547 1.429 . S
C1544 C1527 1.574 . S
C1544 H1538 0.949 . S
C1544 C1548 1.368 . S
C1545 C1526 1.429 . S
C1545 C1539 1.429 . S
C1545 C1546 1.523 . S
C1546 C1527 1.368 . S
C1546 C1540 1.368 . S
C1546 C1545 1.523 . S
C1547 C1531 1.429 . S
C1547 C1543 1.429 . S
C1547 C1548 1.523 . S
C1548 C1532 1.368 . S
C1548 C1544 1.368 . S
C1548 C1547 1.523 . S
H1549 C1524 0.950 . S
H1550 C1526 0.950 . S
H1551 C1527 0.949 . S
H1552 C1529 0.950 . S
H1553 C1531 0.950 . S
C1554 C1555 1.349 . S
C1554 C1556 1.327 . S
C1554 H1579 0.950 . S
C1555 C1554 1.349 . S
C1555 C1571 1.349 . S
C1556 C1554 1.327 . S
C1556 C1575 1.429 . S
C1556 H1580 0.950 . S
C1557 C1574 1.574 . S
C1557 C1576 1.368 . S
C1557 H1581 0.949 . S
H1558 C1562 0.949 . S
C1559 C1560 1.349 . S
C1559 C1561 1.327 . S
C1559 H1582 0.950 . S
C1560 C1559 1.349 . S
C1560 C1572 1.349 . S
C1561 C1559 1.327 . S
C1561 C1577 1.429 . S
C1561 H1583 0.950 . S
C1562 H1558 0.949 . S
C1562 C1570 1.574 . S
C1562 C1578 1.368 . S
H1563 C1571 0.950 . S
H1564 C1569 0.950 . S
H1565 C1570 0.949 . S
H1566 C1572 0.950 . S
H1567 C1573 0.950 . S
H1568 C1574 0.949 . S
C1569 H1564 0.950 . S
C1569 C1571 1.327 . S
C1569 C1575 1.429 . S
C1570 C1562 1.574 . S
C1570 H1565 0.949 . S
C1570 C1576 1.368 . S
C1571 C1555 1.349 . S
C1571 H1563 0.950 . S
C1571 C1569 1.327 . S
C1572 C1560 1.349 . S
C1572 H1566 0.950 . S
C1572 C1573 1.327 . S
C1573 H1567 0.950 . S
C1573 C1572 1.327 . S
C1573 C1577 1.429 . S
C1574 C1557 1.574 . S
C1574 H1568 0.949 . S
C1574 C1578 1.368 . S
C1575 C1556 1.429 . S
C1575 C1569 1.429 . S
C1575 C1576 1.523 . S
C1576 C1557 1.368 . S
C1576 C1570 1.368 . S
C1576 C1575 1.523 . S
C1577 C1561 1.429 . S
C1577 C1573 1.429 . S
C1577 C1578 1.523 . S
C1578 C1562 1.368 . S
C1578 C1574 1.368 . S
C1578 C1577 1.523 . S
H1579 C1554 0.950 . S
H1580 C1556 0.950 . S
H1581 C1557 0.949 . S
H1582 C1559 0.950 . S
H1583 C1561 0.950 . S
C1584 C1585 1.349 . S
C1584 C1586 1.327 . S
C1584 H1609 0.950 . S
C1585 C1584 1.349 . S
C1585 C1601 1.349 . S
C1586 C1584 1.327 . S
C1586 C1605 1.429 . S
C1586 H1610 0.950 . S
C1587 C1604 1.574 1_455 S
C1587 C1606 1.368 . S
C1587 H1611 0.949 . S
H1588 C1592 0.949 . S
C1589 C1590 1.349 . S
C1589 C1591 1.327 . S
C1589 H1612 0.950 . S
C1590 C1589 1.349 . S
C1590 C1602 1.349 . S
C1591 C1589 1.327 . S
C1591 C1607 1.429 . S
C1591 H1613 0.950 . S
C1592 H1588 0.949 . S
C1592 C1600 1.574 1_655 S
C1592 C1608 1.368 . S
H1593 C1601 0.950 . S
H1594 C1599 0.950 . S
H1595 C1600 0.949 . S
H1596 C1602 0.950 . S
H1597 C1603 0.950 . S
H1598 C1604 0.949 . S
C1599 H1594 0.950 . S
C1599 C1601 1.327 . S
C1599 C1605 1.429 . S
C1600 C1592 1.574 1_455 S
C1600 H1595 0.949 . S
C1600 C1606 1.368 . S
C1601 C1585 1.349 . S
C1601 H1593 0.950 . S
C1601 C1599 1.327 . S
C1602 C1590 1.349 . S
C1602 H1596 0.950 . S
C1602 C1603 1.327 . S
C1603 H1597 0.950 . S
C1603 C1602 1.327 . S
C1603 C1607 1.429 . S
C1604 C1587 1.574 1_655 S
C1604 H1598 0.949 . S
C1604 C1608 1.368 . S
C1605 C1586 1.429 . S
C1605 C1599 1.429 . S
C1605 C1606 1.523 . S
C1606 C1587 1.368 . S
C1606 C1600 1.368 . S
C1606 C1605 1.523 . S
C1607 C1591 1.429 . S
C1607 C1603 1.429 . S
C1607 C1608 1.523 . S
C1608 C1592 1.368 . S
C1608 C1604 1.368 . S
C1608 C1607 1.523 . S
H1609 C1584 0.950 . S
H1610 C1586 0.950 . S
H1611 C1587 0.949 . S
H1612 C1589 0.950 . S
H1613 C1591 0.950 . S
C1614 C1615 1.349 . S
C1614 C1616 1.327 . S
C1614 H1639 0.950 . S
C1615 C1614 1.349 . S
C1615 C1631 1.349 . S
C1616 C1614 1.327 . S
C1616 C1635 1.429 . S
C1616 H1640 0.950 . S
C1617 C1634 1.574 . S
C1617 C1636 1.368 . S
C1617 H1641 0.949 . S
H1618 C1622 0.949 . S
C1619 C1620 1.349 . S
C1619 C1621 1.327 . S
C1619 H1642 0.950 . S
C1620 C1619 1.349 . S
C1620 C1632 1.349 . S
C1621 C1619 1.327 . S
C1621 C1637 1.429 . S
C1621 H1643 0.950 . S
C1622 H1618 0.949 . S
C1622 C1630 1.574 . S
C1622 C1638 1.368 . S
H1623 C1631 0.950 . S
H1624 C1629 0.950 . S
H1625 C1630 0.949 . S
H1626 C1632 0.950 . S
H1627 C1633 0.950 . S
H1628 C1634 0.949 . S
C1629 H1624 0.950 . S
C1629 C1631 1.327 . S
C1629 C1635 1.429 . S
C1630 C1622 1.574 . S
C1630 H1625 0.949 . S
C1630 C1636 1.368 . S
C1631 C1615 1.349 . S
C1631 H1623 0.950 . S
C1631 C1629 1.327 . S
C1632 C1620 1.349 . S
C1632 H1626 0.950 . S
C1632 C1633 1.327 . S
C1633 H1627 0.950 . S
C1633 C1632 1.327 . S
C1633 C1637 1.429 . S
C1634 C1617 1.574 . S
C1634 H1628 0.949 . S
C1634 C1638 1.368 . S
C1635 C1616 1.429 . S
C1635 C1629 1.429 . S
C1635 C1636 1.523 . S
C1636 C1617 1.368 . S
C1636 C1630 1.368 . S
C1636 C1635 1.523 . S
C1637 C1621 1.429 . S
C1637 C1633 1.429 . S
C1637 C1638 1.523 . S
C1638 C1622 1.368 . S
C1638 C1634 1.368 . S
C1638 C1637 1.523 . S
H1639 C1614 0.950 . S
H1640 C1616 0.950 . S
H1641 C1617 0.949 . S
H1642 C1619 0.950 . S
H1643 C1621 0.950 . S
C1644 C1645 1.349 . S
C1644 C1646 1.327 . S
C1644 H1669 0.950 . S
C1645 C1644 1.349 . S
C1645 C1661 1.349 . S
C1646 C1644 1.327 . S
C1646 C1665 1.429 . S
C1646 H1670 0.950 . S
C1647 C1664 1.574 1_545 S
C1647 C1666 1.368 . S
C1647 H1671 0.949 . S
H1648 C1652 0.949 . S
C1649 C1650 1.349 . S
C1649 C1651 1.327 . S
C1649 H1672 0.950 . S
C1650 C1649 1.349 . S
C1650 C1662 1.349 . S
C1651 C1649 1.327 . S
C1651 C1667 1.429 . S
C1651 H1673 0.950 . S
C1652 H1648 0.949 . S
C1652 C1660 1.574 1_565 S
C1652 C1668 1.368 . S
H1653 C1661 0.950 . S
H1654 C1659 0.950 . S
H1655 C1660 0.949 . S
H1656 C1662 0.950 . S
H1657 C1663 0.950 . S
H1658 C1664 0.949 . S
C1659 H1654 0.950 . S
C1659 C1661 1.327 . S
C1659 C1665 1.429 . S
C1660 C1652 1.574 1_545 S
C1660 H1655 0.949 . S
C1660 C1666 1.368 . S
C1661 C1645 1.349 . S
C1661 H1653 0.950 . S
C1661 C1659 1.327 . S
C1662 C1650 1.349 . S
C1662 H1656 0.950 . S
C1662 C1663 1.327 . S
C1663 H1657 0.950 . S
C1663 C1662 1.327 . S
C1663 C1667 1.429 . S
C1664 C1647 1.574 1_565 S
C1664 H1658 0.949 . S
C1664 C1668 1.368 . S
C1665 C1646 1.429 . S
C1665 C1659 1.429 . S
C1665 C1666 1.523 . S
C1666 C1647 1.368 . S
C1666 C1660 1.368 . S
C1666 C1665 1.523 . S
C1667 C1651 1.429 . S
C1667 C1663 1.429 . S
C1667 C1668 1.523 . S
C1668 C1652 1.368 . S
C1668 C1664 1.368 . S
C1668 C1667 1.523 . S
H1669 C1644 0.950 . S
H1670 C1646 0.950 . S
H1671 C1647 0.949 . S
H1672 C1649 0.950 . S
H1673 C1651 0.950 . S
C1674 C1675 1.349 . S
C1674 C1676 1.327 . S
C1674 H1699 0.950 . S
C1675 C1674 1.349 . S
C1675 C1691 1.349 . S
C1676 C1674 1.327 . S
C1676 C1695 1.429 . S
C1676 H1700 0.950 . S
C1677 C1694 1.574 1_565 S
C1677 C1696 1.368 1_554 S
C1677 H1701 0.949 . S
H1678 C1682 0.949 . S
C1679 C1680 1.349 . S
C1679 C1681 1.327 . S
C1679 H1702 0.950 . S
C1680 C1679 1.349 . S
C1680 C1692 1.349 . S
C1681 C1679 1.327 . S
C1681 C1697 1.429 . S
C1681 H1703 0.950 . S
C1682 H1678 0.949 . S
C1682 C1690 1.574 1_545 S
C1682 C1698 1.368 1_556 S
H1683 C1691 0.950 . S
H1684 C1689 0.950 1_554 S
H1685 C1690 0.949 . S
H1686 C1692 0.950 . S
H1687 C1693 0.950 1_556 S
H1688 C1694 0.949 . S
C1689 H1684 0.950 1_556 S
C1689 C1691 1.327 . S
C1689 C1695 1.429 . S
C1690 C1682 1.574 1_565 S
C1690 H1685 0.949 . S
C1690 C1696 1.368 . S
C1691 C1675 1.349 . S
C1691 H1683 0.950 . S
C1691 C1689 1.327 . S
C1692 C1680 1.349 . S
C1692 H1686 0.950 . S
C1692 C1693 1.327 . S
C1693 H1687 0.950 1_554 S
C1693 C1692 1.327 . S
C1693 C1697 1.429 . S
C1694 C1677 1.574 1_545 S
C1694 H1688 0.949 . S
C1694 C1698 1.368 . S
C1695 C1676 1.429 . S
C1695 C1689 1.429 . S
C1695 C1696 1.523 . S
C1696 C1677 1.368 1_556 S
C1696 C1690 1.368 . S
C1696 C1695 1.523 . S
C1697 C1681 1.429 . S
C1697 C1693 1.429 . S
C1697 C1698 1.523 . S
C1698 C1682 1.368 1_554 S
C1698 C1694 1.368 . S
C1698 C1697 1.523 . S
H1699 C1674 0.950 . S
H1700 C1676 0.950 . S
H1701 C1677 0.949 . S
H1702 C1679 0.950 . S
H1703 C1681 0.950 . S
C1704 C1705 1.349 . S
C1704 C1706 1.327 . S
C1704 H1729 0.950 . S
C1705 C1704 1.349 . S
C1705 C1721 1.349 . S
C1706 C1704 1.327 . S
C1706 C1725 1.429 . S
C1706 H1730 0.950 . S
C1707 C1724 1.574 1_655 S
C1707 C1726 1.368 1_556 S
C1707 H1731 0.949 . S
H1708 C1712 0.949 . S
C1709 C1710 1.349 . S
C1709 C1711 1.327 . S
C1709 H1732 0.950 . S
C1710 C1709 1.349 . S
C1710 C1722 1.349 . S
C1711 C1709 1.327 . S
C1711 C1727 1.429 . S
C1711 H1733 0.950 . S
C1712 H1708 0.949 . S
C1712 C1720 1.574 1_455 S
C1712 C1728 1.368 1_554 S
H1713 C1721 0.950 . S
H1714 C1719 0.950 1_556 S
H1715 C1720 0.949 . S
H1716 C1722 0.950 . S
H1717 C1723 0.950 1_554 S
H1718 C1724 0.949 . S
C1719 H1714 0.950 1_554 S
C1719 C1721 1.327 . S
C1719 C1725 1.429 . S
C1720 C1712 1.574 1_655 S
C1720 H1715 0.949 . S
C1720 C1726 1.368 . S
C1721 C1705 1.349 . S
C1721 H1713 0.950 . S
C1721 C1719 1.327 . S
C1722 C1710 1.349 . S
C1722 H1716 0.950 . S
C1722 C1723 1.327 . S
C1723 H1717 0.950 1_556 S
C1723 C1722 1.327 . S
C1723 C1727 1.429 . S
C1724 C1707 1.574 1_455 S
C1724 H1718 0.949 . S
C1724 C1728 1.368 . S
C1725 C1706 1.429 . S
C1725 C1719 1.429 . S
C1725 C1726 1.523 . S
C1726 C1707 1.368 1_554 S
C1726 C1720 1.368 . S
C1726 C1725 1.523 . S
C1727 C1711 1.429 . S
C1727 C1723 1.429 . S
C1727 C1728 1.523 . S
C1728 C1712 1.368 1_556 S
C1728 C1724 1.368 . S
C1728 C1727 1.523 . S
H1729 C1704 0.950 . S
H1730 C1706 0.950 . S
H1731 C1707 0.949 . S
H1732 C1709 0.950 . S
H1733 C1711 0.950 . S
C1734 C1735 1.349 . S
C1734 C1736 1.327 . S
C1734 H1759 0.950 . S
C1735 C1734 1.349 . S
C1735 C1751 1.349 . S
C1736 C1734 1.327 . S
C1736 C1755 1.429 . S
C1736 H1760 0.950 . S
C1737 C1754 1.574 1_554 S
C1737 C1756 1.368 . S
C1737 H1761 0.949 . S
H1738 C1742 0.949 . S
C1739 C1740 1.349 . S
C1739 C1741 1.327 . S
C1739 H1762 0.950 . S
C1740 C1739 1.349 . S
C1740 C1752 1.349 . S
C1741 C1739 1.327 . S
C1741 C1757 1.429 . S
C1741 H1763 0.950 . S
C1742 H1738 0.949 . S
C1742 C1750 1.574 1_556 S
C1742 C1758 1.368 . S
H1743 C1751 0.950 . S
H1744 C1749 0.950 . S
H1745 C1750 0.949 . S
H1746 C1752 0.950 . S
H1747 C1753 0.950 . S
H1748 C1754 0.949 . S
C1749 H1744 0.950 . S
C1749 C1751 1.327 . S
C1749 C1755 1.429 . S
C1750 C1742 1.574 1_554 S
C1750 H1745 0.949 . S
C1750 C1756 1.368 . S
C1751 C1735 1.349 . S
C1751 H1743 0.950 . S
C1751 C1749 1.327 . S
C1752 C1740 1.349 . S
C1752 H1746 0.950 . S
C1752 C1753 1.327 . S
C1753 H1747 0.950 . S
C1753 C1752 1.327 . S
C1753 C1757 1.429 . S
C1754 C1737 1.574 1_556 S
C1754 H1748 0.949 . S
C1754 C1758 1.368 . S
C1755 C1736 1.429 . S
C1755 C1749 1.429 . S
C1755 C1756 1.523 . S
C1756 C1737 1.368 . S
C1756 C1750 1.368 . S
C1756 C1755 1.523 . S
C1757 C1741 1.429 . S
C1757 C1753 1.429 . S
C1757 C1758 1.523 . S
C1758 C1742 1.368 . S
C1758 C1754 1.368 . S
C1758 C1757 1.523 . S
H1759 C1734 0.950 . S
H1760 C1736 0.950 . S
H1761 C1737 0.949 . S
H1762 C1739 0.950 . S
H1763 C1741 0.950 . S
C1764 C1765 1.349 . S
C1764 C1766 1.327 . S
C1764 H1789 0.950 . S
C1765 C1764 1.349 . S
C1765 C1781 1.349 . S
C1766 C1764 1.327 . S
C1766 C1785 1.429 . S
C1766 H1790 0.950 . S
C1767 C1784 1.574 . S
C1767 C1786 1.368 . S
C1767 H1791 0.949 . S
H1768 C1772 0.949 . S
C1769 C1770 1.349 . S
C1769 C1771 1.327 . S
C1769 H1792 0.950 . S
C1770 C1769 1.349 . S
C1770 C1782 1.349 . S
C1771 C1769 1.327 . S
C1771 C1787 1.429 . S
C1771 H1793 0.950 . S
C1772 H1768 0.949 . S
C1772 C1780 1.574 . S
C1772 C1788 1.368 . S
H1773 C1781 0.950 . S
H1774 C1779 0.950 . S
H1775 C1780 0.949 . S
H1776 C1782 0.950 . S
H1777 C1783 0.950 . S
H1778 C1784 0.949 . S
C1779 H1774 0.950 . S
C1779 C1781 1.327 . S
C1779 C1785 1.429 . S
C1780 C1772 1.574 . S
C1780 H1775 0.949 . S
C1780 C1786 1.368 . S
C1781 C1765 1.349 . S
C1781 H1773 0.950 . S
C1781 C1779 1.327 . S
C1782 C1770 1.349 . S
C1782 H1776 0.950 . S
C1782 C1783 1.327 . S
C1783 H1777 0.950 . S
C1783 C1782 1.327 . S
C1783 C1787 1.429 . S
C1784 C1767 1.574 . S
C1784 H1778 0.949 . S
C1784 C1788 1.368 . S
C1785 C1766 1.429 . S
C1785 C1779 1.429 . S
C1785 C1786 1.523 . S
C1786 C1767 1.368 . S
C1786 C1780 1.368 . S
C1786 C1785 1.523 . S
C1787 C1771 1.429 . S
C1787 C1783 1.429 . S
C1787 C1788 1.523 . S
C1788 C1772 1.368 . S
C1788 C1784 1.368 . S
C1788 C1787 1.523 . S
H1789 C1764 0.950 . S
H1790 C1766 0.950 . S
H1791 C1767 0.949 . S
H1792 C1769 0.950 . S
H1793 C1771 0.950 . S
C1794 C1795 1.349 . S
C1794 C1796 1.327 . S
C1794 H1819 0.950 . S
C1795 C1794 1.349 . S
C1795 C1811 1.349 . S
C1796 C1794 1.327 . S
C1796 C1815 1.429 . S
C1796 H1820 0.950 . S
C1797 C1814 1.574 1_565 S
C1797 C1816 1.368 . S
C1797 H1821 0.949 . S
H1798 C1802 0.949 . S
C1799 C1800 1.349 . S
C1799 C1801 1.327 . S
C1799 H1822 0.950 . S
C1800 C1799 1.349 . S
C1800 C1812 1.349 . S
C1801 C1799 1.327 . S
C1801 C1817 1.429 . S
C1801 H1823 0.950 . S
C1802 H1798 0.949 . S
C1802 C1810 1.574 1_545 S
C1802 C1818 1.368 . S
H1803 C1811 0.950 . S
H1804 C1809 0.950 . S
H1805 C1810 0.949 . S
H1806 C1812 0.950 . S
H1807 C1813 0.950 . S
H1808 C1814 0.949 . S
C1809 H1804 0.950 . S
C1809 C1811 1.327 . S
C1809 C1815 1.429 . S
C1810 C1802 1.574 1_565 S
C1810 H1805 0.949 . S
C1810 C1816 1.368 . S
C1811 C1795 1.349 . S
C1811 H1803 0.950 . S
C1811 C1809 1.327 . S
C1812 C1800 1.349 . S
C1812 H1806 0.950 . S
C1812 C1813 1.327 . S
C1813 H1807 0.950 . S
C1813 C1812 1.327 . S
C1813 C1817 1.429 . S
C1814 C1797 1.574 1_545 S
C1814 H1808 0.949 . S
C1814 C1818 1.368 . S
C1815 C1796 1.429 . S
C1815 C1809 1.429 . S
C1815 C1816 1.523 . S
C1816 C1797 1.368 . S
C1816 C1810 1.368 . S
C1816 C1815 1.523 . S
C1817 C1801 1.429 . S
C1817 C1813 1.429 . S
C1817 C1818 1.523 . S
C1818 C1802 1.368 . S
C1818 C1814 1.368 . S
C1818 C1817 1.523 . S
H1819 C1794 0.950 . S
H1820 C1796 0.950 . S
H1821 C1797 0.949 . S
H1822 C1799 0.950 . S
H1823 C1801 0.950 . S
C1824 C1825 1.349 . S
C1824 C1826 1.327 . S
C1824 H1849 0.950 . S
C1825 C1824 1.349 . S
C1825 C1841 1.349 . S
C1826 C1824 1.327 . S
C1826 C1845 1.429 . S
C1826 H1850 0.950 . S
C1827 C1844 1.574 1_655 S
C1827 C1846 1.368 . S
C1827 H1851 0.949 . S
H1828 C1832 0.949 . S
C1829 C1830 1.349 . S
C1829 C1831 1.327 . S
C1829 H1852 0.950 . S
C1830 C1829 1.349 . S
C1830 C1842 1.349 . S
C1831 C1829 1.327 . S
C1831 C1847 1.429 . S
C1831 H1853 0.950 . S
C1832 H1828 0.949 . S
C1832 C1840 1.574 1_455 S
C1832 C1848 1.368 . S
H1833 C1841 0.950 . S
H1834 C1839 0.950 . S
H1835 C1840 0.949 . S
H1836 C1842 0.950 . S
H1837 C1843 0.950 . S
H1838 C1844 0.949 . S
C1839 H1834 0.950 . S
C1839 C1841 1.327 . S
C1839 C1845 1.429 . S
C1840 C1832 1.574 1_655 S
C1840 H1835 0.949 . S
C1840 C1846 1.368 . S
C1841 C1825 1.349 . S
C1841 H1833 0.950 . S
C1841 C1839 1.327 . S
C1842 C1830 1.349 . S
C1842 H1836 0.950 . S
C1842 C1843 1.327 . S
C1843 H1837 0.950 . S
C1843 C1842 1.327 . S
C1843 C1847 1.429 . S
C1844 C1827 1.574 1_455 S
C1844 H1838 0.949 . S
C1844 C1848 1.368 . S
C1845 C1826 1.429 . S
C1845 C1839 1.429 . S
C1845 C1846 1.523 . S
C1846 C1827 1.368 . S
C1846 C1840 1.368 . S
C1846 C1845 1.523 . S
C1847 C1831 1.429 . S
C1847 C1843 1.429 . S
C1847 C1848 1.523 . S
C1848 C1832 1.368 . S
C1848 C1844 1.368 . S
C1848 C1847 1.523 . S
H1849 C1824 0.950 . S
H1850 C1826 0.950 . S
H1851 C1827 0.949 . S
H1852 C1829 0.950 . S
H1853 C1831 0.950 . S
C1854 C1855 1.349 . S
C1854 C1856 1.327 . S
C1854 H1879 0.950 . S
C1855 C1854 1.349 . S
C1855 C1871 1.349 . S
C1856 C1854 1.327 . S
C1856 C1875 1.429 . S
C1856 H1880 0.950 . S
C1857 C1874 1.574 . S
C1857 C1876 1.368 . S
C1857 H1881 0.949 . S
H1858 C1862 0.949 . S
C1859 C1860 1.349 . S
C1859 C1861 1.327 . S
C1859 H1882 0.950 . S
C1860 C1859 1.349 . S
C1860 C1872 1.349 . S
C1861 C1859 1.327 . S
C1861 C1877 1.429 . S
C1861 H1883 0.950 . S
C1862 H1858 0.949 . S
C1862 C1870 1.574 . S
C1862 C1878 1.368 . S
H1863 C1871 0.950 . S
H1864 C1869 0.950 . S
H1865 C1870 0.949 . S
H1866 C1872 0.950 . S
H1867 C1873 0.950 . S
H1868 C1874 0.949 . S
C1869 H1864 0.950 . S
C1869 C1871 1.327 . S
C1869 C1875 1.429 . S
C1870 C1862 1.574 . S
C1870 H1865 0.949 . S
C1870 C1876 1.368 . S
C1871 C1855 1.349 . S
C1871 H1863 0.950 . S
C1871 C1869 1.327 . S
C1872 C1860 1.349 . S
C1872 H1866 0.950 . S
C1872 C1873 1.327 . S
C1873 H1867 0.950 . S
C1873 C1872 1.327 . S
C1873 C1877 1.429 . S
C1874 C1857 1.574 . S
C1874 H1868 0.949 . S
C1874 C1878 1.368 . S
C1875 C1856 1.429 . S
C1875 C1869 1.429 . S
C1875 C1876 1.523 . S
C1876 C1857 1.368 . S
C1876 C1870 1.368 . S
C1876 C1875 1.523 . S
C1877 C1861 1.429 . S
C1877 C1873 1.429 . S
C1877 C1878 1.523 . S
C1878 C1862 1.368 . S
C1878 C1874 1.368 . S
C1878 C1877 1.523 . S
H1879 C1854 0.950 . S
H1880 C1856 0.950 . S
H1881 C1857 0.949 . S
H1882 C1859 0.950 . S
H1883 C1861 0.950 . S
C1884 C1885 1.349 . S
C1884 C1886 1.327 . S
C1884 H1909 0.950 . S
C1885 C1884 1.349 . S
C1885 C1901 1.349 . S
C1886 C1884 1.327 . S
C1886 C1905 1.429 . S
C1886 H1910 0.950 . S
C1887 C1904 1.574 1_565 S
C1887 C1906 1.368 . S
C1887 H1911 0.949 . S
H1888 C1892 0.949 . S
C1889 C1890 1.349 . S
C1889 C1891 1.327 . S
C1889 H1912 0.950 . S
C1890 C1889 1.349 . S
C1890 C1902 1.349 . S
C1891 C1889 1.327 . S
C1891 C1907 1.429 . S
C1891 H1913 0.950 . S
C1892 H1888 0.949 . S
C1892 C1900 1.574 1_545 S
C1892 C1908 1.368 . S
H1893 C1901 0.950 . S
H1894 C1899 0.950 . S
H1895 C1900 0.949 . S
H1896 C1902 0.950 . S
H1897 C1903 0.950 . S
H1898 C1904 0.949 . S
C1899 H1894 0.950 . S
C1899 C1901 1.327 . S
C1899 C1905 1.429 . S
C1900 C1892 1.574 1_565 S
C1900 H1895 0.949 . S
C1900 C1906 1.368 . S
C1901 C1885 1.349 . S
C1901 H1893 0.950 . S
C1901 C1899 1.327 . S
C1902 C1890 1.349 . S
C1902 H1896 0.950 . S
C1902 C1903 1.327 . S
C1903 H1897 0.950 . S
C1903 C1902 1.327 . S
C1903 C1907 1.429 . S
C1904 C1887 1.574 1_545 S
C1904 H1898 0.949 . S
C1904 C1908 1.368 . S
C1905 C1886 1.429 . S
C1905 C1899 1.429 . S
C1905 C1906 1.523 . S
C1906 C1887 1.368 . S
C1906 C1900 1.368 . S
C1906 C1905 1.523 . S
C1907 C1891 1.429 . S
C1907 C1903 1.429 . S
C1907 C1908 1.523 . S
C1908 C1892 1.368 . S
C1908 C1904 1.368 . S
C1908 C1907 1.523 . S
H1909 C1884 0.950 . S
H1910 C1886 0.950 . S
H1911 C1887 0.949 . S
H1912 C1889 0.950 . S
H1913 C1891 0.950 . S
C1914 C1915 1.349 . S
C1914 C1916 1.327 . S
C1914 H1939 0.950 . S
C1915 C1914 1.349 . S
C1915 C1931 1.349 . S
C1916 C1914 1.327 . S
C1916 C1935 1.429 . S
C1916 H1940 0.950 . S
C1917 C1934 1.574 1_655 S
C1917 C1936 1.368 . S
C1917 H1941 0.949 . S
H1918 C1922 0.949 . S
C1919 C1920 1.349 . S
C1919 C1921 1.327 . S
C1919 H1942 0.950 . S
C1920 C1919 1.349 . S
C1920 C1932 1.349 . S
C1921 C1919 1.327 . S
C1921 C1937 1.429 . S
C1921 H1943 0.950 . S
C1922 H1918 0.949 . S
C1922 C1930 1.574 1_455 S
C1922 C1938 1.368 . S
H1923 C1931 0.950 . S
H1924 C1929 0.950 . S
H1925 C1930 0.949 . S
H1926 C1932 0.950 . S
H1927 C1933 0.950 . S
H1928 C1934 0.949 . S
C1929 H1924 0.950 . S
C1929 C1931 1.327 . S
C1929 C1935 1.429 . S
C1930 C1922 1.574 1_655 S
C1930 H1925 0.949 . S
C1930 C1936 1.368 . S
C1931 C1915 1.349 . S
C1931 H1923 0.950 . S
C1931 C1929 1.327 . S
C1932 C1920 1.349 . S
C1932 H1926 0.950 . S
C1932 C1933 1.327 . S
C1933 H1927 0.950 . S
C1933 C1932 1.327 . S
C1933 C1937 1.429 . S
C1934 C1917 1.574 1_455 S
C1934 H1928 0.949 . S
C1934 C1938 1.368 . S
C1935 C1916 1.429 . S
C1935 C1929 1.429 . S
C1935 C1936 1.523 . S
C1936 C1917 1.368 . S
C1936 C1930 1.368 . S
C1936 C1935 1.523 . S
C1937 C1921 1.429 . S
C1937 C1933 1.429 . S
C1937 C1938 1.523 . S
C1938 C1922 1.368 . S
C1938 C1934 1.368 . S
C1938 C1937 1.523 . S
H1939 C1914 0.950 . S
H1940 C1916 0.950 . S
H1941 C1917 0.949 . S
H1942 C1919 0.950 . S
H1943 C1921 0.950 . S
C1944 C1945 1.349 . S
C1944 C1946 1.327 . S
C1944 H1969 0.950 . S
C1945 C1944 1.349 . S
C1945 C1961 1.349 . S
C1946 C1944 1.327 . S
C1946 C1965 1.429 . S
C1946 H1970 0.950 . S
C1947 C1964 1.574 . S
C1947 C1966 1.368 . S
C1947 H1971 0.949 . S
H1948 C1952 0.949 . S
C1949 C1950 1.349 . S
C1949 C1951 1.327 . S
C1949 H1972 0.950 . S
C1950 C1949 1.349 . S
C1950 C1962 1.349 . S
C1951 C1949 1.327 . S
C1951 C1967 1.429 . S
C1951 H1973 0.950 . S
C1952 H1948 0.949 . S
C1952 C1960 1.574 . S
C1952 C1968 1.368 . S
H1953 C1961 0.950 . S
H1954 C1959 0.950 . S
H1955 C1960 0.949 . S
H1956 C1962 0.950 . S
H1957 C1963 0.950 . S
H1958 C1964 0.949 . S
C1959 H1954 0.950 . S
C1959 C1961 1.327 . S
C1959 C1965 1.429 . S
C1960 C1952 1.574 . S
C1960 H1955 0.949 . S
C1960 C1966 1.368 . S
C1961 C1945 1.349 . S
C1961 H1953 0.950 . S
C1961 C1959 1.327 . S
C1962 C1950 1.349 . S
C1962 H1956 0.950 . S
C1962 C1963 1.327 . S
C1963 H1957 0.950 . S
C1963 C1962 1.327 . S
C1963 C1967 1.429 . S
C1964 C1947 1.574 . S
C1964 H1958 0.949 . S
C1964 C1968 1.368 . S
C1965 C1946 1.429 . S
C1965 C1959 1.429 . S
C1965 C1966 1.523 . S
C1966 C1947 1.368 . S
C1966 C1960 1.368 . S
C1966 C1965 1.523 . S
C1967 C1951 1.429 . S
C1967 C1963 1.429 . S
C1967 C1968 1.523 . S
C1968 C1952 1.368 . S
C1968 C1964 1.368 . S
C1968 C1967 1.523 . S
H1969 C1944 0.950 . S
H1970 C1946 0.950 . S
H1971 C1947 0.949 . S
H1972 C1949 0.950 . S
H1973 C1951 0.950 . S
C1974 C1975 1.349 . S
C1974 C1976 1.327 . S
C1974 H1999 0.950 . S
C1975 C1974 1.349 . S
C1975 C1991 1.349 . S
C1976 C1974 1.327 . S
C1976 C1995 1.429 . S
C1976 H2000 0.950 . S
C1977 C1994 1.574 . S
C1977 C1996 1.368 . S
C1977 H2001 0.949 . S
H1978 C1982 0.949 . S
C1979 C1980 1.349 . S
C1979 C1981 1.327 . S
C1979 H2002 0.950 . S
C1980 C1979 1.349 . S
C1980 C1992 1.349 . S
C1981 C1979 1.327 . S
C1981 C1997 1.429 . S
C1981 H2003 0.950 . S
C1982 H1978 0.949 . S
C1982 C1990 1.574 . S
C1982 C1998 1.368 . S
H1983 C1991 0.950 . S
H1984 C1989 0.950 . S
H1985 C1990 0.949 . S
H1986 C1992 0.950 . S
H1987 C1993 0.950 . S
H1988 C1994 0.949 . S
C1989 H1984 0.950 . S
C1989 C1991 1.327 . S
C1989 C1995 1.429 . S
C1990 C1982 1.574 . S
C1990 H1985 0.949 . S
C1990 C1996 1.368 . S
C1991 C1975 1.349 . S
C1991 H1983 0.950 . S
C1991 C1989 1.327 . S
C1992 C1980 1.349 . S
C1992 H1986 0.950 . S
C1992 C1993 1.327 . S
C1993 H1987 0.950 . S
C1993 C1992 1.327 . S
C1993 C1997 1.429 . S
C1994 C1977 1.574 . S
C1994 H1988 0.949 . S
C1994 C1998 1.368 . S
C1995 C1976 1.429 . S
C1995 C1989 1.429 . S
C1995 C1996 1.523 . S
C1996 C1977 1.368 . S
C1996 C1990 1.368 . S
C1996 C1995 1.523 . S
C1997 C1981 1.429 . S
C1997 C1993 1.429 . S
C1997 C1998 1.523 . S
C1998 C1982 1.368 . S
C1998 C1994 1.368 . S
C1998 C1997 1.523 . S
H1999 C1974 0.950 . S
H2000 C1976 0.950 . S
H2001 C1977 0.949 . S
H2002 C1979 0.950 . S
H2003 C1981 0.950 . S
C2004 C2005 1.349 . S
C2004 C2006 1.327 . S
C2004 H2029 0.950 . S
C2005 C2004 1.349 . S
C2005 C2021 1.349 . S
C2006 C2004 1.327 . S
C2006 C2025 1.429 . S
C2006 H2030 0.950 . S
C2007 C2024 1.574 . S
C2007 C2026 1.368 . S
C2007 H2031 0.949 . S
H2008 C2012 0.949 . S
C2009 C2010 1.349 . S
C2009 C2011 1.327 . S
C2009 H2032 0.950 . S
C2010 C2009 1.349 . S
C2010 C2022 1.349 . S
C2011 C2009 1.327 . S
C2011 C2027 1.429 . S
C2011 H2033 0.950 . S
C2012 H2008 0.949 . S
C2012 C2020 1.574 . S
C2012 C2028 1.368 . S
H2013 C2021 0.950 . S
H2014 C2019 0.950 . S
H2015 C2020 0.949 . S
H2016 C2022 0.950 . S
H2017 C2023 0.950 . S
H2018 C2024 0.949 . S
C2019 H2014 0.950 . S
C2019 C2021 1.327 . S
C2019 C2025 1.429 . S
C2020 C2012 1.574 . S
C2020 H2015 0.949 . S
C2020 C2026 1.368 . S
C2021 C2005 1.349 . S
C2021 H2013 0.950 . S
C2021 C2019 1.327 . S
C2022 C2010 1.349 . S
C2022 H2016 0.950 . S
C2022 C2023 1.327 . S
C2023 H2017 0.950 . S
C2023 C2022 1.327 . S
C2023 C2027 1.429 . S
C2024 C2007 1.574 . S
C2024 H2018 0.949 . S
C2024 C2028 1.368 . S
C2025 C2006 1.429 . S
C2025 C2019 1.429 . S
C2025 C2026 1.523 . S
C2026 C2007 1.368 . S
C2026 C2020 1.368 . S
C2026 C2025 1.523 . S
C2027 C2011 1.429 . S
C2027 C2023 1.429 . S
C2027 C2028 1.523 . S
C2028 C2012 1.368 . S
C2028 C2024 1.368 . S
C2028 C2027 1.523 . S
H2029 C2004 0.950 . S
H2030 C2006 0.950 . S
H2031 C2007 0.949 . S
H2032 C2009 0.950 . S
H2033 C2011 0.950 . S
C2034 C2035 1.349 . S
C2034 C2036 1.327 . S
C2034 H2059 0.950 . S
C2035 C2034 1.349 . S
C2035 C2051 1.349 . S
C2036 C2034 1.327 . S
C2036 C2055 1.429 . S
C2036 H2060 0.950 . S
C2037 C2054 1.574 . S
C2037 C2056 1.368 . S
C2037 H2061 0.949 . S
H2038 C2042 0.949 . S
C2039 C2040 1.349 . S
C2039 C2041 1.327 . S
C2039 H2062 0.950 . S
C2040 C2039 1.349 . S
C2040 C2052 1.349 . S
C2041 C2039 1.327 . S
C2041 C2057 1.429 . S
C2041 H2063 0.950 . S
C2042 H2038 0.949 . S
C2042 C2050 1.574 . S
C2042 C2058 1.368 . S
H2043 C2051 0.950 . S
H2044 C2049 0.950 . S
H2045 C2050 0.949 . S
H2046 C2052 0.950 . S
H2047 C2053 0.950 . S
H2048 C2054 0.949 . S
C2049 H2044 0.950 . S
C2049 C2051 1.327 . S
C2049 C2055 1.429 . S
C2050 C2042 1.574 . S
C2050 H2045 0.949 . S
C2050 C2056 1.368 . S
C2051 C2035 1.349 . S
C2051 H2043 0.950 . S
C2051 C2049 1.327 . S
C2052 C2040 1.349 . S
C2052 H2046 0.950 . S
C2052 C2053 1.327 . S
C2053 H2047 0.950 . S
C2053 C2052 1.327 . S
C2053 C2057 1.429 . S
C2054 C2037 1.574 . S
C2054 H2048 0.949 . S
C2054 C2058 1.368 . S
C2055 C2036 1.429 . S
C2055 C2049 1.429 . S
C2055 C2056 1.523 . S
C2056 C2037 1.368 . S
C2056 C2050 1.368 . S
C2056 C2055 1.523 . S
C2057 C2041 1.429 . S
C2057 C2053 1.429 . S
C2057 C2058 1.523 . S
C2058 C2042 1.368 . S
C2058 C2054 1.368 . S
C2058 C2057 1.523 . S
H2059 C2034 0.950 . S
H2060 C2036 0.950 . S
H2061 C2037 0.949 . S
H2062 C2039 0.950 . S
H2063 C2041 0.950 . S
C2064 C2065 1.349 . S
C2064 C2066 1.327 . S
C2064 H2089 0.950 . S
C2065 C2064 1.349 . S
C2065 C2081 1.349 . S
C2066 C2064 1.327 . S
C2066 C2085 1.429 . S
C2066 H2090 0.950 . S
C2067 C2084 1.574 . S
C2067 C2086 1.368 . S
C2067 H2091 0.949 . S
H2068 C2072 0.949 . S
C2069 C2070 1.349 . S
C2069 C2071 1.327 . S
C2069 H2092 0.950 . S
C2070 C2069 1.349 . S
C2070 C2082 1.349 . S
C2071 C2069 1.327 . S
C2071 C2087 1.429 . S
C2071 H2093 0.950 . S
C2072 H2068 0.949 . S
C2072 C2080 1.574 . S
C2072 C2088 1.368 . S
H2073 C2081 0.950 . S
H2074 C2079 0.950 . S
H2075 C2080 0.949 . S
H2076 C2082 0.950 . S
H2077 C2083 0.950 . S
H2078 C2084 0.949 . S
C2079 H2074 0.950 . S
C2079 C2081 1.327 . S
C2079 C2085 1.429 . S
C2080 C2072 1.574 . S
C2080 H2075 0.949 . S
C2080 C2086 1.368 . S
C2081 C2065 1.349 . S
C2081 H2073 0.950 . S
C2081 C2079 1.327 . S
C2082 C2070 1.349 . S
C2082 H2076 0.950 . S
C2082 C2083 1.327 . S
C2083 H2077 0.950 . S
C2083 C2082 1.327 . S
C2083 C2087 1.429 . S
C2084 C2067 1.574 . S
C2084 H2078 0.949 . S
C2084 C2088 1.368 . S
C2085 C2066 1.429 . S
C2085 C2079 1.429 . S
C2085 C2086 1.523 . S
C2086 C2067 1.368 . S
C2086 C2080 1.368 . S
C2086 C2085 1.523 . S
C2087 C2071 1.429 . S
C2087 C2083 1.429 . S
C2087 C2088 1.523 . S
C2088 C2072 1.368 . S
C2088 C2084 1.368 . S
C2088 C2087 1.523 . S
H2089 C2064 0.950 . S
H2090 C2066 0.950 . S
H2091 C2067 0.949 . S
H2092 C2069 0.950 . S
H2093 C2071 0.950 . S
C2094 C2095 1.349 . S
C2094 C2096 1.327 . S
C2094 H2119 0.950 . S
C2095 C2094 1.349 . S
C2095 C2111 1.349 . S
C2096 C2094 1.327 . S
C2096 C2115 1.429 . S
C2096 H2120 0.950 . S
C2097 C2114 1.574 . S
C2097 C2116 1.368 . S
C2097 H2121 0.949 . S
H2098 C2102 0.949 . S
C2099 C2100 1.349 . S
C2099 C2101 1.327 . S
C2099 H2122 0.950 . S
C2100 C2099 1.349 . S
C2100 C2112 1.349 . S
C2101 C2099 1.327 . S
C2101 C2117 1.429 . S
C2101 H2123 0.950 . S
C2102 H2098 0.949 . S
C2102 C2110 1.574 . S
C2102 C2118 1.368 . S
H2103 C2111 0.950 . S
H2104 C2109 0.950 . S
H2105 C2110 0.949 . S
H2106 C2112 0.950 . S
H2107 C2113 0.950 . S
H2108 C2114 0.949 . S
C2109 H2104 0.950 . S
C2109 C2111 1.327 . S
C2109 C2115 1.429 . S
C2110 C2102 1.574 . S
C2110 H2105 0.949 . S
C2110 C2116 1.368 . S
C2111 C2095 1.349 . S
C2111 H2103 0.950 . S
C2111 C2109 1.327 . S
C2112 C2100 1.349 . S
C2112 H2106 0.950 . S
C2112 C2113 1.327 . S
C2113 H2107 0.950 . S
C2113 C2112 1.327 . S
C2113 C2117 1.429 . S
C2114 C2097 1.574 . S
C2114 H2108 0.949 . S
C2114 C2118 1.368 . S
C2115 C2096 1.429 . S
C2115 C2109 1.429 . S
C2115 C2116 1.523 . S
C2116 C2097 1.368 . S
C2116 C2110 1.368 . S
C2116 C2115 1.523 . S
C2117 C2101 1.429 . S
C2117 C2113 1.429 . S
C2117 C2118 1.523 . S
C2118 C2102 1.368 . S
C2118 C2114 1.368 . S
C2118 C2117 1.523 . S
H2119 C2094 0.950 . S
H2120 C2096 0.950 . S
H2121 C2097 0.949 . S
H2122 C2099 0.950 . S
H2123 C2101 0.950 . S
C2124 C2125 1.349 . S
C2124 C2126 1.327 . S
C2124 H2149 0.950 . S
C2125 C2124 1.349 . S
C2125 C2141 1.349 . S
C2126 C2124 1.327 . S
C2126 C2145 1.429 . S
C2126 H2150 0.950 . S
C2127 C2144 1.574 . S
C2127 C2146 1.368 . S
C2127 H2151 0.949 . S
H2128 C2132 0.949 . S
C2129 C2130 1.349 . S
C2129 C2131 1.327 . S
C2129 H2152 0.950 . S
C2130 C2129 1.349 . S
C2130 C2142 1.349 . S
C2131 C2129 1.327 . S
C2131 C2147 1.429 . S
C2131 H2153 0.950 . S
C2132 H2128 0.949 . S
C2132 C2140 1.574 . S
C2132 C2148 1.368 . S
H2133 C2141 0.950 . S
H2134 C2139 0.950 . S
H2135 C2140 0.949 . S
H2136 C2142 0.950 . S
H2137 C2143 0.950 . S
H2138 C2144 0.949 . S
C2139 H2134 0.950 . S
C2139 C2141 1.327 . S
C2139 C2145 1.429 . S
C2140 C2132 1.574 . S
C2140 H2135 0.949 . S
C2140 C2146 1.368 . S
C2141 C2125 1.349 . S
C2141 H2133 0.950 . S
C2141 C2139 1.327 . S
C2142 C2130 1.349 . S
C2142 H2136 0.950 . S
C2142 C2143 1.327 . S
C2143 H2137 0.950 . S
C2143 C2142 1.327 . S
C2143 C2147 1.429 . S
C2144 C2127 1.574 . S
C2144 H2138 0.949 . S
C2144 C2148 1.368 . S
C2145 C2126 1.429 . S
C2145 C2139 1.429 . S
C2145 C2146 1.523 . S
C2146 C2127 1.368 . S
C2146 C2140 1.368 . S
C2146 C2145 1.523 . S
C2147 C2131 1.429 . S
C2147 C2143 1.429 . S
C2147 C2148 1.523 . S
C2148 C2132 1.368 . S
C2148 C2144 1.368 . S
C2148 C2147 1.523 . S
H2149 C2124 0.950 . S
H2150 C2126 0.950 . S
H2151 C2127 0.949 . S
H2152 C2129 0.950 . S
H2153 C2131 0.950 . S
C2154 C2155 1.349 . S
C2154 C2156 1.327 . S
C2154 H2179 0.950 . S
C2155 C2154 1.349 . S
C2155 C2171 1.349 . S
C2156 C2154 1.327 . S
C2156 C2175 1.429 . S
C2156 H2180 0.950 . S
C2157 C2174 1.574 . S
C2157 C2176 1.368 . S
C2157 H2181 0.949 . S
H2158 C2162 0.949 . S
C2159 C2160 1.349 . S
C2159 C2161 1.327 . S
C2159 H2182 0.950 . S
C2160 C2159 1.349 . S
C2160 C2172 1.349 . S
C2161 C2159 1.327 . S
C2161 C2177 1.429 . S
C2161 H2183 0.950 . S
C2162 H2158 0.949 . S
C2162 C2170 1.574 . S
C2162 C2178 1.368 . S
H2163 C2171 0.950 . S
H2164 C2169 0.950 . S
H2165 C2170 0.949 . S
H2166 C2172 0.950 . S
H2167 C2173 0.950 . S
H2168 C2174 0.949 . S
C2169 H2164 0.950 . S
C2169 C2171 1.327 . S
C2169 C2175 1.429 . S
C2170 C2162 1.574 . S
C2170 H2165 0.949 . S
C2170 C2176 1.368 . S
C2171 C2155 1.349 . S
C2171 H2163 0.950 . S
C2171 C2169 1.327 . S
C2172 C2160 1.349 . S
C2172 H2166 0.950 . S
C2172 C2173 1.327 . S
C2173 H2167 0.950 . S
C2173 C2172 1.327 . S
C2173 C2177 1.429 . S
C2174 C2157 1.574 . S
C2174 H2168 0.949 . S
C2174 C2178 1.368 . S
C2175 C2156 1.429 . S
C2175 C2169 1.429 . S
C2175 C2176 1.523 . S
C2176 C2157 1.368 . S
C2176 C2170 1.368 . S
C2176 C2175 1.523 . S
C2177 C2161 1.429 . S
C2177 C2173 1.429 . S
C2177 C2178 1.523 . S
C2178 C2162 1.368 . S
C2178 C2174 1.368 . S
C2178 C2177 1.523 . S
H2179 C2154 0.950 . S
H2180 C2156 0.950 . S
H2181 C2157 0.949 . S
H2182 C2159 0.950 . S
H2183 C2161 0.950 . S
C2184 C2185 1.349 . S
C2184 C2186 1.327 . S
C2184 H2209 0.950 . S
C2185 C2184 1.349 . S
C2185 C2201 1.349 . S
C2186 C2184 1.327 . S
C2186 C2205 1.429 . S
C2186 H2210 0.950 . S
C2187 C2204 1.574 . S
C2187 C2206 1.368 . S
C2187 H2211 0.949 . S
H2188 C2192 0.949 . S
C2189 C2190 1.349 . S
C2189 C2191 1.327 . S
C2189 H2212 0.950 . S
C2190 C2189 1.349 . S
C2190 C2202 1.349 . S
C2191 C2189 1.327 . S
C2191 C2207 1.429 . S
C2191 H2213 0.950 . S
C2192 H2188 0.949 . S
C2192 C2200 1.574 . S
C2192 C2208 1.368 . S
H2193 C2201 0.950 . S
H2194 C2199 0.950 . S
H2195 C2200 0.949 . S
H2196 C2202 0.950 . S
H2197 C2203 0.950 . S
H2198 C2204 0.949 . S
C2199 H2194 0.950 . S
C2199 C2201 1.327 . S
C2199 C2205 1.429 . S
C2200 C2192 1.574 . S
C2200 H2195 0.949 . S
C2200 C2206 1.368 . S
C2201 C2185 1.349 . S
C2201 H2193 0.950 . S
C2201 C2199 1.327 . S
C2202 C2190 1.349 . S
C2202 H2196 0.950 . S
C2202 C2203 1.327 . S
C2203 H2197 0.950 . S
C2203 C2202 1.327 . S
C2203 C2207 1.429 . S
C2204 C2187 1.574 . S
C2204 H2198 0.949 . S
C2204 C2208 1.368 . S
C2205 C2186 1.429 . S
C2205 C2199 1.429 . S
C2205 C2206 1.523 . S
C2206 C2187 1.368 . S
C2206 C2200 1.368 . S
C2206 C2205 1.523 . S
C2207 C2191 1.429 . S
C2207 C2203 1.429 . S
C2207 C2208 1.523 . S
C2208 C2192 1.368 . S
C2208 C2204 1.368 . S
C2208 C2207 1.523 . S
H2209 C2184 0.950 . S
H2210 C2186 0.950 . S
H2211 C2187 0.949 . S
H2212 C2189 0.950 . S
H2213 C2191 0.950 . S
C2214 C2215 1.349 . S
C2214 C2216 1.327 . S
C2214 H2239 0.950 . S
C2215 C2214 1.349 . S
C2215 C2231 1.349 . S
C2216 C2214 1.327 . S
C2216 C2235 1.429 . S
C2216 H2240 0.950 . S
C2217 C2234 1.574 . S
C2217 C2236 1.368 . S
C2217 H2241 0.949 . S
H2218 C2222 0.949 . S
C2219 C2220 1.349 . S
C2219 C2221 1.327 . S
C2219 H2242 0.950 . S
C2220 C2219 1.349 . S
C2220 C2232 1.349 . S
C2221 C2219 1.327 . S
C2221 C2237 1.429 . S
C2221 H2243 0.950 . S
C2222 H2218 0.949 . S
C2222 C2230 1.574 . S
C2222 C2238 1.368 . S
H2223 C2231 0.950 . S
H2224 C2229 0.950 . S
H2225 C2230 0.949 . S
H2226 C2232 0.950 . S
H2227 C2233 0.950 . S
H2228 C2234 0.949 . S
C2229 H2224 0.950 . S
C2229 C2231 1.327 . S
C2229 C2235 1.429 . S
C2230 C2222 1.574 . S
C2230 H2225 0.949 . S
C2230 C2236 1.368 . S
C2231 C2215 1.349 . S
C2231 H2223 0.950 . S
C2231 C2229 1.327 . S
C2232 C2220 1.349 . S
C2232 H2226 0.950 . S
C2232 C2233 1.327 . S
C2233 H2227 0.950 . S
C2233 C2232 1.327 . S
C2233 C2237 1.429 . S
C2234 C2217 1.574 . S
C2234 H2228 0.949 . S
C2234 C2238 1.368 . S
C2235 C2216 1.429 . S
C2235 C2229 1.429 . S
C2235 C2236 1.523 . S
C2236 C2217 1.368 . S
C2236 C2230 1.368 . S
C2236 C2235 1.523 . S
C2237 C2221 1.429 . S
C2237 C2233 1.429 . S
C2237 C2238 1.523 . S
C2238 C2222 1.368 . S
C2238 C2234 1.368 . S
C2238 C2237 1.523 . S
H2239 C2214 0.950 . S
H2240 C2216 0.950 . S
H2241 C2217 0.949 . S
H2242 C2219 0.950 . S
H2243 C2221 0.950 . S
C2244 C2245 1.349 . S
C2244 C2246 1.327 . S
C2244 H2269 0.950 . S
C2245 C2244 1.349 . S
C2245 C2261 1.349 . S
C2246 C2244 1.327 . S
C2246 C2265 1.429 . S
C2246 H2270 0.950 . S
C2247 C2264 1.574 . S
C2247 C2266 1.368 . S
C2247 H2271 0.949 . S
H2248 C2252 0.949 . S
C2249 C2250 1.349 . S
C2249 C2251 1.327 . S
C2249 H2272 0.950 . S
C2250 C2249 1.349 . S
C2250 C2262 1.349 . S
C2251 C2249 1.327 . S
C2251 C2267 1.429 . S
C2251 H2273 0.950 . S
C2252 H2248 0.949 . S
C2252 C2260 1.574 . S
C2252 C2268 1.368 . S
H2253 C2261 0.950 . S
H2254 C2259 0.950 . S
H2255 C2260 0.949 . S
H2256 C2262 0.950 . S
H2257 C2263 0.950 . S
H2258 C2264 0.949 . S
C2259 H2254 0.950 . S
C2259 C2261 1.327 . S
C2259 C2265 1.429 . S
C2260 C2252 1.574 . S
C2260 H2255 0.949 . S
C2260 C2266 1.368 . S
C2261 C2245 1.349 . S
C2261 H2253 0.950 . S
C2261 C2259 1.327 . S
C2262 C2250 1.349 . S
C2262 H2256 0.950 . S
C2262 C2263 1.327 . S
C2263 H2257 0.950 . S
C2263 C2262 1.327 . S
C2263 C2267 1.429 . S
C2264 C2247 1.574 . S
C2264 H2258 0.949 . S
C2264 C2268 1.368 . S
C2265 C2246 1.429 . S
C2265 C2259 1.429 . S
C2265 C2266 1.523 . S
C2266 C2247 1.368 . S
C2266 C2260 1.368 . S
C2266 C2265 1.523 . S
C2267 C2251 1.429 . S
C2267 C2263 1.429 . S
C2267 C2268 1.523 . S
C2268 C2252 1.368 . S
C2268 C2264 1.368 . S
C2268 C2267 1.523 . S
H2269 C2244 0.950 . S
H2270 C2246 0.950 . S
H2271 C2247 0.949 . S
H2272 C2249 0.950 . S
H2273 C2251 0.950 . S
C2274 C2275 1.349 . S
C2274 C2276 1.327 . S
C2274 H2299 0.950 . S
C2275 C2274 1.349 . S
C2275 C2291 1.349 . S
C2276 C2274 1.327 . S
C2276 C2295 1.429 . S
C2276 H2300 0.950 . S
C2277 C2294 1.574 . S
C2277 C2296 1.368 . S
C2277 H2301 0.949 . S
H2278 C2282 0.949 . S
C2279 C2280 1.349 . S
C2279 C2281 1.327 . S
C2279 H2302 0.950 . S
C2280 C2279 1.349 . S
C2280 C2292 1.349 . S
C2281 C2279 1.327 . S
C2281 C2297 1.429 . S
C2281 H2303 0.950 . S
C2282 H2278 0.949 . S
C2282 C2290 1.574 . S
C2282 C2298 1.368 . S
H2283 C2291 0.950 . S
H2284 C2289 0.950 . S
H2285 C2290 0.949 . S
H2286 C2292 0.950 . S
H2287 C2293 0.950 . S
H2288 C2294 0.949 . S
C2289 H2284 0.950 . S
C2289 C2291 1.327 . S
C2289 C2295 1.429 . S
C2290 C2282 1.574 . S
C2290 H2285 0.949 . S
C2290 C2296 1.368 . S
C2291 C2275 1.349 . S
C2291 H2283 0.950 . S
C2291 C2289 1.327 . S
C2292 C2280 1.349 . S
C2292 H2286 0.950 . S
C2292 C2293 1.327 . S
C2293 H2287 0.950 . S
C2293 C2292 1.327 . S
C2293 C2297 1.429 . S
C2294 C2277 1.574 . S
C2294 H2288 0.949 . S
C2294 C2298 1.368 . S
C2295 C2276 1.429 . S
C2295 C2289 1.429 . S
C2295 C2296 1.523 . S
C2296 C2277 1.368 . S
C2296 C2290 1.368 . S
C2296 C2295 1.523 . S
C2297 C2281 1.429 . S
C2297 C2293 1.429 . S
C2297 C2298 1.523 . S
C2298 C2282 1.368 . S
C2298 C2294 1.368 . S
C2298 C2297 1.523 . S
H2299 C2274 0.950 . S
H2300 C2276 0.950 . S
H2301 C2277 0.949 . S
H2302 C2279 0.950 . S
H2303 C2281 0.950 . S
C2304 C2305 1.349 . S
C2304 C2306 1.327 . S
C2304 H2329 0.950 . S
C2305 C2304 1.349 . S
C2305 C2321 1.349 . S
C2306 C2304 1.327 . S
C2306 C2325 1.429 . S
C2306 H2330 0.950 . S
C2307 C2324 1.574 . S
C2307 C2326 1.368 . S
C2307 H2331 0.949 . S
H2308 C2312 0.949 . S
C2309 C2310 1.349 . S
C2309 C2311 1.327 . S
C2309 H2332 0.950 . S
C2310 C2309 1.349 . S
C2310 C2322 1.349 . S
C2311 C2309 1.327 . S
C2311 C2327 1.429 . S
C2311 H2333 0.950 . S
C2312 H2308 0.949 . S
C2312 C2320 1.574 1_554 S
C2312 C2328 1.368 . S
H2313 C2321 0.950 . S
H2314 C2319 0.950 . S
H2315 C2320 0.949 . S
H2316 C2322 0.950 . S
H2317 C2323 0.950 . S
H2318 C2324 0.949 . S
C2319 H2314 0.950 . S
C2319 C2321 1.327 . S
C2319 C2325 1.429 . S
C2320 C2312 1.574 1_556 S
C2320 H2315 0.949 . S
C2320 C2326 1.368 . S
C2321 C2305 1.349 . S
C2321 H2313 0.950 . S
C2321 C2319 1.327 . S
C2322 C2310 1.349 . S
C2322 H2316 0.950 . S
C2322 C2323 1.327 . S
C2323 H2317 0.950 . S
C2323 C2322 1.327 . S
C2323 C2327 1.429 . S
C2324 C2307 1.574 . S
C2324 H2318 0.949 . S
C2324 C2328 1.368 1_556 S
C2325 C2306 1.429 . S
C2325 C2319 1.429 . S
C2325 C2326 1.523 . S
C2326 C2307 1.368 . S
C2326 C2320 1.368 . S
C2326 C2325 1.523 . S
C2327 C2311 1.429 . S
C2327 C2323 1.429 . S
C2327 C2328 1.523 . S
C2328 C2312 1.368 . S
C2328 C2324 1.368 1_554 S
C2328 C2327 1.523 . S
H2329 C2304 0.950 . S
H2330 C2306 0.950 . S
H2331 C2307 0.949 . S
H2332 C2309 0.950 . S
H2333 C2311 0.950 . S
C2334 C2335 1.349 . S
C2334 C2336 1.327 . S
C2334 H2359 0.950 . S
C2335 C2334 1.349 . S
C2335 C2351 1.349 . S
C2336 C2334 1.327 . S
C2336 C2355 1.429 . S
C2336 H2360 0.950 . S
C2337 C2354 1.574 1_556 S
C2337 C2356 1.368 . S
C2337 H2361 0.949 . S
H2338 C2342 0.959 . S
C2339 C2340 1.349 . S
C2339 C2341 1.327 . S
C2339 H2362 0.950 . S
C2340 C2339 1.349 . S
C2340 C2352 1.349 . S
C2341 C2339 1.327 . S
C2341 C2357 1.429 . S
C2341 H2363 0.950 . S
C2342 H2338 0.959 . S
C2342 C2350 1.548 1_554 S
C2342 C2358 1.384 . S
H2343 C2351 0.950 . S
H2344 C2349 0.950 . S
H2345 C2350 0.949 . S
H2346 C2352 0.950 . S
H2347 C2353 0.950 . S
H2348 C2354 0.949 . S
C2349 H2344 0.950 . S
C2349 C2351 1.327 . S
C2349 C2355 1.429 . S
C2350 C2342 1.548 1_556 S
C2350 H2345 0.949 . S
C2350 C2356 1.368 . S
C2351 C2335 1.349 . S
C2351 H2343 0.950 . S
C2351 C2349 1.327 . S
C2352 C2340 1.349 . S
C2352 H2346 0.950 . S
C2352 C2353 1.327 . S
C2353 H2347 0.950 . S
C2353 C2352 1.327 . S
C2353 C2357 1.429 . S
C2354 C2337 1.574 1_554 S
C2354 H2348 0.949 . S
C2354 C2358 1.368 . S
C2355 C2336 1.429 . S
C2355 C2349 1.429 . S
C2355 C2356 1.523 . S
C2356 C2337 1.368 . S
C2356 C2350 1.368 . S
C2356 C2355 1.523 . S
C2357 C2341 1.429 . S
C2357 C2353 1.429 . S
C2357 C2358 1.523 . S
C2358 C2342 1.384 . S
C2358 C2354 1.368 . S
C2358 C2357 1.523 . S
H2359 C2334 0.950 . S
H2360 C2336 0.950 . S
H2361 C2337 0.949 . S
H2362 C2339 0.950 . S
H2363 C2341 0.950 . S
C2364 C2365 1.349 . S
C2364 C2366 1.327 . S
C2364 H2389 0.950 . S
C2365 C2364 1.349 . S
C2365 C2381 1.349 . S
C2366 C2364 1.327 . S
C2366 C2385 1.429 . S
C2366 H2390 0.950 . S
C2367 C2384 1.574 1_556 S
C2367 C2386 1.368 . S
C2367 H2391 0.949 . S
H2368 C2372 0.949 1_554 S
C2369 C2370 1.349 . S
C2369 C2371 1.327 . S
C2369 H2392 0.950 . S
C2370 C2369 1.349 . S
C2370 C2382 1.349 . S
C2371 C2369 1.327 . S
C2371 C2387 1.429 . S
C2371 H2393 0.950 . S
C2372 H2368 0.949 1_556 S
C2372 C2380 1.574 . S
C2372 C2388 1.368 1_556 S
H2373 C2381 0.950 . S
H2374 C2379 0.950 . S
H2375 C2380 0.949 . S
H2376 C2382 0.950 . S
H2377 C2383 0.950 . S
H2378 C2384 0.949 . S
C2379 H2374 0.950 . S
C2379 C2381 1.327 . S
C2379 C2385 1.429 . S
C2380 C2372 1.574 . S
C2380 H2375 0.949 . S
C2380 C2386 1.368 . S
C2381 C2365 1.349 . S
C2381 H2373 0.950 . S
C2381 C2379 1.327 . S
C2382 C2370 1.349 . S
C2382 H2376 0.950 . S
C2382 C2383 1.327 . S
C2383 H2377 0.950 . S
C2383 C2382 1.327 . S
C2383 C2387 1.429 . S
C2384 C2367 1.574 1_554 S
C2384 H2378 0.949 . S
C2384 C2388 1.368 . S
C2385 C2366 1.429 . S
C2385 C2379 1.429 . S
C2385 C2386 1.523 . S
C2386 C2367 1.368 . S
C2386 C2380 1.368 . S
C2386 C2385 1.523 . S
C2387 C2371 1.429 . S
C2387 C2383 1.429 . S
C2387 C2388 1.523 . S
C2388 C2372 1.368 1_554 S
C2388 C2384 1.368 . S
C2388 C2387 1.523 . S
H2389 C2364 0.950 . S
H2390 C2366 0.950 . S
H2391 C2367 0.949 . S
H2392 C2369 0.950 . S
H2393 C2371 0.950 . S
C2394 C2395 1.349 . S
C2394 C2396 1.327 . S
C2394 H2419 0.950 . S
C2395 C2394 1.349 . S
C2395 C2411 1.349 . S
C2396 C2394 1.327 . S
C2396 C2415 1.429 . S
C2396 H2420 0.950 . S
C2397 C2414 1.574 . S
C2397 C2416 1.368 . S
C2397 H2421 0.949 . S
H2398 C2402 0.949 . S
C2399 C2400 1.349 . S
C2399 C2401 1.327 . S
C2399 H2422 0.950 . S
C2400 C2399 1.349 . S
C2400 C2412 1.349 . S
C2401 C2399 1.327 . S
C2401 C2417 1.429 . S
C2401 H2423 0.950 . S
C2402 H2398 0.949 . S
C2402 C2410 1.574 . S
C2402 C2418 1.368 . S
H2403 C2411 0.950 . S
H2404 C2409 0.950 . S
H2405 C2410 0.949 . S
H2406 C2412 0.950 . S
H2407 C2413 0.950 . S
H2408 C2414 0.949 . S
C2409 H2404 0.950 . S
C2409 C2411 1.327 . S
C2409 C2415 1.429 . S
C2410 C2402 1.574 . S
C2410 H2405 0.949 . S
C2410 C2416 1.368 . S
C2411 C2395 1.349 . S
C2411 H2403 0.950 . S
C2411 C2409 1.327 . S
C2412 C2400 1.349 . S
C2412 H2406 0.950 . S
C2412 C2413 1.327 . S
C2413 H2407 0.950 . S
C2413 C2412 1.327 . S
C2413 C2417 1.429 . S
C2414 C2397 1.574 . S
C2414 H2408 0.949 . S
C2414 C2418 1.368 . S
C2415 C2396 1.429 . S
C2415 C2409 1.429 . S
C2415 C2416 1.523 . S
C2416 C2397 1.368 . S
C2416 C2410 1.368 . S
C2416 C2415 1.523 . S
C2417 C2401 1.429 . S
C2417 C2413 1.429 . S
C2417 C2418 1.523 . S
C2418 C2402 1.368 . S
C2418 C2414 1.368 . S
C2418 C2417 1.523 . S
H2419 C2394 0.950 . S
H2420 C2396 0.950 . S
H2421 C2397 0.949 . S
H2422 C2399 0.950 . S
H2423 C2401 0.950 . S
C2424 C2425 1.349 . S
C2424 C2426 1.327 . S
C2424 H2449 0.950 . S
C2425 C2424 1.349 . S
C2425 C2441 1.349 . S
C2426 C2424 1.327 . S
C2426 C2445 1.429 . S
C2426 H2450 0.950 . S
C2427 C2444 1.574 . S
C2427 C2446 1.368 . S
C2427 H2451 0.949 . S
H2428 C2432 0.949 . S
C2429 C2430 1.349 . S
C2429 C2431 1.327 . S
C2429 H2452 0.950 . S
C2430 C2429 1.349 . S
C2430 C2442 1.349 . S
C2431 C2429 1.327 . S
C2431 C2447 1.429 . S
C2431 H2453 0.950 . S
C2432 H2428 0.949 . S
C2432 C2440 1.574 . S
C2432 C2448 1.368 . S
H2433 C2441 0.950 . S
H2434 C2439 0.950 . S
H2435 C2440 0.949 . S
H2436 C2442 0.950 . S
H2437 C2443 0.950 . S
H2438 C2444 0.949 . S
C2439 H2434 0.950 . S
C2439 C2441 1.327 . S
C2439 C2445 1.429 . S
C2440 C2432 1.574 . S
C2440 H2435 0.949 . S
C2440 C2446 1.368 . S
C2441 C2425 1.349 . S
C2441 H2433 0.950 . S
C2441 C2439 1.327 . S
C2442 C2430 1.349 . S
C2442 H2436 0.950 . S
C2442 C2443 1.327 . S
C2443 H2437 0.950 . S
C2443 C2442 1.327 . S
C2443 C2447 1.429 . S
C2444 C2427 1.574 . S
C2444 H2438 0.949 . S
C2444 C2448 1.368 . S
C2445 C2426 1.429 . S
C2445 C2439 1.429 . S
C2445 C2446 1.523 . S
C2446 C2427 1.368 . S
C2446 C2440 1.368 . S
C2446 C2445 1.523 . S
C2447 C2431 1.429 . S
C2447 C2443 1.429 . S
C2447 C2448 1.523 . S
C2448 C2432 1.368 . S
C2448 C2444 1.368 . S
C2448 C2447 1.523 . S
H2449 C2424 0.950 . S
H2450 C2426 0.950 . S
H2451 C2427 0.949 . S
H2452 C2429 0.950 . S
H2453 C2431 0.950 . S
C2454 C2455 1.349 . S
C2454 C2456 1.327 . S
C2454 H2479 0.950 . S
C2455 C2454 1.349 . S
C2455 C2471 1.349 . S
C2456 C2454 1.327 . S
C2456 C2475 1.429 . S
C2456 H2480 0.950 . S
C2457 C2474 1.574 . S
C2457 C2476 1.368 . S
C2457 H2481 0.949 . S
H2458 C2462 0.949 . S
C2459 C2460 1.349 . S
C2459 C2461 1.327 . S
C2459 H2482 0.950 . S
C2460 C2459 1.349 . S
C2460 C2472 1.349 . S
C2461 C2459 1.327 . S
C2461 C2477 1.429 . S
C2461 H2483 0.950 . S
C2462 H2458 0.949 . S
C2462 C2470 1.574 . S
C2462 C2478 1.368 . S
H2463 C2471 0.950 . S
H2464 C2469 0.950 . S
H2465 C2470 0.949 . S
H2466 C2472 0.950 . S
H2467 C2473 0.950 . S
H2468 C2474 0.949 . S
C2469 H2464 0.950 . S
C2469 C2471 1.327 . S
C2469 C2475 1.429 . S
C2470 C2462 1.574 . S
C2470 H2465 0.949 . S
C2470 C2476 1.368 . S
C2471 C2455 1.349 . S
C2471 H2463 0.950 . S
C2471 C2469 1.327 . S
C2472 C2460 1.349 . S
C2472 H2466 0.950 . S
C2472 C2473 1.327 . S
C2473 H2467 0.950 . S
C2473 C2472 1.327 . S
C2473 C2477 1.429 . S
C2474 C2457 1.574 . S
C2474 H2468 0.949 . S
C2474 C2478 1.368 . S
C2475 C2456 1.429 . S
C2475 C2469 1.429 . S
C2475 C2476 1.523 . S
C2476 C2457 1.368 . S
C2476 C2470 1.368 . S
C2476 C2475 1.523 . S
C2477 C2461 1.429 . S
C2477 C2473 1.429 . S
C2477 C2478 1.523 . S
C2478 C2462 1.368 . S
C2478 C2474 1.368 . S
C2478 C2477 1.523 . S
H2479 C2454 0.950 . S
H2480 C2456 0.950 . S
H2481 C2457 0.949 . S
H2482 C2459 0.950 . S
H2483 C2461 0.950 . S
C2484 C2485 1.349 . S
C2484 C2486 1.327 . S
C2484 H2509 0.950 . S
C2485 C2484 1.349 . S
C2485 C2501 1.349 . S
C2486 C2484 1.327 . S
C2486 C2505 1.429 . S
C2486 H2510 0.950 . S
C2487 C2504 1.574 1_554 S
C2487 C2506 1.368 . S
C2487 H2511 0.949 . S
H2488 C2492 0.949 . S
C2489 C2490 1.349 . S
C2489 C2491 1.327 . S
C2489 H2512 0.950 . S
C2490 C2489 1.349 . S
C2490 C2502 1.349 . S
C2491 C2489 1.327 . S
C2491 C2507 1.429 . S
C2491 H2513 0.950 . S
C2492 H2488 0.949 . S
C2492 C2500 1.574 1_556 S
C2492 C2508 1.368 . S
H2493 C2501 0.950 . S
H2494 C2499 0.950 . S
H2495 C2500 0.949 . S
H2496 C2502 0.950 . S
H2497 C2503 0.950 . S
H2498 C2504 0.949 . S
C2499 H2494 0.950 . S
C2499 C2501 1.327 . S
C2499 C2505 1.429 . S
C2500 C2492 1.574 1_554 S
C2500 H2495 0.949 . S
C2500 C2506 1.368 . S
C2501 C2485 1.349 . S
C2501 H2493 0.950 . S
C2501 C2499 1.327 . S
C2502 C2490 1.349 . S
C2502 H2496 0.950 . S
C2502 C2503 1.327 . S
C2503 H2497 0.950 . S
C2503 C2502 1.327 . S
C2503 C2507 1.429 . S
C2504 C2487 1.574 1_556 S
C2504 H2498 0.949 . S
C2504 C2508 1.368 . S
C2505 C2486 1.429 . S
C2505 C2499 1.429 . S
C2505 C2506 1.523 . S
C2506 C2487 1.368 . S
C2506 C2500 1.368 . S
C2506 C2505 1.523 . S
C2507 C2491 1.429 . S
C2507 C2503 1.429 . S
C2507 C2508 1.523 . S
C2508 C2492 1.368 . S
C2508 C2504 1.368 . S
C2508 C2507 1.523 . S
H2509 C2484 0.950 . S
H2510 C2486 0.950 . S
H2511 C2487 0.949 . S
H2512 C2489 0.950 . S
H2513 C2491 0.950 . S
C2514 C2515 1.349 . S
C2514 C2516 1.327 . S
C2514 H2539 0.950 . S
C2515 C2514 1.349 . S
C2515 C2531 1.349 . S
C2516 C2514 1.327 . S
C2516 C2535 1.429 . S
C2516 H2540 0.950 . S
C2517 C2534 1.574 . S
C2517 C2536 1.368 1_554 S
C2517 H2541 0.949 1_554 S
H2518 C2522 0.949 . S
C2519 C2520 1.349 . S
C2519 C2521 1.327 . S
C2519 H2542 0.950 . S
C2520 C2519 1.349 . S
C2520 C2532 1.349 . S
C2521 C2519 1.327 . S
C2521 C2537 1.429 . S
C2521 H2543 0.950 . S
C2522 H2518 0.949 . S
C2522 C2530 1.574 1_554 S
C2522 C2538 1.368 . S
H2523 C2531 0.950 . S
H2524 C2529 0.950 . S
H2525 C2530 0.949 . S
H2526 C2532 0.950 . S
H2527 C2533 0.950 . S
H2528 C2534 0.949 . S
C2529 H2524 0.950 . S
C2529 C2531 1.327 . S
C2529 C2535 1.429 . S
C2530 C2522 1.574 1_556 S
C2530 H2525 0.949 . S
C2530 C2536 1.368 . S
C2531 C2515 1.349 . S
C2531 H2523 0.950 . S
C2531 C2529 1.327 . S
C2532 C2520 1.349 . S
C2532 H2526 0.950 . S
C2532 C2533 1.327 . S
C2533 H2527 0.950 . S
C2533 C2532 1.327 . S
C2533 C2537 1.429 . S
C2534 C2517 1.574 . S
C2534 H2528 0.949 . S
C2534 C2538 1.368 . S
C2535 C2516 1.429 . S
C2535 C2529 1.429 . S
C2535 C2536 1.523 . S
C2536 C2517 1.368 1_556 S
C2536 C2530 1.368 . S
C2536 C2535 1.523 . S
C2537 C2521 1.429 . S
C2537 C2533 1.429 . S
C2537 C2538 1.523 . S
C2538 C2522 1.368 . S
C2538 C2534 1.368 . S
C2538 C2537 1.523 . S
H2539 C2514 0.950 . S
H2540 C2516 0.950 . S
H2541 C2517 0.949 1_556 S
H2542 C2519 0.950 . S
H2543 C2521 0.950 . S
C2544 C2545 1.349 . S
C2544 C2546 1.327 . S
C2544 H2569 0.950 . S
C2545 C2544 1.349 . S
C2545 C2561 1.349 . S
C2546 C2544 1.327 . S
C2546 C2565 1.429 . S
C2546 H2570 0.950 . S
C2547 C2564 1.574 1_556 S
C2547 C2566 1.368 . S
C2547 H2571 0.949 . S
H2548 C2552 0.949 . S
C2549 C2550 1.349 . S
C2549 C2551 1.327 . S
C2549 H2572 0.950 . S
C2550 C2549 1.349 . S
C2550 C2562 1.349 . S
C2551 C2549 1.327 . S
C2551 C2567 1.429 . S
C2551 H2573 0.950 . S
C2552 H2548 0.949 . S
C2552 C2560 1.574 . S
C2552 C2568 1.368 . S
H2553 C2561 0.950 . S
H2554 C2559 0.950 . S
H2555 C2560 0.949 1_556 S
H2556 C2562 0.950 . S
H2557 C2563 0.950 . S
H2558 C2564 0.949 . S
C2559 H2554 0.950 . S
C2559 C2561 1.327 . S
C2559 C2565 1.429 . S
C2560 C2552 1.574 . S
C2560 H2555 0.949 1_554 S
C2560 C2566 1.368 1_554 S
C2561 C2545 1.349 . S
C2561 H2553 0.950 . S
C2561 C2559 1.327 . S
C2562 C2550 1.349 . S
C2562 H2556 0.950 . S
C2562 C2563 1.327 . S
C2563 H2557 0.950 . S
C2563 C2562 1.327 . S
C2563 C2567 1.429 . S
C2564 C2547 1.574 1_554 S
C2564 H2558 0.949 . S
C2564 C2568 1.368 . S
C2565 C2546 1.429 . S
C2565 C2559 1.429 . S
C2565 C2566 1.523 . S
C2566 C2547 1.368 . S
C2566 C2560 1.368 1_556 S
C2566 C2565 1.523 . S
C2567 C2551 1.429 . S
C2567 C2563 1.429 . S
C2567 C2568 1.523 . S
C2568 C2552 1.368 . S
C2568 C2564 1.368 . S
C2568 C2567 1.523 . S
H2569 C2544 0.950 . S
H2570 C2546 0.950 . S
H2571 C2547 0.949 . S
H2572 C2549 0.950 . S
H2573 C2551 0.950 . S
C2574 C2575 1.349 . S
C2574 C2576 1.327 . S
C2574 H2599 0.950 . S
C2575 C2574 1.349 . S
C2575 C2591 1.349 . S
C2576 C2574 1.327 . S
C2576 C2595 1.429 . S
C2576 H2600 0.950 . S
C2577 C2594 1.574 . S
C2577 C2596 1.368 . S
C2577 H2601 0.949 . S
H2578 C2582 0.949 . S
C2579 C2580 1.349 . S
C2579 C2581 1.327 . S
C2579 H2602 0.950 . S
C2580 C2579 1.349 . S
C2580 C2592 1.349 . S
C2581 C2579 1.327 . S
C2581 C2597 1.429 . S
C2581 H2603 0.950 . S
C2582 H2578 0.949 . S
C2582 C2590 1.574 . S
C2582 C2598 1.368 . S
H2583 C2591 0.950 . S
H2584 C2589 0.950 . S
H2585 C2590 0.949 . S
H2586 C2592 0.950 . S
H2587 C2593 0.950 . S
H2588 C2594 0.949 . S
C2589 H2584 0.950 . S
C2589 C2591 1.327 . S
C2589 C2595 1.429 . S
C2590 C2582 1.574 . S
C2590 H2585 0.949 . S
C2590 C2596 1.368 . S
C2591 C2575 1.349 . S
C2591 H2583 0.950 . S
C2591 C2589 1.327 . S
C2592 C2580 1.349 . S
C2592 H2586 0.950 . S
C2592 C2593 1.327 . S
C2593 H2587 0.950 . S
C2593 C2592 1.327 . S
C2593 C2597 1.429 . S
C2594 C2577 1.574 . S
C2594 H2588 0.949 . S
C2594 C2598 1.368 . S
C2595 C2576 1.429 . S
C2595 C2589 1.429 . S
C2595 C2596 1.523 . S
C2596 C2577 1.368 . S
C2596 C2590 1.368 . S
C2596 C2595 1.523 . S
C2597 C2581 1.429 . S
C2597 C2593 1.429 . S
C2597 C2598 1.523 . S
C2598 C2582 1.368 . S
C2598 C2594 1.368 . S
C2598 C2597 1.523 . S
H2599 C2574 0.950 . S
H2600 C2576 0.950 . S
H2601 C2577 0.949 . S
H2602 C2579 0.950 . S
H2603 C2581 0.950 . S
C2604 C2605 1.349 . S
C2604 C2606 1.327 . S
C2604 H2629 0.950 . S
C2605 C2604 1.349 . S
C2605 C2621 1.349 . S
C2606 C2604 1.327 . S
C2606 C2625 1.429 . S
C2606 H2630 0.950 . S
C2607 C2624 1.574 . S
C2607 C2626 1.368 . S
C2607 H2631 0.949 . S
H2608 C2612 0.949 . S
C2609 C2610 1.349 . S
C2609 C2611 1.327 . S
C2609 H2632 0.950 . S
C2610 C2609 1.349 . S
C2610 C2622 1.349 . S
C2611 C2609 1.327 . S
C2611 C2627 1.429 . S
C2611 H2633 0.950 . S
C2612 H2608 0.949 . S
C2612 C2620 1.574 . S
C2612 C2628 1.368 . S
H2613 C2621 0.950 . S
H2614 C2619 0.950 . S
H2615 C2620 0.949 . S
H2616 C2622 0.950 . S
H2617 C2623 0.950 . S
H2618 C2624 0.949 . S
C2619 H2614 0.950 . S
C2619 C2621 1.327 . S
C2619 C2625 1.429 . S
C2620 C2612 1.574 . S
C2620 H2615 0.949 . S
C2620 C2626 1.368 . S
C2621 C2605 1.349 . S
C2621 H2613 0.950 . S
C2621 C2619 1.327 . S
C2622 C2610 1.349 . S
C2622 H2616 0.950 . S
C2622 C2623 1.327 . S
C2623 H2617 0.950 . S
C2623 C2622 1.327 . S
C2623 C2627 1.429 . S
C2624 C2607 1.574 . S
C2624 H2618 0.949 . S
C2624 C2628 1.368 . S
C2625 C2606 1.429 . S
C2625 C2619 1.429 . S
C2625 C2626 1.523 . S
C2626 C2607 1.368 . S
C2626 C2620 1.368 . S
C2626 C2625 1.523 . S
C2627 C2611 1.429 . S
C2627 C2623 1.429 . S
C2627 C2628 1.523 . S
C2628 C2612 1.368 . S
C2628 C2624 1.368 . S
C2628 C2627 1.523 . S
H2629 C2604 0.950 . S
H2630 C2606 0.950 . S
H2631 C2607 0.949 . S
H2632 C2609 0.950 . S
H2633 C2611 0.950 . S
C2634 C2635 1.349 . S
C2634 C2636 1.327 . S
C2634 H2659 0.950 . S
C2635 C2634 1.349 . S
C2635 C2651 1.349 . S
C2636 C2634 1.327 . S
C2636 C2655 1.429 . S
C2636 H2660 0.950 . S
C2637 C2654 1.574 . S
C2637 C2656 1.368 . S
C2637 H2661 0.949 . S
H2638 C2642 0.949 . S
C2639 C2640 1.349 . S
C2639 C2641 1.327 . S
C2639 H2662 0.950 . S
C2640 C2639 1.349 . S
C2640 C2652 1.349 . S
C2641 C2639 1.327 . S
C2641 C2657 1.429 . S
C2641 H2663 0.950 . S
C2642 H2638 0.949 . S
C2642 C2650 1.574 . S
C2642 C2658 1.368 . S
H2643 C2651 0.950 . S
H2644 C2649 0.950 . S
H2645 C2650 0.949 . S
H2646 C2652 0.950 . S
H2647 C2653 0.950 . S
H2648 C2654 0.949 . S
C2649 H2644 0.950 . S
C2649 C2651 1.327 . S
C2649 C2655 1.429 . S
C2650 C2642 1.574 . S
C2650 H2645 0.949 . S
C2650 C2656 1.368 . S
C2651 C2635 1.349 . S
C2651 H2643 0.950 . S
C2651 C2649 1.327 . S
C2652 C2640 1.349 . S
C2652 H2646 0.950 . S
C2652 C2653 1.327 . S
C2653 H2647 0.950 . S
C2653 C2652 1.327 . S
C2653 C2657 1.429 . S
C2654 C2637 1.574 . S
C2654 H2648 0.949 . S
C2654 C2658 1.368 . S
C2655 C2636 1.429 . S
C2655 C2649 1.429 . S
C2655 C2656 1.523 . S
C2656 C2637 1.368 . S
C2656 C2650 1.368 . S
C2656 C2655 1.523 . S
C2657 C2641 1.429 . S
C2657 C2653 1.429 . S
C2657 C2658 1.523 . S
C2658 C2642 1.368 . S
C2658 C2654 1.368 . S
C2658 C2657 1.523 . S
H2659 C2634 0.950 . S
H2660 C2636 0.950 . S
H2661 C2637 0.949 . S
H2662 C2639 0.950 . S
H2663 C2641 0.950 . S
C2664 C2665 1.349 . S
C2664 C2666 1.327 . S
C2664 H2689 0.950 . S
C2665 C2664 1.349 . S
C2665 C2681 1.349 . S
C2666 C2664 1.327 . S
C2666 C2685 1.429 . S
C2666 H2690 0.950 . S
C2667 C2684 1.574 . S
C2667 C2686 1.368 . S
C2667 H2691 0.949 . S
H2668 C2672 0.949 . S
C2669 C2670 1.349 . S
C2669 C2671 1.327 . S
C2669 H2692 0.950 . S
C2670 C2669 1.349 . S
C2670 C2682 1.349 . S
C2671 C2669 1.327 . S
C2671 C2687 1.429 . S
C2671 H2693 0.950 . S
C2672 H2668 0.949 . S
C2672 C2680 1.574 . S
C2672 C2688 1.368 . S
H2673 C2681 0.950 . S
H2674 C2679 0.950 . S
H2675 C2680 0.949 . S
H2676 C2682 0.950 . S
H2677 C2683 0.950 . S
H2678 C2684 0.949 . S
C2679 H2674 0.950 . S
C2679 C2681 1.327 . S
C2679 C2685 1.429 . S
C2680 C2672 1.574 . S
C2680 H2675 0.949 . S
C2680 C2686 1.368 . S
C2681 C2665 1.349 . S
C2681 H2673 0.950 . S
C2681 C2679 1.327 . S
C2682 C2670 1.349 . S
C2682 H2676 0.950 . S
C2682 C2683 1.327 . S
C2683 H2677 0.950 . S
C2683 C2682 1.327 . S
C2683 C2687 1.429 . S
C2684 C2667 1.574 . S
C2684 H2678 0.949 . S
C2684 C2688 1.368 . S
C2685 C2666 1.429 . S
C2685 C2679 1.429 . S
C2685 C2686 1.523 . S
C2686 C2667 1.368 . S
C2686 C2680 1.368 . S
C2686 C2685 1.523 . S
C2687 C2671 1.429 . S
C2687 C2683 1.429 . S
C2687 C2688 1.523 . S
C2688 C2672 1.368 . S
C2688 C2684 1.368 . S
C2688 C2687 1.523 . S
H2689 C2664 0.950 . S
H2690 C2666 0.950 . S
H2691 C2667 0.949 . S
H2692 C2669 0.950 . S
H2693 C2671 0.950 . S
C2694 C2695 1.349 . S
C2694 C2696 1.327 . S
C2694 H2719 0.950 . S
C2695 C2694 1.349 . S
C2695 C2711 1.349 . S
C2696 C2694 1.327 . S
C2696 C2715 1.429 . S
C2696 H2720 0.950 . S
C2697 C2714 1.574 . S
C2697 C2716 1.368 . S
C2697 H2721 0.949 . S
H2698 C2702 0.949 . S
C2699 C2700 1.349 . S
C2699 C2701 1.327 . S
C2699 H2722 0.950 . S
C2700 C2699 1.349 . S
C2700 C2712 1.349 . S
C2701 C2699 1.327 . S
C2701 C2717 1.429 . S
C2701 H2723 0.950 . S
C2702 H2698 0.949 . S
C2702 C2710 1.574 . S
C2702 C2718 1.368 . S
H2703 C2711 0.950 . S
H2704 C2709 0.950 . S
H2705 C2710 0.949 . S
H2706 C2712 0.950 . S
H2707 C2713 0.950 . S
H2708 C2714 0.949 . S
C2709 H2704 0.950 . S
C2709 C2711 1.327 . S
C2709 C2715 1.429 . S
C2710 C2702 1.574 . S
C2710 H2705 0.949 . S
C2710 C2716 1.368 . S
C2711 C2695 1.349 . S
C2711 H2703 0.950 . S
C2711 C2709 1.327 . S
C2712 C2700 1.349 . S
C2712 H2706 0.950 . S
C2712 C2713 1.327 . S
C2713 H2707 0.950 . S
C2713 C2712 1.327 . S
C2713 C2717 1.429 . S
C2714 C2697 1.574 . S
C2714 H2708 0.949 . S
C2714 C2718 1.368 . S
C2715 C2696 1.429 . S
C2715 C2709 1.429 . S
C2715 C2716 1.523 . S
C2716 C2697 1.368 . S
C2716 C2710 1.368 . S
C2716 C2715 1.523 . S
C2717 C2701 1.429 . S
C2717 C2713 1.429 . S
C2717 C2718 1.523 . S
C2718 C2702 1.368 . S
C2718 C2714 1.368 . S
C2718 C2717 1.523 . S
H2719 C2694 0.950 . S
H2720 C2696 0.950 . S
H2721 C2697 0.949 . S
H2722 C2699 0.950 . S
H2723 C2701 0.950 . S
C2724 C2725 1.349 . S
C2724 C2726 1.327 . S
C2724 H2749 0.950 . S
C2725 C2724 1.349 . S
C2725 C2741 1.349 . S
C2726 C2724 1.327 . S
C2726 C2745 1.429 . S
C2726 H2750 0.950 . S
C2727 C2744 1.574 . S
C2727 C2746 1.368 . S
C2727 H2751 0.949 . S
H2728 C2732 0.949 . S
C2729 C2730 1.349 . S
C2729 C2731 1.327 . S
C2729 H2752 0.950 . S
C2730 C2729 1.349 . S
C2730 C2742 1.349 . S
C2731 C2729 1.327 . S
C2731 C2747 1.429 . S
C2731 H2753 0.950 . S
C2732 H2728 0.949 . S
C2732 C2740 1.574 . S
C2732 C2748 1.368 . S
H2733 C2741 0.950 . S
H2734 C2739 0.950 . S
H2735 C2740 0.949 . S
H2736 C2742 0.950 . S
H2737 C2743 0.950 . S
H2738 C2744 0.949 . S
C2739 H2734 0.950 . S
C2739 C2741 1.327 . S
C2739 C2745 1.429 . S
C2740 C2732 1.574 . S
C2740 H2735 0.949 . S
C2740 C2746 1.368 . S
C2741 C2725 1.349 . S
C2741 H2733 0.950 . S
C2741 C2739 1.327 . S
C2742 C2730 1.349 . S
C2742 H2736 0.950 . S
C2742 C2743 1.327 . S
C2743 H2737 0.950 . S
C2743 C2742 1.327 . S
C2743 C2747 1.429 . S
C2744 C2727 1.574 . S
C2744 H2738 0.949 . S
C2744 C2748 1.368 . S
C2745 C2726 1.429 . S
C2745 C2739 1.429 . S
C2745 C2746 1.523 . S
C2746 C2727 1.368 . S
C2746 C2740 1.368 . S
C2746 C2745 1.523 . S
C2747 C2731 1.429 . S
C2747 C2743 1.429 . S
C2747 C2748 1.523 . S
C2748 C2732 1.368 . S
C2748 C2744 1.368 . S
C2748 C2747 1.523 . S
H2749 C2724 0.950 . S
H2750 C2726 0.950 . S
H2751 C2727 0.949 . S
H2752 C2729 0.950 . S
H2753 C2731 0.950 . S
C2754 C2755 1.349 . S
C2754 C2756 1.327 . S
C2754 H2779 0.950 . S
C2755 C2754 1.349 . S
C2755 C2771 1.349 . S
C2756 C2754 1.327 . S
C2756 C2775 1.429 . S
C2756 H2780 0.950 . S
C2757 C2774 1.574 . S
C2757 C2776 1.368 . S
C2757 H2781 0.949 . S
H2758 C2762 0.949 . S
C2759 C2760 1.349 . S
C2759 C2761 1.327 . S
C2759 H2782 0.950 . S
C2760 C2759 1.349 . S
C2760 C2772 1.349 . S
C2761 C2759 1.327 . S
C2761 C2777 1.429 . S
C2761 H2783 0.950 . S
C2762 H2758 0.949 . S
C2762 C2770 1.574 . S
C2762 C2778 1.368 . S
H2763 C2771 0.950 . S
H2764 C2769 0.950 . S
H2765 C2770 0.949 . S
H2766 C2772 0.950 1_554 S
H2767 C2773 0.950 . S
H2768 C2774 0.949 . S
C2769 H2764 0.950 . S
C2769 C2771 1.327 . S
C2769 C2775 1.429 . S
C2770 C2762 1.574 . S
C2770 H2765 0.949 . S
C2770 C2776 1.368 . S
C2771 C2755 1.349 . S
C2771 H2763 0.950 . S
C2771 C2769 1.327 . S
C2772 C2760 1.349 . S
C2772 H2766 0.950 1_556 S
C2772 C2773 1.327 . S
C2773 H2767 0.950 . S
C2773 C2772 1.327 . S
C2773 C2777 1.429 . S
C2774 C2757 1.574 . S
C2774 H2768 0.949 . S
C2774 C2778 1.368 . S
C2775 C2756 1.429 . S
C2775 C2769 1.429 . S
C2775 C2776 1.523 . S
C2776 C2757 1.368 . S
C2776 C2770 1.368 . S
C2776 C2775 1.523 . S
C2777 C2761 1.429 . S
C2777 C2773 1.429 . S
C2777 C2778 1.523 . S
C2778 C2762 1.368 . S
C2778 C2774 1.368 . S
C2778 C2777 1.523 . S
H2779 C2754 0.950 . S
H2780 C2756 0.950 . S
H2781 C2757 0.949 . S
H2782 C2759 0.950 . S
H2783 C2761 0.950 . S
C2784 C2785 1.349 . S
C2784 C2786 1.327 . S
C2784 H2809 0.950 . S
C2785 C2784 1.349 . S
C2785 C2801 1.349 . S
C2786 C2784 1.327 . S
C2786 C2805 1.429 . S
C2786 H2810 0.950 . S
C2787 C2804 1.574 . S
C2787 C2806 1.368 . S
C2787 H2811 0.949 . S
H2788 C2792 0.949 . S
C2789 C2790 1.349 . S
C2789 C2791 1.327 . S
C2789 H2812 0.950 . S
C2790 C2789 1.349 . S
C2790 C2802 1.349 . S
C2791 C2789 1.327 . S
C2791 C2807 1.429 . S
C2791 H2813 0.950 . S
C2792 H2788 0.949 . S
C2792 C2800 1.574 . S
C2792 C2808 1.368 . S
H2793 C2801 0.950 . S
H2794 C2799 0.950 . S
H2795 C2800 0.949 . S
H2796 C2802 0.950 . S
H2797 C2803 0.950 . S
H2798 C2804 0.949 . S
C2799 H2794 0.950 . S
C2799 C2801 1.327 . S
C2799 C2805 1.429 . S
C2800 C2792 1.574 . S
C2800 H2795 0.949 . S
C2800 C2806 1.368 . S
C2801 C2785 1.349 . S
C2801 H2793 0.950 . S
C2801 C2799 1.327 . S
C2802 C2790 1.349 . S
C2802 H2796 0.950 . S
C2802 C2803 1.327 . S
C2803 H2797 0.950 . S
C2803 C2802 1.327 . S
C2803 C2807 1.429 . S
C2804 C2787 1.574 . S
C2804 H2798 0.949 . S
C2804 C2808 1.368 . S
C2805 C2786 1.429 . S
C2805 C2799 1.429 . S
C2805 C2806 1.523 . S
C2806 C2787 1.368 . S
C2806 C2800 1.368 . S
C2806 C2805 1.523 . S
C2807 C2791 1.429 . S
C2807 C2803 1.429 . S
C2807 C2808 1.523 . S
C2808 C2792 1.368 . S
C2808 C2804 1.368 . S
C2808 C2807 1.523 . S
H2809 C2784 0.950 . S
H2810 C2786 0.950 . S
H2811 C2787 0.949 . S
H2812 C2789 0.950 . S
H2813 C2791 0.950 . S
C2814 C2815 1.349 . S
C2814 C2816 1.327 . S
C2814 H2839 0.950 1_556 S
C2815 C2814 1.349 . S
C2815 C2831 1.349 . S
C2816 C2814 1.327 . S
C2816 C2835 1.429 . S
C2816 H2840 0.950 . S
C2817 C2834 1.574 . S
C2817 C2836 1.368 . S
C2817 H2841 0.949 . S
H2818 C2822 0.949 . S
C2819 C2820 1.349 . S
C2819 C2821 1.327 . S
C2819 H2842 0.950 . S
C2820 C2819 1.349 . S
C2820 C2832 1.349 . S
C2821 C2819 1.327 . S
C2821 C2837 1.429 . S
C2821 H2843 0.950 . S
C2822 H2818 0.949 . S
C2822 C2830 1.574 . S
C2822 C2838 1.368 . S
H2823 C2831 0.950 . S
H2824 C2829 0.950 . S
H2825 C2830 0.949 . S
H2826 C2832 0.950 . S
H2827 C2833 0.950 . S
H2828 C2834 0.949 . S
C2829 H2824 0.950 . S
C2829 C2831 1.327 . S
C2829 C2835 1.429 . S
C2830 C2822 1.574 . S
C2830 H2825 0.949 . S
C2830 C2836 1.368 . S
C2831 C2815 1.349 . S
C2831 H2823 0.950 . S
C2831 C2829 1.327 . S
C2832 C2820 1.349 . S
C2832 H2826 0.950 . S
C2832 C2833 1.327 . S
C2833 H2827 0.950 . S
C2833 C2832 1.327 . S
C2833 C2837 1.429 . S
C2834 C2817 1.574 . S
C2834 H2828 0.949 . S
C2834 C2838 1.368 . S
C2835 C2816 1.429 . S
C2835 C2829 1.429 . S
C2835 C2836 1.523 . S
C2836 C2817 1.368 . S
C2836 C2830 1.368 . S
C2836 C2835 1.523 . S
C2837 C2821 1.429 . S
C2837 C2833 1.429 . S
C2837 C2838 1.523 . S
C2838 C2822 1.368 . S
C2838 C2834 1.368 . S
C2838 C2837 1.523 . S
H2839 C2814 0.950 1_554 S
H2840 C2816 0.950 . S
H2841 C2817 0.949 . S
H2842 C2819 0.950 . S
H2843 C2821 0.950 . S
C2844 C2845 1.349 . S
C2844 C2846 1.327 . S
C2844 H2869 0.950 . S
C2845 C2844 1.349 . S
C2845 C2861 1.349 . S
C2846 C2844 1.327 . S
C2846 C2865 1.429 . S
C2846 H2870 0.950 . S
C2847 C2864 1.574 . S
C2847 C2866 1.368 . S
C2847 H2871 0.949 . S
H2848 C2852 0.949 . S
C2849 C2850 1.349 . S
C2849 C2851 1.327 . S
C2849 H2872 0.950 . S
C2850 C2849 1.349 . S
C2850 C2862 1.349 . S
C2851 C2849 1.327 . S
C2851 C2867 1.429 . S
C2851 H2873 0.950 . S
C2852 H2848 0.949 . S
C2852 C2860 1.574 . S
C2852 C2868 1.368 . S
H2853 C2861 0.950 . S
H2854 C2859 0.950 . S
H2855 C2860 0.949 . S
H2856 C2862 0.950 . S
H2857 C2863 0.950 . S
H2858 C2864 0.949 . S
C2859 H2854 0.950 . S
C2859 C2861 1.327 . S
C2859 C2865 1.429 . S
C2860 C2852 1.574 . S
C2860 H2855 0.949 . S
C2860 C2866 1.368 . S
C2861 C2845 1.349 . S
C2861 H2853 0.950 . S
C2861 C2859 1.327 . S
C2862 C2850 1.349 . S
C2862 H2856 0.950 . S
C2862 C2863 1.327 . S
C2863 H2857 0.950 . S
C2863 C2862 1.327 . S
C2863 C2867 1.429 . S
C2864 C2847 1.574 . S
C2864 H2858 0.949 . S
C2864 C2868 1.368 . S
C2865 C2846 1.429 . S
C2865 C2859 1.429 . S
C2865 C2866 1.523 . S
C2866 C2847 1.368 . S
C2866 C2860 1.368 . S
C2866 C2865 1.523 . S
C2867 C2851 1.429 . S
C2867 C2863 1.429 . S
C2867 C2868 1.523 . S
C2868 C2852 1.368 . S
C2868 C2864 1.368 . S
C2868 C2867 1.523 . S
H2869 C2844 0.950 . S
H2870 C2846 0.950 . S
H2871 C2847 0.949 . S
H2872 C2849 0.950 . S
H2873 C2851 0.950 . S
C2874 C2875 1.349 . S
C2874 C2876 1.327 . S
C2874 H2899 0.950 . S
C2875 C2874 1.349 . S
C2875 C2891 1.349 . S
C2876 C2874 1.327 . S
C2876 C2895 1.429 . S
C2876 H2900 0.950 . S
C2877 C2894 1.574 . S
C2877 C2896 1.368 . S
C2877 H2901 0.949 . S
H2878 C2882 0.949 . S
C2879 C2880 1.349 . S
C2879 C2881 1.327 . S
C2879 H2902 0.950 . S
C2880 C2879 1.349 . S
C2880 C2892 1.349 . S
C2881 C2879 1.327 . S
C2881 C2897 1.429 . S
C2881 H2903 0.950 . S
C2882 H2878 0.949 . S
C2882 C2890 1.574 . S
C2882 C2898 1.368 . S
H2883 C2891 0.950 . S
H2884 C2889 0.950 . S
H2885 C2890 0.949 . S
H2886 C2892 0.950 . S
H2887 C2893 0.950 . S
H2888 C2894 0.949 . S
C2889 H2884 0.950 . S
C2889 C2891 1.327 . S
C2889 C2895 1.429 . S
C2890 C2882 1.574 . S
C2890 H2885 0.949 . S
C2890 C2896 1.368 . S
C2891 C2875 1.349 . S
C2891 H2883 0.950 . S
C2891 C2889 1.327 . S
C2892 C2880 1.349 . S
C2892 H2886 0.950 . S
C2892 C2893 1.327 . S
C2893 H2887 0.950 . S
C2893 C2892 1.327 . S
C2893 C2897 1.429 . S
C2894 C2877 1.574 . S
C2894 H2888 0.949 . S
C2894 C2898 1.368 . S
C2895 C2876 1.429 . S
C2895 C2889 1.429 . S
C2895 C2896 1.523 . S
C2896 C2877 1.368 . S
C2896 C2890 1.368 . S
C2896 C2895 1.523 . S
C2897 C2881 1.429 . S
C2897 C2893 1.429 . S
C2897 C2898 1.523 . S
C2898 C2882 1.368 . S
C2898 C2894 1.368 . S
C2898 C2897 1.523 . S
H2899 C2874 0.950 . S
H2900 C2876 0.950 . S
H2901 C2877 0.949 . S
H2902 C2879 0.950 . S
H2903 C2881 0.950 . S
C2904 C2905 1.349 . S
C2904 C2906 1.327 . S
C2904 H2929 0.950 . S
C2905 C2904 1.349 . S
C2905 C2921 1.349 . S
C2906 C2904 1.327 . S
C2906 C2925 1.429 . S
C2906 H2930 0.950 . S
C2907 C2924 1.574 . S
C2907 C2926 1.368 . S
C2907 H2931 0.949 . S
H2908 C2912 0.949 . S
C2909 C2910 1.349 . S
C2909 C2911 1.327 . S
C2909 H2932 0.950 . S
C2910 C2909 1.349 . S
C2910 C2922 1.349 . S
C2911 C2909 1.327 . S
C2911 C2927 1.429 . S
C2911 H2933 0.950 . S
C2912 H2908 0.949 . S
C2912 C2920 1.574 . S
C2912 C2928 1.368 . S
H2913 C2921 0.950 . S
H2914 C2919 0.950 . S
H2915 C2920 0.949 . S
H2916 C2922 0.950 . S
H2917 C2923 0.950 . S
H2918 C2924 0.949 . S
C2919 H2914 0.950 . S
C2919 C2921 1.327 . S
C2919 C2925 1.429 . S
C2920 C2912 1.574 . S
C2920 H2915 0.949 . S
C2920 C2926 1.368 . S
C2921 C2905 1.349 . S
C2921 H2913 0.950 . S
C2921 C2919 1.327 . S
C2922 C2910 1.349 . S
C2922 H2916 0.950 . S
C2922 C2923 1.327 . S
C2923 H2917 0.950 . S
C2923 C2922 1.327 . S
C2923 C2927 1.429 . S
C2924 C2907 1.574 . S
C2924 H2918 0.949 . S
C2924 C2928 1.368 . S
C2925 C2906 1.429 . S
C2925 C2919 1.429 . S
C2925 C2926 1.523 . S
C2926 C2907 1.368 . S
C2926 C2920 1.368 . S
C2926 C2925 1.523 . S
C2927 C2911 1.429 . S
C2927 C2923 1.429 . S
C2927 C2928 1.523 . S
C2928 C2912 1.368 . S
C2928 C2924 1.368 . S
C2928 C2927 1.523 . S
H2929 C2904 0.950 . S
H2930 C2906 0.950 . S
H2931 C2907 0.949 . S
H2932 C2909 0.950 . S
H2933 C2911 0.950 . S
C2934 C2935 1.349 . S
C2934 C2936 1.327 . S
C2934 H2959 0.950 . S
C2935 C2934 1.349 . S
C2935 C2951 1.349 . S
C2936 C2934 1.327 . S
C2936 C2955 1.429 . S
C2936 H2960 0.950 . S
C2937 C2954 1.574 . S
C2937 C2956 1.368 . S
C2937 H2961 0.949 . S
H2938 C2942 0.949 . S
C2939 C2940 1.349 . S
C2939 C2941 1.327 . S
C2939 H2962 0.950 . S
C2940 C2939 1.349 . S
C2940 C2952 1.349 . S
C2941 C2939 1.327 . S
C2941 C2957 1.429 . S
C2941 H2963 0.950 . S
C2942 H2938 0.949 . S
C2942 C2950 1.574 . S
C2942 C2958 1.368 . S
H2943 C2951 0.950 . S
H2944 C2949 0.950 . S
H2945 C2950 0.949 . S
H2946 C2952 0.950 . S
H2947 C2953 0.950 . S
H2948 C2954 0.949 . S
C2949 H2944 0.950 . S
C2949 C2951 1.327 . S
C2949 C2955 1.429 . S
C2950 C2942 1.574 . S
C2950 H2945 0.949 . S
C2950 C2956 1.368 . S
C2951 C2935 1.349 . S
C2951 H2943 0.950 . S
C2951 C2949 1.327 . S
C2952 C2940 1.349 . S
C2952 H2946 0.950 . S
C2952 C2953 1.327 . S
C2953 H2947 0.950 . S
C2953 C2952 1.327 . S
C2953 C2957 1.429 . S
C2954 C2937 1.574 . S
C2954 H2948 0.949 . S
C2954 C2958 1.368 . S
C2955 C2936 1.429 . S
C2955 C2949 1.429 . S
C2955 C2956 1.523 . S
C2956 C2937 1.368 . S
C2956 C2950 1.368 . S
C2956 C2955 1.523 . S
C2957 C2941 1.429 . S
C2957 C2953 1.429 . S
C2957 C2958 1.523 . S
C2958 C2942 1.368 . S
C2958 C2954 1.368 . S
C2958 C2957 1.523 . S
H2959 C2934 0.950 . S
H2960 C2936 0.950 . S
H2961 C2937 0.949 . S
H2962 C2939 0.950 . S
H2963 C2941 0.950 . S
C2964 C2965 1.349 . S
C2964 C2966 1.327 . S
C2964 H2989 0.950 . S
C2965 C2964 1.349 . S
C2965 C2981 1.349 . S
C2966 C2964 1.327 . S
C2966 C2985 1.429 . S
C2966 H2990 0.950 . S
C2967 C2984 1.574 . S
C2967 C2986 1.368 . S
C2967 H2991 0.949 . S
H2968 C2972 0.949 . S
C2969 C2970 1.349 . S
C2969 C2971 1.327 . S
C2969 H2992 0.950 . S
C2970 C2969 1.349 . S
C2970 C2982 1.349 . S
C2971 C2969 1.327 . S
C2971 C2987 1.429 . S
C2971 H2993 0.950 . S
C2972 H2968 0.949 . S
C2972 C2980 1.574 . S
C2972 C2988 1.368 . S
H2973 C2981 0.950 . S
H2974 C2979 0.950 . S
H2975 C2980 0.949 . S
H2976 C2982 0.950 . S
H2977 C2983 0.950 . S
H2978 C2984 0.949 . S
C2979 H2974 0.950 . S
C2979 C2981 1.327 . S
C2979 C2985 1.429 . S
C2980 C2972 1.574 . S
C2980 H2975 0.949 . S
C2980 C2986 1.368 . S
C2981 C2965 1.349 . S
C2981 H2973 0.950 . S
C2981 C2979 1.327 . S
C2982 C2970 1.349 . S
C2982 H2976 0.950 . S
C2982 C2983 1.327 . S
C2983 H2977 0.950 . S
C2983 C2982 1.327 . S
C2983 C2987 1.429 . S
C2984 C2967 1.574 . S
C2984 H2978 0.949 . S
C2984 C2988 1.368 . S
C2985 C2966 1.429 . S
C2985 C2979 1.429 . S
C2985 C2986 1.523 . S
C2986 C2967 1.368 . S
C2986 C2980 1.368 . S
C2986 C2985 1.523 . S
C2987 C2971 1.429 . S
C2987 C2983 1.429 . S
C2987 C2988 1.523 . S
C2988 C2972 1.368 . S
C2988 C2984 1.368 . S
C2988 C2987 1.523 . S
H2989 C2964 0.950 . S
H2990 C2966 0.950 . S
H2991 C2967 0.949 . S
H2992 C2969 0.950 . S
H2993 C2971 0.950 . S
C2994 C2995 1.349 . S
C2994 C2996 1.327 . S
C2994 H3019 0.950 . S
C2995 C2994 1.349 . S
C2995 C3011 1.349 . S
C2996 C2994 1.327 . S
C2996 C3015 1.429 . S
C2996 H3020 0.950 . S
C2997 C3014 1.574 . S
C2997 C3016 1.368 . S
C2997 H3021 0.949 . S
H2998 C3002 0.949 . S
C2999 C3000 1.349 . S
C2999 C3001 1.327 . S
C2999 H3022 0.950 . S
C3000 C2999 1.349 . S
C3000 C3012 1.349 . S
C3001 C2999 1.327 . S
C3001 C3017 1.429 . S
C3001 H3023 0.950 . S
C3002 H2998 0.949 . S
C3002 C3010 1.574 . S
C3002 C3018 1.368 . S
H3003 C3011 0.950 . S
H3004 C3009 0.950 . S
H3005 C3010 0.949 . S
H3006 C3012 0.950 . S
H3007 C3013 0.950 . S
H3008 C3014 0.949 . S
C3009 H3004 0.950 . S
C3009 C3011 1.327 . S
C3009 C3015 1.429 . S
C3010 C3002 1.574 . S
C3010 H3005 0.949 . S
C3010 C3016 1.368 . S
C3011 C2995 1.349 . S
C3011 H3003 0.950 . S
C3011 C3009 1.327 . S
C3012 C3000 1.349 . S
C3012 H3006 0.950 . S
C3012 C3013 1.327 . S
C3013 H3007 0.950 . S
C3013 C3012 1.327 . S
C3013 C3017 1.429 . S
C3014 C2997 1.574 . S
C3014 H3008 0.949 . S
C3014 C3018 1.368 . S
C3015 C2996 1.429 . S
C3015 C3009 1.429 . S
C3015 C3016 1.523 . S
C3016 C2997 1.368 . S
C3016 C3010 1.368 . S
C3016 C3015 1.523 . S
C3017 C3001 1.429 . S
C3017 C3013 1.429 . S
C3017 C3018 1.523 . S
C3018 C3002 1.368 . S
C3018 C3014 1.368 . S
C3018 C3017 1.523 . S
H3019 C2994 0.950 . S
H3020 C2996 0.950 . S
H3021 C2997 0.949 . S
H3022 C2999 0.950 . S
H3023 C3001 0.950 . S
C3024 C3025 1.349 . S
C3024 C3026 1.327 . S
C3024 H3049 0.950 . S
C3025 C3024 1.349 . S
C3025 C3041 1.349 . S
C3026 C3024 1.327 . S
C3026 C3045 1.429 . S
C3026 H3050 0.950 . S
C3027 C3044 1.574 . S
C3027 C3046 1.368 . S
C3027 H3051 0.949 . S
H3028 C3032 0.949 . S
C3029 C3030 1.349 . S
C3029 C3031 1.327 . S
C3029 H3052 0.950 . S
C3030 C3029 1.349 . S
C3030 C3042 1.349 . S
C3031 C3029 1.327 . S
C3031 C3047 1.429 . S
C3031 H3053 0.950 . S
C3032 H3028 0.949 . S
C3032 C3040 1.574 . S
C3032 C3048 1.368 . S
H3033 C3041 0.950 . S
H3034 C3039 0.950 . S
H3035 C3040 0.949 . S
H3036 C3042 0.950 . S
H3037 C3043 0.950 . S
H3038 C3044 0.949 . S
C3039 H3034 0.950 . S
C3039 C3041 1.327 . S
C3039 C3045 1.429 . S
C3040 C3032 1.574 . S
C3040 H3035 0.949 . S
C3040 C3046 1.368 . S
C3041 C3025 1.349 . S
C3041 H3033 0.950 . S
C3041 C3039 1.327 . S
C3042 C3030 1.349 . S
C3042 H3036 0.950 . S
C3042 C3043 1.327 . S
C3043 H3037 0.950 . S
C3043 C3042 1.327 . S
C3043 C3047 1.429 . S
C3044 C3027 1.574 . S
C3044 H3038 0.949 . S
C3044 C3048 1.368 . S
C3045 C3026 1.429 . S
C3045 C3039 1.429 . S
C3045 C3046 1.523 . S
C3046 C3027 1.368 . S
C3046 C3040 1.368 . S
C3046 C3045 1.523 . S
C3047 C3031 1.429 . S
C3047 C3043 1.429 . S
C3047 C3048 1.523 . S
C3048 C3032 1.368 . S
C3048 C3044 1.368 . S
C3048 C3047 1.523 . S
H3049 C3024 0.950 . S
H3050 C3026 0.950 . S
H3051 C3027 0.949 . S
H3052 C3029 0.950 . S
H3053 C3031 0.950 . S
C3054 C3055 1.349 . S
C3054 C3056 1.327 . S
C3054 H3079 0.950 . S
C3055 C3054 1.349 . S
C3055 C3071 1.349 . S
C3056 C3054 1.327 . S
C3056 C3075 1.429 . S
C3056 H3080 0.950 . S
C3057 C3074 1.574 . S
C3057 C3076 1.368 . S
C3057 H3081 0.949 . S
H3058 C3062 0.949 . S
C3059 C3060 1.349 . S
C3059 C3061 1.327 . S
C3059 H3082 0.950 . S
C3060 C3059 1.349 . S
C3060 C3072 1.349 . S
C3061 C3059 1.327 . S
C3061 C3077 1.429 . S
C3061 H3083 0.950 . S
C3062 H3058 0.949 . S
C3062 C3070 1.574 . S
C3062 C3078 1.368 . S
H3063 C3071 0.950 . S
H3064 C3069 0.950 . S
H3065 C3070 0.949 . S
H3066 C3072 0.950 . S
H3067 C3073 0.950 . S
H3068 C3074 0.949 . S
C3069 H3064 0.950 . S
C3069 C3071 1.327 . S
C3069 C3075 1.429 . S
C3070 C3062 1.574 . S
C3070 H3065 0.949 . S
C3070 C3076 1.368 . S
C3071 C3055 1.349 . S
C3071 H3063 0.950 . S
C3071 C3069 1.327 . S
C3072 C3060 1.349 . S
C3072 H3066 0.950 . S
C3072 C3073 1.327 . S
C3073 H3067 0.950 . S
C3073 C3072 1.327 . S
C3073 C3077 1.429 . S
C3074 C3057 1.574 . S
C3074 H3068 0.949 . S
C3074 C3078 1.368 . S
C3075 C3056 1.429 . S
C3075 C3069 1.429 . S
C3075 C3076 1.523 . S
C3076 C3057 1.368 . S
C3076 C3070 1.368 . S
C3076 C3075 1.523 . S
C3077 C3061 1.429 . S
C3077 C3073 1.429 . S
C3077 C3078 1.523 . S
C3078 C3062 1.368 . S
C3078 C3074 1.368 . S
C3078 C3077 1.523 . S
H3079 C3054 0.950 . S
H3080 C3056 0.950 . S
H3081 C3057 0.949 . S
H3082 C3059 0.950 . S
H3083 C3061 0.950 . S
C3084 C3085 1.349 . S
C3084 C3086 1.327 . S
C3084 H3109 0.950 . S
C3085 C3084 1.349 . S
C3085 C3101 1.349 . S
C3086 C3084 1.327 . S
C3086 C3105 1.429 . S
C3086 H3110 0.950 . S
C3087 C3104 1.574 . S
C3087 C3106 1.368 . S
C3087 H3111 0.949 . S
H3088 C3092 0.949 . S
C3089 C3090 1.349 . S
C3089 C3091 1.327 . S
C3089 H3112 0.950 . S
C3090 C3089 1.349 . S
C3090 C3102 1.349 . S
C3091 C3089 1.327 . S
C3091 C3107 1.429 . S
C3091 H3113 0.950 . S
C3092 H3088 0.949 . S
C3092 C3100 1.574 . S
C3092 C3108 1.368 . S
H3093 C3101 0.950 . S
H3094 C3099 0.950 . S
H3095 C3100 0.949 . S
H3096 C3102 0.950 . S
H3097 C3103 0.950 . S
H3098 C3104 0.949 . S
C3099 H3094 0.950 . S
C3099 C3101 1.327 . S
C3099 C3105 1.429 . S
C3100 C3092 1.574 . S
C3100 H3095 0.949 . S
C3100 C3106 1.368 . S
C3101 C3085 1.349 . S
C3101 H3093 0.950 . S
C3101 C3099 1.327 . S
C3102 C3090 1.349 . S
C3102 H3096 0.950 . S
C3102 C3103 1.327 . S
C3103 H3097 0.950 . S
C3103 C3102 1.327 . S
C3103 C3107 1.429 . S
C3104 C3087 1.574 . S
C3104 H3098 0.949 . S
C3104 C3108 1.368 . S
C3105 C3086 1.429 . S
C3105 C3099 1.429 . S
C3105 C3106 1.523 . S
C3106 C3087 1.368 . S
C3106 C3100 1.368 . S
C3106 C3105 1.523 . S
C3107 C3091 1.429 . S
C3107 C3103 1.429 . S
C3107 C3108 1.523 . S
C3108 C3092 1.368 . S
C3108 C3104 1.368 . S
C3108 C3107 1.523 . S
H3109 C3084 0.950 . S
H3110 C3086 0.950 . S
H3111 C3087 0.949 . S
H3112 C3089 0.950 . S
H3113 C3091 0.950 . S
C3114 C3115 1.349 . S
C3114 C3116 1.327 . S
C3114 H3139 0.950 . S
C3115 C3114 1.349 . S
C3115 C3131 1.349 . S
C3116 C3114 1.327 . S
C3116 C3135 1.429 . S
C3116 H3140 0.950 . S
C3117 C3134 1.574 . S
C3117 C3136 1.368 . S
C3117 H3141 0.949 . S
H3118 C3122 0.949 . S
C3119 C3120 1.349 . S
C3119 C3121 1.327 . S
C3119 H3142 0.950 . S
C3120 C3119 1.349 . S
C3120 C3132 1.349 . S
C3121 C3119 1.327 . S
C3121 C3137 1.429 . S
C3121 H3143 0.950 . S
C3122 H3118 0.949 . S
C3122 C3130 1.574 . S
C3122 C3138 1.368 . S
H3123 C3131 0.950 . S
H3124 C3129 0.950 . S
H3125 C3130 0.949 . S
H3126 C3132 0.950 . S
H3127 C3133 0.950 . S
H3128 C3134 0.949 . S
C3129 H3124 0.950 . S
C3129 C3131 1.327 . S
C3129 C3135 1.429 . S
C3130 C3122 1.574 . S
C3130 H3125 0.949 . S
C3130 C3136 1.368 . S
C3131 C3115 1.349 . S
C3131 H3123 0.950 . S
C3131 C3129 1.327 . S
C3132 C3120 1.349 . S
C3132 H3126 0.950 . S
C3132 C3133 1.327 . S
C3133 H3127 0.950 . S
C3133 C3132 1.327 . S
C3133 C3137 1.429 . S
C3134 C3117 1.574 . S
C3134 H3128 0.949 . S
C3134 C3138 1.368 . S
C3135 C3116 1.429 . S
C3135 C3129 1.429 . S
C3135 C3136 1.523 . S
C3136 C3117 1.368 . S
C3136 C3130 1.368 . S
C3136 C3135 1.523 . S
C3137 C3121 1.429 . S
C3137 C3133 1.429 . S
C3137 C3138 1.523 . S
C3138 C3122 1.368 . S
C3138 C3134 1.368 . S
C3138 C3137 1.523 . S
H3139 C3114 0.950 . S
H3140 C3116 0.950 . S
H3141 C3117 0.949 . S
H3142 C3119 0.950 . S
H3143 C3121 0.950 . S
C3144 C3145 1.349 . S
C3144 C3146 1.327 . S
C3144 H3169 0.950 . S
C3145 C3144 1.349 . S
C3145 C3161 1.349 . S
C3146 C3144 1.327 . S
C3146 C3165 1.429 . S
C3146 H3170 0.950 . S
C3147 C3164 1.574 . S
C3147 C3166 1.368 . S
C3147 H3171 0.949 . S
H3148 C3152 0.949 . S
C3149 C3150 1.349 . S
C3149 C3151 1.327 . S
C3149 H3172 0.950 . S
C3150 C3149 1.349 . S
C3150 C3162 1.349 . S
C3151 C3149 1.327 . S
C3151 C3167 1.429 . S
C3151 H3173 0.950 . S
C3152 H3148 0.949 . S
C3152 C3160 1.574 . S
C3152 C3168 1.368 . S
H3153 C3161 0.950 . S
H3154 C3159 0.950 . S
H3155 C3160 0.949 . S
H3156 C3162 0.950 . S
H3157 C3163 0.950 . S
H3158 C3164 0.949 . S
C3159 H3154 0.950 . S
C3159 C3161 1.327 . S
C3159 C3165 1.429 . S
C3160 C3152 1.574 . S
C3160 H3155 0.949 . S
C3160 C3166 1.368 . S
C3161 C3145 1.349 . S
C3161 H3153 0.950 . S
C3161 C3159 1.327 . S
C3162 C3150 1.349 . S
C3162 H3156 0.950 . S
C3162 C3163 1.327 . S
C3163 H3157 0.950 . S
C3163 C3162 1.327 . S
C3163 C3167 1.429 . S
C3164 C3147 1.574 . S
C3164 H3158 0.949 . S
C3164 C3168 1.368 . S
C3165 C3146 1.429 . S
C3165 C3159 1.429 . S
C3165 C3166 1.523 . S
C3166 C3147 1.368 . S
C3166 C3160 1.368 . S
C3166 C3165 1.523 . S
C3167 C3151 1.429 . S
C3167 C3163 1.429 . S
C3167 C3168 1.523 . S
C3168 C3152 1.368 . S
C3168 C3164 1.368 . S
C3168 C3167 1.523 . S
H3169 C3144 0.950 . S
H3170 C3146 0.950 . S
H3171 C3147 0.949 . S
H3172 C3149 0.950 . S
H3173 C3151 0.950 . S
C3174 C3175 1.349 . S
C3174 C3176 1.327 . S
C3174 H3199 0.950 . S
C3175 C3174 1.349 . S
C3175 C3191 1.349 . S
C3176 C3174 1.327 . S
C3176 C3195 1.429 . S
C3176 H3200 0.950 . S
C3177 C3194 1.574 . S
C3177 C3196 1.368 . S
C3177 H3201 0.949 . S
H3178 C3182 0.949 . S
C3179 C3180 1.349 . S
C3179 C3181 1.327 . S
C3179 H3202 0.950 . S
C3180 C3179 1.349 . S
C3180 C3192 1.349 . S
C3181 C3179 1.327 . S
C3181 C3197 1.429 . S
C3181 H3203 0.950 . S
C3182 H3178 0.949 . S
C3182 C3190 1.574 . S
C3182 C3198 1.368 . S
H3183 C3191 0.950 . S
H3184 C3189 0.950 . S
H3185 C3190 0.949 . S
H3186 C3192 0.950 . S
H3187 C3193 0.950 . S
H3188 C3194 0.949 . S
C3189 H3184 0.950 . S
C3189 C3191 1.327 . S
C3189 C3195 1.429 . S
C3190 C3182 1.574 . S
C3190 H3185 0.949 . S
C3190 C3196 1.368 . S
C3191 C3175 1.349 . S
C3191 H3183 0.950 . S
C3191 C3189 1.327 . S
C3192 C3180 1.349 . S
C3192 H3186 0.950 . S
C3192 C3193 1.327 . S
C3193 H3187 0.950 . S
C3193 C3192 1.327 . S
C3193 C3197 1.429 . S
C3194 C3177 1.574 . S
C3194 H3188 0.949 . S
C3194 C3198 1.368 . S
C3195 C3176 1.429 . S
C3195 C3189 1.429 . S
C3195 C3196 1.523 . S
C3196 C3177 1.368 . S
C3196 C3190 1.368 . S
C3196 C3195 1.523 . S
C3197 C3181 1.429 . S
C3197 C3193 1.429 . S
C3197 C3198 1.523 . S
C3198 C3182 1.368 . S
C3198 C3194 1.368 . S
C3198 C3197 1.523 . S
H3199 C3174 0.950 . S
H3200 C3176 0.950 . S
H3201 C3177 0.949 . S
H3202 C3179 0.950 . S
H3203 C3181 0.950 . S
C3204 C3205 1.349 . S
C3204 C3206 1.327 . S
C3204 H3229 0.950 . S
C3205 C3204 1.349 . S
C3205 C3221 1.349 . S
C3206 C3204 1.327 . S
C3206 C3225 1.429 . S
C3206 H3230 0.950 . S
C3207 C3224 1.574 . S
C3207 C3226 1.368 . S
C3207 H3231 0.949 . S
H3208 C3212 0.949 . S
C3209 C3210 1.349 . S
C3209 C3211 1.327 . S
C3209 H3232 0.950 . S
C3210 C3209 1.349 . S
C3210 C3222 1.349 . S
C3211 C3209 1.327 . S
C3211 C3227 1.429 . S
C3211 H3233 0.950 . S
C3212 H3208 0.949 . S
C3212 C3220 1.574 . S
C3212 C3228 1.368 . S
H3213 C3221 0.950 . S
H3214 C3219 0.950 . S
H3215 C3220 0.949 . S
H3216 C3222 0.950 . S
H3217 C3223 0.950 . S
H3218 C3224 0.949 . S
C3219 H3214 0.950 . S
C3219 C3221 1.327 . S
C3219 C3225 1.429 . S
C3220 C3212 1.574 . S
C3220 H3215 0.949 . S
C3220 C3226 1.368 . S
C3221 C3205 1.349 . S
C3221 H3213 0.950 . S
C3221 C3219 1.327 . S
C3222 C3210 1.349 . S
C3222 H3216 0.950 . S
C3222 C3223 1.327 . S
C3223 H3217 0.950 . S
C3223 C3222 1.327 . S
C3223 C3227 1.429 . S
C3224 C3207 1.574 . S
C3224 H3218 0.949 . S
C3224 C3228 1.368 . S
C3225 C3206 1.429 . S
C3225 C3219 1.429 . S
C3225 C3226 1.523 . S
C3226 C3207 1.368 . S
C3226 C3220 1.368 . S
C3226 C3225 1.523 . S
C3227 C3211 1.429 . S
C3227 C3223 1.429 . S
C3227 C3228 1.523 . S
C3228 C3212 1.368 . S
C3228 C3224 1.368 . S
C3228 C3227 1.523 . S
H3229 C3204 0.950 . S
H3230 C3206 0.950 . S
H3231 C3207 0.949 . S
H3232 C3209 0.950 . S
H3233 C3211 0.950 . S
C3234 C3235 1.349 . S
C3234 C3236 1.327 . S
C3234 H3259 0.950 . S
C3235 C3234 1.349 . S
C3235 C3251 1.349 . S
C3236 C3234 1.327 . S
C3236 C3255 1.429 . S
C3236 H3260 0.950 . S
C3237 C3254 1.574 . S
C3237 C3256 1.368 . S
C3237 H3261 0.949 . S
H3238 C3242 0.949 . S
C3239 C3240 1.349 . S
C3239 C3241 1.327 . S
C3239 H3262 0.950 . S
C3240 C3239 1.349 . S
C3240 C3252 1.349 . S
C3241 C3239 1.327 . S
C3241 C3257 1.429 . S
C3241 H3263 0.950 . S
C3242 H3238 0.949 . S
C3242 C3250 1.574 . S
C3242 C3258 1.368 . S
H3243 C3251 0.950 . S
H3244 C3249 0.950 . S
H3245 C3250 0.949 . S
H3246 C3252 0.950 . S
H3247 C3253 0.950 . S
H3248 C3254 0.949 . S
C3249 H3244 0.950 . S
C3249 C3251 1.327 . S
C3249 C3255 1.429 . S
C3250 C3242 1.574 . S
C3250 H3245 0.949 . S
C3250 C3256 1.368 . S
C3251 C3235 1.349 . S
C3251 H3243 0.950 . S
C3251 C3249 1.327 . S
C3252 C3240 1.349 . S
C3252 H3246 0.950 . S
C3252 C3253 1.327 . S
C3253 H3247 0.950 . S
C3253 C3252 1.327 . S
C3253 C3257 1.429 . S
C3254 C3237 1.574 . S
C3254 H3248 0.949 . S
C3254 C3258 1.368 . S
C3255 C3236 1.429 . S
C3255 C3249 1.429 . S
C3255 C3256 1.523 . S
C3256 C3237 1.368 . S
C3256 C3250 1.368 . S
C3256 C3255 1.523 . S
C3257 C3241 1.429 . S
C3257 C3253 1.429 . S
C3257 C3258 1.523 . S
C3258 C3242 1.368 . S
C3258 C3254 1.368 . S
C3258 C3257 1.523 . S
H3259 C3234 0.950 . S
H3260 C3236 0.950 . S
H3261 C3237 0.949 . S
H3262 C3239 0.950 . S
H3263 C3241 0.950 . S
C3264 C3265 1.349 . S
C3264 C3266 1.327 . S
C3264 H3289 0.950 . S
C3265 C3264 1.349 . S
C3265 C3281 1.349 . S
C3266 C3264 1.327 . S
C3266 C3285 1.429 . S
C3266 H3290 0.950 . S
C3267 C3284 1.574 . S
C3267 C3286 1.368 . S
C3267 H3291 0.949 . S
H3268 C3272 0.949 . S
C3269 C3270 1.349 . S
C3269 C3271 1.327 . S
C3269 H3292 0.950 . S
C3270 C3269 1.349 . S
C3270 C3282 1.349 . S
C3271 C3269 1.327 . S
C3271 C3287 1.429 . S
C3271 H3293 0.950 . S
C3272 H3268 0.949 . S
C3272 C3280 1.574 . S
C3272 C3288 1.368 . S
H3273 C3281 0.950 . S
H3274 C3279 0.950 . S
H3275 C3280 0.949 . S
H3276 C3282 0.950 . S
H3277 C3283 0.950 . S
H3278 C3284 0.949 . S
C3279 H3274 0.950 . S
C3279 C3281 1.327 . S
C3279 C3285 1.429 . S
C3280 C3272 1.574 . S
C3280 H3275 0.949 . S
C3280 C3286 1.368 . S
C3281 C3265 1.349 . S
C3281 H3273 0.950 . S
C3281 C3279 1.327 . S
C3282 C3270 1.349 . S
C3282 H3276 0.950 . S
C3282 C3283 1.327 . S
C3283 H3277 0.950 . S
C3283 C3282 1.327 . S
C3283 C3287 1.429 . S
C3284 C3267 1.574 . S
C3284 H3278 0.949 . S
C3284 C3288 1.368 . S
C3285 C3266 1.429 . S
C3285 C3279 1.429 . S
C3285 C3286 1.523 . S
C3286 C3267 1.368 . S
C3286 C3280 1.368 . S
C3286 C3285 1.523 . S
C3287 C3271 1.429 . S
C3287 C3283 1.429 . S
C3287 C3288 1.523 . S
C3288 C3272 1.368 . S
C3288 C3284 1.368 . S
C3288 C3287 1.523 . S
H3289 C3264 0.950 . S
H3290 C3266 0.950 . S
H3291 C3267 0.949 . S
H3292 C3269 0.950 . S
H3293 C3271 0.950 . S
C3294 C3295 1.349 . S
C3294 C3296 1.327 . S
C3294 H3319 0.950 . S
C3295 C3294 1.349 . S
C3295 C3311 1.349 . S
C3296 C3294 1.327 . S
C3296 C3315 1.429 . S
C3296 H3320 0.950 . S
C3297 C3314 1.574 . S
C3297 C3316 1.368 . S
C3297 H3321 0.949 . S
H3298 C3302 0.949 . S
C3299 C3300 1.349 . S
C3299 C3301 1.327 . S
C3299 H3322 0.950 . S
C3300 C3299 1.349 . S
C3300 C3312 1.349 . S
C3301 C3299 1.327 . S
C3301 C3317 1.429 . S
C3301 H3323 0.950 . S
C3302 H3298 0.949 . S
C3302 C3310 1.574 . S
C3302 C3318 1.368 . S
H3303 C3311 0.950 . S
H3304 C3309 0.950 . S
H3305 C3310 0.949 . S
H3306 C3312 0.950 . S
H3307 C3313 0.950 . S
H3308 C3314 0.949 . S
C3309 H3304 0.950 . S
C3309 C3311 1.327 . S
C3309 C3315 1.429 . S
C3310 C3302 1.574 . S
C3310 H3305 0.949 . S
C3310 C3316 1.368 . S
C3311 C3295 1.349 . S
C3311 H3303 0.950 . S
C3311 C3309 1.327 . S
C3312 C3300 1.349 . S
C3312 H3306 0.950 . S
C3312 C3313 1.327 . S
C3313 H3307 0.950 . S
C3313 C3312 1.327 . S
C3313 C3317 1.429 . S
C3314 C3297 1.574 . S
C3314 H3308 0.949 . S
C3314 C3318 1.368 . S
C3315 C3296 1.429 . S
C3315 C3309 1.429 . S
C3315 C3316 1.523 . S
C3316 C3297 1.368 . S
C3316 C3310 1.368 . S
C3316 C3315 1.523 . S
C3317 C3301 1.429 . S
C3317 C3313 1.429 . S
C3317 C3318 1.523 . S
C3318 C3302 1.368 . S
C3318 C3314 1.368 . S
C3318 C3317 1.523 . S
H3319 C3294 0.950 . S
H3320 C3296 0.950 . S
H3321 C3297 0.949 . S
H3322 C3299 0.950 . S
H3323 C3301 0.950 . S
C3324 C3325 1.349 . S
C3324 C3326 1.327 . S
C3324 H3349 0.950 . S
C3325 C3324 1.349 . S
C3325 C3341 1.349 . S
C3326 C3324 1.327 . S
C3326 C3345 1.429 . S
C3326 H3350 0.950 . S
C3327 C3344 1.574 . S
C3327 C3346 1.368 . S
C3327 H3351 0.949 . S
H3328 C3332 0.949 . S
C3329 C3330 1.349 . S
C3329 C3331 1.327 . S
C3329 H3352 0.950 . S
C3330 C3329 1.349 . S
C3330 C3342 1.349 . S
C3331 C3329 1.327 . S
C3331 C3347 1.429 . S
C3331 H3353 0.950 . S
C3332 H3328 0.949 . S
C3332 C3340 1.574 . S
C3332 C3348 1.368 . S
H3333 C3341 0.950 1_556 S
H3334 C3339 0.950 . S
H3335 C3340 0.949 . S
H3336 C3342 0.950 . S
H3337 C3343 0.950 . S
H3338 C3344 0.949 . S
C3339 H3334 0.950 . S
C3339 C3341 1.327 . S
C3339 C3345 1.429 . S
C3340 C3332 1.574 . S
C3340 H3335 0.949 . S
C3340 C3346 1.368 . S
C3341 C3325 1.349 . S
C3341 H3333 0.950 1_554 S
C3341 C3339 1.327 . S
C3342 C3330 1.349 . S
C3342 H3336 0.950 . S
C3342 C3343 1.327 . S
C3343 H3337 0.950 . S
C3343 C3342 1.327 . S
C3343 C3347 1.429 . S
C3344 C3327 1.574 . S
C3344 H3338 0.949 . S
C3344 C3348 1.368 . S
C3345 C3326 1.429 . S
C3345 C3339 1.429 . S
C3345 C3346 1.523 . S
C3346 C3327 1.368 . S
C3346 C3340 1.368 . S
C3346 C3345 1.523 . S
C3347 C3331 1.429 . S
C3347 C3343 1.429 . S
C3347 C3348 1.523 . S
C3348 C3332 1.368 . S
C3348 C3344 1.368 . S
C3348 C3347 1.523 . S
H3349 C3324 0.950 . S
H3350 C3326 0.950 . S
H3351 C3327 0.949 . S
H3352 C3329 0.950 . S
H3353 C3331 0.950 . S
C3354 C3355 1.349 . S
C3354 C3356 1.327 . S
C3354 H3379 0.933 1_554 S
C3355 C3354 1.349 . S
C3355 C3371 1.349 . S
C3356 C3354 1.327 . S
C3356 C3375 1.429 . S
C3356 H3380 0.950 . S
C3357 C3374 1.574 . S
C3357 C3376 1.368 . S
C3357 H3381 0.949 . S
H3358 C3362 0.949 . S
C3359 C3360 1.349 . S
C3359 C3361 1.327 . S
C3359 H3382 0.950 . S
C3360 C3359 1.349 . S
C3360 C3372 1.349 . S
C3361 C3359 1.327 . S
C3361 C3377 1.429 . S
C3361 H3383 0.950 . S
C3362 H3358 0.949 . S
C3362 C3370 1.574 . S
C3362 C3378 1.368 . S
H3363 C3371 0.950 . S
H3364 C3369 0.950 . S
H3365 C3370 0.949 . S
H3366 C3372 0.950 . S
H3367 C3373 0.950 . S
H3368 C3374 0.949 . S
C3369 H3364 0.950 . S
C3369 C3371 1.327 . S
C3369 C3375 1.429 . S
C3370 C3362 1.574 . S
C3370 H3365 0.949 . S
C3370 C3376 1.368 . S
C3371 C3355 1.349 . S
C3371 H3363 0.950 . S
C3371 C3369 1.327 . S
C3372 C3360 1.349 . S
C3372 H3366 0.950 . S
C3372 C3373 1.327 . S
C3373 H3367 0.950 . S
C3373 C3372 1.327 . S
C3373 C3377 1.429 . S
C3374 C3357 1.574 . S
C3374 H3368 0.949 . S
C3374 C3378 1.368 . S
C3375 C3356 1.429 . S
C3375 C3369 1.429 . S
C3375 C3376 1.523 . S
C3376 C3357 1.368 . S
C3376 C3370 1.368 . S
C3376 C3375 1.523 . S
C3377 C3361 1.429 . S
C3377 C3373 1.429 . S
C3377 C3378 1.523 . S
C3378 C3362 1.368 . S
C3378 C3374 1.368 . S
C3378 C3377 1.523 . S
H3379 C3354 0.933 1_556 S
H3380 C3356 0.950 . S
H3381 C3357 0.949 . S
H3382 C3359 0.950 . S
H3383 C3361 0.950 . S
C3384 C3385 1.349 . S
C3384 C3386 1.327 . S
C3384 H3409 0.950 . S
C3385 C3384 1.349 . S
C3385 C3401 1.349 . S
C3386 C3384 1.327 . S
C3386 C3405 1.429 . S
C3386 H3410 0.950 . S
C3387 C3404 1.574 . S
C3387 C3406 1.368 . S
C3387 H3411 0.949 . S
H3388 C3392 0.949 . S
C3389 C3390 1.349 . S
C3389 C3391 1.327 . S
C3389 H3412 0.950 . S
C3390 C3389 1.349 . S
C3390 C3402 1.349 . S
C3391 C3389 1.327 . S
C3391 C3407 1.429 . S
C3391 H3413 0.950 . S
C3392 H3388 0.949 . S
C3392 C3400 1.574 . S
C3392 C3408 1.368 . S
H3393 C3401 0.950 . S
H3394 C3399 0.950 . S
H3395 C3400 0.949 . S
H3396 C3402 0.950 . S
H3397 C3403 0.950 . S
H3398 C3404 0.949 . S
C3399 H3394 0.950 . S
C3399 C3401 1.327 . S
C3399 C3405 1.429 . S
C3400 C3392 1.574 . S
C3400 H3395 0.949 . S
C3400 C3406 1.368 . S
C3401 C3385 1.349 . S
C3401 H3393 0.950 . S
C3401 C3399 1.327 . S
C3402 C3390 1.349 . S
C3402 H3396 0.950 . S
C3402 C3403 1.327 . S
C3403 H3397 0.950 . S
C3403 C3402 1.327 . S
C3403 C3407 1.429 . S
C3404 C3387 1.574 . S
C3404 H3398 0.949 . S
C3404 C3408 1.368 . S
C3405 C3386 1.429 . S
C3405 C3399 1.429 . S
C3405 C3406 1.523 . S
C3406 C3387 1.368 . S
C3406 C3400 1.368 . S
C3406 C3405 1.523 . S
C3407 C3391 1.429 . S
C3407 C3403 1.429 . S
C3407 C3408 1.523 . S
C3408 C3392 1.368 . S
C3408 C3404 1.368 . S
C3408 C3407 1.523 . S
H3409 C3384 0.950 . S
H3410 C3386 0.950 . S
H3411 C3387 0.949 . S
H3412 C3389 0.950 . S
H3413 C3391 0.950 . S
C3414 C3415 1.349 . S
C3414 C3416 1.327 . S
C3414 H3439 0.950 . S
C3415 C3414 1.349 . S
C3415 C3431 1.349 . S
C3416 C3414 1.327 . S
C3416 C3435 1.429 . S
C3416 H3440 0.950 . S
C3417 C3434 1.574 . S
C3417 C3436 1.368 . S
C3417 H3441 0.949 . S
H3418 C3422 0.949 . S
C3419 C3420 1.349 . S
C3419 C3421 1.327 . S
C3419 H3442 0.950 . S
C3420 C3419 1.349 . S
C3420 C3432 1.349 . S
C3421 C3419 1.327 . S
C3421 C3437 1.429 . S
C3421 H3443 0.950 . S
C3422 H3418 0.949 . S
C3422 C3430 1.574 . S
C3422 C3438 1.368 . S
H3423 C3431 0.950 . S
H3424 C3429 0.950 . S
H3425 C3430 0.949 . S
H3426 C3432 0.950 . S
H3427 C3433 0.950 . S
H3428 C3434 0.949 . S
C3429 H3424 0.950 . S
C3429 C3431 1.327 . S
C3429 C3435 1.429 . S
C3430 C3422 1.574 . S
C3430 H3425 0.949 . S
C3430 C3436 1.368 . S
C3431 C3415 1.349 . S
C3431 H3423 0.950 . S
C3431 C3429 1.327 . S
C3432 C3420 1.349 . S
C3432 H3426 0.950 . S
C3432 C3433 1.327 . S
C3433 H3427 0.950 . S
C3433 C3432 1.327 . S
C3433 C3437 1.429 . S
C3434 C3417 1.574 . S
C3434 H3428 0.949 . S
C3434 C3438 1.368 . S
C3435 C3416 1.429 . S
C3435 C3429 1.429 . S
C3435 C3436 1.523 . S
C3436 C3417 1.368 . S
C3436 C3430 1.368 . S
C3436 C3435 1.523 . S
C3437 C3421 1.429 . S
C3437 C3433 1.429 . S
C3437 C3438 1.523 . S
C3438 C3422 1.368 . S
C3438 C3434 1.368 . S
C3438 C3437 1.523 . S
H3439 C3414 0.950 . S
H3440 C3416 0.950 . S
H3441 C3417 0.949 . S
H3442 C3419 0.950 . S
H3443 C3421 0.950 . S
C3444 C3445 1.349 . S
C3444 C3446 1.327 . S
C3444 H3469 0.950 . S
C3445 C3444 1.349 . S
C3445 C3461 1.349 . S
C3446 C3444 1.327 . S
C3446 C3465 1.429 . S
C3446 H3470 0.950 . S
C3447 C3464 1.574 . S
C3447 C3466 1.368 . S
C3447 H3471 0.949 . S
H3448 C3452 0.949 . S
C3449 C3450 1.349 . S
C3449 C3451 1.327 . S
C3449 H3472 0.950 . S
C3450 C3449 1.349 . S
C3450 C3462 1.349 . S
C3451 C3449 1.327 . S
C3451 C3467 1.429 . S
C3451 H3473 0.950 . S
C3452 H3448 0.949 . S
C3452 C3460 1.574 . S
C3452 C3468 1.368 . S
H3453 C3461 0.950 . S
H3454 C3459 0.950 . S
H3455 C3460 0.949 . S
H3456 C3462 0.950 . S
H3457 C3463 0.950 . S
H3458 C3464 0.949 . S
C3459 H3454 0.950 . S
C3459 C3461 1.327 . S
C3459 C3465 1.429 . S
C3460 C3452 1.574 . S
C3460 H3455 0.949 . S
C3460 C3466 1.368 . S
C3461 C3445 1.349 . S
C3461 H3453 0.950 . S
C3461 C3459 1.327 . S
C3462 C3450 1.349 . S
C3462 H3456 0.950 . S
C3462 C3463 1.327 . S
C3463 H3457 0.950 . S
C3463 C3462 1.327 . S
C3463 C3467 1.429 . S
C3464 C3447 1.574 . S
C3464 H3458 0.949 . S
C3464 C3468 1.368 . S
C3465 C3446 1.429 . S
C3465 C3459 1.429 . S
C3465 C3466 1.523 . S
C3466 C3447 1.368 . S
C3466 C3460 1.368 . S
C3466 C3465 1.523 . S
C3467 C3451 1.429 . S
C3467 C3463 1.429 . S
C3467 C3468 1.523 . S
C3468 C3452 1.368 . S
C3468 C3464 1.368 . S
C3468 C3467 1.523 . S
H3469 C3444 0.950 . S
H3470 C3446 0.950 . S
H3471 C3447 0.949 . S
H3472 C3449 0.950 . S
H3473 C3451 0.950 . S
C3474 C3475 1.349 . S
C3474 C3476 1.327 . S
C3474 H3499 0.950 . S
C3475 C3474 1.349 . S
C3475 C3491 1.349 . S
C3476 C3474 1.327 . S
C3476 C3495 1.429 . S
C3476 H3500 0.950 . S
C3477 C3494 1.574 . S
C3477 C3496 1.368 . S
C3477 H3501 0.949 . S
H3478 C3482 0.949 . S
C3479 C3480 1.349 . S
C3479 C3481 1.327 . S
C3479 H3502 0.950 . S
C3480 C3479 1.349 . S
C3480 C3492 1.349 1_556 S
C3481 C3479 1.327 . S
C3481 C3497 1.429 1_556 S
C3481 H3503 0.950 . S
C3482 H3478 0.949 . S
C3482 C3490 1.574 . S
C3482 C3498 1.368 . S
H3483 C3491 0.950 . S
H3484 C3489 0.950 . S
H3485 C3490 0.949 . S
H3486 C3492 0.950 . S
H3487 C3493 0.950 . S
H3488 C3494 0.949 . S
C3489 H3484 0.950 . S
C3489 C3491 1.327 . S
C3489 C3495 1.429 . S
C3490 C3482 1.574 . S
C3490 H3485 0.949 . S
C3490 C3496 1.368 . S
C3491 C3475 1.349 . S
C3491 H3483 0.950 . S
C3491 C3489 1.327 . S
C3492 C3480 1.349 1_554 S
C3492 H3486 0.950 . S
C3492 C3493 1.327 . S
C3493 H3487 0.950 . S
C3493 C3492 1.327 . S
C3493 C3497 1.429 . S
C3494 C3477 1.574 . S
C3494 H3488 0.949 . S
C3494 C3498 1.368 . S
C3495 C3476 1.429 . S
C3495 C3489 1.429 . S
C3495 C3496 1.523 . S
C3496 C3477 1.368 . S
C3496 C3490 1.368 . S
C3496 C3495 1.523 . S
C3497 C3481 1.429 1_554 S
C3497 C3493 1.429 . S
C3497 C3498 1.523 . S
C3498 C3482 1.368 . S
C3498 C3494 1.368 . S
C3498 C3497 1.523 . S
H3499 C3474 0.950 . S
H3500 C3476 0.950 . S
H3501 C3477 0.949 . S
H3502 C3479 0.950 . S
H3503 C3481 0.950 . S
C3504 C3505 1.349 . S
C3504 C3506 1.327 . S
C3504 H3529 0.950 . S
C3505 C3504 1.349 . S
C3505 C3521 1.349 . S
C3506 C3504 1.327 . S
C3506 C3525 1.429 . S
C3506 H3530 0.950 . S
C3507 C3524 1.574 . S
C3507 C3526 1.368 . S
C3507 H3531 0.949 . S
H3508 C3512 0.949 . S
C3509 C3510 1.349 1_554 S
C3509 C3511 1.327 . S
C3509 H3532 0.950 . S
C3510 C3509 1.349 1_556 S
C3510 C3522 1.349 . S
C3511 C3509 1.327 . S
C3511 C3527 1.429 . S
C3511 H3533 0.950 . S
C3512 H3508 0.949 . S
C3512 C3520 1.574 . S
C3512 C3528 1.368 . S
H3513 C3521 0.950 . S
H3514 C3519 0.950 . S
H3515 C3520 0.949 . S
H3516 C3522 0.950 . S
H3517 C3523 0.950 . S
H3518 C3524 0.949 . S
C3519 H3514 0.950 . S
C3519 C3521 1.327 . S
C3519 C3525 1.429 . S
C3520 C3512 1.574 . S
C3520 H3515 0.949 . S
C3520 C3526 1.368 . S
C3521 C3505 1.349 . S
C3521 H3513 0.950 . S
C3521 C3519 1.327 . S
C3522 C3510 1.349 . S
C3522 H3516 0.950 . S
C3522 C3523 1.327 . S
C3523 H3517 0.950 . S
C3523 C3522 1.327 . S
C3523 C3527 1.429 1_556 S
C3524 C3507 1.574 . S
C3524 H3518 0.949 . S
C3524 C3528 1.368 . S
C3525 C3506 1.429 . S
C3525 C3519 1.429 . S
C3525 C3526 1.523 . S
C3526 C3507 1.368 . S
C3526 C3520 1.368 . S
C3526 C3525 1.523 . S
C3527 C3511 1.429 . S
C3527 C3523 1.429 1_554 S
C3527 C3528 1.523 . S
C3528 C3512 1.368 . S
C3528 C3524 1.368 . S
C3528 C3527 1.523 . S
H3529 C3504 0.950 . S
H3530 C3506 0.950 . S
H3531 C3507 0.949 . S
H3532 C3509 0.950 . S
H3533 C3511 0.950 . S
C3534 C3535 1.349 . S
C3534 C3536 1.327 . S
C3534 H3559 0.950 . S
C3535 C3534 1.349 . S
C3535 C3551 1.349 . S
C3536 C3534 1.327 . S
C3536 C3555 1.429 . S
C3536 H3560 0.950 . S
C3537 C3554 1.574 . S
C3537 C3556 1.368 . S
C3537 H3561 0.949 . S
H3538 C3542 0.949 . S
C3539 C3540 1.349 1_554 S
C3539 C3541 1.327 . S
C3539 H3562 0.956 . S
C3540 C3539 1.349 1_556 S
C3540 C3552 1.347 1_556 S
C3541 C3539 1.327 . S
C3541 C3557 1.429 . S
C3541 H3563 0.950 . S
C3542 H3538 0.949 . S
C3542 C3550 1.574 . S
C3542 C3558 1.368 . S
H3543 C3551 0.950 . S
H3544 C3549 0.950 . S
H3545 C3550 0.949 . S
H3546 C3552 0.946 1_556 S
H3547 C3553 0.950 . S
H3548 C3554 0.949 . S
C3549 H3544 0.950 . S
C3549 C3551 1.327 . S
C3549 C3555 1.429 . S
C3550 C3542 1.574 . S
C3550 H3545 0.949 . S
C3550 C3556 1.368 . S
C3551 C3535 1.349 . S
C3551 H3543 0.950 . S
C3551 C3549 1.327 . S
C3552 C3540 1.347 1_554 S
C3552 H3546 0.946 1_554 S
C3552 C3553 1.332 . S
C3553 H3547 0.950 . S
C3553 C3552 1.332 . S
C3553 C3557 1.429 . S
C3554 C3537 1.574 . S
C3554 H3548 0.949 . S
C3554 C3558 1.368 . S
C3555 C3536 1.429 . S
C3555 C3549 1.429 . S
C3555 C3556 1.523 . S
C3556 C3537 1.368 . S
C3556 C3550 1.368 . S
C3556 C3555 1.523 . S
C3557 C3541 1.429 . S
C3557 C3553 1.429 . S
C3557 C3558 1.523 . S
C3558 C3542 1.368 . S
C3558 C3554 1.368 . S
C3558 C3557 1.523 . S
H3559 C3534 0.950 . S
H3560 C3536 0.950 . S
H3561 C3537 0.949 . S
H3562 C3539 0.956 . S
H3563 C3541 0.950 . S
C3564 C3565 1.349 . S
C3564 C3566 1.327 . S
C3564 H3589 0.950 . S
C3565 C3564 1.349 . S
C3565 C3581 1.349 . S
C3566 C3564 1.327 . S
C3566 C3585 1.429 . S
C3566 H3590 0.950 . S
C3567 C3584 1.574 . S
C3567 C3586 1.368 . S
C3567 H3591 0.949 . S
H3568 C3572 0.949 . S
C3569 C3570 1.349 . S
C3569 C3571 1.327 . S
C3569 H3592 0.950 . S
C3570 C3569 1.349 . S
C3570 C3582 1.349 . S
C3571 C3569 1.327 . S
C3571 C3587 1.429 . S
C3571 H3593 0.950 . S
C3572 H3568 0.949 . S
C3572 C3580 1.574 . S
C3572 C3588 1.368 . S
H3573 C3581 0.950 . S
H3574 C3579 0.950 . S
H3575 C3580 0.949 . S
H3576 C3582 0.950 . S
H3577 C3583 0.950 . S
H3578 C3584 0.949 . S
C3579 H3574 0.950 . S
C3579 C3581 1.327 . S
C3579 C3585 1.429 . S
C3580 C3572 1.574 . S
C3580 H3575 0.949 . S
C3580 C3586 1.368 . S
C3581 C3565 1.349 . S
C3581 H3573 0.950 . S
C3581 C3579 1.327 . S
C3582 C3570 1.349 . S
C3582 H3576 0.950 . S
C3582 C3583 1.327 . S
C3583 H3577 0.950 . S
C3583 C3582 1.327 . S
C3583 C3587 1.429 . S
C3584 C3567 1.574 . S
C3584 H3578 0.949 . S
C3584 C3588 1.368 . S
C3585 C3566 1.429 . S
C3585 C3579 1.429 . S
C3585 C3586 1.523 . S
C3586 C3567 1.368 . S
C3586 C3580 1.368 . S
C3586 C3585 1.523 . S
C3587 C3571 1.429 . S
C3587 C3583 1.429 . S
C3587 C3588 1.523 . S
C3588 C3572 1.368 . S
C3588 C3584 1.368 . S
C3588 C3587 1.523 . S
H3589 C3564 0.950 . S
H3590 C3566 0.950 . S
H3591 C3567 0.949 . S
H3592 C3569 0.950 . S
H3593 C3571 0.950 . S
C3594 C3595 1.349 . S
C3594 C3596 1.327 . S
C3594 H3619 0.950 . S
C3595 C3594 1.349 . S
C3595 C3611 1.349 . S
C3596 C3594 1.327 . S
C3596 C3615 1.429 . S
C3596 H3620 0.950 . S
C3597 C3614 1.574 . S
C3597 C3616 1.368 . S
C3597 H3621 0.949 . S
H3598 C3602 0.949 . S
C3599 C3600 1.349 . S
C3599 C3601 1.327 . S
C3599 H3622 0.950 . S
C3600 C3599 1.349 . S
C3600 C3612 1.349 . S
C3601 C3599 1.327 . S
C3601 C3617 1.429 . S
C3601 H3623 0.950 . S
C3602 H3598 0.949 . S
C3602 C3610 1.574 . S
C3602 C3618 1.368 . S
H3603 C3611 0.950 . S
H3604 C3609 0.950 . S
H3605 C3610 0.949 . S
H3606 C3612 0.950 . S
H3607 C3613 0.950 . S
H3608 C3614 0.949 . S
C3609 H3604 0.950 . S
C3609 C3611 1.327 . S
C3609 C3615 1.429 . S
C3610 C3602 1.574 . S
C3610 H3605 0.949 . S
C3610 C3616 1.368 . S
C3611 C3595 1.349 . S
C3611 H3603 0.950 . S
C3611 C3609 1.327 . S
C3612 C3600 1.349 . S
C3612 H3606 0.950 . S
C3612 C3613 1.327 . S
C3613 H3607 0.950 . S
C3613 C3612 1.327 . S
C3613 C3617 1.429 . S
C3614 C3597 1.574 . S
C3614 H3608 0.949 . S
C3614 C3618 1.368 . S
C3615 C3596 1.429 . S
C3615 C3609 1.429 . S
C3615 C3616 1.523 . S
C3616 C3597 1.368 . S
C3616 C3610 1.368 . S
C3616 C3615 1.523 . S
C3617 C3601 1.429 . S
C3617 C3613 1.429 . S
C3617 C3618 1.523 . S
C3618 C3602 1.368 . S
C3618 C3614 1.368 . S
C3618 C3617 1.523 . S
H3619 C3594 0.950 . S
H3620 C3596 0.950 . S
H3621 C3597 0.949 . S
H3622 C3599 0.950 . S
H3623 C3601 0.950 . S
C3624 C3625 1.349 . S
C3624 C3626 1.327 . S
C3624 H3649 0.950 . S
C3625 C3624 1.349 . S
C3625 C3641 1.349 . S
C3626 C3624 1.327 . S
C3626 C3645 1.429 . S
C3626 H3650 0.950 . S
C3627 C3644 1.574 . S
C3627 C3646 1.368 . S
C3627 H3651 0.949 . S
H3628 C3632 0.949 . S
C3629 C3630 1.349 . S
C3629 C3631 1.327 . S
C3629 H3652 0.950 . S
C3630 C3629 1.349 . S
C3630 C3642 1.349 . S
C3631 C3629 1.327 . S
C3631 C3647 1.429 . S
C3631 H3653 0.950 . S
C3632 H3628 0.949 . S
C3632 C3640 1.574 . S
C3632 C3648 1.368 . S
H3633 C3641 0.950 . S
H3634 C3639 0.950 . S
H3635 C3640 0.949 . S
H3636 C3642 0.950 . S
H3637 C3643 0.950 . S
H3638 C3644 0.949 . S
C3639 H3634 0.950 . S
C3639 C3641 1.327 . S
C3639 C3645 1.429 . S
C3640 C3632 1.574 . S
C3640 H3635 0.949 . S
C3640 C3646 1.368 . S
C3641 C3625 1.349 . S
C3641 H3633 0.950 . S
C3641 C3639 1.327 . S
C3642 C3630 1.349 . S
C3642 H3636 0.950 . S
C3642 C3643 1.327 . S
C3643 H3637 0.950 . S
C3643 C3642 1.327 . S
C3643 C3647 1.429 . S
C3644 C3627 1.574 . S
C3644 H3638 0.949 . S
C3644 C3648 1.368 . S
C3645 C3626 1.429 . S
C3645 C3639 1.429 . S
C3645 C3646 1.523 . S
C3646 C3627 1.368 . S
C3646 C3640 1.368 . S
C3646 C3645 1.523 . S
C3647 C3631 1.429 . S
C3647 C3643 1.429 . S
C3647 C3648 1.523 . S
C3648 C3632 1.368 . S
C3648 C3644 1.368 . S
C3648 C3647 1.523 . S
H3649 C3624 0.950 . S
H3650 C3626 0.950 . S
H3651 C3627 0.949 . S
H3652 C3629 0.950 . S
H3653 C3631 0.950 . S
C3654 C3655 1.349 . S
C3654 C3656 1.327 . S
C3654 H3679 0.950 . S
C3655 C3654 1.349 . S
C3655 C3671 1.349 . S
C3656 C3654 1.327 . S
C3656 C3675 1.429 . S
C3656 H3680 0.950 . S
C3657 C3674 1.574 . S
C3657 C3676 1.368 . S
C3657 H3681 0.949 . S
H3658 C3662 0.949 . S
C3659 C3660 1.349 . S
C3659 C3661 1.327 . S
C3659 H3682 0.950 . S
C3660 C3659 1.349 . S
C3660 C3672 1.349 1_554 S
C3661 C3659 1.327 . S
C3661 C3677 1.429 1_554 S
C3661 H3683 0.950 . S
C3662 H3658 0.949 . S
C3662 C3670 1.574 . S
C3662 C3678 1.368 . S
H3663 C3671 0.950 . S
H3664 C3669 0.950 . S
H3665 C3670 0.949 . S
H3666 C3672 0.950 . S
H3667 C3673 0.950 . S
H3668 C3674 0.949 . S
C3669 H3664 0.950 . S
C3669 C3671 1.327 . S
C3669 C3675 1.429 . S
C3670 C3662 1.574 . S
C3670 H3665 0.949 . S
C3670 C3676 1.368 . S
C3671 C3655 1.349 . S
C3671 H3663 0.950 . S
C3671 C3669 1.327 . S
C3672 C3660 1.349 1_556 S
C3672 H3666 0.950 . S
C3672 C3673 1.327 . S
C3673 H3667 0.950 . S
C3673 C3672 1.327 . S
C3673 C3677 1.429 . S
C3674 C3657 1.574 . S
C3674 H3668 0.949 . S
C3674 C3678 1.368 . S
C3675 C3656 1.429 . S
C3675 C3669 1.429 . S
C3675 C3676 1.523 . S
C3676 C3657 1.368 . S
C3676 C3670 1.368 . S
C3676 C3675 1.523 . S
C3677 C3661 1.429 1_556 S
C3677 C3673 1.429 . S
C3677 C3678 1.523 . S
C3678 C3662 1.368 . S
C3678 C3674 1.368 . S
C3678 C3677 1.523 . S
H3679 C3654 0.950 . S
H3680 C3656 0.950 . S
H3681 C3657 0.949 . S
H3682 C3659 0.950 . S
H3683 C3661 0.950 . S
C3684 C3685 1.349 . S
C3684 C3686 1.327 . S
C3684 H3709 0.950 . S
C3685 C3684 1.349 . S
C3685 C3701 1.349 . S
C3686 C3684 1.327 . S
C3686 C3705 1.429 . S
C3686 H3710 0.950 . S
C3687 C3704 1.574 . S
C3687 C3706 1.368 . S
C3687 H3711 0.949 . S
H3688 C3692 0.949 . S
C3689 C3690 1.350 . S
C3689 C3691 1.324 1_554 S
C3689 H3712 0.952 . S
C3690 C3689 1.350 . S
C3690 C3702 1.349 1_554 S
C3691 C3689 1.324 1_556 S
C3691 C3707 1.429 . S
C3691 H3713 0.950 . S
C3692 H3688 0.949 . S
C3692 C3700 1.574 . S
C3692 C3708 1.368 . S
H3693 C3701 0.950 . S
H3694 C3699 0.950 . S
H3695 C3700 0.949 . S
H3696 C3702 0.950 . S
H3697 C3703 0.950 . S
H3698 C3704 0.949 . S
C3699 H3694 0.950 . S
C3699 C3701 1.327 . S
C3699 C3705 1.429 . S
C3700 C3692 1.574 . S
C3700 H3695 0.949 . S
C3700 C3706 1.368 . S
C3701 C3685 1.349 . S
C3701 H3693 0.950 . S
C3701 C3699 1.327 . S
C3702 C3690 1.349 1_556 S
C3702 H3696 0.950 . S
C3702 C3703 1.327 . S
C3703 H3697 0.950 . S
C3703 C3702 1.327 . S
C3703 C3707 1.429 . S
C3704 C3687 1.574 . S
C3704 H3698 0.949 . S
C3704 C3708 1.368 . S
C3705 C3686 1.429 . S
C3705 C3699 1.429 . S
C3705 C3706 1.523 . S
C3706 C3687 1.368 . S
C3706 C3700 1.368 . S
C3706 C3705 1.523 . S
C3707 C3691 1.429 . S
C3707 C3703 1.429 . S
C3707 C3708 1.523 . S
C3708 C3692 1.368 . S
C3708 C3704 1.368 . S
C3708 C3707 1.523 . S
H3709 C3684 0.950 . S
H3710 C3686 0.950 . S
H3711 C3687 0.949 . S
H3712 C3689 0.952 . S
H3713 C3691 0.950 . S
C3714 C3715 1.349 1_556 S
C3714 C3716 1.327 . S
C3714 H3739 0.950 . S
C3715 C3714 1.349 1_554 S
C3715 C3731 1.349 . S
C3716 C3714 1.327 . S
C3716 C3735 1.429 . S
C3716 H3740 0.950 . S
C3717 C3734 1.574 . S
C3717 C3736 1.368 . S
C3717 H3741 0.949 . S
H3718 C3722 0.949 . S
C3719 C3720 1.349 . S
C3719 C3721 1.327 . S
C3719 H3742 0.950 . S
C3720 C3719 1.349 . S
C3720 C3732 1.349 . S
C3721 C3719 1.327 . S
C3721 C3737 1.429 . S
C3721 H3743 0.950 . S
C3722 H3718 0.949 . S
C3722 C3730 1.574 . S
C3722 C3738 1.368 . S
H3723 C3731 0.950 . S
H3724 C3729 0.944 1_554 S
H3725 C3730 0.949 . S
H3726 C3732 0.950 . S
H3727 C3733 0.950 . S
H3728 C3734 0.949 . S
C3729 H3724 0.944 1_556 S
C3729 C3731 1.319 1_556 S
C3729 C3735 1.442 . S
C3730 C3722 1.574 . S
C3730 H3725 0.949 . S
C3730 C3736 1.368 . S
C3731 C3715 1.349 . S
C3731 H3723 0.950 . S
C3731 C3729 1.319 1_554 S
C3732 C3720 1.349 . S
C3732 H3726 0.950 . S
C3732 C3733 1.327 . S
C3733 H3727 0.950 . S
C3733 C3732 1.327 . S
C3733 C3737 1.429 . S
C3734 C3717 1.574 . S
C3734 H3728 0.949 . S
C3734 C3738 1.368 . S
C3735 C3716 1.429 . S
C3735 C3729 1.442 . S
C3735 C3736 1.523 . S
C3736 C3717 1.368 . S
C3736 C3730 1.368 . S
C3736 C3735 1.523 . S
C3737 C3721 1.429 . S
C3737 C3733 1.429 . S
C3737 C3738 1.523 . S
C3738 C3722 1.368 . S
C3738 C3734 1.368 . S
C3738 C3737 1.523 . S
H3739 C3714 0.950 . S
H3740 C3716 0.950 . S
H3741 C3717 0.949 . S
H3742 C3719 0.950 . S
H3743 C3721 0.950 . S
C3744 C3745 1.349 . S
C3744 C3746 1.327 . S
C3744 H3769 0.950 . S
C3745 C3744 1.349 . S
C3745 C3761 1.349 . S
C3746 C3744 1.327 . S
C3746 C3765 1.429 . S
C3746 H3770 0.950 . S
C3747 C3764 1.600 . S
C3747 C3766 1.339 1_655 S
C3747 H3771 0.949 . S
H3748 C3752 0.949 . S
C3749 C3750 1.349 . S
C3749 C3751 1.327 . S
C3749 H3772 0.950 . S
C3750 C3749 1.349 . S
C3750 C3762 1.349 . S
C3751 C3749 1.327 . S
C3751 C3767 1.429 . S
C3751 H3773 0.950 . S
C3752 H3748 0.949 . S
C3752 C3760 1.601 . S
C3752 C3768 1.338 1_455 S
H3753 C3761 0.950 . S
H3754 C3759 0.950 . S
H3755 C3760 0.949 . S
H3756 C3762 0.950 . S
H3757 C3763 0.950 . S
H3758 C3764 0.949 . S
C3759 H3754 0.950 . S
C3759 C3761 1.327 . S
C3759 C3765 1.429 . S
C3760 C3752 1.601 . S
C3760 H3755 0.949 . S
C3760 C3766 1.368 . S
C3761 C3745 1.349 . S
C3761 H3753 0.950 . S
C3761 C3759 1.327 . S
C3762 C3750 1.349 . S
C3762 H3756 0.950 . S
C3762 C3763 1.327 . S
C3763 H3757 0.950 . S
C3763 C3762 1.327 . S
C3763 C3767 1.429 . S
C3764 C3747 1.600 . S
C3764 H3758 0.949 . S
C3764 C3768 1.368 . S
C3765 C3746 1.429 . S
C3765 C3759 1.429 . S
C3765 C3766 1.523 . S
C3766 C3747 1.339 1_455 S
C3766 C3760 1.368 . S
C3766 C3765 1.523 . S
C3767 C3751 1.429 . S
C3767 C3763 1.429 . S
C3767 C3768 1.523 . S
C3768 C3752 1.338 1_655 S
C3768 C3764 1.368 . S
C3768 C3767 1.523 . S
H3769 C3744 0.950 . S
H3770 C3746 0.950 . S
H3771 C3747 0.949 . S
H3772 C3749 0.950 . S
H3773 C3751 0.950 . S
C3774 C3775 1.349 . S
C3774 C3776 1.327 . S
C3774 H3799 0.950 . S
C3775 C3774 1.349 . S
C3775 C3791 1.349 . S
C3776 C3774 1.327 . S
C3776 C3795 1.429 . S
C3776 H3800 0.950 . S
C3777 C3794 1.574 . S
C3777 C3796 1.368 . S
C3777 H3801 0.949 . S
H3778 C3782 0.949 . S
C3779 C3780 1.349 . S
C3779 C3781 1.327 . S
C3779 H3802 0.950 . S
C3780 C3779 1.349 . S
C3780 C3792 1.349 . S
C3781 C3779 1.327 . S
C3781 C3797 1.429 . S
C3781 H3803 0.950 . S
C3782 H3778 0.949 . S
C3782 C3790 1.574 . S
C3782 C3798 1.368 . S
H3783 C3791 0.950 . S
H3784 C3789 0.950 . S
H3785 C3790 0.949 . S
H3786 C3792 0.950 . S
H3787 C3793 0.950 . S
H3788 C3794 0.949 . S
C3789 H3784 0.950 . S
C3789 C3791 1.327 . S
C3789 C3795 1.429 . S
C3790 C3782 1.574 . S
C3790 H3785 0.949 . S
C3790 C3796 1.368 . S
C3791 C3775 1.349 . S
C3791 H3783 0.950 . S
C3791 C3789 1.327 . S
C3792 C3780 1.349 . S
C3792 H3786 0.950 . S
C3792 C3793 1.327 . S
C3793 H3787 0.950 . S
C3793 C3792 1.327 . S
C3793 C3797 1.429 . S
C3794 C3777 1.574 . S
C3794 H3788 0.949 . S
C3794 C3798 1.368 . S
C3795 C3776 1.429 . S
C3795 C3789 1.429 . S
C3795 C3796 1.523 . S
C3796 C3777 1.368 . S
C3796 C3790 1.368 . S
C3796 C3795 1.523 . S
C3797 C3781 1.429 . S
C3797 C3793 1.429 . S
C3797 C3798 1.523 . S
C3798 C3782 1.368 . S
C3798 C3794 1.368 . S
C3798 C3797 1.523 . S
H3799 C3774 0.950 . S
H3800 C3776 0.950 . S
H3801 C3777 0.949 . S
H3802 C3779 0.950 . S
H3803 C3781 0.950 . S
C3804 C3805 1.349 . S
C3804 C3806 1.327 . S
C3804 H3829 0.950 . S
C3805 C3804 1.349 . S
C3805 C3821 1.349 . S
C3806 C3804 1.327 . S
C3806 C3825 1.429 . S
C3806 H3830 0.950 . S
C3807 C3824 1.574 1_545 S
C3807 C3826 1.368 . S
C3807 H3831 0.949 . S
H3808 C3812 0.949 . S
C3809 C3810 1.349 . S
C3809 C3811 1.327 . S
C3809 H3832 0.950 . S
C3810 C3809 1.349 . S
C3810 C3822 1.349 . S
C3811 C3809 1.327 . S
C3811 C3827 1.429 . S
C3811 H3833 0.950 . S
C3812 H3808 0.949 . S
C3812 C3820 1.574 1_565 S
C3812 C3828 1.368 . S
H3813 C3821 0.950 . S
H3814 C3819 0.950 . S
H3815 C3820 0.949 . S
H3816 C3822 0.950 . S
H3817 C3823 0.950 . S
H3818 C3824 0.949 . S
C3819 H3814 0.950 . S
C3819 C3821 1.327 . S
C3819 C3825 1.429 . S
C3820 C3812 1.574 1_545 S
C3820 H3815 0.949 . S
C3820 C3826 1.368 . S
C3821 C3805 1.349 . S
C3821 H3813 0.950 . S
C3821 C3819 1.327 . S
C3822 C3810 1.349 . S
C3822 H3816 0.950 . S
C3822 C3823 1.327 . S
C3823 H3817 0.950 . S
C3823 C3822 1.327 . S
C3823 C3827 1.429 . S
C3824 C3807 1.574 1_565 S
C3824 H3818 0.949 . S
C3824 C3828 1.368 . S
C3825 C3806 1.429 . S
C3825 C3819 1.429 . S
C3825 C3826 1.523 . S
C3826 C3807 1.368 . S
C3826 C3820 1.368 . S
C3826 C3825 1.523 . S
C3827 C3811 1.429 . S
C3827 C3823 1.429 . S
C3827 C3828 1.523 . S
C3828 C3812 1.368 . S
C3828 C3824 1.368 . S
C3828 C3827 1.523 . S
H3829 C3804 0.950 . S
H3830 C3806 0.950 . S
H3831 C3807 0.949 . S
H3832 C3809 0.950 . S
H3833 C3811 0.950 . S
C3834 C3835 1.349 . S
C3834 C3836 1.327 . S
C3834 H3859 0.950 . S
C3835 C3834 1.349 . S
C3835 C3851 1.349 . S
C3836 C3834 1.327 . S
C3836 C3855 1.429 . S
C3836 H3860 0.950 . S
C3837 C3854 1.574 1_545 S
C3837 C3856 1.368 . S
C3837 H3861 0.949 . S
H3838 C3842 0.949 . S
C3839 C3840 1.349 . S
C3839 C3841 1.327 . S
C3839 H3862 0.950 . S
C3840 C3839 1.349 . S
C3840 C3852 1.349 . S
C3841 C3839 1.327 . S
C3841 C3857 1.429 . S
C3841 H3863 0.950 . S
C3842 H3838 0.949 . S
C3842 C3850 1.574 1_565 S
C3842 C3858 1.368 . S
H3843 C3851 0.950 . S
H3844 C3849 0.950 . S
H3845 C3850 0.949 . S
H3846 C3852 0.950 . S
H3847 C3853 0.950 . S
H3848 C3854 0.949 . S
C3849 H3844 0.950 . S
C3849 C3851 1.327 . S
C3849 C3855 1.429 . S
C3850 C3842 1.574 1_545 S
C3850 H3845 0.949 . S
C3850 C3856 1.368 . S
C3851 C3835 1.349 . S
C3851 H3843 0.950 . S
C3851 C3849 1.327 . S
C3852 C3840 1.349 . S
C3852 H3846 0.950 . S
C3852 C3853 1.327 . S
C3853 H3847 0.950 . S
C3853 C3852 1.327 . S
C3853 C3857 1.429 . S
C3854 C3837 1.574 1_565 S
C3854 H3848 0.949 . S
C3854 C3858 1.368 . S
C3855 C3836 1.429 . S
C3855 C3849 1.429 . S
C3855 C3856 1.523 . S
C3856 C3837 1.368 . S
C3856 C3850 1.368 . S
C3856 C3855 1.523 . S
C3857 C3841 1.429 . S
C3857 C3853 1.429 . S
C3857 C3858 1.523 . S
C3858 C3842 1.368 . S
C3858 C3854 1.368 . S
C3858 C3857 1.523 . S
H3859 C3834 0.950 . S
H3860 C3836 0.950 . S
H3861 C3837 0.949 . S
H3862 C3839 0.950 . S
H3863 C3841 0.950 . S
C3864 C3865 1.349 . S
C3864 C3866 1.327 . S
C3864 H3889 0.950 . S
C3865 C3864 1.349 . S
C3865 C3881 1.349 . S
C3866 C3864 1.327 . S
C3866 C3885 1.429 . S
C3866 H3890 0.950 . S
C3867 C3884 1.590 . S
C3867 C3886 1.368 . S
C3867 H3891 0.949 . S
H3868 C3872 0.949 . S
C3869 C3870 1.349 . S
C3869 C3871 1.327 . S
C3869 H3892 0.950 . S
C3870 C3869 1.349 . S
C3870 C3882 1.349 . S
C3871 C3869 1.327 . S
C3871 C3887 1.429 . S
C3871 H3893 0.950 . S
C3872 H3868 0.949 . S
C3872 C3880 1.591 . S
C3872 C3888 1.368 . S
H3873 C3881 0.950 . S
H3874 C3879 0.950 . S
H3875 C3880 0.948 . S
H3876 C3882 0.950 . S
H3877 C3883 0.950 . S
H3878 C3884 0.948 . S
C3879 H3874 0.950 . S
C3879 C3881 1.327 . S
C3879 C3885 1.429 . S
C3880 C3872 1.591 . S
C3880 H3875 0.948 . S
C3880 C3886 1.355 1_655 S
C3881 C3865 1.349 . S
C3881 H3873 0.950 . S
C3881 C3879 1.327 . S
C3882 C3870 1.349 . S
C3882 H3876 0.950 . S
C3882 C3883 1.327 . S
C3883 H3877 0.950 . S
C3883 C3882 1.327 . S
C3883 C3887 1.429 . S
C3884 C3867 1.590 . S
C3884 H3878 0.948 . S
C3884 C3888 1.355 1_455 S
C3885 C3866 1.429 . S
C3885 C3879 1.429 . S
C3885 C3886 1.523 . S
C3886 C3867 1.368 . S
C3886 C3880 1.355 1_455 S
C3886 C3885 1.523 . S
C3887 C3871 1.429 . S
C3887 C3883 1.429 . S
C3887 C3888 1.523 . S
C3888 C3872 1.368 . S
C3888 C3884 1.355 1_655 S
C3888 C3887 1.523 . S
H3889 C3864 0.950 . S
H3890 C3866 0.950 . S
H3891 C3867 0.949 . S
H3892 C3869 0.950 . S
H3893 C3871 0.950 . S
C3894 C3895 1.349 . S
C3894 C3896 1.327 . S
C3894 H3919 0.950 . S
C3895 C3894 1.349 . S
C3895 C3911 1.349 . S
C3896 C3894 1.327 . S
C3896 C3915 1.429 . S
C3896 H3920 0.950 . S
C3897 C3914 1.574 . S
C3897 C3916 1.368 . S
C3897 H3921 0.949 . S
H3898 C3902 0.949 . S
C3899 C3900 1.349 . S
C3899 C3901 1.327 . S
C3899 H3922 0.950 . S
C3900 C3899 1.349 . S
C3900 C3912 1.349 . S
C3901 C3899 1.327 . S
C3901 C3917 1.429 . S
C3901 H3923 0.950 . S
C3902 H3898 0.949 . S
C3902 C3910 1.574 . S
C3902 C3918 1.368 . S
H3903 C3911 0.950 . S
H3904 C3909 0.950 . S
H3905 C3910 0.949 . S
H3906 C3912 0.950 . S
H3907 C3913 0.950 . S
H3908 C3914 0.949 . S
C3909 H3904 0.950 . S
C3909 C3911 1.327 . S
C3909 C3915 1.429 . S
C3910 C3902 1.574 . S
C3910 H3905 0.949 . S
C3910 C3916 1.368 . S
C3911 C3895 1.349 . S
C3911 H3903 0.950 . S
C3911 C3909 1.327 . S
C3912 C3900 1.349 . S
C3912 H3906 0.950 . S
C3912 C3913 1.327 . S
C3913 H3907 0.950 . S
C3913 C3912 1.327 . S
C3913 C3917 1.429 . S
C3914 C3897 1.574 . S
C3914 H3908 0.949 . S
C3914 C3918 1.368 . S
C3915 C3896 1.429 . S
C3915 C3909 1.429 . S
C3915 C3916 1.523 . S
C3916 C3897 1.368 . S
C3916 C3910 1.368 . S
C3916 C3915 1.523 . S
C3917 C3901 1.429 . S
C3917 C3913 1.429 . S
C3917 C3918 1.523 . S
C3918 C3902 1.368 . S
C3918 C3914 1.368 . S
C3918 C3917 1.523 . S
H3919 C3894 0.950 . S
H3920 C3896 0.950 . S
H3921 C3897 0.949 . S
H3922 C3899 0.950 . S
H3923 C3901 0.950 . S
C1225 C617 0.601 . S
C1230 C5 0.601 . S
C1255 C39 0.601 . S
C1260 C651 0.601 . S
C1285 C685 0.601 . S
C1290 C73 0.601 . S
C1315 C1127 0.601 . S
C1320 C107 0.601 . S
C1345 C1161 0.601 . S
C1350 C141 0.601 . S
C1375 C175 0.601 . S
C1380 C1195 0.601 . S
C1405 C209 0.601 . S
C1410 C821 0.601 . S
C1435 C855 0.601 . S
C1440 C243 0.601 . S
C1465 C277 0.601 . S
C1470 C889 0.601 . S
C1495 C515 0.601 . S
C1500 C311 0.601 . S
C1525 C345 0.601 . S
C1530 C549 0.601 . S
C1555 C583 0.601 . S
C1560 C379 0.601 . S
C1585 C1025 0.601 . S
C1590 C413 0.601 . S
C1615 C447 0.601 . S
C1620 C1059 0.601 . S
C1645 C481 0.602 . S
C1650 C1093 0.602 . S
C1675 C923 0.601 . S
C1680 C719 0.601 . S
C1705 C753 0.601 . S
C1710 C957 0.601 . S
C1735 C787 0.601 . S
C1740 C991 0.601 . S
C1765 C9 1.316 . S
C1770 C111 1.316 . S
C1795 C145 1.316 . S
C1800 C43 1.316 . S
C1825 C77 1.316 . S
C1830 C179 1.316 . S
C1855 C315 1.316 . S
C1860 C213 1.316 . S
C1885 C247 1.316 . S
C1890 C349 1.316 . S
C1915 C383 1.316 . S
C1920 C281 1.316 . S
C1945 C417 1.316 . S
C1950 C519 1.316 . S
C1975 C451 1.316 . S
C1980 C553 1.316 . S
C2005 C587 1.316 . S
C2010 C485 1.316 . S
C2035 C621 1.316 . S
C2040 C723 1.316 . S
C2065 C655 1.316 . S
C2070 C757 1.316 . S
C2095 C791 1.316 . S
C2100 C689 1.316 . S
C2125 C825 1.316 . S
C2130 C927 1.316 . S
C2155 C961 1.316 . S
C2160 C859 1.316 . S
C2185 C995 1.316 . S
C2190 C893 1.316 . S
C2215 C1029 1.316 . S
C2220 C1131 1.316 . S
C2245 C1063 1.316 . S
C2250 C1165 1.316 . S
C2275 C1199 1.316 . S
C2280 C1097 1.316 . S
C2305 C373 1.337 . S
C2310 C20 1.293 . S
C2335 C407 1.337 . S
C2340 C54 1.292 . S
C2365 C339 1.337 . S
C2370 C88 1.292 . S
C2395 C305 1.337 . S
C2400 C122 1.293 . S
C2425 C237 1.337 . S
C2430 C156 1.292 . S
C2455 C190 1.292 . S
C2460 C271 1.337 . S
C2485 C169 1.337 . S
C2490 C224 1.293 . S
C2515 C258 1.292 . S
C2520 C203 1.337 . S
C2545 C292 1.292 . S
C2550 C135 1.337 . S
C2575 C101 1.337 . S
C2580 C326 1.293 . S
C2605 C33 1.337 . S
C2610 C360 1.292 . S
C2635 C394 1.292 . S
C2640 C67 1.337 . S
C2665 C428 1.293 . S
C2670 C781 1.337 . S
C2695 C462 1.292 . S
C2700 C815 1.337 . S
C2725 C496 1.292 . S
C2730 C747 1.337 . S
C2755 C530 1.292 . S
C2760 C713 1.337 1_556 S
C2785 C645 1.337 1_556 S
C2790 C564 1.292 . S
C2815 C679 1.337 1_556 S
C2820 C598 1.292 . S
C2845 C632 1.293 . S
C2850 C577 1.337 . S
C2875 C666 1.292 . S
C2880 C611 1.337 . S
C2905 C543 1.337 . S
C2910 C700 1.292 . S
C2935 C509 1.337 . S
C2940 C734 1.293 . S
C2965 C441 1.337 . S
C2970 C768 1.292 . S
C2995 C802 1.292 . S
C3000 C475 1.337 . S
C3025 C1189 1.337 . S
C3030 C836 1.293 . S
C3055 C1223 1.337 . S
C3060 C870 1.292 . S
C3085 C904 1.292 . S
C3090 C1155 1.337 . S
C3115 C1121 1.337 . S
C3120 C938 1.293 . S
C3145 C1053 1.337 . S
C3150 C972 1.292 . S
C3175 C1006 1.292 . S
C3180 C1087 1.337 . S
C3205 C985 1.337 . S
C3210 C1040 1.293 . S
C3235 C1019 1.337 . S
C3240 C1074 1.292 . S
C3265 C951 1.337 . S
C3270 C1108 1.292 . S
C3295 C917 1.337 1_554 S
C3300 C1142 1.292 . S
C3325 C849 1.337 1_554 S
C3330 C1176 1.292 . S
C3355 C883 1.337 1_554 S
C3360 C1210 1.292 . S
C3385 C546 1.887 . S
C3390 C2 1.887 . S
C3415 C580 1.887 . S
C3420 C36 1.887 . S
C3445 C512 1.887 . S
C3450 C70 1.887 . S
C3475 C104 1.887 . S
C3480 C886 1.887 . S
C3505 C138 1.887 . S
C3510 C818 1.887 . S
C3535 C172 1.887 . S
C3540 C852 1.887 . S
C3565 C206 1.887 . S
C3570 C1158 1.887 . S
C3595 C240 1.887 . S
C3600 C1192 1.887 . S
C3625 C1124 1.887 . S
C3630 C274 1.887 . S
C3655 C308 1.887 . S
C3660 C682 1.887 . S
C3685 C342 1.887 . S
C3690 C614 1.887 . S
C3715 C648 1.887 . S
C3720 C376 1.887 . S
C3745 C954 1.887 . S
C3750 C410 1.887 . S
C3775 C988 1.887 . S
C3780 C444 1.887 . S
C3805 C478 1.887 . S
C3810 C920 1.887 . S
C3835 C716 1.887 . S
C3840 C1090 1.887 . S
C3865 C1022 1.887 . S
C3870 C750 1.887 . S
C3895 C1056 1.887 . S
C3900 C784 1.887 . S
