# Generated by pormake.
# Topology whz, (6)-cn, num edge types: 1
# Building blocks:
#     Node 0, Type 0, BuildingBlock: VOLQOD_clean_sbu_1, # of connection points: 6
#     Node 1, Type 0, BuildingBlock: VOLQOD_clean_sbu_1, # of connection points: 6
#     Node 2, Type 0, BuildingBlock: VOLQOD_clean_sbu_1, # of connection points: 6
#     Node 3, Type 0, BuildingBlock: VOLQOD_clean_sbu_1, # of connection points: 6
#     Node 4, Type 0, BuildingBlock: VOLQOD_clean_sbu_1, # of connection points: 6
#     Node 5, Type 0, BuildingBlock: VOLQOD_clean_sbu_1, # of connection points: 6
#     Node 6, Type 0, BuildingBlock: VOLQOD_clean_sbu_1, # of connection points: 6
#     Node 7, Type 0, BuildingBlock: VOLQOD_clean_sbu_1, # of connection points: 6
#     Node 8, Type 0, BuildingBlock: VOLQOD_clean_sbu_1, # of connection points: 6
#     Node 9, Type 0, BuildingBlock: VOLQOD_clean_sbu_1, # of connection points: 6
#     Node 10, Type 0, BuildingBlock: VOLQOD_clean_sbu_1, # of connection points: 6
#     Node 11, Type 0, BuildingBlock: VOLQOD_clean_sbu_1, # of connection points: 6
#     Node 12, Type 0, BuildingBlock: VOLQOD_clean_sbu_1, # of connection points: 6
#     Node 13, Type 0, BuildingBlock: VOLQOD_clean_sbu_1, # of connection points: 6
#     Node 14, Type 0, BuildingBlock: VOLQOD_clean_sbu_1, # of connection points: 6
#     Node 15, Type 0, BuildingBlock: VOLQOD_clean_sbu_1, # of connection points: 6
#     Edge 16, Type (0, 0), BuildingBlock: CIFDUS_clean_linker_0, # of connection points: 2
#     Edge 17, Type (0, 0), BuildingBlock: CIFDUS_clean_linker_0, # of connection points: 2
#     Edge 18, Type (0, 0), BuildingBlock: CIFDUS_clean_linker_0, # of connection points: 2
#     Edge 19, Type (0, 0), BuildingBlock: CIFDUS_clean_linker_0, # of connection points: 2
#     Edge 20, Type (0, 0), BuildingBlock: CIFDUS_clean_linker_0, # of connection points: 2
#     Edge 21, Type (0, 0), BuildingBlock: CIFDUS_clean_linker_0, # of connection points: 2
#     Edge 22, Type (0, 0), BuildingBlock: CIFDUS_clean_linker_0, # of connection points: 2
#     Edge 23, Type (0, 0), BuildingBlock: CIFDUS_clean_linker_0, # of connection points: 2
#     Edge 24, Type (0, 0), BuildingBlock: CIFDUS_clean_linker_0, # of connection points: 2
#     Edge 25, Type (0, 0), BuildingBlock: CIFDUS_clean_linker_0, # of connection points: 2
#     Edge 26, Type (0, 0), BuildingBlock: CIFDUS_clean_linker_0, # of connection points: 2
#     Edge 27, Type (0, 0), BuildingBlock: CIFDUS_clean_linker_0, # of connection points: 2
#     Edge 28, Type (0, 0), BuildingBlock: CIFDUS_clean_linker_0, # of connection points: 2
#     Edge 29, Type (0, 0), BuildingBlock: CIFDUS_clean_linker_0, # of connection points: 2
#     Edge 30, Type (0, 0), BuildingBlock: CIFDUS_clean_linker_0, # of connection points: 2
#     Edge 31, Type (0, 0), BuildingBlock: CIFDUS_clean_linker_0, # of connection points: 2
#     Edge 32, Type (0, 0), BuildingBlock: CIFDUS_clean_linker_0, # of connection points: 2
#     Edge 33, Type (0, 0), BuildingBlock: CIFDUS_clean_linker_0, # of connection points: 2
#     Edge 34, Type (0, 0), BuildingBlock: CIFDUS_clean_linker_0, # of connection points: 2
#     Edge 35, Type (0, 0), BuildingBlock: CIFDUS_clean_linker_0, # of connection points: 2
#     Edge 36, Type (0, 0), BuildingBlock: CIFDUS_clean_linker_0, # of connection points: 2
#     Edge 37, Type (0, 0), BuildingBlock: CIFDUS_clean_linker_0, # of connection points: 2
#     Edge 38, Type (0, 0), BuildingBlock: CIFDUS_clean_linker_0, # of connection points: 2
#     Edge 39, Type (0, 0), BuildingBlock: CIFDUS_clean_linker_0, # of connection points: 2
#     Edge 40, Type (0, 0), BuildingBlock: CIFDUS_clean_linker_0, # of connection points: 2
#     Edge 41, Type (0, 0), BuildingBlock: CIFDUS_clean_linker_0, # of connection points: 2
#     Edge 42, Type (0, 0), BuildingBlock: CIFDUS_clean_linker_0, # of connection points: 2
#     Edge 43, Type (0, 0), BuildingBlock: CIFDUS_clean_linker_0, # of connection points: 2
#     Edge 44, Type (0, 0), BuildingBlock: CIFDUS_clean_linker_0, # of connection points: 2
#     Edge 45, Type (0, 0), BuildingBlock: CIFDUS_clean_linker_0, # of connection points: 2
#     Edge 46, Type (0, 0), BuildingBlock: CIFDUS_clean_linker_0, # of connection points: 2
#     Edge 47, Type (0, 0), BuildingBlock: CIFDUS_clean_linker_0, # of connection points: 2
#     Edge 48, Type (0, 0), BuildingBlock: CIFDUS_clean_linker_0, # of connection points: 2
#     Edge 49, Type (0, 0), BuildingBlock: CIFDUS_clean_linker_0, # of connection points: 2
#     Edge 50, Type (0, 0), BuildingBlock: CIFDUS_clean_linker_0, # of connection points: 2
#     Edge 51, Type (0, 0), BuildingBlock: CIFDUS_clean_linker_0, # of connection points: 2
#     Edge 52, Type (0, 0), BuildingBlock: CIFDUS_clean_linker_0, # of connection points: 2
#     Edge 53, Type (0, 0), BuildingBlock: CIFDUS_clean_linker_0, # of connection points: 2
#     Edge 54, Type (0, 0), BuildingBlock: CIFDUS_clean_linker_0, # of connection points: 2
#     Edge 55, Type (0, 0), BuildingBlock: CIFDUS_clean_linker_0, # of connection points: 2
#     Edge 56, Type (0, 0), BuildingBlock: CIFDUS_clean_linker_0, # of connection points: 2
#     Edge 57, Type (0, 0), BuildingBlock: CIFDUS_clean_linker_0, # of connection points: 2
#     Edge 58, Type (0, 0), BuildingBlock: CIFDUS_clean_linker_0, # of connection points: 2
#     Edge 59, Type (0, 0), BuildingBlock: CIFDUS_clean_linker_0, # of connection points: 2
#     Edge 60, Type (0, 0), BuildingBlock: CIFDUS_clean_linker_0, # of connection points: 2
#     Edge 61, Type (0, 0), BuildingBlock: CIFDUS_clean_linker_0, # of connection points: 2
#     Edge 62, Type (0, 0), BuildingBlock: CIFDUS_clean_linker_0, # of connection points: 2
#     Edge 63, Type (0, 0), BuildingBlock: CIFDUS_clean_linker_0, # of connection points: 2
# Relax obj value: 0.426
# Max RMSD: 0.199
# Mean RMSD: 0.199
data_MOF--net-whz--node1-VOLQOD_clean_sbu_1--edge1-CIFDUS_clean_linker_0
_symmetry_space_group_name_H-M    P1
_symmetry_Int_Tables_number       1
_symmetry_cell_setting            triclinic
loop_
_symmetry_equiv_pos_as_xyz
'x, y, z'
_cell_length_a     32.941795
_cell_length_b     33.047147
_cell_length_c     48.417448
_cell_angle_alpha  90.031403
_cell_angle_beta   89.815109
_cell_angle_gamma 89.898428
loop_
_atom_site_label
_atom_site_type_symbol
_atom_site_fract_x
_atom_site_fract_y
_atom_site_fract_z
_atom_type_partial_charge
O0 O 0.23916 0.18514 0.17013 0.0
Zn1 Zn 0.23396 0.15956 0.13311 0.0
O2 O 0.28537 0.13836 0.12068 0.0
Zn3 Zn 0.27731 0.08353 0.10627 0.0
Zn4 Zn 0.3247 0.1408 0.14992 0.0
Zn5 Zn 0.30297 0.1756 0.09299 0.0
O6 O 0.28384 0.0844 0.06347 0.0
O7 O 0.29217 0.15064 0.05677 0.0
O8 O 0.19227 0.11721 0.1359 0.0
O9 O 0.2196 0.06479 0.11414 0.0
O10 O 0.31042 0.0434 0.12984 0.0
O11 O 0.33395 0.08437 0.16288 0.0
O12 O 0.37722 0.16691 0.13763 0.0
O13 O 0.2129 0.20313 0.10872 0.0
O14 O 0.36194 0.18835 0.09549 0.0
O15 O 0.27235 0.22836 0.09634 0.0
C16 C 0.26849 0.18897 0.18688 0.0
C17 C 0.2865 0.11514 0.04734 0.0
C18 C 0.32814 0.04911 0.15304 0.0
C19 C 0.19003 0.08119 0.127 0.0
C20 C 0.38715 0.18422 0.11509 0.0
C21 C 0.23435 0.23246 0.10019 0.0
O22 O 0.30319 0.17361 0.18176 0.0
O23 O 0.56936 0.49278 0.42969 0.0
Zn24 Zn 0.58512 0.48923 0.39008 0.0
O25 O 0.60739 0.53939 0.37637 0.0
Zn26 Zn 0.66244 0.52917 0.36262 0.0
Zn27 Zn 0.60774 0.57804 0.40648 0.0
Zn28 Zn 0.57262 0.55976 0.34699 0.0
O29 O 0.66581 0.5414 0.32144 0.0
O30 O 0.60128 0.55353 0.31041 0.0
O31 O 0.62277 0.44302 0.38626 0.0
O32 O 0.67746 0.4702 0.36713 0.0
O33 O 0.70415 0.55772 0.3864 0.0
O34 O 0.66487 0.58836 0.41762 0.0
O35 O 0.58069 0.62974 0.39563 0.0
O36 O 0.5336 0.47609 0.37172 0.0
O37 O 0.55802 0.61816 0.35324 0.0
O38 O 0.51891 0.52997 0.3464 0.0
C39 C 0.56631 0.52186 0.44671 0.0
C40 C 0.63825 0.54791 0.30341 0.0
C41 C 0.69971 0.57906 0.40815 0.0
C42 C 0.65872 0.43982 0.37704 0.0
C43 C 0.56219 0.64141 0.37401 0.0
C44 C 0.50911 0.49592 0.35672 0.0
O45 O 0.5784 0.55722 0.44036 0.0
O46 O 0.24529 0.78882 0.66695 0.0
Zn47 Zn 0.24903 0.8113 0.62896 0.0
O48 O 0.20022 0.84018 0.61882 0.0
Zn49 Zn 0.21529 0.89555 0.608 0.0
Zn50 Zn 0.16374 0.84175 0.65016 0.0
Zn51 Zn 0.17467 0.80951 0.58901 0.0
O52 O 0.20559 0.90149 0.56658 0.0
O53 O 0.18164 0.84121 0.55356 0.0
O54 O 0.29711 0.84606 0.62887 0.0
O55 O 0.2752 0.90649 0.61576 0.0
O56 O 0.18623 0.9377 0.63173 0.0
O57 O 0.15461 0.89858 0.6624 0.0
O58 O 0.11058 0.81643 0.64118 0.0
O59 O 0.26047 0.76438 0.60495 0.0
O60 O 0.11549 0.79734 0.59736 0.0
O61 O 0.20133 0.75419 0.58437 0.0
C62 C 0.2187 0.79119 0.68591 0.0
C63 C 0.19365 0.87699 0.54779 0.0
C64 C 0.16439 0.93331 0.65331 0.0
C65 C 0.30354 0.88312 0.6239 0.0
C66 C 0.09525 0.8003 0.61978 0.0
C67 C 0.23716 0.74276 0.59034 0.0
O68 O 0.18595 0.81093 0.68241 0.0
O69 O 0.93434 0.50309 0.91707 0.0
Zn70 Zn 0.90866 0.50041 0.88007 0.0
O71 O 0.88547 0.44749 0.87405 0.0
Zn72 Zn 0.82899 0.45418 0.86257 0.0
Zn73 Zn 0.89013 0.4144 0.90679 0.0
Zn74 Zn 0.9185 0.42333 0.84557 0.0
O75 O 0.82482 0.44212 0.82118 0.0
O76 O 0.889 0.4282 0.80965 0.0
O77 O 0.86742 0.54363 0.87971 0.0
O78 O 0.81055 0.51243 0.86812 0.0
O79 O 0.7912 0.4226 0.88814 0.0
O80 O 0.83426 0.40254 0.92094 0.0
O81 O 0.91948 0.36191 0.89873 0.0
O82 O 0.95266 0.51433 0.85348 0.0
O83 O 0.93263 0.36569 0.85383 0.0
O84 O 0.97235 0.4521 0.8431 0.0
C85 C 0.93692 0.47897 0.93739 0.0
C86 C 0.85214 0.43474 0.80296 0.0
C87 C 0.79841 0.40606 0.91146 0.0
C88 C 0.82956 0.54436 0.87509 0.0
C89 C 0.9337 0.34645 0.87658 0.0
C90 C 0.97935 0.48986 0.84453 0.0
O91 O 0.92109 0.44383 0.93657 0.0
O92 O 0.73337 0.82174 0.83084 0.0
Zn93 Zn 0.74129 0.84414 0.86813 0.0
O94 O 0.69012 0.86086 0.88348 0.0
Zn95 Zn 0.69699 0.91438 0.90058 0.0
Zn96 Zn 0.64918 0.86089 0.85499 0.0
Zn97 Zn 0.67522 0.8194 0.9091 0.0
O98 O 0.68905 0.90908 0.94331 0.0
O99 O 0.68088 0.84227 0.9467 0.0
O100 O 0.77952 0.8897 0.86467 0.0
O101 O 0.75418 0.93575 0.8933 0.0
O102 O 0.66332 0.95623 0.87857 0.0
O103 O 0.64 0.91779 0.84413 0.0
O104 O 0.59667 0.83612 0.86795 0.0
O105 O 0.76717 0.79858 0.8888 0.0
O106 O 0.61821 0.80053 0.90395 0.0
O107 O 0.71115 0.77052 0.90534 0.0
C108 C 0.70337 0.81666 0.81486 0.0
C109 C 0.68519 0.87685 0.95795 0.0
C110 C 0.64553 0.95222 0.85523 0.0
C111 C 0.78176 0.9238 0.87661 0.0
C112 C 0.59034 0.81081 0.88728 0.0
C113 C 0.74856 0.76836 0.89896 0.0
O114 O 0.66809 0.82951 0.82129 0.0
O115 O 0.43027 0.48136 0.59354 0.0
Zn116 Zn 0.40204 0.4881 0.62977 0.0
O117 O 0.38112 0.43691 0.64309 0.0
Zn118 Zn 0.32425 0.44429 0.65408 0.0
Zn119 Zn 0.38701 0.39645 0.61432 0.0
Zn120 Zn 0.41436 0.42087 0.67413 0.0
O121 O 0.31871 0.43801 0.69633 0.0
O122 O 0.38294 0.429 0.70936 0.0
O123 O 0.358 0.52824 0.62366 0.0
O124 O 0.3044 0.50047 0.64385 0.0
O125 O 0.28759 0.40928 0.62986 0.0
O126 O 0.33188 0.38215 0.60016 0.0
O127 O 0.4161 0.34704 0.62822 0.0
O128 O 0.44458 0.51097 0.65454 0.0
O129 O 0.43221 0.3627 0.67144 0.0
O130 O 0.46575 0.45435 0.67453 0.0
C131 C 0.43533 0.45185 0.57706 0.0
C132 C 0.34552 0.43421 0.71531 0.0
C133 C 0.29559 0.38848 0.60825 0.0
C134 C 0.32077 0.52945 0.63055 0.0
C135 C 0.43212 0.33794 0.6513 0.0
C136 C 0.47133 0.49115 0.66775 0.0
O137 O 0.42019 0.41725 0.58222 0.0
O138 O 0.75511 0.1615 0.32996 0.0
Zn139 Zn 0.74449 0.13871 0.36664 0.0
O140 O 0.79474 0.12224 0.383 0.0
Zn141 Zn 0.78483 0.07008 0.40049 0.0
Zn142 Zn 0.83705 0.1201 0.35526 0.0
Zn143 Zn 0.80968 0.16362 0.40836 0.0
O144 O 0.7958 0.07433 0.44256 0.0
O145 O 0.80379 0.14114 0.4461 0.0
O146 O 0.70527 0.09373 0.3627 0.0
O147 O 0.72595 0.05337 0.39639 0.0
O148 O 0.81182 0.02611 0.37669 0.0
O149 O 0.84138 0.06262 0.34342 0.0
O150 O 0.8904 0.14269 0.36914 0.0
O151 O 0.71811 0.18444 0.38695 0.0
O152 O 0.8668 0.18217 0.40273 0.0
O153 O 0.77362 0.21211 0.40447 0.0
C154 C 0.78617 0.1671 0.3149 0.0
C155 C 0.79971 0.10646 0.45724 0.0
C156 C 0.83038 0.02874 0.35348 0.0
C157 C 0.70017 0.06291 0.37793 0.0
C158 C 0.89569 0.17006 0.38733 0.0
C159 C 0.73645 0.2144 0.39762 0.0
O160 O 0.82093 0.15357 0.32181 0.0
O161 O 0.04794 0.49498 0.10178 0.0
Zn162 Zn 0.07505 0.49568 0.13817 0.0
O163 O 0.10038 0.54713 0.14433 0.0
Zn164 Zn 0.15504 0.53778 0.15845 0.0
Zn165 Zn 0.0982 0.58013 0.11161 0.0
Zn166 Zn 0.06592 0.57214 0.17099 0.0
O167 O 0.1552 0.54751 0.20105 0.0
O168 O 0.08991 0.56277 0.20766 0.0
O169 O 0.11485 0.45105 0.13699 0.0
O170 O 0.17121 0.4793 0.15251 0.0
O171 O 0.19604 0.56531 0.1324 0.0
O172 O 0.15527 0.58492 0.09798 0.0
O173 O 0.07352 0.63527 0.11949 0.0
O174 O 0.03129 0.48426 0.16536 0.0
O175 O 0.05934 0.63104 0.1643 0.0
O176 O 0.01005 0.54729 0.16898 0.0
C177 C 0.04622 0.5192 0.08148 0.0
C178 C 0.1249 0.55437 0.21719 0.0
C179 C 0.19058 0.57909 0.10794 0.0
C180 C 0.15224 0.44883 0.14302 0.0
C181 C 0.06094 0.65113 0.14196 0.0
C182 C 0.00262 0.50954 0.16883 0.0
O183 O 0.06442 0.5532 0.08199 0.0
O184 O 0.74557 0.67326 0.67236 0.0
Zn185 Zn 0.73909 0.64556 0.63636 0.0
O186 O 0.79027 0.62311 0.62423 0.0
Zn187 Zn 0.78111 0.56645 0.61397 0.0
Zn188 Zn 0.83102 0.62892 0.65279 0.0
Zn189 Zn 0.80739 0.6557 0.59332 0.0
O190 O 0.78933 0.56005 0.57213 0.0
O191 O 0.79961 0.62389 0.55899 0.0
O192 O 0.69678 0.60408 0.64161 0.0
O193 O 0.72343 0.54857 0.62345 0.0
O194 O 0.81542 0.52979 0.63836 0.0
O195 O 0.84498 0.57376 0.66695 0.0
O196 O 0.88159 0.65682 0.63872 0.0
O197 O 0.71766 0.68795 0.61115 0.0
O198 O 0.86587 0.67144 0.59534 0.0
O199 O 0.77532 0.70789 0.59186 0.0
C200 C 0.77472 0.67796 0.68913 0.0
C201 C 0.79436 0.58666 0.55319 0.0
C202 C 0.83756 0.53763 0.65929 0.0
C203 C 0.69411 0.56693 0.63531 0.0
C204 C 0.89095 0.67143 0.61521 0.0
C205 C 0.7382 0.71401 0.59791 0.0
O206 O 0.80952 0.66247 0.68449 0.0
O207 O 0.04988 -0.00439 0.91615 0.0
Zn208 Zn 0.06674 0.99018 0.87714 0.0
O209 O 0.09726 0.03699 0.86511 0.0
Zn210 Zn 0.15238 0.01908 0.85612 0.0
Zn211 Zn 0.09816 0.07687 0.89465 0.0
Zn212 Zn 0.07004 0.06044 0.83313 0.0
O213 O 0.16395 0.02926 0.81525 0.0
O214 O 0.10394 0.04996 0.79932 0.0
O215 O 0.0968 0.93835 0.87398 0.0
O216 O 0.15849 0.95891 0.86225 0.0
O217 O 0.19319 0.04244 0.88314 0.0
O218 O 0.15466 0.08266 0.90926 0.0
O219 O 0.07528 0.13021 0.88231 0.0
O220 O 0.01476 0.9856 0.85753 0.0
O221 O 0.0606 0.12027 0.83807 0.0
O222 O 0.01343 0.03701 0.82806 0.0
C223 C 0.04865 0.02499 0.93301 0.0
C224 C 0.14064 0.03904 0.79522 0.0
C225 C 0.18883 0.06666 0.90345 0.0
C226 C 0.13385 0.93092 0.86887 0.0
C227 C 0.06197 0.14308 0.85927 0.0
C228 C -0.00325 0.00653 0.8394 0.0
O229 O 0.06439 0.05901 0.92708 0.0
O230 O 0.74264 0.30645 0.17085 0.0
Zn231 Zn 0.74385 0.32871 0.13276 0.0
O232 O 0.69383 0.35662 0.12419 0.0
Zn233 Zn 0.70692 0.41256 0.11382 0.0
Zn234 Zn 0.65808 0.3558 0.15585 0.0
Zn235 Zn 0.66824 0.3263 0.0945 0.0
O236 O 0.69804 0.41843 0.07226 0.0
O237 O 0.67615 0.35745 0.05919 0.0
O238 O 0.79126 0.36437 0.13112 0.0
O239 O 0.76651 0.42504 0.12124 0.0
O240 O 0.67638 0.45317 0.13811 0.0
O241 O 0.64638 0.41203 0.16834 0.0
O242 O 0.60578 0.32818 0.14721 0.0
O243 O 0.75454 0.28148 0.10877 0.0
O244 O 0.60928 0.31429 0.10244 0.0
O245 O 0.69414 0.27091 0.09011 0.0
C246 C 0.71674 0.30744 0.1903 0.0
C247 C 0.68768 0.39334 0.0534 0.0
C248 C 0.65466 0.44737 0.15962 0.0
C249 C 0.79618 0.40197 0.12731 0.0
C250 C 0.58997 0.3141 0.12529 0.0
C251 C 0.73024 0.25954 0.09518 0.0
O252 O 0.68294 0.32564 0.18752 0.0
O253 O 0.42515 0.98187 0.42186 0.0
Zn254 Zn 0.41065 0.98748 0.38255 0.0
O255 O 0.38288 0.94073 0.36842 0.0
Zn256 Zn 0.32686 0.95623 0.35955 0.0
Zn257 Zn 0.38469 0.89932 0.39685 0.0
Zn258 Zn 0.41213 0.92183 0.33558 0.0
O259 O 0.31821 0.9519 0.31748 0.0
O260 O 0.37942 0.93425 0.30177 0.0
O261 O 0.37842 0.03732 0.37979 0.0
O262 O 0.31669 0.01511 0.36974 0.0
O263 O 0.28692 0.92475 0.38382 0.0
O264 O 0.3282 0.88609 0.40899 0.0
O265 O 0.41262 0.84993 0.38246 0.0
O266 O 0.46366 -0.00495 0.36475 0.0
O267 O 0.42423 0.86215 0.33795 0.0
O268 O 0.46772 0.94817 0.33206 0.0
C269 C 0.42776 0.95208 0.43824 0.0
C270 C 0.34278 0.94495 0.29743 0.0
C271 C 0.29278 0.89841 0.40271 0.0
C272 C 0.34081 0.0436 0.37631 0.0
C273 C 0.42557 0.83879 0.35884 0.0
C274 C 0.48309 0.97726 0.34567 0.0
O275 O 0.41506 0.91722 0.43121 0.0
O276 O 0.23106 0.31548 0.33582 0.0
Zn277 Zn 0.23894 0.32755 0.37502 0.0
O278 O 0.19215 0.35306 0.39098 0.0
Zn279 Zn 0.20936 0.40633 0.40463 0.0
Zn280 Zn 0.15067 0.35826 0.36246 0.0
Zn281 Zn 0.1722 0.31798 0.42045 0.0
O282 O 0.19893 0.4096 0.44636 0.0
O283 O 0.1812 0.3462 0.4568 0.0
O284 O 0.28892 0.35898 0.37796 0.0
O285 O 0.26986 0.41544 0.39899 0.0
O286 O 0.18576 0.4508 0.38045 0.0
O287 O 0.14711 0.41636 0.35097 0.0
O288 O 0.09671 0.33636 0.37545 0.0
O289 O 0.24993 0.27486 0.39154 0.0
O290 O 0.11332 0.30514 0.41461 0.0
O291 O 0.20028 0.26306 0.42128 0.0
C292 C 0.20075 0.31426 0.31981 0.0
C293 C 0.19059 0.38209 0.46414 0.0
C294 C 0.16284 0.44936 0.35927 0.0
C295 C 0.29703 0.39349 0.38775 0.0
C296 C 0.08745 0.31454 0.39621 0.0
C297 C 0.23221 0.25178 0.40858 0.0
O298 O 0.16612 0.32734 0.32753 0.0
O299 O 0.9146 -0.00805 0.0808 0.0
Zn300 Zn 0.89207 -0.00177 0.11851 0.0
O301 O 0.87201 0.9473 0.13208 0.0
Zn302 Zn 0.819 0.95696 0.14975 0.0
Zn303 Zn 0.86895 0.90872 0.10212 0.0
Zn304 Zn 0.91245 0.92765 0.15702 0.0
O305 O 0.82378 0.94603 0.19213 0.0
O306 O 0.88969 0.93108 0.19481 0.0
O307 O 0.84865 0.03921 0.11635 0.0
O308 O 0.80106 0.01544 0.14437 0.0
O309 O 0.77465 0.92873 0.12681 0.0
O310 O 0.81107 0.90225 0.09225 0.0
O311 O 0.89557 0.85534 0.11072 0.0
O312 O 0.93797 0.01985 0.14079 0.0
O313 O 0.92943 0.87087 0.14873 0.0
O314 O 0.96314 0.96152 0.15548 0.0
C315 C 0.91501 0.96326 0.06337 0.0
C316 C 0.85561 0.93791 0.2064 0.0
C317 C 0.7771 0.91095 0.10335 0.0
C318 C 0.81463 0.04301 0.12844 0.0
C319 C 0.92047 0.8459 0.12972 0.0
C320 C 0.9669 -0.00079 0.15089 0.0
O321 O 0.89819 0.92949 0.06858 0.0
O322 O 0.25569 0.66265 0.83409 0.0
Zn323 Zn 0.24569 0.64488 0.8722 0.0
O324 O 0.29493 0.6244 0.88819 0.0
Zn325 Zn 0.28359 0.57131 0.9051 0.0
Zn326 Zn 0.33682 0.62118 0.86004 0.0
Zn327 Zn 0.31176 0.66453 0.91441 0.0
O328 O 0.28821 0.57648 0.94806 0.0
O329 O 0.30137 0.64245 0.9518 0.0
O330 O 0.20272 0.60383 0.8706 0.0
O331 O 0.22567 0.55372 0.8966 0.0
O332 O 0.3156 0.52698 0.88394 0.0
O333 O 0.34361 0.56353 0.8501 0.0
O334 O 0.38994 0.64435 0.87299 0.0
O335 O 0.22443 0.69464 0.89032 0.0
O336 O 0.37025 0.67904 0.91005 0.0
O337 O 0.28056 0.7166 0.91018 0.0
C338 C 0.28616 0.66507 0.81812 0.0
C339 C 0.29309 0.60845 0.96282 0.0
C340 C 0.33513 0.52963 0.86107 0.0
C341 C 0.19818 0.56921 0.88143 0.0
C342 C 0.39752 0.66819 0.89295 0.0
C343 C 0.2446 0.72277 0.90168 0.0
O344 O 0.3207 0.65129 0.82523 0.0
O345 O 0.561 0.98989 0.58606 0.0
Zn346 Zn 0.58479 0.98453 0.62358 0.0
O347 O 0.60872 0.03457 0.63601 0.0
Zn348 Zn 0.66365 0.02282 0.64914 0.0
Zn349 Zn 0.60954 0.07243 0.60551 0.0
Zn350 Zn 0.57424 0.0563 0.6651 0.0
O351 O 0.66701 0.03464 0.6907 0.0
O352 O 0.60296 0.05013 0.70162 0.0
O353 O 0.62435 0.93955 0.62165 0.0
O354 O 0.6782 0.9638 0.64325 0.0
O355 O 0.70568 0.04962 0.62416 0.0
O356 O 0.66658 0.07834 0.59215 0.0
O357 O 0.5858 0.12603 0.61635 0.0
O358 O 0.53816 0.96835 0.6468 0.0
O359 O 0.56069 0.11504 0.65828 0.0
O360 O 0.52024 0.02674 0.66576 0.0
C361 C 0.55907 0.01858 0.56871 0.0
C362 C 0.63957 0.04283 0.7087 0.0
C363 C 0.70138 0.06844 0.60133 0.0
C364 C 0.6602 0.93517 0.63067 0.0
C365 C 0.56666 0.13828 0.63768 0.0
C366 C 0.51206 0.99041 0.659 0.0
O367 O 0.57607 0.05244 0.57343 0.0
H368 H 0.19899 0.22608 0.2042 0.0
H369 H 0.32396 0.20475 0.22713 0.0
H370 H 0.3139 0.24344 0.26939 0.0
H371 H 0.27001 0.28163 0.29998 0.0
H372 H 0.14447 0.30244 0.2786 0.0
H373 H 0.1547 0.26576 0.2351 0.0
C374 C 0.22406 0.22986 0.21843 0.0
C375 C 0.26217 0.21235 0.21253 0.0
C376 C 0.21807 0.25208 0.24279 0.0
C377 C 0.2943 0.21771 0.23116 0.0
C378 C 0.28862 0.2399 0.25532 0.0
C379 C 0.24472 0.27843 0.28586 0.0
C380 C 0.20643 0.2947 0.29261 0.0
C381 C 0.25065 0.257 0.26133 0.0
C382 C 0.17423 0.2902 0.27392 0.0
C383 C 0.18005 0.26915 0.24912 0.0
H384 H 0.47569 0.51994 0.56163 0.0
H385 H 0.45012 0.3976 0.53549 0.0
H386 H 0.49002 0.40816 0.49357 0.0
H387 H 0.53052 0.45238 0.46395 0.0
H388 H 0.55549 0.57504 0.48961 0.0
H389 H 0.51757 0.5638 0.53238 0.0
C390 C 0.47878 0.49552 0.54679 0.0
C391 C 0.45971 0.45807 0.55169 0.0
C392 C 0.50173 0.50178 0.52273 0.0
C393 C 0.46433 0.42676 0.53226 0.0
C394 C 0.48718 0.43275 0.50828 0.0
C395 C 0.52799 0.47667 0.47893 0.0
C396 C 0.54582 0.51456 0.47351 0.0
C397 C 0.50582 0.47017 0.50327 0.0
C398 C 0.54206 0.54561 0.4932 0.0
C399 C 0.5203 0.53924 0.51764 0.0
H400 H 0.28568 0.7482 0.70088 0.0
H401 H 0.16758 0.78647 0.73019 0.0
H402 H 0.17848 0.75037 0.77336 0.0
H403 H 0.22075 0.70822 0.80242 0.0
H404 H 0.3393 0.66987 0.77427 0.0
H405 H 0.32881 0.706 0.73067 0.0
C406 C 0.26231 0.7487 0.71671 0.0
C407 C 0.22581 0.76998 0.71227 0.0
C408 C 0.26876 0.72789 0.74153 0.0
C409 C 0.19593 0.77037 0.73303 0.0
C410 C 0.20209 0.7497 0.75771 0.0
C411 C 0.24439 0.70747 0.78678 0.0
C412 C 0.2807 0.68616 0.79153 0.0
C413 C 0.23828 0.72834 0.76209 0.0
C414 C 0.31105 0.686 0.77109 0.0
C415 C 0.30506 0.70663 0.74621 0.0
H416 H 0.94274 0.43995 0.98664 0.0
H417 H 0.98059 0.54841 0.94405 0.0
H418 H 0.01715 0.57077 0.98492 0.0
H419 H 0.03905 0.55935 0.03261 0.0
H420 H 0.00083 0.45091 0.07514 0.0
H421 H 0.96377 0.42899 0.03445 0.0
C422 C 0.959 0.46846 0.98627 0.0
C423 C 0.95892 0.49235 0.9623 0.0
C424 C 0.97994 0.48127 0.00985 0.0
C425 C 0.98004 0.52935 0.96224 0.0
C426 C 0.00103 0.54222 0.9856 0.0
C427 C 0.02254 0.53098 0.03301 0.0
C428 C 0.02293 0.50683 0.05687 0.0
C429 C 0.00124 0.5184 0.00951 0.0
C430 C 0.00129 0.47012 0.05702 0.0
C431 C 0.98002 0.45748 0.03375 0.0
H432 H 0.77256 0.77892 0.79917 0.0
H433 H 0.64927 0.80152 0.77307 0.0
H434 H 0.66079 0.76035 0.73175 0.0
H435 H 0.70554 0.71745 0.70372 0.0
H436 H 0.82852 0.69462 0.7305 0.0
H437 H 0.81712 0.7366 0.77126 0.0
C438 C 0.74811 0.77513 0.78444 0.0
C439 C 0.71006 0.79336 0.7892 0.0
C440 C 0.75481 0.75127 0.76103 0.0
C441 C 0.67882 0.78785 0.7699 0.0
C442 C 0.68538 0.76428 0.74633 0.0
C443 C 0.72991 0.72154 0.71846 0.0
C444 C 0.76785 0.70281 0.71407 0.0
C445 C 0.72319 0.7457 0.7418 0.0
C446 C 0.79904 0.7086 0.73337 0.0
C447 C 0.79257 0.73263 0.75666 0.0
H448 H 0.78386 0.26264 0.20225 0.0
H449 H 0.66907 0.30256 0.23631 0.0
H450 H 0.68135 0.26289 0.2778 0.0
H451 H 0.72303 0.21585 0.30356 0.0
H452 H 0.838 0.17515 0.27053 0.0
H453 H 0.82717 0.21658 0.22917 0.0
C454 C 0.76159 0.26286 0.2188 0.0
C455 C 0.72546 0.2854 0.2161 0.0
C456 C 0.76872 0.2398 0.24258 0.0
C457 C 0.69703 0.28541 0.23778 0.0
C458 C 0.70398 0.2627 0.2615 0.0
C459 C 0.74578 0.21575 0.28731 0.0
C460 C 0.78107 0.19206 0.28992 0.0
C461 C 0.73943 0.23952 0.26392 0.0
C462 C 0.81051 0.193 0.2689 0.0
C463 C 0.8043 0.21664 0.24531 0.0
H464 H 0.95967 0.02836 0.04812 0.0
H465 H 0.92016 0.91085 0.01977 0.0
H466 H 0.95886 0.91965 0.97715 0.0
H467 H 0.00384 0.96024 0.94835 0.0
H468 H 0.04337 0.07784 0.97647 0.0
H469 H 0.0046 0.06916 0.01915 0.0
C470 C 0.95932 0.00467 0.0326 0.0
C471 C 0.93702 0.96899 0.03711 0.0
C472 C 0.98174 0.0098 0.00829 0.0
C473 C 0.93706 0.9386 0.01682 0.0
C474 C 0.95922 0.94356 0.99248 0.0
C475 C 0.00422 0.98399 0.96382 0.0
C476 C 0.02657 0.0196 0.95927 0.0
C477 C 0.98175 0.97894 0.9881 0.0
C478 C 0.02645 0.05011 0.97948 0.0
C479 C 0.00425 0.04521 1.00385 0.0
H480 H 0.46653 0.01973 0.45521 0.0
H481 H 0.43664 0.89826 0.48105 0.0
H482 H 0.4747 0.90837 0.52383 0.0
H483 H 0.51745 0.95127 0.55319 0.0
H484 H 0.54786 0.07228 0.52647 0.0
H485 H 0.50852 0.06248 0.48442 0.0
C486 C 0.46801 -0.00459 0.47021 0.0
C487 C 0.44865 0.95826 0.46492 0.0
C488 C 0.49024 0.00125 0.49446 0.0
C489 C 0.4512 0.92714 0.4846 0.0
C490 C 0.47303 0.93289 0.50902 0.0
C491 C 0.51557 0.97555 0.53818 0.0
C492 C 0.53572 0.01247 0.54299 0.0
C493 C 0.4929 0.96973 0.51403 0.0
C494 C 0.53278 0.04355 0.52331 0.0
C495 C 0.51023 0.03801 0.49927 0.0
H496 H 0.21692 0.13443 0.92771 0.0
H497 H 0.22946 0.00477 0.92771 0.0
H498 H 0.26428 0.00745 0.97233 0.0
H499 H 0.28162 0.0466 0.0146 0.0
H500 H 0.27145 0.17702 0.01208 0.0
H501 H 0.24599 0.17399 0.9654 0.0
C502 C 0.22864 0.10696 0.93705 0.0
C503 C 0.22075 0.06958 0.92459 0.0
C504 C 0.24842 0.10874 0.96264 0.0
C505 C 0.23575 0.03403 0.93685 0.0
C506 C 0.25514 0.0355 0.96256 0.0
C507 C 0.2745 0.07431 1.00365 0.0
C508 C 0.27773 0.11181 0.0173 0.0
C509 C 0.26014 0.07264 0.97622 0.0
C510 C 0.26896 0.14752 1.00249 0.0
C511 C 0.25425 0.14599 0.97562 0.0
H512 H 0.58553 0.53807 0.26088 0.0
H513 H 0.7135 0.54588 0.27905 0.0
H514 H 0.72978 0.52404 0.23208 0.0
H515 H 0.70756 0.49086 0.18917 0.0
H516 H 0.57994 0.47505 0.1738 0.0
H517 H 0.56342 0.51285 0.21588 0.0
C518 C 0.61703 0.53597 0.25443 0.0
C519 C 0.64824 0.54308 0.27366 0.0
C520 C 0.62614 0.52182 0.22776 0.0
C521 C 0.68885 0.54015 0.26482 0.0
C522 C 0.69819 0.52759 0.23795 0.0
C523 C 0.67619 0.49734 0.19452 0.0
C524 C 0.6449 0.48103 0.17833 0.0
C525 C 0.6671 0.51671 0.21965 0.0
C526 C 0.60435 0.48813 0.18578 0.0
C527 C 0.59499 0.50923 0.21001 0.0
H528 H 0.20277 0.82641 0.504 0.0
H529 H 0.19854 0.95304 0.52562 0.0
H530 H 0.22039 0.97111 0.47891 0.0
H531 H 0.2516 0.95038 0.43485 0.0
H532 H 0.26467 0.82367 0.41606 0.0
H533 H 0.22749 0.80601 0.45825 0.0
C534 C 0.20562 0.85803 0.49832 0.0
C535 C 0.19926 0.88833 0.51836 0.0
C536 C 0.21992 0.86808 0.47182 0.0
C537 C 0.20353 0.92912 0.51067 0.0
C538 C 0.21608 0.93946 0.48397 0.0
C539 C 0.24474 0.91901 0.43951 0.0
C540 C 0.26001 0.8883 0.42224 0.0
C541 C 0.22584 0.90915 0.46471 0.0
C542 C 0.25243 0.84769 0.42887 0.0
C543 C 0.23166 0.83766 0.45315 0.0
H544 H 0.78496 0.49352 0.68876 0.0
H545 H 0.91266 0.51321 0.67523 0.0
H546 H 0.92861 0.47493 0.71715 0.0
H547 H 0.90559 0.44718 0.76119 0.0
H548 H 0.77731 0.4364 0.77811 0.0
H549 H 0.76201 0.45936 0.73125 0.0
C550 C 0.81629 0.48795 0.69453 0.0
C551 C 0.84775 0.5053 0.67886 0.0
C552 C 0.82493 0.46831 0.71957 0.0
C553 C 0.88817 0.49937 0.68684 0.0
C554 C 0.89717 0.47793 0.71093 0.0
C555 C 0.87425 0.44887 0.7545 0.0
C556 C 0.84261 0.44038 0.77328 0.0
C557 C 0.86571 0.4639 0.72805 0.0
C558 C 0.80222 0.44301 0.76418 0.0
C559 C 0.79347 0.45626 0.7374 0.0
H560 H 0.74459 0.84541 0.07881 0.0
H561 H 0.73528 0.97505 0.0837 0.0
H562 H 0.70204 0.97704 0.03855 0.0
H563 H 0.68771 0.94223 0.99396 0.0
H564 H 0.69515 0.81164 0.99127 0.0
H565 H 0.71631 0.80986 0.03896 0.0
C566 C 0.73334 0.87383 0.07059 0.0
C567 C 0.74203 0.9099 0.08457 0.0
C568 C 0.71495 0.87476 0.04446 0.0
C569 C 0.72812 0.94674 0.07352 0.0
C570 C 0.70985 0.94795 0.04741 0.0
C571 C 0.69319 0.9134 1.00397 0.0
C572 C 0.69075 0.87732 0.98852 0.0
C573 C 0.70504 0.91225 0.03202 0.0
C574 C 0.69728 0.84016 1.00219 0.0
C575 C 0.70946 0.83891 0.02967 0.0
H576 H 0.27795 0.49674 0.82923 0.0
H577 H 0.40472 0.48845 0.84968 0.0
H578 H 0.41799 0.45144 0.80673 0.0
H579 H 0.39574 0.4337 0.76 0.0
H580 H 0.26993 0.44904 0.73741 0.0
H581 H 0.25394 0.47074 0.78446 0.0
C582 C 0.30807 0.485 0.82483 0.0
C583 C 0.3402 0.4943 0.84285 0.0
C584 C 0.31579 0.4662 0.79924 0.0
C585 C 0.37943 0.48056 0.83649 0.0
C586 C 0.38706 0.46009 0.81168 0.0
C587 C 0.36461 0.44103 0.76539 0.0
C588 C 0.33422 0.4403 0.74488 0.0
C589 C 0.35584 0.45463 0.79231 0.0
C590 C 0.29406 0.44967 0.75254 0.0
C591 C 0.28489 0.46216 0.7795 0.0
H592 H 0.79625 0.04061 0.49235 0.0
H593 H 0.78827 0.17119 0.49097 0.0
H594 H 0.76324 0.17167 0.53797 0.0
H595 H 0.73217 0.13479 0.57651 0.0
H596 H 0.74302 0.00514 0.5802 0.0
H597 H 0.779 0.00459 0.53585 0.0
C598 C 0.7899 0.06916 0.50255 0.0
C599 C 0.79321 0.10561 0.48766 0.0
C600 C 0.7758 0.06952 0.53011 0.0
C601 C 0.78552 0.14242 0.50152 0.0
C602 C 0.77105 0.1429 0.52856 0.0
C603 C 0.74404 0.10669 0.56812 0.0
C604 C 0.73522 0.07017 0.58148 0.0
C605 C 0.7645 0.10662 0.54264 0.0
C606 C 0.75015 0.03373 0.57038 0.0
C607 C 0.77016 0.03335 0.54481 0.0
H608 H 0.09809 0.48693 0.33659 0.0
H609 H 0.22869 0.48407 0.33595 0.0
H610 H 0.22991 0.5203 0.29185 0.0
H611 H 0.19279 0.54233 0.24979 0.0
H612 H 0.06174 0.5486 0.25308 0.0
H613 H 0.06195 0.52243 0.29966 0.0
C614 C 0.12675 0.4958 0.32732 0.0
C615 C 0.16314 0.48305 0.33939 0.0
C616 C 0.12721 0.51656 0.30202 0.0
C617 C 0.20023 0.49422 0.32714 0.0
C618 C 0.20093 0.51439 0.30171 0.0
C619 C 0.1644 0.53879 0.26091 0.0
C620 C 0.12739 0.54654 0.24742 0.0
C621 C 0.16448 0.52411 0.28831 0.0
C622 C 0.09088 0.54242 0.2625 0.0
C623 C 0.09077 0.52731 0.28932 0.0
H624 H 0.79561 0.63749 0.50927 0.0
H625 H 0.78149 0.51136 0.5306 0.0
H626 H 0.76015 0.49654 0.48334 0.0
H627 H 0.73329 0.52179 0.43921 0.0
H628 H 0.73823 0.64918 0.42098 0.0
H629 H 0.77645 0.66124 0.46351 0.0
C630 C 0.78862 0.60653 0.50358 0.0
C631 C 0.78939 0.57569 0.52369 0.0
C632 C 0.77474 0.59861 0.47681 0.0
C633 C 0.78066 0.53577 0.51569 0.0
C634 C 0.76838 0.5273 0.48867 0.0
C635 C 0.7444 0.55186 0.44409 0.0
C636 C 0.73389 0.58455 0.42698 0.0
C637 C 0.76364 0.55878 0.46946 0.0
C638 C 0.7469 0.62364 0.4337 0.0
C639 C 0.76816 0.6305 0.45816 0.0
H640 H 0.0938 0.03531 0.74923 0.0
H641 H 0.21812 0.02532 0.77644 0.0
H642 H 0.23799 -0.00036 0.73102 0.0
H643 H 0.21777 0.96878 0.68687 0.0
H644 H 0.09227 0.97092 0.66245 0.0
H645 H 0.07507 0.01177 0.70311 0.0
C646 C 0.12546 0.02846 0.7451 0.0
C647 C 0.15434 0.03177 0.7664 0.0
C648 C 0.13633 0.01213 0.71934 0.0
C649 C 0.19518 0.02268 0.76056 0.0
C650 C 0.20655 0.0079 0.73459 0.0
C651 C 0.18701 0.97972 0.68999 0.0
C652 C 0.15635 0.96778 0.67162 0.0
C653 C 0.17711 0.00094 0.71424 0.0
C654 C 0.11632 0.98064 0.67613 0.0
C655 C 0.1065 0.0035 0.69953 0.0
H656 H 0.69757 0.34117 0.01056 0.0
H657 H 0.69754 0.46851 0.0305 0.0
H658 H 0.72481 0.48405 0.9847 0.0
H659 H 0.75905 0.46046 0.94236 0.0
H660 H 0.76668 0.33286 0.92521 0.0
H661 H 0.72539 0.3182 0.96625 0.0
C662 C 0.7025 0.37245 0.00469 0.0
C663 C 0.69576 0.40364 0.02406 0.0
C664 C 0.71983 0.38097 0.9788 0.0
C665 C 0.7027 0.44393 0.01609 0.0
C666 C 0.71842 0.45281 0.98992 0.0
C667 C 0.75028 0.42961 0.94718 0.0
C668 C 0.76495 0.39773 0.93071 0.0
C669 C 0.72857 0.42147 0.97156 0.0
C670 C 0.75485 0.35775 0.93741 0.0
C671 C 0.73168 0.34945 0.96099 0.0
H672 H 0.27277 0.01942 0.18782 0.0
H673 H 0.39794 0.00744 0.16337 0.0
H674 H 0.41208 0.96789 0.20514 0.0
H675 H 0.39108 0.94678 0.2516 0.0
H676 H 0.2671 0.96522 0.27811 0.0
H677 H 0.25002 -0.0082 0.2325 0.0
C678 C 0.30273 0.00667 0.19121 0.0
C679 C 0.33414 0.01531 0.17237 0.0
C680 C 0.31094 0.98598 0.21594 0.0
C681 C 0.3732 0.00015 0.17729 0.0
C682 C 0.38131 0.97808 0.20135 0.0
C683 C 0.36007 0.95584 0.24734 0.0
C684 C 0.33052 0.95435 0.26853 0.0
C685 C 0.35077 0.97229 0.22133 0.0
C686 C 0.29056 0.96627 0.2624 0.0
C687 C 0.28078 0.98156 0.23629 0.0
H688 H 0.25218 0.44271 0.57978 0.0
H689 H 0.27071 0.31464 0.59019 0.0
H690 H 0.23262 0.30124 0.54776 0.0
H691 H 0.2045 0.32663 0.50433 0.0
H692 H 0.1946 0.45533 0.49077 0.0
H693 H 0.21849 0.46802 0.53779 0.0
C694 C 0.2464 0.41184 0.57322 0.0
C695 C 0.26325 0.37956 0.58827 0.0
C696 C 0.22684 0.40468 0.5479 0.0
C697 C 0.25716 0.33976 0.57917 0.0
C698 C 0.23584 0.33222 0.55477 0.0
C699 C 0.20662 0.35749 0.51182 0.0
C700 C 0.1979 0.39002 0.49393 0.0
C701 C 0.22206 0.36454 0.53841 0.0
C702 C 0.20129 0.42977 0.504 0.0
C703 C 0.21504 0.43702 0.53088 0.0
H704 H 0.79094 0.9448 0.24297 0.0
H705 H 0.92205 0.94093 0.23932 0.0
H706 H 0.92616 0.96155 0.28709 0.0
H707 H 0.89335 -0.0074 0.32736 0.0
H708 H 0.76303 -0.00674 0.33338 0.0
H709 H 0.75787 0.96118 0.28795 0.0
C710 C 0.82032 0.94761 0.2528 0.0
C711 C 0.85598 0.94228 0.23706 0.0
C712 C 0.8228 0.95903 0.2809 0.0
C713 C 0.89385 0.94537 0.25049 0.0
C714 C 0.89644 0.95726 0.278 0.0
C715 C 0.86396 0.98384 0.31927 0.0
C716 C 0.82873 -0.00503 0.33367 0.0
C717 C 0.86124 0.96574 0.29308 0.0
C718 C 0.79067 0.9842 0.32284 0.0
C719 C 0.78768 0.96654 0.2966 0.0
H720 H 0.22074 0.64365 0.08064 0.0
H721 H 0.23196 0.51447 0.08844 0.0
H722 H 0.26764 0.51097 0.04399 0.0
H723 H 0.28622 0.54427 0.99953 0.0
H724 H 0.2776 0.67458 0.99425 0.0
H725 H 0.25117 0.67789 0.04081 0.0
C726 C 0.23264 0.61503 0.07313 0.0
C727 C 0.22426 0.57951 0.08783 0.0
C728 C 0.25287 0.61326 0.04755 0.0
C729 C 0.23895 0.54238 0.07769 0.0
C730 C 0.25875 0.54029 0.05204 0.0
C731 C 0.27923 0.57336 0.00876 0.0
C732 C 0.28332 0.60891 0.99293 0.0
C733 C 0.2644 0.57543 0.03619 0.0
C734 C 0.2746 0.64646 0.00556 0.0
C735 C 0.2593 0.64858 0.03235 0.0
H736 H 0.58621 0.04224 0.75189 0.0
H737 H 0.71417 0.03388 0.73305 0.0
H738 H 0.72816 0.01487 0.78083 0.0
H739 H 0.70269 0.98851 0.8251 0.0
H740 H 0.57432 0.98887 0.84179 0.0
H741 H 0.5618 0.02439 0.79823 0.0
C742 C 0.61732 0.03716 0.7583 0.0
C743 C 0.64902 0.03894 0.73865 0.0
C744 C 0.62499 0.02487 0.78561 0.0
C745 C 0.68909 0.0323 0.74753 0.0
C746 C 0.69713 0.02138 0.7749 0.0
C747 C 0.67222 -0.00175 0.81974 0.0
C748 C 0.6395 0.98708 0.83683 0.0
C749 C 0.66517 0.01601 0.7938 0.0
C750 C 0.59997 -0.00178 0.82928 0.0
C751 C 0.59283 0.01783 0.80413 0.0
H752 H 0.43029 0.21913 0.15593 0.0
H753 H 0.43182 0.19565 0.06832 0.0
H754 H 0.4943 0.23501 0.06342 0.0
H755 H 0.54772 0.277 0.08404 0.0
H756 H 0.54362 0.30309 0.17148 0.0
H757 H 0.48249 0.26246 0.17628 0.0
C758 C 0.44469 0.22215 0.13585 0.0
C759 C 0.42695 0.20414 0.11258 0.0
C760 C 0.4797 0.24588 0.13306 0.0
C761 C 0.44523 0.20907 0.08655 0.0
C762 C 0.48076 0.23172 0.08372 0.0
C763 C 0.5333 0.27411 0.10411 0.0
C764 C 0.5504 0.29311 0.12732 0.0
C765 C 0.49804 0.25061 0.10681 0.0
C766 C 0.53119 0.28894 0.15318 0.0
C767 C 0.49631 0.26547 0.15603 0.0
H768 H 0.52066 0.67767 0.33201 0.0
H769 H 0.55589 0.69385 0.41724 0.0
H770 H 0.51485 0.7549 0.42012 0.0
H771 H 0.46788 0.80265 0.39916 0.0
H772 H 0.43466 0.78983 0.31351 0.0
H773 H 0.47567 0.72796 0.31018 0.0
C774 C 0.51965 0.69473 0.35114 0.0
C775 C 0.54122 0.68099 0.37439 0.0
C776 C 0.49592 0.72998 0.35272 0.0
C777 C 0.53969 0.70363 0.39898 0.0
C778 C 0.51601 0.73846 0.40074 0.0
C779 C 0.46919 0.78606 0.37983 0.0
C780 C 0.44778 0.80022 0.35674 0.0
C781 C 0.49363 0.75155 0.37789 0.0
C782 C 0.45064 0.77914 0.33162 0.0
C783 C 0.47418 0.74397 0.3297 0.0
H784 H 0.93327 0.7121 0.65391 0.0
H785 H 0.9354 0.67866 0.56783 0.0
H786 H -0.00177 0.71697 0.56113 0.0
H787 H 0.05261 0.75992 0.57996 0.0
H788 H 0.04753 0.79582 0.66576 0.0
H789 H 0.98551 0.75722 0.67213 0.0
C790 C 0.94777 0.71285 0.63376 0.0
C791 C 0.93019 0.69218 0.6115 0.0
C792 C 0.98305 0.73585 0.6299 0.0
C793 C 0.94865 0.69417 0.58533 0.0
C794 C 0.98443 0.71618 0.58147 0.0
C795 C 0.03774 0.75964 0.59998 0.0
C796 C 0.05498 0.7807 0.62231 0.0
C797 C 0.00183 0.73731 0.6036 0.0
C798 C 0.03513 0.77997 0.64812 0.0
C799 C -0.00032 0.75768 0.65189 0.0
H800 H 0.96942 0.3058 0.83399 0.0
H801 H 0.94751 0.29903 0.9219 0.0
H802 H 0.98798 0.23729 0.92445 0.0
H803 H 0.02934 0.18521 0.90184 0.0
H804 H 0.04928 0.19032 0.81377 0.0
H805 H 0.01036 0.25332 0.81129 0.0
C806 C 0.97324 0.29076 0.85372 0.0
C807 C 0.95532 0.30713 0.87771 0.0
C808 C -0.00334 0.25531 0.85508 0.0
C809 C 0.96074 0.28712 0.90307 0.0
C810 C 0.9841 0.2519 0.90459 0.0
C811 C 0.02571 0.20042 0.88215 0.0
C812 C 0.04253 0.18336 0.85806 0.0
C813 C 0.00238 0.23589 0.88077 0.0
C814 C 0.03681 0.20298 0.83263 0.0
C815 C 0.0144 0.23886 0.83118 0.0
H816 H 0.5775 0.73127 0.89441 0.0
H817 H 0.51545 0.84512 0.88375 0.0
H818 H 0.44969 0.81066 0.88667 0.0
H819 H 0.41032 0.74788 0.8912 0.0
H820 H 0.4723 0.63323 0.89598 0.0
H821 H 0.53812 0.66807 0.89652 0.0
C822 C 0.54946 0.74842 0.89293 0.0
C823 C 0.55088 0.79055 0.88924 0.0
C824 C 0.51211 0.72825 0.89355 0.0
C825 C 0.51472 0.81263 0.88669 0.0
C826 C 0.47731 0.79298 0.88838 0.0
C827 C 0.43836 0.73072 0.89258 0.0
C828 C 0.43699 0.68835 0.894 0.0
C829 C 0.47571 0.75082 0.8917 0.0
C830 C 0.4731 0.66597 0.89509 0.0
C831 C 0.5105 0.68585 0.89537 0.0
H832 H 0.47391 0.30019 0.61097 0.0
H833 H 0.4429 0.29127 0.69732 0.0
H834 H 0.48353 0.22929 0.70123 0.0
H835 H 0.52704 0.17728 0.67966 0.0
H836 H 0.56053 0.18936 0.59369 0.0
H837 H 0.52036 0.25096 0.59026 0.0
C838 C 0.47575 0.28443 0.63058 0.0
C839 C 0.45494 0.2997 0.65371 0.0
C840 C 0.50003 0.24975 0.63283 0.0
C841 C 0.45843 0.27973 0.67919 0.0
C842 C 0.48173 0.24446 0.68143 0.0
C843 C 0.52589 0.19359 0.66025 0.0
C844 C 0.54668 0.17846 0.63695 0.0
C845 C 0.50269 0.2292 0.65836 0.0
C846 C 0.54498 0.2002 0.612 0.0
C847 C 0.52175 0.23535 0.60993 0.0
H848 H 0.07535 0.23472 0.39369 0.0
H849 H 0.01215 0.34875 0.39828 0.0
H850 H 0.94665 0.3133 0.39739 0.0
H851 H 0.90794 0.24982 0.39435 0.0
H852 H 0.9713 0.13647 0.38431 0.0
H853 H 0.03663 0.17155 0.38816 0.0
C854 C 0.04709 0.25161 0.39472 0.0
C855 C 0.04806 0.294 0.39654 0.0
C856 C 0.00994 0.23115 0.39307 0.0
C857 C 0.0117 0.31601 0.39715 0.0
C858 C 0.97447 0.29578 0.39659 0.0
C859 C 0.93613 0.23286 0.39317 0.0
C860 C 0.93512 0.19068 0.38941 0.0
C861 C 0.97329 0.25338 0.39445 0.0
C862 C 0.9716 0.16897 0.38727 0.0
C863 C 0.00879 0.18898 0.38952 0.0
H864 H 0.01217 0.68255 0.10273 0.0
H865 H 0.06609 0.7086 0.18177 0.0
H866 H 0.02651 0.7711 0.18519 0.0
H867 H 0.97462 0.81637 0.16672 0.0
H868 H 0.91774 0.78881 0.0887 0.0
H869 H 0.9598 0.72822 0.08417 0.0
C870 C 0.01581 0.70245 0.12038 0.0
C871 C 0.04233 0.69156 0.14178 0.0
C872 C 0.99176 0.7374 0.12269 0.0
C873 C 0.04607 0.71679 0.16495 0.0
C874 C 0.02325 0.75226 0.167 0.0
C875 C 0.97118 0.79707 0.14876 0.0
C876 C 0.94292 0.80714 0.12814 0.0
C877 C -0.0045 0.76244 0.14623 0.0
C878 C 0.939 0.78168 0.10501 0.0
C879 C 0.96328 0.74718 0.10228 0.0
H880 H 0.26898 0.30138 0.11841 0.0
H881 H 0.15782 0.25287 0.08532 0.0
H882 H 0.12259 0.31623 0.09577 0.0
H883 H 0.12227 0.38269 0.11735 0.0
H884 H 0.23242 0.43093 0.1525 0.0
H885 H 0.26917 0.36978 0.13866 0.0
C886 C 0.23733 0.3052 0.11284 0.0
C887 C 0.21598 0.27292 0.10085 0.0
C888 C 0.21695 0.34104 0.11995 0.0
C889 C 0.17478 0.27762 0.09434 0.0
C890 C 0.15461 0.31359 0.10055 0.0
C891 C 0.1543 0.37993 0.12213 0.0
C892 C 0.17445 0.41122 0.13621 0.0
C893 C 0.17516 0.345 0.11401 0.0
C894 C 0.21607 0.40714 0.14192 0.0
C895 C 0.23716 0.37232 0.13385 0.0
H896 H 0.32128 0.46799 0.37086 0.0
H897 H 0.36533 0.35047 0.39549 0.0
H898 H 0.43477 0.37055 0.38465 0.0
H899 H 0.4826 0.4211 0.36878 0.0
H900 H 0.44042 0.53928 0.34395 0.0
H901 H 0.37019 0.51877 0.35303 0.0
C902 C 0.34632 0.44721 0.37423 0.0
C903 C 0.33867 0.40816 0.3844 0.0
C904 C 0.3861 0.45861 0.36721 0.0
C905 C 0.37088 0.38086 0.38798 0.0
C906 C 0.41041 0.39217 0.38157 0.0
C907 C 0.45806 0.44233 0.36502 0.0
C908 C 0.46671 0.4817 0.35588 0.0
C909 C 0.41828 0.43082 0.37106 0.0
C910 C 0.43453 0.50866 0.35081 0.0
C911 C 0.39445 0.49714 0.35639 0.0
H912 H 0.20192 0.67653 0.61136 0.0
H913 H 0.30344 0.71689 0.56243 0.0
H914 H 0.33739 0.65173 0.56906 0.0
H915 H 0.34235 0.58811 0.59436 0.0
H916 H 0.2432 0.54929 0.64649 0.0
H917 H 0.20417 0.60923 0.63329 0.0
C918 C 0.23069 0.67022 0.60124 0.0
C919 C 0.25 0.70082 0.586 0.0
C920 C 0.25096 0.63364 0.60655 0.0
C921 C 0.28787 0.69323 0.57374 0.0
C922 C 0.30747 0.65631 0.57792 0.0
C923 C 0.31214 0.59258 0.60282 0.0
C924 C 0.29607 0.56463 0.62184 0.0
C925 C 0.29007 0.62709 0.59529 0.0
C926 C 0.25654 0.57059 0.6321 0.0
C927 C 0.23413 0.60477 0.62448 0.0
H928 H 0.04617 0.4554 0.86605 0.0
H929 H 0.00456 0.55931 0.82031 0.0
H930 H 0.0703 0.59223 0.82675 0.0
H931 H 0.136 0.59424 0.84937 0.0
H932 H 0.17662 0.49271 0.89826 0.0
H933 H 0.11432 0.45608 0.88693 0.0
C934 C 0.0521 0.48471 0.85679 0.0
C935 C 0.02109 0.50485 0.84239 0.0
C936 C 0.08914 0.5042 0.86182 0.0
C937 C 0.02838 0.54325 0.83116 0.0
C938 C 0.06569 0.56216 0.83511 0.0
C939 C 0.13146 0.56404 0.85758 0.0
C940 C 0.16079 0.54644 0.87493 0.0
C941 C 0.0957 0.54344 0.85116 0.0
C942 C 0.15435 0.50716 0.88511 0.0
C943 C 0.11886 0.48613 0.87852 0.0
H944 H 0.71391 0.69466 0.89322 0.0
H945 H 0.82954 0.75384 0.90368 0.0
H946 H 0.86458 0.68927 0.89731 0.0
H947 H 0.86247 0.61739 0.88647 0.0
H948 H 0.7473 0.55798 0.87389 0.0
H949 H 0.71182 0.62174 0.88301 0.0
C950 C 0.74674 0.69324 0.89462 0.0
C951 C 0.76918 0.7288 0.89914 0.0
C952 C 0.76669 0.6563 0.89005 0.0
C953 C 0.8117 0.72677 0.90034 0.0
C954 C 0.83171 0.68997 0.89655 0.0
C955 C 0.82958 0.6182 0.8857 0.0
C956 C 0.80758 0.58292 0.8794 0.0
C957 C 0.80952 0.65476 0.89091 0.0
C958 C 0.76499 0.58473 0.87849 0.0
C959 C 0.74469 0.62111 0.88385 0.0
H960 H 0.6257 0.59923 0.65731 0.0
H961 H 0.67747 0.48577 0.63013 0.0
H962 H 0.61423 0.45104 0.64205 0.0
H963 H 0.54266 0.45407 0.65705 0.0
H964 H 0.49034 0.56868 0.68071 0.0
H965 H 0.55598 0.6018 0.67404 0.0
C966 C 0.6234 0.56684 0.65405 0.0
C967 C 0.65627 0.54521 0.6426 0.0
C968 C 0.587 0.54727 0.66066 0.0
C969 C 0.65256 0.50324 0.63865 0.0
C970 C 0.61648 0.48334 0.64559 0.0
C971 C 0.54605 0.48607 0.66149 0.0
C972 C 0.51207 0.50896 0.66972 0.0
C973 C 0.58336 0.50516 0.65632 0.0
C974 C 0.51633 0.55056 0.67465 0.0
C975 C 0.55368 0.56948 0.67059 0.0
H976 H 0.77159 0.28711 0.39024 0.0
H977 H 0.65568 0.22976 0.4038 0.0
H978 H 0.62131 0.29498 0.39841 0.0
H979 H 0.62429 0.36736 0.38826 0.0
H980 H 0.73996 0.4241 0.37206 0.0
H981 H 0.77448 0.35956 0.37959 0.0
C982 C 0.73886 0.28907 0.3925 0.0
C983 C 0.71611 0.25398 0.39779 0.0
C984 C 0.71934 0.32623 0.38839 0.0
C985 C 0.6737 0.25657 0.39995 0.0
C986 C 0.6541 0.29371 0.39671 0.0
C987 C 0.65707 0.36567 0.38634 0.0
C988 C 0.67954 0.40047 0.37963 0.0
C989 C 0.67661 0.32858 0.39058 0.0
C990 C 0.72194 0.39768 0.37702 0.0
C991 C 0.74171 0.36089 0.38151 0.0
H992 H 0.81684 0.47748 0.14549 0.0
H993 H 0.86709 0.36233 0.12045 0.0
H994 H 0.93461 0.38449 0.13363 0.0
H995 H 0.97908 0.43535 0.15251 0.0
H996 H 0.93158 0.55201 0.17665 0.0
H997 H 0.86294 0.53 0.1643 0.0
C998 C 0.84274 0.45761 0.14258 0.0
C999 C 0.83708 0.4184 0.13198 0.0
C1000 C 0.88168 0.47036 0.1506 0.0
C1001 C 0.87072 0.39264 0.12862 0.0
C1002 C 0.9093 0.40516 0.13628 0.0
C1003 C 0.95377 0.45597 0.15551 0.0
C1004 C 0.96045 0.49517 0.16571 0.0
C1005 C 0.915 0.44367 0.14759 0.0
C1006 C 0.9272 0.5215 0.16904 0.0
C1007 C 0.88804 0.50907 0.16174 0.0
H1008 H 0.77431 0.78388 0.6119 0.0
H1009 H 0.66231 0.7341 0.58124 0.0
H1010 H 0.62842 0.79934 0.58804 0.0
H1011 H 0.6293 0.86795 0.60661 0.0
H1012 H 0.74003 0.91666 0.64061 0.0
H1013 H 0.77574 0.85396 0.62909 0.0
C1014 C 0.74282 0.78783 0.60594 0.0
C1015 C 0.72084 0.75475 0.59564 0.0
C1016 C 0.72314 0.8247 0.61127 0.0
C1017 C 0.67977 0.75953 0.58882 0.0
C1018 C 0.66037 0.79659 0.593 0.0
C1019 C 0.66127 0.86501 0.61152 0.0
C1020 C 0.68185 0.89689 0.62468 0.0
C1021 C 0.68149 0.82895 0.60497 0.0
C1022 C 0.72332 0.89245 0.63077 0.0
C1023 C 0.74383 0.85672 0.62401 0.0
H1024 H 0.8317 0.91816 0.83236 0.0
H1025 H 0.81084 0.98795 0.9065 0.0
H1026 H 0.87341 0.02586 0.89797 0.0
H1027 H 0.93808 0.03244 0.8728 0.0
H1028 H 0.9604 0.96009 0.80034 0.0
H1029 H 0.89245 0.93033 0.80433 0.0
C1030 C 0.84066 0.94185 0.8466 0.0
C1031 C 0.81717 0.94966 0.87039 0.0
C1032 C 0.87663 0.96319 0.84165 0.0
C1033 C 0.82865 0.98108 0.88824 0.0
C1034 C 0.86437 0.00274 0.88335 0.0
C1035 C 0.92725 0.01127 0.85735 0.0
C1036 C 0.95342 -0.00123 0.83603 0.0
C1037 C 0.88907 -0.00674 0.86055 0.0
C1038 C 0.9401 0.97061 0.81647 0.0
C1039 C 0.90161 0.95327 0.81904 0.0
H1040 H 0.83183 0.10193 0.09148 0.0
H1041 H 0.74191 0.06591 0.15172 0.0
H1042 H 0.70307 0.12756 0.14229 0.0
H1043 H 0.69862 0.19473 0.12027 0.0
H1044 H 0.79173 0.23212 0.06314 0.0
H1045 H 0.82489 0.16605 0.06725 0.0
C1046 C 0.80368 0.10735 0.10257 0.0
C1047 C 0.79016 0.07961 0.12264 0.0
C1048 C 0.78181 0.14278 0.0972 0.0
C1049 C 0.75328 0.08699 0.13644 0.0
C1050 C 0.73098 0.12212 0.13096 0.0
C1051 C 0.72531 0.18762 0.10798 0.0
C1052 C 0.74243 0.21746 0.09094 0.0
C1053 C 0.74533 0.15052 0.11172 0.0
C1054 C 0.77778 0.20898 0.07585 0.0
C1055 C 0.79695 0.17154 0.07853 0.0
H1056 H 0.53763 0.9647 0.38481 0.0
H1057 H 0.52389 0.01223 0.30257 0.0
H1058 H 0.59258 0.04115 0.30473 0.0
H1059 H 0.65262 0.05902 0.33239 0.0
H1060 H 0.66521 0.01145 0.41499 0.0
H1061 H 0.60061 0.97597 0.41035 0.0
C1062 C 0.55025 0.98058 0.36714 0.0
C1063 C 0.52636 0.98651 0.34355 0.0
C1064 C 0.58901 -0.00252 0.36884 0.0
C1065 C 0.5423 0.00715 0.32074 0.0
C1066 C 0.58124 0.02393 0.32215 0.0
C1067 C 0.64132 0.04067 0.34931 0.0
C1068 C 0.66321 0.03843 0.37421 0.0
C1069 C 0.60425 0.02035 0.34646 0.0
C1070 C 0.64874 0.01388 0.39573 0.0
C1071 C 0.61184 -0.00636 0.3931 0.0
H1072 H 0.30818 0.22728 0.39878 0.0
H1073 H 0.18956 0.18251 0.42084 0.0
H1074 H 0.21253 0.11288 0.41218 0.0
H1075 H 0.26537 0.06568 0.39448 0.0
H1076 H 0.38268 0.11328 0.37131 0.0
H1077 H 0.36067 0.18125 0.38344 0.0
C1078 C 0.28742 0.20225 0.40206 0.0
C1079 C 0.24723 0.20988 0.41022 0.0
C1080 C 0.3003 0.16301 0.3961 0.0
C1081 C 0.22079 0.17725 0.41475 0.0
C1082 C 0.23374 0.13758 0.40939 0.0
C1083 C 0.28583 0.09108 0.39186 0.0
C1084 C 0.3254 0.08464 0.38173 0.0
C1085 C 0.27313 0.13026 0.39925 0.0
C1086 C 0.35201 0.11756 0.37895 0.0
C1087 C 0.33958 0.15638 0.38602 0.0
H1088 H 0.03954 0.96469 0.13992 0.0
H1089 H 0.98336 0.07689 0.16504 0.0
H1090 H 0.04855 0.11163 0.16105 0.0
H1091 H 0.11948 0.11114 0.147 0.0
H1092 H 0.17545 0.00029 0.11866 0.0
H1093 H 0.11197 0.96386 0.12707 0.0
C1094 C 0.04188 -0.00346 0.1451 0.0
C1095 C 0.007 0.01828 0.15299 0.0
C1096 C 0.07905 0.01658 0.14166 0.0
C1097 C 0.01 0.05967 0.15906 0.0
C1098 C 0.04712 0.07951 0.15662 0.0
C1099 C 0.11802 0.07894 0.14276 0.0
C1100 C 0.15213 0.0585 0.13207 0.0
C1101 C 0.08153 0.05846 0.14731 0.0
C1102 C 0.14953 0.01681 0.12667 0.0
C1103 C 0.11333 -0.00405 0.13159 0.0
H1104 H 0.20794 0.90857 0.8874 0.0
H1105 H 0.09257 0.86082 0.86107 0.0
H1106 H 0.1157 0.79207 0.87106 0.0
H1107 H 0.16886 0.74583 0.88649 0.0
H1108 H 0.28386 0.79339 0.91411 0.0
H1109 H 0.2602 0.86218 0.90514 0.0
C1110 C 0.18811 0.88301 0.88359 0.0
C1111 C 0.14891 0.88948 0.87313 0.0
C1112 C 0.20121 0.84375 0.89007 0.0
C1113 C 0.12301 0.85637 0.86892 0.0
C1114 C 0.13613 0.81717 0.87474 0.0
C1115 C 0.18867 0.77121 0.89087 0.0
C1116 C 0.22815 0.76439 0.90083 0.0
C1117 C 0.17512 0.81055 0.88536 0.0
C1118 C 0.25326 0.79772 0.90652 0.0
C1119 C 0.23992 0.83707 0.90116 0.0
H1120 H 0.32554 0.95889 0.64094 0.0
H1121 H 0.37343 0.84102 0.62004 0.0
H1122 H 0.44121 0.86244 0.63317 0.0
H1123 H 0.48703 0.91426 0.64926 0.0
H1124 H 0.44191 0.03359 0.66889 0.0
H1125 H 0.37258 0.01141 0.65879 0.0
C1126 C 0.351 0.93821 0.63897 0.0
C1127 C 0.34464 0.8986 0.62929 0.0
C1128 C 0.3901 0.95058 0.64695 0.0
C1129 C 0.37763 0.87173 0.62735 0.0
C1130 C 0.41635 0.88382 0.635 0.0
C1131 C 0.46206 0.93544 0.65171 0.0
C1132 C 0.46974 0.97559 0.65962 0.0
C1133 C 0.42288 0.92305 0.64485 0.0
C1134 C 0.43686 0.0024 0.66295 0.0
C1135 C 0.39728 0.98991 0.65679 0.0
loop_
_geom_bond_atom_site_label_1
_geom_bond_atom_site_label_2
_geom_bond_distance
_geom_bond_site_symmetry_2
_ccdc_geom_bond_type
O0 Zn1 1.953 . S
O0 C16 1.225 . S
Zn1 O0 1.953 . S
Zn1 O2 1.949 . S
Zn1 O8 1.919 . S
Zn1 O13 1.924 . S
O2 Zn1 1.949 . S
O2 Zn3 1.923 . S
O2 Zn4 1.950 . S
O2 Zn5 1.945 . S
Zn3 O2 1.923 . S
Zn3 O6 1.933 . S
Zn3 O9 1.941 . S
Zn3 O10 1.965 . S
Zn4 O2 1.950 . S
Zn4 O11 1.938 . S
Zn4 O12 1.906 . S
Zn4 O22 1.953 . S
Zn5 O2 1.945 . S
Zn5 O7 1.932 . S
Zn5 O14 1.977 . S
Zn5 O15 1.910 . S
O6 Zn3 1.933 . S
O6 C17 1.226 . S
O7 Zn5 1.932 . S
O7 C17 1.307 . S
O8 Zn1 1.919 . S
O8 C19 1.253 . S
O9 Zn3 1.941 . S
O9 C19 1.283 . S
O10 Zn3 1.965 . S
O10 C18 1.303 . S
O11 Zn4 1.938 . S
O11 C18 1.247 . S
O12 Zn4 1.906 . S
O12 C20 1.304 . S
O13 Zn1 1.924 . S
O13 C21 1.311 . S
O14 Zn5 1.977 . S
O14 C20 1.272 . S
O15 Zn5 1.910 . S
O15 C21 1.231 . S
C16 O0 1.225 . S
C16 O22 1.298 . S
C17 O6 1.226 . S
C17 O7 1.307 . S
C18 O10 1.303 . S
C18 O11 1.247 . S
C19 O8 1.253 . S
C19 O9 1.283 . S
C20 O12 1.304 . S
C20 O14 1.272 . S
C21 O13 1.311 . S
C21 O15 1.231 . S
O22 Zn4 1.953 . S
O22 C16 1.298 . S
O23 Zn24 1.953 . S
O23 C39 1.225 . S
Zn24 O23 1.953 . S
Zn24 O25 1.949 . S
Zn24 O31 1.919 . S
Zn24 O36 1.924 . S
O25 Zn24 1.949 . S
O25 Zn26 1.923 . S
O25 Zn27 1.950 . S
O25 Zn28 1.945 . S
Zn26 O25 1.923 . S
Zn26 O29 1.933 . S
Zn26 O32 1.941 . S
Zn26 O33 1.965 . S
Zn27 O25 1.950 . S
Zn27 O34 1.938 . S
Zn27 O35 1.906 . S
Zn27 O45 1.953 . S
Zn28 O25 1.945 . S
Zn28 O30 1.932 . S
Zn28 O37 1.977 . S
Zn28 O38 1.910 . S
O29 Zn26 1.933 . S
O29 C40 1.226 . S
O30 Zn28 1.932 . S
O30 C40 1.307 . S
O31 Zn24 1.919 . S
O31 C42 1.253 . S
O32 Zn26 1.941 . S
O32 C42 1.283 . S
O33 Zn26 1.965 . S
O33 C41 1.303 . S
O34 Zn27 1.938 . S
O34 C41 1.247 . S
O35 Zn27 1.906 . S
O35 C43 1.304 . S
O36 Zn24 1.924 . S
O36 C44 1.311 . S
O37 Zn28 1.977 . S
O37 C43 1.272 . S
O38 Zn28 1.910 . S
O38 C44 1.231 . S
C39 O23 1.225 . S
C39 O45 1.298 . S
C40 O29 1.226 . S
C40 O30 1.307 . S
C41 O33 1.303 . S
C41 O34 1.247 . S
C42 O31 1.253 . S
C42 O32 1.283 . S
C43 O35 1.304 . S
C43 O37 1.272 . S
C44 O36 1.311 . S
C44 O38 1.231 . S
O45 Zn27 1.953 . S
O45 C39 1.298 . S
O46 Zn47 1.953 . S
O46 C62 1.225 . S
Zn47 O46 1.953 . S
Zn47 O48 1.949 . S
Zn47 O54 1.919 . S
Zn47 O59 1.924 . S
O48 Zn47 1.949 . S
O48 Zn49 1.923 . S
O48 Zn50 1.950 . S
O48 Zn51 1.945 . S
Zn49 O48 1.923 . S
Zn49 O52 1.933 . S
Zn49 O55 1.941 . S
Zn49 O56 1.965 . S
Zn50 O48 1.950 . S
Zn50 O57 1.938 . S
Zn50 O58 1.906 . S
Zn50 O68 1.953 . S
Zn51 O48 1.945 . S
Zn51 O53 1.932 . S
Zn51 O60 1.977 . S
Zn51 O61 1.910 . S
O52 Zn49 1.933 . S
O52 C63 1.226 . S
O53 Zn51 1.932 . S
O53 C63 1.307 . S
O54 Zn47 1.919 . S
O54 C65 1.253 . S
O55 Zn49 1.941 . S
O55 C65 1.283 . S
O56 Zn49 1.965 . S
O56 C64 1.303 . S
O57 Zn50 1.938 . S
O57 C64 1.247 . S
O58 Zn50 1.906 . S
O58 C66 1.304 . S
O59 Zn47 1.924 . S
O59 C67 1.311 . S
O60 Zn51 1.977 . S
O60 C66 1.272 . S
O61 Zn51 1.910 . S
O61 C67 1.231 . S
C62 O46 1.225 . S
C62 O68 1.298 . S
C63 O52 1.226 . S
C63 O53 1.307 . S
C64 O56 1.303 . S
C64 O57 1.247 . S
C65 O54 1.253 . S
C65 O55 1.283 . S
C66 O58 1.304 . S
C66 O60 1.272 . S
C67 O59 1.311 . S
C67 O61 1.231 . S
O68 Zn50 1.953 . S
O68 C62 1.298 . S
O69 Zn70 1.953 . S
O69 C85 1.225 . S
Zn70 O69 1.953 . S
Zn70 O71 1.949 . S
Zn70 O77 1.919 . S
Zn70 O82 1.924 . S
O71 Zn70 1.949 . S
O71 Zn72 1.923 . S
O71 Zn73 1.950 . S
O71 Zn74 1.945 . S
Zn72 O71 1.923 . S
Zn72 O75 1.933 . S
Zn72 O78 1.941 . S
Zn72 O79 1.965 . S
Zn73 O71 1.950 . S
Zn73 O80 1.938 . S
Zn73 O81 1.906 . S
Zn73 O91 1.953 . S
Zn74 O71 1.945 . S
Zn74 O76 1.932 . S
Zn74 O83 1.977 . S
Zn74 O84 1.910 . S
O75 Zn72 1.933 . S
O75 C86 1.226 . S
O76 Zn74 1.932 . S
O76 C86 1.307 . S
O77 Zn70 1.919 . S
O77 C88 1.253 . S
O78 Zn72 1.941 . S
O78 C88 1.283 . S
O79 Zn72 1.965 . S
O79 C87 1.303 . S
O80 Zn73 1.938 . S
O80 C87 1.247 . S
O81 Zn73 1.906 . S
O81 C89 1.304 . S
O82 Zn70 1.924 . S
O82 C90 1.311 . S
O83 Zn74 1.977 . S
O83 C89 1.272 . S
O84 Zn74 1.910 . S
O84 C90 1.231 . S
C85 O69 1.225 . S
C85 O91 1.298 . S
C86 O75 1.226 . S
C86 O76 1.307 . S
C87 O79 1.303 . S
C87 O80 1.247 . S
C88 O77 1.253 . S
C88 O78 1.283 . S
C89 O81 1.304 . S
C89 O83 1.272 . S
C90 O82 1.311 . S
C90 O84 1.231 . S
O91 Zn73 1.953 . S
O91 C85 1.298 . S
O92 Zn93 1.953 . S
O92 C108 1.225 . S
Zn93 O92 1.953 . S
Zn93 O94 1.949 . S
Zn93 O100 1.919 . S
Zn93 O105 1.924 . S
O94 Zn93 1.949 . S
O94 Zn95 1.923 . S
O94 Zn96 1.950 . S
O94 Zn97 1.945 . S
Zn95 O94 1.923 . S
Zn95 O98 1.933 . S
Zn95 O101 1.941 . S
Zn95 O102 1.965 . S
Zn96 O94 1.950 . S
Zn96 O103 1.938 . S
Zn96 O104 1.906 . S
Zn96 O114 1.953 . S
Zn97 O94 1.945 . S
Zn97 O99 1.932 . S
Zn97 O106 1.977 . S
Zn97 O107 1.910 . S
O98 Zn95 1.933 . S
O98 C109 1.226 . S
O99 Zn97 1.932 . S
O99 C109 1.307 . S
O100 Zn93 1.919 . S
O100 C111 1.253 . S
O101 Zn95 1.941 . S
O101 C111 1.283 . S
O102 Zn95 1.965 . S
O102 C110 1.303 . S
O103 Zn96 1.938 . S
O103 C110 1.247 . S
O104 Zn96 1.906 . S
O104 C112 1.304 . S
O105 Zn93 1.924 . S
O105 C113 1.311 . S
O106 Zn97 1.977 . S
O106 C112 1.272 . S
O107 Zn97 1.910 . S
O107 C113 1.231 . S
C108 O92 1.225 . S
C108 O114 1.298 . S
C109 O98 1.226 . S
C109 O99 1.307 . S
C110 O102 1.303 . S
C110 O103 1.247 . S
C111 O100 1.253 . S
C111 O101 1.283 . S
C112 O104 1.304 . S
C112 O106 1.272 . S
C113 O105 1.311 . S
C113 O107 1.231 . S
O114 Zn96 1.953 . S
O114 C108 1.298 . S
O115 Zn116 1.953 . S
O115 C131 1.225 . S
Zn116 O115 1.953 . S
Zn116 O117 1.949 . S
Zn116 O123 1.919 . S
Zn116 O128 1.924 . S
O117 Zn116 1.949 . S
O117 Zn118 1.923 . S
O117 Zn119 1.950 . S
O117 Zn120 1.945 . S
Zn118 O117 1.923 . S
Zn118 O121 1.933 . S
Zn118 O124 1.941 . S
Zn118 O125 1.965 . S
Zn119 O117 1.950 . S
Zn119 O126 1.938 . S
Zn119 O127 1.906 . S
Zn119 O137 1.953 . S
Zn120 O117 1.945 . S
Zn120 O122 1.932 . S
Zn120 O129 1.977 . S
Zn120 O130 1.910 . S
O121 Zn118 1.933 . S
O121 C132 1.226 . S
O122 Zn120 1.932 . S
O122 C132 1.307 . S
O123 Zn116 1.919 . S
O123 C134 1.253 . S
O124 Zn118 1.941 . S
O124 C134 1.283 . S
O125 Zn118 1.965 . S
O125 C133 1.303 . S
O126 Zn119 1.938 . S
O126 C133 1.247 . S
O127 Zn119 1.906 . S
O127 C135 1.304 . S
O128 Zn116 1.924 . S
O128 C136 1.311 . S
O129 Zn120 1.977 . S
O129 C135 1.272 . S
O130 Zn120 1.910 . S
O130 C136 1.231 . S
C131 O115 1.225 . S
C131 O137 1.298 . S
C132 O121 1.226 . S
C132 O122 1.307 . S
C133 O125 1.303 . S
C133 O126 1.247 . S
C134 O123 1.253 . S
C134 O124 1.283 . S
C135 O127 1.304 . S
C135 O129 1.272 . S
C136 O128 1.311 . S
C136 O130 1.231 . S
O137 Zn119 1.953 . S
O137 C131 1.298 . S
O138 Zn139 1.953 . S
O138 C154 1.225 . S
Zn139 O138 1.953 . S
Zn139 O140 1.949 . S
Zn139 O146 1.919 . S
Zn139 O151 1.924 . S
O140 Zn139 1.949 . S
O140 Zn141 1.923 . S
O140 Zn142 1.950 . S
O140 Zn143 1.945 . S
Zn141 O140 1.923 . S
Zn141 O144 1.933 . S
Zn141 O147 1.941 . S
Zn141 O148 1.965 . S
Zn142 O140 1.950 . S
Zn142 O149 1.938 . S
Zn142 O150 1.906 . S
Zn142 O160 1.953 . S
Zn143 O140 1.945 . S
Zn143 O145 1.932 . S
Zn143 O152 1.977 . S
Zn143 O153 1.910 . S
O144 Zn141 1.933 . S
O144 C155 1.226 . S
O145 Zn143 1.932 . S
O145 C155 1.307 . S
O146 Zn139 1.919 . S
O146 C157 1.253 . S
O147 Zn141 1.941 . S
O147 C157 1.283 . S
O148 Zn141 1.965 . S
O148 C156 1.303 . S
O149 Zn142 1.938 . S
O149 C156 1.247 . S
O150 Zn142 1.906 . S
O150 C158 1.304 . S
O151 Zn139 1.924 . S
O151 C159 1.311 . S
O152 Zn143 1.977 . S
O152 C158 1.272 . S
O153 Zn143 1.910 . S
O153 C159 1.231 . S
C154 O138 1.225 . S
C154 O160 1.298 . S
C155 O144 1.226 . S
C155 O145 1.307 . S
C156 O148 1.303 . S
C156 O149 1.247 . S
C157 O146 1.253 . S
C157 O147 1.283 . S
C158 O150 1.304 . S
C158 O152 1.272 . S
C159 O151 1.311 . S
C159 O153 1.231 . S
O160 Zn142 1.953 . S
O160 C154 1.298 . S
O161 Zn162 1.953 . S
O161 C177 1.225 . S
Zn162 O161 1.953 . S
Zn162 O163 1.949 . S
Zn162 O169 1.919 . S
Zn162 O174 1.924 . S
O163 Zn162 1.949 . S
O163 Zn164 1.923 . S
O163 Zn165 1.950 . S
O163 Zn166 1.945 . S
Zn164 O163 1.923 . S
Zn164 O167 1.933 . S
Zn164 O170 1.941 . S
Zn164 O171 1.965 . S
Zn165 O163 1.950 . S
Zn165 O172 1.938 . S
Zn165 O173 1.906 . S
Zn165 O183 1.953 . S
Zn166 O163 1.945 . S
Zn166 O168 1.932 . S
Zn166 O175 1.977 . S
Zn166 O176 1.910 . S
O167 Zn164 1.933 . S
O167 C178 1.226 . S
O168 Zn166 1.932 . S
O168 C178 1.307 . S
O169 Zn162 1.919 . S
O169 C180 1.253 . S
O170 Zn164 1.941 . S
O170 C180 1.283 . S
O171 Zn164 1.965 . S
O171 C179 1.303 . S
O172 Zn165 1.938 . S
O172 C179 1.247 . S
O173 Zn165 1.906 . S
O173 C181 1.304 . S
O174 Zn162 1.924 . S
O174 C182 1.311 . S
O175 Zn166 1.977 . S
O175 C181 1.272 . S
O176 Zn166 1.910 . S
O176 C182 1.231 . S
C177 O161 1.225 . S
C177 O183 1.298 . S
C178 O167 1.226 . S
C178 O168 1.307 . S
C179 O171 1.303 . S
C179 O172 1.247 . S
C180 O169 1.253 . S
C180 O170 1.283 . S
C181 O173 1.304 . S
C181 O175 1.272 . S
C182 O174 1.311 . S
C182 O176 1.231 . S
O183 Zn165 1.953 . S
O183 C177 1.298 . S
O184 Zn185 1.953 . S
O184 C200 1.225 . S
Zn185 O184 1.953 . S
Zn185 O186 1.949 . S
Zn185 O192 1.919 . S
Zn185 O197 1.924 . S
O186 Zn185 1.949 . S
O186 Zn187 1.923 . S
O186 Zn188 1.950 . S
O186 Zn189 1.945 . S
Zn187 O186 1.923 . S
Zn187 O190 1.933 . S
Zn187 O193 1.941 . S
Zn187 O194 1.965 . S
Zn188 O186 1.950 . S
Zn188 O195 1.938 . S
Zn188 O196 1.906 . S
Zn188 O206 1.953 . S
Zn189 O186 1.945 . S
Zn189 O191 1.932 . S
Zn189 O198 1.977 . S
Zn189 O199 1.910 . S
O190 Zn187 1.933 . S
O190 C201 1.226 . S
O191 Zn189 1.932 . S
O191 C201 1.307 . S
O192 Zn185 1.919 . S
O192 C203 1.253 . S
O193 Zn187 1.941 . S
O193 C203 1.283 . S
O194 Zn187 1.965 . S
O194 C202 1.303 . S
O195 Zn188 1.938 . S
O195 C202 1.247 . S
O196 Zn188 1.906 . S
O196 C204 1.304 . S
O197 Zn185 1.924 . S
O197 C205 1.311 . S
O198 Zn189 1.977 . S
O198 C204 1.272 . S
O199 Zn189 1.910 . S
O199 C205 1.231 . S
C200 O184 1.225 . S
C200 O206 1.298 . S
C201 O190 1.226 . S
C201 O191 1.307 . S
C202 O194 1.303 . S
C202 O195 1.247 . S
C203 O192 1.253 . S
C203 O193 1.283 . S
C204 O196 1.304 . S
C204 O198 1.272 . S
C205 O197 1.311 . S
C205 O199 1.231 . S
O206 Zn188 1.953 . S
O206 C200 1.298 . S
O207 Zn208 1.953 1_545 S
O207 C223 1.225 . S
Zn208 O207 1.953 1_565 S
Zn208 O209 1.949 1_565 S
Zn208 O215 1.919 . S
Zn208 O220 1.924 . S
O209 Zn208 1.949 1_545 S
O209 Zn210 1.923 . S
O209 Zn211 1.950 . S
O209 Zn212 1.945 . S
Zn210 O209 1.923 . S
Zn210 O213 1.933 . S
Zn210 O216 1.941 1_545 S
Zn210 O217 1.965 . S
Zn211 O209 1.950 . S
Zn211 O218 1.938 . S
Zn211 O219 1.906 . S
Zn211 O229 1.953 . S
Zn212 O209 1.945 . S
Zn212 O214 1.932 . S
Zn212 O221 1.977 . S
Zn212 O222 1.910 . S
O213 Zn210 1.933 . S
O213 C224 1.226 . S
O214 Zn212 1.932 . S
O214 C224 1.307 . S
O215 Zn208 1.919 . S
O215 C226 1.253 . S
O216 Zn210 1.941 1_565 S
O216 C226 1.283 . S
O217 Zn210 1.965 . S
O217 C225 1.303 . S
O218 Zn211 1.938 . S
O218 C225 1.247 . S
O219 Zn211 1.906 . S
O219 C227 1.304 . S
O220 Zn208 1.924 . S
O220 C228 1.303 1_565 S
O221 Zn212 1.977 . S
O221 C227 1.272 . S
O222 Zn212 1.910 . S
O222 C228 1.243 . S
C223 O207 1.225 . S
C223 O229 1.298 . S
C224 O213 1.226 . S
C224 O214 1.307 . S
C225 O217 1.303 . S
C225 O218 1.247 . S
C226 O215 1.253 . S
C226 O216 1.283 . S
C227 O219 1.304 . S
C227 O221 1.272 . S
C228 O220 1.303 1_545 S
C228 O222 1.243 . S
O229 Zn211 1.953 . S
O229 C223 1.298 . S
O230 Zn231 1.953 . S
O230 C246 1.225 . S
Zn231 O230 1.953 . S
Zn231 O232 1.949 . S
Zn231 O238 1.919 . S
Zn231 O243 1.924 . S
O232 Zn231 1.949 . S
O232 Zn233 1.923 . S
O232 Zn234 1.950 . S
O232 Zn235 1.945 . S
Zn233 O232 1.923 . S
Zn233 O236 1.933 . S
Zn233 O239 1.941 . S
Zn233 O240 1.965 . S
Zn234 O232 1.950 . S
Zn234 O241 1.938 . S
Zn234 O242 1.906 . S
Zn234 O252 1.953 . S
Zn235 O232 1.945 . S
Zn235 O237 1.932 . S
Zn235 O244 1.977 . S
Zn235 O245 1.910 . S
O236 Zn233 1.933 . S
O236 C247 1.226 . S
O237 Zn235 1.932 . S
O237 C247 1.307 . S
O238 Zn231 1.919 . S
O238 C249 1.253 . S
O239 Zn233 1.941 . S
O239 C249 1.283 . S
O240 Zn233 1.965 . S
O240 C248 1.303 . S
O241 Zn234 1.938 . S
O241 C248 1.247 . S
O242 Zn234 1.906 . S
O242 C250 1.304 . S
O243 Zn231 1.924 . S
O243 C251 1.311 . S
O244 Zn235 1.977 . S
O244 C250 1.272 . S
O245 Zn235 1.910 . S
O245 C251 1.231 . S
C246 O230 1.225 . S
C246 O252 1.298 . S
C247 O236 1.226 . S
C247 O237 1.307 . S
C248 O240 1.303 . S
C248 O241 1.247 . S
C249 O238 1.253 . S
C249 O239 1.283 . S
C250 O242 1.304 . S
C250 O244 1.272 . S
C251 O243 1.311 . S
C251 O245 1.231 . S
O252 Zn234 1.953 . S
O252 C246 1.298 . S
O253 Zn254 1.953 1_565 S
O253 C269 1.225 . S
Zn254 O253 1.953 1_545 S
Zn254 O255 1.949 1_545 S
Zn254 O261 1.919 . S
Zn254 O266 1.924 . S
O255 Zn254 1.949 1_565 S
O255 Zn256 1.923 . S
O255 Zn257 1.950 . S
O255 Zn258 1.945 . S
Zn256 O255 1.923 . S
Zn256 O259 1.933 . S
Zn256 O262 1.941 1_565 S
Zn256 O263 1.965 . S
Zn257 O255 1.950 . S
Zn257 O264 1.938 . S
Zn257 O265 1.906 . S
Zn257 O275 1.953 . S
Zn258 O255 1.945 . S
Zn258 O260 1.932 . S
Zn258 O267 1.977 . S
Zn258 O268 1.910 . S
O259 Zn256 1.933 . S
O259 C270 1.226 . S
O260 Zn258 1.932 . S
O260 C270 1.307 . S
O261 Zn254 1.919 . S
O261 C272 1.253 . S
O262 Zn256 1.941 1_545 S
O262 C272 1.283 . S
O263 Zn256 1.965 . S
O263 C271 1.303 . S
O264 Zn257 1.938 . S
O264 C271 1.247 . S
O265 Zn257 1.906 . S
O265 C273 1.304 . S
O266 Zn254 1.924 . S
O266 C274 1.303 1_545 S
O267 Zn258 1.977 . S
O267 C273 1.272 . S
O268 Zn258 1.910 . S
O268 C274 1.243 . S
C269 O253 1.225 . S
C269 O275 1.298 . S
C270 O259 1.226 . S
C270 O260 1.307 . S
C271 O263 1.303 . S
C271 O264 1.247 . S
C272 O261 1.253 . S
C272 O262 1.283 . S
C273 O265 1.304 . S
C273 O267 1.272 . S
C274 O266 1.303 1_565 S
C274 O268 1.243 . S
O275 Zn257 1.953 . S
O275 C269 1.298 . S
O276 Zn277 1.953 . S
O276 C292 1.225 . S
Zn277 O276 1.953 . S
Zn277 O278 1.949 . S
Zn277 O284 1.919 . S
Zn277 O289 1.924 . S
O278 Zn277 1.949 . S
O278 Zn279 1.923 . S
O278 Zn280 1.950 . S
O278 Zn281 1.945 . S
Zn279 O278 1.923 . S
Zn279 O282 1.933 . S
Zn279 O285 1.941 . S
Zn279 O286 1.965 . S
Zn280 O278 1.950 . S
Zn280 O287 1.938 . S
Zn280 O288 1.906 . S
Zn280 O298 1.953 . S
Zn281 O278 1.945 . S
Zn281 O283 1.932 . S
Zn281 O290 1.977 . S
Zn281 O291 1.910 . S
O282 Zn279 1.933 . S
O282 C293 1.226 . S
O283 Zn281 1.932 . S
O283 C293 1.307 . S
O284 Zn277 1.919 . S
O284 C295 1.253 . S
O285 Zn279 1.941 . S
O285 C295 1.283 . S
O286 Zn279 1.965 . S
O286 C294 1.303 . S
O287 Zn280 1.938 . S
O287 C294 1.247 . S
O288 Zn280 1.906 . S
O288 C296 1.304 . S
O289 Zn277 1.924 . S
O289 C297 1.311 . S
O290 Zn281 1.977 . S
O290 C296 1.272 . S
O291 Zn281 1.910 . S
O291 C297 1.231 . S
C292 O276 1.225 . S
C292 O298 1.298 . S
C293 O282 1.226 . S
C293 O283 1.307 . S
C294 O286 1.303 . S
C294 O287 1.247 . S
C295 O284 1.253 . S
C295 O285 1.283 . S
C296 O288 1.304 . S
C296 O290 1.272 . S
C297 O289 1.311 . S
C297 O291 1.231 . S
O298 Zn280 1.953 . S
O298 C292 1.298 . S
O299 Zn300 1.953 1_565 S
O299 C315 1.225 . S
Zn300 O299 1.953 1_545 S
Zn300 O301 1.949 1_545 S
Zn300 O307 1.919 . S
Zn300 O312 1.924 . S
O301 Zn300 1.949 1_565 S
O301 Zn302 1.923 . S
O301 Zn303 1.950 . S
O301 Zn304 1.945 . S
Zn302 O301 1.923 . S
Zn302 O305 1.933 . S
Zn302 O308 1.941 1_565 S
Zn302 O309 1.965 . S
Zn303 O301 1.950 . S
Zn303 O310 1.938 . S
Zn303 O311 1.906 . S
Zn303 O321 1.953 . S
Zn304 O301 1.945 . S
Zn304 O306 1.932 . S
Zn304 O313 1.977 . S
Zn304 O314 1.910 . S
O305 Zn302 1.933 . S
O305 C316 1.226 . S
O306 Zn304 1.932 . S
O306 C316 1.307 . S
O307 Zn300 1.919 . S
O307 C318 1.253 . S
O308 Zn302 1.941 1_545 S
O308 C318 1.283 . S
O309 Zn302 1.965 . S
O309 C317 1.303 . S
O310 Zn303 1.938 . S
O310 C317 1.247 . S
O311 Zn303 1.906 . S
O311 C319 1.304 . S
O312 Zn300 1.924 . S
O312 C320 1.303 1_545 S
O313 Zn304 1.977 . S
O313 C319 1.272 . S
O314 Zn304 1.910 . S
O314 C320 1.243 . S
C315 O299 1.225 . S
C315 O321 1.298 . S
C316 O305 1.226 . S
C316 O306 1.307 . S
C317 O309 1.303 . S
C317 O310 1.247 . S
C318 O307 1.253 . S
C318 O308 1.283 . S
C319 O311 1.304 . S
C319 O313 1.272 . S
C320 O312 1.303 1_565 S
C320 O314 1.243 . S
O321 Zn303 1.953 . S
O321 C315 1.298 . S
O322 Zn323 1.953 . S
O322 C338 1.225 . S
Zn323 O322 1.953 . S
Zn323 O324 1.949 . S
Zn323 O330 1.919 . S
Zn323 O335 1.924 . S
O324 Zn323 1.949 . S
O324 Zn325 1.923 . S
O324 Zn326 1.950 . S
O324 Zn327 1.945 . S
Zn325 O324 1.923 . S
Zn325 O328 1.933 . S
Zn325 O331 1.941 . S
Zn325 O332 1.965 . S
Zn326 O324 1.950 . S
Zn326 O333 1.938 . S
Zn326 O334 1.906 . S
Zn326 O344 1.953 . S
Zn327 O324 1.945 . S
Zn327 O329 1.932 . S
Zn327 O336 1.977 . S
Zn327 O337 1.910 . S
O328 Zn325 1.933 . S
O328 C339 1.226 . S
O329 Zn327 1.932 . S
O329 C339 1.307 . S
O330 Zn323 1.919 . S
O330 C341 1.253 . S
O331 Zn325 1.941 . S
O331 C341 1.283 . S
O332 Zn325 1.965 . S
O332 C340 1.303 . S
O333 Zn326 1.938 . S
O333 C340 1.247 . S
O334 Zn326 1.906 . S
O334 C342 1.304 . S
O335 Zn323 1.924 . S
O335 C343 1.311 . S
O336 Zn327 1.977 . S
O336 C342 1.272 . S
O337 Zn327 1.910 . S
O337 C343 1.231 . S
C338 O322 1.225 . S
C338 O344 1.298 . S
C339 O328 1.226 . S
C339 O329 1.307 . S
C340 O332 1.303 . S
C340 O333 1.247 . S
C341 O330 1.253 . S
C341 O331 1.283 . S
C342 O334 1.304 . S
C342 O336 1.272 . S
C343 O335 1.311 . S
C343 O337 1.231 . S
O344 Zn326 1.953 . S
O344 C338 1.298 . S
O345 Zn346 1.953 1_545 S
O345 C361 1.225 . S
Zn346 O345 1.953 1_565 S
Zn346 O347 1.949 1_565 S
Zn346 O353 1.919 . S
Zn346 O358 1.924 . S
O347 Zn346 1.949 1_545 S
O347 Zn348 1.923 . S
O347 Zn349 1.950 . S
O347 Zn350 1.945 . S
Zn348 O347 1.923 . S
Zn348 O351 1.933 . S
Zn348 O354 1.941 1_545 S
Zn348 O355 1.965 . S
Zn349 O347 1.950 . S
Zn349 O356 1.938 . S
Zn349 O357 1.906 . S
Zn349 O367 1.953 . S
Zn350 O347 1.945 . S
Zn350 O352 1.932 . S
Zn350 O359 1.977 . S
Zn350 O360 1.910 . S
O351 Zn348 1.933 . S
O351 C362 1.226 . S
O352 Zn350 1.932 . S
O352 C362 1.307 . S
O353 Zn346 1.919 . S
O353 C364 1.253 . S
O354 Zn348 1.941 1_565 S
O354 C364 1.283 . S
O355 Zn348 1.965 . S
O355 C363 1.303 . S
O356 Zn349 1.938 . S
O356 C363 1.247 . S
O357 Zn349 1.906 . S
O357 C365 1.304 . S
O358 Zn346 1.924 . S
O358 C366 1.303 1_565 S
O359 Zn350 1.977 . S
O359 C365 1.272 . S
O360 Zn350 1.910 . S
O360 C366 1.243 . S
C361 O345 1.225 . S
C361 O367 1.298 . S
C362 O351 1.226 . S
C362 O352 1.307 . S
C363 O355 1.303 . S
C363 O356 1.247 . S
C364 O353 1.253 . S
C364 O354 1.283 . S
C365 O357 1.304 . S
C365 O359 1.272 . S
C366 O358 1.303 1_545 S
C366 O360 1.243 . S
O367 Zn349 1.953 . S
O367 C361 1.298 . S
H368 C374 0.930 . S
H369 C377 0.930 . S
H370 C378 0.930 . S
H371 C379 0.930 . S
H372 C382 0.930 . S
H373 C383 0.930 . S
C374 H368 0.930 . S
C374 C375 1.355 . S
C374 C376 1.415 . S
C375 C374 1.355 . S
C375 C377 1.419 . S
C376 C374 1.415 . S
C376 C381 1.425 . S
C376 C383 1.409 . S
C377 H369 0.930 . S
C377 C375 1.419 . S
C377 C378 1.362 . S
C378 H370 0.930 . S
C378 C377 1.362 . S
C378 C381 1.409 . S
C379 H371 0.930 . S
C379 C380 1.355 . S
C379 C381 1.415 . S
C380 C379 1.355 . S
C380 C382 1.419 . S
C381 C376 1.425 . S
C381 C378 1.409 . S
C381 C379 1.415 . S
C382 H372 0.930 . S
C382 C380 1.419 . S
C382 C383 1.362 . S
C383 H373 0.930 . S
C383 C376 1.409 . S
C383 C382 1.362 . S
H384 C390 0.930 . S
H385 C393 0.930 . S
H386 C394 0.930 . S
H387 C395 0.930 . S
H388 C398 0.930 . S
H389 C399 0.930 . S
C390 H384 0.930 . S
C390 C391 1.355 . S
C390 C392 1.415 . S
C391 C390 1.355 . S
C391 C393 1.419 . S
C392 C390 1.415 . S
C392 C397 1.425 . S
C392 C399 1.409 . S
C393 H385 0.930 . S
C393 C391 1.419 . S
C393 C394 1.362 . S
C394 H386 0.930 . S
C394 C393 1.362 . S
C394 C397 1.409 . S
C395 H387 0.930 . S
C395 C396 1.355 . S
C395 C397 1.415 . S
C396 C395 1.355 . S
C396 C398 1.419 . S
C397 C392 1.425 . S
C397 C394 1.409 . S
C397 C395 1.415 . S
C398 H388 0.930 . S
C398 C396 1.419 . S
C398 C399 1.362 . S
C399 H389 0.930 . S
C399 C392 1.409 . S
C399 C398 1.362 . S
H400 C406 0.930 . S
H401 C409 0.930 . S
H402 C410 0.930 . S
H403 C411 0.930 . S
H404 C414 0.930 . S
H405 C415 0.930 . S
C406 H400 0.930 . S
C406 C407 1.355 . S
C406 C408 1.415 . S
C407 C406 1.355 . S
C407 C409 1.419 . S
C408 C406 1.415 . S
C408 C413 1.425 . S
C408 C415 1.409 . S
C409 H401 0.930 . S
C409 C407 1.419 . S
C409 C410 1.362 . S
C410 H402 0.930 . S
C410 C409 1.362 . S
C410 C413 1.409 . S
C411 H403 0.930 . S
C411 C412 1.355 . S
C411 C413 1.415 . S
C412 C411 1.355 . S
C412 C414 1.419 . S
C413 C408 1.425 . S
C413 C410 1.409 . S
C413 C411 1.415 . S
C414 H404 0.930 . S
C414 C412 1.419 . S
C414 C415 1.362 . S
C415 H405 0.930 . S
C415 C408 1.409 . S
C415 C414 1.362 . S
H416 C422 0.930 . S
H417 C425 0.930 . S
H418 C426 0.930 . S
H419 C427 0.930 . S
H420 C430 0.930 . S
H421 C431 0.930 . S
C422 H416 0.930 . S
C422 C423 1.355 . S
C422 C424 1.415 1_655 S
C423 C422 1.355 . S
C423 C425 1.419 . S
C424 C422 1.415 1_455 S
C424 C429 1.425 1_456 S
C424 C431 1.409 1_556 S
C425 H417 0.930 . S
C425 C423 1.419 . S
C425 C426 1.362 . S
C426 H418 0.930 . S
C426 C425 1.362 . S
C426 C429 1.409 1_556 S
C427 H419 0.930 . S
C427 C428 1.355 . S
C427 C429 1.415 1_455 S
C428 C427 1.355 . S
C428 C430 1.419 . S
C429 C424 1.425 1_654 S
C429 C426 1.409 1_554 S
C429 C427 1.415 1_655 S
C430 H420 0.930 . S
C430 C428 1.419 . S
C430 C431 1.362 . S
C431 H421 0.930 . S
C431 C424 1.409 1_554 S
C431 C430 1.362 . S
H432 C438 0.930 . S
H433 C441 0.930 . S
H434 C442 0.930 . S
H435 C443 0.930 . S
H436 C446 0.930 . S
H437 C447 0.930 . S
C438 H432 0.930 . S
C438 C439 1.355 . S
C438 C440 1.415 . S
C439 C438 1.355 . S
C439 C441 1.419 . S
C440 C438 1.415 . S
C440 C445 1.425 . S
C440 C447 1.409 . S
C441 H433 0.930 . S
C441 C439 1.419 . S
C441 C442 1.362 . S
C442 H434 0.930 . S
C442 C441 1.362 . S
C442 C445 1.409 . S
C443 H435 0.930 . S
C443 C444 1.355 . S
C443 C445 1.415 . S
C444 C443 1.355 . S
C444 C446 1.419 . S
C445 C440 1.425 . S
C445 C442 1.409 . S
C445 C443 1.415 . S
C446 H436 0.930 . S
C446 C444 1.419 . S
C446 C447 1.362 . S
C447 H437 0.930 . S
C447 C440 1.409 . S
C447 C446 1.362 . S
H448 C454 0.930 . S
H449 C457 0.930 . S
H450 C458 0.930 . S
H451 C459 0.930 . S
H452 C462 0.930 . S
H453 C463 0.930 . S
C454 H448 0.930 . S
C454 C455 1.355 . S
C454 C456 1.415 . S
C455 C454 1.355 . S
C455 C457 1.419 . S
C456 C454 1.415 . S
C456 C461 1.425 . S
C456 C463 1.409 . S
C457 H449 0.930 . S
C457 C455 1.419 . S
C457 C458 1.362 . S
C458 H450 0.930 . S
C458 C457 1.362 . S
C458 C461 1.409 . S
C459 H451 0.930 . S
C459 C460 1.355 . S
C459 C461 1.415 . S
C460 C459 1.355 . S
C460 C462 1.419 . S
C461 C456 1.425 . S
C461 C458 1.409 . S
C461 C459 1.415 . S
C462 H452 0.930 . S
C462 C460 1.419 . S
C462 C463 1.362 . S
C463 H453 0.930 . S
C463 C456 1.409 . S
C463 C462 1.362 . S
H464 C470 0.921 1_545 S
H465 C473 0.930 . S
H466 C474 0.930 . S
H467 C475 0.921 1_565 S
H468 C478 0.930 . S
H469 C479 0.930 . S
C470 H464 0.921 1_565 S
C470 C471 1.367 . S
C470 C472 1.410 1_665 S
C471 C470 1.367 . S
C471 C473 1.419 . S
C472 C470 1.410 1_445 S
C472 C477 1.425 1_444 S
C472 C479 1.409 . S
C473 H465 0.930 . S
C473 C471 1.419 . S
C473 C474 1.362 1_554 S
C474 H466 0.930 . S
C474 C473 1.362 1_556 S
C474 C477 1.409 . S
C475 H467 0.921 1_545 S
C475 C476 1.367 . S
C475 C477 1.410 1_445 S
C476 C475 1.367 . S
C476 C478 1.419 . S
C477 C472 1.425 1_666 S
C477 C474 1.409 . S
C477 C475 1.410 1_665 S
C478 H468 0.930 . S
C478 C476 1.419 . S
C478 C479 1.362 1_556 S
C479 H469 0.930 . S
C479 C472 1.409 . S
C479 C478 1.362 1_554 S
H480 C486 0.930 . S
H481 C489 0.930 . S
H482 C490 0.930 . S
H483 C491 0.930 . S
H484 C494 0.930 . S
H485 C495 0.930 . S
C486 H480 0.930 . S
C486 C487 1.355 1_545 S
C486 C488 1.415 . S
C487 C486 1.355 1_565 S
C487 C489 1.419 . S
C488 C486 1.415 . S
C488 C493 1.425 1_545 S
C488 C495 1.409 . S
C489 H481 0.930 . S
C489 C487 1.419 . S
C489 C490 1.362 . S
C490 H482 0.930 . S
C490 C489 1.362 . S
C490 C493 1.409 . S
C491 H483 0.930 . S
C491 C492 1.355 1_565 S
C491 C493 1.415 . S
C492 C491 1.355 1_545 S
C492 C494 1.419 . S
C493 C488 1.425 1_565 S
C493 C490 1.409 . S
C493 C491 1.415 . S
C494 H484 0.930 . S
C494 C492 1.419 . S
C494 C495 1.362 . S
C495 H485 0.930 . S
C495 C488 1.409 . S
C495 C494 1.362 . S
H496 C502 0.930 . S
H497 C505 0.930 . S
H498 C506 0.930 . S
H499 C507 0.930 . S
H500 C510 0.930 . S
H501 C511 0.930 . S
C502 H496 0.930 . S
C502 C503 1.355 . S
C502 C504 1.415 . S
C503 C502 1.355 . S
C503 C505 1.419 . S
C504 C502 1.415 . S
C504 C509 1.425 . S
C504 C511 1.409 1_556 S
C505 H497 0.930 . S
C505 C503 1.419 . S
C505 C506 1.362 . S
C506 H498 0.930 . S
C506 C505 1.362 . S
C506 C509 1.409 . S
C507 H499 0.930 . S
C507 C508 1.355 . S
C507 C509 1.415 1_554 S
C508 C507 1.355 . S
C508 C510 1.419 . S
C509 C504 1.425 . S
C509 C506 1.409 . S
C509 C507 1.415 1_556 S
C510 H500 0.930 . S
C510 C508 1.419 . S
C510 C511 1.362 . S
C511 H501 0.930 . S
C511 C504 1.409 1_554 S
C511 C510 1.362 . S
H512 C518 0.930 . S
H513 C521 0.930 . S
H514 C522 0.930 . S
H515 C523 0.930 . S
H516 C526 0.930 . S
H517 C527 0.930 . S
C518 H512 0.930 . S
C518 C519 1.355 . S
C518 C520 1.415 . S
C519 C518 1.355 . S
C519 C521 1.419 . S
C520 C518 1.415 . S
C520 C525 1.425 . S
C520 C527 1.409 . S
C521 H513 0.930 . S
C521 C519 1.419 . S
C521 C522 1.362 . S
C522 H514 0.930 . S
C522 C521 1.362 . S
C522 C525 1.409 . S
C523 H515 0.930 . S
C523 C524 1.355 . S
C523 C525 1.415 . S
C524 C523 1.355 . S
C524 C526 1.419 . S
C525 C520 1.425 . S
C525 C522 1.409 . S
C525 C523 1.415 . S
C526 H516 0.930 . S
C526 C524 1.419 . S
C526 C527 1.362 . S
C527 H517 0.930 . S
C527 C520 1.409 . S
C527 C526 1.362 . S
H528 C534 0.930 . S
H529 C537 0.930 . S
H530 C538 0.930 . S
H531 C539 0.930 . S
H532 C542 0.930 . S
H533 C543 0.930 . S
C534 H528 0.930 . S
C534 C535 1.355 . S
C534 C536 1.415 . S
C535 C534 1.355 . S
C535 C537 1.419 . S
C536 C534 1.415 . S
C536 C541 1.425 . S
C536 C543 1.409 . S
C537 H529 0.930 . S
C537 C535 1.419 . S
C537 C538 1.362 . S
C538 H530 0.930 . S
C538 C537 1.362 . S
C538 C541 1.409 . S
C539 H531 0.930 . S
C539 C540 1.355 . S
C539 C541 1.415 . S
C540 C539 1.355 . S
C540 C542 1.419 . S
C541 C536 1.425 . S
C541 C538 1.409 . S
C541 C539 1.415 . S
C542 H532 0.930 . S
C542 C540 1.419 . S
C542 C543 1.362 . S
C543 H533 0.930 . S
C543 C536 1.409 . S
C543 C542 1.362 . S
H544 C550 0.930 . S
H545 C553 0.930 . S
H546 C554 0.930 . S
H547 C555 0.930 . S
H548 C558 0.930 . S
H549 C559 0.930 . S
C550 H544 0.930 . S
C550 C551 1.355 . S
C550 C552 1.415 . S
C551 C550 1.355 . S
C551 C553 1.419 . S
C552 C550 1.415 . S
C552 C557 1.425 . S
C552 C559 1.409 . S
C553 H545 0.930 . S
C553 C551 1.419 . S
C553 C554 1.362 . S
C554 H546 0.930 . S
C554 C553 1.362 . S
C554 C557 1.409 . S
C555 H547 0.930 . S
C555 C556 1.355 . S
C555 C557 1.415 . S
C556 C555 1.355 . S
C556 C558 1.419 . S
C557 C552 1.425 . S
C557 C554 1.409 . S
C557 C555 1.415 . S
C558 H548 0.930 . S
C558 C556 1.419 . S
C558 C559 1.362 . S
C559 H549 0.930 . S
C559 C552 1.409 . S
C559 C558 1.362 . S
H560 C566 0.930 . S
H561 C569 0.930 . S
H562 C570 0.930 1_556 S
H563 C571 0.930 . S
H564 C574 0.930 . S
H565 C575 0.930 . S
C566 H560 0.930 . S
C566 C567 1.355 . S
C566 C568 1.415 . S
C567 C566 1.355 . S
C567 C569 1.419 . S
C568 C566 1.415 . S
C568 C573 1.425 . S
C568 C575 1.409 . S
C569 H561 0.930 . S
C569 C567 1.419 . S
C569 C570 1.362 . S
C570 H562 0.930 1_554 S
C570 C569 1.362 . S
C570 C573 1.409 . S
C571 H563 0.930 . S
C571 C572 1.355 . S
C571 C573 1.415 1_556 S
C572 C571 1.355 . S
C572 C574 1.419 . S
C573 C568 1.425 . S
C573 C570 1.409 . S
C573 C571 1.415 1_554 S
C574 H564 0.930 . S
C574 C572 1.419 . S
C574 C575 1.362 1_556 S
C575 H565 0.930 . S
C575 C568 1.409 . S
C575 C574 1.362 1_554 S
H576 C582 0.930 . S
H577 C585 0.930 . S
H578 C586 0.930 . S
H579 C587 0.930 . S
H580 C590 0.930 . S
H581 C591 0.930 . S
C582 H576 0.930 . S
C582 C583 1.355 . S
C582 C584 1.415 . S
C583 C582 1.355 . S
C583 C585 1.419 . S
C584 C582 1.415 . S
C584 C589 1.425 . S
C584 C591 1.409 . S
C585 H577 0.930 . S
C585 C583 1.419 . S
C585 C586 1.362 . S
C586 H578 0.930 . S
C586 C585 1.362 . S
C586 C589 1.409 . S
C587 H579 0.930 . S
C587 C588 1.355 . S
C587 C589 1.415 . S
C588 C587 1.355 . S
C588 C590 1.419 . S
C589 C584 1.425 . S
C589 C586 1.409 . S
C589 C587 1.415 . S
C590 H580 0.930 . S
C590 C588 1.419 . S
C590 C591 1.362 . S
C591 H581 0.930 . S
C591 C584 1.409 . S
C591 C590 1.362 . S
H592 C598 0.930 . S
H593 C601 0.930 . S
H594 C602 0.930 . S
H595 C603 0.930 . S
H596 C606 0.930 . S
H597 C607 0.930 . S
C598 H592 0.930 . S
C598 C599 1.355 . S
C598 C600 1.415 . S
C599 C598 1.355 . S
C599 C601 1.419 . S
C600 C598 1.415 . S
C600 C605 1.425 . S
C600 C607 1.409 . S
C601 H593 0.930 . S
C601 C599 1.419 . S
C601 C602 1.362 . S
C602 H594 0.930 . S
C602 C601 1.362 . S
C602 C605 1.409 . S
C603 H595 0.930 . S
C603 C604 1.355 . S
C603 C605 1.415 . S
C604 C603 1.355 . S
C604 C606 1.419 . S
C605 C600 1.425 . S
C605 C602 1.409 . S
C605 C603 1.415 . S
C606 H596 0.930 . S
C606 C604 1.419 . S
C606 C607 1.362 . S
C607 H597 0.930 . S
C607 C600 1.409 . S
C607 C606 1.362 . S
H608 C614 0.930 . S
H609 C617 0.930 . S
H610 C618 0.930 . S
H611 C619 0.930 . S
H612 C622 0.930 . S
H613 C623 0.930 . S
C614 H608 0.930 . S
C614 C615 1.355 . S
C614 C616 1.415 . S
C615 C614 1.355 . S
C615 C617 1.419 . S
C616 C614 1.415 . S
C616 C621 1.425 . S
C616 C623 1.409 . S
C617 H609 0.930 . S
C617 C615 1.419 . S
C617 C618 1.362 . S
C618 H610 0.930 . S
C618 C617 1.362 . S
C618 C621 1.409 . S
C619 H611 0.930 . S
C619 C620 1.355 . S
C619 C621 1.415 . S
C620 C619 1.355 . S
C620 C622 1.419 . S
C621 C616 1.425 . S
C621 C618 1.409 . S
C621 C619 1.415 . S
C622 H612 0.930 . S
C622 C620 1.419 . S
C622 C623 1.362 . S
C623 H613 0.930 . S
C623 C616 1.409 . S
C623 C622 1.362 . S
H624 C630 0.930 . S
H625 C633 0.930 . S
H626 C634 0.930 . S
H627 C635 0.930 . S
H628 C638 0.930 . S
H629 C639 0.930 . S
C630 H624 0.930 . S
C630 C631 1.355 . S
C630 C632 1.415 . S
C631 C630 1.355 . S
C631 C633 1.419 . S
C632 C630 1.415 . S
C632 C637 1.425 . S
C632 C639 1.409 . S
C633 H625 0.930 . S
C633 C631 1.419 . S
C633 C634 1.362 . S
C634 H626 0.930 . S
C634 C633 1.362 . S
C634 C637 1.409 . S
C635 H627 0.930 . S
C635 C636 1.355 . S
C635 C637 1.415 . S
C636 C635 1.355 . S
C636 C638 1.419 . S
C637 C632 1.425 . S
C637 C634 1.409 . S
C637 C635 1.415 . S
C638 H628 0.930 . S
C638 C636 1.419 . S
C638 C639 1.362 . S
C639 H629 0.930 . S
C639 C632 1.409 . S
C639 C638 1.362 . S
H640 C646 0.930 . S
H641 C649 0.930 . S
H642 C650 0.930 . S
H643 C651 0.930 . S
H644 C654 0.930 1_545 S
H645 C655 0.930 . S
C646 H640 0.930 . S
C646 C647 1.355 . S
C646 C648 1.415 . S
C647 C646 1.355 . S
C647 C649 1.419 1_545 S
C648 C646 1.415 . S
C648 C653 1.425 1_545 S
C648 C655 1.409 . S
C649 H641 0.930 . S
C649 C647 1.419 1_565 S
C649 C650 1.362 . S
C650 H642 0.930 . S
C650 C649 1.362 . S
C650 C653 1.409 . S
C651 H643 0.930 . S
C651 C652 1.355 . S
C651 C653 1.415 . S
C652 C651 1.355 . S
C652 C654 1.419 . S
C653 C648 1.425 1_565 S
C653 C650 1.409 . S
C653 C651 1.415 . S
C654 H644 0.930 1_565 S
C654 C652 1.419 . S
C654 C655 1.362 1_565 S
C655 H645 0.930 . S
C655 C648 1.409 . S
C655 C654 1.362 1_545 S
H656 C662 0.930 . S
H657 C665 0.930 . S
H658 C666 0.930 . S
H659 C667 0.930 . S
H660 C670 0.930 . S
H661 C671 0.930 . S
C662 H656 0.930 . S
C662 C663 1.355 . S
C662 C664 1.415 1_554 S
C663 C662 1.355 . S
C663 C665 1.419 . S
C664 C662 1.415 1_556 S
C664 C669 1.425 . S
C664 C671 1.409 . S
C665 H657 0.930 . S
C665 C663 1.419 . S
C665 C666 1.362 1_554 S
C666 H658 0.930 . S
C666 C665 1.362 1_556 S
C666 C669 1.409 . S
C667 H659 0.930 . S
C667 C668 1.355 . S
C667 C669 1.415 . S
C668 C667 1.355 . S
C668 C670 1.419 . S
C669 C664 1.425 . S
C669 C666 1.409 . S
C669 C667 1.415 . S
C670 H660 0.930 . S
C670 C668 1.419 . S
C670 C671 1.362 . S
C671 H661 0.930 . S
C671 C664 1.409 . S
C671 C670 1.362 . S
H672 C678 0.930 . S
H673 C681 0.930 . S
H674 C682 0.930 . S
H675 C683 0.930 . S
H676 C686 0.930 . S
H677 C687 0.930 . S
C678 H672 0.930 . S
C678 C679 1.355 . S
C678 C680 1.415 . S
C679 C678 1.355 . S
C679 C681 1.419 1_545 S
C680 C678 1.415 . S
C680 C685 1.425 1_545 S
C680 C687 1.409 . S
C681 H673 0.930 . S
C681 C679 1.419 1_565 S
C681 C682 1.362 . S
C682 H674 0.930 . S
C682 C681 1.362 . S
C682 C685 1.409 . S
C683 H675 0.930 . S
C683 C684 1.355 . S
C683 C685 1.415 . S
C684 C683 1.355 . S
C684 C686 1.419 1_565 S
C685 C680 1.425 1_565 S
C685 C682 1.409 . S
C685 C683 1.415 . S
C686 H676 0.930 . S
C686 C684 1.419 1_545 S
C686 C687 1.362 . S
C687 H677 0.930 . S
C687 C680 1.409 . S
C687 C686 1.362 . S
H688 C694 0.930 . S
H689 C697 0.930 . S
H690 C698 0.930 . S
H691 C699 0.930 . S
H692 C702 0.930 . S
H693 C703 0.930 . S
C694 H688 0.930 . S
C694 C695 1.355 . S
C694 C696 1.415 . S
C695 C694 1.355 . S
C695 C697 1.419 . S
C696 C694 1.415 . S
C696 C701 1.425 . S
C696 C703 1.409 . S
C697 H689 0.930 . S
C697 C695 1.419 . S
C697 C698 1.362 . S
C698 H690 0.930 . S
C698 C697 1.362 . S
C698 C701 1.409 . S
C699 H691 0.930 . S
C699 C700 1.355 . S
C699 C701 1.415 . S
C700 C699 1.355 . S
C700 C702 1.419 . S
C701 C696 1.425 . S
C701 C698 1.409 . S
C701 C699 1.415 . S
C702 H692 0.930 . S
C702 C700 1.419 . S
C702 C703 1.362 . S
C703 H693 0.930 . S
C703 C696 1.409 . S
C703 C702 1.362 . S
H704 C710 0.930 . S
H705 C713 0.930 . S
H706 C714 0.930 . S
H707 C715 0.930 . S
H708 C718 0.930 . S
H709 C719 0.930 . S
C710 H704 0.930 . S
C710 C711 1.355 . S
C710 C712 1.415 1_565 S
C711 C710 1.355 . S
C711 C713 1.419 . S
C712 C710 1.415 1_545 S
C712 C717 1.425 1_545 S
C712 C719 1.409 . S
C713 H705 0.930 . S
C713 C711 1.419 . S
C713 C714 1.362 . S
C714 H706 0.930 . S
C714 C713 1.362 . S
C714 C717 1.409 . S
C715 H707 0.930 . S
C715 C716 1.355 . S
C715 C717 1.415 1_545 S
C716 C715 1.355 . S
C716 C718 1.419 . S
C717 C712 1.425 1_565 S
C717 C714 1.409 . S
C717 C715 1.415 1_565 S
C718 H708 0.930 . S
C718 C716 1.419 . S
C718 C719 1.362 . S
C719 H709 0.930 . S
C719 C712 1.409 . S
C719 C718 1.362 . S
H720 C726 0.930 . S
H721 C729 0.930 . S
H722 C730 0.930 1_556 S
H723 C731 0.930 . S
H724 C734 0.930 . S
H725 C735 0.930 . S
C726 H720 0.930 . S
C726 C727 1.355 . S
C726 C728 1.415 . S
C727 C726 1.355 . S
C727 C729 1.419 . S
C728 C726 1.415 . S
C728 C733 1.425 . S
C728 C735 1.409 . S
C729 H721 0.930 . S
C729 C727 1.419 . S
C729 C730 1.362 . S
C730 H722 0.930 1_554 S
C730 C729 1.362 . S
C730 C733 1.409 . S
C731 H723 0.930 . S
C731 C732 1.355 . S
C731 C733 1.415 1_556 S
C732 C731 1.355 . S
C732 C734 1.419 . S
C733 C728 1.425 . S
C733 C730 1.409 . S
C733 C731 1.415 1_554 S
C734 H724 0.930 . S
C734 C732 1.419 . S
C734 C735 1.362 1_556 S
C735 H725 0.930 . S
C735 C728 1.409 . S
C735 C734 1.362 1_554 S
H736 C742 0.930 . S
H737 C745 0.930 . S
H738 C746 0.930 . S
H739 C747 0.930 . S
H740 C750 0.930 . S
H741 C751 0.930 . S
C742 H736 0.930 . S
C742 C743 1.355 . S
C742 C744 1.415 . S
C743 C742 1.355 . S
C743 C745 1.419 1_545 S
C744 C742 1.415 . S
C744 C749 1.425 1_545 S
C744 C751 1.409 . S
C745 H737 0.930 . S
C745 C743 1.419 1_565 S
C745 C746 1.362 . S
C746 H738 0.930 . S
C746 C745 1.362 . S
C746 C749 1.409 . S
C747 H739 0.930 . S
C747 C748 1.355 . S
C747 C749 1.415 . S
C748 C747 1.355 . S
C748 C750 1.419 1_565 S
C749 C744 1.425 1_565 S
C749 C746 1.409 . S
C749 C747 1.415 . S
C750 H740 0.930 . S
C750 C748 1.419 1_545 S
C750 C751 1.362 . S
C751 H741 0.930 . S
C751 C744 1.409 . S
C751 C750 1.362 . S
H752 C758 0.930 . S
H753 C761 0.930 . S
H754 C762 0.930 . S
H755 C763 0.930 . S
H756 C766 0.930 . S
H757 C767 0.930 . S
C758 H752 0.930 . S
C758 C759 1.355 . S
C758 C760 1.415 . S
C759 C758 1.355 . S
C759 C761 1.419 . S
C760 C758 1.415 . S
C760 C765 1.425 . S
C760 C767 1.409 . S
C761 H753 0.930 . S
C761 C759 1.419 . S
C761 C762 1.362 . S
C762 H754 0.930 . S
C762 C761 1.362 . S
C762 C765 1.409 . S
C763 H755 0.930 . S
C763 C764 1.355 . S
C763 C765 1.415 . S
C764 C763 1.355 . S
C764 C766 1.419 . S
C765 C760 1.425 . S
C765 C762 1.409 . S
C765 C763 1.415 . S
C766 H756 0.930 . S
C766 C764 1.419 . S
C766 C767 1.362 . S
C767 H757 0.930 . S
C767 C760 1.409 . S
C767 C766 1.362 . S
H768 C774 0.930 . S
H769 C777 0.930 . S
H770 C778 0.930 . S
H771 C779 0.930 . S
H772 C782 0.930 . S
H773 C783 0.930 . S
C774 H768 0.930 . S
C774 C775 1.355 . S
C774 C776 1.415 . S
C775 C774 1.355 . S
C775 C777 1.419 . S
C776 C774 1.415 . S
C776 C781 1.425 . S
C776 C783 1.409 . S
C777 H769 0.930 . S
C777 C775 1.419 . S
C777 C778 1.362 . S
C778 H770 0.930 . S
C778 C777 1.362 . S
C778 C781 1.409 . S
C779 H771 0.930 . S
C779 C780 1.355 . S
C779 C781 1.415 . S
C780 C779 1.355 . S
C780 C782 1.419 . S
C781 C776 1.425 . S
C781 C778 1.409 . S
C781 C779 1.415 . S
C782 H772 0.930 . S
C782 C780 1.419 . S
C782 C783 1.362 . S
C783 H773 0.930 . S
C783 C776 1.409 . S
C783 C782 1.362 . S
H784 C790 0.930 . S
H785 C793 0.930 . S
H786 C794 0.930 . S
H787 C795 0.930 . S
H788 C798 0.930 . S
H789 C799 0.930 . S
C790 H784 0.930 . S
C790 C791 1.355 . S
C790 C792 1.415 . S
C791 C790 1.355 . S
C791 C793 1.419 . S
C792 C790 1.415 . S
C792 C797 1.425 1_655 S
C792 C799 1.409 . S
C793 H785 0.930 . S
C793 C791 1.419 . S
C793 C794 1.362 1_655 S
C794 H786 0.930 . S
C794 C793 1.362 1_455 S
C794 C797 1.409 . S
C795 H787 0.930 . S
C795 C796 1.355 . S
C795 C797 1.415 . S
C796 C795 1.355 . S
C796 C798 1.419 . S
C797 C792 1.425 1_455 S
C797 C794 1.409 . S
C797 C795 1.415 . S
C798 H788 0.930 . S
C798 C796 1.419 . S
C798 C799 1.362 1_455 S
C799 H789 0.930 . S
C799 C792 1.409 . S
C799 C798 1.362 1_655 S
H800 C806 0.930 . S
H801 C809 0.930 1_455 S
H802 C810 0.930 . S
H803 C811 0.930 . S
H804 C814 0.930 1_655 S
H805 C815 0.930 . S
C806 H800 0.930 . S
C806 C807 1.355 . S
C806 C808 1.415 . S
C807 C806 1.355 . S
C807 C809 1.419 . S
C808 C806 1.415 . S
C808 C813 1.425 1_655 S
C808 C815 1.409 . S
C809 H801 0.930 1_655 S
C809 C807 1.419 . S
C809 C810 1.362 1_655 S
C810 H802 0.930 . S
C810 C809 1.362 1_455 S
C810 C813 1.409 . S
C811 H803 0.930 . S
C811 C812 1.355 . S
C811 C813 1.415 . S
C812 C811 1.355 . S
C812 C814 1.419 . S
C813 C808 1.425 1_455 S
C813 C810 1.409 . S
C813 C811 1.415 . S
C814 H804 0.930 1_455 S
C814 C812 1.419 . S
C814 C815 1.362 1_455 S
C815 H805 0.930 . S
C815 C808 1.409 . S
C815 C814 1.362 1_655 S
H816 C822 0.930 . S
H817 C825 0.930 . S
H818 C826 0.930 . S
H819 C827 0.930 . S
H820 C830 0.930 . S
H821 C831 0.930 . S
C822 H816 0.930 . S
C822 C823 1.355 . S
C822 C824 1.415 . S
C823 C822 1.355 . S
C823 C825 1.419 . S
C824 C822 1.415 . S
C824 C829 1.425 . S
C824 C831 1.409 . S
C825 H817 0.930 . S
C825 C823 1.419 . S
C825 C826 1.362 . S
C826 H818 0.930 . S
C826 C825 1.362 . S
C826 C829 1.409 . S
C827 H819 0.930 . S
C827 C828 1.355 . S
C827 C829 1.415 . S
C828 C827 1.355 . S
C828 C830 1.419 . S
C829 C824 1.425 . S
C829 C826 1.409 . S
C829 C827 1.415 . S
C830 H820 0.930 . S
C830 C828 1.419 . S
C830 C831 1.362 . S
C831 H821 0.930 . S
C831 C824 1.409 . S
C831 C830 1.362 . S
H832 C838 0.930 . S
H833 C841 0.930 . S
H834 C842 0.930 . S
H835 C843 0.930 . S
H836 C846 0.930 . S
H837 C847 0.930 . S
C838 H832 0.930 . S
C838 C839 1.355 . S
C838 C840 1.415 . S
C839 C838 1.355 . S
C839 C841 1.419 . S
C840 C838 1.415 . S
C840 C845 1.425 . S
C840 C847 1.409 . S
C841 H833 0.930 . S
C841 C839 1.419 . S
C841 C842 1.362 . S
C842 H834 0.930 . S
C842 C841 1.362 . S
C842 C845 1.409 . S
C843 H835 0.930 . S
C843 C844 1.355 . S
C843 C845 1.415 . S
C844 C843 1.355 . S
C844 C846 1.419 . S
C845 C840 1.425 . S
C845 C842 1.409 . S
C845 C843 1.415 . S
C846 H836 0.930 . S
C846 C844 1.419 . S
C846 C847 1.362 . S
C847 H837 0.930 . S
C847 C840 1.409 . S
C847 C846 1.362 . S
H848 C854 0.930 . S
H849 C857 0.930 . S
H850 C858 0.930 . S
H851 C859 0.930 . S
H852 C862 0.930 . S
H853 C863 0.930 . S
C854 H848 0.930 . S
C854 C855 1.355 . S
C854 C856 1.415 . S
C855 C854 1.355 . S
C855 C857 1.419 . S
C856 C854 1.415 . S
C856 C861 1.425 1_455 S
C856 C863 1.409 . S
C857 H849 0.930 . S
C857 C855 1.419 . S
C857 C858 1.362 1_455 S
C858 H850 0.930 . S
C858 C857 1.362 1_655 S
C858 C861 1.409 . S
C859 H851 0.930 . S
C859 C860 1.355 . S
C859 C861 1.415 . S
C860 C859 1.355 . S
C860 C862 1.419 . S
C861 C856 1.425 1_655 S
C861 C858 1.409 . S
C861 C859 1.415 . S
C862 H852 0.930 . S
C862 C860 1.419 . S
C862 C863 1.362 1_655 S
C863 H853 0.930 . S
C863 C856 1.409 . S
C863 C862 1.362 1_455 S
H864 C870 0.930 . S
H865 C873 0.930 . S
H866 C874 0.930 . S
H867 C875 0.930 . S
H868 C878 0.930 . S
H869 C879 0.930 . S
C870 H864 0.930 . S
C870 C871 1.355 . S
C870 C872 1.415 . S
C871 C870 1.355 . S
C871 C873 1.419 . S
C872 C870 1.415 . S
C872 C877 1.425 1_455 S
C872 C879 1.409 1_455 S
C873 H865 0.930 . S
C873 C871 1.419 . S
C873 C874 1.362 . S
C874 H866 0.930 . S
C874 C873 1.362 . S
C874 C877 1.409 1_455 S
C875 H867 0.930 . S
C875 C876 1.355 . S
C875 C877 1.415 . S
C876 C875 1.355 . S
C876 C878 1.419 . S
C877 C872 1.425 1_655 S
C877 C874 1.409 1_655 S
C877 C875 1.415 . S
C878 H868 0.930 . S
C878 C876 1.419 . S
C878 C879 1.362 . S
C879 H869 0.930 . S
C879 C872 1.409 1_655 S
C879 C878 1.362 . S
H880 C886 0.930 . S
H881 C889 0.930 . S
H882 C890 0.930 . S
H883 C891 0.930 . S
H884 C894 0.930 . S
H885 C895 0.930 . S
C886 H880 0.930 . S
C886 C887 1.355 . S
C886 C888 1.415 . S
C887 C886 1.355 . S
C887 C889 1.419 . S
C888 C886 1.415 . S
C888 C893 1.425 . S
C888 C895 1.409 . S
C889 H881 0.930 . S
C889 C887 1.419 . S
C889 C890 1.362 . S
C890 H882 0.930 . S
C890 C889 1.362 . S
C890 C893 1.409 . S
C891 H883 0.930 . S
C891 C892 1.355 . S
C891 C893 1.415 . S
C892 C891 1.355 . S
C892 C894 1.419 . S
C893 C888 1.425 . S
C893 C890 1.409 . S
C893 C891 1.415 . S
C894 H884 0.930 . S
C894 C892 1.419 . S
C894 C895 1.362 . S
C895 H885 0.930 . S
C895 C888 1.409 . S
C895 C894 1.362 . S
H896 C902 0.930 . S
H897 C905 0.930 . S
H898 C906 0.930 . S
H899 C907 0.930 . S
H900 C910 0.930 . S
H901 C911 0.930 . S
C902 H896 0.930 . S
C902 C903 1.355 . S
C902 C904 1.415 . S
C903 C902 1.355 . S
C903 C905 1.419 . S
C904 C902 1.415 . S
C904 C909 1.425 . S
C904 C911 1.409 . S
C905 H897 0.930 . S
C905 C903 1.419 . S
C905 C906 1.362 . S
C906 H898 0.930 . S
C906 C905 1.362 . S
C906 C909 1.409 . S
C907 H899 0.930 . S
C907 C908 1.355 . S
C907 C909 1.415 . S
C908 C907 1.355 . S
C908 C910 1.419 . S
C909 C904 1.425 . S
C909 C906 1.409 . S
C909 C907 1.415 . S
C910 H900 0.930 . S
C910 C908 1.419 . S
C910 C911 1.362 . S
C911 H901 0.930 . S
C911 C904 1.409 . S
C911 C910 1.362 . S
H912 C918 0.930 . S
H913 C921 0.930 . S
H914 C922 0.930 . S
H915 C923 0.930 . S
H916 C926 0.930 . S
H917 C927 0.930 . S
C918 H912 0.930 . S
C918 C919 1.355 . S
C918 C920 1.415 . S
C919 C918 1.355 . S
C919 C921 1.419 . S
C920 C918 1.415 . S
C920 C925 1.425 . S
C920 C927 1.409 . S
C921 H913 0.930 . S
C921 C919 1.419 . S
C921 C922 1.362 . S
C922 H914 0.930 . S
C922 C921 1.362 . S
C922 C925 1.409 . S
C923 H915 0.930 . S
C923 C924 1.355 . S
C923 C925 1.415 . S
C924 C923 1.355 . S
C924 C926 1.419 . S
C925 C920 1.425 . S
C925 C922 1.409 . S
C925 C923 1.415 . S
C926 H916 0.930 . S
C926 C924 1.419 . S
C926 C927 1.362 . S
C927 H917 0.930 . S
C927 C920 1.409 . S
C927 C926 1.362 . S
H928 C934 0.930 . S
H929 C937 0.930 . S
H930 C938 0.930 . S
H931 C939 0.930 . S
H932 C942 0.930 . S
H933 C943 0.930 . S
C934 H928 0.930 . S
C934 C935 1.355 . S
C934 C936 1.415 . S
C935 C934 1.355 . S
C935 C937 1.419 . S
C936 C934 1.415 . S
C936 C941 1.425 . S
C936 C943 1.409 . S
C937 H929 0.930 . S
C937 C935 1.419 . S
C937 C938 1.362 . S
C938 H930 0.930 . S
C938 C937 1.362 . S
C938 C941 1.409 . S
C939 H931 0.930 . S
C939 C940 1.355 . S
C939 C941 1.415 . S
C940 C939 1.355 . S
C940 C942 1.419 . S
C941 C936 1.425 . S
C941 C938 1.409 . S
C941 C939 1.415 . S
C942 H932 0.930 . S
C942 C940 1.419 . S
C942 C943 1.362 . S
C943 H933 0.930 . S
C943 C936 1.409 . S
C943 C942 1.362 . S
H944 C950 0.930 . S
H945 C953 0.930 . S
H946 C954 0.930 . S
H947 C955 0.930 . S
H948 C958 0.930 . S
H949 C959 0.930 . S
C950 H944 0.930 . S
C950 C951 1.355 . S
C950 C952 1.415 . S
C951 C950 1.355 . S
C951 C953 1.419 . S
C952 C950 1.415 . S
C952 C957 1.425 . S
C952 C959 1.409 . S
C953 H945 0.930 . S
C953 C951 1.419 . S
C953 C954 1.362 . S
C954 H946 0.930 . S
C954 C953 1.362 . S
C954 C957 1.409 . S
C955 H947 0.930 . S
C955 C956 1.355 . S
C955 C957 1.415 . S
C956 C955 1.355 . S
C956 C958 1.419 . S
C957 C952 1.425 . S
C957 C954 1.409 . S
C957 C955 1.415 . S
C958 H948 0.930 . S
C958 C956 1.419 . S
C958 C959 1.362 . S
C959 H949 0.930 . S
C959 C952 1.409 . S
C959 C958 1.362 . S
H960 C966 0.930 . S
H961 C969 0.930 . S
H962 C970 0.930 . S
H963 C971 0.930 . S
H964 C974 0.930 . S
H965 C975 0.930 . S
C966 H960 0.930 . S
C966 C967 1.355 . S
C966 C968 1.415 . S
C967 C966 1.355 . S
C967 C969 1.419 . S
C968 C966 1.415 . S
C968 C973 1.425 . S
C968 C975 1.409 . S
C969 H961 0.930 . S
C969 C967 1.419 . S
C969 C970 1.362 . S
C970 H962 0.930 . S
C970 C969 1.362 . S
C970 C973 1.409 . S
C971 H963 0.930 . S
C971 C972 1.355 . S
C971 C973 1.415 . S
C972 C971 1.355 . S
C972 C974 1.419 . S
C973 C968 1.425 . S
C973 C970 1.409 . S
C973 C971 1.415 . S
C974 H964 0.930 . S
C974 C972 1.419 . S
C974 C975 1.362 . S
C975 H965 0.930 . S
C975 C968 1.409 . S
C975 C974 1.362 . S
H976 C982 0.930 . S
H977 C985 0.930 . S
H978 C986 0.930 . S
H979 C987 0.930 . S
H980 C990 0.930 . S
H981 C991 0.930 . S
C982 H976 0.930 . S
C982 C983 1.355 . S
C982 C984 1.415 . S
C983 C982 1.355 . S
C983 C985 1.419 . S
C984 C982 1.415 . S
C984 C989 1.425 . S
C984 C991 1.409 . S
C985 H977 0.930 . S
C985 C983 1.419 . S
C985 C986 1.362 . S
C986 H978 0.930 . S
C986 C985 1.362 . S
C986 C989 1.409 . S
C987 H979 0.930 . S
C987 C988 1.355 . S
C987 C989 1.415 . S
C988 C987 1.355 . S
C988 C990 1.419 . S
C989 C984 1.425 . S
C989 C986 1.409 . S
C989 C987 1.415 . S
C990 H980 0.930 . S
C990 C988 1.419 . S
C990 C991 1.362 . S
C991 H981 0.930 . S
C991 C984 1.409 . S
C991 C990 1.362 . S
H992 C998 0.930 . S
H993 C1001 0.930 . S
H994 C1002 0.930 . S
H995 C1003 0.930 . S
H996 C1006 0.930 . S
H997 C1007 0.930 . S
C998 H992 0.930 . S
C998 C999 1.355 . S
C998 C1000 1.415 . S
C999 C998 1.355 . S
C999 C1001 1.419 . S
C1000 C998 1.415 . S
C1000 C1005 1.425 . S
C1000 C1007 1.409 . S
C1001 H993 0.930 . S
C1001 C999 1.419 . S
C1001 C1002 1.362 . S
C1002 H994 0.930 . S
C1002 C1001 1.362 . S
C1002 C1005 1.409 . S
C1003 H995 0.930 . S
C1003 C1004 1.355 . S
C1003 C1005 1.415 . S
C1004 C1003 1.355 . S
C1004 C1006 1.419 . S
C1005 C1000 1.425 . S
C1005 C1002 1.409 . S
C1005 C1003 1.415 . S
C1006 H996 0.930 . S
C1006 C1004 1.419 . S
C1006 C1007 1.362 . S
C1007 H997 0.930 . S
C1007 C1000 1.409 . S
C1007 C1006 1.362 . S
H1008 C1014 0.930 . S
H1009 C1017 0.930 . S
H1010 C1018 0.930 . S
H1011 C1019 0.930 . S
H1012 C1022 0.930 . S
H1013 C1023 0.930 . S
C1014 H1008 0.930 . S
C1014 C1015 1.355 . S
C1014 C1016 1.415 . S
C1015 C1014 1.355 . S
C1015 C1017 1.419 . S
C1016 C1014 1.415 . S
C1016 C1021 1.425 . S
C1016 C1023 1.409 . S
C1017 H1009 0.930 . S
C1017 C1015 1.419 . S
C1017 C1018 1.362 . S
C1018 H1010 0.930 . S
C1018 C1017 1.362 . S
C1018 C1021 1.409 . S
C1019 H1011 0.930 . S
C1019 C1020 1.355 . S
C1019 C1021 1.415 . S
C1020 C1019 1.355 . S
C1020 C1022 1.419 . S
C1021 C1016 1.425 . S
C1021 C1018 1.409 . S
C1021 C1019 1.415 . S
C1022 H1012 0.930 . S
C1022 C1020 1.419 . S
C1022 C1023 1.362 . S
C1023 H1013 0.930 . S
C1023 C1016 1.409 . S
C1023 C1022 1.362 . S
H1024 C1030 0.930 . S
H1025 C1033 0.930 . S
H1026 C1034 0.930 . S
H1027 C1035 0.930 . S
H1028 C1038 0.930 . S
H1029 C1039 0.930 . S
C1030 H1024 0.930 . S
C1030 C1031 1.355 . S
C1030 C1032 1.415 . S
C1031 C1030 1.355 . S
C1031 C1033 1.419 . S
C1032 C1030 1.415 . S
C1032 C1037 1.425 . S
C1032 C1039 1.409 . S
C1033 H1025 0.930 . S
C1033 C1031 1.419 . S
C1033 C1034 1.362 . S
C1034 H1026 0.930 . S
C1034 C1033 1.362 . S
C1034 C1037 1.409 . S
C1035 H1027 0.930 . S
C1035 C1036 1.355 . S
C1035 C1037 1.415 . S
C1036 C1035 1.355 . S
C1036 C1038 1.419 . S
C1037 C1032 1.425 . S
C1037 C1034 1.409 . S
C1037 C1035 1.415 . S
C1038 H1028 0.930 . S
C1038 C1036 1.419 . S
C1038 C1039 1.362 . S
C1039 H1029 0.930 . S
C1039 C1032 1.409 . S
C1039 C1038 1.362 . S
H1040 C1046 0.930 . S
H1041 C1049 0.930 . S
H1042 C1050 0.930 . S
H1043 C1051 0.930 . S
H1044 C1054 0.930 . S
H1045 C1055 0.930 . S
C1046 H1040 0.930 . S
C1046 C1047 1.355 . S
C1046 C1048 1.415 . S
C1047 C1046 1.355 . S
C1047 C1049 1.419 . S
C1048 C1046 1.415 . S
C1048 C1053 1.425 . S
C1048 C1055 1.409 . S
C1049 H1041 0.930 . S
C1049 C1047 1.419 . S
C1049 C1050 1.362 . S
C1050 H1042 0.930 . S
C1050 C1049 1.362 . S
C1050 C1053 1.409 . S
C1051 H1043 0.930 . S
C1051 C1052 1.355 . S
C1051 C1053 1.415 . S
C1052 C1051 1.355 . S
C1052 C1054 1.419 . S
C1053 C1048 1.425 . S
C1053 C1050 1.409 . S
C1053 C1051 1.415 . S
C1054 H1044 0.930 . S
C1054 C1052 1.419 . S
C1054 C1055 1.362 . S
C1055 H1045 0.930 . S
C1055 C1048 1.409 . S
C1055 C1054 1.362 . S
H1056 C1062 0.930 . S
H1057 C1065 0.930 . S
H1058 C1066 0.930 1_565 S
H1059 C1067 0.930 . S
H1060 C1070 0.930 . S
H1061 C1071 0.930 . S
C1062 H1056 0.930 . S
C1062 C1063 1.355 . S
C1062 C1064 1.415 . S
C1063 C1062 1.355 . S
C1063 C1065 1.419 1_545 S
C1064 C1062 1.415 . S
C1064 C1069 1.425 . S
C1064 C1071 1.409 . S
C1065 H1057 0.930 . S
C1065 C1063 1.419 1_565 S
C1065 C1066 1.362 1_565 S
C1066 H1058 0.930 1_545 S
C1066 C1065 1.362 1_545 S
C1066 C1069 1.409 . S
C1067 H1059 0.930 . S
C1067 C1068 1.355 . S
C1067 C1069 1.415 . S
C1068 C1067 1.355 . S
C1068 C1070 1.419 . S
C1069 C1064 1.425 . S
C1069 C1066 1.409 . S
C1069 C1067 1.415 . S
C1070 H1060 0.930 . S
C1070 C1068 1.419 . S
C1070 C1071 1.362 . S
C1071 H1061 0.930 . S
C1071 C1064 1.409 . S
C1071 C1070 1.362 . S
H1072 C1078 0.930 . S
H1073 C1081 0.930 . S
H1074 C1082 0.930 . S
H1075 C1083 0.930 . S
H1076 C1086 0.930 . S
H1077 C1087 0.930 . S
C1078 H1072 0.930 . S
C1078 C1079 1.355 . S
C1078 C1080 1.415 . S
C1079 C1078 1.355 . S
C1079 C1081 1.419 . S
C1080 C1078 1.415 . S
C1080 C1085 1.425 . S
C1080 C1087 1.409 . S
C1081 H1073 0.930 . S
C1081 C1079 1.419 . S
C1081 C1082 1.362 . S
C1082 H1074 0.930 . S
C1082 C1081 1.362 . S
C1082 C1085 1.409 . S
C1083 H1075 0.930 . S
C1083 C1084 1.355 . S
C1083 C1085 1.415 . S
C1084 C1083 1.355 . S
C1084 C1086 1.419 . S
C1085 C1080 1.425 . S
C1085 C1082 1.409 . S
C1085 C1083 1.415 . S
C1086 H1076 0.930 . S
C1086 C1084 1.419 . S
C1086 C1087 1.362 . S
C1087 H1077 0.930 . S
C1087 C1080 1.409 . S
C1087 C1086 1.362 . S
H1088 C1094 0.930 1_565 S
H1089 C1097 0.930 1_655 S
H1090 C1098 0.930 . S
H1091 C1099 0.930 . S
H1092 C1102 0.930 . S
H1093 C1103 0.930 1_565 S
C1094 H1088 0.930 1_545 S
C1094 C1095 1.355 . S
C1094 C1096 1.415 . S
C1095 C1094 1.355 . S
C1095 C1097 1.419 . S
C1096 C1094 1.415 . S
C1096 C1101 1.425 . S
C1096 C1103 1.409 . S
C1097 H1089 0.930 1_455 S
C1097 C1095 1.419 . S
C1097 C1098 1.362 . S
C1098 H1090 0.930 . S
C1098 C1097 1.362 . S
C1098 C1101 1.409 . S
C1099 H1091 0.930 . S
C1099 C1100 1.355 . S
C1099 C1101 1.415 . S
C1100 C1099 1.355 . S
C1100 C1102 1.419 . S
C1101 C1096 1.425 . S
C1101 C1098 1.409 . S
C1101 C1099 1.415 . S
C1102 H1092 0.930 . S
C1102 C1100 1.419 . S
C1102 C1103 1.362 . S
C1103 H1093 0.930 1_545 S
C1103 C1096 1.409 . S
C1103 C1102 1.362 . S
H1104 C1110 0.930 . S
H1105 C1113 0.930 . S
H1106 C1114 0.930 . S
H1107 C1115 0.930 . S
H1108 C1118 0.930 . S
H1109 C1119 0.930 . S
C1110 H1104 0.930 . S
C1110 C1111 1.355 . S
C1110 C1112 1.415 . S
C1111 C1110 1.355 . S
C1111 C1113 1.419 . S
C1112 C1110 1.415 . S
C1112 C1117 1.425 . S
C1112 C1119 1.409 . S
C1113 H1105 0.930 . S
C1113 C1111 1.419 . S
C1113 C1114 1.362 . S
C1114 H1106 0.930 . S
C1114 C1113 1.362 . S
C1114 C1117 1.409 . S
C1115 H1107 0.930 . S
C1115 C1116 1.355 . S
C1115 C1117 1.415 . S
C1116 C1115 1.355 . S
C1116 C1118 1.419 . S
C1117 C1112 1.425 . S
C1117 C1114 1.409 . S
C1117 C1115 1.415 . S
C1118 H1108 0.930 . S
C1118 C1116 1.419 . S
C1118 C1119 1.362 . S
C1119 H1109 0.930 . S
C1119 C1112 1.409 . S
C1119 C1118 1.362 . S
H1120 C1126 0.930 . S
H1121 C1129 0.930 . S
H1122 C1130 0.930 . S
H1123 C1131 0.930 . S
H1124 C1134 0.930 . S
H1125 C1135 0.930 . S
C1126 H1120 0.930 . S
C1126 C1127 1.355 . S
C1126 C1128 1.415 . S
C1127 C1126 1.355 . S
C1127 C1129 1.419 . S
C1128 C1126 1.415 . S
C1128 C1133 1.425 . S
C1128 C1135 1.409 1_565 S
C1129 H1121 0.930 . S
C1129 C1127 1.419 . S
C1129 C1130 1.362 . S
C1130 H1122 0.930 . S
C1130 C1129 1.362 . S
C1130 C1133 1.409 . S
C1131 H1123 0.930 . S
C1131 C1132 1.355 . S
C1131 C1133 1.415 . S
C1132 C1131 1.355 . S
C1132 C1134 1.419 1_565 S
C1133 C1128 1.425 . S
C1133 C1130 1.409 . S
C1133 C1131 1.415 . S
C1134 H1124 0.930 . S
C1134 C1132 1.419 1_545 S
C1134 C1135 1.362 . S
C1135 H1125 0.930 . S
C1135 C1128 1.409 1_545 S
C1135 C1134 1.362 . S
C375 C16 1.100 . S
C380 C292 1.100 . S
C391 C131 1.085 . S
C396 C39 1.085 . S
C407 C62 1.093 . S
C412 C338 1.093 . S
C423 C85 1.039 . S
C428 C177 1.039 . S
C439 C108 1.072 . S
C444 C200 1.072 . S
C455 C246 1.093 . S
C460 C154 1.093 . S
C471 C315 1.094 . S
C476 C223 1.094 . S
C487 C269 1.073 . S
C492 C361 1.073 . S
C503 C225 1.677 . S
C508 C17 1.553 . S
C519 C40 1.557 . S
C524 C248 1.680 . S
C535 C63 1.629 . S
C540 C271 1.661 . S
C551 C202 1.673 . S
C556 C86 1.606 . S
C567 C317 1.654 . S
C572 C109 1.625 . S
C583 C340 1.679 . S
C588 C132 1.555 . S
C599 C155 1.553 . S
C604 C363 1.677 . S
C615 C294 1.655 . S
C620 C178 1.604 . S
C631 C201 1.630 . S
C636 C41 1.657 . S
C647 C224 1.554 . S
C652 C64 1.675 . S
C663 C247 1.615 . S
C668 C87 1.670 . S
C679 C18 1.681 . S
C684 C270 1.569 . S
C695 C133 1.681 . S
C700 C293 1.567 . S
C711 C316 1.575 . S
C716 C156 1.663 . S
C727 C179 1.654 . S
C732 C339 1.617 . S
C743 C362 1.565 . S
C748 C110 1.681 . S
C759 C20 1.432 . S
C764 C250 1.385 . S
C775 C43 1.431 . S
C780 C273 1.429 . S
C791 C204 1.438 . S
C796 C66 1.401 . S
C807 C89 1.353 . S
C812 C227 1.390 . S
C823 C112 1.418 . S
C828 C342 1.437 . S
C839 C135 1.373 . S
C844 C365 1.355 . S
C855 C296 1.409 . S
C860 C158 1.438 . S
C871 C181 1.435 . S
C876 C319 1.390 . S
C887 C21 1.296 . S
C892 C180 1.278 . S
C903 C295 1.301 . S
C908 C44 1.332 . S
C919 C67 1.292 . S
C924 C134 1.255 . S
C935 C90 1.299 1_455 S
C940 C341 1.239 . S
C951 C113 1.308 . S
C956 C88 1.304 . S
C967 C203 1.256 . S
C972 C136 1.292 . S
C983 C159 1.293 . S
C988 C42 1.247 . S
C999 C249 1.293 . S
C1004 C182 1.331 1_655 S
C1015 C205 1.292 . S
C1020 C364 1.251 . S
C1031 C111 1.318 . S
C1036 C228 1.320 1_665 S
C1047 C318 1.302 . S
C1052 C251 1.332 . S
C1063 C274 1.325 1_545 S
C1068 C157 1.314 . S
C1079 C297 1.323 . S
C1084 C272 1.266 . S
C1095 C320 1.286 1_445 S
C1100 C19 1.269 . S
C1111 C226 1.269 . S
C1116 C343 1.324 . S
C1127 C65 1.272 . S
C1132 C366 1.320 1_565 S
