# Generated by pormake.
# Topology fst, (5)-cn, num edge types: 1
# Building blocks:
#     Node 0, Type 0, BuildingBlock: XOMCOT_clean_sbu_1, # of connection points: 5
#     Node 1, Type 0, BuildingBlock: XOMCOT_clean_sbu_1, # of connection points: 5
#     Node 2, Type 0, BuildingBlock: XOMCOT_clean_sbu_1, # of connection points: 5
#     Node 3, Type 0, BuildingBlock: XOMCOT_clean_sbu_1, # of connection points: 5
#     Node 4, Type 0, BuildingBlock: XOMCOT_clean_sbu_1, # of connection points: 5
#     Node 5, Type 0, BuildingBlock: XOMCOT_clean_sbu_1, # of connection points: 5
#     Node 6, Type 0, BuildingBlock: XOMCOT_clean_sbu_1, # of connection points: 5
#     Node 7, Type 0, BuildingBlock: XOMCOT_clean_sbu_1, # of connection points: 5
#     Node 8, Type 0, BuildingBlock: XOMCOT_clean_sbu_1, # of connection points: 5
#     Node 9, Type 0, BuildingBlock: XOMCOT_clean_sbu_1, # of connection points: 5
#     Node 10, Type 0, BuildingBlock: XOMCOT_clean_sbu_1, # of connection points: 5
#     Node 11, Type 0, BuildingBlock: XOMCOT_clean_sbu_1, # of connection points: 5
#     Edge 12, Type (0, 0), BuildingBlock: AJUNOK_clean_linker_0, # of connection points: 2
#     Edge 13, Type (0, 0), BuildingBlock: AJUNOK_clean_linker_0, # of connection points: 2
#     Edge 14, Type (0, 0), BuildingBlock: AJUNOK_clean_linker_0, # of connection points: 2
#     Edge 15, Type (0, 0), BuildingBlock: AJUNOK_clean_linker_0, # of connection points: 2
#     Edge 16, Type (0, 0), BuildingBlock: AJUNOK_clean_linker_0, # of connection points: 2
#     Edge 17, Type (0, 0), BuildingBlock: AJUNOK_clean_linker_0, # of connection points: 2
#     Edge 18, Type (0, 0), BuildingBlock: AJUNOK_clean_linker_0, # of connection points: 2
#     Edge 19, Type (0, 0), BuildingBlock: AJUNOK_clean_linker_0, # of connection points: 2
#     Edge 20, Type (0, 0), BuildingBlock: AJUNOK_clean_linker_0, # of connection points: 2
#     Edge 21, Type (0, 0), BuildingBlock: AJUNOK_clean_linker_0, # of connection points: 2
#     Edge 22, Type (0, 0), BuildingBlock: AJUNOK_clean_linker_0, # of connection points: 2
#     Edge 23, Type (0, 0), BuildingBlock: AJUNOK_clean_linker_0, # of connection points: 2
#     Edge 24, Type (0, 0), BuildingBlock: AJUNOK_clean_linker_0, # of connection points: 2
#     Edge 25, Type (0, 0), BuildingBlock: AJUNOK_clean_linker_0, # of connection points: 2
#     Edge 26, Type (0, 0), BuildingBlock: AJUNOK_clean_linker_0, # of connection points: 2
#     Edge 27, Type (0, 0), BuildingBlock: AJUNOK_clean_linker_0, # of connection points: 2
#     Edge 28, Type (0, 0), BuildingBlock: AJUNOK_clean_linker_0, # of connection points: 2
#     Edge 29, Type (0, 0), BuildingBlock: AJUNOK_clean_linker_0, # of connection points: 2
#     Edge 30, Type (0, 0), BuildingBlock: AJUNOK_clean_linker_0, # of connection points: 2
#     Edge 31, Type (0, 0), BuildingBlock: AJUNOK_clean_linker_0, # of connection points: 2
#     Edge 32, Type (0, 0), BuildingBlock: AJUNOK_clean_linker_0, # of connection points: 2
#     Edge 33, Type (0, 0), BuildingBlock: AJUNOK_clean_linker_0, # of connection points: 2
#     Edge 34, Type (0, 0), BuildingBlock: AJUNOK_clean_linker_0, # of connection points: 2
#     Edge 35, Type (0, 0), BuildingBlock: AJUNOK_clean_linker_0, # of connection points: 2
#     Edge 36, Type (0, 0), BuildingBlock: AJUNOK_clean_linker_0, # of connection points: 2
#     Edge 37, Type (0, 0), BuildingBlock: AJUNOK_clean_linker_0, # of connection points: 2
#     Edge 38, Type (0, 0), BuildingBlock: AJUNOK_clean_linker_0, # of connection points: 2
#     Edge 39, Type (0, 0), BuildingBlock: AJUNOK_clean_linker_0, # of connection points: 2
#     Edge 40, Type (0, 0), BuildingBlock: AJUNOK_clean_linker_0, # of connection points: 2
#     Edge 41, Type (0, 0), BuildingBlock: AJUNOK_clean_linker_0, # of connection points: 2
# Relax obj value: 0.135
# Max RMSD: 0.119
# Mean RMSD: 0.119
data_MOF--net-fst--node1-XOMCOT_clean_sbu_1--edge1-AJUNOK_clean_linker_0
_symmetry_space_group_name_H-M    P1
_symmetry_Int_Tables_number       1
_symmetry_cell_setting            triclinic
loop_
_symmetry_equiv_pos_as_xyz
'x, y, z'
_cell_length_a     55.59132
_cell_length_b     55.85462
_cell_length_c     13.773954
_cell_angle_alpha  90.055814
_cell_angle_beta   89.866461
_cell_angle_gamma 119.97792
loop_
_atom_site_label
_atom_site_type_symbol
_atom_site_fract_x
_atom_site_fract_y
_atom_site_fract_z
_atom_type_partial_charge
C0 C 0.15456 0.46326 0.87454 0.0
C1 C 0.15801 0.46274 0.77609 0.0
N2 N 0.1444 0.43628 0.74588 0.0
N3 N 0.1383 0.43732 0.90803 0.0
C4 C 0.13327 0.4212 0.8281 0.0
H5 H 0.1631 0.48165 0.91904 0.0
Co6 Co 0.12933 0.43087 0.04219 0.0
C7 C 0.07087 0.38615 0.96023 0.0
O8 O 0.0752 0.39167 0.86732 0.0
N9 N 0.12109 0.42527 0.17777 0.0
C10 C 0.09706 0.41996 0.31368 0.0
C11 C 0.09771 0.42336 0.21515 0.0
C12 C 0.13475 0.42354 0.25705 0.0
N13 N 0.12023 0.41986 0.34058 0.0
O14 O 0.14371 0.40553 0.04259 0.0
H15 H 0.08233 0.42534 0.17354 0.0
H16 H 0.15498 0.42524 0.25428 0.0
O17 O 0.09041 0.40027 0.02083 0.0
C18 C 0.16972 0.41818 0.06127 0.0
O19 O 0.1818 0.44442 0.08536 0.0
N20 N 0.11801 0.45779 0.04013 0.0
C21 C 0.11068 0.50376 0.02488 0.0
C22 C 0.09394 0.47957 0.97183 0.0
C23 C 0.09807 0.45688 0.97989 0.0
C24 C 0.13401 0.48089 0.09401 0.0
C25 C 0.13055 0.504 0.0881 0.0
H26 H 0.08611 0.43923 0.93415 0.0
H27 H 0.1503 0.48175 0.13932 0.0
H28 H 0.12205 0.39887 0.83036 0.0
H29 H 0.16888 0.48067 0.72965 0.0
H30 H 0.08129 0.41895 0.36254 0.0
H31 H 0.07813 0.47835 0.92296 0.0
H32 H 0.14409 0.5223 0.12979 0.0
C33 C 0.69728 0.14921 0.8914 0.0
C34 C 0.70135 0.15338 0.79315 0.0
N35 N 0.7151 0.14075 0.76134 0.0
N36 N 0.70765 0.13333 0.92289 0.0
C37 C 0.71915 0.12918 0.8419 0.0
H38 H 0.68686 0.15699 0.93707 0.0
Co39 Co 0.70568 0.12395 0.05665 0.0
C40 C 0.69248 0.06657 0.96831 0.0
O41 O 0.6909 0.07169 0.87638 0.0
N42 N 0.70364 0.11542 0.19205 0.0
C43 C 0.68542 0.09167 0.32851 0.0
C44 C 0.68285 0.09175 0.22965 0.0
C45 C 0.71847 0.12971 0.27139 0.0
N46 N 0.70777 0.11557 0.35566 0.0
O47 O 0.74555 0.13883 0.05524 0.0
H48 H 0.66586 0.07594 0.18809 0.0
H49 H 0.73649 0.15016 0.26778 0.0
O50 O 0.69793 0.08544 0.03183 0.0
C51 C 0.75808 0.16466 0.07492 0.0
O52 O 0.74307 0.17588 0.0996 0.0
N53 N 0.66727 0.11225 0.05732 0.0
C54 C 0.61326 0.10398 0.0517 0.0
C55 C 0.62069 0.0878 0.99478 0.0
C56 C 0.64784 0.09232 0.99834 0.0
C57 C 0.66039 0.12808 0.11341 0.0
C58 C 0.63356 0.12425 0.11196 0.0
H59 H 0.65337 0.08061 0.95045 0.0
H60 H 0.67618 0.14449 0.15713 0.0
H61 H 0.73044 0.11805 0.84166 0.0
H62 H 0.69358 0.16386 0.74792 0.0
H63 H 0.671 0.07576 0.37738 0.0
H64 H 0.60577 0.07214 0.94641 0.0
H65 H 0.62909 0.13784 0.15479 0.0
C66 C 0.55941 0.69417 0.89117 0.0
C67 C 0.55998 0.69802 0.79263 0.0
N68 N 0.5866 0.7115 0.76257 0.0
N69 N 0.58552 0.70462 0.92495 0.0
C70 C 0.60172 0.71598 0.84503 0.0
H71 H 0.54086 0.68402 0.9352 0.0
Co72 Co 0.5933 0.70322 0.05875 0.0
C73 C 0.634 0.68611 0.96664 0.0
O74 O 0.62363 0.68135 0.87866 0.0
N75 N 0.60036 0.7016 0.19358 0.0
C76 C 0.60761 0.68403 0.32826 0.0
C77 C 0.60439 0.6814 0.22964 0.0
C78 C 0.6006 0.71603 0.27376 0.0
N79 N 0.60545 0.70591 0.35664 0.0
O80 O 0.61912 0.74267 0.05436 0.0
H81 H 0.60411 0.66499 0.1871 0.0
H82 H 0.59682 0.73322 0.27214 0.0
O83 O 0.62341 0.69437 0.03229 0.0
C84 C 0.60625 0.75565 0.07503 0.0
O85 O 0.58014 0.74123 0.10211 0.0
N86 N 0.56554 0.66547 0.06361 0.0
C87 C 0.51738 0.61335 0.06745 0.0
C88 C 0.54167 0.61725 0.02141 0.0
C89 C 0.56548 0.64351 1.01963 0.0
C90 C 0.5424 0.66193 0.11069 0.0
C91 C 0.51807 0.63624 0.11253 0.0
H92 H 0.58335 0.64596 0.98095 0.0
H93 H 0.54249 0.6796 0.14336 0.0
H94 H 0.62416 0.72726 0.84753 0.0
H95 H 0.54197 0.69047 0.74607 0.0
H96 H 0.61 0.66999 0.37611 0.0
H97 H 0.54215 0.60021 0.98565 0.0
H98 H 0.49971 0.63469 0.14592 0.0
C99 C 0.86935 0.54692 0.90738 0.0
C100 C 0.86835 0.54468 0.80783 0.0
N101 N 0.88789 0.56891 0.77022 0.0
N102 N 0.88959 0.57238 0.93347 0.0
C103 C 0.90031 0.58548 0.84785 0.0
H104 H 0.85582 0.53103 0.95788 0.0
Co105 Co 0.89673 0.5833 0.06463 0.0
C106 C 0.95137 0.63591 1.00052 0.0
O107 O 0.94139 0.64966 0.9547 0.0
N108 N 0.90363 0.5943 0.19759 0.0
C109 C 0.91914 0.6221 0.32645 0.0
C110 C 0.91825 0.62089 0.22685 0.0
C111 C 0.89541 0.57974 0.28198 0.0
N112 N 0.90481 0.5962 0.36183 0.0
O113 O 0.88134 0.60749 0.04279 0.0
H114 H 0.92743 0.63855 0.17882 0.0
H115 H 0.88198 0.55761 0.285 0.0
O116 O 0.93485 0.61231 0.03749 0.0
C117 C 0.85814 0.60029 0.08493 0.0
O118 O 0.84887 0.58032 0.14941 0.0
N119 N 0.90894 0.55747 0.0832 0.0
C120 C 0.91632 0.51143 0.07476 0.0
C121 C 0.93693 0.53725 0.04019 0.0
C122 C 0.93282 0.56 0.04455 0.0
C123 C 0.88914 0.53271 0.12013 0.0
C124 C 0.89256 0.50953 0.11781 0.0
H125 H 0.94823 0.57899 1.01109 0.0
H126 H 0.86967 0.5304 0.14547 0.0
H127 H 0.91679 0.6067 0.84191 0.0
H128 H 0.85379 0.52684 0.7662 0.0
H129 H 0.92966 0.64076 0.3695 0.0
H130 H 0.95564 0.53959 1.00675 0.0
H131 H 0.87597 0.48988 0.14414 0.0
C132 C 0.32836 0.86485 0.88507 0.0
C133 C 0.32447 0.86139 0.7866 0.0
N134 N 0.31084 0.8743 0.75656 0.0
N135 N 0.31781 0.88039 0.91871 0.0
C136 C 0.30636 0.88501 0.83888 0.0
H137 H 0.33871 0.85679 0.92942 0.0
Co138 Co 0.31964 0.8893 0.05271 0.0
C139 C 0.33293 0.94692 0.96682 0.0
O140 O 0.33539 0.94226 0.87511 0.0
N141 N 0.32163 0.89758 0.1881 0.0
C142 C 0.33954 0.92195 0.32348 0.0
C143 C 0.34235 0.92141 0.22488 0.0
C144 C 0.30668 0.88357 0.26781 0.0
N145 N 0.31701 0.89827 0.35105 0.0
O146 O 0.27965 0.87429 0.05171 0.0
H147 H 0.35935 0.93713 0.18289 0.0
H148 H 0.28888 0.86294 0.26561 0.0
O149 O 0.32716 0.92782 0.02962 0.0
C150 C 0.26668 0.84847 0.07185 0.0
O151 O 0.28126 0.83694 0.0981 0.0
N152 N 0.35813 0.90109 0.0526 0.0
C153 C 0.41185 0.9087 0.04094 0.0
C154 C 0.40457 0.92561 0.9881 0.0
C155 C 0.37754 0.92132 0.99425 0.0
C156 C 0.36508 0.88501 0.10674 0.0
C157 C 0.39183 0.88857 0.10251 0.0
H158 H 0.3721 0.93346 0.94856 0.0
H159 H 0.34939 0.86854 0.1507 0.0
H160 H 0.29462 0.89566 0.8414 0.0
H161 H 0.33209 0.851 0.74006 0.0
H162 H 0.35387 0.93802 0.37194 0.0
H163 H 0.41945 0.94165 0.94064 0.0
H164 H 0.39643 0.87489 0.14402 0.0
C165 C 0.47093 0.31861 0.90854 0.0
C166 C 0.47405 0.31689 0.81051 0.0
N167 N 0.44923 0.30763 0.76752 0.0
N168 N 0.44429 0.31071 0.92966 0.0
C169 C 0.43126 0.30268 0.84213 0.0
H170 H 0.48732 0.32546 0.96184 0.0
Co171 Co 0.43543 0.31214 0.06267 0.0
C172 C 0.39092 0.32539 0.97191 0.0
O173 O 0.39751 0.32656 0.88 0.0
N174 N 0.42805 0.31355 0.19774 0.0
C175 C 0.42284 0.33173 0.33498 0.0
C176 C 0.42415 0.33365 0.23569 0.0
C177 C 0.42979 0.29999 0.27728 0.0
N178 N 0.42629 0.31053 0.36162 0.0
O179 O 0.41031 0.2725 0.05886 0.0
H180 H 0.42525 0.35058 0.19447 0.0
H181 H 0.43552 0.28414 0.27427 0.0
O182 O 0.40461 0.32031 0.03577 0.0
C183 C 0.42322 0.25951 0.07843 0.0
O184 O 0.4494 0.2739 0.10433 0.0
N185 N 0.46217 0.35039 0.06525 0.0
C186 C 0.5086 0.40371 0.05575 0.0
C187 C 0.48541 0.39608 0.99608 0.0
C188 C 0.46242 0.3693 1.00182 0.0
C189 C 0.48428 0.35758 0.12505 0.0
C190 C 0.50754 0.38412 0.12204 0.0
H191 H 0.44567 0.36339 0.95109 0.0
H192 H 0.48435 0.34226 0.17283 0.0
H193 H 0.40908 0.2931 0.83271 0.0
H194 H 0.49331 0.3221 0.77395 0.0
H195 H 0.42202 0.3464 0.38443 0.0
H196 H 0.48558 0.41015 0.94173 0.0
H197 H 0.52493 0.38901 0.1694 0.0
C198 C 0.55761 0.8669 0.16331 0.0
C199 C 0.55741 0.86287 0.26168 0.0
N200 N 0.58377 0.87627 0.29395 0.0
N201 N 0.5839 0.88343 0.13226 0.0
C202 C 0.59948 0.8882 0.2136 0.0
H203 H 0.53948 0.85859 0.11726 0.0
Co204 Co 0.59167 0.89294 0.99883 0.0
C205 C 0.6344 0.95058 0.08872 0.0
O206 O 0.62649 0.94547 0.17979 0.0
N207 N 0.59856 0.90171 0.86376 0.0
C208 C 0.60457 0.92578 0.72801 0.0
C209 C 0.6022 0.92571 0.82704 0.0
C210 C 0.59839 0.88725 0.78384 0.0
N211 N 0.60209 0.90157 0.69992 0.0
O212 O 0.61735 0.87889 1.00146 0.0
H213 H 0.60216 0.94198 0.86954 0.0
H214 H 0.59524 0.86655 0.78686 0.0
O215 O 0.62198 0.93161 0.02474 0.0
C216 C 0.60493 0.8531 0.98113 0.0
O217 O 0.57882 0.8411 0.95408 0.0
N218 N 0.56433 0.90377 0.99685 0.0
C219 C 0.51738 0.91007 1.00124 0.0
C220 C 0.5407 0.92683 0.05857 0.0
C221 C 0.56395 0.92331 0.05557 0.0
C222 C 0.54193 0.88745 0.94011 0.0
C223 C 0.51833 0.8903 0.94093 0.0
H224 H 0.58092 0.93543 0.10383 0.0
H225 H 0.54197 0.87135 0.89657 0.0
H226 H 0.62193 0.89997 0.21414 0.0
H227 H 0.53906 0.85192 0.30657 0.0
H228 H 0.60668 0.94202 0.67981 0.0
H229 H 0.54074 0.94215 0.10693 0.0
H230 H 0.50055 0.87631 0.89769 0.0
C231 C 0.69671 0.54852 0.15447 0.0
C232 C 0.70068 0.54842 0.25276 0.0
N233 N 0.7139 0.5747 0.28467 0.0
N234 N 0.70661 0.57467 0.12309 0.0
C235 C 0.71777 0.59028 0.20412 0.0
H236 H 0.68661 0.5304 0.10875 0.0
Co237 Co 0.70434 0.58205 0.98955 0.0
C238 C 0.69044 0.62573 0.07928 0.0
O239 O 0.68848 0.61862 0.17089 0.0
N240 N 0.70206 0.58856 0.85428 0.0
C241 C 0.68349 0.59389 0.71843 0.0
C242 C 0.68108 0.59131 0.81742 0.0
C243 C 0.71686 0.58918 0.77442 0.0
N244 N 0.70593 0.59245 0.69052 0.0
O245 O 0.74423 0.60721 0.99004 0.0
H246 H 0.66405 0.59001 0.85957 0.0
H247 H 0.73503 0.5869 0.77731 0.0
O248 O 0.69622 0.61264 1.01521 0.0
C249 C 0.75746 0.59467 0.9678 0.0
O250 O 0.7431 0.5687 0.94045 0.0
N251 N 0.66596 0.55513 0.99 0.0
C252 C 0.61284 0.5083 1.00222 0.0
C253 C 0.62002 0.53179 0.05928 0.0
C254 C 0.64671 0.55498 0.05222 0.0
C255 C 0.65918 0.53271 0.93271 0.0
C256 C 0.63276 0.50924 0.93712 0.0
H257 H 0.65224 0.57199 0.10104 0.0
H258 H 0.67477 0.53262 0.88584 0.0
H259 H 0.72863 0.61263 0.20443 0.0
H260 H 0.69315 0.53021 0.29795 0.0
H261 H 0.66889 0.59524 0.67004 0.0
H262 H 0.60568 0.53177 0.11265 0.0
H263 H 0.62822 0.49164 0.8917 0.0
C264 C 0.15003 0.68582 0.15678 0.0
C265 C 0.15406 0.68908 0.25534 0.0
N266 N 0.14314 0.7043 0.28846 0.0
N267 N 0.13584 0.69817 0.12629 0.0
C268 C 0.13267 0.70999 0.20819 0.0
H269 H 0.15663 0.67454 0.11046 0.0
Co270 Co 0.12607 0.69797 0.99342 0.0
C271 C 0.06956 0.68265 0.09234 0.0
O272 O 0.07569 0.67822 0.18 0.0
N273 N 0.11696 0.69773 0.8593 0.0
C274 C 0.09176 0.6834 0.72393 0.0
C275 C 0.09133 0.68101 0.82306 0.0
C276 C 0.13277 0.70989 0.77905 0.0
N277 N 0.11783 0.70146 0.69521 0.0
O278 O 0.14125 0.73768 1.00151 0.0
H279 H 0.07348 0.66671 0.86536 0.0
H280 H 0.15484 0.7242 0.78199 0.0
O281 O 0.08778 0.69035 0.02458 0.0
C282 C 0.16715 0.75045 0.98071 0.0
O283 O 0.17847 0.73586 0.95223 0.0
N284 N 0.11418 0.65971 0.98469 0.0
C285 C 0.10811 0.60675 0.98353 0.0
C286 C 0.09062 0.61254 0.04017 0.0
C287 C 0.09401 0.63913 0.03994 0.0
C288 C 0.13084 0.65424 0.927 0.0
C289 C 0.12817 0.62797 0.92523 0.0
H290 H 0.08133 0.64318 0.08826 0.0
H291 H 0.14735 0.67081 0.88584 0.0
H292 H 0.12249 0.7222 0.20934 0.0
H293 H 0.16317 0.6797 0.29966 0.0
H294 H 0.07435 0.67149 0.67611 0.0
H295 H 0.07494 0.59682 0.08659 0.0
H296 H 0.14265 0.62474 0.88227 0.0
C297 C 0.46812 0.14545 0.16567 0.0
C298 C 0.46839 0.14952 0.26403 0.0
N299 N 0.44203 0.13655 0.29662 0.0
N300 N 0.44177 0.1293 0.13492 0.0
C301 C 0.42624 0.12482 0.21647 0.0
H302 H 0.48624 0.15348 0.11941 0.0
Co303 Co 0.43405 0.1199 1.00144 0.0
C304 C 0.38997 0.06253 0.0905 0.0
O305 O 0.3973 0.06747 0.18202 0.0
N306 N 0.42729 0.11126 0.8664 0.0
C307 C 0.42096 0.08712 0.73054 0.0
C308 C 0.42333 0.08715 0.82951 0.0
C309 C 0.42763 0.12582 0.78665 0.0
N310 N 0.42373 0.11146 0.70268 0.0
O311 O 0.40912 0.13484 1.00391 0.0
H312 H 0.42307 0.07073 0.87187 0.0
H313 H 0.43098 0.14659 0.78984 0.0
O314 O 0.40309 0.08148 0.02694 0.0
C315 C 0.42221 0.16069 0.98414 0.0
O316 O 0.44834 0.17209 0.95737 0.0
N317 N 0.46072 0.1082 0.9999 0.0
C318 C 0.50732 0.10148 1.01071 0.0
C319 C 0.4832 0.08439 0.06426 0.0
C320 C 0.4602 0.08824 0.05855 0.0
C321 C 0.4836 0.12432 0.94463 0.0
C322 C 0.50704 0.12121 0.94849 0.0
H323 H 0.44272 0.07607 0.10504 0.0
H324 H 0.48414 0.14058 0.90046 0.0
H325 H 0.40378 0.11348 0.21731 0.0
H326 H 0.48677 0.1602 0.3087 0.0
H327 H 0.4186 0.07079 0.68221 0.0
H328 H 0.48232 0.06861 0.11218 0.0
H329 H 0.52525 0.13502 0.90641 0.0
C330 C 0.30702 0.45558 0.16015 0.0
C331 C 0.30411 0.45613 0.25893 0.0
N332 N 0.31116 0.43862 0.30028 0.0
N333 N 0.31526 0.43737 0.13708 0.0
C334 C 0.31712 0.4269 0.22407 0.0
H335 H 0.30337 0.46786 0.10804 0.0
Co336 Co 0.32153 0.43199 1.0057 0.0
C337 C 0.34987 0.39792 0.05363 0.0
O338 O 0.3748 0.41962 0.05319 0.0
N339 N 0.32708 0.42653 0.87106 0.0
C340 C 0.34542 0.41953 0.73661 0.0
C341 C 0.34704 0.42171 0.83603 0.0
C342 C 0.31407 0.42796 0.78945 0.0
N343 N 0.32474 0.42356 0.70718 0.0
O344 O 0.28181 0.40601 0.99538 0.0
H345 H 0.36286 0.42105 0.8788 0.0
H346 H 0.29753 0.43277 0.78917 0.0
O347 O 0.32845 0.40056 0.03846 0.0
C348 C 0.26816 0.41784 0.96966 0.0
O349 O 0.28212 0.44384 0.94256 0.0
N350 N 0.35968 0.46078 1.01749 0.0
C351 C 0.41164 0.5093 0.03703 0.0
C352 C 0.40133 0.48905 0.10981 0.0
C353 C 0.37504 0.46565 0.10032 0.0
C354 C 0.36926 0.48061 0.94672 0.0
C355 C 0.39519 0.50471 0.95437 0.0
H356 H 0.36751 0.45114 0.1596 0.0
H357 H 0.35634 0.47849 0.88512 0.0
H358 H 0.32389 0.41189 0.23152 0.0
H359 H 0.2969 0.46836 0.2965 0.0
H360 H 0.35934 0.4167 0.68908 0.0
H361 H 0.41332 0.49122 0.17435 0.0
H362 H 0.40183 0.52007 0.89735 0.0
C363 C 0.86934 0.3232 0.16213 0.0
C364 C 0.86518 0.32132 0.26061 0.0
N365 N 0.8802 0.31102 0.30047 0.0
N366 N 0.8874 0.31472 0.138 0.0
C367 C 0.89279 0.3063 0.22389 0.0
H368 H 0.86012 0.33091 0.11087 0.0
Co369 Co 0.89764 0.31646 1.00519 0.0
C370 C 0.95552 0.32999 0.09444 0.0
O371 O 0.95121 0.33297 0.18619 0.0
N372 N 0.90676 0.31829 0.87051 0.0
C373 C 0.93105 0.33587 0.73418 0.0
C374 C 0.9315 0.33757 0.83362 0.0
C375 C 0.89136 0.30536 0.79046 0.0
N376 N 0.90592 0.3155 0.70682 0.0
O377 O 0.88262 0.27674 1.00745 0.0
H378 H 0.94846 0.35312 0.87614 0.0
H379 H 0.86953 0.29001 0.79263 0.0
O380 O 0.93614 0.32394 0.03235 0.0
C381 C 0.85671 0.26372 0.98725 0.0
O382 O 0.84498 0.2781 0.96118 0.0
N383 N 0.90969 0.35482 1.00411 0.0
C384 C 0.91707 0.40814 1.01709 0.0
C385 C 0.93198 0.39997 0.07735 0.0
C386 C 0.92801 0.37323 0.06972 0.0
C387 C 0.89531 0.36255 0.94394 0.0
C388 C 0.89884 0.38916 0.94865 0.0
H389 H 0.9384 0.36696 0.12076 0.0
H390 H 0.88 0.34758 0.89493 0.0
H391 H 0.90575 0.29707 0.23048 0.0
H392 H 0.8524 0.3276 0.30018 0.0
H393 H 0.9474 0.34964 0.68518 0.0
H394 H 0.94603 0.4139 0.13187 0.0
H395 H 0.88638 0.39434 0.90237 0.0
C396 C 0.10652 0.56837 0.08358 0.0
C397 C 0.10697 0.57953 0.99144 0.0
C398 C 0.10734 0.54375 0.09366 0.0
C399 C 0.10835 0.52908 1.01204 0.0
H400 H 0.10629 0.57913 0.14871 0.0
H401 H 0.10729 0.53619 0.1661 0.0
S402 S 0.10914 0.54901 0.75444 0.0
N403 N 0.10767 0.5735 0.8169 0.0
N404 N 0.10962 0.52754 0.83572 0.0
C405 C 0.10833 0.53975 0.91943 0.0
C406 C 0.1076 0.56488 0.90919 0.0
C407 C 0.57393 0.10056 0.95125 0.0
C408 C 0.58516 0.10112 0.04337 0.0
C409 C 0.54856 0.10013 0.94132 0.0
C410 C 0.53322 0.09998 0.02307 0.0
H411 H 0.58524 0.10129 0.88612 0.0
H412 H 0.541 0.10014 0.86892 0.0
S413 S 0.55296 0.10023 0.28063 0.0
N414 N 0.57837 0.10035 0.21795 0.0
N415 N 0.53109 0.10011 0.19947 0.0
C416 C 0.54392 0.09992 0.11562 0.0
C417 C 0.56977 0.1004 0.12569 0.0
C418 C 0.45729 0.54621 0.9685 0.0
C419 C 0.43895 0.53537 0.04801 0.0
C420 C 0.48274 0.57101 0.97603 0.0
C421 C 0.49106 0.58608 0.06352 0.0
H422 H 0.45194 0.53545 0.89955 0.0
H423 H 0.49571 0.57874 0.91191 0.0
S424 S 0.45109 0.56644 0.29444 0.0
N425 N 0.43097 0.54196 0.21735 0.0
N426 N 0.47935 0.58756 0.23283 0.0
C427 C 0.4732 0.57519 0.14424 0.0
C428 C 0.44711 0.55012 0.13625 0.0
C429 C 0.91484 0.44353 0.12368 0.0
C430 C 0.91882 0.43546 0.03079 0.0
C431 C 0.91443 0.46826 0.13766 0.0
C432 C 0.91845 0.48612 0.05958 0.0
H433 H 0.91123 0.43023 0.18571 0.0
H434 H 0.91078 0.47338 0.21005 0.0
S435 S 0.93038 0.47494 0.80241 0.0
N436 N 0.92741 0.44765 0.85996 0.0
N437 N 0.9267 0.49407 0.8861 0.0
C438 C 0.92297 0.47856 0.96669 0.0
C439 C 0.9231 0.45326 0.95232 0.0
C440 C 0.45486 0.91119 0.11086 0.0
C441 C 0.43963 0.91096 0.02893 0.0
C442 C 0.48031 0.91173 0.10124 0.0
C443 C 0.49148 0.91179 1.00926 0.0
H444 H 0.44694 0.91076 0.18316 0.0
H445 H 0.49092 0.9113 0.1665 0.0
S446 S 0.46022 0.91194 0.77164 0.0
N447 N 0.43784 0.9111 0.85252 0.0
N448 N 0.48579 0.91262 0.83463 0.0
C449 C 0.47673 0.91207 0.92677 0.0
C450 C 0.45085 0.91159 0.93653 0.0
C451 C 0.58534 0.4568 0.02409 0.0
C452 C 0.58574 0.48213 1.01567 0.0
C453 C 0.56044 0.43181 0.03778 0.0
C454 C 0.5347 0.43092 0.04351 0.0
H455 H 0.60454 0.45626 0.02105 0.0
H456 H 0.56136 0.41294 0.04263 0.0
S457 S 0.52411 0.49136 0.0263 0.0
N458 N 0.55799 0.50469 1.0135 0.0
N459 N 0.51122 0.45778 0.04105 0.0
C460 C 0.53472 0.45608 0.03545 0.0
C461 C 0.56018 0.48162 0.02153 0.0
C462 C 0.22099 0.4074 0.91766 0.0
C463 C 0.23811 0.40624 0.9906 0.0
C464 C 0.19621 0.40728 0.94066 0.0
C465 C 0.18797 0.40664 0.0377 0.0
H466 H 0.228 0.41082 0.84285 0.0
H467 H 0.18503 0.41061 0.88277 0.0
S468 S 0.2242 0.40136 0.25516 0.0
N469 N 0.24356 0.4018 0.16322 0.0
N470 N 0.19785 0.40292 0.20665 0.0
C471 C 0.20383 0.40352 0.11069 0.0
C472 C 0.22866 0.4029 0.08709 0.0
C473 C 0.82118 0.21609 0.93615 0.0
C474 C 0.83812 0.23403 1.01 0.0
C475 C 0.79671 0.19114 0.95811 0.0
C476 C 0.78798 0.18359 0.05478 0.0
H477 H 0.82568 0.22244 0.86088 0.0
H478 H 0.78317 0.17917 0.89903 0.0
S479 S 0.82561 0.22251 0.27458 0.0
N480 N 0.84538 0.24138 0.18353 0.0
N481 N 0.79902 0.19522 0.22472 0.0
C482 C 0.80563 0.20046 0.1291 0.0
C483 C 0.83082 0.2255 0.10676 0.0
C484 C 0.61799 0.79335 0.95542 0.0
C485 C 0.61731 0.78531 0.05265 0.0
C486 C 0.61724 0.81753 0.93194 0.0
C487 C 0.61648 0.8349 1.00471 0.0
H488 H 0.61616 0.77945 0.89728 0.0
H489 H 0.61495 0.82147 0.85647 0.0
S490 S 0.61691 0.82429 0.27005 0.0
N491 N 0.6175 0.79748 0.22183 0.0
N492 N 0.61728 0.84333 0.17772 0.0
C493 C 0.61831 0.82832 0.10184 0.0
C494 C 0.6184 0.80341 0.12578 0.0
C495 C 0.79665 0.61192 0.08608 0.0
C496 C 0.78741 0.60599 0.98945 0.0
C497 C 0.82141 0.61286 0.11517 0.0
C498 C 0.83821 0.60864 0.04836 0.0
H499 H 0.78338 0.61313 0.1413 0.0
H500 H 0.82642 0.61495 0.19181 0.0
S501 S 0.82471 0.59553 0.78482 0.0
N502 N 0.79801 0.59791 0.82574 0.0
N503 N 0.84494 0.60082 0.87959 0.0
C504 C 0.83045 0.60525 0.95008 0.0
C505 C 0.80492 0.60358 0.92092 0.0
C506 C 0.19416 0.78778 0.10068 0.0
C507 C 0.18614 0.78003 1.00369 0.0
C508 C 0.21921 0.81206 0.12334 0.0
C509 C 0.23679 0.82981 0.05005 0.0
H510 H 0.18251 0.77366 0.15896 0.0
H511 H 0.22592 0.81583 0.19836 0.0
S512 S 0.22396 0.81996 0.78528 0.0
N513 N 0.19696 0.79281 0.83429 0.0
N514 N 0.24323 0.83882 0.87701 0.0
C515 C 0.22775 0.82345 0.95341 0.0
C516 C 0.20264 0.79844 0.93022 0.0
C517 C 0.41101 0.19704 0.93551 0.0
C518 C 0.4114 0.17951 1.0082 0.0
C519 C 0.41092 0.22158 0.95909 0.0
C520 C 0.41194 0.22979 0.05631 0.0
H521 H 0.41301 0.1929 0.85994 0.0
H522 H 0.41293 0.23551 0.90091 0.0
S523 S 0.4118 0.19061 0.27358 0.0
N524 N 0.41078 0.17124 0.18123 0.0
N525 N 0.4118 0.21771 0.22547 0.0
C526 C 0.4106 0.21162 0.12944 0.0
C527 C 0.41001 0.18636 0.10543 0.0
C528 C 0.15461 0.43949 0.47394 0.0
C529 C 0.12826 0.41952 0.44027 0.0
C530 C 0.16036 0.44352 0.57412 0.0
C531 C 0.14006 0.42766 0.64475 0.0
H532 H 0.17024 0.45329 0.42289 0.0
H533 H 0.18051 0.46006 0.59659 0.0
S534 S 0.06912 0.36979 0.59237 0.0
N535 N 0.08286 0.38147 0.48424 0.0
N536 N 0.09343 0.38912 0.67146 0.0
C537 C 0.1144 0.40614 0.6112 0.0
C538 C 0.10857 0.40212 0.50938 0.0
C539 C 0.71099 0.10406 0.52726 0.0
C540 C 0.71545 0.12403 0.45589 0.0
C541 C 0.71295 0.11017 0.6271 0.0
C542 C 0.71928 0.1365 0.66013 0.0
H543 H 0.70478 0.08312 0.5057 0.0
H544 H 0.70775 0.09367 0.67868 0.0
S545 S 0.73672 0.19732 0.50442 0.0
N546 N 0.72923 0.17208 0.4264 0.0
N547 N 0.73332 0.18365 0.61341 0.0
C548 C 0.72578 0.15721 0.58974 0.0
C549 C 0.72384 0.151 0.48794 0.0
C550 C 0.58367 0.7183 0.49031 0.0
C551 C 0.60476 0.71345 0.4569 0.0
C552 C 0.57908 0.7195 0.59044 0.0
C553 C 0.59543 0.71602 0.66146 0.0
H554 H 0.56954 0.71942 0.439 0.0
H555 H 0.56178 0.72204 0.61248 0.0
S556 S 0.65608 0.70704 0.61021 0.0
N557 N 0.64432 0.70862 0.50184 0.0
N558 N 0.63553 0.71041 0.68893 0.0
C559 C 0.61795 0.71333 0.62833 0.0
C560 C 0.62258 0.71209 0.5265 0.0
C561 C 0.89976 0.60711 0.53327 0.0
C562 C 0.90027 0.58866 0.46402 0.0
C563 C 0.89632 0.60085 0.63305 0.0
C564 C 0.89294 0.57574 0.66807 0.0
H565 H 0.9017 0.62651 0.5102 0.0
H566 H 0.89566 0.61548 0.68304 0.0
S567 S 0.8948 0.5211 0.52029 0.0
N568 N 0.89873 0.54477 0.44014 0.0
N569 N 0.89164 0.53284 0.62686 0.0
C570 C 0.89363 0.55718 0.60034 0.0
C571 C 0.89739 0.56364 0.49872 0.0
C572 C 0.30267 0.8585 0.58475 0.0
C573 C 0.30618 0.87836 0.65553 0.0
C574 C 0.30402 0.86419 0.48458 0.0
C575 C 0.30904 0.89004 0.45101 0.0
H576 H 0.30007 0.83877 0.60704 0.0
H577 H 0.30295 0.84897 0.43339 0.0
S578 S 0.31545 0.94773 0.60358 0.0
N579 N 0.31183 0.92393 0.68252 0.0
N580 N 0.31402 0.93436 0.49536 0.0
C581 C 0.31036 0.90921 0.52032 0.0
C582 C 0.30893 0.90344 0.62215 0.0
C583 C 0.41354 0.28684 0.52171 0.0
C584 C 0.43346 0.3069 0.45909 0.0
C585 C 0.41884 0.28678 0.62218 0.0
C586 C 0.44422 0.30687 0.66352 0.0
H587 H 0.39344 0.27175 0.49331 0.0
H588 H 0.40287 0.27114 0.66793 0.0
S589 S 0.50227 0.36485 0.52919 0.0
N590 N 0.47891 0.34747 0.44485 0.0
N591 N 0.48886 0.34817 0.63179 0.0
C592 C 0.46422 0.32696 0.60049 0.0
C593 C 0.45882 0.32678 0.49897 0.0
C594 C 0.61218 0.90697 0.42799 0.0
C595 C 0.5921 0.88062 0.39517 0.0
C596 C 0.61645 0.91309 0.52775 0.0
C597 C 0.60095 0.89313 0.59937 0.0
H598 H 0.62351 0.92347 0.37632 0.0
H599 H 0.63134 0.93403 0.54907 0.0
S600 S 0.54879 0.81974 0.55133 0.0
N601 N 0.55902 0.83341 0.44226 0.0
N602 N 0.56657 0.84503 0.62915 0.0
C603 C 0.58225 0.86614 0.56747 0.0
C604 C 0.57791 0.8599 0.46571 0.0
C605 C 0.70876 0.60684 0.51857 0.0
C606 C 0.71354 0.59159 0.59009 0.0
C607 C 0.7109 0.60274 0.41877 0.0
C608 C 0.71774 0.58304 0.38589 0.0
H609 H 0.70221 0.62137 0.54001 0.0
H610 H 0.70548 0.61386 0.36709 0.0
S611 S 0.736 0.54031 0.542 0.0
N612 N 0.72803 0.55779 0.61984 0.0
N613 N 0.73247 0.55042 0.43293 0.0
C614 C 0.72448 0.56905 0.45643 0.0
C615 C 0.72236 0.57327 0.55818 0.0
C616 C 0.11434 0.70663 0.42225 0.0
C617 C 0.13939 0.7088 0.39007 0.0
C618 C 0.10824 0.70583 0.5219 0.0
C619 C 0.12687 0.70719 0.59433 0.0
H620 H 0.09867 0.70405 0.37018 0.0
H621 H 0.08825 0.7032 0.5424 0.0
S622 S 0.19708 0.71702 0.54836 0.0
N623 N 0.18443 0.71573 0.43891 0.0
N624 N 0.17265 0.71336 0.62532 0.0
C625 C 0.15276 0.7112 0.56308 0.0
C626 C 0.15903 0.71213 0.46142 0.0
C627 C 0.41339 0.10611 0.43105 0.0
C628 C 0.43371 0.13235 0.39795 0.0
C629 C 0.40913 0.10003 0.53087 0.0
C630 C 0.42488 0.11993 0.60222 0.0
H631 H 0.40186 0.08965 0.37953 0.0
H632 H 0.39405 0.07917 0.55242 0.0
S633 S 0.47775 0.19305 0.55343 0.0
N634 N 0.4673 0.17941 0.44452 0.0
N635 N 0.45977 0.16786 0.63152 0.0
C636 C 0.44383 0.14682 0.57007 0.0
C637 C 0.44815 0.15302 0.46827 0.0
C638 C 0.31368 0.40592 0.53859 0.0
C639 C 0.3188 0.4266 0.60734 0.0
C640 C 0.31075 0.40975 0.43903 0.0
C641 C 0.31343 0.43469 0.40377 0.0
H642 H 0.31209 0.3867 0.56221 0.0
H643 H 0.30648 0.39307 0.38938 0.0
S644 S 0.33017 0.49644 0.55518 0.0
N645 N 0.32781 0.47313 0.63401 0.0
N646 N 0.32387 0.48127 0.44798 0.0
C647 C 0.31912 0.45573 0.47264 0.0
C648 C 0.32144 0.45146 0.57396 0.0
C649 C 0.89051 0.3311 0.5656 0.0
C650 C 0.89577 0.31141 0.60844 0.0
C651 C 0.88504 0.33043 0.46588 0.0
C652 C 0.88485 0.31015 0.40395 0.0
H653 H 0.89153 0.3477 0.60941 0.0
H654 H 0.8819 0.34663 0.43658 0.0
S655 S 0.89677 0.25335 0.48223 0.0
N656 N 0.9001 0.2708 0.58314 0.0
N657 N 0.8896 0.26921 0.39531 0.0
C658 C 0.8897 0.29001 0.44657 0.0
C659 C 0.89517 0.29071 0.54879 0.0
C660 C 0.03477 0.3681 0.09372 0.0
C661 C 0.04171 0.36761 0.99566 0.0
C662 C 1.00702 0.35486 0.12549 0.0
C663 C 0.98473 0.3398 0.0612 0.0
H664 H 0.05074 0.37956 0.14644 0.0
H665 H 1.0031 0.35737 0.20082 0.0
S666 S 0.99181 0.32516 0.80283 0.0
N667 N 0.02397 0.3466 0.83783 0.0
N668 N 0.97209 0.32029 0.89901 0.0
C669 C 0.99148 0.33654 0.96524 0.0
C670 C 0.0198 0.35069 0.93221 0.0
C671 C 0.66094 1.00155 0.12594 0.0
C672 C 0.65352 0.97998 0.05842 0.0
C673 C 0.67521 0.02946 0.09745 0.0
C674 C 0.68218 0.03727 0.9997 0.0
H675 H 0.65489 0.99694 0.20142 0.0
H676 H 0.6799 0.04487 0.15257 0.0
S677 S 0.67381 0.98941 0.79807 0.0
N678 N 0.6595 0.96892 0.89258 0.0
N679 N 0.68471 0.02108 0.83792 0.0
C680 C 0.67697 0.01607 0.93274 0.0
C681 C 0.66302 0.98759 0.96229 0.0
C682 C 0.6729 0.64596 0.95227 0.0
C683 C 0.68067 0.6453 0.04903 0.0
C684 C 0.65914 0.66033 0.92562 0.0
C685 C 0.65302 0.67536 0.99404 0.0
H686 H 0.67645 0.63447 0.89673 0.0
H687 H 0.6524 0.65873 0.85101 0.0
S688 S 0.67568 0.68662 0.25174 0.0
N689 N 0.68531 0.66492 0.21039 0.0
N690 N 0.66102 0.69313 0.15913 0.0
C691 C 0.66335 0.67733 0.08887 0.0
C692 C 0.67677 0.66209 0.11658 0.0
C693 C 0.01877 0.65205 0.12685 0.0
C694 C 0.03976 0.67246 0.06802 0.0
C695 C 0.99053 0.64039 0.10362 0.0
C696 C 0.98175 0.64887 0.02123 0.0
H697 H 0.02412 0.64442 0.19075 0.0
H698 H 0.97542 0.62464 0.15147 0.0
S699 S 0.02814 0.70209 0.84376 0.0
N700 N 0.04964 0.7009 0.92362 0.0
N701 N 0.99652 0.67932 0.88083 0.0
C702 C 1.00242 0.66959 0.96234 0.0
C703 C 0.03136 0.68124 0.98534 0.0
C704 C 0.34932 0.98363 0.0972 0.0
C705 C 0.34278 0.97606 0.99914 0.0
C706 C 0.36334 0.01148 0.12647 0.0
C707 C 0.37096 0.03319 0.05942 0.0
H708 H 0.34453 0.9681 0.15193 0.0
H709 H 0.36912 0.01593 0.20215 0.0
S710 S 0.35164 0.02428 0.79848 0.0
N711 N 0.34073 0.99255 0.83759 0.0
N712 N 0.36552 0.04458 0.89363 0.0
C713 C 0.36183 0.02578 0.96296 0.0
C714 C 0.34812 0.99738 0.93266 0.0
C715 C 0.36259 0.36411 0.11679 0.0
C716 C 0.34891 0.37096 0.0457 0.0
C717 C 0.37326 0.34653 0.09581 0.0
C718 C 0.37213 0.33631 1.00138 0.0
H719 H 0.36694 0.37411 0.18715 0.0
H720 H 0.38413 0.34269 0.15253 0.0
S721 S 0.33258 0.34286 0.79569 0.0
N722 N 0.32966 0.36148 0.88325 0.0
N723 N 0.35115 0.32997 0.84144 0.0
C724 C 0.3557 0.3405 0.93287 0.0
C725 C 0.34387 0.35753 0.95557 0.0
loop_
_geom_bond_atom_site_label_1
_geom_bond_atom_site_label_2
_geom_bond_distance
_geom_bond_site_symmetry_2
_ccdc_geom_bond_type
C0 C1 1.351 . S
C0 N3 1.368 . S
C0 H5 0.931 . S
C1 C0 1.351 . S
C1 N2 1.373 . S
C1 H29 0.930 . S
N2 C1 1.373 . S
N2 C4 1.340 . S
N3 C0 1.368 . S
N3 C4 1.321 . S
N3 Co6 2.135 1_556 S
C4 N2 1.340 . S
C4 N3 1.321 . S
C4 H28 0.930 . S
H5 C0 0.931 . S
Co6 N3 2.135 1_554 S
Co6 N9 2.121 . S
Co6 O14 2.055 . S
Co6 O17 2.039 1_554 S
Co6 N20 2.140 . S
C7 O8 1.227 . S
C7 O17 1.265 . S
O8 C7 1.227 . S
N9 Co6 2.121 . S
N9 C11 1.375 . S
N9 C12 1.313 . S
C10 C11 1.338 . S
C10 N13 1.377 . S
C10 H30 0.930 . S
C11 N9 1.375 . S
C11 C10 1.338 . S
C11 H15 0.931 . S
C12 N9 1.313 . S
C12 N13 1.344 . S
C12 H16 0.930 . S
N13 C10 1.377 . S
N13 C12 1.344 . S
O14 Co6 2.055 . S
O14 C18 1.253 . S
H15 C11 0.931 . S
H16 C12 0.930 . S
O17 Co6 2.039 1_556 S
O17 C7 1.265 . S
C18 O14 1.253 . S
C18 O19 1.227 . S
O19 C18 1.227 . S
N20 Co6 2.140 . S
N20 C23 1.346 1_554 S
N20 C24 1.345 . S
C21 C22 1.387 1_554 S
C21 C25 1.391 . S
C22 C21 1.387 1_556 S
C22 C23 1.369 . S
C22 H31 0.929 . S
C23 N20 1.346 1_556 S
C23 C22 1.369 . S
C23 H26 0.928 . S
C24 N20 1.345 . S
C24 C25 1.371 . S
C24 H27 0.931 . S
C25 C21 1.391 . S
C25 C24 1.371 . S
C25 H32 0.930 . S
H26 C23 0.928 . S
H27 C24 0.931 . S
H28 C4 0.930 . S
H29 C1 0.930 . S
H30 C10 0.930 . S
H31 C22 0.929 . S
H32 C25 0.930 . S
C33 C34 1.351 . S
C33 N36 1.368 . S
C33 H38 0.931 . S
C34 C33 1.351 . S
C34 N35 1.373 . S
C34 H62 0.930 . S
N35 C34 1.373 . S
N35 C37 1.340 . S
N36 C33 1.368 . S
N36 C37 1.321 . S
N36 Co39 2.135 1_556 S
C37 N35 1.340 . S
C37 N36 1.321 . S
C37 H61 0.930 . S
H38 C33 0.931 . S
Co39 N36 2.135 1_554 S
Co39 N42 2.121 . S
Co39 O47 2.055 . S
Co39 O50 2.039 1_554 S
Co39 N53 2.140 . S
C40 O41 1.227 . S
C40 O50 1.265 . S
O41 C40 1.227 . S
N42 Co39 2.121 . S
N42 C44 1.375 . S
N42 C45 1.313 . S
C43 C44 1.338 . S
C43 N46 1.377 . S
C43 H63 0.930 . S
C44 N42 1.375 . S
C44 C43 1.338 . S
C44 H48 0.931 . S
C45 N42 1.313 . S
C45 N46 1.344 . S
C45 H49 0.930 . S
N46 C43 1.377 . S
N46 C45 1.344 . S
O47 Co39 2.055 . S
O47 C51 1.253 . S
H48 C44 0.931 . S
H49 C45 0.930 . S
O50 Co39 2.039 1_556 S
O50 C40 1.265 . S
C51 O47 1.253 . S
C51 O52 1.227 . S
O52 C51 1.227 . S
N53 Co39 2.140 . S
N53 C56 1.346 1_554 S
N53 C57 1.345 . S
C54 C55 1.387 1_554 S
C54 C58 1.391 . S
C55 C54 1.387 1_556 S
C55 C56 1.369 . S
C55 H64 0.929 . S
C56 N53 1.346 1_556 S
C56 C55 1.369 . S
C56 H59 0.928 . S
C57 N53 1.345 . S
C57 C58 1.371 . S
C57 H60 0.931 . S
C58 C54 1.391 . S
C58 C57 1.371 . S
C58 H65 0.930 . S
H59 C56 0.928 . S
H60 C57 0.931 . S
H61 C37 0.930 . S
H62 C34 0.930 . S
H63 C43 0.930 . S
H64 C55 0.929 . S
H65 C58 0.930 . S
C66 C67 1.351 . S
C66 N69 1.368 . S
C66 H71 0.931 . S
C67 C66 1.351 . S
C67 N68 1.373 . S
C67 H95 0.930 . S
N68 C67 1.373 . S
N68 C70 1.340 . S
N69 C66 1.368 . S
N69 C70 1.321 . S
N69 Co72 2.135 1_556 S
C70 N68 1.340 . S
C70 N69 1.321 . S
C70 H94 0.930 . S
H71 C66 0.931 . S
Co72 N69 2.135 1_554 S
Co72 N75 2.121 . S
Co72 O80 2.055 . S
Co72 O83 2.039 1_554 S
Co72 N86 2.140 . S
C73 O74 1.227 . S
C73 O83 1.265 . S
O74 C73 1.227 . S
N75 Co72 2.121 . S
N75 C77 1.375 . S
N75 C78 1.313 . S
C76 C77 1.338 . S
C76 N79 1.377 . S
C76 H96 0.930 . S
C77 N75 1.375 . S
C77 C76 1.338 . S
C77 H81 0.931 . S
C78 N75 1.313 . S
C78 N79 1.344 . S
C78 H82 0.930 . S
N79 C76 1.377 . S
N79 C78 1.344 . S
O80 Co72 2.055 . S
O80 C84 1.253 . S
H81 C77 0.931 . S
H82 C78 0.930 . S
O83 Co72 2.039 1_556 S
O83 C73 1.265 . S
C84 O80 1.253 . S
C84 O85 1.227 . S
O85 C84 1.227 . S
N86 Co72 2.140 . S
N86 C89 1.346 1_554 S
N86 C90 1.345 . S
C87 C88 1.387 1_554 S
C87 C91 1.391 . S
C88 C87 1.387 1_556 S
C88 C89 1.369 . S
C88 H97 0.929 . S
C89 N86 1.346 1_556 S
C89 C88 1.369 . S
C89 H92 0.928 . S
C90 N86 1.345 . S
C90 C91 1.371 . S
C90 H93 0.931 . S
C91 C87 1.391 . S
C91 C90 1.371 . S
C91 H98 0.930 . S
H92 C89 0.928 . S
H93 C90 0.931 . S
H94 C70 0.930 . S
H95 C67 0.930 . S
H96 C76 0.930 . S
H97 C88 0.929 . S
H98 C91 0.930 . S
C99 C100 1.351 . S
C99 N102 1.368 . S
C99 H104 0.931 . S
C100 C99 1.351 . S
C100 N101 1.373 . S
C100 H128 0.930 . S
N101 C100 1.373 . S
N101 C103 1.340 . S
N102 C99 1.368 . S
N102 C103 1.321 . S
N102 Co105 2.135 1_556 S
C103 N101 1.340 . S
C103 N102 1.321 . S
C103 H127 0.930 . S
H104 C99 0.931 . S
Co105 N102 2.135 1_554 S
Co105 N108 2.121 . S
Co105 O113 2.055 . S
Co105 O116 2.039 1_554 S
Co105 N119 2.140 . S
C106 O107 1.227 . S
C106 O116 1.265 . S
O107 C106 1.227 . S
N108 Co105 2.121 . S
N108 C110 1.375 . S
N108 C111 1.313 . S
C109 C110 1.338 . S
C109 N112 1.377 . S
C109 H129 0.930 . S
C110 N108 1.375 . S
C110 C109 1.338 . S
C110 H114 0.931 . S
C111 N108 1.313 . S
C111 N112 1.344 . S
C111 H115 0.930 . S
N112 C109 1.377 . S
N112 C111 1.344 . S
O113 Co105 2.055 . S
O113 C117 1.253 . S
H114 C110 0.931 . S
H115 C111 0.930 . S
O116 Co105 2.039 1_556 S
O116 C106 1.265 . S
C117 O113 1.253 . S
C117 O118 1.227 . S
O118 C117 1.227 . S
N119 Co105 2.140 . S
N119 C122 1.346 1_554 S
N119 C123 1.345 . S
C120 C121 1.387 1_554 S
C120 C124 1.391 . S
C121 C120 1.387 1_556 S
C121 C122 1.369 . S
C121 H130 0.929 . S
C122 N119 1.346 1_556 S
C122 C121 1.369 . S
C122 H125 0.928 . S
C123 N119 1.345 . S
C123 C124 1.371 . S
C123 H126 0.931 . S
C124 C120 1.391 . S
C124 C123 1.371 . S
C124 H131 0.930 . S
H125 C122 0.928 . S
H126 C123 0.931 . S
H127 C103 0.930 . S
H128 C100 0.930 . S
H129 C109 0.930 . S
H130 C121 0.929 . S
H131 C124 0.930 . S
C132 C133 1.351 . S
C132 N135 1.368 . S
C132 H137 0.931 . S
C133 C132 1.351 . S
C133 N134 1.373 . S
C133 H161 0.930 . S
N134 C133 1.373 . S
N134 C136 1.340 . S
N135 C132 1.368 . S
N135 C136 1.321 . S
N135 Co138 2.135 1_556 S
C136 N134 1.340 . S
C136 N135 1.321 . S
C136 H160 0.930 . S
H137 C132 0.931 . S
Co138 N135 2.135 1_554 S
Co138 N141 2.121 . S
Co138 O146 2.055 . S
Co138 O149 2.039 1_554 S
Co138 N152 2.140 . S
C139 O140 1.227 . S
C139 O149 1.265 . S
O140 C139 1.227 . S
N141 Co138 2.121 . S
N141 C143 1.375 . S
N141 C144 1.313 . S
C142 C143 1.338 . S
C142 N145 1.377 . S
C142 H162 0.930 . S
C143 N141 1.375 . S
C143 C142 1.338 . S
C143 H147 0.931 . S
C144 N141 1.313 . S
C144 N145 1.344 . S
C144 H148 0.930 . S
N145 C142 1.377 . S
N145 C144 1.344 . S
O146 Co138 2.055 . S
O146 C150 1.253 . S
H147 C143 0.931 . S
H148 C144 0.930 . S
O149 Co138 2.039 1_556 S
O149 C139 1.265 . S
C150 O146 1.253 . S
C150 O151 1.227 . S
O151 C150 1.227 . S
N152 Co138 2.140 . S
N152 C155 1.346 1_554 S
N152 C156 1.345 . S
C153 C154 1.387 1_554 S
C153 C157 1.391 . S
C154 C153 1.387 1_556 S
C154 C155 1.369 . S
C154 H163 0.929 . S
C155 N152 1.346 1_556 S
C155 C154 1.369 . S
C155 H158 0.928 . S
C156 N152 1.345 . S
C156 C157 1.371 . S
C156 H159 0.931 . S
C157 C153 1.391 . S
C157 C156 1.371 . S
C157 H164 0.930 . S
H158 C155 0.928 . S
H159 C156 0.931 . S
H160 C136 0.930 . S
H161 C133 0.930 . S
H162 C142 0.930 . S
H163 C154 0.929 . S
H164 C157 0.930 . S
C165 C166 1.351 . S
C165 N168 1.368 . S
C165 H170 0.931 . S
C166 C165 1.351 . S
C166 N167 1.373 . S
C166 H194 0.930 . S
N167 C166 1.373 . S
N167 C169 1.340 . S
N168 C165 1.368 . S
N168 C169 1.321 . S
N168 Co171 2.135 1_556 S
C169 N167 1.340 . S
C169 N168 1.321 . S
C169 H193 0.930 . S
H170 C165 0.931 . S
Co171 N168 2.135 1_554 S
Co171 N174 2.121 . S
Co171 O179 2.055 . S
Co171 O182 2.039 1_554 S
Co171 N185 2.140 . S
C172 O173 1.227 . S
C172 O182 1.265 . S
O173 C172 1.227 . S
N174 Co171 2.121 . S
N174 C176 1.375 . S
N174 C177 1.313 . S
C175 C176 1.338 . S
C175 N178 1.377 . S
C175 H195 0.930 . S
C176 N174 1.375 . S
C176 C175 1.338 . S
C176 H180 0.931 . S
C177 N174 1.313 . S
C177 N178 1.344 . S
C177 H181 0.930 . S
N178 C175 1.377 . S
N178 C177 1.344 . S
O179 Co171 2.055 . S
O179 C183 1.253 . S
H180 C176 0.931 . S
H181 C177 0.930 . S
O182 Co171 2.039 1_556 S
O182 C172 1.265 . S
C183 O179 1.253 . S
C183 O184 1.227 . S
O184 C183 1.227 . S
N185 Co171 2.140 . S
N185 C188 1.346 1_554 S
N185 C189 1.345 . S
C186 C187 1.387 1_554 S
C186 C190 1.391 . S
C187 C186 1.387 1_556 S
C187 C188 1.369 . S
C187 H196 0.929 . S
C188 N185 1.346 1_556 S
C188 C187 1.369 . S
C188 H191 0.928 . S
C189 N185 1.345 . S
C189 C190 1.371 . S
C189 H192 0.931 . S
C190 C186 1.391 . S
C190 C189 1.371 . S
C190 H197 0.930 . S
H191 C188 0.928 . S
H192 C189 0.931 . S
H193 C169 0.930 . S
H194 C166 0.930 . S
H195 C175 0.930 . S
H196 C187 0.929 . S
H197 C190 0.930 . S
C198 C199 1.351 . S
C198 N201 1.368 . S
C198 H203 0.931 . S
C199 C198 1.351 . S
C199 N200 1.373 . S
C199 H227 0.930 . S
N200 C199 1.373 . S
N200 C202 1.340 . S
N201 C198 1.368 . S
N201 C202 1.321 . S
N201 Co204 2.135 . S
C202 N200 1.340 . S
C202 N201 1.321 . S
C202 H226 0.930 . S
H203 C198 0.931 . S
Co204 N201 2.135 . S
Co204 N207 2.121 1_554 S
Co204 O212 2.055 1_554 S
Co204 O215 2.039 . S
Co204 N218 2.140 . S
C205 O206 1.227 . S
C205 O215 1.265 . S
O206 C205 1.227 . S
N207 Co204 2.121 1_556 S
N207 C209 1.375 . S
N207 C210 1.313 . S
C208 C209 1.338 . S
C208 N211 1.377 . S
C208 H228 0.930 . S
C209 N207 1.375 . S
C209 C208 1.338 . S
C209 H213 0.931 . S
C210 N207 1.313 . S
C210 N211 1.344 . S
C210 H214 0.930 . S
N211 C208 1.377 . S
N211 C210 1.344 . S
O212 Co204 2.055 1_556 S
O212 C216 1.253 . S
H213 C209 0.931 . S
H214 C210 0.930 . S
O215 Co204 2.039 . S
O215 C205 1.265 . S
C216 O212 1.253 . S
C216 O217 1.227 . S
O217 C216 1.227 . S
N218 Co204 2.140 . S
N218 C221 1.346 . S
N218 C222 1.345 1_554 S
C219 C220 1.387 . S
C219 C223 1.391 1_554 S
C220 C219 1.387 . S
C220 C221 1.369 . S
C220 H229 0.929 . S
C221 N218 1.346 . S
C221 C220 1.369 . S
C221 H224 0.928 . S
C222 N218 1.345 1_556 S
C222 C223 1.371 . S
C222 H225 0.931 . S
C223 C219 1.391 1_556 S
C223 C222 1.371 . S
C223 H230 0.930 . S
H224 C221 0.928 . S
H225 C222 0.931 . S
H226 C202 0.930 . S
H227 C199 0.930 . S
H228 C208 0.930 . S
H229 C220 0.929 . S
H230 C223 0.930 . S
C231 C232 1.351 . S
C231 N234 1.368 . S
C231 H236 0.931 . S
C232 C231 1.351 . S
C232 N233 1.373 . S
C232 H260 0.930 . S
N233 C232 1.373 . S
N233 C235 1.340 . S
N234 C231 1.368 . S
N234 C235 1.321 . S
N234 Co237 2.135 . S
C235 N233 1.340 . S
C235 N234 1.321 . S
C235 H259 0.930 . S
H236 C231 0.931 . S
Co237 N234 2.135 . S
Co237 N240 2.121 1_554 S
Co237 O245 2.055 1_554 S
Co237 O248 2.039 . S
Co237 N251 2.140 . S
C238 O239 1.227 . S
C238 O248 1.265 . S
O239 C238 1.227 . S
N240 Co237 2.121 1_556 S
N240 C242 1.375 . S
N240 C243 1.313 . S
C241 C242 1.338 . S
C241 N244 1.377 . S
C241 H261 0.930 . S
C242 N240 1.375 . S
C242 C241 1.338 . S
C242 H246 0.931 . S
C243 N240 1.313 . S
C243 N244 1.344 . S
C243 H247 0.930 . S
N244 C241 1.377 . S
N244 C243 1.344 . S
O245 Co237 2.055 1_556 S
O245 C249 1.253 . S
H246 C242 0.931 . S
H247 C243 0.930 . S
O248 Co237 2.039 . S
O248 C238 1.265 . S
C249 O245 1.253 . S
C249 O250 1.227 . S
O250 C249 1.227 . S
N251 Co237 2.140 . S
N251 C254 1.346 . S
N251 C255 1.345 1_554 S
C252 C253 1.387 . S
C252 C256 1.391 1_554 S
C253 C252 1.387 . S
C253 C254 1.369 . S
C253 H262 0.929 . S
C254 N251 1.346 . S
C254 C253 1.369 . S
C254 H257 0.928 . S
C255 N251 1.345 1_556 S
C255 C256 1.371 . S
C255 H258 0.931 . S
C256 C252 1.391 1_556 S
C256 C255 1.371 . S
C256 H263 0.930 . S
H257 C254 0.928 . S
H258 C255 0.931 . S
H259 C235 0.930 . S
H260 C232 0.930 . S
H261 C241 0.930 . S
H262 C253 0.929 . S
H263 C256 0.930 . S
C264 C265 1.351 . S
C264 N267 1.368 . S
C264 H269 0.931 . S
C265 C264 1.351 . S
C265 N266 1.373 . S
C265 H293 0.930 . S
N266 C265 1.373 . S
N266 C268 1.340 . S
N267 C264 1.368 . S
N267 C268 1.321 . S
N267 Co270 2.135 . S
C268 N266 1.340 . S
C268 N267 1.321 . S
C268 H292 0.930 . S
H269 C264 0.931 . S
Co270 N267 2.135 . S
Co270 N273 2.121 1_554 S
Co270 O278 2.055 1_554 S
Co270 O281 2.039 . S
Co270 N284 2.140 . S
C271 O272 1.227 . S
C271 O281 1.265 . S
O272 C271 1.227 . S
N273 Co270 2.121 1_556 S
N273 C275 1.375 . S
N273 C276 1.313 . S
C274 C275 1.338 . S
C274 N277 1.377 . S
C274 H294 0.930 . S
C275 N273 1.375 . S
C275 C274 1.338 . S
C275 H279 0.931 . S
C276 N273 1.313 . S
C276 N277 1.344 . S
C276 H280 0.930 . S
N277 C274 1.377 . S
N277 C276 1.344 . S
O278 Co270 2.055 1_556 S
O278 C282 1.253 . S
H279 C275 0.931 . S
H280 C276 0.930 . S
O281 Co270 2.039 . S
O281 C271 1.265 . S
C282 O278 1.253 . S
C282 O283 1.227 . S
O283 C282 1.227 . S
N284 Co270 2.140 . S
N284 C287 1.346 . S
N284 C288 1.345 1_554 S
C285 C286 1.387 . S
C285 C289 1.391 1_554 S
C286 C285 1.387 . S
C286 C287 1.369 . S
C286 H295 0.929 . S
C287 N284 1.346 . S
C287 C286 1.369 . S
C287 H290 0.928 . S
C288 N284 1.345 1_556 S
C288 C289 1.371 . S
C288 H291 0.931 . S
C289 C285 1.391 1_556 S
C289 C288 1.371 . S
C289 H296 0.930 . S
H290 C287 0.928 . S
H291 C288 0.931 . S
H292 C268 0.930 . S
H293 C265 0.930 . S
H294 C274 0.930 . S
H295 C286 0.929 . S
H296 C289 0.930 . S
C297 C298 1.351 . S
C297 N300 1.368 . S
C297 H302 0.931 . S
C298 C297 1.351 . S
C298 N299 1.373 . S
C298 H326 0.930 . S
N299 C298 1.373 . S
N299 C301 1.340 . S
N300 C297 1.368 . S
N300 C301 1.321 . S
N300 Co303 2.135 . S
C301 N299 1.340 . S
C301 N300 1.321 . S
C301 H325 0.930 . S
H302 C297 0.931 . S
Co303 N300 2.135 . S
Co303 N306 2.121 1_554 S
Co303 O311 2.055 1_554 S
Co303 O314 2.039 . S
Co303 N317 2.140 . S
C304 O305 1.227 . S
C304 O314 1.265 . S
O305 C304 1.227 . S
N306 Co303 2.121 1_556 S
N306 C308 1.375 . S
N306 C309 1.313 . S
C307 C308 1.338 . S
C307 N310 1.377 . S
C307 H327 0.930 . S
C308 N306 1.375 . S
C308 C307 1.338 . S
C308 H312 0.931 . S
C309 N306 1.313 . S
C309 N310 1.344 . S
C309 H313 0.930 . S
N310 C307 1.377 . S
N310 C309 1.344 . S
O311 Co303 2.055 1_556 S
O311 C315 1.253 . S
H312 C308 0.931 . S
H313 C309 0.930 . S
O314 Co303 2.039 . S
O314 C304 1.265 . S
C315 O311 1.253 . S
C315 O316 1.227 . S
O316 C315 1.227 . S
N317 Co303 2.140 . S
N317 C320 1.346 . S
N317 C321 1.345 1_554 S
C318 C319 1.387 . S
C318 C322 1.391 1_554 S
C319 C318 1.387 . S
C319 C320 1.369 . S
C319 H328 0.929 . S
C320 N317 1.346 . S
C320 C319 1.369 . S
C320 H323 0.928 . S
C321 N317 1.345 1_556 S
C321 C322 1.371 . S
C321 H324 0.931 . S
C322 C318 1.391 1_556 S
C322 C321 1.371 . S
C322 H329 0.930 . S
H323 C320 0.928 . S
H324 C321 0.931 . S
H325 C301 0.930 . S
H326 C298 0.930 . S
H327 C307 0.930 . S
H328 C319 0.929 . S
H329 C322 0.930 . S
C330 C331 1.351 . S
C330 N333 1.368 . S
C330 H335 0.931 . S
C331 C330 1.351 . S
C331 N332 1.373 . S
C331 H359 0.930 . S
N332 C331 1.373 . S
N332 C334 1.340 . S
N333 C330 1.368 . S
N333 C334 1.321 . S
N333 Co336 2.135 . S
C334 N332 1.340 . S
C334 N333 1.321 . S
C334 H358 0.930 . S
H335 C330 0.931 . S
Co336 N333 2.135 . S
Co336 N339 2.121 1_554 S
Co336 O344 2.055 1_554 S
Co336 O347 2.039 . S
Co336 N350 2.140 . S
C337 O338 1.227 . S
C337 O347 1.265 . S
O338 C337 1.227 . S
N339 Co336 2.121 1_556 S
N339 C341 1.375 . S
N339 C342 1.313 . S
C340 C341 1.338 . S
C340 N343 1.377 . S
C340 H360 0.930 . S
C341 N339 1.375 . S
C341 C340 1.338 . S
C341 H345 0.931 . S
C342 N339 1.313 . S
C342 N343 1.344 . S
C342 H346 0.930 . S
N343 C340 1.377 . S
N343 C342 1.344 . S
O344 Co336 2.055 1_556 S
O344 C348 1.253 . S
H345 C341 0.931 . S
H346 C342 0.930 . S
O347 Co336 2.039 . S
O347 C337 1.265 . S
C348 O344 1.253 . S
C348 O349 1.227 . S
O349 C348 1.227 . S
N350 Co336 2.140 . S
N350 C353 1.346 . S
N350 C354 1.345 1_554 S
C351 C352 1.387 . S
C351 C355 1.391 1_554 S
C352 C351 1.387 . S
C352 C353 1.369 . S
C352 H361 0.929 . S
C353 N350 1.346 . S
C353 C352 1.369 . S
C353 H356 0.928 . S
C354 N350 1.345 1_556 S
C354 C355 1.371 . S
C354 H357 0.931 . S
C355 C351 1.391 1_556 S
C355 C354 1.371 . S
C355 H362 0.930 . S
H356 C353 0.928 . S
H357 C354 0.931 . S
H358 C334 0.930 . S
H359 C331 0.930 . S
H360 C340 0.930 . S
H361 C352 0.929 . S
H362 C355 0.930 . S
C363 C364 1.351 . S
C363 N366 1.368 . S
C363 H368 0.931 . S
C364 C363 1.351 . S
C364 N365 1.373 . S
C364 H392 0.930 . S
N365 C364 1.373 . S
N365 C367 1.340 . S
N366 C363 1.368 . S
N366 C367 1.321 . S
N366 Co369 2.135 . S
C367 N365 1.340 . S
C367 N366 1.321 . S
C367 H391 0.930 . S
H368 C363 0.931 . S
Co369 N366 2.135 . S
Co369 N372 2.121 1_554 S
Co369 O377 2.055 1_554 S
Co369 O380 2.039 . S
Co369 N383 2.140 . S
C370 O371 1.227 . S
C370 O380 1.265 . S
O371 C370 1.227 . S
N372 Co369 2.121 1_556 S
N372 C374 1.375 . S
N372 C375 1.313 . S
C373 C374 1.338 . S
C373 N376 1.377 . S
C373 H393 0.930 . S
C374 N372 1.375 . S
C374 C373 1.338 . S
C374 H378 0.931 . S
C375 N372 1.313 . S
C375 N376 1.344 . S
C375 H379 0.930 . S
N376 C373 1.377 . S
N376 C375 1.344 . S
O377 Co369 2.055 1_556 S
O377 C381 1.253 . S
H378 C374 0.931 . S
H379 C375 0.930 . S
O380 Co369 2.039 . S
O380 C370 1.265 . S
C381 O377 1.253 . S
C381 O382 1.227 . S
O382 C381 1.227 . S
N383 Co369 2.140 . S
N383 C386 1.346 . S
N383 C387 1.345 1_554 S
C384 C385 1.387 . S
C384 C388 1.391 1_554 S
C385 C384 1.387 . S
C385 C386 1.369 . S
C385 H394 0.929 . S
C386 N383 1.346 . S
C386 C385 1.369 . S
C386 H389 0.928 . S
C387 N383 1.345 1_556 S
C387 C388 1.371 . S
C387 H390 0.931 . S
C388 C384 1.391 1_556 S
C388 C387 1.371 . S
C388 H395 0.930 . S
H389 C386 0.928 . S
H390 C387 0.931 . S
H391 C367 0.930 . S
H392 C364 0.930 . S
H393 C373 0.930 . S
H394 C385 0.929 . S
H395 C388 0.930 . S
C396 C397 1.369 . S
C396 C398 1.419 . S
C396 H400 0.930 . S
C397 C396 1.369 . S
C397 C406 1.429 1_554 S
C398 C396 1.419 . S
C398 C399 1.363 . S
C398 H401 0.929 . S
C399 C398 1.363 . S
C399 C405 1.428 1_554 S
H400 C396 0.930 . S
H401 C398 0.929 . S
S402 N403 1.613 . S
S402 N404 1.610 . S
N403 S402 1.613 . S
N403 C406 1.350 . S
N404 S402 1.610 . S
N404 C405 1.351 . S
C405 C399 1.428 1_556 S
C405 N404 1.351 . S
C405 C406 1.434 . S
C406 C397 1.429 1_556 S
C406 N403 1.350 . S
C406 C405 1.434 . S
C407 C408 1.369 1_556 S
C407 C409 1.419 . S
C407 H411 0.930 . S
C408 C407 1.369 1_554 S
C408 C417 1.429 . S
C409 C407 1.419 . S
C409 C410 1.363 1_556 S
C409 H412 0.929 . S
C410 C409 1.363 1_554 S
C410 C416 1.428 . S
H411 C407 0.930 . S
H412 C409 0.929 . S
S413 N414 1.613 . S
S413 N415 1.610 . S
N414 S413 1.613 . S
N414 C417 1.350 . S
N415 S413 1.610 . S
N415 C416 1.351 . S
C416 C410 1.428 . S
C416 N415 1.351 . S
C416 C417 1.434 . S
C417 C408 1.429 . S
C417 N414 1.350 . S
C417 C416 1.434 . S
C418 C419 1.369 1_556 S
C418 C420 1.419 . S
C418 H422 0.930 . S
C419 C418 1.369 1_554 S
C419 C428 1.429 . S
C420 C418 1.419 . S
C420 C421 1.363 1_556 S
C420 H423 0.929 . S
C421 C420 1.363 1_554 S
C421 C427 1.428 . S
H422 C418 0.930 . S
H423 C420 0.929 . S
S424 N425 1.613 . S
S424 N426 1.610 . S
N425 S424 1.613 . S
N425 C428 1.350 . S
N426 S424 1.610 . S
N426 C427 1.351 . S
C427 C421 1.428 . S
C427 N426 1.351 . S
C427 C428 1.434 . S
C428 C419 1.429 . S
C428 N425 1.350 . S
C428 C427 1.434 . S
C429 C430 1.369 . S
C429 C431 1.419 . S
C429 H433 0.930 . S
C430 C429 1.369 . S
C430 C439 1.429 1_554 S
C431 C429 1.419 . S
C431 C432 1.363 . S
C431 H434 0.929 . S
C432 C431 1.363 . S
C432 C438 1.428 1_554 S
H433 C429 0.930 . S
H434 C431 0.929 . S
S435 N436 1.613 . S
S435 N437 1.610 . S
N436 S435 1.613 . S
N436 C439 1.350 . S
N437 S435 1.610 . S
N437 C438 1.351 . S
C438 C432 1.428 1_556 S
C438 N437 1.351 . S
C438 C439 1.434 . S
C439 C430 1.429 1_556 S
C439 N436 1.350 . S
C439 C438 1.434 . S
C440 C441 1.369 . S
C440 C442 1.419 . S
C440 H444 0.930 . S
C441 C440 1.369 . S
C441 C450 1.429 1_554 S
C442 C440 1.419 . S
C442 C443 1.363 . S
C442 H445 0.929 . S
C443 C442 1.363 . S
C443 C449 1.428 1_554 S
H444 C440 0.930 . S
H445 C442 0.929 . S
S446 N447 1.613 . S
S446 N448 1.610 . S
N447 S446 1.613 . S
N447 C450 1.350 . S
N448 S446 1.610 . S
N448 C449 1.351 . S
C449 C443 1.428 1_556 S
C449 N448 1.351 . S
C449 C450 1.434 . S
C450 C441 1.429 1_556 S
C450 N447 1.350 . S
C450 C449 1.434 . S
C451 C452 1.369 1_556 S
C451 C453 1.419 . S
C451 H455 0.930 . S
C452 C451 1.369 1_554 S
C452 C461 1.429 . S
C453 C451 1.419 . S
C453 C454 1.363 1_556 S
C453 H456 0.929 . S
C454 C453 1.363 1_554 S
C454 C460 1.428 . S
H455 C451 0.930 . S
H456 C453 0.929 . S
S457 N458 1.613 . S
S457 N459 1.610 . S
N458 S457 1.613 . S
N458 C461 1.350 . S
N459 S457 1.610 . S
N459 C460 1.351 . S
C460 C454 1.428 . S
C460 N459 1.351 . S
C460 C461 1.434 . S
C461 C452 1.429 . S
C461 N458 1.350 . S
C461 C460 1.434 . S
C462 C463 1.369 . S
C462 C464 1.419 . S
C462 H466 0.930 . S
C463 C462 1.369 . S
C463 C472 1.429 1_556 S
C464 C462 1.419 . S
C464 C465 1.363 1_556 S
C464 H467 0.929 . S
C465 C464 1.363 1_554 S
C465 C471 1.428 . S
H466 C462 0.930 . S
H467 C464 0.929 . S
S468 N469 1.613 . S
S468 N470 1.610 . S
N469 S468 1.613 . S
N469 C472 1.350 . S
N470 S468 1.610 . S
N470 C471 1.351 . S
C471 C465 1.428 . S
C471 N470 1.351 . S
C471 C472 1.434 . S
C472 C463 1.429 1_554 S
C472 N469 1.350 . S
C472 C471 1.434 . S
C473 C474 1.369 . S
C473 C475 1.419 . S
C473 H477 0.930 . S
C474 C473 1.369 . S
C474 C483 1.429 1_556 S
C475 C473 1.419 . S
C475 C476 1.363 1_556 S
C475 H478 0.929 . S
C476 C475 1.363 1_554 S
C476 C482 1.428 . S
H477 C473 0.930 . S
H478 C475 0.929 . S
S479 N480 1.613 . S
S479 N481 1.610 . S
N480 S479 1.613 . S
N480 C483 1.350 . S
N481 S479 1.610 . S
N481 C482 1.351 . S
C482 C476 1.428 . S
C482 N481 1.351 . S
C482 C483 1.434 . S
C483 C474 1.429 1_554 S
C483 N480 1.350 . S
C483 C482 1.434 . S
C484 C485 1.369 1_556 S
C484 C486 1.419 . S
C484 H488 0.930 . S
C485 C484 1.369 1_554 S
C485 C494 1.429 . S
C486 C484 1.419 . S
C486 C487 1.363 . S
C486 H489 0.929 . S
C487 C486 1.363 . S
C487 C493 1.428 1_556 S
H488 C484 0.930 . S
H489 C486 0.929 . S
S490 N491 1.613 . S
S490 N492 1.610 . S
N491 S490 1.613 . S
N491 C494 1.350 . S
N492 S490 1.610 . S
N492 C493 1.351 . S
C493 C487 1.428 1_554 S
C493 N492 1.351 . S
C493 C494 1.434 . S
C494 C485 1.429 . S
C494 N491 1.350 . S
C494 C493 1.434 . S
C495 C496 1.369 1_554 S
C495 C497 1.419 . S
C495 H499 0.930 . S
C496 C495 1.369 1_556 S
C496 C505 1.429 . S
C497 C495 1.419 . S
C497 C498 1.363 . S
C497 H500 0.929 . S
C498 C497 1.363 . S
C498 C504 1.428 1_554 S
H499 C495 0.930 . S
H500 C497 0.929 . S
S501 N502 1.613 . S
S501 N503 1.610 . S
N502 S501 1.613 . S
N502 C505 1.350 . S
N503 S501 1.610 . S
N503 C504 1.351 . S
C504 C498 1.428 1_556 S
C504 N503 1.351 . S
C504 C505 1.434 . S
C505 C496 1.429 . S
C505 N502 1.350 . S
C505 C504 1.434 . S
C506 C507 1.369 1_554 S
C506 C508 1.419 . S
C506 H510 0.930 . S
C507 C506 1.369 1_556 S
C507 C516 1.429 . S
C508 C506 1.419 . S
C508 C509 1.363 . S
C508 H511 0.929 . S
C509 C508 1.363 . S
C509 C515 1.428 1_554 S
H510 C506 0.930 . S
H511 C508 0.929 . S
S512 N513 1.613 . S
S512 N514 1.610 . S
N513 S512 1.613 . S
N513 C516 1.350 . S
N514 S512 1.610 . S
N514 C515 1.351 . S
C515 C509 1.428 1_556 S
C515 N514 1.351 . S
C515 C516 1.434 . S
C516 C507 1.429 . S
C516 N513 1.350 . S
C516 C515 1.434 . S
C517 C518 1.369 . S
C517 C519 1.419 . S
C517 H521 0.930 . S
C518 C517 1.369 . S
C518 C527 1.429 1_556 S
C519 C517 1.419 . S
C519 C520 1.363 1_556 S
C519 H522 0.929 . S
C520 C519 1.363 1_554 S
C520 C526 1.428 . S
H521 C517 0.930 . S
H522 C519 0.929 . S
S523 N524 1.613 . S
S523 N525 1.610 . S
N524 S523 1.613 . S
N524 C527 1.350 . S
N525 S523 1.610 . S
N525 C526 1.351 . S
C526 C520 1.428 . S
C526 N525 1.351 . S
C526 C527 1.434 . S
C527 C518 1.429 1_554 S
C527 N524 1.350 . S
C527 C526 1.434 . S
C528 C529 1.369 . S
C528 C530 1.419 . S
C528 H532 0.930 . S
C529 C528 1.369 . S
C529 C538 1.429 . S
C530 C528 1.419 . S
C530 C531 1.363 . S
C530 H533 0.929 . S
C531 C530 1.363 . S
C531 C537 1.428 . S
H532 C528 0.930 . S
H533 C530 0.929 . S
S534 N535 1.613 . S
S534 N536 1.610 . S
N535 S534 1.613 . S
N535 C538 1.350 . S
N536 S534 1.610 . S
N536 C537 1.351 . S
C537 C531 1.428 . S
C537 N536 1.351 . S
C537 C538 1.434 . S
C538 C529 1.429 . S
C538 N535 1.350 . S
C538 C537 1.434 . S
C539 C540 1.369 . S
C539 C541 1.419 . S
C539 H543 0.930 . S
C540 C539 1.369 . S
C540 C549 1.429 . S
C541 C539 1.419 . S
C541 C542 1.363 . S
C541 H544 0.929 . S
C542 C541 1.363 . S
C542 C548 1.428 . S
H543 C539 0.930 . S
H544 C541 0.929 . S
S545 N546 1.613 . S
S545 N547 1.610 . S
N546 S545 1.613 . S
N546 C549 1.350 . S
N547 S545 1.610 . S
N547 C548 1.351 . S
C548 C542 1.428 . S
C548 N547 1.351 . S
C548 C549 1.434 . S
C549 C540 1.429 . S
C549 N546 1.350 . S
C549 C548 1.434 . S
C550 C551 1.369 . S
C550 C552 1.419 . S
C550 H554 0.930 . S
C551 C550 1.369 . S
C551 C560 1.429 . S
C552 C550 1.419 . S
C552 C553 1.363 . S
C552 H555 0.929 . S
C553 C552 1.363 . S
C553 C559 1.428 . S
H554 C550 0.930 . S
H555 C552 0.929 . S
S556 N557 1.613 . S
S556 N558 1.610 . S
N557 S556 1.613 . S
N557 C560 1.350 . S
N558 S556 1.610 . S
N558 C559 1.351 . S
C559 C553 1.428 . S
C559 N558 1.351 . S
C559 C560 1.434 . S
C560 C551 1.429 . S
C560 N557 1.350 . S
C560 C559 1.434 . S
C561 C562 1.369 . S
C561 C563 1.419 . S
C561 H565 0.930 . S
C562 C561 1.369 . S
C562 C571 1.429 . S
C563 C561 1.419 . S
C563 C564 1.363 . S
C563 H566 0.929 . S
C564 C563 1.363 . S
C564 C570 1.428 . S
H565 C561 0.930 . S
H566 C563 0.929 . S
S567 N568 1.613 . S
S567 N569 1.610 . S
N568 S567 1.613 . S
N568 C571 1.350 . S
N569 S567 1.610 . S
N569 C570 1.351 . S
C570 C564 1.428 . S
C570 N569 1.351 . S
C570 C571 1.434 . S
C571 C562 1.429 . S
C571 N568 1.350 . S
C571 C570 1.434 . S
C572 C573 1.369 . S
C572 C574 1.419 . S
C572 H576 0.930 . S
C573 C572 1.369 . S
C573 C582 1.429 . S
C574 C572 1.419 . S
C574 C575 1.363 . S
C574 H577 0.929 . S
C575 C574 1.363 . S
C575 C581 1.428 . S
H576 C572 0.930 . S
H577 C574 0.929 . S
S578 N579 1.613 . S
S578 N580 1.610 . S
N579 S578 1.613 . S
N579 C582 1.350 . S
N580 S578 1.610 . S
N580 C581 1.351 . S
C581 C575 1.428 . S
C581 N580 1.351 . S
C581 C582 1.434 . S
C582 C573 1.429 . S
C582 N579 1.350 . S
C582 C581 1.434 . S
C583 C584 1.369 . S
C583 C585 1.419 . S
C583 H587 0.930 . S
C584 C583 1.369 . S
C584 C593 1.429 . S
C585 C583 1.419 . S
C585 C586 1.363 . S
C585 H588 0.929 . S
C586 C585 1.363 . S
C586 C592 1.428 . S
H587 C583 0.930 . S
H588 C585 0.929 . S
S589 N590 1.613 . S
S589 N591 1.610 . S
N590 S589 1.613 . S
N590 C593 1.350 . S
N591 S589 1.610 . S
N591 C592 1.351 . S
C592 C586 1.428 . S
C592 N591 1.351 . S
C592 C593 1.434 . S
C593 C584 1.429 . S
C593 N590 1.350 . S
C593 C592 1.434 . S
C594 C595 1.369 . S
C594 C596 1.419 . S
C594 H598 0.930 . S
C595 C594 1.369 . S
C595 C604 1.429 . S
C596 C594 1.419 . S
C596 C597 1.363 . S
C596 H599 0.929 . S
C597 C596 1.363 . S
C597 C603 1.428 . S
H598 C594 0.930 . S
H599 C596 0.929 . S
S600 N601 1.613 . S
S600 N602 1.610 . S
N601 S600 1.613 . S
N601 C604 1.350 . S
N602 S600 1.610 . S
N602 C603 1.351 . S
C603 C597 1.428 . S
C603 N602 1.351 . S
C603 C604 1.434 . S
C604 C595 1.429 . S
C604 N601 1.350 . S
C604 C603 1.434 . S
C605 C606 1.369 . S
C605 C607 1.419 . S
C605 H609 0.930 . S
C606 C605 1.369 . S
C606 C615 1.429 . S
C607 C605 1.419 . S
C607 C608 1.363 . S
C607 H610 0.929 . S
C608 C607 1.363 . S
C608 C614 1.428 . S
H609 C605 0.930 . S
H610 C607 0.929 . S
S611 N612 1.613 . S
S611 N613 1.610 . S
N612 S611 1.613 . S
N612 C615 1.350 . S
N613 S611 1.610 . S
N613 C614 1.351 . S
C614 C608 1.428 . S
C614 N613 1.351 . S
C614 C615 1.434 . S
C615 C606 1.429 . S
C615 N612 1.350 . S
C615 C614 1.434 . S
C616 C617 1.369 . S
C616 C618 1.419 . S
C616 H620 0.930 . S
C617 C616 1.369 . S
C617 C626 1.429 . S
C618 C616 1.419 . S
C618 C619 1.363 . S
C618 H621 0.929 . S
C619 C618 1.363 . S
C619 C625 1.428 . S
H620 C616 0.930 . S
H621 C618 0.929 . S
S622 N623 1.613 . S
S622 N624 1.610 . S
N623 S622 1.613 . S
N623 C626 1.350 . S
N624 S622 1.610 . S
N624 C625 1.351 . S
C625 C619 1.428 . S
C625 N624 1.351 . S
C625 C626 1.434 . S
C626 C617 1.429 . S
C626 N623 1.350 . S
C626 C625 1.434 . S
C627 C628 1.369 . S
C627 C629 1.419 . S
C627 H631 0.930 . S
C628 C627 1.369 . S
C628 C637 1.429 . S
C629 C627 1.419 . S
C629 C630 1.363 . S
C629 H632 0.929 . S
C630 C629 1.363 . S
C630 C636 1.428 . S
H631 C627 0.930 . S
H632 C629 0.929 . S
S633 N634 1.613 . S
S633 N635 1.610 . S
N634 S633 1.613 . S
N634 C637 1.350 . S
N635 S633 1.610 . S
N635 C636 1.351 . S
C636 C630 1.428 . S
C636 N635 1.351 . S
C636 C637 1.434 . S
C637 C628 1.429 . S
C637 N634 1.350 . S
C637 C636 1.434 . S
C638 C639 1.369 . S
C638 C640 1.419 . S
C638 H642 0.930 . S
C639 C638 1.369 . S
C639 C648 1.429 . S
C640 C638 1.419 . S
C640 C641 1.363 . S
C640 H643 0.929 . S
C641 C640 1.363 . S
C641 C647 1.428 . S
H642 C638 0.930 . S
H643 C640 0.929 . S
S644 N645 1.613 . S
S644 N646 1.610 . S
N645 S644 1.613 . S
N645 C648 1.350 . S
N646 S644 1.610 . S
N646 C647 1.351 . S
C647 C641 1.428 . S
C647 N646 1.351 . S
C647 C648 1.434 . S
C648 C639 1.429 . S
C648 N645 1.350 . S
C648 C647 1.434 . S
C649 C650 1.369 . S
C649 C651 1.419 . S
C649 H653 0.930 . S
C650 C649 1.369 . S
C650 C659 1.429 . S
C651 C649 1.419 . S
C651 C652 1.363 . S
C651 H654 0.929 . S
C652 C651 1.363 . S
C652 C658 1.428 . S
H653 C649 0.930 . S
H654 C651 0.929 . S
S655 N656 1.613 . S
S655 N657 1.610 . S
N656 S655 1.613 . S
N656 C659 1.350 . S
N657 S655 1.610 . S
N657 C658 1.351 . S
C658 C652 1.428 . S
C658 N657 1.351 . S
C658 C659 1.434 . S
C659 C650 1.429 . S
C659 N656 1.350 . S
C659 C658 1.434 . S
C660 C661 1.369 1_554 S
C660 C662 1.419 1_455 S
C660 H664 0.930 . S
C661 C660 1.369 1_556 S
C661 C670 1.429 . S
C662 C660 1.419 1_655 S
C662 C663 1.363 . S
C662 H665 0.929 . S
C663 C662 1.363 . S
C663 C669 1.428 1_554 S
H664 C660 0.930 . S
H665 C662 0.929 . S
S666 N667 1.613 1_655 S
S666 N668 1.610 . S
N667 S666 1.613 1_455 S
N667 C670 1.350 . S
N668 S666 1.610 . S
N668 C669 1.351 . S
C669 C663 1.428 1_556 S
C669 N668 1.351 . S
C669 C670 1.434 1_655 S
C670 C661 1.429 . S
C670 N667 1.350 . S
C670 C669 1.434 1_455 S
C671 C672 1.369 . S
C671 C673 1.419 1_565 S
C671 H675 0.930 . S
C672 C671 1.369 . S
C672 C681 1.429 1_554 S
C673 C671 1.419 1_545 S
C673 C674 1.363 1_554 S
C673 H676 0.929 . S
C674 C673 1.363 1_556 S
C674 C680 1.428 . S
H675 C671 0.930 . S
H676 C673 0.929 . S
S677 N678 1.613 . S
S677 N679 1.610 1_565 S
N678 S677 1.613 . S
N678 C681 1.350 . S
N679 S677 1.610 1_545 S
N679 C680 1.351 . S
C680 C674 1.428 . S
C680 N679 1.351 . S
C680 C681 1.434 1_545 S
C681 C672 1.429 1_556 S
C681 N678 1.350 . S
C681 C680 1.434 1_565 S
C682 C683 1.369 1_556 S
C682 C684 1.419 . S
C682 H686 0.930 . S
C683 C682 1.369 1_554 S
C683 C692 1.429 . S
C684 C682 1.419 . S
C684 C685 1.363 . S
C684 H687 0.929 . S
C685 C684 1.363 . S
C685 C691 1.428 1_556 S
H686 C682 0.930 . S
H687 C684 0.929 . S
S688 N689 1.613 . S
S688 N690 1.610 . S
N689 S688 1.613 . S
N689 C692 1.350 . S
N690 S688 1.610 . S
N690 C691 1.351 . S
C691 C685 1.428 1_554 S
C691 N690 1.351 . S
C691 C692 1.434 . S
C692 C683 1.429 . S
C692 N689 1.350 . S
C692 C691 1.434 . S
C693 C694 1.369 . S
C693 C695 1.419 1_455 S
C693 H697 0.930 . S
C694 C693 1.369 . S
C694 C703 1.429 . S
C695 C693 1.419 1_655 S
C695 C696 1.363 1_554 S
C695 H698 0.930 . S
C696 C695 1.363 1_556 S
C696 C702 1.428 1_556 S
H697 C693 0.930 . S
H698 C695 0.930 . S
S699 N700 1.601 1_655 S
S699 N701 1.616 . S
N700 S699 1.601 1_455 S
N700 C703 1.350 . S
N701 S699 1.616 . S
N701 C702 1.351 . S
C702 C696 1.428 1_554 S
C702 N701 1.351 . S
C702 C703 1.434 1_655 S
C703 C694 1.429 . S
C703 N700 1.350 . S
C703 C702 1.434 1_455 S
C704 C705 1.369 1_554 S
C704 C706 1.419 1_565 S
C704 H708 0.930 . S
C705 C704 1.369 1_556 S
C705 C714 1.429 . S
C706 C704 1.419 1_545 S
C706 C707 1.363 . S
C706 H709 0.929 . S
C707 C706 1.363 . S
C707 C713 1.428 1_554 S
H708 C704 0.930 . S
H709 C706 0.929 . S
S710 N711 1.613 1_545 S
S710 N712 1.610 . S
N711 S710 1.613 1_565 S
N711 C714 1.350 . S
N712 S710 1.610 . S
N712 C713 1.351 . S
C713 C707 1.428 1_556 S
C713 N712 1.351 . S
C713 C714 1.434 1_545 S
C714 C705 1.429 . S
C714 N711 1.350 . S
C714 C713 1.434 1_565 S
C715 C716 1.369 . S
C715 C717 1.419 . S
C715 H719 0.930 . S
C716 C715 1.369 . S
C716 C725 1.429 1_554 S
C717 C715 1.419 . S
C717 C718 1.363 1_554 S
C717 H720 0.929 . S
C718 C717 1.363 1_556 S
C718 C724 1.428 . S
H719 C715 0.930 . S
H720 C717 0.929 . S
S721 N722 1.613 . S
S721 N723 1.610 . S
N722 S721 1.613 . S
N722 C725 1.350 . S
N723 S721 1.610 . S
N723 C724 1.351 . S
C724 C718 1.428 . S
C724 N723 1.351 . S
C724 C725 1.434 . S
C725 C716 1.429 1_556 S
C725 N722 1.350 . S
C725 C724 1.434 . S
C397 C285 1.565 . S
C399 C21 1.566 . S
C408 C54 1.565 . S
C410 C318 1.565 . S
C419 C351 1.566 . S
C421 C87 1.566 . S
C430 C384 1.565 . S
C432 C120 1.566 . S
C441 C153 1.566 . S
C443 C219 1.565 . S
C452 C252 1.566 . S
C454 C186 1.565 . S
C463 C348 1.326 . S
C465 C18 1.330 . S
C474 C381 1.326 . S
C476 C51 1.330 . S
C485 C84 1.328 . S
C487 C216 1.327 . S
C496 C249 1.330 . S
C498 C117 1.327 . S
C507 C282 1.332 . S
C509 C150 1.329 . S
C518 C315 1.327 . S
C520 C183 1.331 . S
C529 N13 1.460 . S
C531 N2 1.466 . S
C540 N46 1.471 . S
C542 N35 1.458 . S
C551 N79 1.461 . S
C553 N68 1.466 . S
C562 N112 1.465 . S
C564 N101 1.463 . S
C573 N134 1.466 . S
C575 N145 1.463 . S
C584 N178 1.467 . S
C586 N167 1.462 . S
C595 N200 1.456 . S
C597 N211 1.470 . S
C606 N244 1.468 . S
C608 N233 1.460 . S
C617 N266 1.459 . S
C619 N277 1.468 . S
C628 N299 1.456 . S
C630 N310 1.470 . S
C639 N343 1.466 . S
C641 N332 1.462 . S
C650 N376 1.469 . S
C652 N365 1.459 . S
C661 C7 1.351 . S
C663 C370 1.351 . S
C672 C205 1.357 . S
C674 C40 1.357 . S
C683 C238 1.350 . S
C685 C73 1.351 . S
C694 C271 1.357 . S
C696 C106 1.356 . S
C705 C139 1.356 . S
C707 C304 1.355 . S
C716 C337 1.357 . S
C718 C172 1.356 . S
