# Generated by pormake.
# Topology uoc, (4)-cn, num edge types: 1
# Building blocks:
#     Node 0, Type 0, BuildingBlock: KUFVIS_clean_sbu_0, # of connection points: 4
#     Node 1, Type 0, BuildingBlock: KUFVIS_clean_sbu_0, # of connection points: 4
#     Node 2, Type 0, BuildingBlock: KUFVIS_clean_sbu_0, # of connection points: 4
#     Node 3, Type 0, BuildingBlock: KUFVIS_clean_sbu_0, # of connection points: 4
#     Node 4, Type 0, BuildingBlock: KUFVIS_clean_sbu_0, # of connection points: 4
#     Node 5, Type 0, BuildingBlock: KUFVIS_clean_sbu_0, # of connection points: 4
#     Node 6, Type 0, BuildingBlock: KUFVIS_clean_sbu_0, # of connection points: 4
#     Node 7, Type 0, BuildingBlock: KUFVIS_clean_sbu_0, # of connection points: 4
#     Edge 8, Type (0, 0), BuildingBlock: EYOCIG_clean_linker_4, # of connection points: 2
#     Edge 9, Type (0, 0), BuildingBlock: EYOCIG_clean_linker_4, # of connection points: 2
#     Edge 10, Type (0, 0), BuildingBlock: EYOCIG_clean_linker_4, # of connection points: 2
#     Edge 11, Type (0, 0), BuildingBlock: EYOCIG_clean_linker_4, # of connection points: 2
#     Edge 12, Type (0, 0), BuildingBlock: EYOCIG_clean_linker_4, # of connection points: 2
#     Edge 13, Type (0, 0), BuildingBlock: EYOCIG_clean_linker_4, # of connection points: 2
#     Edge 14, Type (0, 0), BuildingBlock: EYOCIG_clean_linker_4, # of connection points: 2
#     Edge 15, Type (0, 0), BuildingBlock: EYOCIG_clean_linker_4, # of connection points: 2
#     Edge 16, Type (0, 0), BuildingBlock: EYOCIG_clean_linker_4, # of connection points: 2
#     Edge 17, Type (0, 0), BuildingBlock: EYOCIG_clean_linker_4, # of connection points: 2
#     Edge 18, Type (0, 0), BuildingBlock: EYOCIG_clean_linker_4, # of connection points: 2
#     Edge 19, Type (0, 0), BuildingBlock: EYOCIG_clean_linker_4, # of connection points: 2
#     Edge 20, Type (0, 0), BuildingBlock: EYOCIG_clean_linker_4, # of connection points: 2
#     Edge 21, Type (0, 0), BuildingBlock: EYOCIG_clean_linker_4, # of connection points: 2
#     Edge 22, Type (0, 0), BuildingBlock: EYOCIG_clean_linker_4, # of connection points: 2
#     Edge 23, Type (0, 0), BuildingBlock: EYOCIG_clean_linker_4, # of connection points: 2
# Relax obj value: 0.117
# Max RMSD: 0.131
# Mean RMSD: 0.128
data_MOF--net-uoc--node1-KUFVIS_clean_sbu_0--edge1-EYOCIG_clean_linker_4
_symmetry_space_group_name_H-M    P1
_symmetry_Int_Tables_number       1
_symmetry_cell_setting            triclinic
loop_
_symmetry_equiv_pos_as_xyz
'x, y, z'
_cell_length_a     21.09433
_cell_length_b     21.079693
_cell_length_c     42.875177
_cell_angle_alpha  90.957092
_cell_angle_beta   90.882346
_cell_angle_gamma 90.888146
loop_
_atom_site_label
_atom_site_type_symbol
_atom_site_fract_x
_atom_site_fract_y
_atom_site_fract_z
_atom_type_partial_charge
Mn0 Mn 0.14618 0.29326 0.12063 0.0
Mn1 Mn 0.25643 0.17874 0.12023 0.0
C2 C 0.20094 0.27004 0.16628 0.0
C3 C 0.11292 0.39599 0.1125 0.0
C4 C 0.11519 0.15173 0.12026 0.0
O5 O 0.16388 0.28005 0.07427 0.0
O6 O 0.24355 0.2102 0.07735 0.0
C7 C 0.36899 0.25501 0.10272 0.0
N8 N 0.33969 0.21527 0.12288 0.0
C9 C 0.43668 0.20049 0.15177 0.0
C10 C 0.46801 0.24143 0.13142 0.0
C11 C 0.43382 0.26934 0.10698 0.0
C12 C 0.37154 0.19006 0.14711 0.0
H13 H 0.34324 0.27494 0.08334 0.0
C14 C 0.20733 0.24684 0.06207 0.0
O15 O 0.0738 0.34821 0.11093 0.0
O16 O 0.17232 0.38477 0.11836 0.0
N17 N 0.27489 0.14346 0.15997 0.0
C18 C 0.23748 0.10506 0.17743 0.0
C19 C 0.26451 0.07229 0.2024 0.0
C20 C 0.32989 0.07798 0.20856 0.0
C21 C 0.3673 0.11849 0.19054 0.0
C22 C 0.33741 0.15123 0.16649 0.0
H23 H 0.18773 0.09825 0.1719 0.0
O24 O 0.14752 0.29967 0.16718 0.0
O25 O 0.22209 0.25655 0.13868 0.0
O26 O 0.09774 0.20897 0.12215 0.0
O27 O 0.17276 0.13507 0.11807 0.0
C28 C 0.43343 0.12572 0.19459 0.0
C29 C 0.46787 0.16783 0.17576 0.0
H30 H 0.51837 0.25123 0.13415 0.0
H31 H 0.45769 0.30071 0.09107 0.0
H32 H 0.23542 0.04108 0.2162 0.0
H33 H 0.35079 0.04999 0.2268 0.0
H34 H 0.45857 0.0987 0.21188 0.0
H35 H 0.51856 0.17356 0.17946 0.0
Mn36 Mn 0.74637 0.63048 0.36748 0.0
Mn37 Mn 0.86038 0.7435 0.37825 0.0
C38 C 0.76112 0.67816 0.41573 0.0
C39 C 0.64411 0.59715 0.3547 0.0
C40 C 0.88757 0.60318 0.37295 0.0
O41 O 0.76676 0.65622 0.32327 0.0
O42 O 0.83805 0.73592 0.33275 0.0
C43 C 0.78941 0.85776 0.36031 0.0
N44 N 0.82236 0.82498 0.38216 0.0
C45 C 0.81435 0.91083 0.41958 0.0
C46 C 0.78041 0.94552 0.39745 0.0
C47 C 0.7678 0.9188 0.36772 0.0
C48 C 0.83464 0.85022 0.41088 0.0
H49 H 0.77992 0.83755 0.33738 0.0
C50 C 0.80373 0.70058 0.31434 0.0
O51 O 0.69139 0.55894 0.35267 0.0
O52 O 0.65613 0.65594 0.36247 0.0
N53 N 0.88529 0.7554 0.42114 0.0
C54 C 0.91838 0.71566 0.43988 0.0
C55 C 0.9342 0.73499 0.47056 0.0
C56 C 0.91637 0.79514 0.48158 0.0
C57 C 0.88279 0.83542 0.46179 0.0
C58 C 0.86818 0.8135 0.43146 0.0
H59 H 0.93252 0.66949 0.43151 0.0
O60 O 0.73317 0.6231 0.4131 0.0
O61 O 0.77968 0.70397 0.39003 0.0
O62 O 0.83026 0.58411 0.37072 0.0
O63 O 0.90461 0.66142 0.37528 0.0
C64 C 0.86303 0.89636 0.47102 0.0
C65 C 0.8289 0.93407 0.44991 0.0
H66 H 0.76379 0.99267 0.40304 0.0
H67 H 0.74168 0.94532 0.35051 0.0
H68 H 0.96023 0.70367 0.48567 0.0
H69 H 0.92867 0.80988 0.50526 0.0
H70 H 0.87375 0.91464 0.4943 0.0
H71 H 0.81395 0.98084 0.45728 0.0
Mn72 Mn 0.40427 0.28814 0.60689 0.0
Mn73 Mn 0.29112 0.17427 0.59609 0.0
C74 C 0.35656 0.27357 0.55866 0.0
C75 C 0.43779 0.39037 0.61977 0.0
C76 C 0.43129 0.14679 0.60128 0.0
O77 O 0.37852 0.26769 0.6511 0.0
O78 O 0.2987 0.19656 0.6416 0.0
C79 C 0.17707 0.2455 0.61413 0.0
N80 N 0.20978 0.21248 0.59224 0.0
C81 C 0.12409 0.22079 0.55484 0.0
C82 C 0.08947 0.2548 0.57702 0.0
C83 C 0.11613 0.26729 0.60676 0.0
C84 C 0.18458 0.20031 0.56351 0.0
H85 H 0.19724 0.2549 0.63707 0.0
C86 C 0.33411 0.23079 0.66002 0.0
O87 O 0.47587 0.34297 0.62171 0.0
O88 O 0.37902 0.37849 0.61203 0.0
N89 N 0.27924 0.14942 0.55318 0.0
C90 C 0.31892 0.11627 0.53439 0.0
C91 C 0.29963 0.10057 0.50369 0.0
C92 C 0.23958 0.11857 0.4927 0.0
C93 C 0.19937 0.15221 0.51254 0.0
C94 C 0.22123 0.1667 0.54288 0.0
H95 H 0.36501 0.10201 0.54273 0.0
O96 O 0.41164 0.30143 0.56128 0.0
O97 O 0.33076 0.25499 0.58437 0.0
O98 O 0.45044 0.20412 0.60352 0.0
O99 O 0.37306 0.12985 0.59899 0.0
C100 C 0.13855 0.17216 0.50335 0.0
C101 C 0.1009 0.20636 0.5245 0.0
H102 H 0.04241 0.27157 0.57146 0.0
H103 H 0.08968 0.29347 0.624 0.0
H104 H 0.3309 0.0745 0.48854 0.0
H105 H 0.22488 0.10637 0.469 0.0
H106 H 0.12031 0.16155 0.48005 0.0
H107 H 0.05422 0.22147 0.51716 0.0
Mn108 Mn 0.74207 0.88888 0.85386 0.0
Mn109 Mn 0.85648 0.77852 0.85423 0.0
C110 C 0.7654 0.83404 0.80819 0.0
C111 C 0.63938 0.92216 0.86197 0.0
C112 C 0.88351 0.91985 0.85426 0.0
O113 O 0.75512 0.87122 0.90022 0.0
O114 O 0.82493 0.79149 0.89712 0.0
C115 C 0.78018 0.66593 0.87171 0.0
N116 N 0.81996 0.6952 0.85156 0.0
C117 C 0.83488 0.59807 0.82269 0.0
C118 C 0.7939 0.56676 0.84302 0.0
C119 C 0.76589 0.60104 0.86745 0.0
C120 C 0.84527 0.66327 0.82734 0.0
H121 H 0.76019 0.69174 0.89109 0.0
C122 C 0.78829 0.82777 0.91241 0.0
O123 O 0.68711 0.96132 0.86358 0.0
O124 O 0.65062 0.86272 0.8561 0.0
N125 N 0.89185 0.75997 0.81449 0.0
C126 C 0.93032 0.79736 0.79706 0.0
C127 C 0.96322 0.77024 0.77212 0.0
C128 C 0.9576 0.70479 0.76597 0.0
C129 C 0.91701 0.6674 0.78395 0.0
C130 C 0.88414 0.69738 0.80797 0.0
H131 H 0.93709 0.84716 0.80259 0.0
O132 O 0.73583 0.88751 0.80732 0.0
O133 O 0.77879 0.81288 0.83578 0.0
O134 O 0.82632 0.93733 0.85238 0.0
O135 O 0.90014 0.86224 0.85641 0.0
C136 C 0.90982 0.60122 0.7799 0.0
C137 C 0.86765 0.56679 0.79872 0.0
H138 H 0.78413 0.51636 0.84029 0.0
H139 H 0.73449 0.57719 0.88335 0.0
H140 H 0.99449 0.79932 0.75834 0.0
H141 H 0.98571 0.68383 0.74777 0.0
H142 H 0.93689 0.57601 0.76262 0.0
H143 H 0.86195 0.51605 0.79502 0.0
Mn144 Mn 0.64619 0.79253 0.62069 0.0
Mn145 Mn 0.75678 0.67834 0.62032 0.0
C146 C 0.70111 0.76963 0.66633 0.0
C147 C 0.61262 0.89512 0.61248 0.0
C148 C 0.61562 0.65092 0.62045 0.0
O149 O 0.66381 0.7792 0.57433 0.0
O150 O 0.74372 0.70961 0.57742 0.0
C151 C 0.86908 0.75485 0.60269 0.0
N152 N 0.83994 0.71512 0.6229 0.0
C153 C 0.93702 0.70079 0.65178 0.0
C154 C 0.96819 0.74173 0.63138 0.0
C155 C 0.93388 0.76941 0.60691 0.0
C156 C 0.8719 0.69012 0.64716 0.0
H157 H 0.84325 0.77461 0.58329 0.0
C158 C 0.70733 0.74608 0.56213 0.0
O159 O 0.57362 0.84723 0.61097 0.0
O160 O 0.67206 0.88409 0.61832 0.0
N161 N 0.77543 0.64325 0.66009 0.0
C162 C 0.73818 0.60478 0.67759 0.0
C163 C 0.76535 0.57218 0.70257 0.0
C164 C 0.83073 0.57812 0.70872 0.0
C165 C 0.86797 0.61871 0.69066 0.0
C166 C 0.83793 0.65125 0.66659 0.0
H167 H 0.68844 0.59778 0.67208 0.0
O168 O 0.64761 0.7991 0.66723 0.0
O169 O 0.72225 0.7561 0.63873 0.0
O170 O 0.59801 0.70811 0.62231 0.0
O171 O 0.67323 0.63441 0.61824 0.0
C172 C 0.93408 0.6262 0.69469 0.0
C173 C 0.96835 0.66834 0.6758 0.0
H174 H 0.01852 0.75171 0.63409 0.0
H175 H 0.95762 0.80077 0.59096 0.0
H176 H 0.73639 0.54091 0.71641 0.0
H177 H 0.85175 0.55025 0.72696 0.0
H178 H 0.95934 0.59934 0.71201 0.0
H179 H 0.01903 0.67427 0.67949 0.0
Mn180 Mn 0.24642 0.13064 0.86759 0.0
Mn181 Mn 0.36053 0.24362 0.87814 0.0
C182 C 0.26132 0.17858 0.91578 0.0
C183 C 0.1441 0.09736 0.8549 0.0
C184 C 0.3876 0.10325 0.87297 0.0
O185 O 0.26672 0.15613 0.82333 0.0
O186 O 0.33803 0.23589 0.83267 0.0
C187 C 0.28957 0.35787 0.86017 0.0
N188 N 0.32259 0.32515 0.88202 0.0
C189 C 0.31478 0.41115 0.91937 0.0
C190 C 0.28077 0.44577 0.89724 0.0
C191 C 0.26803 0.41896 0.86754 0.0
C192 C 0.33499 0.35048 0.9107 0.0
H193 H 0.27998 0.33758 0.83726 0.0
C194 C 0.30366 0.20044 0.81432 0.0
O195 O 0.19134 0.05909 0.8529 0.0
O196 O 0.15619 0.15617 0.8626 0.0
N197 N 0.3856 0.25566 0.921 0.0
C198 C 0.41873 0.21596 0.93975 0.0
C199 C 0.43467 0.2354 0.9704 0.0
C200 C 0.41694 0.29561 0.98138 0.0
C201 C 0.38332 0.33584 0.96159 0.0
C202 C 0.36858 0.31382 0.93129 0.0
H203 H 0.4328 0.16975 0.9314 0.0
O204 O 0.23332 0.12353 0.91323 0.0
O205 O 0.27984 0.20422 0.89003 0.0
O206 O 0.33027 0.08422 0.87084 0.0
O207 O 0.40468 0.16149 0.8752 0.0
C208 C 0.36365 0.39683 0.97077 0.0
C209 C 0.32946 0.43449 0.94967 0.0
H210 H 0.26421 0.49295 0.9028 0.0
H211 H 0.24186 0.44542 0.85033 0.0
H212 H 0.46074 0.20411 0.98551 0.0
H213 H 0.42934 0.31042 0.00504 0.0
H214 H 0.37447 0.41519 -0.00597 0.0
H215 H 0.31458 0.4813 0.957 0.0
Mn216 Mn 0.90418 0.78886 0.10687 0.0
Mn217 Mn 0.79137 0.67463 0.0962 0.0
C218 C 0.85644 0.774 0.05867 0.0
C219 C 0.93742 0.89124 0.11965 0.0
C220 C 0.93163 0.6476 0.10137 0.0
O221 O 0.87857 0.76848 0.15111 0.0
O222 O 0.79895 0.69707 0.14169 0.0
C223 C 0.67711 0.74555 0.11422 0.0
N224 N 0.70989 0.71256 0.09234 0.0
C225 C 0.62409 0.72042 0.05498 0.0
C226 C 0.5894 0.7544 0.07714 0.0
C227 C 0.61609 0.7671 0.10686 0.0
C228 C 0.68468 0.70019 0.06364 0.0
H229 H 0.69731 0.75511 0.13715 0.0
C230 C 0.83428 0.73146 0.16008 0.0
O231 O 0.97564 0.84396 0.12163 0.0
O232 O 0.87867 0.87916 0.11194 0.0
N233 N 0.77949 0.6496 0.05331 0.0
C234 C 0.81925 0.61651 0.03453 0.0
C235 C 0.79994 0.60061 0.00386 0.0
C236 C 0.73981 0.61835 -0.00711 0.0
C237 C 0.69952 0.65194 0.01271 0.0
C238 C 0.72141 0.66663 0.04303 0.0
H239 H 0.8654 0.60243 0.04287 0.0
O240 O 0.91143 0.80203 0.06125 0.0
O241 O 0.83073 0.75542 0.0844 0.0
O242 O 0.95061 0.70498 0.10356 0.0
O243 O 0.87345 0.63047 0.09911 0.0
C244 C 0.6386 0.67163 0.00353 0.0
C245 C 0.60088 0.70579 0.02466 0.0
H246 H 0.54227 0.77098 0.07158 0.0
H247 H 0.58957 0.79326 0.12409 0.0
H248 H 0.83127 0.57458 -0.01127 0.0
H249 H 0.7251 0.60599 0.96921 0.0
H250 H 0.62035 0.66085 0.98025 0.0
H251 H 0.55413 0.72069 0.01733 0.0
Mn252 Mn 0.24205 0.38875 0.35387 0.0
Mn253 Mn 0.35636 0.27828 0.35418 0.0
C254 C 0.26524 0.3339 0.30819 0.0
C255 C 0.1394 0.42211 0.36202 0.0
C256 C 0.38353 0.41959 0.35415 0.0
O257 O 0.25518 0.37109 0.40022 0.0
O258 O 0.32498 0.29135 0.39708 0.0
C259 C 0.27999 0.16582 0.37176 0.0
N260 N 0.31973 0.19501 0.35157 0.0
C261 C 0.33433 0.09783 0.32268 0.0
C262 C 0.29339 0.06661 0.34306 0.0
C263 C 0.26557 0.10095 0.36752 0.0
C264 C 0.34486 0.16302 0.32731 0.0
H265 H 0.26013 0.19167 0.39116 0.0
C266 C 0.28839 0.32765 0.41239 0.0
O267 O 0.18717 0.46124 0.36362 0.0
O268 O 0.15059 0.36266 0.35615 0.0
N269 N 0.39157 0.25962 0.31441 0.0
C270 C 0.43005 0.29692 0.29694 0.0
C271 C 0.46281 0.26972 0.27198 0.0
C272 C 0.45702 0.20428 0.26583 0.0
C273 C 0.41641 0.16699 0.28385 0.0
C274 C 0.38372 0.19704 0.3079 0.0
H275 H 0.43694 0.34671 0.30246 0.0
O276 O 0.23571 0.38739 0.30733 0.0
O277 O 0.27867 0.31272 0.33577 0.0
O278 O 0.32635 0.43712 0.35235 0.0
O279 O 0.40012 0.36196 0.35629 0.0
C280 C 0.40905 0.10081 0.2798 0.0
C281 C 0.36691 0.06648 0.29867 0.0
H282 H 0.28351 1.01622 0.34035 0.0
H283 H 0.23421 0.07716 0.38347 0.0
H284 H 0.49409 0.29872 0.25817 0.0
H285 H 0.48503 0.18325 0.24761 0.0
H286 H 0.43598 0.07554 0.26249 0.0
H287 H 0.36108 1.01575 0.29497 0.0
C288 C 0.23224 0.24594 0.00209 0.0
C289 C 0.21739 0.24962 0.0291 0.0
C290 C 0.24921 0.23234 0.971 0.0
C291 C 0.25791 0.21301 0.94483 0.0
C292 C 0.81174 0.71754 0.25354 0.0
C293 C 0.80851 0.71028 0.28134 0.0
C294 C 0.81752 0.7234 0.22089 0.0
C295 C 0.8247 0.72665 0.19308 0.0
C296 C 0.30301 0.28596 0.50345 0.0
C297 C 0.32229 0.27718 0.5296 0.0
C298 C 0.28939 0.3029 0.47238 0.0
C299 C 0.28565 0.31768 0.44537 0.0
C300 C 0.77143 0.77715 0.75323 0.0
C301 C 0.77242 0.79742 0.77979 0.0
C302 C 0.75804 0.76379 0.72126 0.0
C303 C 0.73772 0.76275 0.69472 0.0
C304 C 0.27116 0.2771 0.2532 0.0
C305 C 0.2722 0.2973 0.27977 0.0
C306 C 0.25775 0.26387 0.22122 0.0
C307 C 0.23747 0.26297 0.19468 0.0
C308 C 0.73207 0.74513 0.50213 0.0
C309 C 0.71731 0.7488 0.52915 0.0
C310 C 0.74896 0.73162 0.47102 0.0
C311 C 0.75767 0.71241 0.44483 0.0
C312 C 0.31725 0.22278 0.72083 0.0
C313 C 0.32443 0.22598 0.69302 0.0
C314 C 0.31152 0.21706 0.75349 0.0
C315 C 0.30836 0.20996 0.78131 0.0
C316 C 0.80279 0.78611 0.00347 0.0
C317 C 0.82211 0.77742 0.02962 0.0
C318 C 0.78918 0.80301 0.97238 0.0
C319 C 0.78549 0.8178 0.94538 0.0
C320 C 0.02964 0.05954 0.12319 0.0
C321 C 0.06748 0.10278 0.12192 0.0
C322 C 0.98993 1.00514 0.12367 0.0
C323 C 0.9621 0.9549 0.1216 0.0
C324 C 0.02848 0.47529 0.36864 0.0
C325 C 0.0765 0.44585 0.36534 0.0
C326 C 0.97722 0.51724 0.37109 0.0
C327 C 0.93598 0.55615 0.37192 0.0
C328 C 0.49055 0.50416 0.62389 0.0
C329 C 0.46265 0.45396 0.62177 0.0
C330 C 0.53026 0.55856 0.62343 0.0
C331 C 0.56804 0.60184 0.62213 0.0
C332 C 0.52843 0.97529 0.8686 0.0
C333 C 0.57645 0.94585 0.8653 0.0
C334 C 0.47719 1.01726 0.87108 0.0
C335 C 0.43597 0.05619 0.87192 0.0
C336 C 0.01769 0.55807 0.10328 0.0
C337 C 0.9787 0.59924 0.10242 0.0
C338 C 0.05974 0.50691 0.10579 0.0
C339 C 0.08924 0.45893 0.10913 0.0
C340 C 0.47581 0.50503 0.35119 0.0
C341 C 0.43252 0.46726 0.35248 0.0
C342 C 0.53026 0.54464 0.3507 0.0
C343 C 0.5805 0.57242 0.35277 0.0
C344 C 0.51714 0.05707 0.60317 0.0
C345 C 0.47821 0.09829 0.60232 0.0
C346 C 0.55919 1.0059 0.60569 0.0
C347 C 0.58876 0.95798 0.60906 0.0
C348 C 0.97575 1.00535 0.85137 0.0
C349 C 0.93247 0.96756 0.85263 0.0
C350 C 0.03022 0.04494 0.8509 0.0
C351 C 0.08047 0.07269 0.85297 0.0
loop_
_geom_bond_atom_site_label_1
_geom_bond_atom_site_label_2
_geom_bond_distance
_geom_bond_site_symmetry_2
_ccdc_geom_bond_type
Mn0 O5 2.095 . S
Mn0 O15 2.162 . S
Mn0 O16 2.297 . S
Mn0 O24 2.385 . S
Mn0 O25 2.209 . S
Mn0 O26 2.094 . S
Mn1 O6 2.121 . S
Mn1 N8 2.257 . S
Mn1 N17 2.282 . S
Mn1 O25 2.215 . S
Mn1 O27 2.117 . S
C2 O24 1.234 . S
C2 O25 1.283 . S
C3 O15 1.281 . S
C3 O16 1.236 . S
C4 O26 1.240 . S
C4 O27 1.264 . S
O5 Mn0 2.095 . S
O5 C14 1.250 . S
O6 Mn1 2.121 . S
O6 C14 1.258 . S
C7 N8 1.326 . S
C7 C11 1.460 . S
C7 H13 0.929 . S
N8 Mn1 2.257 . S
N8 C7 1.326 . S
N8 C12 1.362 . S
C9 C10 1.258 . S
C9 C12 1.431 . S
C9 C29 1.449 . S
C10 C9 1.258 . S
C10 C11 1.477 . S
C10 H30 0.931 . S
C11 C7 1.460 . S
C11 C10 1.477 . S
C11 H31 0.930 . S
C12 N8 1.362 . S
C12 C9 1.431 . S
C12 C22 1.476 . S
H13 C7 0.929 . S
C14 O5 1.250 . S
C14 O6 1.258 . S
O15 Mn0 2.162 . S
O15 C3 1.281 . S
O16 Mn0 2.297 . S
O16 C3 1.236 . S
N17 Mn1 2.282 . S
N17 C18 1.328 . S
N17 C22 1.318 . S
C18 N17 1.328 . S
C18 C19 1.457 . S
C18 H23 0.929 . S
C19 C18 1.457 . S
C19 C20 1.291 . S
C19 H32 0.931 . S
C20 C19 1.291 . S
C20 C21 1.373 . S
C20 H33 0.929 . S
C21 C20 1.373 . S
C21 C22 1.396 . S
C21 C28 1.403 . S
C22 C12 1.476 . S
C22 N17 1.318 . S
C22 C21 1.396 . S
H23 C18 0.929 . S
O24 Mn0 2.385 . S
O24 C2 1.234 . S
O25 Mn0 2.209 . S
O25 Mn1 2.215 . S
O25 C2 1.283 . S
O26 Mn0 2.094 . S
O26 C4 1.240 . S
O27 Mn1 2.117 . S
O27 C4 1.264 . S
C28 C21 1.403 . S
C28 C29 1.399 . S
C28 H34 0.929 . S
C29 C9 1.449 . S
C29 C28 1.399 . S
C29 H35 0.930 . S
H30 C10 0.931 . S
H31 C11 0.930 . S
H32 C19 0.931 . S
H33 C20 0.929 . S
H34 C28 0.929 . S
H35 C29 0.930 . S
Mn36 O41 2.095 . S
Mn36 O51 2.162 . S
Mn36 O52 2.297 . S
Mn36 O60 2.385 . S
Mn36 O61 2.209 . S
Mn36 O62 2.094 . S
Mn37 O42 2.121 . S
Mn37 N44 2.257 . S
Mn37 N53 2.282 . S
Mn37 O61 2.215 . S
Mn37 O63 2.117 . S
C38 O60 1.234 . S
C38 O61 1.283 . S
C39 O51 1.281 . S
C39 O52 1.236 . S
C40 O62 1.240 . S
C40 O63 1.264 . S
O41 Mn36 2.095 . S
O41 C50 1.250 . S
O42 Mn37 2.121 . S
O42 C50 1.258 . S
C43 N44 1.326 . S
C43 C47 1.460 . S
C43 H49 0.929 . S
N44 Mn37 2.257 . S
N44 C43 1.326 . S
N44 C48 1.362 . S
C45 C46 1.258 . S
C45 C48 1.431 . S
C45 C65 1.449 . S
C46 C45 1.258 . S
C46 C47 1.477 . S
C46 H66 0.931 . S
C47 C43 1.460 . S
C47 C46 1.477 . S
C47 H67 0.930 . S
C48 N44 1.362 . S
C48 C45 1.431 . S
C48 C58 1.476 . S
H49 C43 0.929 . S
C50 O41 1.250 . S
C50 O42 1.258 . S
O51 Mn36 2.162 . S
O51 C39 1.281 . S
O52 Mn36 2.297 . S
O52 C39 1.236 . S
N53 Mn37 2.282 . S
N53 C54 1.328 . S
N53 C58 1.318 . S
C54 N53 1.328 . S
C54 C55 1.457 . S
C54 H59 0.929 . S
C55 C54 1.457 . S
C55 C56 1.291 . S
C55 H68 0.931 . S
C56 C55 1.291 . S
C56 C57 1.373 . S
C56 H69 0.929 . S
C57 C56 1.373 . S
C57 C58 1.396 . S
C57 C64 1.403 . S
C58 C48 1.476 . S
C58 N53 1.318 . S
C58 C57 1.396 . S
H59 C54 0.929 . S
O60 Mn36 2.385 . S
O60 C38 1.234 . S
O61 Mn36 2.209 . S
O61 Mn37 2.215 . S
O61 C38 1.283 . S
O62 Mn36 2.094 . S
O62 C40 1.240 . S
O63 Mn37 2.117 . S
O63 C40 1.264 . S
C64 C57 1.403 . S
C64 C65 1.399 . S
C64 H70 0.929 . S
C65 C45 1.449 . S
C65 C64 1.399 . S
C65 H71 0.930 . S
H66 C46 0.931 . S
H67 C47 0.930 . S
H68 C55 0.931 . S
H69 C56 0.929 . S
H70 C64 0.929 . S
H71 C65 0.930 . S
Mn72 O77 2.095 . S
Mn72 O87 2.162 . S
Mn72 O88 2.297 . S
Mn72 O96 2.385 . S
Mn72 O97 2.209 . S
Mn72 O98 2.094 . S
Mn73 O78 2.121 . S
Mn73 N80 2.257 . S
Mn73 N89 2.282 . S
Mn73 O97 2.215 . S
Mn73 O99 2.117 . S
C74 O96 1.234 . S
C74 O97 1.283 . S
C75 O87 1.281 . S
C75 O88 1.236 . S
C76 O98 1.240 . S
C76 O99 1.264 . S
O77 Mn72 2.095 . S
O77 C86 1.250 . S
O78 Mn73 2.121 . S
O78 C86 1.258 . S
C79 N80 1.326 . S
C79 C83 1.460 . S
C79 H85 0.929 . S
N80 Mn73 2.257 . S
N80 C79 1.326 . S
N80 C84 1.362 . S
C81 C82 1.258 . S
C81 C84 1.431 . S
C81 C101 1.449 . S
C82 C81 1.258 . S
C82 C83 1.477 . S
C82 H102 0.931 . S
C83 C79 1.460 . S
C83 C82 1.477 . S
C83 H103 0.930 . S
C84 N80 1.362 . S
C84 C81 1.431 . S
C84 C94 1.476 . S
H85 C79 0.929 . S
C86 O77 1.250 . S
C86 O78 1.258 . S
O87 Mn72 2.162 . S
O87 C75 1.281 . S
O88 Mn72 2.297 . S
O88 C75 1.236 . S
N89 Mn73 2.282 . S
N89 C90 1.328 . S
N89 C94 1.318 . S
C90 N89 1.328 . S
C90 C91 1.457 . S
C90 H95 0.929 . S
C91 C90 1.457 . S
C91 C92 1.291 . S
C91 H104 0.931 . S
C92 C91 1.291 . S
C92 C93 1.373 . S
C92 H105 0.929 . S
C93 C92 1.373 . S
C93 C94 1.396 . S
C93 C100 1.403 . S
C94 C84 1.476 . S
C94 N89 1.318 . S
C94 C93 1.396 . S
H95 C90 0.929 . S
O96 Mn72 2.385 . S
O96 C74 1.234 . S
O97 Mn72 2.209 . S
O97 Mn73 2.215 . S
O97 C74 1.283 . S
O98 Mn72 2.094 . S
O98 C76 1.240 . S
O99 Mn73 2.117 . S
O99 C76 1.264 . S
C100 C93 1.403 . S
C100 C101 1.399 . S
C100 H106 0.929 . S
C101 C81 1.449 . S
C101 C100 1.399 . S
C101 H107 0.930 . S
H102 C82 0.931 . S
H103 C83 0.930 . S
H104 C91 0.931 . S
H105 C92 0.929 . S
H106 C100 0.929 . S
H107 C101 0.930 . S
Mn108 O113 2.095 . S
Mn108 O123 2.162 . S
Mn108 O124 2.297 . S
Mn108 O132 2.385 . S
Mn108 O133 2.209 . S
Mn108 O134 2.094 . S
Mn109 O114 2.121 . S
Mn109 N116 2.257 . S
Mn109 N125 2.282 . S
Mn109 O133 2.215 . S
Mn109 O135 2.117 . S
C110 O132 1.234 . S
C110 O133 1.283 . S
C111 O123 1.281 . S
C111 O124 1.236 . S
C112 O134 1.240 . S
C112 O135 1.264 . S
O113 Mn108 2.095 . S
O113 C122 1.250 . S
O114 Mn109 2.121 . S
O114 C122 1.258 . S
C115 N116 1.326 . S
C115 C119 1.460 . S
C115 H121 0.929 . S
N116 Mn109 2.257 . S
N116 C115 1.326 . S
N116 C120 1.362 . S
C117 C118 1.258 . S
C117 C120 1.431 . S
C117 C137 1.449 . S
C118 C117 1.258 . S
C118 C119 1.477 . S
C118 H138 0.931 . S
C119 C115 1.460 . S
C119 C118 1.477 . S
C119 H139 0.930 . S
C120 N116 1.362 . S
C120 C117 1.431 . S
C120 C130 1.476 . S
H121 C115 0.929 . S
C122 O113 1.250 . S
C122 O114 1.258 . S
O123 Mn108 2.162 . S
O123 C111 1.281 . S
O124 Mn108 2.297 . S
O124 C111 1.236 . S
N125 Mn109 2.282 . S
N125 C126 1.328 . S
N125 C130 1.318 . S
C126 N125 1.328 . S
C126 C127 1.457 . S
C126 H131 0.929 . S
C127 C126 1.457 . S
C127 C128 1.291 . S
C127 H140 0.931 . S
C128 C127 1.291 . S
C128 C129 1.373 . S
C128 H141 0.929 . S
C129 C128 1.373 . S
C129 C130 1.396 . S
C129 C136 1.403 . S
C130 C120 1.476 . S
C130 N125 1.318 . S
C130 C129 1.396 . S
H131 C126 0.929 . S
O132 Mn108 2.385 . S
O132 C110 1.234 . S
O133 Mn108 2.209 . S
O133 Mn109 2.215 . S
O133 C110 1.283 . S
O134 Mn108 2.094 . S
O134 C112 1.240 . S
O135 Mn109 2.117 . S
O135 C112 1.264 . S
C136 C129 1.403 . S
C136 C137 1.399 . S
C136 H142 0.929 . S
C137 C117 1.449 . S
C137 C136 1.399 . S
C137 H143 0.930 . S
H138 C118 0.931 . S
H139 C119 0.930 . S
H140 C127 0.931 . S
H141 C128 0.929 . S
H142 C136 0.929 . S
H143 C137 0.930 . S
Mn144 O149 2.095 . S
Mn144 O159 2.162 . S
Mn144 O160 2.297 . S
Mn144 O168 2.385 . S
Mn144 O169 2.209 . S
Mn144 O170 2.094 . S
Mn145 O150 2.121 . S
Mn145 N152 2.257 . S
Mn145 N161 2.282 . S
Mn145 O169 2.215 . S
Mn145 O171 2.117 . S
C146 O168 1.234 . S
C146 O169 1.283 . S
C147 O159 1.281 . S
C147 O160 1.236 . S
C148 O170 1.240 . S
C148 O171 1.264 . S
O149 Mn144 2.095 . S
O149 C158 1.250 . S
O150 Mn145 2.121 . S
O150 C158 1.258 . S
C151 N152 1.326 . S
C151 C155 1.460 . S
C151 H157 0.929 . S
N152 Mn145 2.257 . S
N152 C151 1.326 . S
N152 C156 1.362 . S
C153 C154 1.258 . S
C153 C156 1.431 . S
C153 C173 1.449 . S
C154 C153 1.258 . S
C154 C155 1.477 . S
C154 H174 0.931 1_655 S
C155 C151 1.460 . S
C155 C154 1.477 . S
C155 H175 0.930 . S
C156 N152 1.362 . S
C156 C153 1.431 . S
C156 C166 1.476 . S
H157 C151 0.929 . S
C158 O149 1.250 . S
C158 O150 1.258 . S
O159 Mn144 2.162 . S
O159 C147 1.281 . S
O160 Mn144 2.297 . S
O160 C147 1.236 . S
N161 Mn145 2.282 . S
N161 C162 1.328 . S
N161 C166 1.318 . S
C162 N161 1.328 . S
C162 C163 1.457 . S
C162 H167 0.929 . S
C163 C162 1.457 . S
C163 C164 1.291 . S
C163 H176 0.931 . S
C164 C163 1.291 . S
C164 C165 1.373 . S
C164 H177 0.929 . S
C165 C164 1.373 . S
C165 C166 1.396 . S
C165 C172 1.403 . S
C166 C156 1.476 . S
C166 N161 1.318 . S
C166 C165 1.396 . S
H167 C162 0.929 . S
O168 Mn144 2.385 . S
O168 C146 1.234 . S
O169 Mn144 2.209 . S
O169 Mn145 2.215 . S
O169 C146 1.283 . S
O170 Mn144 2.094 . S
O170 C148 1.240 . S
O171 Mn145 2.117 . S
O171 C148 1.264 . S
C172 C165 1.403 . S
C172 C173 1.399 . S
C172 H178 0.929 . S
C173 C153 1.449 . S
C173 C172 1.399 . S
C173 H179 0.930 . S
H174 C154 0.931 1_455 S
H175 C155 0.930 . S
H176 C163 0.931 . S
H177 C164 0.929 . S
H178 C172 0.929 . S
H179 C173 0.930 . S
Mn180 O185 2.095 . S
Mn180 O195 2.162 . S
Mn180 O196 2.297 . S
Mn180 O204 2.385 . S
Mn180 O205 2.209 . S
Mn180 O206 2.094 . S
Mn181 O186 2.121 . S
Mn181 N188 2.257 . S
Mn181 N197 2.282 . S
Mn181 O205 2.215 . S
Mn181 O207 2.117 . S
C182 O204 1.234 . S
C182 O205 1.283 . S
C183 O195 1.281 . S
C183 O196 1.236 . S
C184 O206 1.240 . S
C184 O207 1.264 . S
O185 Mn180 2.095 . S
O185 C194 1.250 . S
O186 Mn181 2.121 . S
O186 C194 1.258 . S
C187 N188 1.326 . S
C187 C191 1.460 . S
C187 H193 0.929 . S
N188 Mn181 2.257 . S
N188 C187 1.326 . S
N188 C192 1.362 . S
C189 C190 1.258 . S
C189 C192 1.431 . S
C189 C209 1.449 . S
C190 C189 1.258 . S
C190 C191 1.477 . S
C190 H210 0.931 . S
C191 C187 1.460 . S
C191 C190 1.477 . S
C191 H211 0.930 . S
C192 N188 1.362 . S
C192 C189 1.431 . S
C192 C202 1.476 . S
H193 C187 0.929 . S
C194 O185 1.250 . S
C194 O186 1.258 . S
O195 Mn180 2.162 . S
O195 C183 1.281 . S
O196 Mn180 2.297 . S
O196 C183 1.236 . S
N197 Mn181 2.282 . S
N197 C198 1.328 . S
N197 C202 1.318 . S
C198 N197 1.328 . S
C198 C199 1.457 . S
C198 H203 0.929 . S
C199 C198 1.457 . S
C199 C200 1.291 . S
C199 H212 0.931 1_556 S
C200 C199 1.291 . S
C200 C201 1.373 . S
C200 H213 0.929 1_556 S
C201 C200 1.373 . S
C201 C202 1.396 . S
C201 C208 1.403 . S
C202 C192 1.476 . S
C202 N197 1.318 . S
C202 C201 1.396 . S
H203 C198 0.929 . S
O204 Mn180 2.385 . S
O204 C182 1.234 . S
O205 Mn180 2.209 . S
O205 Mn181 2.215 . S
O205 C182 1.283 . S
O206 Mn180 2.094 . S
O206 C184 1.240 . S
O207 Mn181 2.117 . S
O207 C184 1.264 . S
C208 C201 1.403 . S
C208 C209 1.399 . S
C208 H214 0.929 1_556 S
C209 C189 1.449 . S
C209 C208 1.399 . S
C209 H215 0.930 . S
H210 C190 0.931 . S
H211 C191 0.930 . S
H212 C199 0.931 1_554 S
H213 C200 0.929 1_554 S
H214 C208 0.929 1_554 S
H215 C209 0.930 . S
Mn216 O221 2.095 . S
Mn216 O231 2.162 . S
Mn216 O232 2.297 . S
Mn216 O240 2.385 . S
Mn216 O241 2.209 . S
Mn216 O242 2.094 . S
Mn217 O222 2.121 . S
Mn217 N224 2.257 . S
Mn217 N233 2.282 . S
Mn217 O241 2.215 . S
Mn217 O243 2.117 . S
C218 O240 1.234 . S
C218 O241 1.283 . S
C219 O231 1.281 . S
C219 O232 1.236 . S
C220 O242 1.240 . S
C220 O243 1.264 . S
O221 Mn216 2.095 . S
O221 C230 1.250 . S
O222 Mn217 2.121 . S
O222 C230 1.258 . S
C223 N224 1.326 . S
C223 C227 1.460 . S
C223 H229 0.929 . S
N224 Mn217 2.257 . S
N224 C223 1.326 . S
N224 C228 1.362 . S
C225 C226 1.258 . S
C225 C228 1.431 . S
C225 C245 1.449 . S
C226 C225 1.258 . S
C226 C227 1.477 . S
C226 H246 0.931 . S
C227 C223 1.460 . S
C227 C226 1.477 . S
C227 H247 0.930 . S
C228 N224 1.362 . S
C228 C225 1.431 . S
C228 C238 1.476 . S
H229 C223 0.929 . S
C230 O221 1.250 . S
C230 O222 1.258 . S
O231 Mn216 2.162 . S
O231 C219 1.281 . S
O232 Mn216 2.297 . S
O232 C219 1.236 . S
N233 Mn217 2.282 . S
N233 C234 1.328 . S
N233 C238 1.318 . S
C234 N233 1.328 . S
C234 C235 1.457 . S
C234 H239 0.929 . S
C235 C234 1.457 . S
C235 C236 1.291 . S
C235 H248 0.931 1_554 S
C236 C235 1.291 . S
C236 C237 1.373 . S
C236 H249 0.929 1_554 S
C237 C236 1.373 . S
C237 C238 1.396 . S
C237 C244 1.403 . S
C238 C228 1.476 . S
C238 N233 1.318 . S
C238 C237 1.396 . S
H239 C234 0.929 . S
O240 Mn216 2.385 . S
O240 C218 1.234 . S
O241 Mn216 2.209 . S
O241 Mn217 2.215 . S
O241 C218 1.283 . S
O242 Mn216 2.094 . S
O242 C220 1.240 . S
O243 Mn217 2.117 . S
O243 C220 1.264 . S
C244 C237 1.403 . S
C244 C245 1.399 . S
C244 H250 0.929 1_554 S
C245 C225 1.449 . S
C245 C244 1.399 . S
C245 H251 0.930 . S
H246 C226 0.931 . S
H247 C227 0.930 . S
H248 C235 0.931 1_556 S
H249 C236 0.929 1_556 S
H250 C244 0.929 1_556 S
H251 C245 0.930 . S
Mn252 O257 2.095 . S
Mn252 O267 2.162 . S
Mn252 O268 2.297 . S
Mn252 O276 2.385 . S
Mn252 O277 2.209 . S
Mn252 O278 2.094 . S
Mn253 O258 2.121 . S
Mn253 N260 2.257 . S
Mn253 N269 2.282 . S
Mn253 O277 2.215 . S
Mn253 O279 2.117 . S
C254 O276 1.234 . S
C254 O277 1.283 . S
C255 O267 1.281 . S
C255 O268 1.236 . S
C256 O278 1.240 . S
C256 O279 1.264 . S
O257 Mn252 2.095 . S
O257 C266 1.250 . S
O258 Mn253 2.121 . S
O258 C266 1.258 . S
C259 N260 1.326 . S
C259 C263 1.460 . S
C259 H265 0.929 . S
N260 Mn253 2.257 . S
N260 C259 1.326 . S
N260 C264 1.362 . S
C261 C262 1.258 . S
C261 C264 1.431 . S
C261 C281 1.449 . S
C262 C261 1.258 . S
C262 C263 1.477 . S
C262 H282 0.931 1_545 S
C263 C259 1.460 . S
C263 C262 1.477 . S
C263 H283 0.930 . S
C264 N260 1.362 . S
C264 C261 1.431 . S
C264 C274 1.476 . S
H265 C259 0.929 . S
C266 O257 1.250 . S
C266 O258 1.258 . S
O267 Mn252 2.162 . S
O267 C255 1.281 . S
O268 Mn252 2.297 . S
O268 C255 1.236 . S
N269 Mn253 2.282 . S
N269 C270 1.328 . S
N269 C274 1.318 . S
C270 N269 1.328 . S
C270 C271 1.457 . S
C270 H275 0.929 . S
C271 C270 1.457 . S
C271 C272 1.291 . S
C271 H284 0.931 . S
C272 C271 1.291 . S
C272 C273 1.373 . S
C272 H285 0.929 . S
C273 C272 1.373 . S
C273 C274 1.396 . S
C273 C280 1.403 . S
C274 C264 1.476 . S
C274 N269 1.318 . S
C274 C273 1.396 . S
H275 C270 0.929 . S
O276 Mn252 2.385 . S
O276 C254 1.234 . S
O277 Mn252 2.209 . S
O277 Mn253 2.215 . S
O277 C254 1.283 . S
O278 Mn252 2.094 . S
O278 C256 1.240 . S
O279 Mn253 2.117 . S
O279 C256 1.264 . S
C280 C273 1.403 . S
C280 C281 1.399 . S
C280 H286 0.929 . S
C281 C261 1.449 . S
C281 C280 1.399 . S
C281 H287 0.930 . S
H282 C262 0.931 1_565 S
H283 C263 0.930 . S
H284 C271 0.931 . S
H285 C272 0.929 . S
H286 C280 0.929 . S
H287 C281 0.930 . S
C288 C289 1.170 . S
C288 C290 1.380 1_554 S
C289 C288 1.170 . S
C290 C288 1.380 1_556 S
C290 C291 1.170 . S
C291 C290 1.170 . S
C292 C293 1.170 . S
C292 C294 1.380 . S
C293 C292 1.170 . S
C294 C292 1.380 . S
C294 C295 1.170 . S
C295 C294 1.170 . S
C296 C297 1.170 . S
C296 C298 1.380 . S
C297 C296 1.170 . S
C298 C296 1.380 . S
C298 C299 1.170 . S
C299 C298 1.170 . S
C300 C301 1.170 . S
C300 C302 1.380 . S
C301 C300 1.170 . S
C302 C300 1.380 . S
C302 C303 1.170 . S
C303 C302 1.170 . S
C304 C305 1.170 . S
C304 C306 1.380 . S
C305 C304 1.170 . S
C306 C304 1.380 . S
C306 C307 1.170 . S
C307 C306 1.170 . S
C308 C309 1.170 . S
C308 C310 1.380 . S
C309 C308 1.170 . S
C310 C308 1.380 . S
C310 C311 1.170 . S
C311 C310 1.170 . S
C312 C313 1.170 . S
C312 C314 1.380 . S
C313 C312 1.170 . S
C314 C312 1.380 . S
C314 C315 1.170 . S
C315 C314 1.170 . S
C316 C317 1.170 . S
C316 C318 1.380 1_554 S
C317 C316 1.170 . S
C318 C316 1.380 1_556 S
C318 C319 1.170 . S
C319 C318 1.170 . S
C320 C321 1.170 . S
C320 C322 1.380 1_445 S
C321 C320 1.170 . S
C322 C320 1.380 1_665 S
C322 C323 1.170 . S
C323 C322 1.170 . S
C324 C325 1.170 . S
C324 C326 1.380 1_455 S
C325 C324 1.170 . S
C326 C324 1.380 1_655 S
C326 C327 1.170 . S
C327 C326 1.170 . S
C328 C329 1.170 . S
C328 C330 1.380 . S
C329 C328 1.170 . S
C330 C328 1.380 . S
C330 C331 1.170 . S
C331 C330 1.170 . S
C332 C333 1.170 . S
C332 C334 1.380 1_565 S
C333 C332 1.170 . S
C334 C332 1.380 1_545 S
C334 C335 1.170 . S
C335 C334 1.170 . S
C336 C337 1.170 . S
C336 C338 1.380 1_655 S
C337 C336 1.170 . S
C338 C336 1.380 1_455 S
C338 C339 1.170 . S
C339 C338 1.170 . S
C340 C341 1.170 . S
C340 C342 1.380 . S
C341 C340 1.170 . S
C342 C340 1.380 . S
C342 C343 1.170 . S
C343 C342 1.170 . S
C344 C345 1.170 . S
C344 C346 1.380 1_545 S
C345 C344 1.170 . S
C346 C344 1.380 1_565 S
C346 C347 1.170 . S
C347 C346 1.170 . S
C348 C349 1.170 . S
C348 C350 1.380 1_665 S
C349 C348 1.170 . S
C350 C348 1.380 1_445 S
C350 C351 1.170 . S
C351 C350 1.170 . S
C289 C14 1.270 . S
C291 C182 1.251 . S
C293 C50 1.212 . S
C295 C230 1.204 . S
C297 C74 1.250 . S
C299 C266 1.276 . S
C301 C110 1.275 . S
C303 C146 1.300 . S
C305 C254 1.262 . S
C307 C2 1.253 . S
C309 C158 1.246 . S
C311 C38 1.217 . S
C313 C86 1.202 . S
C315 C194 1.227 . S
C317 C218 1.256 . S
C319 C122 1.280 . S
C321 C4 1.570 . S
C323 C219 1.567 . S
C325 C255 1.566 . S
C327 C40 1.572 . S
C329 C75 1.553 . S
C331 C148 1.571 . S
C333 C111 1.566 . S
C335 C184 1.572 . S
C337 C220 1.570 . S
C339 C3 1.568 . S
C341 C256 1.570 . S
C343 C39 1.554 . S
C345 C76 1.573 . S
C347 C147 1.556 . S
C349 C112 1.570 . S
C351 C183 1.561 . S
