# Generated by pormake.
# Topology nfa, (4)-cn, num edge types: 1
# Building blocks:
#     Node 0, Type 0, BuildingBlock: ESEHIV_clean_sbu_0, # of connection points: 4
#     Node 1, Type 0, BuildingBlock: ESEHIV_clean_sbu_0, # of connection points: 4
#     Node 2, Type 0, BuildingBlock: ESEHIV_clean_sbu_0, # of connection points: 4
#     Node 3, Type 0, BuildingBlock: ESEHIV_clean_sbu_0, # of connection points: 4
#     Node 4, Type 0, BuildingBlock: ESEHIV_clean_sbu_0, # of connection points: 4
#     Node 5, Type 0, BuildingBlock: ESEHIV_clean_sbu_0, # of connection points: 4
#     Node 6, Type 0, BuildingBlock: ESEHIV_clean_sbu_0, # of connection points: 4
#     Node 7, Type 0, BuildingBlock: ESEHIV_clean_sbu_0, # of connection points: 4
#     Node 8, Type 0, BuildingBlock: ESEHIV_clean_sbu_0, # of connection points: 4
#     Node 9, Type 0, BuildingBlock: ESEHIV_clean_sbu_0, # of connection points: 4
#     Node 10, Type 0, BuildingBlock: ESEHIV_clean_sbu_0, # of connection points: 4
#     Node 11, Type 0, BuildingBlock: ESEHIV_clean_sbu_0, # of connection points: 4
#     Node 12, Type 0, BuildingBlock: ESEHIV_clean_sbu_0, # of connection points: 4
#     Node 13, Type 0, BuildingBlock: ESEHIV_clean_sbu_0, # of connection points: 4
#     Node 14, Type 0, BuildingBlock: ESEHIV_clean_sbu_0, # of connection points: 4
#     Node 15, Type 0, BuildingBlock: ESEHIV_clean_sbu_0, # of connection points: 4
#     Node 16, Type 0, BuildingBlock: ESEHIV_clean_sbu_0, # of connection points: 4
#     Node 17, Type 0, BuildingBlock: ESEHIV_clean_sbu_0, # of connection points: 4
#     Node 18, Type 0, BuildingBlock: ESEHIV_clean_sbu_0, # of connection points: 4
#     Node 19, Type 0, BuildingBlock: ESEHIV_clean_sbu_0, # of connection points: 4
#     Node 20, Type 0, BuildingBlock: ESEHIV_clean_sbu_0, # of connection points: 4
#     Node 21, Type 0, BuildingBlock: ESEHIV_clean_sbu_0, # of connection points: 4
#     Node 22, Type 0, BuildingBlock: ESEHIV_clean_sbu_0, # of connection points: 4
#     Node 23, Type 0, BuildingBlock: ESEHIV_clean_sbu_0, # of connection points: 4
#     Edge 24, Type (0, 0), BuildingBlock: KIFKEQ_clean_linker_1, # of connection points: 2
#     Edge 25, Type (0, 0), BuildingBlock: KIFKEQ_clean_linker_1, # of connection points: 2
#     Edge 26, Type (0, 0), BuildingBlock: KIFKEQ_clean_linker_1, # of connection points: 2
#     Edge 27, Type (0, 0), BuildingBlock: KIFKEQ_clean_linker_1, # of connection points: 2
#     Edge 28, Type (0, 0), BuildingBlock: KIFKEQ_clean_linker_1, # of connection points: 2
#     Edge 29, Type (0, 0), BuildingBlock: KIFKEQ_clean_linker_1, # of connection points: 2
#     Edge 30, Type (0, 0), BuildingBlock: KIFKEQ_clean_linker_1, # of connection points: 2
#     Edge 31, Type (0, 0), BuildingBlock: KIFKEQ_clean_linker_1, # of connection points: 2
#     Edge 32, Type (0, 0), BuildingBlock: KIFKEQ_clean_linker_1, # of connection points: 2
#     Edge 33, Type (0, 0), BuildingBlock: KIFKEQ_clean_linker_1, # of connection points: 2
#     Edge 34, Type (0, 0), BuildingBlock: KIFKEQ_clean_linker_1, # of connection points: 2
#     Edge 35, Type (0, 0), BuildingBlock: KIFKEQ_clean_linker_1, # of connection points: 2
#     Edge 36, Type (0, 0), BuildingBlock: KIFKEQ_clean_linker_1, # of connection points: 2
#     Edge 37, Type (0, 0), BuildingBlock: KIFKEQ_clean_linker_1, # of connection points: 2
#     Edge 38, Type (0, 0), BuildingBlock: KIFKEQ_clean_linker_1, # of connection points: 2
#     Edge 39, Type (0, 0), BuildingBlock: KIFKEQ_clean_linker_1, # of connection points: 2
#     Edge 40, Type (0, 0), BuildingBlock: KIFKEQ_clean_linker_1, # of connection points: 2
#     Edge 41, Type (0, 0), BuildingBlock: KIFKEQ_clean_linker_1, # of connection points: 2
#     Edge 42, Type (0, 0), BuildingBlock: KIFKEQ_clean_linker_1, # of connection points: 2
#     Edge 43, Type (0, 0), BuildingBlock: KIFKEQ_clean_linker_1, # of connection points: 2
#     Edge 44, Type (0, 0), BuildingBlock: KIFKEQ_clean_linker_1, # of connection points: 2
#     Edge 45, Type (0, 0), BuildingBlock: KIFKEQ_clean_linker_1, # of connection points: 2
#     Edge 46, Type (0, 0), BuildingBlock: KIFKEQ_clean_linker_1, # of connection points: 2
#     Edge 47, Type (0, 0), BuildingBlock: KIFKEQ_clean_linker_1, # of connection points: 2
#     Edge 48, Type (0, 0), BuildingBlock: KIFKEQ_clean_linker_1, # of connection points: 2
#     Edge 49, Type (0, 0), BuildingBlock: KIFKEQ_clean_linker_1, # of connection points: 2
#     Edge 50, Type (0, 0), BuildingBlock: KIFKEQ_clean_linker_1, # of connection points: 2
#     Edge 51, Type (0, 0), BuildingBlock: KIFKEQ_clean_linker_1, # of connection points: 2
#     Edge 52, Type (0, 0), BuildingBlock: KIFKEQ_clean_linker_1, # of connection points: 2
#     Edge 53, Type (0, 0), BuildingBlock: KIFKEQ_clean_linker_1, # of connection points: 2
#     Edge 54, Type (0, 0), BuildingBlock: KIFKEQ_clean_linker_1, # of connection points: 2
#     Edge 55, Type (0, 0), BuildingBlock: KIFKEQ_clean_linker_1, # of connection points: 2
#     Edge 56, Type (0, 0), BuildingBlock: KIFKEQ_clean_linker_1, # of connection points: 2
#     Edge 57, Type (0, 0), BuildingBlock: KIFKEQ_clean_linker_1, # of connection points: 2
#     Edge 58, Type (0, 0), BuildingBlock: KIFKEQ_clean_linker_1, # of connection points: 2
#     Edge 59, Type (0, 0), BuildingBlock: KIFKEQ_clean_linker_1, # of connection points: 2
#     Edge 60, Type (0, 0), BuildingBlock: KIFKEQ_clean_linker_1, # of connection points: 2
#     Edge 61, Type (0, 0), BuildingBlock: KIFKEQ_clean_linker_1, # of connection points: 2
#     Edge 62, Type (0, 0), BuildingBlock: KIFKEQ_clean_linker_1, # of connection points: 2
#     Edge 63, Type (0, 0), BuildingBlock: KIFKEQ_clean_linker_1, # of connection points: 2
#     Edge 64, Type (0, 0), BuildingBlock: KIFKEQ_clean_linker_1, # of connection points: 2
#     Edge 65, Type (0, 0), BuildingBlock: KIFKEQ_clean_linker_1, # of connection points: 2
#     Edge 66, Type (0, 0), BuildingBlock: KIFKEQ_clean_linker_1, # of connection points: 2
#     Edge 67, Type (0, 0), BuildingBlock: KIFKEQ_clean_linker_1, # of connection points: 2
#     Edge 68, Type (0, 0), BuildingBlock: KIFKEQ_clean_linker_1, # of connection points: 2
#     Edge 69, Type (0, 0), BuildingBlock: KIFKEQ_clean_linker_1, # of connection points: 2
#     Edge 70, Type (0, 0), BuildingBlock: KIFKEQ_clean_linker_1, # of connection points: 2
#     Edge 71, Type (0, 0), BuildingBlock: KIFKEQ_clean_linker_1, # of connection points: 2
# Relax obj value: 0.075
# Max RMSD: 0.184
# Mean RMSD: 0.160
data_MOF--net-nfa--node1-ESEHIV_clean_sbu_0--edge1-KIFKEQ_clean_linker_1
_symmetry_space_group_name_H-M    P1
_symmetry_Int_Tables_number       1
_symmetry_cell_setting            triclinic
loop_
_symmetry_equiv_pos_as_xyz
'x, y, z'
_cell_length_a     41.96623
_cell_length_b     46.889643
_cell_length_c     44.822633
_cell_angle_alpha  88.755799
_cell_angle_beta   89.474493
_cell_angle_gamma 90.877458
loop_
_atom_site_label
_atom_site_type_symbol
_atom_site_fract_x
_atom_site_fract_y
_atom_site_fract_z
_atom_type_partial_charge
Cu0 Cu 0.11064 0.36365 0.38484 0.0
N1 N 0.06971 0.35376 0.39885 0.0
N2 N 0.03005 0.32329 0.41157 0.0
C3 C 0.05879 0.32668 0.39822 0.0
C4 C 0.02218 0.34956 0.42067 0.0
C5 C 0.04687 0.36834 0.41297 0.0
O6 O 0.13282 0.32724 0.38933 0.0
C7 C 0.09462 0.40536 0.34429 0.0
O8 O 0.08006 0.41304 0.36884 0.0
H9 H 0.07184 0.30968 0.38803 0.0
H10 H 0.04822 0.3908 0.41786 0.0
N11 N 0.1306 0.3918 0.40724 0.0
N12 N 0.16211 0.43006 0.41315 0.0
C13 C 0.15597 0.40689 0.39677 0.0
C14 C 0.1204 0.40568 0.43142 0.0
C15 C 0.13982 0.42942 0.43508 0.0
C16 C 0.14277 0.32059 0.41539 0.0
O17 O 0.14421 0.34052 0.43548 0.0
H18 H 0.16794 0.40227 0.37596 0.0
H19 H 0.09927 0.40002 0.44434 0.0
O20 O 0.10889 0.38145 0.34468 0.0
H21 H 1.00057 0.35469 0.43265 0.0
H22 H 0.13694 0.44556 0.45176 0.0
Cu23 Cu 0.89769 0.89856 0.64321 0.0
N24 N 0.89149 0.90623 0.60269 0.0
N25 N 0.85736 0.90775 0.56448 0.0
C26 C 0.86768 0.89278 0.5885 0.0
C27 C 0.87623 0.93137 0.56306 0.0
C28 C 0.89699 0.93054 0.58686 0.0
O29 O 0.85563 0.91032 0.65904 0.0
C30 C 0.93807 0.85366 0.63217 0.0
O31 O 0.94718 0.87288 0.61198 0.0
H32 H 0.85596 0.87381 0.59771 0.0
H33 H 0.91207 0.94794 0.59402 0.0
N34 N 0.93017 0.91959 0.66107 0.0
N35 N 0.96601 0.92568 0.69722 0.0
C36 C 0.93696 0.91528 0.69006 0.0
C37 C 0.9557 0.93349 0.6492 0.0
C38 C 0.97775 0.93753 0.67155 0.0
C39 C 0.85191 0.93627 0.66674 0.0
O40 O 0.87728 0.95245 0.6705 0.0
H41 H 0.92152 0.90292 0.70502 0.0
H42 H 0.9593 0.93807 0.62566 0.0
O43 O 0.91356 0.85901 0.64834 0.0
H44 H 0.87301 0.94937 0.54793 0.0
H45 H 1.00155 0.94638 0.66849 0.0
Cu46 Cu 0.3632 0.65373 0.87189 0.0
N47 N 0.35818 0.64217 0.83246 0.0
N48 N 0.35469 0.60728 0.79932 0.0
C49 C 0.36667 0.61557 0.82553 0.0
C50 C 0.33848 0.62994 0.78872 0.0
C51 C 0.34041 0.65148 0.80945 0.0
O52 O 0.34638 0.61941 0.89329 0.0
C53 C 0.41621 0.68557 0.85718 0.0
O54 O 0.3961 0.6923 0.83597 0.0
H55 H 0.37943 0.60171 0.84075 0.0
H56 H 0.3277 0.67137 0.80889 0.0
N57 N 0.34062 0.68571 0.88414 0.0
N58 N 0.33223 0.72335 0.91295 0.0
C59 C 0.35205 0.70213 0.90597 0.0
C60 C 0.31237 0.69703 0.87676 0.0
C61 C 0.307 0.72021 0.89477 0.0
C62 C 0.31784 0.6137 0.88518 0.0
O63 O 0.30288 0.63291 0.86909 0.0
H64 H 0.37432 0.69802 0.91717 0.0
H65 H 0.29664 0.68895 0.85983 0.0
O66 O 0.40783 0.66627 0.87644 0.0
H67 H 0.3242 0.63009 0.76872 0.0
H68 H 0.2863 0.7337 0.89444 0.0
Cu69 Cu 0.69888 0.15879 0.15467 0.0
N70 N 0.68766 0.19698 0.15839 0.0
N71 N 0.65424 0.23369 0.15866 0.0
C72 C 0.65719 0.20526 0.15635 0.0
C73 C 0.68422 0.24387 0.16221 0.0
C74 C 0.70484 0.22108 0.16224 0.0
O75 O 0.66078 0.13832 0.16906 0.0
C76 C 0.73803 0.16424 0.10633 0.0
O77 O 0.75012 0.18277 0.12481 0.0
H78 H 0.63757 0.19069 0.15223 0.0
H79 H 0.73046 0.22213 0.16452 0.0
N80 N 0.735 0.14791 0.17615 0.0
N81 N 0.78192 0.12581 0.17823 0.0
C82 C 0.75199 0.12541 0.16749 0.0
C83 C 0.75451 0.16288 0.19387 0.0
C84 C 0.78347 0.14911 0.1954 0.0
C85 C 0.65714 0.135 0.19719 0.0
O86 O 0.68165 0.13968 0.21452 0.0
H87 H 0.74325 0.11044 0.15134 0.0
H88 H 0.74923 0.18358 0.20269 0.0
O89 O 0.71168 0.15178 0.1134 0.0
H90 H 0.69076 0.26611 0.1646 0.0
H91 H 0.80479 0.15706 0.20604 0.0
Cu92 Cu 0.11356 0.57403 0.11906 0.0
N93 N 0.11271 0.53796 0.10174 0.0
N94 N 0.12416 0.49156 0.09994 0.0
C95 C 0.12575 0.51546 0.11591 0.0
C96 C 0.10983 0.49921 0.07421 0.0
C97 C 0.10239 0.5279 0.07553 0.0
O98 O 0.12072 0.56419 0.16128 0.0
C99 C 0.13616 0.60688 0.072 0.0
O100 O 0.11217 0.59304 0.06016 0.0
H101 H 0.13754 0.51683 0.1372 0.0
H102 H 0.09079 0.54044 0.0584 0.0
N103 N 0.0759 0.59465 0.11593 0.0
N104 N 0.04953 0.63579 0.11302 0.0
C105 C 0.07527 0.62217 0.1237 0.0
C106 C 0.04932 0.59031 0.09998 0.0
C107 C 0.03283 0.61567 0.09836 0.0
C108 C 0.09686 0.55157 0.17401 0.0
O109 O 0.06967 0.55086 0.15973 0.0
H110 H 0.09458 0.63231 0.1355 0.0
H111 H 0.04361 0.57087 0.08848 0.0
O112 O 0.14428 0.60006 0.09861 0.0
H113 H 0.10536 0.4852 0.05577 0.0
H114 H 1.01143 0.61941 0.08566 0.0
Cu115 Cu 0.58896 0.90192 0.39236 0.0
N116 N 0.54563 0.91019 0.39685 0.0
N117 N 0.49455 0.90858 0.38269 0.0
C118 C 0.52226 0.89446 0.38452 0.0
C119 C 0.50054 0.93417 0.39488 0.0
C120 C 0.53204 0.9351 0.4036 0.0
O121 O 0.58917 0.87244 0.36248 0.0
C122 C 0.61776 0.95489 0.39877 0.0
O123 O 0.60535 0.95122 0.42562 0.0
H124 H 0.52639 0.87425 0.3741 0.0
H125 H 0.54468 0.95358 0.41169 0.0
N126 N 0.60795 0.88966 0.42795 0.0
N127 N 0.64613 0.88481 0.46221 0.0
C128 C 0.63939 0.89172 0.43357 0.0
C129 C 0.59418 0.88092 0.45382 0.0
C130 C 0.61767 0.87785 0.475 0.0
C131 C 0.58884 0.84611 0.37002 0.0
O132 O 0.59638 0.83878 0.39747 0.0
H133 H 0.6567 0.89974 0.41729 0.0
H134 H 0.56879 0.87795 0.45727 0.0
O135 O 0.61253 0.93599 0.37932 0.0
H136 H 0.48405 0.95167 0.39551 0.0
H137 H 0.61393 0.87151 0.49814 0.0
Cu138 Cu 0.40881 0.37041 0.65187 0.0
N139 N 0.38782 0.33918 0.63488 0.0
N140 N 0.38669 0.30031 0.60664 0.0
C141 C 0.40137 0.32542 0.61211 0.0
C142 C 0.36228 0.29842 0.62647 0.0
C143 C 0.36321 0.32235 0.64411 0.0
O144 O 0.45376 0.35716 0.65107 0.0
C145 C 0.36419 0.40968 0.63446 0.0
O146 O 0.34709 0.38726 0.64316 0.0
H147 H 0.4227 0.33325 0.6007 0.0
H148 H 0.34813 0.32634 0.6632 0.0
N149 N 0.39701 0.37806 0.69125 0.0
N150 N 0.38207 0.40858 0.72618 0.0
C151 C 0.39796 0.4052 0.70039 0.0
C152 C 0.38011 0.36345 0.71242 0.0
C153 C 0.37096 0.38236 0.73422 0.0
C154 C 0.45726 0.33361 0.66581 0.0
O155 O 0.433 0.32416 0.68214 0.0
H156 H 0.40804 0.42272 0.68708 0.0
H157 H 0.37292 0.34128 0.71108 0.0
O158 O 0.3945 0.40657 0.63223 0.0
H159 H 0.34607 0.28036 0.62919 0.0
H160 H 0.35534 0.37767 0.7531 0.0
Cu161 Cu 0.87277 0.14227 0.86343 0.0
N162 N 0.83275 0.12971 0.84972 0.0
N163 N 0.78858 0.10198 0.8489 0.0
C164 C 0.81543 0.10885 0.86372 0.0
C165 C 0.78904 0.11927 0.82437 0.0
C166 C 0.81623 0.13643 0.82499 0.0
O167 O 0.87196 0.1289 0.90498 0.0
C168 C 0.90973 0.13966 0.81268 0.0
O169 O 0.88897 0.15912 0.80501 0.0
H170 H 0.82309 0.09813 0.88397 0.0
H171 H 0.82364 0.15225 0.80834 0.0
N172 N 0.87889 0.18215 0.86265 0.0
N173 N 0.90562 0.22383 0.86574 0.0
C174 C 0.90773 0.19538 0.86216 0.0
C175 C 0.85763 0.20298 0.8663 0.0
C176 C 0.87404 0.22869 0.86825 0.0
C177 C 0.87923 0.14453 0.92684 0.0
O178 O 0.89616 0.16794 0.92186 0.0
H179 H 0.92995 0.184 0.86112 0.0
H180 H 0.83217 0.19958 0.86862 0.0
O181 O 0.90671 0.1273 0.83824 0.0
H182 H 0.77112 0.11947 0.80716 0.0
H183 H 0.8635 0.24924 0.87199 0.0
Cu184 Cu 0.40773 0.15226 0.39106 0.0
N185 N 0.42825 0.16975 0.35808 0.0
N186 N 0.46188 0.17162 0.31888 0.0
C187 C 0.45294 0.15749 0.34426 0.0
C188 C 0.44197 0.19398 0.31689 0.0
C189 C 0.42113 0.19269 0.34103 0.0
O190 O 0.40204 0.11293 0.37894 0.0
C191 C 0.44197 0.18287 0.43209 0.0
O192 O 0.44355 0.20109 0.40943 0.0
H193 H 0.4637 0.13815 0.35268 0.0
H194 H 0.40172 0.20697 0.34531 0.0
N195 N 0.36837 0.1672 0.40212 0.0
N196 N 0.33003 0.17665 0.4354 0.0
C197 C 0.35714 0.16255 0.42999 0.0
C198 C 0.34742 0.18483 0.38898 0.0
C199 C 0.32349 0.19053 0.4095 0.0
C200 C 0.38163 0.10952 0.35839 0.0
O201 O 0.3641 0.13132 0.3504 0.0
H202 H 0.36892 0.14892 0.4461 0.0
H203 H 0.34953 0.19328 0.36641 0.0
O204 O 0.43196 0.15757 0.42741 0.0
H205 H 0.44168 0.20968 0.29885 0.0
H206 H 0.30337 0.2043 0.40585 0.0
Cu207 Cu 0.13082 0.10857 0.61804 0.0
N208 N 0.11438 0.11726 0.58005 0.0
N209 N 0.11094 0.14159 0.53648 0.0
C210 C 0.12758 0.13745 0.56178 0.0
C211 C 0.08588 0.12321 0.53897 0.0
C212 C 0.08812 0.10816 0.56586 0.0
O213 O 0.17148 0.12946 0.61724 0.0
C214 C 0.0777 0.10439 0.65559 0.0
O215 O 0.0731 0.08157 0.63959 0.0
H216 H 0.14835 0.14984 0.56757 0.0
H217 H 0.07146 0.0922 0.57464 0.0
N218 N 0.13718 0.06936 0.6249 0.0
N219 N 0.14554 0.02852 0.65041 0.0
C220 C 0.14617 0.05734 0.65107 0.0
C221 C 0.13071 0.04742 0.60696 0.0
C222 C 0.13581 0.02221 0.62264 0.0
C223 C 0.19665 0.11724 0.60831 0.0
O224 O 0.19677 0.08928 0.60747 0.0
H225 H 0.15177 0.06956 0.67061 0.0
H226 H 0.12205 0.0496 0.58439 0.0
O227 O 0.10151 0.12078 0.6493 0.0
H228 H 0.06714 0.12095 0.52272 0.0
H229 H 0.13235 1.00091 0.6143 0.0
Cu230 Cu 0.15023 0.85299 0.89759 0.0
N231 N 0.17605 0.86967 0.86724 0.0
N232 N 0.1864 0.89659 0.82604 0.0
C233 C 0.16488 0.87976 0.84099 0.0
C234 C 0.21259 0.89631 0.84344 0.0
C235 C 0.20613 0.87976 0.86875 0.0
O236 O 0.10689 0.85865 0.88374 0.0
C237 C 0.16931 0.89507 0.94078 0.0
O238 O 0.1732 0.91336 0.91839 0.0
H239 H 0.14079 0.87578 0.83373 0.0
H240 H 0.22146 0.87701 0.88784 0.0
N241 N 0.15821 0.814 0.90366 0.0
N242 N 0.16444 0.77214 0.92822 0.0
C243 C 0.15701 0.80005 0.93033 0.0
C244 C 0.16678 0.79436 0.88384 0.0
C245 C 0.1706 0.76858 0.89886 0.0
C246 C 0.09698 0.88398 0.87967 0.0
O247 O 0.1136 0.9052 0.89063 0.0
H248 H 0.15111 0.81042 0.95094 0.0
H249 H 0.16998 0.79849 0.86016 0.0
O250 O 0.15858 0.87008 0.93599 0.0
H251 H 0.23425 0.9086 0.8393 0.0
H252 H 0.17691 0.74869 0.88871 0.0
Cu253 Cu 0.34794 0.89466 0.15805 0.0
N254 N 0.36955 0.87381 0.12914 0.0
N255 N 0.37622 0.84726 0.08865 0.0
C256 C 0.35509 0.8589 0.10757 0.0
C257 C 0.40518 0.85519 0.09878 0.0
C258 C 0.40099 0.87174 0.1236 0.0
O259 O 0.30692 0.90318 0.14044 0.0
C260 C 0.36866 0.86132 0.20669 0.0
O261 O 0.39056 0.85328 0.18768 0.0
H262 H 0.32947 0.85672 0.10578 0.0
H263 H 0.41952 0.88184 0.13646 0.0
N264 N 0.36894 0.92858 0.16757 0.0
N265 N 0.38289 0.96435 0.19732 0.0
C266 C 0.36272 0.94216 0.19303 0.0
C267 C 0.39405 0.94257 0.15501 0.0
C268 C 0.40268 0.96475 0.17332 0.0
C269 C 0.30792 0.91982 0.11759 0.0
O270 O 0.33527 0.93213 0.11015 0.0
H271 H 0.34439 0.93498 0.20868 0.0
H272 H 0.4057 0.9367 0.13448 0.0
O273 O 0.34492 0.87514 0.19683 0.0
H274 H 0.42777 0.85002 0.08854 0.0
H275 H 0.42211 0.9798 0.16929 0.0
Cu276 Cu 0.37676 0.38553 0.15038 0.0
N277 N 0.40933 0.36687 0.12956 0.0
N278 N 0.45347 0.34152 0.12157 0.0
C279 C 0.42582 0.34332 0.13729 0.0
C280 C 0.454 0.36459 0.10305 0.0
C281 C 0.42719 0.38017 0.10824 0.0
O282 O 0.39863 0.40227 0.18499 0.0
C283 C 0.34969 0.40493 0.09637 0.0
O284 O 0.36219 0.38108 0.08731 0.0
H285 H 0.41871 0.32875 0.15522 0.0
H286 H 0.42235 0.4011 0.09887 0.0
N287 N 0.34212 0.36211 0.16338 0.0
N288 N 0.28866 0.35799 0.16563 0.0
C289 C 0.31464 0.36149 0.1479 0.0
C290 C 0.33303 0.35713 0.19198 0.0
C291 C 0.3003 0.35441 0.19337 0.0
C292 C 0.41057 0.38475 0.20395 0.0
O293 O 0.40587 0.35733 0.20028 0.0
H294 H 0.31307 0.36831 0.12487 0.0
H295 H 0.34803 0.35997 0.21113 0.0
O296 O 0.35556 0.41289 0.12296 0.0
H297 H 0.4737 0.37121 0.08863 0.0
H298 H 0.28609 0.35387 0.21366 0.0
Cu299 Cu 0.92929 0.89664 0.13594 0.0
N300 N 0.9354 0.93035 0.11232 0.0
N301 N 0.92781 0.97777 0.10772 0.0
C302 C 0.94089 0.95634 0.12399 0.0
C303 C 0.9151 0.96491 0.08392 0.0
C304 C 0.91925 0.936 0.08705 0.0
O305 O 0.9049 0.91115 0.1703 0.0
C306 C 0.91944 0.86205 0.08637 0.0
O307 O 0.94175 0.87917 0.07519 0.0
H308 H 0.95066 0.95928 0.14584 0.0
H309 H 0.90632 0.92035 0.07441 0.0
N310 N 0.96641 0.87781 0.14902 0.0
N311 N 0.99873 0.83991 0.14854 0.0
C312 C 0.98366 0.86002 0.13207 0.0
C313 C 0.97129 0.86849 0.17728 0.0
C314 C 0.99152 0.84572 0.17707 0.0
C315 C 0.92033 0.92561 0.18949 0.0
O316 O 0.95159 0.92598 0.18799 0.0
H317 H 0.9825 0.85973 0.10808 0.0
H318 H 0.95749 0.87461 0.19648 0.0
O319 O 0.90815 0.86682 0.11239 0.0
H320 H 0.89945 0.97498 0.06792 0.0
H321 H 0.99679 0.83211 0.19616 0.0
Cu322 Cu 0.16224 0.63933 0.63949 0.0
N323 N 0.19691 0.62058 0.65837 0.0
N324 N 0.23618 0.58859 0.66446 0.0
C325 C 0.21487 0.60033 0.64544 0.0
C326 C 0.23148 0.60215 0.69041 0.0
C327 C 0.20751 0.62189 0.68657 0.0
O328 O 0.17548 0.64244 0.59767 0.0
C329 C 0.11888 0.60413 0.67218 0.0
O330 O 0.14386 0.5906 0.68231 0.0
H331 H 0.21146 0.59352 0.62275 0.0
H332 H 0.19781 0.63552 0.70344 0.0
N333 N 0.15125 0.67617 0.65225 0.0
N334 N 0.11755 0.71273 0.6589 0.0
C335 C 0.12377 0.68865 0.64381 0.0
C336 C 0.16306 0.69293 0.67359 0.0
C337 C 0.14251 0.71547 0.67762 0.0
C338 C 0.20152 0.65656 0.59389 0.0
O339 O 0.21402 0.66905 0.6171 0.0
H340 H 0.1078 0.67918 0.62787 0.0
H341 H 0.18439 0.68855 0.68614 0.0
O342 O 0.12198 0.61933 0.64838 0.0
H343 H 0.24421 0.5979 0.71089 0.0
H344 H 0.14561 0.73229 0.69352 0.0
Cu345 Cu 0.63944 0.87442 0.8678 0.0
N346 N 0.65753 0.88112 0.82985 0.0
N347 N 0.67593 0.91235 0.79493 0.0
C348 C 0.67687 0.90383 0.82384 0.0
C349 C 0.656 0.89358 0.78191 0.0
C350 C 0.64465 0.87445 0.80345 0.0
O351 O 0.63984 0.91307 0.88402 0.0
C352 C 0.59913 0.82932 0.8551 0.0
O353 O 0.62683 0.82019 0.84569 0.0
H354 H 0.68781 0.91638 0.84101 0.0
H355 H 0.62527 0.85931 0.80066 0.0
N356 N 0.66301 0.84911 0.89128 0.0
N357 N 0.66852 0.81279 0.92407 0.0
C358 C 0.65021 0.83468 0.91486 0.0
C359 C 0.6907 0.83625 0.88536 0.0
C360 C 0.69428 0.81394 0.90569 0.0
C361 C 0.66443 0.9219 0.8979 0.0
O362 O 0.68452 0.90296 0.90819 0.0
H363 H 0.62695 0.83939 0.92388 0.0
H364 H 0.70602 0.84144 0.86641 0.0
O365 O 0.59773 0.85474 0.86483 0.0
H366 H 0.64762 0.89537 0.75919 0.0
H367 H 0.7134 0.79873 0.90561 0.0
Cu368 Cu 0.83235 0.14725 0.36399 0.0
N369 N 0.81639 0.18444 0.36581 0.0
N370 N 0.8133 0.22637 0.38896 0.0
C371 C 0.83259 0.20574 0.37902 0.0
C372 C 0.78371 0.21813 0.38088 0.0
C373 C 0.78567 0.19231 0.36672 0.0
O374 O 0.86936 0.14913 0.38992 0.0
C375 C 0.77674 0.11557 0.36061 0.0
O376 O 0.7758 0.12998 0.33516 0.0
H377 H 0.85753 0.20445 0.38447 0.0
H378 H 0.76568 0.17892 0.36068 0.0
N379 N 0.84368 0.13529 0.32558 0.0
N380 N 0.85453 0.10479 0.28918 0.0
C381 C 0.84387 0.10775 0.31741 0.0
C382 C 0.85446 0.15038 0.30156 0.0
C383 C 0.86143 0.13155 0.27912 0.0
C384 C 0.89772 0.15095 0.37964 0.0
O385 O 0.90338 0.1427 0.35232 0.0
H386 H 0.83734 0.09009 0.33231 0.0
H387 H 0.85778 0.1733 0.30071 0.0
O388 O 0.79974 0.12032 0.3783 0.0
H389 H 0.76193 0.22879 0.38684 0.0
H390 H 0.87112 0.13706 0.25724 0.0
Cu391 Cu 0.68098 0.14568 0.65195 0.0
N392 N 0.70858 0.16599 0.62579 0.0
N393 N 0.72344 0.19464 0.58744 0.0
C394 C 0.69886 0.18186 0.6023 0.0
C395 C 0.74985 0.18628 0.60196 0.0
C396 C 0.74057 0.16871 0.62581 0.0
O397 O 0.64019 0.16723 0.65194 0.0
C398 C 0.70082 0.09333 0.62477 0.0
O399 O 0.71651 0.1101 0.60576 0.0
H400 H 0.67408 0.18399 0.59623 0.0
H401 H 0.75598 0.15871 0.64204 0.0
N402 N 0.69678 0.14388 0.69085 0.0
N403 N 0.70683 0.11566 0.73064 0.0
C404 C 0.7114 0.12024 0.70107 0.0
C405 C 0.68377 0.15556 0.71516 0.0
C406 C 0.69 0.13828 0.7397 0.0
C407 C 0.64245 0.19428 0.65574 0.0
O408 O 0.67084 0.20527 0.66075 0.0
H409 H 0.72068 0.10432 0.6864 0.0
H410 H 0.66707 0.17289 0.7146 0.0
O411 O 0.68032 0.1044 0.64227 0.0
H412 H 0.77399 0.19292 0.5962 0.0
H413 H 0.67962 0.14041 0.76172 0.0
Cu414 Cu 0.10881 0.41848 0.89959 0.0
N415 N 0.07196 0.43449 0.88253 0.0
N416 N 0.02988 0.43546 0.85168 0.0
C417 C 0.05656 0.42169 0.86 0.0
C418 C 0.02858 0.45821 0.86965 0.0
C419 C 0.05443 0.45747 0.88875 0.0
O420 O 0.10045 0.37764 0.89388 0.0
C421 C 0.15082 0.46226 0.88973 0.0
O422 O 0.12636 0.47447 0.90237 0.0
H423 H 0.06498 0.40245 0.84985 0.0
H424 H 0.05972 0.47245 0.9061 0.0
N425 N 0.11598 0.42469 0.94046 0.0
N426 N 0.14866 0.43024 0.97944 0.0
C427 C 0.14365 0.41711 0.95332 0.0
C428 C 0.10268 0.44313 0.95936 0.0
C429 C 0.1228 0.44658 0.98342 0.0
C430 C 0.07832 0.36736 0.91093 0.0
O431 O 0.06821 0.38304 0.93293 0.0
H432 H 0.16119 0.40424 0.94226 0.0
H433 H 0.08127 0.45495 0.95491 0.0
O434 O 0.14763 0.43627 0.88199 0.0
H435 H 1.00995 0.47391 0.86952 0.0
H436 H 0.1193 0.46093 1.00172 0.0
Cu437 Cu 0.37683 0.64489 0.36027 0.0
N438 N 0.34618 0.62195 0.34216 0.0
N439 N 0.30839 0.58798 0.34048 0.0
C440 C 0.33387 0.59811 0.35522 0.0
C441 C 0.30459 0.60614 0.31703 0.0
C442 C 0.32804 0.62712 0.31809 0.0
O443 O 0.3604 0.65028 0.40069 0.0
C444 C 0.42642 0.61654 0.33285 0.0
O445 O 0.40383 0.61148 0.31351 0.0
H446 H 0.34218 0.58953 0.37632 0.0
H447 H 0.33068 0.64552 0.30327 0.0
N448 N 0.3836 0.68006 0.34073 0.0
N449 N 0.41327 0.71684 0.32312 0.0
C450 C 0.41301 0.69159 0.33799 0.0
C451 C 0.36416 0.6988 0.32718 0.0
C452 C 0.38248 0.72172 0.31643 0.0
C453 C 0.33182 0.65914 0.40221 0.0
O454 O 0.3175 0.66636 0.37729 0.0
H455 H 0.43385 0.68194 0.34767 0.0
H456 H 0.33861 0.69615 0.32541 0.0
O457 O 0.41884 0.62764 0.35761 0.0
H458 H 0.28572 0.60483 0.30079 0.0
H459 H 0.37382 0.74044 0.30472 0.0
Cu460 Cu 0.93322 0.65178 0.88372 0.0
N461 N 0.93581 0.61243 0.87823 0.0
N462 N 0.9392 0.57312 0.85104 0.0
C463 C 0.93791 0.60179 0.85068 0.0
C464 C 0.93754 0.56519 0.88017 0.0
C465 C 0.9357 0.58961 0.897 0.0
O466 O 0.95654 0.66719 0.84889 0.0
C467 C 0.86706 0.6461 0.89568 0.0
O468 O 0.87107 0.61873 0.89167 0.0
H469 H 0.93757 0.61496 0.83056 0.0
H470 H 0.93389 0.59058 0.92104 0.0
N471 N 0.95012 0.66447 0.91973 0.0
N472 N 0.94894 0.69132 0.96066 0.0
C473 C 0.941 0.68925 0.9316 0.0
C474 C 0.96481 0.65026 0.94193 0.0
C475 C 0.96436 0.66686 0.96712 0.0
C476 C 0.98601 0.66092 0.84815 0.0
O477 O 0.99892 0.65098 0.87279 0.0
H478 H 0.92721 0.70475 0.91929 0.0
H479 H 0.97329 0.62866 0.94057 0.0
O480 O 0.88906 0.66362 0.88733 0.0
H481 H 0.93761 0.54341 0.88867 0.0
H482 H 0.97295 0.66052 0.98892 0.0
Cu483 Cu 0.66411 0.64076 0.13148 0.0
N484 N 0.70416 0.65415 0.11847 0.0
N485 N 0.74112 0.6655 0.08362 0.0
C486 C 0.71355 0.65137 0.08992 0.0
C487 C 0.74972 0.67741 0.10961 0.0
C488 C 0.72672 0.67051 0.13107 0.0
O489 O 0.63757 0.65257 0.09821 0.0
C490 C 0.68969 0.587 0.14629 0.0
O491 O 0.71697 0.60107 0.14473 0.0
H492 H 0.69986 0.63942 0.07399 0.0
H493 H 0.72607 0.67763 0.15384 0.0
N494 N 0.64977 0.65564 0.16761 0.0
N495 N 0.62107 0.65703 0.20997 0.0
C496 C 0.62779 0.64227 0.18521 0.0
C497 C 0.65749 0.67979 0.18174 0.0
C498 C 0.63966 0.68079 0.20782 0.0
C499 C 0.62828 0.6783 0.09676 0.0
O500 O 0.62885 0.69347 0.12102 0.0
H501 H 0.61644 0.62226 0.17949 0.0
H502 H 0.6745 0.69571 0.17353 0.0
O503 O 0.66427 0.59963 0.13863 0.0
H504 H 0.77048 0.69094 0.11272 0.0
H505 H 0.64044 0.69763 0.22393 0.0
Cu506 Cu 0.64768 0.39207 0.37375 0.0
N507 N 0.67404 0.40741 0.34346 0.0
N508 N 0.69097 0.43214 0.30293 0.0
C509 C 0.66544 0.42272 0.3191 0.0
C510 C 0.71658 0.42212 0.31762 0.0
C511 C 0.70605 0.40687 0.34254 0.0
O512 O 0.60372 0.3916 0.35908 0.0
C513 C 0.6477 0.40379 0.4359 0.0
O514 O 0.62757 0.38208 0.43799 0.0
H515 H 0.64104 0.42767 0.31385 0.0
H516 H 0.72069 0.39656 0.35919 0.0
N517 N 0.66044 0.3547 0.38237 0.0
N518 N 0.68022 0.31792 0.40858 0.0
C519 C 0.67879 0.34658 0.40547 0.0
C520 C 0.65048 0.33034 0.3699 0.0
C521 C 0.66269 0.3076 0.38599 0.0
C522 C 0.58809 0.41378 0.35177 0.0
O523 O 0.60016 0.43906 0.35755 0.0
H524 H 0.68992 0.36142 0.42044 0.0
H525 H 0.63419 0.3292 0.35139 0.0
O526 O 0.65576 0.41341 0.41003 0.0
H527 H 0.74121 0.42575 0.31102 0.0
H528 H 0.65734 0.28527 0.38251 0.0
Cu529 Cu 0.86662 0.40563 0.62351 0.0
N530 N 0.88406 0.38468 0.5921 0.0
N531 N 0.88438 0.35716 0.55169 0.0
C532 C 0.86659 0.36832 0.57375 0.0
C533 C 0.91432 0.36692 0.55643 0.0
C534 C 0.91402 0.38399 0.58117 0.0
O535 O 0.82167 0.40963 0.61285 0.0
C536 C 0.90416 0.38477 0.66971 0.0
O537 O 0.92506 0.38451 0.64777 0.0
H538 H 0.84117 0.36486 0.57648 0.0
H539 H 0.93416 0.39555 0.59007 0.0
N540 N 0.88577 0.44143 0.62799 0.0
N541 N 0.90607 0.47439 0.65822 0.0
C542 C 0.88297 0.45457 0.65423 0.0
C543 C 0.91126 0.45376 0.61428 0.0
C544 C 0.92377 0.47423 0.63285 0.0
C545 C 0.81492 0.42839 0.59292 0.0
O546 O 0.83734 0.4465 0.58385 0.0
H547 H 0.86643 0.4472 0.67147 0.0
H548 H 0.92173 0.44673 0.59364 0.0
O549 O 0.87496 0.38909 0.66338 0.0
H550 H 0.93486 0.36278 0.54249 0.0
H551 H 0.94535 0.48666 0.6287 0.0
H552 H 0.1133 0.27272 0.39291 0.0
H553 H 0.17586 0.30038 0.46283 0.0
H554 H 0.10717 0.22599 0.41816 0.0
H555 H 0.17001 0.25406 0.48779 0.0
H556 H 0.16895 0.16361 0.52058 0.0
H557 H 0.18039 0.20342 0.48624 0.0
H558 H 0.08047 0.20818 0.46485 0.0
H559 H 0.06898 0.1682 0.49948 0.0
C560 C 0.12643 0.26861 0.41319 0.0
C561 C 0.14498 0.29037 0.42591 0.0
C562 C 0.12265 0.24192 0.42785 0.0
C563 C 0.13788 0.23624 0.45519 0.0
C564 C 0.15808 0.25745 0.46671 0.0
C565 C 0.16145 0.28412 0.45236 0.0
C566 C 0.14935 0.17306 0.50858 0.0
C567 C 0.11791 0.16293 0.51332 0.0
C568 C 0.15596 0.1959 0.48876 0.0
C569 C 0.13134 0.20933 0.47296 0.0
C570 C 0.10008 0.19826 0.47644 0.0
C571 C 0.09345 0.17533 0.49637 0.0
H572 H 0.01687 0.95551 0.71835 0.0
H573 H 0.95383 0.88393 0.73923 0.0
H574 H 0.04645 0.94548 0.76395 0.0
H575 H 0.98224 0.87491 0.78511 0.0
H576 H 0.0651 0.84596 0.8446 0.0
H577 H 0.03261 0.85679 0.80116 0.0
H578 H 0.04238 0.94685 0.81799 0.0
H579 H 0.07533 0.93607 0.86112 0.0
C580 C 1.00913 0.9378 0.73265 0.0
C581 C 0.98277 0.92069 0.72492 0.0
C582 C 0.02589 0.93222 0.759 0.0
C583 C 0.0167 0.90938 0.7783 0.0
C584 C 0.99021 0.89249 0.7707 0.0
C585 C 0.97356 0.89799 0.74441 0.0
C586 C 0.05987 0.86805 0.83938 0.0
C587 C 0.07286 0.89011 0.85644 0.0
C588 C 0.04122 0.87429 0.81441 0.0
C589 C 0.03505 0.90274 0.80588 0.0
C590 C 0.0471 0.92474 0.82358 0.0
C591 C 0.06571 0.9185 0.84855 0.0
H592 H 0.41222 0.80562 0.06547 0.0
H593 H 0.32433 0.8507 0.05302 0.0
H594 H 0.40059 0.777 0.02216 0.0
H595 H 0.31289 0.8226 1.00908 0.0
H596 H 0.28787 0.74592 0.94968 0.0
H597 H 0.29784 0.77676 0.99208 0.0
H598 H 0.39836 0.77872 0.96995 0.0
H599 H 0.3883 0.74732 0.92848 0.0
C600 C 0.39057 0.80965 0.05324 0.0
C601 C 0.36926 0.83047 0.06276 0.0
C602 C 0.38387 0.79328 0.02825 0.0
C603 C 0.35582 0.79749 0.01177 0.0
C604 C 0.33448 0.81838 0.02133 0.0
C605 C 0.34107 0.83458 0.04655 0.0
C606 C 0.31198 0.75326 0.9538 0.0
C607 C 0.33733 0.74396 0.93597 0.0
C608 C 0.31778 0.77098 0.97809 0.0
C609 C 0.34905 0.78003 0.98489 0.0
C610 C 0.37411 0.7716 0.96611 0.0
C611 C 0.36835 0.75371 0.94216 0.0
H612 H 0.49157 0.20535 0.27637 0.0
H613 H 0.48901 0.11946 0.31353 0.0
H614 H 0.5355 0.19237 0.24353 0.0
H615 H 0.53327 0.10697 0.28135 0.0
H616 H 0.60061 0.15294 0.17343 0.0
H617 H 0.5505 0.16003 0.20053 0.0
H618 H 0.59112 0.12167 0.27962 0.0
H619 H 0.64117 0.11503 0.25279 0.0
C620 C 0.50001 0.18368 0.27744 0.0
C621 C 0.4868 0.16369 0.29815 0.0
C622 C 0.52521 0.17623 0.25852 0.0
C623 C 0.53799 0.14868 0.25997 0.0
C624 C 0.52425 0.12848 0.27999 0.0
C625 C 0.49892 0.1358 0.29865 0.0
C626 C 0.59857 0.14541 0.19638 0.0
C627 C 0.62489 0.13343 0.21098 0.0
C628 C 0.56998 0.14975 0.21198 0.0
C629 C 0.56692 0.14162 0.24228 0.0
C630 C 0.59261 0.12803 0.25627 0.0
C631 C 0.62131 0.1242 0.24088 0.0
H632 H 0.13546 0.7742 0.98285 0.0
H633 H 0.19411 0.72066 0.92837 0.0
H634 H 0.13375 0.73738 0.02175 0.0
H635 H 0.19112 0.68323 0.96688 0.0
H636 H 0.19476 0.62432 0.04906 0.0
H637 H 0.2054 0.66662 0.01673 0.0
H638 H 0.10777 0.69243 0.02882 0.0
H639 H 0.09772 0.65086 0.06098 0.0
C640 C 0.14822 0.75473 0.97909 0.0
C641 C 0.16468 0.75058 0.95204 0.0
C642 C 0.14698 0.73336 1.00145 0.0
C643 C 0.16203 0.70705 0.99752 0.0
C644 C 0.1794 0.70321 0.97093 0.0
C645 C 0.18071 0.72464 0.94854 0.0
C646 C 0.17603 0.6396 0.0454 0.0
C647 C 0.14555 0.63457 0.05776 0.0
C648 C 0.1819 0.66361 0.02658 0.0
C649 C 0.15742 0.68305 0.01994 0.0
C650 C 0.12741 0.67839 0.03359 0.0
C651 C 0.12157 0.65447 0.05206 0.0
H652 H 0.45885 0.94329 0.3477 0.0
H653 H 0.47014 0.85547 0.37577 0.0
H654 H 0.42062 0.92854 0.31019 0.0
H655 H 0.43062 0.84079 0.33906 0.0
H656 H 0.41246 0.82939 0.23627 0.0
H657 H 0.43613 0.83932 0.28435 0.0
H658 H 0.36865 0.9066 0.29767 0.0
H659 H 0.34487 0.89662 0.24938 0.0
C660 C 0.45241 0.92091 0.3465 0.0
C661 C 0.4678 0.9005 0.36449 0.0
C662 C 0.43041 0.91242 0.32499 0.0
C663 C 0.42308 0.88334 0.32118 0.0
C664 C 0.43665 0.86319 0.34074 0.0
C665 C 0.459 0.87162 0.36193 0.0
C666 C 0.40203 0.84575 0.24981 0.0
C667 C 0.37696 0.86236 0.23879 0.0
C668 C 0.41557 0.85142 0.27749 0.0
C669 C 0.40454 0.874 0.29478 0.0
C670 C 0.37797 0.8893 0.28474 0.0
C671 C 0.36416 0.88339 0.25714 0.0
H672 H 0.44728 0.29142 0.58786 0.0
H673 H 0.35046 0.26062 0.57862 0.0
H674 H 0.46485 0.2589 0.54978 0.0
H675 H 0.36822 0.22768 0.54037 0.0
H676 H 0.46862 0.23273 0.45002 0.0
H677 H 0.45721 0.25777 0.49572 0.0
H678 H 0.40184 0.18528 0.52894 0.0
H679 H 0.41352 0.15998 0.48294 0.0
C680 C 0.42965 0.2778 0.57762 0.0
C681 C 0.39726 0.27917 0.58584 0.0
C682 C 0.43982 0.25898 0.55588 0.0
C683 C 0.41794 0.24088 0.54177 0.0
C684 C 0.38576 0.24119 0.55096 0.0
C685 C 0.37553 0.26014 0.57278 0.0
C686 C 0.45472 0.22177 0.46736 0.0
C687 C 0.44177 0.19444 0.46267 0.0
C688 C 0.44814 0.23616 0.49363 0.0
C689 C 0.42824 0.22369 0.51588 0.0
C690 C 0.41687 0.19563 0.51204 0.0
C691 C 0.42384 0.18103 0.48581 0.0
H692 H 0.07108 0.15353 0.6875 0.0
H693 H 0.035 0.06707 0.68159 0.0
H694 H 0.03321 0.16193 0.72825 0.0
H695 H 0.9975 0.07545 0.7221 0.0
H696 H 0.95075 0.09416 0.81275 0.0
H697 H 0.99429 0.08578 0.77711 0.0
H698 H 0.97368 0.16522 0.7313 0.0
H699 H 0.93055 0.17348 0.76642 0.0
C700 C 0.05526 0.1363 0.69498 0.0
C701 C 0.05589 0.10974 0.68108 0.0
C702 C 0.03354 0.1411 0.71827 0.0
C703 C 1.01235 0.11932 0.72842 0.0
C704 C 1.01369 0.09256 0.71506 0.0
C705 C 0.03503 0.08789 0.6916 0.0
C706 C 0.95569 0.10983 0.79515 0.0
C707 C 0.93699 0.13433 0.7923 0.0
C708 C 0.98053 0.10504 0.77472 0.0
C709 C 0.98748 0.1249 0.75141 0.0
C710 C 0.96925 0.14967 0.74915 0.0
C711 C 0.94427 0.15424 0.76918 0.0
H712 H 0.12368 0.46617 0.15445 0.0
H713 H 0.15741 0.457 0.06446 0.0
H714 H 0.1564 0.42662 0.17095 0.0
H715 H 0.19234 0.41865 0.08074 0.0
H716 H 0.25555 0.34982 0.11486 0.0
H717 H 0.20844 0.37566 0.09854 0.0
H718 H 0.20781 0.42016 0.1822 0.0
H719 H 0.25303 0.39323 0.19859 0.0
C720 C 0.13817 0.45546 0.13814 0.0
C721 C 0.1387 0.46494 0.10823 0.0
C722 C 0.15735 0.43296 0.1476 0.0
C723 C 0.17843 0.41991 0.12756 0.0
C724 C 0.17689 0.42805 0.0971 0.0
C725 C 0.15698 0.45012 0.08758 0.0
C726 C 0.2445 0.36453 0.12996 0.0
C727 C 0.25778 0.36915 0.15815 0.0
C728 C 0.21771 0.37971 0.12052 0.0
C729 C 0.20392 0.40039 0.13883 0.0
C730 C 0.21673 0.40407 0.1675 0.0
C731 C 0.24298 0.38853 0.17707 0.0
H732 H 0.75125 0.07063 0.81195 0.0
H733 H 0.77332 0.0826 0.90472 0.0
H734 H 0.71652 0.03023 0.82595 0.0
H735 H 0.73827 0.04268 0.91875 0.0
H736 H 0.64408 0.96405 0.85881 0.0
H737 H 0.66994 1.01029 0.84806 0.0
H738 H 0.738 0.99323 0.91778 0.0
H739 H 0.71162 0.94789 0.92896 0.0
C740 C 0.74836 0.06494 0.83536 0.0
C741 C 0.76563 0.07966 0.85714 0.0
C742 C 0.72832 0.04169 0.84343 0.0
C743 C 0.72483 0.03256 0.87348 0.0
C744 C 0.74094 0.0483 0.8953 0.0
C745 C 0.76109 0.07135 0.88725 0.0
C746 C 0.66395 0.97062 0.87243 0.0
C747 C 0.67558 0.95223 0.89493 0.0
C748 C 0.67917 0.99702 0.86596 0.0
C749 C 0.70635 1.00577 0.88189 0.0
C750 C 0.71695 0.98777 0.90522 0.0
C751 C 0.70181 0.96152 0.91163 0.0
H752 H 0.72788 0.09906 0.32503 0.0
H753 H 0.77096 0.08061 0.41039 0.0
H754 H 0.68902 0.06079 0.33406 0.0
H755 H 0.73205 0.04192 0.41926 0.0
H756 H 0.63643 0.99586 0.43737 0.0
H757 H 0.67437 0.03494 0.42849 0.0
H758 H 0.68741 1.00828 0.33761 0.0
H759 H 0.64905 0.96917 0.34638 0.0
C760 C 0.72906 0.08687 0.34579 0.0
C761 C 0.75255 0.09292 0.36704 0.0
C762 C 0.70688 0.06477 0.35082 0.0
C763 C 0.70753 0.04824 0.37728 0.0
C764 C 0.73077 0.05447 0.39874 0.0
C765 C 0.75311 0.07655 0.39364 0.0
C766 C 0.64723 0.99836 0.41541 0.0
C767 C 0.63967 0.97938 0.39254 0.0
C768 C 0.66918 0.02065 0.41043 0.0
C769 C 0.68401 0.02462 0.38242 0.0
C770 C 0.67616 1.00591 0.35938 0.0
C771 C 0.65426 0.98347 0.36441 0.0
H772 H 0.83594 0.11241 0.20836 0.0
H773 H 0.78771 0.10033 0.12475 0.0
H774 H 0.8793 0.08224 0.19108 0.0
H775 H 0.82952 0.0694 0.10839 0.0
H776 H 0.91306 0.0249 0.07489 0.0
H777 H 0.88309 0.06569 0.09208 0.0
H778 H 0.88782 0.03277 0.18254 0.0
H779 H 0.91833 0.99272 0.16563 0.0
C780 C 0.83456 0.10337 0.18638 0.0
C781 C 0.80798 0.10846 0.16823 0.0
C782 C 0.85927 0.0859 0.17655 0.0
C783 C 0.85798 0.0732 0.14836 0.0
C784 C 0.83176 0.07901 0.13004 0.0
C785 C 0.80726 0.0964 0.13976 0.0
C786 C 0.90828 0.02672 0.09854 0.0
C787 C 0.91753 1.00502 0.11867 0.0
C788 C 0.89091 0.05001 0.10842 0.0
C789 C 0.88219 0.05215 0.1387 0.0
C790 C 0.89402 0.03189 0.15915 0.0
C791 C 0.91158 1.00872 0.14931 0.0
H792 H 0.25303 0.5465 0.70354 0.0
H793 H 0.26789 0.57676 0.61288 0.0
H794 H 0.28653 0.50534 0.69383 0.0
H795 H 0.30238 0.53577 0.60346 0.0
H796 H 0.38999 0.46507 0.62766 0.0
H797 H 0.36154 0.51046 0.63373 0.0
H798 H 0.27346 0.46367 0.64815 0.0
H799 H 0.30084 0.4191 0.64115 0.0
C800 C 0.2639 0.5447 0.68169 0.0
C801 C 0.25757 0.56504 0.659 0.0
C802 C 0.28318 0.52108 0.67614 0.0
C803 C 0.29751 0.51743 0.64798 0.0
C804 C 0.29204 0.53814 0.62548 0.0
C805 C 0.27205 0.56147 0.63082 0.0
C806 C 0.36447 0.46452 0.63142 0.0
C807 C 0.34794 0.43812 0.6338 0.0
C808 C 0.34819 0.49051 0.63506 0.0
C809 C 0.31523 0.49061 0.64166 0.0
C810 C 0.29881 0.46437 0.6433 0.0
C811 C 0.31473 0.43872 0.63914 0.0
H812 H 0.15436 0.48682 0.42034 0.0
H813 H 0.21995 0.42464 0.3874 0.0
H814 H 0.1903 0.52531 0.40264 0.0
H815 H 0.25573 0.463 0.36947 0.0
H816 H 0.32553 0.53999 0.37018 0.0
H817 H 0.29041 0.50178 0.38958 0.0
H818 H 0.20924 0.54496 0.35244 0.0
H819 H 0.24442 0.58339 0.33333 0.0
C820 C 0.17666 0.48139 0.4097 0.0
C821 C 0.1844 0.45273 0.40528 0.0
C822 C 0.19703 0.5034 0.39924 0.0
C823 C 0.22574 0.49717 0.3845 0.0
C824 C 0.23386 0.46848 0.38085 0.0
C825 C 0.21334 0.44654 0.39099 0.0
C826 C 0.30019 0.54131 0.36618 0.0
C827 C 0.28775 0.56468 0.35022 0.0
C828 C 0.28011 0.51937 0.37714 0.0
C829 C 0.24706 0.52043 0.37265 0.0
C830 C 0.23458 0.54371 0.35652 0.0
C831 C 0.25475 0.56552 0.34527 0.0
H832 H 0.29161 0.58567 0.83973 0.0
H833 H 0.31045 0.57659 0.93383 0.0
H834 H 0.25789 0.54313 0.84179 0.0
H835 H 0.2762 0.53345 0.93612 0.0
H836 H 0.17089 0.49803 0.93214 0.0
H837 H 0.21825 0.52828 0.93235 0.0
H838 H 0.24986 0.49158 0.84984 0.0
H839 H 0.20165 0.46092 0.84967 0.0
C840 C 0.28909 0.57407 0.86083 0.0
C841 C 0.30354 0.58455 0.88668 0.0
C842 C 0.26988 0.54947 0.86195 0.0
C843 C 0.26398 0.53484 0.88914 0.0
C844 C 0.27999 0.54435 0.91481 0.0
C845 C 0.2998 0.56891 0.91355 0.0
C846 C 0.18806 0.49612 0.91411 0.0
C847 C 0.18219 0.47743 0.89054 0.0
C848 C 0.21554 0.51329 0.91448 0.0
C849 C 0.23799 0.51258 0.8911 0.0
C850 C 0.23294 0.49285 0.86813 0.0
C851 C 0.20542 0.47522 0.868 0.0
H852 H 0.60948 0.79931 0.94682 0.0
H853 H 0.70863 0.77607 0.95228 0.0
H854 H 0.59607 0.76409 0.98555 0.0
H855 H 0.69477 0.74018 0.99066 0.0
H856 H 0.65493 0.66312 0.04344 0.0
H857 H 0.66319 0.69392 0.9992 0.0
H858 H 0.60751 0.75938 0.04019 0.0
H859 H 0.59968 0.72885 0.08448 0.0
C860 C 0.62857 0.78693 0.95627 0.0
C861 C 0.66037 0.79107 0.94649 0.0
C862 C 0.62072 0.7665 0.97841 0.0
C863 C 0.64432 0.74936 0.99119 0.0
C864 C 0.67596 0.75284 0.98097 0.0
C865 C 0.68391 0.77351 0.95898 0.0
C866 C 0.6438 0.6838 0.04271 0.0
C867 C 0.62672 0.69359 0.06753 0.0
C868 C 0.64883 0.70155 0.01749 0.0
C869 C 0.63629 0.72919 0.01633 0.0
C870 C 0.61739 0.73817 0.04033 0.0
C871 C 0.61286 0.72065 0.0657 0.0
H872 H 0.55081 0.45674 0.32913 0.0
H873 H 0.55943 0.36507 0.33153 0.0
H874 H 0.50532 0.45257 0.29574 0.0
H875 H 0.51473 0.36093 0.29773 0.0
H876 H 0.41905 0.35659 0.25649 0.0
H877 H 0.45894 0.36537 0.2942 0.0
H878 H 0.4911 0.44091 0.24512 0.0
H879 H 0.45003 0.43238 0.20752 0.0
C880 C 0.54291 0.43566 0.32273 0.0
C881 C 0.55881 0.41122 0.33325 0.0
C882 C 0.51694 0.4333 0.30331 0.0
C883 C 0.50608 0.40642 0.29392 0.0
C884 C 0.52184 0.38201 0.30479 0.0
C885 C 0.5477 0.38437 0.32418 0.0
C886 C 0.43429 0.37536 0.25391 0.0
C887 C 0.43143 0.3937 0.22886 0.0
C888 C 0.45746 0.38026 0.27547 0.0
C889 C 0.47892 0.40351 0.27255 0.0
C890 C 0.47501 0.4228 0.24826 0.0
C891 C 0.45143 0.41799 0.22667 0.0
H892 H 0.91879 0.31868 0.52114 0.0
H893 H 0.82524 0.35521 0.5273 0.0
H894 H 0.90075 0.28868 0.48083 0.0
H895 H 0.80719 0.32557 0.4866 0.0
H896 H 0.77715 0.24589 0.43458 0.0
H897 H 0.79373 0.27832 0.4734 0.0
H898 H 0.88582 0.28866 0.43035 0.0
H899 H 0.86944 0.25535 0.39209 0.0
C900 C 0.89444 0.32055 0.5137 0.0
C901 C 0.87354 0.3394 0.52762 0.0
C902 C 0.88404 0.30336 0.49042 0.0
C903 C 0.85243 0.30463 0.48016 0.0
C904 C 0.83154 0.32357 0.49406 0.0
C905 C 0.84192 0.34066 0.51749 0.0
C906 C 0.80075 0.25543 0.43312 0.0
C907 C 0.82193 0.248 0.41013 0.0
C908 C 0.81036 0.27407 0.45549 0.0
C909 C 0.84139 0.28599 0.45538 0.0
C910 C 0.86213 0.27931 0.43174 0.0
C911 C 0.85264 0.26042 0.40959 0.0
H912 H 0.04908 0.6509 0.84068 0.0
H913 H 0.9625 0.66181 0.79061 0.0
H914 H 0.07659 0.63615 0.79581 0.0
H915 H 0.99053 0.64708 0.74517 0.0
H916 H 0.07294 0.64568 0.66865 0.0
H917 H 0.03833 0.66134 0.70929 0.0
H918 H 0.07094 0.59175 0.76506 0.0
H919 H 0.1054 0.57614 0.72482 0.0
C920 C 0.03597 0.65058 0.81999 0.0
C921 C 1.00348 0.65746 0.8194 0.0
C922 C 0.05173 0.64186 0.79426 0.0
C923 C 0.0356 0.63987 0.76704 0.0
C924 C 1.00357 0.6483 0.76586 0.0
C925 C 0.98759 0.6569 0.79184 0.0
C926 C 0.07214 0.63327 0.6893 0.0
C927 C 0.09235 0.60978 0.69351 0.0
C928 C 0.05233 0.64233 0.71262 0.0
C929 C 0.05244 0.62816 0.74061 0.0
C930 C 0.07086 0.60352 0.74399 0.0
C931 C 0.09046 0.59443 0.72078 0.0
H932 H 0.6853 0.33558 0.46559 0.0
H933 H 0.70256 0.26387 0.40909 0.0
H934 H 0.70043 0.30711 0.50912 0.0
H935 H 0.71731 0.23514 0.45302 0.0
H936 H 0.76412 0.1999 0.54012 0.0
H937 H 0.7583 0.23144 0.49599 0.0
H938 H 0.67194 0.26471 0.53395 0.0
H939 H 0.67773 0.23337 0.57762 0.0
C940 C 0.6929 0.31391 0.46232 0.0
C941 C 0.69252 0.30195 0.43379 0.0
C942 C 0.70131 0.29752 0.48736 0.0
C943 C 0.70981 0.26884 0.48451 0.0
C944 C 0.71097 0.25722 0.45587 0.0
C945 C 0.70227 0.27358 0.43078 0.0
C946 C 0.74411 0.21418 0.53903 0.0
C947 C 0.72125 0.21406 0.56217 0.0
C948 C 0.74068 0.23206 0.51377 0.0
C949 C 0.71469 0.25056 0.51156 0.0
C950 C 0.69236 0.25089 0.5351 0.0
C951 C 0.6955 0.23275 0.55999 0.0
H952 H 0.01831 0.38188 0.83217 0.0
H953 H 0.9902 0.46942 0.81906 0.0
H954 H 0.98401 0.36761 0.79157 0.0
H955 H 0.95571 0.45506 0.77805 0.0
H956 H 0.88035 0.41617 0.7161 0.0
H957 H 0.90785 0.42811 0.76241 0.0
H958 H 0.9848 0.37277 0.73818 0.0
H959 H 0.9575 0.36109 0.69233 0.0
C960 C 1.00498 0.3982 0.82054 0.0
C961 C 1.00764 0.42695 0.82872 0.0
C962 C 0.98514 0.38995 0.79718 0.0
C963 C 0.96723 0.41015 0.78113 0.0
C964 C 0.96889 0.43881 0.78999 0.0
C965 C 0.9888 0.4471 0.8135 0.0
C966 C 0.9027 0.40597 0.72113 0.0
C967 C 0.91654 0.38738 0.70062 0.0
C968 C 0.91872 0.41313 0.7475 0.0
C969 C 0.94868 0.40147 0.7542 0.0
C970 C 0.96166 0.38194 0.73418 0.0
C971 C 0.94595 0.37517 0.70778 0.0
H972 H 0.97489 0.70353 0.01469 0.0
H973 H 0.90142 0.72995 0.95349 0.0
H974 H 0.9607 0.74239 0.04748 0.0
H975 H 0.88779 0.76861 0.98595 0.0
H976 H 0.91246 0.85672 0.02704 0.0
H977 H 0.91558 0.81325 0.99855 0.0
H978 H 0.91795 0.76327 0.08055 0.0
H979 H 0.91435 0.80728 0.10921 0.0
C980 C 0.95557 0.71731 1.00825 0.0
C981 C 0.9398 0.7136 0.98095 0.0
C982 C 0.94735 0.73958 0.02719 0.0
C983 C 0.92327 0.75882 0.01926 0.0
C984 C 0.9068 0.75451 0.99254 0.0
C985 C 0.91486 0.73227 0.97375 0.0
C986 C 0.91253 0.83638 0.039 0.0
C987 C 0.91273 0.83538 0.07032 0.0
C988 C 0.91443 0.81142 0.02267 0.0
C989 C 0.91718 0.78471 0.03721 0.0
C990 C 0.916 0.78351 0.06866 0.0
C991 C 0.91342 0.80863 0.08508 0.0
H992 H 0.47781 0.64726 0.35366 0.0
H993 H 0.45061 0.58702 0.28663 0.0
H994 H 0.5289 0.65559 0.32787 0.0
H995 H 0.50124 0.59529 0.26098 0.0
H996 H 0.60118 0.6037 0.2267 0.0
H997 H 0.55843 0.59066 0.26172 0.0
H998 H 0.54506 0.67964 0.28059 0.0
H999 H 0.58801 0.69267 0.24553 0.0
C1000 C 0.48302 0.63524 0.33389 0.0
C1001 C 0.46001 0.6166 0.32209 0.0
C1002 C 0.51218 0.64024 0.31893 0.0
C1003 C 0.51913 0.62635 0.29214 0.0
C1004 C 0.49693 0.60625 0.28162 0.0
C1005 C 0.46778 0.60152 0.29634 0.0
C1006 C 0.58918 0.62052 0.23831 0.0
C1007 C 0.59778 0.6493 0.23288 0.0
C1008 C 0.56469 0.61302 0.25849 0.0
C1009 C 0.54803 0.63408 0.27383 0.0
C1010 C 0.55756 0.6628 0.26944 0.0
C1011 C 0.58217 0.67031 0.24924 0.0
H1012 H 0.80658 0.93172 0.62318 0.0
H1013 H 0.8281 0.97586 0.70407 0.0
H1014 H 0.76335 0.9652 0.61294 0.0
H1015 H 0.7846 1.0088 0.69433 0.0
H1016 H 0.73637 0.06128 0.5871 0.0
H1017 H 0.76598 0.01821 0.59896 0.0
H1018 H 0.72448 0.01542 0.68734 0.0
H1019 H 0.6942 0.05846 0.67533 0.0
C1020 C 0.80124 0.94779 0.63942 0.0
C1021 C 0.82056 0.95083 0.66469 0.0
C1022 C 0.7767 0.96725 0.63337 0.0
C1023 C 0.77043 0.98987 0.65275 0.0
C1024 C 0.7884 0.99158 0.67904 0.0
C1025 C 0.81335 0.97261 0.68468 0.0
C1026 C 0.73284 0.05117 0.60886 0.0
C1027 C 0.71296 0.06372 0.63026 0.0
C1028 C 0.74987 0.02633 0.61566 0.0
C1029 C 0.74801 1.0134 0.64426 0.0
C1030 C 0.72684 0.025 0.66522 0.0
C1031 C 0.70926 0.04962 0.65822 0.0
H1032 H 0.04947 0.53499 0.21197 0.0
H1033 H 0.15031 0.525 0.1966 0.0
H1034 H 0.05054 0.49905 0.25158 0.0
H1035 H 0.1516 0.48887 0.23727 0.0
H1036 H 0.12864 0.40238 0.29081 0.0
H1037 H 0.132 0.43898 0.25056 0.0
H1038 H 0.0696 0.4926 0.30106 0.0
H1039 H 0.06554 0.45645 0.3401 0.0
C1040 C 0.0721 0.52548 0.21748 0.0
C1041 C 0.09986 0.53319 0.2013 0.0
C1042 C 0.07273 0.50478 0.24031 0.0
C1043 C 0.10117 0.49098 0.24783 0.0
C1044 C 0.12923 0.49891 0.23196 0.0
C1045 C 0.12861 0.51994 0.20901 0.0
C1046 C 0.11545 0.4219 0.29306 0.0
C1047 C 0.09651 0.42618 0.31863 0.0
C1048 C 0.11766 0.44302 0.27018 0.0
C1049 C 0.1009 0.46877 0.2724 0.0
C1050 C 0.08238 0.47294 0.29816 0.0
C1051 C 0.08013 0.45205 0.32073 0.0
H1052 H 0.80458 0.87847 0.58455 0.0
H1053 H 0.84232 0.92686 0.50873 0.0
H1054 H 0.75455 0.87184 0.559 0.0
H1055 H 0.79126 0.92118 0.48344 0.0
H1056 H 0.70466 0.88138 0.43614 0.0
H1057 H 0.75638 0.88646 0.46005 0.0
H1058 H 0.70915 0.89896 0.54468 0.0
H1059 H 0.65762 0.89374 0.52086 0.0
C1060 C 0.80247 0.88749 0.56227 0.0
C1061 C 0.82786 0.90303 0.54865 0.0
C1062 C 0.77338 0.88404 0.54775 0.0
C1063 C 0.76864 0.89611 0.51919 0.0
C1064 C 0.7941 0.91137 0.50532 0.0
C1065 C 0.82331 0.91484 0.51991 0.0
C1066 C 0.70529 0.88533 0.45982 0.0
C1067 C 0.67683 0.88704 0.47653 0.0
C1068 C 0.735 0.88831 0.47354 0.0
C1069 C 0.73706 0.89308 0.50434 0.0
C1070 C 0.70858 0.89479 0.52102 0.0
C1071 C 0.67892 0.89176 0.50733 0.0
H1072 H 0.36057 0.59073 0.74202 0.0
H1073 H 0.34859 0.55867 0.83229 0.0
H1074 H 0.36494 0.54187 0.72459 0.0
H1075 H 0.35074 0.51004 0.81518 0.0
H1076 H 0.39336 0.42762 0.78147 0.0
H1077 H 0.38493 0.47595 0.79907 0.0
H1078 H 0.34165 0.49851 0.71464 0.0
H1079 H 0.35183 0.45063 0.69715 0.0
C1080 C 0.35832 0.57315 0.75801 0.0
C1081 C 0.35463 0.57852 0.78848 0.0
C1082 C 0.36062 0.54505 0.74811 0.0
C1083 C 0.35857 0.52161 0.76845 0.0
C1084 C 0.35349 0.52724 0.79882 0.0
C1085 C 0.35195 0.55524 0.80869 0.0
C1086 C 0.38169 0.44298 0.76705 0.0
C1087 C 0.37329 0.43563 0.73804 0.0
C1088 C 0.37669 0.47071 0.77702 0.0
C1089 C 0.36259 0.49157 0.75832 0.0
C1090 C 0.35315 0.48355 0.72959 0.0
C1091 C 0.35868 0.45603 0.71956 0.0
H1092 H 0.83052 0.10652 0.94125 0.0
H1093 H 0.88795 0.17442 0.97764 0.0
H1094 H 0.79641 0.10634 0.98577 0.0
H1095 H 0.85368 0.17474 0.02143 0.0
H1096 H 0.80191 0.16051 0.10636 0.0
H1097 H 0.83742 0.14965 0.06533 0.0
H1098 H 0.75623 0.13641 1.00834 0.0
H1099 H 0.72032 0.14621 0.05043 0.0
C1100 C 0.83625 0.12106 0.95893 0.0
C1101 C 0.86204 0.14053 0.95581 0.0
C1102 C 0.81643 0.12117 0.98431 0.0
C1103 C 0.82207 0.14062 1.0072 0.0
C1104 C 0.84872 0.15916 1.00454 0.0
C1105 C 0.86844 0.15906 0.97928 0.0
C1106 C 0.79156 0.15515 0.0851 0.0
C1107 C 0.75834 0.15481 0.08137 0.0
C1108 C 0.81197 0.14896 0.06152 0.0
C1109 C 0.79984 0.14281 0.03324 0.0
C1110 C 0.76645 0.14102 0.02983 0.0
C1111 C 0.74584 0.14677 0.05381 0.0
H1112 H 0.35423 0.16961 0.49073 0.0
H1113 H 0.26622 0.18315 0.44382 0.0
H1114 H 0.32474 0.16163 0.53717 0.0
H1115 H 0.23647 0.17546 0.49076 0.0
H1116 H 0.19409 0.17237 0.58563 0.0
H1117 H 0.2275 0.1928 0.54524 0.0
H1118 H 0.28847 0.11962 0.55092 0.0
H1119 H 0.25464 0.09874 0.5902 0.0
C1120 C 0.32857 0.17108 0.49033 0.0
C1121 C 0.31257 0.17631 0.46336 0.0
C1122 C 0.31169 0.16667 0.51703 0.0
C1123 C 0.2783 0.16758 0.51755 0.0
C1124 C 0.26226 0.17479 0.49105 0.0
C1125 C 0.27926 0.17912 0.46416 0.0
C1126 C 0.21486 0.16082 0.57856 0.0
C1127 C 0.2212 0.13352 0.59064 0.0
C1128 C 0.23393 0.17253 0.55538 0.0
C1129 C 0.26033 0.15764 0.54466 0.0
C1130 C 0.26829 0.13164 0.55868 0.0
C1131 C 0.24888 0.11966 0.58126 0.0
H1132 H 0.18711 0.03616 0.69561 0.0
H1133 H 0.11885 0.97608 0.66071 0.0
H1134 H 0.19741 1.00335 0.73743 0.0
H1135 H 0.12933 0.94313 0.70236 0.0
H1136 H 0.12924 0.90966 0.80039 0.0
H1137 H 0.1202 0.94054 0.75734 0.0
H1138 H 0.22147 0.9558 0.74789 0.0
H1139 H 0.2309 0.92431 0.79074 0.0
C1140 C 0.17429 0.01596 0.69687 0.0
C1141 C 0.15215 1.00879 0.67477 0.0
C1142 C 0.1804 0.99703 0.7207 0.0
C1143 C 0.16423 0.97056 0.72327 0.0
C1144 C 0.14207 0.9634 0.70118 0.0
C1145 C 0.13626 0.98218 0.67715 0.0
C1146 C 0.14982 0.91905 0.7891 0.0
C1147 C 0.18097 0.91417 0.79949 0.0
C1148 C 0.14451 0.93694 0.76426 0.0
C1149 C 0.17008 0.95075 0.74915 0.0
C1150 C 0.20119 0.9458 0.75925 0.0
C1151 C 0.20657 0.92767 0.78394 0.0
H1152 H 0.30504 0.95162 0.06627 0.0
H1153 H 0.25023 0.89103 0.12047 0.0
H1154 H 0.26614 0.94824 0.02699 0.0
H1155 H 0.21018 0.88848 0.08132 0.0
H1156 H 0.17874 0.85826 0.98786 0.0
H1157 H 0.20674 0.86772 0.03382 0.0
H1158 H 0.21519 0.95696 1.0082 0.0
H1159 H 0.18833 0.94715 0.96143 0.0
C1160 C 0.28423 0.93804 0.07012 0.0
C1161 C 0.281 0.92133 0.09642 0.0
C1162 C 0.26165 0.93627 0.04756 0.0
C1163 C 0.23497 0.91791 0.05072 0.0
C1164 C 0.23071 0.90245 0.07783 0.0
C1165 C 0.25353 0.90409 0.10042 0.0
C1166 C 0.18614 0.88001 0.99219 0.0
C1167 C 0.18169 0.90189 0.97073 0.0
C1168 C 0.20206 0.8855 0.01876 0.0
C1169 C 0.21365 0.91308 0.02475 0.0
C1170 C 0.20731 0.93532 1.00409 0.0
C1171 C 0.19172 0.92975 0.97732 0.0
H1172 H 0.42792 0.06908 0.35163 0.0
H1173 H 0.33392 0.0924 0.32235 0.0
H1174 H 0.42891 0.03127 0.31464 0.0
H1175 H 0.33509 0.05539 0.2854 0.0
H1176 H 0.33406 0.97413 0.23577 0.0
H1177 H 0.33435 1.0048 0.27855 0.0
H1178 H 0.4324 0.02854 0.25963 0.0
H1179 H 0.43264 0.99661 0.21728 0.0
C1180 C 0.40726 0.06577 0.33775 0.0
C1181 C 0.38081 0.08369 0.33994 0.0
C1182 C 0.40798 0.04438 0.31632 0.0
C1183 C 0.38215 0.04036 0.29692 0.0
C1184 C 0.35526 0.05759 0.30012 0.0
C1185 C 0.35463 0.07894 0.32129 0.0
C1186 C 0.35593 0.98544 0.24083 0.0
C1187 C 0.38332 0.98281 0.2228 0.0
C1188 C 0.35597 1.00331 0.26533 0.0
C1189 C 0.38333 0.0193 0.2725 0.0
C1190 C 0.41099 0.01634 0.25491 0.0
C1191 C 0.41097 0.99833 0.23033 0.0
H1192 H 0.64714 0.28649 0.13417 0.0
H1193 H 0.59517 0.21639 0.17667 0.0
H1194 H 0.59708 0.3114 0.12588 0.0
H1195 H 0.54508 0.24118 0.16824 0.0
H1196 H 0.46742 0.31233 0.17309 0.0
H1197 H 0.51588 0.28578 0.18355 0.0
H1198 H 0.54916 0.30273 0.09344 0.0
H1199 H 0.50058 0.32855 0.08267 0.0
C1200 C 0.62507 0.27658 0.14203 0.0
C1201 C 0.62509 0.24943 0.1559 0.0
C1202 C 0.59638 0.29068 0.13703 0.0
C1203 C 0.5671 0.27812 0.14615 0.0
C1204 C 0.56722 0.25142 0.16098 0.0
C1205 C 0.59588 0.23715 0.16562 0.0
C1206 C 0.48469 0.30993 0.15529 0.0
C1207 C 0.48009 0.3229 0.12706 0.0
C1208 C 0.51259 0.29484 0.16138 0.0
C1209 C 0.53658 0.2926 0.13947 0.0
C1210 C 0.53146 0.30465 0.111 0.0
C1211 C 0.50354 0.31943 0.10483 0.0
H1212 H 0.90526 0.2717 0.89868 0.0
H1213 H 0.96567 0.22159 0.84243 0.0
H1214 H 0.94983 0.30402 0.90807 0.0
H1215 H 1.01068 0.25398 0.85218 0.0
H1216 H 0.07089 0.34168 0.85631 0.0
H1217 H 0.03004 0.30586 0.84363 0.0
H1218 H 1.00045 0.30017 0.93606 0.0
H1219 H 0.04079 0.33555 0.9486 0.0
C1220 C 0.92795 0.26769 0.88805 0.0
C1221 C 0.93176 0.24391 0.86985 0.0
C1222 C 0.95368 0.2861 0.89369 0.0
C1223 C 0.984 0.28145 0.88115 0.0
C1224 C 0.98769 0.25819 0.8622 0.0
C1225 C 0.96194 0.23952 0.85679 0.0
C1226 C 0.05623 0.33215 0.87399 0.0
C1227 C 0.05909 0.34157 0.90347 0.0
C1228 C 0.03269 0.31177 0.86671 0.0
C1229 C 1.01151 0.30056 0.88875 0.0
C1230 C 0.01579 0.30882 0.91841 0.0
C1231 C 0.03918 0.32896 0.92563 0.0
H1232 H 0.99263 0.66245 0.10756 0.0
H1233 H 0.09318 0.67853 0.12035 0.0
H1234 H 0.9827 0.71346 0.11208 0.0
H1235 H 0.08314 0.72903 0.12544 0.0
H1236 H 0.04337 0.80743 0.17504 0.0
H1237 H 0.05676 0.7584 0.16334 0.0
H1238 H 0.9934 0.76155 0.08806 0.0
H1239 H 0.97994 0.81049 0.09986 0.0
C1240 C 1.01262 0.67677 0.11113 0.0
C1241 C 0.0436 0.6661 0.11423 0.0
C1242 C 1.00695 0.70604 0.11367 0.0
C1243 C 0.03211 0.72527 0.11949 0.0
C1244 C 0.06315 0.71473 0.12159 0.0
C1245 C 0.06884 0.68561 0.11886 0.0
C1246 C 0.03266 0.79777 0.15576 0.0
C1247 C 1.01048 0.81288 0.13854 0.0
C1248 C 0.04038 0.76971 0.14896 0.0
C1249 C 0.0259 0.75595 0.1249 0.0
C1250 C 1.00463 0.7714 0.10696 0.0
C1251 C 0.9972 0.79961 0.11356 0.0
H1252 H 0.47428 0.7005 0.31519 0.0
H1253 H 0.41509 0.77475 0.32022 0.0
H1254 H 0.52188 0.7308 0.31696 0.0
H1255 H 0.46281 0.80507 0.32184 0.0
H1256 H 0.55149 0.85699 0.32118 0.0
H1257 H 0.51158 0.82491 0.30036 0.0
H1258 H 0.54459 0.75656 0.35784 0.0
H1259 H 0.58453 0.78842 0.37832 0.0
C1260 C 0.47143 0.72335 0.31639 0.0
C1261 C 0.44087 0.73517 0.31838 0.0
C1262 C 0.49874 0.74072 0.31733 0.0
C1263 C 0.49615 0.77037 0.32019 0.0
C1264 C 0.46561 0.78237 0.31962 0.0
C1265 C 0.43823 0.76497 0.31872 0.0
C1266 C 0.55091 0.83488 0.32869 0.0
C1267 C 0.57095 0.82537 0.35177 0.0
C1268 C 0.5278 0.81655 0.31693 0.0
C1269 C 0.5245 0.78825 0.32772 0.0
C1270 C 0.54648 0.77814 0.34883 0.0
C1271 C 0.56939 0.79648 0.36071 0.0
H1272 H 0.09508 0.75125 0.69894 0.0
H1273 H 0.07525 0.71545 0.613 0.0
H1274 H 0.04906 0.78213 0.69363 0.0
H1275 H 0.02882 0.7454 0.6083 0.0
H1276 H 0.97579 0.82891 0.59113 0.0
H1277 H 0.017 0.79389 0.59871 0.0
H1278 H 0.99095 0.7862 0.69199 0.0
H1279 H 0.94944 0.82212 0.68424 0.0
C1280 C 0.08103 0.74979 0.67892 0.0
C1281 C 0.08951 0.7307 0.65633 0.0
C1282 C 0.05419 0.76736 0.67605 0.0
C1283 C 0.03494 0.76658 0.65045 0.0
C1284 C 0.0431 0.74711 0.62819 0.0
C1285 C 0.06982 0.72957 0.63104 0.0
C1286 C 0.97835 0.81945 0.61324 0.0
C1287 C 0.95896 0.82833 0.637 0.0
C1288 C 1.00211 0.79914 0.6176 0.0
C1289 C 1.00769 0.78694 0.64601 0.0
C1290 C 0.98771 0.79521 0.6698 0.0
C1291 C 0.96353 0.81553 0.66532 0.0
H1292 H 0.96573 0.31629 0.41413 0.0
H1293 H 0.05387 0.2701 0.41697 0.0
H1294 H 0.93596 0.27106 0.41368 0.0
H1295 H 0.0242 0.22505 0.41659 0.0
H1296 H 0.88848 0.18528 0.42788 0.0
H1297 H 0.92179 0.22592 0.4418 0.0
H1298 H 0.99297 0.20166 0.37737 0.0
H1299 H 0.95966 0.16139 0.36315 0.0
C1300 C 0.97871 0.29653 0.41527 0.0
C1301 C 1.01219 0.29684 0.41498 0.0
C1302 C 0.96166 0.2706 0.41516 0.0
C1303 C 0.97771 0.24446 0.41494 0.0
C1304 C 1.01113 0.2448 0.41625 0.0
C1305 C 0.02813 0.27065 0.41632 0.0
C1306 C 0.91157 0.18818 0.41716 0.0
C1307 C 0.9211 0.17033 0.39394 0.0
C1308 C 0.93054 0.21162 0.42503 0.0
C1309 C 0.9598 0.21728 0.41038 0.0
C1310 C 0.97059 0.19792 0.38914 0.0
C1311 C 0.95144 0.17478 0.38096 0.0
H1312 H 0.45198 0.70599 0.81107 0.0
H1313 H 0.4464 0.7059 0.90719 0.0
H1314 H 0.49526 0.74103 0.81178 0.0
H1315 H 0.49028 0.74148 0.90801 0.0
H1316 H 0.54318 0.83094 0.88854 0.0
H1317 H 0.50049 0.79427 0.89145 0.0
H1318 H 0.5512 0.74446 0.82715 0.0
H1319 H 0.59313 0.78061 0.82411 0.0
C1320 C 0.4605 0.71309 0.83246 0.0
C1321 C 0.4461 0.70281 0.85908 0.0
C1322 C 0.48531 0.73328 0.83287 0.0
C1323 C 0.49629 0.74421 0.85994 0.0
C1324 C 0.48224 0.73366 0.88677 0.0
C1325 C 0.45752 0.71295 0.88635 0.0
C1326 C 0.54494 0.81229 0.87484 0.0
C1327 C 0.57149 0.80891 0.85589 0.0
C1328 C 0.52072 0.79111 0.87679 0.0
C1329 C 0.5224 0.76636 0.85954 0.0
C1330 C 0.5489 0.76327 0.84057 0.0
C1331 C 0.57303 0.78411 0.83885 0.0
H1332 H 0.64092 0.947 0.75961 0.0
H1333 H 0.73006 0.94217 0.80649 0.0
H1334 H 0.65219 0.99695 0.7466 0.0
H1335 H 0.74177 0.99239 0.79276 0.0
H1336 H 0.75282 0.07606 0.7254 0.0
H1337 H 0.74887 0.02564 0.74153 0.0
H1338 H 0.65772 0.04138 0.78265 0.0
H1339 H 0.66179 0.09144 0.76714 0.0
C1340 C 0.66331 0.9564 0.7665 0.0
C1341 C 0.68475 0.94056 0.78388 0.0
C1342 C 0.66959 0.9851 0.75934 0.0
C1343 C 0.69769 0.99857 0.76893 0.0
C1344 C 0.7199 0.9825 0.78514 0.0
C1345 C 0.71325 0.95385 0.79293 0.0
C1346 C 0.73238 0.06882 0.73856 0.0
C1347 C 0.70769 0.0878 0.74504 0.0
C1348 C 0.73009 0.04003 0.7477 0.0
C1349 C 0.70272 0.02959 0.76282 0.0
C1350 C 0.67886 0.04883 0.77062 0.0
C1351 C 0.68142 0.07761 0.76206 0.0
H1352 H 0.18772 0.38546 0.98717 0.0
H1353 H 0.17561 0.47328 0.01096 0.0
H1354 H 0.2374 0.38402 0.01506 0.0
H1355 H 0.22525 0.47167 0.03958 0.0
H1356 H 0.29733 0.43519 0.11545 0.0
H1357 H 0.24848 0.44417 0.08705 0.0
H1358 H 0.29206 0.40833 1.0091 0.0
H1359 H 0.34058 0.39982 0.037 0.0
C1360 C 0.19568 0.40448 0.99835 0.0
C1361 C 0.17752 0.4294 0.99693 0.0
C1362 C 0.22418 0.40369 0.01434 0.0
C1363 C 0.2354 0.42778 0.02948 0.0
C1364 C 0.21721 0.45272 0.0283 0.0
C1365 C 0.18872 0.45359 0.01199 0.0
C1366 C 0.29683 0.43016 0.09199 0.0
C1367 C 0.32297 0.41681 0.07852 0.0
C1368 C 0.26874 0.43508 0.07577 0.0
C1369 C 0.26621 0.4265 0.04592 0.0
C1370 C 0.29301 0.41474 0.03215 0.0
C1371 C 0.32095 0.41006 0.04815 0.0
H1372 H 0.81702 0.0572 0.29044 0.0
H1373 H 0.9052 0.09233 0.25462 0.0
H1374 H 0.82872 1.01108 0.2678 0.0
H1375 H 0.91732 0.04632 0.23279 0.0
H1376 H 0.94747 0.95398 0.23495 0.0
H1377 H 0.92862 0.99661 0.25882 0.0
H1378 H 0.83967 0.98969 0.21197 0.0
H1379 H 0.85893 0.94681 0.18706 0.0
C1380 C 0.83882 0.05503 0.27764 0.0
C1381 C 0.86026 0.07831 0.27431 0.0
C1382 C 0.84542 0.02875 0.26462 0.0
C1383 C 0.87402 0.02505 0.24872 0.0
C1384 C 0.89519 0.04847 0.24513 0.0
C1385 C 0.88821 0.07486 0.25744 0.0
C1386 C 0.92362 0.96109 0.22997 0.0
C1387 C 0.90486 0.94699 0.20879 0.0
C1388 C 0.91293 0.98568 0.24361 0.0
C1389 C 0.88292 0.99675 0.23692 0.0
C1390 C 0.86295 0.98158 0.21753 0.0
C1391 C 0.8739 0.95695 0.20341 0.0
H1392 H 0.18421 0.63416 0.53979 0.0
H1393 H 0.26055 0.67955 0.58324 0.0
H1394 H 0.21615 0.63388 0.49369 0.0
H1395 H 0.29206 0.67929 0.53756 0.0
H1396 H 0.35263 0.64731 0.4593 0.0
H1397 H 0.3207 0.64566 0.50539 0.0
H1398 H 0.23713 0.66841 0.45527 0.0
H1399 H 0.2687 0.66999 0.40953 0.0
C1400 C 0.20765 0.64416 0.53951 0.0
C1401 C 0.21968 0.65695 0.56523 0.0
C1402 C 0.22595 0.64404 0.51312 0.0
C1403 C 0.25678 0.65645 0.512 0.0
C1404 C 0.26868 0.66918 0.53774 0.0
C1405 C 0.25037 0.66953 0.56391 0.0
C1406 C 0.32749 0.65204 0.45818 0.0
C1407 C 0.31335 0.65891 0.4307 0.0
C1408 C 0.30918 0.65113 0.48456 0.0
C1409 C 0.27628 0.65679 0.48399 0.0
C1410 C 0.26224 0.66355 0.45649 0.0
C1411 C 0.28052 0.66471 0.43026 0.0
H1412 H 0.80377 0.67783 0.07223 0.0
H1413 H 0.71454 0.65883 0.029 0.0
H1414 H 0.8309 0.67811 0.02374 0.0
H1415 H 0.74174 0.65855 0.98094 0.0
H1416 H 0.86688 0.69468 0.92867 0.0
H1417 H 0.83464 0.70333 0.97317 0.0
H1418 H 0.7811 0.62564 0.95837 0.0
H1419 H 0.81354 0.6168 0.91423 0.0
C1420 C 0.78983 0.67404 0.05248 0.0
C1421 C 0.75699 0.66777 0.05481 0.0
C1422 C 0.80539 0.67426 0.02464 0.0
C1423 C 0.7885 0.6681 0.99851 0.0
C1424 C 0.75552 0.6629 1.0007 0.0
C1425 C 0.73996 0.66289 0.0284 0.0
C1426 C 0.84777 0.67978 0.93452 0.0
C1427 C 0.84295 0.65493 0.91797 0.0
C1428 C 0.8295 0.68463 0.96018 0.0
C1429 C 0.80555 0.66502 0.96949 0.0
C1430 C 0.79928 0.64123 0.95176 0.0
C1431 C 0.81787 0.63616 0.92641 0.0
H1432 H 0.7372 0.47004 0.28554 0.0
H1433 H 0.6444 0.43738 0.26153 0.0
H1434 H 0.73599 0.50378 0.24376 0.0
H1435 H 0.64328 0.47101 0.2192 0.0
H1436 H 0.63784 0.56141 0.17386 0.0
H1437 H 0.63802 0.52107 0.2091 0.0
H1438 H 0.73828 0.50936 0.19107 0.0
H1439 H 0.73825 0.5503 0.15668 0.0
C1440 C 0.71676 0.46967 0.271 0.0
C1441 C 0.69089 0.45098 0.27699 0.0
C1442 C 0.71607 0.48903 0.24689 0.0
C1443 C 0.68956 0.49015 0.2279 0.0
C1444 C 0.6639 0.47105 0.23353 0.0
C1445 C 0.66454 0.45174 0.25781 0.0
C1446 C 0.65975 0.54982 0.17693 0.0
C1447 C 0.68811 0.55921 0.16267 0.0
C1448 C 0.65987 0.52663 0.19717 0.0
C1449 C 0.68831 0.51217 0.20339 0.0
C1450 C 0.71613 0.52042 0.18748 0.0
C1451 C 0.71607 0.54375 0.16752 0.0
H1452 H 0.78758 0.47142 0.5611 0.0
H1453 H 0.77445 0.38245 0.5854 0.0
H1454 H 0.74334 0.46827 0.52654 0.0
H1455 H 0.73076 0.37887 0.54991 0.0
H1456 H 0.64195 0.38296 0.49346 0.0
H1457 H 0.67813 0.39074 0.53489 0.0
H1458 H 0.73438 0.44905 0.47923 0.0
H1459 H 0.6978 0.4419 0.43827 0.0
C1460 C 0.77496 0.45121 0.5593 0.0
C1461 C 0.7846 0.42719 0.57602 0.0
C1462 C 0.74973 0.44931 0.5392 0.0
C1463 C 0.7336 0.42321 0.53488 0.0
C1464 C 0.74229 0.39944 0.55271 0.0
C1465 C 0.76739 0.40145 0.57314 0.0
C1466 C 0.66168 0.3979 0.49024 0.0
C1467 C 0.66682 0.41184 0.46242 0.0
C1468 C 0.68269 0.40213 0.51397 0.0
C1469 C 0.70946 0.42041 0.51058 0.0
C1470 C 0.71387 0.43512 0.48304 0.0
C1471 C 0.69285 0.43095 0.45937 0.0
H1472 H 0.9682 0.58564 0.7982 0.0
H1473 H 0.91179 0.52079 0.84479 0.0
H1474 H 0.96273 0.5598 0.7519 0.0
H1475 H 0.90683 0.49444 0.7984 0.0
H1476 H 0.86487 0.48464 0.70358 0.0
H1477 H 0.87702 0.5047 0.75173 0.0
H1478 H 0.97559 0.51566 0.72503 0.0
H1479 H 0.96363 0.49496 0.6768 0.0
C1480 C 0.95491 0.56565 0.79859 0.0
C1481 C 0.93994 0.55549 0.82505 0.0
C1482 C 0.95204 0.5507 0.7721 0.0
C1483 C 0.93399 0.52525 0.77136 0.0
C1484 C 0.92046 0.51425 0.79817 0.0
C1485 C 0.92353 0.52916 0.82479 0.0
C1486 C 0.88924 0.491 0.70793 0.0
C1487 C 0.91321 0.48808 0.68608 0.0
C1488 C 0.89622 0.50242 0.73569 0.0
C1489 C 0.92732 0.51156 0.74235 0.0
C1490 C 0.95133 0.50894 0.72052 0.0
C1491 C 0.9444 0.49725 0.69275 0.0
H1492 H 0.64435 0.25241 0.65156 0.0
H1493 H 0.57736 0.18167 0.65623 0.0
H1494 H 0.60071 0.28586 0.65184 0.0
H1495 H 0.53323 0.21548 0.65625 0.0
H1496 H 0.46663 0.28279 0.69461 0.0
H1497 H 0.50964 0.24944 0.68943 0.0
H1498 H 0.55584 0.30622 0.62489 0.0
H1499 H 0.51209 0.34019 0.63015 0.0
C1500 C 0.62023 0.24386 0.6525 0.0
C1501 C 0.61461 0.21408 0.65416 0.0
C1502 C 0.59505 0.26325 0.65238 0.0
C1503 C 0.56318 0.25368 0.65417 0.0
C1504 C 0.55742 0.22384 0.65522 0.0
C1505 C 0.58275 0.20433 0.65506 0.0
C1506 C 0.48587 0.28847 0.67924 0.0
C1507 C 0.48564 0.31456 0.6629 0.0
C1508 C 0.51057 0.26896 0.67607 0.0
C1509 C 0.53635 0.27469 0.65653 0.0
C1510 C 0.53652 0.30096 0.64031 0.0
C1511 C 0.51143 0.32056 0.64333 0.0
loop_
_geom_bond_atom_site_label_1
_geom_bond_atom_site_label_2
_geom_bond_distance
_geom_bond_site_symmetry_2
_ccdc_geom_bond_type
Cu0 N1 1.999 . S
Cu0 O6 1.974 . S
Cu0 N11 1.985 . S
Cu0 O20 1.959 . S
N1 Cu0 1.999 . S
N1 C3 1.263 . S
N1 C5 1.389 . S
N2 C3 1.358 . S
N2 C4 1.400 . S
C3 N1 1.263 . S
C3 N2 1.358 . S
C3 H9 0.930 . S
C4 N2 1.400 . S
C4 C5 1.351 . S
C4 H21 0.930 . S
C5 N1 1.389 . S
C5 C4 1.351 . S
C5 H10 0.930 . S
O6 Cu0 1.974 . S
O6 C16 1.282 . S
C7 O8 1.261 . S
C7 O20 1.251 . S
O8 C7 1.261 . S
H9 C3 0.930 . S
H10 C5 0.930 . S
N11 Cu0 1.985 . S
N11 C13 1.335 . S
N11 C14 1.390 . S
N12 C13 1.345 . S
N12 C15 1.336 . S
C13 N11 1.335 . S
C13 N12 1.345 . S
C13 H18 0.930 . S
C14 N11 1.390 . S
C14 C15 1.346 . S
C14 H19 0.930 . S
C15 N12 1.336 . S
C15 C14 1.346 . S
C15 H22 0.929 . S
C16 O6 1.282 . S
C16 O17 1.216 . S
O17 C16 1.216 . S
H18 C13 0.930 . S
H19 C14 0.930 . S
O20 Cu0 1.959 . S
O20 C7 1.251 . S
H21 C4 0.930 . S
H22 C15 0.929 . S
Cu23 N24 1.999 . S
Cu23 O29 1.974 . S
Cu23 N34 1.985 . S
Cu23 O43 1.959 . S
N24 Cu23 1.999 . S
N24 C26 1.263 . S
N24 C28 1.389 . S
N25 C26 1.358 . S
N25 C27 1.400 . S
C26 N24 1.263 . S
C26 N25 1.358 . S
C26 H32 0.930 . S
C27 N25 1.400 . S
C27 C28 1.351 . S
C27 H44 0.930 . S
C28 N24 1.389 . S
C28 C27 1.351 . S
C28 H33 0.930 . S
O29 Cu23 1.974 . S
O29 C39 1.282 . S
C30 O31 1.261 . S
C30 O43 1.251 . S
O31 C30 1.261 . S
H32 C26 0.930 . S
H33 C28 0.930 . S
N34 Cu23 1.985 . S
N34 C36 1.335 . S
N34 C37 1.390 . S
N35 C36 1.345 . S
N35 C38 1.336 . S
C36 N34 1.335 . S
C36 N35 1.345 . S
C36 H41 0.930 . S
C37 N34 1.390 . S
C37 C38 1.346 . S
C37 H42 0.930 . S
C38 N35 1.336 . S
C38 C37 1.346 . S
C38 H45 0.929 . S
C39 O29 1.282 . S
C39 O40 1.216 . S
O40 C39 1.216 . S
H41 C36 0.930 . S
H42 C37 0.930 . S
O43 Cu23 1.959 . S
O43 C30 1.251 . S
H44 C27 0.930 . S
H45 C38 0.929 . S
Cu46 N47 1.999 . S
Cu46 O52 1.974 . S
Cu46 N57 1.985 . S
Cu46 O66 1.959 . S
N47 Cu46 1.999 . S
N47 C49 1.263 . S
N47 C51 1.389 . S
N48 C49 1.358 . S
N48 C50 1.400 . S
C49 N47 1.263 . S
C49 N48 1.358 . S
C49 H55 0.930 . S
C50 N48 1.400 . S
C50 C51 1.351 . S
C50 H67 0.930 . S
C51 N47 1.389 . S
C51 C50 1.351 . S
C51 H56 0.930 . S
O52 Cu46 1.974 . S
O52 C62 1.282 . S
C53 O54 1.261 . S
C53 O66 1.251 . S
O54 C53 1.261 . S
H55 C49 0.930 . S
H56 C51 0.930 . S
N57 Cu46 1.985 . S
N57 C59 1.335 . S
N57 C60 1.390 . S
N58 C59 1.345 . S
N58 C61 1.336 . S
C59 N57 1.335 . S
C59 N58 1.345 . S
C59 H64 0.930 . S
C60 N57 1.390 . S
C60 C61 1.346 . S
C60 H65 0.930 . S
C61 N58 1.336 . S
C61 C60 1.346 . S
C61 H68 0.929 . S
C62 O52 1.282 . S
C62 O63 1.216 . S
O63 C62 1.216 . S
H64 C59 0.930 . S
H65 C60 0.930 . S
O66 Cu46 1.959 . S
O66 C53 1.251 . S
H67 C50 0.930 . S
H68 C61 0.929 . S
Cu69 N70 1.999 . S
Cu69 O75 1.974 . S
Cu69 N80 1.985 . S
Cu69 O89 1.959 . S
N70 Cu69 1.999 . S
N70 C72 1.263 . S
N70 C74 1.389 . S
N71 C72 1.358 . S
N71 C73 1.400 . S
C72 N70 1.263 . S
C72 N71 1.358 . S
C72 H78 0.930 . S
C73 N71 1.400 . S
C73 C74 1.351 . S
C73 H90 0.930 . S
C74 N70 1.389 . S
C74 C73 1.351 . S
C74 H79 0.930 . S
O75 Cu69 1.974 . S
O75 C85 1.282 . S
C76 O77 1.261 . S
C76 O89 1.251 . S
O77 C76 1.261 . S
H78 C72 0.930 . S
H79 C74 0.930 . S
N80 Cu69 1.985 . S
N80 C82 1.335 . S
N80 C83 1.390 . S
N81 C82 1.345 . S
N81 C84 1.336 . S
C82 N80 1.335 . S
C82 N81 1.345 . S
C82 H87 0.930 . S
C83 N80 1.390 . S
C83 C84 1.346 . S
C83 H88 0.930 . S
C84 N81 1.336 . S
C84 C83 1.346 . S
C84 H91 0.929 . S
C85 O75 1.282 . S
C85 O86 1.216 . S
O86 C85 1.216 . S
H87 C82 0.930 . S
H88 C83 0.930 . S
O89 Cu69 1.959 . S
O89 C76 1.251 . S
H90 C73 0.930 . S
H91 C84 0.929 . S
Cu92 N93 1.999 . S
Cu92 O98 1.974 . S
Cu92 N103 1.985 . S
Cu92 O112 1.959 . S
N93 Cu92 1.999 . S
N93 C95 1.263 . S
N93 C97 1.389 . S
N94 C95 1.358 . S
N94 C96 1.400 . S
C95 N93 1.263 . S
C95 N94 1.358 . S
C95 H101 0.930 . S
C96 N94 1.400 . S
C96 C97 1.351 . S
C96 H113 0.930 . S
C97 N93 1.389 . S
C97 C96 1.351 . S
C97 H102 0.930 . S
O98 Cu92 1.974 . S
O98 C108 1.282 . S
C99 O100 1.261 . S
C99 O112 1.251 . S
O100 C99 1.261 . S
H101 C95 0.930 . S
H102 C97 0.930 . S
N103 Cu92 1.985 . S
N103 C105 1.335 . S
N103 C106 1.390 . S
N104 C105 1.345 . S
N104 C107 1.336 . S
C105 N103 1.335 . S
C105 N104 1.345 . S
C105 H110 0.930 . S
C106 N103 1.390 . S
C106 C107 1.346 . S
C106 H111 0.930 . S
C107 N104 1.336 . S
C107 C106 1.346 . S
C107 H114 0.929 1_455 S
C108 O98 1.282 . S
C108 O109 1.216 . S
O109 C108 1.216 . S
H110 C105 0.930 . S
H111 C106 0.930 . S
O112 Cu92 1.959 . S
O112 C99 1.251 . S
H113 C96 0.930 . S
H114 C107 0.929 1_655 S
Cu115 N116 1.999 . S
Cu115 O121 1.974 . S
Cu115 N126 1.985 . S
Cu115 O135 1.959 . S
N116 Cu115 1.999 . S
N116 C118 1.263 . S
N116 C120 1.389 . S
N117 C118 1.358 . S
N117 C119 1.400 . S
C118 N116 1.263 . S
C118 N117 1.358 . S
C118 H124 0.930 . S
C119 N117 1.400 . S
C119 C120 1.351 . S
C119 H136 0.930 . S
C120 N116 1.389 . S
C120 C119 1.351 . S
C120 H125 0.930 . S
O121 Cu115 1.974 . S
O121 C131 1.282 . S
C122 O123 1.261 . S
C122 O135 1.251 . S
O123 C122 1.261 . S
H124 C118 0.930 . S
H125 C120 0.930 . S
N126 Cu115 1.985 . S
N126 C128 1.335 . S
N126 C129 1.390 . S
N127 C128 1.345 . S
N127 C130 1.336 . S
C128 N126 1.335 . S
C128 N127 1.345 . S
C128 H133 0.930 . S
C129 N126 1.390 . S
C129 C130 1.346 . S
C129 H134 0.930 . S
C130 N127 1.336 . S
C130 C129 1.346 . S
C130 H137 0.929 . S
C131 O121 1.282 . S
C131 O132 1.216 . S
O132 C131 1.216 . S
H133 C128 0.930 . S
H134 C129 0.930 . S
O135 Cu115 1.959 . S
O135 C122 1.251 . S
H136 C119 0.930 . S
H137 C130 0.929 . S
Cu138 N139 1.999 . S
Cu138 O144 1.974 . S
Cu138 N149 1.985 . S
Cu138 O158 1.959 . S
N139 Cu138 1.999 . S
N139 C141 1.263 . S
N139 C143 1.389 . S
N140 C141 1.358 . S
N140 C142 1.400 . S
C141 N139 1.263 . S
C141 N140 1.358 . S
C141 H147 0.930 . S
C142 N140 1.400 . S
C142 C143 1.351 . S
C142 H159 0.930 . S
C143 N139 1.389 . S
C143 C142 1.351 . S
C143 H148 0.930 . S
O144 Cu138 1.974 . S
O144 C154 1.282 . S
C145 O146 1.261 . S
C145 O158 1.251 . S
O146 C145 1.261 . S
H147 C141 0.930 . S
H148 C143 0.930 . S
N149 Cu138 1.985 . S
N149 C151 1.335 . S
N149 C152 1.390 . S
N150 C151 1.345 . S
N150 C153 1.336 . S
C151 N149 1.335 . S
C151 N150 1.345 . S
C151 H156 0.930 . S
C152 N149 1.390 . S
C152 C153 1.346 . S
C152 H157 0.930 . S
C153 N150 1.336 . S
C153 C152 1.346 . S
C153 H160 0.929 . S
C154 O144 1.282 . S
C154 O155 1.216 . S
O155 C154 1.216 . S
H156 C151 0.930 . S
H157 C152 0.930 . S
O158 Cu138 1.959 . S
O158 C145 1.251 . S
H159 C142 0.930 . S
H160 C153 0.929 . S
Cu161 N162 1.999 . S
Cu161 O167 1.974 . S
Cu161 N172 1.985 . S
Cu161 O181 1.959 . S
N162 Cu161 1.999 . S
N162 C164 1.263 . S
N162 C166 1.389 . S
N163 C164 1.358 . S
N163 C165 1.400 . S
C164 N162 1.263 . S
C164 N163 1.358 . S
C164 H170 0.930 . S
C165 N163 1.400 . S
C165 C166 1.351 . S
C165 H182 0.930 . S
C166 N162 1.389 . S
C166 C165 1.351 . S
C166 H171 0.930 . S
O167 Cu161 1.974 . S
O167 C177 1.282 . S
C168 O169 1.261 . S
C168 O181 1.251 . S
O169 C168 1.261 . S
H170 C164 0.930 . S
H171 C166 0.930 . S
N172 Cu161 1.985 . S
N172 C174 1.335 . S
N172 C175 1.390 . S
N173 C174 1.345 . S
N173 C176 1.336 . S
C174 N172 1.335 . S
C174 N173 1.345 . S
C174 H179 0.930 . S
C175 N172 1.390 . S
C175 C176 1.346 . S
C175 H180 0.930 . S
C176 N173 1.336 . S
C176 C175 1.346 . S
C176 H183 0.929 . S
C177 O167 1.282 . S
C177 O178 1.216 . S
O178 C177 1.216 . S
H179 C174 0.930 . S
H180 C175 0.930 . S
O181 Cu161 1.959 . S
O181 C168 1.251 . S
H182 C165 0.930 . S
H183 C176 0.929 . S
Cu184 N185 1.999 . S
Cu184 O190 1.974 . S
Cu184 N195 1.985 . S
Cu184 O204 1.959 . S
N185 Cu184 1.999 . S
N185 C187 1.263 . S
N185 C189 1.389 . S
N186 C187 1.358 . S
N186 C188 1.400 . S
C187 N185 1.263 . S
C187 N186 1.358 . S
C187 H193 0.930 . S
C188 N186 1.400 . S
C188 C189 1.351 . S
C188 H205 0.930 . S
C189 N185 1.389 . S
C189 C188 1.351 . S
C189 H194 0.930 . S
O190 Cu184 1.974 . S
O190 C200 1.282 . S
C191 O192 1.261 . S
C191 O204 1.251 . S
O192 C191 1.261 . S
H193 C187 0.930 . S
H194 C189 0.930 . S
N195 Cu184 1.985 . S
N195 C197 1.335 . S
N195 C198 1.390 . S
N196 C197 1.345 . S
N196 C199 1.336 . S
C197 N195 1.335 . S
C197 N196 1.345 . S
C197 H202 0.930 . S
C198 N195 1.390 . S
C198 C199 1.346 . S
C198 H203 0.930 . S
C199 N196 1.336 . S
C199 C198 1.346 . S
C199 H206 0.929 . S
C200 O190 1.282 . S
C200 O201 1.216 . S
O201 C200 1.216 . S
H202 C197 0.930 . S
H203 C198 0.930 . S
O204 Cu184 1.959 . S
O204 C191 1.251 . S
H205 C188 0.930 . S
H206 C199 0.929 . S
Cu207 N208 1.999 . S
Cu207 O213 1.974 . S
Cu207 N218 1.985 . S
Cu207 O227 1.959 . S
N208 Cu207 1.999 . S
N208 C210 1.263 . S
N208 C212 1.389 . S
N209 C210 1.358 . S
N209 C211 1.400 . S
C210 N208 1.263 . S
C210 N209 1.358 . S
C210 H216 0.930 . S
C211 N209 1.400 . S
C211 C212 1.351 . S
C211 H228 0.930 . S
C212 N208 1.389 . S
C212 C211 1.351 . S
C212 H217 0.930 . S
O213 Cu207 1.974 . S
O213 C223 1.282 . S
C214 O215 1.261 . S
C214 O227 1.251 . S
O215 C214 1.261 . S
H216 C210 0.930 . S
H217 C212 0.930 . S
N218 Cu207 1.985 . S
N218 C220 1.335 . S
N218 C221 1.390 . S
N219 C220 1.345 . S
N219 C222 1.336 . S
C220 N218 1.335 . S
C220 N219 1.345 . S
C220 H225 0.930 . S
C221 N218 1.390 . S
C221 C222 1.346 . S
C221 H226 0.930 . S
C222 N219 1.336 . S
C222 C221 1.346 . S
C222 H229 0.929 . S
C223 O213 1.282 . S
C223 O224 1.216 . S
O224 C223 1.216 . S
H225 C220 0.930 . S
H226 C221 0.930 . S
O227 Cu207 1.959 . S
O227 C214 1.251 . S
H228 C211 0.930 . S
H229 C222 0.929 . S
Cu230 N231 1.999 . S
Cu230 O236 1.974 . S
Cu230 N241 1.985 . S
Cu230 O250 1.959 . S
N231 Cu230 1.999 . S
N231 C233 1.263 . S
N231 C235 1.389 . S
N232 C233 1.358 . S
N232 C234 1.400 . S
C233 N231 1.263 . S
C233 N232 1.358 . S
C233 H239 0.930 . S
C234 N232 1.400 . S
C234 C235 1.351 . S
C234 H251 0.930 . S
C235 N231 1.389 . S
C235 C234 1.351 . S
C235 H240 0.930 . S
O236 Cu230 1.974 . S
O236 C246 1.282 . S
C237 O238 1.261 . S
C237 O250 1.251 . S
O238 C237 1.261 . S
H239 C233 0.930 . S
H240 C235 0.930 . S
N241 Cu230 1.985 . S
N241 C243 1.335 . S
N241 C244 1.390 . S
N242 C243 1.345 . S
N242 C245 1.336 . S
C243 N241 1.335 . S
C243 N242 1.345 . S
C243 H248 0.930 . S
C244 N241 1.390 . S
C244 C245 1.346 . S
C244 H249 0.930 . S
C245 N242 1.336 . S
C245 C244 1.346 . S
C245 H252 0.929 . S
C246 O236 1.282 . S
C246 O247 1.216 . S
O247 C246 1.216 . S
H248 C243 0.930 . S
H249 C244 0.930 . S
O250 Cu230 1.959 . S
O250 C237 1.251 . S
H251 C234 0.930 . S
H252 C245 0.929 . S
Cu253 N254 1.999 . S
Cu253 O259 1.974 . S
Cu253 N264 1.985 . S
Cu253 O273 1.959 . S
N254 Cu253 1.999 . S
N254 C256 1.263 . S
N254 C258 1.389 . S
N255 C256 1.358 . S
N255 C257 1.400 . S
C256 N254 1.263 . S
C256 N255 1.358 . S
C256 H262 0.930 . S
C257 N255 1.400 . S
C257 C258 1.351 . S
C257 H274 0.930 . S
C258 N254 1.389 . S
C258 C257 1.351 . S
C258 H263 0.930 . S
O259 Cu253 1.974 . S
O259 C269 1.282 . S
C260 O261 1.261 . S
C260 O273 1.251 . S
O261 C260 1.261 . S
H262 C256 0.930 . S
H263 C258 0.930 . S
N264 Cu253 1.985 . S
N264 C266 1.335 . S
N264 C267 1.390 . S
N265 C266 1.345 . S
N265 C268 1.336 . S
C266 N264 1.335 . S
C266 N265 1.345 . S
C266 H271 0.930 . S
C267 N264 1.390 . S
C267 C268 1.346 . S
C267 H272 0.930 . S
C268 N265 1.336 . S
C268 C267 1.346 . S
C268 H275 0.929 . S
C269 O259 1.282 . S
C269 O270 1.216 . S
O270 C269 1.216 . S
H271 C266 0.930 . S
H272 C267 0.930 . S
O273 Cu253 1.959 . S
O273 C260 1.251 . S
H274 C257 0.930 . S
H275 C268 0.929 . S
Cu276 N277 1.999 . S
Cu276 O282 1.974 . S
Cu276 N287 1.985 . S
Cu276 O296 1.959 . S
N277 Cu276 1.999 . S
N277 C279 1.263 . S
N277 C281 1.389 . S
N278 C279 1.358 . S
N278 C280 1.400 . S
C279 N277 1.263 . S
C279 N278 1.358 . S
C279 H285 0.930 . S
C280 N278 1.400 . S
C280 C281 1.351 . S
C280 H297 0.930 . S
C281 N277 1.389 . S
C281 C280 1.351 . S
C281 H286 0.930 . S
O282 Cu276 1.974 . S
O282 C292 1.282 . S
C283 O284 1.261 . S
C283 O296 1.251 . S
O284 C283 1.261 . S
H285 C279 0.930 . S
H286 C281 0.930 . S
N287 Cu276 1.985 . S
N287 C289 1.335 . S
N287 C290 1.390 . S
N288 C289 1.345 . S
N288 C291 1.336 . S
C289 N287 1.335 . S
C289 N288 1.345 . S
C289 H294 0.930 . S
C290 N287 1.390 . S
C290 C291 1.346 . S
C290 H295 0.930 . S
C291 N288 1.336 . S
C291 C290 1.346 . S
C291 H298 0.929 . S
C292 O282 1.282 . S
C292 O293 1.216 . S
O293 C292 1.216 . S
H294 C289 0.930 . S
H295 C290 0.930 . S
O296 Cu276 1.959 . S
O296 C283 1.251 . S
H297 C280 0.930 . S
H298 C291 0.929 . S
Cu299 N300 1.999 . S
Cu299 O305 1.974 . S
Cu299 N310 1.985 . S
Cu299 O319 1.959 . S
N300 Cu299 1.999 . S
N300 C302 1.263 . S
N300 C304 1.389 . S
N301 C302 1.358 . S
N301 C303 1.400 . S
C302 N300 1.263 . S
C302 N301 1.358 . S
C302 H308 0.930 . S
C303 N301 1.400 . S
C303 C304 1.351 . S
C303 H320 0.930 . S
C304 N300 1.389 . S
C304 C303 1.351 . S
C304 H309 0.930 . S
O305 Cu299 1.974 . S
O305 C315 1.282 . S
C306 O307 1.261 . S
C306 O319 1.251 . S
O307 C306 1.261 . S
H308 C302 0.930 . S
H309 C304 0.930 . S
N310 Cu299 1.985 . S
N310 C312 1.335 . S
N310 C313 1.390 . S
N311 C312 1.345 . S
N311 C314 1.336 . S
C312 N310 1.335 . S
C312 N311 1.345 . S
C312 H317 0.930 . S
C313 N310 1.390 . S
C313 C314 1.346 . S
C313 H318 0.930 . S
C314 N311 1.336 . S
C314 C313 1.346 . S
C314 H321 0.929 . S
C315 O305 1.282 . S
C315 O316 1.216 . S
O316 C315 1.216 . S
H317 C312 0.930 . S
H318 C313 0.930 . S
O319 Cu299 1.959 . S
O319 C306 1.251 . S
H320 C303 0.930 . S
H321 C314 0.929 . S
Cu322 N323 1.999 . S
Cu322 O328 1.974 . S
Cu322 N333 1.985 . S
Cu322 O342 1.959 . S
N323 Cu322 1.999 . S
N323 C325 1.263 . S
N323 C327 1.389 . S
N324 C325 1.358 . S
N324 C326 1.400 . S
C325 N323 1.263 . S
C325 N324 1.358 . S
C325 H331 0.930 . S
C326 N324 1.400 . S
C326 C327 1.351 . S
C326 H343 0.930 . S
C327 N323 1.389 . S
C327 C326 1.351 . S
C327 H332 0.930 . S
O328 Cu322 1.974 . S
O328 C338 1.282 . S
C329 O330 1.261 . S
C329 O342 1.251 . S
O330 C329 1.261 . S
H331 C325 0.930 . S
H332 C327 0.930 . S
N333 Cu322 1.985 . S
N333 C335 1.335 . S
N333 C336 1.390 . S
N334 C335 1.345 . S
N334 C337 1.336 . S
C335 N333 1.335 . S
C335 N334 1.345 . S
C335 H340 0.930 . S
C336 N333 1.390 . S
C336 C337 1.346 . S
C336 H341 0.930 . S
C337 N334 1.336 . S
C337 C336 1.346 . S
C337 H344 0.929 . S
C338 O328 1.282 . S
C338 O339 1.216 . S
O339 C338 1.216 . S
H340 C335 0.930 . S
H341 C336 0.930 . S
O342 Cu322 1.959 . S
O342 C329 1.251 . S
H343 C326 0.930 . S
H344 C337 0.929 . S
Cu345 N346 1.999 . S
Cu345 O351 1.974 . S
Cu345 N356 1.985 . S
Cu345 O365 1.959 . S
N346 Cu345 1.999 . S
N346 C348 1.263 . S
N346 C350 1.389 . S
N347 C348 1.358 . S
N347 C349 1.400 . S
C348 N346 1.263 . S
C348 N347 1.358 . S
C348 H354 0.930 . S
C349 N347 1.400 . S
C349 C350 1.351 . S
C349 H366 0.930 . S
C350 N346 1.389 . S
C350 C349 1.351 . S
C350 H355 0.930 . S
O351 Cu345 1.974 . S
O351 C361 1.282 . S
C352 O353 1.261 . S
C352 O365 1.251 . S
O353 C352 1.261 . S
H354 C348 0.930 . S
H355 C350 0.930 . S
N356 Cu345 1.985 . S
N356 C358 1.335 . S
N356 C359 1.390 . S
N357 C358 1.345 . S
N357 C360 1.336 . S
C358 N356 1.335 . S
C358 N357 1.345 . S
C358 H363 0.930 . S
C359 N356 1.390 . S
C359 C360 1.346 . S
C359 H364 0.930 . S
C360 N357 1.336 . S
C360 C359 1.346 . S
C360 H367 0.929 . S
C361 O351 1.282 . S
C361 O362 1.216 . S
O362 C361 1.216 . S
H363 C358 0.930 . S
H364 C359 0.930 . S
O365 Cu345 1.959 . S
O365 C352 1.251 . S
H366 C349 0.930 . S
H367 C360 0.929 . S
Cu368 N369 1.999 . S
Cu368 O374 1.974 . S
Cu368 N379 1.985 . S
Cu368 O388 1.959 . S
N369 Cu368 1.999 . S
N369 C371 1.263 . S
N369 C373 1.389 . S
N370 C371 1.358 . S
N370 C372 1.400 . S
C371 N369 1.263 . S
C371 N370 1.358 . S
C371 H377 0.930 . S
C372 N370 1.400 . S
C372 C373 1.351 . S
C372 H389 0.930 . S
C373 N369 1.389 . S
C373 C372 1.351 . S
C373 H378 0.930 . S
O374 Cu368 1.974 . S
O374 C384 1.282 . S
C375 O376 1.261 . S
C375 O388 1.251 . S
O376 C375 1.261 . S
H377 C371 0.930 . S
H378 C373 0.930 . S
N379 Cu368 1.985 . S
N379 C381 1.335 . S
N379 C382 1.390 . S
N380 C381 1.345 . S
N380 C383 1.336 . S
C381 N379 1.335 . S
C381 N380 1.345 . S
C381 H386 0.930 . S
C382 N379 1.390 . S
C382 C383 1.346 . S
C382 H387 0.930 . S
C383 N380 1.336 . S
C383 C382 1.346 . S
C383 H390 0.929 . S
C384 O374 1.282 . S
C384 O385 1.216 . S
O385 C384 1.216 . S
H386 C381 0.930 . S
H387 C382 0.930 . S
O388 Cu368 1.959 . S
O388 C375 1.251 . S
H389 C372 0.930 . S
H390 C383 0.929 . S
Cu391 N392 1.999 . S
Cu391 O397 1.974 . S
Cu391 N402 1.985 . S
Cu391 O411 1.959 . S
N392 Cu391 1.999 . S
N392 C394 1.263 . S
N392 C396 1.389 . S
N393 C394 1.358 . S
N393 C395 1.400 . S
C394 N392 1.263 . S
C394 N393 1.358 . S
C394 H400 0.930 . S
C395 N393 1.400 . S
C395 C396 1.351 . S
C395 H412 0.930 . S
C396 N392 1.389 . S
C396 C395 1.351 . S
C396 H401 0.930 . S
O397 Cu391 1.974 . S
O397 C407 1.282 . S
C398 O399 1.261 . S
C398 O411 1.251 . S
O399 C398 1.261 . S
H400 C394 0.930 . S
H401 C396 0.930 . S
N402 Cu391 1.985 . S
N402 C404 1.335 . S
N402 C405 1.390 . S
N403 C404 1.345 . S
N403 C406 1.336 . S
C404 N402 1.335 . S
C404 N403 1.345 . S
C404 H409 0.930 . S
C405 N402 1.390 . S
C405 C406 1.346 . S
C405 H410 0.930 . S
C406 N403 1.336 . S
C406 C405 1.346 . S
C406 H413 0.929 . S
C407 O397 1.282 . S
C407 O408 1.216 . S
O408 C407 1.216 . S
H409 C404 0.930 . S
H410 C405 0.930 . S
O411 Cu391 1.959 . S
O411 C398 1.251 . S
H412 C395 0.930 . S
H413 C406 0.929 . S
Cu414 N415 1.999 . S
Cu414 O420 1.974 . S
Cu414 N425 1.985 . S
Cu414 O434 1.959 . S
N415 Cu414 1.999 . S
N415 C417 1.263 . S
N415 C419 1.389 . S
N416 C417 1.358 . S
N416 C418 1.400 . S
C417 N415 1.263 . S
C417 N416 1.358 . S
C417 H423 0.930 . S
C418 N416 1.400 . S
C418 C419 1.351 . S
C418 H435 0.930 . S
C419 N415 1.389 . S
C419 C418 1.351 . S
C419 H424 0.930 . S
O420 Cu414 1.974 . S
O420 C430 1.282 . S
C421 O422 1.261 . S
C421 O434 1.251 . S
O422 C421 1.261 . S
H423 C417 0.930 . S
H424 C419 0.930 . S
N425 Cu414 1.985 . S
N425 C427 1.335 . S
N425 C428 1.390 . S
N426 C427 1.345 . S
N426 C429 1.336 . S
C427 N425 1.335 . S
C427 N426 1.345 . S
C427 H432 0.930 . S
C428 N425 1.390 . S
C428 C429 1.346 . S
C428 H433 0.930 . S
C429 N426 1.336 . S
C429 C428 1.346 . S
C429 H436 0.929 . S
C430 O420 1.282 . S
C430 O431 1.216 . S
O431 C430 1.216 . S
H432 C427 0.930 . S
H433 C428 0.930 . S
O434 Cu414 1.959 . S
O434 C421 1.251 . S
H435 C418 0.930 . S
H436 C429 0.929 . S
Cu437 N438 1.999 . S
Cu437 O443 1.974 . S
Cu437 N448 1.985 . S
Cu437 O457 1.959 . S
N438 Cu437 1.999 . S
N438 C440 1.263 . S
N438 C442 1.389 . S
N439 C440 1.358 . S
N439 C441 1.400 . S
C440 N438 1.263 . S
C440 N439 1.358 . S
C440 H446 0.930 . S
C441 N439 1.400 . S
C441 C442 1.351 . S
C441 H458 0.930 . S
C442 N438 1.389 . S
C442 C441 1.351 . S
C442 H447 0.930 . S
O443 Cu437 1.974 . S
O443 C453 1.282 . S
C444 O445 1.261 . S
C444 O457 1.251 . S
O445 C444 1.261 . S
H446 C440 0.930 . S
H447 C442 0.930 . S
N448 Cu437 1.985 . S
N448 C450 1.335 . S
N448 C451 1.390 . S
N449 C450 1.345 . S
N449 C452 1.336 . S
C450 N448 1.335 . S
C450 N449 1.345 . S
C450 H455 0.930 . S
C451 N448 1.390 . S
C451 C452 1.346 . S
C451 H456 0.930 . S
C452 N449 1.336 . S
C452 C451 1.346 . S
C452 H459 0.929 . S
C453 O443 1.282 . S
C453 O454 1.216 . S
O454 C453 1.216 . S
H455 C450 0.930 . S
H456 C451 0.930 . S
O457 Cu437 1.959 . S
O457 C444 1.251 . S
H458 C441 0.930 . S
H459 C452 0.929 . S
Cu460 N461 1.999 . S
Cu460 O466 1.974 . S
Cu460 N471 1.985 . S
Cu460 O480 1.959 . S
N461 Cu460 1.999 . S
N461 C463 1.263 . S
N461 C465 1.389 . S
N462 C463 1.358 . S
N462 C464 1.400 . S
C463 N461 1.263 . S
C463 N462 1.358 . S
C463 H469 0.930 . S
C464 N462 1.400 . S
C464 C465 1.351 . S
C464 H481 0.930 . S
C465 N461 1.389 . S
C465 C464 1.351 . S
C465 H470 0.930 . S
O466 Cu460 1.974 . S
O466 C476 1.282 . S
C467 O468 1.261 . S
C467 O480 1.251 . S
O468 C467 1.261 . S
H469 C463 0.930 . S
H470 C465 0.930 . S
N471 Cu460 1.985 . S
N471 C473 1.335 . S
N471 C474 1.390 . S
N472 C473 1.345 . S
N472 C475 1.336 . S
C473 N471 1.335 . S
C473 N472 1.345 . S
C473 H478 0.930 . S
C474 N471 1.390 . S
C474 C475 1.346 . S
C474 H479 0.930 . S
C475 N472 1.336 . S
C475 C474 1.346 . S
C475 H482 0.929 . S
C476 O466 1.282 . S
C476 O477 1.216 . S
O477 C476 1.216 . S
H478 C473 0.930 . S
H479 C474 0.930 . S
O480 Cu460 1.959 . S
O480 C467 1.251 . S
H481 C464 0.930 . S
H482 C475 0.929 . S
Cu483 N484 1.999 . S
Cu483 O489 1.974 . S
Cu483 N494 1.985 . S
Cu483 O503 1.959 . S
N484 Cu483 1.999 . S
N484 C486 1.263 . S
N484 C488 1.389 . S
N485 C486 1.358 . S
N485 C487 1.400 . S
C486 N484 1.263 . S
C486 N485 1.358 . S
C486 H492 0.930 . S
C487 N485 1.400 . S
C487 C488 1.351 . S
C487 H504 0.930 . S
C488 N484 1.389 . S
C488 C487 1.351 . S
C488 H493 0.930 . S
O489 Cu483 1.974 . S
O489 C499 1.282 . S
C490 O491 1.261 . S
C490 O503 1.251 . S
O491 C490 1.261 . S
H492 C486 0.930 . S
H493 C488 0.930 . S
N494 Cu483 1.985 . S
N494 C496 1.335 . S
N494 C497 1.390 . S
N495 C496 1.345 . S
N495 C498 1.336 . S
C496 N494 1.335 . S
C496 N495 1.345 . S
C496 H501 0.930 . S
C497 N494 1.390 . S
C497 C498 1.346 . S
C497 H502 0.930 . S
C498 N495 1.336 . S
C498 C497 1.346 . S
C498 H505 0.929 . S
C499 O489 1.282 . S
C499 O500 1.216 . S
O500 C499 1.216 . S
H501 C496 0.930 . S
H502 C497 0.930 . S
O503 Cu483 1.959 . S
O503 C490 1.251 . S
H504 C487 0.930 . S
H505 C498 0.929 . S
Cu506 N507 1.999 . S
Cu506 O512 1.974 . S
Cu506 N517 1.985 . S
Cu506 O526 1.959 . S
N507 Cu506 1.999 . S
N507 C509 1.263 . S
N507 C511 1.389 . S
N508 C509 1.358 . S
N508 C510 1.400 . S
C509 N507 1.263 . S
C509 N508 1.358 . S
C509 H515 0.930 . S
C510 N508 1.400 . S
C510 C511 1.351 . S
C510 H527 0.930 . S
C511 N507 1.389 . S
C511 C510 1.351 . S
C511 H516 0.930 . S
O512 Cu506 1.974 . S
O512 C522 1.282 . S
C513 O514 1.261 . S
C513 O526 1.251 . S
O514 C513 1.261 . S
H515 C509 0.930 . S
H516 C511 0.930 . S
N517 Cu506 1.985 . S
N517 C519 1.335 . S
N517 C520 1.390 . S
N518 C519 1.345 . S
N518 C521 1.336 . S
C519 N517 1.335 . S
C519 N518 1.345 . S
C519 H524 0.930 . S
C520 N517 1.390 . S
C520 C521 1.346 . S
C520 H525 0.930 . S
C521 N518 1.336 . S
C521 C520 1.346 . S
C521 H528 0.929 . S
C522 O512 1.282 . S
C522 O523 1.216 . S
O523 C522 1.216 . S
H524 C519 0.930 . S
H525 C520 0.930 . S
O526 Cu506 1.959 . S
O526 C513 1.251 . S
H527 C510 0.930 . S
H528 C521 0.929 . S
Cu529 N530 1.999 . S
Cu529 O535 1.974 . S
Cu529 N540 1.985 . S
Cu529 O549 1.959 . S
N530 Cu529 1.999 . S
N530 C532 1.263 . S
N530 C534 1.389 . S
N531 C532 1.358 . S
N531 C533 1.400 . S
C532 N530 1.263 . S
C532 N531 1.358 . S
C532 H538 0.930 . S
C533 N531 1.400 . S
C533 C534 1.351 . S
C533 H550 0.930 . S
C534 N530 1.389 . S
C534 C533 1.351 . S
C534 H539 0.930 . S
O535 Cu529 1.974 . S
O535 C545 1.282 . S
C536 O537 1.261 . S
C536 O549 1.251 . S
O537 C536 1.261 . S
H538 C532 0.930 . S
H539 C534 0.930 . S
N540 Cu529 1.985 . S
N540 C542 1.335 . S
N540 C543 1.390 . S
N541 C542 1.345 . S
N541 C544 1.336 . S
C542 N540 1.335 . S
C542 N541 1.345 . S
C542 H547 0.930 . S
C543 N540 1.390 . S
C543 C544 1.346 . S
C543 H548 0.930 . S
C544 N541 1.336 . S
C544 C543 1.346 . S
C544 H551 0.929 . S
C545 O535 1.282 . S
C545 O546 1.216 . S
O546 C545 1.216 . S
H547 C542 0.930 . S
H548 C543 0.930 . S
O549 Cu529 1.959 . S
O549 C536 1.251 . S
H550 C533 0.930 . S
H551 C544 0.929 . S
H552 C560 0.950 . S
H553 C565 0.950 . S
H554 C562 0.950 . S
H555 C564 0.950 . S
H556 C566 0.950 . S
H557 C568 0.950 . S
H558 C570 0.950 . S
H559 C571 0.950 . S
C560 H552 0.950 . S
C560 C561 1.386 . S
C560 C562 1.391 . S
C561 C560 1.386 . S
C561 C565 1.393 . S
C562 H554 0.950 . S
C562 C560 1.391 . S
C562 C563 1.400 . S
C563 C562 1.400 . S
C563 C564 1.398 . S
C563 C569 1.491 . S
C564 H555 0.950 . S
C564 C563 1.398 . S
C564 C565 1.391 . S
C565 H553 0.950 . S
C565 C561 1.393 . S
C565 C564 1.391 . S
C566 H556 0.950 . S
C566 C567 1.386 . S
C566 C568 1.391 . S
C567 C566 1.386 . S
C567 C571 1.393 . S
C568 H557 0.950 . S
C568 C566 1.391 . S
C568 C569 1.400 . S
C569 C563 1.491 . S
C569 C568 1.400 . S
C569 C570 1.398 . S
C570 H558 0.950 . S
C570 C569 1.398 . S
C570 C571 1.391 . S
C571 H559 0.950 . S
C571 C567 1.393 . S
C571 C570 1.391 . S
H572 C580 0.950 . S
H573 C585 0.950 . S
H574 C582 0.951 1_455 S
H575 C584 0.950 . S
H576 C586 0.950 . S
H577 C588 0.950 . S
H578 C590 0.950 . S
H579 C591 0.950 . S
C580 H572 0.950 . S
C580 C581 1.386 . S
C580 C582 1.390 . S
C581 C580 1.386 . S
C581 C585 1.393 . S
C582 H574 0.951 1_655 S
C582 C580 1.390 . S
C582 C583 1.401 1_655 S
C583 C582 1.401 1_455 S
C583 C584 1.398 1_455 S
C583 C589 1.491 . S
C584 H575 0.950 . S
C584 C583 1.398 1_655 S
C584 C585 1.391 . S
C585 H573 0.950 . S
C585 C581 1.393 . S
C585 C584 1.391 . S
C586 H576 0.950 . S
C586 C587 1.386 . S
C586 C588 1.391 . S
C587 C586 1.386 . S
C587 C591 1.393 . S
C588 H577 0.950 . S
C588 C586 1.391 . S
C588 C589 1.400 . S
C589 C583 1.491 . S
C589 C588 1.400 . S
C589 C590 1.398 . S
C590 H578 0.950 . S
C590 C589 1.398 . S
C590 C591 1.391 . S
C591 H579 0.950 . S
C591 C587 1.393 . S
C591 C590 1.391 . S
H592 C600 0.950 . S
H593 C605 0.950 . S
H594 C602 0.950 . S
H595 C604 0.950 . S
H596 C606 0.950 . S
H597 C608 0.950 . S
H598 C610 0.950 . S
H599 C611 0.950 . S
C600 H592 0.950 . S
C600 C601 1.386 . S
C600 C602 1.391 . S
C601 C600 1.386 . S
C601 C605 1.393 . S
C602 H594 0.950 . S
C602 C600 1.391 . S
C602 C603 1.400 . S
C603 C602 1.400 . S
C603 C604 1.398 . S
C603 C609 1.491 . S
C604 H595 0.950 . S
C604 C603 1.398 . S
C604 C605 1.391 . S
C605 H593 0.950 . S
C605 C601 1.393 . S
C605 C604 1.391 . S
C606 H596 0.950 . S
C606 C607 1.386 . S
C606 C608 1.391 . S
C607 C606 1.386 . S
C607 C611 1.393 . S
C608 H597 0.950 . S
C608 C606 1.391 . S
C608 C609 1.400 1_556 S
C609 C603 1.491 . S
C609 C608 1.400 1_554 S
C609 C610 1.398 . S
C610 H598 0.950 . S
C610 C609 1.398 . S
C610 C611 1.391 1_554 S
C611 H599 0.950 . S
C611 C607 1.393 . S
C611 C610 1.391 1_556 S
H612 C620 0.950 . S
H613 C625 0.950 . S
H614 C622 0.950 . S
H615 C624 0.950 . S
H616 C626 0.950 . S
H617 C628 0.950 . S
H618 C630 0.950 . S
H619 C631 0.950 . S
C620 H612 0.950 . S
C620 C621 1.386 . S
C620 C622 1.391 . S
C621 C620 1.386 . S
C621 C625 1.393 . S
C622 H614 0.950 . S
C622 C620 1.391 . S
C622 C623 1.400 . S
C623 C622 1.400 . S
C623 C624 1.398 . S
C623 C629 1.491 . S
C624 H615 0.950 . S
C624 C623 1.398 . S
C624 C625 1.391 . S
C625 H613 0.950 . S
C625 C621 1.393 . S
C625 C624 1.391 . S
C626 H616 0.950 . S
C626 C627 1.386 . S
C626 C628 1.391 . S
C627 C626 1.386 . S
C627 C631 1.393 . S
C628 H617 0.950 . S
C628 C626 1.391 . S
C628 C629 1.400 . S
C629 C623 1.491 . S
C629 C628 1.400 . S
C629 C630 1.398 . S
C630 H618 0.950 . S
C630 C629 1.398 . S
C630 C631 1.391 . S
C631 H619 0.950 . S
C631 C627 1.393 . S
C631 C630 1.391 . S
H632 C640 0.950 . S
H633 C645 0.950 . S
H634 C642 0.950 1_554 S
H635 C644 0.950 . S
H636 C646 0.950 . S
H637 C648 0.950 . S
H638 C650 0.950 . S
H639 C651 0.950 . S
C640 H632 0.950 . S
C640 C641 1.386 . S
C640 C642 1.391 . S
C641 C640 1.386 . S
C641 C645 1.393 . S
C642 H634 0.950 1_556 S
C642 C640 1.391 . S
C642 C643 1.400 1_556 S
C643 C642 1.400 1_554 S
C643 C644 1.398 . S
C643 C649 1.491 . S
C644 H635 0.950 . S
C644 C643 1.398 . S
C644 C645 1.391 1_554 S
C645 H633 0.950 . S
C645 C641 1.393 . S
C645 C644 1.391 1_556 S
C646 H636 0.950 . S
C646 C647 1.386 . S
C646 C648 1.391 . S
C647 C646 1.386 . S
C647 C651 1.393 . S
C648 H637 0.950 . S
C648 C646 1.391 . S
C648 C649 1.400 . S
C649 C643 1.491 . S
C649 C648 1.400 . S
C649 C650 1.398 . S
C650 H638 0.950 . S
C650 C649 1.398 . S
C650 C651 1.391 . S
C651 H639 0.950 . S
C651 C647 1.393 . S
C651 C650 1.391 . S
H652 C660 0.950 . S
H653 C665 0.950 . S
H654 C662 0.950 . S
H655 C664 0.950 . S
H656 C666 0.950 . S
H657 C668 0.950 . S
H658 C670 0.950 . S
H659 C671 0.950 . S
C660 H652 0.950 . S
C660 C661 1.386 . S
C660 C662 1.391 . S
C661 C660 1.386 . S
C661 C665 1.393 . S
C662 H654 0.950 . S
C662 C660 1.391 . S
C662 C663 1.400 . S
C663 C662 1.400 . S
C663 C664 1.398 . S
C663 C669 1.491 . S
C664 H655 0.950 . S
C664 C663 1.398 . S
C664 C665 1.391 . S
C665 H653 0.950 . S
C665 C661 1.393 . S
C665 C664 1.391 . S
C666 H656 0.950 . S
C666 C667 1.386 . S
C666 C668 1.391 . S
C667 C666 1.386 . S
C667 C671 1.393 . S
C668 H657 0.950 . S
C668 C666 1.391 . S
C668 C669 1.400 . S
C669 C663 1.491 . S
C669 C668 1.400 . S
C669 C670 1.398 . S
C670 H658 0.950 . S
C670 C669 1.398 . S
C670 C671 1.391 . S
C671 H659 0.950 . S
C671 C667 1.393 . S
C671 C670 1.391 . S
H672 C680 0.950 . S
H673 C685 0.950 . S
H674 C682 0.950 . S
H675 C684 0.950 . S
H676 C686 0.950 . S
H677 C688 0.950 . S
H678 C690 0.950 . S
H679 C691 0.950 . S
C680 H672 0.950 . S
C680 C681 1.386 . S
C680 C682 1.391 . S
C681 C680 1.386 . S
C681 C685 1.393 . S
C682 H674 0.950 . S
C682 C680 1.391 . S
C682 C683 1.400 . S
C683 C682 1.400 . S
C683 C684 1.398 . S
C683 C689 1.491 . S
C684 H675 0.950 . S
C684 C683 1.398 . S
C684 C685 1.391 . S
C685 H673 0.950 . S
C685 C681 1.393 . S
C685 C684 1.391 . S
C686 H676 0.950 . S
C686 C687 1.386 . S
C686 C688 1.391 . S
C687 C686 1.386 . S
C687 C691 1.393 . S
C688 H677 0.950 . S
C688 C686 1.391 . S
C688 C689 1.400 . S
C689 C683 1.491 . S
C689 C688 1.400 . S
C689 C690 1.398 . S
C690 H678 0.950 . S
C690 C689 1.398 . S
C690 C691 1.391 . S
C691 H679 0.950 . S
C691 C687 1.393 . S
C691 C690 1.391 . S
H692 C700 0.950 . S
H693 C705 0.950 . S
H694 C702 0.950 1_655 S
H695 C704 0.950 . S
H696 C706 0.950 . S
H697 C708 0.950 . S
H698 C710 0.950 . S
H699 C711 0.950 . S
C700 H692 0.950 . S
C700 C701 1.386 . S
C700 C702 1.391 . S
C701 C700 1.386 . S
C701 C705 1.393 . S
C702 H694 0.950 1_455 S
C702 C700 1.391 . S
C702 C703 1.400 . S
C703 C702 1.400 . S
C703 C704 1.398 . S
C703 C709 1.491 1_455 S
C704 H695 0.950 . S
C704 C703 1.398 . S
C704 C705 1.391 . S
C705 H693 0.950 . S
C705 C701 1.393 . S
C705 C704 1.391 . S
C706 H696 0.950 . S
C706 C707 1.386 . S
C706 C708 1.391 . S
C707 C706 1.386 . S
C707 C711 1.393 . S
C708 H697 0.950 . S
C708 C706 1.391 . S
C708 C709 1.400 . S
C709 C703 1.491 1_655 S
C709 C708 1.400 . S
C709 C710 1.398 . S
C710 H698 0.950 . S
C710 C709 1.398 . S
C710 C711 1.391 . S
C711 H699 0.950 . S
C711 C707 1.393 . S
C711 C710 1.391 . S
H712 C720 0.950 . S
H713 C725 0.950 . S
H714 C722 0.950 . S
H715 C724 0.950 . S
H716 C726 0.950 . S
H717 C728 0.950 . S
H718 C730 0.950 . S
H719 C731 0.950 . S
C720 H712 0.950 . S
C720 C721 1.386 . S
C720 C722 1.391 . S
C721 C720 1.386 . S
C721 C725 1.393 . S
C722 H714 0.950 . S
C722 C720 1.391 . S
C722 C723 1.400 . S
C723 C722 1.400 . S
C723 C724 1.398 . S
C723 C729 1.491 . S
C724 H715 0.950 . S
C724 C723 1.398 . S
C724 C725 1.391 . S
C725 H713 0.950 . S
C725 C721 1.393 . S
C725 C724 1.391 . S
C726 H716 0.950 . S
C726 C727 1.386 . S
C726 C728 1.391 . S
C727 C726 1.386 . S
C727 C731 1.393 . S
C728 H717 0.950 . S
C728 C726 1.391 . S
C728 C729 1.400 . S
C729 C723 1.491 . S
C729 C728 1.400 . S
C729 C730 1.398 . S
C730 H718 0.950 . S
C730 C729 1.398 . S
C730 C731 1.391 . S
C731 H719 0.950 . S
C731 C727 1.393 . S
C731 C730 1.391 . S
H732 C740 0.950 . S
H733 C745 0.950 . S
H734 C742 0.950 . S
H735 C744 0.950 . S
H736 C746 0.950 . S
H737 C748 0.950 . S
H738 C750 0.950 . S
H739 C751 0.950 . S
C740 H732 0.950 . S
C740 C741 1.386 . S
C740 C742 1.391 1_545 S
C741 C740 1.386 . S
C741 C745 1.393 . S
C742 H734 0.950 . S
C742 C740 1.391 1_565 S
C742 C743 1.400 . S
C743 C742 1.400 . S
C743 C744 1.398 1_565 S
C743 C749 1.491 . S
C744 H735 0.950 . S
C744 C743 1.398 1_545 S
C744 C745 1.391 . S
C745 H733 0.950 . S
C745 C741 1.393 . S
C745 C744 1.391 . S
C746 H736 0.950 . S
C746 C747 1.386 . S
C746 C748 1.391 . S
C747 C746 1.386 . S
C747 C751 1.393 . S
C748 H737 0.950 . S
C748 C746 1.391 . S
C748 C749 1.400 . S
C749 C743 1.491 . S
C749 C748 1.400 . S
C749 C750 1.398 . S
C750 H738 0.950 . S
C750 C749 1.398 . S
C750 C751 1.391 . S
C751 H739 0.950 . S
C751 C747 1.393 . S
C751 C750 1.391 . S
H752 C760 0.950 . S
H753 C765 0.950 . S
H754 C762 0.950 . S
H755 C764 0.950 . S
H756 C766 0.950 . S
H757 C768 0.950 1_545 S
H758 C770 0.950 . S
H759 C771 0.950 . S
C760 H752 0.950 . S
C760 C761 1.386 . S
C760 C762 1.391 . S
C761 C760 1.386 . S
C761 C765 1.393 . S
C762 H754 0.950 . S
C762 C760 1.391 . S
C762 C763 1.400 . S
C763 C762 1.400 . S
C763 C764 1.398 . S
C763 C769 1.491 1_545 S
C764 H755 0.950 . S
C764 C763 1.398 . S
C764 C765 1.391 . S
C765 H753 0.950 . S
C765 C761 1.393 . S
C765 C764 1.391 . S
C766 H756 0.950 . S
C766 C767 1.386 . S
C766 C768 1.391 . S
C767 C766 1.386 . S
C767 C771 1.393 . S
C768 H757 0.950 1_565 S
C768 C766 1.391 . S
C768 C769 1.400 . S
C769 C763 1.491 1_565 S
C769 C768 1.400 . S
C769 C770 1.398 . S
C770 H758 0.950 . S
C770 C769 1.398 . S
C770 C771 1.391 . S
C771 H759 0.950 . S
C771 C767 1.393 . S
C771 C770 1.391 . S
H772 C780 0.950 . S
H773 C785 0.950 . S
H774 C782 0.950 . S
H775 C784 0.950 . S
H776 C786 0.950 . S
H777 C788 0.950 . S
H778 C790 0.950 . S
H779 C791 0.950 . S
C780 H772 0.950 . S
C780 C781 1.386 . S
C780 C782 1.391 . S
C781 C780 1.386 . S
C781 C785 1.393 . S
C782 H774 0.950 . S
C782 C780 1.391 . S
C782 C783 1.370 1_545 S
C783 C782 1.370 1_565 S
C783 C784 1.401 . S
C783 C789 1.518 . S
C784 H775 0.950 . S
C784 C783 1.401 . S
C784 C785 1.391 1_565 S
C785 H773 0.950 . S
C785 C781 1.393 . S
C785 C784 1.391 1_545 S
C786 H776 0.950 . S
C786 C787 1.386 . S
C786 C788 1.391 . S
C787 C786 1.386 . S
C787 C791 1.393 . S
C788 H777 0.950 . S
C788 C786 1.391 . S
C788 C789 1.400 . S
C789 C783 1.518 . S
C789 C788 1.400 . S
C789 C790 1.398 . S
C790 H778 0.950 . S
C790 C789 1.398 . S
C790 C791 1.391 . S
C791 H779 0.950 . S
C791 C787 1.393 . S
C791 C790 1.391 . S
H792 C800 0.950 . S
H793 C805 0.950 . S
H794 C802 0.950 . S
H795 C804 0.950 . S
H796 C806 0.950 . S
H797 C808 0.950 . S
H798 C810 0.950 . S
H799 C811 0.950 . S
C800 H792 0.950 . S
C800 C801 1.386 . S
C800 C802 1.391 . S
C801 C800 1.386 . S
C801 C805 1.393 . S
C802 H794 0.950 . S
C802 C800 1.391 . S
C802 C803 1.400 . S
C803 C802 1.400 . S
C803 C804 1.398 . S
C803 C809 1.491 . S
C804 H795 0.950 . S
C804 C803 1.398 . S
C804 C805 1.391 . S
C805 H793 0.950 . S
C805 C801 1.393 . S
C805 C804 1.391 . S
C806 H796 0.950 . S
C806 C807 1.386 . S
C806 C808 1.391 . S
C807 C806 1.386 . S
C807 C811 1.393 . S
C808 H797 0.950 . S
C808 C806 1.391 . S
C808 C809 1.400 . S
C809 C803 1.491 . S
C809 C808 1.400 . S
C809 C810 1.398 . S
C810 H798 0.950 . S
C810 C809 1.398 . S
C810 C811 1.391 . S
C811 H799 0.950 . S
C811 C807 1.393 . S
C811 C810 1.391 . S
H812 C820 0.950 . S
H813 C825 0.950 . S
H814 C822 0.950 . S
H815 C824 0.950 . S
H816 C826 0.950 . S
H817 C828 0.950 . S
H818 C830 0.950 . S
H819 C831 0.950 . S
C820 H812 0.950 . S
C820 C821 1.386 . S
C820 C822 1.391 . S
C821 C820 1.386 . S
C821 C825 1.393 . S
C822 H814 0.950 . S
C822 C820 1.391 . S
C822 C823 1.400 . S
C823 C822 1.400 . S
C823 C824 1.398 . S
C823 C829 1.491 . S
C824 H815 0.950 . S
C824 C823 1.398 . S
C824 C825 1.391 . S
C825 H813 0.950 . S
C825 C821 1.393 . S
C825 C824 1.391 . S
C826 H816 0.950 . S
C826 C827 1.386 . S
C826 C828 1.391 . S
C827 C826 1.386 . S
C827 C831 1.393 . S
C828 H817 0.950 . S
C828 C826 1.391 . S
C828 C829 1.400 . S
C829 C823 1.491 . S
C829 C828 1.400 . S
C829 C830 1.398 . S
C830 H818 0.950 . S
C830 C829 1.398 . S
C830 C831 1.391 . S
C831 H819 0.950 . S
C831 C827 1.393 . S
C831 C830 1.391 . S
H832 C840 0.950 . S
H833 C845 0.950 . S
H834 C842 0.950 . S
H835 C844 0.950 . S
H836 C846 0.950 . S
H837 C848 0.950 . S
H838 C850 0.950 . S
H839 C851 0.950 . S
C840 H832 0.950 . S
C840 C841 1.386 . S
C840 C842 1.391 . S
C841 C840 1.386 . S
C841 C845 1.393 . S
C842 H834 0.950 . S
C842 C840 1.391 . S
C842 C843 1.400 . S
C843 C842 1.400 . S
C843 C844 1.398 . S
C843 C849 1.491 . S
C844 H835 0.950 . S
C844 C843 1.398 . S
C844 C845 1.391 . S
C845 H833 0.950 . S
C845 C841 1.393 . S
C845 C844 1.391 . S
C846 H836 0.950 . S
C846 C847 1.386 . S
C846 C848 1.391 . S
C847 C846 1.386 . S
C847 C851 1.393 . S
C848 H837 0.950 . S
C848 C846 1.391 . S
C848 C849 1.400 . S
C849 C843 1.491 . S
C849 C848 1.400 . S
C849 C850 1.398 . S
C850 H838 0.950 . S
C850 C849 1.398 . S
C850 C851 1.391 . S
C851 H839 0.950 . S
C851 C847 1.393 . S
C851 C850 1.391 . S
H852 C860 0.950 . S
H853 C865 0.950 . S
H854 C862 0.950 . S
H855 C864 0.950 . S
H856 C866 0.950 . S
H857 C868 0.950 . S
H858 C870 0.950 . S
H859 C871 0.950 . S
C860 H852 0.950 . S
C860 C861 1.386 . S
C860 C862 1.391 1_556 S
C861 C860 1.386 . S
C861 C865 1.393 . S
C862 H854 0.950 . S
C862 C860 1.391 1_554 S
C862 C863 1.400 . S
C863 C862 1.400 . S
C863 C864 1.398 1_554 S
C863 C869 1.491 . S
C864 H855 0.950 . S
C864 C863 1.398 1_556 S
C864 C865 1.391 . S
C865 H853 0.950 . S
C865 C861 1.393 . S
C865 C864 1.391 . S
C866 H856 0.950 . S
C866 C867 1.386 . S
C866 C868 1.391 . S
C867 C866 1.386 . S
C867 C871 1.393 . S
C868 H857 0.950 . S
C868 C866 1.391 . S
C868 C869 1.400 . S
C869 C863 1.491 . S
C869 C868 1.400 . S
C869 C870 1.398 . S
C870 H858 0.950 . S
C870 C869 1.398 . S
C870 C871 1.391 . S
C871 H859 0.950 . S
C871 C867 1.393 . S
C871 C870 1.391 . S
H872 C880 0.950 . S
H873 C885 0.950 . S
H874 C882 0.950 . S
H875 C884 0.950 . S
H876 C886 0.950 . S
H877 C888 0.950 . S
H878 C890 0.950 . S
H879 C891 0.950 . S
C880 H872 0.950 . S
C880 C881 1.386 . S
C880 C882 1.391 . S
C881 C880 1.386 . S
C881 C885 1.393 . S
C882 H874 0.950 . S
C882 C880 1.391 . S
C882 C883 1.400 . S
C883 C882 1.400 . S
C883 C884 1.398 . S
C883 C889 1.491 . S
C884 H875 0.950 . S
C884 C883 1.398 . S
C884 C885 1.391 . S
C885 H873 0.950 . S
C885 C881 1.393 . S
C885 C884 1.391 . S
C886 H876 0.950 . S
C886 C887 1.386 . S
C886 C888 1.391 . S
C887 C886 1.386 . S
C887 C891 1.393 . S
C888 H877 0.950 . S
C888 C886 1.391 . S
C888 C889 1.400 . S
C889 C883 1.491 . S
C889 C888 1.400 . S
C889 C890 1.398 . S
C890 H878 0.950 . S
C890 C889 1.398 . S
C890 C891 1.391 . S
C891 H879 0.950 . S
C891 C887 1.393 . S
C891 C890 1.391 . S
H892 C900 0.950 . S
H893 C905 0.950 . S
H894 C902 0.950 . S
H895 C904 0.950 . S
H896 C906 0.950 . S
H897 C908 0.950 . S
H898 C910 0.950 . S
H899 C911 0.950 . S
C900 H892 0.950 . S
C900 C901 1.386 . S
C900 C902 1.391 . S
C901 C900 1.386 . S
C901 C905 1.393 . S
C902 H894 0.950 . S
C902 C900 1.391 . S
C902 C903 1.400 . S
C903 C902 1.400 . S
C903 C904 1.398 . S
C903 C909 1.491 . S
C904 H895 0.950 . S
C904 C903 1.398 . S
C904 C905 1.391 . S
C905 H893 0.950 . S
C905 C901 1.393 . S
C905 C904 1.391 . S
C906 H896 0.950 . S
C906 C907 1.386 . S
C906 C908 1.391 . S
C907 C906 1.386 . S
C907 C911 1.393 . S
C908 H897 0.950 . S
C908 C906 1.391 . S
C908 C909 1.400 . S
C909 C903 1.491 . S
C909 C908 1.400 . S
C909 C910 1.398 . S
C910 H898 0.950 . S
C910 C909 1.398 . S
C910 C911 1.391 . S
C911 H899 0.950 . S
C911 C907 1.393 . S
C911 C910 1.391 . S
H912 C920 0.950 . S
H913 C925 0.950 . S
H914 C922 0.950 . S
H915 C924 0.950 . S
H916 C926 0.950 . S
H917 C928 0.950 . S
H918 C930 0.950 . S
H919 C931 0.950 . S
C920 H912 0.950 . S
C920 C921 1.386 . S
C920 C922 1.391 . S
C921 C920 1.386 . S
C921 C925 1.393 . S
C922 H914 0.950 . S
C922 C920 1.391 . S
C922 C923 1.397 1_655 S
C923 C922 1.397 1_455 S
C923 C924 1.396 1_455 S
C923 C929 1.496 . S
C924 H915 0.950 . S
C924 C923 1.396 1_655 S
C924 C925 1.391 . S
C925 H913 0.950 . S
C925 C921 1.393 . S
C925 C924 1.391 . S
C926 H916 0.950 . S
C926 C927 1.386 . S
C926 C928 1.391 . S
C927 C926 1.386 . S
C927 C931 1.393 . S
C928 H917 0.950 . S
C928 C926 1.391 . S
C928 C929 1.400 . S
C929 C923 1.496 . S
C929 C928 1.400 . S
C929 C930 1.398 . S
C930 H918 0.950 . S
C930 C929 1.398 . S
C930 C931 1.391 . S
C931 H919 0.950 . S
C931 C927 1.393 . S
C931 C930 1.391 . S
H932 C940 0.950 . S
H933 C945 0.950 . S
H934 C942 0.950 . S
H935 C944 0.950 . S
H936 C946 0.950 . S
H937 C948 0.950 . S
H938 C950 0.950 . S
H939 C951 0.950 . S
C940 H932 0.950 . S
C940 C941 1.386 . S
C940 C942 1.391 . S
C941 C940 1.386 . S
C941 C945 1.393 . S
C942 H934 0.950 . S
C942 C940 1.391 . S
C942 C943 1.400 . S
C943 C942 1.400 . S
C943 C944 1.398 . S
C943 C949 1.491 . S
C944 H935 0.950 . S
C944 C943 1.398 . S
C944 C945 1.391 . S
C945 H933 0.950 . S
C945 C941 1.393 . S
C945 C944 1.391 . S
C946 H936 0.950 . S
C946 C947 1.386 . S
C946 C948 1.391 . S
C947 C946 1.386 . S
C947 C951 1.393 . S
C948 H937 0.950 . S
C948 C946 1.391 . S
C948 C949 1.400 . S
C949 C943 1.491 . S
C949 C948 1.400 . S
C949 C950 1.398 . S
C950 H938 0.950 . S
C950 C949 1.398 . S
C950 C951 1.391 . S
C951 H939 0.950 . S
C951 C947 1.393 . S
C951 C950 1.391 . S
H952 C960 0.950 . S
H953 C965 0.950 . S
H954 C962 0.950 . S
H955 C964 0.950 1_655 S
H956 C966 0.950 . S
H957 C968 0.950 . S
H958 C970 0.964 . S
H959 C971 0.950 . S
C960 H952 0.950 . S
C960 C961 1.386 . S
C960 C962 1.391 . S
C961 C960 1.386 . S
C961 C965 1.393 . S
C962 H954 0.950 . S
C962 C960 1.391 . S
C962 C963 1.400 . S
C963 C962 1.400 . S
C963 C964 1.398 . S
C963 C969 1.491 1_455 S
C964 H955 0.950 1_455 S
C964 C963 1.398 . S
C964 C965 1.391 . S
C965 H953 0.950 . S
C965 C961 1.393 . S
C965 C964 1.391 . S
C966 H956 0.950 . S
C966 C967 1.386 . S
C966 C968 1.391 . S
C967 C966 1.386 . S
C967 C971 1.393 . S
C968 H957 0.950 . S
C968 C966 1.391 . S
C968 C969 1.400 . S
C969 C963 1.491 1_655 S
C969 C968 1.400 . S
C969 C970 1.398 . S
C970 H958 0.964 . S
C970 C969 1.398 . S
C970 C971 1.391 . S
C971 H959 0.950 . S
C971 C967 1.393 . S
C971 C970 1.391 . S
H972 C980 0.950 . S
H973 C985 0.950 . S
H974 C982 0.950 . S
H975 C984 0.950 . S
H976 C986 0.950 . S
H977 C988 0.950 . S
H978 C990 0.950 1_556 S
H979 C991 0.950 . S
C980 H972 0.950 . S
C980 C981 1.386 . S
C980 C982 1.391 . S
C981 C980 1.386 . S
C981 C985 1.393 . S
C982 H974 0.950 . S
C982 C980 1.391 . S
C982 C983 1.400 . S
C983 C982 1.400 . S
C983 C984 1.398 . S
C983 C989 1.491 1_556 S
C984 H975 0.950 . S
C984 C983 1.398 . S
C984 C985 1.391 . S
C985 H973 0.950 . S
C985 C981 1.393 . S
C985 C984 1.391 . S
C986 H976 0.950 . S
C986 C987 1.386 . S
C986 C988 1.391 . S
C987 C986 1.386 . S
C987 C991 1.393 . S
C988 H977 0.950 . S
C988 C986 1.391 . S
C988 C989 1.400 . S
C989 C983 1.491 1_554 S
C989 C988 1.400 . S
C989 C990 1.398 . S
C990 H978 0.950 1_554 S
C990 C989 1.398 . S
C990 C991 1.391 . S
C991 H979 0.950 . S
C991 C987 1.393 . S
C991 C990 1.391 . S
H992 C1000 0.950 . S
H993 C1005 0.950 . S
H994 C1002 0.950 . S
H995 C1004 0.950 . S
H996 C1006 0.950 . S
H997 C1008 0.950 . S
H998 C1010 0.950 . S
H999 C1011 0.950 . S
C1000 H992 0.950 . S
C1000 C1001 1.386 . S
C1000 C1002 1.391 . S
C1001 C1000 1.386 . S
C1001 C1005 1.393 . S
C1002 H994 0.950 . S
C1002 C1000 1.391 . S
C1002 C1003 1.400 . S
C1003 C1002 1.400 . S
C1003 C1004 1.398 . S
C1003 C1009 1.491 . S
C1004 H995 0.950 . S
C1004 C1003 1.398 . S
C1004 C1005 1.391 . S
C1005 H993 0.950 . S
C1005 C1001 1.393 . S
C1005 C1004 1.391 . S
C1006 H996 0.950 . S
C1006 C1007 1.386 . S
C1006 C1008 1.391 . S
C1007 C1006 1.386 . S
C1007 C1011 1.393 . S
C1008 H997 0.950 . S
C1008 C1006 1.391 . S
C1008 C1009 1.400 . S
C1009 C1003 1.491 . S
C1009 C1008 1.400 . S
C1009 C1010 1.398 . S
C1010 H998 0.950 . S
C1010 C1009 1.398 . S
C1010 C1011 1.391 . S
C1011 H999 0.950 . S
C1011 C1007 1.393 . S
C1011 C1010 1.391 . S
H1012 C1020 0.950 . S
H1013 C1025 0.950 . S
H1014 C1022 0.950 1_545 S
H1015 C1024 0.950 1_545 S
H1016 C1026 0.950 . S
H1017 C1028 0.950 . S
H1018 C1030 0.950 . S
H1019 C1031 0.950 . S
C1020 H1012 0.950 . S
C1020 C1021 1.386 . S
C1020 C1022 1.391 . S
C1021 C1020 1.386 . S
C1021 C1025 1.393 . S
C1022 H1014 0.950 1_565 S
C1022 C1020 1.391 . S
C1022 C1023 1.400 1_565 S
C1023 C1022 1.400 1_545 S
C1023 C1024 1.398 1_545 S
C1023 C1029 1.491 . S
C1024 H1015 0.950 1_565 S
C1024 C1023 1.398 1_565 S
C1024 C1025 1.391 . S
C1025 H1013 0.950 . S
C1025 C1021 1.393 . S
C1025 C1024 1.391 . S
C1026 H1016 0.950 . S
C1026 C1027 1.386 . S
C1026 C1028 1.391 . S
C1027 C1026 1.386 . S
C1027 C1031 1.393 . S
C1028 H1017 0.950 . S
C1028 C1026 1.391 . S
C1028 C1029 1.400 . S
C1029 C1023 1.491 . S
C1029 C1028 1.400 . S
C1029 C1030 1.398 . S
C1030 H1018 0.950 . S
C1030 C1029 1.398 . S
C1030 C1031 1.391 . S
C1031 H1019 0.950 . S
C1031 C1027 1.393 . S
C1031 C1030 1.391 . S
H1032 C1040 0.950 . S
H1033 C1045 0.950 . S
H1034 C1042 0.950 . S
H1035 C1044 0.950 . S
H1036 C1046 0.950 . S
H1037 C1048 0.950 . S
H1038 C1050 0.950 . S
H1039 C1051 0.950 . S
C1040 H1032 0.950 . S
C1040 C1041 1.386 . S
C1040 C1042 1.391 . S
C1041 C1040 1.386 . S
C1041 C1045 1.393 . S
C1042 H1034 0.950 . S
C1042 C1040 1.391 . S
C1042 C1043 1.400 . S
C1043 C1042 1.400 . S
C1043 C1044 1.398 . S
C1043 C1049 1.491 . S
C1044 H1035 0.950 . S
C1044 C1043 1.398 . S
C1044 C1045 1.391 . S
C1045 H1033 0.950 . S
C1045 C1041 1.393 . S
C1045 C1044 1.391 . S
C1046 H1036 0.950 . S
C1046 C1047 1.386 . S
C1046 C1048 1.391 . S
C1047 C1046 1.386 . S
C1047 C1051 1.393 . S
C1048 H1037 0.950 . S
C1048 C1046 1.391 . S
C1048 C1049 1.400 . S
C1049 C1043 1.491 . S
C1049 C1048 1.400 . S
C1049 C1050 1.398 . S
C1050 H1038 0.950 . S
C1050 C1049 1.398 . S
C1050 C1051 1.391 . S
C1051 H1039 0.950 . S
C1051 C1047 1.393 . S
C1051 C1050 1.391 . S
H1052 C1060 0.950 . S
H1053 C1065 0.950 . S
H1054 C1062 0.950 . S
H1055 C1064 0.950 . S
H1056 C1066 0.950 . S
H1057 C1068 0.950 . S
H1058 C1070 0.950 . S
H1059 C1071 0.950 . S
C1060 H1052 0.950 . S
C1060 C1061 1.386 . S
C1060 C1062 1.391 . S
C1061 C1060 1.386 . S
C1061 C1065 1.393 . S
C1062 H1054 0.950 . S
C1062 C1060 1.391 . S
C1062 C1063 1.400 . S
C1063 C1062 1.400 . S
C1063 C1064 1.398 . S
C1063 C1069 1.491 . S
C1064 H1055 0.950 . S
C1064 C1063 1.398 . S
C1064 C1065 1.391 . S
C1065 H1053 0.950 . S
C1065 C1061 1.393 . S
C1065 C1064 1.391 . S
C1066 H1056 0.950 . S
C1066 C1067 1.386 . S
C1066 C1068 1.391 . S
C1067 C1066 1.386 . S
C1067 C1071 1.393 . S
C1068 H1057 0.950 . S
C1068 C1066 1.391 . S
C1068 C1069 1.400 . S
C1069 C1063 1.491 . S
C1069 C1068 1.400 . S
C1069 C1070 1.398 . S
C1070 H1058 0.950 . S
C1070 C1069 1.398 . S
C1070 C1071 1.391 . S
C1071 H1059 0.950 . S
C1071 C1067 1.393 . S
C1071 C1070 1.391 . S
H1072 C1080 0.950 . S
H1073 C1085 0.950 . S
H1074 C1082 0.950 . S
H1075 C1084 0.950 . S
H1076 C1086 0.950 . S
H1077 C1088 0.950 . S
H1078 C1090 0.950 . S
H1079 C1091 0.950 . S
C1080 H1072 0.950 . S
C1080 C1081 1.386 . S
C1080 C1082 1.391 . S
C1081 C1080 1.386 . S
C1081 C1085 1.393 . S
C1082 H1074 0.950 . S
C1082 C1080 1.391 . S
C1082 C1083 1.400 . S
C1083 C1082 1.400 . S
C1083 C1084 1.398 . S
C1083 C1089 1.491 . S
C1084 H1075 0.950 . S
C1084 C1083 1.398 . S
C1084 C1085 1.391 . S
C1085 H1073 0.950 . S
C1085 C1081 1.393 . S
C1085 C1084 1.391 . S
C1086 H1076 0.950 . S
C1086 C1087 1.386 . S
C1086 C1088 1.391 . S
C1087 C1086 1.386 . S
C1087 C1091 1.393 . S
C1088 H1077 0.950 . S
C1088 C1086 1.391 . S
C1088 C1089 1.400 . S
C1089 C1083 1.491 . S
C1089 C1088 1.400 . S
C1089 C1090 1.398 . S
C1090 H1078 0.950 . S
C1090 C1089 1.398 . S
C1090 C1091 1.391 . S
C1091 H1079 0.950 . S
C1091 C1087 1.393 . S
C1091 C1090 1.391 . S
H1092 C1100 0.950 . S
H1093 C1105 0.950 . S
H1094 C1102 0.950 . S
H1095 C1104 0.950 1_554 S
H1096 C1106 0.950 . S
H1097 C1108 0.950 . S
H1098 C1110 0.950 1_556 S
H1099 C1111 0.950 . S
C1100 H1092 0.950 . S
C1100 C1101 1.386 . S
C1100 C1102 1.391 . S
C1101 C1100 1.386 . S
C1101 C1105 1.393 . S
C1102 H1094 0.950 . S
C1102 C1100 1.391 . S
C1102 C1103 1.400 . S
C1103 C1102 1.400 . S
C1103 C1104 1.398 . S
C1103 C1109 1.491 1_556 S
C1104 H1095 0.950 1_556 S
C1104 C1103 1.398 . S
C1104 C1105 1.391 . S
C1105 H1093 0.950 . S
C1105 C1101 1.393 . S
C1105 C1104 1.391 . S
C1106 H1096 0.950 . S
C1106 C1107 1.386 . S
C1106 C1108 1.391 . S
C1107 C1106 1.386 . S
C1107 C1111 1.393 . S
C1108 H1097 0.950 . S
C1108 C1106 1.391 . S
C1108 C1109 1.400 . S
C1109 C1103 1.491 1_554 S
C1109 C1108 1.400 . S
C1109 C1110 1.398 . S
C1110 H1098 0.950 1_554 S
C1110 C1109 1.398 . S
C1110 C1111 1.391 . S
C1111 H1099 0.950 . S
C1111 C1107 1.393 . S
C1111 C1110 1.391 . S
H1112 C1120 0.950 . S
H1113 C1125 0.950 . S
H1114 C1122 0.950 . S
H1115 C1124 0.950 . S
H1116 C1126 0.950 . S
H1117 C1128 0.950 . S
H1118 C1130 0.950 . S
H1119 C1131 0.950 . S
C1120 H1112 0.950 . S
C1120 C1121 1.386 . S
C1120 C1122 1.391 . S
C1121 C1120 1.386 . S
C1121 C1125 1.393 . S
C1122 H1114 0.950 . S
C1122 C1120 1.391 . S
C1122 C1123 1.400 . S
C1123 C1122 1.400 . S
C1123 C1124 1.398 . S
C1123 C1129 1.491 . S
C1124 H1115 0.950 . S
C1124 C1123 1.398 . S
C1124 C1125 1.391 . S
C1125 H1113 0.950 . S
C1125 C1121 1.393 . S
C1125 C1124 1.391 . S
C1126 H1116 0.950 . S
C1126 C1127 1.386 . S
C1126 C1128 1.391 . S
C1127 C1126 1.386 . S
C1127 C1131 1.393 . S
C1128 H1117 0.950 . S
C1128 C1126 1.391 . S
C1128 C1129 1.400 . S
C1129 C1123 1.491 . S
C1129 C1128 1.400 . S
C1129 C1130 1.398 . S
C1130 H1118 0.950 . S
C1130 C1129 1.398 . S
C1130 C1131 1.391 . S
C1131 H1119 0.950 . S
C1131 C1127 1.393 . S
C1131 C1130 1.391 . S
H1132 C1140 0.950 . S
H1133 C1145 0.950 . S
H1134 C1142 0.950 . S
H1135 C1144 0.950 . S
H1136 C1146 0.950 . S
H1137 C1148 0.950 . S
H1138 C1150 0.950 . S
H1139 C1151 0.950 . S
C1140 H1132 0.950 . S
C1140 C1141 1.386 . S
C1140 C1142 1.391 . S
C1141 C1140 1.386 . S
C1141 C1145 1.393 . S
C1142 H1134 0.950 . S
C1142 C1140 1.391 . S
C1142 C1143 1.400 . S
C1143 C1142 1.400 . S
C1143 C1144 1.398 . S
C1143 C1149 1.491 1_545 S
C1144 H1135 0.950 . S
C1144 C1143 1.398 . S
C1144 C1145 1.391 . S
C1145 H1133 0.950 . S
C1145 C1141 1.393 . S
C1145 C1144 1.391 . S
C1146 H1136 0.950 . S
C1146 C1147 1.386 . S
C1146 C1148 1.391 . S
C1147 C1146 1.386 . S
C1147 C1151 1.393 . S
C1148 H1137 0.950 . S
C1148 C1146 1.391 . S
C1148 C1149 1.400 . S
C1149 C1143 1.491 1_565 S
C1149 C1148 1.400 . S
C1149 C1150 1.398 . S
C1150 H1138 0.950 . S
C1150 C1149 1.398 . S
C1150 C1151 1.391 . S
C1151 H1139 0.950 . S
C1151 C1147 1.393 . S
C1151 C1150 1.391 . S
H1152 C1160 0.950 . S
H1153 C1165 0.950 . S
H1154 C1162 0.950 . S
H1155 C1164 0.950 . S
H1156 C1166 0.950 . S
H1157 C1168 0.939 1_554 S
H1158 C1170 0.950 1_554 S
H1159 C1171 0.950 . S
C1160 H1152 0.950 . S
C1160 C1161 1.386 . S
C1160 C1162 1.391 . S
C1161 C1160 1.386 . S
C1161 C1165 1.393 . S
C1162 H1154 0.950 . S
C1162 C1160 1.391 . S
C1162 C1163 1.400 . S
C1163 C1162 1.400 . S
C1163 C1164 1.398 . S
C1163 C1169 1.491 . S
C1164 H1155 0.950 . S
C1164 C1163 1.398 . S
C1164 C1165 1.391 . S
C1165 H1153 0.950 . S
C1165 C1161 1.393 . S
C1165 C1164 1.391 . S
C1166 H1156 0.950 . S
C1166 C1167 1.386 . S
C1166 C1168 1.411 . S
C1167 C1166 1.386 . S
C1167 C1171 1.393 . S
C1168 H1157 0.939 1_556 S
C1168 C1166 1.411 . S
C1168 C1169 1.391 1_556 S
C1169 C1163 1.491 . S
C1169 C1168 1.391 1_554 S
C1169 C1170 1.398 1_554 S
C1170 H1158 0.950 1_556 S
C1170 C1169 1.398 1_556 S
C1170 C1171 1.391 . S
C1171 H1159 0.950 . S
C1171 C1167 1.393 . S
C1171 C1170 1.391 . S
H1172 C1180 0.950 . S
H1173 C1185 0.950 . S
H1174 C1182 0.950 . S
H1175 C1184 0.950 . S
H1176 C1186 0.950 . S
H1177 C1188 0.950 1_545 S
H1178 C1190 0.950 . S
H1179 C1191 0.950 . S
C1180 H1172 0.950 . S
C1180 C1181 1.386 . S
C1180 C1182 1.391 . S
C1181 C1180 1.386 . S
C1181 C1185 1.393 . S
C1182 H1174 0.950 . S
C1182 C1180 1.391 . S
C1182 C1183 1.400 . S
C1183 C1182 1.400 . S
C1183 C1184 1.398 . S
C1183 C1189 1.491 . S
C1184 H1175 0.950 . S
C1184 C1183 1.398 . S
C1184 C1185 1.391 . S
C1185 H1173 0.950 . S
C1185 C1181 1.393 . S
C1185 C1184 1.391 . S
C1186 H1176 0.950 . S
C1186 C1187 1.386 . S
C1186 C1188 1.391 . S
C1187 C1186 1.386 . S
C1187 C1191 1.393 . S
C1188 H1177 0.950 1_565 S
C1188 C1186 1.391 . S
C1188 C1189 1.400 1_565 S
C1189 C1183 1.491 . S
C1189 C1188 1.400 1_545 S
C1189 C1190 1.398 1_545 S
C1190 H1178 0.950 . S
C1190 C1189 1.398 1_565 S
C1190 C1191 1.391 . S
C1191 H1179 0.950 . S
C1191 C1187 1.393 . S
C1191 C1190 1.391 . S
H1192 C1200 0.950 . S
H1193 C1205 0.950 . S
H1194 C1202 0.950 . S
H1195 C1204 0.950 . S
H1196 C1206 0.950 . S
H1197 C1208 0.950 . S
H1198 C1210 0.950 . S
H1199 C1211 0.950 . S
C1200 H1192 0.950 . S
C1200 C1201 1.386 . S
C1200 C1202 1.391 . S
C1201 C1200 1.386 . S
C1201 C1205 1.393 . S
C1202 H1194 0.950 . S
C1202 C1200 1.391 . S
C1202 C1203 1.400 . S
C1203 C1202 1.400 . S
C1203 C1204 1.398 . S
C1203 C1209 1.491 . S
C1204 H1195 0.950 . S
C1204 C1203 1.398 . S
C1204 C1205 1.391 . S
C1205 H1193 0.950 . S
C1205 C1201 1.393 . S
C1205 C1204 1.391 . S
C1206 H1196 0.950 . S
C1206 C1207 1.386 . S
C1206 C1208 1.391 . S
C1207 C1206 1.386 . S
C1207 C1211 1.393 . S
C1208 H1197 0.950 . S
C1208 C1206 1.391 . S
C1208 C1209 1.400 . S
C1209 C1203 1.491 . S
C1209 C1208 1.400 . S
C1209 C1210 1.398 . S
C1210 H1198 0.950 . S
C1210 C1209 1.398 . S
C1210 C1211 1.391 . S
C1211 H1199 0.950 . S
C1211 C1207 1.393 . S
C1211 C1210 1.391 . S
H1212 C1220 0.950 . S
H1213 C1225 0.953 . S
H1214 C1222 0.950 . S
H1215 C1224 0.950 . S
H1216 C1226 0.950 . S
H1217 C1228 0.950 . S
H1218 C1230 0.950 1_655 S
H1219 C1231 0.950 . S
C1220 H1212 0.950 . S
C1220 C1221 1.386 . S
C1220 C1222 1.391 . S
C1221 C1220 1.386 . S
C1221 C1225 1.393 . S
C1222 H1214 0.950 . S
C1222 C1220 1.391 . S
C1222 C1223 1.400 1_655 S
C1223 C1222 1.400 1_455 S
C1223 C1224 1.398 . S
C1223 C1229 1.491 . S
C1224 H1215 0.950 . S
C1224 C1223 1.398 . S
C1224 C1225 1.391 1_455 S
C1225 H1213 0.953 . S
C1225 C1221 1.393 . S
C1225 C1224 1.391 1_655 S
C1226 H1216 0.950 . S
C1226 C1227 1.386 . S
C1226 C1228 1.391 . S
C1227 C1226 1.386 . S
C1227 C1231 1.393 . S
C1228 H1217 0.950 . S
C1228 C1226 1.391 . S
C1228 C1229 1.400 . S
C1229 C1223 1.491 . S
C1229 C1228 1.400 . S
C1229 C1230 1.398 . S
C1230 H1218 0.950 1_455 S
C1230 C1229 1.398 . S
C1230 C1231 1.391 . S
C1231 H1219 0.950 . S
C1231 C1227 1.393 . S
C1231 C1230 1.391 . S
H1232 C1240 0.950 . S
H1233 C1245 0.950 . S
H1234 C1242 0.950 . S
H1235 C1244 0.950 . S
H1236 C1246 0.950 . S
H1237 C1248 0.950 . S
H1238 C1250 0.950 . S
H1239 C1251 0.950 . S
C1240 H1232 0.950 . S
C1240 C1241 1.386 . S
C1240 C1242 1.391 1_455 S
C1241 C1240 1.386 . S
C1241 C1245 1.393 . S
C1242 H1234 0.950 . S
C1242 C1240 1.391 1_655 S
C1242 C1243 1.400 . S
C1243 C1242 1.400 . S
C1243 C1244 1.398 1_655 S
C1243 C1249 1.491 . S
C1244 H1235 0.950 . S
C1244 C1243 1.398 1_455 S
C1244 C1245 1.391 . S
C1245 H1233 0.950 . S
C1245 C1241 1.393 . S
C1245 C1244 1.391 . S
C1246 H1236 0.950 . S
C1246 C1247 1.386 . S
C1246 C1248 1.391 . S
C1247 C1246 1.386 . S
C1247 C1251 1.393 . S
C1248 H1237 0.950 . S
C1248 C1246 1.391 . S
C1248 C1249 1.400 . S
C1249 C1243 1.491 . S
C1249 C1248 1.400 . S
C1249 C1250 1.398 . S
C1250 H1238 0.950 . S
C1250 C1249 1.398 . S
C1250 C1251 1.391 . S
C1251 H1239 0.950 . S
C1251 C1247 1.393 . S
C1251 C1250 1.391 . S
H1252 C1260 0.950 . S
H1253 C1265 0.950 . S
H1254 C1262 0.950 . S
H1255 C1264 0.950 . S
H1256 C1266 0.950 . S
H1257 C1268 0.950 . S
H1258 C1270 0.950 . S
H1259 C1271 0.950 . S
C1260 H1252 0.950 . S
C1260 C1261 1.386 . S
C1260 C1262 1.391 . S
C1261 C1260 1.386 . S
C1261 C1265 1.393 . S
C1262 H1254 0.950 . S
C1262 C1260 1.391 . S
C1262 C1263 1.400 . S
C1263 C1262 1.400 . S
C1263 C1264 1.398 . S
C1263 C1269 1.491 . S
C1264 H1255 0.950 . S
C1264 C1263 1.398 . S
C1264 C1265 1.391 . S
C1265 H1253 0.950 . S
C1265 C1261 1.393 . S
C1265 C1264 1.391 . S
C1266 H1256 0.950 . S
C1266 C1267 1.386 . S
C1266 C1268 1.391 . S
C1267 C1266 1.386 . S
C1267 C1271 1.393 . S
C1268 H1257 0.950 . S
C1268 C1266 1.391 . S
C1268 C1269 1.400 . S
C1269 C1263 1.491 . S
C1269 C1268 1.400 . S
C1269 C1270 1.398 . S
C1270 H1258 0.950 . S
C1270 C1269 1.398 . S
C1270 C1271 1.391 . S
C1271 H1259 0.950 . S
C1271 C1267 1.393 . S
C1271 C1270 1.391 . S
H1272 C1280 0.950 . S
H1273 C1285 0.950 . S
H1274 C1282 0.950 1_655 S
H1275 C1284 0.950 . S
H1276 C1286 0.950 . S
H1277 C1288 0.950 1_455 S
H1278 C1290 0.950 . S
H1279 C1291 0.950 . S
C1280 H1272 0.950 . S
C1280 C1281 1.386 . S
C1280 C1282 1.391 . S
C1281 C1280 1.386 . S
C1281 C1285 1.393 . S
C1282 H1274 0.950 1_455 S
C1282 C1280 1.391 . S
C1282 C1283 1.400 . S
C1283 C1282 1.400 . S
C1283 C1284 1.398 . S
C1283 C1289 1.491 1_455 S
C1284 H1275 0.950 . S
C1284 C1283 1.398 . S
C1284 C1285 1.391 . S
C1285 H1273 0.950 . S
C1285 C1281 1.393 . S
C1285 C1284 1.391 . S
C1286 H1276 0.950 . S
C1286 C1287 1.386 . S
C1286 C1288 1.391 . S
C1287 C1286 1.386 . S
C1287 C1291 1.393 . S
C1288 H1277 0.950 1_655 S
C1288 C1286 1.391 . S
C1288 C1289 1.400 . S
C1289 C1283 1.491 1_655 S
C1289 C1288 1.400 . S
C1289 C1290 1.398 . S
C1290 H1278 0.950 . S
C1290 C1289 1.398 . S
C1290 C1291 1.391 . S
C1291 H1279 0.950 . S
C1291 C1287 1.393 . S
C1291 C1290 1.391 . S
H1292 C1300 0.950 . S
H1293 C1305 0.950 . S
H1294 C1302 0.950 . S
H1295 C1304 0.950 . S
H1296 C1306 0.950 . S
H1297 C1308 0.950 . S
H1298 C1310 0.950 . S
H1299 C1311 0.950 . S
C1300 H1292 0.950 . S
C1300 C1301 1.386 . S
C1300 C1302 1.391 1_455 S
C1301 C1300 1.386 . S
C1301 C1305 1.393 . S
C1302 H1294 0.950 . S
C1302 C1300 1.391 1_655 S
C1302 C1303 1.400 . S
C1303 C1302 1.400 . S
C1303 C1304 1.398 . S
C1303 C1309 1.491 . S
C1304 H1295 0.950 . S
C1304 C1303 1.398 . S
C1304 C1305 1.391 1_655 S
C1305 H1293 0.950 . S
C1305 C1301 1.393 . S
C1305 C1304 1.391 1_455 S
C1306 H1296 0.950 . S
C1306 C1307 1.386 . S
C1306 C1308 1.391 . S
C1307 C1306 1.386 . S
C1307 C1311 1.393 . S
C1308 H1297 0.950 . S
C1308 C1306 1.391 . S
C1308 C1309 1.400 . S
C1309 C1303 1.491 . S
C1309 C1308 1.400 . S
C1309 C1310 1.398 . S
C1310 H1298 0.950 . S
C1310 C1309 1.398 . S
C1310 C1311 1.391 . S
C1311 H1299 0.950 . S
C1311 C1307 1.393 . S
C1311 C1310 1.391 . S
H1312 C1320 0.950 . S
H1313 C1325 0.950 . S
H1314 C1322 0.950 . S
H1315 C1324 0.950 . S
H1316 C1326 0.950 . S
H1317 C1328 0.950 . S
H1318 C1330 0.950 . S
H1319 C1331 0.950 . S
C1320 H1312 0.950 . S
C1320 C1321 1.386 . S
C1320 C1322 1.391 . S
C1321 C1320 1.386 . S
C1321 C1325 1.393 . S
C1322 H1314 0.950 . S
C1322 C1320 1.391 . S
C1322 C1323 1.400 . S
C1323 C1322 1.400 . S
C1323 C1324 1.398 . S
C1323 C1329 1.491 . S
C1324 H1315 0.950 . S
C1324 C1323 1.398 . S
C1324 C1325 1.391 . S
C1325 H1313 0.950 . S
C1325 C1321 1.393 . S
C1325 C1324 1.391 . S
C1326 H1316 0.950 . S
C1326 C1327 1.386 . S
C1326 C1328 1.391 . S
C1327 C1326 1.386 . S
C1327 C1331 1.393 . S
C1328 H1317 0.950 . S
C1328 C1326 1.391 . S
C1328 C1329 1.400 . S
C1329 C1323 1.491 . S
C1329 C1328 1.400 . S
C1329 C1330 1.398 . S
C1330 H1318 0.950 . S
C1330 C1329 1.398 . S
C1330 C1331 1.391 . S
C1331 H1319 0.950 . S
C1331 C1327 1.393 . S
C1331 C1330 1.391 . S
H1332 C1340 0.950 . S
H1333 C1345 0.950 . S
H1334 C1342 0.950 . S
H1335 C1344 0.950 . S
H1336 C1346 0.950 . S
H1337 C1348 0.950 . S
H1338 C1350 0.950 . S
H1339 C1351 0.950 . S
C1340 H1332 0.950 . S
C1340 C1341 1.386 . S
C1340 C1342 1.391 . S
C1341 C1340 1.386 . S
C1341 C1345 1.393 . S
C1342 H1334 0.950 . S
C1342 C1340 1.391 . S
C1342 C1343 1.400 . S
C1343 C1342 1.400 . S
C1343 C1344 1.398 . S
C1343 C1349 1.491 1_565 S
C1344 H1335 0.950 . S
C1344 C1343 1.398 . S
C1344 C1345 1.391 . S
C1345 H1333 0.950 . S
C1345 C1341 1.393 . S
C1345 C1344 1.391 . S
C1346 H1336 0.950 . S
C1346 C1347 1.386 . S
C1346 C1348 1.391 . S
C1347 C1346 1.386 . S
C1347 C1351 1.393 . S
C1348 H1337 0.950 . S
C1348 C1346 1.391 . S
C1348 C1349 1.400 . S
C1349 C1343 1.491 1_545 S
C1349 C1348 1.400 . S
C1349 C1350 1.398 . S
C1350 H1338 0.950 . S
C1350 C1349 1.398 . S
C1350 C1351 1.391 . S
C1351 H1339 0.950 . S
C1351 C1347 1.393 . S
C1351 C1350 1.391 . S
H1352 C1360 0.950 . S
H1353 C1365 0.950 . S
H1354 C1362 0.931 1_554 S
H1355 C1364 0.950 . S
H1356 C1366 0.950 . S
H1357 C1368 0.950 1_556 S
H1358 C1370 0.950 . S
H1359 C1371 0.950 . S
C1360 H1352 0.950 . S
C1360 C1361 1.386 . S
C1360 C1362 1.407 . S
C1361 C1360 1.386 . S
C1361 C1365 1.393 . S
C1362 H1354 0.931 1_556 S
C1362 C1360 1.407 . S
C1362 C1363 1.403 . S
C1363 C1362 1.403 . S
C1363 C1364 1.398 . S
C1363 C1369 1.491 1_556 S
C1364 H1355 0.950 . S
C1364 C1363 1.398 . S
C1364 C1365 1.391 . S
C1365 H1353 0.950 . S
C1365 C1361 1.393 . S
C1365 C1364 1.391 . S
C1366 H1356 0.950 . S
C1366 C1367 1.386 . S
C1366 C1368 1.391 . S
C1367 C1366 1.386 . S
C1367 C1371 1.393 . S
C1368 H1357 0.950 1_554 S
C1368 C1366 1.391 . S
C1368 C1369 1.400 . S
C1369 C1363 1.491 1_554 S
C1369 C1368 1.400 . S
C1369 C1370 1.398 . S
C1370 H1358 0.950 . S
C1370 C1369 1.398 . S
C1370 C1371 1.391 . S
C1371 H1359 0.950 . S
C1371 C1367 1.393 . S
C1371 C1370 1.391 . S
H1372 C1380 0.950 . S
H1373 C1385 0.950 . S
H1374 C1382 0.950 . S
H1375 C1384 0.950 . S
H1376 C1386 0.950 . S
H1377 C1388 0.950 . S
H1378 C1390 0.950 . S
H1379 C1391 0.950 . S
C1380 H1372 0.950 . S
C1380 C1381 1.386 . S
C1380 C1382 1.391 1_545 S
C1381 C1380 1.386 . S
C1381 C1385 1.393 . S
C1382 H1374 0.950 . S
C1382 C1380 1.391 1_565 S
C1382 C1383 1.400 . S
C1383 C1382 1.400 . S
C1383 C1384 1.398 1_565 S
C1383 C1389 1.491 . S
C1384 H1375 0.950 . S
C1384 C1383 1.398 1_545 S
C1384 C1385 1.391 . S
C1385 H1373 0.950 . S
C1385 C1381 1.393 . S
C1385 C1384 1.391 . S
C1386 H1376 0.950 . S
C1386 C1387 1.386 . S
C1386 C1388 1.391 . S
C1387 C1386 1.386 . S
C1387 C1391 1.393 . S
C1388 H1377 0.950 . S
C1388 C1386 1.391 . S
C1388 C1389 1.400 . S
C1389 C1383 1.491 . S
C1389 C1388 1.400 . S
C1389 C1390 1.398 . S
C1390 H1378 0.950 . S
C1390 C1389 1.398 . S
C1390 C1391 1.391 . S
C1391 H1379 0.950 . S
C1391 C1387 1.393 . S
C1391 C1390 1.391 . S
H1392 C1400 0.950 . S
H1393 C1405 0.950 . S
H1394 C1402 0.950 . S
H1395 C1404 0.950 . S
H1396 C1406 0.950 . S
H1397 C1408 0.950 . S
H1398 C1410 0.950 . S
H1399 C1411 0.950 . S
C1400 H1392 0.950 . S
C1400 C1401 1.386 . S
C1400 C1402 1.391 . S
C1401 C1400 1.386 . S
C1401 C1405 1.393 . S
C1402 H1394 0.950 . S
C1402 C1400 1.391 . S
C1402 C1403 1.400 . S
C1403 C1402 1.400 . S
C1403 C1404 1.398 . S
C1403 C1409 1.491 . S
C1404 H1395 0.950 . S
C1404 C1403 1.398 . S
C1404 C1405 1.391 . S
C1405 H1393 0.950 . S
C1405 C1401 1.393 . S
C1405 C1404 1.391 . S
C1406 H1396 0.950 . S
C1406 C1407 1.386 . S
C1406 C1408 1.391 . S
C1407 C1406 1.386 . S
C1407 C1411 1.393 . S
C1408 H1397 0.950 . S
C1408 C1406 1.391 . S
C1408 C1409 1.400 . S
C1409 C1403 1.491 . S
C1409 C1408 1.400 . S
C1409 C1410 1.398 . S
C1410 H1398 0.950 . S
C1410 C1409 1.398 . S
C1410 C1411 1.391 . S
C1411 H1399 0.950 . S
C1411 C1407 1.393 . S
C1411 C1410 1.391 . S
H1412 C1420 0.950 . S
H1413 C1425 0.950 . S
H1414 C1422 0.950 . S
H1415 C1424 0.950 1_556 S
H1416 C1426 0.950 . S
H1417 C1428 0.950 . S
H1418 C1430 0.950 . S
H1419 C1431 0.950 . S
C1420 H1412 0.950 . S
C1420 C1421 1.386 . S
C1420 C1422 1.391 . S
C1421 C1420 1.386 . S
C1421 C1425 1.393 . S
C1422 H1414 0.950 . S
C1422 C1420 1.391 . S
C1422 C1423 1.400 1_554 S
C1423 C1422 1.400 1_556 S
C1423 C1424 1.398 1_556 S
C1423 C1429 1.491 . S
C1424 H1415 0.950 1_554 S
C1424 C1423 1.398 1_554 S
C1424 C1425 1.391 . S
C1425 H1413 0.950 . S
C1425 C1421 1.393 . S
C1425 C1424 1.391 . S
C1426 H1416 0.950 . S
C1426 C1427 1.386 . S
C1426 C1428 1.391 . S
C1427 C1426 1.386 . S
C1427 C1431 1.393 . S
C1428 H1417 0.950 . S
C1428 C1426 1.391 . S
C1428 C1429 1.400 . S
C1429 C1423 1.491 . S
C1429 C1428 1.400 . S
C1429 C1430 1.398 . S
C1430 H1418 0.950 . S
C1430 C1429 1.398 . S
C1430 C1431 1.391 . S
C1431 H1419 0.950 . S
C1431 C1427 1.393 . S
C1431 C1430 1.391 . S
H1432 C1440 0.950 . S
H1433 C1445 0.950 . S
H1434 C1442 0.950 . S
H1435 C1444 0.950 . S
H1436 C1446 0.950 . S
H1437 C1448 0.950 . S
H1438 C1450 0.950 . S
H1439 C1451 0.950 . S
C1440 H1432 0.950 . S
C1440 C1441 1.386 . S
C1440 C1442 1.391 . S
C1441 C1440 1.386 . S
C1441 C1445 1.393 . S
C1442 H1434 0.950 . S
C1442 C1440 1.391 . S
C1442 C1443 1.400 . S
C1443 C1442 1.400 . S
C1443 C1444 1.398 . S
C1443 C1449 1.491 . S
C1444 H1435 0.950 . S
C1444 C1443 1.398 . S
C1444 C1445 1.391 . S
C1445 H1433 0.950 . S
C1445 C1441 1.393 . S
C1445 C1444 1.391 . S
C1446 H1436 0.950 . S
C1446 C1447 1.386 . S
C1446 C1448 1.391 . S
C1447 C1446 1.386 . S
C1447 C1451 1.393 . S
C1448 H1437 0.950 . S
C1448 C1446 1.391 . S
C1448 C1449 1.400 . S
C1449 C1443 1.491 . S
C1449 C1448 1.400 . S
C1449 C1450 1.398 . S
C1450 H1438 0.950 . S
C1450 C1449 1.398 . S
C1450 C1451 1.391 . S
C1451 H1439 0.950 . S
C1451 C1447 1.393 . S
C1451 C1450 1.391 . S
H1452 C1460 0.950 . S
H1453 C1465 0.950 . S
H1454 C1462 0.950 . S
H1455 C1464 0.950 . S
H1456 C1466 0.950 . S
H1457 C1468 0.950 . S
H1458 C1470 0.950 . S
H1459 C1471 0.950 . S
C1460 H1452 0.950 . S
C1460 C1461 1.386 . S
C1460 C1462 1.391 . S
C1461 C1460 1.386 . S
C1461 C1465 1.393 . S
C1462 H1454 0.950 . S
C1462 C1460 1.391 . S
C1462 C1463 1.400 . S
C1463 C1462 1.400 . S
C1463 C1464 1.398 . S
C1463 C1469 1.491 . S
C1464 H1455 0.950 . S
C1464 C1463 1.398 . S
C1464 C1465 1.391 . S
C1465 H1453 0.950 . S
C1465 C1461 1.393 . S
C1465 C1464 1.391 . S
C1466 H1456 0.950 . S
C1466 C1467 1.386 . S
C1466 C1468 1.391 . S
C1467 C1466 1.386 . S
C1467 C1471 1.393 . S
C1468 H1457 0.950 . S
C1468 C1466 1.391 . S
C1468 C1469 1.400 . S
C1469 C1463 1.491 . S
C1469 C1468 1.400 . S
C1469 C1470 1.398 . S
C1470 H1458 0.950 . S
C1470 C1469 1.398 . S
C1470 C1471 1.391 . S
C1471 H1459 0.950 . S
C1471 C1467 1.393 . S
C1471 C1470 1.391 . S
H1472 C1480 0.950 . S
H1473 C1485 0.950 . S
H1474 C1482 0.950 . S
H1475 C1484 0.950 . S
H1476 C1486 0.950 . S
H1477 C1488 0.950 . S
H1478 C1490 0.950 . S
H1479 C1491 0.950 . S
C1480 H1472 0.950 . S
C1480 C1481 1.386 . S
C1480 C1482 1.391 . S
C1481 C1480 1.386 . S
C1481 C1485 1.393 . S
C1482 H1474 0.950 . S
C1482 C1480 1.391 . S
C1482 C1483 1.400 . S
C1483 C1482 1.400 . S
C1483 C1484 1.398 . S
C1483 C1489 1.491 . S
C1484 H1475 0.950 . S
C1484 C1483 1.398 . S
C1484 C1485 1.391 . S
C1485 H1473 0.950 . S
C1485 C1481 1.393 . S
C1485 C1484 1.391 . S
C1486 H1476 0.950 . S
C1486 C1487 1.386 . S
C1486 C1488 1.391 . S
C1487 C1486 1.386 . S
C1487 C1491 1.393 . S
C1488 H1477 0.950 . S
C1488 C1486 1.391 . S
C1488 C1489 1.400 . S
C1489 C1483 1.491 . S
C1489 C1488 1.400 . S
C1489 C1490 1.398 . S
C1490 H1478 0.950 . S
C1490 C1489 1.398 . S
C1490 C1491 1.391 . S
C1491 H1479 0.950 . S
C1491 C1487 1.393 . S
C1491 C1490 1.391 . S
H1492 C1500 0.950 . S
H1493 C1505 0.950 . S
H1494 C1502 0.950 . S
H1495 C1504 0.950 . S
H1496 C1506 0.950 . S
H1497 C1508 0.950 . S
H1498 C1510 0.950 . S
H1499 C1511 0.950 . S
C1500 H1492 0.950 . S
C1500 C1501 1.386 . S
C1500 C1502 1.391 . S
C1501 C1500 1.386 . S
C1501 C1505 1.393 . S
C1502 H1494 0.950 . S
C1502 C1500 1.391 . S
C1502 C1503 1.400 . S
C1503 C1502 1.400 . S
C1503 C1504 1.398 . S
C1503 C1509 1.491 . S
C1504 H1495 0.950 . S
C1504 C1503 1.398 . S
C1504 C1505 1.391 . S
C1505 H1493 0.950 . S
C1505 C1501 1.393 . S
C1505 C1504 1.391 . S
C1506 H1496 0.950 . S
C1506 C1507 1.386 . S
C1506 C1508 1.391 . S
C1507 C1506 1.386 . S
C1507 C1511 1.393 . S
C1508 H1497 0.950 . S
C1508 C1506 1.391 . S
C1508 C1509 1.400 . S
C1509 C1503 1.491 . S
C1509 C1508 1.400 . S
C1509 C1510 1.398 . S
C1510 H1498 0.950 . S
C1510 C1509 1.398 . S
C1510 C1511 1.391 . S
C1511 H1499 0.950 . S
C1511 C1507 1.393 . S
C1511 C1510 1.391 . S
C561 C16 1.609 . S
C567 N209 1.602 . S
C581 N35 1.282 . S
C587 C246 1.278 . S
C601 N255 1.399 . S
C607 N58 1.402 . S
C621 N186 1.505 . S
C627 C85 1.539 . S
C641 N242 1.592 . S
C647 C99 1.614 . S
C661 N117 1.331 . S
C667 C260 1.346 . S
C681 N140 1.417 . S
C687 C191 1.441 . S
C701 C214 1.457 . S
C707 C168 1.458 . S
C721 N94 1.020 . S
C727 N288 1.052 . S
C741 N163 1.588 . S
C747 C361 1.593 . S
C761 C375 1.358 . S
C767 C122 1.356 . S
C781 N81 0.940 . S
C787 N301 0.949 . S
C801 N324 1.912 . S
C807 C145 1.933 . S
C821 N12 1.269 . S
C827 N439 1.294 . S
C841 C62 1.638 . S
C847 C421 1.642 . S
C861 N357 1.200 . S
C867 C499 1.221 . S
C881 C522 1.640 . S
C887 C292 1.645 . S
C901 N531 1.339 . S
C907 N370 1.361 . S
C921 C476 1.520 . S
C927 C329 1.528 . S
C941 N518 1.250 . S
C947 N393 1.249 . S
C961 N416 1.642 . S
C967 C536 1.654 . S
C981 N472 1.428 . S
C987 C306 1.432 . S
C1001 C444 1.489 . S
C1007 N495 1.451 . S
C1021 C39 1.987 . S
C1027 C398 1.990 . S
C1041 C108 1.319 . S
C1047 C7 1.324 . S
C1061 N25 0.866 . S
C1067 N127 0.847 . S
C1081 N48 0.998 . S
C1087 N150 0.994 . S
C1101 C177 1.045 . S
C1107 C76 1.045 . S
C1121 N196 1.088 . S
C1127 C223 1.072 . S
C1141 N219 1.156 . S
C1147 N232 1.154 . S
C1161 C269 0.877 . S
C1167 C237 0.891 . S
C1181 C200 1.080 . S
C1187 N265 1.054 . S
C1201 N71 0.602 . S
C1207 N278 0.570 . S
C1221 N173 1.204 . S
C1227 C430 1.214 . S
C1241 N104 0.617 . S
C1247 N311 0.624 . S
C1261 N449 0.966 . S
C1267 C131 0.958 . S
C1281 N334 1.488 . S
C1287 C30 1.517 . S
C1301 N2 0.945 . S
C1307 C384 0.951 . S
C1321 C53 1.340 . S
C1327 C352 1.341 . S
C1341 N347 0.883 . S
C1347 N403 0.905 . S
C1361 N426 1.198 . S
C1367 C283 1.212 . S
C1381 N380 1.040 . S
C1387 C315 1.028 . S
C1401 C338 1.005 . S
C1407 C453 1.014 . S
C1421 N485 1.123 . S
C1427 C467 1.142 . S
C1441 N508 0.954 . S
C1447 C490 0.965 . S
C1461 C545 1.173 . S
C1467 C513 1.181 . S
C1481 N462 0.980 . S
C1487 N541 0.971 . S
C1501 C407 1.595 . S
C1507 C154 1.592 . S
