# Generated by pormake.
# Topology umq, (4)-cn, num edge types: 1
# Building blocks:
#     Node 0, Type 0, BuildingBlock: GALJAG_clean_sbu_0, # of connection points: 4
#     Node 1, Type 0, BuildingBlock: GALJAG_clean_sbu_0, # of connection points: 4
#     Node 2, Type 0, BuildingBlock: GALJAG_clean_sbu_0, # of connection points: 4
#     Node 3, Type 0, BuildingBlock: GALJAG_clean_sbu_0, # of connection points: 4
#     Node 4, Type 0, BuildingBlock: GALJAG_clean_sbu_0, # of connection points: 4
#     Node 5, Type 0, BuildingBlock: GALJAG_clean_sbu_0, # of connection points: 4
#     Node 6, Type 0, BuildingBlock: GALJAG_clean_sbu_0, # of connection points: 4
#     Node 7, Type 0, BuildingBlock: GALJAG_clean_sbu_0, # of connection points: 4
#     Node 8, Type 0, BuildingBlock: GALJAG_clean_sbu_0, # of connection points: 4
#     Node 9, Type 0, BuildingBlock: GALJAG_clean_sbu_0, # of connection points: 4
#     Node 10, Type 0, BuildingBlock: GALJAG_clean_sbu_0, # of connection points: 4
#     Node 11, Type 0, BuildingBlock: GALJAG_clean_sbu_0, # of connection points: 4
#     Node 12, Type 0, BuildingBlock: GALJAG_clean_sbu_0, # of connection points: 4
#     Node 13, Type 0, BuildingBlock: GALJAG_clean_sbu_0, # of connection points: 4
#     Node 14, Type 0, BuildingBlock: GALJAG_clean_sbu_0, # of connection points: 4
#     Node 15, Type 0, BuildingBlock: GALJAG_clean_sbu_0, # of connection points: 4
#     Node 16, Type 0, BuildingBlock: GALJAG_clean_sbu_0, # of connection points: 4
#     Node 17, Type 0, BuildingBlock: GALJAG_clean_sbu_0, # of connection points: 4
#     Node 18, Type 0, BuildingBlock: GALJAG_clean_sbu_0, # of connection points: 4
#     Node 19, Type 0, BuildingBlock: GALJAG_clean_sbu_0, # of connection points: 4
#     Node 20, Type 0, BuildingBlock: GALJAG_clean_sbu_0, # of connection points: 4
#     Node 21, Type 0, BuildingBlock: GALJAG_clean_sbu_0, # of connection points: 4
#     Node 22, Type 0, BuildingBlock: GALJAG_clean_sbu_0, # of connection points: 4
#     Node 23, Type 0, BuildingBlock: GALJAG_clean_sbu_0, # of connection points: 4
#     Node 24, Type 0, BuildingBlock: GALJAG_clean_sbu_0, # of connection points: 4
#     Node 25, Type 0, BuildingBlock: GALJAG_clean_sbu_0, # of connection points: 4
#     Node 26, Type 0, BuildingBlock: GALJAG_clean_sbu_0, # of connection points: 4
#     Node 27, Type 0, BuildingBlock: GALJAG_clean_sbu_0, # of connection points: 4
#     Node 28, Type 0, BuildingBlock: GALJAG_clean_sbu_0, # of connection points: 4
#     Node 29, Type 0, BuildingBlock: GALJAG_clean_sbu_0, # of connection points: 4
#     Node 30, Type 0, BuildingBlock: GALJAG_clean_sbu_0, # of connection points: 4
#     Node 31, Type 0, BuildingBlock: GALJAG_clean_sbu_0, # of connection points: 4
#     Edge 32, Type (0, 0), BuildingBlock: XIVTED_clean_linker_0, # of connection points: 2
#     Edge 33, Type (0, 0), BuildingBlock: XIVTED_clean_linker_0, # of connection points: 2
#     Edge 34, Type (0, 0), BuildingBlock: XIVTED_clean_linker_0, # of connection points: 2
#     Edge 35, Type (0, 0), BuildingBlock: XIVTED_clean_linker_0, # of connection points: 2
#     Edge 36, Type (0, 0), BuildingBlock: XIVTED_clean_linker_0, # of connection points: 2
#     Edge 37, Type (0, 0), BuildingBlock: XIVTED_clean_linker_0, # of connection points: 2
#     Edge 38, Type (0, 0), BuildingBlock: XIVTED_clean_linker_0, # of connection points: 2
#     Edge 39, Type (0, 0), BuildingBlock: XIVTED_clean_linker_0, # of connection points: 2
#     Edge 40, Type (0, 0), BuildingBlock: XIVTED_clean_linker_0, # of connection points: 2
#     Edge 41, Type (0, 0), BuildingBlock: XIVTED_clean_linker_0, # of connection points: 2
#     Edge 42, Type (0, 0), BuildingBlock: XIVTED_clean_linker_0, # of connection points: 2
#     Edge 43, Type (0, 0), BuildingBlock: XIVTED_clean_linker_0, # of connection points: 2
#     Edge 44, Type (0, 0), BuildingBlock: XIVTED_clean_linker_0, # of connection points: 2
#     Edge 45, Type (0, 0), BuildingBlock: XIVTED_clean_linker_0, # of connection points: 2
#     Edge 46, Type (0, 0), BuildingBlock: XIVTED_clean_linker_0, # of connection points: 2
#     Edge 47, Type (0, 0), BuildingBlock: XIVTED_clean_linker_0, # of connection points: 2
#     Edge 48, Type (0, 0), BuildingBlock: XIVTED_clean_linker_0, # of connection points: 2
#     Edge 49, Type (0, 0), BuildingBlock: XIVTED_clean_linker_0, # of connection points: 2
#     Edge 50, Type (0, 0), BuildingBlock: XIVTED_clean_linker_0, # of connection points: 2
#     Edge 51, Type (0, 0), BuildingBlock: XIVTED_clean_linker_0, # of connection points: 2
#     Edge 52, Type (0, 0), BuildingBlock: XIVTED_clean_linker_0, # of connection points: 2
#     Edge 53, Type (0, 0), BuildingBlock: XIVTED_clean_linker_0, # of connection points: 2
#     Edge 54, Type (0, 0), BuildingBlock: XIVTED_clean_linker_0, # of connection points: 2
#     Edge 55, Type (0, 0), BuildingBlock: XIVTED_clean_linker_0, # of connection points: 2
#     Edge 56, Type (0, 0), BuildingBlock: XIVTED_clean_linker_0, # of connection points: 2
#     Edge 57, Type (0, 0), BuildingBlock: XIVTED_clean_linker_0, # of connection points: 2
#     Edge 58, Type (0, 0), BuildingBlock: XIVTED_clean_linker_0, # of connection points: 2
#     Edge 59, Type (0, 0), BuildingBlock: XIVTED_clean_linker_0, # of connection points: 2
#     Edge 60, Type (0, 0), BuildingBlock: XIVTED_clean_linker_0, # of connection points: 2
#     Edge 61, Type (0, 0), BuildingBlock: XIVTED_clean_linker_0, # of connection points: 2
#     Edge 62, Type (0, 0), BuildingBlock: XIVTED_clean_linker_0, # of connection points: 2
#     Edge 63, Type (0, 0), BuildingBlock: XIVTED_clean_linker_0, # of connection points: 2
#     Edge 64, Type (0, 0), BuildingBlock: XIVTED_clean_linker_0, # of connection points: 2
#     Edge 65, Type (0, 0), BuildingBlock: XIVTED_clean_linker_0, # of connection points: 2
#     Edge 66, Type (0, 0), BuildingBlock: XIVTED_clean_linker_0, # of connection points: 2
#     Edge 67, Type (0, 0), BuildingBlock: XIVTED_clean_linker_0, # of connection points: 2
#     Edge 68, Type (0, 0), BuildingBlock: XIVTED_clean_linker_0, # of connection points: 2
#     Edge 69, Type (0, 0), BuildingBlock: XIVTED_clean_linker_0, # of connection points: 2
#     Edge 70, Type (0, 0), BuildingBlock: XIVTED_clean_linker_0, # of connection points: 2
#     Edge 71, Type (0, 0), BuildingBlock: XIVTED_clean_linker_0, # of connection points: 2
#     Edge 72, Type (0, 0), BuildingBlock: XIVTED_clean_linker_0, # of connection points: 2
#     Edge 73, Type (0, 0), BuildingBlock: XIVTED_clean_linker_0, # of connection points: 2
#     Edge 74, Type (0, 0), BuildingBlock: XIVTED_clean_linker_0, # of connection points: 2
#     Edge 75, Type (0, 0), BuildingBlock: XIVTED_clean_linker_0, # of connection points: 2
#     Edge 76, Type (0, 0), BuildingBlock: XIVTED_clean_linker_0, # of connection points: 2
#     Edge 77, Type (0, 0), BuildingBlock: XIVTED_clean_linker_0, # of connection points: 2
#     Edge 78, Type (0, 0), BuildingBlock: XIVTED_clean_linker_0, # of connection points: 2
#     Edge 79, Type (0, 0), BuildingBlock: XIVTED_clean_linker_0, # of connection points: 2
#     Edge 80, Type (0, 0), BuildingBlock: XIVTED_clean_linker_0, # of connection points: 2
#     Edge 81, Type (0, 0), BuildingBlock: XIVTED_clean_linker_0, # of connection points: 2
#     Edge 82, Type (0, 0), BuildingBlock: XIVTED_clean_linker_0, # of connection points: 2
#     Edge 83, Type (0, 0), BuildingBlock: XIVTED_clean_linker_0, # of connection points: 2
#     Edge 84, Type (0, 0), BuildingBlock: XIVTED_clean_linker_0, # of connection points: 2
#     Edge 85, Type (0, 0), BuildingBlock: XIVTED_clean_linker_0, # of connection points: 2
#     Edge 86, Type (0, 0), BuildingBlock: XIVTED_clean_linker_0, # of connection points: 2
#     Edge 87, Type (0, 0), BuildingBlock: XIVTED_clean_linker_0, # of connection points: 2
#     Edge 88, Type (0, 0), BuildingBlock: XIVTED_clean_linker_0, # of connection points: 2
#     Edge 89, Type (0, 0), BuildingBlock: XIVTED_clean_linker_0, # of connection points: 2
#     Edge 90, Type (0, 0), BuildingBlock: XIVTED_clean_linker_0, # of connection points: 2
#     Edge 91, Type (0, 0), BuildingBlock: XIVTED_clean_linker_0, # of connection points: 2
#     Edge 92, Type (0, 0), BuildingBlock: XIVTED_clean_linker_0, # of connection points: 2
#     Edge 93, Type (0, 0), BuildingBlock: XIVTED_clean_linker_0, # of connection points: 2
#     Edge 94, Type (0, 0), BuildingBlock: XIVTED_clean_linker_0, # of connection points: 2
#     Edge 95, Type (0, 0), BuildingBlock: XIVTED_clean_linker_0, # of connection points: 2
# Relax obj value: 0.107
# Max RMSD: 0.085
# Mean RMSD: 0.085
data_MOF--net-umq--node1-GALJAG_clean_sbu_0--edge1-XIVTED_clean_linker_0
_symmetry_space_group_name_H-M    P1
_symmetry_Int_Tables_number       1
_symmetry_cell_setting            triclinic
loop_
_symmetry_equiv_pos_as_xyz
'x, y, z'
_cell_length_a     63.50772
_cell_length_b     63.441368
_cell_length_c     48.325402
_cell_angle_alpha  90.021587
_cell_angle_beta   90.011189
_cell_angle_gamma 90.048908
loop_
_atom_site_label
_atom_site_type_symbol
_atom_site_fract_x
_atom_site_fract_y
_atom_site_fract_z
_atom_type_partial_charge
In0 In 0.22694 0.09572 0.15282 0.0
O1 O 0.19505 0.10906 0.16657 0.0
O2 O 0.22187 0.11488 0.19178 0.0
C3 C 0.2193 0.08494 0.09974 0.0
C4 C 0.22849 0.05938 0.18134 0.0
C5 C 0.25931 0.12255 0.14535 0.0
O6 O 0.20796 0.09796 0.11269 0.0
O7 O 0.23409 0.0771 0.11376 0.0
O8 O 0.26153 0.10487 0.15695 0.0
O9 O 0.24082 0.1266 0.1374 0.0
C10 C 0.20235 0.1173 0.18837 0.0
O11 O 0.24466 0.07041 0.17676 0.0
O12 O 0.21171 0.06638 0.17085 0.0
In13 In 0.90232 0.22816 0.15421 0.0
O14 O 0.8775 0.20211 0.15726 0.0
O15 O 0.89939 0.205 0.19018 0.0
C16 C 0.91461 0.2221 0.10126 0.0
C17 C 0.93657 0.23582 0.18527 0.0
C18 C 0.8741 0.26011 0.15366 0.0
O19 O 0.90922 0.20704 0.11675 0.0
O20 O 0.9141 0.23997 0.11259 0.0
O21 O 0.89351 0.2631 0.15722 0.0
O22 O 0.86894 0.2411 0.15049 0.0
C23 C 0.88358 0.19551 0.18054 0.0
O24 O 0.91846 0.24243 0.19166 0.0
O25 O 0.93744 0.22526 0.16311 0.0
In26 In 0.76518 0.89599 0.1513 0.0
O27 O 0.76233 0.91004 0.19451 0.0
O28 O 0.75688 0.93035 0.16032 0.0
C29 C 0.73111 0.87061 0.14639 0.0
C30 C 0.79663 0.87363 0.17446 0.0
C31 C 0.77552 0.90982 0.10019 0.0
O32 O 0.73214 0.8851 0.16421 0.0
O33 O 0.74705 0.86915 0.13104 0.0
O34 O 0.78826 0.89971 0.11518 0.0
O35 O 0.75792 0.91337 0.11126 0.0
C36 C 0.75788 0.92834 0.18626 0.0
O37 O 0.79754 0.89343 0.17195 0.0
O38 O 0.78023 0.86525 0.16467 0.0
In39 In 0.09641 0.76525 0.14738 0.0
O40 O 0.12721 0.78018 0.16088 0.0
O41 O 0.09905 0.79708 0.16941 0.0
C42 C 0.08257 0.77577 0.09638 0.0
C43 C 0.06448 0.75791 0.18279 0.0
C44 C 0.12128 0.73095 0.14196 0.0
O45 O 0.09263 0.78852 0.11146 0.0
O46 O 0.07911 0.75807 0.1073 0.0
O47 O 0.10604 0.73153 0.15866 0.0
O48 O 0.12372 0.74745 0.12787 0.0
C49 C 0.11884 0.79619 0.1717 0.0
O50 O 0.08318 0.76076 0.19068 0.0
O51 O 0.06184 0.75853 0.15692 0.0
In52 In 0.22768 0.90193 0.34245 0.0
O53 O 0.19588 0.88877 0.32821 0.0
O54 O 0.22289 0.8826 0.30351 0.0
C55 C 0.21876 0.91313 0.39505 0.0
C56 C 0.22962 0.93792 0.31319 0.0
C57 C 0.26004 0.87521 0.35067 0.0
O58 O 0.20818 0.89948 0.3821 0.0
O59 O 0.23354 0.9213 0.38133 0.0
O60 O 0.26243 0.89309 0.33964 0.0
O61 O 0.2414 0.87094 0.35778 0.0
C62 C 0.20331 0.88039 0.30659 0.0
O63 O 0.24578 0.92713 0.31868 0.0
O64 O 0.21268 0.93087 0.32318 0.0
In65 In 0.09329 0.23274 0.34545 0.0
O66 O 0.07976 0.24147 0.30333 0.0
O67 O 0.05827 0.23601 0.3363 0.0
C68 C 0.11841 0.26668 0.35282 0.0
C69 C 0.11525 0.20193 0.31986 0.0
C70 C 0.07965 0.22288 0.39667 0.0
O71 O 0.12044 0.24983 0.3663 0.0
O72 O 0.10345 0.26664 0.33564 0.0
O73 O 0.08986 0.21 0.38196 0.0
O74 O 0.07597 0.24036 0.38526 0.0
C75 C 0.06082 0.24053 0.3111 0.0
O76 O 0.1238 0.21777 0.33086 0.0
O77 O 0.09551 0.20114 0.3225 0.0
In78 In 0.76199 0.09135 0.33604 0.0
O79 O 0.79517 0.10296 0.32519 0.0
O80 O 0.77126 0.10554 0.29466 0.0
C81 C 0.76874 0.08213 0.38976 0.0
C82 C 0.75648 0.05417 0.31005 0.0
C83 C 0.73215 0.12127 0.3422 0.0
O84 O 0.78204 0.09199 0.37526 0.0
O85 O 0.75225 0.07671 0.37704 0.0
O86 O 0.72781 0.10254 0.33551 0.0
O87 O 0.75147 0.12486 0.34589 0.0
C88 C 0.79026 0.1086 0.30099 0.0
O89 O 0.74414 0.06954 0.30688 0.0
O90 O 0.77143 0.0574 0.32672 0.0
In91 In 0.905 0.7619 0.33826 0.0
O92 O 0.89601 0.79475 0.32195 0.0
O93 O 0.88481 0.76783 0.30042 0.0
C94 C 0.91296 0.77173 0.39147 0.0
C95 C 0.94155 0.75637 0.31097 0.0
C96 C 0.87833 0.72973 0.34802 0.0
O97 O 0.90081 0.78259 0.3765 0.0
O98 O 0.9214 0.75624 0.3794 0.0
O99 O 0.89681 0.72687 0.33915 0.0
O100 O 0.87345 0.74874 0.35217 0.0
C101 C 0.88552 0.78763 0.30182 0.0
O102 O 0.92608 0.74409 0.30828 0.0
O103 O 0.93877 0.77128 0.32785 0.0
In104 In 0.7674 0.90402 0.84304 0.0
O105 O 0.78392 0.87259 0.83455 0.0
O106 O 0.79528 0.89985 0.814 0.0
C107 C 0.77708 0.91368 0.89601 0.0
C108 C 0.76369 0.93977 0.81339 0.0
C109 C 0.73129 0.88149 0.8414 0.0
O110 O 0.78649 0.89938 0.88274 0.0
O111 O 0.7631 0.92326 0.88243 0.0
O112 O 0.73828 0.88965 0.86336 0.0
O113 O 0.74233 0.88497 0.82019 0.0
C114 C 0.7968 0.88024 0.8174 0.0
O115 O 0.74874 0.92679 0.81587 0.0
O116 O 0.78014 0.93503 0.82659 0.0
In117 In 0.091 0.76817 0.84 0.0
O118 O 0.06629 0.74931 0.81635 0.0
O119 O 0.06177 0.78238 0.82049 0.0
C120 C 0.11831 0.73641 0.8489 0.0
C121 C 0.11221 0.79245 0.80375 0.0
C122 C 0.07995 0.77762 0.8925 0.0
O123 O 0.1003 0.73346 0.83854 0.0
O124 O 0.1224 0.7553 0.85504 0.0
O125 O 0.09335 0.78824 0.87919 0.0
O126 O 0.07191 0.76255 0.87916 0.0
C127 C 0.05515 0.76519 0.81065 0.0
O128 O 0.10361 0.80004 0.82511 0.0
O129 O 0.11031 0.77278 0.80106 0.0
In130 In 0.23544 0.09396 0.84215 0.0
O131 O 0.20406 0.11016 0.8329 0.0
O132 O 0.22615 0.10719 0.80015 0.0
C133 C 0.22685 0.08309 0.89485 0.0
C134 C 0.23979 0.05738 0.81444 0.0
C135 C 0.26616 0.12276 0.85033 0.0
O136 O 0.21373 0.09254 0.87967 0.0
O137 O 0.24413 0.07875 0.88326 0.0
O138 O 0.27005 0.10405 0.84314 0.0
O139 O 0.24691 0.12683 0.85345 0.0
C140 C 0.20836 0.1137 0.80784 0.0
O141 O 0.25267 0.07242 0.81213 0.0
O142 O 0.22489 0.06061 0.83119 0.0
In143 In 0.90132 0.22527 0.84403 0.0
O144 O 0.88105 0.19602 0.83624 0.0
O145 O 0.88709 0.21667 0.8025 0.0
C146 C 0.9141 0.21849 0.89655 0.0
C147 C 0.93748 0.22584 0.81517 0.0
C148 C 0.87428 0.25774 0.84971 0.0
O149 O 0.90417 0.20478 0.88284 0.0
O150 O 0.91793 0.23529 0.88356 0.0
O151 O 0.89195 0.2597 0.8381 0.0
O152 O 0.87032 0.23947 0.85856 0.0
C153 C 0.8783 0.20005 0.81089 0.0
O154 O 0.92663 0.24218 0.8194 0.0
O155 O 0.93042 0.20926 0.82625 0.0
In156 In 0.76205 0.09434 0.64812 0.0
O157 O 0.79265 0.1121 0.65688 0.0
O158 O 0.77026 0.10938 0.6894 0.0
C159 C 0.76904 0.08249 0.59523 0.0
C160 C 0.76089 0.0579 0.6765 0.0
C161 C 0.7303 0.12225 0.64272 0.0
O162 O 0.78206 0.09337 0.60884 0.0
O163 O 0.7528 0.07718 0.60851 0.0
O164 O 0.72798 0.10472 0.65464 0.0
O165 O 0.74854 0.1256 0.63345 0.0
C166 C 0.78797 0.11618 0.6817 0.0
O167 O 0.74454 0.06843 0.67118 0.0
O168 O 0.77772 0.06538 0.66664 0.0
In169 In 0.89781 0.76424 0.64967 0.0
O170 O 0.92329 0.74676 0.67371 0.0
O171 O 0.92703 0.77975 0.66744 0.0
C172 C 0.87127 0.73167 0.64186 0.0
C173 C 0.87646 0.78882 0.68544 0.0
C174 C 0.90825 0.77278 0.59672 0.0
O175 O 0.88911 0.72943 0.653 0.0
O176 O 0.86695 0.75025 0.63455 0.0
O177 O 0.89467 0.78333 0.6098 0.0
O178 O 0.91678 0.75823 0.6105 0.0
C179 C 0.93418 0.76308 0.67811 0.0
O180 O 0.88444 0.79601 0.66344 0.0
O181 O 0.87897 0.76931 0.68903 0.0
In182 In 0.22979 0.90179 0.6508 0.0
O183 O 0.19734 0.89906 0.67109 0.0
O184 O 0.21513 0.87105 0.66497 0.0
C185 C 0.2197 0.9149 0.59931 0.0
C186 C 0.23656 0.93409 0.68602 0.0
C187 C 0.26399 0.87665 0.64642 0.0
O188 O 0.20687 0.90504 0.61447 0.0
O189 O 0.23726 0.91864 0.61044 0.0
O190 O 0.26314 0.89176 0.66333 0.0
O191 O 0.24782 0.87449 0.63161 0.0
C192 C 0.19856 0.87935 0.67434 0.0
O193 O 0.23276 0.91559 0.69406 0.0
O194 O 0.2372 0.93637 0.6601 0.0
In195 In 0.09385 0.22743 0.65267 0.0
O196 O 0.11511 0.19877 0.65941 0.0
O197 O 0.10849 0.21846 0.6939 0.0
C198 C 0.08081 0.21934 0.60056 0.0
C199 C 0.05749 0.22741 0.68113 0.0
C200 C 0.11965 0.26107 0.64737 0.0
O201 O 0.09167 0.20642 0.61432 0.0
O202 O 0.07622 0.23607 0.61327 0.0
O203 O 0.1033 0.26142 0.66211 0.0
O204 O 0.12298 0.24379 0.63527 0.0
C205 C 0.11772 0.20228 0.68489 0.0
O206 O 0.06712 0.24413 0.67482 0.0
O207 O 0.06585 0.21067 0.67229 0.0
In208 In 0.72903 0.59271 0.65551 0.0
O209 O 0.69803 0.60795 0.66871 0.0
O210 O 0.72482 0.61224 0.69451 0.0
C211 C 0.7195 0.58088 0.60333 0.0
C212 C 0.73044 0.55686 0.68516 0.0
C213 C 0.76145 0.61911 0.64587 0.0
O214 O 0.70839 0.59378 0.61679 0.0
O215 O 0.73511 0.57368 0.61638 0.0
O216 O 0.76378 0.60168 0.65808 0.0
O217 O 0.74284 0.62308 0.63837 0.0
C218 C 0.70554 0.61588 0.69056 0.0
O219 O 0.74677 0.56722 0.67913 0.0
O220 O 0.71352 0.56429 0.67561 0.0
In221 In 0.40129 0.73182 0.65756 0.0
O222 O 0.38386 0.70081 0.66526 0.0
O223 O 0.38479 0.72329 0.69783 0.0
C224 C 0.41356 0.72488 0.60477 0.0
C225 C 0.43771 0.73352 0.68606 0.0
C226 C 0.37385 0.76401 0.65195 0.0
O227 O 0.40267 0.7118 0.61827 0.0
O228 O 0.41871 0.74116 0.61813 0.0
O229 O 0.39024 0.76537 0.66657 0.0
O230 O 0.37129 0.74645 0.64023 0.0
C231 C 0.37868 0.7054 0.68974 0.0
O232 O 0.42747 0.7498 0.6795 0.0
O233 O 0.42992 0.71642 0.67749 0.0
In234 In 0.26041 0.40198 0.65408 0.0
O235 O 0.25636 0.4158 0.69727 0.0
O236 O 0.25345 0.43664 0.66312 0.0
C237 C 0.22637 0.37679 0.64784 0.0
C238 C 0.29116 0.37923 0.67825 0.0
C239 C 0.27105 0.41566 0.60306 0.0
O240 O 0.22697 0.39135 0.66561 0.0
O241 O 0.24268 0.37524 0.63319 0.0
O242 O 0.28373 0.40559 0.6182 0.0
O243 O 0.25339 0.41925 0.61398 0.0
C244 C 0.2533 0.43439 0.68905 0.0
O245 O 0.2926 0.39895 0.67512 0.0
O246 O 0.27466 0.3711 0.66841 0.0
In247 In 0.59238 0.26647 0.65062 0.0
O248 O 0.5664 0.24972 0.67435 0.0
O249 O 0.56331 0.28275 0.6679 0.0
C250 C 0.61943 0.234 0.64504 0.0
C251 C 0.61507 0.29167 0.68422 0.0
C252 C 0.58072 0.27361 0.59774 0.0
O253 O 0.60176 0.23202 0.65667 0.0
O254 O 0.62336 0.25227 0.63619 0.0
O255 O 0.59109 0.28684 0.61168 0.0
O256 O 0.57583 0.25706 0.61068 0.0
C257 C 0.55578 0.26621 0.67854 0.0
O258 O 0.61179 0.29613 0.65912 0.0
O259 O 0.60697 0.27458 0.69222 0.0
In260 In 0.73251 0.3983 0.84441 0.0
O261 O 0.70206 0.37978 0.83719 0.0
O262 O 0.72302 0.38392 0.8033 0.0
C263 C 0.7272 0.41165 0.89696 0.0
C264 C 0.73365 0.43454 0.8157 0.0
C265 C 0.76385 0.36996 0.84986 0.0
O266 O 0.71312 0.40158 0.88408 0.0
O267 O 0.74365 0.41525 0.88316 0.0
O268 O 0.76633 0.38732 0.83756 0.0
O269 O 0.74563 0.36696 0.85942 0.0
C270 C 0.70586 0.37638 0.81192 0.0
O271 O 0.74975 0.42321 0.8193 0.0
O272 O 0.71711 0.42786 0.82723 0.0
In273 In 0.59647 0.73523 0.84429 0.0
O274 O 0.62704 0.7172 0.83551 0.0
O275 O 0.59952 0.70831 0.81351 0.0
C276 C 0.58857 0.72517 0.89764 0.0
C277 C 0.55956 0.73858 0.81714 0.0
C278 C 0.61923 0.7712 0.84126 0.0
O279 O 0.57863 0.73934 0.88486 0.0
O280 O 0.6024 0.71586 0.88344 0.0
O281 O 0.61113 0.76471 0.86349 0.0
O282 O 0.61553 0.75979 0.82046 0.0
C283 C 0.6189 0.7054 0.8174 0.0
O284 O 0.57264 0.75356 0.81822 0.0
O285 O 0.56482 0.72236 0.83052 0.0
In286 In 0.25977 0.59532 0.8435 0.0
O287 O 0.24322 0.57506 0.81139 0.0
O288 O 0.26871 0.5613 0.83351 0.0
C289 C 0.22838 0.6238 0.84888 0.0
C290 C 0.28873 0.61547 0.81214 0.0
C291 C 0.26703 0.58321 0.89617 0.0
O292 O 0.22504 0.60486 0.84234 0.0
O293 O 0.24747 0.62833 0.85273 0.0
O294 O 0.28147 0.59004 0.88063 0.0
O295 O 0.24911 0.58216 0.88499 0.0
C296 C 0.25471 0.55911 0.81516 0.0
O297 O 0.28946 0.61547 0.83823 0.0
O298 O 0.27363 0.60518 0.80199 0.0
In299 In 0.40085 0.26961 0.84372 0.0
O300 O 0.3881 0.30167 0.82975 0.0
O301 O 0.38019 0.27455 0.80604 0.0
C302 C 0.41203 0.27815 0.89648 0.0
C303 C 0.43612 0.26751 0.81304 0.0
C304 C 0.37471 0.23678 0.85217 0.0
O305 O 0.39819 0.28862 0.88377 0.0
O306 O 0.42053 0.26379 0.88236 0.0
O307 O 0.39282 0.23461 0.84179 0.0
O308 O 0.36989 0.25547 0.85848 0.0
C309 C 0.37865 0.29424 0.80891 0.0
O310 O 0.42506 0.2515 0.81843 0.0
O311 O 0.42975 0.28444 0.82386 0.0
In312 In 0.2648 0.40195 0.34707 0.0
O313 O 0.29356 0.38107 0.33912 0.0
O314 O 0.27225 0.38641 0.30594 0.0
C315 C 0.27323 0.41487 0.39916 0.0
C316 C 0.26541 0.43811 0.31809 0.0
C317 C 0.23099 0.37652 0.35318 0.0
O318 O 0.2855 0.40301 0.38578 0.0
O319 O 0.257 0.42048 0.38607 0.0
O320 O 0.23042 0.39325 0.33915 0.0
O321 O 0.24854 0.37271 0.36428 0.0
C322 C 0.28896 0.37769 0.31409 0.0
O323 O 0.24856 0.42874 0.32446 0.0
O324 O 0.282 0.42959 0.32715 0.0
In325 In 0.5957 0.26756 0.33949 0.0
O326 O 0.57161 0.25035 0.3129 0.0
O327 O 0.56529 0.28225 0.32348 0.0
C328 C 0.6235 0.23554 0.34427 0.0
C329 C 0.6167 0.29499 0.30707 0.0
C330 C 0.58419 0.27415 0.39264 0.0
O331 O 0.60487 0.23287 0.33597 0.0
O332 O 0.62809 0.25432 0.35029 0.0
O333 O 0.59485 0.2873 0.37901 0.0
O334 O 0.57906 0.25783 0.37936 0.0
C335 C 0.55945 0.26596 0.3106 0.0
O336 O 0.61255 0.29884 0.33211 0.0
O337 O 0.61041 0.27729 0.29851 0.0
In338 In 0.7314 0.59519 0.34819 0.0
O339 O 0.7161 0.62577 0.33462 0.0
O340 O 0.6995 0.59739 0.32616 0.0
C341 C 0.72169 0.58113 0.39936 0.0
C342 C 0.73904 0.56346 0.31251 0.0
C343 C 0.76537 0.62046 0.35442 0.0
O344 O 0.70869 0.59115 0.38466 0.0
O345 O 0.73923 0.57782 0.38799 0.0
O346 O 0.76542 0.60478 0.33838 0.0
O347 O 0.74839 0.62317 0.36737 0.0
C348 C 0.70014 0.61721 0.32392 0.0
O349 O 0.73764 0.58242 0.30491 0.0
O350 O 0.7368 0.56049 0.33816 0.0
In351 In 0.39934 0.73217 0.34683 0.0
O352 O 0.38024 0.70228 0.33832 0.0
O353 O 0.3854 0.72358 0.30503 0.0
C354 C 0.41144 0.72508 0.39961 0.0
C355 C 0.43571 0.73283 0.31832 0.0
C356 C 0.37148 0.76396 0.35274 0.0
O357 O 0.40146 0.71161 0.38556 0.0
O358 O 0.41567 0.74189 0.38685 0.0
O359 O 0.38943 0.76665 0.34212 0.0
O360 O 0.3677 0.74537 0.36043 0.0
C361 C 0.37735 0.70648 0.31305 0.0
O362 O 0.42454 0.74908 0.32168 0.0
O363 O 0.4289 0.71646 0.33016 0.0
In364 In 0.2654 0.59337 0.1535 0.0
O365 O 0.24831 0.56786 0.17755 0.0
O366 O 0.28139 0.56451 0.17204 0.0
C367 C 0.23311 0.62047 0.14685 0.0
C368 C 0.29054 0.61637 0.18683 0.0
C369 C 0.27198 0.58057 0.10094 0.0
O370 O 0.23127 0.60346 0.16013 0.0
O371 O 0.25117 0.62377 0.13696 0.0
O372 O 0.28527 0.5915 0.11406 0.0
O373 O 0.25579 0.57566 0.11459 0.0
C374 C 0.26468 0.55726 0.18254 0.0
O375 O 0.29544 0.61232 0.16205 0.0
O376 O 0.27309 0.60895 0.19451 0.0
In377 In 0.39961 0.26441 0.15345 0.0
O378 O 0.38019 0.29373 0.16311 0.0
O379 O 0.38477 0.27136 0.19531 0.0
C380 C 0.41124 0.27384 0.10115 0.0
C381 C 0.43625 0.26371 0.18141 0.0
C382 C 0.37254 0.23202 0.14634 0.0
O383 O 0.40059 0.28625 0.11595 0.0
O384 O 0.4164 0.25687 0.11291 0.0
O385 O 0.3901 0.2298 0.15819 0.0
O386 O 0.36878 0.25044 0.13797 0.0
C387 C 0.37675 0.28865 0.18796 0.0
O388 O 0.42615 0.24715 0.1756 0.0
O389 O 0.42819 0.28053 0.1724 0.0
In390 In 0.73572 0.40488 0.15514 0.0
O391 O 0.70529 0.38583 0.15955 0.0
O392 O 0.72025 0.39664 0.1962 0.0
C393 C 0.72997 0.41595 0.10181 0.0
C394 C 0.74173 0.44117 0.18291 0.0
C395 C 0.76566 0.37471 0.15251 0.0
O396 O 0.71491 0.41059 0.11732 0.0
O397 O 0.74779 0.41611 0.11335 0.0
O398 O 0.76999 0.39378 0.15715 0.0
O399 O 0.74637 0.37095 0.14906 0.0
C400 C 0.70521 0.38647 0.18565 0.0
O401 O 0.75246 0.42481 0.18739 0.0
O402 O 0.72809 0.43938 0.16403 0.0
In403 In 0.59255 0.72713 0.15665 0.0
O404 O 0.60446 0.69489 0.17128 0.0
O405 O 0.61245 0.72194 0.195 0.0
C406 C 0.58365 0.71867 0.10309 0.0
C407 C 0.55587 0.72949 0.1844 0.0
C408 C 0.61904 0.76001 0.15044 0.0
O409 O 0.59721 0.70847 0.11667 0.0
O410 O 0.57415 0.73266 0.11677 0.0
O411 O 0.60179 0.76156 0.16324 0.0
O412 O 0.62283 0.74195 0.14072 0.0
C413 C 0.61368 0.70222 0.19234 0.0
O414 O 0.56635 0.74563 0.17779 0.0
O415 O 0.5635 0.71226 0.1761 0.0
H416 H 0.37616 0.19124 0.1643 0.0
H417 H 0.25823 0.16125 0.12079 0.0
H418 H 0.33384 0.23356 0.12199 0.0
H419 H 0.29998 0.11848 0.16329 0.0
H420 H 0.28665 0.18711 0.11843 0.0
H421 H 0.34938 0.16353 0.16158 0.0
C422 C 0.36128 0.19465 0.1543 0.0
C423 C 0.35714 0.21474 0.14349 0.0
C424 C 0.28966 0.17204 0.12816 0.0
C425 C 0.32647 0.18321 0.14037 0.0
C426 C 0.27343 0.15727 0.1295 0.0
C427 C 0.27674 0.13776 0.14239 0.0
C428 C 0.30934 0.16731 0.13988 0.0
C429 C 0.29676 0.13339 0.15325 0.0
C430 C 0.346 0.17885 0.15276 0.0
C431 C 0.33764 0.21831 0.1307 0.0
N432 N 0.31229 0.14811 0.15188 0.0
N433 N 0.323 0.20274 0.12962 0.0
H434 H 0.8812 0.30234 0.16069 0.0
H435 H 0.75958 0.33281 0.14293 0.0
H436 H 0.83174 0.25715 0.14531 0.0
H437 H 0.80823 0.37848 0.16026 0.0
H438 H 0.78611 0.30504 0.14265 0.0
H439 H 0.85502 0.33064 0.15971 0.0
C440 C 0.86483 0.29839 0.1571 0.0
C441 C 0.8586 0.2774 0.15311 0.0
C442 C 0.79103 0.32112 0.14648 0.0
C443 C 0.82862 0.30961 0.15192 0.0
C444 C 0.77588 0.33699 0.14663 0.0
C445 C 0.78173 0.35796 0.15167 0.0
C446 C 0.81223 0.32623 0.15144 0.0
C447 C 0.80307 0.36249 0.15631 0.0
C448 C 0.8499 0.31454 0.15654 0.0
C449 C 0.83721 0.27313 0.14852 0.0
N450 N 0.81757 0.34674 0.15612 0.0
N451 N 0.823 0.2891 0.14806 0.0
H452 H 0.61679 0.79901 0.17452 0.0
H453 H 0.72715 0.83696 0.11175 0.0
H454 H 0.65546 0.76107 0.1206 0.0
H455 H 0.69467 0.87035 0.17678 0.0
H456 H 0.69872 0.81107 0.11072 0.0
H457 H 0.64297 0.82732 0.17171 0.0
C458 C 0.63073 0.7967 0.16197 0.0
C459 C 0.63405 0.77765 0.14787 0.0
C460 C 0.69774 0.8241 0.12516 0.0
C461 C 0.66396 0.80988 0.14455 0.0
C462 C 0.71394 0.83891 0.1257 0.0
C463 C 0.71329 0.85575 0.14449 0.0
C464 C 0.68071 0.82614 0.14348 0.0
C465 C 0.6958 0.85754 0.16206 0.0
C466 C 0.64567 0.81282 0.16042 0.0
C467 C 0.65234 0.77547 0.1319 0.0
N468 N 0.68021 0.84285 0.1612 0.0
N469 N 0.66662 0.79137 0.13071 0.0
H470 H 0.2328 0.65663 0.11641 0.0
H471 H 0.11979 0.69366 0.17044 0.0
H472 H 0.19386 0.61875 0.1701 0.0
H473 H 0.15632 0.72763 0.10975 0.0
H474 H 0.14606 0.66543 0.16968 0.0
H475 H 0.20439 0.68236 0.11288 0.0
C476 C 0.21822 0.6537 0.12738 0.0
C477 C 0.21569 0.63561 0.14368 0.0
C478 C 0.14824 0.67899 0.15639 0.0
C479 C 0.18311 0.66501 0.13983 0.0
C480 C 0.13326 0.69509 0.15681 0.0
C481 C 0.13597 0.71303 0.14024 0.0
C482 C 0.16609 0.68096 0.13939 0.0
C483 C 0.15366 0.71409 0.12293 0.0
C484 C 0.20198 0.66837 0.12533 0.0
C485 C 0.19645 0.63254 0.15737 0.0
N486 N 0.16811 0.69835 0.12309 0.0
N487 N 0.18092 0.64718 0.15528 0.0
H488 H 0.30118 0.88 0.33501 0.0
H489 H 0.33218 0.76162 0.37525 0.0
H490 H 0.25844 0.83577 0.37311 0.0
H491 H 0.37505 0.805 0.33576 0.0
H492 H 0.30571 0.78943 0.37726 0.0
H493 H 0.3292 0.85362 0.33775 0.0
C494 C 0.29774 0.86478 0.34411 0.0
C495 C 0.27745 0.86001 0.35373 0.0
C496 C 0.32092 0.79293 0.36825 0.0
C497 C 0.30935 0.82977 0.35684 0.0
C498 C 0.33605 0.77705 0.3671 0.0
C499 C 0.35579 0.781 0.3552 0.0
C500 C 0.32553 0.81293 0.35734 0.0
C501 C 0.35999 0.80129 0.34504 0.0
C502 C 0.31372 0.84973 0.34564 0.0
C503 C 0.27385 0.84008 0.36536 0.0
N504 N 0.34494 0.81649 0.34623 0.0
N505 N 0.28962 0.82566 0.36648 0.0
H506 H 0.19275 0.37946 0.3274 0.0
H507 H 0.15169 0.26951 0.38815 0.0
H508 H 0.2281 0.3407 0.38415 0.0
H509 H 0.11905 0.30404 0.32431 0.0
H510 H 0.17786 0.29759 0.39065 0.0
H511 H 0.16373 0.35407 0.32954 0.0
C512 C 0.19434 0.36567 0.34045 0.0
C513 C 0.21288 0.36208 0.3555 0.0
C514 C 0.16493 0.29911 0.37617 0.0
C515 C 0.17983 0.33303 0.35805 0.0
C516 C 0.14996 0.2831 0.37478 0.0
C517 C 0.13327 0.28441 0.35586 0.0
C518 C 0.16325 0.31659 0.3585 0.0
C519 C 0.13174 0.30239 0.33911 0.0
C520 C 0.1778 0.35119 0.34163 0.0
C521 C 0.21412 0.34401 0.3721 0.0
N522 N 0.14663 0.31776 0.34071 0.0
N523 N 0.19785 0.33013 0.37286 0.0
H524 H 0.73782 0.16242 0.35703 0.0
H525 H 0.61711 0.1938 0.33296 0.0
H526 H 0.68976 0.11786 0.33316 0.0
H527 H 0.66488 0.2378 0.3595 0.0
H528 H 0.64322 0.16551 0.33431 0.0
H529 H 0.71108 0.19002 0.35947 0.0
C530 C 0.72161 0.15844 0.35239 0.0
C531 C 0.71599 0.13785 0.34478 0.0
C532 C 0.64798 0.18134 0.33994 0.0
C533 C 0.6853 0.16935 0.34744 0.0
C534 C 0.63309 0.19748 0.33917 0.0
C535 C 0.63888 0.21817 0.34603 0.0
C536 C 0.66884 0.18593 0.34755 0.0
C537 C 0.65977 0.22207 0.35398 0.0
C538 C 0.70634 0.17419 0.35379 0.0
C539 C 0.69476 0.13354 0.33905 0.0
N540 N 0.67401 0.20611 0.35442 0.0
N541 N 0.68019 0.14919 0.3404 0.0
H542 H 0.76703 0.65686 0.38425 0.0
H543 H 0.88278 0.6883 0.33333 0.0
H544 H 0.80418 0.61776 0.32989 0.0
H545 H 0.83942 0.73176 0.37165 0.0
H546 H 0.85629 0.66035 0.33749 0.0
H547 H 0.79566 0.68252 0.38552 0.0
C548 C 0.7813 0.6536 0.37273 0.0
C549 C 0.78321 0.63523 0.35679 0.0
C550 C 0.85265 0.67599 0.3451 0.0
C551 C 0.81603 0.66455 0.35812 0.0
C552 C 0.86775 0.6919 0.34281 0.0
C553 C 0.8632 0.71237 0.35202 0.0
C554 C 0.83296 0.68059 0.35686 0.0
C555 C 0.84352 0.71621 0.36414 0.0
C556 C 0.79761 0.66829 0.37341 0.0
C557 C 0.80205 0.63179 0.34233 0.0
N558 N 0.8291 0.70048 0.36616 0.0
N559 N 0.81774 0.64637 0.34326 0.0
H560 H 0.70563 0.87092 0.88464 0.0
H561 H 0.63917 0.7876 0.796 0.0
H562 H 0.71418 0.86097 0.79702 0.0
H563 H 0.63107 0.79706 0.88378 0.0
H564 H 0.66449 0.81664 0.79517 0.0
H565 H 0.67615 0.84613 0.88399 0.0
C566 C 0.70118 0.86364 0.86522 0.0
C567 C 0.71243 0.86789 0.84087 0.0
C568 C 0.65707 0.81247 0.81459 0.0
C569 C 0.67879 0.83943 0.83999 0.0
C570 C 0.64259 0.79592 0.81506 0.0
C571 C 0.63312 0.78985 0.84003 0.0
C572 C 0.66217 0.82299 0.8393 0.0
C573 C 0.63809 0.80118 0.8641 0.0
C574 C 0.68437 0.84947 0.86486 0.0
C575 C 0.70598 0.85806 0.81628 0.0
N576 N 0.65238 0.81712 0.86317 0.0
N577 N 0.68967 0.84418 0.8165 0.0
H578 H 0.15842 0.73944 0.86879 0.0
H579 H 0.18629 0.61843 0.83893 0.0
H580 H 0.11365 0.69461 0.83625 0.0
H581 H 0.23193 0.66502 0.86434 0.0
H582 H 0.15871 0.6453 0.84149 0.0
H583 H 0.18478 0.7115 0.87119 0.0
C584 C 0.1541 0.72367 0.86231 0.0
C585 C 0.13387 0.71933 0.85217 0.0
C586 C 0.17475 0.64962 0.84659 0.0
C587 C 0.16398 0.68729 0.85474 0.0
C588 C 0.19048 0.6343 0.84515 0.0
C589 C 0.21142 0.63956 0.8513 0.0
C590 C 0.18002 0.67033 0.85429 0.0
C591 C 0.21599 0.66032 0.85931 0.0
C592 C 0.16917 0.70773 0.86363 0.0
C593 C 0.12911 0.69862 0.84411 0.0
N594 N 0.20043 0.67495 0.8605 0.0
N595 N 0.14409 0.68337 0.84546 0.0
H596 H 0.38118 0.19523 0.83963 0.0
H597 H 0.26133 0.16323 0.86818 0.0
H598 H 0.33438 0.23809 0.8716 0.0
H599 H 0.30848 0.11902 0.8406 0.0
H600 H 0.28841 0.19039 0.87169 0.0
H601 H 0.35539 0.16661 0.842 0.0
C602 C 0.36552 0.19858 0.84732 0.0
C603 C 0.35985 0.21906 0.85528 0.0
C604 C 0.2929 0.17473 0.865 0.0
C605 C 0.33027 0.18648 0.85792 0.0
C606 C 0.27743 0.15922 0.86298 0.0
C607 C 0.28267 0.13889 0.85393 0.0
C608 C 0.31377 0.16994 0.85778 0.0
C609 C 0.30378 0.13453 0.84758 0.0
C610 C 0.35081 0.18225 0.84867 0.0
C611 C 0.33938 0.22253 0.86515 0.0
N612 N 0.31856 0.14998 0.84946 0.0
N613 N 0.3253 0.20643 0.86603 0.0
H614 H 0.8786 0.2981 0.83066 0.0
H615 H 0.76195 0.33164 0.87534 0.0
H616 H 0.83541 0.25708 0.87374 0.0
H617 H 0.80406 0.37225 0.82982 0.0
H618 H 0.78956 0.30494 0.87748 0.0
H619 H 0.8524 0.3263 0.83266 0.0
C620 C 0.86363 0.29507 0.84065 0.0
C621 C 0.8591 0.27522 0.85193 0.0
C622 C 0.79282 0.31971 0.8671 0.0
C623 C 0.82907 0.30733 0.85425 0.0
C624 C 0.77705 0.33496 0.86587 0.0
C625 C 0.78072 0.35412 0.85226 0.0
C626 C 0.81238 0.32364 0.85456 0.0
C627 C 0.80058 0.35764 0.84044 0.0
C628 C 0.84869 0.31116 0.84177 0.0
C629 C 0.8395 0.27214 0.86469 0.0
N630 N 0.81566 0.34249 0.84177 0.0
N631 N 0.82518 0.28801 0.86541 0.0
H632 H 0.61539 0.19361 0.66421 0.0
H633 H 0.73179 0.1607 0.61761 0.0
H634 H 0.65807 0.23478 0.62051 0.0
H635 H 0.69016 0.11951 0.663 0.0
H636 H 0.70404 0.18725 0.61609 0.0
H637 H 0.64166 0.16546 0.66168 0.0
C638 C 0.63026 0.19668 0.65397 0.0
C639 C 0.63464 0.21656 0.64266 0.0
C640 C 0.70091 0.17239 0.62631 0.0
C641 C 0.66471 0.18452 0.63973 0.0
C642 C 0.71676 0.15722 0.62717 0.0
C643 C 0.71328 0.13794 0.64057 0.0
C644 C 0.68145 0.16827 0.63901 0.0
C645 C 0.69349 0.13422 0.65253 0.0
C646 C 0.64524 0.18062 0.65255 0.0
C647 C 0.6541 0.2197 0.6296 0.0
N648 N 0.67833 0.1493 0.65157 0.0
N649 N 0.66844 0.20388 0.62857 0.0
H650 H 0.80255 0.61504 0.66206 0.0
H651 H 0.83244 0.73284 0.61784 0.0
H652 H 0.75983 0.65763 0.62093 0.0
H653 H 0.87561 0.6908 0.65912 0.0
H654 H 0.80655 0.70444 0.6157 0.0
H655 H 0.83044 0.64152 0.65814 0.0
C656 C 0.79909 0.62991 0.65203 0.0
C657 C 0.77884 0.63423 0.64195 0.0
C658 C 0.82172 0.70136 0.6251 0.0
C659 C 0.81057 0.66457 0.63749 0.0
C660 C 0.83651 0.71757 0.62631 0.0
C661 C 0.85613 0.71418 0.63883 0.0
C662 C 0.82655 0.68161 0.6366 0.0
C663 C 0.86062 0.69409 0.64938 0.0
C664 C 0.815 0.64501 0.64982 0.0
C665 C 0.77521 0.6537 0.6291 0.0
N666 N 0.84587 0.67857 0.64818 0.0
N667 N 0.79089 0.66819 0.62737 0.0
H668 H 0.30038 0.8772 0.67685 0.0
H669 H 0.33869 0.76529 0.61956 0.0
H670 H 0.26789 0.84208 0.61334 0.0
H671 H 0.37448 0.80233 0.67792 0.0
H672 H 0.31306 0.79384 0.61622 0.0
H673 H 0.32835 0.85064 0.67664 0.0
C674 C 0.29922 0.86398 0.66273 0.0
C675 C 0.28177 0.86176 0.64518 0.0
C676 C 0.32656 0.79579 0.62968 0.0
C677 C 0.31354 0.83131 0.64494 0.0
C678 C 0.34117 0.77948 0.63162 0.0
C679 C 0.35866 0.78144 0.64914 0.0
C680 C 0.32938 0.81417 0.64549 0.0
C681 C 0.36116 0.80018 0.66422 0.0
C682 C 0.31516 0.84883 0.66263 0.0
C683 C 0.28104 0.84437 0.62728 0.0
N684 N 0.34661 0.8158 0.66216 0.0
N685 N 0.29663 0.82975 0.62774 0.0
H686 H 0.15445 0.26463 0.61459 0.0
H687 H 0.18987 0.37557 0.6781 0.0
H688 H 0.11765 0.29872 0.67484 0.0
H689 H 0.22298 0.34359 0.6124 0.0
H690 H 0.1624 0.34846 0.67611 0.0
H691 H 0.17905 0.29417 0.61246 0.0
C692 C 0.15152 0.27839 0.6273 0.0
C693 C 0.13407 0.27921 0.64502 0.0
C694 C 0.1756 0.34748 0.662 0.0
C695 C 0.16219 0.31307 0.6428 0.0
C696 C 0.19126 0.36294 0.66312 0.0
C697 C 0.20876 0.36173 0.6455 0.0
C698 C 0.17757 0.33066 0.64323 0.0
C699 C 0.20979 0.34507 0.62645 0.0
C700 C 0.16555 0.29527 0.62606 0.0
C701 C 0.13096 0.29744 0.66095 0.0
N702 N 0.19449 0.33013 0.62595 0.0
N703 N 0.14497 0.31362 0.6596 0.0
H704 H 0.18982 0.10106 0.06419 0.0
H705 H 0.25142 0.06071 0.93066 0.0
H706 H 0.24343 0.05938 0.06732 0.0
H707 H 0.19372 0.09642 0.92648 0.0
H708 H 0.24692 0.05752 0.98066 0.0
H709 H 0.189 0.0971 0.01381 0.0
C710 C 0.20125 0.09087 0.0543 0.0
C711 C 0.21685 0.0807 0.06989 0.0
C712 C 0.23511 0.06587 0.96882 0.0
C713 C 0.21614 0.07624 0.01234 0.0
C714 C 0.23769 0.06769 0.94026 0.0
C715 C 0.22302 0.07901 0.92448 0.0
C716 C 0.21786 0.07563 0.98174 0.0
C717 C 0.20545 0.08765 0.93793 0.0
C718 C 0.20078 0.08862 0.02555 0.0
C719 C 0.23122 0.06763 0.05606 0.0
N720 N 0.20348 0.08599 0.96585 0.0
N721 N 0.23066 0.06596 0.02807 0.0
H722 H 0.90486 0.18521 0.93064 0.0
H723 H 0.93161 0.25116 0.06638 0.0
H724 H 0.93443 0.24647 0.93 0.0
H725 H 0.90865 0.18717 0.06878 0.0
H726 H 0.93587 0.24819 0.0164 0.0
H727 H 0.90919 0.18392 0.98098 0.0
C728 C 0.91252 0.19825 0.94105 0.0
C729 C 0.91908 0.21608 0.92621 0.0
C730 C 0.93011 0.23468 0.02782 0.0
C731 C 0.92392 0.21481 0.98368 0.0
C732 C 0.92766 0.23639 0.05637 0.0
C733 C 0.91957 0.21945 0.07165 0.0
C734 C 0.92417 0.21598 0.01433 0.0
C735 C 0.91486 0.20063 0.0577 0.0
C736 C 0.91497 0.19752 0.96978 0.0
C737 C 0.92896 0.2325 0.94068 0.0
N738 N 0.91697 0.19948 0.02973 0.0
N739 N 0.93087 0.23156 0.96862 0.0
H740 H 0.75669 0.94174 0.92936 0.0
H741 H 0.80871 0.89702 0.06817 0.0
H742 H 0.80547 0.89443 0.93036 0.0
H743 H 0.75194 0.9343 0.06573 0.0
H744 H 0.81252 0.90172 0.01809 0.0
H745 H 0.75966 0.94491 0.97958 0.0
C746 C 0.76822 0.9322 0.94012 0.0
C747 C 0.78067 0.9176 0.92575 0.0
C748 C 0.79938 0.90907 0.02859 0.0
C749 C 0.78409 0.92108 0.98322 0.0
C750 C 0.79725 0.90648 0.05716 0.0
C751 C 0.77985 0.91509 0.07101 0.0
C752 C 0.78406 0.92044 0.01388 0.0
C753 C 0.76548 0.92722 0.0558 0.0
C754 C 0.76987 0.93398 0.9688 0.0
C755 C 0.79543 0.90574 0.94071 0.0
N756 N 0.76781 0.92939 0.02802 0.0
N757 N 0.7966 0.9076 0.9687 0.0
H758 H 0.05264 0.75591 0.92546 0.0
H759 H 0.0949 0.80935 0.06465 0.0
H760 H 0.09722 0.80727 0.92691 0.0
H761 H 0.05837 0.75201 0.06177 0.0
H762 H 0.09018 0.81329 0.01459 0.0
H763 H 0.04888 0.75886 0.97559 0.0
C764 C 0.06145 0.76799 0.93631 0.0
C765 C 0.07548 0.78119 0.92209 0.0
C766 C 0.08298 0.8 0.02499 0.0
C767 C 0.07136 0.78456 0.97949 0.0
C768 C 0.08559 0.79779 0.05355 0.0
C769 C 0.07723 0.78019 0.06725 0.0
C770 C 0.07187 0.78452 0.01015 0.0
C771 C 0.06528 0.7657 0.05194 0.0
C772 C 0.05932 0.76964 0.96493 0.0
C773 C 0.08637 0.79666 0.93714 0.0
N774 N 0.06312 0.76809 0.02417 0.0
N775 N 0.08426 0.79778 0.9651 0.0
H776 H 0.24057 0.94088 0.42732 0.0
H777 H 0.18639 0.90189 0.56762 0.0
H778 H 0.18933 0.89621 0.43004 0.0
H779 H 0.24384 0.93814 0.564 0.0
H780 H 0.1829 0.90527 0.51733 0.0
H781 H 0.23758 0.94556 0.47731 0.0
C782 C 0.22852 0.93223 0.43841 0.0
C783 C 0.21534 0.91794 0.42459 0.0
C784 C 0.19612 0.91271 0.52761 0.0
C785 C 0.2119 0.92313 0.48184 0.0
C786 C 0.19807 0.91086 0.5563 0.0
C787 C 0.21556 0.91954 0.5699 0.0
C788 C 0.21175 0.92337 0.51251 0.0
C789 C 0.23022 0.93102 0.55428 0.0
C790 C 0.22684 0.93488 0.46696 0.0
C791 C 0.19992 0.90725 0.43995 0.0
N792 N 0.22808 0.93244 0.52639 0.0
N793 N 0.19875 0.90991 0.46783 0.0
H794 H 0.09242 0.1866 0.56692 0.0
H795 H 0.05561 0.24721 0.43071 0.0
H796 H 0.0576 0.24498 0.56709 0.0
H797 H 0.09182 0.18971 0.42925 0.0
H798 H 0.0513 0.24338 0.4806 0.0
H799 H 0.08763 0.18428 0.51674 0.0
C800 C 0.08351 0.19877 0.55645 0.0
C801 C 0.07562 0.21615 0.57109 0.0
C802 C 0.05999 0.23144 0.46938 0.0
C803 C 0.07019 0.21368 0.51378 0.0
C804 C 0.06243 0.23361 0.44087 0.0
C805 C 0.07432 0.21889 0.42592 0.0
C806 C 0.06968 0.21452 0.48312 0.0
C807 C 0.08265 0.20149 0.44007 0.0
C808 C 0.08081 0.19746 0.52781 0.0
C809 C 0.06413 0.23142 0.55655 0.0
N810 N 0.08041 0.19992 0.46798 0.0
N811 N 0.06195 0.22993 0.52867 0.0
H812 H 0.74306 0.05945 0.56188 0.0
H813 H 0.80137 0.09491 0.42282 0.0
H814 H 0.8006 0.09566 0.56075 0.0
H815 H 0.7424 0.06109 0.4248 0.0
H816 H 0.80384 0.0915 0.47317 0.0
H817 H 0.74513 0.05588 0.51165 0.0
C818 C 0.75627 0.06645 0.55107 0.0
C819 C 0.77158 0.07804 0.56544 0.0
C820 C 0.79046 0.08466 0.46256 0.0
C821 C 0.77396 0.07421 0.5079 0.0
C822 C 0.78905 0.08658 0.43383 0.0
C823 C 0.77155 0.07844 0.41969 0.0
C824 C 0.77422 0.07455 0.47721 0.0
C825 C 0.75609 0.06774 0.43493 0.0
C826 C 0.75743 0.06445 0.52238 0.0
C827 C 0.7884 0.08669 0.55043 0.0
N828 N 0.75771 0.06625 0.46288 0.0
N829 N 0.78904 0.08478 0.52242 0.0
H830 H 0.93681 0.75201 0.56455 0.0
H831 H 0.89358 0.80158 0.42348 0.0
H832 H 0.88944 0.80067 0.56127 0.0
H833 H 0.93837 0.75055 0.42753 0.0
H834 H 0.89535 0.80491 0.47389 0.0
H835 H 0.9411 0.75473 0.51448 0.0
C836 C 0.92746 0.76343 0.55331 0.0
C837 C 0.9126 0.77599 0.56702 0.0
C838 C 0.90495 0.79313 0.46372 0.0
C839 C 0.9173 0.77909 0.50965 0.0
C840 C 0.90398 0.79125 0.43495 0.0
C841 C 0.9157 0.77563 0.42137 0.0
C842 C 0.91771 0.77926 0.47896 0.0
C843 C 0.92894 0.76271 0.4372 0.0
C844 C 0.92989 0.76496 0.5247 0.0
C845 C 0.90099 0.79059 0.55146 0.0
N846 N 0.92946 0.7647 0.46517 0.0
N847 N 0.90344 0.79161 0.52355 0.0
H848 H 0.6881 0.59584 0.56986 0.0
H849 H 0.74586 0.55666 0.43307 0.0
H850 H 0.74269 0.55538 0.56959 0.0
H851 H 0.6888 0.59351 0.43221 0.0
H852 H 0.74216 0.5522 0.48296 0.0
H853 H 0.68527 0.59152 0.51967 0.0
C854 C 0.69931 0.58582 0.55927 0.0
C855 C 0.71581 0.57616 0.57381 0.0
C856 C 0.73027 0.56104 0.47187 0.0
C857 C 0.71279 0.57129 0.51646 0.0
C858 C 0.73238 0.56358 0.44336 0.0
C859 C 0.71775 0.57569 0.42858 0.0
C860 C 0.71353 0.5709 0.48578 0.0
C861 C 0.7005 0.58416 0.44289 0.0
C862 C 0.6977 0.58337 0.53063 0.0
C863 C 0.72984 0.56327 0.55914 0.0
N864 N 0.69903 0.58186 0.4708 0.0
N865 N 0.72815 0.56141 0.53124 0.0
H866 H 0.40119 0.69164 0.43276 0.0
H867 H 0.43566 0.75153 0.57118 0.0
H868 H 0.43221 0.75217 0.43406 0.0
H869 H 0.40145 0.69273 0.57049 0.0
H870 H 0.43907 0.74944 0.52091 0.0
H871 H 0.40559 0.68923 0.48297 0.0
C872 C 0.40915 0.70431 0.44358 0.0
C873 C 0.41616 0.72223 0.42929 0.0
C874 C 0.431 0.73687 0.53175 0.0
C875 C 0.42114 0.71965 0.4867 0.0
C876 C 0.42909 0.73804 0.56047 0.0
C877 C 0.41807 0.72238 0.57498 0.0
C878 C 0.42175 0.71997 0.5174 0.0
C879 C 0.40995 0.70522 0.56007 0.0
C880 C 0.41163 0.70295 0.47224 0.0
C881 C 0.42643 0.73814 0.4443 0.0
N882 N 0.41177 0.70457 0.53205 0.0
N883 N 0.42845 0.73656 0.4722 0.0
H884 H 0.2493 0.44066 0.43154 0.0
H885 H 0.30484 0.40357 0.57157 0.0
H886 H 0.30436 0.40089 0.43382 0.0
H887 H 0.24697 0.43905 0.56795 0.0
H888 H 0.30866 0.40767 0.52141 0.0
H889 H 0.252 0.44547 0.48151 0.0
C890 C 0.26212 0.43314 0.44254 0.0
C891 C 0.27647 0.42014 0.4286 0.0
C892 C 0.29527 0.41479 0.53166 0.0
C893 C 0.27955 0.4254 0.48588 0.0
C894 C 0.29313 0.41252 0.56028 0.0
C895 C 0.27542 0.42076 0.57383 0.0
C896 C 0.27959 0.42538 0.51657 0.0
C897 C 0.26075 0.43225 0.55826 0.0
C898 C 0.26364 0.43587 0.47109 0.0
C899 C 0.29286 0.41091 0.44383 0.0
N900 N 0.26305 0.43403 0.53044 0.0
N901 N 0.29382 0.41351 0.47174 0.0
H902 H 0.55887 0.24714 0.56365 0.0
H903 H 0.59534 0.30697 0.42631 0.0
H904 H 0.59315 0.3059 0.56393 0.0
H905 H 0.56255 0.24737 0.42656 0.0
H906 H 0.59064 0.30925 0.47646 0.0
H907 H 0.55588 0.24943 0.51336 0.0
C908 C 0.56555 0.26066 0.55314 0.0
C909 C 0.57646 0.27625 0.56792 0.0
C910 C 0.58429 0.29577 0.46552 0.0
C911 C 0.57329 0.27888 0.51034 0.0
C912 C 0.58695 0.29448 0.4369 0.0
C913 C 0.5795 0.27685 0.42234 0.0
C914 C 0.57417 0.27929 0.47967 0.0
C915 C 0.56868 0.26116 0.43703 0.0
C916 C 0.56388 0.26194 0.52441 0.0
C917 C 0.58472 0.29347 0.55329 0.0
N918 N 0.5665 0.26266 0.46492 0.0
N919 N 0.58316 0.29421 0.52526 0.0
H920 H 0.75593 0.43254 0.92868 0.0
H921 H 0.69452 0.4107 0.0703 0.0
H922 H 0.69468 0.40318 0.93254 0.0
H923 H 0.75948 0.43035 0.06542 0.0
H924 H 0.69184 0.41374 0.01989 0.0
H925 H 0.75485 0.43784 0.97868 0.0
C926 C 0.74214 0.42741 0.94003 0.0
C927 C 0.72547 0.41719 0.92652 0.0
C928 C 0.70661 0.41759 0.0299 0.0
C929 C 0.72419 0.42307 0.9838 0.0
C930 C 0.70813 0.41592 0.05865 0.0
C931 C 0.72732 0.42008 0.07197 0.0
C932 C 0.72438 0.42353 0.01446 0.0
C933 C 0.74444 0.42681 0.05594 0.0
C934 C 0.74155 0.4304 0.96859 0.0
C935 C 0.70794 0.41099 0.94221 0.0
N936 N 0.74261 0.42819 0.02801 0.0
N937 N 0.70783 0.41386 0.9701 0.0
H938 H 0.55581 0.73917 0.06948 0.0
H939 H 0.60921 0.69669 0.9304 0.0
H940 H 0.60521 0.69253 0.06809 0.0
H941 H 0.5603 0.74384 0.93243 0.0
H942 H 0.60533 0.69201 0.98041 0.0
H943 H 0.5544 0.73801 0.01899 0.0
C944 C 0.56619 0.72849 0.05855 0.0
C945 C 0.58077 0.71605 0.07296 0.0
C946 C 0.59532 0.70325 0.96988 0.0
C947 C 0.57942 0.7148 0.01514 0.0
C948 C 0.59752 0.70592 0.94134 0.0
C949 C 0.58518 0.72081 0.92732 0.0
C950 C 0.58071 0.71561 0.98449 0.0
C951 C 0.57024 0.73229 0.94247 0.0
C952 C 0.56542 0.72786 0.02971 0.0
C953 C 0.5938 0.70246 0.05776 0.0
N954 N 0.56853 0.72956 0.97026 0.0
N955 N 0.59296 0.70234 0.02965 0.0
H956 H 0.24471 0.55835 0.06851 0.0
H957 H 0.30242 0.58998 0.92734 0.0
H958 H 0.30358 0.5923 0.06548 0.0
H959 H 0.23915 0.56543 0.9322 0.0
H960 H 0.30604 0.58523 0.97744 0.0
H961 H 0.24558 0.5549 0.01822 0.0
C962 C 0.25797 0.56485 0.05727 0.0
C963 C 0.27398 0.57584 0.07114 0.0
C964 C 0.29145 0.58069 0.96748 0.0
C965 C 0.27499 0.57211 0.01352 0.0
C966 C 0.2894 0.58335 0.93891 0.0
C967 C 0.27038 0.57829 0.92569 0.0
C968 C 0.27439 0.57285 0.98286 0.0
C969 C 0.25402 0.56972 0.94161 0.0
C970 C 0.25843 0.56293 0.02855 0.0
C971 C 0.29084 0.58383 0.05556 0.0
N972 N 0.25635 0.5674 0.96937 0.0
N973 N 0.29081 0.58199 0.02752 0.0
H974 H 0.43928 0.25571 0.92869 0.0
H975 H 0.39774 0.30698 0.06965 0.0
H976 H 0.39458 0.30683 0.93203 0.0
H977 H 0.43452 0.24991 0.0655 0.0
H978 H 0.40162 0.31112 0.01957 0.0
H979 H 0.44292 0.25748 0.97896 0.0
C980 C 0.43043 0.26749 0.93998 0.0
C981 C 0.41643 0.28099 0.92624 0.0
C982 C 0.40902 0.29781 0.02966 0.0
C983 C 0.4204 0.28301 0.98377 0.0
C984 C 0.40687 0.29547 0.05824 0.0
C985 C 0.41564 0.27795 0.07166 0.0
C986 C 0.42006 0.28254 0.01444 0.0
C987 C 0.42735 0.26355 0.05592 0.0
C988 C 0.43247 0.26846 0.96869 0.0
C989 C 0.40543 0.29602 0.94186 0.0
N990 N 0.42908 0.26608 0.0281 0.0
N991 N 0.40751 0.2965 0.96985 0.0
H992 H 0.19507 0.03567 0.19823 0.0
H993 H 0.26411 0.95698 0.29023 0.0
H994 H 0.26263 0.04068 0.20559 0.0
H995 H 0.19631 0.96064 0.29397 0.0
H996 H 0.26423 0.98627 0.25723 0.0
H997 H 0.19554 0.00621 0.23068 0.0
C998 C 0.21003 0.03046 0.20654 0.0
C999 C 0.22884 0.04062 0.19928 0.0
C1000 C 0.24935 0.98071 0.26539 0.0
C1001 C 0.2295 0.00702 0.23655 0.0
C1002 C 0.24928 0.96405 0.28423 0.0
C1003 C 0.23017 0.95643 0.29483 0.0
C1004 C 0.23016 0.98966 0.25696 0.0
C1005 C 0.2114 0.96607 0.28635 0.0
C1006 C 0.21028 0.01372 0.22517 0.0
C1007 C 0.24777 0.03326 0.21069 0.0
N1008 N 0.21186 0.98213 0.26781 0.0
N1009 N 0.24762 0.01689 0.22882 0.0
H1010 H 0.93719 0.2515 0.23781 0.0
H1011 H 0.06204 0.24227 0.25466 0.0
H1012 H 0.97793 0.22811 0.17329 0.0
H1013 H 0.01914 0.24448 0.32385 0.0
H1014 H 0.03193 0.24356 0.22303 0.0
H1015 H 0.9678 0.25539 0.2681 0.0
C1016 C 0.95261 0.24733 0.22996 0.0
C1017 C 0.95506 0.23934 0.2031 0.0
C1018 C 0.02915 0.24389 0.24514 0.0
C1019 C 0.99007 0.24384 0.23753 0.0
C1020 C 0.04629 0.24325 0.26318 0.0
C1021 C 0.04301 0.24314 0.29187 0.0
C1022 C 0.00865 0.24465 0.25593 0.0
C1023 C 0.02232 0.2444 0.30184 0.0
C1024 C 0.97004 0.2495 0.24727 0.0
C1025 C 0.97537 0.23419 0.19395 0.0
N1026 N 0.00589 0.24507 0.28387 0.0
N1027 N 0.99213 0.23652 0.21116 0.0
H1028 H 0.77682 0.01683 0.31867 0.0
H1029 H 0.74219 0.96747 0.17477 0.0
H1030 H 0.73161 0.0469 0.265 0.0
H1031 H 0.76739 0.92976 0.24128 0.0
H1032 H 0.73965 0.99746 0.20651 0.0
H1033 H 0.77509 0.9852 0.28969 0.0
C1034 C 0.76643 0.0167 0.30089 0.0
C1035 C 0.75439 0.03447 0.29412 0.0
C1036 C 0.74556 0.98257 0.21419 0.0
C1037 C 0.75253 -0.00143 0.26079 0.0
C1038 C 0.74708 0.96549 0.19609 0.0
C1039 C 0.75507 0.94618 0.20544 0.0
C1040 C 0.75242 0.98036 0.24167 0.0
C1041 C 0.76113 0.94441 0.23326 0.0
C1042 C 0.76541 -0.00134 0.28442 0.0
C1043 C 0.74114 0.0335 0.27092 0.0
N1044 N 0.75988 0.96136 0.25035 0.0
N1045 N 0.74073 0.01591 0.25488 0.0
H1046 H 0.02448 0.74444 0.1717 0.0
H1047 H 0.97937 0.77603 0.31877 0.0
H1048 H 0.06469 0.76521 0.23837 0.0
H1049 H 0.94734 0.73218 0.26496 0.0
H1050 H 0.01026 0.77431 0.28852 0.0
H1051 H 0.99513 0.74184 0.20442 0.0
C1052 C 0.02713 0.74835 0.19325 0.0
C1053 C 0.04696 0.7551 0.2024 0.0
C1054 C 0.99653 0.76492 0.28351 0.0
C1055 C 0.01356 0.7524 0.23971 0.0
C1056 C 0.97892 0.76594 0.3007 0.0
C1057 C 0.96082 0.75427 0.29426 0.0
C1058 C 0.99583 0.75246 0.2595 0.0
C1059 C 0.96102 0.74141 0.27065 0.0
C1060 C 0.01044 0.74679 0.21189 0.0
C1061 C 0.04962 0.75992 0.23051 0.0
N1062 N 0.97819 0.74103 0.25391 0.0
N1063 N 0.03303 0.7587 0.24816 0.0
H1064 H 0.79567 0.96638 0.79955 0.0
H1065 H 0.72665 0.03722 0.69754 0.0
H1066 H 0.72981 0.95436 0.78404 0.0
H1067 H 0.79461 0.037 0.69805 0.0
H1068 H 0.72681 0.00859 0.73153 0.0
H1069 H 0.79481 0.99474 0.76546 0.0
C1070 C 0.78097 0.96984 0.78912 0.0
C1071 C 0.76278 0.95802 0.79458 0.0
C1072 C 0.74167 0.01473 0.72405 0.0
C1073 C 0.76172 0.99034 0.75542 0.0
C1074 C 0.74159 0.03102 0.70464 0.0
C1075 C 0.76065 0.03945 0.69499 0.0
C1076 C 0.76094 0.00703 0.73406 0.0
C1077 C 0.77956 0.03091 0.70489 0.0
C1078 C 0.78053 0.98593 0.76953 0.0
C1079 C 0.74419 0.96311 0.7804 0.0
N1080 N 0.77922 0.01526 0.72404 0.0
N1081 N 0.74412 0.97893 0.76144 0.0
H1082 H 0.95757 0.79692 0.69428 0.0
H1083 H 0.03685 0.73007 0.7881 0.0
H1084 H 0.95314 0.72937 0.7032 0.0
H1085 H 0.03183 0.79788 0.79083 0.0
H1086 H 0.00769 0.72908 0.75491 0.0
H1087 H 0.9869 0.79717 0.72688 0.0
C1088 C 0.96289 0.78211 0.70296 0.0
C1089 C 0.95292 0.76309 0.69609 0.0
C1090 C 0.01293 0.74415 0.76289 0.0
C1091 C 0.98637 0.76327 0.73357 0.0
C1092 C 0.02951 0.74472 0.78184 0.0
C1093 C 0.03671 0.76409 0.79221 0.0
C1094 C 0.00365 0.7631 0.75413 0.0
C1095 C 0.02673 0.78261 0.7834 0.0
C1096 C 0.97955 0.78227 0.72169 0.0
C1097 C 0.96041 0.74437 0.70799 0.0
N1098 N 0.01077 0.78166 0.76476 0.0
N1099 N 0.97671 0.74493 0.72621 0.0
H1100 H 0.25134 0.97374 0.67515 0.0
H1101 H 0.2186 0.02028 0.82143 0.0
H1102 H 0.2275 0.93462 0.74114 0.0
H1103 H 0.26403 0.05095 0.76863 0.0
H1104 H 0.21947 0.98944 0.79094 0.0
H1105 H 0.25396 0.00326 0.70772 0.0
C1106 C 0.24675 0.97137 0.69651 0.0
C1107 C 0.23917 0.95178 0.70551 0.0
C1108 C 0.22937 0.00286 0.78618 0.0
C1109 C 0.2419 0.98538 0.74265 0.0
C1110 C 0.22885 0.02044 0.80351 0.0
C1111 C 0.24124 0.03814 0.79747 0.0
C1112 C 0.2421 0.00317 0.76242 0.0
C1113 C 0.25426 0.03758 0.77403 0.0
C1114 C 0.24831 0.98816 0.71507 0.0
C1115 C 0.23346 0.94948 0.73339 0.0
N1116 N 0.25419 0.02044 0.75717 0.0
N1117 N 0.23475 0.96616 0.75094 0.0
H1118 H 0.96089 0.19209 0.7982 0.0
H1119 H 0.03634 0.26141 0.70164 0.0
H1120 H 0.95585 0.25963 0.78993 0.0
H1121 H 0.03678 0.19339 0.70267 0.0
H1122 H 0.0074 0.26113 0.73492 0.0
H1123 H 0.98984 0.19231 0.76483 0.0
C1124 C 0.966 0.20698 0.78952 0.0
C1125 C 0.95599 0.22587 0.7968 0.0
C1126 C 0.01375 0.24625 0.72778 0.0
C1127 C 0.98892 0.22623 0.75851 0.0
C1128 C 0.03022 0.24641 0.70873 0.0
C1129 C 0.03893 0.22739 0.69941 0.0
C1130 C 0.00601 0.22693 0.7377 0.0
C1131 C 0.03047 0.2084 0.7093 0.0
C1132 C 0.98244 0.20708 0.77037 0.0
C1133 C 0.96315 0.24471 0.78487 0.0
N1134 N 0.01452 0.20866 0.72803 0.0
N1135 N 0.97917 0.24441 0.76627 0.0
H1136 H 0.69698 0.53458 0.70508 0.0
H1137 H 0.7675 0.45304 0.79058 0.0
H1138 H 0.76488 0.53709 0.70703 0.0
H1139 H 0.70011 0.45841 0.7996 0.0
H1140 H 0.76698 0.48273 0.75829 0.0
H1141 H 0.69787 0.50509 0.73751 0.0
C1142 C 0.71208 0.52883 0.71222 0.0
C1143 C 0.73089 0.53826 0.7034 0.0
C1144 C 0.75232 0.47747 0.76744 0.0
C1145 C 0.73203 0.50462 0.7406 0.0
C1146 C 0.75262 0.46057 0.78589 0.0
C1147 C 0.73381 0.4533 0.79775 0.0
C1148 C 0.73306 0.48704 0.76068 0.0
C1149 C 0.71497 0.46356 0.79095 0.0
C1150 C 0.71258 0.51206 0.73084 0.0
C1151 C 0.75002 0.53024 0.71335 0.0
N1152 N 0.71506 0.47986 0.77275 0.0
N1153 N 0.75011 0.51386 0.73144 0.0
H1154 H 0.54393 0.77175 0.78719 0.0
H1155 H 0.45879 0.70045 0.70908 0.0
H1156 H 0.5326 0.70625 0.80622 0.0
H1157 H 0.45879 0.76839 0.70459 0.0
H1158 H 0.48807 0.70212 0.74178 0.0
H1159 H 0.51434 0.77087 0.75461 0.0
C1160 C 0.5351 0.75726 0.78468 0.0
C1161 C 0.54068 0.73905 0.7994 0.0
C1162 C 0.4817 0.71667 0.73362 0.0
C1163 C 0.50716 0.73784 0.76199 0.0
C1164 C 0.46508 0.71572 0.71483 0.0
C1165 C 0.45638 0.73431 0.70416 0.0
C1166 C 0.48978 0.73636 0.74167 0.0
C1167 C 0.46506 0.75368 0.71237 0.0
C1168 C 0.51827 0.75675 0.76607 0.0
C1169 C 0.52879 0.72066 0.79533 0.0
N1170 N 0.48132 0.75421 0.73066 0.0
N1171 N 0.51269 0.7205 0.77688 0.0
H1172 H 0.2406 0.47453 0.67719 0.0
H1173 H 0.273 0.52069 0.82401 0.0
H1174 H 0.26101 0.43489 0.74458 0.0
H1175 H 0.23183 0.55385 0.7679 0.0
H1176 H 0.27074 0.48953 0.79419 0.0
H1177 H 0.2391 0.50449 0.7091 0.0
C1178 C 0.24464 0.47213 0.69874 0.0
C1179 C 0.25097 0.45226 0.7083 0.0
C1180 C 0.26208 0.50358 0.78854 0.0
C1181 C 0.24955 0.4864 0.74473 0.0
C1182 C 0.26341 0.52136 0.80549 0.0
C1183 C 0.25262 0.53984 0.79834 0.0
C1184 C 0.25015 0.50446 0.76409 0.0
C1185 C 0.24039 0.53988 0.77416 0.0
C1186 C 0.24374 0.48919 0.71693 0.0
C1187 C 0.25602 0.44996 0.7364 0.0
N1188 N 0.23964 0.52252 0.75774 0.0
N1189 N 0.2554 0.46689 0.7536 0.0
H1190 H 0.45384 0.23283 0.78893 0.0
H1191 H 0.53322 0.30038 0.69582 0.0
H1192 H 0.45916 0.30057 0.79335 0.0
H1193 H 0.53597 0.23259 0.7024 0.0
H1194 H 0.504 0.30064 0.72871 0.0
H1195 H 0.48241 0.23228 0.75499 0.0
C1196 C 0.46112 0.24757 0.78287 0.0
C1197 C 0.45419 0.26677 0.79397 0.0
C1198 C 0.51095 0.2857 0.7229 0.0
C1199 C 0.48664 0.2663 0.755 0.0
C1200 C 0.52754 0.28553 0.70402 0.0
C1201 C 0.53702 0.26643 0.69645 0.0
C1202 C 0.50374 0.26662 0.73419 0.0
C1203 C 0.5291 0.24767 0.70774 0.0
C1204 C 0.47738 0.24725 0.76347 0.0
C1205 C 0.46409 0.28542 0.78536 0.0
N1206 N 0.51292 0.24823 0.7261 0.0
N1207 N 0.47977 0.28472 0.76629 0.0
H1208 H 0.23063 0.53863 0.20675 0.0
H1209 H 0.29972 0.45859 0.29695 0.0
H1210 H 0.29832 0.53443 0.20113 0.0
H1211 H 0.23177 0.45923 0.29666 0.0
H1212 H 0.29969 0.48736 0.26326 0.0
H1213 H 0.23082 0.50999 0.24047 0.0
C1214 C 0.24553 0.53155 0.21247 0.0
C1215 C 0.26449 0.53887 0.20114 0.0
C1216 C 0.28479 0.48125 0.27063 0.0
C1217 C 0.26486 0.50626 0.23994 0.0
C1218 C 0.28481 0.46491 0.28996 0.0
C1219 C 0.26572 0.45655 0.29957 0.0
C1220 C 0.26555 0.48927 0.26092 0.0
C1221 C 0.24684 0.46524 0.28977 0.0
C1222 C 0.24563 0.51525 0.23179 0.0
C1223 C 0.28334 0.5292 0.20933 0.0
N1224 N 0.24723 0.4811 0.27094 0.0
N1225 N 0.28306 0.51343 0.22834 0.0
H1226 H 0.53374 0.29885 0.29702 0.0
H1227 H 0.45776 0.22958 0.2012 0.0
H1228 H 0.54263 0.23224 0.28321 0.0
H1229 H 0.45739 0.2976 0.20241 0.0
H1230 H 0.4876 0.22985 0.23324 0.0
H1231 H 0.50396 0.29829 0.26497 0.0
C1232 C 0.52932 0.28408 0.28737 0.0
C1233 C 0.54064 0.26557 0.29273 0.0
C1234 C 0.48106 0.24471 0.22638 0.0
C1235 C 0.5067 0.26482 0.25597 0.0
C1236 C 0.46406 0.24456 0.20808 0.0
C1237 C 0.45514 0.26359 0.19915 0.0
C1238 C 0.48904 0.26404 0.23598 0.0
C1239 C 0.46385 0.28256 0.20873 0.0
C1240 C 0.5124 0.28379 0.26897 0.0
C1241 C 0.53431 0.24688 0.27961 0.0
N1242 N 0.48026 0.2823 0.22675 0.0
N1243 N 0.51774 0.24697 0.26183 0.0
H1244 H 0.74997 0.52279 0.32395 0.0
H1245 H 0.72497 0.48019 0.17326 0.0
H1246 H 0.73481 0.5645 0.25632 0.0
H1247 H 0.76314 0.44555 0.23144 0.0
H1248 H 0.72652 0.51091 0.20395 0.0
H1249 H 0.75297 0.49361 0.29105 0.0
C1250 C 0.74738 0.5258 0.30215 0.0
C1251 C 0.74209 0.54602 0.29279 0.0
C1252 C 0.73472 0.49664 0.20983 0.0
C1253 C 0.74525 0.51278 0.25519 0.0
C1254 C 0.7338 0.47912 0.19239 0.0
C1255 C 0.74388 0.46033 0.19992 0.0
C1256 C 0.74548 0.49517 0.23515 0.0
C1257 C 0.75515 0.45976 0.22488 0.0
C1258 C 0.74916 0.50919 0.2834 0.0
C1259 C 0.73895 0.54912 0.26435 0.0
N1260 N 0.75545 0.47686 0.24178 0.0
N1261 N 0.74036 0.53261 0.24654 0.0
H1262 H 0.45949 0.69886 0.30344 0.0
H1263 H 0.5359 0.76462 0.20405 0.0
H1264 H 0.45381 0.76598 0.29101 0.0
H1265 H 0.53378 0.69665 0.20647 0.0
H1266 H 0.50685 0.76579 0.2373 0.0
H1267 H 0.48837 0.69812 0.2701 0.0
C1268 C 0.46445 0.71348 0.29385 0.0
C1269 C 0.45426 0.73252 0.29997 0.0
C1270 C 0.51267 0.75063 0.23044 0.0
C1271 C 0.48718 0.73177 0.26164 0.0
C1272 C 0.5292 0.74995 0.21142 0.0
C1273 C 0.53722 0.73051 0.20252 0.0
C1274 C 0.50425 0.73172 0.24076 0.0
C1275 C 0.52803 0.71198 0.21276 0.0
C1276 C 0.48085 0.71303 0.27469 0.0
C1277 C 0.46126 0.75097 0.28687 0.0
N1278 N 0.5121 0.71304 0.23145 0.0
N1279 N 0.47729 0.75014 0.26828 0.0
H1280 H 0.21563 0.13807 0.23441 0.0
H1281 H 0.10026 0.17196 0.28401 0.0
H1282 H 0.15936 0.12201 0.18895 0.0
H1283 H 0.15783 0.19781 0.31722 0.0
H1284 H 0.12115 0.14983 0.25268 0.0
H1285 H 0.19414 0.15661 0.26832 0.0
C1286 C 0.19872 0.13846 0.23156 0.0
C1287 C 0.18926 0.1286 0.20875 0.0
C1288 C 0.12917 0.16025 0.26697 0.0
C1289 C 0.1645 0.14975 0.24764 0.0
C1290 C 0.11728 0.17276 0.28495 0.0
C1291 C 0.12737 0.18676 0.30313 0.0
C1292 C 0.15125 0.1617 0.26741 0.0
C1293 C 0.14943 0.18729 0.30344 0.0
C1294 C 0.18645 0.14905 0.25095 0.0
C1295 C 0.16727 0.12953 0.20618 0.0
N1296 N 0.16062 0.17499 0.2858 0.0
N1297 N 0.15559 0.13995 0.22542 0.0
H1298 H 0.89375 0.179 0.23102 0.0
H1299 H 0.78335 0.11983 0.24733 0.0
H1300 H 0.84691 0.17563 0.16647 0.0
H1301 H 0.83119 0.12019 0.31075 0.0
H1302 H 0.80748 0.13821 0.21634 0.0
H1303 H 0.87233 0.15528 0.25928 0.0
C1304 C 0.87905 0.17308 0.22268 0.0
C1305 C 0.872 0.17939 0.19644 0.0
C1306 C 0.81279 0.13418 0.23696 0.0
C1307 C 0.84734 0.15242 0.22875 0.0
C1308 C 0.799 0.1237 0.25469 0.0
C1309 C 0.80525 0.11862 0.28171 0.0
C1310 C 0.83297 0.13975 0.24634 0.0
C1311 C 0.82573 0.1239 0.2901 0.0
C1312 C 0.86682 0.15957 0.23884 0.0
C1313 C 0.85289 0.17122 0.18663 0.0
N1314 N 0.83883 0.13432 0.27253 0.0
N1315 N 0.84113 0.1583 0.20288 0.0
H1316 H 0.88424 0.83091 0.2994 0.0
H1317 H 0.80073 0.831 0.17574 0.0
H1318 H 0.86205 0.77491 0.25786 0.0
H1319 H 0.8282 0.88809 0.20827 0.0
H1320 H 0.82429 0.8104 0.20487 0.0
H1321 H 0.86481 0.85247 0.26582 0.0
C1322 C 0.87535 0.82318 0.28318 0.0
C1323 C 0.87461 0.80111 0.28149 0.0
C1324 C 0.82535 0.82742 0.20553 0.0
C1325 C 0.85246 0.82554 0.24316 0.0
C1326 C 0.81189 0.83919 0.18886 0.0
C1327 C 0.81248 0.86126 0.18971 0.0
C1328 C 0.83936 0.83777 0.22349 0.0
C1329 C 0.82728 0.87107 0.20702 0.0
C1330 C 0.86433 0.83546 0.264 0.0
C1331 C 0.86295 0.79187 0.26003 0.0
N1332 N 0.84003 0.85925 0.22348 0.0
N1333 N 0.85227 0.80411 0.24183 0.0
H1334 H 0.1603 0.87633 0.3054 0.0
H1335 H 0.16146 0.80032 0.17369 0.0
H1336 H 0.21665 0.85938 0.26074 0.0
H1337 H 0.10421 0.826 0.2079 0.0
H1338 H 0.18185 0.82223 0.20539 0.0
H1339 H 0.13925 0.85789 0.27038 0.0
C1340 C 0.16822 0.86871 0.28825 0.0
C1341 C 0.19023 0.86927 0.286 0.0
C1342 C 0.16483 0.82326 0.20583 0.0
C1343 C 0.16635 0.84829 0.24596 0.0
C1344 C 0.15319 0.81078 0.1877 0.0
C1345 C 0.13114 0.81134 0.18826 0.0
C1346 C 0.15435 0.83622 0.22494 0.0
C1347 C 0.12121 0.82516 0.2068 0.0
C1348 C 0.15621 0.8583 0.26822 0.0
C1349 C 0.19971 0.85927 0.26332 0.0
N1350 N 0.1329 0.83692 0.22464 0.0
N1351 N 0.18773 0.84913 0.24426 0.0
H1352 H 0.85676 0.7763 0.73284 0.0
H1353 H 0.82377 0.8933 0.77697 0.0
H1354 H 0.87156 0.83168 0.68475 0.0
H1355 H 0.8019 0.83741 0.81902 0.0
H1356 H 0.84438 0.87116 0.74574 0.0
H1357 H 0.83913 0.79861 0.7669 0.0
C1358 C 0.85628 0.79317 0.72944 0.0
C1359 C 0.86554 0.80217 0.70588 0.0
C1360 C 0.83517 0.86373 0.76189 0.0
C1361 C 0.84551 0.82779 0.74486 0.0
C1362 C 0.82349 0.87636 0.77981 0.0
C1363 C 0.81104 0.86714 0.80052 0.0
C1364 C 0.83443 0.84172 0.76471 0.0
C1365 C 0.81125 0.84514 0.80327 0.0
C1366 C 0.84623 0.8059 0.74891 0.0
C1367 C 0.86452 0.8241 0.70256 0.0
N1368 N 0.82268 0.83316 0.78546 0.0
N1369 N 0.85467 0.83618 0.72185 0.0
H1370 H 0.16675 0.89411 0.70734 0.0
H1371 H 0.13402 0.77875 0.75876 0.0
H1372 H 0.19534 0.83667 0.67784 0.0
H1373 H 0.11584 0.83552 0.80176 0.0
H1374 H 0.15284 0.80008 0.72486 0.0
H1375 H 0.14395 0.87315 0.73772 0.0
C1376 C 0.16801 0.87709 0.70698 0.0
C1377 C 0.18298 0.86707 0.69019 0.0
C1378 C 0.14472 0.80791 0.74168 0.0
C1379 C 0.15715 0.84312 0.72483 0.0
C1380 C 0.13398 0.79573 0.76105 0.0
C1381 C 0.12348 0.8054 0.78319 0.0
C1382 C 0.14492 0.82994 0.74435 0.0
C1383 C 0.12386 0.82746 0.78507 0.0
C1384 C 0.15511 0.86517 0.72442 0.0
C1385 C 0.18407 0.84501 0.69058 0.0
N1386 N 0.13445 0.83903 0.76588 0.0
N1387 N 0.17138 0.83378 0.70769 0.0
H1388 H 0.11951 0.20274 0.7412 0.0
H1389 H 0.21174 0.11824 0.75187 0.0
H1390 H 0.14457 0.17057 0.66976 0.0
H1391 H 0.17277 0.13561 0.82136 0.0
H1392 H 0.18896 0.13897 0.72147 0.0
H1393 H 0.14071 0.18008 0.77109 0.0
C1394 C 0.1295 0.19089 0.73182 0.0
C1395 C 0.13035 0.18852 0.70299 0.0
C1396 C 0.18533 0.13813 0.74333 0.0
C1397 C 0.15469 0.16263 0.73703 0.0
C1398 C 0.19833 0.12636 0.76069 0.0
C1399 C 0.19412 0.12527 0.78915 0.0
C1400 C 0.16817 0.14912 0.7546 0.0
C1401 C 0.17654 0.13604 0.79952 0.0
C1402 C 0.14151 0.17791 0.74889 0.0
C1403 C 0.14347 0.17288 0.69191 0.0
N1404 N 0.16429 0.14766 0.78226 0.0
N1405 N 0.15526 0.16059 0.70896 0.0
H1406 H 0.85164 0.16785 0.82494 0.0
H1407 H 0.82351 0.13834 0.6684 0.0
H1408 H 0.87629 0.20177 0.75465 0.0
H1409 H 0.78448 0.12054 0.73766 0.0
H1410 H 0.84632 0.15807 0.70007 0.0
H1411 H 0.83007 0.14656 0.79342 0.0
C1412 C 0.85257 0.17074 0.80288 0.0
C1413 C 0.86567 0.18661 0.79235 0.0
C1414 C 0.83276 0.14983 0.7083 0.0
C1415 C 0.84126 0.16235 0.75631 0.0
C1416 C 0.81979 0.13855 0.69027 0.0
C1417 C 0.80207 0.1279 0.70045 0.0
C1418 C 0.82809 0.15021 0.73671 0.0
C1419 C 0.79794 0.12865 0.72896 0.0
C1420 C 0.84023 0.15866 0.78495 0.0
C1421 C 0.8663 0.18975 0.76362 0.0
N1422 N 0.8109 0.13957 0.74613 0.0
N1423 N 0.8543 0.17769 0.74658 0.0
H1424 H 0.71883 0.63538 0.7378 0.0
H1425 H 0.60467 0.68026 0.77564 0.0
H1426 H 0.66339 0.62455 0.68811 0.0
H1427 H 0.66108 0.69671 0.82057 0.0
H1428 H 0.62555 0.65755 0.74551 0.0
H1429 H 0.6976 0.65594 0.77019 0.0
C1430 C 0.70217 0.63733 0.73372 0.0
C1431 C 0.69284 0.62831 0.71021 0.0
C1432 C 0.63337 0.66604 0.76202 0.0
C1433 C 0.66846 0.65175 0.74721 0.0
C1434 C 0.62145 0.67896 0.7793 0.0
C1435 C 0.6312 0.69042 0.80058 0.0
C1436 C 0.65521 0.66454 0.76605 0.0
C1437 C 0.65297 0.68816 0.80437 0.0
C1438 C 0.69007 0.64907 0.75222 0.0
C1439 C 0.67121 0.63129 0.70595 0.0
N1440 N 0.66427 0.67552 0.78719 0.0
N1441 N 0.65974 0.64277 0.72428 0.0
H1442 H 0.3184 0.6441 0.82877 0.0
H1443 H 0.35897 0.66864 0.67526 0.0
H1444 H 0.29293 0.61402 0.75597 0.0
H1445 H 0.37072 0.70953 0.74496 0.0
H1446 H 0.33826 0.6455 0.70538 0.0
H1447 H 0.34149 0.66522 0.79912 0.0
C1448 C 0.31779 0.64184 0.80656 0.0
C1449 C 0.30369 0.62738 0.79477 0.0
C1450 C 0.3454 0.65953 0.71406 0.0
C1451 C 0.33001 0.65141 0.7608 0.0
C1452 C 0.35724 0.6727 0.69691 0.0
C1453 C 0.36647 0.69106 0.70763 0.0
C1454 C 0.34299 0.66466 0.74217 0.0
C1455 C 0.36376 0.69558 0.73583 0.0
C1456 C 0.33089 0.65394 0.78966 0.0
C1457 C 0.30351 0.62508 0.76588 0.0
N1458 N 0.35229 0.68246 0.75214 0.0
N1459 N 0.31647 0.63698 0.74987 0.0
H1460 H 0.37572 0.33738 0.80709 0.0
H1461 H 0.29383 0.33653 0.68165 0.0
H1462 H 0.35512 0.28091 0.76522 0.0
H1463 H 0.32269 0.3936 0.71212 0.0
H1464 H 0.31632 0.31601 0.71238 0.0
H1465 H 0.35619 0.35851 0.77322 0.0
C1466 C 0.36708 0.32945 0.7908 0.0
C1467 C 0.36695 0.30738 0.78899 0.0
C1468 C 0.31791 0.33301 0.71222 0.0
C1469 C 0.34469 0.33135 0.75028 0.0
C1470 C 0.30508 0.34472 0.69464 0.0
C1471 C 0.3064 0.36677 0.69441 0.0
C1472 C 0.33201 0.34341 0.72998 0.0
C1473 C 0.32124 0.3766 0.71165 0.0
C1474 C 0.35603 0.3415 0.77142 0.0
C1475 C 0.3556 0.29789 0.76742 0.0
N1476 N 0.33336 0.36484 0.72898 0.0
N1477 N 0.34487 0.30992 0.749 0.0
H1478 H 0.63997 0.32523 0.67039 0.0
H1479 H 0.67165 0.35254 0.8265 0.0
H1480 H 0.6186 0.28877 0.74035 0.0
H1481 H 0.70744 0.37346 0.75574 0.0
H1482 H 0.64857 0.33252 0.79539 0.0
H1483 H 0.66141 0.34672 0.70172 0.0
C1484 C 0.63974 0.32182 0.69235 0.0
C1485 C 0.6276 0.30517 0.70282 0.0
C1486 C 0.66148 0.34151 0.78673 0.0
C1487 C 0.65191 0.32968 0.73869 0.0
C1488 C 0.67459 0.35296 0.80443 0.0
C1489 C 0.69149 0.36457 0.79364 0.0
C1490 C 0.66518 0.34194 0.75807 0.0
C1491 C 0.69463 0.36461 0.7649 0.0
C1492 C 0.65201 0.33402 0.71019 0.0
C1493 C 0.62785 0.3014 0.73143 0.0
N1494 N 0.68157 0.35351 0.74809 0.0
N1495 N 0.63979 0.3136 0.74841 0.0
H1496 H 0.37271 0.28443 0.24393 0.0
H1497 H 0.28606 0.37454 0.25804 0.0
H1498 H 0.35242 0.32276 0.17518 0.0
H1499 H 0.3216 0.35153 0.32788 0.0
H1500 H 0.30777 0.35305 0.2273 0.0
H1501 H 0.35163 0.30634 0.2751 0.0
C1502 C 0.36381 0.29746 0.23541 0.0
C1503 C 0.36427 0.30182 0.20697 0.0
C1504 C 0.31086 0.35274 0.24934 0.0
C1505 C 0.34009 0.32678 0.24238 0.0
C1506 C 0.29844 0.36493 0.2669 0.0
C1507 C 0.30208 0.36478 0.29552 0.0
C1508 C 0.32686 0.3401 0.26051 0.0
C1509 C 0.31834 0.35211 0.3059 0.0
C1510 C 0.35186 0.30998 0.2532 0.0
C1511 C 0.35251 0.3189 0.197 0.0
N1512 N 0.33009 0.34016 0.28839 0.0
N1513 N 0.34079 0.3307 0.21468 0.0
H1514 H 0.63574 0.33197 0.32192 0.0
H1515 H 0.6756 0.358 0.16846 0.0
H1516 H 0.62353 0.29199 0.25144 0.0
H1517 H 0.69983 0.38868 0.24157 0.0
H1518 H 0.65228 0.33685 0.19776 0.0
H1519 H 0.65543 0.35599 0.29188 0.0
C1520 C 0.63715 0.3283 0.30011 0.0
C1521 C 0.62813 0.30992 0.28915 0.0
C1522 C 0.66262 0.3483 0.20735 0.0
C1523 C 0.65049 0.33732 0.25471 0.0
C1524 C 0.67585 0.36043 0.19065 0.0
C1525 C 0.68972 0.375 0.20266 0.0
C1526 C 0.6632 0.3509 0.23622 0.0
C1527 C 0.68944 0.37752 0.2315 0.0
C1528 C 0.6484 0.34198 0.28299 0.0
C1529 C 0.63037 0.30593 0.26075 0.0
N1530 N 0.67643 0.36554 0.24732 0.0
N1531 N 0.64134 0.31951 0.24449 0.0
H1532 H 0.69537 0.65978 0.32283 0.0
H1533 H 0.61701 0.65908 0.1935 0.0
H1534 H 0.67016 0.60246 0.28794 0.0
H1535 H 0.63557 0.71527 0.23761 0.0
H1536 H 0.63594 0.63778 0.22778 0.0
H1537 H 0.67275 0.68019 0.29218 0.0
C1538 C 0.68488 0.6515 0.30887 0.0
C1539 C 0.68467 0.62943 0.30782 0.0
C1540 C 0.63577 0.65476 0.22999 0.0
C1541 C 0.65892 0.65269 0.2723 0.0
C1542 C 0.62505 0.66691 0.21039 0.0
C1543 C 0.62484 0.68896 0.21267 0.0
C1544 C 0.64641 0.66479 0.25186 0.0
C1545 C 0.63541 0.69832 0.235 0.0
C1546 C 0.67198 0.66315 0.29133 0.0
C1547 C 0.67076 0.61948 0.2894 0.0
N1548 N 0.64582 0.6862 0.25363 0.0
N1549 N 0.65856 0.6312 0.27211 0.0
H1550 H 0.28671 0.62051 0.24268 0.0
H1551 H 0.37533 0.7086 0.25676 0.0
H1552 H 0.32489 0.64052 0.17365 0.0
H1553 H 0.35232 0.67289 0.32648 0.0
H1554 H 0.35497 0.68591 0.22575 0.0
H1555 H 0.30859 0.64174 0.2736 0.0
C1556 C 0.29973 0.62937 0.23404 0.0
C1557 C 0.30401 0.62881 0.20558 0.0
C1558 C 0.35445 0.68299 0.24782 0.0
C1559 C 0.32898 0.65322 0.24079 0.0
C1560 C 0.36599 0.69596 0.26553 0.0
C1561 C 0.36544 0.69261 0.29421 0.0
C1562 C 0.34205 0.66674 0.25891 0.0
C1563 C 0.35317 0.67598 0.30448 0.0
C1564 C 0.31224 0.64141 0.25171 0.0
C1565 C 0.3211 0.64052 0.19549 0.0
N1566 N 0.34182 0.66374 0.28684 0.0
N1567 N 0.3329 0.65239 0.21308 0.0
loop_
_geom_bond_atom_site_label_1
_geom_bond_atom_site_label_2
_geom_bond_distance
_geom_bond_site_symmetry_2
_ccdc_geom_bond_type
In0 O1 2.294 . S
In0 O2 2.326 . S
In0 O6 2.266 . S
In0 O7 2.326 . S
In0 O8 2.266 . S
In0 O9 2.326 . S
In0 O11 2.294 . S
In0 O12 2.326 . S
O1 In0 2.294 . S
O1 C10 1.240 . S
O2 In0 2.326 . S
O2 C10 1.252 . S
C3 O6 1.252 . S
C3 O7 1.260 . S
C4 O11 1.240 . S
C4 O12 1.252 . S
C5 O8 1.252 . S
C5 O9 1.260 . S
O6 In0 2.266 . S
O6 C3 1.252 . S
O7 In0 2.326 . S
O7 C3 1.260 . S
O8 In0 2.266 . S
O8 C5 1.252 . S
O9 In0 2.326 . S
O9 C5 1.260 . S
C10 O1 1.240 . S
C10 O2 1.252 . S
O11 In0 2.294 . S
O11 C4 1.240 . S
O12 In0 2.326 . S
O12 C4 1.252 . S
In13 O14 2.294 . S
In13 O15 2.326 . S
In13 O19 2.266 . S
In13 O20 2.326 . S
In13 O21 2.266 . S
In13 O22 2.326 . S
In13 O24 2.294 . S
In13 O25 2.326 . S
O14 In13 2.294 . S
O14 C23 1.240 . S
O15 In13 2.326 . S
O15 C23 1.252 . S
C16 O19 1.252 . S
C16 O20 1.260 . S
C17 O24 1.240 . S
C17 O25 1.252 . S
C18 O21 1.252 . S
C18 O22 1.260 . S
O19 In13 2.266 . S
O19 C16 1.252 . S
O20 In13 2.326 . S
O20 C16 1.260 . S
O21 In13 2.266 . S
O21 C18 1.252 . S
O22 In13 2.326 . S
O22 C18 1.260 . S
C23 O14 1.240 . S
C23 O15 1.252 . S
O24 In13 2.294 . S
O24 C17 1.240 . S
O25 In13 2.326 . S
O25 C17 1.252 . S
In26 O27 2.294 . S
In26 O28 2.326 . S
In26 O32 2.266 . S
In26 O33 2.326 . S
In26 O34 2.266 . S
In26 O35 2.326 . S
In26 O37 2.294 . S
In26 O38 2.326 . S
O27 In26 2.294 . S
O27 C36 1.240 . S
O28 In26 2.326 . S
O28 C36 1.252 . S
C29 O32 1.252 . S
C29 O33 1.260 . S
C30 O37 1.240 . S
C30 O38 1.252 . S
C31 O34 1.252 . S
C31 O35 1.260 . S
O32 In26 2.266 . S
O32 C29 1.252 . S
O33 In26 2.326 . S
O33 C29 1.260 . S
O34 In26 2.266 . S
O34 C31 1.252 . S
O35 In26 2.326 . S
O35 C31 1.260 . S
C36 O27 1.240 . S
C36 O28 1.252 . S
O37 In26 2.294 . S
O37 C30 1.240 . S
O38 In26 2.326 . S
O38 C30 1.252 . S
In39 O40 2.294 . S
In39 O41 2.326 . S
In39 O45 2.266 . S
In39 O46 2.326 . S
In39 O47 2.266 . S
In39 O48 2.326 . S
In39 O50 2.294 . S
In39 O51 2.326 . S
O40 In39 2.294 . S
O40 C49 1.240 . S
O41 In39 2.326 . S
O41 C49 1.252 . S
C42 O45 1.252 . S
C42 O46 1.260 . S
C43 O50 1.240 . S
C43 O51 1.252 . S
C44 O47 1.252 . S
C44 O48 1.260 . S
O45 In39 2.266 . S
O45 C42 1.252 . S
O46 In39 2.326 . S
O46 C42 1.260 . S
O47 In39 2.266 . S
O47 C44 1.252 . S
O48 In39 2.326 . S
O48 C44 1.260 . S
C49 O40 1.240 . S
C49 O41 1.252 . S
O50 In39 2.294 . S
O50 C43 1.240 . S
O51 In39 2.326 . S
O51 C43 1.252 . S
In52 O53 2.294 . S
In52 O54 2.326 . S
In52 O58 2.266 . S
In52 O59 2.326 . S
In52 O60 2.266 . S
In52 O61 2.326 . S
In52 O63 2.294 . S
In52 O64 2.326 . S
O53 In52 2.294 . S
O53 C62 1.240 . S
O54 In52 2.326 . S
O54 C62 1.252 . S
C55 O58 1.252 . S
C55 O59 1.260 . S
C56 O63 1.240 . S
C56 O64 1.252 . S
C57 O60 1.252 . S
C57 O61 1.260 . S
O58 In52 2.266 . S
O58 C55 1.252 . S
O59 In52 2.326 . S
O59 C55 1.260 . S
O60 In52 2.266 . S
O60 C57 1.252 . S
O61 In52 2.326 . S
O61 C57 1.260 . S
C62 O53 1.240 . S
C62 O54 1.252 . S
O63 In52 2.294 . S
O63 C56 1.240 . S
O64 In52 2.326 . S
O64 C56 1.252 . S
In65 O66 2.294 . S
In65 O67 2.326 . S
In65 O71 2.266 . S
In65 O72 2.326 . S
In65 O73 2.266 . S
In65 O74 2.326 . S
In65 O76 2.294 . S
In65 O77 2.326 . S
O66 In65 2.294 . S
O66 C75 1.240 . S
O67 In65 2.326 . S
O67 C75 1.252 . S
C68 O71 1.252 . S
C68 O72 1.260 . S
C69 O76 1.240 . S
C69 O77 1.252 . S
C70 O73 1.252 . S
C70 O74 1.260 . S
O71 In65 2.266 . S
O71 C68 1.252 . S
O72 In65 2.326 . S
O72 C68 1.260 . S
O73 In65 2.266 . S
O73 C70 1.252 . S
O74 In65 2.326 . S
O74 C70 1.260 . S
C75 O66 1.240 . S
C75 O67 1.252 . S
O76 In65 2.294 . S
O76 C69 1.240 . S
O77 In65 2.326 . S
O77 C69 1.252 . S
In78 O79 2.294 . S
In78 O80 2.326 . S
In78 O84 2.266 . S
In78 O85 2.326 . S
In78 O86 2.266 . S
In78 O87 2.326 . S
In78 O89 2.294 . S
In78 O90 2.326 . S
O79 In78 2.294 . S
O79 C88 1.240 . S
O80 In78 2.326 . S
O80 C88 1.252 . S
C81 O84 1.252 . S
C81 O85 1.260 . S
C82 O89 1.240 . S
C82 O90 1.252 . S
C83 O86 1.252 . S
C83 O87 1.260 . S
O84 In78 2.266 . S
O84 C81 1.252 . S
O85 In78 2.326 . S
O85 C81 1.260 . S
O86 In78 2.266 . S
O86 C83 1.252 . S
O87 In78 2.326 . S
O87 C83 1.260 . S
C88 O79 1.240 . S
C88 O80 1.252 . S
O89 In78 2.294 . S
O89 C82 1.240 . S
O90 In78 2.326 . S
O90 C82 1.252 . S
In91 O92 2.294 . S
In91 O93 2.326 . S
In91 O97 2.266 . S
In91 O98 2.326 . S
In91 O99 2.266 . S
In91 O100 2.326 . S
In91 O102 2.294 . S
In91 O103 2.326 . S
O92 In91 2.294 . S
O92 C101 1.240 . S
O93 In91 2.326 . S
O93 C101 1.252 . S
C94 O97 1.252 . S
C94 O98 1.260 . S
C95 O102 1.240 . S
C95 O103 1.252 . S
C96 O99 1.252 . S
C96 O100 1.260 . S
O97 In91 2.266 . S
O97 C94 1.252 . S
O98 In91 2.326 . S
O98 C94 1.260 . S
O99 In91 2.266 . S
O99 C96 1.252 . S
O100 In91 2.326 . S
O100 C96 1.260 . S
C101 O92 1.240 . S
C101 O93 1.252 . S
O102 In91 2.294 . S
O102 C95 1.240 . S
O103 In91 2.326 . S
O103 C95 1.252 . S
In104 O105 2.294 . S
In104 O106 2.326 . S
In104 O110 2.266 . S
In104 O111 2.326 . S
In104 O112 2.266 . S
In104 O113 2.326 . S
In104 O115 2.294 . S
In104 O116 2.326 . S
O105 In104 2.294 . S
O105 C114 1.240 . S
O106 In104 2.326 . S
O106 C114 1.252 . S
C107 O110 1.252 . S
C107 O111 1.260 . S
C108 O115 1.240 . S
C108 O116 1.252 . S
C109 O112 1.252 . S
C109 O113 1.260 . S
O110 In104 2.266 . S
O110 C107 1.252 . S
O111 In104 2.326 . S
O111 C107 1.260 . S
O112 In104 2.266 . S
O112 C109 1.252 . S
O113 In104 2.326 . S
O113 C109 1.260 . S
C114 O105 1.240 . S
C114 O106 1.252 . S
O115 In104 2.294 . S
O115 C108 1.240 . S
O116 In104 2.326 . S
O116 C108 1.252 . S
In117 O118 2.294 . S
In117 O119 2.326 . S
In117 O123 2.266 . S
In117 O124 2.326 . S
In117 O125 2.266 . S
In117 O126 2.326 . S
In117 O128 2.294 . S
In117 O129 2.326 . S
O118 In117 2.294 . S
O118 C127 1.240 . S
O119 In117 2.326 . S
O119 C127 1.252 . S
C120 O123 1.252 . S
C120 O124 1.260 . S
C121 O128 1.240 . S
C121 O129 1.252 . S
C122 O125 1.252 . S
C122 O126 1.260 . S
O123 In117 2.266 . S
O123 C120 1.252 . S
O124 In117 2.326 . S
O124 C120 1.260 . S
O125 In117 2.266 . S
O125 C122 1.252 . S
O126 In117 2.326 . S
O126 C122 1.260 . S
C127 O118 1.240 . S
C127 O119 1.252 . S
O128 In117 2.294 . S
O128 C121 1.240 . S
O129 In117 2.326 . S
O129 C121 1.252 . S
In130 O131 2.294 . S
In130 O132 2.326 . S
In130 O136 2.266 . S
In130 O137 2.326 . S
In130 O138 2.266 . S
In130 O139 2.326 . S
In130 O141 2.294 . S
In130 O142 2.326 . S
O131 In130 2.294 . S
O131 C140 1.240 . S
O132 In130 2.326 . S
O132 C140 1.252 . S
C133 O136 1.252 . S
C133 O137 1.260 . S
C134 O141 1.240 . S
C134 O142 1.252 . S
C135 O138 1.252 . S
C135 O139 1.260 . S
O136 In130 2.266 . S
O136 C133 1.252 . S
O137 In130 2.326 . S
O137 C133 1.260 . S
O138 In130 2.266 . S
O138 C135 1.252 . S
O139 In130 2.326 . S
O139 C135 1.260 . S
C140 O131 1.240 . S
C140 O132 1.252 . S
O141 In130 2.294 . S
O141 C134 1.240 . S
O142 In130 2.326 . S
O142 C134 1.252 . S
In143 O144 2.294 . S
In143 O145 2.326 . S
In143 O149 2.266 . S
In143 O150 2.326 . S
In143 O151 2.266 . S
In143 O152 2.326 . S
In143 O154 2.294 . S
In143 O155 2.326 . S
O144 In143 2.294 . S
O144 C153 1.240 . S
O145 In143 2.326 . S
O145 C153 1.252 . S
C146 O149 1.252 . S
C146 O150 1.260 . S
C147 O154 1.240 . S
C147 O155 1.252 . S
C148 O151 1.252 . S
C148 O152 1.260 . S
O149 In143 2.266 . S
O149 C146 1.252 . S
O150 In143 2.326 . S
O150 C146 1.260 . S
O151 In143 2.266 . S
O151 C148 1.252 . S
O152 In143 2.326 . S
O152 C148 1.260 . S
C153 O144 1.240 . S
C153 O145 1.252 . S
O154 In143 2.294 . S
O154 C147 1.240 . S
O155 In143 2.326 . S
O155 C147 1.252 . S
In156 O157 2.294 . S
In156 O158 2.326 . S
In156 O162 2.266 . S
In156 O163 2.326 . S
In156 O164 2.266 . S
In156 O165 2.326 . S
In156 O167 2.294 . S
In156 O168 2.326 . S
O157 In156 2.294 . S
O157 C166 1.240 . S
O158 In156 2.326 . S
O158 C166 1.252 . S
C159 O162 1.252 . S
C159 O163 1.260 . S
C160 O167 1.240 . S
C160 O168 1.252 . S
C161 O164 1.252 . S
C161 O165 1.260 . S
O162 In156 2.266 . S
O162 C159 1.252 . S
O163 In156 2.326 . S
O163 C159 1.260 . S
O164 In156 2.266 . S
O164 C161 1.252 . S
O165 In156 2.326 . S
O165 C161 1.260 . S
C166 O157 1.240 . S
C166 O158 1.252 . S
O167 In156 2.294 . S
O167 C160 1.240 . S
O168 In156 2.326 . S
O168 C160 1.252 . S
In169 O170 2.294 . S
In169 O171 2.326 . S
In169 O175 2.266 . S
In169 O176 2.326 . S
In169 O177 2.266 . S
In169 O178 2.326 . S
In169 O180 2.294 . S
In169 O181 2.326 . S
O170 In169 2.294 . S
O170 C179 1.240 . S
O171 In169 2.326 . S
O171 C179 1.252 . S
C172 O175 1.252 . S
C172 O176 1.260 . S
C173 O180 1.240 . S
C173 O181 1.252 . S
C174 O177 1.252 . S
C174 O178 1.260 . S
O175 In169 2.266 . S
O175 C172 1.252 . S
O176 In169 2.326 . S
O176 C172 1.260 . S
O177 In169 2.266 . S
O177 C174 1.252 . S
O178 In169 2.326 . S
O178 C174 1.260 . S
C179 O170 1.240 . S
C179 O171 1.252 . S
O180 In169 2.294 . S
O180 C173 1.240 . S
O181 In169 2.326 . S
O181 C173 1.252 . S
In182 O183 2.294 . S
In182 O184 2.326 . S
In182 O188 2.266 . S
In182 O189 2.326 . S
In182 O190 2.266 . S
In182 O191 2.326 . S
In182 O193 2.294 . S
In182 O194 2.326 . S
O183 In182 2.294 . S
O183 C192 1.240 . S
O184 In182 2.326 . S
O184 C192 1.252 . S
C185 O188 1.252 . S
C185 O189 1.260 . S
C186 O193 1.240 . S
C186 O194 1.252 . S
C187 O190 1.252 . S
C187 O191 1.260 . S
O188 In182 2.266 . S
O188 C185 1.252 . S
O189 In182 2.326 . S
O189 C185 1.260 . S
O190 In182 2.266 . S
O190 C187 1.252 . S
O191 In182 2.326 . S
O191 C187 1.260 . S
C192 O183 1.240 . S
C192 O184 1.252 . S
O193 In182 2.294 . S
O193 C186 1.240 . S
O194 In182 2.326 . S
O194 C186 1.252 . S
In195 O196 2.294 . S
In195 O197 2.326 . S
In195 O201 2.266 . S
In195 O202 2.326 . S
In195 O203 2.266 . S
In195 O204 2.326 . S
In195 O206 2.294 . S
In195 O207 2.326 . S
O196 In195 2.294 . S
O196 C205 1.240 . S
O197 In195 2.326 . S
O197 C205 1.252 . S
C198 O201 1.252 . S
C198 O202 1.260 . S
C199 O206 1.240 . S
C199 O207 1.252 . S
C200 O203 1.252 . S
C200 O204 1.260 . S
O201 In195 2.266 . S
O201 C198 1.252 . S
O202 In195 2.326 . S
O202 C198 1.260 . S
O203 In195 2.266 . S
O203 C200 1.252 . S
O204 In195 2.326 . S
O204 C200 1.260 . S
C205 O196 1.240 . S
C205 O197 1.252 . S
O206 In195 2.294 . S
O206 C199 1.240 . S
O207 In195 2.326 . S
O207 C199 1.252 . S
In208 O209 2.294 . S
In208 O210 2.326 . S
In208 O214 2.266 . S
In208 O215 2.326 . S
In208 O216 2.266 . S
In208 O217 2.326 . S
In208 O219 2.294 . S
In208 O220 2.326 . S
O209 In208 2.294 . S
O209 C218 1.240 . S
O210 In208 2.326 . S
O210 C218 1.252 . S
C211 O214 1.252 . S
C211 O215 1.260 . S
C212 O219 1.240 . S
C212 O220 1.252 . S
C213 O216 1.252 . S
C213 O217 1.260 . S
O214 In208 2.266 . S
O214 C211 1.252 . S
O215 In208 2.326 . S
O215 C211 1.260 . S
O216 In208 2.266 . S
O216 C213 1.252 . S
O217 In208 2.326 . S
O217 C213 1.260 . S
C218 O209 1.240 . S
C218 O210 1.252 . S
O219 In208 2.294 . S
O219 C212 1.240 . S
O220 In208 2.326 . S
O220 C212 1.252 . S
In221 O222 2.294 . S
In221 O223 2.326 . S
In221 O227 2.266 . S
In221 O228 2.326 . S
In221 O229 2.266 . S
In221 O230 2.326 . S
In221 O232 2.294 . S
In221 O233 2.326 . S
O222 In221 2.294 . S
O222 C231 1.240 . S
O223 In221 2.326 . S
O223 C231 1.252 . S
C224 O227 1.252 . S
C224 O228 1.260 . S
C225 O232 1.240 . S
C225 O233 1.252 . S
C226 O229 1.252 . S
C226 O230 1.260 . S
O227 In221 2.266 . S
O227 C224 1.252 . S
O228 In221 2.326 . S
O228 C224 1.260 . S
O229 In221 2.266 . S
O229 C226 1.252 . S
O230 In221 2.326 . S
O230 C226 1.260 . S
C231 O222 1.240 . S
C231 O223 1.252 . S
O232 In221 2.294 . S
O232 C225 1.240 . S
O233 In221 2.326 . S
O233 C225 1.252 . S
In234 O235 2.294 . S
In234 O236 2.326 . S
In234 O240 2.266 . S
In234 O241 2.326 . S
In234 O242 2.266 . S
In234 O243 2.326 . S
In234 O245 2.294 . S
In234 O246 2.326 . S
O235 In234 2.294 . S
O235 C244 1.240 . S
O236 In234 2.326 . S
O236 C244 1.252 . S
C237 O240 1.252 . S
C237 O241 1.260 . S
C238 O245 1.240 . S
C238 O246 1.252 . S
C239 O242 1.252 . S
C239 O243 1.260 . S
O240 In234 2.266 . S
O240 C237 1.252 . S
O241 In234 2.326 . S
O241 C237 1.260 . S
O242 In234 2.266 . S
O242 C239 1.252 . S
O243 In234 2.326 . S
O243 C239 1.260 . S
C244 O235 1.240 . S
C244 O236 1.252 . S
O245 In234 2.294 . S
O245 C238 1.240 . S
O246 In234 2.326 . S
O246 C238 1.252 . S
In247 O248 2.294 . S
In247 O249 2.326 . S
In247 O253 2.266 . S
In247 O254 2.326 . S
In247 O255 2.266 . S
In247 O256 2.326 . S
In247 O258 2.294 . S
In247 O259 2.326 . S
O248 In247 2.294 . S
O248 C257 1.240 . S
O249 In247 2.326 . S
O249 C257 1.252 . S
C250 O253 1.252 . S
C250 O254 1.260 . S
C251 O258 1.240 . S
C251 O259 1.252 . S
C252 O255 1.252 . S
C252 O256 1.260 . S
O253 In247 2.266 . S
O253 C250 1.252 . S
O254 In247 2.326 . S
O254 C250 1.260 . S
O255 In247 2.266 . S
O255 C252 1.252 . S
O256 In247 2.326 . S
O256 C252 1.260 . S
C257 O248 1.240 . S
C257 O249 1.252 . S
O258 In247 2.294 . S
O258 C251 1.240 . S
O259 In247 2.326 . S
O259 C251 1.252 . S
In260 O261 2.294 . S
In260 O262 2.326 . S
In260 O266 2.266 . S
In260 O267 2.326 . S
In260 O268 2.266 . S
In260 O269 2.326 . S
In260 O271 2.294 . S
In260 O272 2.326 . S
O261 In260 2.294 . S
O261 C270 1.240 . S
O262 In260 2.326 . S
O262 C270 1.252 . S
C263 O266 1.252 . S
C263 O267 1.260 . S
C264 O271 1.240 . S
C264 O272 1.252 . S
C265 O268 1.252 . S
C265 O269 1.260 . S
O266 In260 2.266 . S
O266 C263 1.252 . S
O267 In260 2.326 . S
O267 C263 1.260 . S
O268 In260 2.266 . S
O268 C265 1.252 . S
O269 In260 2.326 . S
O269 C265 1.260 . S
C270 O261 1.240 . S
C270 O262 1.252 . S
O271 In260 2.294 . S
O271 C264 1.240 . S
O272 In260 2.326 . S
O272 C264 1.252 . S
In273 O274 2.294 . S
In273 O275 2.326 . S
In273 O279 2.266 . S
In273 O280 2.326 . S
In273 O281 2.266 . S
In273 O282 2.326 . S
In273 O284 2.294 . S
In273 O285 2.326 . S
O274 In273 2.294 . S
O274 C283 1.240 . S
O275 In273 2.326 . S
O275 C283 1.252 . S
C276 O279 1.252 . S
C276 O280 1.260 . S
C277 O284 1.240 . S
C277 O285 1.252 . S
C278 O281 1.252 . S
C278 O282 1.260 . S
O279 In273 2.266 . S
O279 C276 1.252 . S
O280 In273 2.326 . S
O280 C276 1.260 . S
O281 In273 2.266 . S
O281 C278 1.252 . S
O282 In273 2.326 . S
O282 C278 1.260 . S
C283 O274 1.240 . S
C283 O275 1.252 . S
O284 In273 2.294 . S
O284 C277 1.240 . S
O285 In273 2.326 . S
O285 C277 1.252 . S
In286 O287 2.294 . S
In286 O288 2.326 . S
In286 O292 2.266 . S
In286 O293 2.326 . S
In286 O294 2.266 . S
In286 O295 2.326 . S
In286 O297 2.294 . S
In286 O298 2.326 . S
O287 In286 2.294 . S
O287 C296 1.240 . S
O288 In286 2.326 . S
O288 C296 1.252 . S
C289 O292 1.252 . S
C289 O293 1.260 . S
C290 O297 1.240 . S
C290 O298 1.252 . S
C291 O294 1.252 . S
C291 O295 1.260 . S
O292 In286 2.266 . S
O292 C289 1.252 . S
O293 In286 2.326 . S
O293 C289 1.260 . S
O294 In286 2.266 . S
O294 C291 1.252 . S
O295 In286 2.326 . S
O295 C291 1.260 . S
C296 O287 1.240 . S
C296 O288 1.252 . S
O297 In286 2.294 . S
O297 C290 1.240 . S
O298 In286 2.326 . S
O298 C290 1.252 . S
In299 O300 2.294 . S
In299 O301 2.326 . S
In299 O305 2.266 . S
In299 O306 2.326 . S
In299 O307 2.266 . S
In299 O308 2.326 . S
In299 O310 2.294 . S
In299 O311 2.326 . S
O300 In299 2.294 . S
O300 C309 1.240 . S
O301 In299 2.326 . S
O301 C309 1.252 . S
C302 O305 1.252 . S
C302 O306 1.260 . S
C303 O310 1.240 . S
C303 O311 1.252 . S
C304 O307 1.252 . S
C304 O308 1.260 . S
O305 In299 2.266 . S
O305 C302 1.252 . S
O306 In299 2.326 . S
O306 C302 1.260 . S
O307 In299 2.266 . S
O307 C304 1.252 . S
O308 In299 2.326 . S
O308 C304 1.260 . S
C309 O300 1.240 . S
C309 O301 1.252 . S
O310 In299 2.294 . S
O310 C303 1.240 . S
O311 In299 2.326 . S
O311 C303 1.252 . S
In312 O313 2.294 . S
In312 O314 2.326 . S
In312 O318 2.266 . S
In312 O319 2.326 . S
In312 O320 2.266 . S
In312 O321 2.326 . S
In312 O323 2.294 . S
In312 O324 2.326 . S
O313 In312 2.294 . S
O313 C322 1.240 . S
O314 In312 2.326 . S
O314 C322 1.252 . S
C315 O318 1.252 . S
C315 O319 1.260 . S
C316 O323 1.240 . S
C316 O324 1.252 . S
C317 O320 1.252 . S
C317 O321 1.260 . S
O318 In312 2.266 . S
O318 C315 1.252 . S
O319 In312 2.326 . S
O319 C315 1.260 . S
O320 In312 2.266 . S
O320 C317 1.252 . S
O321 In312 2.326 . S
O321 C317 1.260 . S
C322 O313 1.240 . S
C322 O314 1.252 . S
O323 In312 2.294 . S
O323 C316 1.240 . S
O324 In312 2.326 . S
O324 C316 1.252 . S
In325 O326 2.294 . S
In325 O327 2.326 . S
In325 O331 2.266 . S
In325 O332 2.326 . S
In325 O333 2.266 . S
In325 O334 2.326 . S
In325 O336 2.294 . S
In325 O337 2.326 . S
O326 In325 2.294 . S
O326 C335 1.240 . S
O327 In325 2.326 . S
O327 C335 1.252 . S
C328 O331 1.252 . S
C328 O332 1.260 . S
C329 O336 1.240 . S
C329 O337 1.252 . S
C330 O333 1.252 . S
C330 O334 1.260 . S
O331 In325 2.266 . S
O331 C328 1.252 . S
O332 In325 2.326 . S
O332 C328 1.260 . S
O333 In325 2.266 . S
O333 C330 1.252 . S
O334 In325 2.326 . S
O334 C330 1.260 . S
C335 O326 1.240 . S
C335 O327 1.252 . S
O336 In325 2.294 . S
O336 C329 1.240 . S
O337 In325 2.326 . S
O337 C329 1.252 . S
In338 O339 2.294 . S
In338 O340 2.326 . S
In338 O344 2.266 . S
In338 O345 2.326 . S
In338 O346 2.266 . S
In338 O347 2.326 . S
In338 O349 2.294 . S
In338 O350 2.326 . S
O339 In338 2.294 . S
O339 C348 1.240 . S
O340 In338 2.326 . S
O340 C348 1.252 . S
C341 O344 1.252 . S
C341 O345 1.260 . S
C342 O349 1.240 . S
C342 O350 1.252 . S
C343 O346 1.252 . S
C343 O347 1.260 . S
O344 In338 2.266 . S
O344 C341 1.252 . S
O345 In338 2.326 . S
O345 C341 1.260 . S
O346 In338 2.266 . S
O346 C343 1.252 . S
O347 In338 2.326 . S
O347 C343 1.260 . S
C348 O339 1.240 . S
C348 O340 1.252 . S
O349 In338 2.294 . S
O349 C342 1.240 . S
O350 In338 2.326 . S
O350 C342 1.252 . S
In351 O352 2.294 . S
In351 O353 2.326 . S
In351 O357 2.266 . S
In351 O358 2.326 . S
In351 O359 2.266 . S
In351 O360 2.326 . S
In351 O362 2.294 . S
In351 O363 2.326 . S
O352 In351 2.294 . S
O352 C361 1.240 . S
O353 In351 2.326 . S
O353 C361 1.252 . S
C354 O357 1.252 . S
C354 O358 1.260 . S
C355 O362 1.240 . S
C355 O363 1.252 . S
C356 O359 1.252 . S
C356 O360 1.260 . S
O357 In351 2.266 . S
O357 C354 1.252 . S
O358 In351 2.326 . S
O358 C354 1.260 . S
O359 In351 2.266 . S
O359 C356 1.252 . S
O360 In351 2.326 . S
O360 C356 1.260 . S
C361 O352 1.240 . S
C361 O353 1.252 . S
O362 In351 2.294 . S
O362 C355 1.240 . S
O363 In351 2.326 . S
O363 C355 1.252 . S
In364 O365 2.294 . S
In364 O366 2.326 . S
In364 O370 2.266 . S
In364 O371 2.326 . S
In364 O372 2.266 . S
In364 O373 2.326 . S
In364 O375 2.294 . S
In364 O376 2.326 . S
O365 In364 2.294 . S
O365 C374 1.240 . S
O366 In364 2.326 . S
O366 C374 1.252 . S
C367 O370 1.252 . S
C367 O371 1.260 . S
C368 O375 1.240 . S
C368 O376 1.252 . S
C369 O372 1.252 . S
C369 O373 1.260 . S
O370 In364 2.266 . S
O370 C367 1.252 . S
O371 In364 2.326 . S
O371 C367 1.260 . S
O372 In364 2.266 . S
O372 C369 1.252 . S
O373 In364 2.326 . S
O373 C369 1.260 . S
C374 O365 1.240 . S
C374 O366 1.252 . S
O375 In364 2.294 . S
O375 C368 1.240 . S
O376 In364 2.326 . S
O376 C368 1.252 . S
In377 O378 2.294 . S
In377 O379 2.326 . S
In377 O383 2.266 . S
In377 O384 2.326 . S
In377 O385 2.266 . S
In377 O386 2.326 . S
In377 O388 2.294 . S
In377 O389 2.326 . S
O378 In377 2.294 . S
O378 C387 1.240 . S
O379 In377 2.326 . S
O379 C387 1.252 . S
C380 O383 1.252 . S
C380 O384 1.260 . S
C381 O388 1.240 . S
C381 O389 1.252 . S
C382 O385 1.252 . S
C382 O386 1.260 . S
O383 In377 2.266 . S
O383 C380 1.252 . S
O384 In377 2.326 . S
O384 C380 1.260 . S
O385 In377 2.266 . S
O385 C382 1.252 . S
O386 In377 2.326 . S
O386 C382 1.260 . S
C387 O378 1.240 . S
C387 O379 1.252 . S
O388 In377 2.294 . S
O388 C381 1.240 . S
O389 In377 2.326 . S
O389 C381 1.252 . S
In390 O391 2.294 . S
In390 O392 2.326 . S
In390 O396 2.266 . S
In390 O397 2.326 . S
In390 O398 2.266 . S
In390 O399 2.326 . S
In390 O401 2.294 . S
In390 O402 2.326 . S
O391 In390 2.294 . S
O391 C400 1.240 . S
O392 In390 2.326 . S
O392 C400 1.252 . S
C393 O396 1.252 . S
C393 O397 1.260 . S
C394 O401 1.240 . S
C394 O402 1.252 . S
C395 O398 1.252 . S
C395 O399 1.260 . S
O396 In390 2.266 . S
O396 C393 1.252 . S
O397 In390 2.326 . S
O397 C393 1.260 . S
O398 In390 2.266 . S
O398 C395 1.252 . S
O399 In390 2.326 . S
O399 C395 1.260 . S
C400 O391 1.240 . S
C400 O392 1.252 . S
O401 In390 2.294 . S
O401 C394 1.240 . S
O402 In390 2.326 . S
O402 C394 1.252 . S
In403 O404 2.294 . S
In403 O405 2.326 . S
In403 O409 2.266 . S
In403 O410 2.326 . S
In403 O411 2.266 . S
In403 O412 2.326 . S
In403 O414 2.294 . S
In403 O415 2.326 . S
O404 In403 2.294 . S
O404 C413 1.240 . S
O405 In403 2.326 . S
O405 C413 1.252 . S
C406 O409 1.252 . S
C406 O410 1.260 . S
C407 O414 1.240 . S
C407 O415 1.252 . S
C408 O411 1.252 . S
C408 O412 1.260 . S
O409 In403 2.266 . S
O409 C406 1.252 . S
O410 In403 2.326 . S
O410 C406 1.260 . S
O411 In403 2.266 . S
O411 C408 1.252 . S
O412 In403 2.326 . S
O412 C408 1.260 . S
C413 O404 1.240 . S
C413 O405 1.252 . S
O414 In403 2.294 . S
O414 C407 1.240 . S
O415 In403 2.326 . S
O415 C407 1.252 . S
H416 C422 0.930 . S
H417 C426 0.930 . S
H418 C431 0.929 . S
H419 C429 0.929 . S
H420 C424 0.929 . S
H421 C430 0.929 . S
C422 H416 0.930 . S
C422 C423 1.367 . S
C422 C430 1.378 . S
C423 C422 1.367 . S
C423 C431 1.433 . S
C424 H420 0.929 . S
C424 C426 1.378 . S
C424 C428 1.350 . S
C425 C428 1.463 . S
C425 C430 1.350 . S
C425 N433 1.427 . S
C426 H417 0.930 . S
C426 C424 1.378 . S
C426 C427 1.367 . S
C427 C426 1.367 . S
C427 C429 1.433 . S
C428 C424 1.350 . S
C428 C425 1.463 . S
C428 N432 1.427 . S
C429 H419 0.929 . S
C429 C427 1.433 . S
C429 N432 1.384 . S
C430 H421 0.929 . S
C430 C422 1.378 . S
C430 C425 1.350 . S
C431 H418 0.929 . S
C431 C423 1.433 . S
C431 N433 1.384 . S
N432 C428 1.427 . S
N432 C429 1.384 . S
N433 C425 1.427 . S
N433 C431 1.384 . S
H434 C440 0.930 . S
H435 C444 0.930 . S
H436 C449 0.929 . S
H437 C447 0.929 . S
H438 C442 0.929 . S
H439 C448 0.929 . S
C440 H434 0.930 . S
C440 C441 1.367 . S
C440 C448 1.378 . S
C441 C440 1.367 . S
C441 C449 1.433 . S
C442 H438 0.929 . S
C442 C444 1.378 . S
C442 C446 1.350 . S
C443 C446 1.463 . S
C443 C448 1.350 . S
C443 N451 1.427 . S
C444 H435 0.930 . S
C444 C442 1.378 . S
C444 C445 1.367 . S
C445 C444 1.367 . S
C445 C447 1.433 . S
C446 C442 1.350 . S
C446 C443 1.463 . S
C446 N450 1.427 . S
C447 H437 0.929 . S
C447 C445 1.433 . S
C447 N450 1.384 . S
C448 H439 0.929 . S
C448 C440 1.378 . S
C448 C443 1.350 . S
C449 H436 0.929 . S
C449 C441 1.433 . S
C449 N451 1.384 . S
N450 C446 1.427 . S
N450 C447 1.384 . S
N451 C443 1.427 . S
N451 C449 1.384 . S
H452 C458 0.930 . S
H453 C462 0.930 . S
H454 C467 0.929 . S
H455 C465 0.929 . S
H456 C460 0.929 . S
H457 C466 0.929 . S
C458 H452 0.930 . S
C458 C459 1.367 . S
C458 C466 1.378 . S
C459 C458 1.367 . S
C459 C467 1.433 . S
C460 H456 0.929 . S
C460 C462 1.378 . S
C460 C464 1.350 . S
C461 C464 1.463 . S
C461 C466 1.350 . S
C461 N469 1.427 . S
C462 H453 0.930 . S
C462 C460 1.378 . S
C462 C463 1.367 . S
C463 C462 1.367 . S
C463 C465 1.433 . S
C464 C460 1.350 . S
C464 C461 1.463 . S
C464 N468 1.427 . S
C465 H455 0.929 . S
C465 C463 1.433 . S
C465 N468 1.384 . S
C466 H457 0.929 . S
C466 C458 1.378 . S
C466 C461 1.350 . S
C467 H454 0.929 . S
C467 C459 1.433 . S
C467 N469 1.384 . S
N468 C464 1.427 . S
N468 C465 1.384 . S
N469 C461 1.427 . S
N469 C467 1.384 . S
H470 C476 0.930 . S
H471 C480 0.930 . S
H472 C485 0.929 . S
H473 C483 0.929 . S
H474 C478 0.929 . S
H475 C484 0.929 . S
C476 H470 0.930 . S
C476 C477 1.367 . S
C476 C484 1.378 . S
C477 C476 1.367 . S
C477 C485 1.433 . S
C478 H474 0.929 . S
C478 C480 1.378 . S
C478 C482 1.350 . S
C479 C482 1.463 . S
C479 C484 1.350 . S
C479 N487 1.427 . S
C480 H471 0.930 . S
C480 C478 1.378 . S
C480 C481 1.367 . S
C481 C480 1.367 . S
C481 C483 1.433 . S
C482 C478 1.350 . S
C482 C479 1.463 . S
C482 N486 1.427 . S
C483 H473 0.929 . S
C483 C481 1.433 . S
C483 N486 1.384 . S
C484 H475 0.929 . S
C484 C476 1.378 . S
C484 C479 1.350 . S
C485 H472 0.929 . S
C485 C477 1.433 . S
C485 N487 1.384 . S
N486 C482 1.427 . S
N486 C483 1.384 . S
N487 C479 1.427 . S
N487 C485 1.384 . S
H488 C494 0.930 . S
H489 C498 0.930 . S
H490 C503 0.929 . S
H491 C501 0.929 . S
H492 C496 0.929 . S
H493 C502 0.929 . S
C494 H488 0.930 . S
C494 C495 1.367 . S
C494 C502 1.378 . S
C495 C494 1.367 . S
C495 C503 1.433 . S
C496 H492 0.929 . S
C496 C498 1.378 . S
C496 C500 1.350 . S
C497 C500 1.463 . S
C497 C502 1.350 . S
C497 N505 1.427 . S
C498 H489 0.930 . S
C498 C496 1.378 . S
C498 C499 1.367 . S
C499 C498 1.367 . S
C499 C501 1.433 . S
C500 C496 1.350 . S
C500 C497 1.463 . S
C500 N504 1.427 . S
C501 H491 0.929 . S
C501 C499 1.433 . S
C501 N504 1.384 . S
C502 H493 0.929 . S
C502 C494 1.378 . S
C502 C497 1.350 . S
C503 H490 0.929 . S
C503 C495 1.433 . S
C503 N505 1.384 . S
N504 C500 1.427 . S
N504 C501 1.384 . S
N505 C497 1.427 . S
N505 C503 1.384 . S
H506 C512 0.930 . S
H507 C516 0.930 . S
H508 C521 0.929 . S
H509 C519 0.929 . S
H510 C514 0.929 . S
H511 C520 0.929 . S
C512 H506 0.930 . S
C512 C513 1.367 . S
C512 C520 1.378 . S
C513 C512 1.367 . S
C513 C521 1.433 . S
C514 H510 0.929 . S
C514 C516 1.378 . S
C514 C518 1.350 . S
C515 C518 1.463 . S
C515 C520 1.350 . S
C515 N523 1.427 . S
C516 H507 0.930 . S
C516 C514 1.378 . S
C516 C517 1.367 . S
C517 C516 1.367 . S
C517 C519 1.433 . S
C518 C514 1.350 . S
C518 C515 1.463 . S
C518 N522 1.427 . S
C519 H509 0.929 . S
C519 C517 1.433 . S
C519 N522 1.384 . S
C520 H511 0.929 . S
C520 C512 1.378 . S
C520 C515 1.350 . S
C521 H508 0.929 . S
C521 C513 1.433 . S
C521 N523 1.384 . S
N522 C518 1.427 . S
N522 C519 1.384 . S
N523 C515 1.427 . S
N523 C521 1.384 . S
H524 C530 0.930 . S
H525 C534 0.930 . S
H526 C539 0.929 . S
H527 C537 0.929 . S
H528 C532 0.929 . S
H529 C538 0.929 . S
C530 H524 0.930 . S
C530 C531 1.367 . S
C530 C538 1.378 . S
C531 C530 1.367 . S
C531 C539 1.433 . S
C532 H528 0.929 . S
C532 C534 1.378 . S
C532 C536 1.350 . S
C533 C536 1.463 . S
C533 C538 1.350 . S
C533 N541 1.427 . S
C534 H525 0.930 . S
C534 C532 1.378 . S
C534 C535 1.367 . S
C535 C534 1.367 . S
C535 C537 1.433 . S
C536 C532 1.350 . S
C536 C533 1.463 . S
C536 N540 1.427 . S
C537 H527 0.929 . S
C537 C535 1.433 . S
C537 N540 1.384 . S
C538 H529 0.929 . S
C538 C530 1.378 . S
C538 C533 1.350 . S
C539 H526 0.929 . S
C539 C531 1.433 . S
C539 N541 1.384 . S
N540 C536 1.427 . S
N540 C537 1.384 . S
N541 C533 1.427 . S
N541 C539 1.384 . S
H542 C548 0.930 . S
H543 C552 0.930 . S
H544 C557 0.929 . S
H545 C555 0.929 . S
H546 C550 0.929 . S
H547 C556 0.929 . S
C548 H542 0.930 . S
C548 C549 1.367 . S
C548 C556 1.378 . S
C549 C548 1.367 . S
C549 C557 1.433 . S
C550 H546 0.929 . S
C550 C552 1.378 . S
C550 C554 1.350 . S
C551 C554 1.463 . S
C551 C556 1.350 . S
C551 N559 1.427 . S
C552 H543 0.930 . S
C552 C550 1.378 . S
C552 C553 1.367 . S
C553 C552 1.367 . S
C553 C555 1.433 . S
C554 C550 1.350 . S
C554 C551 1.463 . S
C554 N558 1.427 . S
C555 H545 0.929 . S
C555 C553 1.433 . S
C555 N558 1.384 . S
C556 H547 0.929 . S
C556 C548 1.378 . S
C556 C551 1.350 . S
C557 H544 0.929 . S
C557 C549 1.433 . S
C557 N559 1.384 . S
N558 C554 1.427 . S
N558 C555 1.384 . S
N559 C551 1.427 . S
N559 C557 1.384 . S
H560 C566 0.930 . S
H561 C570 0.930 . S
H562 C575 0.929 . S
H563 C573 0.929 . S
H564 C568 0.929 . S
H565 C574 0.929 . S
C566 H560 0.930 . S
C566 C567 1.367 . S
C566 C574 1.378 . S
C567 C566 1.367 . S
C567 C575 1.433 . S
C568 H564 0.929 . S
C568 C570 1.378 . S
C568 C572 1.350 . S
C569 C572 1.463 . S
C569 C574 1.350 . S
C569 N577 1.427 . S
C570 H561 0.930 . S
C570 C568 1.378 . S
C570 C571 1.367 . S
C571 C570 1.367 . S
C571 C573 1.433 . S
C572 C568 1.350 . S
C572 C569 1.463 . S
C572 N576 1.427 . S
C573 H563 0.929 . S
C573 C571 1.433 . S
C573 N576 1.384 . S
C574 H565 0.929 . S
C574 C566 1.378 . S
C574 C569 1.350 . S
C575 H562 0.929 . S
C575 C567 1.433 . S
C575 N577 1.384 . S
N576 C572 1.427 . S
N576 C573 1.384 . S
N577 C569 1.427 . S
N577 C575 1.384 . S
H578 C584 0.930 . S
H579 C588 0.930 . S
H580 C593 0.929 . S
H581 C591 0.929 . S
H582 C586 0.929 . S
H583 C592 0.929 . S
C584 H578 0.930 . S
C584 C585 1.367 . S
C584 C592 1.378 . S
C585 C584 1.367 . S
C585 C593 1.433 . S
C586 H582 0.929 . S
C586 C588 1.378 . S
C586 C590 1.350 . S
C587 C590 1.463 . S
C587 C592 1.350 . S
C587 N595 1.427 . S
C588 H579 0.930 . S
C588 C586 1.378 . S
C588 C589 1.367 . S
C589 C588 1.367 . S
C589 C591 1.433 . S
C590 C586 1.350 . S
C590 C587 1.463 . S
C590 N594 1.427 . S
C591 H581 0.929 . S
C591 C589 1.433 . S
C591 N594 1.384 . S
C592 H583 0.929 . S
C592 C584 1.378 . S
C592 C587 1.350 . S
C593 H580 0.929 . S
C593 C585 1.433 . S
C593 N595 1.384 . S
N594 C590 1.427 . S
N594 C591 1.384 . S
N595 C587 1.427 . S
N595 C593 1.384 . S
H596 C602 0.930 . S
H597 C606 0.930 . S
H598 C611 0.929 . S
H599 C609 0.929 . S
H600 C604 0.929 . S
H601 C610 0.929 . S
C602 H596 0.930 . S
C602 C603 1.367 . S
C602 C610 1.378 . S
C603 C602 1.367 . S
C603 C611 1.433 . S
C604 H600 0.929 . S
C604 C606 1.378 . S
C604 C608 1.350 . S
C605 C608 1.463 . S
C605 C610 1.350 . S
C605 N613 1.427 . S
C606 H597 0.930 . S
C606 C604 1.378 . S
C606 C607 1.367 . S
C607 C606 1.367 . S
C607 C609 1.433 . S
C608 C604 1.350 . S
C608 C605 1.463 . S
C608 N612 1.427 . S
C609 H599 0.929 . S
C609 C607 1.433 . S
C609 N612 1.384 . S
C610 H601 0.929 . S
C610 C602 1.378 . S
C610 C605 1.350 . S
C611 H598 0.929 . S
C611 C603 1.433 . S
C611 N613 1.384 . S
N612 C608 1.427 . S
N612 C609 1.384 . S
N613 C605 1.427 . S
N613 C611 1.384 . S
H614 C620 0.930 . S
H615 C624 0.930 . S
H616 C629 0.929 . S
H617 C627 0.929 . S
H618 C622 0.929 . S
H619 C628 0.929 . S
C620 H614 0.930 . S
C620 C621 1.367 . S
C620 C628 1.378 . S
C621 C620 1.367 . S
C621 C629 1.433 . S
C622 H618 0.929 . S
C622 C624 1.378 . S
C622 C626 1.350 . S
C623 C626 1.463 . S
C623 C628 1.350 . S
C623 N631 1.427 . S
C624 H615 0.930 . S
C624 C622 1.378 . S
C624 C625 1.367 . S
C625 C624 1.367 . S
C625 C627 1.433 . S
C626 C622 1.350 . S
C626 C623 1.463 . S
C626 N630 1.427 . S
C627 H617 0.929 . S
C627 C625 1.433 . S
C627 N630 1.384 . S
C628 H619 0.929 . S
C628 C620 1.378 . S
C628 C623 1.350 . S
C629 H616 0.929 . S
C629 C621 1.433 . S
C629 N631 1.384 . S
N630 C626 1.427 . S
N630 C627 1.384 . S
N631 C623 1.427 . S
N631 C629 1.384 . S
H632 C638 0.930 . S
H633 C642 0.930 . S
H634 C647 0.929 . S
H635 C645 0.929 . S
H636 C640 0.929 . S
H637 C646 0.929 . S
C638 H632 0.930 . S
C638 C639 1.367 . S
C638 C646 1.378 . S
C639 C638 1.367 . S
C639 C647 1.433 . S
C640 H636 0.929 . S
C640 C642 1.378 . S
C640 C644 1.350 . S
C641 C644 1.463 . S
C641 C646 1.350 . S
C641 N649 1.427 . S
C642 H633 0.930 . S
C642 C640 1.378 . S
C642 C643 1.367 . S
C643 C642 1.367 . S
C643 C645 1.433 . S
C644 C640 1.350 . S
C644 C641 1.463 . S
C644 N648 1.427 . S
C645 H635 0.929 . S
C645 C643 1.433 . S
C645 N648 1.384 . S
C646 H637 0.929 . S
C646 C638 1.378 . S
C646 C641 1.350 . S
C647 H634 0.929 . S
C647 C639 1.433 . S
C647 N649 1.384 . S
N648 C644 1.427 . S
N648 C645 1.384 . S
N649 C641 1.427 . S
N649 C647 1.384 . S
H650 C656 0.930 . S
H651 C660 0.930 . S
H652 C665 0.929 . S
H653 C663 0.929 . S
H654 C658 0.929 . S
H655 C664 0.929 . S
C656 H650 0.930 . S
C656 C657 1.367 . S
C656 C664 1.378 . S
C657 C656 1.367 . S
C657 C665 1.433 . S
C658 H654 0.929 . S
C658 C660 1.378 . S
C658 C662 1.350 . S
C659 C662 1.463 . S
C659 C664 1.350 . S
C659 N667 1.427 . S
C660 H651 0.930 . S
C660 C658 1.378 . S
C660 C661 1.367 . S
C661 C660 1.367 . S
C661 C663 1.433 . S
C662 C658 1.350 . S
C662 C659 1.463 . S
C662 N666 1.427 . S
C663 H653 0.929 . S
C663 C661 1.433 . S
C663 N666 1.384 . S
C664 H655 0.929 . S
C664 C656 1.378 . S
C664 C659 1.350 . S
C665 H652 0.929 . S
C665 C657 1.433 . S
C665 N667 1.384 . S
N666 C662 1.427 . S
N666 C663 1.384 . S
N667 C659 1.427 . S
N667 C665 1.384 . S
H668 C674 0.930 . S
H669 C678 0.930 . S
H670 C683 0.929 . S
H671 C681 0.929 . S
H672 C676 0.929 . S
H673 C682 0.929 . S
C674 H668 0.930 . S
C674 C675 1.367 . S
C674 C682 1.378 . S
C675 C674 1.367 . S
C675 C683 1.433 . S
C676 H672 0.929 . S
C676 C678 1.378 . S
C676 C680 1.350 . S
C677 C680 1.463 . S
C677 C682 1.350 . S
C677 N685 1.427 . S
C678 H669 0.930 . S
C678 C676 1.378 . S
C678 C679 1.367 . S
C679 C678 1.367 . S
C679 C681 1.433 . S
C680 C676 1.350 . S
C680 C677 1.463 . S
C680 N684 1.427 . S
C681 H671 0.929 . S
C681 C679 1.433 . S
C681 N684 1.384 . S
C682 H673 0.929 . S
C682 C674 1.378 . S
C682 C677 1.350 . S
C683 H670 0.929 . S
C683 C675 1.433 . S
C683 N685 1.384 . S
N684 C680 1.427 . S
N684 C681 1.384 . S
N685 C677 1.427 . S
N685 C683 1.384 . S
H686 C692 0.930 . S
H687 C696 0.930 . S
H688 C701 0.929 . S
H689 C699 0.929 . S
H690 C694 0.929 . S
H691 C700 0.929 . S
C692 H686 0.930 . S
C692 C693 1.367 . S
C692 C700 1.378 . S
C693 C692 1.367 . S
C693 C701 1.433 . S
C694 H690 0.929 . S
C694 C696 1.378 . S
C694 C698 1.350 . S
C695 C698 1.463 . S
C695 C700 1.350 . S
C695 N703 1.427 . S
C696 H687 0.930 . S
C696 C694 1.378 . S
C696 C697 1.367 . S
C697 C696 1.367 . S
C697 C699 1.433 . S
C698 C694 1.350 . S
C698 C695 1.463 . S
C698 N702 1.427 . S
C699 H689 0.929 . S
C699 C697 1.433 . S
C699 N702 1.384 . S
C700 H691 0.929 . S
C700 C692 1.378 . S
C700 C695 1.350 . S
C701 H688 0.929 . S
C701 C693 1.433 . S
C701 N703 1.384 . S
N702 C698 1.427 . S
N702 C699 1.384 . S
N703 C695 1.427 . S
N703 C701 1.384 . S
H704 C710 0.930 . S
H705 C714 0.930 . S
H706 C719 0.929 . S
H707 C717 0.929 . S
H708 C712 0.929 . S
H709 C718 0.929 . S
C710 H704 0.930 . S
C710 C711 1.367 . S
C710 C718 1.378 . S
C711 C710 1.367 . S
C711 C719 1.433 . S
C712 H708 0.929 . S
C712 C714 1.378 . S
C712 C716 1.350 . S
C713 C716 1.463 1_554 S
C713 C718 1.350 . S
C713 N721 1.427 . S
C714 H705 0.930 . S
C714 C712 1.378 . S
C714 C715 1.367 . S
C715 C714 1.367 . S
C715 C717 1.433 . S
C716 C712 1.350 . S
C716 C713 1.463 1_556 S
C716 N720 1.427 . S
C717 H707 0.929 . S
C717 C715 1.433 . S
C717 N720 1.384 . S
C718 H709 0.929 . S
C718 C710 1.378 . S
C718 C713 1.350 . S
C719 H706 0.929 . S
C719 C711 1.433 . S
C719 N721 1.384 . S
N720 C716 1.427 . S
N720 C717 1.384 . S
N721 C713 1.427 . S
N721 C719 1.384 . S
H722 C728 0.930 . S
H723 C732 0.930 . S
H724 C737 0.929 . S
H725 C735 0.929 . S
H726 C730 0.929 . S
H727 C736 0.929 . S
C728 H722 0.930 . S
C728 C729 1.367 . S
C728 C736 1.378 . S
C729 C728 1.367 . S
C729 C737 1.433 . S
C730 H726 0.929 . S
C730 C732 1.378 . S
C730 C734 1.350 . S
C731 C734 1.463 1_556 S
C731 C736 1.350 . S
C731 N739 1.427 . S
C732 H723 0.930 . S
C732 C730 1.378 . S
C732 C733 1.367 . S
C733 C732 1.367 . S
C733 C735 1.433 . S
C734 C730 1.350 . S
C734 C731 1.463 1_554 S
C734 N738 1.427 . S
C735 H725 0.929 . S
C735 C733 1.433 . S
C735 N738 1.384 . S
C736 H727 0.929 . S
C736 C728 1.378 . S
C736 C731 1.350 . S
C737 H724 0.929 . S
C737 C729 1.433 . S
C737 N739 1.384 . S
N738 C734 1.427 . S
N738 C735 1.384 . S
N739 C731 1.427 . S
N739 C737 1.384 . S
H740 C746 0.930 . S
H741 C750 0.930 . S
H742 C755 0.929 . S
H743 C753 0.929 . S
H744 C748 0.929 . S
H745 C754 0.929 . S
C746 H740 0.930 . S
C746 C747 1.367 . S
C746 C754 1.378 . S
C747 C746 1.367 . S
C747 C755 1.433 . S
C748 H744 0.929 . S
C748 C750 1.378 . S
C748 C752 1.350 . S
C749 C752 1.463 1_556 S
C749 C754 1.350 . S
C749 N757 1.427 . S
C750 H741 0.930 . S
C750 C748 1.378 . S
C750 C751 1.367 . S
C751 C750 1.367 . S
C751 C753 1.433 . S
C752 C748 1.350 . S
C752 C749 1.463 1_554 S
C752 N756 1.427 . S
C753 H743 0.929 . S
C753 C751 1.433 . S
C753 N756 1.384 . S
C754 H745 0.929 . S
C754 C746 1.378 . S
C754 C749 1.350 . S
C755 H742 0.929 . S
C755 C747 1.433 . S
C755 N757 1.384 . S
N756 C752 1.427 . S
N756 C753 1.384 . S
N757 C749 1.427 . S
N757 C755 1.384 . S
H758 C764 0.930 . S
H759 C768 0.930 . S
H760 C773 0.929 . S
H761 C771 0.929 . S
H762 C766 0.929 . S
H763 C772 0.929 . S
C764 H758 0.930 . S
C764 C765 1.367 . S
C764 C772 1.378 . S
C765 C764 1.367 . S
C765 C773 1.433 . S
C766 H762 0.929 . S
C766 C768 1.378 . S
C766 C770 1.350 . S
C767 C770 1.463 1_556 S
C767 C772 1.350 . S
C767 N775 1.427 . S
C768 H759 0.930 . S
C768 C766 1.378 . S
C768 C769 1.367 . S
C769 C768 1.367 . S
C769 C771 1.433 . S
C770 C766 1.350 . S
C770 C767 1.463 1_554 S
C770 N774 1.427 . S
C771 H761 0.929 . S
C771 C769 1.433 . S
C771 N774 1.384 . S
C772 H763 0.929 . S
C772 C764 1.378 . S
C772 C767 1.350 . S
C773 H760 0.929 . S
C773 C765 1.433 . S
C773 N775 1.384 . S
N774 C770 1.427 . S
N774 C771 1.384 . S
N775 C767 1.427 . S
N775 C773 1.384 . S
H776 C782 0.930 . S
H777 C786 0.930 . S
H778 C791 0.929 . S
H779 C789 0.929 . S
H780 C784 0.929 . S
H781 C790 0.929 . S
C782 H776 0.930 . S
C782 C783 1.367 . S
C782 C790 1.378 . S
C783 C782 1.367 . S
C783 C791 1.433 . S
C784 H780 0.929 . S
C784 C786 1.378 . S
C784 C788 1.350 . S
C785 C788 1.463 . S
C785 C790 1.350 . S
C785 N793 1.427 . S
C786 H777 0.930 . S
C786 C784 1.378 . S
C786 C787 1.367 . S
C787 C786 1.367 . S
C787 C789 1.433 . S
C788 C784 1.350 . S
C788 C785 1.463 . S
C788 N792 1.427 . S
C789 H779 0.929 . S
C789 C787 1.433 . S
C789 N792 1.384 . S
C790 H781 0.929 . S
C790 C782 1.378 . S
C790 C785 1.350 . S
C791 H778 0.929 . S
C791 C783 1.433 . S
C791 N793 1.384 . S
N792 C788 1.427 . S
N792 C789 1.384 . S
N793 C785 1.427 . S
N793 C791 1.384 . S
H794 C800 0.930 . S
H795 C804 0.930 . S
H796 C809 0.929 . S
H797 C807 0.929 . S
H798 C802 0.929 . S
H799 C808 0.929 . S
C800 H794 0.930 . S
C800 C801 1.367 . S
C800 C808 1.378 . S
C801 C800 1.367 . S
C801 C809 1.433 . S
C802 H798 0.929 . S
C802 C804 1.378 . S
C802 C806 1.350 . S
C803 C806 1.463 . S
C803 C808 1.350 . S
C803 N811 1.427 . S
C804 H795 0.930 . S
C804 C802 1.378 . S
C804 C805 1.367 . S
C805 C804 1.367 . S
C805 C807 1.433 . S
C806 C802 1.350 . S
C806 C803 1.463 . S
C806 N810 1.427 . S
C807 H797 0.929 . S
C807 C805 1.433 . S
C807 N810 1.384 . S
C808 H799 0.929 . S
C808 C800 1.378 . S
C808 C803 1.350 . S
C809 H796 0.929 . S
C809 C801 1.433 . S
C809 N811 1.384 . S
N810 C806 1.427 . S
N810 C807 1.384 . S
N811 C803 1.427 . S
N811 C809 1.384 . S
H812 C818 0.930 . S
H813 C822 0.930 . S
H814 C827 0.929 . S
H815 C825 0.929 . S
H816 C820 0.929 . S
H817 C826 0.929 . S
C818 H812 0.930 . S
C818 C819 1.367 . S
C818 C826 1.378 . S
C819 C818 1.367 . S
C819 C827 1.433 . S
C820 H816 0.929 . S
C820 C822 1.378 . S
C820 C824 1.350 . S
C821 C824 1.463 . S
C821 C826 1.350 . S
C821 N829 1.427 . S
C822 H813 0.930 . S
C822 C820 1.378 . S
C822 C823 1.367 . S
C823 C822 1.367 . S
C823 C825 1.433 . S
C824 C820 1.350 . S
C824 C821 1.463 . S
C824 N828 1.427 . S
C825 H815 0.929 . S
C825 C823 1.433 . S
C825 N828 1.384 . S
C826 H817 0.929 . S
C826 C818 1.378 . S
C826 C821 1.350 . S
C827 H814 0.929 . S
C827 C819 1.433 . S
C827 N829 1.384 . S
N828 C824 1.427 . S
N828 C825 1.384 . S
N829 C821 1.427 . S
N829 C827 1.384 . S
H830 C836 0.930 . S
H831 C840 0.930 . S
H832 C845 0.929 . S
H833 C843 0.929 . S
H834 C838 0.929 . S
H835 C844 0.929 . S
C836 H830 0.930 . S
C836 C837 1.367 . S
C836 C844 1.378 . S
C837 C836 1.367 . S
C837 C845 1.433 . S
C838 H834 0.929 . S
C838 C840 1.378 . S
C838 C842 1.350 . S
C839 C842 1.463 . S
C839 C844 1.350 . S
C839 N847 1.427 . S
C840 H831 0.930 . S
C840 C838 1.378 . S
C840 C841 1.367 . S
C841 C840 1.367 . S
C841 C843 1.433 . S
C842 C838 1.350 . S
C842 C839 1.463 . S
C842 N846 1.427 . S
C843 H833 0.929 . S
C843 C841 1.433 . S
C843 N846 1.384 . S
C844 H835 0.929 . S
C844 C836 1.378 . S
C844 C839 1.350 . S
C845 H832 0.929 . S
C845 C837 1.433 . S
C845 N847 1.384 . S
N846 C842 1.427 . S
N846 C843 1.384 . S
N847 C839 1.427 . S
N847 C845 1.384 . S
H848 C854 0.930 . S
H849 C858 0.930 . S
H850 C863 0.929 . S
H851 C861 0.929 . S
H852 C856 0.929 . S
H853 C862 0.929 . S
C854 H848 0.930 . S
C854 C855 1.367 . S
C854 C862 1.378 . S
C855 C854 1.367 . S
C855 C863 1.433 . S
C856 H852 0.929 . S
C856 C858 1.378 . S
C856 C860 1.350 . S
C857 C860 1.463 . S
C857 C862 1.350 . S
C857 N865 1.427 . S
C858 H849 0.930 . S
C858 C856 1.378 . S
C858 C859 1.367 . S
C859 C858 1.367 . S
C859 C861 1.433 . S
C860 C856 1.350 . S
C860 C857 1.463 . S
C860 N864 1.427 . S
C861 H851 0.929 . S
C861 C859 1.433 . S
C861 N864 1.384 . S
C862 H853 0.929 . S
C862 C854 1.378 . S
C862 C857 1.350 . S
C863 H850 0.929 . S
C863 C855 1.433 . S
C863 N865 1.384 . S
N864 C860 1.427 . S
N864 C861 1.384 . S
N865 C857 1.427 . S
N865 C863 1.384 . S
H866 C872 0.930 . S
H867 C876 0.930 . S
H868 C881 0.929 . S
H869 C879 0.929 . S
H870 C874 0.929 . S
H871 C880 0.929 . S
C872 H866 0.930 . S
C872 C873 1.367 . S
C872 C880 1.378 . S
C873 C872 1.367 . S
C873 C881 1.433 . S
C874 H870 0.929 . S
C874 C876 1.378 . S
C874 C878 1.350 . S
C875 C878 1.463 . S
C875 C880 1.350 . S
C875 N883 1.427 . S
C876 H867 0.930 . S
C876 C874 1.378 . S
C876 C877 1.367 . S
C877 C876 1.367 . S
C877 C879 1.433 . S
C878 C874 1.350 . S
C878 C875 1.463 . S
C878 N882 1.427 . S
C879 H869 0.929 . S
C879 C877 1.433 . S
C879 N882 1.384 . S
C880 H871 0.929 . S
C880 C872 1.378 . S
C880 C875 1.350 . S
C881 H868 0.929 . S
C881 C873 1.433 . S
C881 N883 1.384 . S
N882 C878 1.427 . S
N882 C879 1.384 . S
N883 C875 1.427 . S
N883 C881 1.384 . S
H884 C890 0.930 . S
H885 C894 0.930 . S
H886 C899 0.929 . S
H887 C897 0.929 . S
H888 C892 0.929 . S
H889 C898 0.929 . S
C890 H884 0.930 . S
C890 C891 1.367 . S
C890 C898 1.378 . S
C891 C890 1.367 . S
C891 C899 1.433 . S
C892 H888 0.929 . S
C892 C894 1.378 . S
C892 C896 1.350 . S
C893 C896 1.463 . S
C893 C898 1.350 . S
C893 N901 1.427 . S
C894 H885 0.930 . S
C894 C892 1.378 . S
C894 C895 1.367 . S
C895 C894 1.367 . S
C895 C897 1.433 . S
C896 C892 1.350 . S
C896 C893 1.463 . S
C896 N900 1.427 . S
C897 H887 0.929 . S
C897 C895 1.433 . S
C897 N900 1.384 . S
C898 H889 0.929 . S
C898 C890 1.378 . S
C898 C893 1.350 . S
C899 H886 0.929 . S
C899 C891 1.433 . S
C899 N901 1.384 . S
N900 C896 1.427 . S
N900 C897 1.384 . S
N901 C893 1.427 . S
N901 C899 1.384 . S
H902 C908 0.930 . S
H903 C912 0.930 . S
H904 C917 0.929 . S
H905 C915 0.929 . S
H906 C910 0.929 . S
H907 C916 0.929 . S
C908 H902 0.930 . S
C908 C909 1.367 . S
C908 C916 1.378 . S
C909 C908 1.367 . S
C909 C917 1.433 . S
C910 H906 0.929 . S
C910 C912 1.378 . S
C910 C914 1.350 . S
C911 C914 1.463 . S
C911 C916 1.350 . S
C911 N919 1.427 . S
C912 H903 0.930 . S
C912 C910 1.378 . S
C912 C913 1.367 . S
C913 C912 1.367 . S
C913 C915 1.433 . S
C914 C910 1.350 . S
C914 C911 1.463 . S
C914 N918 1.427 . S
C915 H905 0.929 . S
C915 C913 1.433 . S
C915 N918 1.384 . S
C916 H907 0.929 . S
C916 C908 1.378 . S
C916 C911 1.350 . S
C917 H904 0.929 . S
C917 C909 1.433 . S
C917 N919 1.384 . S
N918 C914 1.427 . S
N918 C915 1.384 . S
N919 C911 1.427 . S
N919 C917 1.384 . S
H920 C926 0.930 . S
H921 C930 0.930 . S
H922 C935 0.929 . S
H923 C933 0.929 . S
H924 C928 0.929 . S
H925 C934 0.929 . S
C926 H920 0.930 . S
C926 C927 1.367 . S
C926 C934 1.378 . S
C927 C926 1.367 . S
C927 C935 1.433 . S
C928 H924 0.929 . S
C928 C930 1.378 . S
C928 C932 1.350 . S
C929 C932 1.463 1_556 S
C929 C934 1.350 . S
C929 N937 1.427 . S
C930 H921 0.930 . S
C930 C928 1.378 . S
C930 C931 1.367 . S
C931 C930 1.367 . S
C931 C933 1.433 . S
C932 C928 1.350 . S
C932 C929 1.463 1_554 S
C932 N936 1.427 . S
C933 H923 0.929 . S
C933 C931 1.433 . S
C933 N936 1.384 . S
C934 H925 0.929 . S
C934 C926 1.378 . S
C934 C929 1.350 . S
C935 H922 0.929 . S
C935 C927 1.433 . S
C935 N937 1.384 . S
N936 C932 1.427 . S
N936 C933 1.384 . S
N937 C929 1.427 . S
N937 C935 1.384 . S
H938 C944 0.930 . S
H939 C948 0.930 . S
H940 C953 0.929 . S
H941 C951 0.929 . S
H942 C946 0.929 . S
H943 C952 0.929 . S
C944 H938 0.930 . S
C944 C945 1.367 . S
C944 C952 1.378 . S
C945 C944 1.367 . S
C945 C953 1.433 . S
C946 H942 0.929 . S
C946 C948 1.378 . S
C946 C950 1.350 . S
C947 C950 1.463 1_554 S
C947 C952 1.350 . S
C947 N955 1.427 . S
C948 H939 0.930 . S
C948 C946 1.378 . S
C948 C949 1.367 . S
C949 C948 1.367 . S
C949 C951 1.433 . S
C950 C946 1.350 . S
C950 C947 1.463 1_556 S
C950 N954 1.427 . S
C951 H941 0.929 . S
C951 C949 1.433 . S
C951 N954 1.384 . S
C952 H943 0.929 . S
C952 C944 1.378 . S
C952 C947 1.350 . S
C953 H940 0.929 . S
C953 C945 1.433 . S
C953 N955 1.384 . S
N954 C950 1.427 . S
N954 C951 1.384 . S
N955 C947 1.427 . S
N955 C953 1.384 . S
H956 C962 0.930 . S
H957 C966 0.930 . S
H958 C971 0.929 . S
H959 C969 0.929 . S
H960 C964 0.929 . S
H961 C970 0.929 . S
C962 H956 0.930 . S
C962 C963 1.367 . S
C962 C970 1.378 . S
C963 C962 1.367 . S
C963 C971 1.433 . S
C964 H960 0.929 . S
C964 C966 1.378 . S
C964 C968 1.350 . S
C965 C968 1.463 1_554 S
C965 C970 1.350 . S
C965 N973 1.427 . S
C966 H957 0.930 . S
C966 C964 1.378 . S
C966 C967 1.367 . S
C967 C966 1.367 . S
C967 C969 1.433 . S
C968 C964 1.350 . S
C968 C965 1.463 1_556 S
C968 N972 1.427 . S
C969 H959 0.929 . S
C969 C967 1.433 . S
C969 N972 1.384 . S
C970 H961 0.929 . S
C970 C962 1.378 . S
C970 C965 1.350 . S
C971 H958 0.929 . S
C971 C963 1.433 . S
C971 N973 1.384 . S
N972 C968 1.427 . S
N972 C969 1.384 . S
N973 C965 1.427 . S
N973 C971 1.384 . S
H974 C980 0.930 . S
H975 C984 0.930 . S
H976 C989 0.929 . S
H977 C987 0.929 . S
H978 C982 0.929 . S
H979 C988 0.929 . S
C980 H974 0.930 . S
C980 C981 1.367 . S
C980 C988 1.378 . S
C981 C980 1.367 . S
C981 C989 1.433 . S
C982 H978 0.929 . S
C982 C984 1.378 . S
C982 C986 1.350 . S
C983 C986 1.463 1_556 S
C983 C988 1.350 . S
C983 N991 1.427 . S
C984 H975 0.930 . S
C984 C982 1.378 . S
C984 C985 1.367 . S
C985 C984 1.367 . S
C985 C987 1.433 . S
C986 C982 1.350 . S
C986 C983 1.463 1_554 S
C986 N990 1.427 . S
C987 H977 0.929 . S
C987 C985 1.433 . S
C987 N990 1.384 . S
C988 H979 0.929 . S
C988 C980 1.378 . S
C988 C983 1.350 . S
C989 H976 0.929 . S
C989 C981 1.433 . S
C989 N991 1.384 . S
N990 C986 1.427 . S
N990 C987 1.384 . S
N991 C983 1.427 . S
N991 C989 1.384 . S
H992 C998 0.930 . S
H993 C1002 0.930 . S
H994 C1007 0.929 . S
H995 C1005 0.929 . S
H996 C1000 0.929 . S
H997 C1006 0.929 . S
C998 H992 0.930 . S
C998 C999 1.367 . S
C998 C1006 1.378 . S
C999 C998 1.367 . S
C999 C1007 1.433 . S
C1000 H996 0.929 . S
C1000 C1002 1.378 . S
C1000 C1004 1.350 . S
C1001 C1004 1.463 1_545 S
C1001 C1006 1.350 . S
C1001 N1009 1.427 . S
C1002 H993 0.930 . S
C1002 C1000 1.378 . S
C1002 C1003 1.367 . S
C1003 C1002 1.367 . S
C1003 C1005 1.433 . S
C1004 C1000 1.350 . S
C1004 C1001 1.463 1_565 S
C1004 N1008 1.427 . S
C1005 H995 0.929 . S
C1005 C1003 1.433 . S
C1005 N1008 1.384 . S
C1006 H997 0.929 . S
C1006 C998 1.378 . S
C1006 C1001 1.350 . S
C1007 H994 0.929 . S
C1007 C999 1.433 . S
C1007 N1009 1.384 . S
N1008 C1004 1.427 . S
N1008 C1005 1.384 . S
N1009 C1001 1.427 . S
N1009 C1007 1.384 . S
H1010 C1016 0.930 . S
H1011 C1020 0.930 . S
H1012 C1025 0.929 . S
H1013 C1023 0.929 . S
H1014 C1018 0.929 . S
H1015 C1024 0.929 . S
C1016 H1010 0.930 . S
C1016 C1017 1.367 . S
C1016 C1024 1.378 . S
C1017 C1016 1.367 . S
C1017 C1025 1.433 . S
C1018 H1014 0.929 . S
C1018 C1020 1.378 . S
C1018 C1022 1.350 . S
C1019 C1022 1.463 1_655 S
C1019 C1024 1.350 . S
C1019 N1027 1.427 . S
C1020 H1011 0.930 . S
C1020 C1018 1.378 . S
C1020 C1021 1.367 . S
C1021 C1020 1.367 . S
C1021 C1023 1.433 . S
C1022 C1018 1.350 . S
C1022 C1019 1.463 1_455 S
C1022 N1026 1.427 . S
C1023 H1013 0.929 . S
C1023 C1021 1.433 . S
C1023 N1026 1.384 . S
C1024 H1015 0.929 . S
C1024 C1016 1.378 . S
C1024 C1019 1.350 . S
C1025 H1012 0.929 . S
C1025 C1017 1.433 . S
C1025 N1027 1.384 . S
N1026 C1022 1.427 . S
N1026 C1023 1.384 . S
N1027 C1019 1.427 . S
N1027 C1025 1.384 . S
H1028 C1034 0.930 . S
H1029 C1038 0.930 . S
H1030 C1043 0.929 . S
H1031 C1041 0.929 . S
H1032 C1036 0.929 1_545 S
H1033 C1042 0.929 1_565 S
C1034 H1028 0.930 . S
C1034 C1035 1.367 . S
C1034 C1042 1.378 . S
C1035 C1034 1.367 . S
C1035 C1043 1.433 . S
C1036 H1032 0.929 1_565 S
C1036 C1038 1.378 . S
C1036 C1040 1.350 . S
C1037 C1040 1.463 1_545 S
C1037 C1042 1.350 . S
C1037 N1045 1.427 . S
C1038 H1029 0.930 . S
C1038 C1036 1.378 . S
C1038 C1039 1.367 . S
C1039 C1038 1.367 . S
C1039 C1041 1.433 . S
C1040 C1036 1.350 . S
C1040 C1037 1.463 1_565 S
C1040 N1044 1.427 . S
C1041 H1031 0.929 . S
C1041 C1039 1.433 . S
C1041 N1044 1.384 . S
C1042 H1033 0.929 1_545 S
C1042 C1034 1.378 . S
C1042 C1037 1.350 . S
C1043 H1030 0.929 . S
C1043 C1035 1.433 . S
C1043 N1045 1.384 . S
N1044 C1040 1.427 . S
N1044 C1041 1.384 . S
N1045 C1037 1.427 . S
N1045 C1043 1.384 . S
H1046 C1052 0.930 . S
H1047 C1056 0.930 . S
H1048 C1061 0.929 . S
H1049 C1059 0.929 . S
H1050 C1054 0.929 1_455 S
H1051 C1060 0.929 1_655 S
C1052 H1046 0.930 . S
C1052 C1053 1.367 . S
C1052 C1060 1.378 . S
C1053 C1052 1.367 . S
C1053 C1061 1.433 . S
C1054 H1050 0.929 1_655 S
C1054 C1056 1.378 . S
C1054 C1058 1.350 . S
C1055 C1058 1.463 1_455 S
C1055 C1060 1.350 . S
C1055 N1063 1.427 . S
C1056 H1047 0.930 . S
C1056 C1054 1.378 . S
C1056 C1057 1.367 . S
C1057 C1056 1.367 . S
C1057 C1059 1.433 . S
C1058 C1054 1.350 . S
C1058 C1055 1.463 1_655 S
C1058 N1062 1.427 . S
C1059 H1049 0.929 . S
C1059 C1057 1.433 . S
C1059 N1062 1.384 . S
C1060 H1051 0.929 1_455 S
C1060 C1052 1.378 . S
C1060 C1055 1.350 . S
C1061 H1048 0.929 . S
C1061 C1053 1.433 . S
C1061 N1063 1.384 . S
N1062 C1058 1.427 . S
N1062 C1059 1.384 . S
N1063 C1055 1.427 . S
N1063 C1061 1.384 . S
H1064 C1070 0.930 . S
H1065 C1074 0.930 . S
H1066 C1079 0.929 . S
H1067 C1077 0.929 . S
H1068 C1072 0.929 . S
H1069 C1078 0.929 . S
C1070 H1064 0.930 . S
C1070 C1071 1.367 . S
C1070 C1078 1.378 . S
C1071 C1070 1.367 . S
C1071 C1079 1.433 . S
C1072 H1068 0.929 . S
C1072 C1074 1.378 . S
C1072 C1076 1.350 . S
C1073 C1076 1.463 1_565 S
C1073 C1078 1.350 . S
C1073 N1081 1.427 . S
C1074 H1065 0.930 . S
C1074 C1072 1.378 . S
C1074 C1075 1.367 . S
C1075 C1074 1.367 . S
C1075 C1077 1.433 . S
C1076 C1072 1.350 . S
C1076 C1073 1.463 1_545 S
C1076 N1080 1.427 . S
C1077 H1067 0.929 . S
C1077 C1075 1.433 . S
C1077 N1080 1.384 . S
C1078 H1069 0.929 . S
C1078 C1070 1.378 . S
C1078 C1073 1.350 . S
C1079 H1066 0.929 . S
C1079 C1071 1.433 . S
C1079 N1081 1.384 . S
N1080 C1076 1.427 . S
N1080 C1077 1.384 . S
N1081 C1073 1.427 . S
N1081 C1079 1.384 . S
H1082 C1088 0.930 . S
H1083 C1092 0.930 . S
H1084 C1097 0.929 . S
H1085 C1095 0.929 . S
H1086 C1090 0.929 . S
H1087 C1096 0.929 . S
C1088 H1082 0.930 . S
C1088 C1089 1.367 . S
C1088 C1096 1.378 . S
C1089 C1088 1.367 . S
C1089 C1097 1.433 . S
C1090 H1086 0.929 . S
C1090 C1092 1.378 . S
C1090 C1094 1.350 . S
C1091 C1094 1.463 1_655 S
C1091 C1096 1.350 . S
C1091 N1099 1.427 . S
C1092 H1083 0.930 . S
C1092 C1090 1.378 . S
C1092 C1093 1.367 . S
C1093 C1092 1.367 . S
C1093 C1095 1.433 . S
C1094 C1090 1.350 . S
C1094 C1091 1.463 1_455 S
C1094 N1098 1.427 . S
C1095 H1085 0.929 . S
C1095 C1093 1.433 . S
C1095 N1098 1.384 . S
C1096 H1087 0.929 . S
C1096 C1088 1.378 . S
C1096 C1091 1.350 . S
C1097 H1084 0.929 . S
C1097 C1089 1.433 . S
C1097 N1099 1.384 . S
N1098 C1094 1.427 . S
N1098 C1095 1.384 . S
N1099 C1091 1.427 . S
N1099 C1097 1.384 . S
H1100 C1106 0.930 . S
H1101 C1110 0.930 . S
H1102 C1115 0.929 . S
H1103 C1113 0.929 . S
H1104 C1108 0.929 1_565 S
H1105 C1114 0.929 1_545 S
C1106 H1100 0.930 . S
C1106 C1107 1.367 . S
C1106 C1114 1.378 . S
C1107 C1106 1.367 . S
C1107 C1115 1.433 . S
C1108 H1104 0.929 1_545 S
C1108 C1110 1.378 . S
C1108 C1112 1.350 . S
C1109 C1112 1.463 1_565 S
C1109 C1114 1.350 . S
C1109 N1117 1.427 . S
C1110 H1101 0.930 . S
C1110 C1108 1.378 . S
C1110 C1111 1.367 . S
C1111 C1110 1.367 . S
C1111 C1113 1.433 . S
C1112 C1108 1.350 . S
C1112 C1109 1.463 1_545 S
C1112 N1116 1.427 . S
C1113 H1103 0.929 . S
C1113 C1111 1.433 . S
C1113 N1116 1.384 . S
C1114 H1105 0.929 1_565 S
C1114 C1106 1.378 . S
C1114 C1109 1.350 . S
C1115 H1102 0.929 . S
C1115 C1107 1.433 . S
C1115 N1117 1.384 . S
N1116 C1112 1.427 . S
N1116 C1113 1.384 . S
N1117 C1109 1.427 . S
N1117 C1115 1.384 . S
H1118 C1124 0.930 . S
H1119 C1128 0.930 . S
H1120 C1133 0.929 . S
H1121 C1131 0.929 . S
H1122 C1126 0.929 . S
H1123 C1132 0.929 . S
C1124 H1118 0.930 . S
C1124 C1125 1.367 . S
C1124 C1132 1.378 . S
C1125 C1124 1.367 . S
C1125 C1133 1.433 . S
C1126 H1122 0.929 . S
C1126 C1128 1.378 . S
C1126 C1130 1.350 . S
C1127 C1130 1.463 1_655 S
C1127 C1132 1.350 . S
C1127 N1135 1.427 . S
C1128 H1119 0.930 . S
C1128 C1126 1.378 . S
C1128 C1129 1.367 . S
C1129 C1128 1.367 . S
C1129 C1131 1.433 . S
C1130 C1126 1.350 . S
C1130 C1127 1.463 1_455 S
C1130 N1134 1.427 . S
C1131 H1121 0.929 . S
C1131 C1129 1.433 . S
C1131 N1134 1.384 . S
C1132 H1123 0.929 . S
C1132 C1124 1.378 . S
C1132 C1127 1.350 . S
C1133 H1120 0.929 . S
C1133 C1125 1.433 . S
C1133 N1135 1.384 . S
N1134 C1130 1.427 . S
N1134 C1131 1.384 . S
N1135 C1127 1.427 . S
N1135 C1133 1.384 . S
H1136 C1142 0.930 . S
H1137 C1146 0.930 . S
H1138 C1151 0.929 . S
H1139 C1149 0.929 . S
H1140 C1144 0.929 . S
H1141 C1150 0.929 . S
C1142 H1136 0.930 . S
C1142 C1143 1.367 . S
C1142 C1150 1.378 . S
C1143 C1142 1.367 . S
C1143 C1151 1.433 . S
C1144 H1140 0.929 . S
C1144 C1146 1.378 . S
C1144 C1148 1.350 . S
C1145 C1148 1.463 . S
C1145 C1150 1.350 . S
C1145 N1153 1.427 . S
C1146 H1137 0.930 . S
C1146 C1144 1.378 . S
C1146 C1147 1.367 . S
C1147 C1146 1.367 . S
C1147 C1149 1.433 . S
C1148 C1144 1.350 . S
C1148 C1145 1.463 . S
C1148 N1152 1.427 . S
C1149 H1139 0.929 . S
C1149 C1147 1.433 . S
C1149 N1152 1.384 . S
C1150 H1141 0.929 . S
C1150 C1142 1.378 . S
C1150 C1145 1.350 . S
C1151 H1138 0.929 . S
C1151 C1143 1.433 . S
C1151 N1153 1.384 . S
N1152 C1148 1.427 . S
N1152 C1149 1.384 . S
N1153 C1145 1.427 . S
N1153 C1151 1.384 . S
H1154 C1160 0.930 . S
H1155 C1164 0.930 . S
H1156 C1169 0.929 . S
H1157 C1167 0.929 . S
H1158 C1162 0.929 . S
H1159 C1168 0.929 . S
C1160 H1154 0.930 . S
C1160 C1161 1.367 . S
C1160 C1168 1.378 . S
C1161 C1160 1.367 . S
C1161 C1169 1.433 . S
C1162 H1158 0.929 . S
C1162 C1164 1.378 . S
C1162 C1166 1.350 . S
C1163 C1166 1.463 . S
C1163 C1168 1.350 . S
C1163 N1171 1.427 . S
C1164 H1155 0.930 . S
C1164 C1162 1.378 . S
C1164 C1165 1.367 . S
C1165 C1164 1.367 . S
C1165 C1167 1.433 . S
C1166 C1162 1.350 . S
C1166 C1163 1.463 . S
C1166 N1170 1.427 . S
C1167 H1157 0.929 . S
C1167 C1165 1.433 . S
C1167 N1170 1.384 . S
C1168 H1159 0.929 . S
C1168 C1160 1.378 . S
C1168 C1163 1.350 . S
C1169 H1156 0.929 . S
C1169 C1161 1.433 . S
C1169 N1171 1.384 . S
N1170 C1166 1.427 . S
N1170 C1167 1.384 . S
N1171 C1163 1.427 . S
N1171 C1169 1.384 . S
H1172 C1178 0.930 . S
H1173 C1182 0.930 . S
H1174 C1187 0.929 . S
H1175 C1185 0.929 . S
H1176 C1180 0.929 . S
H1177 C1186 0.929 . S
C1178 H1172 0.930 . S
C1178 C1179 1.367 . S
C1178 C1186 1.378 . S
C1179 C1178 1.367 . S
C1179 C1187 1.433 . S
C1180 H1176 0.929 . S
C1180 C1182 1.378 . S
C1180 C1184 1.350 . S
C1181 C1184 1.463 . S
C1181 C1186 1.350 . S
C1181 N1189 1.427 . S
C1182 H1173 0.930 . S
C1182 C1180 1.378 . S
C1182 C1183 1.367 . S
C1183 C1182 1.367 . S
C1183 C1185 1.433 . S
C1184 C1180 1.350 . S
C1184 C1181 1.463 . S
C1184 N1188 1.427 . S
C1185 H1175 0.929 . S
C1185 C1183 1.433 . S
C1185 N1188 1.384 . S
C1186 H1177 0.929 . S
C1186 C1178 1.378 . S
C1186 C1181 1.350 . S
C1187 H1174 0.929 . S
C1187 C1179 1.433 . S
C1187 N1189 1.384 . S
N1188 C1184 1.427 . S
N1188 C1185 1.384 . S
N1189 C1181 1.427 . S
N1189 C1187 1.384 . S
H1190 C1196 0.930 . S
H1191 C1200 0.930 . S
H1192 C1205 0.929 . S
H1193 C1203 0.929 . S
H1194 C1198 0.929 . S
H1195 C1204 0.929 . S
C1196 H1190 0.930 . S
C1196 C1197 1.367 . S
C1196 C1204 1.378 . S
C1197 C1196 1.367 . S
C1197 C1205 1.433 . S
C1198 H1194 0.929 . S
C1198 C1200 1.378 . S
C1198 C1202 1.350 . S
C1199 C1202 1.463 . S
C1199 C1204 1.350 . S
C1199 N1207 1.427 . S
C1200 H1191 0.930 . S
C1200 C1198 1.378 . S
C1200 C1201 1.367 . S
C1201 C1200 1.367 . S
C1201 C1203 1.433 . S
C1202 C1198 1.350 . S
C1202 C1199 1.463 . S
C1202 N1206 1.427 . S
C1203 H1193 0.929 . S
C1203 C1201 1.433 . S
C1203 N1206 1.384 . S
C1204 H1195 0.929 . S
C1204 C1196 1.378 . S
C1204 C1199 1.350 . S
C1205 H1192 0.929 . S
C1205 C1197 1.433 . S
C1205 N1207 1.384 . S
N1206 C1202 1.427 . S
N1206 C1203 1.384 . S
N1207 C1199 1.427 . S
N1207 C1205 1.384 . S
H1208 C1214 0.930 . S
H1209 C1218 0.930 . S
H1210 C1223 0.929 . S
H1211 C1221 0.929 . S
H1212 C1216 0.929 . S
H1213 C1222 0.929 . S
C1214 H1208 0.930 . S
C1214 C1215 1.367 . S
C1214 C1222 1.378 . S
C1215 C1214 1.367 . S
C1215 C1223 1.433 . S
C1216 H1212 0.929 . S
C1216 C1218 1.378 . S
C1216 C1220 1.350 . S
C1217 C1220 1.463 . S
C1217 C1222 1.350 . S
C1217 N1225 1.427 . S
C1218 H1209 0.930 . S
C1218 C1216 1.378 . S
C1218 C1219 1.367 . S
C1219 C1218 1.367 . S
C1219 C1221 1.433 . S
C1220 C1216 1.350 . S
C1220 C1217 1.463 . S
C1220 N1224 1.427 . S
C1221 H1211 0.929 . S
C1221 C1219 1.433 . S
C1221 N1224 1.384 . S
C1222 H1213 0.929 . S
C1222 C1214 1.378 . S
C1222 C1217 1.350 . S
C1223 H1210 0.929 . S
C1223 C1215 1.433 . S
C1223 N1225 1.384 . S
N1224 C1220 1.427 . S
N1224 C1221 1.384 . S
N1225 C1217 1.427 . S
N1225 C1223 1.384 . S
H1226 C1232 0.930 . S
H1227 C1236 0.930 . S
H1228 C1241 0.929 . S
H1229 C1239 0.929 . S
H1230 C1234 0.929 . S
H1231 C1240 0.929 . S
C1232 H1226 0.930 . S
C1232 C1233 1.367 . S
C1232 C1240 1.378 . S
C1233 C1232 1.367 . S
C1233 C1241 1.433 . S
C1234 H1230 0.929 . S
C1234 C1236 1.378 . S
C1234 C1238 1.350 . S
C1235 C1238 1.463 . S
C1235 C1240 1.350 . S
C1235 N1243 1.427 . S
C1236 H1227 0.930 . S
C1236 C1234 1.378 . S
C1236 C1237 1.367 . S
C1237 C1236 1.367 . S
C1237 C1239 1.433 . S
C1238 C1234 1.350 . S
C1238 C1235 1.463 . S
C1238 N1242 1.427 . S
C1239 H1229 0.929 . S
C1239 C1237 1.433 . S
C1239 N1242 1.384 . S
C1240 H1231 0.929 . S
C1240 C1232 1.378 . S
C1240 C1235 1.350 . S
C1241 H1228 0.929 . S
C1241 C1233 1.433 . S
C1241 N1243 1.384 . S
N1242 C1238 1.427 . S
N1242 C1239 1.384 . S
N1243 C1235 1.427 . S
N1243 C1241 1.384 . S
H1244 C1250 0.930 . S
H1245 C1254 0.930 . S
H1246 C1259 0.929 . S
H1247 C1257 0.929 . S
H1248 C1252 0.929 . S
H1249 C1258 0.929 . S
C1250 H1244 0.930 . S
C1250 C1251 1.367 . S
C1250 C1258 1.378 . S
C1251 C1250 1.367 . S
C1251 C1259 1.433 . S
C1252 H1248 0.929 . S
C1252 C1254 1.378 . S
C1252 C1256 1.350 . S
C1253 C1256 1.463 . S
C1253 C1258 1.350 . S
C1253 N1261 1.427 . S
C1254 H1245 0.930 . S
C1254 C1252 1.378 . S
C1254 C1255 1.367 . S
C1255 C1254 1.367 . S
C1255 C1257 1.433 . S
C1256 C1252 1.350 . S
C1256 C1253 1.463 . S
C1256 N1260 1.427 . S
C1257 H1247 0.929 . S
C1257 C1255 1.433 . S
C1257 N1260 1.384 . S
C1258 H1249 0.929 . S
C1258 C1250 1.378 . S
C1258 C1253 1.350 . S
C1259 H1246 0.929 . S
C1259 C1251 1.433 . S
C1259 N1261 1.384 . S
N1260 C1256 1.427 . S
N1260 C1257 1.384 . S
N1261 C1253 1.427 . S
N1261 C1259 1.384 . S
H1262 C1268 0.930 . S
H1263 C1272 0.930 . S
H1264 C1277 0.929 . S
H1265 C1275 0.929 . S
H1266 C1270 0.929 . S
H1267 C1276 0.929 . S
C1268 H1262 0.930 . S
C1268 C1269 1.367 . S
C1268 C1276 1.378 . S
C1269 C1268 1.367 . S
C1269 C1277 1.433 . S
C1270 H1266 0.929 . S
C1270 C1272 1.378 . S
C1270 C1274 1.350 . S
C1271 C1274 1.463 . S
C1271 C1276 1.350 . S
C1271 N1279 1.427 . S
C1272 H1263 0.930 . S
C1272 C1270 1.378 . S
C1272 C1273 1.367 . S
C1273 C1272 1.367 . S
C1273 C1275 1.433 . S
C1274 C1270 1.350 . S
C1274 C1271 1.463 . S
C1274 N1278 1.427 . S
C1275 H1265 0.929 . S
C1275 C1273 1.433 . S
C1275 N1278 1.384 . S
C1276 H1267 0.929 . S
C1276 C1268 1.378 . S
C1276 C1271 1.350 . S
C1277 H1264 0.929 . S
C1277 C1269 1.433 . S
C1277 N1279 1.384 . S
N1278 C1274 1.427 . S
N1278 C1275 1.384 . S
N1279 C1271 1.427 . S
N1279 C1277 1.384 . S
H1280 C1286 0.930 . S
H1281 C1290 0.930 . S
H1282 C1295 0.929 . S
H1283 C1293 0.929 . S
H1284 C1288 0.929 . S
H1285 C1294 0.929 . S
C1286 H1280 0.930 . S
C1286 C1287 1.367 . S
C1286 C1294 1.378 . S
C1287 C1286 1.367 . S
C1287 C1295 1.433 . S
C1288 H1284 0.929 . S
C1288 C1290 1.378 . S
C1288 C1292 1.350 . S
C1289 C1292 1.463 . S
C1289 C1294 1.350 . S
C1289 N1297 1.427 . S
C1290 H1281 0.930 . S
C1290 C1288 1.378 . S
C1290 C1291 1.367 . S
C1291 C1290 1.367 . S
C1291 C1293 1.433 . S
C1292 C1288 1.350 . S
C1292 C1289 1.463 . S
C1292 N1296 1.427 . S
C1293 H1283 0.929 . S
C1293 C1291 1.433 . S
C1293 N1296 1.384 . S
C1294 H1285 0.929 . S
C1294 C1286 1.378 . S
C1294 C1289 1.350 . S
C1295 H1282 0.929 . S
C1295 C1287 1.433 . S
C1295 N1297 1.384 . S
N1296 C1292 1.427 . S
N1296 C1293 1.384 . S
N1297 C1289 1.427 . S
N1297 C1295 1.384 . S
H1298 C1304 0.930 . S
H1299 C1308 0.930 . S
H1300 C1313 0.929 . S
H1301 C1311 0.929 . S
H1302 C1306 0.929 . S
H1303 C1312 0.929 . S
C1304 H1298 0.930 . S
C1304 C1305 1.367 . S
C1304 C1312 1.378 . S
C1305 C1304 1.367 . S
C1305 C1313 1.433 . S
C1306 H1302 0.929 . S
C1306 C1308 1.378 . S
C1306 C1310 1.350 . S
C1307 C1310 1.463 . S
C1307 C1312 1.350 . S
C1307 N1315 1.427 . S
C1308 H1299 0.930 . S
C1308 C1306 1.378 . S
C1308 C1309 1.367 . S
C1309 C1308 1.367 . S
C1309 C1311 1.433 . S
C1310 C1306 1.350 . S
C1310 C1307 1.463 . S
C1310 N1314 1.427 . S
C1311 H1301 0.929 . S
C1311 C1309 1.433 . S
C1311 N1314 1.384 . S
C1312 H1303 0.929 . S
C1312 C1304 1.378 . S
C1312 C1307 1.350 . S
C1313 H1300 0.929 . S
C1313 C1305 1.433 . S
C1313 N1315 1.384 . S
N1314 C1310 1.427 . S
N1314 C1311 1.384 . S
N1315 C1307 1.427 . S
N1315 C1313 1.384 . S
H1316 C1322 0.930 . S
H1317 C1326 0.930 . S
H1318 C1331 0.929 . S
H1319 C1329 0.929 . S
H1320 C1324 0.929 . S
H1321 C1330 0.929 . S
C1322 H1316 0.930 . S
C1322 C1323 1.367 . S
C1322 C1330 1.378 . S
C1323 C1322 1.367 . S
C1323 C1331 1.433 . S
C1324 H1320 0.929 . S
C1324 C1326 1.378 . S
C1324 C1328 1.350 . S
C1325 C1328 1.463 . S
C1325 C1330 1.350 . S
C1325 N1333 1.427 . S
C1326 H1317 0.930 . S
C1326 C1324 1.378 . S
C1326 C1327 1.367 . S
C1327 C1326 1.367 . S
C1327 C1329 1.433 . S
C1328 C1324 1.350 . S
C1328 C1325 1.463 . S
C1328 N1332 1.427 . S
C1329 H1319 0.929 . S
C1329 C1327 1.433 . S
C1329 N1332 1.384 . S
C1330 H1321 0.929 . S
C1330 C1322 1.378 . S
C1330 C1325 1.350 . S
C1331 H1318 0.929 . S
C1331 C1323 1.433 . S
C1331 N1333 1.384 . S
N1332 C1328 1.427 . S
N1332 C1329 1.384 . S
N1333 C1325 1.427 . S
N1333 C1331 1.384 . S
H1334 C1340 0.930 . S
H1335 C1344 0.930 . S
H1336 C1349 0.929 . S
H1337 C1347 0.929 . S
H1338 C1342 0.929 . S
H1339 C1348 0.929 . S
C1340 H1334 0.930 . S
C1340 C1341 1.367 . S
C1340 C1348 1.378 . S
C1341 C1340 1.367 . S
C1341 C1349 1.433 . S
C1342 H1338 0.929 . S
C1342 C1344 1.378 . S
C1342 C1346 1.350 . S
C1343 C1346 1.463 . S
C1343 C1348 1.350 . S
C1343 N1351 1.427 . S
C1344 H1335 0.930 . S
C1344 C1342 1.378 . S
C1344 C1345 1.367 . S
C1345 C1344 1.367 . S
C1345 C1347 1.433 . S
C1346 C1342 1.350 . S
C1346 C1343 1.463 . S
C1346 N1350 1.427 . S
C1347 H1337 0.929 . S
C1347 C1345 1.433 . S
C1347 N1350 1.384 . S
C1348 H1339 0.929 . S
C1348 C1340 1.378 . S
C1348 C1343 1.350 . S
C1349 H1336 0.929 . S
C1349 C1341 1.433 . S
C1349 N1351 1.384 . S
N1350 C1346 1.427 . S
N1350 C1347 1.384 . S
N1351 C1343 1.427 . S
N1351 C1349 1.384 . S
H1352 C1358 0.930 . S
H1353 C1362 0.930 . S
H1354 C1367 0.929 . S
H1355 C1365 0.929 . S
H1356 C1360 0.929 . S
H1357 C1366 0.929 . S
C1358 H1352 0.930 . S
C1358 C1359 1.367 . S
C1358 C1366 1.378 . S
C1359 C1358 1.367 . S
C1359 C1367 1.433 . S
C1360 H1356 0.929 . S
C1360 C1362 1.378 . S
C1360 C1364 1.350 . S
C1361 C1364 1.463 . S
C1361 C1366 1.350 . S
C1361 N1369 1.427 . S
C1362 H1353 0.930 . S
C1362 C1360 1.378 . S
C1362 C1363 1.367 . S
C1363 C1362 1.367 . S
C1363 C1365 1.433 . S
C1364 C1360 1.350 . S
C1364 C1361 1.463 . S
C1364 N1368 1.427 . S
C1365 H1355 0.929 . S
C1365 C1363 1.433 . S
C1365 N1368 1.384 . S
C1366 H1357 0.929 . S
C1366 C1358 1.378 . S
C1366 C1361 1.350 . S
C1367 H1354 0.929 . S
C1367 C1359 1.433 . S
C1367 N1369 1.384 . S
N1368 C1364 1.427 . S
N1368 C1365 1.384 . S
N1369 C1361 1.427 . S
N1369 C1367 1.384 . S
H1370 C1376 0.930 . S
H1371 C1380 0.930 . S
H1372 C1385 0.929 . S
H1373 C1383 0.929 . S
H1374 C1378 0.929 . S
H1375 C1384 0.929 . S
C1376 H1370 0.930 . S
C1376 C1377 1.367 . S
C1376 C1384 1.378 . S
C1377 C1376 1.367 . S
C1377 C1385 1.433 . S
C1378 H1374 0.929 . S
C1378 C1380 1.378 . S
C1378 C1382 1.350 . S
C1379 C1382 1.463 . S
C1379 C1384 1.350 . S
C1379 N1387 1.427 . S
C1380 H1371 0.930 . S
C1380 C1378 1.378 . S
C1380 C1381 1.367 . S
C1381 C1380 1.367 . S
C1381 C1383 1.433 . S
C1382 C1378 1.350 . S
C1382 C1379 1.463 . S
C1382 N1386 1.427 . S
C1383 H1373 0.929 . S
C1383 C1381 1.433 . S
C1383 N1386 1.384 . S
C1384 H1375 0.929 . S
C1384 C1376 1.378 . S
C1384 C1379 1.350 . S
C1385 H1372 0.929 . S
C1385 C1377 1.433 . S
C1385 N1387 1.384 . S
N1386 C1382 1.427 . S
N1386 C1383 1.384 . S
N1387 C1379 1.427 . S
N1387 C1385 1.384 . S
H1388 C1394 0.930 . S
H1389 C1398 0.930 . S
H1390 C1403 0.929 . S
H1391 C1401 0.929 . S
H1392 C1396 0.929 . S
H1393 C1402 0.929 . S
C1394 H1388 0.930 . S
C1394 C1395 1.367 . S
C1394 C1402 1.378 . S
C1395 C1394 1.367 . S
C1395 C1403 1.433 . S
C1396 H1392 0.929 . S
C1396 C1398 1.378 . S
C1396 C1400 1.350 . S
C1397 C1400 1.463 . S
C1397 C1402 1.350 . S
C1397 N1405 1.427 . S
C1398 H1389 0.930 . S
C1398 C1396 1.378 . S
C1398 C1399 1.367 . S
C1399 C1398 1.367 . S
C1399 C1401 1.433 . S
C1400 C1396 1.350 . S
C1400 C1397 1.463 . S
C1400 N1404 1.427 . S
C1401 H1391 0.929 . S
C1401 C1399 1.433 . S
C1401 N1404 1.384 . S
C1402 H1393 0.929 . S
C1402 C1394 1.378 . S
C1402 C1397 1.350 . S
C1403 H1390 0.929 . S
C1403 C1395 1.433 . S
C1403 N1405 1.384 . S
N1404 C1400 1.427 . S
N1404 C1401 1.384 . S
N1405 C1397 1.427 . S
N1405 C1403 1.384 . S
H1406 C1412 0.930 . S
H1407 C1416 0.930 . S
H1408 C1421 0.929 . S
H1409 C1419 0.929 . S
H1410 C1414 0.929 . S
H1411 C1420 0.929 . S
C1412 H1406 0.930 . S
C1412 C1413 1.367 . S
C1412 C1420 1.378 . S
C1413 C1412 1.367 . S
C1413 C1421 1.433 . S
C1414 H1410 0.929 . S
C1414 C1416 1.378 . S
C1414 C1418 1.350 . S
C1415 C1418 1.463 . S
C1415 C1420 1.350 . S
C1415 N1423 1.427 . S
C1416 H1407 0.930 . S
C1416 C1414 1.378 . S
C1416 C1417 1.367 . S
C1417 C1416 1.367 . S
C1417 C1419 1.433 . S
C1418 C1414 1.350 . S
C1418 C1415 1.463 . S
C1418 N1422 1.427 . S
C1419 H1409 0.929 . S
C1419 C1417 1.433 . S
C1419 N1422 1.384 . S
C1420 H1411 0.929 . S
C1420 C1412 1.378 . S
C1420 C1415 1.350 . S
C1421 H1408 0.929 . S
C1421 C1413 1.433 . S
C1421 N1423 1.384 . S
N1422 C1418 1.427 . S
N1422 C1419 1.384 . S
N1423 C1415 1.427 . S
N1423 C1421 1.384 . S
H1424 C1430 0.930 . S
H1425 C1434 0.930 . S
H1426 C1439 0.929 . S
H1427 C1437 0.929 . S
H1428 C1432 0.929 . S
H1429 C1438 0.929 . S
C1430 H1424 0.930 . S
C1430 C1431 1.367 . S
C1430 C1438 1.378 . S
C1431 C1430 1.367 . S
C1431 C1439 1.433 . S
C1432 H1428 0.929 . S
C1432 C1434 1.378 . S
C1432 C1436 1.350 . S
C1433 C1436 1.463 . S
C1433 C1438 1.350 . S
C1433 N1441 1.427 . S
C1434 H1425 0.930 . S
C1434 C1432 1.378 . S
C1434 C1435 1.367 . S
C1435 C1434 1.367 . S
C1435 C1437 1.433 . S
C1436 C1432 1.350 . S
C1436 C1433 1.463 . S
C1436 N1440 1.427 . S
C1437 H1427 0.929 . S
C1437 C1435 1.433 . S
C1437 N1440 1.384 . S
C1438 H1429 0.929 . S
C1438 C1430 1.378 . S
C1438 C1433 1.350 . S
C1439 H1426 0.929 . S
C1439 C1431 1.433 . S
C1439 N1441 1.384 . S
N1440 C1436 1.427 . S
N1440 C1437 1.384 . S
N1441 C1433 1.427 . S
N1441 C1439 1.384 . S
H1442 C1448 0.930 . S
H1443 C1452 0.930 . S
H1444 C1457 0.929 . S
H1445 C1455 0.929 . S
H1446 C1450 0.929 . S
H1447 C1456 0.929 . S
C1448 H1442 0.930 . S
C1448 C1449 1.367 . S
C1448 C1456 1.378 . S
C1449 C1448 1.367 . S
C1449 C1457 1.433 . S
C1450 H1446 0.929 . S
C1450 C1452 1.378 . S
C1450 C1454 1.350 . S
C1451 C1454 1.463 . S
C1451 C1456 1.350 . S
C1451 N1459 1.427 . S
C1452 H1443 0.930 . S
C1452 C1450 1.378 . S
C1452 C1453 1.367 . S
C1453 C1452 1.367 . S
C1453 C1455 1.433 . S
C1454 C1450 1.350 . S
C1454 C1451 1.463 . S
C1454 N1458 1.427 . S
C1455 H1445 0.929 . S
C1455 C1453 1.433 . S
C1455 N1458 1.384 . S
C1456 H1447 0.929 . S
C1456 C1448 1.378 . S
C1456 C1451 1.350 . S
C1457 H1444 0.929 . S
C1457 C1449 1.433 . S
C1457 N1459 1.384 . S
N1458 C1454 1.427 . S
N1458 C1455 1.384 . S
N1459 C1451 1.427 . S
N1459 C1457 1.384 . S
H1460 C1466 0.930 . S
H1461 C1470 0.930 . S
H1462 C1475 0.929 . S
H1463 C1473 0.929 . S
H1464 C1468 0.929 . S
H1465 C1474 0.929 . S
C1466 H1460 0.930 . S
C1466 C1467 1.367 . S
C1466 C1474 1.378 . S
C1467 C1466 1.367 . S
C1467 C1475 1.433 . S
C1468 H1464 0.929 . S
C1468 C1470 1.378 . S
C1468 C1472 1.350 . S
C1469 C1472 1.463 . S
C1469 C1474 1.350 . S
C1469 N1477 1.427 . S
C1470 H1461 0.930 . S
C1470 C1468 1.378 . S
C1470 C1471 1.367 . S
C1471 C1470 1.367 . S
C1471 C1473 1.433 . S
C1472 C1468 1.350 . S
C1472 C1469 1.463 . S
C1472 N1476 1.427 . S
C1473 H1463 0.929 . S
C1473 C1471 1.433 . S
C1473 N1476 1.384 . S
C1474 H1465 0.929 . S
C1474 C1466 1.378 . S
C1474 C1469 1.350 . S
C1475 H1462 0.929 . S
C1475 C1467 1.433 . S
C1475 N1477 1.384 . S
N1476 C1472 1.427 . S
N1476 C1473 1.384 . S
N1477 C1469 1.427 . S
N1477 C1475 1.384 . S
H1478 C1484 0.930 . S
H1479 C1488 0.930 . S
H1480 C1493 0.929 . S
H1481 C1491 0.929 . S
H1482 C1486 0.929 . S
H1483 C1492 0.929 . S
C1484 H1478 0.930 . S
C1484 C1485 1.367 . S
C1484 C1492 1.378 . S
C1485 C1484 1.367 . S
C1485 C1493 1.433 . S
C1486 H1482 0.929 . S
C1486 C1488 1.378 . S
C1486 C1490 1.350 . S
C1487 C1490 1.463 . S
C1487 C1492 1.350 . S
C1487 N1495 1.427 . S
C1488 H1479 0.930 . S
C1488 C1486 1.378 . S
C1488 C1489 1.367 . S
C1489 C1488 1.367 . S
C1489 C1491 1.433 . S
C1490 C1486 1.350 . S
C1490 C1487 1.463 . S
C1490 N1494 1.427 . S
C1491 H1481 0.929 . S
C1491 C1489 1.433 . S
C1491 N1494 1.384 . S
C1492 H1483 0.929 . S
C1492 C1484 1.378 . S
C1492 C1487 1.350 . S
C1493 H1480 0.929 . S
C1493 C1485 1.433 . S
C1493 N1495 1.384 . S
N1494 C1490 1.427 . S
N1494 C1491 1.384 . S
N1495 C1487 1.427 . S
N1495 C1493 1.384 . S
H1496 C1502 0.930 . S
H1497 C1506 0.930 . S
H1498 C1511 0.929 . S
H1499 C1509 0.929 . S
H1500 C1504 0.929 . S
H1501 C1510 0.929 . S
C1502 H1496 0.930 . S
C1502 C1503 1.367 . S
C1502 C1510 1.378 . S
C1503 C1502 1.367 . S
C1503 C1511 1.433 . S
C1504 H1500 0.929 . S
C1504 C1506 1.378 . S
C1504 C1508 1.350 . S
C1505 C1508 1.463 . S
C1505 C1510 1.350 . S
C1505 N1513 1.427 . S
C1506 H1497 0.930 . S
C1506 C1504 1.378 . S
C1506 C1507 1.367 . S
C1507 C1506 1.367 . S
C1507 C1509 1.433 . S
C1508 C1504 1.350 . S
C1508 C1505 1.463 . S
C1508 N1512 1.427 . S
C1509 H1499 0.929 . S
C1509 C1507 1.433 . S
C1509 N1512 1.384 . S
C1510 H1501 0.929 . S
C1510 C1502 1.378 . S
C1510 C1505 1.350 . S
C1511 H1498 0.929 . S
C1511 C1503 1.433 . S
C1511 N1513 1.384 . S
N1512 C1508 1.427 . S
N1512 C1509 1.384 . S
N1513 C1505 1.427 . S
N1513 C1511 1.384 . S
H1514 C1520 0.930 . S
H1515 C1524 0.930 . S
H1516 C1529 0.929 . S
H1517 C1527 0.929 . S
H1518 C1522 0.929 . S
H1519 C1528 0.929 . S
C1520 H1514 0.930 . S
C1520 C1521 1.367 . S
C1520 C1528 1.378 . S
C1521 C1520 1.367 . S
C1521 C1529 1.433 . S
C1522 H1518 0.929 . S
C1522 C1524 1.378 . S
C1522 C1526 1.350 . S
C1523 C1526 1.463 . S
C1523 C1528 1.350 . S
C1523 N1531 1.427 . S
C1524 H1515 0.930 . S
C1524 C1522 1.378 . S
C1524 C1525 1.367 . S
C1525 C1524 1.367 . S
C1525 C1527 1.433 . S
C1526 C1522 1.350 . S
C1526 C1523 1.463 . S
C1526 N1530 1.427 . S
C1527 H1517 0.929 . S
C1527 C1525 1.433 . S
C1527 N1530 1.384 . S
C1528 H1519 0.929 . S
C1528 C1520 1.378 . S
C1528 C1523 1.350 . S
C1529 H1516 0.929 . S
C1529 C1521 1.433 . S
C1529 N1531 1.384 . S
N1530 C1526 1.427 . S
N1530 C1527 1.384 . S
N1531 C1523 1.427 . S
N1531 C1529 1.384 . S
H1532 C1538 0.930 . S
H1533 C1542 0.930 . S
H1534 C1547 0.929 . S
H1535 C1545 0.929 . S
H1536 C1540 0.929 . S
H1537 C1546 0.929 . S
C1538 H1532 0.930 . S
C1538 C1539 1.367 . S
C1538 C1546 1.378 . S
C1539 C1538 1.367 . S
C1539 C1547 1.433 . S
C1540 H1536 0.929 . S
C1540 C1542 1.378 . S
C1540 C1544 1.350 . S
C1541 C1544 1.463 . S
C1541 C1546 1.350 . S
C1541 N1549 1.427 . S
C1542 H1533 0.930 . S
C1542 C1540 1.378 . S
C1542 C1543 1.367 . S
C1543 C1542 1.367 . S
C1543 C1545 1.433 . S
C1544 C1540 1.350 . S
C1544 C1541 1.463 . S
C1544 N1548 1.427 . S
C1545 H1535 0.929 . S
C1545 C1543 1.433 . S
C1545 N1548 1.384 . S
C1546 H1537 0.929 . S
C1546 C1538 1.378 . S
C1546 C1541 1.350 . S
C1547 H1534 0.929 . S
C1547 C1539 1.433 . S
C1547 N1549 1.384 . S
N1548 C1544 1.427 . S
N1548 C1545 1.384 . S
N1549 C1541 1.427 . S
N1549 C1547 1.384 . S
H1550 C1556 0.930 . S
H1551 C1560 0.930 . S
H1552 C1565 0.929 . S
H1553 C1563 0.929 . S
H1554 C1558 0.929 . S
H1555 C1564 0.929 . S
C1556 H1550 0.930 . S
C1556 C1557 1.367 . S
C1556 C1564 1.378 . S
C1557 C1556 1.367 . S
C1557 C1565 1.433 . S
C1558 H1554 0.929 . S
C1558 C1560 1.378 . S
C1558 C1562 1.350 . S
C1559 C1562 1.463 . S
C1559 C1564 1.350 . S
C1559 N1567 1.427 . S
C1560 H1551 0.930 . S
C1560 C1558 1.378 . S
C1560 C1561 1.367 . S
C1561 C1560 1.367 . S
C1561 C1563 1.433 . S
C1562 C1558 1.350 . S
C1562 C1559 1.463 . S
C1562 N1566 1.427 . S
C1563 H1553 0.929 . S
C1563 C1561 1.433 . S
C1563 N1566 1.384 . S
C1564 H1555 0.929 . S
C1564 C1556 1.378 . S
C1564 C1559 1.350 . S
C1565 H1552 0.929 . S
C1565 C1557 1.433 . S
C1565 N1567 1.384 . S
N1566 C1562 1.427 . S
N1566 C1563 1.384 . S
N1567 C1559 1.427 . S
N1567 C1565 1.384 . S
C423 C382 1.684 . S
C427 C5 1.681 . S
C441 C18 1.682 . S
C445 C395 1.683 . S
C459 C408 1.684 . S
C463 C29 1.681 . S
C477 C367 1.681 . S
C481 C44 1.684 . S
C495 C57 1.683 . S
C499 C356 1.682 . S
C513 C317 1.681 . S
C517 C68 1.684 . S
C531 C83 1.683 . S
C535 C328 1.682 . S
C549 C343 1.681 . S
C553 C96 1.684 . S
C567 C109 1.684 . S
C571 C278 1.681 . S
C585 C120 1.681 . S
C589 C289 1.684 . S
C603 C304 1.682 . S
C607 C135 1.683 . S
C621 C148 1.681 . S
C625 C265 1.684 . S
C639 C250 1.681 . S
C643 C161 1.684 . S
C657 C213 1.682 . S
C661 C172 1.683 . S
C675 C187 1.684 . S
C679 C226 1.681 . S
C693 C200 1.681 . S
C697 C237 1.684 . S
C711 C3 1.366 . S
C715 C133 1.369 . S
C729 C146 1.369 . S
C733 C16 1.366 . S
C747 C107 1.369 . S
C751 C31 1.366 . S
C765 C122 1.366 . S
C769 C42 1.369 . S
C783 C55 1.366 . S
C787 C185 1.369 . S
C801 C198 1.369 . S
C805 C70 1.366 . S
C819 C159 1.370 . S
C823 C81 1.365 . S
C837 C174 1.369 . S
C841 C94 1.366 . S
C855 C211 1.367 . S
C859 C341 1.369 . S
C873 C354 1.370 . S
C877 C224 1.365 . S
C891 C315 1.366 . S
C895 C239 1.369 . S
C909 C252 1.369 . S
C913 C330 1.366 . S
C927 C263 1.365 . S
C931 C393 1.370 . S
C945 C406 1.370 . S
C949 C276 1.365 . S
C963 C369 1.369 . S
C967 C291 1.366 . S
C981 C302 1.369 . S
C985 C380 1.366 . S
C999 C4 1.660 . S
C1003 C56 1.658 . S
C1017 C17 1.656 . S
C1021 C75 1.656 . S
C1035 C82 1.664 . S
C1039 C36 1.663 . S
C1053 C43 1.663 . S
C1057 C95 1.664 . S
C1071 C108 1.657 . S
C1075 C160 1.656 . S
C1089 C179 1.658 . S
C1093 C127 1.656 . S
C1107 C186 1.664 . S
C1111 C134 1.663 . S
C1125 C147 1.659 . S
C1129 C199 1.658 . S
C1143 C212 1.657 . S
C1147 C264 1.656 . S
C1161 C277 1.658 . S
C1165 C225 1.660 . S
C1179 C244 1.664 . S
C1183 C296 1.664 . S
C1197 C303 1.656 . S
C1201 C257 1.656 . S
C1215 C374 1.656 . S
C1219 C316 1.657 . S
C1233 C335 1.660 . S
C1237 C381 1.658 . S
C1251 C342 1.664 . S
C1255 C394 1.664 . S
C1269 C355 1.660 . S
C1273 C407 1.659 . S
C1287 C10 1.413 . S
C1291 C69 1.413 . S
C1305 C23 1.414 . S
C1309 C88 1.413 . S
C1323 C101 1.414 . S
C1327 C30 1.410 . S
C1341 C62 1.412 . S
C1345 C49 1.411 . S
C1359 C173 1.411 . S
C1363 C114 1.414 . S
C1377 C192 1.414 . S
C1381 C121 1.411 . S
C1395 C205 1.415 . S
C1399 C140 1.411 . S
C1413 C153 1.412 . S
C1417 C166 1.410 . S
C1431 C218 1.413 . S
C1435 C283 1.414 . S
C1449 C290 1.411 . S
C1453 C231 1.411 . S
C1467 C309 1.414 . S
C1471 C238 1.410 . S
C1485 C251 1.410 . S
C1489 C270 1.413 . S
C1503 C387 1.414 . S
C1507 C322 1.412 . S
C1521 C329 1.410 . S
C1525 C400 1.412 . S
C1539 C348 1.410 . S
C1543 C413 1.413 . S
C1557 C368 1.411 . S
C1561 C361 1.415 . S
