# Generated by pormake.
# Topology wgd, (5)-cn, num edge types: 1
# Building blocks:
#     Node 0, Type 0, BuildingBlock: BEQFEK_clean_sbu_0, # of connection points: 5
#     Node 1, Type 0, BuildingBlock: BEQFEK_clean_sbu_0, # of connection points: 5
#     Node 2, Type 0, BuildingBlock: BEQFEK_clean_sbu_0, # of connection points: 5
#     Node 3, Type 0, BuildingBlock: BEQFEK_clean_sbu_0, # of connection points: 5
#     Node 4, Type 0, BuildingBlock: BEQFEK_clean_sbu_0, # of connection points: 5
#     Node 5, Type 0, BuildingBlock: BEQFEK_clean_sbu_0, # of connection points: 5
#     Node 6, Type 0, BuildingBlock: BEQFEK_clean_sbu_0, # of connection points: 5
#     Node 7, Type 0, BuildingBlock: BEQFEK_clean_sbu_0, # of connection points: 5
#     Node 8, Type 0, BuildingBlock: BEQFEK_clean_sbu_0, # of connection points: 5
#     Node 9, Type 0, BuildingBlock: BEQFEK_clean_sbu_0, # of connection points: 5
#     Node 10, Type 0, BuildingBlock: BEQFEK_clean_sbu_0, # of connection points: 5
#     Node 11, Type 0, BuildingBlock: BEQFEK_clean_sbu_0, # of connection points: 5
#     Node 12, Type 0, BuildingBlock: BEQFEK_clean_sbu_0, # of connection points: 5
#     Node 13, Type 0, BuildingBlock: BEQFEK_clean_sbu_0, # of connection points: 5
#     Node 14, Type 0, BuildingBlock: BEQFEK_clean_sbu_0, # of connection points: 5
#     Node 15, Type 0, BuildingBlock: BEQFEK_clean_sbu_0, # of connection points: 5
#     Node 16, Type 0, BuildingBlock: BEQFEK_clean_sbu_0, # of connection points: 5
#     Node 17, Type 0, BuildingBlock: BEQFEK_clean_sbu_0, # of connection points: 5
#     Node 18, Type 0, BuildingBlock: BEQFEK_clean_sbu_0, # of connection points: 5
#     Node 19, Type 0, BuildingBlock: BEQFEK_clean_sbu_0, # of connection points: 5
#     Node 20, Type 0, BuildingBlock: BEQFEK_clean_sbu_0, # of connection points: 5
#     Node 21, Type 0, BuildingBlock: BEQFEK_clean_sbu_0, # of connection points: 5
#     Node 22, Type 0, BuildingBlock: BEQFEK_clean_sbu_0, # of connection points: 5
#     Node 23, Type 0, BuildingBlock: BEQFEK_clean_sbu_0, # of connection points: 5
#     Node 24, Type 0, BuildingBlock: BEQFEK_clean_sbu_0, # of connection points: 5
#     Node 25, Type 0, BuildingBlock: BEQFEK_clean_sbu_0, # of connection points: 5
#     Node 26, Type 0, BuildingBlock: BEQFEK_clean_sbu_0, # of connection points: 5
#     Node 27, Type 0, BuildingBlock: BEQFEK_clean_sbu_0, # of connection points: 5
#     Node 28, Type 0, BuildingBlock: BEQFEK_clean_sbu_0, # of connection points: 5
#     Node 29, Type 0, BuildingBlock: BEQFEK_clean_sbu_0, # of connection points: 5
#     Node 30, Type 0, BuildingBlock: BEQFEK_clean_sbu_0, # of connection points: 5
#     Node 31, Type 0, BuildingBlock: BEQFEK_clean_sbu_0, # of connection points: 5
#     Edge 32, Type (0, 0), BuildingBlock: OJICUG_clean_linker_0, # of connection points: 2
#     Edge 33, Type (0, 0), BuildingBlock: OJICUG_clean_linker_0, # of connection points: 2
#     Edge 34, Type (0, 0), BuildingBlock: OJICUG_clean_linker_0, # of connection points: 2
#     Edge 35, Type (0, 0), BuildingBlock: OJICUG_clean_linker_0, # of connection points: 2
#     Edge 36, Type (0, 0), BuildingBlock: OJICUG_clean_linker_0, # of connection points: 2
#     Edge 37, Type (0, 0), BuildingBlock: OJICUG_clean_linker_0, # of connection points: 2
#     Edge 38, Type (0, 0), BuildingBlock: OJICUG_clean_linker_0, # of connection points: 2
#     Edge 39, Type (0, 0), BuildingBlock: OJICUG_clean_linker_0, # of connection points: 2
#     Edge 40, Type (0, 0), BuildingBlock: OJICUG_clean_linker_0, # of connection points: 2
#     Edge 41, Type (0, 0), BuildingBlock: OJICUG_clean_linker_0, # of connection points: 2
#     Edge 42, Type (0, 0), BuildingBlock: OJICUG_clean_linker_0, # of connection points: 2
#     Edge 43, Type (0, 0), BuildingBlock: OJICUG_clean_linker_0, # of connection points: 2
#     Edge 44, Type (0, 0), BuildingBlock: OJICUG_clean_linker_0, # of connection points: 2
#     Edge 45, Type (0, 0), BuildingBlock: OJICUG_clean_linker_0, # of connection points: 2
#     Edge 46, Type (0, 0), BuildingBlock: OJICUG_clean_linker_0, # of connection points: 2
#     Edge 47, Type (0, 0), BuildingBlock: OJICUG_clean_linker_0, # of connection points: 2
#     Edge 48, Type (0, 0), BuildingBlock: OJICUG_clean_linker_0, # of connection points: 2
#     Edge 49, Type (0, 0), BuildingBlock: OJICUG_clean_linker_0, # of connection points: 2
#     Edge 50, Type (0, 0), BuildingBlock: OJICUG_clean_linker_0, # of connection points: 2
#     Edge 51, Type (0, 0), BuildingBlock: OJICUG_clean_linker_0, # of connection points: 2
#     Edge 52, Type (0, 0), BuildingBlock: OJICUG_clean_linker_0, # of connection points: 2
#     Edge 53, Type (0, 0), BuildingBlock: OJICUG_clean_linker_0, # of connection points: 2
#     Edge 54, Type (0, 0), BuildingBlock: OJICUG_clean_linker_0, # of connection points: 2
#     Edge 55, Type (0, 0), BuildingBlock: OJICUG_clean_linker_0, # of connection points: 2
#     Edge 56, Type (0, 0), BuildingBlock: OJICUG_clean_linker_0, # of connection points: 2
#     Edge 57, Type (0, 0), BuildingBlock: OJICUG_clean_linker_0, # of connection points: 2
#     Edge 58, Type (0, 0), BuildingBlock: OJICUG_clean_linker_0, # of connection points: 2
#     Edge 59, Type (0, 0), BuildingBlock: OJICUG_clean_linker_0, # of connection points: 2
#     Edge 60, Type (0, 0), BuildingBlock: OJICUG_clean_linker_0, # of connection points: 2
#     Edge 61, Type (0, 0), BuildingBlock: OJICUG_clean_linker_0, # of connection points: 2
#     Edge 62, Type (0, 0), BuildingBlock: OJICUG_clean_linker_0, # of connection points: 2
#     Edge 63, Type (0, 0), BuildingBlock: OJICUG_clean_linker_0, # of connection points: 2
#     Edge 64, Type (0, 0), BuildingBlock: OJICUG_clean_linker_0, # of connection points: 2
#     Edge 65, Type (0, 0), BuildingBlock: OJICUG_clean_linker_0, # of connection points: 2
#     Edge 66, Type (0, 0), BuildingBlock: OJICUG_clean_linker_0, # of connection points: 2
#     Edge 67, Type (0, 0), BuildingBlock: OJICUG_clean_linker_0, # of connection points: 2
#     Edge 68, Type (0, 0), BuildingBlock: OJICUG_clean_linker_0, # of connection points: 2
#     Edge 69, Type (0, 0), BuildingBlock: OJICUG_clean_linker_0, # of connection points: 2
#     Edge 70, Type (0, 0), BuildingBlock: OJICUG_clean_linker_0, # of connection points: 2
#     Edge 71, Type (0, 0), BuildingBlock: OJICUG_clean_linker_0, # of connection points: 2
#     Edge 72, Type (0, 0), BuildingBlock: OJICUG_clean_linker_0, # of connection points: 2
#     Edge 73, Type (0, 0), BuildingBlock: OJICUG_clean_linker_0, # of connection points: 2
#     Edge 74, Type (0, 0), BuildingBlock: OJICUG_clean_linker_0, # of connection points: 2
#     Edge 75, Type (0, 0), BuildingBlock: OJICUG_clean_linker_0, # of connection points: 2
#     Edge 76, Type (0, 0), BuildingBlock: OJICUG_clean_linker_0, # of connection points: 2
#     Edge 77, Type (0, 0), BuildingBlock: OJICUG_clean_linker_0, # of connection points: 2
#     Edge 78, Type (0, 0), BuildingBlock: OJICUG_clean_linker_0, # of connection points: 2
#     Edge 79, Type (0, 0), BuildingBlock: OJICUG_clean_linker_0, # of connection points: 2
#     Edge 80, Type (0, 0), BuildingBlock: OJICUG_clean_linker_0, # of connection points: 2
#     Edge 81, Type (0, 0), BuildingBlock: OJICUG_clean_linker_0, # of connection points: 2
#     Edge 82, Type (0, 0), BuildingBlock: OJICUG_clean_linker_0, # of connection points: 2
#     Edge 83, Type (0, 0), BuildingBlock: OJICUG_clean_linker_0, # of connection points: 2
#     Edge 84, Type (0, 0), BuildingBlock: OJICUG_clean_linker_0, # of connection points: 2
#     Edge 85, Type (0, 0), BuildingBlock: OJICUG_clean_linker_0, # of connection points: 2
#     Edge 86, Type (0, 0), BuildingBlock: OJICUG_clean_linker_0, # of connection points: 2
#     Edge 87, Type (0, 0), BuildingBlock: OJICUG_clean_linker_0, # of connection points: 2
#     Edge 88, Type (0, 0), BuildingBlock: OJICUG_clean_linker_0, # of connection points: 2
#     Edge 89, Type (0, 0), BuildingBlock: OJICUG_clean_linker_0, # of connection points: 2
#     Edge 90, Type (0, 0), BuildingBlock: OJICUG_clean_linker_0, # of connection points: 2
#     Edge 91, Type (0, 0), BuildingBlock: OJICUG_clean_linker_0, # of connection points: 2
#     Edge 92, Type (0, 0), BuildingBlock: OJICUG_clean_linker_0, # of connection points: 2
#     Edge 93, Type (0, 0), BuildingBlock: OJICUG_clean_linker_0, # of connection points: 2
#     Edge 94, Type (0, 0), BuildingBlock: OJICUG_clean_linker_0, # of connection points: 2
#     Edge 95, Type (0, 0), BuildingBlock: OJICUG_clean_linker_0, # of connection points: 2
#     Edge 96, Type (0, 0), BuildingBlock: OJICUG_clean_linker_0, # of connection points: 2
#     Edge 97, Type (0, 0), BuildingBlock: OJICUG_clean_linker_0, # of connection points: 2
#     Edge 98, Type (0, 0), BuildingBlock: OJICUG_clean_linker_0, # of connection points: 2
#     Edge 99, Type (0, 0), BuildingBlock: OJICUG_clean_linker_0, # of connection points: 2
#     Edge 100, Type (0, 0), BuildingBlock: OJICUG_clean_linker_0, # of connection points: 2
#     Edge 101, Type (0, 0), BuildingBlock: OJICUG_clean_linker_0, # of connection points: 2
#     Edge 102, Type (0, 0), BuildingBlock: OJICUG_clean_linker_0, # of connection points: 2
#     Edge 103, Type (0, 0), BuildingBlock: OJICUG_clean_linker_0, # of connection points: 2
#     Edge 104, Type (0, 0), BuildingBlock: OJICUG_clean_linker_0, # of connection points: 2
#     Edge 105, Type (0, 0), BuildingBlock: OJICUG_clean_linker_0, # of connection points: 2
#     Edge 106, Type (0, 0), BuildingBlock: OJICUG_clean_linker_0, # of connection points: 2
#     Edge 107, Type (0, 0), BuildingBlock: OJICUG_clean_linker_0, # of connection points: 2
#     Edge 108, Type (0, 0), BuildingBlock: OJICUG_clean_linker_0, # of connection points: 2
#     Edge 109, Type (0, 0), BuildingBlock: OJICUG_clean_linker_0, # of connection points: 2
#     Edge 110, Type (0, 0), BuildingBlock: OJICUG_clean_linker_0, # of connection points: 2
#     Edge 111, Type (0, 0), BuildingBlock: OJICUG_clean_linker_0, # of connection points: 2
# Relax obj value: 0.317
# Max RMSD: 0.241
# Mean RMSD: 0.241
data_MOF--net-wgd--node1-BEQFEK_clean_sbu_0--edge1-OJICUG_clean_linker_0
_symmetry_space_group_name_H-M    P1
_symmetry_Int_Tables_number       1
_symmetry_cell_setting            triclinic
loop_
_symmetry_equiv_pos_as_xyz
'x, y, z'
_cell_length_a     74.337654
_cell_length_b     74.31317
_cell_length_c     14.465505
_cell_angle_alpha  90.015244
_cell_angle_beta   89.998241
_cell_angle_gamma 90.000696
loop_
_atom_site_label
_atom_site_type_symbol
_atom_site_fract_x
_atom_site_fract_y
_atom_site_fract_z
_atom_type_partial_charge
Co0 Co 0.17638 0.17795 0.14033 0.0
Co1 Co 0.19799 0.17755 0.95654 0.0
C2 C 0.17881 0.21089 0.03233 0.0
O3 O 0.17134 0.20262 0.09889 0.0
O4 O 0.18947 0.20275 0.97761 0.0
C5 C 0.16886 0.18679 0.31933 0.0
O6 O 0.17147 0.20282 0.28364 0.0
C7 C 0.19358 0.18318 0.76323 0.0
C8 C 0.2165 0.16915 0.69813 0.0
C9 C 0.20066 0.17828 0.67861 0.0
N10 N 0.20456 0.17714 0.8299 0.0
N11 N 0.21846 0.16904 0.7909 0.0
C12 C 0.17539 0.19114 0.78148 0.0
H13 H 0.17029 0.18689 0.85007 0.0
H14 H 0.16561 0.18703 0.72751 0.0
H15 H 0.17648 0.20603 0.78098 0.0
C16 C 0.15574 0.14921 0.04365 0.0
N17 N 0.16939 0.16106 0.05017 0.0
N18 N 0.17935 0.16007 0.97512 0.0
C19 C 0.17274 0.14697 0.92011 0.0
C20 C 0.15744 0.13987 0.96094 0.0
C21 C 0.14131 0.14716 0.11482 0.0
H22 H 0.14751 0.14584 0.18425 0.0
H23 H 0.13288 0.15948 0.11536 0.0
H24 H 0.1327 0.13527 0.10052 0.0
O25 O 0.20231 0.17549 0.16693 0.0
O26 O 0.21872 0.17302 0.0399 0.0
H27 H 0.19521 0.14283 0.82942 0.0
H28 H 0.17659 0.12801 0.80791 0.0
C29 C 0.18036 0.14188 0.82789 0.0
H30 H 0.17496 0.15107 0.77434 0.0
H31 H 0.22874 0.16265 0.82747 0.0
O32 O 0.16672 0.1735 0.26502 0.0
C33 C 0.21746 0.17333 0.12777 0.0
Co34 Co 0.07109 0.92645 0.39274 0.0
Co35 Co 0.07123 0.94806 0.20896 0.0
C36 C 0.03814 0.92846 0.28483 0.0
O37 O 0.04649 0.9211 0.35145 0.0
O38 O 0.04616 0.93922 0.23011 0.0
C39 C 0.06238 0.9187 0.57178 0.0
O40 O 0.0463 0.92099 0.53619 0.0
C41 C 0.06563 0.94355 0.01569 0.0
C42 C 0.07932 0.96666 0.95049 0.0
C43 C 0.07042 0.95068 0.93103 0.0
N44 N 0.07152 0.95463 0.08231 0.0
N45 N 0.07941 0.96864 0.04326 0.0
C46 C 0.05793 0.92524 0.034 0.0
H47 H 0.06224 0.92021 0.10265 0.0
H48 H 0.06219 0.9155 0.98012 0.0
H49 H 0.04303 0.92612 0.03338 0.0
C50 C 0.09992 0.90604 0.29554 0.0
N51 N 0.08803 0.91964 0.30245 0.0
N52 N 0.08893 0.92964 0.22752 0.0
C53 C 0.10203 0.92312 0.17225 0.0
C54 C 0.1092 0.90781 0.21271 0.0
C55 C 0.102 0.89151 0.36618 0.0
H56 H 0.10317 0.89761 0.43592 0.0
H57 H 0.08975 0.88297 0.3659 0.0
H58 H 0.11397 0.88302 0.35192 0.0
O59 O 0.07321 0.95244 0.41935 0.0
O60 O 0.07548 0.96886 0.29227 0.0
H61 H 0.10584 0.94562 0.08138 0.0
H62 H 0.12096 0.92723 0.06026 0.0
C63 C 0.10702 0.93078 0.08001 0.0
H64 H 0.09795 0.92521 0.0264 0.0
H65 H 0.08566 0.97901 0.07978 0.0
O66 O 0.07569 0.91685 0.51738 0.0
C67 C 0.07516 0.96762 0.38014 0.0
Co68 Co 0.32178 0.82108 0.64073 0.0
Co69 Co 0.30016 0.82145 0.45701 0.0
C70 C 0.31964 0.78823 0.53213 0.0
O71 O 0.32705 0.79648 0.59892 0.0
O72 O 0.30891 0.79634 0.47768 0.0
C73 C 0.32928 0.81227 0.81969 0.0
O74 O 0.32668 0.79624 0.78392 0.0
C75 C 0.30462 0.81587 0.26369 0.0
C76 C 0.28159 0.82971 0.1986 0.0
C77 C 0.2975 0.8207 0.17908 0.0
N78 N 0.2936 0.82184 0.33036 0.0
N79 N 0.27963 0.82982 0.29137 0.0
C80 C 0.32287 0.80805 0.28188 0.0
H81 H 0.32796 0.81237 0.35039 0.0
H82 H 0.33261 0.81219 0.2278 0.0
H83 H 0.32188 0.79315 0.28156 0.0
C84 C 0.34229 0.84991 0.54419 0.0
N85 N 0.32863 0.83807 0.55085 0.0
N86 N 0.31865 0.83906 0.4759 0.0
C87 C 0.32524 0.85216 0.42087 0.0
C88 C 0.34057 0.85924 0.46151 0.0
C89 C 0.35682 0.85186 0.61491 0.0
H90 H 0.35073 0.85299 0.68467 0.0
H91 H 0.36532 0.83959 0.61428 0.0
H92 H 0.36535 0.86382 0.60098 0.0
O93 O 0.2958 0.82324 0.66736 0.0
O94 O 0.27938 0.82571 0.5404 0.0
H95 H 0.30279 0.85614 0.32988 0.0
H96 H 0.32129 0.87113 0.30888 0.0
C97 C 0.31763 0.85721 0.32859 0.0
H98 H 0.32314 0.8481 0.275 0.0
H99 H 0.26931 0.83614 0.32795 0.0
O100 O 0.33138 0.82557 0.76544 0.0
C101 C 0.28064 0.82529 0.62826 0.0
Co102 Co 0.42766 0.0718 0.89246 0.0
Co103 Co 0.42757 0.05017 0.70865 0.0
C104 C 0.4606 0.06988 0.78449 0.0
O105 O 0.45224 0.07722 0.85114 0.0
O106 O 0.4526 0.0591 0.7298 0.0
C107 C 0.43633 0.07959 0.07153 0.0
O108 O 0.45243 0.07734 0.03596 0.0
C109 C 0.43314 0.05473 0.51539 0.0
C110 C 0.41955 0.03157 0.45007 0.0
C111 C 0.42838 0.04759 0.4307 0.0
N112 N 0.4273 0.04362 0.58196 0.0
N113 N 0.41947 0.02958 0.54283 0.0
C114 C 0.44075 0.07307 0.5338 0.0
H115 H 0.43643 0.07807 0.6025 0.0
H116 H 0.43644 0.0828 0.47999 0.0
H117 H 0.45565 0.07226 0.53313 0.0
C118 C 0.39868 0.09205 0.7955 0.0
N119 N 0.41068 0.07853 0.80225 0.0
N120 N 0.40981 0.06852 0.72733 0.0
C121 C 0.39664 0.07495 0.67222 0.0
C122 C 0.38938 0.0902 0.71279 0.0
C123 C 0.39652 0.10655 0.86629 0.0
H124 H 0.39523 0.10041 0.93586 0.0
H125 H 0.40878 0.11507 0.86669 0.0
H126 H 0.38458 0.11506 0.85171 0.0
O127 O 0.42563 0.0458 0.91901 0.0
O128 O 0.42339 0.02936 0.79192 0.0
H129 H 0.3929 0.0524 0.58152 0.0
H130 H 0.3777 0.07072 0.56038 0.0
C131 C 0.39166 0.06724 0.58006 0.0
H132 H 0.40069 0.07283 0.52635 0.0
H133 H 0.41326 0.01917 0.5793 0.0
O134 O 0.42302 0.08139 0.01712 0.0
C135 C 0.42372 0.03062 0.87979 0.0
Co136 Co 0.17642 0.82087 0.8505 0.0
Co137 Co 0.19804 0.82099 0.03431 0.0
C138 C 0.17851 0.78788 0.95814 0.0
O139 O 0.17114 0.79623 0.8916 0.0
O140 O 0.18924 0.7959 0.01296 0.0
C141 C 0.16861 0.81217 0.67141 0.0
O142 O 0.17085 0.79607 0.70692 0.0
C143 C 0.19351 0.81537 0.22757 0.0
C144 C 0.2166 0.82908 0.29288 0.0
C145 C 0.20063 0.82017 0.31227 0.0
N146 N 0.20459 0.82126 0.161 0.0
N147 N 0.21859 0.82916 0.20012 0.0
C148 C 0.17521 0.80767 0.20916 0.0
H149 H 0.17021 0.81195 0.14043 0.0
H150 H 0.16546 0.81195 0.26292 0.0
H151 H 0.17609 0.79276 0.20991 0.0
C152 C 0.15601 0.8497 0.94783 0.0
N153 N 0.16959 0.83778 0.94093 0.0
N154 N 0.17959 0.83867 0.01587 0.0
C155 C 0.17309 0.85178 0.07114 0.0
C156 C 0.1578 0.85898 0.03066 0.0
C157 C 0.14151 0.85182 0.87705 0.0
H158 H 0.13305 0.83952 0.87654 0.0
H159 H 0.13295 0.86372 0.89173 0.0
H160 H 0.14766 0.85316 0.80749 0.0
O161 O 0.20239 0.82306 0.82394 0.0
O162 O 0.21882 0.82531 0.95103 0.0
H163 H 0.17722 0.87073 0.1831 0.0
H164 H 0.17522 0.84771 0.21698 0.0
C165 C 0.18077 0.85679 0.16333 0.0
H166 H 0.19561 0.85561 0.16186 0.0
H167 H 0.22896 0.83543 0.16365 0.0
O168 O 0.1668 0.82548 0.72588 0.0
C169 C 0.21756 0.82504 0.86315 0.0
Co170 Co 0.42792 0.92633 0.10166 0.0
Co171 Co 0.42773 0.94794 0.2855 0.0
C172 C 0.46084 0.92837 0.20973 0.0
O173 O 0.45252 0.921 0.14308 0.0
O174 O 0.45281 0.93912 0.26442 0.0
C175 C 0.43665 0.91864 0.92263 0.0
O176 O 0.45272 0.92102 0.95827 0.0
C177 C 0.43332 0.94343 0.47877 0.0
C178 C 0.41959 0.96653 0.54399 0.0
C179 C 0.42851 0.95056 0.56343 0.0
N180 N 0.42741 0.9545 0.41216 0.0
N181 N 0.41949 0.9685 0.45123 0.0
C182 C 0.44104 0.92514 0.46044 0.0
H183 H 0.43673 0.9201 0.3918 0.0
H184 H 0.4368 0.91539 0.51434 0.0
H185 H 0.45594 0.92604 0.46099 0.0
C186 C 0.39901 0.90596 0.19836 0.0
N187 N 0.41096 0.91953 0.19177 0.0
N188 N 0.41005 0.92951 0.26678 0.0
C189 C 0.39691 0.92301 0.32182 0.0
C190 C 0.38969 0.90775 0.28108 0.0
C191 C 0.39688 0.8915 0.12737 0.0
H192 H 0.39556 0.89768 0.05788 0.0
H193 H 0.40917 0.88302 0.12681 0.0
H194 H 0.38497 0.88295 0.14184 0.0
O195 O 0.42579 0.95232 0.07512 0.0
O196 O 0.42348 0.96874 0.20223 0.0
H197 H 0.39304 0.94551 0.41268 0.0
H198 H 0.37797 0.92708 0.43386 0.0
C199 C 0.3919 0.93067 0.41407 0.0
H200 H 0.40099 0.92513 0.46766 0.0
H201 H 0.41323 0.97886 0.41471 0.0
O202 O 0.42335 0.91672 0.97699 0.0
C203 C 0.42382 0.96749 0.11436 0.0
Co204 Co 0.32163 0.17655 0.35038 0.0
Co205 Co 0.29998 0.17639 0.53414 0.0
C206 C 0.31955 0.20949 0.45823 0.0
O207 O 0.32695 0.20115 0.39171 0.0
O208 O 0.3088 0.20147 0.5129 0.0
C209 C 0.3294 0.18526 0.17129 0.0
O210 O 0.32713 0.20135 0.20689 0.0
C211 C 0.30452 0.18202 0.7274 0.0
C212 C 0.28142 0.16833 0.79272 0.0
C213 C 0.2974 0.17724 0.8121 0.0
N214 N 0.29343 0.17612 0.66083 0.0
N215 N 0.27943 0.16823 0.69996 0.0
C216 C 0.32281 0.18972 0.709 0.0
H217 H 0.32782 0.18542 0.6403 0.0
H218 H 0.33256 0.18546 0.7628 0.0
H219 H 0.32193 0.20463 0.70966 0.0
C220 C 0.34206 0.14776 0.4477 0.0
N221 N 0.32843 0.15961 0.44067 0.0
N222 N 0.31842 0.1587 0.51556 0.0
C223 C 0.32496 0.14563 0.5709 0.0
C224 C 0.3403 0.13849 0.53055 0.0
C225 C 0.35663 0.14574 0.37722 0.0
H226 H 0.36516 0.158 0.37783 0.0
H227 H 0.36512 0.13377 0.39142 0.0
H228 H 0.35057 0.1446 0.30738 0.0
O229 O 0.29565 0.17446 0.32384 0.0
O230 O 0.2792 0.17216 0.45078 0.0
H231 H 0.32085 0.12669 0.68283 0.0
H232 H 0.32289 0.1497 0.71677 0.0
C233 C 0.3173 0.14063 0.66315 0.0
H234 H 0.30247 0.14182 0.66184 0.0
H235 H 0.26906 0.16197 0.6635 0.0
O236 O 0.33123 0.17194 0.22569 0.0
C237 C 0.28047 0.17251 0.36292 0.0
Co238 Co 0.07067 0.0719 0.60207 0.0
Co239 Co 0.07097 0.05032 0.78591 0.0
C240 C 0.03776 0.0697 0.71024 0.0
O241 O 0.04605 0.0771 0.64356 0.0
O242 O 0.04585 0.059 0.76494 0.0
C243 C 0.06189 0.07954 0.42311 0.0
O244 O 0.04583 0.07708 0.45876 0.0
C245 C 0.06536 0.05477 0.9792 0.0
C246 C 0.07925 0.03177 0.04431 0.0
C247 C 0.07022 0.04767 0.06382 0.0
N248 N 0.07135 0.04375 0.91254 0.0
N249 N 0.07936 0.02981 0.95154 0.0
C250 C 0.05752 0.07302 0.96095 0.0
H251 H 0.0618 0.0781 0.89237 0.0
H252 H 0.06167 0.08278 0.01493 0.0
H253 H 0.04262 0.07201 0.96144 0.0
C254 C 0.09942 0.09247 0.69878 0.0
N255 N 0.08759 0.07881 0.69217 0.0
N256 N 0.08855 0.06886 0.76723 0.0
C257 C 0.10162 0.07548 0.82234 0.0
C258 C 0.10873 0.09079 0.78158 0.0
C259 C 0.10144 0.10694 0.62775 0.0
H260 H 0.08907 0.1153 0.62698 0.0
H261 H 0.11326 0.11561 0.64232 0.0
H262 H 0.10286 0.10075 0.55832 0.0
O263 O 0.07294 0.04592 0.57548 0.0
O264 O 0.07534 0.02953 0.70259 0.0
H265 H 0.12056 0.07159 0.93453 0.0
H266 H 0.09752 0.07339 0.96817 0.0
C267 C 0.10666 0.06789 0.91468 0.0
H268 H 0.10563 0.05304 0.91342 0.0
H269 H 0.0857 0.01949 0.91498 0.0
O270 O 0.07518 0.08154 0.47746 0.0
C271 C 0.07499 0.03077 0.61472 0.0
Co272 Co 0.82201 0.8208 0.85187 0.0
Co273 Co 0.8004 0.821 0.03566 0.0
C274 C 0.81993 0.78786 0.95985 0.0
O275 O 0.82731 0.79618 0.89323 0.0
O276 O 0.80919 0.7959 0.01455 0.0
C277 C 0.82968 0.81205 0.67283 0.0
O278 O 0.82728 0.79598 0.70846 0.0
C279 C 0.80488 0.81539 0.22895 0.0
C280 C 0.78182 0.82917 0.29413 0.0
C281 C 0.79776 0.82021 0.3136 0.0
N282 N 0.79383 0.82132 0.16231 0.0
N283 N 0.77985 0.82926 0.20136 0.0
C284 C 0.82316 0.80764 0.21065 0.0
H285 H 0.82821 0.81194 0.14203 0.0
H286 H 0.8329 0.81186 0.26458 0.0
H287 H 0.82223 0.79274 0.21118 0.0
C288 C 0.84248 0.8496 0.94899 0.0
N289 N 0.82885 0.83774 0.94212 0.0
N290 N 0.81886 0.83866 0.01708 0.0
C291 C 0.82542 0.85175 0.07234 0.0
C292 C 0.84073 0.85889 0.03183 0.0
C293 C 0.857 0.85164 0.8783 0.0
H294 H 0.8509 0.85279 0.80856 0.0
H295 H 0.86554 0.83939 0.87872 0.0
H296 H 0.86549 0.86362 0.89242 0.0
O297 O 0.79604 0.82297 0.8253 0.0
O298 O 0.77962 0.82529 0.95235 0.0
H299 H 0.80294 0.85563 0.16327 0.0
H300 H 0.82138 0.87069 0.18442 0.0
C301 C 0.81778 0.85676 0.16462 0.0
H302 H 0.82332 0.84766 0.21818 0.0
H303 H 0.7695 0.83555 0.16483 0.0
O304 O 0.83161 0.82536 0.7272 0.0
C305 C 0.78087 0.82497 0.86447 0.0
Co306 Co 0.92748 0.07163 0.60205 0.0
Co307 Co 0.92723 0.05005 0.78586 0.0
C308 C 0.96038 0.06957 0.71026 0.0
O309 O 0.95207 0.07694 0.6436 0.0
O310 O 0.95234 0.05882 0.76494 0.0
C311 C 0.93626 0.07921 0.4231 0.0
O312 O 0.9523 0.07673 0.45883 0.0
C313 C 0.93284 0.05449 0.97917 0.0
C314 C 0.919 0.03144 0.04418 0.0
C315 C 0.928 0.04736 0.06376 0.0
N316 N 0.92688 0.04346 0.91246 0.0
N317 N 0.9189 0.02949 0.9514 0.0
C318 C 0.94064 0.07275 0.96102 0.0
H319 H 0.93633 0.07784 0.8925 0.0
H320 H 0.93648 0.08249 0.0151 0.0
H321 H 0.95554 0.07177 0.96138 0.0
C322 C 0.89868 0.09214 0.69883 0.0
N323 N 0.91053 0.07849 0.69212 0.0
N324 N 0.90959 0.06853 0.76717 0.0
C325 C 0.89652 0.07513 0.82236 0.0
C326 C 0.8894 0.09044 0.78168 0.0
C327 C 0.89667 0.10664 0.62801 0.0
H328 H 0.89555 0.10052 0.55829 0.0
H329 H 0.90892 0.11518 0.62849 0.0
H330 H 0.88469 0.11514 0.64193 0.0
O331 O 0.92533 0.04564 0.57547 0.0
O332 O 0.92297 0.02925 0.70256 0.0
H333 H 0.8926 0.05271 0.91361 0.0
H334 H 0.87762 0.07122 0.93468 0.0
C335 C 0.89152 0.06755 0.91479 0.0
H336 H 0.90066 0.07309 0.96819 0.0
H337 H 0.91258 0.01917 0.91478 0.0
O338 O 0.92295 0.08123 0.47738 0.0
C339 C 0.92333 0.03048 0.61469 0.0
Co340 Co 0.67683 0.17708 0.35089 0.0
Co341 Co 0.69847 0.17683 0.53464 0.0
C342 C 0.67901 0.21 0.45892 0.0
O343 O 0.67159 0.2017 0.39234 0.0
O344 O 0.68974 0.20193 0.51354 0.0
C345 C 0.66913 0.18583 0.17184 0.0
O346 O 0.6715 0.20191 0.20747 0.0
C347 C 0.69397 0.18247 0.72792 0.0
C348 C 0.71701 0.16869 0.7932 0.0
C349 C 0.70107 0.17766 0.8126 0.0
N350 N 0.70503 0.17653 0.66133 0.0
N351 N 0.719 0.16858 0.70044 0.0
C352 C 0.6757 0.19023 0.70955 0.0
H353 H 0.67066 0.18594 0.6409 0.0
H354 H 0.66594 0.18602 0.76341 0.0
H355 H 0.67664 0.20514 0.71012 0.0
C356 C 0.65633 0.14831 0.44805 0.0
N357 N 0.66998 0.16015 0.44112 0.0
N358 N 0.67999 0.1592 0.51602 0.0
C359 C 0.67342 0.14613 0.57128 0.0
C360 C 0.65808 0.13902 0.53085 0.0
C361 C 0.64178 0.14631 0.37745 0.0
H362 H 0.64786 0.14514 0.30767 0.0
H363 H 0.63329 0.15859 0.37791 0.0
H364 H 0.63326 0.13436 0.39164 0.0
O365 O 0.70281 0.1749 0.32431 0.0
O366 O 0.71925 0.17253 0.45127 0.0
H367 H 0.6959 0.14223 0.66214 0.0
H368 H 0.67746 0.12718 0.68325 0.0
C369 C 0.68106 0.14111 0.66351 0.0
H370 H 0.67553 0.1502 0.71714 0.0
H371 H 0.72935 0.16229 0.66396 0.0
O372 O 0.66722 0.17252 0.22621 0.0
C373 C 0.71798 0.17289 0.3634 0.0
Co374 Co 0.57113 0.9265 0.10137 0.0
Co375 Co 0.5713 0.9481 0.28521 0.0
C376 C 0.53821 0.92848 0.20948 0.0
O377 O 0.54654 0.92112 0.14278 0.0
O378 O 0.54624 0.93924 0.26417 0.0
C379 C 0.56242 0.91878 0.92234 0.0
O380 O 0.54634 0.92113 0.95796 0.0
C381 C 0.56572 0.94359 0.47848 0.0
C382 C 0.57941 0.9667 0.54371 0.0
C383 C 0.57051 0.95072 0.56314 0.0
N384 N 0.57161 0.95466 0.41187 0.0
N385 N 0.57951 0.96867 0.45094 0.0
C386 C 0.55802 0.92528 0.46015 0.0
H387 H 0.56233 0.92025 0.39152 0.0
H388 H 0.56226 0.91554 0.51405 0.0
H389 H 0.54312 0.92617 0.46069 0.0
C390 C 0.6 0.90611 0.19826 0.0
N391 N 0.5881 0.9197 0.19151 0.0
N392 N 0.58901 0.92969 0.26649 0.0
C393 C 0.60212 0.92317 0.32165 0.0
C394 C 0.6093 0.90788 0.28105 0.0
C395 C 0.60208 0.8916 0.12746 0.0
H396 H 0.58977 0.88315 0.1271 0.0
H397 H 0.61397 0.88302 0.14199 0.0
H398 H 0.6034 0.89774 0.05788 0.0
O399 O 0.57322 0.95249 0.07483 0.0
O400 O 0.57551 0.96891 0.20195 0.0
H401 H 0.62105 0.92726 0.43366 0.0
H402 H 0.59804 0.92525 0.46752 0.0
C403 C 0.60712 0.93082 0.41394 0.0
H404 H 0.60594 0.94566 0.41265 0.0
H405 H 0.58576 0.97904 0.41443 0.0
O406 O 0.57573 0.9169 0.97671 0.0
C407 C 0.57517 0.96767 0.11407 0.0
Co408 Co 0.82213 0.17783 0.14101 0.0
Co409 Co 0.80052 0.17753 0.95718 0.0
C410 C 0.81981 0.21079 0.03317 0.0
O411 O 0.82724 0.20249 0.09972 0.0
O412 O 0.80913 0.20269 0.97837 0.0
C413 C 0.82981 0.1866 0.32004 0.0
O414 O 0.82738 0.20266 0.28447 0.0
C415 C 0.805 0.18314 0.7639 0.0
C416 C 0.78202 0.16923 0.69868 0.0
C417 C 0.79791 0.17828 0.67924 0.0
N418 N 0.79397 0.17716 0.83051 0.0
N419 N 0.78003 0.16914 0.79144 0.0
C420 C 0.82323 0.191 0.78226 0.0
H421 H 0.82828 0.18675 0.85094 0.0
H422 H 0.83301 0.18681 0.72842 0.0
H423 H 0.82222 0.20589 0.7816 0.0
C424 C 0.84265 0.14902 0.04429 0.0
N425 N 0.82905 0.16093 0.05078 0.0
N426 N 0.81909 0.15998 0.97574 0.0
C427 C 0.82564 0.14685 0.92074 0.0
C428 C 0.84091 0.13969 0.96158 0.0
C429 C 0.85705 0.1469 0.11557 0.0
H430 H 0.86527 0.15936 0.11783 0.0
H431 H 0.86586 0.13522 0.10024 0.0
H432 H 0.85079 0.14519 0.18464 0.0
O433 O 0.79617 0.17546 0.1676 0.0
O434 O 0.77977 0.17308 0.04051 0.0
H435 H 0.82169 0.12787 0.80871 0.0
H436 H 0.82346 0.15091 0.77493 0.0
C437 C 0.818 0.14178 0.82855 0.0
H438 H 0.80316 0.14281 0.83006 0.0
H439 H 0.76972 0.1628 0.82795 0.0
O440 O 0.83178 0.1733 0.26561 0.0
C441 C 0.78102 0.17338 0.12839 0.0
Co442 Co 0.57091 0.07199 0.89237 0.0
Co443 Co 0.57105 0.05037 0.70852 0.0
C444 C 0.53796 0.06996 0.78447 0.0
O445 O 0.5463 0.07732 0.85112 0.0
O446 O 0.54599 0.05921 0.72972 0.0
C447 C 0.56221 0.07978 0.07143 0.0
O448 O 0.54611 0.07752 0.03588 0.0
C449 C 0.56544 0.05491 0.51526 0.0
C450 C 0.57912 0.0318 0.44993 0.0
C451 C 0.57023 0.04779 0.43057 0.0
N452 N 0.57133 0.04382 0.58183 0.0
N453 N 0.57921 0.02981 0.54269 0.0
C454 C 0.55777 0.07322 0.53368 0.0
H455 H 0.56206 0.07823 0.60238 0.0
H456 H 0.56204 0.08297 0.47988 0.0
H457 H 0.54286 0.07236 0.53301 0.0
C458 C 0.59979 0.09236 0.79531 0.0
N459 N 0.58785 0.07879 0.80209 0.0
N460 N 0.58874 0.06879 0.72713 0.0
C461 C 0.60187 0.07528 0.67197 0.0
C462 C 0.60908 0.09056 0.71254 0.0
C463 C 0.60191 0.10686 0.86615 0.0
H464 H 0.60323 0.10071 0.9357 0.0
H465 H 0.58963 0.11534 0.86659 0.0
H466 H 0.61383 0.1154 0.85158 0.0
O467 O 0.57305 0.04599 0.9189 0.0
O468 O 0.57531 0.02958 0.79176 0.0
H469 H 0.60568 0.05276 0.58119 0.0
H470 H 0.62081 0.07114 0.56001 0.0
C471 C 0.60687 0.06759 0.57976 0.0
H472 H 0.5978 0.07316 0.52611 0.0
H473 H 0.58546 0.01943 0.57915 0.0
O474 O 0.57552 0.0816 0.01701 0.0
C475 C 0.575 0.03082 0.87964 0.0
Co476 Co 0.67664 0.82092 0.64218 0.0
Co477 Co 0.69826 0.82112 0.45842 0.0
C478 C 0.67873 0.78798 0.53413 0.0
O479 O 0.67134 0.7963 0.60078 0.0
O480 O 0.68946 0.79604 0.47949 0.0
C481 C 0.66893 0.81218 0.82123 0.0
O482 O 0.67127 0.7961 0.78561 0.0
C483 C 0.69375 0.81552 0.26513 0.0
C484 C 0.71683 0.82924 0.19989 0.0
C485 C 0.70087 0.82031 0.18046 0.0
N486 N 0.70482 0.82143 0.33174 0.0
N487 N 0.71881 0.82934 0.29265 0.0
C488 C 0.67546 0.8078 0.28348 0.0
H489 H 0.67043 0.8121 0.35215 0.0
H490 H 0.66571 0.81205 0.22962 0.0
H491 H 0.67635 0.7929 0.28285 0.0
C492 C 0.65622 0.84978 0.5452 0.0
N493 N 0.66982 0.83787 0.55199 0.0
N494 N 0.67982 0.8388 0.47707 0.0
C495 C 0.6733 0.85191 0.42193 0.0
C496 C 0.658 0.85908 0.46246 0.0
C497 C 0.64171 0.85185 0.61592 0.0
H498 H 0.64782 0.85304 0.68562 0.0
H499 H 0.63318 0.83959 0.61572 0.0
H500 H 0.63321 0.86381 0.60169 0.0
O501 O 0.70262 0.82307 0.66878 0.0
O502 O 0.71905 0.82539 0.54175 0.0
H503 H 0.69581 0.85577 0.33115 0.0
H504 H 0.6774 0.87087 0.31002 0.0
C505 C 0.68097 0.85693 0.32973 0.0
H506 H 0.67543 0.84786 0.27606 0.0
H507 H 0.72918 0.83561 0.32915 0.0
O508 O 0.66703 0.8255 0.76685 0.0
C509 C 0.71779 0.82505 0.62962 0.0
Co510 Co 0.92782 0.92617 0.39279 0.0
Co511 Co 0.92761 0.94778 0.20898 0.0
C512 C 0.96077 0.92831 0.28484 0.0
O513 O 0.95245 0.92092 0.35147 0.0
O514 O 0.95271 0.93903 0.23011 0.0
C515 C 0.93657 0.91843 0.57181 0.0
O516 O 0.95264 0.92078 0.53623 0.0
C517 C 0.93322 0.94327 0.01571 0.0
C518 C 0.91945 0.96633 0.95049 0.0
C519 C 0.92841 0.95038 0.93105 0.0
N520 N 0.92729 0.95433 0.08233 0.0
N521 N 0.91935 0.96831 0.04326 0.0
C522 C 0.94098 0.92499 0.03405 0.0
H523 H 0.93669 0.91995 0.10271 0.0
H524 H 0.93675 0.91523 0.98018 0.0
H525 H 0.95587 0.92592 0.03341 0.0
C526 C 0.89899 0.90571 0.29582 0.0
N527 N 0.9109 0.91931 0.30254 0.0
N528 N 0.90998 0.92929 0.22757 0.0
C529 C 0.89686 0.92277 0.17244 0.0
C530 C 0.88969 0.90748 0.21306 0.0
C531 C 0.89689 0.89123 0.36672 0.0
H532 H 0.89556 0.8974 0.43624 0.0
H533 H 0.9092 0.88278 0.36724 0.0
H534 H 0.885 0.88265 0.35217 0.0
O535 O 0.9256 0.95216 0.4194 0.0
O536 O 0.92328 0.96856 0.29229 0.0
H537 H 0.89296 0.94527 0.0817 0.0
H538 H 0.87791 0.92682 0.06045 0.0
C539 C 0.89184 0.93043 0.08024 0.0
H540 H 0.90093 0.92491 0.02661 0.0
H541 H 0.91306 0.97867 0.07977 0.0
O542 O 0.92326 0.91654 0.5174 0.0
C543 C 0.92358 0.96732 0.38017 0.0
Co544 Co 0.67681 0.67757 0.64107 0.0
Co545 Co 0.6985 0.67753 0.45741 0.0
C546 C 0.67888 0.71058 0.53367 0.0
O547 O 0.6715 0.70221 0.60015 0.0
O548 O 0.68964 0.70258 0.47892 0.0
C549 C 0.66896 0.68623 0.82028 0.0
O550 O 0.6711 0.70235 0.78481 0.0
C551 C 0.69395 0.68318 0.26414 0.0
C552 C 0.71708 0.66957 0.19871 0.0
C553 C 0.70106 0.67841 0.17939 0.0
N554 N 0.70506 0.67732 0.33067 0.0
N555 N 0.71909 0.66949 0.29146 0.0
C556 C 0.67562 0.6908 0.28264 0.0
H557 H 0.67065 0.68652 0.35143 0.0
H558 H 0.66587 0.68647 0.22898 0.0
H559 H 0.67643 0.70571 0.28179 0.0
C560 C 0.65637 0.64887 0.54274 0.0
N561 N 0.67002 0.66069 0.55033 0.0
N562 N 0.68009 0.6598 0.47563 0.0
C563 C 0.67358 0.64676 0.41995 0.0
C564 C 0.65819 0.63964 0.45976 0.0
C565 C 0.64172 0.64684 0.61274 0.0
H566 H 0.64768 0.64583 0.68286 0.0
H567 H 0.63311 0.65904 0.61138 0.0
H568 H 0.63332 0.6348 0.59856 0.0
O569 O 0.7028 0.67543 0.66769 0.0
O570 O 0.71928 0.67324 0.54079 0.0
H571 H 0.69617 0.64303 0.3295 0.0
H572 H 0.67789 0.6278 0.30829 0.0
C573 C 0.68134 0.64177 0.32789 0.0
H574 H 0.67574 0.65077 0.27406 0.0
H575 H 0.72949 0.66326 0.32787 0.0
O576 O 0.66722 0.67291 0.76578 0.0
C577 C 0.71798 0.6735 0.62866 0.0
Co578 Co 0.57195 0.42619 0.90312 0.0
Co579 Co 0.57 0.44647 0.71342 0.0
C580 C 0.53777 0.4273 0.80058 0.0
O581 O 0.54668 0.42142 0.8694 0.0
O582 O 0.54517 0.43703 0.7385 0.0
C583 C 0.56597 0.41475 0.08436 0.0
O584 O 0.54926 0.41303 0.05644 0.0
C585 C 0.56201 0.44817 0.51703 0.0
C586 C 0.58647 0.46112 0.46259 0.0
C587 C 0.57164 0.451 0.43583 0.0
N588 N 0.57148 0.45485 0.58826 0.0
N589 N 0.58564 0.46339 0.55487 0.0
C590 C 0.5437 0.44021 0.52781 0.0
H591 H 0.53612 0.4483 0.579 0.0
H592 H 0.54485 0.42621 0.55374 0.0
H593 H 0.53609 0.44049 0.46184 0.0
C594 C 0.59978 0.40527 0.80471 0.0
N595 N 0.58781 0.41886 0.80911 0.0
N596 N 0.58729 0.42732 0.72914 0.0
C597 C 0.59905 0.41918 0.67126 0.0
C598 C 0.60739 0.40516 0.71731 0.0
C599 C 0.60358 0.39265 0.88275 0.0
H600 H 0.60878 0.40042 0.94255 0.0
H601 H 0.59085 0.38613 0.90484 0.0
H602 H 0.61355 0.38222 0.863 0.0
O603 O 0.57434 0.45196 0.92913 0.0
O604 O 0.57464 0.46727 0.79826 0.0
H605 H 0.60777 0.43647 0.56259 0.0
H606 H 0.60934 0.41303 0.53427 0.0
C607 C 0.6011 0.42326 0.57063 0.0
H608 H 0.58771 0.4234 0.53772 0.0
H609 H 0.59569 0.46913 0.59567 0.0
O610 O 0.57834 0.41626 0.02444 0.0
C611 C 0.57544 0.46679 0.88621 0.0
Co612 Co 0.82173 0.32118 0.14171 0.0
Co613 Co 0.80012 0.32141 0.95795 0.0
C614 C 0.81957 0.28823 0.03372 0.0
O615 O 0.82696 0.29655 0.10034 0.0
O616 O 0.80885 0.29629 0.979 0.0
C617 C 0.82943 0.31243 0.32073 0.0
O618 O 0.82705 0.29636 0.2851 0.0
C619 C 0.8046 0.31579 0.76464 0.0
C620 C 0.78158 0.32962 0.69944 0.0
C621 C 0.7975 0.32063 0.67998 0.0
N622 N 0.79356 0.32174 0.83127 0.0
N623 N 0.7796 0.32972 0.7922 0.0
C624 C 0.82286 0.30799 0.78296 0.0
H625 H 0.82791 0.31227 0.8516 0.0
H626 H 0.83262 0.31219 0.72908 0.0
H627 H 0.82189 0.29309 0.78235 0.0
C628 C 0.84228 0.34992 0.04459 0.0
N629 N 0.82862 0.33809 0.05144 0.0
N630 N 0.81864 0.33904 0.97647 0.0
C631 C 0.82524 0.3521 0.92121 0.0
C632 C 0.84057 0.35921 0.96173 0.0
C633 C 0.85679 0.35194 0.1154 0.0
H634 H 0.86514 0.33957 0.11606 0.0
H635 H 0.86546 0.36376 0.10066 0.0
H636 H 0.85065 0.35337 0.18492 0.0
O637 O 0.79576 0.32342 0.16836 0.0
O638 O 0.77933 0.32576 0.04137 0.0
H639 H 0.82126 0.37104 0.80916 0.0
H640 H 0.82314 0.34801 0.77536 0.0
C641 C 0.81762 0.35713 0.82893 0.0
H642 H 0.80277 0.35604 0.83025 0.0
H643 H 0.76927 0.33603 0.82872 0.0
O644 O 0.83136 0.32574 0.26636 0.0
C645 C 0.78059 0.32543 0.12925 0.0
Co646 Co 0.92779 0.57196 0.39219 0.0
Co647 Co 0.92758 0.55035 0.20836 0.0
C648 C 0.96071 0.5699 0.2841 0.0
O649 O 0.9524 0.57727 0.35079 0.0
O650 O 0.95267 0.55916 0.22939 0.0
C651 C 0.93653 0.57966 0.57121 0.0
O652 O 0.9526 0.57729 0.53559 0.0
C653 C 0.93318 0.55486 0.01508 0.0
C654 C 0.91943 0.53178 0.94984 0.0
C655 C 0.92837 0.54774 0.93042 0.0
N656 N 0.92726 0.5438 0.08169 0.0
N657 N 0.91934 0.5298 0.04261 0.0
C658 C 0.94091 0.57315 0.03342 0.0
H659 H 0.93661 0.57819 0.10206 0.0
H660 H 0.93668 0.5829 0.97953 0.0
H661 H 0.95581 0.57224 0.03286 0.0
C662 C 0.89894 0.5924 0.2953 0.0
N663 N 0.91084 0.57879 0.30202 0.0
N664 N 0.90991 0.56881 0.22703 0.0
C665 C 0.8968 0.57534 0.1719 0.0
C666 C 0.88963 0.59064 0.21253 0.0
C667 C 0.89686 0.6069 0.36615 0.0
H668 H 0.89562 0.60076 0.43576 0.0
H669 H 0.90914 0.6154 0.36624 0.0
H670 H 0.88493 0.61543 0.35184 0.0
O671 O 0.92563 0.54596 0.41877 0.0
O672 O 0.92331 0.52956 0.29164 0.0
H673 H 0.89293 0.55285 0.08097 0.0
H674 H 0.87786 0.57129 0.05987 0.0
C675 C 0.89179 0.56769 0.07963 0.0
H676 H 0.90088 0.57324 0.02604 0.0
H677 H 0.91306 0.51944 0.07911 0.0
O678 O 0.92322 0.58157 0.51684 0.0
C679 C 0.92365 0.5308 0.37952 0.0
Co680 Co 0.67645 0.32042 0.35218 0.0
Co681 Co 0.69814 0.32073 0.53593 0.0
C682 C 0.67898 0.28742 0.45927 0.0
O683 O 0.67155 0.29571 0.39269 0.0
O684 O 0.68961 0.29553 0.51431 0.0
C685 C 0.66845 0.31181 0.17298 0.0
O686 O 0.67063 0.29567 0.20811 0.0
C687 C 0.69354 0.31513 0.72918 0.0
C688 C 0.71645 0.32908 0.79479 0.0
C689 C 0.70054 0.32004 0.81399 0.0
N690 N 0.70464 0.32108 0.66275 0.0
N691 N 0.71853 0.32913 0.70207 0.0
C692 C 0.67533 0.30726 0.71049 0.0
H693 H 0.67037 0.31138 0.64144 0.0
H694 H 0.66548 0.31155 0.76377 0.0
H695 H 0.67632 0.29236 0.71189 0.0
C696 C 0.65533 0.34842 0.45169 0.0
N697 N 0.66933 0.33702 0.44342 0.0
N698 N 0.67944 0.33812 0.5179 0.0
C699 C 0.67262 0.35094 0.57395 0.0
C700 C 0.657 0.35761 0.5348 0.0
C701 C 0.64057 0.35006 0.3821 0.0
H702 H 0.64642 0.35361 0.31395 0.0
H703 H 0.63381 0.33683 0.3743 0.0
H704 H 0.63057 0.3604 0.40269 0.0
O705 O 0.70241 0.323 0.32556 0.0
O706 O 0.71886 0.32534 0.4525 0.0
H707 H 0.69528 0.35541 0.6631 0.0
H708 H 0.67668 0.37042 0.6829 0.0
C709 C 0.68043 0.35641 0.6651 0.0
H710 H 0.67505 0.34755 0.72014 0.0
H711 H 0.72886 0.33547 0.66574 0.0
O712 O 0.66671 0.32509 0.22777 0.0
C713 C 0.71757 0.32511 0.36462 0.0
Co714 Co 0.92777 0.42648 0.60131 0.0
Co715 Co 0.92758 0.44808 0.78513 0.0
C716 C 0.96072 0.42857 0.70925 0.0
O717 O 0.95239 0.42118 0.64266 0.0
O718 O 0.95268 0.4393 0.76401 0.0
C719 C 0.93652 0.41882 0.42228 0.0
O720 O 0.95258 0.42122 0.45794 0.0
C721 C 0.93319 0.4436 0.97841 0.0
C722 C 0.91941 0.46667 0.04357 0.0
C723 C 0.92837 0.45073 0.06305 0.0
N724 N 0.92726 0.45465 0.91177 0.0
N725 N 0.91931 0.46864 0.9508 0.0
C726 C 0.94095 0.42532 0.96012 0.0
H727 H 0.93665 0.42027 0.8915 0.0
H728 H 0.93673 0.41558 0.01404 0.0
H729 H 0.95584 0.42626 0.96066 0.0
C730 C 0.8989 0.40604 0.69819 0.0
N731 N 0.91082 0.41963 0.6915 0.0
N732 N 0.90992 0.42961 0.76653 0.0
C733 C 0.8968 0.42308 0.82167 0.0
C734 C 0.88961 0.4078 0.78099 0.0
C735 C 0.89679 0.39156 0.62725 0.0
H736 H 0.8956 0.39772 0.55766 0.0
H737 H 0.90903 0.38301 0.62723 0.0
H738 H 0.88482 0.38308 0.64144 0.0
O739 O 0.92561 0.45247 0.57473 0.0
O740 O 0.9233 0.46888 0.70186 0.0
H741 H 0.89292 0.44558 0.91255 0.0
H742 H 0.87788 0.42712 0.93382 0.0
C743 C 0.8918 0.43073 0.91394 0.0
H744 H 0.90091 0.42521 0.96748 0.0
H745 H 0.91302 0.47898 0.91426 0.0
O746 O 0.92321 0.41687 0.47661 0.0
C747 C 0.92363 0.46763 0.61398 0.0
Co748 Co 0.82214 0.67753 0.85173 0.0
Co749 Co 0.80049 0.6773 0.03543 0.0
C750 C 0.82003 0.71045 0.95981 0.0
O751 O 0.82743 0.70214 0.89321 0.0
O752 O 0.80928 0.7024 0.01441 0.0
C753 C 0.82978 0.68627 0.67269 0.0
O754 O 0.82736 0.70234 0.70837 0.0
C755 C 0.80499 0.6829 0.22875 0.0
C756 C 0.78192 0.66914 0.29394 0.0
C757 C 0.79787 0.67809 0.3134 0.0
N758 N 0.79393 0.67697 0.16211 0.0
N759 N 0.77995 0.66904 0.20117 0.0
C760 C 0.82327 0.69065 0.21044 0.0
H761 H 0.82831 0.68635 0.14182 0.0
H762 H 0.83301 0.68643 0.26435 0.0
H763 H 0.82234 0.70555 0.21101 0.0
C764 C 0.84258 0.64869 0.94871 0.0
N765 N 0.82896 0.66057 0.94189 0.0
N766 N 0.81896 0.65963 0.01681 0.0
C767 C 0.8255 0.64653 0.07198 0.0
C768 C 0.84081 0.63938 0.03147 0.0
C769 C 0.8571 0.64664 0.87799 0.0
H770 H 0.86559 0.65892 0.87808 0.0
H771 H 0.86563 0.6347 0.89229 0.0
H772 H 0.85098 0.64541 0.80831 0.0
O773 O 0.79616 0.67538 0.8251 0.0
O774 O 0.77971 0.67302 0.95201 0.0
H775 H 0.82144 0.62758 0.18393 0.0
H776 H 0.82338 0.6506 0.21783 0.0
C777 C 0.81784 0.64151 0.1642 0.0
H778 H 0.803 0.64264 0.16279 0.0
H779 H 0.7696 0.66275 0.16464 0.0
O780 O 0.83174 0.67296 0.72702 0.0
C781 C 0.78099 0.67338 0.86415 0.0
Co782 Co 0.57138 0.57279 0.09355 0.0
Co783 Co 0.57099 0.55164 0.27863 0.0
C784 C 0.53814 0.57106 0.20033 0.0
O785 O 0.54662 0.5781 0.13328 0.0
O786 O 0.54603 0.56052 0.25655 0.0
C787 C 0.56289 0.58166 0.91475 0.0
O788 O 0.54665 0.58038 0.94976 0.0
C789 C 0.56527 0.55622 0.47166 0.0
C790 C 0.57882 0.53305 0.53707 0.0
C791 C 0.57002 0.54909 0.55638 0.0
N792 N 0.57111 0.54509 0.40518 0.0
N793 N 0.5789 0.53103 0.44434 0.0
C794 C 0.55774 0.57459 0.4531 0.0
H795 H 0.56199 0.5795 0.38413 0.0
H796 H 0.56219 0.58435 0.50649 0.0
H797 H 0.54284 0.57387 0.45439 0.0
C798 C 0.60013 0.59326 0.19159 0.0
N799 N 0.58812 0.57975 0.18481 0.0
N800 N 0.58878 0.56992 0.26038 0.0
C801 C 0.60184 0.57642 0.31592 0.0
C802 C 0.60924 0.59156 0.27499 0.0
C803 C 0.60256 0.60754 0.11994 0.0
H804 H 0.60477 0.60115 0.05156 0.0
H805 H 0.59004 0.61563 0.11513 0.0
H806 H 0.61406 0.6165 0.13666 0.0
O807 O 0.57361 0.54672 0.06679 0.0
O808 O 0.5753 0.53084 0.19601 0.0
H809 H 0.6054 0.55401 0.40765 0.0
H810 H 0.62061 0.57232 0.42868 0.0
C811 C 0.60667 0.56884 0.40858 0.0
H812 H 0.59758 0.57454 0.46173 0.0
H813 H 0.58511 0.52062 0.4079 0.0
O814 O 0.57623 0.58258 0.96958 0.0
C815 C 0.57535 0.53172 0.108 0.0
Co816 Co 0.32243 0.31991 0.35058 0.0
Co817 Co 0.30076 0.32031 0.5344 0.0
C818 C 0.31974 0.28691 0.45775 0.0
O819 O 0.32719 0.29516 0.39107 0.0
O820 O 0.30916 0.29507 0.51287 0.0
C821 C 0.33041 0.3113 0.17139 0.0
O822 O 0.32817 0.29516 0.20648 0.0
C823 C 0.30534 0.31475 0.72765 0.0
C824 C 0.28251 0.32884 0.79322 0.0
C825 C 0.29837 0.31972 0.81243 0.0
N826 N 0.29428 0.32074 0.6612 0.0
N827 N 0.28044 0.32888 0.7005 0.0
C828 C 0.32351 0.30678 0.70898 0.0
H829 H 0.32849 0.31085 0.63989 0.0
H830 H 0.33339 0.31103 0.76221 0.0
H831 H 0.32244 0.29189 0.71049 0.0
C832 C 0.34367 0.34781 0.44997 0.0
N833 N 0.32965 0.33645 0.44183 0.0
N834 N 0.31956 0.33758 0.51638 0.0
C835 C 0.32643 0.35039 0.57232 0.0
C836 C 0.34202 0.35703 0.53296 0.0
C837 C 0.35834 0.3496 0.37991 0.0
H838 H 0.36113 0.33633 0.34774 0.0
H839 H 0.37077 0.35514 0.41151 0.0
H840 H 0.3538 0.3589 0.32461 0.0
O841 O 0.29649 0.32263 0.32399 0.0
O842 O 0.28006 0.32504 0.451 0.0
H843 H 0.32247 0.37005 0.68039 0.0
H844 H 0.32383 0.3472 0.71854 0.0
C845 C 0.31859 0.35604 0.66308 0.0
H846 H 0.30373 0.35517 0.6608 0.0
H847 H 0.27013 0.33527 0.66415 0.0
O848 O 0.3322 0.32456 0.22623 0.0
C849 C 0.28134 0.32482 0.36311 0.0
Co850 Co 0.42766 0.57324 0.09069 0.0
Co851 Co 0.42766 0.55208 0.27563 0.0
C852 C 0.46075 0.57126 0.19841 0.0
O853 O 0.45241 0.5784 0.13117 0.0
O854 O 0.45272 0.56075 0.25421 0.0
C855 C 0.43634 0.5817 0.912 0.0
O856 O 0.45251 0.57988 0.94722 0.0
C857 C 0.43335 0.55657 0.46869 0.0
C858 C 0.41953 0.53354 0.53394 0.0
C859 C 0.42853 0.54947 0.55334 0.0
N860 N 0.42739 0.54552 0.40213 0.0
N861 N 0.41943 0.53155 0.44119 0.0
C862 C 0.4411 0.57485 0.4503 0.0
H863 H 0.43685 0.57987 0.38154 0.0
H864 H 0.43684 0.58463 0.50401 0.0
H865 H 0.456 0.57394 0.45116 0.0
C866 C 0.39887 0.59387 0.18776 0.0
N867 N 0.41085 0.58032 0.18142 0.0
N868 N 0.41006 0.5705 0.25701 0.0
C869 C 0.39697 0.57707 0.31214 0.0
C870 C 0.38966 0.59221 0.27089 0.0
C871 C 0.39655 0.60812 0.11585 0.0
H872 H 0.39428 0.60169 0.04761 0.0
H873 H 0.40913 0.6161 0.1108 0.0
H874 H 0.38512 0.61717 0.13244 0.0
O875 O 0.42526 0.54718 0.06378 0.0
O876 O 0.4232 0.53133 0.19294 0.0
H877 H 0.3931 0.55466 0.40359 0.0
H878 H 0.37814 0.57317 0.42488 0.0
C879 C 0.39202 0.56951 0.40471 0.0
H880 H 0.40119 0.57506 0.45792 0.0
H881 H 0.4131 0.52122 0.40468 0.0
O882 O 0.42301 0.58306 0.96666 0.0
C883 C 0.4233 0.5322 0.10494 0.0
Co884 Co 0.17642 0.67755 0.849 0.0
Co885 Co 0.19813 0.67734 0.03255 0.0
C886 C 0.17851 0.71047 0.95712 0.0
O887 O 0.1711 0.70216 0.89054 0.0
O888 O 0.18929 0.70242 0.01158 0.0
C889 C 0.16884 0.68629 0.66991 0.0
O890 O 0.17128 0.70235 0.70562 0.0
C891 C 0.19363 0.68293 0.2259 0.0
C892 C 0.21673 0.66924 0.29111 0.0
C893 C 0.20076 0.67814 0.31057 0.0
N894 N 0.2047 0.67704 0.15926 0.0
N895 N 0.21871 0.66914 0.19833 0.0
C896 C 0.17533 0.69063 0.20761 0.0
H897 H 0.17029 0.68632 0.13897 0.0
H898 H 0.16559 0.68639 0.26151 0.0
H899 H 0.17621 0.70554 0.20819 0.0
C900 C 0.15604 0.64868 0.94626 0.0
N901 N 0.16965 0.66057 0.93922 0.0
N902 N 0.17969 0.65964 0.01399 0.0
C903 C 0.1732 0.64653 0.06924 0.0
C904 C 0.15787 0.63937 0.02897 0.0
C905 C 0.14147 0.64664 0.87586 0.0
H906 H 0.1475 0.64565 0.8059 0.0
H907 H 0.13284 0.65883 0.87705 0.0
H908 H 0.13308 0.63458 0.88972 0.0
O909 O 0.20239 0.67545 0.82228 0.0
O910 O 0.21891 0.67311 0.94898 0.0
H911 H 0.17738 0.62756 0.181 0.0
H912 H 0.17537 0.65056 0.2151 0.0
C913 C 0.18092 0.64151 0.16132 0.0
H914 H 0.19575 0.64269 0.15975 0.0
H915 H 0.22908 0.66289 0.16182 0.0
O916 O 0.16685 0.67298 0.72423 0.0
C917 C 0.21759 0.67348 0.86113 0.0
Co918 Co 0.07104 0.42653 0.60052 0.0
Co919 Co 0.07127 0.44813 0.78432 0.0
C920 C 0.03812 0.42861 0.70871 0.0
O921 O 0.04643 0.42122 0.64203 0.0
O922 O 0.04617 0.43935 0.76338 0.0
C923 C 0.06228 0.41891 0.42152 0.0
O924 O 0.04622 0.42137 0.45721 0.0
C925 C 0.0657 0.44365 0.97761 0.0
C926 C 0.07948 0.46672 0.04277 0.0
C927 C 0.07051 0.45078 0.06225 0.0
N928 N 0.07162 0.4547 0.91097 0.0
N929 N 0.07957 0.46868 0.95 0.0
C930 C 0.05793 0.42537 0.95934 0.0
H931 H 0.06223 0.42031 0.89074 0.0
H932 H 0.06213 0.41563 0.0133 0.0
H933 H 0.04303 0.42632 0.95982 0.0
C934 C 0.09993 0.4061 0.69717 0.0
N935 N 0.08801 0.41969 0.69059 0.0
N936 N 0.08893 0.42967 0.7656 0.0
C937 C 0.10207 0.42314 0.82063 0.0
C938 C 0.10926 0.40787 0.77989 0.0
C939 C 0.10203 0.39164 0.62617 0.0
H940 H 0.10334 0.39781 0.55667 0.0
H941 H 0.08974 0.38316 0.62572 0.0
H942 H 0.11394 0.38308 0.64057 0.0
O943 O 0.07319 0.45252 0.57391 0.0
O944 O 0.07554 0.46893 0.70102 0.0
H945 H 0.10598 0.44564 0.91149 0.0
H946 H 0.12101 0.42717 0.93268 0.0
C947 C 0.10709 0.43079 0.91288 0.0
H948 H 0.09798 0.42528 0.96647 0.0
H949 H 0.08586 0.47903 0.91345 0.0
O950 O 0.07558 0.41692 0.47584 0.0
C951 C 0.07519 0.46769 0.61314 0.0
Co952 Co 0.32165 0.67779 0.63707 0.0
Co953 Co 0.29992 0.67779 0.45346 0.0
C954 C 0.31952 0.71083 0.53004 0.0
O955 O 0.32692 0.70244 0.59635 0.0
O956 O 0.30875 0.70285 0.47524 0.0
C957 C 0.32951 0.68645 0.81634 0.0
O958 O 0.32743 0.70257 0.78085 0.0
C959 C 0.30445 0.68351 0.26017 0.0
C960 C 0.28134 0.66986 0.19476 0.0
C961 C 0.29734 0.67872 0.17542 0.0
N962 N 0.29334 0.67763 0.32671 0.0
N963 N 0.27933 0.66977 0.28751 0.0
C964 C 0.32276 0.69115 0.27866 0.0
H965 H 0.32773 0.68689 0.34747 0.0
H966 H 0.33252 0.68682 0.22503 0.0
H967 H 0.32194 0.70606 0.27774 0.0
C968 C 0.34217 0.64921 0.53814 0.0
N969 N 0.32846 0.66097 0.54607 0.0
N970 N 0.31838 0.66009 0.47142 0.0
C971 C 0.32493 0.64711 0.41545 0.0
C972 C 0.34037 0.64004 0.45499 0.0
C973 C 0.35688 0.64723 0.60787 0.0
H974 H 0.351 0.64655 0.67828 0.0
H975 H 0.36566 0.65929 0.60499 0.0
H976 H 0.36508 0.63502 0.59445 0.0
O977 O 0.29568 0.6756 0.66368 0.0
O978 O 0.27916 0.67344 0.53692 0.0
H979 H 0.30235 0.6434 0.32498 0.0
H980 H 0.32064 0.62819 0.3036 0.0
C981 C 0.31718 0.64215 0.32334 0.0
H982 H 0.32277 0.65118 0.26959 0.0
H983 H 0.26894 0.66352 0.32392 0.0
O984 O 0.33122 0.67312 0.76185 0.0
C985 C 0.28048 0.67367 0.62479 0.0
Co986 Co 0.07106 0.57201 0.39129 0.0
Co987 Co 0.0712 0.55039 0.20746 0.0
C988 C 0.0381 0.56994 0.28352 0.0
O989 O 0.04644 0.57731 0.35011 0.0
O990 O 0.04612 0.5592 0.22873 0.0
C991 C 0.06236 0.5798 0.57037 0.0
O992 O 0.04626 0.57755 0.53482 0.0
C993 C 0.06558 0.55492 0.01421 0.0
C994 C 0.07928 0.53182 0.94888 0.0
C995 C 0.07037 0.5478 0.92951 0.0
N996 N 0.07148 0.54384 0.08077 0.0
N997 N 0.07937 0.52983 0.04164 0.0
C998 C 0.05788 0.57322 0.03263 0.0
H999 H 0.06217 0.57824 0.10134 0.0
H1000 H 0.06215 0.58298 0.97884 0.0
H1001 H 0.04298 0.57234 0.03193 0.0
C1002 C 0.09988 0.59245 0.29402 0.0
N1003 N 0.08799 0.57884 0.30093 0.0
N1004 N 0.08888 0.56884 0.22598 0.0
C1005 C 0.10198 0.57536 0.17071 0.0
C1006 C 0.10916 0.59067 0.21117 0.0
C1007 C 0.10197 0.60697 0.36475 0.0
H1008 H 0.10321 0.60085 0.43441 0.0
H1009 H 0.0897 0.61547 0.36479 0.0
H1010 H 0.11391 0.61549 0.35033 0.0
O1011 O 0.07322 0.54601 0.41785 0.0
O1012 O 0.07548 0.52959 0.29072 0.0
H1013 H 0.1058 0.55285 0.07986 0.0
H1014 H 0.12091 0.57124 0.05871 0.0
C1015 C 0.10697 0.56769 0.07847 0.0
H1016 H 0.0979 0.57325 0.02486 0.0
H1017 H 0.08563 0.51946 0.0781 0.0
O1018 O 0.07567 0.58162 0.51594 0.0
C1019 C 0.07518 0.53084 0.37861 0.0
Co1020 Co 0.17714 0.32128 0.14048 0.0
Co1021 Co 0.19875 0.32146 0.9567 0.0
C1022 C 0.17923 0.28832 0.03248 0.0
O1023 O 0.17185 0.29666 0.09909 0.0
O1024 O 0.18997 0.29635 0.97775 0.0
C1025 C 0.16944 0.31253 0.31949 0.0
O1026 O 0.1718 0.29645 0.28383 0.0
C1027 C 0.19426 0.31584 0.76339 0.0
C1028 C 0.21731 0.32963 0.69821 0.0
C1029 C 0.20138 0.32066 0.67874 0.0
N1030 N 0.20531 0.32178 0.83002 0.0
N1031 N 0.21929 0.32973 0.79097 0.0
C1032 C 0.17599 0.30807 0.78169 0.0
H1033 H 0.17094 0.31237 0.85031 0.0
H1034 H 0.16624 0.31228 0.72778 0.0
H1035 H 0.17694 0.29317 0.78113 0.0
C1036 C 0.15663 0.35005 0.04335 0.0
N1037 N 0.17029 0.3382 0.05023 0.0
N1038 N 0.18026 0.33913 0.97524 0.0
C1039 C 0.17368 0.35219 0.91994 0.0
C1040 C 0.15835 0.35932 0.96046 0.0
C1041 C 0.14212 0.35207 0.11408 0.0
H1042 H 0.14822 0.35328 0.18378 0.0
H1043 H 0.13362 0.33979 0.11385 0.0
H1044 H 0.13359 0.36402 0.09987 0.0
O1045 O 0.20312 0.32345 0.1671 0.0
O1046 O 0.21955 0.32575 0.04008 0.0
H1047 H 0.19613 0.35607 0.82886 0.0
H1048 H 0.17767 0.37111 0.80781 0.0
C1049 C 0.18129 0.35719 0.82761 0.0
H1050 H 0.17575 0.34808 0.7741 0.0
H1051 H 0.22963 0.33603 0.8275 0.0
O1052 O 0.16753 0.32584 0.26515 0.0
C1053 C 0.21829 0.32543 0.12796 0.0
Co1054 Co 0.42609 0.4266 0.90185 0.0
Co1055 Co 0.42834 0.44668 0.71172 0.0
C1056 C 0.46041 0.42756 0.79948 0.0
O1057 O 0.45139 0.42184 0.86828 0.0
O1058 O 0.45313 0.43723 0.73681 0.0
C1059 C 0.43221 0.4151 0.08282 0.0
O1060 O 0.44888 0.41326 0.05443 0.0
C1061 C 0.43645 0.44872 0.51538 0.0
C1062 C 0.41175 0.46127 0.46131 0.0
C1063 C 0.42676 0.45145 0.43424 0.0
N1064 N 0.42684 0.45513 0.58679 0.0
N1065 N 0.41253 0.46345 0.55363 0.0
C1066 C 0.45484 0.44094 0.52612 0.0
H1067 H 0.4623 0.44894 0.57821 0.0
H1068 H 0.45381 0.42684 0.55088 0.0
H1069 H 0.4625 0.44149 0.46035 0.0
C1070 C 0.39824 0.4057 0.80317 0.0
N1071 N 0.41026 0.41925 0.80766 0.0
N1072 N 0.41107 0.4275 0.72717 0.0
C1073 C 0.39956 0.41919 0.66866 0.0
C1074 C 0.39096 0.40535 0.715 0.0
C1075 C 0.39412 0.39332 0.8818 0.0
H1076 H 0.38979 0.40136 0.94248 0.0
H1077 H 0.40654 0.38599 0.9017 0.0
H1078 H 0.38341 0.38354 0.8636 0.0
O1079 O 0.42364 0.45235 0.92778 0.0
O1080 O 0.4237 0.46751 0.79645 0.0
H1081 H 0.39115 0.43564 0.55598 0.0
H1082 H 0.39065 0.41204 0.53043 0.0
C1083 C 0.39821 0.42272 0.56717 0.0
H1084 H 0.41185 0.42318 0.5371 0.0
H1085 H 0.40236 0.46894 0.59459 0.0
O1086 O 0.41977 0.41665 0.02325 0.0
C1087 C 0.42269 0.46713 0.88434 0.0
C1088 C 0.16684 0.25907 0.09063 0.0
C1089 C 0.1767 0.26862 0.02377 0.0
H1090 H 0.15963 0.23334 0.14545 0.0
C1091 C 0.18547 0.25897 0.95332 0.0
H1092 H 0.15981 0.26607 0.14551 0.0
C1093 C 0.18536 0.24017 0.95328 0.0
C1094 C 0.17649 0.23061 0.02369 0.0
H1095 H 0.19303 0.2659 0.90014 0.0
H1096 H 0.19285 0.23316 0.90008 0.0
C1097 C 0.16674 0.24027 0.09059 0.0
C1098 C 0.00884 0.93463 0.20535 0.0
C1099 C 0.01846 0.92594 0.27614 0.0
H1100 H 0.98307 0.94203 0.1519 0.0
C1101 C 0.00888 0.91619 0.34335 0.0
H1102 H 0.01579 0.9421 0.15189 0.0
C1103 C 0.99008 0.91616 0.34335 0.0
C1104 C 0.98046 0.92586 0.27614 0.0
H1105 H 0.01585 0.90923 0.39849 0.0
H1106 H 0.98313 0.90916 0.3985 0.0
C1107 C 0.99005 0.93459 0.20535 0.0
C1108 C 0.33184 0.75885 0.5897 0.0
C1109 C 0.32209 0.76854 0.52288 0.0
H1110 H 0.3388 0.73303 0.64403 0.0
C1111 C 0.31333 0.75902 0.45195 0.0
H1112 H 0.33885 0.76575 0.64494 0.0
C1113 C 0.3133 0.74022 0.45143 0.0
C1114 C 0.32203 0.73053 0.52184 0.0
H1115 H 0.30586 0.76605 0.39878 0.0
H1116 H 0.30581 0.73331 0.39789 0.0
C1117 C 0.33181 0.74006 0.58918 0.0
C1118 C 0.48989 0.06378 0.70479 0.0
C1119 C 0.48028 0.07243 0.77577 0.0
H1120 H 0.51565 0.05638 0.65117 0.0
C1121 C 0.48987 0.08212 0.84317 0.0
H1122 H 0.48293 0.05635 0.65117 0.0
C1123 C 0.50866 0.08214 0.84317 0.0
C1124 C 0.51827 0.07246 0.77577 0.0
H1125 H 0.4829 0.08905 0.89847 0.0
H1126 H 0.51562 0.08908 0.89847 0.0
C1127 C 0.50868 0.0638 0.70478 0.0
C1128 C 0.16629 0.7398 0.89904 0.0
C1129 C 0.17602 0.73017 0.96608 0.0
H1130 H 0.1593 0.76559 0.84427 0.0
C1131 C 0.18475 0.73974 0.03696 0.0
H1132 H 0.1593 0.73286 0.84383 0.0
C1133 C 0.18475 0.75854 0.03721 0.0
C1134 C 0.17602 0.76817 0.96659 0.0
H1135 H 0.19221 0.73275 0.0903 0.0
H1136 H 0.19221 0.76548 0.09073 0.0
C1137 C 0.16629 0.7586 0.89929 0.0
C1138 C 0.50894 0.9162 0.15109 0.0
C1139 C 0.51853 0.92595 0.21829 0.0
H1140 H 0.48318 0.90919 0.09601 0.0
C1141 C 0.50892 0.93464 0.28915 0.0
H1142 H 0.5159 0.90924 0.0959 0.0
C1143 C 0.49013 0.93461 0.28922 0.0
C1144 C 0.48054 0.92589 0.21843 0.0
H1145 H 0.51589 0.9421 0.34261 0.0
H1146 H 0.48316 0.94206 0.34272 0.0
C1147 C 0.49014 0.91618 0.15116 0.0
C1148 C 0.33183 0.23875 0.39974 0.0
C1149 C 0.32202 0.22919 0.46677 0.0
H1150 H 0.33892 0.26448 0.34461 0.0
C1151 C 0.31322 0.23884 0.53714 0.0
H1152 H 0.33887 0.23176 0.34491 0.0
C1153 C 0.31324 0.25764 0.53695 0.0
C1154 C 0.32207 0.26719 0.46639 0.0
H1155 H 0.30569 0.2319 0.59043 0.0
H1156 H 0.30574 0.26464 0.59013 0.0
C1157 C 0.33185 0.25755 0.39955 0.0
C1158 C 0.98969 0.0633 0.78958 0.0
C1159 C 0.98007 0.07207 0.71903 0.0
H1160 H 0.01546 0.05584 0.84282 0.0
C1161 C 0.98965 0.08187 0.65207 0.0
H1162 H 0.98273 0.05578 0.84284 0.0
C1163 C 0.00845 0.08191 0.65206 0.0
C1164 C 0.01806 0.07214 0.71901 0.0
H1165 H 0.98268 0.0889 0.59712 0.0
H1166 H 0.01539 0.08896 0.5971 0.0
C1167 C 0.00848 0.06333 0.78957 0.0
C1168 C 0.81372 0.73975 0.03924 0.0
C1169 C 0.82249 0.73016 0.96858 0.0
H1170 H 0.8062 0.76551 0.09259 0.0
C1171 C 0.83223 0.73977 0.9015 0.0
H1172 H 0.80625 0.73277 0.09259 0.0
C1173 C 0.8322 0.75857 0.9015 0.0
C1174 C 0.82243 0.76816 0.96857 0.0
H1175 H 0.83925 0.73281 0.84646 0.0
H1176 H 0.8392 0.76554 0.84646 0.0
C1177 C 0.81369 0.75855 0.03924 0.0
C1178 C 0.6668 0.25811 0.40082 0.0
C1179 C 0.6766 0.26771 0.46776 0.0
H1180 H 0.65972 0.23236 0.34587 0.0
C1181 C 0.68541 0.2581 0.53819 0.0
H1182 H 0.65973 0.26507 0.34597 0.0
C1183 C 0.6854 0.2393 0.53815 0.0
C1184 C 0.67658 0.22971 0.46767 0.0
H1185 H 0.69293 0.26507 0.59143 0.0
H1186 H 0.69292 0.23233 0.59135 0.0
C1187 C 0.66678 0.23931 0.40078 0.0
C1188 C 0.81336 0.24011 0.95422 0.0
C1189 C 0.82218 0.23051 0.02466 0.0
H1190 H 0.80576 0.26586 0.90115 0.0
C1191 C 0.83193 0.24013 0.09171 0.0
H1192 H 0.80587 0.23312 0.9009 0.0
C1193 C 0.83187 0.25893 0.09186 0.0
C1194 C 0.82206 0.26852 0.02495 0.0
H1195 H 0.839 0.23318 0.14659 0.0
H1196 H 0.83889 0.26591 0.14685 0.0
C1197 C 0.81329 0.25891 0.95436 0.0
C1198 C 0.68501 0.73991 0.45433 0.0
C1199 C 0.67634 0.73028 0.52514 0.0
H1200 H 0.6924 0.7657 0.40094 0.0
C1201 C 0.66662 0.73985 0.59248 0.0
H1202 H 0.69247 0.73296 0.40076 0.0
C1203 C 0.66658 0.75865 0.59258 0.0
C1204 C 0.67626 0.76828 0.52534 0.0
H1205 H 0.65967 0.73286 0.64764 0.0
H1206 H 0.6596 0.76559 0.64782 0.0
C1207 C 0.68497 0.75871 0.45443 0.0
C1208 C 0.48961 0.42013 0.87762 0.0
C1209 C 0.48008 0.42445 0.7966 0.0
H1210 H 0.51538 0.41759 0.94245 0.0
C1211 C 0.48975 0.42736 0.71464 0.0
H1212 H 0.48258 0.4177 0.942 0.0
C1213 C 0.50851 0.42728 0.71489 0.0
C1214 C 0.51808 0.42431 0.79712 0.0
H1215 H 0.48289 0.43015 0.65051 0.0
H1216 H 0.51546 0.43 0.65094 0.0
C1217 C 0.50844 0.42006 0.87787 0.0
C1218 C 0.00878 0.56371 0.20422 0.0
C1219 C 0.0184 0.57242 0.27497 0.0
H1220 H 0.98301 0.55624 0.15093 0.0
C1221 C 0.00881 0.58214 0.3423 0.0
H1222 H 0.01574 0.55626 0.15067 0.0
C1223 C 0.99002 0.58213 0.34245 0.0
C1224 C 0.9804 0.5724 0.27527 0.0
H1225 H 0.01579 0.58912 0.39742 0.0
H1226 H 0.98307 0.5891 0.39767 0.0
C1227 C 0.98999 0.5637 0.20437 0.0
C1228 C 0.00881 0.41636 0.65049 0.0
C1229 C 0.01842 0.42612 0.71755 0.0
H1230 H 0.98304 0.40934 0.5956 0.0
C1231 C 0.00883 0.43486 0.78832 0.0
H1232 H 0.01576 0.40937 0.59536 0.0
C1233 C 0.99004 0.43485 0.78846 0.0
C1234 C 0.98042 0.4261 0.71783 0.0
H1235 H 0.01581 0.44234 0.84166 0.0
H1236 H 0.98308 0.44232 0.8419 0.0
C1237 C 0.99001 0.41635 0.65063 0.0
C1238 C 0.49014 0.58303 0.13842 0.0
C1239 C 0.48045 0.57375 0.20696 0.0
H1240 H 0.51597 0.5896 0.08286 0.0
C1241 C 0.48996 0.56546 0.27938 0.0
H1242 H 0.48324 0.58967 0.082 0.0
C1243 C 0.50875 0.56542 0.27988 0.0
C1244 C 0.51844 0.57367 0.20797 0.0
H1245 H 0.48293 0.55836 0.3339 0.0
H1246 H 0.51564 0.55829 0.33475 0.0
C1247 C 0.50894 0.58299 0.13892 0.0
C1248 C 0.18221 0.16718 0.44195 0.0
C1249 C 0.17458 0.18373 0.41566 0.0
H1250 H 0.19693 0.15267 0.54553 0.0
C1251 C 0.17531 0.1983 0.47737 0.0
H1252 H 0.18217 0.1558 0.39515 0.0
C1253 C 0.18385 0.19652 0.5627 0.0
C1254 C 0.19188 0.18016 0.58781 0.0
H1255 H 0.16976 0.21127 0.45847 0.0
H1256 H 0.18454 0.20808 0.60816 0.0
C1257 C 0.19094 0.16547 0.5271 0.0
C1258 C 0.08178 0.93238 0.69437 0.0
C1259 C 0.06536 0.92448 0.66811 0.0
H1260 H 0.09605 0.94735 0.79791 0.0
C1261 C 0.05079 0.92497 0.72987 0.0
H1262 H 0.09315 0.93252 0.64755 0.0
C1263 C 0.05244 0.93355 0.81519 0.0
C1264 C 0.06867 0.94185 0.84026 0.0
H1265 H 0.03791 0.91921 0.711 0.0
H1266 H 0.04088 0.93406 0.86067 0.0
C1267 C 0.08336 0.94114 0.77951 0.0
C1268 C 0.31586 0.83184 0.94233 0.0
C1269 C 0.32356 0.81532 0.91604 0.0
H1270 H 0.30109 0.8463 0.04595 0.0
C1271 C 0.32291 0.80076 0.97778 0.0
H1272 H 0.31584 0.84321 0.8955 0.0
C1273 C 0.31438 0.80252 0.06316 0.0
C1274 C 0.30627 0.81885 0.08826 0.0
H1275 H 0.32852 0.78781 0.95887 0.0
H1276 H 0.31376 0.79096 0.10867 0.0
C1277 C 0.30714 0.83353 0.02751 0.0
C1278 C 0.44793 0.07338 0.22965 0.0
C1279 C 0.43337 0.07381 0.16785 0.0
H1280 H 0.45786 0.06433 0.36046 0.0
C1281 C 0.41697 0.06584 0.19405 0.0
H1282 H 0.46078 0.07919 0.21082 0.0
C1283 C 0.41542 0.05707 0.27917 0.0
C1284 C 0.4301 0.05642 0.33997 0.0
H1285 H 0.40561 0.06564 0.1472 0.0
H1286 H 0.40275 0.05082 0.29753 0.0
C1287 C 0.4463 0.0648 0.31496 0.0
C1288 C 0.17487 0.80057 0.51332 0.0
C1289 C 0.1744 0.81514 0.5751 0.0
H1290 H 0.18396 0.79064 0.38254 0.0
C1291 C 0.18233 0.83155 0.54889 0.0
H1292 H 0.16909 0.7877 0.53214 0.0
C1293 C 0.1911 0.83312 0.46378 0.0
C1294 C 0.19179 0.81843 0.403 0.0
H1295 H 0.18249 0.84293 0.59573 0.0
H1296 H 0.19732 0.84581 0.44543 0.0
C1297 C 0.18346 0.80221 0.42802 0.0
C1298 C 0.41721 0.93225 0.80007 0.0
C1299 C 0.43366 0.9244 0.82632 0.0
H1300 H 0.40289 0.94717 0.69655 0.0
C1301 C 0.44823 0.92493 0.76456 0.0
H1302 H 0.40584 0.93236 0.8469 0.0
C1303 C 0.44654 0.9335 0.67924 0.0
C1304 C 0.43029 0.94175 0.65418 0.0
H1305 H 0.46112 0.91921 0.78342 0.0
H1306 H 0.4581 0.93404 0.63375 0.0
C1307 C 0.4156 0.941 0.71494 0.0
C1308 C 0.30693 0.16429 0.96359 0.0
C1309 C 0.30623 0.17898 0.90284 0.0
H1310 H 0.31554 0.15449 0.09552 0.0
C1311 C 0.31456 0.1952 0.9279 0.0
H1312 H 0.30071 0.1516 0.9452 0.0
C1313 C 0.32314 0.19685 0.01321 0.0
C1314 C 0.32362 0.18228 0.07497 0.0
H1315 H 0.31406 0.20677 0.88244 0.0
H1316 H 0.32891 0.20973 0.03207 0.0
C1317 C 0.3157 0.16586 0.04871 0.0
C1318 C 0.05035 0.07317 0.26506 0.0
C1319 C 0.06491 0.0738 0.32678 0.0
H1320 H 0.04052 0.06399 0.13425 0.0
C1321 C 0.08141 0.06606 0.30049 0.0
H1322 H 0.03741 0.0788 0.28396 0.0
C1323 C 0.08307 0.05732 0.21533 0.0
C1324 C 0.06839 0.05647 0.15461 0.0
H1325 H 0.09278 0.06603 0.34729 0.0
H1326 H 0.09583 0.05124 0.1969 0.0
C1327 C 0.05208 0.06461 0.17972 0.0
C1328 C 0.82336 0.80048 0.51476 0.0
C1329 C 0.82392 0.81505 0.57651 0.0
H1330 H 0.81424 0.7906 0.38396 0.0
C1331 C 0.81609 0.83151 0.55026 0.0
H1332 H 0.82907 0.78757 0.53363 0.0
C1333 C 0.80733 0.83312 0.46512 0.0
C1334 C 0.80656 0.81843 0.40437 0.0
H1335 H 0.81599 0.84289 0.59708 0.0
H1336 H 0.80119 0.84585 0.44672 0.0
C1337 C 0.8148 0.80216 0.42944 0.0
C1338 C 0.91512 0.05698 0.21525 0.0
C1339 C 0.92981 0.05614 0.15458 0.0
H1340 H 0.90538 0.06567 0.34718 0.0
C1341 C 0.94611 0.0643 0.17974 0.0
H1342 H 0.90237 0.05089 0.19676 0.0
C1343 C 0.94783 0.07285 0.2651 0.0
C1344 C 0.93325 0.07347 0.32677 0.0
H1345 H 0.95767 0.06369 0.1343 0.0
H1346 H 0.96075 0.07849 0.28405 0.0
C1347 C 0.91676 0.06572 0.30042 0.0
C1348 C 0.67544 0.1974 0.01376 0.0
C1349 C 0.67489 0.18283 0.0755 0.0
H1350 H 0.68456 0.20727 0.88296 0.0
C1351 C 0.68273 0.16637 0.04923 0.0
H1352 H 0.66973 0.2103 0.03263 0.0
C1353 C 0.69148 0.16475 0.96409 0.0
C1354 C 0.69225 0.17944 0.90335 0.0
H1355 H 0.68283 0.155 0.09604 0.0
H1356 H 0.69763 0.15203 0.94569 0.0
C1357 C 0.68401 0.19571 0.92843 0.0
C1358 C 0.55084 0.92506 0.76427 0.0
C1359 C 0.5654 0.92455 0.82602 0.0
H1360 H 0.54095 0.93415 0.63347 0.0
C1361 C 0.58184 0.93242 0.79977 0.0
H1362 H 0.53795 0.91932 0.78314 0.0
C1363 C 0.58343 0.94118 0.71464 0.0
C1364 C 0.56875 0.94191 0.65389 0.0
H1365 H 0.59321 0.93255 0.84659 0.0
H1366 H 0.59614 0.94736 0.69624 0.0
C1367 C 0.55251 0.93363 0.67895 0.0
C1368 C 0.8163 0.16707 0.44257 0.0
C1369 C 0.82406 0.18357 0.41635 0.0
H1370 H 0.80146 0.15266 0.54608 0.0
C1371 C 0.82344 0.19813 0.47813 0.0
H1372 H 0.81626 0.1557 0.39573 0.0
C1373 C 0.81488 0.1964 0.56344 0.0
C1374 C 0.80672 0.1801 0.58848 0.0
H1375 H 0.82909 0.21106 0.45929 0.0
H1376 H 0.81427 0.20796 0.60893 0.0
C1377 C 0.80755 0.16541 0.5277 0.0
C1378 C 0.55227 0.06495 0.31482 0.0
C1379 C 0.56849 0.05662 0.33984 0.0
H1380 H 0.53775 0.0793 0.2107 0.0
C1381 C 0.58317 0.05731 0.27907 0.0
H1382 H 0.54071 0.06445 0.36031 0.0
C1383 C 0.5816 0.06608 0.19396 0.0
C1384 C 0.56518 0.074 0.16775 0.0
H1385 H 0.59586 0.0511 0.29743 0.0
H1386 H 0.59296 0.06593 0.14712 0.0
C1387 C 0.55062 0.07353 0.22953 0.0
C1388 C 0.68256 0.83162 0.9438 0.0
C1389 C 0.67469 0.81518 0.91755 0.0
H1390 H 0.6975 0.84594 0.04732 0.0
C1391 C 0.67521 0.80061 0.97933 0.0
H1392 H 0.68269 0.84299 0.89696 0.0
C1393 C 0.68377 0.80229 0.06465 0.0
C1394 C 0.69205 0.81854 0.0897 0.0
H1395 H 0.66947 0.78772 0.96047 0.0
H1396 H 0.6843 0.79073 0.11014 0.0
C1397 C 0.69132 0.83323 0.02893 0.0
C1398 C 0.9155 0.9408 0.77954 0.0
C1399 C 0.93019 0.94156 0.84029 0.0
H1400 H 0.90574 0.93215 0.64758 0.0
C1401 C 0.94644 0.93331 0.81522 0.0
H1402 H 0.90278 0.94696 0.79794 0.0
C1403 C 0.94813 0.92474 0.7299 0.0
C1404 C 0.93357 0.9242 0.66814 0.0
H1405 H 0.958 0.93386 0.8607 0.0
H1406 H 0.96103 0.91903 0.71103 0.0
C1407 C 0.91712 0.93204 0.6944 0.0
C1408 C 0.69158 0.6654 0.0279 0.0
C1409 C 0.6922 0.6801 0.08869 0.0
H1410 H 0.68301 0.65555 0.89596 0.0
C1411 C 0.68377 0.69627 0.06368 0.0
H1412 H 0.69787 0.65274 0.04623 0.0
C1413 C 0.67517 0.69786 0.9784 0.0
C1414 C 0.67477 0.68329 0.9166 0.0
H1415 H 0.68421 0.70784 0.10915 0.0
H1416 H 0.66931 0.7107 0.9596 0.0
C1417 C 0.68279 0.66692 0.9428 0.0
C1418 C 0.55934 0.41608 0.25295 0.0
C1419 C 0.56911 0.42232 0.17688 0.0
H1420 H 0.55359 0.41901 0.39545 0.0
C1421 C 0.58009 0.43758 0.18693 0.0
H1422 H 0.55097 0.4042 0.24703 0.0
C1423 C 0.58034 0.44715 0.26999 0.0
C1424 C 0.57019 0.44126 0.34616 0.0
H1425 H 0.58789 0.4426 0.12922 0.0
H1426 H 0.58852 0.45919 0.27434 0.0
C1427 C 0.56035 0.4251 0.33751 0.0
C1428 C 0.81453 0.30256 0.5641 0.0
C1429 C 0.80632 0.31884 0.58921 0.0
H1430 H 0.82879 0.28795 0.45988 0.0
C1431 C 0.80711 0.33353 0.52849 0.0
H1432 H 0.81396 0.29099 0.60954 0.0
C1433 C 0.81586 0.3319 0.44336 0.0
C1434 C 0.82367 0.31544 0.41706 0.0
H1435 H 0.80098 0.34626 0.54692 0.0
H1436 H 0.81578 0.34328 0.39657 0.0
C1437 C 0.8231 0.30086 0.47878 0.0
C1438 C 0.91546 0.5573 0.77891 0.0
C1439 C 0.93015 0.55655 0.83966 0.0
H1440 H 0.90571 0.56595 0.64696 0.0
C1441 C 0.9464 0.5648 0.81461 0.0
H1442 H 0.90275 0.55115 0.7973 0.0
C1443 C 0.94809 0.57337 0.72929 0.0
C1444 C 0.93353 0.5739 0.66753 0.0
H1445 H 0.95796 0.56425 0.86009 0.0
H1446 H 0.96099 0.57908 0.71043 0.0
C1447 C 0.91708 0.56606 0.69378 0.0
C1448 C 0.68338 0.302 0.9295 0.0
C1449 C 0.69166 0.31826 0.90463 0.0
H1450 H 0.66903 0.28741 0.03339 0.0
C1451 C 0.69091 0.33293 0.96556 0.0
H1452 H 0.68394 0.29044 0.88399 0.0
C1453 C 0.68213 0.3313 0.05064 0.0
C1454 C 0.67424 0.31485 0.07668 0.0
H1455 H 0.69709 0.34564 0.94736 0.0
H1456 H 0.68224 0.34266 0.09758 0.0
C1457 C 0.67477 0.3003 0.01473 0.0
C1458 C 0.94641 0.4337 0.17893 0.0
C1459 C 0.93015 0.44193 0.15382 0.0
H1460 H 0.961 0.41944 0.28315 0.0
C1461 C 0.91545 0.44115 0.21453 0.0
H1462 H 0.95798 0.43427 0.13348 0.0
C1463 C 0.91707 0.43239 0.29966 0.0
C1464 C 0.93353 0.42457 0.32595 0.0
H1465 H 0.90273 0.44728 0.19609 0.0
H1466 H 0.90569 0.43248 0.34645 0.0
C1467 C 0.9481 0.42514 0.26424 0.0
C1468 C 0.81491 0.69614 0.42927 0.0
C1469 C 0.80668 0.67988 0.40418 0.0
H1470 H 0.82917 0.71074 0.5335 0.0
C1471 C 0.80744 0.66519 0.46493 0.0
H1472 H 0.81436 0.70771 0.3838 0.0
C1473 C 0.81619 0.66681 0.55008 0.0
C1474 C 0.82402 0.68327 0.57635 0.0
H1475 H 0.8013 0.65246 0.44651 0.0
H1476 H 0.81609 0.65543 0.59689 0.0
C1477 C 0.82347 0.69784 0.51461 0.0
C1478 C 0.55246 0.56669 0.67204 0.0
C1479 C 0.56849 0.55802 0.64695 0.0
H1480 H 0.53831 0.5815 0.77586 0.0
C1481 C 0.58323 0.55849 0.70741 0.0
H1482 H 0.54085 0.56637 0.62681 0.0
C1483 C 0.58189 0.56738 0.79229 0.0
C1484 C 0.56566 0.57567 0.81858 0.0
H1485 H 0.59579 0.55201 0.68897 0.0
H1486 H 0.5933 0.56705 0.83884 0.0
C1487 C 0.55105 0.57543 0.75704 0.0
C1488 C 0.31542 0.30158 0.92795 0.0
C1489 C 0.30724 0.31788 0.90307 0.0
H1490 H 0.32967 0.28689 0.03182 0.0
C1491 C 0.30809 0.33255 0.96398 0.0
H1492 H 0.31479 0.29002 0.88244 0.0
C1493 C 0.31686 0.33087 0.04906 0.0
C1494 C 0.32463 0.31437 0.07511 0.0
H1495 H 0.30198 0.3453 0.94578 0.0
H1496 H 0.31681 0.34223 0.09599 0.0
C1497 C 0.32401 0.29983 0.01316 0.0
C1498 C 0.41551 0.55907 0.70446 0.0
C1499 C 0.43023 0.55833 0.64397 0.0
H1500 H 0.40563 0.56777 0.83603 0.0
C1501 C 0.44644 0.56667 0.66908 0.0
H1502 H 0.40283 0.55285 0.68597 0.0
C1503 C 0.44803 0.57533 0.7542 0.0
C1504 C 0.43343 0.57584 0.81576 0.0
H1505 H 0.45803 0.56614 0.62378 0.0
H1506 H 0.46089 0.58113 0.77308 0.0
C1507 C 0.41704 0.56789 0.78943 0.0
C1508 C 0.18246 0.66684 0.54732 0.0
C1509 C 0.1746 0.68328 0.57357 0.0
H1510 H 0.19739 0.65252 0.44377 0.0
C1511 C 0.17512 0.69785 0.51179 0.0
H1512 H 0.18259 0.65547 0.59418 0.0
C1513 C 0.18368 0.69617 0.42644 0.0
C1514 C 0.19195 0.67992 0.40137 0.0
H1515 H 0.16939 0.71074 0.53067 0.0
H1516 H 0.1842 0.70773 0.38094 0.0
C1517 C 0.19122 0.66523 0.46216 0.0
C1518 C 0.05243 0.43379 0.17811 0.0
C1519 C 0.06871 0.44198 0.15303 0.0
H1520 H 0.03781 0.41956 0.28234 0.0
C1521 C 0.0834 0.44119 0.21377 0.0
H1522 H 0.04087 0.43436 0.13263 0.0
C1523 C 0.08176 0.43244 0.29891 0.0
C1524 C 0.06529 0.42465 0.32519 0.0
H1525 H 0.09613 0.4473 0.19534 0.0
H1526 H 0.09313 0.43252 0.34573 0.0
C1527 C 0.05072 0.42523 0.26345 0.0
C1528 C 0.31466 0.69654 0.05963 0.0
C1529 C 0.30621 0.68038 0.08471 0.0
H1530 H 0.32915 0.71094 0.95555 0.0
C1531 C 0.30683 0.66568 0.02398 0.0
H1532 H 0.31422 0.70812 0.10504 0.0
C1533 C 0.31563 0.66717 0.9389 0.0
C1534 C 0.32367 0.68353 0.91265 0.0
H1535 H 0.30052 0.65303 0.04235 0.0
H1536 H 0.3154 0.65579 0.89211 0.0
C1537 C 0.32328 0.69811 0.97439 0.0
C1538 C 0.05241 0.56496 0.81375 0.0
C1539 C 0.06863 0.55664 0.83878 0.0
H1540 H 0.03789 0.57931 0.70961 0.0
C1541 C 0.08332 0.55734 0.77803 0.0
H1542 H 0.04085 0.56445 0.85922 0.0
C1543 C 0.08175 0.56611 0.69292 0.0
C1544 C 0.06533 0.57402 0.66669 0.0
H1545 H 0.09601 0.55113 0.7964 0.0
H1546 H 0.09312 0.56596 0.6461 0.0
C1547 C 0.05076 0.57354 0.72846 0.0
C1548 C 0.17576 0.30094 0.47751 0.0
C1549 C 0.1752 0.31552 0.41582 0.0
H1550 H 0.18489 0.29105 0.60826 0.0
C1551 C 0.18304 0.33198 0.44214 0.0
H1552 H 0.17005 0.28804 0.45859 0.0
C1553 C 0.19179 0.33359 0.52728 0.0
C1554 C 0.19256 0.31889 0.58797 0.0
H1555 H 0.18313 0.34336 0.39537 0.0
H1556 H 0.19794 0.34631 0.54573 0.0
C1557 C 0.18433 0.30262 0.56283 0.0
C1558 C 0.41804 0.43782 0.18592 0.0
C1559 C 0.42921 0.42272 0.17539 0.0
H1560 H 0.40948 0.45933 0.27354 0.0
C1561 C 0.43929 0.41671 0.25087 0.0
H1562 H 0.41001 0.44268 0.1287 0.0
C1563 C 0.43838 0.42577 0.33534 0.0
C1564 C 0.42827 0.44175 0.34447 0.0
H1565 H 0.44784 0.40496 0.24459 0.0
H1566 H 0.4454 0.41983 0.39283 0.0
C1567 C 0.41785 0.44743 0.26883 0.0
C1568 C 0.26609 0.17111 0.20626 0.0
C1569 C 0.26427 0.17135 0.30335 0.0
H1570 H 0.25285 0.17148 0.07469 0.0
C1571 C 0.24694 0.17127 0.3417 0.0
H1572 H 0.27925 0.17109 0.17411 0.0
C1573 C 0.23181 0.1715 0.28438 0.0
C1574 C 0.23363 0.17178 0.18729 0.0
H1575 H 0.24505 0.17142 0.41595 0.0
H1576 H 0.21865 0.17177 0.31654 0.0
C1577 C 0.25095 0.17131 0.14893 0.0
C1578 C 0.07659 0.01633 0.45821 0.0
C1579 C 0.07635 0.01455 0.55532 0.0
H1580 H 0.0765 0.00302 0.32678 0.0
C1581 C 0.07666 0.99723 0.59384 0.0
H1582 H 0.07644 0.02948 0.42593 0.0
C1583 C 0.07669 0.98206 0.53667 0.0
C1584 C 0.07643 0.98384 0.43956 0.0
H1585 H 0.07652 0.99536 0.66811 0.0
H1586 H 0.0766 0.96891 0.56895 0.0
C1587 C 0.07665 0.00116 0.40105 0.0
C1588 C 0.26623 0.8267 0.78488 0.0
C1589 C 0.26443 0.82654 0.68778 0.0
H1590 H 0.25297 0.82644 0.91638 0.0
C1591 C 0.24711 0.82681 0.64935 0.0
H1592 H 0.27939 0.82657 0.8171 0.0
C1593 C 0.23196 0.82673 0.7066 0.0
C1594 C 0.23376 0.8264 0.80369 0.0
H1595 H 0.24523 0.82672 0.5751 0.0
H1596 H 0.21881 0.82663 0.67438 0.0
C1597 C 0.25108 0.82665 0.84213 0.0
C1598 C 0.42223 0.00102 0.09348 0.0
C1599 C 0.42252 0.9837 0.05495 0.0
H1600 H 0.42231 0.02934 0.06861 0.0
C1601 C 0.42229 0.98192 0.95785 0.0
H1602 H 0.42237 0.0029 0.16775 0.0
C1603 C 0.42225 0.99708 0.90069 0.0
C1604 C 0.42247 0.0144 0.93921 0.0
H1605 H 0.42242 0.96876 0.92556 0.0
H1606 H 0.4224 0.99521 0.82642 0.0
C1607 C 0.42222 0.01619 0.03632 0.0
C1608 C 0.74735 0.82657 0.84345 0.0
C1609 C 0.76467 0.82629 0.805 0.0
H1610 H 0.71904 0.82647 0.81844 0.0
C1611 C 0.76646 0.82654 0.7079 0.0
H1612 H 0.74546 0.82641 0.91771 0.0
C1613 C 0.75131 0.82658 0.65067 0.0
C1614 C 0.73399 0.82633 0.68911 0.0
H1615 H 0.77962 0.82641 0.67567 0.0
H1616 H 0.7532 0.82644 0.57641 0.0
C1617 C 0.73219 0.82657 0.78621 0.0
C1618 C 0.92186 0.01602 0.45818 0.0
C1619 C 0.92208 0.01425 0.55529 0.0
H1620 H 0.92207 0.00272 0.32677 0.0
C1621 C 0.92186 0.99693 0.59383 0.0
H1622 H 0.92194 0.02918 0.42589 0.0
C1623 C 0.92194 0.98176 0.53667 0.0
C1624 C 0.92221 0.98354 0.43956 0.0
H1625 H 0.92199 0.99507 0.66809 0.0
H1626 H 0.92209 0.96861 0.56897 0.0
C1627 C 0.92191 0.00085 0.40103 0.0
C1628 C 0.7515 0.17146 0.34224 0.0
C1629 C 0.73418 0.17166 0.30385 0.0
H1630 H 0.7798 0.17178 0.31715 0.0
C1631 C 0.73237 0.17145 0.20675 0.0
H1632 H 0.75339 0.17159 0.41649 0.0
C1633 C 0.74751 0.17156 0.14947 0.0
C1634 C 0.76483 0.17191 0.18787 0.0
H1635 H 0.71921 0.17151 0.17457 0.0
H1636 H 0.74562 0.17175 0.07522 0.0
C1637 C 0.76664 0.17161 0.28496 0.0
C1638 C 0.57658 0.01638 0.03613 0.0
C1639 C 0.57632 0.0146 0.93902 0.0
H1640 H 0.57651 0.00308 0.16752 0.0
C1641 C 0.57661 0.99729 0.90045 0.0
H1642 H 0.57645 0.02953 0.06845 0.0
C1643 C 0.57663 0.98211 0.95758 0.0
C1644 C 0.57641 0.98389 0.05469 0.0
H1645 H 0.57645 0.99542 0.82618 0.0
H1646 H 0.57654 0.96896 0.92526 0.0
C1647 C 0.57664 0.00121 0.09325 0.0
C1648 C 0.76663 0.6719 0.70743 0.0
C1649 C 0.7648 0.67211 0.80452 0.0
H1650 H 0.75341 0.67209 0.5758 0.0
C1651 C 0.74746 0.67185 0.84278 0.0
H1652 H 0.7798 0.67201 0.67532 0.0
C1653 C 0.73233 0.6719 0.78539 0.0
C1654 C 0.73417 0.67218 0.6883 0.0
H1655 H 0.74555 0.67198 0.91702 0.0
H1656 H 0.71916 0.67202 0.81749 0.0
C1657 C 0.7515 0.67192 0.65004 0.0
C1658 C 0.57626 0.48259 0.03905 0.0
C1659 C 0.57671 0.48355 0.94176 0.0
H1660 H 0.57563 0.49681 0.16756 0.0
C1661 C 0.57752 0.50056 0.89976 0.0
H1662 H 0.57541 0.46978 0.07401 0.0
C1663 C 0.57749 0.51619 0.95391 0.0
C1664 C 0.57668 0.51515 0.05124 0.0
H1665 H 0.57786 0.50183 0.82519 0.0
H1666 H 0.57783 0.52911 0.91922 0.0
C1667 C 0.57631 0.49814 0.09306 0.0
C1668 C 0.73192 0.32687 0.20791 0.0
C1669 C 0.73375 0.32659 0.30501 0.0
H1670 H 0.74516 0.32681 0.0763 0.0
C1671 C 0.75108 0.32693 0.34329 0.0
H1672 H 0.71876 0.3267 0.17579 0.0
C1673 C 0.76622 0.32699 0.28593 0.0
C1674 C 0.7644 0.32674 0.18884 0.0
H1675 H 0.75299 0.32676 0.41753 0.0
H1676 H 0.77938 0.32691 0.31806 0.0
C1677 C 0.74706 0.32696 0.15054 0.0
C1678 C 0.92208 0.50118 0.59315 0.0
C1679 C 0.92233 0.48386 0.5546 0.0
H1680 H 0.92222 0.5295 0.56833 0.0
C1681 C 0.92209 0.48208 0.45748 0.0
H1682 H 0.92222 0.50305 0.66742 0.0
C1683 C 0.92208 0.49725 0.40035 0.0
C1684 C 0.92235 0.51457 0.4389 0.0
H1685 H 0.92221 0.46893 0.42516 0.0
H1686 H 0.92223 0.49539 0.32608 0.0
C1687 C 0.9221 0.51635 0.53602 0.0
C1688 C 0.24784 0.32679 0.34191 0.0
C1689 C 0.26516 0.32639 0.30356 0.0
H1690 H 0.21953 0.32688 0.31678 0.0
C1691 C 0.26698 0.32668 0.20646 0.0
H1692 H 0.24594 0.32661 0.41615 0.0
C1693 C 0.25183 0.32684 0.14915 0.0
C1694 C 0.2345 0.32667 0.1875 0.0
H1695 H 0.28014 0.32646 0.1743 0.0
H1696 H 0.25373 0.32669 0.0749 0.0
C1697 C 0.23269 0.32692 0.2846 0.0
C1698 C 0.42151 0.50096 0.89691 0.0
C1699 C 0.42143 0.48397 0.93931 0.0
H1700 H 0.42211 0.52951 0.91582 0.0
C1701 C 0.42108 0.48307 0.03663 0.0
H1702 H 0.4218 0.50217 0.82231 0.0
C1703 C 0.42122 0.49867 0.09034 0.0
C1704 C 0.4218 0.51564 0.04821 0.0
H1705 H 0.42113 0.47027 0.07192 0.0
H1706 H 0.42128 0.49737 0.16493 0.0
C1707 C 0.42171 0.51663 0.95077 0.0
C1708 C 0.23187 0.67204 0.70419 0.0
C1709 C 0.23375 0.67223 0.80127 0.0
H1710 H 0.24502 0.67226 0.57238 0.0
C1711 C 0.2511 0.67196 0.83929 0.0
H1712 H 0.21869 0.67216 0.67227 0.0
C1713 C 0.26621 0.67202 0.78168 0.0
C1714 C 0.26433 0.67233 0.68462 0.0
H1715 H 0.25305 0.67207 0.9135 0.0
H1716 H 0.27939 0.67213 0.81361 0.0
C1717 C 0.24697 0.67207 0.64659 0.0
C1718 C 0.07674 0.5164 0.53511 0.0
C1719 C 0.07648 0.51462 0.438 0.0
H1720 H 0.07663 0.5031 0.66654 0.0
C1721 C 0.07672 0.4973 0.39947 0.0
H1722 H 0.07664 0.52955 0.56742 0.0
C1723 C 0.0767 0.48213 0.45662 0.0
C1724 C 0.07648 0.48391 0.55373 0.0
H1725 H 0.07655 0.49543 0.3252 0.0
H1726 H 0.07657 0.46897 0.42432 0.0
C1727 C 0.07676 0.50123 0.59227 0.0
C1728 C 0.12729 0.13268 0.89477 0.0
C1729 C 0.14472 0.12709 0.91842 0.0
H1730 H 0.10223 0.12547 0.83072 0.0
C1731 C 0.15038 0.10966 0.89514 0.0
H1732 H 0.12276 0.14615 0.91147 0.0
C1733 C 0.13882 0.09802 0.84812 0.0
C1734 C 0.1214 0.10358 0.82441 0.0
H1735 H 0.16379 0.10512 0.91285 0.0
H1736 H 0.14344 0.08461 0.83065 0.0
C1737 C 0.1157 0.12101 0.84774 0.0
C1738 C 0.15078 0.8891 0.09763 0.0
C1739 C 0.14511 0.8717 0.07389 0.0
H1740 H 0.14388 0.91407 0.16314 0.0
C1741 C 0.12771 0.86606 0.09787 0.0
H1742 H 0.16417 0.89368 0.0797 0.0
C1743 C 0.11616 0.87767 0.14561 0.0
C1744 C 0.12186 0.89507 0.16936 0.0
H1745 H 0.12317 0.85261 0.08085 0.0
H1746 H 0.10271 0.87318 0.16283 0.0
C1747 C 0.13926 0.90068 0.14537 0.0
C1748 C 0.37076 0.86611 0.39496 0.0
C1749 C 0.35338 0.87187 0.41848 0.0
H1750 H 0.39589 0.87306 0.33081 0.0
C1751 C 0.34786 0.88931 0.39468 0.0
H1752 H 0.37519 0.85262 0.41204 0.0
C1753 C 0.35951 0.90081 0.34738 0.0
C1754 C 0.3769 0.89508 0.32389 0.0
H1755 H 0.33448 0.89398 0.41229 0.0
H1756 H 0.355 0.91424 0.3296 0.0
C1757 C 0.38245 0.87764 0.34765 0.0
C1758 C 0.38213 0.12025 0.64554 0.0
C1759 C 0.37658 0.10283 0.66968 0.0
H1760 H 0.37488 0.1452 0.58037 0.0
C1761 C 0.35921 0.09706 0.64611 0.0
H1762 H 0.39556 0.12486 0.66243 0.0
C1763 C 0.34757 0.1085 0.59831 0.0
C1764 C 0.3531 0.12592 0.57411 0.0
H1765 H 0.35471 0.08365 0.66415 0.0
H1766 H 0.33422 0.1038 0.58061 0.0
C1767 C 0.37046 0.13173 0.59775 0.0
C1768 C 0.84792 0.88895 0.09907 0.0
C1769 C 0.8535 0.87154 0.07508 0.0
H1770 H 0.85498 0.91388 0.1645 0.0
C1771 C 0.8709 0.86582 0.09863 0.0
H1772 H 0.83454 0.89359 0.08143 0.0
C1773 C 0.88254 0.87737 0.14616 0.0
C1774 C 0.87693 0.89478 0.17011 0.0
H1775 H 0.87536 0.85235 0.0814 0.0
H1776 H 0.89599 0.87282 0.16301 0.0
C1777 C 0.85953 0.90047 0.14659 0.0
C1778 C 0.84787 0.10944 0.89601 0.0
C1779 C 0.85358 0.12686 0.91903 0.0
H1780 H 0.85471 0.08435 0.83159 0.0
C1781 C 0.87101 0.13241 0.89498 0.0
H1782 H 0.83446 0.10493 0.91398 0.0
C1783 C 0.88254 0.12069 0.84783 0.0
C1784 C 0.87679 0.10327 0.82476 0.0
H1785 H 0.87558 0.14587 0.91146 0.0
H1786 H 0.896 0.12512 0.83049 0.0
C1787 C 0.85937 0.09775 0.84888 0.0
C1788 C 0.65084 0.10899 0.59815 0.0
C1789 C 0.64529 0.12641 0.57417 0.0
H1790 H 0.64376 0.08409 0.66373 0.0
C1791 C 0.62791 0.13217 0.59786 0.0
H1792 H 0.66421 0.10432 0.5804 0.0
C1793 C 0.61627 0.12065 0.64552 0.0
C1794 C 0.62185 0.10323 0.66947 0.0
H1795 H 0.62347 0.14564 0.58065 0.0
H1796 H 0.60283 0.12523 0.66247 0.0
C1797 C 0.63923 0.0975 0.64582 0.0
C1798 C 0.63938 0.90077 0.34806 0.0
C1799 C 0.62198 0.89514 0.32421 0.0
H1800 H 0.66432 0.89379 0.41346 0.0
C1801 C 0.61631 0.87774 0.34793 0.0
H1802 H 0.64399 0.91416 0.33032 0.0
C1803 C 0.62789 0.86614 0.3955 0.0
C1804 C 0.64529 0.87179 0.41933 0.0
H1805 H 0.60285 0.87323 0.33082 0.0
H1806 H 0.62337 0.85268 0.4125 0.0
C1807 C 0.65093 0.8892 0.39563 0.0
C1808 C 0.63935 0.59835 0.34244 0.0
C1809 C 0.62204 0.60418 0.31825 0.0
H1810 H 0.66425 0.60496 0.40929 0.0
C1811 C 0.61649 0.62159 0.34261 0.0
H1812 H 0.64384 0.58493 0.32439 0.0
C1813 C 0.62811 0.63299 0.39122 0.0
C1814 C 0.64542 0.62713 0.41552 0.0
H1815 H 0.60309 0.62624 0.32533 0.0
H1816 H 0.62369 0.64646 0.40875 0.0
C1817 C 0.65093 0.60972 0.39108 0.0
C1818 C 0.64858 0.38788 0.59415 0.0
C1819 C 0.64406 0.3698 0.57966 0.0
H1820 H 0.64042 0.41325 0.65107 0.0
C1821 C 0.62779 0.36309 0.61481 0.0
H1822 H 0.66117 0.39322 0.56816 0.0
C1823 C 0.61611 0.37441 0.66365 0.0
C1824 C 0.62058 0.39256 0.6772 0.0
H1825 H 0.62422 0.34908 0.60512 0.0
H1826 H 0.60344 0.36913 0.68882 0.0
C1827 C 0.63688 0.39921 0.64225 0.0
C1828 C 0.85945 0.40081 0.8475 0.0
C1829 C 0.87683 0.39511 0.82388 0.0
H1830 H 0.83444 0.39394 0.91254 0.0
C1831 C 0.88241 0.37767 0.84755 0.0
H1832 H 0.85492 0.41423 0.82979 0.0
C1833 C 0.87075 0.36612 0.89492 0.0
C1834 C 0.85336 0.37185 0.91858 0.0
H1835 H 0.89585 0.3731 0.83061 0.0
H1836 H 0.87519 0.35263 0.91194 0.0
C1837 C 0.84781 0.38929 0.89484 0.0
C1838 C 0.88256 0.62078 0.1458 0.0
C1839 C 0.87692 0.60337 0.1695 0.0
H1840 H 0.87545 0.64584 0.08133 0.0
C1841 C 0.85952 0.59772 0.14577 0.0
H1842 H 0.89601 0.6253 0.16282 0.0
C1843 C 0.84794 0.60928 0.09832 0.0
C1844 C 0.85355 0.62669 0.0746 0.0
H1845 H 0.85494 0.58432 0.1635 0.0
H1846 H 0.83455 0.60467 0.08055 0.0
C1847 C 0.87095 0.63237 0.09834 0.0
C1848 C 0.35064 0.3877 0.58544 0.0
C1849 C 0.35486 0.3694 0.57719 0.0
H1850 H 0.35885 0.41344 0.63751 0.0
C1851 C 0.37054 0.36269 0.61874 0.0
H1852 H 0.33844 0.39301 0.55489 0.0
C1853 C 0.38202 0.37425 0.66734 0.0
C1854 C 0.37792 0.39263 0.67446 0.0
H1855 H 0.37381 0.34851 0.61416 0.0
H1856 H 0.39427 0.36896 0.69742 0.0
C1857 C 0.36214 0.39926 0.63341 0.0
C1858 C 0.38223 0.62222 0.33829 0.0
C1859 C 0.37676 0.60481 0.31347 0.0
H1860 H 0.37489 0.64702 0.40475 0.0
C1861 C 0.35942 0.59892 0.33692 0.0
H1862 H 0.39564 0.62691 0.32161 0.0
C1863 C 0.34776 0.61023 0.38544 0.0
C1864 C 0.3532 0.62763 0.41045 0.0
H1865 H 0.35499 0.5855 0.31855 0.0
H1866 H 0.33444 0.60541 0.40324 0.0
C1867 C 0.37053 0.63356 0.38676 0.0
C1868 C 0.13924 0.59774 0.14397 0.0
C1869 C 0.12185 0.60339 0.1679 0.0
H1870 H 0.16416 0.60468 0.07827 0.0
C1871 C 0.11618 0.6208 0.14409 0.0
H1872 H 0.14383 0.58435 0.16178 0.0
C1873 C 0.12776 0.63237 0.09632 0.0
C1874 C 0.14515 0.62669 0.07237 0.0
H1875 H 0.10274 0.62532 0.16125 0.0
H1876 H 0.12325 0.64583 0.07923 0.0
C1877 C 0.15078 0.60929 0.0962 0.0
C1878 C 0.1511 0.38937 0.89333 0.0
C1879 C 0.14556 0.37194 0.91726 0.0
H1880 H 0.14397 0.41431 0.82821 0.0
C1881 C 0.12816 0.36621 0.89384 0.0
H1882 H 0.16448 0.39403 0.91086 0.0
C1883 C 0.11648 0.37775 0.84652 0.0
C1884 C 0.12205 0.39518 0.82267 0.0
H1885 H 0.12372 0.35273 0.91102 0.0
H1886 H 0.10303 0.37318 0.82977 0.0
C1887 C 0.13945 0.40089 0.84604 0.0
loop_
_geom_bond_atom_site_label_1
_geom_bond_atom_site_label_2
_geom_bond_distance
_geom_bond_site_symmetry_2
_ccdc_geom_bond_type
Co0 O3 1.970 . S
Co0 N17 1.989 . S
Co0 O25 1.967 . S
Co0 O32 1.920 . S
Co1 O4 1.966 . S
Co1 N10 2.022 . S
Co1 N18 1.993 . S
Co1 O26 1.941 . S
C2 O3 1.258 . S
C2 O4 1.263 1_554 S
O3 Co0 1.970 . S
O3 C2 1.258 . S
O4 Co1 1.966 . S
O4 C2 1.263 1_556 S
C5 O6 1.235 . S
C5 O32 1.289 . S
O6 C5 1.235 . S
C7 C9 1.400 . S
C7 N10 1.351 . S
C7 C12 1.501 . S
C8 C9 1.387 . S
C8 N11 1.341 . S
C9 C7 1.400 . S
C9 C8 1.387 . S
N10 Co1 2.022 . S
N10 C7 1.351 . S
N10 N11 1.365 . S
N11 C8 1.341 . S
N11 N10 1.365 . S
N11 H31 0.862 . S
C12 C7 1.501 . S
C12 H13 0.961 . S
C12 H14 0.961 . S
C12 H15 0.960 . S
H13 C12 0.961 . S
H14 C12 0.961 . S
H15 C12 0.960 . S
C16 N17 1.342 . S
C16 C20 1.401 1_554 S
C16 C21 1.499 . S
N17 Co0 1.989 . S
N17 C16 1.342 . S
N17 N18 1.388 1_554 S
N18 Co1 1.993 . S
N18 N17 1.388 1_556 S
N18 C19 1.346 . S
C19 N18 1.346 . S
C19 C20 1.396 . S
C19 C29 1.510 . S
C20 C16 1.401 1_556 S
C20 C19 1.396 . S
C21 C16 1.499 . S
C21 H22 0.959 . S
C21 H23 0.960 . S
C21 H24 0.961 . S
H22 C21 0.959 . S
H23 C21 0.960 . S
H24 C21 0.961 . S
O25 Co0 1.967 . S
O25 C33 1.258 . S
O26 Co1 1.941 . S
O26 C33 1.266 1_556 S
H27 C29 0.959 . S
H28 C29 0.961 . S
C29 C19 1.510 . S
C29 H27 0.959 . S
C29 H28 0.961 . S
C29 H30 0.960 . S
H30 C29 0.960 . S
H31 N11 0.862 . S
O32 Co0 1.920 . S
O32 C5 1.289 . S
C33 O25 1.258 . S
C33 O26 1.266 1_554 S
Co34 O37 1.970 . S
Co34 N51 1.989 . S
Co34 O59 1.967 . S
Co34 O66 1.920 . S
Co35 O38 1.966 . S
Co35 N44 2.022 . S
Co35 N52 1.993 . S
Co35 O60 1.941 . S
C36 O37 1.258 . S
C36 O38 1.263 . S
O37 Co34 1.970 . S
O37 C36 1.258 . S
O38 Co35 1.966 . S
O38 C36 1.263 . S
C39 O40 1.235 . S
C39 O66 1.289 . S
O40 C39 1.235 . S
C41 C43 1.400 . S
C41 N44 1.351 1_556 S
C41 C46 1.500 1_556 S
C42 C43 1.387 . S
C42 N45 1.341 1_556 S
C43 C41 1.400 . S
C43 C42 1.387 . S
N44 Co35 2.022 . S
N44 C41 1.351 1_554 S
N44 N45 1.365 . S
N45 C42 1.341 1_554 S
N45 N44 1.365 . S
N45 H65 0.862 . S
C46 C41 1.500 1_554 S
C46 H47 0.966 . S
C46 H48 0.960 1_554 S
C46 H49 0.957 1_554 S
H47 C46 0.966 . S
H48 C46 0.960 1_556 S
H49 C46 0.957 1_556 S
C50 N51 1.342 . S
C50 C54 1.401 . S
C50 C55 1.499 . S
N51 Co34 1.989 . S
N51 C50 1.342 . S
N51 N52 1.388 . S
N52 Co35 1.993 . S
N52 N51 1.388 . S
N52 C53 1.346 . S
C53 N52 1.346 . S
C53 C54 1.396 . S
C53 C63 1.510 . S
C54 C50 1.401 . S
C54 C53 1.396 . S
C55 C50 1.499 . S
C55 H56 0.959 . S
C55 H57 0.960 . S
C55 H58 0.961 . S
H56 C55 0.959 . S
H57 C55 0.960 . S
H58 C55 0.961 . S
O59 Co34 1.967 . S
O59 C67 1.258 . S
O60 Co35 1.941 . S
O60 C67 1.266 . S
H61 C63 0.959 . S
H62 C63 0.961 . S
C63 C53 1.510 . S
C63 H61 0.959 . S
C63 H62 0.961 . S
C63 H64 0.960 . S
H64 C63 0.960 . S
H65 N45 0.862 . S
O66 Co34 1.920 . S
O66 C39 1.289 . S
C67 O59 1.258 . S
C67 O60 1.266 . S
Co68 O71 1.970 . S
Co68 N85 1.989 . S
Co68 O93 1.967 . S
Co68 O100 1.920 . S
Co69 O72 1.966 . S
Co69 N78 2.022 . S
Co69 N86 1.993 . S
Co69 O94 1.941 . S
C70 O71 1.258 . S
C70 O72 1.263 . S
O71 Co68 1.970 . S
O71 C70 1.258 . S
O72 Co69 1.966 . S
O72 C70 1.263 . S
C73 O74 1.235 . S
C73 O100 1.289 . S
O74 C73 1.235 . S
C75 C77 1.400 . S
C75 N78 1.351 . S
C75 C80 1.501 . S
C76 C77 1.387 . S
C76 N79 1.341 . S
C77 C75 1.400 . S
C77 C76 1.387 . S
N78 Co69 2.022 . S
N78 C75 1.351 . S
N78 N79 1.365 . S
N79 C76 1.341 . S
N79 N78 1.365 . S
N79 H99 0.862 . S
C80 C75 1.501 . S
C80 H81 0.961 . S
C80 H82 0.961 . S
C80 H83 0.960 . S
H81 C80 0.961 . S
H82 C80 0.961 . S
H83 C80 0.960 . S
C84 N85 1.342 . S
C84 C88 1.401 . S
C84 C89 1.499 . S
N85 Co68 1.989 . S
N85 C84 1.342 . S
N85 N86 1.388 . S
N86 Co69 1.993 . S
N86 N85 1.388 . S
N86 C87 1.346 . S
C87 N86 1.346 . S
C87 C88 1.396 . S
C87 C97 1.510 . S
C88 C84 1.401 . S
C88 C87 1.396 . S
C89 C84 1.499 . S
C89 H90 0.959 . S
C89 H91 0.960 . S
C89 H92 0.961 . S
H90 C89 0.959 . S
H91 C89 0.960 . S
H92 C89 0.961 . S
O93 Co68 1.967 . S
O93 C101 1.258 . S
O94 Co69 1.941 . S
O94 C101 1.266 . S
H95 C97 0.959 . S
H96 C97 0.961 . S
C97 C87 1.510 . S
C97 H95 0.959 . S
C97 H96 0.961 . S
C97 H98 0.960 . S
H98 C97 0.960 . S
H99 N79 0.862 . S
O100 Co68 1.920 . S
O100 C73 1.289 . S
C101 O93 1.258 . S
C101 O94 1.266 . S
Co102 O105 1.970 . S
Co102 N119 1.989 . S
Co102 O127 1.967 . S
Co102 O134 1.920 1_556 S
Co103 O106 1.966 . S
Co103 N112 2.022 . S
Co103 N120 1.993 . S
Co103 O128 1.941 . S
C104 O105 1.258 . S
C104 O106 1.263 . S
O105 Co102 1.970 . S
O105 C104 1.258 . S
O106 Co103 1.966 . S
O106 C104 1.263 . S
C107 O108 1.235 . S
C107 O134 1.289 . S
O108 C107 1.235 . S
C109 C111 1.400 . S
C109 N112 1.351 . S
C109 C114 1.501 . S
C110 C111 1.387 . S
C110 N113 1.341 . S
C111 C109 1.400 . S
C111 C110 1.387 . S
N112 Co103 2.022 . S
N112 C109 1.351 . S
N112 N113 1.365 . S
N113 C110 1.341 . S
N113 N112 1.365 . S
N113 H133 0.862 . S
C114 C109 1.501 . S
C114 H115 0.961 . S
C114 H116 0.961 . S
C114 H117 0.960 . S
H115 C114 0.961 . S
H116 C114 0.961 . S
H117 C114 0.960 . S
C118 N119 1.342 . S
C118 C122 1.401 . S
C118 C123 1.499 . S
N119 Co102 1.989 . S
N119 C118 1.342 . S
N119 N120 1.388 . S
N120 Co103 1.993 . S
N120 N119 1.388 . S
N120 C121 1.346 . S
C121 N120 1.346 . S
C121 C122 1.396 . S
C121 C131 1.510 . S
C122 C118 1.401 . S
C122 C121 1.396 . S
C123 C118 1.499 . S
C123 H124 0.959 . S
C123 H125 0.960 . S
C123 H126 0.961 . S
H124 C123 0.959 . S
H125 C123 0.960 . S
H126 C123 0.961 . S
O127 Co102 1.967 . S
O127 C135 1.258 . S
O128 Co103 1.941 . S
O128 C135 1.266 . S
H129 C131 0.959 . S
H130 C131 0.961 . S
C131 C121 1.510 . S
C131 H129 0.959 . S
C131 H130 0.961 . S
C131 H132 0.960 . S
H132 C131 0.960 . S
H133 N113 0.862 . S
O134 Co102 1.920 1_554 S
O134 C107 1.289 . S
C135 O127 1.258 . S
C135 O128 1.266 . S
Co136 O139 1.970 . S
Co136 N153 1.989 . S
Co136 O161 1.967 . S
Co136 O168 1.920 . S
Co137 O140 1.966 . S
Co137 N146 2.022 . S
Co137 N154 1.993 . S
Co137 O162 1.941 . S
C138 O139 1.258 . S
C138 O140 1.263 1_556 S
O139 Co136 1.970 . S
O139 C138 1.258 . S
O140 Co137 1.966 . S
O140 C138 1.263 1_554 S
C141 O142 1.235 . S
C141 O168 1.289 . S
O142 C141 1.235 . S
C143 C145 1.400 . S
C143 N146 1.351 . S
C143 C148 1.501 . S
C144 C145 1.387 . S
C144 N147 1.341 . S
C145 C143 1.400 . S
C145 C144 1.387 . S
N146 Co137 2.022 . S
N146 C143 1.351 . S
N146 N147 1.365 . S
N147 C144 1.341 . S
N147 N146 1.365 . S
N147 H167 0.862 . S
C148 C143 1.501 . S
C148 H149 0.961 . S
C148 H150 0.961 . S
C148 H151 0.960 . S
H149 C148 0.961 . S
H150 C148 0.961 . S
H151 C148 0.960 . S
C152 N153 1.342 . S
C152 C156 1.401 1_556 S
C152 C157 1.499 . S
N153 Co136 1.989 . S
N153 C152 1.342 . S
N153 N154 1.388 1_556 S
N154 Co137 1.993 . S
N154 N153 1.388 1_554 S
N154 C155 1.346 . S
C155 N154 1.346 . S
C155 C156 1.396 . S
C155 C165 1.510 . S
C156 C152 1.401 1_554 S
C156 C155 1.396 . S
C157 C152 1.499 . S
C157 H158 0.959 . S
C157 H159 0.960 . S
C157 H160 0.961 . S
H158 C157 0.959 . S
H159 C157 0.960 . S
H160 C157 0.961 . S
O161 Co136 1.967 . S
O161 C169 1.258 . S
O162 Co137 1.941 . S
O162 C169 1.266 1_554 S
H163 C165 0.959 . S
H164 C165 0.961 . S
C165 C155 1.510 . S
C165 H163 0.959 . S
C165 H164 0.961 . S
C165 H166 0.960 . S
H166 C165 0.960 . S
H167 N147 0.862 . S
O168 Co136 1.920 . S
O168 C141 1.289 . S
C169 O161 1.258 . S
C169 O162 1.266 1_556 S
Co170 O173 1.970 . S
Co170 N187 1.989 . S
Co170 O195 1.967 . S
Co170 O202 1.920 1_554 S
Co171 O174 1.966 . S
Co171 N180 2.022 . S
Co171 N188 1.993 . S
Co171 O196 1.941 . S
C172 O173 1.258 . S
C172 O174 1.263 . S
O173 Co170 1.970 . S
O173 C172 1.258 . S
O174 Co171 1.966 . S
O174 C172 1.263 . S
C175 O176 1.235 . S
C175 O202 1.289 . S
O176 C175 1.235 . S
C177 C179 1.400 . S
C177 N180 1.351 . S
C177 C182 1.501 . S
C178 C179 1.387 . S
C178 N181 1.341 . S
C179 C177 1.400 . S
C179 C178 1.387 . S
N180 Co171 2.022 . S
N180 C177 1.351 . S
N180 N181 1.365 . S
N181 C178 1.341 . S
N181 N180 1.365 . S
N181 H201 0.862 . S
C182 C177 1.501 . S
C182 H183 0.961 . S
C182 H184 0.961 . S
C182 H185 0.960 . S
H183 C182 0.961 . S
H184 C182 0.961 . S
H185 C182 0.960 . S
C186 N187 1.342 . S
C186 C190 1.401 . S
C186 C191 1.499 . S
N187 Co170 1.989 . S
N187 C186 1.342 . S
N187 N188 1.388 . S
N188 Co171 1.993 . S
N188 N187 1.388 . S
N188 C189 1.346 . S
C189 N188 1.346 . S
C189 C190 1.396 . S
C189 C199 1.510 . S
C190 C186 1.401 . S
C190 C189 1.396 . S
C191 C186 1.499 . S
C191 H192 0.959 . S
C191 H193 0.960 . S
C191 H194 0.961 . S
H192 C191 0.959 . S
H193 C191 0.960 . S
H194 C191 0.961 . S
O195 Co170 1.967 . S
O195 C203 1.258 . S
O196 Co171 1.941 . S
O196 C203 1.266 . S
H197 C199 0.959 . S
H198 C199 0.961 . S
C199 C189 1.510 . S
C199 H197 0.959 . S
C199 H198 0.961 . S
C199 H200 0.960 . S
H200 C199 0.960 . S
H201 N181 0.862 . S
O202 Co170 1.920 1_556 S
O202 C175 1.289 . S
C203 O195 1.258 . S
C203 O196 1.266 . S
Co204 O207 1.970 . S
Co204 N221 1.989 . S
Co204 O229 1.967 . S
Co204 O236 1.920 . S
Co205 O208 1.966 . S
Co205 N214 2.022 . S
Co205 N222 1.993 . S
Co205 O230 1.941 . S
C206 O207 1.258 . S
C206 O208 1.263 . S
O207 Co204 1.970 . S
O207 C206 1.258 . S
O208 Co205 1.966 . S
O208 C206 1.263 . S
C209 O210 1.235 . S
C209 O236 1.289 . S
O210 C209 1.235 . S
C211 C213 1.400 . S
C211 N214 1.351 . S
C211 C216 1.501 . S
C212 C213 1.387 . S
C212 N215 1.341 . S
C213 C211 1.400 . S
C213 C212 1.387 . S
N214 Co205 2.022 . S
N214 C211 1.351 . S
N214 N215 1.365 . S
N215 C212 1.341 . S
N215 N214 1.365 . S
N215 H235 0.862 . S
C216 C211 1.501 . S
C216 H217 0.961 . S
C216 H218 0.961 . S
C216 H219 0.960 . S
H217 C216 0.961 . S
H218 C216 0.961 . S
H219 C216 0.960 . S
C220 N221 1.342 . S
C220 C224 1.401 . S
C220 C225 1.499 . S
N221 Co204 1.989 . S
N221 C220 1.342 . S
N221 N222 1.388 . S
N222 Co205 1.993 . S
N222 N221 1.388 . S
N222 C223 1.346 . S
C223 N222 1.346 . S
C223 C224 1.396 . S
C223 C233 1.510 . S
C224 C220 1.401 . S
C224 C223 1.396 . S
C225 C220 1.499 . S
C225 H226 0.959 . S
C225 H227 0.960 . S
C225 H228 0.961 . S
H226 C225 0.959 . S
H227 C225 0.960 . S
H228 C225 0.961 . S
O229 Co204 1.967 . S
O229 C237 1.258 . S
O230 Co205 1.941 . S
O230 C237 1.266 . S
H231 C233 0.959 . S
H232 C233 0.961 . S
C233 C223 1.510 . S
C233 H231 0.959 . S
C233 H232 0.961 . S
C233 H234 0.960 . S
H234 C233 0.960 . S
H235 N215 0.862 . S
O236 Co204 1.920 . S
O236 C209 1.289 . S
C237 O229 1.258 . S
C237 O230 1.266 . S
Co238 O241 1.970 . S
Co238 N255 1.989 . S
Co238 O263 1.967 . S
Co238 O270 1.920 . S
Co239 O242 1.966 . S
Co239 N248 2.022 . S
Co239 N256 1.993 . S
Co239 O264 1.941 . S
C240 O241 1.258 . S
C240 O242 1.263 . S
O241 Co238 1.970 . S
O241 C240 1.258 . S
O242 Co239 1.966 . S
O242 C240 1.263 . S
C243 O244 1.235 . S
C243 O270 1.289 . S
O244 C243 1.235 . S
C245 C247 1.400 . S
C245 N248 1.351 1_554 S
C245 C250 1.500 1_554 S
C246 C247 1.387 . S
C246 N249 1.341 1_554 S
C247 C245 1.400 . S
C247 C246 1.387 . S
N248 Co239 2.022 . S
N248 C245 1.351 1_556 S
N248 N249 1.365 . S
N249 C246 1.341 1_556 S
N249 N248 1.365 . S
N249 H269 0.862 . S
C250 C245 1.500 1_556 S
C250 H251 0.966 . S
C250 H252 0.960 1_556 S
C250 H253 0.957 1_556 S
H251 C250 0.966 . S
H252 C250 0.960 1_554 S
H253 C250 0.957 1_554 S
C254 N255 1.342 . S
C254 C258 1.401 . S
C254 C259 1.499 . S
N255 Co238 1.989 . S
N255 C254 1.342 . S
N255 N256 1.388 . S
N256 Co239 1.993 . S
N256 N255 1.388 . S
N256 C257 1.346 . S
C257 N256 1.346 . S
C257 C258 1.396 . S
C257 C267 1.510 . S
C258 C254 1.401 . S
C258 C257 1.396 . S
C259 C254 1.499 . S
C259 H260 0.959 . S
C259 H261 0.960 . S
C259 H262 0.961 . S
H260 C259 0.959 . S
H261 C259 0.960 . S
H262 C259 0.961 . S
O263 Co238 1.967 . S
O263 C271 1.258 . S
O264 Co239 1.941 . S
O264 C271 1.266 . S
H265 C267 0.959 . S
H266 C267 0.961 . S
C267 C257 1.510 . S
C267 H265 0.959 . S
C267 H266 0.961 . S
C267 H268 0.960 . S
H268 C267 0.960 . S
H269 N249 0.862 . S
O270 Co238 1.920 . S
O270 C243 1.289 . S
C271 O263 1.258 . S
C271 O264 1.266 . S
Co272 O275 1.970 . S
Co272 N289 1.989 . S
Co272 O297 1.967 . S
Co272 O304 1.920 . S
Co273 O276 1.966 . S
Co273 N282 2.022 . S
Co273 N290 1.993 . S
Co273 O298 1.941 . S
C274 O275 1.258 . S
C274 O276 1.263 1_556 S
O275 Co272 1.970 . S
O275 C274 1.258 . S
O276 Co273 1.966 . S
O276 C274 1.263 1_554 S
C277 O278 1.235 . S
C277 O304 1.289 . S
O278 C277 1.235 . S
C279 C281 1.400 . S
C279 N282 1.351 . S
C279 C284 1.501 . S
C280 C281 1.387 . S
C280 N283 1.341 . S
C281 C279 1.400 . S
C281 C280 1.387 . S
N282 Co273 2.022 . S
N282 C279 1.351 . S
N282 N283 1.365 . S
N283 C280 1.341 . S
N283 N282 1.365 . S
N283 H303 0.862 . S
C284 C279 1.501 . S
C284 H285 0.961 . S
C284 H286 0.961 . S
C284 H287 0.960 . S
H285 C284 0.961 . S
H286 C284 0.961 . S
H287 C284 0.960 . S
C288 N289 1.342 . S
C288 C292 1.401 1_556 S
C288 C293 1.499 . S
N289 Co272 1.989 . S
N289 C288 1.342 . S
N289 N290 1.388 1_556 S
N290 Co273 1.993 . S
N290 N289 1.388 1_554 S
N290 C291 1.346 . S
C291 N290 1.346 . S
C291 C292 1.396 . S
C291 C301 1.510 . S
C292 C288 1.401 1_554 S
C292 C291 1.396 . S
C293 C288 1.499 . S
C293 H294 0.959 . S
C293 H295 0.960 . S
C293 H296 0.961 . S
H294 C293 0.959 . S
H295 C293 0.960 . S
H296 C293 0.961 . S
O297 Co272 1.967 . S
O297 C305 1.258 . S
O298 Co273 1.941 . S
O298 C305 1.266 1_554 S
H299 C301 0.959 . S
H300 C301 0.961 . S
C301 C291 1.510 . S
C301 H299 0.959 . S
C301 H300 0.961 . S
C301 H302 0.960 . S
H302 C301 0.960 . S
H303 N283 0.862 . S
O304 Co272 1.920 . S
O304 C277 1.289 . S
C305 O297 1.258 . S
C305 O298 1.266 1_556 S
Co306 O309 1.970 . S
Co306 N323 1.989 . S
Co306 O331 1.967 . S
Co306 O338 1.920 . S
Co307 O310 1.966 . S
Co307 N316 2.022 . S
Co307 N324 1.993 . S
Co307 O332 1.941 . S
C308 O309 1.258 . S
C308 O310 1.263 . S
O309 Co306 1.970 . S
O309 C308 1.258 . S
O310 Co307 1.966 . S
O310 C308 1.263 . S
C311 O312 1.235 . S
C311 O338 1.289 . S
O312 C311 1.235 . S
C313 C315 1.400 . S
C313 N316 1.351 1_554 S
C313 C318 1.500 1_554 S
C314 C315 1.387 . S
C314 N317 1.341 1_554 S
C315 C313 1.400 . S
C315 C314 1.387 . S
N316 Co307 2.022 . S
N316 C313 1.351 1_556 S
N316 N317 1.365 . S
N317 C314 1.341 1_556 S
N317 N316 1.365 . S
N317 H337 0.862 . S
C318 C313 1.500 1_556 S
C318 H319 0.966 . S
C318 H320 0.960 1_556 S
C318 H321 0.957 1_556 S
H319 C318 0.966 . S
H320 C318 0.960 1_554 S
H321 C318 0.957 1_554 S
C322 N323 1.342 . S
C322 C326 1.401 . S
C322 C327 1.499 . S
N323 Co306 1.989 . S
N323 C322 1.342 . S
N323 N324 1.388 . S
N324 Co307 1.993 . S
N324 N323 1.388 . S
N324 C325 1.346 . S
C325 N324 1.346 . S
C325 C326 1.396 . S
C325 C335 1.510 . S
C326 C322 1.401 . S
C326 C325 1.396 . S
C327 C322 1.499 . S
C327 H328 0.959 . S
C327 H329 0.960 . S
C327 H330 0.961 . S
H328 C327 0.959 . S
H329 C327 0.960 . S
H330 C327 0.961 . S
O331 Co306 1.967 . S
O331 C339 1.258 . S
O332 Co307 1.941 . S
O332 C339 1.266 . S
H333 C335 0.959 . S
H334 C335 0.961 . S
C335 C325 1.510 . S
C335 H333 0.959 . S
C335 H334 0.961 . S
C335 H336 0.960 . S
H336 C335 0.960 . S
H337 N317 0.862 . S
O338 Co306 1.920 . S
O338 C311 1.289 . S
C339 O331 1.258 . S
C339 O332 1.266 . S
Co340 O343 1.970 . S
Co340 N357 1.989 . S
Co340 O365 1.967 . S
Co340 O372 1.920 . S
Co341 O344 1.966 . S
Co341 N350 2.022 . S
Co341 N358 1.993 . S
Co341 O366 1.941 . S
C342 O343 1.258 . S
C342 O344 1.263 . S
O343 Co340 1.970 . S
O343 C342 1.258 . S
O344 Co341 1.966 . S
O344 C342 1.263 . S
C345 O346 1.235 . S
C345 O372 1.289 . S
O346 C345 1.235 . S
C347 C349 1.400 . S
C347 N350 1.351 . S
C347 C352 1.501 . S
C348 C349 1.387 . S
C348 N351 1.341 . S
C349 C347 1.400 . S
C349 C348 1.387 . S
N350 Co341 2.022 . S
N350 C347 1.351 . S
N350 N351 1.365 . S
N351 C348 1.341 . S
N351 N350 1.365 . S
N351 H371 0.862 . S
C352 C347 1.501 . S
C352 H353 0.961 . S
C352 H354 0.961 . S
C352 H355 0.960 . S
H353 C352 0.961 . S
H354 C352 0.961 . S
H355 C352 0.960 . S
C356 N357 1.342 . S
C356 C360 1.401 . S
C356 C361 1.499 . S
N357 Co340 1.989 . S
N357 C356 1.342 . S
N357 N358 1.388 . S
N358 Co341 1.993 . S
N358 N357 1.388 . S
N358 C359 1.346 . S
C359 N358 1.346 . S
C359 C360 1.396 . S
C359 C369 1.510 . S
C360 C356 1.401 . S
C360 C359 1.396 . S
C361 C356 1.499 . S
C361 H362 0.959 . S
C361 H363 0.960 . S
C361 H364 0.961 . S
H362 C361 0.959 . S
H363 C361 0.960 . S
H364 C361 0.961 . S
O365 Co340 1.967 . S
O365 C373 1.258 . S
O366 Co341 1.941 . S
O366 C373 1.266 . S
H367 C369 0.959 . S
H368 C369 0.961 . S
C369 C359 1.510 . S
C369 H367 0.959 . S
C369 H368 0.961 . S
C369 H370 0.960 . S
H370 C369 0.960 . S
H371 N351 0.862 . S
O372 Co340 1.920 . S
O372 C345 1.289 . S
C373 O365 1.258 . S
C373 O366 1.266 . S
Co374 O377 1.970 . S
Co374 N391 1.989 . S
Co374 O399 1.967 . S
Co374 O406 1.920 1_554 S
Co375 O378 1.966 . S
Co375 N384 2.022 . S
Co375 N392 1.993 . S
Co375 O400 1.941 . S
C376 O377 1.258 . S
C376 O378 1.263 . S
O377 Co374 1.970 . S
O377 C376 1.258 . S
O378 Co375 1.966 . S
O378 C376 1.263 . S
C379 O380 1.235 . S
C379 O406 1.289 . S
O380 C379 1.235 . S
C381 C383 1.400 . S
C381 N384 1.351 . S
C381 C386 1.501 . S
C382 C383 1.387 . S
C382 N385 1.341 . S
C383 C381 1.400 . S
C383 C382 1.387 . S
N384 Co375 2.022 . S
N384 C381 1.351 . S
N384 N385 1.365 . S
N385 C382 1.341 . S
N385 N384 1.365 . S
N385 H405 0.862 . S
C386 C381 1.501 . S
C386 H387 0.961 . S
C386 H388 0.961 . S
C386 H389 0.960 . S
H387 C386 0.961 . S
H388 C386 0.961 . S
H389 C386 0.960 . S
C390 N391 1.342 . S
C390 C394 1.401 . S
C390 C395 1.499 . S
N391 Co374 1.989 . S
N391 C390 1.342 . S
N391 N392 1.388 . S
N392 Co375 1.993 . S
N392 N391 1.388 . S
N392 C393 1.346 . S
C393 N392 1.346 . S
C393 C394 1.396 . S
C393 C403 1.510 . S
C394 C390 1.401 . S
C394 C393 1.396 . S
C395 C390 1.499 . S
C395 H396 0.959 . S
C395 H397 0.960 . S
C395 H398 0.961 . S
H396 C395 0.959 . S
H397 C395 0.960 . S
H398 C395 0.961 . S
O399 Co374 1.967 . S
O399 C407 1.258 . S
O400 Co375 1.941 . S
O400 C407 1.266 . S
H401 C403 0.959 . S
H402 C403 0.961 . S
C403 C393 1.510 . S
C403 H401 0.959 . S
C403 H402 0.961 . S
C403 H404 0.960 . S
H404 C403 0.960 . S
H405 N385 0.862 . S
O406 Co374 1.920 1_556 S
O406 C379 1.289 . S
C407 O399 1.258 . S
C407 O400 1.266 . S
Co408 O411 1.970 . S
Co408 N425 1.989 . S
Co408 O433 1.967 . S
Co408 O440 1.920 . S
Co409 O412 1.966 . S
Co409 N418 2.022 . S
Co409 N426 1.993 . S
Co409 O434 1.941 . S
C410 O411 1.258 . S
C410 O412 1.263 1_554 S
O411 Co408 1.970 . S
O411 C410 1.258 . S
O412 Co409 1.966 . S
O412 C410 1.263 1_556 S
C413 O414 1.235 . S
C413 O440 1.289 . S
O414 C413 1.235 . S
C415 C417 1.400 . S
C415 N418 1.351 . S
C415 C420 1.501 . S
C416 C417 1.387 . S
C416 N419 1.341 . S
C417 C415 1.400 . S
C417 C416 1.387 . S
N418 Co409 2.022 . S
N418 C415 1.351 . S
N418 N419 1.365 . S
N419 C416 1.341 . S
N419 N418 1.365 . S
N419 H439 0.862 . S
C420 C415 1.501 . S
C420 H421 0.961 . S
C420 H422 0.961 . S
C420 H423 0.960 . S
H421 C420 0.961 . S
H422 C420 0.961 . S
H423 C420 0.960 . S
C424 N425 1.342 . S
C424 C428 1.401 1_554 S
C424 C429 1.499 . S
N425 Co408 1.989 . S
N425 C424 1.342 . S
N425 N426 1.388 1_554 S
N426 Co409 1.993 . S
N426 N425 1.388 1_556 S
N426 C427 1.346 . S
C427 N426 1.346 . S
C427 C428 1.396 . S
C427 C437 1.510 . S
C428 C424 1.401 1_556 S
C428 C427 1.396 . S
C429 C424 1.499 . S
C429 H430 0.959 . S
C429 H431 0.960 . S
C429 H432 0.961 . S
H430 C429 0.959 . S
H431 C429 0.960 . S
H432 C429 0.961 . S
O433 Co408 1.967 . S
O433 C441 1.258 . S
O434 Co409 1.941 . S
O434 C441 1.266 1_556 S
H435 C437 0.959 . S
H436 C437 0.961 . S
C437 C427 1.510 . S
C437 H435 0.959 . S
C437 H436 0.961 . S
C437 H438 0.960 . S
H438 C437 0.960 . S
H439 N419 0.862 . S
O440 Co408 1.920 . S
O440 C413 1.289 . S
C441 O433 1.258 . S
C441 O434 1.266 1_554 S
Co442 O445 1.970 . S
Co442 N459 1.989 . S
Co442 O467 1.967 . S
Co442 O474 1.920 1_556 S
Co443 O446 1.966 . S
Co443 N452 2.022 . S
Co443 N460 1.993 . S
Co443 O468 1.941 . S
C444 O445 1.258 . S
C444 O446 1.263 . S
O445 Co442 1.970 . S
O445 C444 1.258 . S
O446 Co443 1.966 . S
O446 C444 1.263 . S
C447 O448 1.235 . S
C447 O474 1.289 . S
O448 C447 1.235 . S
C449 C451 1.400 . S
C449 N452 1.351 . S
C449 C454 1.501 . S
C450 C451 1.387 . S
C450 N453 1.341 . S
C451 C449 1.400 . S
C451 C450 1.387 . S
N452 Co443 2.022 . S
N452 C449 1.351 . S
N452 N453 1.365 . S
N453 C450 1.341 . S
N453 N452 1.365 . S
N453 H473 0.862 . S
C454 C449 1.501 . S
C454 H455 0.961 . S
C454 H456 0.961 . S
C454 H457 0.960 . S
H455 C454 0.961 . S
H456 C454 0.961 . S
H457 C454 0.960 . S
C458 N459 1.342 . S
C458 C462 1.401 . S
C458 C463 1.499 . S
N459 Co442 1.989 . S
N459 C458 1.342 . S
N459 N460 1.388 . S
N460 Co443 1.993 . S
N460 N459 1.388 . S
N460 C461 1.346 . S
C461 N460 1.346 . S
C461 C462 1.396 . S
C461 C471 1.510 . S
C462 C458 1.401 . S
C462 C461 1.396 . S
C463 C458 1.499 . S
C463 H464 0.959 . S
C463 H465 0.960 . S
C463 H466 0.961 . S
H464 C463 0.959 . S
H465 C463 0.960 . S
H466 C463 0.961 . S
O467 Co442 1.967 . S
O467 C475 1.258 . S
O468 Co443 1.941 . S
O468 C475 1.266 . S
H469 C471 0.959 . S
H470 C471 0.961 . S
C471 C461 1.510 . S
C471 H469 0.959 . S
C471 H470 0.961 . S
C471 H472 0.960 . S
H472 C471 0.960 . S
H473 N453 0.862 . S
O474 Co442 1.920 1_554 S
O474 C447 1.289 . S
C475 O467 1.258 . S
C475 O468 1.266 . S
Co476 O479 1.970 . S
Co476 N493 1.989 . S
Co476 O501 1.967 . S
Co476 O508 1.920 . S
Co477 O480 1.966 . S
Co477 N486 2.022 . S
Co477 N494 1.993 . S
Co477 O502 1.941 . S
C478 O479 1.258 . S
C478 O480 1.263 . S
O479 Co476 1.970 . S
O479 C478 1.258 . S
O480 Co477 1.966 . S
O480 C478 1.263 . S
C481 O482 1.235 . S
C481 O508 1.289 . S
O482 C481 1.235 . S
C483 C485 1.400 . S
C483 N486 1.351 . S
C483 C488 1.501 . S
C484 C485 1.387 . S
C484 N487 1.341 . S
C485 C483 1.400 . S
C485 C484 1.387 . S
N486 Co477 2.022 . S
N486 C483 1.351 . S
N486 N487 1.365 . S
N487 C484 1.341 . S
N487 N486 1.365 . S
N487 H507 0.862 . S
C488 C483 1.501 . S
C488 H489 0.961 . S
C488 H490 0.961 . S
C488 H491 0.960 . S
H489 C488 0.961 . S
H490 C488 0.961 . S
H491 C488 0.960 . S
C492 N493 1.342 . S
C492 C496 1.401 . S
C492 C497 1.499 . S
N493 Co476 1.989 . S
N493 C492 1.342 . S
N493 N494 1.388 . S
N494 Co477 1.993 . S
N494 N493 1.388 . S
N494 C495 1.346 . S
C495 N494 1.346 . S
C495 C496 1.396 . S
C495 C505 1.510 . S
C496 C492 1.401 . S
C496 C495 1.396 . S
C497 C492 1.499 . S
C497 H498 0.959 . S
C497 H499 0.960 . S
C497 H500 0.961 . S
H498 C497 0.959 . S
H499 C497 0.960 . S
H500 C497 0.961 . S
O501 Co476 1.967 . S
O501 C509 1.258 . S
O502 Co477 1.941 . S
O502 C509 1.266 . S
H503 C505 0.959 . S
H504 C505 0.961 . S
C505 C495 1.510 . S
C505 H503 0.959 . S
C505 H504 0.961 . S
C505 H506 0.960 . S
H506 C505 0.960 . S
H507 N487 0.862 . S
O508 Co476 1.920 . S
O508 C481 1.289 . S
C509 O501 1.258 . S
C509 O502 1.266 . S
Co510 O513 1.970 . S
Co510 N527 1.989 . S
Co510 O535 1.967 . S
Co510 O542 1.920 . S
Co511 O514 1.966 . S
Co511 N520 2.022 . S
Co511 N528 1.993 . S
Co511 O536 1.941 . S
C512 O513 1.258 . S
C512 O514 1.263 . S
O513 Co510 1.970 . S
O513 C512 1.258 . S
O514 Co511 1.966 . S
O514 C512 1.263 . S
C515 O516 1.235 . S
C515 O542 1.289 . S
O516 C515 1.235 . S
C517 C519 1.400 . S
C517 N520 1.351 1_556 S
C517 C522 1.500 1_556 S
C518 C519 1.387 . S
C518 N521 1.341 1_556 S
C519 C517 1.400 . S
C519 C518 1.387 . S
N520 Co511 2.022 . S
N520 C517 1.351 1_554 S
N520 N521 1.365 . S
N521 C518 1.341 1_554 S
N521 N520 1.365 . S
N521 H541 0.862 . S
C522 C517 1.500 1_554 S
C522 H523 0.966 . S
C522 H524 0.960 1_554 S
C522 H525 0.957 1_554 S
H523 C522 0.966 . S
H524 C522 0.960 1_556 S
H525 C522 0.957 1_556 S
C526 N527 1.342 . S
C526 C530 1.401 . S
C526 C531 1.499 . S
N527 Co510 1.989 . S
N527 C526 1.342 . S
N527 N528 1.388 . S
N528 Co511 1.993 . S
N528 N527 1.388 . S
N528 C529 1.346 . S
C529 N528 1.346 . S
C529 C530 1.396 . S
C529 C539 1.510 . S
C530 C526 1.401 . S
C530 C529 1.396 . S
C531 C526 1.499 . S
C531 H532 0.959 . S
C531 H533 0.960 . S
C531 H534 0.961 . S
H532 C531 0.959 . S
H533 C531 0.960 . S
H534 C531 0.961 . S
O535 Co510 1.967 . S
O535 C543 1.258 . S
O536 Co511 1.941 . S
O536 C543 1.266 . S
H537 C539 0.959 . S
H538 C539 0.961 . S
C539 C529 1.510 . S
C539 H537 0.959 . S
C539 H538 0.961 . S
C539 H540 0.960 . S
H540 C539 0.960 . S
H541 N521 0.862 . S
O542 Co510 1.920 . S
O542 C515 1.289 . S
C543 O535 1.258 . S
C543 O536 1.266 . S
Co544 O547 1.970 . S
Co544 N561 1.989 . S
Co544 O569 1.967 . S
Co544 O576 1.920 . S
Co545 O548 1.966 . S
Co545 N554 2.022 . S
Co545 N562 1.993 . S
Co545 O570 1.941 . S
C546 O547 1.258 . S
C546 O548 1.263 . S
O547 Co544 1.970 . S
O547 C546 1.258 . S
O548 Co545 1.966 . S
O548 C546 1.263 . S
C549 O550 1.235 . S
C549 O576 1.289 . S
O550 C549 1.235 . S
C551 C553 1.400 . S
C551 N554 1.351 . S
C551 C556 1.501 . S
C552 C553 1.387 . S
C552 N555 1.341 . S
C553 C551 1.400 . S
C553 C552 1.387 . S
N554 Co545 2.022 . S
N554 C551 1.351 . S
N554 N555 1.365 . S
N555 C552 1.341 . S
N555 N554 1.365 . S
N555 H575 0.862 . S
C556 C551 1.501 . S
C556 H557 0.961 . S
C556 H558 0.961 . S
C556 H559 0.960 . S
H557 C556 0.961 . S
H558 C556 0.961 . S
H559 C556 0.960 . S
C560 N561 1.342 . S
C560 C564 1.401 . S
C560 C565 1.499 . S
N561 Co544 1.989 . S
N561 C560 1.342 . S
N561 N562 1.388 . S
N562 Co545 1.993 . S
N562 N561 1.388 . S
N562 C563 1.346 . S
C563 N562 1.346 . S
C563 C564 1.396 . S
C563 C573 1.510 . S
C564 C560 1.401 . S
C564 C563 1.396 . S
C565 C560 1.499 . S
C565 H566 0.959 . S
C565 H567 0.960 . S
C565 H568 0.961 . S
H566 C565 0.959 . S
H567 C565 0.960 . S
H568 C565 0.961 . S
O569 Co544 1.967 . S
O569 C577 1.258 . S
O570 Co545 1.941 . S
O570 C577 1.266 . S
H571 C573 0.959 . S
H572 C573 0.961 . S
C573 C563 1.510 . S
C573 H571 0.959 . S
C573 H572 0.961 . S
C573 H574 0.960 . S
H574 C573 0.960 . S
H575 N555 0.862 . S
O576 Co544 1.920 . S
O576 C549 1.289 . S
C577 O569 1.258 . S
C577 O570 1.266 . S
Co578 O581 1.970 . S
Co578 N595 1.989 . S
Co578 O603 1.967 . S
Co578 O610 1.920 1_556 S
Co579 O582 1.966 . S
Co579 N588 2.022 . S
Co579 N596 1.993 . S
Co579 O604 1.941 . S
C580 O581 1.258 . S
C580 O582 1.263 . S
O581 Co578 1.970 . S
O581 C580 1.258 . S
O582 Co579 1.966 . S
O582 C580 1.263 . S
C583 O584 1.235 . S
C583 O610 1.289 . S
O584 C583 1.235 . S
C585 C587 1.400 . S
C585 N588 1.351 . S
C585 C590 1.501 . S
C586 C587 1.387 . S
C586 N589 1.341 . S
C587 C585 1.400 . S
C587 C586 1.387 . S
N588 Co579 2.022 . S
N588 C585 1.351 . S
N588 N589 1.365 . S
N589 C586 1.341 . S
N589 N588 1.365 . S
N589 H609 0.862 . S
C590 C585 1.501 . S
C590 H591 0.961 . S
C590 H592 0.961 . S
C590 H593 0.960 . S
H591 C590 0.961 . S
H592 C590 0.961 . S
H593 C590 0.960 . S
C594 N595 1.342 . S
C594 C598 1.401 . S
C594 C599 1.499 . S
N595 Co578 1.989 . S
N595 C594 1.342 . S
N595 N596 1.388 . S
N596 Co579 1.993 . S
N596 N595 1.388 . S
N596 C597 1.346 . S
C597 N596 1.346 . S
C597 C598 1.396 . S
C597 C607 1.510 . S
C598 C594 1.401 . S
C598 C597 1.396 . S
C599 C594 1.499 . S
C599 H600 0.959 . S
C599 H601 0.960 . S
C599 H602 0.961 . S
H600 C599 0.959 . S
H601 C599 0.960 . S
H602 C599 0.961 . S
O603 Co578 1.967 . S
O603 C611 1.258 . S
O604 Co579 1.941 . S
O604 C611 1.266 . S
H605 C607 0.959 . S
H606 C607 0.961 . S
C607 C597 1.510 . S
C607 H605 0.959 . S
C607 H606 0.961 . S
C607 H608 0.960 . S
H608 C607 0.960 . S
H609 N589 0.862 . S
O610 Co578 1.920 1_554 S
O610 C583 1.289 . S
C611 O603 1.258 . S
C611 O604 1.266 . S
Co612 O615 1.970 . S
Co612 N629 1.989 . S
Co612 O637 1.967 . S
Co612 O644 1.920 . S
Co613 O616 1.966 . S
Co613 N622 2.022 . S
Co613 N630 1.993 . S
Co613 O638 1.941 . S
C614 O615 1.258 . S
C614 O616 1.263 1_554 S
O615 Co612 1.970 . S
O615 C614 1.258 . S
O616 Co613 1.966 . S
O616 C614 1.263 1_556 S
C617 O618 1.235 . S
C617 O644 1.289 . S
O618 C617 1.235 . S
C619 C621 1.400 . S
C619 N622 1.351 . S
C619 C624 1.501 . S
C620 C621 1.387 . S
C620 N623 1.341 . S
C621 C619 1.400 . S
C621 C620 1.387 . S
N622 Co613 2.022 . S
N622 C619 1.351 . S
N622 N623 1.365 . S
N623 C620 1.341 . S
N623 N622 1.365 . S
N623 H643 0.862 . S
C624 C619 1.501 . S
C624 H625 0.961 . S
C624 H626 0.961 . S
C624 H627 0.960 . S
H625 C624 0.961 . S
H626 C624 0.961 . S
H627 C624 0.960 . S
C628 N629 1.342 . S
C628 C632 1.401 1_554 S
C628 C633 1.499 . S
N629 Co612 1.989 . S
N629 C628 1.342 . S
N629 N630 1.388 1_554 S
N630 Co613 1.993 . S
N630 N629 1.388 1_556 S
N630 C631 1.346 . S
C631 N630 1.346 . S
C631 C632 1.396 . S
C631 C641 1.510 . S
C632 C628 1.401 1_556 S
C632 C631 1.396 . S
C633 C628 1.499 . S
C633 H634 0.959 . S
C633 H635 0.960 . S
C633 H636 0.961 . S
H634 C633 0.959 . S
H635 C633 0.960 . S
H636 C633 0.961 . S
O637 Co612 1.967 . S
O637 C645 1.258 . S
O638 Co613 1.941 . S
O638 C645 1.266 1_556 S
H639 C641 0.959 . S
H640 C641 0.961 . S
C641 C631 1.510 . S
C641 H639 0.959 . S
C641 H640 0.961 . S
C641 H642 0.960 . S
H642 C641 0.960 . S
H643 N623 0.862 . S
O644 Co612 1.920 . S
O644 C617 1.289 . S
C645 O637 1.258 . S
C645 O638 1.266 1_554 S
Co646 O649 1.970 . S
Co646 N663 1.989 . S
Co646 O671 1.967 . S
Co646 O678 1.920 . S
Co647 O650 1.966 . S
Co647 N656 2.022 . S
Co647 N664 1.993 . S
Co647 O672 1.941 . S
C648 O649 1.258 . S
C648 O650 1.263 . S
O649 Co646 1.970 . S
O649 C648 1.258 . S
O650 Co647 1.966 . S
O650 C648 1.263 . S
C651 O652 1.235 . S
C651 O678 1.289 . S
O652 C651 1.235 . S
C653 C655 1.400 . S
C653 N656 1.351 1_556 S
C653 C658 1.500 1_556 S
C654 C655 1.387 . S
C654 N657 1.341 1_556 S
C655 C653 1.400 . S
C655 C654 1.387 . S
N656 Co647 2.022 . S
N656 C653 1.351 1_554 S
N656 N657 1.365 . S
N657 C654 1.341 1_554 S
N657 N656 1.365 . S
N657 H677 0.862 . S
C658 C653 1.500 1_554 S
C658 H659 0.966 . S
C658 H660 0.960 1_554 S
C658 H661 0.957 1_554 S
H659 C658 0.966 . S
H660 C658 0.960 1_556 S
H661 C658 0.957 1_556 S
C662 N663 1.342 . S
C662 C666 1.401 . S
C662 C667 1.499 . S
N663 Co646 1.989 . S
N663 C662 1.342 . S
N663 N664 1.388 . S
N664 Co647 1.993 . S
N664 N663 1.388 . S
N664 C665 1.346 . S
C665 N664 1.346 . S
C665 C666 1.396 . S
C665 C675 1.510 . S
C666 C662 1.401 . S
C666 C665 1.396 . S
C667 C662 1.499 . S
C667 H668 0.959 . S
C667 H669 0.960 . S
C667 H670 0.961 . S
H668 C667 0.959 . S
H669 C667 0.960 . S
H670 C667 0.961 . S
O671 Co646 1.967 . S
O671 C679 1.258 . S
O672 Co647 1.941 . S
O672 C679 1.266 . S
H673 C675 0.959 . S
H674 C675 0.961 . S
C675 C665 1.510 . S
C675 H673 0.959 . S
C675 H674 0.961 . S
C675 H676 0.960 . S
H676 C675 0.960 . S
H677 N657 0.862 . S
O678 Co646 1.920 . S
O678 C651 1.289 . S
C679 O671 1.258 . S
C679 O672 1.266 . S
Co680 O683 1.970 . S
Co680 N697 1.989 . S
Co680 O705 1.967 . S
Co680 O712 1.920 . S
Co681 O684 1.966 . S
Co681 N690 2.022 . S
Co681 N698 1.993 . S
Co681 O706 1.941 . S
C682 O683 1.258 . S
C682 O684 1.263 . S
O683 Co680 1.970 . S
O683 C682 1.258 . S
O684 Co681 1.966 . S
O684 C682 1.263 . S
C685 O686 1.235 . S
C685 O712 1.289 . S
O686 C685 1.235 . S
C687 C689 1.400 . S
C687 N690 1.351 . S
C687 C692 1.501 . S
C688 C689 1.387 . S
C688 N691 1.341 . S
C689 C687 1.400 . S
C689 C688 1.387 . S
N690 Co681 2.022 . S
N690 C687 1.351 . S
N690 N691 1.365 . S
N691 C688 1.341 . S
N691 N690 1.365 . S
N691 H711 0.862 . S
C692 C687 1.501 . S
C692 H693 0.961 . S
C692 H694 0.961 . S
C692 H695 0.960 . S
H693 C692 0.961 . S
H694 C692 0.961 . S
H695 C692 0.960 . S
C696 N697 1.342 . S
C696 C700 1.401 . S
C696 C701 1.499 . S
N697 Co680 1.989 . S
N697 C696 1.342 . S
N697 N698 1.388 . S
N698 Co681 1.993 . S
N698 N697 1.388 . S
N698 C699 1.346 . S
C699 N698 1.346 . S
C699 C700 1.396 . S
C699 C709 1.510 . S
C700 C696 1.401 . S
C700 C699 1.396 . S
C701 C696 1.499 . S
C701 H702 0.959 . S
C701 H703 0.960 . S
C701 H704 0.961 . S
H702 C701 0.959 . S
H703 C701 0.960 . S
H704 C701 0.961 . S
O705 Co680 1.967 . S
O705 C713 1.258 . S
O706 Co681 1.941 . S
O706 C713 1.266 . S
H707 C709 0.959 . S
H708 C709 0.961 . S
C709 C699 1.510 . S
C709 H707 0.959 . S
C709 H708 0.961 . S
C709 H710 0.960 . S
H710 C709 0.960 . S
H711 N691 0.862 . S
O712 Co680 1.920 . S
O712 C685 1.289 . S
C713 O705 1.258 . S
C713 O706 1.266 . S
Co714 O717 1.970 . S
Co714 N731 1.989 . S
Co714 O739 1.967 . S
Co714 O746 1.920 . S
Co715 O718 1.966 . S
Co715 N724 2.022 . S
Co715 N732 1.993 . S
Co715 O740 1.941 . S
C716 O717 1.258 . S
C716 O718 1.263 . S
O717 Co714 1.970 . S
O717 C716 1.258 . S
O718 Co715 1.966 . S
O718 C716 1.263 . S
C719 O720 1.235 . S
C719 O746 1.289 . S
O720 C719 1.235 . S
C721 C723 1.400 . S
C721 N724 1.351 1_554 S
C721 C726 1.500 1_554 S
C722 C723 1.387 . S
C722 N725 1.341 1_554 S
C723 C721 1.400 . S
C723 C722 1.387 . S
N724 Co715 2.022 . S
N724 C721 1.351 1_556 S
N724 N725 1.365 . S
N725 C722 1.341 1_556 S
N725 N724 1.365 . S
N725 H745 0.862 . S
C726 C721 1.500 1_556 S
C726 H727 0.966 . S
C726 H728 0.960 1_556 S
C726 H729 0.957 1_556 S
H727 C726 0.966 . S
H728 C726 0.960 1_554 S
H729 C726 0.957 1_554 S
C730 N731 1.342 . S
C730 C734 1.401 . S
C730 C735 1.499 . S
N731 Co714 1.989 . S
N731 C730 1.342 . S
N731 N732 1.388 . S
N732 Co715 1.993 . S
N732 N731 1.388 . S
N732 C733 1.346 . S
C733 N732 1.346 . S
C733 C734 1.396 . S
C733 C743 1.510 . S
C734 C730 1.401 . S
C734 C733 1.396 . S
C735 C730 1.499 . S
C735 H736 0.959 . S
C735 H737 0.960 . S
C735 H738 0.961 . S
H736 C735 0.959 . S
H737 C735 0.960 . S
H738 C735 0.961 . S
O739 Co714 1.967 . S
O739 C747 1.258 . S
O740 Co715 1.941 . S
O740 C747 1.266 . S
H741 C743 0.959 . S
H742 C743 0.961 . S
C743 C733 1.510 . S
C743 H741 0.959 . S
C743 H742 0.961 . S
C743 H744 0.960 . S
H744 C743 0.960 . S
H745 N725 0.862 . S
O746 Co714 1.920 . S
O746 C719 1.289 . S
C747 O739 1.258 . S
C747 O740 1.266 . S
Co748 O751 1.970 . S
Co748 N765 1.989 . S
Co748 O773 1.967 . S
Co748 O780 1.920 . S
Co749 O752 1.966 . S
Co749 N758 2.022 . S
Co749 N766 1.993 . S
Co749 O774 1.941 . S
C750 O751 1.258 . S
C750 O752 1.263 1_556 S
O751 Co748 1.970 . S
O751 C750 1.258 . S
O752 Co749 1.966 . S
O752 C750 1.263 1_554 S
C753 O754 1.235 . S
C753 O780 1.289 . S
O754 C753 1.235 . S
C755 C757 1.400 . S
C755 N758 1.351 . S
C755 C760 1.501 . S
C756 C757 1.387 . S
C756 N759 1.341 . S
C757 C755 1.400 . S
C757 C756 1.387 . S
N758 Co749 2.022 . S
N758 C755 1.351 . S
N758 N759 1.365 . S
N759 C756 1.341 . S
N759 N758 1.365 . S
N759 H779 0.862 . S
C760 C755 1.501 . S
C760 H761 0.961 . S
C760 H762 0.961 . S
C760 H763 0.960 . S
H761 C760 0.961 . S
H762 C760 0.961 . S
H763 C760 0.960 . S
C764 N765 1.342 . S
C764 C768 1.401 1_556 S
C764 C769 1.499 . S
N765 Co748 1.989 . S
N765 C764 1.342 . S
N765 N766 1.388 1_556 S
N766 Co749 1.993 . S
N766 N765 1.388 1_554 S
N766 C767 1.346 . S
C767 N766 1.346 . S
C767 C768 1.396 . S
C767 C777 1.510 . S
C768 C764 1.401 1_554 S
C768 C767 1.396 . S
C769 C764 1.499 . S
C769 H770 0.959 . S
C769 H771 0.960 . S
C769 H772 0.961 . S
H770 C769 0.959 . S
H771 C769 0.960 . S
H772 C769 0.961 . S
O773 Co748 1.967 . S
O773 C781 1.258 . S
O774 Co749 1.941 . S
O774 C781 1.266 1_554 S
H775 C777 0.959 . S
H776 C777 0.961 . S
C777 C767 1.510 . S
C777 H775 0.959 . S
C777 H776 0.961 . S
C777 H778 0.960 . S
H778 C777 0.960 . S
H779 N759 0.862 . S
O780 Co748 1.920 . S
O780 C753 1.289 . S
C781 O773 1.258 . S
C781 O774 1.266 1_556 S
Co782 O785 1.970 . S
Co782 N799 1.989 . S
Co782 O807 1.967 . S
Co782 O814 1.920 1_554 S
Co783 O786 1.966 . S
Co783 N792 2.022 . S
Co783 N800 1.993 . S
Co783 O808 1.941 . S
C784 O785 1.258 . S
C784 O786 1.263 . S
O785 Co782 1.970 . S
O785 C784 1.258 . S
O786 Co783 1.966 . S
O786 C784 1.263 . S
C787 O788 1.235 . S
C787 O814 1.289 . S
O788 C787 1.235 . S
C789 C791 1.400 . S
C789 N792 1.351 . S
C789 C794 1.501 . S
C790 C791 1.387 . S
C790 N793 1.341 . S
C791 C789 1.400 . S
C791 C790 1.387 . S
N792 Co783 2.022 . S
N792 C789 1.351 . S
N792 N793 1.365 . S
N793 C790 1.341 . S
N793 N792 1.365 . S
N793 H813 0.862 . S
C794 C789 1.501 . S
C794 H795 0.961 . S
C794 H796 0.961 . S
C794 H797 0.960 . S
H795 C794 0.961 . S
H796 C794 0.961 . S
H797 C794 0.960 . S
C798 N799 1.342 . S
C798 C802 1.401 . S
C798 C803 1.499 . S
N799 Co782 1.989 . S
N799 C798 1.342 . S
N799 N800 1.388 . S
N800 Co783 1.993 . S
N800 N799 1.388 . S
N800 C801 1.346 . S
C801 N800 1.346 . S
C801 C802 1.396 . S
C801 C811 1.510 . S
C802 C798 1.401 . S
C802 C801 1.396 . S
C803 C798 1.499 . S
C803 H804 0.959 . S
C803 H805 0.960 . S
C803 H806 0.961 . S
H804 C803 0.959 . S
H805 C803 0.960 . S
H806 C803 0.961 . S
O807 Co782 1.967 . S
O807 C815 1.258 . S
O808 Co783 1.941 . S
O808 C815 1.266 . S
H809 C811 0.959 . S
H810 C811 0.961 . S
C811 C801 1.510 . S
C811 H809 0.959 . S
C811 H810 0.961 . S
C811 H812 0.960 . S
H812 C811 0.960 . S
H813 N793 0.862 . S
O814 Co782 1.920 1_556 S
O814 C787 1.289 . S
C815 O807 1.258 . S
C815 O808 1.266 . S
Co816 O819 1.970 . S
Co816 N833 1.989 . S
Co816 O841 1.967 . S
Co816 O848 1.920 . S
Co817 O820 1.966 . S
Co817 N826 2.022 . S
Co817 N834 1.993 . S
Co817 O842 1.941 . S
C818 O819 1.258 . S
C818 O820 1.263 . S
O819 Co816 1.970 . S
O819 C818 1.258 . S
O820 Co817 1.966 . S
O820 C818 1.263 . S
C821 O822 1.235 . S
C821 O848 1.289 . S
O822 C821 1.235 . S
C823 C825 1.400 . S
C823 N826 1.351 . S
C823 C828 1.501 . S
C824 C825 1.387 . S
C824 N827 1.341 . S
C825 C823 1.400 . S
C825 C824 1.387 . S
N826 Co817 2.022 . S
N826 C823 1.351 . S
N826 N827 1.365 . S
N827 C824 1.341 . S
N827 N826 1.365 . S
N827 H847 0.862 . S
C828 C823 1.501 . S
C828 H829 0.961 . S
C828 H830 0.961 . S
C828 H831 0.960 . S
H829 C828 0.961 . S
H830 C828 0.961 . S
H831 C828 0.960 . S
C832 N833 1.342 . S
C832 C836 1.401 . S
C832 C837 1.499 . S
N833 Co816 1.989 . S
N833 C832 1.342 . S
N833 N834 1.388 . S
N834 Co817 1.993 . S
N834 N833 1.388 . S
N834 C835 1.346 . S
C835 N834 1.346 . S
C835 C836 1.396 . S
C835 C845 1.510 . S
C836 C832 1.401 . S
C836 C835 1.396 . S
C837 C832 1.499 . S
C837 H838 0.959 . S
C837 H839 0.960 . S
C837 H840 0.961 . S
H838 C837 0.959 . S
H839 C837 0.960 . S
H840 C837 0.961 . S
O841 Co816 1.967 . S
O841 C849 1.258 . S
O842 Co817 1.941 . S
O842 C849 1.266 . S
H843 C845 0.959 . S
H844 C845 0.961 . S
C845 C835 1.510 . S
C845 H843 0.959 . S
C845 H844 0.961 . S
C845 H846 0.960 . S
H846 C845 0.960 . S
H847 N827 0.862 . S
O848 Co816 1.920 . S
O848 C821 1.289 . S
C849 O841 1.258 . S
C849 O842 1.266 . S
Co850 O853 1.970 . S
Co850 N867 1.989 . S
Co850 O875 1.967 . S
Co850 O882 1.920 1_554 S
Co851 O854 1.966 . S
Co851 N860 2.022 . S
Co851 N868 1.993 . S
Co851 O876 1.941 . S
C852 O853 1.258 . S
C852 O854 1.263 . S
O853 Co850 1.970 . S
O853 C852 1.258 . S
O854 Co851 1.966 . S
O854 C852 1.263 . S
C855 O856 1.235 . S
C855 O882 1.289 . S
O856 C855 1.235 . S
C857 C859 1.400 . S
C857 N860 1.351 . S
C857 C862 1.501 . S
C858 C859 1.387 . S
C858 N861 1.341 . S
C859 C857 1.400 . S
C859 C858 1.387 . S
N860 Co851 2.022 . S
N860 C857 1.351 . S
N860 N861 1.365 . S
N861 C858 1.341 . S
N861 N860 1.365 . S
N861 H881 0.862 . S
C862 C857 1.501 . S
C862 H863 0.961 . S
C862 H864 0.961 . S
C862 H865 0.960 . S
H863 C862 0.961 . S
H864 C862 0.961 . S
H865 C862 0.960 . S
C866 N867 1.342 . S
C866 C870 1.401 . S
C866 C871 1.499 . S
N867 Co850 1.989 . S
N867 C866 1.342 . S
N867 N868 1.388 . S
N868 Co851 1.993 . S
N868 N867 1.388 . S
N868 C869 1.346 . S
C869 N868 1.346 . S
C869 C870 1.396 . S
C869 C879 1.510 . S
C870 C866 1.401 . S
C870 C869 1.396 . S
C871 C866 1.499 . S
C871 H872 0.959 . S
C871 H873 0.960 . S
C871 H874 0.961 . S
H872 C871 0.959 . S
H873 C871 0.960 . S
H874 C871 0.961 . S
O875 Co850 1.967 . S
O875 C883 1.258 . S
O876 Co851 1.941 . S
O876 C883 1.266 . S
H877 C879 0.959 . S
H878 C879 0.961 . S
C879 C869 1.510 . S
C879 H877 0.959 . S
C879 H878 0.961 . S
C879 H880 0.960 . S
H880 C879 0.960 . S
H881 N861 0.862 . S
O882 Co850 1.920 1_556 S
O882 C855 1.289 . S
C883 O875 1.258 . S
C883 O876 1.266 . S
Co884 O887 1.970 . S
Co884 N901 1.989 . S
Co884 O909 1.967 . S
Co884 O916 1.920 . S
Co885 O888 1.966 . S
Co885 N894 2.022 . S
Co885 N902 1.993 . S
Co885 O910 1.941 . S
C886 O887 1.258 . S
C886 O888 1.263 1_556 S
O887 Co884 1.970 . S
O887 C886 1.258 . S
O888 Co885 1.966 . S
O888 C886 1.263 1_554 S
C889 O890 1.235 . S
C889 O916 1.289 . S
O890 C889 1.235 . S
C891 C893 1.400 . S
C891 N894 1.351 . S
C891 C896 1.501 . S
C892 C893 1.387 . S
C892 N895 1.341 . S
C893 C891 1.400 . S
C893 C892 1.387 . S
N894 Co885 2.022 . S
N894 C891 1.351 . S
N894 N895 1.365 . S
N895 C892 1.341 . S
N895 N894 1.365 . S
N895 H915 0.862 . S
C896 C891 1.501 . S
C896 H897 0.961 . S
C896 H898 0.961 . S
C896 H899 0.960 . S
H897 C896 0.961 . S
H898 C896 0.961 . S
H899 C896 0.960 . S
C900 N901 1.342 . S
C900 C904 1.401 1_556 S
C900 C905 1.499 . S
N901 Co884 1.989 . S
N901 C900 1.342 . S
N901 N902 1.388 1_556 S
N902 Co885 1.993 . S
N902 N901 1.388 1_554 S
N902 C903 1.346 . S
C903 N902 1.346 . S
C903 C904 1.396 . S
C903 C913 1.510 . S
C904 C900 1.401 1_554 S
C904 C903 1.396 . S
C905 C900 1.499 . S
C905 H906 0.959 . S
C905 H907 0.960 . S
C905 H908 0.961 . S
H906 C905 0.959 . S
H907 C905 0.960 . S
H908 C905 0.961 . S
O909 Co884 1.967 . S
O909 C917 1.258 . S
O910 Co885 1.941 . S
O910 C917 1.266 1_554 S
H911 C913 0.959 . S
H912 C913 0.961 . S
C913 C903 1.510 . S
C913 H911 0.959 . S
C913 H912 0.961 . S
C913 H914 0.960 . S
H914 C913 0.960 . S
H915 N895 0.862 . S
O916 Co884 1.920 . S
O916 C889 1.289 . S
C917 O909 1.258 . S
C917 O910 1.266 1_556 S
Co918 O921 1.970 . S
Co918 N935 1.989 . S
Co918 O943 1.967 . S
Co918 O950 1.920 . S
Co919 O922 1.966 . S
Co919 N928 2.022 . S
Co919 N936 1.993 . S
Co919 O944 1.941 . S
C920 O921 1.258 . S
C920 O922 1.263 . S
O921 Co918 1.970 . S
O921 C920 1.258 . S
O922 Co919 1.966 . S
O922 C920 1.263 . S
C923 O924 1.235 . S
C923 O950 1.289 . S
O924 C923 1.235 . S
C925 C927 1.400 . S
C925 N928 1.351 1_554 S
C925 C930 1.500 1_554 S
C926 C927 1.387 . S
C926 N929 1.341 1_554 S
C927 C925 1.400 . S
C927 C926 1.387 . S
N928 Co919 2.022 . S
N928 C925 1.351 1_556 S
N928 N929 1.365 . S
N929 C926 1.341 1_556 S
N929 N928 1.365 . S
N929 H949 0.862 . S
C930 C925 1.500 1_556 S
C930 H931 0.966 . S
C930 H932 0.960 1_556 S
C930 H933 0.957 1_556 S
H931 C930 0.966 . S
H932 C930 0.960 1_554 S
H933 C930 0.957 1_554 S
C934 N935 1.342 . S
C934 C938 1.401 . S
C934 C939 1.499 . S
N935 Co918 1.989 . S
N935 C934 1.342 . S
N935 N936 1.388 . S
N936 Co919 1.993 . S
N936 N935 1.388 . S
N936 C937 1.346 . S
C937 N936 1.346 . S
C937 C938 1.396 . S
C937 C947 1.510 . S
C938 C934 1.401 . S
C938 C937 1.396 . S
C939 C934 1.499 . S
C939 H940 0.959 . S
C939 H941 0.960 . S
C939 H942 0.961 . S
H940 C939 0.959 . S
H941 C939 0.960 . S
H942 C939 0.961 . S
O943 Co918 1.967 . S
O943 C951 1.258 . S
O944 Co919 1.941 . S
O944 C951 1.266 . S
H945 C947 0.959 . S
H946 C947 0.961 . S
C947 C937 1.510 . S
C947 H945 0.959 . S
C947 H946 0.961 . S
C947 H948 0.960 . S
H948 C947 0.960 . S
H949 N929 0.862 . S
O950 Co918 1.920 . S
O950 C923 1.289 . S
C951 O943 1.258 . S
C951 O944 1.266 . S
Co952 O955 1.970 . S
Co952 N969 1.989 . S
Co952 O977 1.967 . S
Co952 O984 1.920 . S
Co953 O956 1.966 . S
Co953 N962 2.022 . S
Co953 N970 1.993 . S
Co953 O978 1.941 . S
C954 O955 1.258 . S
C954 O956 1.263 . S
O955 Co952 1.970 . S
O955 C954 1.258 . S
O956 Co953 1.966 . S
O956 C954 1.263 . S
C957 O958 1.235 . S
C957 O984 1.289 . S
O958 C957 1.235 . S
C959 C961 1.400 . S
C959 N962 1.351 . S
C959 C964 1.501 . S
C960 C961 1.387 . S
C960 N963 1.341 . S
C961 C959 1.400 . S
C961 C960 1.387 . S
N962 Co953 2.022 . S
N962 C959 1.351 . S
N962 N963 1.365 . S
N963 C960 1.341 . S
N963 N962 1.365 . S
N963 H983 0.862 . S
C964 C959 1.501 . S
C964 H965 0.961 . S
C964 H966 0.961 . S
C964 H967 0.960 . S
H965 C964 0.961 . S
H966 C964 0.961 . S
H967 C964 0.960 . S
C968 N969 1.342 . S
C968 C972 1.401 . S
C968 C973 1.499 . S
N969 Co952 1.989 . S
N969 C968 1.342 . S
N969 N970 1.388 . S
N970 Co953 1.993 . S
N970 N969 1.388 . S
N970 C971 1.346 . S
C971 N970 1.346 . S
C971 C972 1.396 . S
C971 C981 1.510 . S
C972 C968 1.401 . S
C972 C971 1.396 . S
C973 C968 1.499 . S
C973 H974 0.959 . S
C973 H975 0.960 . S
C973 H976 0.961 . S
H974 C973 0.959 . S
H975 C973 0.960 . S
H976 C973 0.961 . S
O977 Co952 1.967 . S
O977 C985 1.258 . S
O978 Co953 1.941 . S
O978 C985 1.266 . S
H979 C981 0.959 . S
H980 C981 0.961 . S
C981 C971 1.510 . S
C981 H979 0.959 . S
C981 H980 0.961 . S
C981 H982 0.960 . S
H982 C981 0.960 . S
H983 N963 0.862 . S
O984 Co952 1.920 . S
O984 C957 1.289 . S
C985 O977 1.258 . S
C985 O978 1.266 . S
Co986 O989 1.970 . S
Co986 N1003 1.989 . S
Co986 O1011 1.967 . S
Co986 O1018 1.920 . S
Co987 O990 1.966 . S
Co987 N996 2.022 . S
Co987 N1004 1.993 . S
Co987 O1012 1.941 . S
C988 O989 1.258 . S
C988 O990 1.263 . S
O989 Co986 1.970 . S
O989 C988 1.258 . S
O990 Co987 1.966 . S
O990 C988 1.263 . S
C991 O992 1.235 . S
C991 O1018 1.289 . S
O992 C991 1.235 . S
C993 C995 1.400 . S
C993 N996 1.351 1_556 S
C993 C998 1.500 1_556 S
C994 C995 1.387 . S
C994 N997 1.341 1_556 S
C995 C993 1.400 . S
C995 C994 1.387 . S
N996 Co987 2.022 . S
N996 C993 1.351 1_554 S
N996 N997 1.365 . S
N997 C994 1.341 1_554 S
N997 N996 1.365 . S
N997 H1017 0.862 . S
C998 C993 1.500 1_554 S
C998 H999 0.966 . S
C998 H1000 0.960 1_554 S
C998 H1001 0.957 1_554 S
H999 C998 0.966 . S
H1000 C998 0.960 1_556 S
H1001 C998 0.957 1_556 S
C1002 N1003 1.342 . S
C1002 C1006 1.401 . S
C1002 C1007 1.499 . S
N1003 Co986 1.989 . S
N1003 C1002 1.342 . S
N1003 N1004 1.388 . S
N1004 Co987 1.993 . S
N1004 N1003 1.388 . S
N1004 C1005 1.346 . S
C1005 N1004 1.346 . S
C1005 C1006 1.396 . S
C1005 C1015 1.510 . S
C1006 C1002 1.401 . S
C1006 C1005 1.396 . S
C1007 C1002 1.499 . S
C1007 H1008 0.959 . S
C1007 H1009 0.960 . S
C1007 H1010 0.961 . S
H1008 C1007 0.959 . S
H1009 C1007 0.960 . S
H1010 C1007 0.961 . S
O1011 Co986 1.967 . S
O1011 C1019 1.258 . S
O1012 Co987 1.941 . S
O1012 C1019 1.266 . S
H1013 C1015 0.959 . S
H1014 C1015 0.961 . S
C1015 C1005 1.510 . S
C1015 H1013 0.959 . S
C1015 H1014 0.961 . S
C1015 H1016 0.960 . S
H1016 C1015 0.960 . S
H1017 N997 0.862 . S
O1018 Co986 1.920 . S
O1018 C991 1.289 . S
C1019 O1011 1.258 . S
C1019 O1012 1.266 . S
Co1020 O1023 1.970 . S
Co1020 N1037 1.989 . S
Co1020 O1045 1.967 . S
Co1020 O1052 1.920 . S
Co1021 O1024 1.966 . S
Co1021 N1030 2.022 . S
Co1021 N1038 1.993 . S
Co1021 O1046 1.941 . S
C1022 O1023 1.258 . S
C1022 O1024 1.263 1_554 S
O1023 Co1020 1.970 . S
O1023 C1022 1.258 . S
O1024 Co1021 1.966 . S
O1024 C1022 1.263 1_556 S
C1025 O1026 1.235 . S
C1025 O1052 1.289 . S
O1026 C1025 1.235 . S
C1027 C1029 1.400 . S
C1027 N1030 1.351 . S
C1027 C1032 1.501 . S
C1028 C1029 1.387 . S
C1028 N1031 1.341 . S
C1029 C1027 1.400 . S
C1029 C1028 1.387 . S
N1030 Co1021 2.022 . S
N1030 C1027 1.351 . S
N1030 N1031 1.365 . S
N1031 C1028 1.341 . S
N1031 N1030 1.365 . S
N1031 H1051 0.862 . S
C1032 C1027 1.501 . S
C1032 H1033 0.961 . S
C1032 H1034 0.961 . S
C1032 H1035 0.960 . S
H1033 C1032 0.961 . S
H1034 C1032 0.961 . S
H1035 C1032 0.960 . S
C1036 N1037 1.342 . S
C1036 C1040 1.401 1_554 S
C1036 C1041 1.499 . S
N1037 Co1020 1.989 . S
N1037 C1036 1.342 . S
N1037 N1038 1.388 1_554 S
N1038 Co1021 1.993 . S
N1038 N1037 1.388 1_556 S
N1038 C1039 1.346 . S
C1039 N1038 1.346 . S
C1039 C1040 1.396 . S
C1039 C1049 1.510 . S
C1040 C1036 1.401 1_556 S
C1040 C1039 1.396 . S
C1041 C1036 1.499 . S
C1041 H1042 0.959 . S
C1041 H1043 0.960 . S
C1041 H1044 0.961 . S
H1042 C1041 0.959 . S
H1043 C1041 0.960 . S
H1044 C1041 0.961 . S
O1045 Co1020 1.967 . S
O1045 C1053 1.258 . S
O1046 Co1021 1.941 . S
O1046 C1053 1.266 1_556 S
H1047 C1049 0.959 . S
H1048 C1049 0.961 . S
C1049 C1039 1.510 . S
C1049 H1047 0.959 . S
C1049 H1048 0.961 . S
C1049 H1050 0.960 . S
H1050 C1049 0.960 . S
H1051 N1031 0.862 . S
O1052 Co1020 1.920 . S
O1052 C1025 1.289 . S
C1053 O1045 1.258 . S
C1053 O1046 1.266 1_554 S
Co1054 O1057 1.970 . S
Co1054 N1071 1.989 . S
Co1054 O1079 1.967 . S
Co1054 O1086 1.920 1_556 S
Co1055 O1058 1.966 . S
Co1055 N1064 2.022 . S
Co1055 N1072 1.993 . S
Co1055 O1080 1.941 . S
C1056 O1057 1.258 . S
C1056 O1058 1.263 . S
O1057 Co1054 1.970 . S
O1057 C1056 1.258 . S
O1058 Co1055 1.966 . S
O1058 C1056 1.263 . S
C1059 O1060 1.235 . S
C1059 O1086 1.289 . S
O1060 C1059 1.235 . S
C1061 C1063 1.400 . S
C1061 N1064 1.351 . S
C1061 C1066 1.501 . S
C1062 C1063 1.387 . S
C1062 N1065 1.341 . S
C1063 C1061 1.400 . S
C1063 C1062 1.387 . S
N1064 Co1055 2.022 . S
N1064 C1061 1.351 . S
N1064 N1065 1.365 . S
N1065 C1062 1.341 . S
N1065 N1064 1.365 . S
N1065 H1085 0.862 . S
C1066 C1061 1.501 . S
C1066 H1067 0.961 . S
C1066 H1068 0.961 . S
C1066 H1069 0.960 . S
H1067 C1066 0.961 . S
H1068 C1066 0.961 . S
H1069 C1066 0.960 . S
C1070 N1071 1.342 . S
C1070 C1074 1.401 . S
C1070 C1075 1.499 . S
N1071 Co1054 1.989 . S
N1071 C1070 1.342 . S
N1071 N1072 1.388 . S
N1072 Co1055 1.993 . S
N1072 N1071 1.388 . S
N1072 C1073 1.346 . S
C1073 N1072 1.346 . S
C1073 C1074 1.396 . S
C1073 C1083 1.510 . S
C1074 C1070 1.401 . S
C1074 C1073 1.396 . S
C1075 C1070 1.499 . S
C1075 H1076 0.959 . S
C1075 H1077 0.960 . S
C1075 H1078 0.961 . S
H1076 C1075 0.959 . S
H1077 C1075 0.960 . S
H1078 C1075 0.961 . S
O1079 Co1054 1.967 . S
O1079 C1087 1.258 . S
O1080 Co1055 1.941 . S
O1080 C1087 1.266 . S
H1081 C1083 0.959 . S
H1082 C1083 0.961 . S
C1083 C1073 1.510 . S
C1083 H1081 0.959 . S
C1083 H1082 0.961 . S
C1083 H1084 0.960 . S
H1084 C1083 0.960 . S
H1085 N1065 0.862 . S
O1086 Co1054 1.920 1_554 S
O1086 C1059 1.289 . S
C1087 O1079 1.258 . S
C1087 O1080 1.266 . S
C1088 C1089 1.387 . S
C1088 H1092 0.950 . S
C1088 C1097 1.390 . S
C1089 C1088 1.387 . S
C1089 C1091 1.387 1_554 S
H1090 C1097 0.950 . S
C1091 C1089 1.387 1_556 S
C1091 C1093 1.390 . S
C1091 H1095 0.950 . S
H1092 C1088 0.950 . S
C1093 C1091 1.390 . S
C1093 C1094 1.387 1_556 S
C1093 H1096 0.950 . S
C1094 C1093 1.387 1_554 S
C1094 C1097 1.387 . S
H1095 C1091 0.950 . S
H1096 C1093 0.950 . S
C1097 C1088 1.390 . S
C1097 H1090 0.950 . S
C1097 C1094 1.387 . S
C1098 C1099 1.387 . S
C1098 H1102 0.950 . S
C1098 C1107 1.390 1_455 S
C1099 C1098 1.387 . S
C1099 C1101 1.387 . S
H1100 C1107 0.950 . S
C1101 C1099 1.387 . S
C1101 C1103 1.390 1_455 S
C1101 H1105 0.950 . S
H1102 C1098 0.950 . S
C1103 C1101 1.390 1_655 S
C1103 C1104 1.387 . S
C1103 H1106 0.950 . S
C1104 C1103 1.387 . S
C1104 C1107 1.387 . S
H1105 C1101 0.950 . S
H1106 C1103 0.950 . S
C1107 C1098 1.390 1_655 S
C1107 H1100 0.950 . S
C1107 C1104 1.387 . S
C1108 C1109 1.387 . S
C1108 H1112 0.950 . S
C1108 C1117 1.390 . S
C1109 C1108 1.387 . S
C1109 C1111 1.387 . S
H1110 C1117 0.950 . S
C1111 C1109 1.387 . S
C1111 C1113 1.390 . S
C1111 H1115 0.950 . S
H1112 C1108 0.950 . S
C1113 C1111 1.390 . S
C1113 C1114 1.387 . S
C1113 H1116 0.950 . S
C1114 C1113 1.387 . S
C1114 C1117 1.387 . S
H1115 C1111 0.950 . S
H1116 C1113 0.950 . S
C1117 C1108 1.390 . S
C1117 H1110 0.950 . S
C1117 C1114 1.387 . S
C1118 C1119 1.387 . S
C1118 H1122 0.950 . S
C1118 C1127 1.390 . S
C1119 C1118 1.387 . S
C1119 C1121 1.387 . S
H1120 C1127 0.950 . S
C1121 C1119 1.387 . S
C1121 C1123 1.390 . S
C1121 H1125 0.950 . S
H1122 C1118 0.950 . S
C1123 C1121 1.390 . S
C1123 C1124 1.387 . S
C1123 H1126 0.950 . S
C1124 C1123 1.387 . S
C1124 C1127 1.387 . S
H1125 C1121 0.950 . S
H1126 C1123 0.950 . S
C1127 C1118 1.390 . S
C1127 H1120 0.950 . S
C1127 C1124 1.387 . S
C1128 C1129 1.387 . S
C1128 H1132 0.950 . S
C1128 C1137 1.390 . S
C1129 C1128 1.387 . S
C1129 C1131 1.387 1_556 S
H1130 C1137 0.950 . S
C1131 C1129 1.387 1_554 S
C1131 C1133 1.390 . S
C1131 H1135 0.950 . S
H1132 C1128 0.950 . S
C1133 C1131 1.390 . S
C1133 C1134 1.387 1_554 S
C1133 H1136 0.950 . S
C1134 C1133 1.387 1_556 S
C1134 C1137 1.387 . S
H1135 C1131 0.950 . S
H1136 C1133 0.950 . S
C1137 C1128 1.390 . S
C1137 H1130 0.950 . S
C1137 C1134 1.387 . S
C1138 C1139 1.387 . S
C1138 H1142 0.950 . S
C1138 C1147 1.390 . S
C1139 C1138 1.387 . S
C1139 C1141 1.387 . S
H1140 C1147 0.950 . S
C1141 C1139 1.387 . S
C1141 C1143 1.390 . S
C1141 H1145 0.950 . S
H1142 C1138 0.950 . S
C1143 C1141 1.390 . S
C1143 C1144 1.387 . S
C1143 H1146 0.950 . S
C1144 C1143 1.387 . S
C1144 C1147 1.387 . S
H1145 C1141 0.950 . S
H1146 C1143 0.950 . S
C1147 C1138 1.390 . S
C1147 H1140 0.950 . S
C1147 C1144 1.387 . S
C1148 C1149 1.387 . S
C1148 H1152 0.950 . S
C1148 C1157 1.390 . S
C1149 C1148 1.387 . S
C1149 C1151 1.387 . S
H1150 C1157 0.950 . S
C1151 C1149 1.387 . S
C1151 C1153 1.390 . S
C1151 H1155 0.950 . S
H1152 C1148 0.950 . S
C1153 C1151 1.390 . S
C1153 C1154 1.387 . S
C1153 H1156 0.950 . S
C1154 C1153 1.387 . S
C1154 C1157 1.387 . S
H1155 C1151 0.950 . S
H1156 C1153 0.950 . S
C1157 C1148 1.390 . S
C1157 H1150 0.950 . S
C1157 C1154 1.387 . S
C1158 C1159 1.387 . S
C1158 H1162 0.950 . S
C1158 C1167 1.390 1_655 S
C1159 C1158 1.387 . S
C1159 C1161 1.387 . S
H1160 C1167 0.950 . S
C1161 C1159 1.387 . S
C1161 C1163 1.390 1_655 S
C1161 H1165 0.950 . S
H1162 C1158 0.950 . S
C1163 C1161 1.390 1_455 S
C1163 C1164 1.387 . S
C1163 H1166 0.950 . S
C1164 C1163 1.387 . S
C1164 C1167 1.387 . S
H1165 C1161 0.950 . S
H1166 C1163 0.950 . S
C1167 C1158 1.390 1_455 S
C1167 H1160 0.950 . S
C1167 C1164 1.387 . S
C1168 C1169 1.387 1_554 S
C1168 H1172 0.950 . S
C1168 C1177 1.390 . S
C1169 C1168 1.387 1_556 S
C1169 C1171 1.387 . S
H1170 C1177 0.950 . S
C1171 C1169 1.387 . S
C1171 C1173 1.390 . S
C1171 H1175 0.950 . S
H1172 C1168 0.950 . S
C1173 C1171 1.390 . S
C1173 C1174 1.387 . S
C1173 H1176 0.950 . S
C1174 C1173 1.387 . S
C1174 C1177 1.387 1_556 S
H1175 C1171 0.950 . S
H1176 C1173 0.950 . S
C1177 C1168 1.390 . S
C1177 H1170 0.950 . S
C1177 C1174 1.387 1_554 S
C1178 C1179 1.387 . S
C1178 H1182 0.950 . S
C1178 C1187 1.390 . S
C1179 C1178 1.387 . S
C1179 C1181 1.387 . S
H1180 C1187 0.950 . S
C1181 C1179 1.387 . S
C1181 C1183 1.390 . S
C1181 H1185 0.950 . S
H1182 C1178 0.950 . S
C1183 C1181 1.390 . S
C1183 C1184 1.387 . S
C1183 H1186 0.950 . S
C1184 C1183 1.387 . S
C1184 C1187 1.387 . S
H1185 C1181 0.950 . S
H1186 C1183 0.950 . S
C1187 C1178 1.390 . S
C1187 H1180 0.950 . S
C1187 C1184 1.387 . S
C1188 C1189 1.387 . S
C1188 H1192 0.950 . S
C1188 C1197 1.390 . S
C1189 C1188 1.387 . S
C1189 C1191 1.387 . S
H1190 C1197 0.950 . S
C1191 C1189 1.387 . S
C1191 C1193 1.390 . S
C1191 H1195 0.950 . S
H1192 C1188 0.950 . S
C1193 C1191 1.390 . S
C1193 C1194 1.387 . S
C1193 H1196 0.950 . S
C1194 C1193 1.387 . S
C1194 C1197 1.387 . S
H1195 C1191 0.950 . S
H1196 C1193 0.950 . S
C1197 C1188 1.390 . S
C1197 H1190 0.950 . S
C1197 C1194 1.387 . S
C1198 C1199 1.387 . S
C1198 H1202 0.950 . S
C1198 C1207 1.390 . S
C1199 C1198 1.387 . S
C1199 C1201 1.387 . S
H1200 C1207 0.950 . S
C1201 C1199 1.387 . S
C1201 C1203 1.390 . S
C1201 H1205 0.950 . S
H1202 C1198 0.950 . S
C1203 C1201 1.390 . S
C1203 C1204 1.387 . S
C1203 H1206 0.950 . S
C1204 C1203 1.387 . S
C1204 C1207 1.387 . S
H1205 C1201 0.950 . S
H1206 C1203 0.950 . S
C1207 C1198 1.390 . S
C1207 H1200 0.950 . S
C1207 C1204 1.387 . S
C1208 C1209 1.387 . S
C1208 H1212 0.950 . S
C1208 C1217 1.390 . S
C1209 C1208 1.387 . S
C1209 C1211 1.387 . S
H1210 C1217 0.950 . S
C1211 C1209 1.387 . S
C1211 C1213 1.390 . S
C1211 H1215 0.950 . S
H1212 C1208 0.950 . S
C1213 C1211 1.390 . S
C1213 C1214 1.387 . S
C1213 H1216 0.950 . S
C1214 C1213 1.387 . S
C1214 C1217 1.387 . S
H1215 C1211 0.950 . S
H1216 C1213 0.950 . S
C1217 C1208 1.390 . S
C1217 H1210 0.950 . S
C1217 C1214 1.387 . S
C1218 C1219 1.387 . S
C1218 H1222 0.950 . S
C1218 C1227 1.390 1_455 S
C1219 C1218 1.387 . S
C1219 C1221 1.387 . S
H1220 C1227 0.950 . S
C1221 C1219 1.387 . S
C1221 C1223 1.390 1_455 S
C1221 H1225 0.950 . S
H1222 C1218 0.950 . S
C1223 C1221 1.390 1_655 S
C1223 C1224 1.387 . S
C1223 H1226 0.950 . S
C1224 C1223 1.387 . S
C1224 C1227 1.387 . S
H1225 C1221 0.950 . S
H1226 C1223 0.950 . S
C1227 C1218 1.390 1_655 S
C1227 H1220 0.950 . S
C1227 C1224 1.387 . S
C1228 C1229 1.387 . S
C1228 H1232 0.950 . S
C1228 C1237 1.390 1_455 S
C1229 C1228 1.387 . S
C1229 C1231 1.387 . S
H1230 C1237 0.950 . S
C1231 C1229 1.387 . S
C1231 C1233 1.390 1_455 S
C1231 H1235 0.950 . S
H1232 C1228 0.950 . S
C1233 C1231 1.390 1_655 S
C1233 C1234 1.387 . S
C1233 H1236 0.950 . S
C1234 C1233 1.387 . S
C1234 C1237 1.387 . S
H1235 C1231 0.950 . S
H1236 C1233 0.950 . S
C1237 C1228 1.390 1_655 S
C1237 H1230 0.950 . S
C1237 C1234 1.387 . S
C1238 C1239 1.387 . S
C1238 H1242 0.950 . S
C1238 C1247 1.390 . S
C1239 C1238 1.387 . S
C1239 C1241 1.387 . S
H1240 C1247 0.950 . S
C1241 C1239 1.387 . S
C1241 C1243 1.390 . S
C1241 H1245 0.950 . S
H1242 C1238 0.950 . S
C1243 C1241 1.390 . S
C1243 C1244 1.387 . S
C1243 H1246 0.950 . S
C1244 C1243 1.387 . S
C1244 C1247 1.387 . S
H1245 C1241 0.950 . S
H1246 C1243 0.950 . S
C1247 C1238 1.390 . S
C1247 H1240 0.950 . S
C1247 C1244 1.387 . S
C1248 C1249 1.387 . S
C1248 H1252 0.950 . S
C1248 C1257 1.390 . S
C1249 C1248 1.387 . S
C1249 C1251 1.387 . S
H1250 C1257 0.950 . S
C1251 C1249 1.387 . S
C1251 C1253 1.390 . S
C1251 H1255 0.950 . S
H1252 C1248 0.950 . S
C1253 C1251 1.390 . S
C1253 C1254 1.387 . S
C1253 H1256 0.950 . S
C1254 C1253 1.387 . S
C1254 C1257 1.387 . S
H1255 C1251 0.950 . S
H1256 C1253 0.950 . S
C1257 C1248 1.390 . S
C1257 H1250 0.950 . S
C1257 C1254 1.387 . S
C1258 C1259 1.387 . S
C1258 H1262 0.950 . S
C1258 C1267 1.390 . S
C1259 C1258 1.387 . S
C1259 C1261 1.387 . S
H1260 C1267 0.950 . S
C1261 C1259 1.387 . S
C1261 C1263 1.390 . S
C1261 H1265 0.950 . S
H1262 C1258 0.950 . S
C1263 C1261 1.390 . S
C1263 C1264 1.387 . S
C1263 H1266 0.950 . S
C1264 C1263 1.387 . S
C1264 C1267 1.387 . S
H1265 C1261 0.950 . S
H1266 C1263 0.950 . S
C1267 C1258 1.390 . S
C1267 H1260 0.950 . S
C1267 C1264 1.387 . S
C1268 C1269 1.387 . S
C1268 H1272 0.950 . S
C1268 C1277 1.390 1_556 S
C1269 C1268 1.387 . S
C1269 C1271 1.387 . S
H1270 C1277 0.950 . S
C1271 C1269 1.387 . S
C1271 C1273 1.390 . S
C1271 H1275 0.950 . S
H1272 C1268 0.950 . S
C1273 C1271 1.390 . S
C1273 C1274 1.387 1_556 S
C1273 H1276 0.950 . S
C1274 C1273 1.387 1_554 S
C1274 C1277 1.387 . S
H1275 C1271 0.950 . S
H1276 C1273 0.950 . S
C1277 C1268 1.390 1_554 S
C1277 H1270 0.950 . S
C1277 C1274 1.387 . S
C1278 C1279 1.387 . S
C1278 H1282 0.950 . S
C1278 C1287 1.390 . S
C1279 C1278 1.387 . S
C1279 C1281 1.387 . S
H1280 C1287 0.950 . S
C1281 C1279 1.387 . S
C1281 C1283 1.390 . S
C1281 H1285 0.950 . S
H1282 C1278 0.950 . S
C1283 C1281 1.390 . S
C1283 C1284 1.387 . S
C1283 H1286 0.950 . S
C1284 C1283 1.387 . S
C1284 C1287 1.387 . S
H1285 C1281 0.950 . S
H1286 C1283 0.950 . S
C1287 C1278 1.390 . S
C1287 H1280 0.950 . S
C1287 C1284 1.387 . S
C1288 C1289 1.387 . S
C1288 H1292 0.950 . S
C1288 C1297 1.390 . S
C1289 C1288 1.387 . S
C1289 C1291 1.387 . S
H1290 C1297 0.950 . S
C1291 C1289 1.387 . S
C1291 C1293 1.390 . S
C1291 H1295 0.950 . S
H1292 C1288 0.950 . S
C1293 C1291 1.390 . S
C1293 C1294 1.387 . S
C1293 H1296 0.950 . S
C1294 C1293 1.387 . S
C1294 C1297 1.387 . S
H1295 C1291 0.950 . S
H1296 C1293 0.950 . S
C1297 C1288 1.390 . S
C1297 H1290 0.950 . S
C1297 C1294 1.387 . S
C1298 C1299 1.387 . S
C1298 H1302 0.950 . S
C1298 C1307 1.390 . S
C1299 C1298 1.387 . S
C1299 C1301 1.387 . S
H1300 C1307 0.950 . S
C1301 C1299 1.387 . S
C1301 C1303 1.390 . S
C1301 H1305 0.950 . S
H1302 C1298 0.950 . S
C1303 C1301 1.390 . S
C1303 C1304 1.387 . S
C1303 H1306 0.950 . S
C1304 C1303 1.387 . S
C1304 C1307 1.387 . S
H1305 C1301 0.950 . S
H1306 C1303 0.950 . S
C1307 C1298 1.390 . S
C1307 H1300 0.950 . S
C1307 C1304 1.387 . S
C1308 C1309 1.387 . S
C1308 H1312 0.950 . S
C1308 C1317 1.390 1_556 S
C1309 C1308 1.387 . S
C1309 C1311 1.387 . S
H1310 C1317 0.950 . S
C1311 C1309 1.387 . S
C1311 C1313 1.390 1_556 S
C1311 H1315 0.950 . S
H1312 C1308 0.950 . S
C1313 C1311 1.390 1_554 S
C1313 C1314 1.387 . S
C1313 H1316 0.950 . S
C1314 C1313 1.387 . S
C1314 C1317 1.387 . S
H1315 C1311 0.950 . S
H1316 C1313 0.950 . S
C1317 C1308 1.390 1_554 S
C1317 H1310 0.950 . S
C1317 C1314 1.387 . S
C1318 C1319 1.387 . S
C1318 H1322 0.950 . S
C1318 C1327 1.390 . S
C1319 C1318 1.387 . S
C1319 C1321 1.387 . S
H1320 C1327 0.950 . S
C1321 C1319 1.387 . S
C1321 C1323 1.390 . S
C1321 H1325 0.950 . S
H1322 C1318 0.950 . S
C1323 C1321 1.390 . S
C1323 C1324 1.387 . S
C1323 H1326 0.950 . S
C1324 C1323 1.387 . S
C1324 C1327 1.387 . S
H1325 C1321 0.950 . S
H1326 C1323 0.950 . S
C1327 C1318 1.390 . S
C1327 H1320 0.950 . S
C1327 C1324 1.387 . S
C1328 C1329 1.387 . S
C1328 H1332 0.950 . S
C1328 C1337 1.390 . S
C1329 C1328 1.387 . S
C1329 C1331 1.387 . S
H1330 C1337 0.950 . S
C1331 C1329 1.387 . S
C1331 C1333 1.390 . S
C1331 H1335 0.950 . S
H1332 C1328 0.950 . S
C1333 C1331 1.390 . S
C1333 C1334 1.387 . S
C1333 H1336 0.950 . S
C1334 C1333 1.387 . S
C1334 C1337 1.387 . S
H1335 C1331 0.950 . S
H1336 C1333 0.950 . S
C1337 C1328 1.390 . S
C1337 H1330 0.950 . S
C1337 C1334 1.387 . S
C1338 C1339 1.387 . S
C1338 H1342 0.950 . S
C1338 C1347 1.390 . S
C1339 C1338 1.387 . S
C1339 C1341 1.387 . S
H1340 C1347 0.950 . S
C1341 C1339 1.387 . S
C1341 C1343 1.390 . S
C1341 H1345 0.950 . S
H1342 C1338 0.950 . S
C1343 C1341 1.390 . S
C1343 C1344 1.387 . S
C1343 H1346 0.950 . S
C1344 C1343 1.387 . S
C1344 C1347 1.387 . S
H1345 C1341 0.950 . S
H1346 C1343 0.950 . S
C1347 C1338 1.390 . S
C1347 H1340 0.950 . S
C1347 C1344 1.387 . S
C1348 C1349 1.387 . S
C1348 H1352 0.950 . S
C1348 C1357 1.390 1_554 S
C1349 C1348 1.387 . S
C1349 C1351 1.387 . S
H1350 C1357 0.950 . S
C1351 C1349 1.387 . S
C1351 C1353 1.390 1_554 S
C1351 H1355 0.950 . S
H1352 C1348 0.950 . S
C1353 C1351 1.390 1_556 S
C1353 C1354 1.387 . S
C1353 H1356 0.950 . S
C1354 C1353 1.387 . S
C1354 C1357 1.387 . S
H1355 C1351 0.950 . S
H1356 C1353 0.950 . S
C1357 C1348 1.390 1_556 S
C1357 H1350 0.950 . S
C1357 C1354 1.387 . S
C1358 C1359 1.387 . S
C1358 H1362 0.950 . S
C1358 C1367 1.390 . S
C1359 C1358 1.387 . S
C1359 C1361 1.387 . S
H1360 C1367 0.950 . S
C1361 C1359 1.387 . S
C1361 C1363 1.390 . S
C1361 H1365 0.950 . S
H1362 C1358 0.950 . S
C1363 C1361 1.390 . S
C1363 C1364 1.387 . S
C1363 H1366 0.950 . S
C1364 C1363 1.387 . S
C1364 C1367 1.387 . S
H1365 C1361 0.950 . S
H1366 C1363 0.950 . S
C1367 C1358 1.390 . S
C1367 H1360 0.950 . S
C1367 C1364 1.387 . S
C1368 C1369 1.387 . S
C1368 H1372 0.950 . S
C1368 C1377 1.390 . S
C1369 C1368 1.387 . S
C1369 C1371 1.387 . S
H1370 C1377 0.950 . S
C1371 C1369 1.387 . S
C1371 C1373 1.390 . S
C1371 H1375 0.950 . S
H1372 C1368 0.950 . S
C1373 C1371 1.390 . S
C1373 C1374 1.387 . S
C1373 H1376 0.950 . S
C1374 C1373 1.387 . S
C1374 C1377 1.387 . S
H1375 C1371 0.950 . S
H1376 C1373 0.950 . S
C1377 C1368 1.390 . S
C1377 H1370 0.950 . S
C1377 C1374 1.387 . S
C1378 C1379 1.387 . S
C1378 H1382 0.950 . S
C1378 C1387 1.390 . S
C1379 C1378 1.387 . S
C1379 C1381 1.387 . S
H1380 C1387 0.950 . S
C1381 C1379 1.387 . S
C1381 C1383 1.390 . S
C1381 H1385 0.950 . S
H1382 C1378 0.950 . S
C1383 C1381 1.390 . S
C1383 C1384 1.387 . S
C1383 H1386 0.950 . S
C1384 C1383 1.387 . S
C1384 C1387 1.387 . S
H1385 C1381 0.950 . S
H1386 C1383 0.950 . S
C1387 C1378 1.390 . S
C1387 H1380 0.950 . S
C1387 C1384 1.387 . S
C1388 C1389 1.387 . S
C1388 H1392 0.950 . S
C1388 C1397 1.390 1_556 S
C1389 C1388 1.387 . S
C1389 C1391 1.387 . S
H1390 C1397 0.950 . S
C1391 C1389 1.387 . S
C1391 C1393 1.390 1_556 S
C1391 H1395 0.950 . S
H1392 C1388 0.950 . S
C1393 C1391 1.390 1_554 S
C1393 C1394 1.387 . S
C1393 H1396 0.950 . S
C1394 C1393 1.387 . S
C1394 C1397 1.387 . S
H1395 C1391 0.950 . S
H1396 C1393 0.950 . S
C1397 C1388 1.390 1_554 S
C1397 H1390 0.950 . S
C1397 C1394 1.387 . S
C1398 C1399 1.387 . S
C1398 H1402 0.950 . S
C1398 C1407 1.390 . S
C1399 C1398 1.387 . S
C1399 C1401 1.387 . S
H1400 C1407 0.950 . S
C1401 C1399 1.387 . S
C1401 C1403 1.390 . S
C1401 H1405 0.950 . S
H1402 C1398 0.950 . S
C1403 C1401 1.390 . S
C1403 C1404 1.387 . S
C1403 H1406 0.950 . S
C1404 C1403 1.387 . S
C1404 C1407 1.387 . S
H1405 C1401 0.950 . S
H1406 C1403 0.950 . S
C1407 C1398 1.390 . S
C1407 H1400 0.950 . S
C1407 C1404 1.387 . S
C1408 C1409 1.387 . S
C1408 H1412 0.950 . S
C1408 C1417 1.390 1_554 S
C1409 C1408 1.387 . S
C1409 C1411 1.387 . S
H1410 C1417 0.950 . S
C1411 C1409 1.387 . S
C1411 C1413 1.390 1_554 S
C1411 H1415 0.950 . S
H1412 C1408 0.950 . S
C1413 C1411 1.390 1_556 S
C1413 C1414 1.387 . S
C1413 H1416 0.950 . S
C1414 C1413 1.387 . S
C1414 C1417 1.387 . S
H1415 C1411 0.950 . S
H1416 C1413 0.950 . S
C1417 C1408 1.390 1_556 S
C1417 H1410 0.950 . S
C1417 C1414 1.387 . S
C1418 C1419 1.387 . S
C1418 H1422 0.950 . S
C1418 C1427 1.390 . S
C1419 C1418 1.387 . S
C1419 C1421 1.387 . S
H1420 C1427 0.950 . S
C1421 C1419 1.387 . S
C1421 C1423 1.390 . S
C1421 H1425 0.950 . S
H1422 C1418 0.950 . S
C1423 C1421 1.390 . S
C1423 C1424 1.387 . S
C1423 H1426 0.950 . S
C1424 C1423 1.387 . S
C1424 C1427 1.387 . S
H1425 C1421 0.950 . S
H1426 C1423 0.950 . S
C1427 C1418 1.390 . S
C1427 H1420 0.950 . S
C1427 C1424 1.387 . S
C1428 C1429 1.387 . S
C1428 H1432 0.950 . S
C1428 C1437 1.390 . S
C1429 C1428 1.387 . S
C1429 C1431 1.387 . S
H1430 C1437 0.950 . S
C1431 C1429 1.387 . S
C1431 C1433 1.390 . S
C1431 H1435 0.950 . S
H1432 C1428 0.950 . S
C1433 C1431 1.390 . S
C1433 C1434 1.387 . S
C1433 H1436 0.950 . S
C1434 C1433 1.387 . S
C1434 C1437 1.387 . S
H1435 C1431 0.950 . S
H1436 C1433 0.950 . S
C1437 C1428 1.390 . S
C1437 H1430 0.950 . S
C1437 C1434 1.387 . S
C1438 C1439 1.387 . S
C1438 H1442 0.950 . S
C1438 C1447 1.390 . S
C1439 C1438 1.387 . S
C1439 C1441 1.387 . S
H1440 C1447 0.950 . S
C1441 C1439 1.387 . S
C1441 C1443 1.390 . S
C1441 H1445 0.950 . S
H1442 C1438 0.950 . S
C1443 C1441 1.390 . S
C1443 C1444 1.387 . S
C1443 H1446 0.950 . S
C1444 C1443 1.387 . S
C1444 C1447 1.387 . S
H1445 C1441 0.950 . S
H1446 C1443 0.950 . S
C1447 C1438 1.390 . S
C1447 H1440 0.950 . S
C1447 C1444 1.387 . S
C1448 C1449 1.387 . S
C1448 H1452 0.950 . S
C1448 C1457 1.390 1_556 S
C1449 C1448 1.387 . S
C1449 C1451 1.387 . S
H1450 C1457 0.950 . S
C1451 C1449 1.387 . S
C1451 C1453 1.390 1_556 S
C1451 H1455 0.950 . S
H1452 C1448 0.950 . S
C1453 C1451 1.390 1_554 S
C1453 C1454 1.387 . S
C1453 H1456 0.950 . S
C1454 C1453 1.387 . S
C1454 C1457 1.387 . S
H1455 C1451 0.950 . S
H1456 C1453 0.950 . S
C1457 C1448 1.390 1_554 S
C1457 H1450 0.950 . S
C1457 C1454 1.387 . S
C1458 C1459 1.387 . S
C1458 H1462 0.950 . S
C1458 C1467 1.390 . S
C1459 C1458 1.387 . S
C1459 C1461 1.387 . S
H1460 C1467 0.950 . S
C1461 C1459 1.387 . S
C1461 C1463 1.390 . S
C1461 H1465 0.950 . S
H1462 C1458 0.950 . S
C1463 C1461 1.390 . S
C1463 C1464 1.387 . S
C1463 H1466 0.950 . S
C1464 C1463 1.387 . S
C1464 C1467 1.387 . S
H1465 C1461 0.950 . S
H1466 C1463 0.950 . S
C1467 C1458 1.390 . S
C1467 H1460 0.950 . S
C1467 C1464 1.387 . S
C1468 C1469 1.387 . S
C1468 H1472 0.950 . S
C1468 C1477 1.390 . S
C1469 C1468 1.387 . S
C1469 C1471 1.387 . S
H1470 C1477 0.950 . S
C1471 C1469 1.387 . S
C1471 C1473 1.390 . S
C1471 H1475 0.950 . S
H1472 C1468 0.950 . S
C1473 C1471 1.390 . S
C1473 C1474 1.387 . S
C1473 H1476 0.950 . S
C1474 C1473 1.387 . S
C1474 C1477 1.387 . S
H1475 C1471 0.950 . S
H1476 C1473 0.950 . S
C1477 C1468 1.390 . S
C1477 H1470 0.950 . S
C1477 C1474 1.387 . S
C1478 C1479 1.387 . S
C1478 H1482 0.950 . S
C1478 C1487 1.390 . S
C1479 C1478 1.387 . S
C1479 C1481 1.387 . S
H1480 C1487 0.950 . S
C1481 C1479 1.387 . S
C1481 C1483 1.390 . S
C1481 H1485 0.950 . S
H1482 C1478 0.950 . S
C1483 C1481 1.390 . S
C1483 C1484 1.387 . S
C1483 H1486 0.950 . S
C1484 C1483 1.387 . S
C1484 C1487 1.387 . S
H1485 C1481 0.950 . S
H1486 C1483 0.950 . S
C1487 C1478 1.390 . S
C1487 H1480 0.950 . S
C1487 C1484 1.387 . S
C1488 C1489 1.387 . S
C1488 H1492 0.950 . S
C1488 C1497 1.390 1_556 S
C1489 C1488 1.387 . S
C1489 C1491 1.387 . S
H1490 C1497 0.950 . S
C1491 C1489 1.387 . S
C1491 C1493 1.390 1_556 S
C1491 H1495 0.950 . S
H1492 C1488 0.950 . S
C1493 C1491 1.390 1_554 S
C1493 C1494 1.387 . S
C1493 H1496 0.950 . S
C1494 C1493 1.387 . S
C1494 C1497 1.387 . S
H1495 C1491 0.950 . S
H1496 C1493 0.950 . S
C1497 C1488 1.390 1_554 S
C1497 H1490 0.950 . S
C1497 C1494 1.387 . S
C1498 C1499 1.387 . S
C1498 H1502 0.950 . S
C1498 C1507 1.390 . S
C1499 C1498 1.387 . S
C1499 C1501 1.387 . S
H1500 C1507 0.950 . S
C1501 C1499 1.387 . S
C1501 C1503 1.390 . S
C1501 H1505 0.950 . S
H1502 C1498 0.950 . S
C1503 C1501 1.390 . S
C1503 C1504 1.387 . S
C1503 H1506 0.950 . S
C1504 C1503 1.387 . S
C1504 C1507 1.387 . S
H1505 C1501 0.950 . S
H1506 C1503 0.950 . S
C1507 C1498 1.390 . S
C1507 H1500 0.950 . S
C1507 C1504 1.387 . S
C1508 C1509 1.387 . S
C1508 H1512 0.950 . S
C1508 C1517 1.390 . S
C1509 C1508 1.387 . S
C1509 C1511 1.387 . S
H1510 C1517 0.950 . S
C1511 C1509 1.387 . S
C1511 C1513 1.390 . S
C1511 H1515 0.950 . S
H1512 C1508 0.950 . S
C1513 C1511 1.390 . S
C1513 C1514 1.387 . S
C1513 H1516 0.950 . S
C1514 C1513 1.387 . S
C1514 C1517 1.387 . S
H1515 C1511 0.950 . S
H1516 C1513 0.950 . S
C1517 C1508 1.390 . S
C1517 H1510 0.950 . S
C1517 C1514 1.387 . S
C1518 C1519 1.387 . S
C1518 H1522 0.950 . S
C1518 C1527 1.390 . S
C1519 C1518 1.387 . S
C1519 C1521 1.387 . S
H1520 C1527 0.950 . S
C1521 C1519 1.387 . S
C1521 C1523 1.390 . S
C1521 H1525 0.950 . S
H1522 C1518 0.950 . S
C1523 C1521 1.390 . S
C1523 C1524 1.387 . S
C1523 H1526 0.950 . S
C1524 C1523 1.387 . S
C1524 C1527 1.387 . S
H1525 C1521 0.950 . S
H1526 C1523 0.950 . S
C1527 C1518 1.390 . S
C1527 H1520 0.950 . S
C1527 C1524 1.387 . S
C1528 C1529 1.387 . S
C1528 H1532 0.950 . S
C1528 C1537 1.390 1_554 S
C1529 C1528 1.387 . S
C1529 C1531 1.387 . S
H1530 C1537 0.950 . S
C1531 C1529 1.387 . S
C1531 C1533 1.390 1_554 S
C1531 H1535 0.950 . S
H1532 C1528 0.950 . S
C1533 C1531 1.390 1_556 S
C1533 C1534 1.387 . S
C1533 H1536 0.950 . S
C1534 C1533 1.387 . S
C1534 C1537 1.387 . S
H1535 C1531 0.950 . S
H1536 C1533 0.950 . S
C1537 C1528 1.390 1_556 S
C1537 H1530 0.950 . S
C1537 C1534 1.387 . S
C1538 C1539 1.387 . S
C1538 H1542 0.950 . S
C1538 C1547 1.390 . S
C1539 C1538 1.387 . S
C1539 C1541 1.387 . S
H1540 C1547 0.950 . S
C1541 C1539 1.387 . S
C1541 C1543 1.390 . S
C1541 H1545 0.950 . S
H1542 C1538 0.950 . S
C1543 C1541 1.390 . S
C1543 C1544 1.387 . S
C1543 H1546 0.950 . S
C1544 C1543 1.387 . S
C1544 C1547 1.387 . S
H1545 C1541 0.950 . S
H1546 C1543 0.950 . S
C1547 C1538 1.390 . S
C1547 H1540 0.950 . S
C1547 C1544 1.387 . S
C1548 C1549 1.387 . S
C1548 H1552 0.950 . S
C1548 C1557 1.390 . S
C1549 C1548 1.387 . S
C1549 C1551 1.387 . S
H1550 C1557 0.950 . S
C1551 C1549 1.387 . S
C1551 C1553 1.390 . S
C1551 H1555 0.950 . S
H1552 C1548 0.950 . S
C1553 C1551 1.390 . S
C1553 C1554 1.387 . S
C1553 H1556 0.950 . S
C1554 C1553 1.387 . S
C1554 C1557 1.387 . S
H1555 C1551 0.950 . S
H1556 C1553 0.950 . S
C1557 C1548 1.390 . S
C1557 H1550 0.950 . S
C1557 C1554 1.387 . S
C1558 C1559 1.387 . S
C1558 H1562 0.950 . S
C1558 C1567 1.390 . S
C1559 C1558 1.387 . S
C1559 C1561 1.387 . S
H1560 C1567 0.950 . S
C1561 C1559 1.387 . S
C1561 C1563 1.390 . S
C1561 H1565 0.950 . S
H1562 C1558 0.950 . S
C1563 C1561 1.390 . S
C1563 C1564 1.387 . S
C1563 H1566 0.950 . S
C1564 C1563 1.387 . S
C1564 C1567 1.387 . S
H1565 C1561 0.950 . S
H1566 C1563 0.950 . S
C1567 C1558 1.390 . S
C1567 H1560 0.950 . S
C1567 C1564 1.387 . S
C1568 C1569 1.387 . S
C1568 H1572 0.950 . S
C1568 C1577 1.390 . S
C1569 C1568 1.387 . S
C1569 C1571 1.387 . S
H1570 C1577 0.950 . S
C1571 C1569 1.387 . S
C1571 C1573 1.390 . S
C1571 H1575 0.950 . S
H1572 C1568 0.950 . S
C1573 C1571 1.390 . S
C1573 C1574 1.387 . S
C1573 H1576 0.950 . S
C1574 C1573 1.387 . S
C1574 C1577 1.387 . S
H1575 C1571 0.950 . S
H1576 C1573 0.950 . S
C1577 C1568 1.390 . S
C1577 H1570 0.950 . S
C1577 C1574 1.387 . S
C1578 C1579 1.387 . S
C1578 H1582 0.950 . S
C1578 C1587 1.390 1_545 S
C1579 C1578 1.387 . S
C1579 C1581 1.387 . S
H1580 C1587 0.950 . S
C1581 C1579 1.387 . S
C1581 C1583 1.390 1_545 S
C1581 H1585 0.950 . S
H1582 C1578 0.950 . S
C1583 C1581 1.390 1_565 S
C1583 C1584 1.387 . S
C1583 H1586 0.950 . S
C1584 C1583 1.387 . S
C1584 C1587 1.387 . S
H1585 C1581 0.950 . S
H1586 C1583 0.950 . S
C1587 C1578 1.390 1_565 S
C1587 H1580 0.950 . S
C1587 C1584 1.387 . S
C1588 C1589 1.387 . S
C1588 H1592 0.950 . S
C1588 C1597 1.390 . S
C1589 C1588 1.387 . S
C1589 C1591 1.387 . S
H1590 C1597 0.950 . S
C1591 C1589 1.387 . S
C1591 C1593 1.390 . S
C1591 H1595 0.950 . S
H1592 C1588 0.950 . S
C1593 C1591 1.390 . S
C1593 C1594 1.387 . S
C1593 H1596 0.950 . S
C1594 C1593 1.387 . S
C1594 C1597 1.387 . S
H1595 C1591 0.950 . S
H1596 C1593 0.950 . S
C1597 C1588 1.390 . S
C1597 H1590 0.950 . S
C1597 C1594 1.387 . S
C1598 C1599 1.387 . S
C1598 H1602 0.950 . S
C1598 C1607 1.390 1_564 S
C1599 C1598 1.387 . S
C1599 C1601 1.387 . S
H1600 C1607 0.950 . S
C1601 C1599 1.387 . S
C1601 C1603 1.390 1_564 S
C1601 H1605 0.950 . S
H1602 C1598 0.950 . S
C1603 C1601 1.390 1_546 S
C1603 C1604 1.387 . S
C1603 H1606 0.950 . S
C1604 C1603 1.387 . S
C1604 C1607 1.387 . S
H1605 C1601 0.950 . S
H1606 C1603 0.950 . S
C1607 C1598 1.390 1_546 S
C1607 H1600 0.950 . S
C1607 C1604 1.387 . S
C1608 C1609 1.387 . S
C1608 H1612 0.950 . S
C1608 C1617 1.390 . S
C1609 C1608 1.387 . S
C1609 C1611 1.387 . S
H1610 C1617 0.950 . S
C1611 C1609 1.387 . S
C1611 C1613 1.390 . S
C1611 H1615 0.950 . S
H1612 C1608 0.950 . S
C1613 C1611 1.390 . S
C1613 C1614 1.387 . S
C1613 H1616 0.950 . S
C1614 C1613 1.387 . S
C1614 C1617 1.387 . S
H1615 C1611 0.950 . S
H1616 C1613 0.950 . S
C1617 C1608 1.390 . S
C1617 H1610 0.950 . S
C1617 C1614 1.387 . S
C1618 C1619 1.387 . S
C1618 H1622 0.950 . S
C1618 C1627 1.390 1_545 S
C1619 C1618 1.387 . S
C1619 C1621 1.387 . S
H1620 C1627 0.950 . S
C1621 C1619 1.387 . S
C1621 C1623 1.390 1_545 S
C1621 H1625 0.950 . S
H1622 C1618 0.950 . S
C1623 C1621 1.390 1_565 S
C1623 C1624 1.387 . S
C1623 H1626 0.950 . S
C1624 C1623 1.387 . S
C1624 C1627 1.387 . S
H1625 C1621 0.950 . S
H1626 C1623 0.950 . S
C1627 C1618 1.390 1_565 S
C1627 H1620 0.950 . S
C1627 C1624 1.387 . S
C1628 C1629 1.387 . S
C1628 H1632 0.950 . S
C1628 C1637 1.390 . S
C1629 C1628 1.387 . S
C1629 C1631 1.387 . S
H1630 C1637 0.950 . S
C1631 C1629 1.387 . S
C1631 C1633 1.390 . S
C1631 H1635 0.950 . S
H1632 C1628 0.950 . S
C1633 C1631 1.390 . S
C1633 C1634 1.387 . S
C1633 H1636 0.950 . S
C1634 C1633 1.387 . S
C1634 C1637 1.387 . S
H1635 C1631 0.950 . S
H1636 C1633 0.950 . S
C1637 C1628 1.390 . S
C1637 H1630 0.950 . S
C1637 C1634 1.387 . S
C1638 C1639 1.387 . S
C1638 H1642 0.950 . S
C1638 C1647 1.390 1_546 S
C1639 C1638 1.387 . S
C1639 C1641 1.387 . S
H1640 C1647 0.950 . S
C1641 C1639 1.387 . S
C1641 C1643 1.390 1_546 S
C1641 H1645 0.950 . S
H1642 C1638 0.950 . S
C1643 C1641 1.390 1_564 S
C1643 C1644 1.387 . S
C1643 H1646 0.950 . S
C1644 C1643 1.387 . S
C1644 C1647 1.387 . S
H1645 C1641 0.950 . S
H1646 C1643 0.950 . S
C1647 C1638 1.390 1_564 S
C1647 H1640 0.950 . S
C1647 C1644 1.387 . S
C1648 C1649 1.387 . S
C1648 H1652 0.950 . S
C1648 C1657 1.390 . S
C1649 C1648 1.387 . S
C1649 C1651 1.387 . S
H1650 C1657 0.950 . S
C1651 C1649 1.387 . S
C1651 C1653 1.390 . S
C1651 H1655 0.950 . S
H1652 C1648 0.950 . S
C1653 C1651 1.390 . S
C1653 C1654 1.387 . S
C1653 H1656 0.950 . S
C1654 C1653 1.387 . S
C1654 C1657 1.387 . S
H1655 C1651 0.950 . S
H1656 C1653 0.950 . S
C1657 C1648 1.390 . S
C1657 H1650 0.950 . S
C1657 C1654 1.387 . S
C1658 C1659 1.387 . S
C1658 H1662 0.950 . S
C1658 C1667 1.390 1_556 S
C1659 C1658 1.387 . S
C1659 C1661 1.387 . S
H1660 C1667 0.950 . S
C1661 C1659 1.387 . S
C1661 C1663 1.390 1_556 S
C1661 H1665 0.950 . S
H1662 C1658 0.950 . S
C1663 C1661 1.390 1_554 S
C1663 C1664 1.387 . S
C1663 H1666 0.950 . S
C1664 C1663 1.387 . S
C1664 C1667 1.387 . S
H1665 C1661 0.950 . S
H1666 C1663 0.950 . S
C1667 C1658 1.390 1_554 S
C1667 H1660 0.950 . S
C1667 C1664 1.387 . S
C1668 C1669 1.387 . S
C1668 H1672 0.950 . S
C1668 C1677 1.390 . S
C1669 C1668 1.387 . S
C1669 C1671 1.387 . S
H1670 C1677 0.950 . S
C1671 C1669 1.387 . S
C1671 C1673 1.390 . S
C1671 H1675 0.950 . S
H1672 C1668 0.950 . S
C1673 C1671 1.390 . S
C1673 C1674 1.387 . S
C1673 H1676 0.950 . S
C1674 C1673 1.387 . S
C1674 C1677 1.387 . S
H1675 C1671 0.950 . S
H1676 C1673 0.950 . S
C1677 C1668 1.390 . S
C1677 H1670 0.950 . S
C1677 C1674 1.387 . S
C1678 C1679 1.387 . S
C1678 H1682 0.950 . S
C1678 C1687 1.390 . S
C1679 C1678 1.387 . S
C1679 C1681 1.387 . S
H1680 C1687 0.950 . S
C1681 C1679 1.387 . S
C1681 C1683 1.390 . S
C1681 H1685 0.950 . S
H1682 C1678 0.950 . S
C1683 C1681 1.390 . S
C1683 C1684 1.387 . S
C1683 H1686 0.950 . S
C1684 C1683 1.387 . S
C1684 C1687 1.387 . S
H1685 C1681 0.950 . S
H1686 C1683 0.950 . S
C1687 C1678 1.390 . S
C1687 H1680 0.950 . S
C1687 C1684 1.387 . S
C1688 C1689 1.387 . S
C1688 H1692 0.950 . S
C1688 C1697 1.390 . S
C1689 C1688 1.387 . S
C1689 C1691 1.387 . S
H1690 C1697 0.950 . S
C1691 C1689 1.387 . S
C1691 C1693 1.390 . S
C1691 H1695 0.950 . S
H1692 C1688 0.950 . S
C1693 C1691 1.390 . S
C1693 C1694 1.387 . S
C1693 H1696 0.950 . S
C1694 C1693 1.387 . S
C1694 C1697 1.387 . S
H1695 C1691 0.950 . S
H1696 C1693 0.950 . S
C1697 C1688 1.390 . S
C1697 H1690 0.950 . S
C1697 C1694 1.387 . S
C1698 C1699 1.387 . S
C1698 H1702 0.950 . S
C1698 C1707 1.390 1_556 S
C1699 C1698 1.387 . S
C1699 C1701 1.387 . S
H1700 C1707 0.950 . S
C1701 C1699 1.387 . S
C1701 C1703 1.390 1_556 S
C1701 H1705 0.950 . S
H1702 C1698 0.950 . S
C1703 C1701 1.390 1_554 S
C1703 C1704 1.387 . S
C1703 H1706 0.950 . S
C1704 C1703 1.387 . S
C1704 C1707 1.387 . S
H1705 C1701 0.950 . S
H1706 C1703 0.950 . S
C1707 C1698 1.390 1_554 S
C1707 H1700 0.950 . S
C1707 C1704 1.387 . S
C1708 C1709 1.387 . S
C1708 H1712 0.950 . S
C1708 C1717 1.390 . S
C1709 C1708 1.387 . S
C1709 C1711 1.387 . S
H1710 C1717 0.950 . S
C1711 C1709 1.387 . S
C1711 C1713 1.390 . S
C1711 H1715 0.950 . S
H1712 C1708 0.950 . S
C1713 C1711 1.390 . S
C1713 C1714 1.387 . S
C1713 H1716 0.950 . S
C1714 C1713 1.387 . S
C1714 C1717 1.387 . S
H1715 C1711 0.950 . S
H1716 C1713 0.950 . S
C1717 C1708 1.390 . S
C1717 H1710 0.950 . S
C1717 C1714 1.387 . S
C1718 C1719 1.387 . S
C1718 H1722 0.950 . S
C1718 C1727 1.390 . S
C1719 C1718 1.387 . S
C1719 C1721 1.387 . S
H1720 C1727 0.950 . S
C1721 C1719 1.387 . S
C1721 C1723 1.390 . S
C1721 H1725 0.950 . S
H1722 C1718 0.950 . S
C1723 C1721 1.390 . S
C1723 C1724 1.387 . S
C1723 H1726 0.950 . S
C1724 C1723 1.387 . S
C1724 C1727 1.387 . S
H1725 C1721 0.950 . S
H1726 C1723 0.950 . S
C1727 C1718 1.390 . S
C1727 H1720 0.950 . S
C1727 C1724 1.387 . S
C1728 C1729 1.387 . S
C1728 H1732 0.950 1_556 S
C1728 C1737 1.390 . S
C1729 C1728 1.387 . S
C1729 C1731 1.387 . S
H1730 C1737 0.950 . S
C1731 C1729 1.387 . S
C1731 C1733 1.390 . S
C1731 H1735 0.950 . S
H1732 C1728 0.950 1_554 S
C1733 C1731 1.390 . S
C1733 C1734 1.387 . S
C1733 H1736 0.950 . S
C1734 C1733 1.387 . S
C1734 C1737 1.387 . S
H1735 C1731 0.950 . S
H1736 C1733 0.950 . S
C1737 C1728 1.390 . S
C1737 H1730 0.950 . S
C1737 C1734 1.387 . S
C1738 C1739 1.387 . S
C1738 H1742 0.950 1_554 S
C1738 C1747 1.390 . S
C1739 C1738 1.387 . S
C1739 C1741 1.387 . S
H1740 C1747 0.950 . S
C1741 C1739 1.387 . S
C1741 C1743 1.390 . S
C1741 H1745 0.950 . S
H1742 C1738 0.950 1_556 S
C1743 C1741 1.390 . S
C1743 C1744 1.387 . S
C1743 H1746 0.950 . S
C1744 C1743 1.387 . S
C1744 C1747 1.387 . S
H1745 C1741 0.950 . S
H1746 C1743 0.950 . S
C1747 C1738 1.390 . S
C1747 H1740 0.950 . S
C1747 C1744 1.387 . S
C1748 C1749 1.387 . S
C1748 H1752 0.950 . S
C1748 C1757 1.390 . S
C1749 C1748 1.387 . S
C1749 C1751 1.387 . S
H1750 C1757 0.950 . S
C1751 C1749 1.387 . S
C1751 C1753 1.390 . S
C1751 H1755 0.950 . S
H1752 C1748 0.950 . S
C1753 C1751 1.390 . S
C1753 C1754 1.387 . S
C1753 H1756 0.950 . S
C1754 C1753 1.387 . S
C1754 C1757 1.387 . S
H1755 C1751 0.950 . S
H1756 C1753 0.950 . S
C1757 C1748 1.390 . S
C1757 H1750 0.950 . S
C1757 C1754 1.387 . S
C1758 C1759 1.387 . S
C1758 H1762 0.950 . S
C1758 C1767 1.390 . S
C1759 C1758 1.387 . S
C1759 C1761 1.387 . S
H1760 C1767 0.950 . S
C1761 C1759 1.387 . S
C1761 C1763 1.390 . S
C1761 H1765 0.950 . S
H1762 C1758 0.950 . S
C1763 C1761 1.390 . S
C1763 C1764 1.387 . S
C1763 H1766 0.950 . S
C1764 C1763 1.387 . S
C1764 C1767 1.387 . S
H1765 C1761 0.950 . S
H1766 C1763 0.950 . S
C1767 C1758 1.390 . S
C1767 H1760 0.950 . S
C1767 C1764 1.387 . S
C1768 C1769 1.387 . S
C1768 H1772 0.950 . S
C1768 C1777 1.390 . S
C1769 C1768 1.387 . S
C1769 C1771 1.387 . S
H1770 C1777 0.950 . S
C1771 C1769 1.387 . S
C1771 C1773 1.390 . S
C1771 H1775 0.950 . S
H1772 C1768 0.950 . S
C1773 C1771 1.390 . S
C1773 C1774 1.387 . S
C1773 H1776 0.950 . S
C1774 C1773 1.387 . S
C1774 C1777 1.387 . S
H1775 C1771 0.950 . S
H1776 C1773 0.950 . S
C1777 C1768 1.390 . S
C1777 H1770 0.950 . S
C1777 C1774 1.387 . S
C1778 C1779 1.387 . S
C1778 H1782 0.950 1_556 S
C1778 C1787 1.390 . S
C1779 C1778 1.387 . S
C1779 C1781 1.387 . S
H1780 C1787 0.950 . S
C1781 C1779 1.387 . S
C1781 C1783 1.390 . S
C1781 H1785 0.950 . S
H1782 C1778 0.950 1_554 S
C1783 C1781 1.390 . S
C1783 C1784 1.387 . S
C1783 H1786 0.950 . S
C1784 C1783 1.387 . S
C1784 C1787 1.387 . S
H1785 C1781 0.950 . S
H1786 C1783 0.950 . S
C1787 C1778 1.390 . S
C1787 H1780 0.950 . S
C1787 C1784 1.387 . S
C1788 C1789 1.387 . S
C1788 H1792 0.950 . S
C1788 C1797 1.390 . S
C1789 C1788 1.387 . S
C1789 C1791 1.387 . S
H1790 C1797 0.950 . S
C1791 C1789 1.387 . S
C1791 C1793 1.390 . S
C1791 H1795 0.950 . S
H1792 C1788 0.950 . S
C1793 C1791 1.390 . S
C1793 C1794 1.387 . S
C1793 H1796 0.950 . S
C1794 C1793 1.387 . S
C1794 C1797 1.387 . S
H1795 C1791 0.950 . S
H1796 C1793 0.950 . S
C1797 C1788 1.390 . S
C1797 H1790 0.950 . S
C1797 C1794 1.387 . S
C1798 C1799 1.387 . S
C1798 H1802 0.950 . S
C1798 C1807 1.390 . S
C1799 C1798 1.387 . S
C1799 C1801 1.387 . S
H1800 C1807 0.950 . S
C1801 C1799 1.387 . S
C1801 C1803 1.390 . S
C1801 H1805 0.950 . S
H1802 C1798 0.950 . S
C1803 C1801 1.390 . S
C1803 C1804 1.387 . S
C1803 H1806 0.950 . S
C1804 C1803 1.387 . S
C1804 C1807 1.387 . S
H1805 C1801 0.950 . S
H1806 C1803 0.950 . S
C1807 C1798 1.390 . S
C1807 H1800 0.950 . S
C1807 C1804 1.387 . S
C1808 C1809 1.387 . S
C1808 H1812 0.950 . S
C1808 C1817 1.390 . S
C1809 C1808 1.387 . S
C1809 C1811 1.387 . S
H1810 C1817 0.950 . S
C1811 C1809 1.387 . S
C1811 C1813 1.390 . S
C1811 H1815 0.950 . S
H1812 C1808 0.950 . S
C1813 C1811 1.390 . S
C1813 C1814 1.387 . S
C1813 H1816 0.950 . S
C1814 C1813 1.387 . S
C1814 C1817 1.387 . S
H1815 C1811 0.950 . S
H1816 C1813 0.950 . S
C1817 C1808 1.390 . S
C1817 H1810 0.950 . S
C1817 C1814 1.387 . S
C1818 C1819 1.387 . S
C1818 H1822 0.950 . S
C1818 C1827 1.390 . S
C1819 C1818 1.387 . S
C1819 C1821 1.387 . S
H1820 C1827 0.950 . S
C1821 C1819 1.387 . S
C1821 C1823 1.390 . S
C1821 H1825 0.950 . S
H1822 C1818 0.950 . S
C1823 C1821 1.390 . S
C1823 C1824 1.387 . S
C1823 H1826 0.950 . S
C1824 C1823 1.387 . S
C1824 C1827 1.387 . S
H1825 C1821 0.950 . S
H1826 C1823 0.950 . S
C1827 C1818 1.390 . S
C1827 H1820 0.950 . S
C1827 C1824 1.387 . S
C1828 C1829 1.387 . S
C1828 H1832 0.950 . S
C1828 C1837 1.390 . S
C1829 C1828 1.387 . S
C1829 C1831 1.387 . S
H1830 C1837 0.950 1_554 S
C1831 C1829 1.387 . S
C1831 C1833 1.390 . S
C1831 H1835 0.950 . S
H1832 C1828 0.950 . S
C1833 C1831 1.390 . S
C1833 C1834 1.387 . S
C1833 H1836 0.950 . S
C1834 C1833 1.387 . S
C1834 C1837 1.387 . S
H1835 C1831 0.950 . S
H1836 C1833 0.950 . S
C1837 C1828 1.390 . S
C1837 H1830 0.950 1_556 S
C1837 C1834 1.387 . S
C1838 C1839 1.387 . S
C1838 H1842 0.950 . S
C1838 C1847 1.390 . S
C1839 C1838 1.387 . S
C1839 C1841 1.387 . S
H1840 C1847 0.950 . S
C1841 C1839 1.387 . S
C1841 C1843 1.390 . S
C1841 H1845 0.950 . S
H1842 C1838 0.950 . S
C1843 C1841 1.390 . S
C1843 C1844 1.387 . S
C1843 H1846 0.950 1_554 S
C1844 C1843 1.387 . S
C1844 C1847 1.387 . S
H1845 C1841 0.950 . S
H1846 C1843 0.950 1_556 S
C1847 C1838 1.390 . S
C1847 H1840 0.950 . S
C1847 C1844 1.387 . S
C1848 C1849 1.387 . S
C1848 H1852 0.950 . S
C1848 C1857 1.390 . S
C1849 C1848 1.387 . S
C1849 C1851 1.387 . S
H1850 C1857 0.950 . S
C1851 C1849 1.387 . S
C1851 C1853 1.390 . S
C1851 H1855 0.950 . S
H1852 C1848 0.950 . S
C1853 C1851 1.390 . S
C1853 C1854 1.387 . S
C1853 H1856 0.950 . S
C1854 C1853 1.387 . S
C1854 C1857 1.387 . S
H1855 C1851 0.950 . S
H1856 C1853 0.950 . S
C1857 C1848 1.390 . S
C1857 H1850 0.950 . S
C1857 C1854 1.387 . S
C1858 C1859 1.387 . S
C1858 H1862 0.950 . S
C1858 C1867 1.390 . S
C1859 C1858 1.387 . S
C1859 C1861 1.387 . S
H1860 C1867 0.950 . S
C1861 C1859 1.387 . S
C1861 C1863 1.390 . S
C1861 H1865 0.950 . S
H1862 C1858 0.950 . S
C1863 C1861 1.390 . S
C1863 C1864 1.387 . S
C1863 H1866 0.950 . S
C1864 C1863 1.387 . S
C1864 C1867 1.387 . S
H1865 C1861 0.950 . S
H1866 C1863 0.950 . S
C1867 C1858 1.390 . S
C1867 H1860 0.950 . S
C1867 C1864 1.387 . S
C1868 C1869 1.387 . S
C1868 H1872 0.950 . S
C1868 C1877 1.390 . S
C1869 C1868 1.387 . S
C1869 C1871 1.387 . S
H1870 C1877 0.950 1_556 S
C1871 C1869 1.387 . S
C1871 C1873 1.390 . S
C1871 H1875 0.950 . S
H1872 C1868 0.950 . S
C1873 C1871 1.390 . S
C1873 C1874 1.387 . S
C1873 H1876 0.950 . S
C1874 C1873 1.387 . S
C1874 C1877 1.387 . S
H1875 C1871 0.950 . S
H1876 C1873 0.950 . S
C1877 C1868 1.390 . S
C1877 H1870 0.950 1_554 S
C1877 C1874 1.387 . S
C1878 C1879 1.387 . S
C1878 H1882 0.950 . S
C1878 C1887 1.390 . S
C1879 C1878 1.387 . S
C1879 C1881 1.387 . S
H1880 C1887 0.950 . S
C1881 C1879 1.387 . S
C1881 C1883 1.390 . S
C1881 H1885 0.950 . S
H1882 C1878 0.950 . S
C1883 C1881 1.390 . S
C1883 C1884 1.387 . S
C1883 H1886 0.950 . S
C1884 C1883 1.387 . S
C1884 C1887 1.387 . S
H1885 C1881 0.950 . S
H1886 C1883 0.950 . S
C1887 C1878 1.390 . S
C1887 H1880 0.950 . S
C1887 C1884 1.387 . S
C1089 C1022 1.697 . S
C1094 C2 1.696 . S
C1099 C36 1.697 . S
C1104 C512 1.697 . S
C1109 C70 1.697 . S
C1114 C954 1.697 . S
C1119 C104 1.697 . S
C1124 C444 1.697 . S
C1129 C886 1.697 . S
C1134 C138 1.696 . S
C1139 C376 1.697 . S
C1144 C172 1.697 . S
C1149 C206 1.697 . S
C1154 C818 1.697 . S
C1159 C308 1.697 . S
C1164 C240 1.697 . S
C1169 C750 1.697 . S
C1174 C274 1.696 . S
C1179 C682 1.697 . S
C1184 C342 1.697 . S
C1189 C410 1.697 . S
C1194 C614 1.696 . S
C1199 C546 1.697 . S
C1204 C478 1.697 . S
C1209 C1056 1.697 . S
C1214 C580 1.697 . S
C1219 C988 1.697 . S
C1224 C648 1.697 . S
C1229 C920 1.697 . S
C1234 C716 1.697 . S
C1239 C852 1.697 . S
C1244 C784 1.697 . S
C1249 C5 1.279 . S
C1254 C9 1.319 . S
C1259 C39 1.281 . S
C1264 C43 1.321 . S
C1269 C73 1.280 . S
C1274 C77 1.320 . S
C1279 C107 1.277 . S
C1284 C111 1.319 . S
C1289 C141 1.277 . S
C1294 C145 1.320 . S
C1299 C175 1.281 . S
C1304 C179 1.321 . S
C1309 C213 1.321 . S
C1314 C209 1.281 . S
C1319 C243 1.277 . S
C1324 C247 1.320 . S
C1329 C277 1.281 . S
C1334 C281 1.321 . S
C1339 C315 1.321 . S
C1344 C311 1.278 . S
C1349 C345 1.281 . S
C1354 C349 1.321 . S
C1359 C379 1.281 . S
C1364 C383 1.321 . S
C1369 C413 1.277 . S
C1374 C417 1.320 . S
C1379 C451 1.320 . S
C1384 C447 1.281 . S
C1389 C481 1.277 . S
C1394 C485 1.320 . S
C1399 C519 1.320 . S
C1404 C515 1.277 . S
C1409 C553 1.321 . S
C1414 C549 1.281 . S
C1419 C583 1.277 . S
C1424 C587 1.319 . S
C1429 C621 1.320 . S
C1434 C617 1.277 . S
C1439 C655 1.320 . S
C1444 C651 1.281 . S
C1449 C689 1.320 . S
C1454 C685 1.277 . S
C1459 C723 1.320 . S
C1464 C719 1.277 . S
C1469 C757 1.320 . S
C1474 C753 1.277 . S
C1479 C791 1.321 . S
C1484 C787 1.278 . S
C1489 C825 1.321 . S
C1494 C821 1.281 . S
C1499 C859 1.320 . S
C1504 C855 1.277 . S
C1509 C889 1.277 . S
C1514 C893 1.320 . S
C1519 C927 1.320 . S
C1524 C923 1.281 . S
C1529 C961 1.321 . S
C1534 C957 1.281 . S
C1539 C995 1.321 . S
C1544 C991 1.281 . S
C1549 C1025 1.281 . S
C1554 C1029 1.321 . S
C1559 C1059 1.277 . S
C1564 C1063 1.319 . S
C1569 C237 1.532 . S
C1574 C33 1.532 . S
C1579 C271 1.535 . S
C1584 C67 1.535 . S
C1589 C101 1.536 . S
C1594 C169 1.536 . S
C1599 C203 1.531 . S
C1604 C135 1.531 . S
C1609 C305 1.536 . S
C1614 C509 1.536 . S
C1619 C339 1.535 . S
C1624 C543 1.535 . S
C1629 C373 1.532 . S
C1634 C441 1.532 . S
C1639 C475 1.535 . S
C1644 C407 1.535 . S
C1649 C781 1.536 . S
C1654 C577 1.536 . S
C1659 C611 1.535 . S
C1664 C815 1.535 . S
C1669 C713 1.532 . S
C1674 C645 1.532 . S
C1679 C747 1.531 . S
C1684 C679 1.531 . S
C1689 C849 1.536 . S
C1694 C1053 1.536 . S
C1699 C1087 1.531 . S
C1704 C883 1.531 . S
C1709 C917 1.536 . S
C1714 C985 1.536 . S
C1719 C1019 1.535 . S
C1724 C951 1.535 . S
C1729 C20 1.731 . S
C1734 C258 1.730 . S
C1739 C156 1.730 . S
C1744 C54 1.729 . S
C1749 C88 1.730 . S
C1754 C190 1.731 . S
C1759 C122 1.731 . S
C1764 C224 1.730 . S
C1769 C292 1.731 . S
C1774 C530 1.732 . S
C1779 C428 1.730 . S
C1784 C326 1.731 . S
C1789 C360 1.730 . S
C1794 C462 1.731 . S
C1799 C394 1.730 . S
C1804 C496 1.731 . S
C1809 C802 1.729 . S
C1814 C564 1.729 . S
C1819 C700 1.729 . S
C1824 C598 1.729 . S
C1829 C734 1.729 . S
C1834 C632 1.730 . S
C1839 C666 1.731 . S
C1844 C768 1.730 . S
C1849 C836 1.730 . S
C1854 C1074 1.731 . S
C1859 C870 1.729 . S
C1864 C972 1.729 . S
C1869 C1006 1.731 . S
C1874 C904 1.730 . S
C1879 C1040 1.731 . S
C1884 C938 1.731 . S
