# Generated by pormake.
# Topology vmb, (5)-cn, num edge types: 1
# Building blocks:
#     Node 0, Type 0, BuildingBlock: BEQFEK_clean_sbu_0, # of connection points: 5
#     Node 1, Type 0, BuildingBlock: BEQFEK_clean_sbu_0, # of connection points: 5
#     Node 2, Type 0, BuildingBlock: BEQFEK_clean_sbu_0, # of connection points: 5
#     Node 3, Type 0, BuildingBlock: BEQFEK_clean_sbu_0, # of connection points: 5
#     Node 4, Type 0, BuildingBlock: BEQFEK_clean_sbu_0, # of connection points: 5
#     Node 5, Type 0, BuildingBlock: BEQFEK_clean_sbu_0, # of connection points: 5
#     Node 6, Type 0, BuildingBlock: BEQFEK_clean_sbu_0, # of connection points: 5
#     Node 7, Type 0, BuildingBlock: BEQFEK_clean_sbu_0, # of connection points: 5
#     Edge 8, Type (0, 0), BuildingBlock: XUDNAN_clean_linker_2, # of connection points: 2
#     Edge 9, Type (0, 0), BuildingBlock: XUDNAN_clean_linker_2, # of connection points: 2
#     Edge 10, Type (0, 0), BuildingBlock: XUDNAN_clean_linker_2, # of connection points: 2
#     Edge 11, Type (0, 0), BuildingBlock: XUDNAN_clean_linker_2, # of connection points: 2
#     Edge 12, Type (0, 0), BuildingBlock: XUDNAN_clean_linker_2, # of connection points: 2
#     Edge 13, Type (0, 0), BuildingBlock: XUDNAN_clean_linker_2, # of connection points: 2
#     Edge 14, Type (0, 0), BuildingBlock: XUDNAN_clean_linker_2, # of connection points: 2
#     Edge 15, Type (0, 0), BuildingBlock: XUDNAN_clean_linker_2, # of connection points: 2
#     Edge 16, Type (0, 0), BuildingBlock: XUDNAN_clean_linker_2, # of connection points: 2
#     Edge 17, Type (0, 0), BuildingBlock: XUDNAN_clean_linker_2, # of connection points: 2
#     Edge 18, Type (0, 0), BuildingBlock: XUDNAN_clean_linker_2, # of connection points: 2
#     Edge 19, Type (0, 0), BuildingBlock: XUDNAN_clean_linker_2, # of connection points: 2
#     Edge 20, Type (0, 0), BuildingBlock: XUDNAN_clean_linker_2, # of connection points: 2
#     Edge 21, Type (0, 0), BuildingBlock: XUDNAN_clean_linker_2, # of connection points: 2
#     Edge 22, Type (0, 0), BuildingBlock: XUDNAN_clean_linker_2, # of connection points: 2
#     Edge 23, Type (0, 0), BuildingBlock: XUDNAN_clean_linker_2, # of connection points: 2
#     Edge 24, Type (0, 0), BuildingBlock: XUDNAN_clean_linker_2, # of connection points: 2
#     Edge 25, Type (0, 0), BuildingBlock: XUDNAN_clean_linker_2, # of connection points: 2
#     Edge 26, Type (0, 0), BuildingBlock: XUDNAN_clean_linker_2, # of connection points: 2
#     Edge 27, Type (0, 0), BuildingBlock: XUDNAN_clean_linker_2, # of connection points: 2
# Relax obj value: 0.032
# Max RMSD: 0.085
# Mean RMSD: 0.085
data_MOF--net-vmb--node1-BEQFEK_clean_sbu_0--edge1-XUDNAN_clean_linker_2
_symmetry_space_group_name_H-M    P1
_symmetry_Int_Tables_number       1
_symmetry_cell_setting            triclinic
loop_
_symmetry_equiv_pos_as_xyz
'x, y, z'
_cell_length_a     41.17026
_cell_length_b     38.367495
_cell_length_c     29.750911
_cell_angle_alpha  89.966574
_cell_angle_beta   113.10534
_cell_angle_gamma 89.999008
loop_
_atom_site_label
_atom_site_type_symbol
_atom_site_fract_x
_atom_site_fract_y
_atom_site_fract_z
_atom_type_partial_charge
Co0 Co 0.20734 0.08088 0.36006 0.0
Co1 Co 0.29018 0.07702 0.41909 0.0
C2 C 0.24292 0.04433 0.45904 0.0
O3 O 0.21688 0.05578 0.42212 0.0
O4 O 0.27465 0.0485 0.463 0.0
C5 C 0.14348 0.04446 0.31058 0.0
O6 O 0.16532 0.01806 0.32696 0.0
C7 C 0.3671 0.05732 0.46456 0.0
C8 C 0.39036 0.10701 0.45402 0.0
C9 C 0.39909 0.07369 0.47262 0.0
N10 N 0.34071 0.08004 0.44177 0.0
N11 N 0.355 0.10961 0.43574 0.0
C12 C 0.36185 0.02138 0.48005 0.0
H13 H 0.33536 0.01877 0.4811 0.0
H14 H 0.36404 0.00218 0.45353 0.0
H15 H 0.38263 0.01527 0.51646 0.0
C16 C 0.22813 0.05741 0.28046 0.0
N17 N 0.23585 0.06461 0.32785 0.0
N18 N 0.27011 0.06142 0.35275 0.0
C19 C 0.28514 0.05104 0.32207 0.0
C20 C 0.25912 0.04846 0.27507 0.0
C21 C 0.19248 0.06304 0.24056 0.0
H22 H 0.17845 0.08441 0.25054 0.0
H23 H 0.17671 0.03882 0.23544 0.0
H24 H 0.19465 0.06961 0.20551 0.0
O25 O 0.21778 0.12997 0.37717 0.0
O26 O 0.2751 0.12607 0.42343 0.0
H27 H 0.33872 0.0678 0.34449 0.0
H28 H 0.32893 0.02751 0.31011 0.0
C29 C 0.32361 0.04306 0.33788 0.0
H30 H 0.33277 0.02806 0.37239 0.0
H31 H 0.34051 0.13171 0.41903 0.0
O32 O 0.15582 0.07523 0.31935 0.0
C33 C 0.24675 0.14386 0.40512 0.0
Co34 Co 0.81591 0.0703 0.12302 0.0
Co35 Co 0.73356 0.0576 0.09025 0.0
C36 C 0.77452 0.01892 0.04393 0.0
O37 O 0.80225 0.0359 0.06899 0.0
O38 O 0.74579 0.02347 0.04966 0.0
C39 C 0.88325 0.04022 0.15562 0.0
O40 O 0.86254 0.01284 0.14162 0.0
C41 C 0.66547 0.02321 0.07517 0.0
C42 C 0.6301 0.06877 0.06173 0.0
C43 C 0.63047 0.03268 0.06433 0.0
N44 N 0.68457 0.05238 0.07896 0.0
N45 N 0.66322 0.07947 0.07101 0.0
C46 C 0.68039 0.9872 0.07938 0.0
H47 H 0.70625 0.98752 0.07614 0.0
H48 H 0.68462 0.97634 0.1158 0.0
H49 H 0.66183 0.96996 0.05089 0.0
C50 C 0.8132 0.05478 0.22003 0.0
N51 N 0.79754 0.05793 0.17096 0.0
N52 N 0.76321 0.05395 0.15728 0.0
C53 C 0.7558 0.04932 0.19711 0.0
C54 C 0.78721 0.04927 0.23833 0.0
C55 C 0.85238 0.05547 0.24803 0.0
H56 H 0.863 0.08089 0.24224 0.0
H57 H 0.86456 0.03474 0.23393 0.0
H58 H 0.86006 0.05081 0.28759 0.0
O59 O 0.79631 0.11639 0.09223 0.0
O60 O 0.73904 0.10426 0.06725 0.0
H61 H 0.70288 0.06909 0.17028 0.0
H62 H 0.71876 0.05427 0.23238 0.0
C63 C 0.71907 0.04892 0.19594 0.0
H64 H 0.70695 0.02309 0.18304 0.0
H65 H 0.67119 0.10532 0.07136 0.0
O66 O 0.86909 0.07016 0.15246 0.0
C67 C 0.76389 0.12496 0.06988 0.0
Co68 Co 0.81654 0.92358 0.63097 0.0
Co69 Co 0.7336 0.93662 0.58699 0.0
C70 C 0.77962 0.97406 0.54784 0.0
O71 O 0.80693 0.95898 0.57827 0.0
O72 O 0.74896 0.96814 0.54684 0.0
C73 C 0.88125 0.95496 0.68204 0.0
O74 O 0.85893 0.98112 0.67253 0.0
C75 C 0.6631 0.96984 0.56027 0.0
C76 C 0.63086 0.92449 0.56305 0.0
C77 C 0.62934 0.96021 0.55582 0.0
N78 N 0.68372 0.94121 0.57095 0.0
N79 N 0.66407 0.91418 0.57186 0.0
C80 C 0.67544 0.00539 0.55335 0.0
H81 H 0.6953 0.00344 0.53697 0.0
H82 H 0.68808 0.01839 0.58936 0.0
H83 H 0.65304 0.02165 0.52938 0.0
C84 C 0.80545 0.93471 0.72284 0.0
N85 N 0.7937 0.93498 0.67364 0.0
N86 N 0.7597 0.94228 0.65511 0.0
C87 C 0.74895 0.9474 0.69194 0.0
C88 C 0.77745 0.94243 0.73599 0.0
C89 C 0.84179 0.92365 0.75633 0.0
H90 H 0.85195 0.90348 0.73852 0.0
H91 H 0.85964 0.94655 0.76466 0.0
H92 H 0.84193 0.91326 0.79122 0.0
O93 O 0.79901 0.87749 0.59908 0.0
O94 O 0.74137 0.88897 0.56897 0.0
H95 H 0.69466 0.93386 0.67164 0.0
H96 H 0.71059 0.96617 0.71954 0.0
C97 C 0.71204 0.95691 0.68508 0.0
H98 H 0.70231 0.97797 0.65767 0.0
H99 H 0.67357 0.88873 0.57965 0.0
O100 O 0.86904 0.92462 0.66777 0.0
C101 C 0.767 0.86838 0.57477 0.0
Co102 Co 0.20678 0.92342 0.87426 0.0
Co103 Co 0.28974 0.9201 0.90859 0.0
C104 C 0.25699 0.96068 0.96467 0.0
O105 O 0.22614 0.9514 0.93562 0.0
O106 O 0.28446 0.95129 0.95807 0.0
C107 C 0.14116 0.95981 0.8444 0.0
O108 O 0.16249 0.98617 0.86359 0.0
C109 C 0.36579 0.93736 0.94341 0.0
C110 C 0.38614 0.89112 0.91848 0.0
C111 C 0.39656 0.922 0.94416 0.0
N112 N 0.33843 0.91644 0.91826 0.0
N113 N 0.35079 0.88903 0.90314 0.0
C114 C 0.36251 0.96947 0.96983 0.0
H115 H 0.35679 0.96168 0.0019 0.0
H116 H 0.33996 0.98541 0.9455 0.0
H117 H 0.387 0.98525 0.98283 0.0
C118 C 0.21264 0.9469 0.78317 0.0
N119 N 0.22742 0.93622 0.82991 0.0
N120 N 0.26201 0.93685 0.84461 0.0
C121 C 0.27039 0.9497 0.80828 0.0
C122 C 0.23929 0.95643 0.76781 0.0
C123 C 0.17376 0.94539 0.75302 0.0
H124 H 0.16203 0.9225 0.76383 0.0
H125 H 0.16104 0.96929 0.75948 0.0
H126 H 0.16823 0.9434 0.71349 0.0
O127 O 0.21656 0.87446 0.89162 0.0
O128 O 0.27509 0.87191 0.91911 0.0
H129 H 0.32023 0.934 0.80851 0.0
H130 H 0.30779 0.97815 0.78749 0.0
C131 C 0.30733 0.95807 0.81405 0.0
H132 H 0.32264 0.96782 0.85148 0.0
H133 H 0.33515 0.86842 0.88342 0.0
O134 O 0.15441 0.92986 0.84455 0.0
C135 C 0.24531 0.85748 0.9102 0.0
Co136 Co 0.70995 0.57152 0.37608 0.0
Co137 Co 0.79275 0.57443 0.42835 0.0
C138 C 0.74742 0.53091 0.46632 0.0
O139 O 0.71858 0.5405 0.43253 0.0
O140 O 0.77729 0.54148 0.46823 0.0
C141 C 0.63637 0.54962 0.33265 0.0
O142 O 0.64743 0.52014 0.3562 0.0
C143 C 0.86318 0.54311 0.46677 0.0
C144 C 0.89815 0.58857 0.47607 0.0
C145 C 0.89847 0.55276 0.48247 0.0
N146 N 0.84312 0.57185 0.45223 0.0
N147 N 0.86416 0.59898 0.45795 0.0
C148 C 0.84824 0.50713 0.46242 0.0
H149 H 0.82148 0.50618 0.4327 0.0
H150 H 0.86568 0.48787 0.45509 0.0
H151 H 0.84583 0.50009 0.49716 0.0
C152 C 0.72857 0.54604 0.29425 0.0
N153 N 0.73724 0.5584 0.33995 0.0
N154 N 0.77169 0.56245 0.36084 0.0
C155 C 0.78593 0.55427 0.32848 0.0
C156 C 0.75921 0.54296 0.2852 0.0
C157 C 0.69204 0.53493 0.26174 0.0
H158 H 0.67725 0.55783 0.24085 0.0
H159 H 0.67804 0.52469 0.28403 0.0
H160 H 0.69253 0.51446 0.2357 0.0
O161 O 0.72173 0.6195 0.40157 0.0
O162 O 0.78 0.62247 0.43935 0.0
H163 H 0.83396 0.58356 0.35975 0.0
H164 H 0.82818 0.56201 0.30341 0.0
C165 C 0.82411 0.55954 0.33799 0.0
H166 H 0.83966 0.5371 0.35913 0.0
H167 H 0.85532 0.62456 0.44942 0.0
O168 O 0.65864 0.5732 0.33486 0.0
C169 C 0.74965 0.63649 0.42604 0.0
Co170 Co 0.30397 0.57333 0.12898 0.0
Co171 Co 0.22145 0.56426 0.0764 0.0
C172 C 0.27075 0.52325 0.04553 0.0
O173 O 0.29762 0.53755 0.07809 0.0
O174 O 0.23939 0.53052 0.041 0.0
C175 C 0.37716 0.55276 0.1752 0.0
O176 O 0.3653 0.52175 0.15772 0.0
C177 C 0.14722 0.53742 0.03875 0.0
C178 C 0.11866 0.58763 0.02582 0.0
C179 C 0.11351 0.55195 0.02143 0.0
N180 N 0.17099 0.56354 0.05264 0.0
N181 N 0.1536 0.59338 0.04494 0.0
C182 C 0.15674 0.49974 0.03968 0.0
H183 H 0.18422 0.49677 0.04235 0.0
H184 H 0.15481 0.4872 0.07215 0.0
H185 H 0.13816 0.48632 0.00652 0.0
C186 C 0.28681 0.55218 0.21499 0.0
N187 N 0.27766 0.56073 0.16747 0.0
N188 N 0.24304 0.55943 0.14519 0.0
C189 C 0.22898 0.55227 0.17798 0.0
C190 C 0.25615 0.54642 0.22337 0.0
C191 C 0.32411 0.54667 0.25021 0.0
H192 H 0.33568 0.57209 0.26646 0.0
H193 H 0.33996 0.53589 0.23086 0.0
H194 H 0.32559 0.52841 0.27985 0.0
O195 O 0.28894 0.61973 0.09463 0.0
O196 O 0.23168 0.60966 0.05767 0.0
H197 H 0.17842 0.57654 0.14219 0.0
H198 H 0.18479 0.55739 0.19996 0.0
C199 C 0.19016 0.55406 0.16649 0.0
H200 H 0.17724 0.52989 0.14735 0.0
H201 H 0.16563 0.61782 0.05231 0.0
O202 O 0.3554 0.57765 0.16897 0.0
C203 C 0.25811 0.62927 0.06582 0.0
Co204 Co 0.31293 0.42874 0.6233 0.0
Co205 Co 0.2305 0.42705 0.59727 0.0
C206 C 0.2604 0.47192 0.54159 0.0
O207 O 0.29186 0.46148 0.56621 0.0
O208 O 0.23465 0.46234 0.55223 0.0
C209 C 0.37929 0.46387 0.65153 0.0
O210 O 0.35813 0.49028 0.63193 0.0
C211 C 0.15796 0.4479 0.5835 0.0
C212 C 0.1337 0.39651 0.58338 0.0
C213 C 0.12657 0.43195 0.57957 0.0
N214 N 0.18227 0.42295 0.5894 0.0
N215 N 0.16748 0.39232 0.58892 0.0
C216 C 0.16573 0.48604 0.58478 0.0
H217 H 0.1945 0.49076 0.60422 0.0
H218 H 0.15093 0.50059 0.60292 0.0
H219 H 0.15748 0.4958 0.54679 0.0
C220 C 0.31176 0.44346 0.72193 0.0
N221 N 0.29531 0.437 0.67355 0.0
N222 N 0.26112 0.43494 0.66242 0.0
C223 C 0.25474 0.43892 0.70313 0.0
C224 C 0.28652 0.44494 0.74231 0.0
C225 C 0.35058 0.45005 0.74714 0.0
H226 H 0.36532 0.42647 0.74446 0.0
H227 H 0.35802 0.4717 0.72842 0.0
H228 H 0.35836 0.4573 0.78601 0.0
O229 O 0.30007 0.38065 0.59388 0.0
O230 O 0.24221 0.38354 0.57413 0.0
H231 H 0.20621 0.41068 0.68315 0.0
H232 H 0.22108 0.42968 0.74282 0.0
C233 C 0.21919 0.43382 0.70499 0.0
H234 H 0.20251 0.45701 0.68922 0.0
H235 H 0.18059 0.36852 0.59287 0.0
O236 O 0.36576 0.43405 0.65161 0.0
C237 C 0.26912 0.3677 0.57356 0.0
Co238 Co 0.70225 0.42357 0.87647 0.0
Co239 Co 0.78487 0.41332 0.91285 0.0
C240 C 0.75217 0.45491 0.97024 0.0
O241 O 0.72053 0.45175 0.93888 0.0
O242 O 0.77787 0.44154 0.96285 0.0
C243 C 0.63789 0.46224 0.83481 0.0
O244 O 0.66011 0.48846 0.84951 0.0
C245 C 0.85686 0.43893 0.94148 0.0
C246 C 0.88581 0.39275 0.93259 0.0
C247 C 0.88964 0.42791 0.94407 0.0
N248 N 0.83449 0.41181 0.92799 0.0
N249 N 0.85209 0.38407 0.92362 0.0
C250 C 0.84654 0.47457 0.95174 0.0
H251 H 0.83939 0.47312 0.98397 0.0
H252 H 0.82275 0.48354 0.92035 0.0
H253 H 0.86824 0.49373 0.95971 0.0
C254 C 0.71226 0.44115 0.78439 0.0
N255 N 0.72505 0.43411 0.83281 0.0
N256 N 0.75961 0.43086 0.84895 0.0
C257 C 0.76995 0.43653 0.81185 0.0
C258 C 0.74032 0.4428 0.76949 0.0
C259 C 0.6738 0.44205 0.75199 0.0
H260 H 0.65955 0.42151 0.76316 0.0
H261 H 0.66279 0.46776 0.75571 0.0
H262 H 0.66939 0.43811 0.71308 0.0
O263 O 0.71049 0.37354 0.89582 0.0
O264 O 0.76845 0.36603 0.91915 0.0
H265 H 0.81849 0.40936 0.82652 0.0
H266 H 0.81066 0.44486 0.7834 0.0
C267 C 0.80764 0.43606 0.81702 0.0
H268 H 0.82329 0.45395 0.8467 0.0
H269 H 0.8408 0.35953 0.91295 0.0
O270 O 0.65004 0.43135 0.84289 0.0
C271 C 0.73792 0.35419 0.9121 0.0
H272 H 0.21459 0.95885 0.01576 0.0
H273 H 0.30973 0.00653 0.01437 0.0
H274 H 0.31901 0.03678 0.09189 0.0
H275 H 0.18556 0.03142 0.07067 0.0
H276 H 0.17087 0.00315 0.10734 0.0
H277 H 0.16979 0.9882 0.04936 0.0
H278 H 0.20779 0.93465 0.092 0.0
H279 H 0.20909 0.94946 0.15007 0.0
H280 H 0.24967 0.94128 0.14226 0.0
H281 H 0.31828 0.06094 0.1702 0.0
H282 H 0.3097 0.07448 0.246 0.0
H283 H 0.21827 0.00649 0.19968 0.0
C284 C 0.23697 0.97623 0.03128 0.0
C285 C 0.26123 0.98079 0.00888 0.0
C286 C 0.29077 0.00289 0.03093 0.0
C287 C 0.29618 0.02022 0.07481 0.0
C288 C 0.27204 0.01475 0.09637 0.0
C289 C 0.24314 0.99312 0.07551 0.0
C290 C 0.22268 0.98954 0.10789 0.0
C291 C 0.18499 0.00394 0.08228 0.0
C292 C 0.22231 0.95147 0.124 0.0
C293 C 0.2447 0.01236 0.15039 0.0
C294 C 0.27274 0.02706 0.14273 0.0
C295 C 0.29658 0.04934 0.17677 0.0
C296 C 0.29171 0.05659 0.2199 0.0
C297 C 0.26369 0.04106 0.22902 0.0
C298 C 0.23985 0.01881 0.1936 0.0
H299 H 0.75451 0.00087 0.27288 0.0
H300 H 0.82785 0.08746 0.31918 0.0
H301 H 0.8337 0.07876 0.40455 0.0
H302 H 0.70844 0.02443 0.35022 0.0
H303 H 0.70014 0.97974 0.36118 0.0
H304 H 0.70376 0.99163 0.30473 0.0
H305 H 0.75327 0.94569 0.32077 0.0
H306 H 0.74971 0.93358 0.37711 0.0
H307 H 0.79172 0.94704 0.37734 0.0
H308 H 0.83413 0.05708 0.48602 0.0
H309 H 0.8248 0.02807 0.55473 0.0
H310 H 0.74404 0.96279 0.45152 0.0
C311 C 0.77163 0.01818 0.30091 0.0
C312 C 0.79128 0.04438 0.28968 0.0
C313 C 0.81343 0.06647 0.32734 0.0
C314 C 0.81658 0.06199 0.37576 0.0
C315 C 0.79658 0.03597 0.38547 0.0
C316 C 0.77407 0.01487 0.34883 0.0
C317 C 0.75425 0.98983 0.36807 0.0
C318 C 0.71428 -0.00316 0.34466 0.0
C319 C 0.76277 0.95179 0.36038 0.0
C320 C 0.76959 -0.00041 0.42155 0.0
C321 C 0.79433 0.02594 0.43116 0.0
C322 C 0.81422 0.03704 0.47878 0.0
C323 C 0.80878 0.02056 0.51747 0.0
C324 C 0.78303 0.99411 0.50791 0.0
C325 C 0.76299 0.98387 0.45942 0.0
H326 H 0.82132 0.97815 0.81603 0.0
H327 H 0.73224 0.90733 0.76643 0.0
H328 H 0.7264 0.91335 0.84565 0.0
H329 H 0.85748 0.94972 0.94775 0.0
H330 H 0.87025 0.99361 0.96888 0.0
H331 H 0.87055 0.97965 0.91118 0.0
H332 H 0.82938 0.03113 0.86784 0.0
H333 H 0.82883 0.04511 0.92517 0.0
H334 H 0.78788 0.03611 0.87432 0.0
H335 H 0.72444 0.9342 0.92407 0.0
H336 H 0.72818 0.96652 0.9978 0.0
H337 H 0.82046 0.02152 0.99837 0.0
C338 C 0.80131 0.96317 0.82259 0.0
C339 C 0.77704 0.94251 0.78538 0.0
C340 C 0.75078 0.92362 0.79457 0.0
C341 C 0.74745 0.92667 0.83948 0.0
C342 C 0.77104 0.94822 0.87502 0.0
C343 C 0.7978 0.96578 0.86738 0.0
C344 C 0.81782 0.98945 0.90994 0.0
C345 C 0.85631 0.97737 0.93598 0.0
C346 C 0.81583 0.0277 0.89331 0.0
C347 C 0.79714 0.98365 0.94163 0.0
C348 C 0.7705 0.9595 0.92112 0.0
C349 C 0.74573 0.95251 0.94117 0.0
C350 C 0.74796 0.97107 0.98289 0.0
C351 C 0.77484 0.99619 0.00409 0.0
C352 C 0.80014 0.00186 0.9837 0.0
H353 H 0.27833 0.94486 0.71166 0.0
H354 H 0.19109 0.00566 0.71742 0.0
H355 H 0.18035 0.03025 0.63656 0.0
H356 H 0.31094 0.01572 0.65932 0.0
H357 H 0.32564 0.98733 0.62283 0.0
H358 H 0.32477 0.97185 0.67953 0.0
H359 H 0.28541 0.92002 0.63366 0.0
H360 H 0.28582 0.93557 0.57672 0.0
H361 H 0.24439 0.92847 0.5826 0.0
H362 H 0.17713 0.04638 0.55481 0.0
H363 H 0.18752 0.06191 0.48153 0.0
H364 H 0.2823 -0.00194 0.53188 0.0
C365 C 0.25721 0.9636 0.69612 0.0
C366 C 0.23486 0.97255 0.72036 0.0
C367 C 0.2076 -0.00275 0.69876 0.0
C368 C 0.20145 0.01161 0.65297 0.0
C369 C 0.2235 0.00185 0.62975 0.0
C370 C 0.25142 0.97919 0.65095 0.0
C371 C 0.2727 0.97544 0.61947 0.0
C372 C 0.31077 0.98836 0.64692 0.0
C373 C 0.27203 0.93762 0.60208 0.0
C374 C 0.25213 -0.00057 0.57724 0.0
C375 C 0.22345 0.01367 0.58373 0.0
C376 C 0.19966 0.0357 0.54942 0.0
C377 C 0.20572 0.04415 0.50772 0.0
C378 C 0.23575 0.03123 0.50099 0.0
C379 C 0.25921 0.00839 0.53617 0.0
H380 H 0.71627 0.55136 0.1869 0.0
H381 H 0.81089 0.49874 0.28524 0.0
H382 H 0.82103 0.47567 0.21489 0.0
H383 H 0.68798 0.47815 0.10271 0.0
H384 H 0.66898 0.50513 0.04904 0.0
H385 H 0.67055 0.52055 0.10705 0.0
H386 H 0.70386 0.5758 0.09862 0.0
H387 H 0.70274 0.56035 0.04083 0.0
H388 H 0.74435 0.57121 0.08928 0.0
H389 H 0.8227 0.4601 0.13595 0.0
H390 H 0.81099 0.44334 0.05173 0.0
H391 H 0.7105 0.49817 0.0014 0.0
C392 C 0.73896 0.53479 0.19361 0.0
C393 C 0.76347 0.52783 0.24181 0.0
C394 C 0.79264 0.50579 0.24886 0.0
C395 C 0.79849 0.49228 0.20907 0.0
C396 C 0.77431 0.5001 0.16223 0.0
C397 C 0.74461 0.52002 0.15407 0.0
C398 C 0.72146 0.52181 0.09975 0.0
C399 C 0.68509 0.50543 0.08901 0.0
C400 C 0.71791 0.55955 0.08103 0.0
C401 C 0.743 0.49986 0.07892 0.0
C402 C 0.77371 0.48838 0.11588 0.0
C403 C 0.79861 0.46858 0.10663 0.0
C404 C 0.79169 0.45939 0.05838 0.0
C405 C 0.75969 0.46929 0.01964 0.0
C406 C 0.73511 0.49012 0.03012 0.0
H407 H 0.29613 0.56214 0.32126 0.0
H408 H 0.20879 0.49831 0.22719 0.0
H409 H 0.19667 0.48019 0.29804 0.0
H410 H 0.32654 0.4942 0.41484 0.0
H411 H 0.34258 0.5246 0.46497 0.0
H412 H 0.34197 0.53663 0.4061 0.0
H413 H 0.30487 0.59124 0.4057 0.0
H414 H 0.30481 0.57899 0.46417 0.0
H415 H 0.26362 0.5861 0.41283 0.0
H416 H 0.19096 0.47201 0.37633 0.0
H417 H 0.20165 0.45904 0.46158 0.0
H418 H 0.30026 0.51685 0.50982 0.0
C419 C 0.27468 0.54411 0.3156 0.0
C420 C 0.25226 0.53308 0.26802 0.0
C421 C 0.22496 0.50892 0.26263 0.0
C422 C 0.218 0.49819 0.30278 0.0
C423 C 0.23966 0.51045 0.34871 0.0
C424 C 0.26839 0.53158 0.35588 0.0
C425 C 0.28998 0.53695 0.41018 0.0
C426 C 0.32749 0.52221 0.42489 0.0
C427 C 0.29086 0.57563 0.42402 0.0
C428 C 0.26858 0.51564 0.432 0.0
C429 C 0.23903 0.50177 0.39545 0.0
C430 C 0.21422 0.48228 0.40542 0.0
C431 C 0.22043 0.47538 0.45414 0.0
C432 C 0.2518 0.48694 0.49247 0.0
C433 C 0.27602 0.5078 0.48127 0.0
H434 H 0.23259 0.52724 0.94817 0.0
H435 H 0.32271 0.47529 0.05687 0.0
H436 H 0.33618 0.44746 0.99085 0.0
H437 H 0.20697 0.45976 0.85351 0.0
H438 H 0.19672 0.49126 0.80492 0.0
H439 H 0.19162 0.50261 0.86054 0.0
H440 H 0.23269 0.55591 0.87109 0.0
H441 H 0.2383 0.54449 0.81592 0.0
H442 H 0.27641 0.54937 0.87237 0.0
H443 H 0.33977 0.42624 0.91145 0.0
H444 H 0.33488 0.41595 0.82673 0.0
H445 H 0.24786 0.4892 0.77293 0.0
C446 C 0.25447 0.50911 0.958 0.0
C447 C 0.27608 0.50251 0.00736 0.0
C448 C 0.3055 0.48 0.01907 0.0
C449 C 0.31335 0.46422 0.98189 0.0
C450 C 0.29197 0.47198 0.9334 0.0
C451 C 0.26328 0.49413 0.92152 0.0
C452 C 0.24652 0.50111 0.86719 0.0
C453 C 0.20819 0.48789 0.84526 0.0
C454 C 0.24863 0.54002 0.85602 0.0
C455 C 0.27016 0.47942 0.8502 0.0
C456 C 0.29589 0.46231 0.88864 0.0
C457 C 0.31995 0.43982 0.88118 0.0
C458 C 0.31727 0.43443 0.8331 0.0
C459 C 0.29126 0.45208 0.79346 0.0
C460 C 0.2679 0.47522 0.80251 0.0
H461 H 0.70605 0.49258 0.70091 0.0
H462 H 0.77194 0.40065 0.72496 0.0
H463 H 0.77801 0.41097 0.64669 0.0
H464 H 0.66034 0.4798 0.56545 0.0
H465 H 0.65813 0.52604 0.55389 0.0
H466 H 0.65677 0.50973 0.60998 0.0
H467 H 0.71008 0.54893 0.65946 0.0
H468 H 0.71185 0.56506 0.60368 0.0
H469 H 0.75039 0.54529 0.64943 0.0
H470 H 0.78488 0.43671 0.57345 0.0
H471 H 0.78468 0.47152 0.50307 0.0
H472 H 0.70882 0.54262 0.52081 0.0
C473 C 0.72098 0.47421 0.68898 0.0
C474 C 0.7392 0.44628 0.71928 0.0
C475 C 0.75853 0.42271 0.70267 0.0
C476 C 0.76195 0.42823 0.6582 0.0
C477 C 0.74491 0.45683 0.63001 0.0
C478 C 0.72402 0.47892 0.64403 0.0
C479 C 0.70916 0.50813 0.60734 0.0
C480 C 0.66869 0.50577 0.5827 0.0
C481 C 0.7211 0.54396 0.63143 0.0
C482 C 0.72606 0.49975 0.57163 0.0
C483 C 0.74676 0.47014 0.58553 0.0
C484 C 0.76795 0.45932 0.56128 0.0
C485 C 0.76783 0.47923 0.52162 0.0
C486 C 0.74615 0.50906 0.5062 0.0
C487 C 0.72478 0.51922 0.53119 0.0
H488 H 0.55949 0.94475 0.50538 0.0
H489 H 0.62919 0.02503 0.59491 0.0
H490 H 0.57764 0.06138 0.58574 0.0
H491 H 0.49509 0.00185 0.42146 0.0
H492 H 0.45788 0.9751 0.41664 0.0
H493 H 0.50038 0.95537 0.43028 0.0
H494 H 0.49797 0.92768 0.50838 0.0
H495 H 0.45558 0.94762 0.49519 0.0
H496 H 0.49149 0.95524 0.55322 0.0
H497 H 0.51892 0.08976 0.56512 0.0
H498 H 0.45661 0.10857 0.53384 0.0
H499 H 0.42436 0.00938 0.45982 0.0
C500 C 0.56385 0.97004 0.52291 0.0
C501 C 0.59845 0.98252 0.54954 0.0
C502 C 0.60309 0.0155 0.57256 0.0
C503 C 0.57391 0.03615 0.56818 0.0
C504 C 0.5402 0.02325 0.54123 0.0
C505 C 0.53496 0.99096 0.51902 0.0
C506 C 0.49591 0.98346 0.49173 0.0
C507 C 0.48679 0.97868 0.43677 0.0
C508 C 0.48458 0.95161 0.51344 0.0
C509 C 0.48005 0.01675 0.50173 0.0
C510 C 0.50613 0.03926 0.53051 0.0
C511 C 0.49825 0.07222 0.543 0.0
C512 C 0.46282 0.08267 0.52507 0.0
C513 C 0.43563 0.06018 0.49529 0.0
C514 C 0.44441 0.02667 0.48386 0.0
H515 H 0.42542 0.98485 0.93603 0.0
H516 H 0.45089 0.88433 0.00789 0.0
H517 H 0.5135 0.90209 0.04891 0.0
H518 H 0.50366 0.99226 0.91266 0.0
H519 H 0.50818 0.03863 0.92286 0.0
H520 H 0.46513 0.01879 0.90156 0.0
H521 H 0.45471 0.04514 0.975 0.0
H522 H 0.49771 0.06518 0.99644 0.0
H523 H 0.48623 0.03681 0.03625 0.0
H524 H 0.57309 0.93118 0.08259 0.0
H525 H 0.62593 0.96784 0.10281 0.0
H526 H 0.56236 0.04814 0.00474 0.0
C527 C 0.44415 0.96693 0.96114 0.0
C528 C 0.43346 0.93354 0.9698 0.0
C529 C 0.45873 0.91017 0.00137 0.0
C530 C 0.49423 0.92005 0.02483 0.0
C531 C 0.50402 0.95323 0.01571 0.0
C532 C 0.47979 0.97625 0.9844 0.0
C533 C 0.49751 0.0097 0.97909 0.0
C534 C 0.49338 0.01514 0.92589 0.0
C535 C 0.48319 0.04106 0.99782 0.0
C536 C 0.53548 0.00185 0.0122 0.0
C537 C 0.53863 0.96928 0.03326 0.0
C538 C 0.57105 0.95651 0.06567 0.0
C539 C 0.60114 0.9774 0.07639 0.0
C540 C 0.59877 0.01047 0.05406 0.0
C541 C 0.56526 0.02286 0.02209 0.0
H542 H 0.96001 0.55969 0.4686 0.0
H543 H 0.90989 0.49706 0.54474 0.0
H544 H 0.96335 0.46061 0.57914 0.0
H545 H 1.00533 0.48957 0.43805 0.0
H546 H 0.04441 0.51476 0.44743 0.0
H547 H 1.00223 0.53613 0.42909 0.0
H548 H 0.02763 0.57697 0.50422 0.0
H549 H 0.06985 0.55553 0.52299 0.0
H550 H 0.04778 0.55836 0.56456 0.0
H551 H 0.02161 0.4304 0.60418 0.0
H552 H 0.08085 0.40789 0.61773 0.0
H553 H 0.09365 0.49012 0.52576 0.0
C554 C 0.96035 0.53829 0.49255 0.0
C555 C 0.93046 0.53068 0.50305 0.0
C556 C 0.93194 0.50265 0.53476 0.0
C557 C 0.96239 0.48205 0.555 0.0
C558 C 0.99123 0.48999 0.54346 0.0
C559 C 0.99054 0.51741 0.51298 0.0
C560 C 0.025 0.51998 0.50592 0.0
C561 C 0.01886 0.51479 0.45192 0.0
C562 C 0.04366 0.55478 0.52561 0.0
C563 C 0.04511 0.48963 0.53707 0.0
C564 C 0.02515 0.4728 0.55851 0.0
C565 C 0.03758 0.44349 0.58785 0.0
C566 C 0.07123 0.43088 0.59524 0.0
C567 C 0.0922 0.44759 0.57359 0.0
C568 C 0.07887 0.47741 0.54417 0.0
H569 H 0.09121 0.49006 0.04836 0.0
H570 H 0.05589 0.57698 0.9472 0.0
H571 H 0.99548 0.55332 0.91471 0.0
H572 H 0.03338 0.42375 0.96485 0.0
H573 H 0.02539 0.40186 0.01316 0.0
H574 H 0.06661 0.42423 0.0263 0.0
H575 H 0.05614 0.46062 0.09269 0.0
H576 H 0.01476 0.43866 0.07946 0.0
H577 H 0.016 0.48554 0.07646 0.0
H578 H 0.93875 0.52281 0.8961 0.0
H579 H 0.88839 0.4859 0.89126 0.0
H580 H 0.95939 0.41798 0.00341 0.0
C581 C 0.07104 0.50352 0.0184 0.0
C582 C 0.07841 0.53511 0.99978 0.0
C583 C 0.05086 0.55268 0.9619 0.0
C584 C 0.01648 0.53943 0.94309 0.0
C585 C 1.00996 0.50852 0.96253 0.0
C586 C 0.03638 0.4906 0.99911 0.0
C587 C 0.02166 0.45873 0.01483 0.0
C588 C 0.03771 0.42515 0.00413 0.0
C589 C 0.02749 0.46105 0.06908 0.0
C590 C 0.98283 0.46195 0.98186 0.0
C591 C 0.97681 0.49086 0.95195 0.0
C592 C 0.94308 0.50007 0.91926 0.0
C593 C 0.91465 0.47919 0.9171 0.0
C594 C 0.92008 0.44967 0.94769 0.0
C595 C 0.95465 0.44062 0.97992 0.0
H596 H 0.08867 0.09212 0.28376 0.0
H597 H 0.11145 0.98219 0.27669 0.0
H598 H 0.04786 0.97016 0.23491 0.0
H599 H 0.01119 0.07991 0.30865 0.0
H600 H 0.98734 0.11616 0.27191 0.0
H601 H 0.03488 0.11689 0.29939 0.0
H602 H 0.03683 0.12688 0.21438 0.0
H603 H 0.98927 0.12629 0.18664 0.0
H604 H 0.01432 0.09685 0.16542 0.0
H605 H 0.98254 0.96921 0.19646 0.0
H606 H 0.91851 0.9792 0.16275 0.0
H607 H 0.9362 0.08979 0.19431 0.0
C608 C 0.08027 0.06558 0.27299 0.0
C609 C 0.10515 0.03809 0.28348 0.0
C610 C 0.09301 0.00369 0.26917 0.0
C611 C 0.0569 0.99657 0.24533 0.0
C612 C 0.0331 0.02409 0.23602 0.0
C613 C 0.04414 0.05793 0.24925 0.0
C614 C 0.01271 0.08244 0.23585 0.0
C615 C 0.01146 0.09987 0.28169 0.0
C616 C 0.01333 0.10972 0.19834 0.0
C617 C 0.98237 0.05697 0.21334 0.0
C618 C 0.99493 0.02352 0.21378 0.0
C619 C 0.97236 0.9953 0.19574 0.0
C620 C 0.93592 0.00131 0.17669 0.0
C621 C 0.92215 0.03531 0.17577 0.0
C622 C 0.94583 0.06353 0.19433 0.0
H623 H 0.08877 0.9114 0.79906 0.0
H624 H 0.10564 0.02062 0.84005 0.0
H625 H 0.04138 0.03046 0.80399 0.0
H626 H 0.01593 0.92469 0.68351 0.0
H627 H 0.99217 0.88642 0.68855 0.0
H628 H 0.03964 0.88755 0.71806 0.0
H629 H 0.03599 0.87308 0.80101 0.0
H630 H 0.9885 0.87195 0.77176 0.0
H631 H 1.00983 0.90035 0.82323 0.0
H632 H 0.97591 0.02902 0.76356 0.0
H633 H 0.91262 0.01662 0.72028 0.0
H634 H 0.93679 0.90819 0.70473 0.0
C635 C 0.07895 0.93737 0.80052 0.0
C636 C 0.10237 0.96525 0.82252 0.0
C637 C 0.08836 -0.00116 0.8235 0.0
C638 C 0.05184 0.00471 0.80312 0.0
C639 C 0.02955 0.97675 0.78183 0.0
C640 C 0.04244 0.94374 0.78029 0.0
C641 C 0.0125 0.91838 0.75479 0.0
C642 C 0.01523 0.90339 0.70848 0.0
C643 C 0.01167 0.88922 0.7898 0.0
C644 C 0.98083 0.94239 0.7422 0.0
C645 C 0.99142 0.97591 0.75827 0.0
C646 C 0.96727 0.00287 0.75082 0.0
C647 C 0.93129 0.99551 0.72612 0.0
C648 C 0.91959 0.96141 0.709 0.0
C649 C 0.94483 0.93449 0.71741 0.0
H650 H 0.43023 0.50443 0.21309 0.0
H651 H 0.41083 0.61568 0.19203 0.0
H652 H 0.47502 0.62662 0.22843 0.0
H653 H 0.50389 0.51155 0.33041 0.0
H654 H 0.52773 0.47564 0.31877 0.0
H655 H 0.48021 0.47652 0.29069 0.0
H656 H 0.48268 0.47038 0.20535 0.0
H657 H 0.53021 0.46972 0.23314 0.0
H658 H 0.50775 0.50142 0.18653 0.0
H659 H 0.54101 0.62543 0.26351 0.0
H660 H 0.60474 0.61275 0.30243 0.0
H661 H 0.58164 0.50247 0.30467 0.0
C662 C 0.43951 0.53109 0.21625 0.0
C663 C 0.41555 0.55921 0.19956 0.0
C664 C 0.42869 0.59375 0.2047 0.0
C665 C 0.4651 0.60022 0.22513 0.0
C666 C 0.488 0.57192 0.24075 0.0
C667 C 0.47579 0.53808 0.2372 0.0
C668 C 0.50609 0.51247 0.25793 0.0
C669 C 0.50437 0.4929 0.30208 0.0
C670 C 0.50671 0.487 0.21837 0.0
C671 C 0.53725 0.53721 0.27333 0.0
C672 C 0.52618 0.57134 0.26263 0.0
C673 C 0.55002 0.59884 0.27239 0.0
C674 C 0.58618 0.59133 0.29431 0.0
C675 C 0.59817 0.55663 0.30675 0.0
C676 C 0.57328 0.52926 0.29585 0.0
H677 H 0.58306 0.41457 0.80376 0.0
H678 H 0.60603 0.52494 0.80213 0.0
H679 H 0.54298 0.53669 0.75435 0.0
H680 H 0.51558 0.41023 0.68161 0.0
H681 H 0.48811 0.38015 0.69741 0.0
H682 H 0.53523 0.38 0.73138 0.0
H683 H 0.52608 0.38908 0.81189 0.0
H684 H 0.47893 0.38917 0.77818 0.0
H685 H 0.50007 0.42546 0.81712 0.0
H686 H 0.47792 0.53685 0.70622 0.0
H687 H 0.41427 0.52576 0.6631 0.0
H688 H 0.43205 0.41541 0.69649 0.0
C689 C 0.57482 0.44121 0.79336 0.0
C690 C 0.59964 0.46884 0.80678 0.0
C691 C 0.58766 0.50332 0.79249 0.0
C692 C 0.55184 0.51028 0.7652 0.0
C693 C 0.52814 0.48254 0.75253 0.0
C694 C 0.53899 0.4487 0.76627 0.0
C695 C 0.5078 0.42381 0.74829 0.0
C696 C 0.51194 0.39696 0.71255 0.0
C697 C 0.50294 0.40583 0.79145 0.0
C698 C 0.47779 0.44899 0.72231 0.0
C699 C 0.49025 0.48269 0.7251 0.0
C700 C 0.46782 0.51057 0.70385 0.0
C701 C 0.43163 0.50395 0.67933 0.0
C702 C 0.41799 0.46971 0.67629 0.0
C703 C 0.44156 0.44188 0.69808 0.0
H704 H 0.31347 0.31154 0.57806 0.0
H705 H 0.20869 0.3538 0.49643 0.0
H706 H 0.1945 0.30383 0.4412 0.0
H707 H 0.326 0.27269 0.47284 0.0
H708 H 0.34731 0.23403 0.50564 0.0
H709 H 0.35127 0.27462 0.53786 0.0
H710 H 0.32685 0.24519 0.59658 0.0
H711 H 0.32306 0.20452 0.56474 0.0
H712 H 0.28498 0.22289 0.57162 0.0
H713 H 0.18963 0.24979 0.39623 0.0
H714 H 0.19307 0.19067 0.3668 0.0
H715 H 0.2999 0.18031 0.47673 0.0
C716 C 0.28772 0.31025 0.54833 0.0
C717 C 0.26223 0.33659 0.54182 0.0
C718 C 0.22863 0.33386 0.5027 0.0
C719 C 0.2203 0.30568 0.47067 0.0
C720 C 0.24569 0.28013 0.47808 0.0
C721 C 0.27861 0.28175 0.516 0.0
C722 C 0.29982 0.24916 0.51695 0.0
C723 C 0.33307 0.25818 0.50777 0.0
C724 C 0.30922 0.22926 0.56534 0.0
C725 C 0.27333 0.22909 0.47422 0.0
C726 C 0.24255 0.24786 0.45207 0.0
C727 C 0.21364 0.23476 0.41299 0.0
C728 C 0.21586 0.2011 0.39657 0.0
C729 C 0.24671 0.18077 0.41939 0.0
C730 C 0.27606 0.19529 0.45821 0.0
H731 H 0.79156 0.30859 0.96184 0.0
H732 H 0.67721 0.31832 0.89816 0.0
H733 H 0.67207 0.2606 0.93117 0.0
H734 H 0.79497 0.2147 0.9417 0.0
H735 H 0.832 0.20797 0.99889 0.0
H736 H 0.82669 0.24909 0.9675 0.0
H737 H 0.82877 0.28107 0.04526 0.0
H738 H 0.83365 0.24005 0.0767 0.0
H739 H 0.79799 0.269 0.0721 0.0
H740 H 0.67906 0.20425 0.97464 0.0
H741 H 0.69724 0.15025 0.02206 0.0
H742 H 0.80747 0.17621 0.05829 0.0
C743 C 0.76538 0.29838 0.95408 0.0
C744 C 0.73474 0.31803 0.92727 0.0
C745 C 0.70105 0.30381 0.9185 0.0
C746 C 0.69785 0.27106 0.93716 0.0
C747 C 0.72857 0.25284 0.9644 0.0
C748 C 0.76169 0.26576 0.97255 0.0
C749 C 0.79045 0.24121 0.00431 0.0
C750 C 0.81231 0.22742 0.97642 0.0
C751 C 0.8141 0.2589 0.05244 0.0
C752 C 0.76825 0.21261 0.01311 0.0
C753 C 0.73265 0.21998 0.98968 0.0
C754 C 0.70682 0.19802 0.99285 0.0
C755 C 0.71755 0.16739 0.02012 0.0
C756 C 0.75389 0.15879 0.04398 0.0
C757 C 0.77954 0.18196 0.04059 0.0
H758 H 0.80257 0.68111 0.48276 0.0
H759 H 0.68869 0.67318 0.40524 0.0
H760 H 0.68165 0.73103 0.43558 0.0
H761 H 0.80167 0.72357 0.58883 0.0
H762 H 0.83845 0.75192 0.59688 0.0
H763 H 0.83532 0.71013 0.5679 0.0
H764 H 0.83908 0.74003 0.49199 0.0
H765 H 0.84253 0.7819 0.52091 0.0
H766 H 0.8083 0.77424 0.4614 0.0
H767 H 0.68597 0.7876 0.47623 0.0
H768 H 0.70149 0.84271 0.52117 0.0
H769 H 0.81292 0.81609 0.57241 0.0
C770 C 0.77618 0.69168 0.47178 0.0
C771 C 0.74618 0.67246 0.4416 0.0
C772 C 0.71211 0.68726 0.42826 0.0
C773 C 0.70778 0.72012 0.44538 0.0
C774 C 0.73775 0.73803 0.47564 0.0
C775 C 0.77132 0.72465 0.48846 0.0
C776 C 0.79894 0.74958 0.52177 0.0
C777 C 0.81982 0.73279 0.57181 0.0
C778 C 0.82367 0.76218 0.49756 0.0
C779 C 0.77548 0.77886 0.52586 0.0
C780 C 0.74032 0.77142 0.49897 0.0
C781 C 0.71341 0.79391 0.4972 0.0
C782 C 0.72261 0.8252 0.52306 0.0
C783 C 0.75852 0.83396 0.55035 0.0
C784 C 0.78528 0.81023 0.55195 0.0
H785 H 0.29755 0.81729 0.97785 0.0
H786 H 0.18844 0.81485 0.87338 0.0
H787 H 0.18178 0.75597 0.9009 0.0
H788 H 0.31616 0.72349 0.96797 0.0
H789 H 0.34307 0.7194 0.03229 0.0
H790 H 0.34079 0.76046 0.00171 0.0
H791 H 0.32137 0.79086 0.0648 0.0
H792 H 0.32316 0.74988 0.09523 0.0
H793 H 0.283 0.77511 0.07355 0.0
H794 H 0.18426 0.70122 0.94269 0.0
H795 H 0.19656 0.64918 0.99365 0.0
H796 H 0.30486 0.68381 0.07277 0.0
C797 C 0.27255 0.80398 0.96013 0.0
C798 C 0.24348 0.82066 0.92343 0.0
C799 C 0.211 0.80268 0.90164 0.0
C800 C 0.20695 0.7692 0.91695 0.0
C801 C 0.23563 0.75392 0.95404 0.0
C802 C 0.26794 0.77033 0.97518 0.0
C803 C 0.29377 0.74809 0.01592 0.0
C804 C 0.32532 0.73721 0.00373 0.0
C805 C 0.30603 0.76713 0.06529 0.0
C806 C 0.27054 0.71703 0.0147 0.0
C807 C 0.2372 0.72127 0.97853 0.0
C808 C 0.21036 0.6973 0.97079 0.0
C809 C 0.21773 0.6678 1.00038 0.0
C810 C 0.25182 0.66215 0.03745 0.0
C811 C 0.27864 0.68725 0.04471 0.0
loop_
_geom_bond_atom_site_label_1
_geom_bond_atom_site_label_2
_geom_bond_distance
_geom_bond_site_symmetry_2
_ccdc_geom_bond_type
Co0 O3 1.970 . S
Co0 N17 1.989 . S
Co0 O25 1.967 . S
Co0 O32 1.920 . S
Co1 O4 1.966 . S
Co1 N10 2.022 . S
Co1 N18 1.993 . S
Co1 O26 1.941 . S
C2 O3 1.258 . S
C2 O4 1.263 . S
O3 Co0 1.970 . S
O3 C2 1.258 . S
O4 Co1 1.966 . S
O4 C2 1.263 . S
C5 O6 1.235 . S
C5 O32 1.289 . S
O6 C5 1.235 . S
C7 C9 1.400 . S
C7 N10 1.351 . S
C7 C12 1.501 . S
C8 C9 1.387 . S
C8 N11 1.341 . S
C9 C7 1.400 . S
C9 C8 1.387 . S
N10 Co1 2.022 . S
N10 C7 1.351 . S
N10 N11 1.365 . S
N11 C8 1.341 . S
N11 N10 1.365 . S
N11 H31 0.862 . S
C12 C7 1.501 . S
C12 H13 0.961 . S
C12 H14 0.961 1_545 S
C12 H15 0.960 . S
H13 C12 0.961 . S
H14 C12 0.961 1_565 S
H15 C12 0.960 . S
C16 N17 1.342 . S
C16 C20 1.401 . S
C16 C21 1.499 . S
N17 Co0 1.989 . S
N17 C16 1.342 . S
N17 N18 1.388 . S
N18 Co1 1.993 . S
N18 N17 1.388 . S
N18 C19 1.346 . S
C19 N18 1.346 . S
C19 C20 1.396 . S
C19 C29 1.510 . S
C20 C16 1.401 . S
C20 C19 1.396 . S
C21 C16 1.499 . S
C21 H22 0.959 . S
C21 H23 0.960 . S
C21 H24 0.961 . S
H22 C21 0.959 . S
H23 C21 0.960 . S
H24 C21 0.961 . S
O25 Co0 1.967 . S
O25 C33 1.258 . S
O26 Co1 1.941 . S
O26 C33 1.266 . S
H27 C29 0.959 . S
H28 C29 0.961 . S
C29 C19 1.510 . S
C29 H27 0.959 . S
C29 H28 0.961 . S
C29 H30 0.960 . S
H30 C29 0.960 . S
H31 N11 0.862 . S
O32 Co0 1.920 . S
O32 C5 1.289 . S
C33 O25 1.258 . S
C33 O26 1.266 . S
Co34 O37 1.970 . S
Co34 N51 1.989 . S
Co34 O59 1.967 . S
Co34 O66 1.920 . S
Co35 O38 1.966 . S
Co35 N44 2.022 . S
Co35 N52 1.993 . S
Co35 O60 1.941 . S
C36 O37 1.258 . S
C36 O38 1.263 . S
O37 Co34 1.970 . S
O37 C36 1.258 . S
O38 Co35 1.966 . S
O38 C36 1.263 . S
C39 O40 1.235 . S
C39 O66 1.289 . S
O40 C39 1.235 . S
C41 C43 1.400 . S
C41 N44 1.351 . S
C41 C46 1.501 . S
C42 C43 1.387 . S
C42 N45 1.341 . S
C43 C41 1.400 . S
C43 C42 1.387 . S
N44 Co35 2.022 . S
N44 C41 1.351 . S
N44 N45 1.365 . S
N45 C42 1.341 . S
N45 N44 1.365 . S
N45 H65 0.862 . S
C46 C41 1.501 . S
C46 H47 0.961 . S
C46 H48 0.961 1_545 S
C46 H49 0.960 1_554 S
H47 C46 0.961 . S
H48 C46 0.961 1_565 S
H49 C46 0.960 1_556 S
C50 N51 1.342 . S
C50 C54 1.401 . S
C50 C55 1.499 . S
N51 Co34 1.989 . S
N51 C50 1.342 . S
N51 N52 1.388 . S
N52 Co35 1.993 . S
N52 N51 1.388 . S
N52 C53 1.346 . S
C53 N52 1.346 . S
C53 C54 1.396 . S
C53 C63 1.510 . S
C54 C50 1.401 . S
C54 C53 1.396 . S
C55 C50 1.499 . S
C55 H56 0.959 . S
C55 H57 0.960 . S
C55 H58 0.961 . S
H56 C55 0.959 . S
H57 C55 0.960 . S
H58 C55 0.961 . S
O59 Co34 1.967 . S
O59 C67 1.258 . S
O60 Co35 1.941 . S
O60 C67 1.266 . S
H61 C63 0.959 . S
H62 C63 0.961 . S
C63 C53 1.510 . S
C63 H61 0.959 . S
C63 H62 0.961 . S
C63 H64 0.960 . S
H64 C63 0.960 . S
H65 N45 0.862 . S
O66 Co34 1.920 . S
O66 C39 1.289 . S
C67 O59 1.258 . S
C67 O60 1.266 . S
Co68 O71 1.970 . S
Co68 N85 1.989 . S
Co68 O93 1.967 . S
Co68 O100 1.920 . S
Co69 O72 1.966 . S
Co69 N78 2.022 . S
Co69 N86 1.993 . S
Co69 O94 1.941 . S
C70 O71 1.258 . S
C70 O72 1.263 . S
O71 Co68 1.970 . S
O71 C70 1.258 . S
O72 Co69 1.966 . S
O72 C70 1.263 . S
C73 O74 1.235 . S
C73 O100 1.289 . S
O74 C73 1.235 . S
C75 C77 1.400 . S
C75 N78 1.351 . S
C75 C80 1.501 . S
C76 C77 1.387 . S
C76 N79 1.341 . S
C77 C75 1.400 . S
C77 C76 1.387 . S
N78 Co69 2.022 . S
N78 C75 1.351 . S
N78 N79 1.365 . S
N79 C76 1.341 . S
N79 N78 1.365 . S
N79 H99 0.862 . S
C80 C75 1.501 . S
C80 H81 0.961 . S
C80 H82 0.961 1_565 S
C80 H83 0.960 . S
H81 C80 0.961 . S
H82 C80 0.961 1_545 S
H83 C80 0.960 . S
C84 N85 1.342 . S
C84 C88 1.401 . S
C84 C89 1.499 . S
N85 Co68 1.989 . S
N85 C84 1.342 . S
N85 N86 1.388 . S
N86 Co69 1.993 . S
N86 N85 1.388 . S
N86 C87 1.346 . S
C87 N86 1.346 . S
C87 C88 1.396 . S
C87 C97 1.510 . S
C88 C84 1.401 . S
C88 C87 1.396 . S
C89 C84 1.499 . S
C89 H90 0.959 . S
C89 H91 0.960 . S
C89 H92 0.961 . S
H90 C89 0.959 . S
H91 C89 0.960 . S
H92 C89 0.961 . S
O93 Co68 1.967 . S
O93 C101 1.258 . S
O94 Co69 1.941 . S
O94 C101 1.266 . S
H95 C97 0.959 . S
H96 C97 0.961 . S
C97 C87 1.510 . S
C97 H95 0.959 . S
C97 H96 0.961 . S
C97 H98 0.960 . S
H98 C97 0.960 . S
H99 N79 0.862 . S
O100 Co68 1.920 . S
O100 C73 1.289 . S
C101 O93 1.258 . S
C101 O94 1.266 . S
Co102 O105 1.970 . S
Co102 N119 1.989 . S
Co102 O127 1.967 . S
Co102 O134 1.920 . S
Co103 O106 1.966 . S
Co103 N112 2.022 . S
Co103 N120 1.993 . S
Co103 O128 1.941 . S
C104 O105 1.258 . S
C104 O106 1.263 . S
O105 Co102 1.970 . S
O105 C104 1.258 . S
O106 Co103 1.966 . S
O106 C104 1.263 . S
C107 O108 1.235 . S
C107 O134 1.289 . S
O108 C107 1.235 . S
C109 C111 1.400 . S
C109 N112 1.351 . S
C109 C114 1.501 . S
C110 C111 1.387 . S
C110 N113 1.341 . S
C111 C109 1.400 . S
C111 C110 1.387 . S
N112 Co103 2.022 . S
N112 C109 1.351 . S
N112 N113 1.365 . S
N113 C110 1.341 . S
N113 N112 1.365 . S
N113 H133 0.862 . S
C114 C109 1.501 . S
C114 H115 0.961 . S
C114 H116 0.961 1_565 S
C114 H117 0.960 1_556 S
H115 C114 0.961 . S
H116 C114 0.961 1_545 S
H117 C114 0.960 1_554 S
C118 N119 1.342 . S
C118 C122 1.401 . S
C118 C123 1.499 . S
N119 Co102 1.989 . S
N119 C118 1.342 . S
N119 N120 1.388 . S
N120 Co103 1.993 . S
N120 N119 1.388 . S
N120 C121 1.346 . S
C121 N120 1.346 . S
C121 C122 1.396 . S
C121 C131 1.510 . S
C122 C118 1.401 . S
C122 C121 1.396 . S
C123 C118 1.499 . S
C123 H124 0.959 . S
C123 H125 0.960 . S
C123 H126 0.961 . S
H124 C123 0.959 . S
H125 C123 0.960 . S
H126 C123 0.961 . S
O127 Co102 1.967 . S
O127 C135 1.258 . S
O128 Co103 1.941 . S
O128 C135 1.266 . S
H129 C131 0.959 . S
H130 C131 0.961 . S
C131 C121 1.510 . S
C131 H129 0.959 . S
C131 H130 0.961 . S
C131 H132 0.960 . S
H132 C131 0.960 . S
H133 N113 0.862 . S
O134 Co102 1.920 . S
O134 C107 1.289 . S
C135 O127 1.258 . S
C135 O128 1.266 . S
Co136 O139 1.970 . S
Co136 N153 1.989 . S
Co136 O161 1.967 . S
Co136 O168 1.920 . S
Co137 O140 1.966 . S
Co137 N146 2.022 . S
Co137 N154 1.993 . S
Co137 O162 1.941 . S
C138 O139 1.258 . S
C138 O140 1.263 . S
O139 Co136 1.970 . S
O139 C138 1.258 . S
O140 Co137 1.966 . S
O140 C138 1.263 . S
C141 O142 1.235 . S
C141 O168 1.289 . S
O142 C141 1.235 . S
C143 C145 1.400 . S
C143 N146 1.351 . S
C143 C148 1.501 . S
C144 C145 1.387 . S
C144 N147 1.341 . S
C145 C143 1.400 . S
C145 C144 1.387 . S
N146 Co137 2.022 . S
N146 C143 1.351 . S
N146 N147 1.365 . S
N147 C144 1.341 . S
N147 N146 1.365 . S
N147 H167 0.862 . S
C148 C143 1.501 . S
C148 H149 0.961 . S
C148 H150 0.961 . S
C148 H151 0.960 . S
H149 C148 0.961 . S
H150 C148 0.961 . S
H151 C148 0.960 . S
C152 N153 1.342 . S
C152 C156 1.401 . S
C152 C157 1.499 . S
N153 Co136 1.989 . S
N153 C152 1.342 . S
N153 N154 1.388 . S
N154 Co137 1.993 . S
N154 N153 1.388 . S
N154 C155 1.346 . S
C155 N154 1.346 . S
C155 C156 1.396 . S
C155 C165 1.510 . S
C156 C152 1.401 . S
C156 C155 1.396 . S
C157 C152 1.499 . S
C157 H158 0.959 . S
C157 H159 0.960 . S
C157 H160 0.961 . S
H158 C157 0.959 . S
H159 C157 0.960 . S
H160 C157 0.961 . S
O161 Co136 1.967 . S
O161 C169 1.258 . S
O162 Co137 1.941 . S
O162 C169 1.266 . S
H163 C165 0.959 . S
H164 C165 0.961 . S
C165 C155 1.510 . S
C165 H163 0.959 . S
C165 H164 0.961 . S
C165 H166 0.960 . S
H166 C165 0.960 . S
H167 N147 0.862 . S
O168 Co136 1.920 . S
O168 C141 1.289 . S
C169 O161 1.258 . S
C169 O162 1.266 . S
Co170 O173 1.970 . S
Co170 N187 1.989 . S
Co170 O195 1.967 . S
Co170 O202 1.920 . S
Co171 O174 1.966 . S
Co171 N180 2.022 . S
Co171 N188 1.993 . S
Co171 O196 1.941 . S
C172 O173 1.258 . S
C172 O174 1.263 . S
O173 Co170 1.970 . S
O173 C172 1.258 . S
O174 Co171 1.966 . S
O174 C172 1.263 . S
C175 O176 1.235 . S
C175 O202 1.289 . S
O176 C175 1.235 . S
C177 C179 1.400 . S
C177 N180 1.351 . S
C177 C182 1.501 . S
C178 C179 1.387 . S
C178 N181 1.341 . S
C179 C177 1.400 . S
C179 C178 1.387 . S
N180 Co171 2.022 . S
N180 C177 1.351 . S
N180 N181 1.365 . S
N181 C178 1.341 . S
N181 N180 1.365 . S
N181 H201 0.862 . S
C182 C177 1.501 . S
C182 H183 0.961 . S
C182 H184 0.961 . S
C182 H185 0.960 1_554 S
H183 C182 0.961 . S
H184 C182 0.961 . S
H185 C182 0.960 1_556 S
C186 N187 1.342 . S
C186 C190 1.401 . S
C186 C191 1.499 . S
N187 Co170 1.989 . S
N187 C186 1.342 . S
N187 N188 1.388 . S
N188 Co171 1.993 . S
N188 N187 1.388 . S
N188 C189 1.346 . S
C189 N188 1.346 . S
C189 C190 1.396 . S
C189 C199 1.510 . S
C190 C186 1.401 . S
C190 C189 1.396 . S
C191 C186 1.499 . S
C191 H192 0.959 . S
C191 H193 0.960 . S
C191 H194 0.961 . S
H192 C191 0.959 . S
H193 C191 0.960 . S
H194 C191 0.961 . S
O195 Co170 1.967 . S
O195 C203 1.258 . S
O196 Co171 1.941 . S
O196 C203 1.266 . S
H197 C199 0.959 . S
H198 C199 0.961 . S
C199 C189 1.510 . S
C199 H197 0.959 . S
C199 H198 0.961 . S
C199 H200 0.960 . S
H200 C199 0.960 . S
H201 N181 0.862 . S
O202 Co170 1.920 . S
O202 C175 1.289 . S
C203 O195 1.258 . S
C203 O196 1.266 . S
Co204 O207 1.970 . S
Co204 N221 1.989 . S
Co204 O229 1.967 . S
Co204 O236 1.920 . S
Co205 O208 1.966 . S
Co205 N214 2.022 . S
Co205 N222 1.993 . S
Co205 O230 1.941 . S
C206 O207 1.258 . S
C206 O208 1.263 . S
O207 Co204 1.970 . S
O207 C206 1.258 . S
O208 Co205 1.966 . S
O208 C206 1.263 . S
C209 O210 1.235 . S
C209 O236 1.289 . S
O210 C209 1.235 . S
C211 C213 1.400 . S
C211 N214 1.351 . S
C211 C216 1.501 . S
C212 C213 1.387 . S
C212 N215 1.341 . S
C213 C211 1.400 . S
C213 C212 1.387 . S
N214 Co205 2.022 . S
N214 C211 1.351 . S
N214 N215 1.365 . S
N215 C212 1.341 . S
N215 N214 1.365 . S
N215 H235 0.862 . S
C216 C211 1.501 . S
C216 H217 0.961 . S
C216 H218 0.961 . S
C216 H219 0.960 . S
H217 C216 0.961 . S
H218 C216 0.961 . S
H219 C216 0.960 . S
C220 N221 1.342 . S
C220 C224 1.401 . S
C220 C225 1.499 . S
N221 Co204 1.989 . S
N221 C220 1.342 . S
N221 N222 1.388 . S
N222 Co205 1.993 . S
N222 N221 1.388 . S
N222 C223 1.346 . S
C223 N222 1.346 . S
C223 C224 1.396 . S
C223 C233 1.510 . S
C224 C220 1.401 . S
C224 C223 1.396 . S
C225 C220 1.499 . S
C225 H226 0.959 . S
C225 H227 0.960 . S
C225 H228 0.961 . S
H226 C225 0.959 . S
H227 C225 0.960 . S
H228 C225 0.961 . S
O229 Co204 1.967 . S
O229 C237 1.258 . S
O230 Co205 1.941 . S
O230 C237 1.266 . S
H231 C233 0.959 . S
H232 C233 0.961 . S
C233 C223 1.510 . S
C233 H231 0.959 . S
C233 H232 0.961 . S
C233 H234 0.960 . S
H234 C233 0.960 . S
H235 N215 0.862 . S
O236 Co204 1.920 . S
O236 C209 1.289 . S
C237 O229 1.258 . S
C237 O230 1.266 . S
Co238 O241 1.970 . S
Co238 N255 1.989 . S
Co238 O263 1.967 . S
Co238 O270 1.920 . S
Co239 O242 1.966 . S
Co239 N248 2.022 . S
Co239 N256 1.993 . S
Co239 O264 1.941 . S
C240 O241 1.258 . S
C240 O242 1.263 . S
O241 Co238 1.970 . S
O241 C240 1.258 . S
O242 Co239 1.966 . S
O242 C240 1.263 . S
C243 O244 1.235 . S
C243 O270 1.289 . S
O244 C243 1.235 . S
C245 C247 1.400 . S
C245 N248 1.351 . S
C245 C250 1.501 . S
C246 C247 1.387 . S
C246 N249 1.341 . S
C247 C245 1.400 . S
C247 C246 1.387 . S
N248 Co239 2.022 . S
N248 C245 1.351 . S
N248 N249 1.365 . S
N249 C246 1.341 . S
N249 N248 1.365 . S
N249 H269 0.862 . S
C250 C245 1.501 . S
C250 H251 0.961 . S
C250 H252 0.961 . S
C250 H253 0.960 1_556 S
H251 C250 0.961 . S
H252 C250 0.961 . S
H253 C250 0.960 1_554 S
C254 N255 1.342 . S
C254 C258 1.401 . S
C254 C259 1.499 . S
N255 Co238 1.989 . S
N255 C254 1.342 . S
N255 N256 1.388 . S
N256 Co239 1.993 . S
N256 N255 1.388 . S
N256 C257 1.346 . S
C257 N256 1.346 . S
C257 C258 1.396 . S
C257 C267 1.510 . S
C258 C254 1.401 . S
C258 C257 1.396 . S
C259 C254 1.499 . S
C259 H260 0.959 . S
C259 H261 0.960 . S
C259 H262 0.961 . S
H260 C259 0.959 . S
H261 C259 0.960 . S
H262 C259 0.961 . S
O263 Co238 1.967 . S
O263 C271 1.258 . S
O264 Co239 1.941 . S
O264 C271 1.266 . S
H265 C267 0.959 . S
H266 C267 0.961 . S
C267 C257 1.510 . S
C267 H265 0.959 . S
C267 H266 0.961 . S
C267 H268 0.960 . S
H268 C267 0.960 . S
H269 N249 0.862 . S
O270 Co238 1.920 . S
O270 C243 1.289 . S
C271 O263 1.258 . S
C271 O264 1.266 . S
H272 C284 0.930 . S
H273 C286 0.930 1_556 S
H274 C287 0.930 . S
H275 C291 0.959 . S
H276 C291 0.959 . S
H277 C291 0.961 . S
H278 C292 0.960 . S
H279 C292 0.961 . S
H280 C292 0.959 . S
H281 C295 0.929 . S
H282 C296 0.931 . S
H283 C298 0.930 1_565 S
C284 H272 0.930 . S
C284 C285 1.399 . S
C284 C289 1.399 . S
C285 C284 1.399 . S
C285 C286 1.376 1_565 S
C286 H273 0.930 1_554 S
C286 C285 1.376 1_545 S
C286 C287 1.388 . S
C287 H274 0.930 . S
C287 C286 1.388 . S
C287 C288 1.390 . S
C288 C287 1.390 . S
C288 C289 1.394 1_545 S
C288 C294 1.465 . S
C289 C284 1.399 . S
C289 C288 1.394 1_565 S
C289 C290 1.516 . S
C290 C289 1.516 . S
C290 C291 1.502 . S
C290 C292 1.561 . S
C290 C293 1.526 . S
C291 H275 0.959 . S
C291 H276 0.959 . S
C291 H277 0.961 . S
C291 C290 1.502 . S
C292 H278 0.960 . S
C292 H279 0.961 . S
C292 H280 0.959 . S
C292 C290 1.561 . S
C293 C290 1.526 . S
C293 C294 1.396 1_565 S
C293 C298 1.390 1_565 S
C294 C288 1.465 . S
C294 C293 1.396 1_545 S
C294 C295 1.399 . S
C295 H281 0.929 . S
C295 C294 1.399 . S
C295 C296 1.385 . S
C296 H282 0.931 . S
C296 C295 1.385 . S
C296 C297 1.389 . S
C297 C296 1.389 . S
C297 C298 1.387 . S
C298 H283 0.930 1_545 S
C298 C293 1.390 1_545 S
C298 C297 1.387 . S
H299 C311 0.913 1_565 S
H300 C313 0.930 . S
H301 C314 0.930 . S
H302 C318 0.959 . S
H303 C318 0.959 . S
H304 C318 0.961 . S
H305 C319 0.960 . S
H306 C319 0.961 . S
H307 C319 0.959 . S
H308 C322 0.929 . S
H309 C323 0.931 . S
H310 C325 0.930 . S
C311 H299 0.913 1_545 S
C311 C312 1.419 . S
C311 C316 1.396 1_545 S
C312 C311 1.419 . S
C312 C313 1.376 . S
C313 H300 0.930 . S
C313 C312 1.376 . S
C313 C314 1.388 . S
C314 H301 0.930 . S
C314 C313 1.388 . S
C314 C315 1.390 . S
C315 C314 1.390 . S
C315 C316 1.394 1_545 S
C315 C321 1.465 . S
C316 C311 1.396 1_565 S
C316 C315 1.394 1_565 S
C316 C317 1.516 . S
C317 C316 1.516 . S
C317 C318 1.502 . S
C317 C319 1.561 . S
C317 C320 1.526 . S
C318 H302 0.959 . S
C318 H303 0.959 . S
C318 H304 0.961 . S
C318 C317 1.502 . S
C319 H305 0.960 . S
C319 H306 0.961 . S
C319 H307 0.959 . S
C319 C317 1.561 . S
C320 C317 1.526 . S
C320 C321 1.396 1_565 S
C320 C325 1.390 . S
C321 C315 1.465 . S
C321 C320 1.396 1_545 S
C321 C322 1.399 . S
C322 H308 0.929 . S
C322 C321 1.399 . S
C322 C323 1.385 . S
C323 H309 0.931 . S
C323 C322 1.385 . S
C323 C324 1.389 1_545 S
C324 C323 1.389 1_565 S
C324 C325 1.387 . S
C325 H310 0.930 . S
C325 C320 1.390 . S
C325 C324 1.387 . S
H326 C338 0.915 1_545 S
H327 C340 0.930 . S
H328 C341 0.930 . S
H329 C345 0.959 . S
H330 C345 0.959 . S
H331 C345 0.961 . S
H332 C346 0.960 . S
H333 C346 0.961 . S
H334 C346 0.959 . S
H335 C349 0.929 . S
H336 C350 0.931 1_554 S
H337 C352 0.930 . S
C338 H326 0.915 1_565 S
C338 C339 1.417 . S
C338 C343 1.397 1_565 S
C339 C338 1.417 . S
C339 C340 1.376 . S
C340 H327 0.930 . S
C340 C339 1.376 . S
C340 C341 1.388 . S
C341 H328 0.930 . S
C341 C340 1.388 . S
C341 C342 1.390 . S
C342 C341 1.390 . S
C342 C343 1.394 1_565 S
C342 C348 1.465 . S
C343 C338 1.397 1_545 S
C343 C342 1.394 1_545 S
C343 C344 1.516 . S
C344 C343 1.516 . S
C344 C345 1.502 . S
C344 C346 1.561 . S
C344 C347 1.526 . S
C345 H329 0.959 . S
C345 H330 0.959 . S
C345 H331 0.961 . S
C345 C344 1.502 . S
C346 H332 0.960 . S
C346 H333 0.961 . S
C346 H334 0.959 . S
C346 C344 1.561 . S
C347 C344 1.526 . S
C347 C348 1.396 1_545 S
C347 C352 1.390 . S
C348 C342 1.465 . S
C348 C347 1.396 1_565 S
C348 C349 1.399 . S
C349 H335 0.929 . S
C349 C348 1.399 . S
C349 C350 1.385 . S
C350 H336 0.931 1_556 S
C350 C349 1.385 . S
C350 C351 1.389 1_565 S
C351 C350 1.389 1_545 S
C351 C352 1.387 . S
C352 H337 0.930 . S
C352 C347 1.390 . S
C352 C351 1.387 . S
H353 C365 0.930 . S
H354 C367 0.930 . S
H355 C368 0.930 . S
H356 C372 0.959 . S
H357 C372 0.959 . S
H358 C372 0.961 . S
H359 C373 0.960 . S
H360 C373 0.961 . S
H361 C373 0.959 . S
H362 C376 0.929 . S
H363 C377 0.931 . S
H364 C379 0.930 . S
C365 H353 0.930 . S
C365 C366 1.399 . S
C365 C370 1.399 . S
C366 C365 1.399 . S
C366 C367 1.376 1_565 S
C367 H354 0.930 . S
C367 C366 1.376 1_545 S
C367 C368 1.388 . S
C368 H355 0.930 . S
C368 C367 1.388 . S
C368 C369 1.390 . S
C369 C368 1.390 . S
C369 C370 1.394 1_545 S
C369 C375 1.465 . S
C370 C365 1.399 . S
C370 C369 1.394 1_565 S
C370 C371 1.516 . S
C371 C370 1.516 . S
C371 C372 1.502 . S
C371 C373 1.561 . S
C371 C374 1.526 . S
C372 H356 0.959 . S
C372 H357 0.959 . S
C372 H358 0.961 . S
C372 C371 1.502 . S
C373 H359 0.960 . S
C373 H360 0.961 . S
C373 H361 0.959 . S
C373 C371 1.561 . S
C374 C371 1.526 . S
C374 C375 1.396 1_565 S
C374 C379 1.390 . S
C375 C369 1.465 . S
C375 C374 1.396 1_545 S
C375 C376 1.399 . S
C376 H362 0.929 . S
C376 C375 1.399 . S
C376 C377 1.385 . S
C377 H363 0.931 . S
C377 C376 1.385 . S
C377 C378 1.389 . S
C378 C377 1.389 . S
C378 C379 1.387 1_545 S
C379 H364 0.930 . S
C379 C374 1.390 . S
C379 C378 1.387 1_565 S
H380 C392 0.930 . S
H381 C394 0.930 . S
H382 C395 0.930 . S
H383 C399 0.959 . S
H384 C399 0.959 . S
H385 C399 0.961 . S
H386 C400 0.960 . S
H387 C400 0.961 . S
H388 C400 0.959 . S
H389 C403 0.929 . S
H390 C404 0.931 . S
H391 C406 0.930 . S
C392 H380 0.930 . S
C392 C393 1.399 . S
C392 C397 1.399 . S
C393 C392 1.399 . S
C393 C394 1.376 . S
C394 H381 0.930 . S
C394 C393 1.376 . S
C394 C395 1.388 . S
C395 H382 0.930 . S
C395 C394 1.388 . S
C395 C396 1.390 . S
C396 C395 1.390 . S
C396 C397 1.394 . S
C396 C402 1.465 . S
C397 C392 1.399 . S
C397 C396 1.394 . S
C397 C398 1.516 . S
C398 C397 1.516 . S
C398 C399 1.502 . S
C398 C400 1.561 . S
C398 C401 1.526 . S
C399 H383 0.959 . S
C399 H384 0.959 . S
C399 H385 0.961 . S
C399 C398 1.502 . S
C400 H386 0.960 . S
C400 H387 0.961 . S
C400 H388 0.959 . S
C400 C398 1.561 . S
C401 C398 1.526 . S
C401 C402 1.396 . S
C401 C406 1.390 . S
C402 C396 1.465 . S
C402 C401 1.396 . S
C402 C403 1.399 . S
C403 H389 0.929 . S
C403 C402 1.399 . S
C403 C404 1.385 . S
C404 H390 0.931 . S
C404 C403 1.385 . S
C404 C405 1.389 . S
C405 C404 1.389 . S
C405 C406 1.387 . S
C406 H391 0.930 . S
C406 C401 1.390 . S
C406 C405 1.387 . S
H407 C419 0.930 . S
H408 C421 0.930 . S
H409 C422 0.930 . S
H410 C426 0.959 . S
H411 C426 0.959 . S
H412 C426 0.961 . S
H413 C427 0.960 . S
H414 C427 0.961 . S
H415 C427 0.959 . S
H416 C430 0.929 . S
H417 C431 0.931 . S
H418 C433 0.930 . S
C419 H407 0.930 . S
C419 C420 1.399 . S
C419 C424 1.399 . S
C420 C419 1.399 . S
C420 C421 1.376 . S
C421 H408 0.930 . S
C421 C420 1.376 . S
C421 C422 1.388 . S
C422 H409 0.930 . S
C422 C421 1.388 . S
C422 C423 1.390 . S
C423 C422 1.390 . S
C423 C424 1.394 . S
C423 C429 1.465 . S
C424 C419 1.399 . S
C424 C423 1.394 . S
C424 C425 1.516 . S
C425 C424 1.516 . S
C425 C426 1.502 . S
C425 C427 1.561 . S
C425 C428 1.526 . S
C426 H410 0.959 . S
C426 H411 0.959 . S
C426 H412 0.961 . S
C426 C425 1.502 . S
C427 H413 0.960 . S
C427 H414 0.961 . S
C427 H415 0.959 . S
C427 C425 1.561 . S
C428 C425 1.526 . S
C428 C429 1.396 . S
C428 C433 1.390 . S
C429 C423 1.465 . S
C429 C428 1.396 . S
C429 C430 1.399 . S
C430 H416 0.929 . S
C430 C429 1.399 . S
C430 C431 1.385 . S
C431 H417 0.931 . S
C431 C430 1.385 . S
C431 C432 1.389 . S
C432 C431 1.389 . S
C432 C433 1.387 . S
C433 H418 0.930 . S
C433 C428 1.390 . S
C433 C432 1.387 . S
H434 C446 0.930 . S
H435 C448 0.930 1_554 S
H436 C449 0.930 . S
H437 C453 0.959 . S
H438 C453 0.959 . S
H439 C453 0.961 . S
H440 C454 0.960 . S
H441 C454 0.961 . S
H442 C454 0.959 . S
H443 C457 0.929 . S
H444 C458 0.931 . S
H445 C460 0.930 . S
C446 H434 0.930 . S
C446 C447 1.399 . S
C446 C451 1.399 . S
C447 C446 1.399 . S
C447 C448 1.376 . S
C448 H435 0.930 1_556 S
C448 C447 1.376 . S
C448 C449 1.388 . S
C449 H436 0.930 . S
C449 C448 1.388 . S
C449 C450 1.390 . S
C450 C449 1.390 . S
C450 C451 1.394 . S
C450 C456 1.465 . S
C451 C446 1.399 . S
C451 C450 1.394 . S
C451 C452 1.516 . S
C452 C451 1.516 . S
C452 C453 1.502 . S
C452 C454 1.561 . S
C452 C455 1.526 . S
C453 H437 0.959 . S
C453 H438 0.959 . S
C453 H439 0.961 . S
C453 C452 1.502 . S
C454 H440 0.960 . S
C454 H441 0.961 . S
C454 H442 0.959 . S
C454 C452 1.561 . S
C455 C452 1.526 . S
C455 C456 1.396 . S
C455 C460 1.390 . S
C456 C450 1.465 . S
C456 C455 1.396 . S
C456 C457 1.399 . S
C457 H443 0.929 . S
C457 C456 1.399 . S
C457 C458 1.385 . S
C458 H444 0.931 . S
C458 C457 1.385 . S
C458 C459 1.389 . S
C459 C458 1.389 . S
C459 C460 1.387 . S
C460 H445 0.930 . S
C460 C455 1.390 . S
C460 C459 1.387 . S
H461 C473 0.930 . S
H462 C475 0.930 . S
H463 C476 0.930 . S
H464 C480 0.959 . S
H465 C480 0.959 . S
H466 C480 0.961 . S
H467 C481 0.960 . S
H468 C481 0.961 . S
H469 C481 0.959 . S
H470 C484 0.929 . S
H471 C485 0.931 . S
H472 C487 0.930 . S
C473 H461 0.930 . S
C473 C474 1.399 . S
C473 C478 1.399 . S
C474 C473 1.399 . S
C474 C475 1.376 . S
C475 H462 0.930 . S
C475 C474 1.376 . S
C475 C476 1.388 . S
C476 H463 0.930 . S
C476 C475 1.388 . S
C476 C477 1.390 . S
C477 C476 1.390 . S
C477 C478 1.394 . S
C477 C483 1.465 . S
C478 C473 1.399 . S
C478 C477 1.394 . S
C478 C479 1.516 . S
C479 C478 1.516 . S
C479 C480 1.502 . S
C479 C481 1.561 . S
C479 C482 1.526 . S
C480 H464 0.959 . S
C480 H465 0.959 . S
C480 H466 0.961 . S
C480 C479 1.502 . S
C481 H467 0.960 . S
C481 H468 0.961 . S
C481 H469 0.959 . S
C481 C479 1.561 . S
C482 C479 1.526 . S
C482 C483 1.396 . S
C482 C487 1.390 . S
C483 C477 1.465 . S
C483 C482 1.396 . S
C483 C484 1.399 . S
C484 H470 0.929 . S
C484 C483 1.399 . S
C484 C485 1.385 . S
C485 H471 0.931 . S
C485 C484 1.385 . S
C485 C486 1.389 . S
C486 C485 1.389 . S
C486 C487 1.387 . S
C487 H472 0.930 . S
C487 C482 1.390 . S
C487 C486 1.387 . S
H488 C500 0.930 . S
H489 C502 0.930 . S
H490 C503 0.930 . S
H491 C507 0.959 . S
H492 C507 0.959 . S
H493 C507 0.961 . S
H494 C508 0.960 . S
H495 C508 0.961 . S
H496 C508 0.959 . S
H497 C511 0.929 . S
H498 C512 0.931 . S
H499 C514 0.930 . S
C500 H488 0.930 . S
C500 C501 1.399 . S
C500 C505 1.399 . S
C501 C500 1.399 . S
C501 C502 1.376 1_565 S
C502 H489 0.930 . S
C502 C501 1.376 1_545 S
C502 C503 1.388 . S
C503 H490 0.930 . S
C503 C502 1.388 . S
C503 C504 1.390 . S
C504 C503 1.390 . S
C504 C505 1.394 1_545 S
C504 C510 1.465 . S
C505 C500 1.399 . S
C505 C504 1.394 1_565 S
C505 C506 1.516 . S
C506 C505 1.516 . S
C506 C507 1.502 . S
C506 C508 1.561 . S
C506 C509 1.526 . S
C507 H491 0.959 . S
C507 H492 0.959 . S
C507 H493 0.961 . S
C507 C506 1.502 . S
C508 H494 0.960 . S
C508 H495 0.961 . S
C508 H496 0.959 . S
C508 C506 1.561 . S
C509 C506 1.526 . S
C509 C510 1.396 1_565 S
C509 C514 1.390 . S
C510 C504 1.465 . S
C510 C509 1.396 1_545 S
C510 C511 1.399 . S
C511 H497 0.929 . S
C511 C510 1.399 . S
C511 C512 1.385 . S
C512 H498 0.931 . S
C512 C511 1.385 . S
C512 C513 1.389 . S
C513 C512 1.389 . S
C513 C514 1.387 1_545 S
C514 H499 0.930 . S
C514 C509 1.390 . S
C514 C513 1.387 1_565 S
H515 C527 0.930 . S
H516 C529 0.930 . S
H517 C530 0.930 . S
H518 C534 0.959 . S
H519 C534 0.959 1_554 S
H520 C534 0.961 . S
H521 C535 0.960 . S
H522 C535 0.961 . S
H523 C535 0.959 . S
H524 C538 0.929 1_556 S
H525 C539 0.931 . S
H526 C541 0.930 . S
C527 H515 0.930 . S
C527 C528 1.399 1_545 S
C527 C532 1.399 1_556 S
C528 C527 1.399 1_565 S
C528 C529 1.376 . S
C529 H516 0.930 . S
C529 C528 1.376 . S
C529 C530 1.388 . S
C530 H517 0.930 . S
C530 C529 1.388 . S
C530 C531 1.390 . S
C531 C530 1.390 . S
C531 C532 1.393 1_566 S
C531 C537 1.465 1_556 S
C532 C527 1.399 1_554 S
C532 C531 1.393 1_544 S
C532 C533 1.516 . S
C533 C532 1.516 . S
C533 C534 1.502 1_554 S
C533 C535 1.561 . S
C533 C536 1.526 . S
C534 H518 0.959 . S
C534 H519 0.959 1_556 S
C534 H520 0.961 . S
C534 C533 1.502 1_556 S
C535 H521 0.960 . S
C535 H522 0.961 . S
C535 H523 0.959 . S
C535 C533 1.561 . S
C536 C533 1.526 . S
C536 C537 1.396 1_545 S
C536 C541 1.390 . S
C537 C531 1.465 1_554 S
C537 C536 1.396 1_565 S
C537 C538 1.399 . S
C538 H524 0.929 1_554 S
C538 C537 1.399 . S
C538 C539 1.385 . S
C539 H525 0.931 . S
C539 C538 1.385 . S
C539 C540 1.389 1_565 S
C540 C539 1.389 1_545 S
C540 C541 1.387 . S
C541 H526 0.930 . S
C541 C536 1.390 . S
C541 C540 1.387 . S
H542 C554 0.930 . S
H543 C556 0.930 . S
H544 C557 0.930 . S
H545 C561 0.959 . S
H546 C561 0.959 1_455 S
H547 C561 0.961 . S
H548 C562 0.960 1_655 S
H549 C562 0.961 . S
H550 C562 0.959 . S
H551 C565 0.929 . S
H552 C566 0.931 . S
H553 C568 0.930 . S
C554 H542 0.930 . S
C554 C555 1.399 . S
C554 C559 1.399 . S
C555 C554 1.399 . S
C555 C556 1.376 . S
C556 H543 0.930 . S
C556 C555 1.376 . S
C556 C557 1.388 . S
C557 H544 0.930 . S
C557 C556 1.388 . S
C557 C558 1.390 . S
C558 C557 1.390 . S
C558 C559 1.394 . S
C558 C564 1.465 1_655 S
C559 C554 1.399 . S
C559 C558 1.394 . S
C559 C560 1.516 . S
C560 C559 1.516 . S
C560 C561 1.502 . S
C560 C562 1.561 1_655 S
C560 C563 1.526 1_655 S
C561 H545 0.959 . S
C561 H546 0.959 1_655 S
C561 H547 0.961 . S
C561 C560 1.502 . S
C562 H548 0.960 1_455 S
C562 H549 0.961 . S
C562 H550 0.959 . S
C562 C560 1.561 1_455 S
C563 C560 1.526 1_455 S
C563 C564 1.396 . S
C563 C568 1.390 . S
C564 C558 1.465 1_455 S
C564 C563 1.396 . S
C564 C565 1.399 . S
C565 H551 0.929 . S
C565 C564 1.399 . S
C565 C566 1.385 . S
C566 H552 0.931 . S
C566 C565 1.385 . S
C566 C567 1.389 . S
C567 C566 1.389 . S
C567 C568 1.387 . S
C568 H553 0.930 . S
C568 C563 1.390 . S
C568 C567 1.387 . S
H569 C581 0.930 . S
H570 C583 0.930 . S
H571 C584 0.930 . S
H572 C588 0.959 1_655 S
H573 C588 0.959 1_655 S
H574 C588 0.961 . S
H575 C589 0.960 . S
H576 C589 0.961 . S
H577 C589 0.959 . S
H578 C592 0.929 . S
H579 C593 0.931 . S
H580 C595 0.930 . S
C581 H569 0.930 . S
C581 C582 1.399 . S
C581 C586 1.399 . S
C582 C581 1.399 . S
C582 C583 1.376 . S
C583 H570 0.930 . S
C583 C582 1.376 . S
C583 C584 1.388 . S
C584 H571 0.930 . S
C584 C583 1.388 . S
C584 C585 1.390 . S
C585 C584 1.390 . S
C585 C586 1.394 . S
C585 C591 1.465 1_455 S
C586 C581 1.399 . S
C586 C585 1.394 . S
C586 C587 1.516 1_554 S
C587 C586 1.516 1_556 S
C587 C588 1.502 . S
C587 C589 1.561 1_556 S
C587 C590 1.526 1_455 S
C588 H572 0.959 1_455 S
C588 H573 0.959 1_455 S
C588 H574 0.961 . S
C588 C587 1.502 . S
C589 H575 0.960 . S
C589 H576 0.961 . S
C589 H577 0.959 . S
C589 C587 1.561 1_554 S
C590 C587 1.526 1_655 S
C590 C591 1.396 1_556 S
C590 C595 1.390 . S
C591 C585 1.465 1_655 S
C591 C590 1.396 1_554 S
C591 C592 1.399 . S
C592 H578 0.929 . S
C592 C591 1.399 . S
C592 C593 1.385 1_554 S
C593 H579 0.931 . S
C593 C592 1.385 1_556 S
C593 C594 1.389 . S
C594 C593 1.389 . S
C594 C595 1.387 . S
C595 H580 0.930 . S
C595 C590 1.390 . S
C595 C594 1.387 . S
H596 C608 0.930 . S
H597 C610 0.930 . S
H598 C611 0.930 1_565 S
H599 C615 0.959 . S
H600 C615 0.959 . S
H601 C615 0.961 1_455 S
H602 C616 0.960 . S
H603 C616 0.961 1_655 S
H604 C616 0.959 . S
H605 C619 0.929 1_565 S
H606 C620 0.931 . S
H607 C622 0.930 . S
C608 H596 0.930 . S
C608 C609 1.399 . S
C608 C613 1.399 . S
C609 C608 1.399 . S
C609 C610 1.376 . S
C610 H597 0.930 . S
C610 C609 1.376 . S
C610 C611 1.388 . S
C611 H598 0.930 1_545 S
C611 C610 1.388 . S
C611 C612 1.390 . S
C612 C611 1.390 . S
C612 C613 1.394 . S
C612 C618 1.465 1_455 S
C613 C608 1.399 . S
C613 C612 1.394 . S
C613 C614 1.512 1_455 S
C614 C613 1.512 1_655 S
C614 C615 1.504 . S
C614 C616 1.559 1_655 S
C614 C617 1.529 . S
C615 H599 0.959 . S
C615 H600 0.959 . S
C615 H601 0.961 1_655 S
C615 C614 1.504 . S
C616 H602 0.960 . S
C616 H603 0.961 1_455 S
C616 H604 0.959 . S
C616 C614 1.559 1_455 S
C617 C614 1.529 . S
C617 C618 1.396 . S
C617 C622 1.390 . S
C618 C612 1.465 1_655 S
C618 C617 1.396 . S
C618 C619 1.399 . S
C619 H605 0.929 1_545 S
C619 C618 1.399 . S
C619 C620 1.385 . S
C620 H606 0.931 . S
C620 C619 1.385 . S
C620 C621 1.389 . S
C621 C620 1.389 . S
C621 C622 1.387 . S
C622 H607 0.930 . S
C622 C617 1.390 . S
C622 C621 1.387 . S
H623 C635 0.930 . S
H624 C637 0.930 . S
H625 C638 0.930 1_545 S
H626 C642 0.959 . S
H627 C642 0.959 1_655 S
H628 C642 0.961 . S
H629 C643 0.960 1_455 S
H630 C643 0.961 . S
H631 C643 0.959 . S
H632 C646 0.929 1_545 S
H633 C647 0.931 . S
H634 C649 0.930 . S
C635 H623 0.930 . S
C635 C636 1.399 . S
C635 C640 1.399 . S
C636 C635 1.399 . S
C636 C637 1.376 . S
C637 H624 0.930 . S
C637 C636 1.376 . S
C637 C638 1.388 . S
C638 H625 0.930 1_565 S
C638 C637 1.388 . S
C638 C639 1.390 . S
C639 C638 1.390 . S
C639 C640 1.394 . S
C639 C645 1.465 1_455 S
C640 C635 1.399 . S
C640 C639 1.394 . S
C640 C641 1.517 1_455 S
C641 C640 1.517 1_655 S
C641 C642 1.502 1_655 S
C641 C643 1.561 . S
C641 C644 1.525 . S
C642 H626 0.959 . S
C642 H627 0.959 1_455 S
C642 H628 0.961 . S
C642 C641 1.502 1_455 S
C643 H629 0.960 1_655 S
C643 H630 0.961 . S
C643 H631 0.959 . S
C643 C641 1.561 . S
C644 C641 1.525 . S
C644 C645 1.396 . S
C644 C649 1.390 . S
C645 C639 1.465 1_655 S
C645 C644 1.396 . S
C645 C646 1.399 . S
C646 H632 0.929 1_565 S
C646 C645 1.399 . S
C646 C647 1.385 . S
C647 H633 0.931 . S
C647 C646 1.385 . S
C647 C648 1.389 . S
C648 C647 1.389 . S
C648 C649 1.387 . S
C649 H634 0.930 . S
C649 C644 1.390 . S
C649 C648 1.387 . S
H650 C662 0.930 . S
H651 C664 0.930 . S
H652 C665 0.930 . S
H653 C669 0.959 . S
H654 C669 0.959 . S
H655 C669 0.961 . S
H656 C670 0.960 . S
H657 C670 0.961 . S
H658 C670 0.959 . S
H659 C673 0.929 . S
H660 C674 0.931 . S
H661 C676 0.930 . S
C662 H650 0.930 . S
C662 C663 1.399 . S
C662 C667 1.399 . S
C663 C662 1.399 . S
C663 C664 1.376 . S
C664 H651 0.930 . S
C664 C663 1.376 . S
C664 C665 1.388 . S
C665 H652 0.930 . S
C665 C664 1.388 . S
C665 C666 1.390 . S
C666 C665 1.390 . S
C666 C667 1.394 . S
C666 C672 1.465 . S
C667 C662 1.399 . S
C667 C666 1.394 . S
C667 C668 1.516 . S
C668 C667 1.516 . S
C668 C669 1.502 . S
C668 C670 1.561 . S
C668 C671 1.526 . S
C669 H653 0.959 . S
C669 H654 0.959 . S
C669 H655 0.961 . S
C669 C668 1.502 . S
C670 H656 0.960 . S
C670 H657 0.961 . S
C670 H658 0.959 . S
C670 C668 1.561 . S
C671 C668 1.526 . S
C671 C672 1.396 . S
C671 C676 1.390 . S
C672 C666 1.465 . S
C672 C671 1.396 . S
C672 C673 1.399 . S
C673 H659 0.929 . S
C673 C672 1.399 . S
C673 C674 1.385 . S
C674 H660 0.931 . S
C674 C673 1.385 . S
C674 C675 1.389 . S
C675 C674 1.389 . S
C675 C676 1.387 . S
C676 H661 0.930 . S
C676 C671 1.390 . S
C676 C675 1.387 . S
H677 C689 0.930 . S
H678 C691 0.930 . S
H679 C692 0.930 . S
H680 C696 0.959 . S
H681 C696 0.959 . S
H682 C696 0.961 . S
H683 C697 0.960 . S
H684 C697 0.961 . S
H685 C697 0.959 . S
H686 C700 0.929 . S
H687 C701 0.931 . S
H688 C703 0.930 . S
C689 H677 0.930 . S
C689 C690 1.399 . S
C689 C694 1.399 . S
C690 C689 1.399 . S
C690 C691 1.376 . S
C691 H678 0.930 . S
C691 C690 1.376 . S
C691 C692 1.388 . S
C692 H679 0.930 . S
C692 C691 1.388 . S
C692 C693 1.390 . S
C693 C692 1.390 . S
C693 C694 1.394 . S
C693 C699 1.465 . S
C694 C689 1.399 . S
C694 C693 1.394 . S
C694 C695 1.516 . S
C695 C694 1.516 . S
C695 C696 1.502 . S
C695 C697 1.561 . S
C695 C698 1.526 . S
C696 H680 0.959 . S
C696 H681 0.959 . S
C696 H682 0.961 . S
C696 C695 1.502 . S
C697 H683 0.960 . S
C697 H684 0.961 . S
C697 H685 0.959 . S
C697 C695 1.561 . S
C698 C695 1.526 . S
C698 C699 1.396 . S
C698 C703 1.390 . S
C699 C693 1.465 . S
C699 C698 1.396 . S
C699 C700 1.399 . S
C700 H686 0.929 . S
C700 C699 1.399 . S
C700 C701 1.385 . S
C701 H687 0.931 . S
C701 C700 1.385 . S
C701 C702 1.389 . S
C702 C701 1.389 . S
C702 C703 1.387 . S
C703 H688 0.930 . S
C703 C698 1.390 . S
C703 C702 1.387 . S
H704 C716 0.930 . S
H705 C718 0.930 . S
H706 C719 0.930 . S
H707 C723 0.959 . S
H708 C723 0.959 . S
H709 C723 0.961 . S
H710 C724 0.960 . S
H711 C724 0.961 . S
H712 C724 0.959 . S
H713 C727 0.929 . S
H714 C728 0.931 . S
H715 C730 0.930 . S
C716 H704 0.930 . S
C716 C717 1.399 . S
C716 C721 1.399 . S
C717 C716 1.399 . S
C717 C718 1.376 . S
C718 H705 0.930 . S
C718 C717 1.376 . S
C718 C719 1.388 . S
C719 H706 0.930 . S
C719 C718 1.388 . S
C719 C720 1.390 . S
C720 C719 1.390 . S
C720 C721 1.394 . S
C720 C726 1.465 . S
C721 C716 1.399 . S
C721 C720 1.394 . S
C721 C722 1.516 . S
C722 C721 1.516 . S
C722 C723 1.502 . S
C722 C724 1.561 . S
C722 C725 1.526 . S
C723 H707 0.959 . S
C723 H708 0.959 . S
C723 H709 0.961 . S
C723 C722 1.502 . S
C724 H710 0.960 . S
C724 H711 0.961 . S
C724 H712 0.959 . S
C724 C722 1.561 . S
C725 C722 1.526 . S
C725 C726 1.396 . S
C725 C730 1.390 . S
C726 C720 1.465 . S
C726 C725 1.396 . S
C726 C727 1.399 . S
C727 H713 0.929 . S
C727 C726 1.399 . S
C727 C728 1.385 . S
C728 H714 0.931 . S
C728 C727 1.385 . S
C728 C729 1.389 . S
C729 C728 1.389 . S
C729 C730 1.387 . S
C730 H715 0.930 . S
C730 C725 1.390 . S
C730 C729 1.387 . S
H731 C743 0.930 1_554 S
H732 C745 0.930 . S
H733 C746 0.930 . S
H734 C750 0.959 . S
H735 C750 0.959 . S
H736 C750 0.961 . S
H737 C751 0.960 . S
H738 C751 0.961 . S
H739 C751 0.959 . S
H740 C754 0.929 . S
H741 C755 0.931 1_556 S
H742 C757 0.930 . S
C743 H731 0.930 1_556 S
C743 C744 1.399 . S
C743 C748 1.405 . S
C744 C743 1.399 . S
C744 C745 1.376 . S
C745 H732 0.930 . S
C745 C744 1.376 . S
C745 C746 1.388 . S
C746 H733 0.930 . S
C746 C745 1.388 . S
C746 C747 1.390 . S
C747 C746 1.390 . S
C747 C748 1.407 . S
C747 C753 1.465 . S
C748 C743 1.405 . S
C748 C747 1.407 . S
C748 C749 1.498 1_556 S
C749 C748 1.498 1_554 S
C749 C750 1.502 . S
C749 C751 1.561 . S
C749 C752 1.526 . S
C750 H734 0.959 . S
C750 H735 0.959 . S
C750 H736 0.961 . S
C750 C749 1.502 . S
C751 H737 0.960 . S
C751 H738 0.961 . S
C751 H739 0.959 . S
C751 C749 1.561 . S
C752 C749 1.526 . S
C752 C753 1.396 1_554 S
C752 C757 1.390 . S
C753 C747 1.465 . S
C753 C752 1.396 1_556 S
C753 C754 1.399 . S
C754 H740 0.929 . S
C754 C753 1.399 . S
C754 C755 1.385 1_556 S
C755 H741 0.931 1_554 S
C755 C754 1.385 1_554 S
C755 C756 1.389 . S
C756 C755 1.389 . S
C756 C757 1.387 . S
C757 H742 0.930 . S
C757 C752 1.390 . S
C757 C756 1.387 . S
H758 C770 0.930 . S
H759 C772 0.930 . S
H760 C773 0.930 . S
H761 C777 0.959 . S
H762 C777 0.959 . S
H763 C777 0.961 . S
H764 C778 0.960 . S
H765 C778 0.961 . S
H766 C778 0.959 . S
H767 C781 0.929 . S
H768 C782 0.931 . S
H769 C784 0.930 . S
C770 H758 0.930 . S
C770 C771 1.399 . S
C770 C775 1.399 . S
C771 C770 1.399 . S
C771 C772 1.376 . S
C772 H759 0.930 . S
C772 C771 1.376 . S
C772 C773 1.388 . S
C773 H760 0.930 . S
C773 C772 1.388 . S
C773 C774 1.390 . S
C774 C773 1.390 . S
C774 C775 1.394 . S
C774 C780 1.465 . S
C775 C770 1.399 . S
C775 C774 1.394 . S
C775 C776 1.516 . S
C776 C775 1.516 . S
C776 C777 1.502 . S
C776 C778 1.561 . S
C776 C779 1.526 . S
C777 H761 0.959 . S
C777 H762 0.959 . S
C777 H763 0.961 . S
C777 C776 1.502 . S
C778 H764 0.960 . S
C778 H765 0.961 . S
C778 H766 0.959 . S
C778 C776 1.561 . S
C779 C776 1.526 . S
C779 C780 1.396 . S
C779 C784 1.390 . S
C780 C774 1.465 . S
C780 C779 1.396 . S
C780 C781 1.399 . S
C781 H767 0.929 . S
C781 C780 1.399 . S
C781 C782 1.385 . S
C782 H768 0.931 . S
C782 C781 1.385 . S
C782 C783 1.389 . S
C783 C782 1.389 . S
C783 C784 1.387 . S
C784 H769 0.930 . S
C784 C779 1.390 . S
C784 C783 1.387 . S
H785 C797 0.930 1_554 S
H786 C799 0.930 . S
H787 C800 0.930 . S
H788 C804 0.959 . S
H789 C804 0.959 . S
H790 C804 0.961 . S
H791 C805 0.960 . S
H792 C805 0.961 . S
H793 C805 0.959 . S
H794 C808 0.929 . S
H795 C809 0.931 1_556 S
H796 C811 0.930 . S
C797 H785 0.930 1_556 S
C797 C798 1.399 . S
C797 C802 1.392 1_556 S
C798 C797 1.399 . S
C798 C799 1.376 . S
C799 H786 0.930 . S
C799 C798 1.376 . S
C799 C800 1.388 . S
C800 H787 0.930 . S
C800 C799 1.388 . S
C800 C801 1.390 . S
C801 C800 1.390 . S
C801 C802 1.380 1_556 S
C801 C807 1.465 . S
C802 C797 1.392 1_554 S
C802 C801 1.380 1_554 S
C802 C803 1.537 . S
C803 C802 1.537 . S
C803 C804 1.502 . S
C803 C805 1.561 . S
C803 C806 1.526 . S
C804 H788 0.959 . S
C804 H789 0.959 . S
C804 H790 0.961 . S
C804 C803 1.502 . S
C805 H791 0.960 . S
C805 H792 0.961 . S
C805 H793 0.959 . S
C805 C803 1.561 . S
C806 C803 1.526 . S
C806 C807 1.396 1_554 S
C806 C811 1.390 . S
C807 C801 1.465 . S
C807 C806 1.396 1_556 S
C807 C808 1.399 . S
C808 H794 0.929 . S
C808 C807 1.399 . S
C808 C809 1.385 1_556 S
C809 H795 0.931 1_554 S
C809 C808 1.385 1_554 S
C809 C810 1.389 . S
C810 C809 1.389 . S
C810 C811 1.387 . S
C811 H796 0.930 . S
C811 C806 1.390 . S
C811 C810 1.387 . S
C285 C104 1.326 1_554 S
C297 C20 1.327 . S
C312 C54 1.326 . S
C324 C70 1.323 . S
C339 C88 1.326 . S
C351 C36 1.326 1_556 S
C366 C122 1.306 . S
C378 C2 1.310 . S
C393 C156 1.308 . S
C405 C240 1.315 1_554 S
C420 C190 1.311 . S
C432 C206 1.318 . S
C447 C172 1.319 1_556 S
C459 C224 1.327 . S
C474 C258 1.325 . S
C486 C138 1.326 . S
C501 C77 1.407 . S
C513 C9 1.316 . S
C528 C111 1.321 . S
C540 C43 1.408 . S
C555 C145 1.374 . S
C567 C213 1.339 . S
C582 C179 1.317 . S
C594 C247 1.409 . S
C609 C5 1.568 . S
C621 C39 1.571 . S
C636 C107 1.574 . S
C648 C73 1.568 . S
C663 C175 1.602 . S
C675 C141 1.598 . S
C690 C243 1.576 . S
C702 C209 1.568 . S
C717 C237 1.541 . S
C729 C33 1.576 . S
C744 C271 1.577 . S
C756 C67 1.537 . S
C771 C169 1.550 . S
C783 C101 1.569 . S
C798 C135 1.576 . S
C810 C203 1.537 . S
