# Generated by pormake.
# Topology lcy-e, (6)-cn, num edge types: 1
# Building blocks:
#     Node 0, Type 0, BuildingBlock: JUFBIX_clean_sbu_0, # of connection points: 6
#     Node 1, Type 0, BuildingBlock: JUFBIX_clean_sbu_0, # of connection points: 6
#     Node 2, Type 0, BuildingBlock: JUFBIX_clean_sbu_0, # of connection points: 6
#     Node 3, Type 0, BuildingBlock: JUFBIX_clean_sbu_0, # of connection points: 6
#     Node 4, Type 0, BuildingBlock: JUFBIX_clean_sbu_0, # of connection points: 6
#     Node 5, Type 0, BuildingBlock: JUFBIX_clean_sbu_0, # of connection points: 6
#     Node 6, Type 0, BuildingBlock: JUFBIX_clean_sbu_0, # of connection points: 6
#     Node 7, Type 0, BuildingBlock: JUFBIX_clean_sbu_0, # of connection points: 6
#     Node 8, Type 0, BuildingBlock: JUFBIX_clean_sbu_0, # of connection points: 6
#     Node 9, Type 0, BuildingBlock: JUFBIX_clean_sbu_0, # of connection points: 6
#     Node 10, Type 0, BuildingBlock: JUFBIX_clean_sbu_0, # of connection points: 6
#     Node 11, Type 0, BuildingBlock: JUFBIX_clean_sbu_0, # of connection points: 6
#     Edge 12, Type (0, 0), BuildingBlock: XIVTED_clean_linker_0, # of connection points: 2
#     Edge 13, Type (0, 0), BuildingBlock: XIVTED_clean_linker_0, # of connection points: 2
#     Edge 14, Type (0, 0), BuildingBlock: XIVTED_clean_linker_0, # of connection points: 2
#     Edge 15, Type (0, 0), BuildingBlock: XIVTED_clean_linker_0, # of connection points: 2
#     Edge 16, Type (0, 0), BuildingBlock: XIVTED_clean_linker_0, # of connection points: 2
#     Edge 17, Type (0, 0), BuildingBlock: XIVTED_clean_linker_0, # of connection points: 2
#     Edge 18, Type (0, 0), BuildingBlock: XIVTED_clean_linker_0, # of connection points: 2
#     Edge 19, Type (0, 0), BuildingBlock: XIVTED_clean_linker_0, # of connection points: 2
#     Edge 20, Type (0, 0), BuildingBlock: XIVTED_clean_linker_0, # of connection points: 2
#     Edge 21, Type (0, 0), BuildingBlock: XIVTED_clean_linker_0, # of connection points: 2
#     Edge 22, Type (0, 0), BuildingBlock: XIVTED_clean_linker_0, # of connection points: 2
#     Edge 23, Type (0, 0), BuildingBlock: XIVTED_clean_linker_0, # of connection points: 2
#     Edge 24, Type (0, 0), BuildingBlock: XIVTED_clean_linker_0, # of connection points: 2
#     Edge 25, Type (0, 0), BuildingBlock: XIVTED_clean_linker_0, # of connection points: 2
#     Edge 26, Type (0, 0), BuildingBlock: XIVTED_clean_linker_0, # of connection points: 2
#     Edge 27, Type (0, 0), BuildingBlock: XIVTED_clean_linker_0, # of connection points: 2
#     Edge 28, Type (0, 0), BuildingBlock: XIVTED_clean_linker_0, # of connection points: 2
#     Edge 29, Type (0, 0), BuildingBlock: XIVTED_clean_linker_0, # of connection points: 2
#     Edge 30, Type (0, 0), BuildingBlock: XIVTED_clean_linker_0, # of connection points: 2
#     Edge 31, Type (0, 0), BuildingBlock: XIVTED_clean_linker_0, # of connection points: 2
#     Edge 32, Type (0, 0), BuildingBlock: XIVTED_clean_linker_0, # of connection points: 2
#     Edge 33, Type (0, 0), BuildingBlock: XIVTED_clean_linker_0, # of connection points: 2
#     Edge 34, Type (0, 0), BuildingBlock: XIVTED_clean_linker_0, # of connection points: 2
#     Edge 35, Type (0, 0), BuildingBlock: XIVTED_clean_linker_0, # of connection points: 2
#     Edge 36, Type (0, 0), BuildingBlock: XIVTED_clean_linker_0, # of connection points: 2
#     Edge 37, Type (0, 0), BuildingBlock: XIVTED_clean_linker_0, # of connection points: 2
#     Edge 38, Type (0, 0), BuildingBlock: XIVTED_clean_linker_0, # of connection points: 2
#     Edge 39, Type (0, 0), BuildingBlock: XIVTED_clean_linker_0, # of connection points: 2
#     Edge 40, Type (0, 0), BuildingBlock: XIVTED_clean_linker_0, # of connection points: 2
#     Edge 41, Type (0, 0), BuildingBlock: XIVTED_clean_linker_0, # of connection points: 2
#     Edge 42, Type (0, 0), BuildingBlock: XIVTED_clean_linker_0, # of connection points: 2
#     Edge 43, Type (0, 0), BuildingBlock: XIVTED_clean_linker_0, # of connection points: 2
#     Edge 44, Type (0, 0), BuildingBlock: XIVTED_clean_linker_0, # of connection points: 2
#     Edge 45, Type (0, 0), BuildingBlock: XIVTED_clean_linker_0, # of connection points: 2
#     Edge 46, Type (0, 0), BuildingBlock: XIVTED_clean_linker_0, # of connection points: 2
#     Edge 47, Type (0, 0), BuildingBlock: XIVTED_clean_linker_0, # of connection points: 2
# Relax obj value: 0.479
# Max RMSD: 0.346
# Mean RMSD: 0.290
data_MOF--net-lcy-e--node1-JUFBIX_clean_sbu_0--edge1-XIVTED_clean_linker_0
_symmetry_space_group_name_H-M    P1
_symmetry_Int_Tables_number       1
_symmetry_cell_setting            triclinic
loop_
_symmetry_equiv_pos_as_xyz
'x, y, z'
_cell_length_a     37.012826
_cell_length_b     39.444582
_cell_length_c     36.893788
_cell_angle_alpha  87.81868
_cell_angle_beta   90.023315
_cell_angle_gamma 83.300891
loop_
_atom_site_label
_atom_site_type_symbol
_atom_site_fract_x
_atom_site_fract_y
_atom_site_fract_z
_atom_type_partial_charge
Co0 Co 0.17649 0.21013 0.44875 0.0
C1 C 0.10666 0.21138 0.47573 0.0
Co2 Co 0.14887 0.16787 0.42899 0.0
C3 C 0.18574 0.2796 0.45927 0.0
C4 C 0.23345 0.24662 0.47569 0.0
N5 N 0.19929 0.24646 0.46306 0.0
N6 N 0.21013 0.30058 0.46854 0.0
C7 C 0.24026 0.27998 0.47898 0.0
H8 H 0.15895 0.28819 0.44831 0.0
H9 H 0.25248 0.22401 0.48105 0.0
C10 C 0.22053 0.167 0.40501 0.0
N11 N 0.12615 0.1313 0.41377 0.0
C12 C 0.09138 0.13058 0.40283 0.0
C13 C 0.14226 0.09916 0.41008 0.0
N14 N 0.08534 0.0993 0.39214 0.0
C15 C 0.11735 0.07952 0.39674 0.0
C16 C 0.14093 0.22358 0.38174 0.0
O17 O 0.21941 0.19257 0.42496 0.0
O18 O 0.19195 0.1522 0.40168 0.0
O19 O 0.13052 0.19431 0.38741 0.0
O20 O 0.1607 0.23532 0.4053 0.0
O21 O 0.10625 0.18407 0.45821 0.0
H22 H 0.17044 0.09059 0.41655 0.0
H23 H 0.07112 0.15273 0.40206 0.0
O24 O 0.13409 0.22774 0.47295 0.0
O25 O 0.19193 0.18443 0.49202 0.0
O26 O 0.16766 0.14155 0.4694 0.0
C27 C 0.18523 0.15354 0.49448 0.0
H28 H 0.26548 0.2884 0.48794 0.0
H29 H 0.12231 0.0526 0.3913 0.0
Co30 Co 0.03515 0.86186 0.69681 0.0
C31 C 0.98556 0.90916 0.72691 0.0
Co32 Co 0.05086 0.91363 0.68788 0.0
C33 C 0.04937 0.79132 0.71517 0.0
C34 C 0.99322 0.80422 0.70134 0.0
N35 N 0.02516 0.8173 0.70275 0.0
N36 N 0.03383 0.76273 0.72331 0.0
C37 C 0.99843 0.77069 0.71408 0.0
H38 H 0.07757 0.79422 0.72037 0.0
H39 H 0.96746 0.81878 0.69412 0.0
C40 C 0.09728 0.86589 0.65502 0.0
N41 N 0.06225 0.95807 0.68378 0.0
C42 C 0.08334 0.97241 0.65916 0.0
C43 C 0.05578 0.98152 0.7094 0.0
N44 N 0.09061 0.0037 0.66865 0.0
C45 C 0.073 0.00956 0.70014 0.0
C46 C 0.08308 0.87949 0.74973 0.0
O47 O 0.07538 0.84666 0.66869 0.0
O48 O 0.0932 0.89757 0.66099 0.0
O49 O 0.07939 0.90776 0.7317 0.0
O50 O 0.06486 0.85602 0.73995 0.0
O51 O 0.00725 0.92923 0.71396 0.0
H52 H 0.04118 0.97776 0.73434 0.0
H53 H 0.09399 0.95968 0.63531 0.0
O54 O 0.99372 0.8772 0.72426 0.0
O55 O 0.00661 0.86772 0.65378 0.0
O56 O 0.02347 0.91884 0.64336 0.0
C57 C 0.00616 0.89458 0.63344 0.0
H58 H 0.97708 0.75462 0.71932 0.0
H59 H 0.07394 0.03174 0.71634 0.0
Co60 Co 0.332 0.76788 0.97353 0.0
C61 C 0.40347 0.7585 0.99793 0.0
Co62 Co 0.36847 0.79962 0.94289 0.0
C63 C 0.3056 0.7049 1.00012 0.0
C64 C 0.27486 0.74882 0.02178 0.0
N65 N 0.30292 0.73955 0.99958 0.0
N66 N 0.28049 0.69227 0.02174 0.0
C67 C 0.26123 0.7199 0.03559 0.0
H68 H 0.32612 0.68908 0.98552 0.0
H69 H 0.26492 0.77492 0.0276 0.0
C70 C 0.29459 0.80865 0.91994 0.0
N71 N 0.39861 0.82618 0.91555 0.0
C72 C 0.42981 0.83915 0.92425 0.0
C73 C 0.39328 0.83498 0.88016 0.0
N74 N 0.4441 0.85559 0.89553 0.0
C75 C 0.42067 0.85303 0.86798 0.0
C76 C 0.36333 0.73704 0.91325 0.0
O77 O 0.29086 0.78824 0.94683 0.0
O78 O 0.32629 0.81689 0.91274 0.0
O79 O 0.37999 0.7634 0.91124 0.0
O80 O 0.34005 0.73427 0.9381 0.0
O81 O 0.40877 0.78204 0.97453 0.0
H82 H 0.37112 0.82826 0.86383 0.0
H83 H 0.44212 0.83592 0.95094 0.0
O84 O 0.37255 0.7477 0.99985 0.0
O85 O 0.32533 0.80309 0.00906 0.0
O86 O 0.35722 0.83512 0.97418 0.0
C87 C 0.33908 0.831 0.00285 0.0
H88 H 0.23867 0.71926 0.05417 0.0
H89 H 0.4228 0.86339 0.84063 0.0
Co90 Co 0.5016 0.1258 0.21552 0.0
C91 C 0.53172 0.0578 0.22824 0.0
Co92 Co 0.46997 0.08755 0.19275 0.0
C93 C 0.52024 0.17801 0.26239 0.0
C94 C 0.56581 0.15833 0.23072 0.0
N95 N 0.53021 0.15572 0.23625 0.0
N96 N 0.54815 0.19415 0.27362 0.0
C97 C 0.57687 0.18202 0.25355 0.0
H98 H 0.49305 0.18216 0.27337 0.0
H99 H 0.58294 0.14321 0.21215 0.0
C100 C 0.44273 0.15719 0.17984 0.0
N101 N 0.43837 0.05861 0.17424 0.0
C102 C 0.44218 0.0303 0.15418 0.0
C103 C 0.40212 0.06513 0.17951 0.0
N104 N 0.40953 0.0197 0.1466 0.0
C105 C 0.38452 0.04158 0.1626 0.0
C106 C 0.44746 0.1065 0.26173 0.0
O107 O 0.47188 0.16287 0.19506 0.0
O108 O 0.43569 0.12656 0.17719 0.0
O109 O 0.44513 0.085 0.2375 0.0
O110 O 0.47116 0.12721 0.25804 0.0
O111 O 0.50594 0.04965 0.2084 0.0
H112 H 0.38903 0.08607 0.19464 0.0
H113 H 0.46804 0.01832 0.14461 0.0
O114 O 0.53221 0.08885 0.23591 0.0
O115 O 0.53062 0.1239 0.17204 0.0
O116 O 0.49443 0.09026 0.14798 0.0
C117 C 0.52155 0.10727 0.14511 0.0
H118 H 0.60427 0.18871 0.25624 0.0
H119 H 0.35541 0.04054 0.16207 0.0
Co120 Co 0.6655 0.32988 0.52159 0.0
C121 C 0.60101 0.31975 0.48792 0.0
Co122 Co 0.6166 0.35189 0.5506 0.0
C123 C 0.72796 0.2822 0.51003 0.0
C124 C 0.71207 0.31113 0.46129 0.0
N125 N 0.70557 0.30942 0.49722 0.0
N126 N 0.74639 0.26533 0.48341 0.0
C127 C 0.73714 0.28401 0.45272 0.0
H128 H 0.72801 0.27284 0.53795 0.0
H129 H 0.69654 0.32843 0.44206 0.0
C130 C 0.68316 0.36226 0.58198 0.0
N131 N 0.57634 0.37097 0.57554 0.0
C132 C 0.54316 0.38363 0.56258 0.0
C133 C 0.57343 0.37244 0.61187 0.0
N134 N 0.51955 0.39273 0.58944 0.0
C135 C 0.53875 0.38588 0.62047 0.0
C136 C 0.63901 0.28612 0.57461 0.0
O137 O 0.69599 0.34607 0.55502 0.0
O138 O 0.64884 0.3673 0.58645 0.0
O139 O 0.61475 0.31116 0.57801 0.0
O140 O 0.66393 0.28861 0.55133 0.0
O141 O 0.58557 0.33607 0.51392 0.0
H142 H 0.59496 0.36362 0.631 0.0
H143 H 0.5363 0.38522 0.53402 0.0
O144 O 0.63533 0.31395 0.48725 0.0
O145 O 0.666 0.37124 0.49301 0.0
O146 O 0.61829 0.39316 0.52332 0.0
C147 C 0.64221 0.3964 0.49911 0.0
H148 H 0.74432 0.27635 0.42554 0.0
H149 H 0.52866 0.3903 0.6476 0.0
Co150 Co 0.98145 0.37749 0.73135 0.0
C151 C 0.99144 0.31566 0.69623 0.0
Co152 Co 0.96196 0.3348 0.76384 0.0
C153 C 0.02091 0.43457 0.71388 0.0
C154 C 0.9884 0.42281 0.66908 0.0
N155 N 0.99739 0.41296 0.70361 0.0
N156 N 0.02701 0.4575 0.68718 0.0
C157 C 0.00649 0.45024 0.65893 0.0
H158 H 0.03317 0.43365 0.74059 0.0
H159 H 0.97018 0.4106 0.65225 0.0
C160 C 0.95321 0.39912 0.79639 0.0
N161 N 0.9464 0.2993 0.7934 0.0
C162 C 0.9234 0.27564 0.78733 0.0
C163 C 0.95678 0.29324 0.82832 0.0
N164 N 0.9195 0.25499 0.81708 0.0
C165 C 0.94058 0.26623 0.84276 0.0
C166 C 0.03352 0.34532 0.77872 0.0
O167 O 0.96686 0.40803 0.76663 0.0
O168 O 0.94764 0.36791 0.80179 0.0
O169 O 0.00887 0.3261 0.7851 0.0
O170 O 0.02795 0.36915 0.75454 0.0
O171 O 0.97689 0.30321 0.72457 0.0
H172 H 0.9747 0.30793 0.8427 0.0
H173 H 0.90984 0.27363 0.76163 0.0
O174 O 0.99637 0.34699 0.69524 0.0
O175 O 0.93419 0.38578 0.70944 0.0
O176 O 0.9153 0.34414 0.74295 0.0
C177 C 0.9088 0.36823 0.71917 0.0
H178 H 0.00537 0.46321 0.6325 0.0
H179 H 0.94336 0.2563 0.8705 0.0
Co180 Co 0.93284 0.65083 1.00038 0.0
C181 C 0.87354 0.69162 0.97064 0.0
Co182 Co 0.88041 0.6342 0.01672 0.0
C183 C 1.00113 0.64827 0.96301 0.0
C184 C 0.98828 0.69568 0.98892 0.0
N185 N 0.97694 0.66469 0.98559 0.0
N186 N 0.02597 0.66822 0.9505 0.0
C187 C 0.01835 0.6979 0.96746 0.0
H188 H 0.99889 0.62304 0.95347 0.0
H189 H 0.97373 0.71646 0.00319 0.0
C190 C 0.94022 0.59626 0.04864 0.0
N191 N 0.83726 0.61931 0.03081 0.0
C192 C 0.80976 0.63591 0.04932 0.0
C193 C 0.82815 0.58743 0.02749 0.0
N194 N 0.78401 0.61553 0.05795 0.0
C195 C 0.79538 0.58507 0.04404 0.0
C196 C 0.90948 0.6006 0.95691 0.0
O197 O 0.95747 0.61733 0.03103 0.0
O198 O 0.90591 0.59796 0.04559 0.0
O199 O 0.88161 0.60481 0.97681 0.0
O200 O 0.93492 0.61891 0.96194 0.0
O201 O 0.8552 0.67122 0.98835 0.0
H202 H 0.84509 0.56667 0.01545 0.0
H203 H 0.80926 0.66206 0.05739 0.0
O204 O 0.90798 0.6854 0.97016 0.0
O205 O 0.93006 0.68188 0.03894 0.0
O206 O 0.87921 0.66355 0.05706 0.0
C207 C 0.90364 0.68325 0.06106 0.0
H208 H 0.03077 0.72099 0.96152 0.0
H209 H 0.7822 0.56209 0.04765 0.0
Co210 Co 0.52893 0.61178 0.27576 0.0
C211 C 0.50567 0.67169 0.23657 0.0
Co212 Co 0.54792 0.65726 0.29876 0.0
C213 C 0.4966 0.55049 0.27635 0.0
C214 C 0.51017 0.56486 0.22199 0.0
N215 N 0.5129 0.57376 0.25669 0.0
N216 N 0.48254 0.52802 0.25548 0.0
C217 C 0.49138 0.53667 0.22115 0.0
H218 H 0.49335 0.55122 0.30546 0.0
H219 H 0.5192 0.57916 0.19878 0.0
C220 C 0.57254 0.59572 0.33546 0.0
N221 N 0.5635 0.69464 0.32072 0.0
C222 C 0.58775 0.71599 0.30989 0.0
C223 C 0.55463 0.70358 0.35486 0.0
N224 N 0.59391 0.73789 0.33591 0.0
C225 C 0.57294 0.73017 0.36408 0.0
C226 C 0.48254 0.64097 0.32704 0.0
O227 O 0.55532 0.58355 0.3104 0.0
O228 O 0.57206 0.62794 0.33694 0.0
O229 O 0.50495 0.66283 0.32684 0.0
O230 O 0.48799 0.61601 0.30645 0.0
O231 O 0.52412 0.68591 0.25968 0.0
H232 H 0.53743 0.69048 0.37291 0.0
H233 H 0.60142 0.71482 0.28396 0.0
O234 O 0.50305 0.63993 0.24044 0.0
O235 O 0.56934 0.60786 0.24533 0.0
O236 O 0.5905 0.65135 0.27017 0.0
C237 C 0.59357 0.62801 0.24716 0.0
H238 H 0.4824 0.52526 0.19701 0.0
H239 H 0.57259 0.74149 0.39037 0.0
Co240 Co 0.21472 0.41472 0.15111 0.0
C241 C 0.2375 0.45212 0.09108 0.0
Co242 Co 0.20597 0.39158 0.0989 0.0
C243 C 0.24621 0.42268 0.22039 0.0
C244 C 0.2154 0.46896 0.20084 0.0
N245 N 0.22304 0.43565 0.19384 0.0
N246 N 0.25566 0.44689 0.24223 0.0
C247 C 0.23538 0.47594 0.23052 0.0
H248 H 0.25887 0.39655 0.22139 0.0
H249 H 0.19969 0.48767 0.18317 0.0
C250 C 0.1818 0.35725 0.16143 0.0
N251 N 0.19878 0.36891 0.05645 0.0
C252 C 0.18029 0.3783 0.02527 0.0
C253 C 0.21146 0.33577 0.05259 0.0
N254 N 0.18099 0.35208 1.00242 0.0
C255 C 0.20087 0.32551 0.01965 0.0
C256 C 0.27198 0.36759 0.13114 0.0
O257 O 0.19224 0.38244 0.17691 0.0
O258 O 0.18663 0.35447 0.12734 0.0
O259 O 0.25352 0.36787 0.10226 0.0
O260 O 0.26007 0.38656 0.15647 0.0
O261 O 0.22472 0.42979 0.07198 0.0
H262 H 0.22694 0.31967 0.07287 0.0
H263 H 0.16564 0.4034 0.02 0.0
O264 O 0.23716 0.44822 0.12535 0.0
O265 O 0.16923 0.44148 0.14545 0.0
O266 O 0.15862 0.41498 0.09588 0.0
C267 C 0.14799 0.43637 0.11965 0.0
H268 H 0.23835 0.50128 0.23951 0.0
H269 H 0.20719 0.3002 0.00934 0.0
Co270 Co 0.72444 0.01583 0.89486 0.0
C271 C 0.74383 0.99897 0.82409 0.0
Co272 Co 0.69087 0.0447 0.8527 0.0
C273 C 0.75673 0.95362 0.92746 0.0
C274 C 0.77908 0.99521 0.95128 0.0
N275 N 0.75368 0.98805 0.92742 0.0
N276 N 0.78303 0.93884 0.94998 0.0
C277 C 0.79741 0.96487 0.96506 0.0
H278 H 0.74156 0.93953 0.90935 0.0
H279 H 0.785 0.02068 0.95703 0.0
C280 C 0.67327 0.06094 0.92517 0.0
N281 N 0.66113 0.07052 0.81903 0.0
C282 C 0.67045 0.09007 0.79045 0.0
C283 C 0.62449 0.07404 0.81868 0.0
N284 N 0.641 0.10581 0.77233 0.0
C285 C 0.61207 0.09556 0.79008 0.0
C286 C 0.66145 0.98643 0.87672 0.0
O287 O 0.70177 0.04068 0.93253 0.0
O288 O 0.66282 0.06579 0.89218 0.0
O289 O 0.65917 0.00996 0.85212 0.0
O290 O 0.68772 0.98448 0.89921 0.0
O291 O 0.71992 0.02346 0.81426 0.0
H292 H 0.60782 0.06189 0.83817 0.0
H293 H 0.69832 0.09325 0.78366 0.0
O294 O 0.74757 0.99079 0.85746 0.0
O295 O 0.76038 0.04831 0.88994 0.0
O296 O 0.72219 0.07917 0.85304 0.0
C297 C 0.75248 0.07522 0.86972 0.0
H298 H 0.82009 0.96218 0.9839 0.0
H299 H 0.58381 0.10294 0.78298 0.0
Co300 Co 0.8131 0.95181 0.3703 0.0
C301 C 0.78122 0.96376 0.30211 0.0
Co302 Co 0.84311 0.92295 0.32756 0.0
C303 C 0.80105 1.00117 0.42478 0.0
C304 C 0.75154 0.9815 0.41116 0.0
N305 N 0.78766 0.97744 0.40496 0.0
N306 N 0.77476 0.0209 0.44191 0.0
C307 C 0.74352 0.00826 0.4339 0.0
H308 H 0.82939 0.00544 0.42477 0.0
H309 H 0.73202 0.9678 0.39775 0.0
C310 C 0.87248 0.91167 0.39803 0.0
N311 N 0.86977 0.89761 0.29289 0.0
C312 C 0.85942 0.87608 0.26814 0.0
C313 C 0.90604 0.89665 0.28868 0.0
N314 N 0.88792 0.86199 0.24856 0.0
C315 C 0.9172 0.875 0.2616 0.0
C316 C 0.8685 0.98498 0.3386 0.0
O317 O 0.8442 0.93092 0.40633 0.0
O318 O 0.87851 0.90494 0.36486 0.0
O319 O 0.8711 0.95988 0.31786 0.0
O320 O 0.84452 0.98653 0.3632 0.0
O321 O 0.80639 0.94138 0.29151 0.0
H322 H 0.92346 0.9105 0.30472 0.0
H323 H 0.83158 0.87093 0.26457 0.0
O324 O 0.78141 0.97289 0.33467 0.0
O325 O 0.78236 0.91674 0.37657 0.0
O326 O 0.8155 0.8865 0.33728 0.0
C327 C 0.78865 0.88968 0.35879 0.0
H328 H 0.71653 0.01951 0.44113 0.0
H329 H 0.945 0.86868 0.25286 0.0
Co330 Co 0.24323 0.5988 0.55696 0.0
C331 C 0.21865 0.59387 0.62792 0.0
Co332 Co 0.28184 0.61244 0.59807 0.0
C333 C 0.21779 0.55817 0.50253 0.0
C334 C 0.17449 0.59351 0.52171 0.0
N335 N 0.21072 0.58472 0.52431 0.0
N336 N 0.18742 0.54893 0.48746 0.0
C337 C 0.16003 0.57138 0.4992 0.0
H338 H 0.24437 0.54369 0.50061 0.0
H339 H 0.15927 0.61291 0.53738 0.0
C340 C 0.3049 0.61656 0.52577 0.0
N341 N 0.31485 0.62671 0.63009 0.0
C342 C 0.32028 0.61816 0.6656 0.0
C343 C 0.33785 0.65011 0.62249 0.0
N344 N 0.34571 0.63541 0.68043 0.0
C345 C 0.35686 0.65542 0.65326 0.0
C346 C 0.29362 0.54492 0.58466 0.0
O347 O 0.27392 0.60773 0.51899 0.0
O348 O 0.31422 0.61978 0.55852 0.0
O349 O 0.30369 0.5677 0.60433 0.0
O350 O 0.26778 0.55274 0.56201 0.0
O351 O 0.24853 0.60438 0.63689 0.0
H352 H 0.33971 0.66355 0.59658 0.0
H353 H 0.30524 0.60027 0.68045 0.0
O354 O 0.2119 0.58968 0.59486 0.0
O355 O 0.22022 0.64488 0.55247 0.0
O356 O 0.26046 0.65757 0.59193 0.0
C357 C 0.23402 0.66701 0.57065 0.0
H358 H 0.13138 0.5704 0.49407 0.0
H359 H 0.3758 0.67413 0.65586 0.0
H360 H 0.26171 0.34241 0.45347 0.0
H361 H 0.13125 0.51037 0.49395 0.0
H362 H 0.1474 0.34236 0.47612 0.0
H363 H 0.23833 0.51171 0.44812 0.0
H364 H 0.13441 0.44967 0.48243 0.0
H365 H 0.25281 0.4048 0.44873 0.0
C366 C 0.23477 0.35557 0.45755 0.0
C367 C 0.20531 0.33727 0.4655 0.0
C368 C 0.15698 0.46336 0.47431 0.0
C369 C 0.19477 0.40854 0.45976 0.0
C370 C 0.15504 0.49818 0.48056 0.0
C371 C 0.18491 0.51604 0.47264 0.0
C372 C 0.18912 0.44629 0.46037 0.0
C373 C 0.21508 0.4987 0.45549 0.0
C374 C 0.22959 0.39115 0.45443 0.0
C375 C 0.1708 0.35553 0.46981 0.0
N376 N 0.21673 0.46464 0.45054 0.0
N377 N 0.16653 0.39019 0.46722 0.0
H378 H 0.7718 0.93248 0.82345 0.0
H379 H 0.95373 0.97576 0.72512 0.0
H380 H 0.782 0.03073 0.77191 0.0
H381 H 0.93373 0.87357 0.75848 0.0
H382 H 0.8913 0.99664 0.74206 0.0
H383 H 0.82994 0.91002 0.79744 0.0
C384 C 0.7858 0.94901 0.80558 0.0
C385 C 0.77187 0.98337 0.79941 0.0
C386 C 0.9006 0.96966 0.74566 0.0
C387 C 0.83947 0.95829 0.77086 0.0
C388 C 0.93639 0.95774 0.73636 0.0
C389 C 0.94919 0.92283 0.74059 0.0
C390 C 0.87741 0.94657 0.75954 0.0
C391 C 0.92523 0.90069 0.7549 0.0
C392 C 0.81924 0.9363 0.79108 0.0
C393 C 0.79147 0.00391 0.77673 0.0
N394 N 0.89064 0.91293 0.7639 0.0
N395 N 0.82462 0.99122 0.76375 0.0
H396 H 0.26259 0.66409 0.08615 0.0
H397 H 0.23206 0.48026 0.02014 0.0
H398 H 0.28782 0.63946 0.97555 0.0
H399 H 0.26953 0.49915 0.12757 0.0
H400 H 0.24444 0.53856 1.00053 0.0
H401 H 0.25485 0.60423 0.09982 0.0
C402 C 0.26631 0.64606 0.06469 0.0
C403 C 0.27595 0.6568 0.02972 0.0
C404 C 0.25023 0.52953 0.02824 0.0
C405 C 0.26681 0.58794 0.04508 0.0
C406 C 0.24333 0.49626 0.0394 0.0
C407 C 0.24944 0.48462 0.07567 0.0
C408 C 0.26264 0.55131 0.05372 0.0
C409 C 0.26391 0.50677 0.09944 0.0
C410 C 0.26211 0.61183 0.07251 0.0
C411 C 0.28071 0.63213 0.00296 0.0
N412 N 0.26945 0.53889 0.08822 0.0
N413 N 0.27579 0.59886 0.01107 0.0
H414 H 0.5683 0.00452 0.19071 0.0
H415 H 0.74637 0.02759 0.3011 0.0
H416 H 0.57077 0.05882 0.28974 0.0
H417 H 0.74065 0.92935 0.25552 0.0
H418 H 0.68398 0.04537 0.28165 0.0
H419 H 0.6318 0.9791 0.20283 0.0
C420 C 0.58164 0.01014 0.21554 0.0
C421 C 0.56418 0.03386 0.23928 0.0
C422 C 0.69644 0.02006 0.27532 0.0
C423 C 0.63674 0.00633 0.25223 0.0
C424 C 0.73228 0.01007 0.28596 0.0
C425 C 0.74883 0.97697 0.27989 0.0
C426 C 0.67652 0.99692 0.25835 0.0
C427 C 0.72903 0.95525 0.26034 0.0
C428 C 0.61797 0.99602 0.22214 0.0
C429 C 0.5831 0.04083 0.2706 0.0
N430 N 0.69361 0.96547 0.25052 0.0
N431 N 0.61831 0.02768 0.27578 0.0
H432 H 0.79709 0.23256 0.43991 0.0
H433 H 0.73337 0.05273 0.4939 0.0
H434 H 0.72617 0.21604 0.5301 0.0
H435 H 0.82295 0.06478 0.42164 0.0
H436 H 0.73381 0.11201 0.51121 0.0
H437 H 0.81121 0.17052 0.43615 0.0
C438 C 0.78508 0.21594 0.45931 0.0
C439 C 0.76034 0.22962 0.48518 0.0
C440 C 0.75381 0.10146 0.49203 0.0
C441 C 0.77584 0.15881 0.48086 0.0
C442 C 0.75342 0.06771 0.48211 0.0
C443 C 0.778 0.05384 0.45625 0.0
C444 C 0.77857 0.12161 0.47544 0.0
C445 C 0.80369 0.07423 0.44193 0.0
C446 C 0.79313 0.18058 0.45723 0.0
C447 C 0.74566 0.20691 0.50989 0.0
N448 N 0.80294 0.10722 0.45131 0.0
N449 N 0.75319 0.1727 0.50673 0.0
H450 H 0.02062 0.51844 0.65013 0.0
H451 H 0.15147 0.62616 0.63923 0.0
H452 H 0.09021 0.45484 0.72535 0.0
H453 H 0.2243 0.53749 0.6731 0.0
H454 H 0.10031 0.59873 0.66357 0.0
H455 H 0.0654 0.55889 0.64663 0.0
C456 C 0.04518 0.51326 0.66632 0.0
C457 C 0.05176 0.48313 0.68785 0.0
C458 C 0.12743 0.58525 0.66609 0.0
C459 C 0.10317 0.52996 0.68492 0.0
C460 C 0.15671 0.60132 0.65303 0.0
C461 C 0.19197 0.58406 0.6545 0.0
C462 C 0.13346 0.55121 0.67952 0.0
C463 C 0.19744 0.5517 0.67195 0.0
C464 C 0.07062 0.53671 0.66483 0.0
C465 C 0.08395 0.47785 0.70855 0.0
N466 N 0.16834 0.53598 0.68321 0.0
N467 N 0.10874 0.50075 0.70609 0.0
H468 H 0.85256 0.90903 0.95717 0.0
H469 H 0.8017 0.71883 0.97478 0.0
H470 H 0.74172 0.88672 0.94841 0.0
H471 H 0.90727 0.74361 0.94015 0.0
H472 H 0.77839 0.77956 0.96811 0.0
H473 H 0.87317 0.84766 0.95677 0.0
C474 C 0.83259 0.89115 0.95561 0.0
C475 C 0.79543 0.90286 0.95289 0.0
C476 C 0.8065 0.77152 0.96145 0.0
C477 C 0.81866 0.83279 0.95205 0.0
C478 C 0.81976 0.73683 0.96495 0.0
C479 C 0.85658 0.72602 0.95822 0.0
C480 C 0.83038 0.79553 0.95174 0.0
C481 C 0.87874 0.75065 0.94582 0.0
C482 C 0.84432 0.85621 0.95491 0.0
C483 C 0.77063 0.87864 0.95035 0.0
N484 N 0.86546 0.78424 0.94358 0.0
N485 N 0.78265 0.84473 0.95018 0.0
H486 H 0.43567 0.53617 0.31203 0.0
H487 H 0.31701 0.40232 0.23286 0.0
H488 H 0.46769 0.47011 0.22414 0.0
H489 H 0.27378 0.48881 0.29438 0.0
H490 H 0.37796 0.41236 0.24949 0.0
H491 H 0.38376 0.5049 0.32365 0.0
C492 C 0.43246 0.51449 0.29574 0.0
C493 C 0.45583 0.50605 0.26658 0.0
C494 C 0.35509 0.42864 0.26008 0.0
C495 C 0.39604 0.47044 0.2797 0.0
C496 C 0.31996 0.42281 0.25086 0.0
C497 C 0.28991 0.4456 0.26118 0.0
C498 C 0.36028 0.45738 0.27969 0.0
C499 C 0.29616 0.47137 0.2848 0.0
C500 C 0.40261 0.49676 0.30237 0.0
C501 C 0.44989 0.47787 0.24633 0.0
N502 N 0.33075 0.47712 0.29257 0.0
N503 N 0.42025 0.46133 0.25295 0.0
H504 H 0.50773 0.1941 0.3352 0.0
H505 H 0.61095 0.34027 0.41907 0.0
H506 H 0.58887 0.24632 0.27965 0.0
H507 H 0.54831 0.276 0.48457 0.0
H508 H 0.59119 0.31427 0.3647 0.0
H509 H 0.51188 0.23074 0.38699 0.0
C510 C 0.52603 0.2136 0.33368 0.0
C511 C 0.54822 0.21706 0.30315 0.0
C512 C 0.58115 0.30614 0.3908 0.0
C513 C 0.55302 0.25898 0.36218 0.0
C514 C 0.59215 0.32122 0.42178 0.0
C515 C 0.58104 0.31028 0.45613 0.0
C516 C 0.55933 0.2794 0.39413 0.0
C517 C 0.55706 0.2853 0.4584 0.0
C518 C 0.52849 0.23436 0.36331 0.0
C519 C 0.5717 0.24247 0.30281 0.0
N520 N 0.54735 0.27025 0.42773 0.0
N521 N 0.57353 0.26235 0.33186 0.0
H522 H 0.07375 0.27564 0.48292 0.0
H523 H 0.00633 0.24486 0.68744 0.0
H524 H 0.07878 0.17442 0.53204 0.0
H525 H 0.99941 0.34195 0.62838 0.0
H526 H 0.02775 0.2165 0.63122 0.0
H527 H 0.04038 0.29833 0.53524 0.0
C528 C 0.06684 0.25803 0.50439 0.0
C529 C 0.07847 0.22304 0.5027 0.0
C530 C 0.0212 0.24399 0.63071 0.0
C531 C 0.04145 0.24911 0.56431 0.0
C532 C 0.00893 0.26016 0.66279 0.0
C533 C 1.00147 0.29598 0.66301 0.0
C534 C 0.02571 0.26381 0.5987 0.0
C535 C 0.00532 0.3144 0.63007 0.0
C536 C 0.04807 0.27102 0.53462 0.0
C537 C 0.06953 0.2015 0.53186 0.0
N538 N 0.01718 0.29825 0.59973 0.0
N539 N 0.05201 0.21491 0.56172 0.0
H540 H 0.0093 0.70064 0.73383 0.0
H541 H 0.0856 0.69778 0.92959 0.0
H542 H 0.09319 0.76015 0.76803 0.0
H543 H 0.01006 0.63063 0.89329 0.0
H544 H 0.10386 0.70695 0.86673 0.0
H545 H 0.02363 0.6617 0.78616 0.0
C546 C 0.03112 0.70526 0.75186 0.0
C547 C 0.04875 0.73474 0.74722 0.0
C548 C 0.08398 0.68945 0.87261 0.0
C549 C 0.06532 0.69033 0.80726 0.0
C550 C 0.07357 0.68426 0.90854 0.0
C551 C 0.04525 0.66455 0.91668 0.0
C552 C 0.06539 0.6753 0.84468 0.0
C553 C 0.03139 0.64672 0.88848 0.0
C554 C 0.03949 0.68286 0.78168 0.0
C555 C 0.07791 0.73849 0.77068 0.0
N556 N 0.04081 0.65334 0.85363 0.0
N557 N 0.08457 0.71713 0.80018 0.0
H558 H 0.52056 0.73365 0.20489 0.0
H559 H 0.42071 0.69329 0.02178 0.0
H560 H 0.45757 0.64968 0.19017 0.0
H561 H 0.44381 0.79571 0.0408 0.0
H562 H 0.44829 0.67426 0.08004 0.0
H563 H 0.50226 0.75598 0.14322 0.0
C564 C 0.5025 0.72026 0.18906 0.0
C565 C 0.49072 0.68964 0.20275 0.0
C566 C 0.44794 0.70085 0.0714 0.0
C567 C 0.47089 0.71428 0.13228 0.0
C568 C 0.43269 0.71157 0.03786 0.0
C569 C 0.4302 0.74601 0.02645 0.0
C570 C 0.46045 0.72477 0.09419 0.0
C571 C 0.44573 0.7688 0.04852 0.0
C572 C 0.4924 0.73281 0.15383 0.0
C573 C 0.46765 0.67317 0.18087 0.0
N574 N 0.45981 0.75788 0.08176 0.0
N575 N 0.45886 0.68549 0.14686 0.0
H576 H 0.13067 0.29229 0.36828 0.0
H577 H 0.19352 0.28665 0.1668 0.0
H578 H 0.13929 0.19644 0.31472 0.0
H579 H 0.12919 0.3742 0.20949 0.0
H580 H 0.17402 0.25134 0.2183 0.0
H581 H 0.13087 0.32232 0.30913 0.0
C582 C 0.13191 0.27765 0.34395 0.0
C583 C 0.13471 0.24195 0.34628 0.0
C584 C 0.1634 0.27809 0.21568 0.0
C585 C 0.13619 0.27596 0.2785 0.0
C586 C 0.17429 0.29809 0.18621 0.0
C587 C 0.16305 0.3333 0.18419 0.0
C588 C 0.14171 0.29378 0.24313 0.0
C589 C 0.13868 0.34714 0.21034 0.0
C590 C 0.13204 0.29473 0.31019 0.0
C591 C 0.13666 0.22409 0.31394 0.0
N592 N 0.12939 0.32755 0.23902 0.0
N593 N 0.13812 0.24125 0.28129 0.0
H594 H 0.01309 0.93921 0.57539 0.0
H595 H 0.86193 0.86874 0.4549 0.0
H596 H 0.95818 0.8527 0.60918 0.0
H597 H 0.93941 0.93162 0.40949 0.0
H598 H 0.89678 0.86239 0.51168 0.0
H599 H 0.98512 0.93851 0.51514 0.0
C600 C 0.99496 0.92025 0.57026 0.0
C601 C 0.9878 0.89612 0.59752 0.0
C602 C 0.90672 0.87696 0.4891 0.0
C603 C 0.95597 0.89501 0.52854 0.0
C604 C 0.88706 0.88023 0.4566 0.0
C605 C 0.89843 0.89997 0.42735 0.0
C606 C 0.93739 0.89449 0.49277 0.0
C607 C 0.9304 0.91542 0.43121 0.0
C608 C 0.9793 0.91965 0.53575 0.0
C609 C 0.96442 0.87188 0.58911 0.0
N610 N 0.94854 0.91276 0.46355 0.0
N611 N 0.94923 0.87208 0.55552 0.0
H612 H 0.30317 0.62314 0.73849 0.0
H613 H 0.4167 0.73041 0.86212 0.0
H614 H 0.40832 0.65236 0.7089 0.0
H615 H 0.32159 0.68601 0.8997 0.0
H616 H 0.41894 0.69468 0.80953 0.0
H617 H 0.31404 0.6377 0.80088 0.0
C618 C 0.32891 0.63185 0.74522 0.0
C619 C 0.35454 0.63732 0.71823 0.0
C620 C 0.3979 0.6923 0.82954 0.0
C621 C 0.36685 0.65466 0.78947 0.0
C622 C 0.39658 0.71277 0.85955 0.0
C623 C 0.36851 0.71163 0.8849 0.0
C624 C 0.3706 0.67096 0.82454 0.0
C625 C 0.34345 0.68799 0.88052 0.0
C626 C 0.33504 0.64035 0.78089 0.0
C627 C 0.38737 0.64875 0.72864 0.0
N628 N 0.34467 0.66902 0.85049 0.0
N629 N 0.39233 0.65761 0.7633 0.0
H630 H 0.49964 0.09059 0.07804 0.0
H631 H 0.69657 0.07312 0.99305 0.0
H632 H 0.59154 0.12218 0.13432 0.0
H633 H 0.59985 0.08175 0.92652 0.0
H634 H 0.65908 0.08999 0.04539 0.0
H635 H 0.53592 0.08565 0.0227 0.0
C636 C 0.52742 0.09668 0.07871 0.0
C637 C 0.54265 0.10666 0.11093 0.0
C638 C 0.64608 0.08868 0.01926 0.0
C639 C 0.58445 0.1007 0.04765 0.0
C640 C 0.66744 0.07902 0.98936 0.0
C641 C 0.65128 0.07596 0.95538 0.0
C642 C 0.60812 0.09461 0.01542 0.0
C643 C 0.61343 0.08394 0.95218 0.0
C644 C 0.54804 0.09401 0.04703 0.0
C645 C 0.57871 0.11442 0.1101 0.0
N646 N 0.59305 0.09238 0.98196 0.0
N647 N 0.59855 0.11084 0.0791 0.0
H648 H 0.69383 0.23342 0.58754 0.0
H649 H 0.58536 0.15362 0.75136 0.0
H650 H 0.58434 0.27012 0.61897 0.0
H651 H 0.69483 0.1135 0.72303 0.0
H652 H 0.58422 0.19421 0.70029 0.0
H653 H 0.69435 0.18696 0.63391 0.0
C654 C 0.66977 0.23144 0.60379 0.0
C655 C 0.63904 0.25575 0.59943 0.0
C656 C 0.60852 0.17649 0.70505 0.0
C657 C 0.63957 0.20308 0.65264 0.0
C658 C 0.60912 0.15302 0.73426 0.0
C659 C 0.64021 0.12983 0.74169 0.0
C660 C 0.63928 0.17713 0.68289 0.0
C661 C 0.67039 0.13106 0.71869 0.0
C662 C 0.67015 0.20507 0.63038 0.0
C663 C 0.60873 0.25214 0.62146 0.0
N664 N 0.66921 0.15436 0.69036 0.0
N665 N 0.60985 0.22649 0.64712 0.0
H666 H 0.15705 0.29678 0.97334 0.0
H667 H 0.07505 0.39648 0.79343 0.0
H668 H 0.16266 0.40444 0.95272 0.0
H669 H 0.06018 0.29246 0.82451 0.0
H670 H 0.11465 0.3984 0.84649 0.0
H671 H 0.12808 0.29384 0.91484 0.0
C672 C 0.1525 0.31985 0.95636 0.0
C673 C 0.16266 0.3509 0.968 0.0
C674 C 0.10317 0.37501 0.84132 0.0
C675 C 0.12865 0.34774 0.90049 0.0
C676 C 0.08094 0.37373 0.81079 0.0
C677 C 0.06423 0.34424 0.80457 0.0
C678 C 0.10883 0.34655 0.86557 0.0
C679 C 0.07239 0.31574 0.82827 0.0
C680 C 0.1357 0.31816 0.92287 0.0
C681 C 0.15509 0.38005 0.94495 0.0
N682 N 0.09383 0.31771 0.85779 0.0
N683 N 0.13851 0.37778 0.91223 0.0
H684 H 0.93598 0.85317 0.19339 0.0
H685 H 0.85011 0.69445 0.11251 0.0
H686 H 0.84062 0.8148 0.23877 0.0
H687 H 0.94968 0.73071 0.07491 0.0
H688 H 0.84453 0.73868 0.15783 0.0
H689 H 0.93933 0.80945 0.14845 0.0
C690 C 0.91575 0.83545 0.19403 0.0
C691 C 0.88821 0.83754 0.2203 0.0
C692 C 0.86761 0.73686 0.13971 0.0
C693 C 0.89172 0.78714 0.16826 0.0
C694 C 0.87089 0.71156 0.11387 0.0
C695 C 0.90049 0.70874 0.08985 0.0
C696 C 0.89405 0.7596 0.14148 0.0
C697 C 0.92645 0.73176 0.09283 0.0
C698 C 0.91761 0.81047 0.16816 0.0
C699 C 0.86224 0.81427 0.21901 0.0
N700 N 0.92257 0.75615 0.11804 0.0
N701 N 0.86472 0.78993 0.19354 0.0
H702 H 0.29815 0.59886 0.45588 0.0
H703 H 0.47252 0.68182 0.38527 0.0
H704 H 0.36723 0.64803 0.52668 0.0
H705 H 0.42535 0.60314 0.32951 0.0
H706 H 0.42747 0.67845 0.43331 0.0
H707 H 0.33863 0.60862 0.40554 0.0
C708 C 0.32182 0.61183 0.46082 0.0
C709 C 0.32949 0.62257 0.49553 0.0
C710 C 0.42691 0.66214 0.4104 0.0
C711 C 0.37571 0.63394 0.43794 0.0
C712 C 0.45241 0.66417 0.38288 0.0
C713 C 0.45279 0.64252 0.35353 0.0
C714 C 0.40145 0.63861 0.40823 0.0
C715 C 0.42613 0.62014 0.3518 0.0
C716 C 0.3449 0.61731 0.43207 0.0
C717 C 0.36053 0.63917 0.50037 0.0
N718 N 0.40155 0.6187 0.37888 0.0
N719 N 0.38259 0.64443 0.47177 0.0
H720 H 0.23546 0.112 0.36109 0.0
H721 H 0.43668 0.15588 0.31268 0.0
H722 H 0.28459 0.19502 0.40645 0.0
H723 H 0.39116 0.06824 0.27333 0.0
H724 H 0.38257 0.16854 0.35017 0.0
H725 H 0.29303 0.09411 0.33049 0.0
C726 C 0.25829 0.12643 0.36467 0.0
C727 C 0.25502 0.15515 0.38628 0.0
C728 C 0.38461 0.14629 0.33365 0.0
C729 C 0.32109 0.13478 0.35144 0.0
C730 C 0.41569 0.13891 0.31242 0.0
C731 C 0.41856 0.11099 0.28969 0.0
C732 C 0.35603 0.12576 0.33202 0.0
C733 C 0.39022 0.09008 0.29035 0.0
C734 C 0.29122 0.11616 0.34728 0.0
C735 C 0.28567 0.17278 0.39 0.0
N736 N 0.36008 0.09807 0.31081 0.0
N737 N 0.31723 0.16242 0.37271 0.0
H738 H 0.21052 0.08648 0.50102 0.0
H739 H 0.08995 0.0723 0.67399 0.0
H740 H 0.17089 0.1732 0.56331 0.0
H741 H 0.14576 0.98493 0.62214 0.0
H742 H 0.12769 0.10907 0.64043 0.0
H743 H 0.19807 0.0485 0.55201 0.0
C744 C 0.20051 0.09748 0.52611 0.0
C745 C 0.19144 0.13282 0.52812 0.0
C746 C 0.13204 0.08179 0.63676 0.0
C747 C 0.17541 0.08972 0.58578 0.0
C748 C 0.1104 0.06072 0.6559 0.0
C749 C 0.1141 0.02545 0.65042 0.0
C750 C 0.15736 0.06758 0.61162 0.0
C751 C 0.14108 0.01203 0.62648 0.0
C752 C 0.19306 0.07583 0.5551 0.0
C753 C 0.17832 0.146 0.56091 0.0
N754 N 0.16134 0.03316 0.60765 0.0
N755 N 0.1697 0.12434 0.58824 0.0
H756 H 0.13829 0.91752 0.76588 0.0
H757 H 0.22743 0.78612 0.9211 0.0
H758 H 0.09415 0.82456 0.79837 0.0
H759 H 0.28777 0.85945 0.86555 0.0
H760 H 0.17501 0.80497 0.88217 0.0
H761 H 0.18922 0.9019 0.80814 0.0
C762 C 0.13894 0.89408 0.78227 0.0
C763 C 0.11164 0.87241 0.77853 0.0
C764 C 0.19964 0.81703 0.87849 0.0
C765 C 0.17024 0.85431 0.82701 0.0
C766 C 0.22968 0.80636 0.90084 0.0
C767 C 0.26231 0.82115 0.89671 0.0
C768 C 0.20174 0.8431 0.85185 0.0
C769 C 0.26333 0.84722 0.86975 0.0
C770 C 0.16825 0.88506 0.8062 0.0
C771 C 0.11437 0.84216 0.80031 0.0
N772 N 0.23351 0.85741 0.84846 0.0
N773 N 0.14302 0.83408 0.82354 0.0
H774 H 0.44196 0.95412 0.14877 0.0
H775 H 0.3116 0.89739 0.99552 0.0
H776 H 0.35663 0.02229 0.09651 0.0
H777 H 0.3717 0.82429 0.06911 0.0
H778 H 0.32894 0.94369 0.03157 0.0
H779 H 0.42026 0.90608 0.11734 0.0
C780 C 0.41909 0.95894 0.13024 0.0
C781 C 0.40103 0.99203 0.12505 0.0
C782 C 0.33773 0.91754 0.04043 0.0
C783 C 0.3758 0.93773 0.08971 0.0
C784 C 0.32736 0.89117 0.02013 0.0
C785 C 0.33942 0.85714 0.03005 0.0
C786 C 0.36129 0.90987 0.07028 0.0
C787 C 0.36101 0.85029 0.06133 0.0
C788 C 0.40639 0.93161 0.11277 0.0
C789 C 0.37115 0.99707 0.10127 0.0
N790 N 0.37174 0.87649 0.08013 0.0
N791 N 0.35953 0.9703 0.08448 0.0
H792 H 0.88737 0.41046 0.66047 0.0
H793 H 0.6859 0.35518 0.65622 0.0
H794 H 0.84659 0.34223 0.74078 0.0
H795 H 0.74005 0.39591 0.56377 0.0
H796 H 0.73844 0.36396 0.69436 0.0
H797 H 0.82742 0.41826 0.63138 0.0
C798 C 0.86575 0.39736 0.67217 0.0
C799 C 0.87214 0.37525 0.70275 0.0
C800 C 0.73838 0.37164 0.66587 0.0
C801 C 0.80349 0.38425 0.6698 0.0
C802 C 0.70834 0.36696 0.6443 0.0
C803 C 0.70901 0.37474 0.60699 0.0
C804 C 0.76877 0.38447 0.64981 0.0
C805 C 0.73879 0.38945 0.59251 0.0
C806 C 0.83154 0.40184 0.65559 0.0
C807 C 0.843 0.35913 0.71692 0.0
N808 N 0.76762 0.39361 0.61387 0.0
N809 N 0.80999 0.36377 0.70018 0.0
H810 H 0.90107 0.40634 0.85114 0.0
H811 H 0.96457 0.58535 0.90851 0.0
H812 H 0.99062 0.45302 0.80378 0.0
H813 H 0.86575 0.54952 0.94865 0.0
H814 H 0.97525 0.53493 0.87203 0.0
H815 H 0.889 0.45578 0.89053 0.0
C816 C 0.91837 0.42666 0.84933 0.0
C817 C 0.94668 0.42565 0.82394 0.0
C818 C 0.95108 0.53807 0.88866 0.0
C819 C 0.93307 0.48205 0.86841 0.0
C820 C 0.9449 0.56706 0.90941 0.0
C821 C 0.91414 0.57191 0.93162 0.0
C822 C 0.9265 0.51336 0.89013 0.0
C823 C 0.88974 0.54701 0.93175 0.0
C824 C 0.91135 0.45497 0.87153 0.0
C825 C 0.96818 0.45281 0.82259 0.0
N826 N 0.8965 0.51877 0.91149 0.0
N827 N 0.96091 0.47969 0.84429 0.0
H828 H 0.77929 0.65912 0.11346 0.0
H829 H 0.60489 0.58295 0.19331 0.0
H830 H 0.72128 0.58691 0.05891 0.0
H831 H 0.64826 0.66902 0.23922 0.0
H832 H 0.64955 0.58299 0.14524 0.0
H833 H 0.73217 0.66384 0.15988 0.0
C834 C 0.75631 0.64474 0.11087 0.0
C835 C 0.75428 0.6223 0.0825 0.0
C836 C 0.64937 0.6019 0.16579 0.0
C837 C 0.70095 0.627 0.13578 0.0
C838 C 0.62403 0.60174 0.19344 0.0
C839 C 0.62289 0.62605 0.22029 0.0
C840 C 0.67392 0.62643 0.16499 0.0
C841 C 0.64831 0.6498 0.21904 0.0
C842 C 0.72962 0.64723 0.13754 0.0
C843 C 0.72418 0.60397 0.08073 0.0
N844 N 0.6729 0.64942 0.19171 0.0
N845 N 0.69883 0.60651 0.10721 0.0
H846 H 0.67478 0.40812 0.43384 0.0
H847 H 0.57911 0.60077 0.40927 0.0
H848 H 0.60688 0.45857 0.51544 0.0
H849 H 0.61134 0.53572 0.32079 0.0
H850 H 0.60426 0.55457 0.45222 0.0
H851 H 0.66652 0.46082 0.39587 0.0
C852 C 0.65859 0.4304 0.44398 0.0
C853 C 0.64106 0.42885 0.47757 0.0
C854 C 0.60633 0.55076 0.42335 0.0
C855 C 0.63171 0.48909 0.43451 0.0
C856 C 0.59226 0.57711 0.39897 0.0
C857 C 0.59294 0.57172 0.36166 0.0
C858 C 0.62159 0.51932 0.41004 0.0
C859 C 0.60998 0.54061 0.34948 0.0
C860 C 0.65382 0.46041 0.42231 0.0
C861 C 0.62044 0.45853 0.48944 0.0
N862 N 0.62347 0.51552 0.37359 0.0
N863 N 0.61613 0.48739 0.46783 0.0
H864 H 0.32101 0.33961 0.08204 0.0
H865 H 0.37063 0.16887 0.19559 0.0
H866 H 0.28975 0.33233 0.19445 0.0
H867 H 0.45688 0.21236 0.13848 0.0
H868 H 0.33063 0.2226 0.18357 0.0
H869 H 0.36361 0.2872 0.09167 0.0
C870 C 0.32365 0.32732 0.10883 0.0
C871 C 0.30232 0.34043 0.13765 0.0
C872 C 0.35821 0.22003 0.17334 0.0
C873 C 0.34906 0.28012 0.14812 0.0
C874 C 0.38074 0.18944 0.17977 0.0
C875 C 0.41679 0.18642 0.16774 0.0
C876 C 0.37171 0.24714 0.15396 0.0
C877 C 0.42908 0.21391 0.148 0.0
C878 C 0.34764 0.29747 0.11418 0.0
C879 C 0.30619 0.32332 0.17172 0.0
N880 N 0.40645 0.24318 0.14143 0.0
N881 N 0.32864 0.29362 0.17589 0.0
H882 H 0.85616 0.24738 0.782 0.0
H883 H 0.82119 0.07759 0.89901 0.0
H884 H 0.93058 0.19976 0.86389 0.0
H885 H 0.74292 0.1322 0.82474 0.0
H886 H 0.86306 0.12031 0.88487 0.0
H887 H 0.81614 0.20301 0.79463 0.0
C888 C 0.86429 0.22748 0.80236 0.0
C889 C 0.89674 0.22762 0.82205 0.0
C890 C 0.83666 0.12291 0.87175 0.0
C891 C 0.85079 0.17667 0.83701 0.0
C892 C 0.81271 0.09854 0.87991 0.0
C893 C 0.77831 0.10121 0.86324 0.0
C894 C 0.82627 0.15008 0.84656 0.0
C895 C 0.76901 0.12896 0.83849 0.0
C896 C 0.84128 0.20222 0.80981 0.0
C897 C 0.90559 0.20115 0.84842 0.0
N898 N 0.79274 0.1521 0.83092 0.0
N899 N 0.88282 0.17691 0.85513 0.0
H900 H 0.09214 0.42517 0.07483 0.0
H901 H 0.98967 0.60581 0.09952 0.0
H902 H 0.12033 0.49011 0.15958 0.0
H903 H 0.93838 0.52748 0.04806 0.0
H904 H 0.03455 0.56208 0.12682 0.0
H905 H 0.03326 0.45991 0.06807 0.0
C906 C 0.08581 0.44658 0.0922 0.0
C907 C 0.11137 0.45527 0.11727 0.0
C908 C 0.013 0.55422 0.11035 0.0
C909 C 0.04425 0.49488 0.10976 0.0
C910 C 0.98747 0.57916 0.09484 0.0
C911 C 0.96079 0.56991 0.07155 0.0
C912 C 0.01243 0.52003 0.10137 0.0
C913 C 0.95875 0.53531 0.06603 0.0
C914 C 0.05209 0.46617 0.08857 0.0
C915 C 0.1016 0.48285 0.13952 0.0
N916 N 0.98496 0.51147 0.08017 0.0
N917 N 0.06899 0.50205 0.13482 0.0
H918 H 0.79311 0.83032 0.32228 0.0
H919 H 0.58996 0.79644 0.37192 0.0
H920 H 0.72371 0.89195 0.39455 0.0
H921 H 0.65952 0.73235 0.30229 0.0
H922 H 0.63868 0.83214 0.3797 0.0
H923 H 0.74526 0.79339 0.31545 0.0
C924 C 0.768 0.83583 0.33713 0.0
C925 C 0.76235 0.86434 0.35898 0.0
C926 C 0.64334 0.81036 0.3626 0.0
C927 C 0.7073 0.82247 0.35076 0.0
C928 C 0.61551 0.79002 0.35812 0.0
C929 C 0.62083 0.76131 0.33663 0.0
C930 C 0.67684 0.80194 0.34548 0.0
C931 C 0.65422 0.7544 0.31887 0.0
C932 C 0.74061 0.81484 0.33301 0.0
C933 C 0.72926 0.87025 0.37746 0.0
N934 N 0.68111 0.77449 0.32388 0.0
N935 N 0.70289 0.84961 0.37274 0.0
H936 H 0.48485 0.42419 0.52975 0.0
H937 H 0.32225 0.50782 0.64322 0.0
H938 H 0.46721 0.39321 0.6413 0.0
H939 H 0.31766 0.50818 0.52649 0.0
H940 H 0.37289 0.46227 0.64272 0.0
H941 H 0.42241 0.45206 0.52674 0.0
C942 C 0.46788 0.42279 0.55349 0.0
C943 C 0.48183 0.40682 0.58609 0.0
C944 C 0.3603 0.47161 0.61719 0.0
C945 C 0.41029 0.43904 0.58282 0.0
C946 C 0.3313 0.49747 0.61753 0.0
C947 C 0.31595 0.5116 0.58487 0.0
C948 C 0.37476 0.4606 0.58388 0.0
C949 C 0.32873 0.49766 0.55224 0.0
C950 C 0.43213 0.43872 0.5517 0.0
C951 C 0.45827 0.40605 0.61592 0.0
N952 N 0.35809 0.47341 0.55248 0.0
N953 N 0.42392 0.42234 0.6137 0.0
H954 H 0.27011 0.72095 0.58541 0.0
H955 H 0.17109 0.85652 0.66262 0.0
H956 H 0.16503 0.69579 0.55213 0.0
H957 H 0.08334 0.83889 0.59174 0.0
H958 H 0.21141 0.81432 0.63076 0.0
H959 H 0.24386 0.77956 0.5938 0.0
C960 C 0.24141 0.72791 0.57972 0.0
C961 C 0.21938 0.70335 0.56907 0.0
C962 C 0.18387 0.82058 0.62085 0.0
C963 C 0.1888 0.77013 0.58003 0.0
C964 C 0.16094 0.84486 0.63913 0.0
C965 C 0.1242 0.85092 0.62955 0.0
C966 C 0.16952 0.8023 0.59312 0.0
C967 C 0.11174 0.83468 0.59968 0.0
C968 C 0.22637 0.76138 0.58484 0.0
C969 C 0.18278 0.71386 0.56093 0.0
N970 N 0.13419 0.81059 0.58294 0.0
N971 N 0.16846 0.74641 0.56725 0.0
H972 H 0.4791 0.87562 0.83448 0.0
H973 H 0.64501 0.94564 0.93557 0.0
H974 H 0.48698 0.87275 0.95146 0.0
H975 H 0.61064 0.97546 0.82608 0.0
H976 H 0.59317 0.91192 0.9415 0.0
H977 H 0.53275 0.90506 0.83086 0.0
C978 C 0.49169 0.88125 0.85961 0.0
C979 C 0.47744 0.87188 0.89346 0.0
C980 C 0.59716 0.92575 0.91618 0.0
C981 C 0.54061 0.90556 0.88912 0.0
C982 C 0.62687 0.94481 0.91266 0.0
C983 C 0.6323 0.96344 0.88022 0.0
C984 C 0.57304 0.92488 0.88686 0.0
C985 C 0.60766 0.96161 0.85159 0.0
C986 C 0.52278 0.89808 0.85739 0.0
C987 C 0.49654 0.87935 0.92472 0.0
N988 N 0.57933 0.94271 0.85557 0.0
N989 N 0.52706 0.89576 0.9218 0.0
H990 H 0.93024 0.98264 0.29734 0.0
H991 H 0.0162 0.12327 0.41068 0.0
H992 H 0.87158 0.0411 0.37966 0.0
H993 H 0.07816 0.05083 0.34346 0.0
H994 H 0.96025 0.10099 0.39157 0.0
H995 H 0.98153 0.01543 0.30537 0.0
C996 C 0.92782 0.00281 0.31662 0.0
C997 C 0.89661 0.00888 0.3381 0.0
C998 C 0.98609 0.09018 0.3808 0.0
C999 C 0.95556 0.04629 0.34777 0.0
C1000 C 0.01798 0.10299 0.39156 0.0
C1001 C 0.05192 0.0886 0.37898 0.0
C1002 C 0.98818 0.063 0.35701 0.0
C1003 C 0.05266 0.06222 0.35439 0.0
C1004 C 0.95726 0.02139 0.32137 0.0
C1005 C 0.89516 0.03537 0.36269 0.0
N1006 N 0.02135 0.05021 0.34435 0.0
N1007 N 0.92434 0.05286 0.36711 0.0
loop_
_geom_bond_atom_site_label_1
_geom_bond_atom_site_label_2
_geom_bond_distance
_geom_bond_site_symmetry_2
_ccdc_geom_bond_type
Co0 N5 2.057 . S
Co0 O17 2.021 . S
Co0 O20 2.062 . S
Co0 O24 2.117 . S
Co0 O25 2.020 . S
C1 O21 1.259 . S
C1 O24 1.258 . S
Co2 N11 2.057 . S
Co2 O18 2.117 . S
Co2 O19 2.020 . S
Co2 O21 2.021 . S
Co2 O26 2.062 . S
C3 N5 1.316 . S
C3 N6 1.347 . S
C3 H8 0.931 . S
C4 N5 1.375 . S
C4 C7 1.350 . S
C4 H9 0.930 . S
N5 Co0 2.057 . S
N5 C3 1.316 . S
N5 C4 1.375 . S
N6 C3 1.347 . S
N6 C7 1.373 . S
C7 C4 1.350 . S
C7 N6 1.373 . S
C7 H28 0.931 . S
H8 C3 0.931 . S
H9 C4 0.930 . S
C10 O17 1.259 . S
C10 O18 1.258 . S
N11 Co2 2.057 . S
N11 C12 1.316 . S
N11 C13 1.375 . S
C12 N11 1.316 . S
C12 N14 1.347 . S
C12 H23 0.931 . S
C13 N11 1.375 . S
C13 C15 1.350 . S
C13 H22 0.930 . S
N14 C12 1.347 . S
N14 C15 1.373 . S
C15 C13 1.350 . S
C15 N14 1.373 . S
C15 H29 0.931 . S
C16 O19 1.256 . S
C16 O20 1.255 . S
O17 Co0 2.021 . S
O17 C10 1.259 . S
O18 Co2 2.117 . S
O18 C10 1.258 . S
O19 Co2 2.020 . S
O19 C16 1.256 . S
O20 Co0 2.062 . S
O20 C16 1.255 . S
O21 C1 1.259 . S
O21 Co2 2.021 . S
H22 C13 0.930 . S
H23 C12 0.931 . S
O24 Co0 2.117 . S
O24 C1 1.258 . S
O25 Co0 2.020 . S
O25 C27 1.256 . S
O26 Co2 2.062 . S
O26 C27 1.255 . S
C27 O25 1.256 . S
C27 O26 1.255 . S
H28 C7 0.931 . S
H29 C15 0.931 . S
Co30 N35 2.057 . S
Co30 O47 2.021 . S
Co30 O50 2.062 . S
Co30 O54 2.117 . S
Co30 O55 2.020 . S
C31 O51 1.259 . S
C31 O54 1.258 . S
Co32 N41 2.057 . S
Co32 O48 2.117 . S
Co32 O49 2.020 . S
Co32 O51 2.021 . S
Co32 O56 2.062 . S
C33 N35 1.316 . S
C33 N36 1.347 . S
C33 H38 0.931 . S
C34 N35 1.375 . S
C34 C37 1.350 1_455 S
C34 H39 0.930 1_455 S
N35 Co30 2.057 . S
N35 C33 1.316 . S
N35 C34 1.375 . S
N36 C33 1.347 . S
N36 C37 1.373 1_455 S
C37 C34 1.350 1_655 S
C37 N36 1.373 1_655 S
C37 H58 0.931 . S
H38 C33 0.931 . S
H39 C34 0.930 1_655 S
C40 O47 1.259 . S
C40 O48 1.258 . S
N41 Co32 2.057 . S
N41 C42 1.316 . S
N41 C43 1.375 . S
C42 N41 1.316 . S
C42 N44 1.347 . S
C42 H53 0.931 . S
C43 N41 1.375 . S
C43 C45 1.350 . S
C43 H52 0.930 . S
N44 C42 1.347 . S
N44 C45 1.373 . S
C45 C43 1.350 . S
C45 N44 1.373 . S
C45 H59 0.931 . S
C46 O49 1.256 . S
C46 O50 1.255 . S
O47 Co30 2.021 . S
O47 C40 1.259 . S
O48 Co32 2.117 . S
O48 C40 1.258 . S
O49 Co32 2.020 . S
O49 C46 1.256 . S
O50 Co30 2.062 . S
O50 C46 1.255 . S
O51 C31 1.259 . S
O51 Co32 2.021 . S
H52 C43 0.930 . S
H53 C42 0.931 . S
O54 Co30 2.117 . S
O54 C31 1.258 . S
O55 Co30 2.020 . S
O55 C57 1.256 . S
O56 Co32 2.062 . S
O56 C57 1.255 . S
C57 O55 1.256 . S
C57 O56 1.255 . S
H58 C37 0.931 . S
H59 C45 0.931 . S
Co60 N65 2.057 . S
Co60 O77 2.021 . S
Co60 O80 2.062 . S
Co60 O84 2.117 . S
Co60 O85 2.000 1_556 S
C61 O81 1.259 . S
C61 O84 1.258 . S
Co62 N71 2.057 . S
Co62 O78 2.117 . S
Co62 O79 2.020 . S
Co62 O81 2.021 . S
Co62 O86 2.062 . S
C63 N65 1.316 . S
C63 N66 1.347 1_556 S
C63 H68 0.931 . S
C64 N65 1.375 1_554 S
C64 C67 1.350 . S
C64 H69 0.930 . S
N65 Co60 2.057 . S
N65 C63 1.316 . S
N65 C64 1.375 1_556 S
N66 C63 1.347 1_554 S
N66 C67 1.373 . S
C67 C64 1.350 . S
C67 N66 1.373 . S
C67 H88 0.931 . S
H68 C63 0.931 . S
H69 C64 0.930 . S
C70 O77 1.259 . S
C70 O78 1.258 . S
N71 Co62 2.057 . S
N71 C72 1.316 . S
N71 C73 1.375 . S
C72 N71 1.316 . S
C72 N74 1.347 . S
C72 H83 0.931 . S
C73 N71 1.375 . S
C73 C75 1.350 . S
C73 H82 0.930 . S
N74 C72 1.347 . S
N74 C75 1.373 . S
C75 C73 1.350 . S
C75 N74 1.373 . S
C75 H89 0.931 . S
C76 O79 1.256 . S
C76 O80 1.255 . S
O77 Co60 2.021 . S
O77 C70 1.259 . S
O78 Co62 2.117 . S
O78 C70 1.258 . S
O79 Co62 2.020 . S
O79 C76 1.256 . S
O80 Co60 2.062 . S
O80 C76 1.255 . S
O81 C61 1.259 . S
O81 Co62 2.021 . S
H82 C73 0.930 . S
H83 C72 0.931 . S
O84 Co60 2.117 . S
O84 C61 1.258 . S
O85 Co60 2.000 1_554 S
O85 C87 1.255 1_554 S
O86 Co62 2.062 . S
O86 C87 1.255 . S
C87 O85 1.255 1_556 S
C87 O86 1.255 . S
H88 C67 0.931 . S
H89 C75 0.931 . S
Co90 N95 2.057 . S
Co90 O107 2.021 . S
Co90 O110 2.062 . S
Co90 O114 2.117 . S
Co90 O115 2.020 . S
C91 O111 1.259 . S
C91 O114 1.258 . S
Co92 N101 2.057 . S
Co92 O108 2.117 . S
Co92 O109 2.020 . S
Co92 O111 2.021 . S
Co92 O116 2.062 . S
C93 N95 1.316 . S
C93 N96 1.347 . S
C93 H98 0.931 . S
C94 N95 1.375 . S
C94 C97 1.350 . S
C94 H99 0.930 . S
N95 Co90 2.057 . S
N95 C93 1.316 . S
N95 C94 1.375 . S
N96 C93 1.347 . S
N96 C97 1.373 . S
C97 C94 1.350 . S
C97 N96 1.373 . S
C97 H118 0.931 . S
H98 C93 0.931 . S
H99 C94 0.930 . S
C100 O107 1.259 . S
C100 O108 1.258 . S
N101 Co92 2.057 . S
N101 C102 1.316 . S
N101 C103 1.375 . S
C102 N101 1.316 . S
C102 N104 1.347 . S
C102 H113 0.931 . S
C103 N101 1.375 . S
C103 C105 1.350 . S
C103 H112 0.930 . S
N104 C102 1.347 . S
N104 C105 1.373 . S
C105 C103 1.350 . S
C105 N104 1.373 . S
C105 H119 0.931 . S
C106 O109 1.256 . S
C106 O110 1.255 . S
O107 Co90 2.021 . S
O107 C100 1.259 . S
O108 Co92 2.117 . S
O108 C100 1.258 . S
O109 Co92 2.020 . S
O109 C106 1.256 . S
O110 Co90 2.062 . S
O110 C106 1.255 . S
O111 C91 1.259 . S
O111 Co92 2.021 . S
H112 C103 0.930 . S
H113 C102 0.931 . S
O114 Co90 2.117 . S
O114 C91 1.258 . S
O115 Co90 2.020 . S
O115 C117 1.256 . S
O116 Co92 2.062 . S
O116 C117 1.255 . S
C117 O115 1.256 . S
C117 O116 1.255 . S
H118 C97 0.931 . S
H119 C105 0.931 . S
Co120 N125 2.057 . S
Co120 O137 2.021 . S
Co120 O140 2.062 . S
Co120 O144 2.117 . S
Co120 O145 2.020 . S
C121 O141 1.259 . S
C121 O144 1.258 . S
Co122 N131 2.057 . S
Co122 O138 2.117 . S
Co122 O139 2.020 . S
Co122 O141 2.021 . S
Co122 O146 2.062 . S
C123 N125 1.316 . S
C123 N126 1.347 . S
C123 H128 0.931 . S
C124 N125 1.375 . S
C124 C127 1.350 . S
C124 H129 0.930 . S
N125 Co120 2.057 . S
N125 C123 1.316 . S
N125 C124 1.375 . S
N126 C123 1.347 . S
N126 C127 1.373 . S
C127 C124 1.350 . S
C127 N126 1.373 . S
C127 H148 0.931 . S
H128 C123 0.931 . S
H129 C124 0.930 . S
C130 O137 1.259 . S
C130 O138 1.258 . S
N131 Co122 2.057 . S
N131 C132 1.316 . S
N131 C133 1.375 . S
C132 N131 1.316 . S
C132 N134 1.347 . S
C132 H143 0.931 . S
C133 N131 1.375 . S
C133 C135 1.350 . S
C133 H142 0.930 . S
N134 C132 1.347 . S
N134 C135 1.373 . S
C135 C133 1.350 . S
C135 N134 1.373 . S
C135 H149 0.931 . S
C136 O139 1.256 . S
C136 O140 1.255 . S
O137 Co120 2.021 . S
O137 C130 1.259 . S
O138 Co122 2.117 . S
O138 C130 1.258 . S
O139 Co122 2.020 . S
O139 C136 1.256 . S
O140 Co120 2.062 . S
O140 C136 1.255 . S
O141 C121 1.259 . S
O141 Co122 2.021 . S
H142 C133 0.930 . S
H143 C132 0.931 . S
O144 Co120 2.117 . S
O144 C121 1.258 . S
O145 Co120 2.020 . S
O145 C147 1.256 . S
O146 Co122 2.062 . S
O146 C147 1.255 . S
C147 O145 1.256 . S
C147 O146 1.255 . S
H148 C127 0.931 . S
H149 C135 0.931 . S
Co150 N155 2.057 . S
Co150 O167 2.021 . S
Co150 O170 2.062 . S
Co150 O174 2.117 . S
Co150 O175 2.020 . S
C151 O171 1.259 . S
C151 O174 1.258 . S
Co152 N161 2.057 . S
Co152 O168 2.117 . S
Co152 O169 2.020 . S
Co152 O171 2.021 . S
Co152 O176 2.062 . S
C153 N155 1.316 . S
C153 N156 1.347 1_655 S
C153 H158 0.931 . S
C154 N155 1.375 1_455 S
C154 C157 1.350 . S
C154 H159 0.930 . S
N155 Co150 2.057 . S
N155 C153 1.316 . S
N155 C154 1.375 1_655 S
N156 C153 1.347 1_455 S
N156 C157 1.373 . S
C157 C154 1.350 . S
C157 N156 1.373 . S
C157 H178 0.931 . S
H158 C153 0.931 . S
H159 C154 0.930 . S
C160 O167 1.259 . S
C160 O168 1.258 . S
N161 Co152 2.057 . S
N161 C162 1.316 . S
N161 C163 1.375 . S
C162 N161 1.316 . S
C162 N164 1.347 . S
C162 H173 0.931 . S
C163 N161 1.375 . S
C163 C165 1.350 . S
C163 H172 0.930 . S
N164 C162 1.347 . S
N164 C165 1.373 . S
C165 C163 1.350 . S
C165 N164 1.373 . S
C165 H179 0.931 . S
C166 O169 1.256 . S
C166 O170 1.255 . S
O167 Co150 2.021 . S
O167 C160 1.259 . S
O168 Co152 2.117 . S
O168 C160 1.258 . S
O169 Co152 2.020 . S
O169 C166 1.256 . S
O170 Co150 2.062 . S
O170 C166 1.255 . S
O171 C151 1.259 . S
O171 Co152 2.021 . S
H172 C163 0.930 . S
H173 C162 0.931 . S
O174 Co150 2.117 . S
O174 C151 1.258 . S
O175 Co150 2.020 . S
O175 C177 1.256 . S
O176 Co152 2.062 . S
O176 C177 1.255 . S
C177 O175 1.256 . S
C177 O176 1.255 . S
H178 C157 0.931 . S
H179 C165 0.931 . S
Co180 N185 2.057 1_554 S
Co180 O197 2.021 . S
Co180 O200 2.062 1_554 S
Co180 O204 2.117 . S
Co180 O205 2.020 . S
C181 O201 1.259 . S
C181 O204 1.258 . S
Co182 N191 2.057 . S
Co182 O198 2.117 . S
Co182 O199 2.020 . S
Co182 O201 2.021 . S
Co182 O206 2.062 . S
C183 N185 1.316 . S
C183 N186 1.347 . S
C183 H188 0.931 . S
C184 N185 1.375 . S
C184 C187 1.350 . S
C184 H189 0.930 . S
N185 Co180 2.057 1_556 S
N185 C183 1.316 . S
N185 C184 1.375 . S
N186 C183 1.347 . S
N186 C187 1.373 . S
C187 C184 1.350 . S
C187 N186 1.373 . S
C187 H208 0.931 . S
H188 C183 0.931 . S
H189 C184 0.930 . S
C190 O197 1.259 . S
C190 O198 1.258 . S
N191 Co182 2.057 . S
N191 C192 1.316 . S
N191 C193 1.375 . S
C192 N191 1.316 . S
C192 N194 1.347 . S
C192 H203 0.931 . S
C193 N191 1.375 . S
C193 C195 1.350 . S
C193 H202 0.930 . S
N194 C192 1.347 . S
N194 C195 1.373 . S
C195 C193 1.350 . S
C195 N194 1.373 . S
C195 H209 0.931 . S
C196 O199 1.256 1_556 S
C196 O200 1.255 . S
O197 Co180 2.021 . S
O197 C190 1.259 . S
O198 Co182 2.117 . S
O198 C190 1.258 . S
O199 Co182 2.020 . S
O199 C196 1.256 1_554 S
O200 Co180 2.062 1_556 S
O200 C196 1.255 . S
O201 C181 1.259 . S
O201 Co182 2.021 . S
H202 C193 0.930 . S
H203 C192 0.931 . S
O204 Co180 2.117 . S
O204 C181 1.258 . S
O205 Co180 2.020 . S
O205 C207 1.256 . S
O206 Co182 2.062 . S
O206 C207 1.255 . S
C207 O205 1.256 . S
C207 O206 1.255 . S
H208 C187 0.931 . S
H209 C195 0.931 . S
Co210 N215 2.057 . S
Co210 O227 2.021 . S
Co210 O230 2.062 . S
Co210 O234 2.117 . S
Co210 O235 2.020 . S
C211 O231 1.259 . S
C211 O234 1.258 . S
Co212 N221 2.057 . S
Co212 O228 2.117 . S
Co212 O229 2.020 . S
Co212 O231 2.021 . S
Co212 O236 2.062 . S
C213 N215 1.316 . S
C213 N216 1.347 . S
C213 H218 0.931 . S
C214 N215 1.375 . S
C214 C217 1.350 . S
C214 H219 0.930 . S
N215 Co210 2.057 . S
N215 C213 1.316 . S
N215 C214 1.375 . S
N216 C213 1.347 . S
N216 C217 1.373 . S
C217 C214 1.350 . S
C217 N216 1.373 . S
C217 H238 0.931 . S
H218 C213 0.931 . S
H219 C214 0.930 . S
C220 O227 1.259 . S
C220 O228 1.258 . S
N221 Co212 2.057 . S
N221 C222 1.316 . S
N221 C223 1.375 . S
C222 N221 1.316 . S
C222 N224 1.347 . S
C222 H233 0.931 . S
C223 N221 1.375 . S
C223 C225 1.350 . S
C223 H232 0.930 . S
N224 C222 1.347 . S
N224 C225 1.373 . S
C225 C223 1.350 . S
C225 N224 1.373 . S
C225 H239 0.931 . S
C226 O229 1.256 . S
C226 O230 1.255 . S
O227 Co210 2.021 . S
O227 C220 1.259 . S
O228 Co212 2.117 . S
O228 C220 1.258 . S
O229 Co212 2.020 . S
O229 C226 1.256 . S
O230 Co210 2.062 . S
O230 C226 1.255 . S
O231 C211 1.259 . S
O231 Co212 2.021 . S
H232 C223 0.930 . S
H233 C222 0.931 . S
O234 Co210 2.117 . S
O234 C211 1.258 . S
O235 Co210 2.020 . S
O235 C237 1.256 . S
O236 Co212 2.062 . S
O236 C237 1.255 . S
C237 O235 1.256 . S
C237 O236 1.255 . S
H238 C217 0.931 . S
H239 C225 0.931 . S
Co240 N245 2.057 . S
Co240 O257 2.021 . S
Co240 O260 2.062 . S
Co240 O264 2.117 . S
Co240 O265 2.020 . S
C241 O261 1.259 . S
C241 O264 1.258 . S
Co242 N251 2.057 . S
Co242 O258 2.117 . S
Co242 O259 2.020 . S
Co242 O261 2.021 . S
Co242 O266 2.062 . S
C243 N245 1.316 . S
C243 N246 1.347 . S
C243 H248 0.931 . S
C244 N245 1.375 . S
C244 C247 1.350 . S
C244 H249 0.930 . S
N245 Co240 2.057 . S
N245 C243 1.316 . S
N245 C244 1.375 . S
N246 C243 1.347 . S
N246 C247 1.373 . S
C247 C244 1.350 . S
C247 N246 1.373 . S
C247 H268 0.931 . S
H248 C243 0.931 . S
H249 C244 0.930 . S
C250 O257 1.259 . S
C250 O258 1.258 . S
N251 Co242 2.057 . S
N251 C252 1.316 . S
N251 C253 1.375 . S
C252 N251 1.316 . S
C252 N254 1.347 1_554 S
C252 H263 0.931 1_554 S
C253 N251 1.375 . S
C253 C255 1.350 . S
C253 H262 0.930 . S
N254 C252 1.347 1_556 S
N254 C255 1.373 1_556 S
C255 C253 1.350 . S
C255 N254 1.373 1_554 S
C255 H269 0.931 . S
C256 O259 1.256 . S
C256 O260 1.255 . S
O257 Co240 2.021 . S
O257 C250 1.259 . S
O258 Co242 2.117 . S
O258 C250 1.258 . S
O259 Co242 2.020 . S
O259 C256 1.256 . S
O260 Co240 2.062 . S
O260 C256 1.255 . S
O261 C241 1.259 . S
O261 Co242 2.021 . S
H262 C253 0.930 . S
H263 C252 0.931 1_556 S
O264 Co240 2.117 . S
O264 C241 1.258 . S
O265 Co240 2.020 . S
O265 C267 1.256 . S
O266 Co242 2.062 . S
O266 C267 1.255 . S
C267 O265 1.256 . S
C267 O266 1.255 . S
H268 C247 0.931 . S
H269 C255 0.931 . S
Co270 N275 2.057 1_545 S
Co270 O287 2.021 . S
Co270 O290 2.062 1_545 S
Co270 O294 2.117 1_545 S
Co270 O295 2.020 . S
C271 O291 1.259 . S
C271 O294 1.258 1_545 S
Co272 N281 2.057 . S
Co272 O288 2.117 . S
Co272 O289 2.020 . S
Co272 O291 2.021 . S
Co272 O296 2.062 . S
C273 N275 1.316 . S
C273 N276 1.347 . S
C273 H278 0.931 . S
C274 N275 1.375 . S
C274 C277 1.350 . S
C274 H279 0.930 . S
N275 Co270 2.057 1_565 S
N275 C273 1.316 . S
N275 C274 1.375 . S
N276 C273 1.347 . S
N276 C277 1.373 . S
C277 C274 1.350 . S
C277 N276 1.373 . S
C277 H298 0.931 . S
H278 C273 0.931 . S
H279 C274 0.930 . S
C280 O287 1.259 . S
C280 O288 1.258 . S
N281 Co272 2.057 . S
N281 C282 1.316 . S
N281 C283 1.375 . S
C282 N281 1.316 . S
C282 N284 1.347 . S
C282 H293 0.931 . S
C283 N281 1.375 . S
C283 C285 1.350 . S
C283 H292 0.930 . S
N284 C282 1.347 . S
N284 C285 1.373 . S
C285 C283 1.350 . S
C285 N284 1.373 . S
C285 H299 0.931 . S
C286 O289 1.256 1_565 S
C286 O290 1.255 . S
O287 Co270 2.021 . S
O287 C280 1.259 . S
O288 Co272 2.117 . S
O288 C280 1.258 . S
O289 Co272 2.020 . S
O289 C286 1.256 1_545 S
O290 Co270 2.062 1_565 S
O290 C286 1.255 . S
O291 C271 1.259 . S
O291 Co272 2.021 . S
H292 C283 0.930 . S
H293 C282 0.931 . S
O294 Co270 2.117 1_565 S
O294 C271 1.258 1_565 S
O295 Co270 2.020 . S
O295 C297 1.256 . S
O296 Co272 2.062 . S
O296 C297 1.255 . S
C297 O295 1.256 . S
C297 O296 1.255 . S
H298 C277 0.931 . S
H299 C285 0.931 . S
Co300 N305 2.057 . S
Co300 O317 2.021 . S
Co300 O320 2.062 . S
Co300 O324 2.117 . S
Co300 O325 2.020 . S
C301 O321 1.259 . S
C301 O324 1.258 . S
Co302 N311 2.057 . S
Co302 O318 2.117 . S
Co302 O319 2.020 . S
Co302 O321 2.021 . S
Co302 O326 2.062 . S
C303 N305 1.316 . S
C303 N306 1.347 1_565 S
C303 H308 0.931 . S
C304 N305 1.360 1_545 S
C304 C307 1.370 . S
C304 H309 0.926 1_545 S
N305 Co300 2.057 . S
N305 C303 1.316 . S
N305 C304 1.360 1_565 S
N306 C303 1.347 1_545 S
N306 C307 1.373 . S
C307 C304 1.370 . S
C307 N306 1.373 . S
C307 H328 0.931 . S
H308 C303 0.931 . S
H309 C304 0.926 1_565 S
C310 O317 1.259 . S
C310 O318 1.258 . S
N311 Co302 2.057 . S
N311 C312 1.316 . S
N311 C313 1.375 . S
C312 N311 1.316 . S
C312 N314 1.347 . S
C312 H323 0.931 . S
C313 N311 1.375 . S
C313 C315 1.350 . S
C313 H322 0.930 . S
N314 C312 1.347 . S
N314 C315 1.373 . S
C315 C313 1.350 . S
C315 N314 1.373 . S
C315 H329 0.931 . S
C316 O319 1.256 . S
C316 O320 1.255 . S
O317 Co300 2.021 . S
O317 C310 1.259 . S
O318 Co302 2.117 . S
O318 C310 1.258 . S
O319 Co302 2.020 . S
O319 C316 1.256 . S
O320 Co300 2.062 . S
O320 C316 1.255 . S
O321 C301 1.259 . S
O321 Co302 2.021 . S
H322 C313 0.930 . S
H323 C312 0.931 . S
O324 Co300 2.117 . S
O324 C301 1.258 . S
O325 Co300 2.020 . S
O325 C327 1.256 . S
O326 Co302 2.062 . S
O326 C327 1.255 . S
C327 O325 1.256 . S
C327 O326 1.255 . S
H328 C307 0.931 . S
H329 C315 0.931 . S
Co330 N335 2.057 . S
Co330 O347 2.021 . S
Co330 O350 2.062 . S
Co330 O354 2.117 . S
Co330 O355 2.020 . S
C331 O351 1.259 . S
C331 O354 1.258 . S
Co332 N341 2.057 . S
Co332 O348 2.117 . S
Co332 O349 2.020 . S
Co332 O351 2.021 . S
Co332 O356 2.062 . S
C333 N335 1.316 . S
C333 N336 1.347 . S
C333 H338 0.931 . S
C334 N335 1.375 . S
C334 C337 1.350 . S
C334 H339 0.930 . S
N335 Co330 2.057 . S
N335 C333 1.316 . S
N335 C334 1.375 . S
N336 C333 1.347 . S
N336 C337 1.373 . S
C337 C334 1.350 . S
C337 N336 1.373 . S
C337 H358 0.931 . S
H338 C333 0.931 . S
H339 C334 0.930 . S
C340 O347 1.259 . S
C340 O348 1.258 . S
N341 Co332 2.057 . S
N341 C342 1.316 . S
N341 C343 1.375 . S
C342 N341 1.316 . S
C342 N344 1.347 . S
C342 H353 0.931 . S
C343 N341 1.375 . S
C343 C345 1.350 . S
C343 H352 0.930 . S
N344 C342 1.347 . S
N344 C345 1.373 . S
C345 C343 1.350 . S
C345 N344 1.373 . S
C345 H359 0.931 . S
C346 O349 1.256 . S
C346 O350 1.255 . S
O347 Co330 2.021 . S
O347 C340 1.259 . S
O348 Co332 2.117 . S
O348 C340 1.258 . S
O349 Co332 2.020 . S
O349 C346 1.256 . S
O350 Co330 2.062 . S
O350 C346 1.255 . S
O351 C331 1.259 . S
O351 Co332 2.021 . S
H352 C343 0.930 . S
H353 C342 0.931 . S
O354 Co330 2.117 . S
O354 C331 1.258 . S
O355 Co330 2.020 . S
O355 C357 1.256 . S
O356 Co332 2.062 . S
O356 C357 1.255 . S
C357 O355 1.256 . S
C357 O356 1.255 . S
H358 C337 0.931 . S
H359 C345 0.931 . S
H360 C366 0.930 . S
H361 C370 0.930 . S
H362 C375 0.929 . S
H363 C373 0.929 . S
H364 C368 0.929 . S
H365 C374 0.929 . S
C366 H360 0.930 . S
C366 C367 1.367 . S
C366 C374 1.378 . S
C367 C366 1.367 . S
C367 C375 1.433 . S
C368 H364 0.929 . S
C368 C370 1.378 . S
C368 C372 1.350 . S
C369 C372 1.463 . S
C369 C374 1.350 . S
C369 N377 1.427 . S
C370 H361 0.930 . S
C370 C368 1.378 . S
C370 C371 1.367 . S
C371 C370 1.367 . S
C371 C373 1.433 . S
C372 C368 1.350 . S
C372 C369 1.463 . S
C372 N376 1.427 . S
C373 H363 0.929 . S
C373 C371 1.433 . S
C373 N376 1.384 . S
C374 H365 0.929 . S
C374 C366 1.378 . S
C374 C369 1.350 . S
C375 H362 0.929 . S
C375 C367 1.433 . S
C375 N377 1.384 . S
N376 C372 1.427 . S
N376 C373 1.384 . S
N377 C369 1.427 . S
N377 C375 1.384 . S
H378 C384 0.930 . S
H379 C388 0.930 . S
H380 C393 0.929 . S
H381 C391 0.929 . S
H382 C386 0.929 . S
H383 C392 0.929 . S
C384 H378 0.930 . S
C384 C385 1.367 . S
C384 C392 1.378 . S
C385 C384 1.367 . S
C385 C393 1.433 1_565 S
C386 H382 0.929 . S
C386 C388 1.378 . S
C386 C390 1.350 . S
C387 C390 1.463 . S
C387 C392 1.350 . S
C387 N395 1.427 . S
C388 H379 0.930 . S
C388 C386 1.378 . S
C388 C389 1.367 . S
C389 C388 1.367 . S
C389 C391 1.433 . S
C390 C386 1.350 . S
C390 C387 1.463 . S
C390 N394 1.427 . S
C391 H381 0.929 . S
C391 C389 1.433 . S
C391 N394 1.384 . S
C392 H383 0.929 . S
C392 C384 1.378 . S
C392 C387 1.350 . S
C393 H380 0.929 . S
C393 C385 1.433 1_545 S
C393 N395 1.384 1_545 S
N394 C390 1.427 . S
N394 C391 1.384 . S
N395 C387 1.427 . S
N395 C393 1.384 1_565 S
H396 C402 0.930 . S
H397 C406 0.919 1_556 S
H398 C411 0.929 . S
H399 C409 0.929 . S
H400 C404 0.929 1_556 S
H401 C410 0.929 . S
C402 H396 0.930 . S
C402 C403 1.367 . S
C402 C410 1.378 . S
C403 C402 1.367 . S
C403 C411 1.433 1_554 S
C404 H400 0.929 1_554 S
C404 C406 1.378 . S
C404 C408 1.350 . S
C405 C408 1.463 . S
C405 C410 1.350 . S
C405 N413 1.416 1_554 S
C406 H397 0.919 1_554 S
C406 C404 1.378 . S
C406 C407 1.367 . S
C407 C406 1.367 . S
C407 C409 1.433 . S
C408 C404 1.350 . S
C408 C405 1.463 . S
C408 N412 1.427 . S
C409 H399 0.929 . S
C409 C407 1.433 . S
C409 N412 1.384 . S
C410 H401 0.929 . S
C410 C402 1.378 . S
C410 C405 1.350 . S
C411 H398 0.929 . S
C411 C403 1.433 1_556 S
C411 N413 1.385 . S
N412 C408 1.427 . S
N412 C409 1.384 . S
N413 C405 1.416 1_556 S
N413 C411 1.385 . S
H414 C420 0.930 . S
H415 C424 0.930 . S
H416 C429 0.929 . S
H417 C427 0.929 1_545 S
H418 C422 0.929 . S
H419 C428 0.929 . S
C420 H414 0.930 . S
C420 C421 1.367 . S
C420 C428 1.378 . S
C421 C420 1.367 . S
C421 C429 1.433 . S
C422 H418 0.929 . S
C422 C424 1.378 . S
C422 C426 1.354 . S
C423 C426 1.460 1_545 S
C423 C428 1.350 . S
C423 N431 1.427 . S
C424 H415 0.930 . S
C424 C422 1.378 . S
C424 C425 1.367 . S
C425 C424 1.367 . S
C425 C427 1.433 . S
C426 C422 1.354 . S
C426 C423 1.460 1_565 S
C426 N430 1.425 1_565 S
C427 H417 0.929 1_565 S
C427 C425 1.433 . S
C427 N430 1.384 1_565 S
C428 H419 0.929 . S
C428 C420 1.378 . S
C428 C423 1.350 . S
C429 H416 0.929 . S
C429 C421 1.433 . S
C429 N431 1.384 . S
N430 C426 1.425 1_545 S
N430 C427 1.384 1_545 S
N431 C423 1.427 . S
N431 C429 1.384 . S
H432 C438 0.930 . S
H433 C442 0.930 . S
H434 C447 0.929 . S
H435 C445 0.929 . S
H436 C440 0.929 . S
H437 C446 0.929 . S
C438 H432 0.930 . S
C438 C439 1.367 . S
C438 C446 1.378 . S
C439 C438 1.367 . S
C439 C447 1.433 . S
C440 H436 0.929 . S
C440 C442 1.378 . S
C440 C444 1.350 . S
C441 C444 1.463 . S
C441 C446 1.350 . S
C441 N449 1.427 . S
C442 H433 0.930 . S
C442 C440 1.378 . S
C442 C443 1.367 . S
C443 C442 1.367 . S
C443 C445 1.433 . S
C444 C440 1.350 . S
C444 C441 1.463 . S
C444 N448 1.427 . S
C445 H435 0.929 . S
C445 C443 1.433 . S
C445 N448 1.384 . S
C446 H437 0.929 . S
C446 C438 1.378 . S
C446 C441 1.350 . S
C447 H434 0.929 . S
C447 C439 1.433 . S
C447 N449 1.384 . S
N448 C444 1.427 . S
N448 C445 1.384 . S
N449 C441 1.427 . S
N449 C447 1.384 . S
H450 C456 0.930 . S
H451 C460 0.930 . S
H452 C465 0.929 . S
H453 C463 0.929 . S
H454 C458 0.929 . S
H455 C464 0.929 . S
C456 H450 0.930 . S
C456 C457 1.367 . S
C456 C464 1.378 . S
C457 C456 1.367 . S
C457 C465 1.433 . S
C458 H454 0.929 . S
C458 C460 1.378 . S
C458 C462 1.350 . S
C459 C462 1.463 . S
C459 C464 1.350 . S
C459 N467 1.427 . S
C460 H451 0.930 . S
C460 C458 1.378 . S
C460 C461 1.367 . S
C461 C460 1.367 . S
C461 C463 1.433 . S
C462 C458 1.350 . S
C462 C459 1.463 . S
C462 N466 1.427 . S
C463 H453 0.929 . S
C463 C461 1.433 . S
C463 N466 1.384 . S
C464 H455 0.929 . S
C464 C456 1.378 . S
C464 C459 1.350 . S
C465 H452 0.929 . S
C465 C457 1.433 . S
C465 N467 1.384 . S
N466 C462 1.427 . S
N466 C463 1.384 . S
N467 C459 1.427 . S
N467 C465 1.384 . S
H468 C474 0.930 . S
H469 C478 0.930 . S
H470 C483 0.929 . S
H471 C481 0.929 . S
H472 C476 0.929 . S
H473 C482 0.929 . S
C474 H468 0.930 . S
C474 C475 1.367 . S
C474 C482 1.378 . S
C475 C474 1.367 . S
C475 C483 1.433 1_556 S
C476 H472 0.929 . S
C476 C478 1.378 . S
C476 C480 1.350 1_554 S
C477 C480 1.463 . S
C477 C482 1.350 . S
C477 N485 1.427 1_556 S
C478 H469 0.930 . S
C478 C476 1.378 . S
C478 C479 1.364 1_554 S
C479 C478 1.364 1_556 S
C479 C481 1.436 . S
C480 C476 1.350 1_556 S
C480 C477 1.463 . S
C480 N484 1.427 . S
C481 H471 0.929 . S
C481 C479 1.436 . S
C481 N484 1.384 . S
C482 H473 0.929 . S
C482 C474 1.378 . S
C482 C477 1.350 . S
C483 H470 0.929 . S
C483 C475 1.433 1_554 S
C483 N485 1.384 . S
N484 C480 1.427 . S
N484 C481 1.384 . S
N485 C477 1.427 1_554 S
N485 C483 1.384 . S
H486 C492 0.930 . S
H487 C496 0.930 . S
H488 C501 0.929 . S
H489 C499 0.929 . S
H490 C494 0.929 . S
H491 C500 0.929 . S
C492 H486 0.930 . S
C492 C493 1.367 . S
C492 C500 1.378 . S
C493 C492 1.367 . S
C493 C501 1.433 . S
C494 H490 0.929 . S
C494 C496 1.378 . S
C494 C498 1.350 . S
C495 C498 1.463 . S
C495 C500 1.350 . S
C495 N503 1.427 . S
C496 H487 0.930 . S
C496 C494 1.378 . S
C496 C497 1.367 . S
C497 C496 1.367 . S
C497 C499 1.433 . S
C498 C494 1.350 . S
C498 C495 1.463 . S
C498 N502 1.427 . S
C499 H489 0.929 . S
C499 C497 1.433 . S
C499 N502 1.384 . S
C500 H491 0.929 . S
C500 C492 1.378 . S
C500 C495 1.350 . S
C501 H488 0.929 . S
C501 C493 1.433 . S
C501 N503 1.384 . S
N502 C498 1.427 . S
N502 C499 1.384 . S
N503 C495 1.427 . S
N503 C501 1.384 . S
H504 C510 0.930 . S
H505 C514 0.930 . S
H506 C519 0.929 . S
H507 C517 0.929 . S
H508 C512 0.929 . S
H509 C518 0.929 . S
C510 H504 0.930 . S
C510 C511 1.367 . S
C510 C518 1.378 . S
C511 C510 1.367 . S
C511 C519 1.433 . S
C512 H508 0.929 . S
C512 C514 1.378 . S
C512 C516 1.350 . S
C513 C516 1.463 . S
C513 C518 1.350 . S
C513 N521 1.427 . S
C514 H505 0.930 . S
C514 C512 1.378 . S
C514 C515 1.367 . S
C515 C514 1.367 . S
C515 C517 1.433 . S
C516 C512 1.350 . S
C516 C513 1.463 . S
C516 N520 1.427 . S
C517 H507 0.929 . S
C517 C515 1.433 . S
C517 N520 1.384 . S
C518 H509 0.929 . S
C518 C510 1.378 . S
C518 C513 1.350 . S
C519 H506 0.929 . S
C519 C511 1.433 . S
C519 N521 1.384 . S
N520 C516 1.427 . S
N520 C517 1.384 . S
N521 C513 1.427 . S
N521 C519 1.384 . S
H522 C528 0.930 . S
H523 C532 0.930 . S
H524 C537 0.929 . S
H525 C535 0.929 . S
H526 C530 0.929 . S
H527 C536 0.929 . S
C528 H522 0.930 . S
C528 C529 1.367 . S
C528 C536 1.378 . S
C529 C528 1.367 . S
C529 C537 1.433 . S
C530 H526 0.929 . S
C530 C532 1.378 . S
C530 C534 1.350 1_655 S
C531 C534 1.463 . S
C531 C536 1.350 . S
C531 N539 1.427 . S
C532 H523 0.930 . S
C532 C530 1.378 . S
C532 C533 1.367 . S
C533 C532 1.367 . S
C533 C535 1.433 1_655 S
C534 C530 1.350 1_455 S
C534 C531 1.463 . S
C534 N538 1.427 . S
C535 H525 0.929 . S
C535 C533 1.433 1_455 S
C535 N538 1.384 . S
C536 H527 0.929 . S
C536 C528 1.378 . S
C536 C531 1.350 . S
C537 H524 0.929 . S
C537 C529 1.433 . S
C537 N539 1.384 . S
N538 C534 1.427 . S
N538 C535 1.384 . S
N539 C531 1.427 . S
N539 C537 1.384 . S
H540 C546 0.930 . S
H541 C550 0.930 . S
H542 C555 0.929 1_655 S
H543 C553 0.929 . S
H544 C548 0.929 . S
H545 C554 0.929 . S
C546 H540 0.930 . S
C546 C547 1.367 . S
C546 C554 1.378 . S
C547 C546 1.367 . S
C547 C555 1.433 . S
C548 H544 0.929 . S
C548 C550 1.378 . S
C548 C552 1.350 1_655 S
C549 C552 1.463 . S
C549 C554 1.350 . S
C549 N557 1.427 1_455 S
C550 H541 0.930 . S
C550 C548 1.378 . S
C550 C551 1.367 1_655 S
C551 C550 1.367 1_455 S
C551 C553 1.433 . S
C552 C548 1.350 1_455 S
C552 C549 1.463 . S
C552 N556 1.427 . S
C553 H543 0.929 . S
C553 C551 1.433 . S
C553 N556 1.384 . S
C554 H545 0.929 . S
C554 C546 1.378 . S
C554 C549 1.350 . S
C555 H542 0.929 1_455 S
C555 C547 1.433 . S
C555 N557 1.384 1_455 S
N556 C552 1.427 . S
N556 C553 1.384 . S
N557 C549 1.427 1_655 S
N557 C555 1.384 1_655 S
H558 C564 0.930 . S
H559 C568 0.930 . S
H560 C573 0.929 . S
H561 C571 0.929 . S
H562 C566 0.929 . S
H563 C572 0.929 . S
C564 H558 0.930 . S
C564 C565 1.367 . S
C564 C572 1.378 . S
C565 C564 1.367 . S
C565 C573 1.433 . S
C566 H562 0.929 . S
C566 C568 1.378 . S
C566 C570 1.350 . S
C567 C570 1.463 . S
C567 C572 1.350 . S
C567 N575 1.427 . S
C568 H559 0.930 . S
C568 C566 1.378 . S
C568 C569 1.367 . S
C569 C568 1.367 . S
C569 C571 1.433 . S
C570 C566 1.350 . S
C570 C567 1.463 . S
C570 N574 1.427 . S
C571 H561 0.929 . S
C571 C569 1.433 . S
C571 N574 1.384 . S
C572 H563 0.929 . S
C572 C564 1.378 . S
C572 C567 1.350 . S
C573 H560 0.929 . S
C573 C565 1.433 . S
C573 N575 1.384 . S
N574 C570 1.427 . S
N574 C571 1.384 . S
N575 C567 1.427 . S
N575 C573 1.384 . S
H576 C582 0.930 . S
H577 C586 0.930 . S
H578 C591 0.929 . S
H579 C589 0.929 . S
H580 C584 0.929 . S
H581 C590 0.929 . S
C582 H576 0.930 . S
C582 C583 1.367 . S
C582 C590 1.378 . S
C583 C582 1.367 . S
C583 C591 1.433 . S
C584 H580 0.929 . S
C584 C586 1.378 . S
C584 C588 1.350 . S
C585 C588 1.463 . S
C585 C590 1.350 . S
C585 N593 1.427 . S
C586 H577 0.930 . S
C586 C584 1.378 . S
C586 C587 1.367 . S
C587 C586 1.367 . S
C587 C589 1.433 . S
C588 C584 1.350 . S
C588 C585 1.463 . S
C588 N592 1.427 . S
C589 H579 0.929 . S
C589 C587 1.433 . S
C589 N592 1.384 . S
C590 H581 0.929 . S
C590 C582 1.378 . S
C590 C585 1.350 . S
C591 H578 0.929 . S
C591 C583 1.433 . S
C591 N593 1.384 . S
N592 C588 1.427 . S
N592 C589 1.384 . S
N593 C585 1.427 . S
N593 C591 1.384 . S
H594 C600 0.930 . S
H595 C604 0.930 . S
H596 C609 0.929 . S
H597 C607 0.929 . S
H598 C602 0.929 . S
H599 C608 0.929 1_455 S
C600 H594 0.930 . S
C600 C601 1.367 . S
C600 C608 1.378 1_455 S
C601 C600 1.367 . S
C601 C609 1.433 1_455 S
C602 H598 0.929 . S
C602 C604 1.378 . S
C602 C606 1.350 . S
C603 C606 1.463 . S
C603 C608 1.350 . S
C603 N611 1.427 . S
C604 H595 0.930 . S
C604 C602 1.378 . S
C604 C605 1.367 . S
C605 C604 1.367 . S
C605 C607 1.433 . S
C606 C602 1.350 . S
C606 C603 1.463 . S
C606 N610 1.427 . S
C607 H597 0.929 . S
C607 C605 1.433 . S
C607 N610 1.384 . S
C608 H599 0.929 1_655 S
C608 C600 1.378 1_655 S
C608 C603 1.350 . S
C609 H596 0.929 . S
C609 C601 1.433 1_655 S
C609 N611 1.384 . S
N610 C606 1.427 . S
N610 C607 1.384 . S
N611 C603 1.427 . S
N611 C609 1.384 . S
H612 C618 0.930 . S
H613 C622 0.930 . S
H614 C627 0.929 . S
H615 C625 0.929 . S
H616 C620 0.929 . S
H617 C626 0.929 . S
C618 H612 0.930 . S
C618 C619 1.367 . S
C618 C626 1.378 . S
C619 C618 1.367 . S
C619 C627 1.433 . S
C620 H616 0.929 . S
C620 C622 1.378 . S
C620 C624 1.350 . S
C621 C624 1.463 . S
C621 C626 1.350 . S
C621 N629 1.427 . S
C622 H613 0.930 . S
C622 C620 1.378 . S
C622 C623 1.367 . S
C623 C622 1.367 . S
C623 C625 1.433 . S
C624 C620 1.350 . S
C624 C621 1.463 . S
C624 N628 1.427 . S
C625 H615 0.929 . S
C625 C623 1.433 . S
C625 N628 1.384 . S
C626 H617 0.929 . S
C626 C618 1.378 . S
C626 C621 1.350 . S
C627 H614 0.929 . S
C627 C619 1.433 . S
C627 N629 1.384 . S
N628 C624 1.427 . S
N628 C625 1.384 . S
N629 C621 1.427 . S
N629 C627 1.384 . S
H630 C636 0.930 . S
H631 C640 0.930 . S
H632 C645 0.929 . S
H633 C643 0.929 . S
H634 C638 0.929 . S
H635 C644 0.929 . S
C636 H630 0.930 . S
C636 C637 1.367 . S
C636 C644 1.378 . S
C637 C636 1.367 . S
C637 C645 1.433 . S
C638 H634 0.929 . S
C638 C640 1.378 1_554 S
C638 C642 1.350 . S
C639 C642 1.463 . S
C639 C644 1.350 . S
C639 N647 1.427 . S
C640 H631 0.930 . S
C640 C638 1.378 1_556 S
C640 C641 1.367 . S
C641 C640 1.367 . S
C641 C643 1.433 . S
C642 C638 1.350 . S
C642 C639 1.463 . S
C642 N646 1.427 1_554 S
C643 H633 0.929 . S
C643 C641 1.433 . S
C643 N646 1.384 . S
C644 H635 0.929 . S
C644 C636 1.378 . S
C644 C639 1.350 . S
C645 H632 0.929 . S
C645 C637 1.433 . S
C645 N647 1.384 . S
N646 C642 1.427 1_556 S
N646 C643 1.384 . S
N647 C639 1.427 . S
N647 C645 1.384 . S
H648 C654 0.930 . S
H649 C658 0.930 . S
H650 C663 0.929 . S
H651 C661 0.929 . S
H652 C656 0.929 . S
H653 C662 0.929 . S
C654 H648 0.930 . S
C654 C655 1.367 . S
C654 C662 1.378 . S
C655 C654 1.367 . S
C655 C663 1.433 . S
C656 H652 0.929 . S
C656 C658 1.378 . S
C656 C660 1.350 . S
C657 C660 1.463 . S
C657 C662 1.350 . S
C657 N665 1.427 . S
C658 H649 0.930 . S
C658 C656 1.378 . S
C658 C659 1.367 . S
C659 C658 1.367 . S
C659 C661 1.433 . S
C660 C656 1.350 . S
C660 C657 1.463 . S
C660 N664 1.427 . S
C661 H651 0.929 . S
C661 C659 1.433 . S
C661 N664 1.384 . S
C662 H653 0.929 . S
C662 C654 1.378 . S
C662 C657 1.350 . S
C663 H650 0.929 . S
C663 C655 1.433 . S
C663 N665 1.384 . S
N664 C660 1.427 . S
N664 C661 1.384 . S
N665 C657 1.427 . S
N665 C663 1.384 . S
H666 C672 0.930 . S
H667 C676 0.930 . S
H668 C681 0.929 . S
H669 C679 0.929 . S
H670 C674 0.929 . S
H671 C680 0.929 . S
C672 H666 0.930 . S
C672 C673 1.367 . S
C672 C680 1.378 . S
C673 C672 1.367 . S
C673 C681 1.433 . S
C674 H670 0.929 . S
C674 C676 1.378 . S
C674 C678 1.350 . S
C675 C678 1.463 . S
C675 C680 1.350 . S
C675 N683 1.427 . S
C676 H667 0.930 . S
C676 C674 1.378 . S
C676 C677 1.367 . S
C677 C676 1.367 . S
C677 C679 1.433 . S
C678 C674 1.350 . S
C678 C675 1.463 . S
C678 N682 1.427 . S
C679 H669 0.929 . S
C679 C677 1.433 . S
C679 N682 1.384 . S
C680 H671 0.929 . S
C680 C672 1.378 . S
C680 C675 1.350 . S
C681 H668 0.929 . S
C681 C673 1.433 . S
C681 N683 1.384 . S
N682 C678 1.427 . S
N682 C679 1.384 . S
N683 C675 1.427 . S
N683 C681 1.384 . S
H684 C690 0.930 . S
H685 C694 0.930 . S
H686 C699 0.929 . S
H687 C697 0.929 . S
H688 C692 0.929 . S
H689 C698 0.929 . S
C690 H684 0.930 . S
C690 C691 1.367 . S
C690 C698 1.378 . S
C691 C690 1.367 . S
C691 C699 1.433 . S
C692 H688 0.929 . S
C692 C694 1.378 . S
C692 C696 1.350 . S
C693 C696 1.463 . S
C693 C698 1.350 . S
C693 N701 1.427 . S
C694 H685 0.930 . S
C694 C692 1.378 . S
C694 C695 1.367 . S
C695 C694 1.367 . S
C695 C697 1.433 . S
C696 C692 1.350 . S
C696 C693 1.463 . S
C696 N700 1.427 . S
C697 H687 0.929 . S
C697 C695 1.433 . S
C697 N700 1.384 . S
C698 H689 0.929 . S
C698 C690 1.378 . S
C698 C693 1.350 . S
C699 H686 0.929 . S
C699 C691 1.433 . S
C699 N701 1.384 . S
N700 C696 1.427 . S
N700 C697 1.384 . S
N701 C693 1.427 . S
N701 C699 1.384 . S
H702 C708 0.930 . S
H703 C712 0.930 . S
H704 C717 0.929 . S
H705 C715 0.929 . S
H706 C710 0.929 . S
H707 C716 0.929 . S
C708 H702 0.930 . S
C708 C709 1.367 . S
C708 C716 1.378 . S
C709 C708 1.367 . S
C709 C717 1.433 . S
C710 H706 0.929 . S
C710 C712 1.378 . S
C710 C714 1.350 . S
C711 C714 1.463 . S
C711 C716 1.350 . S
C711 N719 1.427 . S
C712 H703 0.930 . S
C712 C710 1.378 . S
C712 C713 1.367 . S
C713 C712 1.367 . S
C713 C715 1.433 . S
C714 C710 1.350 . S
C714 C711 1.463 . S
C714 N718 1.427 . S
C715 H705 0.929 . S
C715 C713 1.433 . S
C715 N718 1.384 . S
C716 H707 0.929 . S
C716 C708 1.378 . S
C716 C711 1.350 . S
C717 H704 0.929 . S
C717 C709 1.433 . S
C717 N719 1.384 . S
N718 C714 1.427 . S
N718 C715 1.384 . S
N719 C711 1.427 . S
N719 C717 1.384 . S
H720 C726 0.930 . S
H721 C730 0.930 . S
H722 C735 0.929 . S
H723 C733 0.929 . S
H724 C728 0.929 . S
H725 C734 0.929 . S
C726 H720 0.930 . S
C726 C727 1.367 . S
C726 C734 1.378 . S
C727 C726 1.367 . S
C727 C735 1.433 . S
C728 H724 0.929 . S
C728 C730 1.378 . S
C728 C732 1.350 . S
C729 C732 1.463 . S
C729 C734 1.350 . S
C729 N737 1.427 . S
C730 H721 0.930 . S
C730 C728 1.378 . S
C730 C731 1.367 . S
C731 C730 1.367 . S
C731 C733 1.433 . S
C732 C728 1.350 . S
C732 C729 1.463 . S
C732 N736 1.427 . S
C733 H723 0.929 . S
C733 C731 1.433 . S
C733 N736 1.384 . S
C734 H725 0.929 . S
C734 C726 1.378 . S
C734 C729 1.350 . S
C735 H722 0.929 . S
C735 C727 1.433 . S
C735 N737 1.384 . S
N736 C732 1.427 . S
N736 C733 1.384 . S
N737 C729 1.427 . S
N737 C735 1.384 . S
H738 C744 0.930 . S
H739 C748 0.930 . S
H740 C753 0.929 . S
H741 C751 0.929 . S
H742 C746 0.929 . S
H743 C752 0.929 . S
C744 H738 0.930 . S
C744 C745 1.367 . S
C744 C752 1.378 . S
C745 C744 1.367 . S
C745 C753 1.433 . S
C746 H742 0.929 . S
C746 C748 1.378 . S
C746 C750 1.350 . S
C747 C750 1.463 . S
C747 C752 1.350 . S
C747 N755 1.427 . S
C748 H739 0.930 . S
C748 C746 1.378 . S
C748 C749 1.367 1_545 S
C749 C748 1.367 1_565 S
C749 C751 1.433 . S
C750 C746 1.350 . S
C750 C747 1.463 . S
C750 N754 1.427 . S
C751 H741 0.929 . S
C751 C749 1.433 . S
C751 N754 1.384 1_565 S
C752 H743 0.929 . S
C752 C744 1.378 . S
C752 C747 1.350 . S
C753 H740 0.929 . S
C753 C745 1.433 . S
C753 N755 1.384 . S
N754 C750 1.427 . S
N754 C751 1.384 1_545 S
N755 C747 1.427 . S
N755 C753 1.384 . S
H756 C762 0.930 . S
H757 C766 0.930 . S
H758 C771 0.929 . S
H759 C769 0.929 . S
H760 C764 0.929 . S
H761 C770 0.929 . S
C762 H756 0.930 . S
C762 C763 1.367 . S
C762 C770 1.378 . S
C763 C762 1.367 . S
C763 C771 1.433 . S
C764 H760 0.929 . S
C764 C766 1.378 . S
C764 C768 1.350 . S
C765 C768 1.463 . S
C765 C770 1.350 . S
C765 N773 1.427 . S
C766 H757 0.930 . S
C766 C764 1.378 . S
C766 C767 1.367 . S
C767 C766 1.367 . S
C767 C769 1.433 . S
C768 C764 1.350 . S
C768 C765 1.463 . S
C768 N772 1.427 . S
C769 H759 0.929 . S
C769 C767 1.433 . S
C769 N772 1.384 . S
C770 H761 0.929 . S
C770 C762 1.378 . S
C770 C765 1.350 . S
C771 H758 0.929 . S
C771 C763 1.433 . S
C771 N773 1.384 . S
N772 C768 1.427 . S
N772 C769 1.384 . S
N773 C765 1.427 . S
N773 C771 1.384 . S
H774 C780 0.930 . S
H775 C784 0.930 1_556 S
H776 C789 0.929 . S
H777 C787 0.929 . S
H778 C782 0.929 . S
H779 C788 0.929 . S
C780 H774 0.930 . S
C780 C781 1.366 . S
C780 C788 1.378 . S
C781 C780 1.366 . S
C781 C789 1.433 1_565 S
C782 H778 0.929 . S
C782 C784 1.378 . S
C782 C786 1.350 . S
C783 C786 1.463 . S
C783 C788 1.350 . S
C783 N791 1.427 . S
C784 H775 0.930 1_554 S
C784 C782 1.378 . S
C784 C785 1.367 . S
C785 C784 1.367 . S
C785 C787 1.433 . S
C786 C782 1.350 . S
C786 C783 1.463 . S
C786 N790 1.427 . S
C787 H777 0.929 . S
C787 C785 1.433 . S
C787 N790 1.384 . S
C788 H779 0.929 . S
C788 C780 1.378 . S
C788 C783 1.350 . S
C789 H776 0.929 . S
C789 C781 1.433 1_545 S
C789 N791 1.384 1_545 S
N790 C786 1.427 . S
N790 C787 1.384 . S
N791 C783 1.427 . S
N791 C789 1.384 1_565 S
H792 C798 0.930 . S
H793 C802 0.930 . S
H794 C807 0.929 . S
H795 C805 0.929 . S
H796 C800 0.929 . S
H797 C806 0.929 . S
C798 H792 0.930 . S
C798 C799 1.367 . S
C798 C806 1.378 . S
C799 C798 1.367 . S
C799 C807 1.433 . S
C800 H796 0.929 . S
C800 C802 1.378 . S
C800 C804 1.350 . S
C801 C804 1.463 . S
C801 C806 1.350 . S
C801 N809 1.427 . S
C802 H793 0.930 . S
C802 C800 1.378 . S
C802 C803 1.367 . S
C803 C802 1.367 . S
C803 C805 1.433 . S
C804 C800 1.350 . S
C804 C801 1.463 . S
C804 N808 1.427 . S
C805 H795 0.929 . S
C805 C803 1.433 . S
C805 N808 1.384 . S
C806 H797 0.929 . S
C806 C798 1.378 . S
C806 C801 1.350 . S
C807 H794 0.929 . S
C807 C799 1.433 . S
C807 N809 1.384 . S
N808 C804 1.427 . S
N808 C805 1.384 . S
N809 C801 1.427 . S
N809 C807 1.384 . S
H810 C816 0.930 . S
H811 C820 0.930 . S
H812 C825 0.929 . S
H813 C823 0.929 . S
H814 C818 0.929 . S
H815 C824 0.929 . S
C816 H810 0.930 . S
C816 C817 1.367 . S
C816 C824 1.378 . S
C817 C816 1.367 . S
C817 C825 1.433 . S
C818 H814 0.929 . S
C818 C820 1.378 . S
C818 C822 1.350 . S
C819 C822 1.463 . S
C819 C824 1.350 . S
C819 N827 1.427 . S
C820 H811 0.930 . S
C820 C818 1.378 . S
C820 C821 1.367 . S
C821 C820 1.367 . S
C821 C823 1.433 . S
C822 C818 1.350 . S
C822 C819 1.463 . S
C822 N826 1.427 . S
C823 H813 0.929 . S
C823 C821 1.433 . S
C823 N826 1.384 . S
C824 H815 0.929 . S
C824 C816 1.378 . S
C824 C819 1.350 . S
C825 H812 0.929 . S
C825 C817 1.433 . S
C825 N827 1.384 . S
N826 C822 1.427 . S
N826 C823 1.384 . S
N827 C819 1.427 . S
N827 C825 1.384 . S
H828 C834 0.930 . S
H829 C838 0.930 . S
H830 C843 0.929 . S
H831 C841 0.929 . S
H832 C836 0.929 . S
H833 C842 0.929 . S
C834 H828 0.930 . S
C834 C835 1.367 . S
C834 C842 1.378 . S
C835 C834 1.367 . S
C835 C843 1.433 . S
C836 H832 0.929 . S
C836 C838 1.378 . S
C836 C840 1.350 . S
C837 C840 1.463 . S
C837 C842 1.350 . S
C837 N845 1.427 . S
C838 H829 0.930 . S
C838 C836 1.378 . S
C838 C839 1.367 . S
C839 C838 1.367 . S
C839 C841 1.433 . S
C840 C836 1.350 . S
C840 C837 1.463 . S
C840 N844 1.427 . S
C841 H831 0.929 . S
C841 C839 1.433 . S
C841 N844 1.384 . S
C842 H833 0.929 . S
C842 C834 1.378 . S
C842 C837 1.350 . S
C843 H830 0.929 . S
C843 C835 1.433 . S
C843 N845 1.384 . S
N844 C840 1.427 . S
N844 C841 1.384 . S
N845 C837 1.427 . S
N845 C843 1.384 . S
H846 C852 0.930 . S
H847 C856 0.930 . S
H848 C861 0.929 . S
H849 C859 0.929 . S
H850 C854 0.929 . S
H851 C860 0.929 . S
C852 H846 0.930 . S
C852 C853 1.367 . S
C852 C860 1.378 . S
C853 C852 1.367 . S
C853 C861 1.433 . S
C854 H850 0.929 . S
C854 C856 1.378 . S
C854 C858 1.350 . S
C855 C858 1.463 . S
C855 C860 1.350 . S
C855 N863 1.427 . S
C856 H847 0.930 . S
C856 C854 1.378 . S
C856 C857 1.367 . S
C857 C856 1.367 . S
C857 C859 1.433 . S
C858 C854 1.350 . S
C858 C855 1.463 . S
C858 N862 1.427 . S
C859 H849 0.929 . S
C859 C857 1.433 . S
C859 N862 1.384 . S
C860 H851 0.929 . S
C860 C852 1.378 . S
C860 C855 1.350 . S
C861 H848 0.929 . S
C861 C853 1.433 . S
C861 N863 1.384 . S
N862 C858 1.427 . S
N862 C859 1.384 . S
N863 C855 1.427 . S
N863 C861 1.384 . S
H864 C870 0.930 . S
H865 C874 0.930 . S
H866 C879 0.929 . S
H867 C877 0.929 . S
H868 C872 0.929 . S
H869 C878 0.929 . S
C870 H864 0.930 . S
C870 C871 1.367 . S
C870 C878 1.378 . S
C871 C870 1.367 . S
C871 C879 1.433 . S
C872 H868 0.929 . S
C872 C874 1.378 . S
C872 C876 1.350 . S
C873 C876 1.463 . S
C873 C878 1.350 . S
C873 N881 1.427 . S
C874 H865 0.930 . S
C874 C872 1.378 . S
C874 C875 1.367 . S
C875 C874 1.367 . S
C875 C877 1.433 . S
C876 C872 1.350 . S
C876 C873 1.463 . S
C876 N880 1.427 . S
C877 H867 0.929 . S
C877 C875 1.433 . S
C877 N880 1.384 . S
C878 H869 0.929 . S
C878 C870 1.378 . S
C878 C873 1.350 . S
C879 H866 0.929 . S
C879 C871 1.433 . S
C879 N881 1.384 . S
N880 C876 1.427 . S
N880 C877 1.384 . S
N881 C873 1.427 . S
N881 C879 1.384 . S
H882 C888 0.930 . S
H883 C892 0.930 . S
H884 C897 0.929 . S
H885 C895 0.929 . S
H886 C890 0.929 . S
H887 C896 0.929 . S
C888 H882 0.930 . S
C888 C889 1.367 . S
C888 C896 1.378 . S
C889 C888 1.367 . S
C889 C897 1.433 . S
C890 H886 0.929 . S
C890 C892 1.378 . S
C890 C894 1.350 . S
C891 C894 1.463 . S
C891 C896 1.350 . S
C891 N899 1.427 . S
C892 H883 0.930 . S
C892 C890 1.378 . S
C892 C893 1.367 . S
C893 C892 1.367 . S
C893 C895 1.433 . S
C894 C890 1.350 . S
C894 C891 1.463 . S
C894 N898 1.427 . S
C895 H885 0.929 . S
C895 C893 1.433 . S
C895 N898 1.384 . S
C896 H887 0.929 . S
C896 C888 1.378 . S
C896 C891 1.350 . S
C897 H884 0.929 . S
C897 C889 1.433 . S
C897 N899 1.384 . S
N898 C894 1.427 . S
N898 C895 1.384 . S
N899 C891 1.427 . S
N899 C897 1.384 . S
H900 C906 0.930 . S
H901 C910 0.930 . S
H902 C915 0.929 . S
H903 C913 0.929 . S
H904 C908 0.930 . S
H905 C914 0.929 . S
C906 H900 0.930 . S
C906 C907 1.367 . S
C906 C914 1.378 . S
C907 C906 1.367 . S
C907 C915 1.433 . S
C908 H904 0.930 . S
C908 C910 1.374 1_455 S
C908 C912 1.352 . S
C909 C912 1.463 . S
C909 C914 1.350 . S
C909 N917 1.427 . S
C910 H901 0.930 . S
C910 C908 1.374 1_655 S
C910 C911 1.367 . S
C911 C910 1.367 . S
C911 C913 1.433 . S
C912 C908 1.352 . S
C912 C909 1.463 . S
C912 N916 1.427 . S
C913 H903 0.929 . S
C913 C911 1.433 . S
C913 N916 1.384 1_655 S
C914 H905 0.929 . S
C914 C906 1.378 . S
C914 C909 1.350 . S
C915 H902 0.929 . S
C915 C907 1.433 . S
C915 N917 1.384 . S
N916 C912 1.427 . S
N916 C913 1.384 1_455 S
N917 C909 1.427 . S
N917 C915 1.384 . S
H918 C924 0.930 . S
H919 C928 0.930 . S
H920 C933 0.929 . S
H921 C931 0.929 . S
H922 C926 0.929 . S
H923 C932 0.929 . S
C924 H918 0.930 . S
C924 C925 1.367 . S
C924 C932 1.378 . S
C925 C924 1.367 . S
C925 C933 1.433 . S
C926 H922 0.929 . S
C926 C928 1.378 . S
C926 C930 1.350 . S
C927 C930 1.463 . S
C927 C932 1.350 . S
C927 N935 1.427 . S
C928 H919 0.930 . S
C928 C926 1.378 . S
C928 C929 1.367 . S
C929 C928 1.367 . S
C929 C931 1.433 . S
C930 C926 1.350 . S
C930 C927 1.463 . S
C930 N934 1.427 . S
C931 H921 0.929 . S
C931 C929 1.433 . S
C931 N934 1.384 . S
C932 H923 0.929 . S
C932 C924 1.378 . S
C932 C927 1.350 . S
C933 H920 0.929 . S
C933 C925 1.433 . S
C933 N935 1.384 . S
N934 C930 1.427 . S
N934 C931 1.384 . S
N935 C927 1.427 . S
N935 C933 1.384 . S
H936 C942 0.930 . S
H937 C946 0.930 . S
H938 C951 0.929 . S
H939 C949 0.929 . S
H940 C944 0.929 . S
H941 C950 0.929 . S
C942 H936 0.930 . S
C942 C943 1.367 . S
C942 C950 1.378 . S
C943 C942 1.367 . S
C943 C951 1.433 . S
C944 H940 0.929 . S
C944 C946 1.378 . S
C944 C948 1.350 . S
C945 C948 1.463 . S
C945 C950 1.350 . S
C945 N953 1.427 . S
C946 H937 0.930 . S
C946 C944 1.378 . S
C946 C947 1.367 . S
C947 C946 1.367 . S
C947 C949 1.433 . S
C948 C944 1.350 . S
C948 C945 1.463 . S
C948 N952 1.427 . S
C949 H939 0.929 . S
C949 C947 1.433 . S
C949 N952 1.384 . S
C950 H941 0.929 . S
C950 C942 1.378 . S
C950 C945 1.350 . S
C951 H938 0.929 . S
C951 C943 1.433 . S
C951 N953 1.384 . S
N952 C948 1.427 . S
N952 C949 1.384 . S
N953 C945 1.427 . S
N953 C951 1.384 . S
H954 C960 0.930 . S
H955 C964 0.930 . S
H956 C969 0.929 . S
H957 C967 0.929 . S
H958 C962 0.929 . S
H959 C968 0.929 . S
C960 H954 0.930 . S
C960 C961 1.367 . S
C960 C968 1.378 . S
C961 C960 1.367 . S
C961 C969 1.433 . S
C962 H958 0.929 . S
C962 C964 1.378 . S
C962 C966 1.350 . S
C963 C966 1.463 . S
C963 C968 1.350 . S
C963 N971 1.427 . S
C964 H955 0.930 . S
C964 C962 1.378 . S
C964 C965 1.367 . S
C965 C964 1.367 . S
C965 C967 1.433 . S
C966 C962 1.350 . S
C966 C963 1.463 . S
C966 N970 1.427 . S
C967 H957 0.929 . S
C967 C965 1.433 . S
C967 N970 1.384 . S
C968 H959 0.929 . S
C968 C960 1.378 . S
C968 C963 1.350 . S
C969 H956 0.929 . S
C969 C961 1.433 . S
C969 N971 1.384 . S
N970 C966 1.427 . S
N970 C967 1.384 . S
N971 C963 1.427 . S
N971 C969 1.384 . S
H972 C978 0.930 . S
H973 C982 0.930 . S
H974 C987 0.929 . S
H975 C985 0.929 . S
H976 C980 0.929 . S
H977 C986 0.929 . S
C978 H972 0.930 . S
C978 C979 1.367 . S
C978 C986 1.378 . S
C979 C978 1.367 . S
C979 C987 1.433 . S
C980 H976 0.929 . S
C980 C982 1.378 . S
C980 C984 1.350 . S
C981 C984 1.463 . S
C981 C986 1.350 . S
C981 N989 1.427 . S
C982 H973 0.930 . S
C982 C980 1.378 . S
C982 C983 1.367 . S
C983 C982 1.367 . S
C983 C985 1.433 . S
C984 C980 1.350 . S
C984 C981 1.463 . S
C984 N988 1.427 . S
C985 H975 0.929 . S
C985 C983 1.433 . S
C985 N988 1.384 . S
C986 H977 0.929 . S
C986 C978 1.378 . S
C986 C981 1.350 . S
C987 H974 0.929 . S
C987 C979 1.433 . S
C987 N989 1.384 . S
N988 C984 1.427 . S
N988 C985 1.384 . S
N989 C981 1.427 . S
N989 C987 1.384 . S
H990 C996 0.935 . S
H991 C1000 0.930 . S
H992 C1005 0.929 . S
H993 C1003 0.929 . S
H994 C998 0.929 . S
H995 C1004 0.929 . S
C996 H990 0.935 . S
C996 C997 1.367 1_545 S
C996 C1004 1.378 . S
C997 C996 1.367 1_565 S
C997 C1005 1.433 . S
C998 H994 0.929 . S
C998 C1000 1.378 1_655 S
C998 C1002 1.350 . S
C999 C1002 1.463 . S
C999 C1004 1.350 . S
C999 N1007 1.427 . S
C1000 H991 0.930 . S
C1000 C998 1.378 1_455 S
C1000 C1001 1.367 . S
C1001 C1000 1.367 . S
C1001 C1003 1.433 . S
C1002 C998 1.350 . S
C1002 C999 1.463 . S
C1002 N1006 1.427 . S
C1003 H993 0.929 . S
C1003 C1001 1.433 . S
C1003 N1006 1.384 1_455 S
C1004 H995 0.929 . S
C1004 C996 1.378 . S
C1004 C999 1.350 . S
C1005 H992 0.929 . S
C1005 C997 1.433 . S
C1005 N1007 1.384 1_565 S
N1006 C1002 1.427 . S
N1006 C1003 1.384 1_655 S
N1007 C999 1.427 . S
N1007 C1005 1.384 1_545 S
C367 N6 1.280 . S
C371 N336 1.266 . S
C385 C271 2.152 1_565 S
C389 C31 2.162 1_655 S
C403 N66 1.853 . S
C407 C241 1.962 . S
C421 C91 2.144 . S
C425 C301 2.136 . S
C439 N126 1.028 . S
C443 N306 1.063 . S
C457 N156 1.498 . S
C461 C331 1.569 . S
C475 N276 1.598 . S
C479 C181 1.695 1_556 S
C493 N216 0.710 . S
C497 N246 0.738 . S
C511 N96 1.450 . S
C515 C121 1.508 . S
C529 C1 2.299 . S
C533 C151 2.329 . S
C547 N36 0.646 . S
C551 N186 0.650 1_455 S
C565 C211 2.223 . S
C569 C61 2.217 1_554 S
C583 C16 1.086 . S
C587 C250 1.085 . S
C601 C57 1.394 . S
C605 C310 1.355 . S
C619 N344 0.818 . S
C623 C76 0.802 . S
C637 C117 1.695 . S
C641 C280 1.703 . S
C655 C136 0.845 . S
C659 N284 0.840 . S
C673 N254 0.896 . S
C677 C166 0.885 1_455 S
C691 N314 1.057 . S
C695 C207 1.056 . S
C709 C340 1.114 . S
C713 C226 1.140 . S
C727 C10 1.559 . S
C731 C106 1.548 . S
C745 C27 0.918 . S
C749 N44 0.927 . S
C763 C46 1.636 . S
C767 C70 1.625 . S
C781 N104 1.139 1_565 S
C785 C87 1.123 1_554 S
C799 C177 1.189 . S
C803 C130 1.181 . S
C817 C160 1.580 . S
C821 C196 1.607 . S
C835 N194 0.860 . S
C839 C237 0.862 . S
C853 C147 1.128 . S
C857 C220 1.126 . S
C871 C256 1.371 . S
C875 C100 1.367 . S
C889 N164 1.338 . S
C893 C297 1.321 . S
C907 C267 0.998 . S
C911 C190 0.996 . S
C925 C327 1.096 . S
C929 N224 1.100 . S
C943 N134 0.466 . S
C947 C346 0.486 . S
C961 C357 0.834 . S
C965 C40 0.820 . S
C979 N74 1.159 . S
C983 C286 1.149 . S
C997 C316 1.124 . S
C1001 N14 1.121 . S
