# Generated by pormake.
# Topology uop, (4)-cn, num edge types: 1
# Building blocks:
#     Node 0, Type 0, BuildingBlock: QUQFOY_clean_sbu_1, # of connection points: 4
#     Node 1, Type 0, BuildingBlock: QUQFOY_clean_sbu_1, # of connection points: 4
#     Node 2, Type 0, BuildingBlock: QUQFOY_clean_sbu_1, # of connection points: 4
#     Node 3, Type 0, BuildingBlock: QUQFOY_clean_sbu_1, # of connection points: 4
#     Node 4, Type 0, BuildingBlock: QUQFOY_clean_sbu_1, # of connection points: 4
#     Node 5, Type 0, BuildingBlock: QUQFOY_clean_sbu_1, # of connection points: 4
#     Node 6, Type 0, BuildingBlock: QUQFOY_clean_sbu_1, # of connection points: 4
#     Node 7, Type 0, BuildingBlock: QUQFOY_clean_sbu_1, # of connection points: 4
#     Node 8, Type 0, BuildingBlock: QUQFOY_clean_sbu_1, # of connection points: 4
#     Node 9, Type 0, BuildingBlock: QUQFOY_clean_sbu_1, # of connection points: 4
#     Node 10, Type 0, BuildingBlock: QUQFOY_clean_sbu_1, # of connection points: 4
#     Node 11, Type 0, BuildingBlock: QUQFOY_clean_sbu_1, # of connection points: 4
#     Edge 12, Type (0, 0), BuildingBlock: MIFKUJ_clean_linker_0, # of connection points: 2
#     Edge 13, Type (0, 0), BuildingBlock: MIFKUJ_clean_linker_0, # of connection points: 2
#     Edge 14, Type (0, 0), BuildingBlock: MIFKUJ_clean_linker_0, # of connection points: 2
#     Edge 15, Type (0, 0), BuildingBlock: MIFKUJ_clean_linker_0, # of connection points: 2
#     Edge 16, Type (0, 0), BuildingBlock: MIFKUJ_clean_linker_0, # of connection points: 2
#     Edge 17, Type (0, 0), BuildingBlock: MIFKUJ_clean_linker_0, # of connection points: 2
#     Edge 18, Type (0, 0), BuildingBlock: MIFKUJ_clean_linker_0, # of connection points: 2
#     Edge 19, Type (0, 0), BuildingBlock: MIFKUJ_clean_linker_0, # of connection points: 2
#     Edge 20, Type (0, 0), BuildingBlock: MIFKUJ_clean_linker_0, # of connection points: 2
#     Edge 21, Type (0, 0), BuildingBlock: MIFKUJ_clean_linker_0, # of connection points: 2
#     Edge 22, Type (0, 0), BuildingBlock: MIFKUJ_clean_linker_0, # of connection points: 2
#     Edge 23, Type (0, 0), BuildingBlock: MIFKUJ_clean_linker_0, # of connection points: 2
#     Edge 24, Type (0, 0), BuildingBlock: MIFKUJ_clean_linker_0, # of connection points: 2
#     Edge 25, Type (0, 0), BuildingBlock: MIFKUJ_clean_linker_0, # of connection points: 2
#     Edge 26, Type (0, 0), BuildingBlock: MIFKUJ_clean_linker_0, # of connection points: 2
#     Edge 27, Type (0, 0), BuildingBlock: MIFKUJ_clean_linker_0, # of connection points: 2
#     Edge 28, Type (0, 0), BuildingBlock: MIFKUJ_clean_linker_0, # of connection points: 2
#     Edge 29, Type (0, 0), BuildingBlock: MIFKUJ_clean_linker_0, # of connection points: 2
#     Edge 30, Type (0, 0), BuildingBlock: MIFKUJ_clean_linker_0, # of connection points: 2
#     Edge 31, Type (0, 0), BuildingBlock: MIFKUJ_clean_linker_0, # of connection points: 2
#     Edge 32, Type (0, 0), BuildingBlock: MIFKUJ_clean_linker_0, # of connection points: 2
#     Edge 33, Type (0, 0), BuildingBlock: MIFKUJ_clean_linker_0, # of connection points: 2
#     Edge 34, Type (0, 0), BuildingBlock: MIFKUJ_clean_linker_0, # of connection points: 2
#     Edge 35, Type (0, 0), BuildingBlock: MIFKUJ_clean_linker_0, # of connection points: 2
# Relax obj value: 0.097
# Max RMSD: 0.124
# Mean RMSD: 0.124
data_MOF--net-uop--node1-QUQFOY_clean_sbu_1--edge1-MIFKUJ_clean_linker_0
_symmetry_space_group_name_H-M    P1
_symmetry_Int_Tables_number       1
_symmetry_cell_setting            triclinic
loop_
_symmetry_equiv_pos_as_xyz
'x, y, z'
_cell_length_a     42.195024
_cell_length_b     42.20997
_cell_length_c     70.81848
_cell_angle_alpha  89.996817
_cell_angle_beta   89.957359
_cell_angle_gamma 119.94427
loop_
_atom_site_label
_atom_site_type_symbol
_atom_site_fract_x
_atom_site_fract_y
_atom_site_fract_z
_atom_type_partial_charge
O0 O 0.22206 0.43386 0.20381 0.0
Cd1 Cd 0.23471 0.39318 0.20716 0.0
Cd2 Cd 0.25459 0.42414 0.24097 0.0
O3 O 0.22644 0.45136 0.23348 0.0
O4 O 0.20826 0.35869 0.18616 0.0
O5 O 0.19479 0.34425 0.21627 0.0
C6 C 0.18734 0.33549 0.1987 0.0
C7 C 0.24914 0.39012 0.26814 0.0
C8 C 0.21861 0.45353 0.2163 0.0
C9 C 0.31392 0.43386 0.21426 0.0
O10 O 0.30548 0.44521 0.22899 0.0
O11 O 0.2892 0.40937 0.20395 0.0
O12 O 0.26289 0.42514 0.2689 0.0
O13 O 0.23526 0.37399 0.25226 0.0
O14 O 0.78971 0.22317 0.53213 0.0
Cd15 Cd 0.84073 0.22834 0.5345 0.0
Cd16 Cd 0.83809 0.26098 0.5681 0.0
O17 O 0.78404 0.24293 0.56017 0.0
O18 O 0.84147 0.19587 0.5144 0.0
O19 O 0.84429 0.18573 0.54483 0.0
C20 C 0.84292 0.17548 0.52752 0.0
C21 C 0.86053 0.26077 0.59834 0.0
C22 C 0.77097 0.22963 0.54396 0.0
C23 C 0.89423 0.30709 0.53849 0.0
O24 O 0.87727 0.30513 0.55363 0.0
O25 O 0.88538 0.27877 0.52864 0.0
O26 O 0.84669 0.28114 0.59431 0.0
O27 O 0.85784 0.2373 0.58579 0.0
O28 O 0.55239 0.78811 0.86935 0.0
Cd29 Cd 0.5993 0.83794 0.86685 0.0
Cd30 Cd 0.56896 0.85212 0.89883 0.0
O31 O 0.52708 0.79819 0.89433 0.0
O32 O 0.62932 0.82879 0.84837 0.0
O33 O 0.6466 0.84542 0.87789 0.0
C34 C 0.65302 0.83617 0.86155 0.0
C35 C 0.59279 0.87887 0.92843 0.0
C36 C 0.52616 0.77733 0.88104 0.0
C37 C 0.581 0.89706 0.86318 0.0
O38 O 0.57043 0.89012 0.88023 0.0
O39 O 0.59378 0.87933 0.85475 0.0
O40 O 0.55996 0.8698 0.92343 0.0
O41 O 0.61127 0.86991 0.91725 0.0
O42 O 0.78024 0.57242 0.20158 0.0
Cd43 Cd 0.77215 0.61595 0.2071 0.0
Cd44 Cd 0.74495 0.57662 0.23795 0.0
O45 O 0.77267 0.54939 0.23025 0.0
O46 O 0.80242 0.65271 0.18766 0.0
O47 O 0.81407 0.66154 0.21825 0.0
C48 C 0.82326 0.67295 0.2011 0.0
C49 C 0.74341 0.60248 0.26694 0.0
C50 C 0.7814 0.54972 0.21298 0.0
C51 C 0.69277 0.57871 0.21025 0.0
O52 O 0.69782 0.56055 0.22299 0.0
O53 O 0.71984 0.60692 0.20322 0.0
O54 O 0.72767 0.56748 0.26476 0.0
O55 O 0.76328 0.62293 0.25318 0.0
O56 O 0.21012 0.77215 0.53564 0.0
Cd57 Cd 0.15683 0.76047 0.5383 0.0
Cd58 Cd 0.16514 0.73591 0.57204 0.0
O59 O 0.22042 0.76079 0.56474 0.0
O60 O 0.15117 0.78972 0.51799 0.0
O61 O 0.14801 0.79997 0.54839 0.0
C62 C 0.14808 0.80934 0.53101 0.0
C63 C 0.13939 0.73784 0.60109 0.0
C64 C 0.23173 0.77168 0.54798 0.0
C65 C 0.11437 0.68087 0.54336 0.0
O66 O 0.1325 0.68731 0.55856 0.0
O67 O 0.11745 0.707 0.53316 0.0
O68 O 0.15755 0.72088 0.59921 0.0
O69 O 0.13892 0.7569 0.58691 0.0
O70 O 0.44569 0.20811 0.87202 0.0
Cd71 Cd 0.40161 0.1557 0.87252 0.0
Cd72 Cd 0.43667 0.15508 0.90485 0.0
O73 O 0.47081 0.21078 0.89978 0.0
O74 O 0.36846 0.15749 0.85313 0.0
O75 O 0.35394 0.14758 0.88339 0.0
C76 C 0.34571 0.15253 0.86649 0.0
C77 C 0.41149 0.12735 0.93409 0.0
C78 C 0.47025 0.22588 0.88428 0.0
C79 C 0.43395 0.10795 0.87177 0.0
O80 O 0.44718 0.12224 0.8877 0.0
O81 O 0.41167 0.11512 0.86339 0.0
O82 O 0.446 0.14191 0.93063 0.0
O83 O 0.39146 0.13108 0.92146 0.0
O84 O 0.56072 0.76996 0.47525 0.0
Cd85 Cd 0.60242 0.75829 0.47246 0.0
Cd86 Cd 0.56681 0.73057 0.44003 0.0
O87 O 0.53723 0.75661 0.44656 0.0
O88 O 0.63842 0.78988 0.49185 0.0
O89 O 0.64992 0.79686 0.46119 0.0
C90 C 0.6602 0.80823 0.47825 0.0
C91 C 0.59564 0.73134 0.41158 0.0
C92 C 0.53794 0.76879 0.46313 0.0
C93 C 0.56445 0.6783 0.46981 0.0
O94 O 0.55083 0.68329 0.4549 0.0
O95 O 0.58939 0.70543 0.47871 0.0
O96 O 0.56045 0.71409 0.4131 0.0
O97 O 0.6145 0.75108 0.42574 0.0
O98 O 0.79931 0.56332 0.81561 0.0
Cd99 Cd 0.85114 0.60804 0.81432 0.0
Cd100 Cd 0.85073 0.57415 0.78122 0.0
O101 O 0.79569 0.53863 0.78759 0.0
O102 O 0.85061 0.64141 0.83396 0.0
O103 O 0.85686 0.65477 0.80349 0.0
C104 C 0.85353 0.66342 0.82059 0.0
C105 C 0.87559 0.59931 0.75154 0.0
C106 C 0.78129 0.53868 0.80344 0.0
C107 C 0.90159 0.57877 0.81279 0.0
O108 O 0.8867 0.56582 0.79694 0.0
O109 O 0.89313 0.59915 0.82215 0.0
O110 O 0.86181 0.56489 0.75496 0.0
O111 O 0.87233 0.61911 0.76448 0.0
O112 O 0.23164 0.7968 0.15104 0.0
Cd113 Cd 0.24134 0.84905 0.14644 0.0
Cd114 Cd 0.26785 0.83761 0.11488 0.0
O115 O 0.23951 0.78232 0.1222 0.0
O116 O 0.21004 0.85453 0.16567 0.0
O117 O 0.20129 0.85545 0.13494 0.0
C118 C 0.19061 0.85588 0.152 0.0
C119 C 0.26941 0.86473 0.08569 0.0
C120 C 0.2303 0.77328 0.13937 0.0
C121 C 0.32075 0.8896 0.1437 0.0
O122 O 0.31527 0.86822 0.12991 0.0
O123 O 0.29398 0.8902 0.15155 0.0
O124 O 0.28508 0.84542 0.08804 0.0
O125 O 0.24982 0.86581 0.09946 0.0
O126 O 0.43279 0.22136 0.47658 0.0
Cd127 Cd 0.3882 0.22865 0.47604 0.0
Cd128 Cd 0.42023 0.26297 0.44288 0.0
O129 O 0.45691 0.24445 0.44872 0.0
O130 O 0.3545 0.19373 0.49526 0.0
O131 O 0.34124 0.18904 0.46481 0.0
C132 C 0.3323 0.17597 0.48171 0.0
C133 C 0.39053 0.25901 0.41424 0.0
C134 C 0.45736 0.22914 0.46417 0.0
C135 C 0.41523 0.30827 0.47453 0.0
O136 O 0.42752 0.30726 0.4583 0.0
O137 O 0.39704 0.2793 0.48416 0.0
O138 O 0.42544 0.27985 0.41602 0.0
O139 O 0.37288 0.23776 0.42824 0.0
O140 O 0.20389 0.43741 0.81251 0.0
Cd141 Cd 0.15444 0.38956 0.81302 0.0
Cd142 Cd 0.14545 0.42197 0.77993 0.0
O143 O 0.19893 0.46289 0.78618 0.0
O144 O 0.16116 0.36063 0.83319 0.0
O145 O 0.1514 0.34306 0.80336 0.0
C146 C 0.15767 0.33728 0.8205 0.0
C147 C 0.12225 0.40006 0.74952 0.0
C148 C 0.21704 0.46372 0.80078 0.0
C149 C 0.09511 0.40818 0.81354 0.0
O150 O 0.10566 0.42085 0.79704 0.0
O151 O 0.11035 0.39344 0.82258 0.0
O152 O 0.13156 0.43286 0.75468 0.0
O153 O 0.12903 0.38049 0.76109 0.0
O154 O 0.77855 0.21325 0.14405 0.0
Cd155 Cd 0.77113 0.16175 0.13989 0.0
Cd156 Cd 0.74204 0.17014 0.10793 0.0
O157 O 0.76734 0.2254 0.11534 0.0
O158 O 0.80404 0.15828 0.15885 0.0
O159 O 0.81184 0.15677 0.12805 0.0
C160 C 0.82327 0.15709 0.14502 0.0
C161 C 0.74019 0.14469 0.07818 0.0
C162 C 0.77739 0.23546 0.13233 0.0
C163 C 0.6917 0.1169 0.13743 0.0
O164 O 0.69564 0.13676 0.12316 0.0
O165 O 0.71949 0.11935 0.14574 0.0
O166 O 0.72302 0.16227 0.08144 0.0
O167 O 0.76145 0.1446 0.09131 0.0
H168 H 0.22122 0.71276 0.11957 0.0
H169 H 0.21185 0.65483 0.1329 0.0
H170 H 0.21095 0.69386 0.18902 0.0
H171 H 0.21953 0.75094 0.17603 0.0
H172 H 0.26073 0.66739 0.18377 0.0
H173 H 0.13443 0.63199 0.17257 0.0
H174 H 0.08215 0.62279 0.15305 0.0
H175 H 0.09647 0.54866 0.11733 0.0
H176 H 0.14922 0.55785 0.1365 0.0
H177 H 0.22091 0.5103 0.23673 0.0
H178 H 0.21536 0.56154 0.2243 0.0
H179 H 0.19192 0.51232 0.16895 0.0
H180 H 0.19617 0.46083 0.1813 0.0
H181 H 0.15341 0.54401 0.17364 0.0
H182 H 0.27944 0.57967 0.1822 0.0
H183 H 0.3341 0.58913 0.19959 0.0
H184 H 0.32396 0.66313 0.23739 0.0
H185 H 0.2689 0.6537 0.22036 0.0
C186 C 0.21851 0.70877 0.13471 0.0
C187 C 0.22121 0.73663 0.14668 0.0
C188 C 0.21317 0.67569 0.14231 0.0
C189 C 0.21084 0.67016 0.16196 0.0
C190 C 0.21279 0.6976 0.17383 0.0
C191 C 0.21759 0.73024 0.16631 0.0
C192 C 0.20813 0.63669 0.17042 0.0
C193 C 0.23707 0.64044 0.18176 0.0
C194 C 0.17772 0.60148 0.16736 0.0
C195 C 0.14603 0.59594 0.15584 0.0
C196 C 0.12667 0.61401 0.16044 0.0
C197 C 0.09689 0.60873 0.14947 0.0
C198 C 0.08606 0.58524 0.13392 0.0
C199 C 0.10493 0.5669 0.12936 0.0
C200 C 0.13475 0.57211 0.14028 0.0
C201 C 0.2138 0.51003 0.22201 0.0
C202 C 0.20944 0.48161 0.21 0.0
C203 C 0.21094 0.53951 0.21486 0.0
C204 C 0.20408 0.5413 0.19554 0.0
C205 C 0.19745 0.51181 0.18385 0.0
C206 C 0.20005 0.48235 0.19098 0.0
C207 C 0.206 0.57464 0.18715 0.0
C208 C 0.17703 0.57093 0.17576 0.0
C209 C 0.23674 0.60992 0.18986 0.0
C210 C 0.26981 0.61564 0.20015 0.0
C211 C 0.2887 0.59773 0.19431 0.0
C212 C 0.31977 0.60312 0.20409 0.0
C213 C 0.33243 0.62663 0.21963 0.0
C214 C 0.31408 0.64487 0.22538 0.0
C215 C 0.28294 0.63952 0.21567 0.0
H216 H 0.35651 0.63079 0.22717 0.0
H217 H 0.06299 0.58118 0.12545 0.0
H218 H 0.73603 0.26632 0.55565 0.0
H219 H 0.68153 0.26331 0.54163 0.0
H220 H 0.67005 0.17726 0.50438 0.0
H221 H 0.72527 0.18141 0.51774 0.0
H222 H 0.66127 0.22213 0.48466 0.0
H223 H 0.61116 0.16339 0.54387 0.0
H224 H 0.60719 0.1569 0.57854 0.0
H225 H 0.59643 0.25253 0.5832 0.0
H226 H 0.6008 0.25985 0.54856 0.0
H227 H 0.45554 0.17662 0.48708 0.0
H228 H 0.50728 0.17255 0.49953 0.0
H229 H 0.5812 0.2664 0.46623 0.0
H230 H 0.52909 0.26945 0.45308 0.0
H231 H 0.55799 0.21587 0.52113 0.0
H232 H 0.66176 0.26897 0.45921 0.0
H233 H 0.66195 0.26744 0.42439 0.0
H234 H 0.55817 0.16804 0.42476 0.0
H235 H 0.55757 0.16873 0.45958 0.0
C236 C 0.72146 0.24633 0.54471 0.0
C237 C 0.73492 0.22407 0.53783 0.0
C238 C 0.69025 0.2446 0.53667 0.0
C239 C 0.67135 0.21991 0.52192 0.0
C240 C 0.68414 0.19677 0.51559 0.0
C241 C 0.71562 0.19898 0.52335 0.0
C242 C 0.6392 0.21903 0.51251 0.0
C243 C 0.63866 0.22067 0.49268 0.0
C244 C 0.60933 0.2167 0.52282 0.0
C245 C 0.60666 0.21236 0.54364 0.0
C246 C 0.60821 0.18318 0.5523 0.0
C247 C 0.60584 0.17932 0.57194 0.0
C248 C 0.60165 0.20434 0.58307 0.0
C249 C 0.59973 0.2332 0.57457 0.0
C250 C 0.60211 0.2372 0.55493 0.0
C251 C 0.48278 0.19587 0.48207 0.0
C252 C 0.48822 0.22325 0.46902 0.0
C253 C 0.51242 0.1937 0.48932 0.0
C254 C 0.54837 0.21917 0.48393 0.0
C255 C 0.55382 0.24596 0.47044 0.0
C256 C 0.52398 0.2477 0.46288 0.0
C257 C 0.5799 0.21868 0.49326 0.0
C258 C 0.5805 0.21714 0.5131 0.0
C259 C 0.60927 0.21996 0.48293 0.0
C260 C 0.60947 0.21914 0.462 0.0
C261 C 0.63904 0.24673 0.45186 0.0
C262 C 0.63921 0.24602 0.43212 0.0
C263 C 0.61003 0.21773 0.42237 0.0
C264 C 0.58068 0.19002 0.43233 0.0
C265 C 0.58039 0.19059 0.45207 0.0
H266 H 0.61021 0.21724 0.40709 0.0
H267 H 0.59983 0.20131 0.59827 0.0
H268 H 0.45513 0.76153 0.88268 0.0
H269 H 0.40207 0.70814 0.86907 0.0
H270 H 0.46908 0.65973 0.85708 0.0
H271 H 0.52246 0.7142 0.86952 0.0
H272 H 0.4338 0.6529 0.82795 0.0
H273 H 0.39617 0.6271 0.89251 0.0
H274 H 0.38161 0.63876 0.92459 0.0
H275 H 0.2976 0.65713 0.90218 0.0
H276 H 0.31196 0.64603 0.86993 0.0
H277 H 0.27427 0.46701 0.82013 0.0
H278 H 0.32716 0.52148 0.83318 0.0
H279 H 0.29037 0.5897 0.80717 0.0
H280 H 0.2378 0.53526 0.79351 0.0
H281 H 0.30837 0.5865 0.85451 0.0
H282 H 0.35226 0.61357 0.78871 0.0
H283 H 0.36688 0.59574 0.75817 0.0
H284 H 0.43982 0.56754 0.786 0.0
H285 H 0.42516 0.58471 0.81675 0.0
C286 C 0.4582 0.739 0.87761 0.0
C287 C 0.49282 0.74186 0.87728 0.0
C288 C 0.42782 0.70838 0.86979 0.0
C289 C 0.43122 0.67948 0.86202 0.0
C290 C 0.46554 0.6816 0.86276 0.0
C291 C 0.49603 0.71258 0.87007 0.0
C292 C 0.40003 0.64843 0.85191 0.0
C293 C 0.40654 0.63835 0.83397 0.0
C294 C 0.36404 0.62932 0.85941 0.0
C295 C 0.35542 0.63612 0.87878 0.0
C296 C 0.37479 0.63392 0.8944 0.0
C297 C 0.36653 0.64037 0.91262 0.0
C298 C 0.33877 0.64879 0.91542 0.0
C299 C 0.31914 0.65067 0.9 0.0
C300 C 0.3273 0.64427 0.88174 0.0
C301 C 0.2779 0.49368 0.8168 0.0
C302 C 0.25202 0.49689 0.80568 0.0
C303 C 0.30803 0.52471 0.82434 0.0
C304 C 0.31256 0.5595 0.82117 0.0
C305 C 0.28737 0.56303 0.80968 0.0
C306 C 0.25756 0.53197 0.80177 0.0
C307 C 0.34254 0.59169 0.83083 0.0
C308 C 0.33574 0.60159 0.84864 0.0
C309 C 0.37837 0.61014 0.82347 0.0
C310 C 0.38724 0.59994 0.80502 0.0
C311 C 0.37107 0.60315 0.78833 0.0
C312 C 0.37945 0.59329 0.77098 0.0
C313 C 0.40416 0.58039 0.77015 0.0
C314 C 0.42063 0.57746 0.78667 0.0
C315 C 0.41231 0.58727 0.80405 0.0
H316 H 0.41063 0.57278 0.75671 0.0
H317 H 0.33242 0.65377 0.92953 0.0
H318 H 0.80057 0.54402 0.17687 0.0
H319 H 0.80585 0.49413 0.1629 0.0
H320 H 0.7855 0.44135 0.2172 0.0
H321 H 0.77989 0.49139 0.23146 0.0
H322 H 0.84161 0.43874 0.1956 0.0
H323 H 0.71722 0.41258 0.18791 0.0
H324 H 0.66944 0.42659 0.1782 0.0
H325 H 0.70707 0.44028 0.12082 0.0
H326 H 0.75545 0.42687 0.13026 0.0
H327 H 0.78752 0.25868 0.16881 0.0
H328 H 0.7942 0.31509 0.18135 0.0
H329 H 0.79142 0.35197 0.12487 0.0
H330 H 0.78303 0.29414 0.11211 0.0
H331 H 0.75034 0.36578 0.14641 0.0
H332 H 0.87257 0.3892 0.15293 0.0
H333 H 0.92167 0.37669 0.16203 0.0
H334 H 0.891 0.37041 0.22032 0.0
H335 H 0.84138 0.38239 0.21156 0.0
C336 C 0.79758 0.52209 0.18598 0.0
C337 C 0.78946 0.52165 0.20532 0.0
C338 C 0.80054 0.49349 0.17791 0.0
C339 C 0.79554 0.46376 0.18893 0.0
C340 C 0.78933 0.46401 0.20842 0.0
C341 C 0.78613 0.49263 0.21655 0.0
C342 C 0.79502 0.43173 0.17984 0.0
C343 C 0.82145 0.42247 0.185 0.0
C344 C 0.76944 0.41131 0.16555 0.0
C345 C 0.74019 0.41909 0.15983 0.0
C346 C 0.71549 0.41887 0.17325 0.0
C347 C 0.68827 0.42665 0.16779 0.0
C348 C 0.68528 0.43442 0.14891 0.0
C349 C 0.70945 0.43432 0.13545 0.0
C350 C 0.73676 0.4266 0.14084 0.0
C351 C 0.78873 0.27883 0.15892 0.0
C352 C 0.78489 0.27178 0.13937 0.0
C353 C 0.79282 0.31138 0.16618 0.0
C354 C 0.7941 0.33835 0.15411 0.0
C355 C 0.79071 0.33171 0.13452 0.0
C356 C 0.78608 0.29871 0.12721 0.0
C357 C 0.79692 0.37237 0.16218 0.0
C358 C 0.77082 0.38208 0.15687 0.0
C359 C 0.82308 0.39342 0.17621 0.0
C360 C 0.85307 0.38644 0.18156 0.0
C361 C 0.87614 0.38492 0.16768 0.0
C362 C 0.90409 0.37796 0.17278 0.0
C363 C 0.90941 0.37269 0.19174 0.0
C364 C 0.88684 0.37448 0.20564 0.0
C365 C 0.85883 0.38141 0.20062 0.0
H366 H 0.93105 0.36728 0.19566 0.0
H367 H 0.66419 0.44044 0.14471 0.0
H368 H 0.54256 0.81142 0.49301 0.0
H369 H 0.49341 0.81784 0.50727 0.0
H370 H 0.42059 0.75313 0.46249 0.0
H371 H 0.4699 0.74647 0.44808 0.0
H372 H 0.44891 0.84428 0.49686 0.0
H373 H 0.33707 0.69508 0.48335 0.0
H374 H 0.33165 0.63499 0.47728 0.0
H375 H 0.43178 0.66837 0.50735 0.0
H376 H 0.4375 0.72843 0.51381 0.0
H377 H 0.26936 0.81125 0.51718 0.0
H378 H 0.32512 0.81684 0.50368 0.0
H379 H 0.33356 0.75631 0.55058 0.0
H380 H 0.27737 0.75048 0.56424 0.0
H381 H 0.33925 0.72869 0.51663 0.0
H382 H 0.39404 0.84606 0.54626 0.0
H383 H 0.40108 0.90613 0.55416 0.0
H384 H 0.41821 0.93669 0.49562 0.0
H385 H 0.41079 0.87659 0.48733 0.0
C386 C 0.51628 0.79907 0.48597 0.0
C387 C 0.51009 0.7782 0.46946 0.0
C388 C 0.48821 0.80286 0.49414 0.0
C389 C 0.45315 0.78554 0.48613 0.0
C390 C 0.44735 0.7664 0.46904 0.0
C391 C 0.47562 0.76284 0.46073 0.0
C392 C 0.42238 0.7855 0.49646 0.0
C393 C 0.42483 0.81901 0.50108 0.0
C394 C 0.39133 0.75258 0.50241 0.0
C395 C 0.38789 0.71636 0.49887 0.0
C396 C 0.35785 0.68953 0.48871 0.0
C397 C 0.35474 0.65549 0.4852 0.0
C398 C 0.38142 0.64792 0.49187 0.0
C399 C 0.4112 0.67432 0.50213 0.0
C400 C 0.41441 0.70837 0.50571 0.0
C401 C 0.28339 0.79966 0.52484 0.0
C402 C 0.26885 0.78036 0.5418 0.0
C403 C 0.31536 0.80295 0.51709 0.0
C404 C 0.33357 0.78699 0.52609 0.0
C405 C 0.31991 0.7688 0.54338 0.0
C406 C 0.28799 0.76576 0.55126 0.0
C407 C 0.36547 0.78748 0.51678 0.0
C408 C 0.36323 0.75399 0.51235 0.0
C409 C 0.39688 0.82044 0.51121 0.0
C410 C 0.40155 0.85669 0.51616 0.0
C411 C 0.39903 0.86548 0.53505 0.0
C412 C 0.40315 0.89956 0.53961 0.0
C413 C 0.41001 0.92518 0.5254 0.0
C414 C 0.41287 0.91681 0.50661 0.0
C415 C 0.40876 0.88275 0.50198 0.0
H416 H 0.41317 0.95155 0.52896 0.0
H417 H 0.37899 0.62157 0.48912 0.0
H418 H 0.54193 0.26003 0.89562 0.0
H419 H 0.59299 0.31534 0.88198 0.0
H420 H 0.51729 0.33033 0.84739 0.0
H421 H 0.46658 0.27439 0.8604 0.0
H422 H 0.5692 0.33818 0.82626 0.0
H423 H 0.56568 0.38738 0.88661 0.0
H424 H 0.56543 0.39056 0.92138 0.0
H425 H 0.67096 0.39869 0.92335 0.0
H426 H 0.67162 0.3951 0.88859 0.0
H427 H 0.73317 0.54173 0.82785 0.0
H428 H 0.67766 0.49078 0.84105 0.0
H429 H 0.69287 0.41555 0.80615 0.0
H430 H 0.74772 0.46689 0.79229 0.0
H431 H 0.67001 0.43897 0.86203 0.0
H432 H 0.61329 0.33669 0.79968 0.0
H433 H 0.6097 0.33735 0.76492 0.0
H434 H 0.61736 0.44263 0.76693 0.0
H435 H 0.62054 0.44239 0.8017 0.0
C436 C 0.53616 0.27563 0.88544 0.0
C437 C 0.50023 0.26288 0.87911 0.0
C438 C 0.56541 0.30728 0.87759 0.0
C439 C 0.55918 0.32726 0.86359 0.0
C440 C 0.52302 0.31537 0.85799 0.0
C441 C 0.49396 0.2835 0.86557 0.0
C442 C 0.5902 0.35928 0.85399 0.0
C443 C 0.59117 0.36026 0.83413 0.0
C444 C 0.61884 0.38844 0.86411 0.0
C445 C 0.61853 0.39062 0.88501 0.0
C446 C 0.58871 0.38957 0.89447 0.0
C447 C 0.58852 0.3915 0.91417 0.0
C448 C 0.61812 0.39473 0.92457 0.0
C449 C 0.64802 0.39614 0.91528 0.0
C450 C 0.64834 0.3942 0.89558 0.0
C451 C 0.72421 0.51439 0.82267 0.0
C452 C 0.74471 0.50835 0.80894 0.0
C453 C 0.69258 0.48519 0.83035 0.0
C454 C 0.68084 0.4491 0.82469 0.0
C455 C 0.7008 0.44308 0.81058 0.0
C456 C 0.73218 0.47247 0.80261 0.0
C457 C 0.6489 0.41799 0.8343 0.0
C458 C 0.64794 0.417 0.85416 0.0
C459 C 0.61973 0.38936 0.82418 0.0
C460 C 0.61753 0.38966 0.80328 0.0
C461 C 0.61409 0.35992 0.7927 0.0
C462 C 0.61215 0.36023 0.773 0.0
C463 C 0.61343 0.39007 0.76372 0.0
C464 C 0.61652 0.4196 0.77413 0.0
C465 C 0.61844 0.41941 0.79384 0.0
H466 H 0.61195 0.39026 0.74847 0.0
H467 H 0.61792 0.39621 0.93982 0.0
H468 H 0.66792 0.6163 0.18889 0.0
H469 H 0.60403 0.59631 0.1808 0.0
H470 H 0.56945 0.49371 0.20922 0.0
H471 H 0.63249 0.51311 0.21717 0.0
H472 H 0.53096 0.48355 0.17721 0.0
H473 H 0.57004 0.56371 0.23242 0.0
H474 H 0.60893 0.62214 0.24883 0.0
H475 H 0.57705 0.67789 0.20905 0.0
H476 H 0.53824 0.61974 0.1923 0.0
H477 H 0.37255 0.46725 0.23752 0.0
H478 H 0.43698 0.49653 0.22903 0.0
H479 H 0.40776 0.4695 0.17043 0.0
H480 H 0.34281 0.43855 0.17906 0.0
H481 H 0.47919 0.55258 0.20876 0.0
H482 H 0.47527 0.46033 0.14871 0.0
H483 H 0.43665 0.39765 0.13654 0.0
H484 H 0.39789 0.35921 0.19266 0.0
H485 H 0.43656 0.42159 0.20515 0.0
C486 C 0.64666 0.58932 0.19317 0.0
C487 C 0.65512 0.56647 0.20388 0.0
C488 C 0.61028 0.57796 0.18852 0.0
C489 C 0.5821 0.54359 0.19447 0.0
C490 C 0.59081 0.52024 0.20439 0.0
C491 C 0.62688 0.53156 0.20909 0.0
C492 C 0.54315 0.53269 0.19226 0.0
C493 C 0.51959 0.49893 0.18377 0.0
C494 C 0.52844 0.55267 0.20094 0.0
C495 C 0.55168 0.58756 0.21098 0.0
C496 C 0.57157 0.5885 0.2271 0.0
C497 C 0.59355 0.62153 0.23647 0.0
C498 C 0.59558 0.65374 0.22994 0.0
C499 C 0.57554 0.65294 0.21406 0.0
C500 C 0.55354 0.61996 0.20463 0.0
C501 C 0.37983 0.46737 0.22283 0.0
C502 C 0.35274 0.45041 0.20896 0.0
C503 C 0.41668 0.48437 0.21796 0.0
C504 C 0.42728 0.48524 0.19909 0.0
C505 C 0.40025 0.46874 0.18512 0.0
C506 C 0.3632 0.45103 0.19006 0.0
C507 C 0.46674 0.50248 0.19453 0.0
C508 C 0.49045 0.53767 0.20159 0.0
C509 C 0.48154 0.48325 0.18507 0.0
C510 C 0.45838 0.44564 0.17779 0.0
C511 C 0.45851 0.43846 0.15843 0.0
C512 C 0.43663 0.40301 0.15148 0.0
C513 C 0.41471 0.37449 0.16381 0.0
C514 C 0.41475 0.38134 0.18312 0.0
C515 C 0.43661 0.41674 0.19013 0.0
H516 H 0.39777 0.34708 0.1584 0.0
H517 H 0.61259 0.67929 0.23722 0.0
H518 H 0.09008 0.65469 0.5076 0.0
H519 H 0.0591 0.59038 0.49753 0.0
H520 H 0.05688 0.557 0.55536 0.0
H521 H 0.08801 0.62052 0.56537 0.0
H522 H 0.08289 0.52489 0.53227 0.0
H523 H 0.98082 0.54929 0.53305 0.0
H524 H 0.94836 0.58106 0.52231 0.0
H525 H 0.94992 0.54725 0.46529 0.0
H526 H 0.98278 0.51561 0.47569 0.0
H527 H 0.93836 0.36274 0.56144 0.0
H528 H 0.98362 0.42476 0.55252 0.0
H529 H 0.9632 0.39561 0.49359 0.0
H530 H 0.91746 0.33257 0.50254 0.0
H531 H 0.95855 0.45869 0.50444 0.0
H532 H 0.04479 0.41787 0.50825 0.0
H533 H 0.07239 0.38347 0.52184 0.0
H534 H 0.09752 0.44662 0.57279 0.0
H535 H 0.0697 0.48111 0.55963 0.0
C536 C 0.0825 0.6335 0.51814 0.0
C537 C 0.09165 0.64256 0.53725 0.0
C538 C 0.06499 0.59688 0.51237 0.0
C539 C 0.05613 0.56902 0.52568 0.0
C540 C 0.06404 0.57812 0.54481 0.0
C541 C 0.08165 0.61444 0.55053 0.0
C542 C 0.03886 0.5301 0.52018 0.0
C543 C 0.05583 0.51039 0.52602 0.0
C544 C 0.00427 0.51149 0.5113 0.0
C545 C 0.9847 0.53059 0.50508 0.0
C546 C 0.97453 0.54893 0.5182 0.0
C547 C 0.956 0.56684 0.51218 0.0
C548 C 0.94722 0.5663 0.49311 0.0
C549 C 0.95684 0.54774 0.48004 0.0
C550 C 0.97541 0.52982 0.48598 0.0
C551 C 0.9438 0.36933 0.54657 0.0
C552 C 0.92435 0.34303 0.53266 0.0
C553 C 0.96983 0.4047 0.54149 0.0
C554 C 0.97689 0.4146 0.52241 0.0
C555 C 0.9582 0.38827 0.50838 0.0
C556 C 0.9323 0.35242 0.5135 0.0
C557 C 0.00162 0.45343 0.51772 0.0
C558 C 0.98627 0.47325 0.50989 0.0
C559 C 0.03753 0.47219 0.52503 0.0
C560 C 0.05523 0.45219 0.53289 0.0
C561 C 0.05616 0.42441 0.52236 0.0
C562 C 0.07184 0.40487 0.53 0.0
C563 C 0.08674 0.41289 0.54816 0.0
C564 C 0.0861 0.44054 0.5587 0.0
C565 C 0.07047 0.46017 0.55113 0.0
H566 H 0.09877 0.39767 0.55407 0.0
H567 H 0.93285 0.58016 0.48849 0.0
H568 H 0.41396 0.07269 0.83732 0.0
H569 H 0.44099 0.0396 0.82167 0.0
H570 H 0.51175 0.06063 0.86961 0.0
H571 H 0.48513 0.09289 0.88526 0.0
H572 H 0.5484 0.07745 0.83404 0.0
H573 H 0.43708 0.98043 0.86595 0.0
H574 H 0.37004 0.94422 0.86971 0.0
H575 H 0.35863 0.91399 0.81115 0.0
H576 H 0.42564 0.95039 0.80704 0.0
H577 H 0.59201 0.96122 0.87706 0.0
H578 H 0.57202 0.00113 0.86324 0.0
H579 H 0.53599 0.9338 0.81323 0.0
H580 H 0.55694 0.89386 0.82702 0.0
H581 H 0.4811 0.94198 0.83127 0.0
H582 H 0.59712 0.01981 0.80576 0.0
H583 H 0.66444 0.05426 0.80404 0.0
H584 H 0.66843 0.12071 0.85088 0.0
H585 H 0.6012 0.08637 0.85311 0.0
C586 C 0.43512 0.06999 0.84453 0.0
C587 C 0.44741 0.08548 0.86253 0.0
C588 C 0.45061 0.05131 0.83553 0.0
C589 C 0.47871 0.04828 0.8444 0.0
C590 C 0.49049 0.06323 0.86242 0.0
C591 C 0.47496 0.08143 0.87141 0.0
C592 C 0.49575 0.02858 0.83575 0.0
C593 C 0.53378 0.04785 0.83307 0.0
C594 C 0.4763 0.9902 0.83363 0.0
C595 C 0.43618 0.96848 0.83613 0.0
C596 C 0.42021 0.9663 0.85385 0.0
C597 C 0.38225 0.9457 0.85605 0.0
C598 C 0.36007 0.92693 0.84066 0.0
C599 C 0.37583 0.92863 0.82305 0.0
C600 C 0.41378 0.94924 0.82077 0.0
C601 C 0.58088 0.95558 0.86288 0.0
C602 C 0.57592 0.9246 0.85308 0.0
C603 C 0.56964 0.97847 0.85493 0.0
C604 C 0.55276 0.97054 0.83714 0.0
C605 C 0.5493 0.94052 0.82688 0.0
C606 C 0.56134 0.91789 0.83473 0.0
C607 C 0.5342 0.99072 0.83115 0.0
C608 C 0.4958 0.97165 0.83106 0.0
C609 C 0.55338 0.02935 0.83081 0.0
C610 C 0.59396 0.05051 0.82953 0.0
C611 C 0.61232 0.04168 0.81575 0.0
C612 C 0.6505 0.06121 0.81468 0.0
C613 C 0.67069 0.08969 0.82732 0.0
C614 C 0.65274 0.09872 0.84106 0.0
C615 C 0.61457 0.07928 0.84219 0.0
H616 H 0.70025 0.10475 0.82649 0.0
H617 H 0.3307 0.91098 0.84239 0.0
H618 H 0.582 0.65558 0.50268 0.0
H619 H 0.55392 0.59267 0.51478 0.0
H620 H 0.4851 0.55381 0.46539 0.0
H621 H 0.51247 0.61573 0.45336 0.0
H622 H 0.44635 0.52389 0.49759 0.0
H623 H 0.56185 0.54777 0.46855 0.0
H624 H 0.62914 0.58081 0.46589 0.0
H625 H 0.63777 0.55361 0.52339 0.0
H626 H 0.57047 0.52073 0.52642 0.0
H627 H 0.41772 0.36441 0.45507 0.0
H628 H 0.4384 0.4263 0.46643 0.0
H629 H 0.45401 0.39534 0.5222 0.0
H630 H 0.43198 0.33246 0.51096 0.0
H631 H 0.51828 0.46039 0.50167 0.0
H632 H 0.39781 0.41776 0.52431 0.0
H633 H 0.33044 0.38259 0.52334 0.0
H634 H 0.33064 0.44362 0.47479 0.0
H635 H 0.39802 0.47879 0.47527 0.0
C636 C 0.56095 0.63354 0.49442 0.0
C637 C 0.54948 0.64066 0.47706 0.0
C638 C 0.54489 0.59773 0.50138 0.0
C639 C 0.51723 0.56872 0.49104 0.0
C640 C 0.50604 0.57587 0.47372 0.0
C641 C 0.52197 0.61135 0.46679 0.0
C642 C 0.50032 0.53036 0.49747 0.0
C643 C 0.46203 0.50999 0.49876 0.0
C644 C 0.52093 0.51254 0.49961 0.0
C645 C 0.56127 0.5323 0.4978 0.0
C646 C 0.57815 0.54913 0.48067 0.0
C647 C 0.61626 0.56775 0.47908 0.0
C648 C 0.63773 0.56944 0.49449 0.0
C649 C 0.62111 0.55238 0.51149 0.0
C650 C 0.583 0.53375 0.51315 0.0
C651 C 0.42488 0.3706 0.46983 0.0
C652 C 0.42335 0.34388 0.48217 0.0
C653 C 0.43656 0.40583 0.47631 0.0
C654 C 0.44757 0.41514 0.49513 0.0
C655 C 0.44535 0.3884 0.50766 0.0
C656 C 0.43271 0.35267 0.50126 0.0
C657 C 0.46431 0.45384 0.50067 0.0
C658 C 0.50259 0.47439 0.50154 0.0
C659 C 0.44368 0.4718 0.50018 0.0
C660 C 0.40306 0.45092 0.49984 0.0
C661 C 0.38352 0.42355 0.51336 0.0
C662 C 0.34531 0.40363 0.5129 0.0
C663 C 0.32627 0.41087 0.49902 0.0
C664 C 0.34542 0.43808 0.48556 0.0
C665 C 0.38364 0.45808 0.48595 0.0
H666 H 0.29669 0.39541 0.49868 0.0
H667 H 0.66723 0.58385 0.49323 0.0
H668 H 0.93624 0.54915 0.79382 0.0
H669 H 0.96637 0.51796 0.80715 0.0
H670 H 0.95222 0.54861 0.86325 0.0
H671 H 0.92142 0.58009 0.84994 0.0
H672 H 0.02797 0.55115 0.8492 0.0
H673 H 0.89964 0.47393 0.86149 0.0
H674 H 0.83431 0.44724 0.8536 0.0
H675 H 0.84926 0.39735 0.80412 0.0
H676 H 0.91481 0.42423 0.81154 0.0
H677 H 0.08898 0.42087 0.85091 0.0
H678 H 0.0508 0.44443 0.86405 0.0
H679 H 0.00086 0.43289 0.80943 0.0
H680 H 0.03884 0.40987 0.79634 0.0
H681 H 0.95175 0.41737 0.83877 0.0
H682 H 0.07777 0.5111 0.82037 0.0
H683 H 0.14477 0.54091 0.82406 0.0
H684 H 0.13482 0.56071 0.88267 0.0
H685 H 0.06768 0.5306 0.87931 0.0
C686 C 0.94002 0.54991 0.80898 0.0
C687 C 0.92603 0.56666 0.82086 0.0
C688 C 0.95729 0.53212 0.81655 0.0
C689 C 0.96095 0.53068 0.83614 0.0
C690 C 0.94944 0.54948 0.84808 0.0
C691 C 0.93199 0.56744 0.84046 0.0
C692 C 0.9739 0.50649 0.84351 0.0
C693 C 0.01108 0.52172 0.84779 0.0
C694 C 0.95178 0.46822 0.8414 0.0
C695 C 0.91216 0.45113 0.83709 0.0
C696 C 0.88902 0.45739 0.84889 0.0
C697 C 0.85195 0.44223 0.8445 0.0
C698 C 0.83764 0.42061 0.82837 0.0
C699 C 0.86037 0.41405 0.81663 0.0
C700 C 0.89747 0.42918 0.82094 0.0
C701 C 0.06897 0.4223 0.84193 0.0
C702 C 0.06701 0.41397 0.82259 0.0
C703 C 0.04732 0.43583 0.84942 0.0
C704 C 0.02328 0.44065 0.83766 0.0
C705 C 0.01916 0.42928 0.81877 0.0
C706 C 0.04101 0.41632 0.81126 0.0
C707 C 0.00614 0.46216 0.84369 0.0
C708 C 0.9682 0.44644 0.8416 0.0
C709 C 0.0276 0.49998 0.84771 0.0
C710 C 0.06783 0.51828 0.84966 0.0
C711 C 0.08991 0.52165 0.83405 0.0
C712 C 0.12787 0.53859 0.83608 0.0
C713 C 0.14403 0.55259 0.85361 0.0
C714 C 0.12226 0.54977 0.86912 0.0
C715 C 0.08427 0.53276 0.86717 0.0
H716 H 0.17343 0.56571 0.85516 0.0
H717 H 0.80894 0.40895 0.82498 0.0
H718 H 0.38233 0.89145 0.13084 0.0
H719 H 0.44462 0.9296 0.14173 0.0
H720 H 0.40772 0.9782 0.18363 0.0
H721 H 0.34456 0.93998 0.17256 0.0
H722 H 0.4643 0.02908 0.165 0.0
H723 H 0.44293 0.92515 0.19837 0.0
H724 H 0.42005 0.85996 0.20502 0.0
H725 H 0.49145 0.85745 0.16257 0.0
H726 H 0.51438 0.92246 0.15543 0.0
H727 H 0.67149 0.08025 0.17136 0.0
H728 H 0.60907 0.04369 0.18387 0.0
H729 H 0.56605 0.06191 0.13233 0.0
H730 H 0.62758 0.09848 0.11996 0.0
H731 H 0.55052 0.982 0.17188 0.0
H732 H 0.49778 0.07538 0.13974 0.0
H733 H 0.52103 0.14124 0.13517 0.0
H734 H 0.59768 0.16619 0.18037 0.0
H735 H 0.57453 0.10045 0.18544 0.0
C736 C 0.38721 0.91002 0.14246 0.0
C737 C 0.35843 0.91276 0.15078 0.0
C738 C 0.42291 0.93155 0.14884 0.0
C739 C 0.43074 0.95618 0.16377 0.0
C740 C 0.40215 0.95902 0.17223 0.0
C741 C 0.36617 0.93731 0.16584 0.0
C742 C 0.46942 0.98123 0.16888 0.0
C743 C 0.48315 0.0189 0.16688 0.0
C744 C 0.49388 0.96802 0.17215 0.0
C745 C 0.48041 0.92882 0.17637 0.0
C746 C 0.45364 0.91068 0.19038 0.0
C747 C 0.44066 0.87373 0.19424 0.0
C748 C 0.4543 0.85458 0.18423 0.0
C749 C 0.48097 0.87234 0.17034 0.0
C750 C 0.49404 0.90929 0.16641 0.0
C751 C 0.64864 0.0763 0.16272 0.0
C752 C 0.65446 0.09249 0.14474 0.0
C753 C 0.6131 0.05558 0.16991 0.0
C754 C 0.58308 0.05098 0.15923 0.0
C755 C 0.5889 0.06608 0.14106 0.0
C756 C 0.62415 0.08677 0.13393 0.0
C757 C 0.54516 0.02924 0.16633 0.0
C758 C 0.53165 0.9923 0.1707 0.0
C759 C 0.52088 0.04323 0.16571 0.0
C760 C 0.53438 0.08288 0.16296 0.0
C761 C 0.51934 0.09486 0.14884 0.0
C762 C 0.53258 0.1322 0.14612 0.0
C763 C 0.56082 0.15788 0.15746 0.0
C764 C 0.57584 0.14627 0.17157 0.0
C765 C 0.56269 0.10896 0.17436 0.0
H766 H 0.57106 0.18678 0.15531 0.0
H767 H 0.4442 0.82597 0.18723 0.0
H768 H 0.24703 0.3243 0.26744 0.0
H769 H 0.26537 0.29703 0.2925 0.0
H770 H 0.27979 0.38322 0.33048 0.0
H771 H 0.26327 0.41154 0.30511 0.0
H772 H 0.33467 0.37617 0.33417 0.0
H773 H 0.2075 0.28868 0.33432 0.0
H774 H 0.14755 0.24404 0.32102 0.0
H775 H 0.19152 0.17696 0.30241 0.0
H776 H 0.25188 0.22145 0.31538 0.0
H777 H 0.31742 0.23576 0.41071 0.0
H778 H 0.28803 0.25298 0.38615 0.0
H779 H 0.39017 0.30874 0.35575 0.0
H780 H 0.41991 0.29276 0.38057 0.0
H781 H 0.27366 0.24429 0.35024 0.0
H782 H 0.40203 0.38587 0.33592 0.0
H783 H 0.45707 0.4318 0.35279 0.0
H784 H 0.40157 0.39326 0.40586 0.0
H785 H 0.34607 0.34747 0.3893 0.0
C786 C 0.25337 0.33703 0.28125 0.0
C787 C 0.25358 0.37008 0.28427 0.0
C788 C 0.26383 0.32132 0.29565 0.0
C789 C 0.27386 0.33776 0.31359 0.0
C790 C 0.27248 0.36996 0.31681 0.0
C791 C 0.26272 0.38604 0.30231 0.0
C792 C 0.2882 0.32301 0.32853 0.0
C793 C 0.32112 0.34731 0.33765 0.0
C794 C 0.27055 0.28542 0.33349 0.0
C795 C 0.2343 0.25857 0.32568 0.0
C796 C 0.20445 0.26454 0.32727 0.0
C797 C 0.17039 0.23924 0.31981 0.0
C798 C 0.16575 0.20773 0.31084 0.0
C799 C 0.19516 0.2014 0.30934 0.0
C800 C 0.22929 0.22663 0.31677 0.0
C801 C 0.33348 0.25114 0.39863 0.0
C802 C 0.37113 0.26314 0.39771 0.0
C803 C 0.31662 0.26104 0.38457 0.0
C804 C 0.33698 0.28298 0.36924 0.0
C805 C 0.37398 0.29268 0.36765 0.0
C806 C 0.39094 0.28325 0.3818 0.0
C807 C 0.32024 0.29743 0.35555 0.0
C808 C 0.28703 0.27312 0.3467 0.0
C809 C 0.33691 0.33522 0.35128 0.0
C810 C 0.37004 0.363 0.36136 0.0
C811 C 0.40154 0.3873 0.35118 0.0
C812 C 0.43282 0.41329 0.36069 0.0
C813 C 0.43285 0.41537 0.38039 0.0
C814 C 0.40155 0.39154 0.39061 0.0
C815 C 0.37019 0.36555 0.38117 0.0
H816 H 0.45711 0.43548 0.38773 0.0
H817 H 0.13936 0.18817 0.30507 0.0
H818 H 0.88186 0.31722 0.62316 0.0
H819 H 0.92795 0.33616 0.64794 0.0
H820 H 0.93833 0.24122 0.63735 0.0
H821 H 0.89248 0.22225 0.61208 0.0
H822 H 0.93684 0.2614 0.67805 0.0
H823 H 0.99952 0.31142 0.61922 0.0
H824 H 0.00983 0.34448 0.58908 0.0
H825 H 0.02942 0.44101 0.61904 0.0
H826 H 0.01863 0.40835 0.64936 0.0
H827 H 0.09741 0.33159 0.73433 0.0
H828 H 0.05538 0.30391 0.70769 0.0
H829 H 0.05474 0.40473 0.69891 0.0
H830 H 0.09751 0.43277 0.72497 0.0
H831 H 0.05296 0.377 0.66633 0.0
H832 H 0.98536 0.32901 0.72396 0.0
H833 H 0.97097 0.29776 0.75482 0.0
H834 H 0.95706 0.20013 0.7283 0.0
H835 H 0.97184 0.23099 0.6973 0.0
C836 C 0.89335 0.29988 0.62626 0.0
C837 C 0.88342 0.26817 0.61555 0.0
C838 C 0.91989 0.31092 0.6404 0.0
C839 C 0.93687 0.29034 0.64435 0.0
C840 C 0.92562 0.25755 0.63449 0.0
C841 C 0.89935 0.24671 0.62008 0.0
C842 C 0.96762 0.3044 0.65809 0.0
C843 C 0.96254 0.28627 0.67539 0.0
C844 C 0.00076 0.33738 0.65477 0.0
C845 C 0.00792 0.35731 0.63657 0.0
C846 C 0.00574 0.33961 0.61938 0.0
C847 C 0.01172 0.35829 0.60226 0.0
C848 C 0.02016 0.39478 0.60214 0.0
C849 C 0.02283 0.41272 0.61915 0.0
C850 C 0.01682 0.39415 0.63631 0.0
C851 C 0.0888 0.34804 0.72652 0.0
C852 C 0.10079 0.38439 0.73189 0.0
C853 C 0.06446 0.33207 0.71136 0.0
C854 C 0.05108 0.35189 0.70144 0.0
C855 C 0.0644 0.38868 0.70628 0.0
C856 C 0.08895 0.40473 0.72127 0.0
C857 C 0.02224 0.33427 0.68656 0.0
C858 C 0.02757 0.35182 0.669 0.0
C859 C 0.98907 0.30106 0.68976 0.0
C860 C 0.98013 0.28243 0.70836 0.0
C861 C 0.9795 0.30096 0.72474 0.0
C862 C 0.97123 0.28331 0.74225 0.0
C863 C 0.96322 0.24702 0.74353 0.0
C864 C 0.96335 0.22827 0.72729 0.0
C865 C 0.97166 0.24582 0.70975 0.0
H866 H 0.95681 0.23339 0.7571 0.0
H867 H 0.02466 0.40916 0.58887 0.0
H868 H 0.56343 0.90995 0.95109 0.0
H869 H 0.59377 0.95529 0.97595 0.0
H870 H 0.69103 0.94735 0.96899 0.0
H871 H 0.66092 0.90204 0.94376 0.0
H872 H 0.67019 0.95084 0.00831 0.0
H873 H 0.69242 0.01543 0.94923 0.0
H874 H 0.67382 0.02992 0.91891 0.0
H875 H 0.60569 0.06257 0.94828 0.0
H876 H 0.62344 0.04771 0.97877 0.0
H877 H 0.77521 0.10878 0.06495 0.0
H878 H 0.75616 0.06501 0.0388 0.0
H879 H 0.66571 0.08264 0.02728 0.0
H880 H 0.68564 0.12746 0.05263 0.0
H881 H 0.6887 0.07464 0.99586 0.0
H882 H 0.65912 0.00608 0.05379 0.0
H883 H 0.67165 0.98832 0.08488 0.0
H884 H 0.74648 0.96013 0.05918 0.0
H885 H 0.73471 0.97816 0.02795 0.0
C886 C 0.5911 0.91734 0.95498 0.0
C887 C 0.60974 0.90233 0.94533 0.0
C888 C 0.60846 0.94344 0.96918 0.0
C889 C 0.64481 0.95504 0.97421 0.0
C890 C 0.66299 0.93886 0.96531 0.0
C891 C 0.64573 0.91295 0.9509 0.0
C892 C 0.66406 0.98535 0.98806 0.0
C893 C 0.67486 0.97811 1.00551 0.0
C894 C 0.6693 0.02068 0.98459 0.0
C895 C 0.65905 0.03018 0.96628 0.0
C896 C 0.67328 0.02546 0.94922 0.0
C897 C 0.66291 0.03377 0.932 0.0
C898 C 0.63853 0.04708 0.93167 0.0
C899 C 0.62455 0.05223 0.94856 0.0
C900 C 0.63479 0.0439 0.96582 0.0
C901 C 0.75164 0.10376 0.05662 0.0
C902 C 0.73198 0.12167 0.06095 0.0
C903 C 0.74048 0.07837 0.04177 0.0
C904 C 0.70885 0.06962 0.03122 0.0
C905 C 0.69011 0.08861 0.03511 0.0
C906 C 0.70161 0.11438 0.04969 0.0
C907 C 0.69445 0.04021 0.01646 0.0
C908 C 0.68448 0.04756 0.99874 0.0
C909 C 0.68931 0.00477 0.01986 0.0
C910 C 0.69637 0.99386 0.03859 0.0
C911 C 0.67844 0.99633 0.0548 0.0
C912 C 0.68537 0.98619 0.07243 0.0
C913 C 0.70993 0.97322 0.07401 0.0
C914 C 0.72752 0.97026 0.05794 0.0
C915 C 0.72072 0.98042 0.04027 0.0
H916 H 0.71527 0.96538 0.08767 0.0
H917 H 0.63052 0.05348 0.91833 0.0
H918 H 0.56387 0.67765 0.38501 0.0
H919 H 0.59421 0.66081 0.36085 0.0
H920 H 0.69825 0.75272 0.37648 0.0
H921 H 0.6682 0.76933 0.4012 0.0
H922 H 0.67242 0.7311 0.33208 0.0
H923 H 0.69633 0.69087 0.39296 0.0
H924 H 0.67522 0.65929 0.42359 0.0
H925 H 0.60016 0.55999 0.39506 0.0
H926 H 0.62044 0.5912 0.36427 0.0
H927 H 0.77728 0.6743 0.27848 0.0
H928 H 0.75757 0.70056 0.3036 0.0
H929 H 0.66859 0.59296 0.31724 0.0
H930 H 0.68927 0.56659 0.29294 0.0
H931 H 0.68996 0.62632 0.34788 0.0
H932 H 0.65951 0.65878 0.28888 0.0
H933 H 0.67016 0.68491 0.2568 0.0
H934 H 0.74451 0.79136 0.27899 0.0
H935 H 0.73475 0.76575 0.31119 0.0
C936 C 0.59313 0.69475 0.38315 0.0
C937 C 0.61359 0.7249 0.39508 0.0
C938 C 0.61043 0.68497 0.36934 0.0
C939 C 0.64845 0.70543 0.36692 0.0
C940 C 0.66884 0.73661 0.37812 0.0
C941 C 0.65162 0.74605 0.39223 0.0
C942 C 0.66683 0.69261 0.35352 0.0
C943 C 0.67702 0.70869 0.33559 0.0
C944 C 0.67128 0.66237 0.35787 0.0
C945 C 0.65965 0.64346 0.37634 0.0
C946 C 0.67511 0.6624 0.39323 0.0
C947 C 0.66334 0.64455 0.41062 0.0
C948 C 0.6363 0.60768 0.41128 0.0
C949 C 0.62107 0.58856 0.39454 0.0
C950 C 0.63272 0.6063 0.37712 0.0
C951 C 0.75391 0.65621 0.28708 0.0
C952 C 0.73489 0.61832 0.28366 0.0
C953 C 0.74236 0.67129 0.30133 0.0
C954 C 0.71093 0.64897 0.31215 0.0
C955 C 0.69284 0.61098 0.30919 0.0
C956 C 0.70477 0.59585 0.29522 0.0
C957 C 0.69614 0.66493 0.32619 0.0
C958 C 0.68615 0.64918 0.34428 0.0
C959 C 0.6908 0.69477 0.32174 0.0
C960 C 0.69674 0.71028 0.30241 0.0
C961 C 0.67834 0.68772 0.2869 0.0
C962 C 0.68417 0.70243 0.2687 0.0
C963 C 0.70804 0.73975 0.26586 0.0
C964 C 0.72608 0.76244 0.28121 0.0
C965 C 0.72041 0.74785 0.29944 0.0
H966 H 0.7125 0.7511 0.25176 0.0
H967 H 0.6272 0.59392 0.42475 0.0
H968 H 0.12272 0.68702 0.6288 0.0
H969 H 0.07673 0.66923 0.65363 0.0
H970 H 0.05621 0.75542 0.63675 0.0
H971 H 0.10181 0.77301 0.61137 0.0
H972 H 0.06208 0.74124 0.68011 0.0
H973 H 0.99862 0.68517 0.62163 0.0
H974 H 0.99001 0.65007 0.59238 0.0
H975 H 0.97729 0.55855 0.62489 0.0
H976 H 0.98645 0.59337 0.65433 0.0
H977 H 0.90181 0.66876 0.73729 0.0
H978 H 0.9444 0.69722 0.71087 0.0
H979 H 0.94503 0.5965 0.70144 0.0
H980 H 0.90124 0.56764 0.72699 0.0
H981 H 0.94796 0.6232 0.66958 0.0
H982 H 0.01524 0.67534 0.72681 0.0
H983 H 0.02918 0.70804 0.75724 0.0
H984 H 0.04001 0.80323 0.72928 0.0
H985 H 0.02569 0.77092 0.69871 0.0
C986 C 0.10901 0.70274 0.63051 0.0
C987 C 0.11601 0.73148 0.61803 0.0
C988 C 0.08259 0.6924 0.64471 0.0
C989 C 0.06293 0.71086 0.64697 0.0
C990 C 0.07114 0.74084 0.63524 0.0
C991 C 0.09721 0.75086 0.62076 0.0
C992 C 0.0322 0.69693 0.66074 0.0
C993 C 0.03677 0.71581 0.67772 0.0
C994 C 0.99973 0.6632 0.65783 0.0
C995 C 0.99355 0.642 0.64017 0.0
C996 C 0.99429 0.65767 0.62253 0.0
C997 C 0.98926 0.63781 0.60592 0.0
C998 C 0.9832 0.60213 0.60677 0.0
C999 C 0.98203 0.5862 0.62425 0.0
C1000 C 0.9871 0.60597 0.6409 0.0
C1001 C 0.91061 0.65257 0.72936 0.0
C1002 C 0.89807 0.6159 0.7343 0.0
C1003 C 0.93532 0.66899 0.71436 0.0
C1004 C 0.94885 0.64941 0.70429 0.0
C1005 C 0.93527 0.61243 0.70886 0.0
C1006 C 0.9101 0.59586 0.72356 0.0
C1007 C 0.97766 0.66719 0.68934 0.0
C1008 C 0.97288 0.64894 0.67204 0.0
C1009 C 0.01032 0.7011 0.69219 0.0
C1010 C 0.01896 0.72058 0.71053 0.0
C1011 C 0.02034 0.70316 0.72718 0.0
C1012 C 0.02834 0.72163 0.74445 0.0
C1013 C 0.03535 0.75765 0.7452 0.0
C1014 C 0.03449 0.77531 0.72868 0.0
C1015 C 0.02645 0.75694 0.71138 0.0
H1016 H 0.04155 0.7719 0.75858 0.0
H1017 H 0.97934 0.58681 0.5939 0.0
H1018 H 0.23649 0.90379 0.07422 0.0
H1019 H 0.25612 0.94886 0.0485 0.0
H1020 H 0.3417 0.92584 0.03379 0.0
H1021 H 0.3219 0.8804 0.05902 0.0
H1022 H 0.36445 0.00291 0.04044 0.0
H1023 H 0.27527 0.89665 1.00544 0.0
H1024 H 0.21356 0.84447 0.99957 0.0
H1025 H 0.17035 0.91737 0.99658 0.0
H1026 H 0.23177 0.96996 1.0027 0.0
H1027 H 0.44203 0.09712 0.95626 0.0
H1028 H 0.414 0.05379 0.98201 0.0
H1029 H 0.3161 0.06138 0.97672 0.0
H1030 H 0.34357 0.10342 0.94995 0.0
H1031 H 0.29567 0.99489 0.98219 0.0
H1032 H 0.38159 0.10128 0.0152 0.0
H1033 H 0.44112 0.15541 0.02264 0.0
H1034 H 0.48775 0.08667 0.03203 0.0
H1035 H 0.42863 0.03214 0.0244 0.0
C1036 C 0.25904 0.90783 0.06528 0.0
C1037 C 0.27753 0.88835 0.06869 0.0
C1038 C 0.27027 0.93366 0.05061 0.0
C1039 C 0.30051 0.94085 0.03928 0.0
C1040 C 0.31838 0.92082 0.04238 0.0
C1041 C 0.30683 0.89464 0.05677 0.0
C1042 C 0.3149 0.97042 0.0248 0.0
C1043 C 0.3496 0.0011 0.02761 0.0
C1044 C 0.29487 0.96876 0.00847 0.0
C1045 C 0.25802 0.93717 1.00476 0.0
C1046 C 0.25255 0.90151 1.00372 0.0
C1047 C 0.21764 0.87187 1.0003 0.0
C1048 C 0.18803 0.87759 0.99776 0.0
C1049 C 0.19329 0.91298 0.99858 0.0
C1050 C 0.22815 0.94271 1.00201 0.0
C1051 C 0.4147 0.09002 0.9607 0.0
C1052 C 0.39521 0.1041 0.95112 0.0
C1053 C 0.39865 0.06524 0.97559 0.0
C1054 C 0.36304 0.05464 0.98179 0.0
C1055 C 0.34362 0.06904 0.97236 0.0
C1056 C 0.35943 0.0933 0.95711 0.0
C1057 C 0.34589 0.02748 0.99754 0.0
C1058 C 0.31059 0.99719 0.99506 0.0
C1059 C 0.36507 0.02989 0.01444 0.0
C1060 C 0.40071 0.06263 0.01909 0.0
C1061 C 0.4046 0.09772 0.01873 0.0
C1062 C 0.43827 0.12847 0.023 0.0
C1063 C 0.46822 0.12449 0.02777 0.0
C1064 C 0.46454 0.08972 0.02832 0.0
C1065 C 0.43094 0.05887 0.02405 0.0
H1066 H 0.49426 0.14834 0.03106 0.0
H1067 H 0.16102 0.85461 0.99511 0.0
H1068 H 0.87582 0.16631 0.1193 0.0
H1069 H 0.93881 0.18165 0.12611 0.0
H1070 H 0.91501 0.171 0.18578 0.0
H1071 H 0.8522 0.15519 0.17911 0.0
H1072 H 0.98536 0.24168 0.14467 0.0
H1073 H 0.97289 0.15265 0.20998 0.0
H1074 H 0.93266 0.08995 0.22164 0.0
H1075 H 0.90112 0.05205 0.16476 0.0
H1076 H 0.94154 0.11439 0.15273 0.0
H1077 H 0.12815 0.29093 0.22061 0.0
H1078 H 0.06704 0.24632 0.20935 0.0
H1079 H 0.10824 0.26062 0.15238 0.0
H1080 H 0.16914 0.30573 0.16345 0.0
H1081 H 0.03104 0.18232 0.18888 0.0
H1082 H 0.05029 0.27218 0.12387 0.0
H1083 H 0.08912 0.33607 0.11337 0.0
H1084 H 0.10385 0.37262 0.17095 0.0
H1085 H 0.06468 0.30907 0.18174 0.0
C1086 C 0.88377 0.16629 0.13384 0.0
C1087 C 0.85909 0.15981 0.14867 0.0
C1088 C 0.91979 0.17515 0.13771 0.0
C1089 C 0.93166 0.17737 0.15645 0.0
C1090 C 0.90645 0.1689 0.1712 0.0
C1091 C 0.87052 0.16009 0.16735 0.0
C1092 C 0.97114 0.19307 0.16079 0.0
C1093 C 0.99546 0.22819 0.15392 0.0
C1094 C 0.98417 0.17604 0.17337 0.0
C1095 C 0.96009 0.13831 0.18046 0.0
C1096 C 0.95753 0.13092 0.19994 0.0
C1097 C 0.93465 0.09543 0.20662 0.0
C1098 C 0.91428 0.06705 0.19395 0.0
C1099 C 0.91682 0.07408 0.17457 0.0
C1100 C 0.93967 0.10951 0.16781 0.0
C1101 C 0.12443 0.28382 0.20577 0.0
C1102 C 0.15329 0.30233 0.19287 0.0
C1103 C 0.08947 0.25825 0.19935 0.0
C1104 C 0.08296 0.25077 0.17998 0.0
C1105 C 0.11255 0.26649 0.16735 0.0
C1106 C 0.14736 0.29225 0.17372 0.0
C1107 C 0.04488 0.23076 0.17277 0.0
C1108 C 0.02092 0.19521 0.17924 0.0
C1109 C 0.0319 0.24744 0.15995 0.0
C1110 C 0.05497 0.28584 0.1536 0.0
C1111 C 0.06174 0.29389 0.13426 0.0
C1112 C 0.0838 0.33003 0.12827 0.0
C1113 C 0.09906 0.35836 0.14149 0.0
C1114 C 0.09213 0.35064 0.16073 0.0
C1115 C 0.07002 0.31457 0.16679 0.0
H1116 H 0.11618 0.38631 0.13682 0.0
H1117 H 0.89656 0.03961 0.19915 0.0
H1118 H 0.85338 0.15355 0.49308 0.0
H1119 H 0.83736 0.09173 0.4836 0.0
H1120 H 0.80789 0.05484 0.5411 0.0
H1121 H 0.82477 0.11704 0.5508 0.0
H1122 H 0.83766 0.01809 0.52294 0.0
H1123 H 0.74379 0.04906 0.51123 0.0
H1124 H 0.71893 0.0864 0.49824 0.0
H1125 H 0.74518 0.0686 0.44206 0.0
H1126 H 0.77069 0.03157 0.45477 0.0
H1127 H 0.68893 0.83753 0.51262 0.0
H1128 H 0.73528 0.90051 0.5193 0.0
H1129 H 0.75333 0.92245 0.45958 0.0
H1130 H 0.70633 0.85934 0.45274 0.0
H1131 H 0.7365 0.96827 0.47627 0.0
H1132 H 0.8216 0.9279 0.48877 0.0
H1133 H 0.84394 0.88924 0.5028 0.0
H1134 H 0.83155 0.92233 0.55837 0.0
H1135 H 0.80862 0.9608 0.54469 0.0
C1136 C 0.84424 0.13246 0.5038 0.0
C1137 C 0.83978 0.13998 0.52264 0.0
C1138 C 0.8351 0.09715 0.49835 0.0
C1139 C 0.82069 0.06855 0.51157 0.0
C1140 C 0.81885 0.07651 0.53066 0.0
C1141 C 0.82841 0.11203 0.53618 0.0
C1142 C 0.80363 0.03004 0.50513 0.0
C1143 C 0.81546 0.00704 0.51279 0.0
C1144 C 0.77508 0.01588 0.49164 0.0
C1145 C 0.75953 0.03792 0.48396 0.0
C1146 C 0.7445 0.05334 0.49612 0.0
C1147 C 0.73027 0.07442 0.48881 0.0
C1148 C 0.73058 0.07996 0.46934 0.0
C1149 C 0.74503 0.06435 0.45714 0.0
C1150 C 0.75938 0.04331 0.46439 0.0
C1151 C 0.70338 0.85544 0.50088 0.0
C1152 C 0.69364 0.84354 0.48213 0.0
C1153 C 0.73012 0.89147 0.50475 0.0
C1154 C 0.74787 0.91626 0.48995 0.0
C1155 C 0.73996 0.90377 0.47122 0.0
C1156 C 0.71316 0.86766 0.46733 0.0
C1157 C 0.77038 0.95594 0.49406 0.0
C1158 C 0.75928 0.97927 0.48609 0.0
C1159 C 0.79926 0.97012 0.50738 0.0
C1160 C 0.81316 0.94709 0.51568 0.0
C1161 C 0.82337 0.92674 0.50398 0.0
C1162 C 0.83619 0.90489 0.51188 0.0
C1163 C 0.8391 0.90329 0.53146 0.0
C1164 C 0.82927 0.9236 0.5432 0.0
C1165 C 0.81642 0.94548 0.53538 0.0
H1166 H 0.84903 0.88635 0.53755 0.0
H1167 H 0.71953 0.09628 0.4637 0.0
H1168 H 0.83437 0.70128 0.79625 0.0
H1169 H 0.81416 0.74451 0.80472 0.0
H1170 H 0.84227 0.74066 0.86294 0.0
H1171 H 0.8613 0.69649 0.85462 0.0
H1172 H 0.77557 0.72627 0.86105 0.0
H1173 H 0.88729 0.82059 0.83515 0.0
H1174 H 0.93636 0.85101 0.81152 0.0
H1175 H 0.85951 0.85136 0.77194 0.0
H1176 H 0.80984 0.82047 0.79523 0.0
H1177 H 0.70264 0.83858 0.88736 0.0
H1178 H 0.75065 0.82304 0.88186 0.0
H1179 H 0.72351 0.8077 0.8226 0.0
H1180 H 0.67595 0.82346 0.82791 0.0
H1181 H 0.7975 0.83922 0.82818 0.0
H1182 H 0.68567 0.73601 0.85198 0.0
H1183 H 0.63566 0.70424 0.87502 0.0
H1184 H 0.71368 0.72029 0.91821 0.0
H1185 H 0.76421 0.7526 0.89545 0.0
C1186 C 0.83716 0.71042 0.81076 0.0
C1187 C 0.84909 0.69527 0.8248 0.0
C1188 C 0.82572 0.73529 0.8156 0.0
C1189 C 0.8267 0.74595 0.8345 0.0
C1190 C 0.84107 0.73273 0.84829 0.0
C1191 C 0.85201 0.70754 0.84351 0.0
C1192 C 0.80845 0.76683 0.84024 0.0
C1193 C 0.78116 0.75152 0.85417 0.0
C1194 C 0.81495 0.79929 0.83098 0.0
C1195 C 0.84477 0.81798 0.81692 0.0
C1196 C 0.88078 0.82691 0.82137 0.0
C1197 C 0.90872 0.84429 0.80803 0.0
C1198 C 0.90105 0.85306 0.79023 0.0
C1199 C 0.86542 0.84454 0.78573 0.0
C1200 C 0.83737 0.82715 0.79901 0.0
C1201 C 0.70738 0.83255 0.87311 0.0
C1202 C 0.6852 0.83179 0.85811 0.0
C1203 C 0.73477 0.82364 0.86999 0.0
C1204 C 0.74032 0.81379 0.85185 0.0
C1205 C 0.71971 0.81522 0.8367 0.0
C1206 C 0.69235 0.82401 0.8398 0.0
C1207 C 0.76477 0.79841 0.84882 0.0
C1208 C 0.79283 0.81453 0.83533 0.0
C1209 C 0.75905 0.76661 0.85844 0.0
C1210 C 0.7287 0.7471 0.87209 0.0
C1211 C 0.69216 0.73301 0.86643 0.0
C1212 C 0.66373 0.71487 0.87943 0.0
C1213 C 0.67149 0.71036 0.89809 0.0
C1214 C 0.70771 0.72388 0.90377 0.0
C1215 C 0.73625 0.7421 0.89083 0.0
H1216 H 0.64944 0.6963 0.90813 0.0
H1217 H 0.92272 0.8665 0.77993 0.0
H1218 H 0.84468 0.70847 0.16735 0.0
H1219 H 0.90662 0.75432 0.15805 0.0
H1220 H 0.94405 0.75702 0.215 0.0
H1221 H 0.88183 0.71153 0.22453 0.0
H1222 H 0.98161 0.82497 0.19757 0.0
H1223 H 0.94775 0.69978 0.18411 0.0
H1224 H 0.909 0.6385 0.17042 0.0
H1225 H 0.92722 0.68535 0.1149 0.0
H1226 H 0.96567 0.747 0.12831 0.0
H1227 H 0.1611 0.8547 0.18642 0.0
H1228 H 0.09821 0.83832 0.19322 0.0
H1229 H 0.07623 0.83507 0.13354 0.0
H1230 H 0.13924 0.85069 0.12659 0.0
H1231 H 0.02925 0.7734 0.14971 0.0
H1232 H 0.07246 0.8988 0.16363 0.0
H1233 H 0.11224 0.95898 0.17817 0.0
H1234 H 0.07851 0.91184 0.23338 0.0
H1235 H 0.0389 0.85124 0.21919 0.0
C1236 C 0.86589 0.71946 0.17802 0.0
C1237 C 0.85852 0.70597 0.19661 0.0
C1238 C 0.90128 0.74567 0.17267 0.0
C1239 C 0.93005 0.75847 0.18574 0.0
C1240 C 0.92224 0.74738 0.20468 0.0
C1241 C 0.88668 0.72133 0.21009 0.0
C1242 C 0.96854 0.77948 0.17918 0.0
C1243 C 0.99219 0.81378 0.18715 0.0
C1244 C 0.98207 0.76507 0.16533 0.0
C1245 C 0.95921 0.72801 0.15723 0.0
C1246 C 0.94326 0.69703 0.169 0.0
C1247 C 0.92139 0.66223 0.16129 0.0
C1248 C 0.91556 0.65805 0.14181 0.0
C1249 C 0.9317 0.68864 0.12999 0.0
C1250 C 0.95353 0.72351 0.13763 0.0
C1251 C 0.1432 0.85137 0.17471 0.0
C1252 C 0.15509 0.85363 0.15595 0.0
C1253 C 0.1072 0.84224 0.17864 0.0
C1254 C 0.08242 0.83558 0.16391 0.0
C1255 C 0.09487 0.84009 0.14515 0.0
C1256 C 0.13092 0.84911 0.14119 0.0
C1257 C 0.04277 0.81913 0.16808 0.0
C1258 C 0.01877 0.78528 0.15979 0.0
C1259 C 0.02917 0.83393 0.18171 0.0
C1260 C 0.05284 0.87039 0.19033 0.0
C1261 C 0.0737 0.90119 0.17888 0.0
C1262 C 0.0962 0.9354 0.18706 0.0
C1263 C 0.09794 0.93922 0.20669 0.0
C1264 C 0.07713 0.90884 0.21818 0.0
C1265 C 0.0546 0.87456 0.21007 0.0
H1266 H 0.11539 0.96573 0.21299 0.0
H1267 H 0.89862 0.63109 0.13587 0.0
H1268 H 0.13641 0.82987 0.49642 0.0
H1269 H 0.15215 0.89143 0.48655 0.0
H1270 H 0.17989 0.92911 0.544 0.0
H1271 H 0.16337 0.86725 0.55408 0.0
H1272 H 0.15176 0.96644 0.52496 0.0
H1273 H 0.24465 0.93333 0.51534 0.0
H1274 H 0.26917 0.895 0.50331 0.0
H1275 H 0.24611 0.91261 0.44645 0.0
H1276 H 0.22094 0.95063 0.45819 0.0
H1277 H 0.30393 0.14534 0.51592 0.0
H1278 H 0.2571 0.0823 0.52227 0.0
H1279 H 0.23989 0.06169 0.46245 0.0
H1280 H 0.28716 0.12495 0.45594 0.0
H1281 H 0.25533 0.01435 0.47967 0.0
H1282 H 0.17198 0.05767 0.49049 0.0
H1283 H 0.15057 0.09757 0.50393 0.0
H1284 H 0.15912 0.06335 0.55988 0.0
H1285 H 0.18109 0.02363 0.5468 0.0
C1286 C 0.14491 0.85102 0.50705 0.0
C1287 C 0.14924 0.84389 0.52598 0.0
C1288 C 0.15393 0.8862 0.50138 0.0
C1289 C 0.168 0.91499 0.51447 0.0
C1290 C 0.16923 0.9073 0.53366 0.0
C1291 C 0.15983 0.87194 0.53939 0.0
C1292 C 0.1859 0.95345 0.50785 0.0
C1293 C 0.17445 0.97704 0.5151 0.0
C1294 C 0.21519 0.96708 0.49475 0.0
C1295 C 0.23051 0.94443 0.48765 0.0
C1296 C 0.24455 0.92879 0.50029 0.0
C1297 C 0.2586 0.90716 0.49352 0.0
C1298 C 0.25909 0.90128 0.47413 0.0
C1299 C 0.24563 0.91712 0.46147 0.0
C1300 C 0.23147 0.93871 0.46817 0.0
C1301 C 0.28965 0.12767 0.50409 0.0
C1302 C 0.29949 0.14005 0.48541 0.0
C1303 C 0.26266 0.09165 0.50776 0.0
C1304 C 0.24486 0.06728 0.49284 0.0
C1305 C 0.25324 0.08009 0.47417 0.0
C1306 C 0.28019 0.11625 0.47048 0.0
C1307 C 0.22135 0.02766 0.49679 0.0
C1308 C 0.23204 0.00376 0.48917 0.0
C1309 C 0.19178 0.01405 0.5097 0.0
C1310 C 0.17841 0.03781 0.51765 0.0
C1311 C 0.16956 0.05884 0.50567 0.0
C1312 C 0.15727 0.0814 0.51322 0.0
C1313 C 0.15354 0.08304 0.53275 0.0
C1314 C 0.16202 0.06206 0.54476 0.0
C1315 C 0.17434 0.03946 0.53727 0.0
H1316 H 0.14403 0.10053 0.53857 0.0
H1317 H 0.26999 0.88454 0.46892 0.0
H1318 H 0.17299 0.29528 0.79685 0.0
H1319 H 0.19217 0.25146 0.80602 0.0
H1320 H 0.17411 0.26584 0.86462 0.0
H1321 H 0.15604 0.31034 0.85558 0.0
H1322 H 0.23924 0.27556 0.86041 0.0
H1323 H 0.12043 0.18348 0.84028 0.0
H1324 H 0.06791 0.1528 0.81863 0.0
H1325 H 0.13547 0.13888 0.77794 0.0
H1326 H 0.18855 0.16994 0.79924 0.0
H1327 H 0.29916 0.15681 0.89205 0.0
H1328 H 0.25368 0.17531 0.88556 0.0
H1329 H 0.27459 0.17674 0.82585 0.0
H1330 H 0.31961 0.15791 0.83217 0.0
H1331 H 0.20214 0.15382 0.83297 0.0
H1332 H 0.32139 0.25312 0.85084 0.0
H1333 H 0.37497 0.2849 0.87176 0.0
H1334 H 0.30616 0.28604 0.91615 0.0
H1335 H 0.25207 0.25376 0.89555 0.0
C1336 C 0.17239 0.28849 0.81165 0.0
C1337 C 0.16334 0.30647 0.82551 0.0
C1338 C 0.18321 0.26331 0.81688 0.0
C1339 C 0.18452 0.25522 0.83604 0.0
C1340 C 0.1735 0.27172 0.84977 0.0
C1341 C 0.16314 0.29714 0.84458 0.0
C1342 C 0.20113 0.23292 0.84193 0.0
C1343 C 0.23043 0.24855 0.85472 0.0
C1344 C 0.19044 0.19809 0.83415 0.0
C1345 C 0.15855 0.17931 0.82131 0.0
C1346 C 0.12417 0.17413 0.82666 0.0
C1347 C 0.09428 0.15662 0.81446 0.0
C1348 C 0.09837 0.14397 0.7969 0.0
C1349 C 0.13235 0.14872 0.79153 0.0
C1350 C 0.16233 0.16623 0.80368 0.0
C1351 C 0.29338 0.16015 0.87752 0.0
C1352 C 0.31336 0.15643 0.86264 0.0
C1353 C 0.26746 0.1708 0.87383 0.0
C1354 C 0.26124 0.17799 0.85524 0.0
C1355 C 0.27902 0.17143 0.8403 0.0
C1356 C 0.30491 0.16084 0.84396 0.0
C1357 C 0.23991 0.19655 0.85142 0.0
C1358 C 0.21016 0.18046 0.83892 0.0
C1359 C 0.25016 0.23108 0.85939 0.0
C1360 C 0.28266 0.25065 0.87175 0.0
C1361 C 0.31767 0.2599 0.86511 0.0
C1362 C 0.34812 0.27803 0.8769 0.0
C1363 C 0.34395 0.28738 0.8953 0.0
C1364 C 0.30933 0.2787 0.90192 0.0
C1365 C 0.27877 0.26049 0.89019 0.0
H1366 H 0.36757 0.30143 0.9044 0.0
H1367 H 0.0752 0.13042 0.78748 0.0
loop_
_geom_bond_atom_site_label_1
_geom_bond_atom_site_label_2
_geom_bond_distance
_geom_bond_site_symmetry_2
_ccdc_geom_bond_type
O0 Cd1 2.223 . S
O0 C8 1.315 . S
Cd1 O0 2.223 . S
Cd1 O4 2.297 . S
Cd1 O5 2.439 . S
Cd1 O11 2.240 . S
Cd2 O3 2.240 . S
Cd2 O10 2.223 . S
Cd2 O12 2.297 . S
Cd2 O13 2.439 . S
O3 Cd2 2.240 . S
O3 C8 1.279 . S
O4 Cd1 2.297 . S
O4 C6 1.247 . S
O5 Cd1 2.439 . S
O5 C6 1.208 . S
C6 O4 1.247 . S
C6 O5 1.208 . S
C7 O12 1.247 . S
C7 O13 1.208 . S
C8 O0 1.315 . S
C8 O3 1.279 . S
C9 O10 1.315 . S
C9 O11 1.279 . S
O10 Cd2 2.223 . S
O10 C9 1.315 . S
O11 Cd1 2.240 . S
O11 C9 1.279 . S
O12 Cd2 2.297 . S
O12 C7 1.247 . S
O13 Cd2 2.439 . S
O13 C7 1.208 . S
O14 Cd15 2.223 . S
O14 C22 1.315 . S
Cd15 O14 2.223 . S
Cd15 O18 2.297 . S
Cd15 O19 2.439 . S
Cd15 O25 2.240 . S
Cd16 O17 2.240 . S
Cd16 O24 2.223 . S
Cd16 O26 2.297 . S
Cd16 O27 2.439 . S
O17 Cd16 2.240 . S
O17 C22 1.279 . S
O18 Cd15 2.297 . S
O18 C20 1.247 . S
O19 Cd15 2.439 . S
O19 C20 1.208 . S
C20 O18 1.247 . S
C20 O19 1.208 . S
C21 O26 1.247 . S
C21 O27 1.208 . S
C22 O14 1.315 . S
C22 O17 1.279 . S
C23 O24 1.315 . S
C23 O25 1.279 . S
O24 Cd16 2.223 . S
O24 C23 1.315 . S
O25 Cd15 2.240 . S
O25 C23 1.279 . S
O26 Cd16 2.297 . S
O26 C21 1.247 . S
O27 Cd16 2.439 . S
O27 C21 1.208 . S
O28 Cd29 2.223 . S
O28 C36 1.315 . S
Cd29 O28 2.223 . S
Cd29 O32 2.297 . S
Cd29 O33 2.439 . S
Cd29 O39 2.240 . S
Cd30 O31 2.240 . S
Cd30 O38 2.223 . S
Cd30 O40 2.297 . S
Cd30 O41 2.439 . S
O31 Cd30 2.240 . S
O31 C36 1.279 . S
O32 Cd29 2.297 . S
O32 C34 1.247 . S
O33 Cd29 2.439 . S
O33 C34 1.208 . S
C34 O32 1.247 . S
C34 O33 1.208 . S
C35 O40 1.247 . S
C35 O41 1.208 . S
C36 O28 1.315 . S
C36 O31 1.279 . S
C37 O38 1.315 . S
C37 O39 1.279 . S
O38 Cd30 2.223 . S
O38 C37 1.315 . S
O39 Cd29 2.240 . S
O39 C37 1.279 . S
O40 Cd30 2.297 . S
O40 C35 1.247 . S
O41 Cd30 2.439 . S
O41 C35 1.208 . S
O42 Cd43 2.223 . S
O42 C50 1.315 . S
Cd43 O42 2.223 . S
Cd43 O46 2.297 . S
Cd43 O47 2.439 . S
Cd43 O53 2.240 . S
Cd44 O45 2.240 . S
Cd44 O52 2.223 . S
Cd44 O54 2.297 . S
Cd44 O55 2.439 . S
O45 Cd44 2.240 . S
O45 C50 1.279 . S
O46 Cd43 2.297 . S
O46 C48 1.247 . S
O47 Cd43 2.439 . S
O47 C48 1.208 . S
C48 O46 1.247 . S
C48 O47 1.208 . S
C49 O54 1.247 . S
C49 O55 1.208 . S
C50 O42 1.315 . S
C50 O45 1.279 . S
C51 O52 1.315 . S
C51 O53 1.279 . S
O52 Cd44 2.223 . S
O52 C51 1.315 . S
O53 Cd43 2.240 . S
O53 C51 1.279 . S
O54 Cd44 2.297 . S
O54 C49 1.247 . S
O55 Cd44 2.439 . S
O55 C49 1.208 . S
O56 Cd57 2.223 . S
O56 C64 1.315 . S
Cd57 O56 2.223 . S
Cd57 O60 2.297 . S
Cd57 O61 2.439 . S
Cd57 O67 2.240 . S
Cd58 O59 2.240 . S
Cd58 O66 2.223 . S
Cd58 O68 2.297 . S
Cd58 O69 2.439 . S
O59 Cd58 2.240 . S
O59 C64 1.279 . S
O60 Cd57 2.297 . S
O60 C62 1.247 . S
O61 Cd57 2.439 . S
O61 C62 1.208 . S
C62 O60 1.247 . S
C62 O61 1.208 . S
C63 O68 1.247 . S
C63 O69 1.208 . S
C64 O56 1.315 . S
C64 O59 1.279 . S
C65 O66 1.315 . S
C65 O67 1.279 . S
O66 Cd58 2.223 . S
O66 C65 1.315 . S
O67 Cd57 2.240 . S
O67 C65 1.279 . S
O68 Cd58 2.297 . S
O68 C63 1.247 . S
O69 Cd58 2.439 . S
O69 C63 1.208 . S
O70 Cd71 2.223 . S
O70 C78 1.315 . S
Cd71 O70 2.223 . S
Cd71 O74 2.297 . S
Cd71 O75 2.439 . S
Cd71 O81 2.240 . S
Cd72 O73 2.240 . S
Cd72 O80 2.223 . S
Cd72 O82 2.297 . S
Cd72 O83 2.439 . S
O73 Cd72 2.240 . S
O73 C78 1.279 . S
O74 Cd71 2.297 . S
O74 C76 1.247 . S
O75 Cd71 2.439 . S
O75 C76 1.208 . S
C76 O74 1.247 . S
C76 O75 1.208 . S
C77 O82 1.247 . S
C77 O83 1.208 . S
C78 O70 1.315 . S
C78 O73 1.279 . S
C79 O80 1.315 . S
C79 O81 1.279 . S
O80 Cd72 2.223 . S
O80 C79 1.315 . S
O81 Cd71 2.240 . S
O81 C79 1.279 . S
O82 Cd72 2.297 . S
O82 C77 1.247 . S
O83 Cd72 2.439 . S
O83 C77 1.208 . S
O84 Cd85 2.223 . S
O84 C92 1.315 . S
Cd85 O84 2.223 . S
Cd85 O88 2.297 . S
Cd85 O89 2.439 . S
Cd85 O95 2.240 . S
Cd86 O87 2.240 . S
Cd86 O94 2.223 . S
Cd86 O96 2.297 . S
Cd86 O97 2.439 . S
O87 Cd86 2.240 . S
O87 C92 1.279 . S
O88 Cd85 2.297 . S
O88 C90 1.247 . S
O89 Cd85 2.439 . S
O89 C90 1.208 . S
C90 O88 1.247 . S
C90 O89 1.208 . S
C91 O96 1.247 . S
C91 O97 1.208 . S
C92 O84 1.315 . S
C92 O87 1.279 . S
C93 O94 1.315 . S
C93 O95 1.279 . S
O94 Cd86 2.223 . S
O94 C93 1.315 . S
O95 Cd85 2.240 . S
O95 C93 1.279 . S
O96 Cd86 2.297 . S
O96 C91 1.247 . S
O97 Cd86 2.439 . S
O97 C91 1.208 . S
O98 Cd99 2.223 . S
O98 C106 1.315 . S
Cd99 O98 2.223 . S
Cd99 O102 2.297 . S
Cd99 O103 2.439 . S
Cd99 O109 2.240 . S
Cd100 O101 2.240 . S
Cd100 O108 2.223 . S
Cd100 O110 2.297 . S
Cd100 O111 2.439 . S
O101 Cd100 2.240 . S
O101 C106 1.279 . S
O102 Cd99 2.297 . S
O102 C104 1.247 . S
O103 Cd99 2.439 . S
O103 C104 1.208 . S
C104 O102 1.247 . S
C104 O103 1.208 . S
C105 O110 1.247 . S
C105 O111 1.208 . S
C106 O98 1.315 . S
C106 O101 1.279 . S
C107 O108 1.315 . S
C107 O109 1.279 . S
O108 Cd100 2.223 . S
O108 C107 1.315 . S
O109 Cd99 2.240 . S
O109 C107 1.279 . S
O110 Cd100 2.297 . S
O110 C105 1.247 . S
O111 Cd100 2.439 . S
O111 C105 1.208 . S
O112 Cd113 2.223 . S
O112 C120 1.315 . S
Cd113 O112 2.223 . S
Cd113 O116 2.297 . S
Cd113 O117 2.439 . S
Cd113 O123 2.240 . S
Cd114 O115 2.240 . S
Cd114 O122 2.223 . S
Cd114 O124 2.297 . S
Cd114 O125 2.439 . S
O115 Cd114 2.240 . S
O115 C120 1.279 . S
O116 Cd113 2.297 . S
O116 C118 1.247 . S
O117 Cd113 2.439 . S
O117 C118 1.208 . S
C118 O116 1.247 . S
C118 O117 1.208 . S
C119 O124 1.247 . S
C119 O125 1.208 . S
C120 O112 1.315 . S
C120 O115 1.279 . S
C121 O122 1.315 . S
C121 O123 1.279 . S
O122 Cd114 2.223 . S
O122 C121 1.315 . S
O123 Cd113 2.240 . S
O123 C121 1.279 . S
O124 Cd114 2.297 . S
O124 C119 1.247 . S
O125 Cd114 2.439 . S
O125 C119 1.208 . S
O126 Cd127 2.223 . S
O126 C134 1.315 . S
Cd127 O126 2.223 . S
Cd127 O130 2.297 . S
Cd127 O131 2.439 . S
Cd127 O137 2.240 . S
Cd128 O129 2.240 . S
Cd128 O136 2.223 . S
Cd128 O138 2.297 . S
Cd128 O139 2.439 . S
O129 Cd128 2.240 . S
O129 C134 1.279 . S
O130 Cd127 2.297 . S
O130 C132 1.247 . S
O131 Cd127 2.439 . S
O131 C132 1.208 . S
C132 O130 1.247 . S
C132 O131 1.208 . S
C133 O138 1.247 . S
C133 O139 1.208 . S
C134 O126 1.315 . S
C134 O129 1.279 . S
C135 O136 1.315 . S
C135 O137 1.279 . S
O136 Cd128 2.223 . S
O136 C135 1.315 . S
O137 Cd127 2.240 . S
O137 C135 1.279 . S
O138 Cd128 2.297 . S
O138 C133 1.247 . S
O139 Cd128 2.439 . S
O139 C133 1.208 . S
O140 Cd141 2.223 . S
O140 C148 1.315 . S
Cd141 O140 2.223 . S
Cd141 O144 2.297 . S
Cd141 O145 2.439 . S
Cd141 O151 2.240 . S
Cd142 O143 2.240 . S
Cd142 O150 2.223 . S
Cd142 O152 2.297 . S
Cd142 O153 2.439 . S
O143 Cd142 2.240 . S
O143 C148 1.279 . S
O144 Cd141 2.297 . S
O144 C146 1.247 . S
O145 Cd141 2.439 . S
O145 C146 1.208 . S
C146 O144 1.247 . S
C146 O145 1.208 . S
C147 O152 1.247 . S
C147 O153 1.208 . S
C148 O140 1.315 . S
C148 O143 1.279 . S
C149 O150 1.315 . S
C149 O151 1.279 . S
O150 Cd142 2.223 . S
O150 C149 1.315 . S
O151 Cd141 2.240 . S
O151 C149 1.279 . S
O152 Cd142 2.297 . S
O152 C147 1.247 . S
O153 Cd142 2.439 . S
O153 C147 1.208 . S
O154 Cd155 2.223 . S
O154 C162 1.315 . S
Cd155 O154 2.223 . S
Cd155 O158 2.297 . S
Cd155 O159 2.439 . S
Cd155 O165 2.240 . S
Cd156 O157 2.240 . S
Cd156 O164 2.223 . S
Cd156 O166 2.297 . S
Cd156 O167 2.439 . S
O157 Cd156 2.240 . S
O157 C162 1.279 . S
O158 Cd155 2.297 . S
O158 C160 1.247 . S
O159 Cd155 2.439 . S
O159 C160 1.208 . S
C160 O158 1.247 . S
C160 O159 1.208 . S
C161 O166 1.247 . S
C161 O167 1.208 . S
C162 O154 1.315 . S
C162 O157 1.279 . S
C163 O164 1.315 . S
C163 O165 1.279 . S
O164 Cd156 2.223 . S
O164 C163 1.315 . S
O165 Cd155 2.240 . S
O165 C163 1.279 . S
O166 Cd156 2.297 . S
O166 C161 1.247 . S
O167 Cd156 2.439 . S
O167 C161 1.208 . S
H168 C186 0.951 . S
H169 C188 0.951 . S
H170 C190 0.950 . S
H171 C191 0.950 . S
H172 C193 0.950 . S
H173 C196 0.950 . S
H174 C197 0.950 . S
H175 C199 0.950 . S
H176 C200 0.950 . S
H177 C201 0.951 . S
H178 C203 0.951 . S
H179 C205 0.950 . S
H180 C206 0.950 . S
H181 C208 0.950 . S
H182 C211 0.950 . S
H183 C212 0.950 . S
H184 C214 0.950 . S
H185 C215 0.950 . S
C186 H168 0.951 . S
C186 C187 1.366 . S
C186 C188 1.388 . S
C187 C186 1.366 . S
C187 C191 1.385 . S
C188 H169 0.951 . S
C188 C186 1.388 . S
C188 C189 1.366 . S
C189 C188 1.366 . S
C189 C190 1.414 . S
C189 C192 1.499 . S
C190 H170 0.950 . S
C190 C189 1.414 . S
C190 C191 1.374 . S
C191 H171 0.950 . S
C191 C187 1.385 . S
C191 C190 1.374 . S
C192 C189 1.499 . S
C192 C193 1.373 . S
C192 C194 1.389 . S
C193 H172 0.950 . S
C193 C192 1.373 . S
C193 C209 1.377 . S
C194 C192 1.389 . S
C194 C195 1.524 . S
C194 C208 1.377 . S
C195 C194 1.524 . S
C195 C196 1.397 . S
C195 C200 1.363 . S
C196 H173 0.950 . S
C196 C195 1.397 . S
C196 C197 1.334 . S
C197 H174 0.950 . S
C197 C196 1.334 . S
C197 C198 1.287 . S
C198 C197 1.287 . S
C198 C199 1.524 . S
C198 H217 0.913 . S
C199 H175 0.950 . S
C199 C198 1.524 . S
C199 C200 1.415 . S
C200 H176 0.950 . S
C200 C195 1.363 . S
C200 C199 1.415 . S
C201 H177 0.951 . S
C201 C202 1.366 . S
C201 C203 1.388 . S
C202 C201 1.366 . S
C202 C206 1.385 . S
C203 H178 0.951 . S
C203 C201 1.388 . S
C203 C204 1.366 . S
C204 C203 1.366 . S
C204 C205 1.414 . S
C204 C207 1.499 . S
C205 H179 0.950 . S
C205 C204 1.414 . S
C205 C206 1.374 . S
C206 H180 0.950 . S
C206 C202 1.385 . S
C206 C205 1.374 . S
C207 C204 1.499 . S
C207 C208 1.373 . S
C207 C209 1.389 . S
C208 H181 0.950 . S
C208 C194 1.377 . S
C208 C207 1.373 . S
C209 C193 1.377 . S
C209 C207 1.389 . S
C209 C210 1.524 . S
C210 C209 1.524 . S
C210 C211 1.397 . S
C210 C215 1.363 . S
C211 H182 0.950 . S
C211 C210 1.397 . S
C211 C212 1.334 . S
C212 H183 0.950 . S
C212 C211 1.334 . S
C212 C213 1.287 . S
C213 C212 1.287 . S
C213 C214 1.524 . S
C213 H216 0.999 . S
C214 H184 0.950 . S
C214 C213 1.524 . S
C214 C215 1.415 . S
C215 H185 0.950 . S
C215 C210 1.363 . S
C215 C214 1.415 . S
H216 C213 0.999 . S
H217 C198 0.913 . S
H218 C236 0.951 . S
H219 C238 0.951 . S
H220 C240 0.950 . S
H221 C241 0.950 . S
H222 C243 0.950 . S
H223 C246 0.950 . S
H224 C247 0.950 . S
H225 C249 0.950 . S
H226 C250 0.950 . S
H227 C251 0.951 . S
H228 C253 0.951 . S
H229 C255 0.950 . S
H230 C256 0.950 . S
H231 C258 0.950 . S
H232 C261 0.950 . S
H233 C262 0.950 . S
H234 C264 0.950 . S
H235 C265 0.950 . S
C236 H218 0.951 . S
C236 C237 1.366 . S
C236 C238 1.388 . S
C237 C236 1.366 . S
C237 C241 1.385 . S
C238 H219 0.951 . S
C238 C236 1.388 . S
C238 C239 1.366 . S
C239 C238 1.366 . S
C239 C240 1.414 . S
C239 C242 1.499 . S
C240 H220 0.950 . S
C240 C239 1.414 . S
C240 C241 1.374 . S
C241 H221 0.950 . S
C241 C237 1.385 . S
C241 C240 1.374 . S
C242 C239 1.499 . S
C242 C243 1.373 . S
C242 C244 1.389 . S
C243 H222 0.950 . S
C243 C242 1.373 . S
C243 C259 1.377 . S
C244 C242 1.389 . S
C244 C245 1.524 . S
C244 C258 1.377 . S
C245 C244 1.524 . S
C245 C246 1.397 . S
C245 C250 1.363 . S
C246 H223 0.950 . S
C246 C245 1.397 . S
C246 C247 1.334 . S
C247 H224 0.950 . S
C247 C246 1.334 . S
C247 C248 1.287 . S
C248 C247 1.287 . S
C248 C249 1.524 . S
C248 H267 0.913 . S
C249 H225 0.950 . S
C249 C248 1.524 . S
C249 C250 1.415 . S
C250 H226 0.950 . S
C250 C245 1.363 . S
C250 C249 1.415 . S
C251 H227 0.951 . S
C251 C252 1.366 . S
C251 C253 1.388 . S
C252 C251 1.366 . S
C252 C256 1.385 . S
C253 H228 0.951 . S
C253 C251 1.388 . S
C253 C254 1.366 . S
C254 C253 1.366 . S
C254 C255 1.414 . S
C254 C257 1.499 . S
C255 H229 0.950 . S
C255 C254 1.414 . S
C255 C256 1.374 . S
C256 H230 0.950 . S
C256 C252 1.385 . S
C256 C255 1.374 . S
C257 C254 1.499 . S
C257 C258 1.373 . S
C257 C259 1.389 . S
C258 H231 0.950 . S
C258 C244 1.377 . S
C258 C257 1.373 . S
C259 C243 1.377 . S
C259 C257 1.389 . S
C259 C260 1.524 . S
C260 C259 1.524 . S
C260 C261 1.397 . S
C260 C265 1.363 . S
C261 H232 0.950 . S
C261 C260 1.397 . S
C261 C262 1.334 . S
C262 H233 0.950 . S
C262 C261 1.334 . S
C262 C263 1.287 . S
C263 C262 1.287 . S
C263 C264 1.524 . S
C263 H266 0.999 . S
C264 H234 0.950 . S
C264 C263 1.524 . S
C264 C265 1.415 . S
C265 H235 0.950 . S
C265 C260 1.363 . S
C265 C264 1.415 . S
H266 C263 0.999 . S
H267 C248 0.913 . S
H268 C286 0.951 . S
H269 C288 0.951 . S
H270 C290 0.950 . S
H271 C291 0.950 . S
H272 C293 0.950 . S
H273 C296 0.950 . S
H274 C297 0.950 . S
H275 C299 0.950 . S
H276 C300 0.950 . S
H277 C301 0.951 . S
H278 C303 0.951 . S
H279 C305 0.950 . S
H280 C306 0.950 . S
H281 C308 0.950 . S
H282 C311 0.950 . S
H283 C312 0.950 . S
H284 C314 0.950 . S
H285 C315 0.950 . S
C286 H268 0.951 . S
C286 C287 1.366 . S
C286 C288 1.388 . S
C287 C286 1.366 . S
C287 C291 1.385 . S
C288 H269 0.951 . S
C288 C286 1.388 . S
C288 C289 1.366 . S
C289 C288 1.366 . S
C289 C290 1.414 . S
C289 C292 1.499 . S
C290 H270 0.950 . S
C290 C289 1.414 . S
C290 C291 1.374 . S
C291 H271 0.950 . S
C291 C287 1.385 . S
C291 C290 1.374 . S
C292 C289 1.499 . S
C292 C293 1.373 . S
C292 C294 1.389 . S
C293 H272 0.950 . S
C293 C292 1.373 . S
C293 C309 1.377 . S
C294 C292 1.389 . S
C294 C295 1.524 . S
C294 C308 1.377 . S
C295 C294 1.524 . S
C295 C296 1.397 . S
C295 C300 1.363 . S
C296 H273 0.950 . S
C296 C295 1.397 . S
C296 C297 1.334 . S
C297 H274 0.950 . S
C297 C296 1.334 . S
C297 C298 1.287 . S
C298 C297 1.287 . S
C298 C299 1.524 . S
C298 H317 0.913 . S
C299 H275 0.950 . S
C299 C298 1.524 . S
C299 C300 1.415 . S
C300 H276 0.950 . S
C300 C295 1.363 . S
C300 C299 1.415 . S
C301 H277 0.951 . S
C301 C302 1.366 . S
C301 C303 1.388 . S
C302 C301 1.366 . S
C302 C306 1.385 . S
C303 H278 0.951 . S
C303 C301 1.388 . S
C303 C304 1.366 . S
C304 C303 1.366 . S
C304 C305 1.414 . S
C304 C307 1.499 . S
C305 H279 0.950 . S
C305 C304 1.414 . S
C305 C306 1.374 . S
C306 H280 0.950 . S
C306 C302 1.385 . S
C306 C305 1.374 . S
C307 C304 1.499 . S
C307 C308 1.373 . S
C307 C309 1.389 . S
C308 H281 0.950 . S
C308 C294 1.377 . S
C308 C307 1.373 . S
C309 C293 1.377 . S
C309 C307 1.389 . S
C309 C310 1.524 . S
C310 C309 1.524 . S
C310 C311 1.397 . S
C310 C315 1.363 . S
C311 H282 0.950 . S
C311 C310 1.397 . S
C311 C312 1.334 . S
C312 H283 0.950 . S
C312 C311 1.334 . S
C312 C313 1.287 . S
C313 C312 1.287 . S
C313 C314 1.524 . S
C313 H316 0.999 . S
C314 H284 0.950 . S
C314 C313 1.524 . S
C314 C315 1.415 . S
C315 H285 0.950 . S
C315 C310 1.363 . S
C315 C314 1.415 . S
H316 C313 0.999 . S
H317 C298 0.913 . S
H318 C336 0.951 . S
H319 C338 0.951 . S
H320 C340 0.950 . S
H321 C341 0.950 . S
H322 C343 0.950 . S
H323 C346 0.950 . S
H324 C347 0.950 . S
H325 C349 0.950 . S
H326 C350 0.950 . S
H327 C351 0.951 . S
H328 C353 0.951 . S
H329 C355 0.950 . S
H330 C356 0.950 . S
H331 C358 0.950 . S
H332 C361 0.950 . S
H333 C362 0.950 . S
H334 C364 0.950 . S
H335 C365 0.950 . S
C336 H318 0.951 . S
C336 C337 1.366 . S
C336 C338 1.388 . S
C337 C336 1.366 . S
C337 C341 1.385 . S
C338 H319 0.951 . S
C338 C336 1.388 . S
C338 C339 1.366 . S
C339 C338 1.366 . S
C339 C340 1.414 . S
C339 C342 1.499 . S
C340 H320 0.950 . S
C340 C339 1.414 . S
C340 C341 1.374 . S
C341 H321 0.950 . S
C341 C337 1.385 . S
C341 C340 1.374 . S
C342 C339 1.499 . S
C342 C343 1.373 . S
C342 C344 1.389 . S
C343 H322 0.950 . S
C343 C342 1.373 . S
C343 C359 1.377 . S
C344 C342 1.389 . S
C344 C345 1.524 . S
C344 C358 1.377 . S
C345 C344 1.524 . S
C345 C346 1.397 . S
C345 C350 1.363 . S
C346 H323 0.950 . S
C346 C345 1.397 . S
C346 C347 1.334 . S
C347 H324 0.950 . S
C347 C346 1.334 . S
C347 C348 1.287 . S
C348 C347 1.287 . S
C348 C349 1.524 . S
C348 H367 0.913 . S
C349 H325 0.950 . S
C349 C348 1.524 . S
C349 C350 1.415 . S
C350 H326 0.950 . S
C350 C345 1.363 . S
C350 C349 1.415 . S
C351 H327 0.951 . S
C351 C352 1.366 . S
C351 C353 1.388 . S
C352 C351 1.366 . S
C352 C356 1.385 . S
C353 H328 0.951 . S
C353 C351 1.388 . S
C353 C354 1.366 . S
C354 C353 1.366 . S
C354 C355 1.414 . S
C354 C357 1.499 . S
C355 H329 0.950 . S
C355 C354 1.414 . S
C355 C356 1.374 . S
C356 H330 0.950 . S
C356 C352 1.385 . S
C356 C355 1.374 . S
C357 C354 1.499 . S
C357 C358 1.373 . S
C357 C359 1.389 . S
C358 H331 0.950 . S
C358 C344 1.377 . S
C358 C357 1.373 . S
C359 C343 1.377 . S
C359 C357 1.389 . S
C359 C360 1.524 . S
C360 C359 1.524 . S
C360 C361 1.397 . S
C360 C365 1.363 . S
C361 H332 0.950 . S
C361 C360 1.397 . S
C361 C362 1.334 . S
C362 H333 0.950 . S
C362 C361 1.334 . S
C362 C363 1.287 . S
C363 C362 1.287 . S
C363 C364 1.524 . S
C363 H366 0.999 . S
C364 H334 0.950 . S
C364 C363 1.524 . S
C364 C365 1.415 . S
C365 H335 0.950 . S
C365 C360 1.363 . S
C365 C364 1.415 . S
H366 C363 0.999 . S
H367 C348 0.913 . S
H368 C386 0.951 . S
H369 C388 0.951 . S
H370 C390 0.950 . S
H371 C391 0.950 . S
H372 C393 0.950 . S
H373 C396 0.950 . S
H374 C397 0.950 . S
H375 C399 0.950 . S
H376 C400 0.950 . S
H377 C401 0.951 . S
H378 C403 0.951 . S
H379 C405 0.950 . S
H380 C406 0.950 . S
H381 C408 0.950 . S
H382 C411 0.950 . S
H383 C412 0.950 . S
H384 C414 0.950 . S
H385 C415 0.950 . S
C386 H368 0.951 . S
C386 C387 1.366 . S
C386 C388 1.388 . S
C387 C386 1.366 . S
C387 C391 1.385 . S
C388 H369 0.951 . S
C388 C386 1.388 . S
C388 C389 1.366 . S
C389 C388 1.366 . S
C389 C390 1.414 . S
C389 C392 1.499 . S
C390 H370 0.950 . S
C390 C389 1.414 . S
C390 C391 1.374 . S
C391 H371 0.950 . S
C391 C387 1.385 . S
C391 C390 1.374 . S
C392 C389 1.499 . S
C392 C393 1.373 . S
C392 C394 1.389 . S
C393 H372 0.950 . S
C393 C392 1.373 . S
C393 C409 1.377 . S
C394 C392 1.389 . S
C394 C395 1.524 . S
C394 C408 1.377 . S
C395 C394 1.524 . S
C395 C396 1.397 . S
C395 C400 1.363 . S
C396 H373 0.950 . S
C396 C395 1.397 . S
C396 C397 1.334 . S
C397 H374 0.950 . S
C397 C396 1.334 . S
C397 C398 1.287 . S
C398 C397 1.287 . S
C398 C399 1.524 . S
C398 H417 0.913 . S
C399 H375 0.950 . S
C399 C398 1.524 . S
C399 C400 1.415 . S
C400 H376 0.950 . S
C400 C395 1.363 . S
C400 C399 1.415 . S
C401 H377 0.951 . S
C401 C402 1.366 . S
C401 C403 1.388 . S
C402 C401 1.366 . S
C402 C406 1.385 . S
C403 H378 0.951 . S
C403 C401 1.388 . S
C403 C404 1.366 . S
C404 C403 1.366 . S
C404 C405 1.414 . S
C404 C407 1.499 . S
C405 H379 0.950 . S
C405 C404 1.414 . S
C405 C406 1.374 . S
C406 H380 0.950 . S
C406 C402 1.385 . S
C406 C405 1.374 . S
C407 C404 1.499 . S
C407 C408 1.373 . S
C407 C409 1.389 . S
C408 H381 0.950 . S
C408 C394 1.377 . S
C408 C407 1.373 . S
C409 C393 1.377 . S
C409 C407 1.389 . S
C409 C410 1.524 . S
C410 C409 1.524 . S
C410 C411 1.397 . S
C410 C415 1.363 . S
C411 H382 0.950 . S
C411 C410 1.397 . S
C411 C412 1.334 . S
C412 H383 0.950 . S
C412 C411 1.334 . S
C412 C413 1.287 . S
C413 C412 1.287 . S
C413 C414 1.524 . S
C413 H416 0.999 . S
C414 H384 0.950 . S
C414 C413 1.524 . S
C414 C415 1.415 . S
C415 H385 0.950 . S
C415 C410 1.363 . S
C415 C414 1.415 . S
H416 C413 0.999 . S
H417 C398 0.913 . S
H418 C436 0.951 . S
H419 C438 0.951 . S
H420 C440 0.950 . S
H421 C441 0.950 . S
H422 C443 0.950 . S
H423 C446 0.950 . S
H424 C447 0.950 . S
H425 C449 0.950 . S
H426 C450 0.950 . S
H427 C451 0.951 . S
H428 C453 0.951 . S
H429 C455 0.950 . S
H430 C456 0.950 . S
H431 C458 0.950 . S
H432 C461 0.950 . S
H433 C462 0.950 . S
H434 C464 0.950 . S
H435 C465 0.950 . S
C436 H418 0.951 . S
C436 C437 1.366 . S
C436 C438 1.388 . S
C437 C436 1.366 . S
C437 C441 1.385 . S
C438 H419 0.951 . S
C438 C436 1.388 . S
C438 C439 1.366 . S
C439 C438 1.366 . S
C439 C440 1.414 . S
C439 C442 1.499 . S
C440 H420 0.950 . S
C440 C439 1.414 . S
C440 C441 1.374 . S
C441 H421 0.950 . S
C441 C437 1.385 . S
C441 C440 1.374 . S
C442 C439 1.499 . S
C442 C443 1.373 . S
C442 C444 1.389 . S
C443 H422 0.950 . S
C443 C442 1.373 . S
C443 C459 1.377 . S
C444 C442 1.389 . S
C444 C445 1.524 . S
C444 C458 1.377 . S
C445 C444 1.524 . S
C445 C446 1.397 . S
C445 C450 1.363 . S
C446 H423 0.950 . S
C446 C445 1.397 . S
C446 C447 1.334 . S
C447 H424 0.950 . S
C447 C446 1.334 . S
C447 C448 1.287 . S
C448 C447 1.287 . S
C448 C449 1.524 . S
C448 H467 0.913 . S
C449 H425 0.950 . S
C449 C448 1.524 . S
C449 C450 1.415 . S
C450 H426 0.950 . S
C450 C445 1.363 . S
C450 C449 1.415 . S
C451 H427 0.951 . S
C451 C452 1.366 . S
C451 C453 1.388 . S
C452 C451 1.366 . S
C452 C456 1.385 . S
C453 H428 0.951 . S
C453 C451 1.388 . S
C453 C454 1.366 . S
C454 C453 1.366 . S
C454 C455 1.414 . S
C454 C457 1.499 . S
C455 H429 0.950 . S
C455 C454 1.414 . S
C455 C456 1.374 . S
C456 H430 0.950 . S
C456 C452 1.385 . S
C456 C455 1.374 . S
C457 C454 1.499 . S
C457 C458 1.373 . S
C457 C459 1.389 . S
C458 H431 0.950 . S
C458 C444 1.377 . S
C458 C457 1.373 . S
C459 C443 1.377 . S
C459 C457 1.389 . S
C459 C460 1.524 . S
C460 C459 1.524 . S
C460 C461 1.397 . S
C460 C465 1.363 . S
C461 H432 0.950 . S
C461 C460 1.397 . S
C461 C462 1.334 . S
C462 H433 0.950 . S
C462 C461 1.334 . S
C462 C463 1.287 . S
C463 C462 1.287 . S
C463 C464 1.524 . S
C463 H466 0.999 . S
C464 H434 0.950 . S
C464 C463 1.524 . S
C464 C465 1.415 . S
C465 H435 0.950 . S
C465 C460 1.363 . S
C465 C464 1.415 . S
H466 C463 0.999 . S
H467 C448 0.913 . S
H468 C486 0.951 . S
H469 C488 0.951 . S
H470 C490 0.950 . S
H471 C491 0.950 . S
H472 C493 0.950 . S
H473 C496 0.950 . S
H474 C497 0.950 . S
H475 C499 0.950 . S
H476 C500 0.950 . S
H477 C501 0.951 . S
H478 C503 0.951 . S
H479 C505 0.950 . S
H480 C506 0.950 . S
H481 C508 0.950 . S
H482 C511 0.950 . S
H483 C512 0.950 . S
H484 C514 0.950 . S
H485 C515 0.950 . S
C486 H468 0.951 . S
C486 C487 1.366 . S
C486 C488 1.388 . S
C487 C486 1.366 . S
C487 C491 1.385 . S
C488 H469 0.951 . S
C488 C486 1.388 . S
C488 C489 1.366 . S
C489 C488 1.366 . S
C489 C490 1.414 . S
C489 C492 1.499 . S
C490 H470 0.950 . S
C490 C489 1.414 . S
C490 C491 1.374 . S
C491 H471 0.950 . S
C491 C487 1.385 . S
C491 C490 1.374 . S
C492 C489 1.499 . S
C492 C493 1.373 . S
C492 C494 1.389 . S
C493 H472 0.950 . S
C493 C492 1.373 . S
C493 C509 1.377 . S
C494 C492 1.389 . S
C494 C495 1.524 . S
C494 C508 1.377 . S
C495 C494 1.524 . S
C495 C496 1.397 . S
C495 C500 1.363 . S
C496 H473 0.950 . S
C496 C495 1.397 . S
C496 C497 1.334 . S
C497 H474 0.950 . S
C497 C496 1.334 . S
C497 C498 1.287 . S
C498 C497 1.287 . S
C498 C499 1.524 . S
C498 H517 0.913 . S
C499 H475 0.950 . S
C499 C498 1.524 . S
C499 C500 1.415 . S
C500 H476 0.950 . S
C500 C495 1.363 . S
C500 C499 1.415 . S
C501 H477 0.951 . S
C501 C502 1.366 . S
C501 C503 1.388 . S
C502 C501 1.366 . S
C502 C506 1.385 . S
C503 H478 0.951 . S
C503 C501 1.388 . S
C503 C504 1.366 . S
C504 C503 1.366 . S
C504 C505 1.414 . S
C504 C507 1.499 . S
C505 H479 0.950 . S
C505 C504 1.414 . S
C505 C506 1.374 . S
C506 H480 0.950 . S
C506 C502 1.385 . S
C506 C505 1.374 . S
C507 C504 1.499 . S
C507 C508 1.373 . S
C507 C509 1.389 . S
C508 H481 0.950 . S
C508 C494 1.377 . S
C508 C507 1.373 . S
C509 C493 1.377 . S
C509 C507 1.389 . S
C509 C510 1.524 . S
C510 C509 1.524 . S
C510 C511 1.397 . S
C510 C515 1.363 . S
C511 H482 0.950 . S
C511 C510 1.397 . S
C511 C512 1.334 . S
C512 H483 0.950 . S
C512 C511 1.334 . S
C512 C513 1.287 . S
C513 C512 1.287 . S
C513 C514 1.524 . S
C513 H516 0.999 . S
C514 H484 0.950 . S
C514 C513 1.524 . S
C514 C515 1.415 . S
C515 H485 0.950 . S
C515 C510 1.363 . S
C515 C514 1.415 . S
H516 C513 0.999 . S
H517 C498 0.913 . S
H518 C536 0.951 . S
H519 C538 0.951 . S
H520 C540 0.950 . S
H521 C541 0.950 . S
H522 C543 0.950 . S
H523 C546 0.950 . S
H524 C547 0.950 . S
H525 C549 0.950 . S
H526 C550 0.950 . S
H527 C551 0.951 . S
H528 C553 0.951 . S
H529 C555 0.950 . S
H530 C556 0.950 . S
H531 C558 0.950 . S
H532 C561 0.950 . S
H533 C562 0.950 . S
H534 C564 0.950 . S
H535 C565 0.950 . S
C536 H518 0.951 . S
C536 C537 1.366 . S
C536 C538 1.388 . S
C537 C536 1.366 . S
C537 C541 1.385 . S
C538 H519 0.951 . S
C538 C536 1.388 . S
C538 C539 1.366 . S
C539 C538 1.366 . S
C539 C540 1.414 . S
C539 C542 1.499 . S
C540 H520 0.950 . S
C540 C539 1.414 . S
C540 C541 1.374 . S
C541 H521 0.950 . S
C541 C537 1.385 . S
C541 C540 1.374 . S
C542 C539 1.499 . S
C542 C543 1.373 . S
C542 C544 1.389 1_455 S
C543 H522 0.950 . S
C543 C542 1.373 . S
C543 C559 1.377 . S
C544 C542 1.389 1_655 S
C544 C545 1.524 . S
C544 C558 1.377 . S
C545 C544 1.524 . S
C545 C546 1.397 . S
C545 C550 1.363 . S
C546 H523 0.950 . S
C546 C545 1.397 . S
C546 C547 1.334 . S
C547 H524 0.950 . S
C547 C546 1.334 . S
C547 C548 1.287 . S
C548 C547 1.287 . S
C548 C549 1.524 . S
C548 H567 0.913 . S
C549 H525 0.950 . S
C549 C548 1.524 . S
C549 C550 1.415 . S
C550 H526 0.950 . S
C550 C545 1.363 . S
C550 C549 1.415 . S
C551 H527 0.951 . S
C551 C552 1.366 . S
C551 C553 1.388 . S
C552 C551 1.366 . S
C552 C556 1.385 . S
C553 H528 0.951 . S
C553 C551 1.388 . S
C553 C554 1.366 . S
C554 C553 1.366 . S
C554 C555 1.414 . S
C554 C557 1.499 . S
C555 H529 0.950 . S
C555 C554 1.414 . S
C555 C556 1.374 . S
C556 H530 0.950 . S
C556 C552 1.385 . S
C556 C555 1.374 . S
C557 C554 1.499 . S
C557 C558 1.373 . S
C557 C559 1.389 1_655 S
C558 H531 0.950 . S
C558 C544 1.377 . S
C558 C557 1.373 . S
C559 C543 1.377 . S
C559 C557 1.389 1_455 S
C559 C560 1.524 . S
C560 C559 1.524 . S
C560 C561 1.397 . S
C560 C565 1.363 . S
C561 H532 0.950 . S
C561 C560 1.397 . S
C561 C562 1.334 . S
C562 H533 0.950 . S
C562 C561 1.334 . S
C562 C563 1.287 . S
C563 C562 1.287 . S
C563 C564 1.524 . S
C563 H566 0.999 . S
C564 H534 0.950 . S
C564 C563 1.524 . S
C564 C565 1.415 . S
C565 H535 0.950 . S
C565 C560 1.363 . S
C565 C564 1.415 . S
H566 C563 0.999 . S
H567 C548 0.913 . S
H568 C586 0.951 . S
H569 C588 0.951 . S
H570 C590 0.950 . S
H571 C591 0.950 . S
H572 C593 0.950 . S
H573 C596 0.950 . S
H574 C597 0.950 . S
H575 C599 0.950 . S
H576 C600 0.950 . S
H577 C601 0.951 . S
H578 C603 0.951 . S
H579 C605 0.950 . S
H580 C606 0.950 . S
H581 C608 0.950 . S
H582 C611 0.950 . S
H583 C612 0.950 . S
H584 C614 0.950 . S
H585 C615 0.950 . S
C586 H568 0.951 . S
C586 C587 1.366 . S
C586 C588 1.388 . S
C587 C586 1.366 . S
C587 C591 1.385 . S
C588 H569 0.951 . S
C588 C586 1.388 . S
C588 C589 1.366 . S
C589 C588 1.366 . S
C589 C590 1.414 . S
C589 C592 1.499 . S
C590 H570 0.950 . S
C590 C589 1.414 . S
C590 C591 1.374 . S
C591 H571 0.950 . S
C591 C587 1.385 . S
C591 C590 1.374 . S
C592 C589 1.499 . S
C592 C593 1.373 . S
C592 C594 1.389 1_545 S
C593 H572 0.950 . S
C593 C592 1.373 . S
C593 C609 1.377 . S
C594 C592 1.389 1_565 S
C594 C595 1.524 . S
C594 C608 1.377 . S
C595 C594 1.524 . S
C595 C596 1.397 . S
C595 C600 1.363 . S
C596 H573 0.950 . S
C596 C595 1.397 . S
C596 C597 1.334 . S
C597 H574 0.950 . S
C597 C596 1.334 . S
C597 C598 1.287 . S
C598 C597 1.287 . S
C598 C599 1.524 . S
C598 H617 0.913 . S
C599 H575 0.950 . S
C599 C598 1.524 . S
C599 C600 1.415 . S
C600 H576 0.950 . S
C600 C595 1.363 . S
C600 C599 1.415 . S
C601 H577 0.951 . S
C601 C602 1.366 . S
C601 C603 1.388 . S
C602 C601 1.366 . S
C602 C606 1.385 . S
C603 H578 0.951 . S
C603 C601 1.388 . S
C603 C604 1.366 . S
C604 C603 1.366 . S
C604 C605 1.414 . S
C604 C607 1.499 . S
C605 H579 0.950 . S
C605 C604 1.414 . S
C605 C606 1.374 . S
C606 H580 0.950 . S
C606 C602 1.385 . S
C606 C605 1.374 . S
C607 C604 1.499 . S
C607 C608 1.373 . S
C607 C609 1.389 1_565 S
C608 H581 0.950 . S
C608 C594 1.377 . S
C608 C607 1.373 . S
C609 C593 1.377 . S
C609 C607 1.389 1_545 S
C609 C610 1.524 . S
C610 C609 1.524 . S
C610 C611 1.397 . S
C610 C615 1.363 . S
C611 H582 0.950 . S
C611 C610 1.397 . S
C611 C612 1.334 . S
C612 H583 0.950 . S
C612 C611 1.334 . S
C612 C613 1.287 . S
C613 C612 1.287 . S
C613 C614 1.524 . S
C613 H616 0.999 . S
C614 H584 0.950 . S
C614 C613 1.524 . S
C614 C615 1.415 . S
C615 H585 0.950 . S
C615 C610 1.363 . S
C615 C614 1.415 . S
H616 C613 0.999 . S
H617 C598 0.913 . S
H618 C636 0.951 . S
H619 C638 0.951 . S
H620 C640 0.950 . S
H621 C641 0.950 . S
H622 C643 0.950 . S
H623 C646 0.950 . S
H624 C647 0.950 . S
H625 C649 0.950 . S
H626 C650 0.950 . S
H627 C651 0.951 . S
H628 C653 0.951 . S
H629 C655 0.950 . S
H630 C656 0.950 . S
H631 C658 0.950 . S
H632 C661 0.950 . S
H633 C662 0.950 . S
H634 C664 0.950 . S
H635 C665 0.950 . S
C636 H618 0.951 . S
C636 C637 1.366 . S
C636 C638 1.388 . S
C637 C636 1.366 . S
C637 C641 1.385 . S
C638 H619 0.951 . S
C638 C636 1.388 . S
C638 C639 1.366 . S
C639 C638 1.366 . S
C639 C640 1.414 . S
C639 C642 1.499 . S
C640 H620 0.950 . S
C640 C639 1.414 . S
C640 C641 1.374 . S
C641 H621 0.950 . S
C641 C637 1.385 . S
C641 C640 1.374 . S
C642 C639 1.499 . S
C642 C643 1.373 . S
C642 C644 1.389 . S
C643 H622 0.950 . S
C643 C642 1.373 . S
C643 C659 1.377 . S
C644 C642 1.389 . S
C644 C645 1.524 . S
C644 C658 1.377 . S
C645 C644 1.524 . S
C645 C646 1.397 . S
C645 C650 1.363 . S
C646 H623 0.950 . S
C646 C645 1.397 . S
C646 C647 1.334 . S
C647 H624 0.950 . S
C647 C646 1.334 . S
C647 C648 1.287 . S
C648 C647 1.287 . S
C648 C649 1.524 . S
C648 H667 0.913 . S
C649 H625 0.950 . S
C649 C648 1.524 . S
C649 C650 1.415 . S
C650 H626 0.950 . S
C650 C645 1.363 . S
C650 C649 1.415 . S
C651 H627 0.951 . S
C651 C652 1.366 . S
C651 C653 1.388 . S
C652 C651 1.366 . S
C652 C656 1.385 . S
C653 H628 0.951 . S
C653 C651 1.388 . S
C653 C654 1.366 . S
C654 C653 1.366 . S
C654 C655 1.414 . S
C654 C657 1.499 . S
C655 H629 0.950 . S
C655 C654 1.414 . S
C655 C656 1.374 . S
C656 H630 0.950 . S
C656 C652 1.385 . S
C656 C655 1.374 . S
C657 C654 1.499 . S
C657 C658 1.373 . S
C657 C659 1.389 . S
C658 H631 0.950 . S
C658 C644 1.377 . S
C658 C657 1.373 . S
C659 C643 1.377 . S
C659 C657 1.389 . S
C659 C660 1.524 . S
C660 C659 1.524 . S
C660 C661 1.397 . S
C660 C665 1.363 . S
C661 H632 0.950 . S
C661 C660 1.397 . S
C661 C662 1.334 . S
C662 H633 0.950 . S
C662 C661 1.334 . S
C662 C663 1.287 . S
C663 C662 1.287 . S
C663 C664 1.524 . S
C663 H666 0.999 . S
C664 H634 0.950 . S
C664 C663 1.524 . S
C664 C665 1.415 . S
C665 H635 0.950 . S
C665 C660 1.363 . S
C665 C664 1.415 . S
H666 C663 0.999 . S
H667 C648 0.913 . S
H668 C686 0.951 . S
H669 C688 0.951 . S
H670 C690 0.950 . S
H671 C691 0.950 . S
H672 C693 0.950 . S
H673 C696 0.950 . S
H674 C697 0.950 . S
H675 C699 0.950 . S
H676 C700 0.950 1_455 S
H677 C701 0.951 . S
H678 C703 0.951 . S
H679 C705 0.950 . S
H680 C706 0.950 . S
H681 C708 0.950 . S
H682 C711 0.950 . S
H683 C712 0.950 . S
H684 C714 0.950 . S
H685 C715 0.950 1_655 S
C686 H668 0.951 . S
C686 C687 1.366 . S
C686 C688 1.388 . S
C687 C686 1.366 . S
C687 C691 1.385 . S
C688 H669 0.951 . S
C688 C686 1.388 . S
C688 C689 1.366 . S
C689 C688 1.366 . S
C689 C690 1.414 . S
C689 C692 1.499 . S
C690 H670 0.950 . S
C690 C689 1.414 . S
C690 C691 1.374 . S
C691 H671 0.950 . S
C691 C687 1.385 . S
C691 C690 1.374 . S
C692 C689 1.499 . S
C692 C693 1.373 . S
C692 C694 1.389 . S
C693 H672 0.950 . S
C693 C692 1.373 . S
C693 C709 1.377 1_655 S
C694 C692 1.389 . S
C694 C695 1.524 . S
C694 C708 1.377 1_655 S
C695 C694 1.524 . S
C695 C696 1.397 . S
C695 C700 1.363 . S
C696 H673 0.950 . S
C696 C695 1.397 . S
C696 C697 1.334 . S
C697 H674 0.950 . S
C697 C696 1.334 . S
C697 C698 1.287 . S
C698 C697 1.287 . S
C698 C699 1.524 . S
C698 H717 0.913 . S
C699 H675 0.950 . S
C699 C698 1.524 . S
C699 C700 1.415 . S
C700 H676 0.950 1_655 S
C700 C695 1.363 . S
C700 C699 1.415 . S
C701 H677 0.951 . S
C701 C702 1.366 . S
C701 C703 1.388 . S
C702 C701 1.366 . S
C702 C706 1.385 . S
C703 H678 0.951 . S
C703 C701 1.388 . S
C703 C704 1.366 . S
C704 C703 1.366 . S
C704 C705 1.414 . S
C704 C707 1.499 . S
C705 H679 0.950 . S
C705 C704 1.414 . S
C705 C706 1.374 . S
C706 H680 0.950 . S
C706 C702 1.385 . S
C706 C705 1.374 . S
C707 C704 1.499 . S
C707 C708 1.373 . S
C707 C709 1.389 . S
C708 H681 0.950 . S
C708 C694 1.377 1_455 S
C708 C707 1.373 . S
C709 C693 1.377 1_455 S
C709 C707 1.389 . S
C709 C710 1.524 . S
C710 C709 1.524 . S
C710 C711 1.397 . S
C710 C715 1.363 . S
C711 H682 0.950 . S
C711 C710 1.397 . S
C711 C712 1.334 . S
C712 H683 0.950 . S
C712 C711 1.334 . S
C712 C713 1.287 . S
C713 C712 1.287 . S
C713 C714 1.524 . S
C713 H716 0.999 . S
C714 H684 0.950 . S
C714 C713 1.524 . S
C714 C715 1.415 . S
C715 H685 0.950 1_455 S
C715 C710 1.363 . S
C715 C714 1.415 . S
H716 C713 0.999 . S
H717 C698 0.913 . S
H718 C736 0.951 . S
H719 C738 0.951 . S
H720 C740 0.950 1_545 S
H721 C741 0.950 . S
H722 C743 0.950 . S
H723 C746 0.950 . S
H724 C747 0.950 . S
H725 C749 0.950 . S
H726 C750 0.950 . S
H727 C751 0.951 . S
H728 C753 0.951 . S
H729 C755 0.950 1_565 S
H730 C756 0.950 . S
H731 C758 0.950 . S
H732 C761 0.950 . S
H733 C762 0.950 . S
H734 C764 0.950 . S
H735 C765 0.950 . S
C736 H718 0.951 . S
C736 C737 1.366 . S
C736 C738 1.388 . S
C737 C736 1.366 . S
C737 C741 1.385 . S
C738 H719 0.951 . S
C738 C736 1.388 . S
C738 C739 1.366 . S
C739 C738 1.366 . S
C739 C740 1.414 . S
C739 C742 1.499 . S
C740 H720 0.950 1_565 S
C740 C739 1.414 . S
C740 C741 1.374 . S
C741 H721 0.950 . S
C741 C737 1.385 . S
C741 C740 1.374 . S
C742 C739 1.499 . S
C742 C743 1.373 1_565 S
C742 C744 1.389 . S
C743 H722 0.950 . S
C743 C742 1.373 1_545 S
C743 C759 1.377 . S
C744 C742 1.389 . S
C744 C745 1.524 . S
C744 C758 1.377 . S
C745 C744 1.524 . S
C745 C746 1.397 . S
C745 C750 1.363 . S
C746 H723 0.950 . S
C746 C745 1.397 . S
C746 C747 1.334 . S
C747 H724 0.950 . S
C747 C746 1.334 . S
C747 C748 1.287 . S
C748 C747 1.287 . S
C748 C749 1.524 . S
C748 H767 0.913 . S
C749 H725 0.950 . S
C749 C748 1.524 . S
C749 C750 1.415 . S
C750 H726 0.950 . S
C750 C745 1.363 . S
C750 C749 1.415 . S
C751 H727 0.951 . S
C751 C752 1.366 . S
C751 C753 1.388 . S
C752 C751 1.366 . S
C752 C756 1.385 . S
C753 H728 0.951 . S
C753 C751 1.388 . S
C753 C754 1.366 . S
C754 C753 1.366 . S
C754 C755 1.414 . S
C754 C757 1.499 . S
C755 H729 0.950 1_545 S
C755 C754 1.414 . S
C755 C756 1.374 . S
C756 H730 0.950 . S
C756 C752 1.385 . S
C756 C755 1.374 . S
C757 C754 1.499 . S
C757 C758 1.373 1_545 S
C757 C759 1.389 . S
C758 H731 0.950 . S
C758 C744 1.377 . S
C758 C757 1.373 1_565 S
C759 C743 1.377 . S
C759 C757 1.389 . S
C759 C760 1.524 . S
C760 C759 1.524 . S
C760 C761 1.397 . S
C760 C765 1.363 . S
C761 H732 0.950 . S
C761 C760 1.397 . S
C761 C762 1.334 . S
C762 H733 0.950 . S
C762 C761 1.334 . S
C762 C763 1.287 . S
C763 C762 1.287 . S
C763 C764 1.524 . S
C763 H766 0.999 . S
C764 H734 0.950 . S
C764 C763 1.524 . S
C764 C765 1.415 . S
C765 H735 0.950 . S
C765 C760 1.363 . S
C765 C764 1.415 . S
H766 C763 0.999 . S
H767 C748 0.913 . S
H768 C786 0.951 . S
H769 C788 0.951 . S
H770 C790 0.950 . S
H771 C791 0.950 . S
H772 C793 0.950 . S
H773 C796 0.950 . S
H774 C797 0.950 . S
H775 C799 0.950 . S
H776 C800 0.950 . S
H777 C801 0.951 . S
H778 C803 0.951 . S
H779 C805 0.950 . S
H780 C806 0.950 . S
H781 C808 0.950 . S
H782 C811 0.950 . S
H783 C812 0.950 . S
H784 C814 0.950 . S
H785 C815 0.950 . S
C786 H768 0.951 . S
C786 C787 1.366 . S
C786 C788 1.388 . S
C787 C786 1.366 . S
C787 C791 1.385 . S
C788 H769 0.951 . S
C788 C786 1.388 . S
C788 C789 1.366 . S
C789 C788 1.366 . S
C789 C790 1.414 . S
C789 C792 1.499 . S
C790 H770 0.950 . S
C790 C789 1.414 . S
C790 C791 1.374 . S
C791 H771 0.950 . S
C791 C787 1.385 . S
C791 C790 1.374 . S
C792 C789 1.499 . S
C792 C793 1.373 . S
C792 C794 1.389 . S
C793 H772 0.950 . S
C793 C792 1.373 . S
C793 C809 1.377 . S
C794 C792 1.389 . S
C794 C795 1.524 . S
C794 C808 1.377 . S
C795 C794 1.524 . S
C795 C796 1.397 . S
C795 C800 1.363 . S
C796 H773 0.950 . S
C796 C795 1.397 . S
C796 C797 1.334 . S
C797 H774 0.950 . S
C797 C796 1.334 . S
C797 C798 1.287 . S
C798 C797 1.287 . S
C798 C799 1.524 . S
C798 H817 0.913 . S
C799 H775 0.950 . S
C799 C798 1.524 . S
C799 C800 1.415 . S
C800 H776 0.950 . S
C800 C795 1.363 . S
C800 C799 1.415 . S
C801 H777 0.951 . S
C801 C802 1.366 . S
C801 C803 1.388 . S
C802 C801 1.366 . S
C802 C806 1.385 . S
C803 H778 0.951 . S
C803 C801 1.388 . S
C803 C804 1.366 . S
C804 C803 1.366 . S
C804 C805 1.414 . S
C804 C807 1.499 . S
C805 H779 0.950 . S
C805 C804 1.414 . S
C805 C806 1.374 . S
C806 H780 0.950 . S
C806 C802 1.385 . S
C806 C805 1.374 . S
C807 C804 1.499 . S
C807 C808 1.373 . S
C807 C809 1.389 . S
C808 H781 0.950 . S
C808 C794 1.377 . S
C808 C807 1.373 . S
C809 C793 1.377 . S
C809 C807 1.389 . S
C809 C810 1.524 . S
C810 C809 1.524 . S
C810 C811 1.397 . S
C810 C815 1.363 . S
C811 H782 0.950 . S
C811 C810 1.397 . S
C811 C812 1.334 . S
C812 H783 0.950 . S
C812 C811 1.334 . S
C812 C813 1.287 . S
C813 C812 1.287 . S
C813 C814 1.524 . S
C813 H816 0.999 . S
C814 H784 0.950 . S
C814 C813 1.524 . S
C814 C815 1.415 . S
C815 H785 0.950 . S
C815 C810 1.363 . S
C815 C814 1.415 . S
H816 C813 0.999 . S
H817 C798 0.913 . S
H818 C836 0.951 . S
H819 C838 0.951 . S
H820 C840 0.950 . S
H821 C841 0.950 . S
H822 C843 0.950 . S
H823 C846 0.950 . S
H824 C847 0.950 . S
H825 C849 0.950 . S
H826 C850 0.950 . S
H827 C851 0.951 . S
H828 C853 0.951 . S
H829 C855 0.950 . S
H830 C856 0.950 . S
H831 C858 0.950 . S
H832 C861 0.950 . S
H833 C862 0.950 . S
H834 C864 0.950 . S
H835 C865 0.950 . S
C836 H818 0.951 . S
C836 C837 1.366 . S
C836 C838 1.388 . S
C837 C836 1.366 . S
C837 C841 1.385 . S
C838 H819 0.951 . S
C838 C836 1.388 . S
C838 C839 1.366 . S
C839 C838 1.366 . S
C839 C840 1.414 . S
C839 C842 1.499 . S
C840 H820 0.950 . S
C840 C839 1.414 . S
C840 C841 1.374 . S
C841 H821 0.950 . S
C841 C837 1.385 . S
C841 C840 1.374 . S
C842 C839 1.499 . S
C842 C843 1.373 . S
C842 C844 1.389 1_655 S
C843 H822 0.950 . S
C843 C842 1.373 . S
C843 C859 1.377 . S
C844 C842 1.389 1_455 S
C844 C845 1.524 . S
C844 C858 1.377 . S
C845 C844 1.524 . S
C845 C846 1.397 . S
C845 C850 1.363 . S
C846 H823 0.950 . S
C846 C845 1.397 . S
C846 C847 1.334 . S
C847 H824 0.950 . S
C847 C846 1.334 . S
C847 C848 1.287 . S
C848 C847 1.287 . S
C848 C849 1.524 . S
C848 H867 0.913 . S
C849 H825 0.950 . S
C849 C848 1.524 . S
C849 C850 1.415 . S
C850 H826 0.950 . S
C850 C845 1.363 . S
C850 C849 1.415 . S
C851 H827 0.951 . S
C851 C852 1.366 . S
C851 C853 1.388 . S
C852 C851 1.366 . S
C852 C856 1.385 . S
C853 H828 0.951 . S
C853 C851 1.388 . S
C853 C854 1.366 . S
C854 C853 1.366 . S
C854 C855 1.414 . S
C854 C857 1.499 . S
C855 H829 0.950 . S
C855 C854 1.414 . S
C855 C856 1.374 . S
C856 H830 0.950 . S
C856 C852 1.385 . S
C856 C855 1.374 . S
C857 C854 1.499 . S
C857 C858 1.373 . S
C857 C859 1.389 1_455 S
C858 H831 0.950 . S
C858 C844 1.377 . S
C858 C857 1.373 . S
C859 C843 1.377 . S
C859 C857 1.389 1_655 S
C859 C860 1.524 . S
C860 C859 1.524 . S
C860 C861 1.397 . S
C860 C865 1.363 . S
C861 H832 0.950 . S
C861 C860 1.397 . S
C861 C862 1.334 . S
C862 H833 0.950 . S
C862 C861 1.334 . S
C862 C863 1.287 . S
C863 C862 1.287 . S
C863 C864 1.524 . S
C863 H866 0.999 . S
C864 H834 0.950 . S
C864 C863 1.524 . S
C864 C865 1.415 . S
C865 H835 0.950 . S
C865 C860 1.363 . S
C865 C864 1.415 . S
H866 C863 0.999 . S
H867 C848 0.913 . S
H868 C886 0.951 . S
H869 C888 0.951 . S
H870 C890 0.950 1_545 S
H871 C891 0.950 . S
H872 C893 0.950 . S
H873 C896 0.950 . S
H874 C897 0.950 . S
H875 C899 0.950 . S
H876 C900 0.950 1_554 S
H877 C901 0.951 . S
H878 C903 0.951 . S
H879 C905 0.950 1_565 S
H880 C906 0.950 . S
H881 C908 0.950 . S
H882 C911 0.950 . S
H883 C912 0.950 . S
H884 C914 0.950 . S
H885 C915 0.950 1_556 S
C886 H868 0.951 . S
C886 C887 1.366 . S
C886 C888 1.388 . S
C887 C886 1.366 . S
C887 C891 1.385 . S
C888 H869 0.951 . S
C888 C886 1.388 . S
C888 C889 1.366 . S
C889 C888 1.366 . S
C889 C890 1.414 . S
C889 C892 1.499 . S
C890 H870 0.950 1_565 S
C890 C889 1.414 . S
C890 C891 1.374 . S
C891 H871 0.950 . S
C891 C887 1.385 . S
C891 C890 1.374 . S
C892 C889 1.499 . S
C892 C893 1.373 . S
C892 C894 1.389 . S
C893 H872 0.950 . S
C893 C892 1.373 . S
C893 C909 1.377 1_566 S
C894 C892 1.389 . S
C894 C895 1.524 . S
C894 C908 1.377 1_566 S
C895 C894 1.524 . S
C895 C896 1.397 1_565 S
C895 C900 1.363 . S
C896 H873 0.950 . S
C896 C895 1.397 1_545 S
C896 C897 1.334 . S
C897 H874 0.950 . S
C897 C896 1.334 . S
C897 C898 1.287 1_545 S
C898 C897 1.287 1_565 S
C898 C899 1.531 . S
C898 H917 0.915 . S
C899 H875 0.950 . S
C899 C898 1.531 . S
C899 C900 1.415 . S
C900 H876 0.950 1_556 S
C900 C895 1.363 . S
C900 C899 1.415 . S
C901 H877 0.951 . S
C901 C902 1.366 . S
C901 C903 1.388 . S
C902 C901 1.366 . S
C902 C906 1.385 . S
C903 H878 0.951 . S
C903 C901 1.388 . S
C903 C904 1.366 . S
C904 C903 1.366 . S
C904 C905 1.414 . S
C904 C907 1.499 . S
C905 H879 0.950 1_545 S
C905 C904 1.414 . S
C905 C906 1.374 . S
C906 H880 0.950 . S
C906 C902 1.385 . S
C906 C905 1.374 . S
C907 C904 1.499 . S
C907 C908 1.373 . S
C907 C909 1.389 . S
C908 H881 0.950 . S
C908 C894 1.377 1_544 S
C908 C907 1.373 . S
C909 C893 1.377 1_544 S
C909 C907 1.389 . S
C909 C910 1.524 . S
C910 C909 1.524 . S
C910 C911 1.397 1_545 S
C910 C915 1.363 . S
C911 H882 0.950 . S
C911 C910 1.397 1_565 S
C911 C912 1.334 . S
C912 H883 0.950 . S
C912 C911 1.334 . S
C912 C913 1.287 1_565 S
C913 C912 1.287 1_545 S
C913 C914 1.531 . S
C913 H916 1.007 . S
C914 H884 0.950 . S
C914 C913 1.531 . S
C914 C915 1.415 . S
C915 H885 0.950 1_554 S
C915 C910 1.363 . S
C915 C914 1.415 . S
H916 C913 1.007 . S
H917 C898 0.915 . S
H918 C936 0.951 . S
H919 C938 0.951 . S
H920 C940 0.950 . S
H921 C941 0.950 . S
H922 C943 0.950 . S
H923 C946 0.950 . S
H924 C947 0.950 . S
H925 C949 0.950 . S
H926 C950 0.950 . S
H927 C951 0.951 . S
H928 C953 0.951 . S
H929 C955 0.950 . S
H930 C956 0.950 . S
H931 C958 0.950 . S
H932 C961 0.950 . S
H933 C962 0.950 . S
H934 C964 0.950 . S
H935 C965 0.950 . S
C936 H918 0.951 . S
C936 C937 1.366 . S
C936 C938 1.388 . S
C937 C936 1.366 . S
C937 C941 1.385 . S
C938 H919 0.951 . S
C938 C936 1.388 . S
C938 C939 1.366 . S
C939 C938 1.366 . S
C939 C940 1.414 . S
C939 C942 1.499 . S
C940 H920 0.950 . S
C940 C939 1.414 . S
C940 C941 1.374 . S
C941 H921 0.950 . S
C941 C937 1.385 . S
C941 C940 1.374 . S
C942 C939 1.499 . S
C942 C943 1.373 . S
C942 C944 1.389 . S
C943 H922 0.950 . S
C943 C942 1.373 . S
C943 C959 1.377 . S
C944 C942 1.389 . S
C944 C945 1.524 . S
C944 C958 1.377 . S
C945 C944 1.524 . S
C945 C946 1.397 . S
C945 C950 1.363 . S
C946 H923 0.950 . S
C946 C945 1.397 . S
C946 C947 1.334 . S
C947 H924 0.950 . S
C947 C946 1.334 . S
C947 C948 1.287 . S
C948 C947 1.287 . S
C948 C949 1.524 . S
C948 H967 0.913 . S
C949 H925 0.950 . S
C949 C948 1.524 . S
C949 C950 1.415 . S
C950 H926 0.950 . S
C950 C945 1.363 . S
C950 C949 1.415 . S
C951 H927 0.951 . S
C951 C952 1.366 . S
C951 C953 1.388 . S
C952 C951 1.366 . S
C952 C956 1.385 . S
C953 H928 0.951 . S
C953 C951 1.388 . S
C953 C954 1.366 . S
C954 C953 1.366 . S
C954 C955 1.414 . S
C954 C957 1.499 . S
C955 H929 0.950 . S
C955 C954 1.414 . S
C955 C956 1.374 . S
C956 H930 0.950 . S
C956 C952 1.385 . S
C956 C955 1.374 . S
C957 C954 1.499 . S
C957 C958 1.373 . S
C957 C959 1.389 . S
C958 H931 0.950 . S
C958 C944 1.377 . S
C958 C957 1.373 . S
C959 C943 1.377 . S
C959 C957 1.389 . S
C959 C960 1.524 . S
C960 C959 1.524 . S
C960 C961 1.397 . S
C960 C965 1.363 . S
C961 H932 0.950 . S
C961 C960 1.397 . S
C961 C962 1.334 . S
C962 H933 0.950 . S
C962 C961 1.334 . S
C962 C963 1.287 . S
C963 C962 1.287 . S
C963 C964 1.524 . S
C963 H966 0.999 . S
C964 H934 0.950 . S
C964 C963 1.524 . S
C964 C965 1.415 . S
C965 H935 0.950 . S
C965 C960 1.363 . S
C965 C964 1.415 . S
H966 C963 0.999 . S
H967 C948 0.913 . S
H968 C986 0.951 . S
H969 C988 0.951 . S
H970 C990 0.950 . S
H971 C991 0.950 . S
H972 C993 0.950 . S
H973 C996 0.950 . S
H974 C997 0.950 . S
H975 C999 0.950 . S
H976 C1000 0.950 . S
H977 C1001 0.951 . S
H978 C1003 0.951 . S
H979 C1005 0.950 . S
H980 C1006 0.950 . S
H981 C1008 0.950 . S
H982 C1011 0.950 . S
H983 C1012 0.950 . S
H984 C1014 0.950 . S
H985 C1015 0.950 . S
C986 H968 0.951 . S
C986 C987 1.366 . S
C986 C988 1.388 . S
C987 C986 1.366 . S
C987 C991 1.385 . S
C988 H969 0.951 . S
C988 C986 1.388 . S
C988 C989 1.366 . S
C989 C988 1.366 . S
C989 C990 1.414 . S
C989 C992 1.499 . S
C990 H970 0.950 . S
C990 C989 1.414 . S
C990 C991 1.374 . S
C991 H971 0.950 . S
C991 C987 1.385 . S
C991 C990 1.374 . S
C992 C989 1.499 . S
C992 C993 1.373 . S
C992 C994 1.389 1_455 S
C993 H972 0.950 . S
C993 C992 1.373 . S
C993 C1009 1.377 . S
C994 C992 1.389 1_655 S
C994 C995 1.524 . S
C994 C1008 1.377 . S
C995 C994 1.524 . S
C995 C996 1.397 . S
C995 C1000 1.363 . S
C996 H973 0.950 . S
C996 C995 1.397 . S
C996 C997 1.334 . S
C997 H974 0.950 . S
C997 C996 1.334 . S
C997 C998 1.287 . S
C998 C997 1.287 . S
C998 C999 1.524 . S
C998 H1017 0.913 . S
C999 H975 0.950 . S
C999 C998 1.524 . S
C999 C1000 1.415 . S
C1000 H976 0.950 . S
C1000 C995 1.363 . S
C1000 C999 1.415 . S
C1001 H977 0.951 . S
C1001 C1002 1.366 . S
C1001 C1003 1.388 . S
C1002 C1001 1.366 . S
C1002 C1006 1.385 . S
C1003 H978 0.951 . S
C1003 C1001 1.388 . S
C1003 C1004 1.366 . S
C1004 C1003 1.366 . S
C1004 C1005 1.414 . S
C1004 C1007 1.499 . S
C1005 H979 0.950 . S
C1005 C1004 1.414 . S
C1005 C1006 1.374 . S
C1006 H980 0.950 . S
C1006 C1002 1.385 . S
C1006 C1005 1.374 . S
C1007 C1004 1.499 . S
C1007 C1008 1.373 . S
C1007 C1009 1.389 1_655 S
C1008 H981 0.950 . S
C1008 C994 1.377 . S
C1008 C1007 1.373 . S
C1009 C993 1.377 . S
C1009 C1007 1.389 1_455 S
C1009 C1010 1.524 . S
C1010 C1009 1.524 . S
C1010 C1011 1.397 . S
C1010 C1015 1.363 . S
C1011 H982 0.950 . S
C1011 C1010 1.397 . S
C1011 C1012 1.334 . S
C1012 H983 0.950 . S
C1012 C1011 1.334 . S
C1012 C1013 1.287 . S
C1013 C1012 1.287 . S
C1013 C1014 1.524 . S
C1013 H1016 0.999 . S
C1014 H984 0.950 . S
C1014 C1013 1.524 . S
C1014 C1015 1.415 . S
C1015 H985 0.950 . S
C1015 C1010 1.363 . S
C1015 C1014 1.415 . S
H1016 C1013 0.999 . S
H1017 C998 0.913 . S
H1018 C1036 0.951 . S
H1019 C1038 0.950 . S
H1020 C1040 0.950 . S
H1021 C1041 0.950 . S
H1022 C1043 0.950 . S
H1023 C1046 0.950 . S
H1024 C1047 0.950 . S
H1025 C1049 0.950 1_545 S
H1026 C1050 0.950 . S
H1027 C1051 0.951 . S
H1028 C1053 0.950 . S
H1029 C1055 0.950 . S
H1030 C1056 0.950 . S
H1031 C1058 0.950 . S
H1032 C1061 0.950 . S
H1033 C1062 0.950 . S
H1034 C1064 0.950 1_565 S
H1035 C1065 0.950 . S
C1036 H1018 0.951 . S
C1036 C1037 1.366 . S
C1036 C1038 1.388 . S
C1037 C1036 1.366 . S
C1037 C1041 1.385 . S
C1038 H1019 0.950 . S
C1038 C1036 1.388 . S
C1038 C1039 1.366 . S
C1039 C1038 1.366 . S
C1039 C1040 1.414 . S
C1039 C1042 1.499 . S
C1040 H1020 0.950 . S
C1040 C1039 1.414 . S
C1040 C1041 1.374 . S
C1041 H1021 0.950 . S
C1041 C1037 1.385 . S
C1041 C1040 1.374 . S
C1042 C1039 1.499 . S
C1042 C1043 1.373 . S
C1042 C1044 1.389 . S
C1043 H1022 0.950 . S
C1043 C1042 1.373 . S
C1043 C1059 1.377 1_564 S
C1044 C1042 1.389 . S
C1044 C1045 1.524 . S
C1044 C1058 1.377 1_564 S
C1045 C1044 1.524 . S
C1045 C1046 1.397 . S
C1045 C1050 1.363 1_565 S
C1046 H1023 0.950 . S
C1046 C1045 1.397 . S
C1046 C1047 1.334 . S
C1047 H1024 0.950 . S
C1047 C1046 1.334 . S
C1047 C1048 1.287 . S
C1048 C1047 1.287 . S
C1048 C1049 1.524 . S
C1048 H1067 0.913 . S
C1049 H1025 0.950 1_565 S
C1049 C1048 1.524 . S
C1049 C1050 1.415 1_565 S
C1050 H1026 0.950 . S
C1050 C1045 1.363 1_545 S
C1050 C1049 1.415 1_545 S
C1051 H1027 0.951 . S
C1051 C1052 1.366 . S
C1051 C1053 1.388 . S
C1052 C1051 1.366 . S
C1052 C1056 1.385 . S
C1053 H1028 0.950 . S
C1053 C1051 1.388 . S
C1053 C1054 1.366 . S
C1054 C1053 1.366 . S
C1054 C1055 1.414 . S
C1054 C1057 1.499 . S
C1055 H1029 0.950 . S
C1055 C1054 1.414 . S
C1055 C1056 1.374 . S
C1056 H1030 0.950 . S
C1056 C1052 1.385 . S
C1056 C1055 1.374 . S
C1057 C1054 1.499 . S
C1057 C1058 1.373 . S
C1057 C1059 1.389 . S
C1058 H1031 0.950 . S
C1058 C1044 1.377 1_546 S
C1058 C1057 1.373 . S
C1059 C1043 1.377 1_546 S
C1059 C1057 1.389 . S
C1059 C1060 1.524 . S
C1060 C1059 1.524 . S
C1060 C1061 1.397 . S
C1060 C1065 1.363 1_545 S
C1061 H1032 0.950 . S
C1061 C1060 1.397 . S
C1061 C1062 1.334 . S
C1062 H1033 0.950 . S
C1062 C1061 1.334 . S
C1062 C1063 1.287 . S
C1063 C1062 1.287 . S
C1063 C1064 1.524 . S
C1063 H1066 0.999 . S
C1064 H1034 0.950 1_545 S
C1064 C1063 1.524 . S
C1064 C1065 1.415 1_545 S
C1065 H1035 0.950 . S
C1065 C1060 1.363 1_565 S
C1065 C1064 1.415 1_565 S
H1066 C1063 0.999 . S
H1067 C1048 0.913 . S
H1068 C1086 0.951 . S
H1069 C1088 0.951 . S
H1070 C1090 0.950 . S
H1071 C1091 0.950 . S
H1072 C1093 0.950 . S
H1073 C1096 0.950 . S
H1074 C1097 0.950 . S
H1075 C1099 0.950 . S
H1076 C1100 0.950 . S
H1077 C1101 0.951 . S
H1078 C1103 0.951 . S
H1079 C1105 0.950 . S
H1080 C1106 0.950 . S
H1081 C1108 0.950 . S
H1082 C1111 0.950 . S
H1083 C1112 0.950 . S
H1084 C1114 0.950 . S
H1085 C1115 0.950 . S
C1086 H1068 0.951 . S
C1086 C1087 1.366 . S
C1086 C1088 1.388 . S
C1087 C1086 1.366 . S
C1087 C1091 1.385 . S
C1088 H1069 0.951 . S
C1088 C1086 1.388 . S
C1088 C1089 1.366 . S
C1089 C1088 1.366 . S
C1089 C1090 1.414 . S
C1089 C1092 1.499 . S
C1090 H1070 0.950 . S
C1090 C1089 1.414 . S
C1090 C1091 1.374 . S
C1091 H1071 0.950 . S
C1091 C1087 1.385 . S
C1091 C1090 1.374 . S
C1092 C1089 1.499 . S
C1092 C1093 1.373 . S
C1092 C1094 1.389 . S
C1093 H1072 0.950 . S
C1093 C1092 1.373 . S
C1093 C1109 1.377 1_655 S
C1094 C1092 1.389 . S
C1094 C1095 1.524 . S
C1094 C1108 1.377 1_655 S
C1095 C1094 1.524 . S
C1095 C1096 1.397 . S
C1095 C1100 1.363 . S
C1096 H1073 0.950 . S
C1096 C1095 1.397 . S
C1096 C1097 1.334 . S
C1097 H1074 0.950 . S
C1097 C1096 1.334 . S
C1097 C1098 1.287 . S
C1098 C1097 1.287 . S
C1098 C1099 1.524 . S
C1098 H1117 0.913 . S
C1099 H1075 0.950 . S
C1099 C1098 1.524 . S
C1099 C1100 1.415 . S
C1100 H1076 0.950 . S
C1100 C1095 1.363 . S
C1100 C1099 1.415 . S
C1101 H1077 0.951 . S
C1101 C1102 1.366 . S
C1101 C1103 1.388 . S
C1102 C1101 1.366 . S
C1102 C1106 1.385 . S
C1103 H1078 0.951 . S
C1103 C1101 1.388 . S
C1103 C1104 1.366 . S
C1104 C1103 1.366 . S
C1104 C1105 1.414 . S
C1104 C1107 1.499 . S
C1105 H1079 0.950 . S
C1105 C1104 1.414 . S
C1105 C1106 1.374 . S
C1106 H1080 0.950 . S
C1106 C1102 1.385 . S
C1106 C1105 1.374 . S
C1107 C1104 1.499 . S
C1107 C1108 1.373 . S
C1107 C1109 1.389 . S
C1108 H1081 0.950 . S
C1108 C1094 1.377 1_455 S
C1108 C1107 1.373 . S
C1109 C1093 1.377 1_455 S
C1109 C1107 1.389 . S
C1109 C1110 1.524 . S
C1110 C1109 1.524 . S
C1110 C1111 1.397 . S
C1110 C1115 1.363 . S
C1111 H1082 0.950 . S
C1111 C1110 1.397 . S
C1111 C1112 1.334 . S
C1112 H1083 0.950 . S
C1112 C1111 1.334 . S
C1112 C1113 1.287 . S
C1113 C1112 1.287 . S
C1113 C1114 1.524 . S
C1113 H1116 0.999 . S
C1114 H1084 0.950 . S
C1114 C1113 1.524 . S
C1114 C1115 1.415 . S
C1115 H1085 0.950 . S
C1115 C1110 1.363 . S
C1115 C1114 1.415 . S
H1116 C1113 0.999 . S
H1117 C1098 0.913 . S
H1118 C1136 0.951 . S
H1119 C1138 0.951 . S
H1120 C1140 0.950 . S
H1121 C1141 0.950 . S
H1122 C1143 0.950 . S
H1123 C1146 0.950 . S
H1124 C1147 0.950 . S
H1125 C1149 0.950 . S
H1126 C1150 0.950 . S
H1127 C1151 0.951 . S
H1128 C1153 0.951 . S
H1129 C1155 0.950 . S
H1130 C1156 0.950 . S
H1131 C1158 0.950 . S
H1132 C1161 0.950 . S
H1133 C1162 0.950 . S
H1134 C1164 0.950 . S
H1135 C1165 0.950 . S
C1136 H1118 0.951 . S
C1136 C1137 1.366 . S
C1136 C1138 1.388 . S
C1137 C1136 1.366 . S
C1137 C1141 1.385 . S
C1138 H1119 0.951 . S
C1138 C1136 1.388 . S
C1138 C1139 1.366 . S
C1139 C1138 1.366 . S
C1139 C1140 1.414 . S
C1139 C1142 1.499 . S
C1140 H1120 0.950 . S
C1140 C1139 1.414 . S
C1140 C1141 1.374 . S
C1141 H1121 0.950 . S
C1141 C1137 1.385 . S
C1141 C1140 1.374 . S
C1142 C1139 1.499 . S
C1142 C1143 1.373 . S
C1142 C1144 1.389 . S
C1143 H1122 0.950 . S
C1143 C1142 1.373 . S
C1143 C1159 1.377 1_545 S
C1144 C1142 1.389 . S
C1144 C1145 1.524 . S
C1144 C1158 1.377 1_545 S
C1145 C1144 1.524 . S
C1145 C1146 1.397 . S
C1145 C1150 1.363 . S
C1146 H1123 0.950 . S
C1146 C1145 1.397 . S
C1146 C1147 1.334 . S
C1147 H1124 0.950 . S
C1147 C1146 1.334 . S
C1147 C1148 1.287 . S
C1148 C1147 1.287 . S
C1148 C1149 1.524 . S
C1148 H1167 0.913 . S
C1149 H1125 0.950 . S
C1149 C1148 1.524 . S
C1149 C1150 1.415 . S
C1150 H1126 0.950 . S
C1150 C1145 1.363 . S
C1150 C1149 1.415 . S
C1151 H1127 0.951 . S
C1151 C1152 1.366 . S
C1151 C1153 1.388 . S
C1152 C1151 1.366 . S
C1152 C1156 1.385 . S
C1153 H1128 0.951 . S
C1153 C1151 1.388 . S
C1153 C1154 1.366 . S
C1154 C1153 1.366 . S
C1154 C1155 1.414 . S
C1154 C1157 1.499 . S
C1155 H1129 0.950 . S
C1155 C1154 1.414 . S
C1155 C1156 1.374 . S
C1156 H1130 0.950 . S
C1156 C1152 1.385 . S
C1156 C1155 1.374 . S
C1157 C1154 1.499 . S
C1157 C1158 1.373 . S
C1157 C1159 1.389 . S
C1158 H1131 0.950 . S
C1158 C1144 1.377 1_565 S
C1158 C1157 1.373 . S
C1159 C1143 1.377 1_565 S
C1159 C1157 1.389 . S
C1159 C1160 1.524 . S
C1160 C1159 1.524 . S
C1160 C1161 1.397 . S
C1160 C1165 1.363 . S
C1161 H1132 0.950 . S
C1161 C1160 1.397 . S
C1161 C1162 1.334 . S
C1162 H1133 0.950 . S
C1162 C1161 1.334 . S
C1162 C1163 1.287 . S
C1163 C1162 1.287 . S
C1163 C1164 1.524 . S
C1163 H1166 0.999 . S
C1164 H1134 0.950 . S
C1164 C1163 1.524 . S
C1164 C1165 1.415 . S
C1165 H1135 0.950 . S
C1165 C1160 1.363 . S
C1165 C1164 1.415 . S
H1166 C1163 0.999 . S
H1167 C1148 0.913 . S
H1168 C1186 0.951 . S
H1169 C1188 0.951 . S
H1170 C1190 0.950 . S
H1171 C1191 0.950 . S
H1172 C1193 0.950 . S
H1173 C1196 0.950 . S
H1174 C1197 0.950 . S
H1175 C1199 0.950 . S
H1176 C1200 0.950 . S
H1177 C1201 0.951 . S
H1178 C1203 0.951 . S
H1179 C1205 0.950 . S
H1180 C1206 0.950 . S
H1181 C1208 0.950 . S
H1182 C1211 0.950 . S
H1183 C1212 0.950 . S
H1184 C1214 0.950 . S
H1185 C1215 0.950 . S
C1186 H1168 0.951 . S
C1186 C1187 1.366 . S
C1186 C1188 1.388 . S
C1187 C1186 1.366 . S
C1187 C1191 1.385 . S
C1188 H1169 0.951 . S
C1188 C1186 1.388 . S
C1188 C1189 1.366 . S
C1189 C1188 1.366 . S
C1189 C1190 1.414 . S
C1189 C1192 1.499 . S
C1190 H1170 0.950 . S
C1190 C1189 1.414 . S
C1190 C1191 1.374 . S
C1191 H1171 0.950 . S
C1191 C1187 1.385 . S
C1191 C1190 1.374 . S
C1192 C1189 1.499 . S
C1192 C1193 1.373 . S
C1192 C1194 1.389 . S
C1193 H1172 0.950 . S
C1193 C1192 1.373 . S
C1193 C1209 1.377 . S
C1194 C1192 1.389 . S
C1194 C1195 1.524 . S
C1194 C1208 1.377 . S
C1195 C1194 1.524 . S
C1195 C1196 1.397 . S
C1195 C1200 1.363 . S
C1196 H1173 0.950 . S
C1196 C1195 1.397 . S
C1196 C1197 1.334 . S
C1197 H1174 0.950 . S
C1197 C1196 1.334 . S
C1197 C1198 1.287 . S
C1198 C1197 1.287 . S
C1198 C1199 1.524 . S
C1198 H1217 0.913 . S
C1199 H1175 0.950 . S
C1199 C1198 1.524 . S
C1199 C1200 1.415 . S
C1200 H1176 0.950 . S
C1200 C1195 1.363 . S
C1200 C1199 1.415 . S
C1201 H1177 0.951 . S
C1201 C1202 1.366 . S
C1201 C1203 1.388 . S
C1202 C1201 1.366 . S
C1202 C1206 1.385 . S
C1203 H1178 0.951 . S
C1203 C1201 1.388 . S
C1203 C1204 1.366 . S
C1204 C1203 1.366 . S
C1204 C1205 1.414 . S
C1204 C1207 1.499 . S
C1205 H1179 0.950 . S
C1205 C1204 1.414 . S
C1205 C1206 1.374 . S
C1206 H1180 0.950 . S
C1206 C1202 1.385 . S
C1206 C1205 1.374 . S
C1207 C1204 1.499 . S
C1207 C1208 1.373 . S
C1207 C1209 1.389 . S
C1208 H1181 0.950 . S
C1208 C1194 1.377 . S
C1208 C1207 1.373 . S
C1209 C1193 1.377 . S
C1209 C1207 1.389 . S
C1209 C1210 1.524 . S
C1210 C1209 1.524 . S
C1210 C1211 1.397 . S
C1210 C1215 1.363 . S
C1211 H1182 0.950 . S
C1211 C1210 1.397 . S
C1211 C1212 1.334 . S
C1212 H1183 0.950 . S
C1212 C1211 1.334 . S
C1212 C1213 1.287 . S
C1213 C1212 1.287 . S
C1213 C1214 1.524 . S
C1213 H1216 0.999 . S
C1214 H1184 0.950 . S
C1214 C1213 1.524 . S
C1214 C1215 1.415 . S
C1215 H1185 0.950 . S
C1215 C1210 1.363 . S
C1215 C1214 1.415 . S
H1216 C1213 0.999 . S
H1217 C1198 0.913 . S
H1218 C1236 0.951 . S
H1219 C1238 0.951 . S
H1220 C1240 0.950 . S
H1221 C1241 0.950 . S
H1222 C1243 0.950 . S
H1223 C1246 0.950 . S
H1224 C1247 0.950 . S
H1225 C1249 0.950 . S
H1226 C1250 0.950 . S
H1227 C1251 0.951 . S
H1228 C1253 0.951 . S
H1229 C1255 0.950 . S
H1230 C1256 0.950 . S
H1231 C1258 0.950 . S
H1232 C1261 0.950 . S
H1233 C1262 0.950 . S
H1234 C1264 0.950 . S
H1235 C1265 0.950 . S
C1236 H1218 0.951 . S
C1236 C1237 1.366 . S
C1236 C1238 1.388 . S
C1237 C1236 1.366 . S
C1237 C1241 1.385 . S
C1238 H1219 0.951 . S
C1238 C1236 1.388 . S
C1238 C1239 1.366 . S
C1239 C1238 1.366 . S
C1239 C1240 1.414 . S
C1239 C1242 1.499 . S
C1240 H1220 0.950 . S
C1240 C1239 1.414 . S
C1240 C1241 1.374 . S
C1241 H1221 0.950 . S
C1241 C1237 1.385 . S
C1241 C1240 1.374 . S
C1242 C1239 1.499 . S
C1242 C1243 1.373 . S
C1242 C1244 1.389 . S
C1243 H1222 0.950 . S
C1243 C1242 1.373 . S
C1243 C1259 1.377 1_655 S
C1244 C1242 1.389 . S
C1244 C1245 1.524 . S
C1244 C1258 1.377 1_655 S
C1245 C1244 1.524 . S
C1245 C1246 1.397 . S
C1245 C1250 1.363 . S
C1246 H1223 0.950 . S
C1246 C1245 1.397 . S
C1246 C1247 1.334 . S
C1247 H1224 0.950 . S
C1247 C1246 1.334 . S
C1247 C1248 1.287 . S
C1248 C1247 1.287 . S
C1248 C1249 1.524 . S
C1248 H1267 0.913 . S
C1249 H1225 0.950 . S
C1249 C1248 1.524 . S
C1249 C1250 1.415 . S
C1250 H1226 0.950 . S
C1250 C1245 1.363 . S
C1250 C1249 1.415 . S
C1251 H1227 0.951 . S
C1251 C1252 1.366 . S
C1251 C1253 1.388 . S
C1252 C1251 1.366 . S
C1252 C1256 1.385 . S
C1253 H1228 0.951 . S
C1253 C1251 1.388 . S
C1253 C1254 1.366 . S
C1254 C1253 1.366 . S
C1254 C1255 1.414 . S
C1254 C1257 1.499 . S
C1255 H1229 0.950 . S
C1255 C1254 1.414 . S
C1255 C1256 1.374 . S
C1256 H1230 0.950 . S
C1256 C1252 1.385 . S
C1256 C1255 1.374 . S
C1257 C1254 1.499 . S
C1257 C1258 1.373 . S
C1257 C1259 1.389 . S
C1258 H1231 0.950 . S
C1258 C1244 1.377 1_455 S
C1258 C1257 1.373 . S
C1259 C1243 1.377 1_455 S
C1259 C1257 1.389 . S
C1259 C1260 1.524 . S
C1260 C1259 1.524 . S
C1260 C1261 1.397 . S
C1260 C1265 1.363 . S
C1261 H1232 0.950 . S
C1261 C1260 1.397 . S
C1261 C1262 1.334 . S
C1262 H1233 0.950 . S
C1262 C1261 1.334 . S
C1262 C1263 1.287 . S
C1263 C1262 1.287 . S
C1263 C1264 1.524 . S
C1263 H1266 0.999 . S
C1264 H1234 0.950 . S
C1264 C1263 1.524 . S
C1264 C1265 1.415 . S
C1265 H1235 0.950 . S
C1265 C1260 1.363 . S
C1265 C1264 1.415 . S
H1266 C1263 0.999 . S
H1267 C1248 0.913 . S
H1268 C1286 0.951 . S
H1269 C1288 0.951 . S
H1270 C1290 0.950 . S
H1271 C1291 0.950 . S
H1272 C1293 0.950 . S
H1273 C1296 0.950 . S
H1274 C1297 0.950 . S
H1275 C1299 0.950 . S
H1276 C1300 0.950 . S
H1277 C1301 0.951 . S
H1278 C1303 0.951 . S
H1279 C1305 0.950 . S
H1280 C1306 0.950 . S
H1281 C1308 0.950 . S
H1282 C1311 0.950 . S
H1283 C1312 0.950 . S
H1284 C1314 0.950 . S
H1285 C1315 0.950 . S
C1286 H1268 0.951 . S
C1286 C1287 1.366 . S
C1286 C1288 1.388 . S
C1287 C1286 1.366 . S
C1287 C1291 1.385 . S
C1288 H1269 0.951 . S
C1288 C1286 1.388 . S
C1288 C1289 1.366 . S
C1289 C1288 1.366 . S
C1289 C1290 1.414 . S
C1289 C1292 1.499 . S
C1290 H1270 0.950 . S
C1290 C1289 1.414 . S
C1290 C1291 1.374 . S
C1291 H1271 0.950 . S
C1291 C1287 1.385 . S
C1291 C1290 1.374 . S
C1292 C1289 1.499 . S
C1292 C1293 1.373 . S
C1292 C1294 1.389 . S
C1293 H1272 0.950 . S
C1293 C1292 1.373 . S
C1293 C1309 1.377 1_565 S
C1294 C1292 1.389 . S
C1294 C1295 1.524 . S
C1294 C1308 1.377 1_565 S
C1295 C1294 1.524 . S
C1295 C1296 1.397 . S
C1295 C1300 1.363 . S
C1296 H1273 0.950 . S
C1296 C1295 1.397 . S
C1296 C1297 1.334 . S
C1297 H1274 0.950 . S
C1297 C1296 1.334 . S
C1297 C1298 1.287 . S
C1298 C1297 1.287 . S
C1298 C1299 1.524 . S
C1298 H1317 0.913 . S
C1299 H1275 0.950 . S
C1299 C1298 1.524 . S
C1299 C1300 1.415 . S
C1300 H1276 0.950 . S
C1300 C1295 1.363 . S
C1300 C1299 1.415 . S
C1301 H1277 0.951 . S
C1301 C1302 1.366 . S
C1301 C1303 1.388 . S
C1302 C1301 1.366 . S
C1302 C1306 1.385 . S
C1303 H1278 0.951 . S
C1303 C1301 1.388 . S
C1303 C1304 1.366 . S
C1304 C1303 1.366 . S
C1304 C1305 1.414 . S
C1304 C1307 1.499 . S
C1305 H1279 0.950 . S
C1305 C1304 1.414 . S
C1305 C1306 1.374 . S
C1306 H1280 0.950 . S
C1306 C1302 1.385 . S
C1306 C1305 1.374 . S
C1307 C1304 1.499 . S
C1307 C1308 1.373 . S
C1307 C1309 1.389 . S
C1308 H1281 0.950 . S
C1308 C1294 1.377 1_545 S
C1308 C1307 1.373 . S
C1309 C1293 1.377 1_545 S
C1309 C1307 1.389 . S
C1309 C1310 1.524 . S
C1310 C1309 1.524 . S
C1310 C1311 1.397 . S
C1310 C1315 1.363 . S
C1311 H1282 0.950 . S
C1311 C1310 1.397 . S
C1311 C1312 1.334 . S
C1312 H1283 0.950 . S
C1312 C1311 1.334 . S
C1312 C1313 1.287 . S
C1313 C1312 1.287 . S
C1313 C1314 1.524 . S
C1313 H1316 0.999 . S
C1314 H1284 0.950 . S
C1314 C1313 1.524 . S
C1314 C1315 1.415 . S
C1315 H1285 0.950 . S
C1315 C1310 1.363 . S
C1315 C1314 1.415 . S
H1316 C1313 0.999 . S
H1317 C1298 0.913 . S
H1318 C1336 0.951 . S
H1319 C1338 0.951 . S
H1320 C1340 0.950 . S
H1321 C1341 0.950 . S
H1322 C1343 0.950 . S
H1323 C1346 0.950 . S
H1324 C1347 0.950 . S
H1325 C1349 0.950 . S
H1326 C1350 0.950 . S
H1327 C1351 0.951 . S
H1328 C1353 0.951 . S
H1329 C1355 0.950 . S
H1330 C1356 0.950 . S
H1331 C1358 0.950 . S
H1332 C1361 0.950 . S
H1333 C1362 0.950 . S
H1334 C1364 0.950 . S
H1335 C1365 0.950 . S
C1336 H1318 0.951 . S
C1336 C1337 1.366 . S
C1336 C1338 1.388 . S
C1337 C1336 1.366 . S
C1337 C1341 1.385 . S
C1338 H1319 0.951 . S
C1338 C1336 1.388 . S
C1338 C1339 1.366 . S
C1339 C1338 1.366 . S
C1339 C1340 1.414 . S
C1339 C1342 1.499 . S
C1340 H1320 0.950 . S
C1340 C1339 1.414 . S
C1340 C1341 1.374 . S
C1341 H1321 0.950 . S
C1341 C1337 1.385 . S
C1341 C1340 1.374 . S
C1342 C1339 1.499 . S
C1342 C1343 1.373 . S
C1342 C1344 1.389 . S
C1343 H1322 0.950 . S
C1343 C1342 1.373 . S
C1343 C1359 1.377 . S
C1344 C1342 1.389 . S
C1344 C1345 1.524 . S
C1344 C1358 1.377 . S
C1345 C1344 1.524 . S
C1345 C1346 1.397 . S
C1345 C1350 1.363 . S
C1346 H1323 0.950 . S
C1346 C1345 1.397 . S
C1346 C1347 1.334 . S
C1347 H1324 0.950 . S
C1347 C1346 1.334 . S
C1347 C1348 1.287 . S
C1348 C1347 1.287 . S
C1348 C1349 1.524 . S
C1348 H1367 0.913 . S
C1349 H1325 0.950 . S
C1349 C1348 1.524 . S
C1349 C1350 1.415 . S
C1350 H1326 0.950 . S
C1350 C1345 1.363 . S
C1350 C1349 1.415 . S
C1351 H1327 0.951 . S
C1351 C1352 1.366 . S
C1351 C1353 1.388 . S
C1352 C1351 1.366 . S
C1352 C1356 1.385 . S
C1353 H1328 0.951 . S
C1353 C1351 1.388 . S
C1353 C1354 1.366 . S
C1354 C1353 1.366 . S
C1354 C1355 1.414 . S
C1354 C1357 1.499 . S
C1355 H1329 0.950 . S
C1355 C1354 1.414 . S
C1355 C1356 1.374 . S
C1356 H1330 0.950 . S
C1356 C1352 1.385 . S
C1356 C1355 1.374 . S
C1357 C1354 1.499 . S
C1357 C1358 1.373 . S
C1357 C1359 1.389 . S
C1358 H1331 0.950 . S
C1358 C1344 1.377 . S
C1358 C1357 1.373 . S
C1359 C1343 1.377 . S
C1359 C1357 1.389 . S
C1359 C1360 1.524 . S
C1360 C1359 1.524 . S
C1360 C1361 1.397 . S
C1360 C1365 1.363 . S
C1361 H1332 0.950 . S
C1361 C1360 1.397 . S
C1361 C1362 1.334 . S
C1362 H1333 0.950 . S
C1362 C1361 1.334 . S
C1362 C1363 1.287 . S
C1363 C1362 1.287 . S
C1363 C1364 1.524 . S
C1363 H1366 0.999 . S
C1364 H1334 0.950 . S
C1364 C1363 1.524 . S
C1364 C1365 1.415 . S
C1365 H1335 0.950 . S
C1365 C1360 1.363 . S
C1365 C1364 1.415 . S
H1366 C1363 0.999 . S
H1367 C1348 0.913 . S
C187 C120 2.276 . S
C202 C8 2.276 . S
C237 C22 2.276 . S
C252 C134 2.276 . S
C287 C36 2.275 . S
C302 C148 2.276 . S
C337 C50 2.276 . S
C352 C162 2.276 . S
C387 C92 2.275 . S
C402 C64 2.276 . S
C437 C78 2.275 . S
C452 C106 2.275 . S
C487 C51 0.624 . S
C502 C9 0.621 . S
C537 C65 0.622 . S
C552 C23 0.623 . S
C587 C79 0.623 . S
C602 C37 0.621 . S
C637 C93 0.623 . S
C652 C135 0.622 . S
C687 C107 0.624 . S
C702 C149 0.622 . S
C737 C121 0.621 . S
C752 C163 0.624 . S
C787 C7 1.531 . S
C802 C133 1.532 . S
C837 C21 1.531 . S
C852 C147 1.531 . S
C887 C35 1.532 . S
C902 C161 1.531 . S
C937 C91 1.532 . S
C952 C49 1.531 . S
C987 C63 1.531 . S
C1002 C105 1.531 . S
C1037 C119 1.531 . S
C1052 C77 1.532 . S
C1087 C160 1.061 . S
C1102 C6 1.061 . S
C1137 C20 1.061 . S
C1152 C90 1.061 . S
C1187 C104 1.061 . S
C1202 C34 1.061 . S
C1237 C48 1.061 . S
C1252 C118 1.061 . S
C1287 C62 1.061 . S
C1302 C132 1.061 . S
C1337 C146 1.061 . S
C1352 C76 1.061 . S
