# Generated by pormake.
# Topology ure, (4)-cn, num edge types: 1
# Building blocks:
#     Node 0, Type 0, BuildingBlock: QUQFOY_clean_sbu_1, # of connection points: 4
#     Node 1, Type 0, BuildingBlock: QUQFOY_clean_sbu_1, # of connection points: 4
#     Node 2, Type 0, BuildingBlock: QUQFOY_clean_sbu_1, # of connection points: 4
#     Node 3, Type 0, BuildingBlock: QUQFOY_clean_sbu_1, # of connection points: 4
#     Node 4, Type 0, BuildingBlock: QUQFOY_clean_sbu_1, # of connection points: 4
#     Node 5, Type 0, BuildingBlock: QUQFOY_clean_sbu_1, # of connection points: 4
#     Node 6, Type 0, BuildingBlock: QUQFOY_clean_sbu_1, # of connection points: 4
#     Node 7, Type 0, BuildingBlock: QUQFOY_clean_sbu_1, # of connection points: 4
#     Node 8, Type 0, BuildingBlock: QUQFOY_clean_sbu_1, # of connection points: 4
#     Node 9, Type 0, BuildingBlock: QUQFOY_clean_sbu_1, # of connection points: 4
#     Node 10, Type 0, BuildingBlock: QUQFOY_clean_sbu_1, # of connection points: 4
#     Node 11, Type 0, BuildingBlock: QUQFOY_clean_sbu_1, # of connection points: 4
#     Node 12, Type 0, BuildingBlock: QUQFOY_clean_sbu_1, # of connection points: 4
#     Node 13, Type 0, BuildingBlock: QUQFOY_clean_sbu_1, # of connection points: 4
#     Node 14, Type 0, BuildingBlock: QUQFOY_clean_sbu_1, # of connection points: 4
#     Node 15, Type 0, BuildingBlock: QUQFOY_clean_sbu_1, # of connection points: 4
#     Edge 16, Type (0, 0), BuildingBlock: TEMPAE_clean_linker_10, # of connection points: 2
#     Edge 17, Type (0, 0), BuildingBlock: TEMPAE_clean_linker_10, # of connection points: 2
#     Edge 18, Type (0, 0), BuildingBlock: TEMPAE_clean_linker_10, # of connection points: 2
#     Edge 19, Type (0, 0), BuildingBlock: TEMPAE_clean_linker_10, # of connection points: 2
#     Edge 20, Type (0, 0), BuildingBlock: TEMPAE_clean_linker_10, # of connection points: 2
#     Edge 21, Type (0, 0), BuildingBlock: TEMPAE_clean_linker_10, # of connection points: 2
#     Edge 22, Type (0, 0), BuildingBlock: TEMPAE_clean_linker_10, # of connection points: 2
#     Edge 23, Type (0, 0), BuildingBlock: TEMPAE_clean_linker_10, # of connection points: 2
#     Edge 24, Type (0, 0), BuildingBlock: TEMPAE_clean_linker_10, # of connection points: 2
#     Edge 25, Type (0, 0), BuildingBlock: TEMPAE_clean_linker_10, # of connection points: 2
#     Edge 26, Type (0, 0), BuildingBlock: TEMPAE_clean_linker_10, # of connection points: 2
#     Edge 27, Type (0, 0), BuildingBlock: TEMPAE_clean_linker_10, # of connection points: 2
#     Edge 28, Type (0, 0), BuildingBlock: TEMPAE_clean_linker_10, # of connection points: 2
#     Edge 29, Type (0, 0), BuildingBlock: TEMPAE_clean_linker_10, # of connection points: 2
#     Edge 30, Type (0, 0), BuildingBlock: TEMPAE_clean_linker_10, # of connection points: 2
#     Edge 31, Type (0, 0), BuildingBlock: TEMPAE_clean_linker_10, # of connection points: 2
#     Edge 32, Type (0, 0), BuildingBlock: TEMPAE_clean_linker_10, # of connection points: 2
#     Edge 33, Type (0, 0), BuildingBlock: TEMPAE_clean_linker_10, # of connection points: 2
#     Edge 34, Type (0, 0), BuildingBlock: TEMPAE_clean_linker_10, # of connection points: 2
#     Edge 35, Type (0, 0), BuildingBlock: TEMPAE_clean_linker_10, # of connection points: 2
#     Edge 36, Type (0, 0), BuildingBlock: TEMPAE_clean_linker_10, # of connection points: 2
#     Edge 37, Type (0, 0), BuildingBlock: TEMPAE_clean_linker_10, # of connection points: 2
#     Edge 38, Type (0, 0), BuildingBlock: TEMPAE_clean_linker_10, # of connection points: 2
#     Edge 39, Type (0, 0), BuildingBlock: TEMPAE_clean_linker_10, # of connection points: 2
#     Edge 40, Type (0, 0), BuildingBlock: TEMPAE_clean_linker_10, # of connection points: 2
#     Edge 41, Type (0, 0), BuildingBlock: TEMPAE_clean_linker_10, # of connection points: 2
#     Edge 42, Type (0, 0), BuildingBlock: TEMPAE_clean_linker_10, # of connection points: 2
#     Edge 43, Type (0, 0), BuildingBlock: TEMPAE_clean_linker_10, # of connection points: 2
#     Edge 44, Type (0, 0), BuildingBlock: TEMPAE_clean_linker_10, # of connection points: 2
#     Edge 45, Type (0, 0), BuildingBlock: TEMPAE_clean_linker_10, # of connection points: 2
#     Edge 46, Type (0, 0), BuildingBlock: TEMPAE_clean_linker_10, # of connection points: 2
#     Edge 47, Type (0, 0), BuildingBlock: TEMPAE_clean_linker_10, # of connection points: 2
# Relax obj value: 0.280
# Max RMSD: 0.317
# Mean RMSD: 0.224
data_MOF--net-ure--node1-QUQFOY_clean_sbu_1--edge1-TEMPAE_clean_linker_10
_symmetry_space_group_name_H-M    P1
_symmetry_Int_Tables_number       1
_symmetry_cell_setting            triclinic
loop_
_symmetry_equiv_pos_as_xyz
'x, y, z'
_cell_length_a     31.530479
_cell_length_b     34.648375
_cell_length_c     32.827494
_cell_angle_alpha  94.143289
_cell_angle_beta   94.408328
_cell_angle_gamma 97.466372
loop_
_atom_site_label
_atom_site_type_symbol
_atom_site_fract_x
_atom_site_fract_y
_atom_site_fract_z
_atom_type_partial_charge
O0 O 0.34799 0.28093 0.2535 0.0
Cd1 Cd 0.28876 0.27017 0.27697 0.0
Cd2 Cd 0.31371 0.35587 0.30179 0.0
O3 O 0.36577 0.34399 0.27203 0.0
O4 O 0.2677 0.21541 0.25353 0.0
O5 O 0.23305 0.26518 0.24056 0.0
C6 C 0.23569 0.22832 0.23481 0.0
C7 C 0.30084 0.42127 0.30124 0.0
C8 C 0.37433 0.31221 0.25501 0.0
C9 C 0.29833 0.29804 0.36721 0.0
O10 O 0.30785 0.33254 0.35695 0.0
O11 O 0.28849 0.26923 0.34031 0.0
O12 O 0.33349 0.4115 0.32186 0.0
O13 O 0.27466 0.39368 0.28074 0.0
O14 O 0.98567 0.96926 0.57824 0.0
Cd15 Cd 0.97111 0.96553 0.51515 0.0
Cd16 Cd 0.95134 0.03897 0.53413 0.0
O17 O 0.97921 0.03156 0.59114 0.0
O18 O 0.99819 0.92064 0.49298 0.0
O19 O 0.01832 0.98157 0.47926 0.0
C20 C 0.02331 0.9451 0.47502 0.0
C21 C 0.961 0.10004 0.50747 0.0
C22 C 0.98834 0.99941 0.60335 0.0
C23 C 0.87938 0.97625 0.50144 0.0
O24 O 0.89093 0.00977 0.52002 0.0
O25 O 0.90702 0.95409 0.49263 0.0
O26 O 0.97839 0.07137 0.49164 0.0
O27 O 0.93992 0.09417 0.53901 0.0
O28 O 0.22127 0.77042 0.77859 0.0
Cd29 Cd 0.28539 0.79081 0.79422 0.0
Cd30 Cd 0.28284 0.71423 0.81741 0.0
O31 O 0.22084 0.70851 0.79058 0.0
O32 O 0.2953 0.83771 0.76286 0.0
O33 O 0.32794 0.78546 0.75226 0.0
C34 C 0.32085 0.81957 0.74211 0.0
C35 C 0.31755 0.65819 0.81492 0.0
C36 C 0.20145 0.73603 0.77837 0.0
C37 C 0.30271 0.78307 0.8828 0.0
O38 O 0.29388 0.74667 0.87267 0.0
O39 O 0.30418 0.80741 0.8556 0.0
O40 O 0.28483 0.66085 0.83547 0.0
O41 O 0.33076 0.68741 0.79478 0.0
O42 O 0.54838 0.95731 0.91836 0.0
Cd43 Cd 0.48211 0.94381 0.91027 0.0
Cd44 Cd 0.49103 0.93721 0.99046 0.0
O45 O 0.54796 0.97187 0.98468 0.0
O46 O 0.45703 0.97528 0.86804 0.0
O47 O 0.45134 0.98566 0.93486 0.0
C48 C 0.44485 0.99616 0.89811 0.0
C49 C 0.4654 0.94171 0.05568 0.0
C50 C 0.56799 0.97148 0.95258 0.0
C51 C 0.47043 0.8638 0.932 0.0
O52 O 0.48643 0.88028 0.96653 0.0
O53 O 0.45884 0.88429 0.90359 0.0
O54 O 0.50031 0.92784 0.04917 0.0
O55 O 0.44466 0.95411 0.02496 0.0
O56 O 0.3007 0.73087 0.32372 0.0
Cd57 Cd 0.31765 0.79063 0.33417 0.0
Cd58 Cd 0.33411 0.78408 0.2508 0.0
O59 O 0.31301 0.72626 0.25827 0.0
O60 O 0.28792 0.80964 0.38134 0.0
O61 O 0.27489 0.82615 0.31804 0.0
C62 C 0.2668 0.82858 0.35612 0.0
C63 C 0.33023 0.80238 0.18325 0.0
C64 C 0.30162 0.71035 0.29014 0.0
C65 C 0.40685 0.81601 0.3171 0.0
O66 O 0.39232 0.80748 0.28003 0.0
O67 O 0.38228 0.81121 0.34571 0.0
O68 O 0.35545 0.7786 0.19563 0.0
O69 O 0.30483 0.81468 0.20874 0.0
O70 O 0.44 0.94059 0.37237 0.0
Cd71 Cd 0.47125 0.93857 0.42974 0.0
Cd72 Cd 0.49973 0.01875 0.42214 0.0
O73 O 0.46503 1.00225 0.36675 0.0
O74 O 0.44151 0.89476 0.45723 0.0
O75 O 0.4484 0.95687 0.48186 0.0
C76 C 0.43545 0.92047 0.48593 0.0
C77 C 0.50184 0.08586 0.44108 0.0
C78 C 0.44316 0.97034 0.35173 0.0
C79 C 0.56558 0.9623 0.43477 0.0
O80 O 0.55697 0.99698 0.43271 0.0
O81 O 0.53578 0.93365 0.4331 0.0
O82 O 0.52249 0.0732 0.41182 0.0
O83 O 0.48026 0.06024 0.46082 0.0
O84 O 0.36383 0.36942 0.82416 0.0
Cd85 Cd 0.32715 0.31503 0.82584 0.0
Cd86 Cd 0.30048 0.32345 0.74327 0.0
O87 O 0.34164 0.37394 0.75947 0.0
O88 O 0.34936 0.2825 0.86842 0.0
O89 O 0.34658 0.26595 0.80158 0.0
C90 C 0.35495 0.25751 0.83884 0.0
C91 C 0.29595 0.30465 0.6724 0.0
C92 C 0.3636 0.38846 0.79236 0.0
C93 C 0.23356 0.31787 0.80542 0.0
O94 O 0.24239 0.31963 0.76843 0.0
O95 O 0.26277 0.3156 0.83368 0.0
O96 O 0.27996 0.33445 0.68684 0.0
O97 O 0.31452 0.28457 0.69829 0.0
O98 O 0.00146 0.99543 0.92824 0.0
Cd99 Cd 0.98081 0.00586 0.98582 0.0
Cd100 Cd 0.94944 0.92137 0.97125 0.0
O101 O 0.96949 0.93463 0.91495 0.0
O102 O 0.00904 0.06025 0.00392 0.0
O103 O 0.01979 0.00941 0.03834 0.0
C104 C 0.02773 0.04651 0.03491 0.0
C105 C 0.9533 0.85604 0.98519 0.0
C106 C 0.99086 0.96507 0.9036 0.0
C107 C 0.88638 0.97789 0.99031 0.0
O108 O 0.89523 0.9431 0.98782 0.0
O109 O 0.91536 0.00675 0.98826 0.0
O110 O 0.92533 0.86517 0.9583 0.0
O111 O 0.97924 0.88421 0.00504 0.0
O112 O 0.81312 0.18118 0.81061 0.0
Cd113 Cd 0.82646 0.24192 0.81619 0.0
Cd114 Cd 0.84365 0.23126 0.7363 0.0
O115 O 0.82208 0.17427 0.74465 0.0
O116 O 0.79478 0.26297 0.86128 0.0
O117 O 0.78098 0.27353 0.79618 0.0
C118 C 0.77237 0.27854 0.83394 0.0
C119 C 0.82918 0.24988 0.67007 0.0
C120 C 0.81304 0.1594 0.77764 0.0
C121 C 0.917 0.26494 0.79875 0.0
O122 O 0.90409 0.25167 0.76227 0.0
O123 O 0.89069 0.26618 0.82614 0.0
O124 O 0.85517 0.2252 0.67782 0.0
O125 O 0.81084 0.26451 0.70026 0.0
O126 O 0.94884 0.43471 0.87587 0.0
Cd127 Cd 0.97891 0.43093 0.93293 0.0
Cd128 Cd 0.0078 0.51108 0.93312 0.0
O129 O 0.97752 0.4962 0.87495 0.0
O130 O 0.95472 0.38308 0.95774 0.0
O131 O 0.95133 0.44326 0.98444 0.0
C132 C 0.94381 0.40592 0.98678 0.0
C133 C 0.00165 0.57572 0.95697 0.0
C134 C 0.9552 0.46553 0.85718 0.0
C135 C 0.07383 0.4563 0.94186 0.0
O136 O 0.06633 0.49146 0.94601 0.0
O137 O 0.04357 0.42827 0.93438 0.0
O138 O 0.0259 0.5679 0.92862 0.0
O139 O 0.98159 0.54663 0.97326 0.0
O140 O 0.84105 0.86511 0.31965 0.0
Cd141 Cd 0.81103 0.81016 0.32767 0.0
Cd142 Cd 0.77668 0.80468 0.24878 0.0
O143 O 0.80364 0.86264 0.25966 0.0
O144 O 0.8393 0.78172 0.37041 0.0
O145 O 0.83128 0.7615 0.30407 0.0
C146 C 0.84381 0.75573 0.34135 0.0
C147 C 0.77538 0.78133 0.17938 0.0
C148 C 0.82887 0.88181 0.28839 0.0
C149 C 0.71604 0.79828 0.31393 0.0
O150 O 0.72112 0.78897 0.27668 0.0
O151 O 0.7481 0.81041 0.3394 0.0
O152 O 0.80091 0.76925 0.2068 0.0
O153 O 0.75066 0.80564 0.19157 0.0
O154 O 0.06378 0.46785 0.41733 0.0
Cd155 Cd 0.99764 0.45492 0.41619 0.0
Cd156 Cd 0.01578 0.45146 0.49542 0.0
O157 O 0.0718 0.4841 0.48382 0.0
O158 O 0.96766 0.48355 0.37448 0.0
O159 O 0.96922 0.49781 0.44176 0.0
C160 C 0.95821 0.50581 0.40485 0.0
C161 C 0.99301 0.45949 0.56151 0.0
C162 C 0.08757 0.48196 0.44941 0.0
C163 C 0.98946 0.37633 0.44177 0.0
O164 O 0.00973 0.39384 0.47414 0.0
O165 O 0.97409 0.39577 0.41415 0.0
O166 O 0.02816 0.44609 0.55483 0.0
O167 O 0.9707 0.46977 0.53052 0.0
O168 O 0.49036 0.44304 0.03665 0.0
Cd169 Cd 0.4762 0.43367 0.97391 0.0
Cd170 Cd 0.46861 0.51623 0.98539 0.0
O171 O 0.49941 0.5077 0.04157 0.0
O172 O 0.50027 0.38552 0.9554 0.0
O173 O 0.52417 0.44421 0.93737 0.0
C174 C 0.52702 0.40725 0.9361 0.0
C175 C 0.4717 0.5807 0.96598 0.0
C176 C 0.50138 0.47558 0.05771 0.0
C177 C 0.3897 0.45466 0.9565 0.0
O178 O 0.4071 0.4887 0.97015 0.0
O179 O 0.41208 0.42689 0.95271 0.0
O180 O 0.45275 0.56951 0.99718 0.0
O181 O 0.49183 0.55588 0.94676 0.0
O182 O 0.85866 0.72143 0.77693 0.0
Cd183 Cd 0.79538 0.72366 0.78853 0.0
Cd184 Cd 0.8268 0.80577 0.80549 0.0
O185 O 0.88088 0.78504 0.78658 0.0
O186 O 0.76048 0.67411 0.76314 0.0
O187 O 0.7541 0.73211 0.74098 0.0
C188 C 0.74279 0.69471 0.73722 0.0
C189 C 0.81931 0.87123 0.79511 0.0
C190 C 0.88818 0.7503 0.77777 0.0
C191 C 0.79346 0.75949 0.87461 0.0
O192 O 0.81048 0.7911 0.86191 0.0
O193 O 0.7829 0.72906 0.84996 0.0
O194 O 0.8494 0.86208 0.8197 0.0
O195 O 0.79366 0.84302 0.77499 0.0
O196 O 0.70419 0.29009 0.267 0.0
Cd197 Cd 0.76813 0.28812 0.28481 0.0
Cd198 Cd 0.7378 0.21443 0.29701 0.0
O199 O 0.68341 0.22648 0.26446 0.0
O200 O 0.8023 0.33098 0.25943 0.0
O201 O 0.80204 0.26808 0.24064 0.0
C202 C 0.81441 0.30428 0.23524 0.0
C203 C 0.76303 0.15392 0.28847 0.0
C204 C 0.67541 0.26074 0.25842 0.0
C205 C 0.76923 0.26938 0.37107 0.0
O206 O 0.74616 0.23801 0.35638 0.0
O207 O 0.78665 0.29296 0.34734 0.0
O208 O 0.7271 0.15734 0.30363 0.0
O209 O 0.78399 0.18478 0.27601 0.0
O210 O 0.51471 0.51819 0.38669 0.0
Cd211 Cd 0.49856 0.52011 0.44664 0.0
Cd212 Cd 0.47801 0.4368 0.42648 0.0
O213 O 0.50692 0.45373 0.37506 0.0
O214 O 0.52382 0.57142 0.47633 0.0
O215 O 0.54219 0.51485 0.49354 0.0
C216 C 0.54613 0.55242 0.50041 0.0
C217 C 0.48159 0.37176 0.44085 0.0
C218 C 0.51717 0.48765 0.36348 0.0
C219 C 0.40657 0.48532 0.4457 0.0
O220 O 0.41846 0.45276 0.43494 0.0
O221 O 0.43381 0.51585 0.45333 0.0
O222 O 0.45905 0.38051 0.40944 0.0
O223 O 0.50333 0.40016 0.46431 0.0
C224 C 0.16164 0.20923 0.1994 0.0
C225 C 0.20401 0.2016 0.20674 0.0
C226 C 0.13157 0.18362 0.17295 0.0
C227 C 0.14461 0.15033 0.15231 0.0
C228 C 0.18754 0.14282 0.15935 0.0
C229 C 0.21647 0.16817 0.18694 0.0
C230 C 0.08583 0.19211 0.16719 0.0
C231 C 0.20322 0.10841 0.1371 0.0
C232 C 0.06314 0.06415 0.10612 0.0
C233 C 0.05749 0.07276 0.06515 0.0
C234 C 0.09048 0.08964 0.1351 0.0
C235 C 0.11382 0.12388 0.12248 0.0
C236 C 0.10861 0.13234 0.08095 0.0
C237 C 0.08002 0.10704 0.053 0.0
C238 C 0.09418 0.0801 0.17927 0.0
C239 C 0.13381 0.1678 0.06585 0.0
H240 H 0.15181 0.23489 0.21488 0.0
H241 H 0.24931 0.16231 0.19225 0.0
H242 H 0.07781 0.1976 0.13482 0.0
H243 H 0.06344 0.16638 0.17398 0.0
H244 H 0.08022 0.21787 0.18721 0.0
H245 H 0.23776 0.10701 0.1455 0.0
H246 H 0.18436 0.08077 0.14414 0.0
H247 H 0.19837 0.11026 0.10348 0.0
H248 H 0.04547 0.03786 0.11571 0.0
H249 H 0.07596 0.11369 0.02128 0.0
H250 H 0.08673 0.10499 0.19945 0.0
H251 H 0.12758 0.07548 0.1886 0.0
H252 H 0.07222 0.05351 0.18455 0.0
H253 H 0.1264 0.19477 0.08251 0.0
H254 H 0.12671 0.16981 0.03245 0.0
H255 H 0.16873 0.16684 0.07215 0.0
C256 C 0.05747 0.89138 0.44179 0.0
C257 C 0.05781 0.93145 0.45186 0.0
C258 C 0.09155 0.87727 0.42309 0.0
C259 C 0.12719 0.90384 0.4146 0.0
C260 C 0.12716 0.94447 0.42345 0.0
C261 C 0.0923 0.95784 0.44181 0.0
C262 C 0.09004 0.83376 0.4137 0.0
C263 C 0.16469 0.97366 0.41507 0.0
C264 C 0.23075 0.85928 0.41273 0.0
C265 C 0.23334 0.85124 0.37058 0.0
C266 C 0.19741 0.87801 0.42734 0.0
C267 C 0.1655 0.88858 0.39914 0.0
C268 C 0.16869 0.88173 0.35649 0.0
C269 C 0.20276 0.86331 0.34268 0.0
C270 C 0.19553 0.88522 0.47307 0.0
C271 C 0.13516 0.89235 0.32549 0.0
H272 H 0.03075 0.87082 0.44914 0.0
H273 H 0.0928 0.98885 0.44957 0.0
H274 H 0.09604 0.82714 0.38124 0.0
H275 H 0.11572 0.82304 0.43308 0.0
H276 H 0.05868 0.81729 0.41935 0.0
H277 H 0.15825 0.00429 0.4206 0.0
H278 H 0.19343 0.96963 0.4352 0.0
H279 H 0.1726 0.9688 0.38292 0.0
H280 H 0.25453 0.8504 0.43447 0.0
H281 H 0.20458 0.85719 0.31006 0.0
H282 H 0.16707 0.86696 0.48272 0.0
H283 H 0.19192 0.91619 0.48121 0.0
H284 H 0.22466 0.87824 0.49074 0.0
H285 H 0.10409 0.8739 0.32791 0.0
H286 H 0.14416 0.88817 0.29356 0.0
H287 H 0.13003 0.9232 0.33185 0.0
C288 C 0.38886 0.8728 0.5222 0.0
C289 C 0.41649 0.90805 0.52343 0.0
C290 C 0.37282 0.85929 0.55807 0.0
C291 C 0.38581 0.881 0.59622 0.0
C292 C 0.41364 0.9167 0.59758 0.0
C293 C 0.42817 0.93009 0.56104 0.0
C294 C 0.34216 0.8217 0.55515 0.0
C295 C 0.42892 0.94025 0.63773 0.0
C296 C 0.31789 0.86358 0.68549 0.0
C297 C 0.33904 0.83652 0.70612 0.0
C298 C 0.33268 0.87819 0.64964 0.0
C299 C 0.37025 0.86628 0.63467 0.0
C300 C 0.39243 0.83974 0.656 0.0
C301 C 0.37618 0.82471 0.69119 0.0
C302 C 0.30747 0.90559 0.62722 0.0
C303 C 0.43317 0.82707 0.64153 0.0
H304 H 0.37967 0.85579 0.4931 0.0
H305 H 0.44994 0.95714 0.56211 0.0
H306 H 0.35677 0.79968 0.57243 0.0
H307 H 0.31227 0.82675 0.56927 0.0
H308 H 0.33355 0.80939 0.52294 0.0
H309 H 0.45084 0.96722 0.63357 0.0
H310 H 0.4011 0.94862 0.65334 0.0
H311 H 0.44602 0.92225 0.65839 0.0
H312 H 0.28886 0.87246 0.69667 0.0
H313 H 0.39266 0.80389 0.70716 0.0
H314 H 0.29668 0.89261 0.59563 0.0
H315 H 0.32814 0.93356 0.62449 0.0
H316 H 0.27884 0.91193 0.64288 0.0
H317 H 0.42632 0.81092 0.61081 0.0
H318 H 0.44784 0.80801 0.66281 0.0
H319 H 0.45693 0.85306 0.63843 0.0
C320 C 0.44315 0.06685 0.91711 0.0
C321 C 0.42809 0.03329 0.89096 0.0
C322 C 0.43169 0.10349 0.90848 0.0
C323 C 0.40296 0.10638 0.87379 0.0
C324 C 0.38638 0.0722 0.84814 0.0
C325 C 0.39998 0.03622 0.85648 0.0
C326 C 0.45145 0.13928 0.93576 0.0
C327 C 0.35431 0.07362 0.81188 0.0
C328 C 0.34625 0.19708 0.87576 0.0
C329 C 0.36775 0.2192 0.84764 0.0
C330 C 0.35652 0.15989 0.88364 0.0
C331 C 0.3905 0.1452 0.86433 0.0
C332 C 0.41292 0.16792 0.83647 0.0
C333 C 0.40056 0.20428 0.82771 0.0
C334 C 0.3306 0.1361 0.9122 0.0
C335 C 0.45044 0.15416 0.81649 0.0
H336 H 0.4655 0.06473 0.94341 0.0
H337 H 0.38837 0.01026 0.83623 0.0
H338 H 0.46876 0.16074 0.91722 0.0
H339 H 0.42601 0.15364 0.94974 0.0
H340 H 0.47431 0.13224 0.96072 0.0
H341 H 0.34204 0.04408 0.79689 0.0
H342 H 0.32671 0.08771 0.82178 0.0
H343 H 0.36935 0.09155 0.78884 0.0
H344 H 0.32048 0.20849 0.89078 0.0
H345 H 0.41726 0.22152 0.80608 0.0
H346 H 0.35147 0.13098 0.93948 0.0
H347 H 0.31744 0.10706 0.89656 0.0
H348 H 0.30356 0.15069 0.92273 0.0
H349 H 0.47497 0.14797 0.84035 0.0
H350 H 0.46573 0.17604 0.7971 0.0
H351 H 0.43973 0.12655 0.79711 0.0
C352 C 0.70701 0.31053 0.81605 0.0
C353 C 0.73729 0.30067 0.84578 0.0
C354 C 0.6723 0.32949 0.82739 0.0
C355 C 0.66805 0.33922 0.86942 0.0
C356 C 0.69924 0.33032 0.89943 0.0
C357 C 0.73326 0.31101 0.88728 0.0
C358 C 0.63957 0.33818 0.7945 0.0
C359 C 0.69624 0.34055 0.94455 0.0
C360 C 0.59696 0.41427 0.90372 0.0
C361 C 0.56122 0.39025 0.91511 0.0
C362 C 0.63152 0.39813 0.88767 0.0
C363 C 0.63006 0.357 0.88245 0.0
C364 C 0.59321 0.33268 0.89226 0.0
C365 C 0.55942 0.34957 0.90867 0.0
C366 C 0.67031 0.42507 0.87785 0.0
C367 C 0.59003 0.28871 0.88669 0.0
H368 H 0.70984 0.3026 0.78392 0.0
H369 H 0.75664 0.30377 0.91046 0.0
H370 H 0.60783 0.32149 0.79834 0.0
H371 H 0.63582 0.36962 0.7974 0.0
H372 H 0.64851 0.33045 0.76315 0.0
H373 H 0.72433 0.3336 0.96383 0.0
H374 H 0.69393 0.37213 0.95026 0.0
H375 H 0.6667 0.32419 0.95447 0.0
H376 H 0.59865 0.44572 0.90867 0.0
H377 H 0.53179 0.33077 0.91709 0.0
H378 H 0.6784 0.41755 0.84622 0.0
H379 H 0.69843 0.42134 0.89896 0.0
H380 H 0.66524 0.45625 0.88081 0.0
H381 H 0.59659 0.27928 0.85503 0.0
H382 H 0.55792 0.27401 0.89269 0.0
H383 H 0.61461 0.27864 0.90793 0.0
C384 C 0.94249 0.35851 0.04012 0.0
C385 C 0.92546 0.38959 0.0228 0.0
C386 C 0.92692 0.34347 0.0755 0.0
C387 C 0.89226 0.35881 0.09285 0.0
C388 C 0.87427 0.38963 0.07477 0.0
C389 C 0.89178 0.40527 0.04043 0.0
C390 C 0.9481 0.31173 0.09474 0.0
C391 C 0.83629 0.40583 0.09144 0.0
C392 C 0.82547 0.29581 0.16113 0.0
C393 C 0.83806 0.31529 0.19989 0.0
C394 C 0.84288 0.30962 0.12596 0.0
C395 C 0.87485 0.34275 0.12999 0.0
C396 C 0.88923 0.36124 0.16945 0.0
C397 C 0.86991 0.34781 0.20387 0.0
C398 C 0.82561 0.28991 0.08437 0.0
C399 C 0.92444 0.39563 0.17524 0.0
H400 H 0.96894 0.34675 0.02666 0.0
H401 H 0.87856 0.4292 0.02681 0.0
H402 H 0.95965 0.32136 0.12713 0.0
H403 H 0.92452 0.28507 0.09496 0.0
H404 H 0.9757 0.30399 0.07827 0.0
H405 H 0.82455 0.42816 0.07243 0.0
H406 H 0.80957 0.38185 0.09288 0.0
H407 H 0.84516 0.4193 0.12313 0.0
H408 H 0.80027 0.27104 0.15806 0.0
H409 H 0.87954 0.36284 0.23393 0.0
H410 H 0.85204 0.28012 0.06763 0.0
H411 H 0.81098 0.31108 0.06579 0.0
H412 H 0.80102 0.26427 0.08655 0.0
H413 H 0.95269 0.38864 0.15939 0.0
H414 H 0.93483 0.40415 0.20813 0.0
H415 H 0.9131 0.42111 0.16137 0.0
C416 C 0.95564 0.5769 0.41954 0.0
C417 C 0.93874 0.54147 0.39738 0.0
C418 C 0.94072 0.61201 0.41021 0.0
C419 C 0.90676 0.61136 0.37916 0.0
C420 C 0.88856 0.5753 0.3577 0.0
C421 C 0.90551 0.54089 0.36639 0.0
C422 C 0.96218 0.6499 0.43273 0.0
C423 C 0.85115 0.57305 0.32562 0.0
C424 C 0.84536 0.69899 0.38353 0.0
C425 C 0.86049 0.71923 0.35097 0.0
C426 C 0.85924 0.66333 0.39231 0.0
C427 C 0.89049 0.64846 0.3691 0.0
C428 C 0.90654 0.66934 0.33666 0.0
C429 C 0.89055 0.70405 0.32735 0.0
C430 C 0.83996 0.64128 0.42599 0.0
C431 C 0.94108 0.65537 0.31223 0.0
H432 H 0.98185 0.57739 0.44307 0.0
H433 H 0.89249 0.51343 0.34928 0.0
H434 H 0.9747 0.67019 0.41043 0.0
H435 H 0.93854 0.66431 0.44952 0.0
H436 H 0.98917 0.64553 0.45498 0.0
H437 H 0.8387 0.54247 0.31392 0.0
H438 H 0.82468 0.58676 0.33859 0.0
H439 H 0.86102 0.58952 0.2994 0.0
H440 H 0.82165 0.71055 0.40143 0.0
H441 H 0.9023 0.71985 0.30224 0.0
H442 H 0.86519 0.63884 0.45076 0.0
H443 H 0.82635 0.61113 0.41381 0.0
H444 H 0.8142 0.65567 0.43951 0.0
H445 H 0.96939 0.65176 0.33317 0.0
H446 H 0.95157 0.67593 0.28936 0.0
H447 H 0.92924 0.62641 0.29586 0.0
C448 C 0.6136 0.56069 0.54765 0.0
C449 C 0.57448 0.57327 0.53537 0.0
C450 C 0.64112 0.58112 0.58017 0.0
C451 C 0.62838 0.61396 0.60196 0.0
C452 C 0.58835 0.62613 0.59018 0.0
C453 C 0.56232 0.60612 0.55654 0.0
C454 C 0.68411 0.56793 0.5908 0.0
C455 C 0.57273 0.65998 0.61346 0.0
C456 C 0.68347 0.64228 0.70938 0.0
C457 C 0.71189 0.67553 0.70325 0.0
C458 C 0.6553 0.62261 0.67697 0.0
C459 C 0.65685 0.63555 0.63706 0.0
C460 C 0.68579 0.66904 0.63071 0.0
C461 C 0.71236 0.68907 0.66406 0.0
C462 C 0.62384 0.58802 0.68548 0.0
C463 C 0.68951 0.68308 0.58849 0.0
H464 H 0.62317 0.53545 0.53113 0.0
H465 H 0.53185 0.61566 0.54733 0.0
H466 H 0.7102 0.5925 0.58945 0.0
H467 H 0.68594 0.55905 0.6226 0.0
H468 H 0.69003 0.54299 0.56977 0.0
H469 H 0.53999 0.66464 0.60156 0.0
H470 H 0.57232 0.65475 0.64639 0.0
H471 H 0.59498 0.68719 0.61148 0.0
H472 H 0.68298 0.63187 0.73973 0.0
H473 H 0.73472 0.7145 0.65918 0.0
H474 H 0.63105 0.56118 0.66841 0.0
H475 H 0.59073 0.59239 0.67461 0.0
H476 H 0.62479 0.58324 0.71862 0.0
H477 H 0.69776 0.6593 0.56728 0.0
H478 H 0.71435 0.70896 0.58851 0.0
H479 H 0.65829 0.69084 0.57612 0.0
C480 C 0.32689 0.31922 0.43917 0.0
C481 C 0.30037 0.29206 0.41144 0.0
C482 C 0.32766 0.31622 0.4815 0.0
C483 C 0.30073 0.28557 0.49667 0.0
C484 C 0.27515 0.25709 0.46881 0.0
C485 C 0.27554 0.26049 0.42637 0.0
C486 C 0.35593 0.34696 0.50995 0.0
C487 C 0.24582 0.22418 0.48386 0.0
C488 C 0.32211 0.27186 0.61014 0.0
C489 C 0.29421 0.29549 0.62749 0.0
C490 C 0.32366 0.2671 0.56734 0.0
C491 C 0.29628 0.28603 0.54152 0.0
C492 C 0.2667 0.3084 0.55891 0.0
C493 C 0.26617 0.31297 0.60161 0.0
C494 C 0.35595 0.24344 0.5499 0.0
C495 C 0.2368 0.32895 0.53251 0.0
H496 H 0.34683 0.3433 0.42777 0.0
H497 H 0.25516 0.23936 0.40501 0.0
H498 H 0.37466 0.3331 0.53343 0.0
H499 H 0.37864 0.36591 0.49325 0.0
H500 H 0.3356 0.36571 0.52628 0.0
H501 H 0.23142 0.2023 0.45852 0.0
H502 H 0.26357 0.20922 0.50708 0.0
H503 H 0.21949 0.2362 0.49895 0.0
H504 H 0.34394 0.25839 0.63 0.0
H505 H 0.24425 0.33103 0.61478 0.0
H506 H 0.38064 0.26303 0.53614 0.0
H507 H 0.3401 0.22172 0.52509 0.0
H508 H 0.37231 0.22786 0.5736 0.0
H509 H 0.25574 0.35233 0.51753 0.0
H510 H 0.21323 0.34236 0.5505 0.0
H511 H 0.21898 0.30816 0.50784 0.0
C512 C 0.03181 0.99339 0.84769 0.0
C513 C 0.99891 0.9666 0.85989 0.0
C514 C 0.0363 0.99781 0.80594 0.0
C515 C 0.00607 0.97612 0.77591 0.0
C516 C 0.97348 0.94832 0.78812 0.0
C517 C 0.97096 0.9433 0.82988 0.0
C518 C 0.07251 0.02658 0.79407 0.0
C519 C 0.93943 0.92574 0.75739 0.0
C520 C 0.98 0.02033 0.67618 0.0
C521 C 0.99748 0.99608 0.64775 0.0
C522 C 0.98338 0.01462 0.71809 0.0
C523 C 0.00598 0.9847 0.73213 0.0
C524 C 0.02568 0.96145 0.70385 0.0
C525 C 0.02058 0.96699 0.66184 0.0
C526 C 0.96121 0.03955 0.74709 0.0
C527 C 0.05107 0.93005 0.71786 0.0
H528 H 0.05375 0.0112 0.87079 0.0
H529 H 0.94547 0.92255 0.83913 0.0
H530 H 0.08852 0.01341 0.7686 0.0
H531 H 0.05956 0.0526 0.7831 0.0
H532 H 0.0969 0.03641 0.82026 0.0
H533 H 0.91909 0.90248 0.77132 0.0
H534 H 0.91838 0.94611 0.74473 0.0
H535 H 0.95419 0.91212 0.73137 0.0
H536 H 0.9618 0.04266 0.66545 0.0
H537 H 0.03433 0.94833 0.63997 0.0
H538 H 0.98524 0.05694 0.76995 0.0
H539 H 0.93903 0.02064 0.76423 0.0
H540 H 0.94269 0.05992 0.73093 0.0
H541 H 0.07473 0.94196 0.74397 0.0
H542 H 0.0684 0.91764 0.69289 0.0
H543 H 0.02918 0.90603 0.7288 0.0
C544 C 0.29333 0.7702 0.95501 0.0
C545 C 0.30876 0.79614 0.92701 0.0
C546 C 0.29854 0.78053 0.99713 0.0
C547 C 0.32002 0.81788 0.01207 0.0
C548 C 0.3352 0.84468 0.98407 0.0
C549 C 0.32931 0.83347 0.94167 0.0
C550 C 0.28204 0.75077 0.02571 0.0
C551 C 0.35901 0.88448 0.99858 0.0
C552 C 0.29817 0.83254 0.12284 0.0
C553 C 0.33145 0.81487 0.14121 0.0
C554 C 0.29665 0.83858 0.08088 0.0
C555 C 0.32895 0.8264 0.05716 0.0
C556 C 0.36517 0.81315 0.0768 0.0
C557 C 0.36591 0.8074 0.11858 0.0
C558 C 0.25866 0.85473 0.06122 0.0
C559 C 0.40105 0.80128 0.05287 0.0
H560 H 0.277 0.74143 0.944 0.0
H561 H 0.34154 0.85358 0.92017 0.0
H562 H 0.30926 0.74299 0.04551 0.0
H563 H 0.25982 0.76321 0.04604 0.0
H564 H 0.26479 0.72354 0.00895 0.0
H565 H 0.35548 0.90561 0.97505 0.0
H566 H 0.34786 0.89623 0.02762 0.0
H567 H 0.39369 0.88213 0.00406 0.0
H568 H 0.27215 0.83956 0.14055 0.0
H569 H 0.39267 0.79523 0.13305 0.0
H570 H 0.23587 0.8304 0.04491 0.0
H571 H 0.26904 0.87522 0.03829 0.0
H572 H 0.24144 0.87014 0.08431 0.0
H573 H 0.3886 0.77522 0.03168 0.0
H574 H 0.4284 0.79418 0.07306 0.0
H575 H 0.41298 0.82497 0.03397 0.0
C576 C 0.43491 0.99921 0.28462 0.0
C577 C 0.42695 0.96694 0.30785 0.0
C578 C 0.43037 0.99471 0.2417 0.0
C579 C 0.41689 0.95718 0.22155 0.0
C580 C 0.40341 0.92569 0.24474 0.0
C581 C 0.40905 0.93074 0.28776 0.0
C582 C 0.44449 0.02929 0.21815 0.0
C583 C 0.38648 0.88587 0.22421 0.0
C584 C 0.40969 0.95216 0.10482 0.0
C585 C 0.4508 0.94352 0.09742 0.0
C586 C 0.39691 0.95472 0.14498 0.0
C587 C 0.42639 0.94945 0.17828 0.0
C588 C 0.46734 0.93942 0.17064 0.0
C589 C 0.47886 0.93639 0.1304 0.0
C590 C 0.35245 0.96414 0.15161 0.0
C591 C 0.49976 0.93319 0.20515 0.0
H592 H 0.44781 0.02759 0.29981 0.0
H593 H 0.40189 0.90577 0.30538 0.0
H594 H 0.47573 0.02571 0.20591 0.0
H595 H 0.42095 0.03101 0.19169 0.0
H596 H 0.44842 0.05729 0.23769 0.0
H597 H 0.36756 0.86805 0.24499 0.0
H598 H 0.36592 0.88818 0.19575 0.0
H599 H 0.41368 0.87055 0.21565 0.0
H600 H 0.38761 0.95708 0.07935 0.0
H601 H 0.51056 0.92935 0.12495 0.0
H602 H 0.35393 0.99606 0.15902 0.0
H603 H 0.33916 0.94914 0.17752 0.0
H604 H 0.33006 0.95571 0.12363 0.0
H605 H 0.50849 0.96061 0.22538 0.0
H606 H 0.52959 0.92417 0.19381 0.0
H607 H 0.48573 0.91042 0.22413 0.0
C608 C 0.42643 0.28086 0.21414 0.0
C609 C 0.41814 0.31037 0.24274 0.0
C610 C 0.46877 0.27481 0.20813 0.0
C611 C 0.50323 0.29773 0.23256 0.0
C612 C 0.49507 0.32926 0.25941 0.0
C613 C 0.45261 0.33557 0.26365 0.0
C614 C 0.47647 0.24241 0.1775 0.0
C615 C 0.53079 0.35431 0.28629 0.0
C616 C 0.59785 0.24774 0.26739 0.0
C617 C 0.63089 0.26706 0.24729 0.0
C618 C 0.556 0.25706 0.2622 0.0
C619 C 0.54667 0.28535 0.23495 0.0
C620 C 0.57953 0.30349 0.21285 0.0
C621 C 0.62162 0.29464 0.21992 0.0
C622 C 0.52239 0.23818 0.28769 0.0
C623 C 0.57032 0.33212 0.18184 0.0
H624 H 0.39983 0.26173 0.19745 0.0
H625 H 0.44641 0.35852 0.28576 0.0
H626 H 0.50381 0.25223 0.15967 0.0
H627 H 0.48489 0.21718 0.1939 0.0
H628 H 0.44763 0.2323 0.1559 0.0
H629 H 0.51957 0.37998 0.30227 0.0
H630 H 0.54407 0.33653 0.30972 0.0
H631 H 0.55735 0.36489 0.26793 0.0
H632 H 0.60527 0.22683 0.28903 0.0
H633 H 0.6473 0.30932 0.2042 0.0
H634 H 0.494 0.22374 0.2677 0.0
H635 H 0.51134 0.26091 0.30838 0.0
H636 H 0.53471 0.21607 0.30664 0.0
H637 H 0.55196 0.31592 0.15426 0.0
H638 H 0.60022 0.34829 0.17231 0.0
H639 H 0.55019 0.35347 0.19401 0.0
C640 C 0.02044 0.3158 0.45366 0.0
C641 C 0.98615 0.33336 0.43705 0.0
C642 C 0.01648 0.27554 0.45697 0.0
C643 C 0.97691 0.2522 0.44397 0.0
C644 C 0.94327 0.26925 0.42395 0.0
C645 C 0.94841 0.30986 0.42049 0.0
C646 C 0.05364 0.2586 0.47747 0.0
C647 C 0.90068 0.24541 0.40922 0.0
C648 C 0.97706 0.14297 0.45052 0.0
C649 C 0.96404 0.13841 0.49001 0.0
C650 C 0.97936 0.17949 0.434 0.0
C651 C 0.96902 0.21214 0.45784 0.0
C652 C 0.95537 0.20745 0.49751 0.0
C653 C 0.95273 0.17067 0.51291 0.0
C654 C 0.99407 0.18339 0.39164 0.0
C655 C 0.94561 0.24172 0.52465 0.0
H656 H 0.05005 0.33393 0.46569 0.0
H657 H 0.92197 0.32341 0.40741 0.0
H658 H 0.04618 0.25131 0.50873 0.0
H659 H 0.05896 0.23122 0.46015 0.0
H660 H 0.08391 0.27933 0.48018 0.0
H661 H 0.88288 0.25981 0.38545 0.0
H662 H 0.90483 0.2157 0.39662 0.0
H663 H 0.8808 0.24223 0.43548 0.0
H664 H 0.98538 0.11802 0.4325 0.0
H665 H 0.94266 0.16742 0.54347 0.0
H666 H 0.02617 0.20122 0.39393 0.0
H667 H 0.97178 0.19878 0.373 0.0
H668 H 0.99623 0.15457 0.37533 0.0
H669 H 0.97602 0.26067 0.53573 0.0
H670 H 0.92922 0.2324 0.55179 0.0
H671 H 0.92528 0.25966 0.50715 0.0
C672 C 0.96611 0.76618 0.79793 0.0
C673 C 0.93275 0.74358 0.77279 0.0
C674 C 0.00882 0.76002 0.7953 0.0
C675 C 0.01865 0.73149 0.76567 0.0
C676 C 0.98507 0.70868 0.73991 0.0
C677 C 0.94226 0.71448 0.74437 0.0
C678 C 0.04338 0.78378 0.82465 0.0
C679 C 0.99431 0.67838 0.70762 0.0
C680 C 0.13461 0.75389 0.74314 0.0
C681 C 0.15441 0.72936 0.76846 0.0
C682 C 0.0898 0.75235 0.73905 0.0
C683 C 0.06436 0.72656 0.76186 0.0
C684 C 0.08402 0.70018 0.78567 0.0
C685 C 0.12885 0.70146 0.78812 0.0
C686 C 0.06991 0.78009 0.71234 0.0
C687 C 0.05806 0.67221 0.81047 0.0
H688 H 0.95865 0.78817 0.82051 0.0
H689 H 0.91633 0.69689 0.72509 0.0
H690 H 0.0619 0.76402 0.84172 0.0
H691 H 0.06619 0.80189 0.80736 0.0
H692 H 0.03003 0.80338 0.84718 0.0
H693 H 0.96547 0.6672 0.6864 0.0
H694 H 0.02033 0.69071 0.68945 0.0
H695 H 0.00544 0.65338 0.72258 0.0
H696 H 0.15426 0.77517 0.72751 0.0
H697 H 0.14406 0.68238 0.80767 0.0
H698 H 0.05912 0.80373 0.73196 0.0
H699 H 0.04127 0.76462 0.69332 0.0
H700 H 0.09293 0.79367 0.69181 0.0
H701 H 0.03682 0.68787 0.82922 0.0
H702 H 0.0787 0.65704 0.83119 0.0
H703 H 0.03717 0.64983 0.78951 0.0
C704 C 0.48523 0.63219 0.91623 0.0
C705 C 0.46869 0.6203 0.95251 0.0
C706 C 0.48259 0.67014 0.90428 0.0
C707 C 0.46321 0.69671 0.92931 0.0
C708 C 0.4446 0.68405 0.96475 0.0
C709 C 0.44762 0.64618 0.97589 0.0
C710 C 0.5016 0.68221 0.8656 0.0
C711 C 0.42318 0.71115 0.9921 0.0
C712 C 0.50375 0.80451 0.9444 0.0
C713 C 0.47005 0.82108 0.92515 0.0
C714 C 0.50324 0.76404 0.94321 0.0
C715 C 0.46776 0.73913 0.92264 0.0
C716 C 0.43467 0.7556 0.90103 0.0
C717 C 0.43624 0.7966 0.90241 0.0
C718 C 0.53955 0.74801 0.96628 0.0
C719 C 0.39638 0.73016 0.87856 0.0
H720 H 0.50064 0.61206 0.89746 0.0
H721 H 0.43403 0.63713 0.00359 0.0
H722 H 0.47742 0.69431 0.84566 0.0
H723 H 0.52914 0.70564 0.87339 0.0
H724 H 0.51288 0.65745 0.84805 0.0
H725 H 0.40713 0.69594 0.01658 0.0
H726 H 0.44753 0.73512 0.00682 0.0
H727 H 0.39892 0.72462 0.97369 0.0
H728 H 0.53037 0.82339 0.96141 0.0
H729 H 0.41014 0.80932 0.88747 0.0
H730 H 0.55177 0.72527 0.94659 0.0
H731 H 0.52761 0.73408 0.99337 0.0
H732 H 0.56673 0.77111 0.97707 0.0
H733 H 0.4055 0.70277 0.86428 0.0
H734 H 0.38079 0.74574 0.85438 0.0
H735 H 0.3725 0.72204 0.90066 0.0
C736 C 0.63891 0.77255 0.31672 0.0
C737 C 0.6728 0.80297 0.32523 0.0
C738 C 0.5966 0.77896 0.32225 0.0
C739 C 0.5882 0.817 0.33521 0.0
C740 C 0.62266 0.84755 0.34455 0.0
C741 C 0.66465 0.84002 0.33982 0.0
C742 C 0.56065 0.7456 0.31198 0.0
C743 C 0.61517 0.88881 0.3564 0.0
C744 C 0.47869 0.83561 0.29332 0.0
C745 C 0.45383 0.8262 0.32579 0.0
C746 C 0.52303 0.83497 0.29684 0.0
C747 C 0.54317 0.82541 0.33405 0.0
C748 C 0.5191 0.82029 0.36843 0.0
C749 C 0.47442 0.82055 0.36387 0.0
C750 C 0.54765 0.84151 0.25964 0.0
C751 C 0.54008 0.81192 0.40911 0.0
H752 H 0.64543 0.74407 0.30493 0.0
H753 H 0.69087 0.86382 0.34481 0.0
H754 H 0.53962 0.74313 0.33753 0.0
H755 H 0.54056 0.75135 0.28439 0.0
H756 H 0.57281 0.71724 0.30585 0.0
H757 H 0.64481 0.90667 0.37136 0.0
H758 H 0.60525 0.90275 0.32849 0.0
H759 H 0.58902 0.88924 0.37707 0.0
H760 H 0.4631 0.84098 0.26408 0.0
H761 H 0.45547 0.8138 0.38926 0.0
H762 H 0.55952 0.81405 0.24902 0.0
H763 H 0.57606 0.86395 0.26752 0.0
H764 H 0.52764 0.85093 0.23383 0.0
H765 H 0.54951 0.78213 0.40657 0.0
H766 H 0.51829 0.81372 0.43402 0.0
H767 H 0.56975 0.83279 0.41769 0.0
C768 C 0.4743 0.1429 0.47707 0.0
C769 C 0.50144 0.12839 0.44953 0.0
C770 C 0.47083 0.18304 0.48162 0.0
C771 C 0.49491 0.20906 0.45794 0.0
C772 C 0.5236 0.19471 0.43137 0.0
C773 C 0.5266 0.15465 0.42762 0.0
C774 C 0.43989 0.19727 0.51021 0.0
C775 C 0.54994 0.22146 0.4056 0.0
C776 C 0.45465 0.30109 0.42461 0.0
C777 C 0.4825 0.33033 0.44869 0.0
C778 C 0.45692 0.26147 0.42884 0.0
C779 C 0.48782 0.25069 0.45793 0.0
C780 C 0.51461 0.28 0.48379 0.0
C781 C 0.51164 0.31958 0.47885 0.0
C782 C 0.42771 0.23124 0.4006 0.0
C783 C 0.54753 0.26958 0.5155 0.0
H784 H 0.45479 0.1228 0.49413 0.0
H785 H 0.54794 0.14379 0.40649 0.0
H786 H 0.45504 0.22397 0.52928 0.0
H787 H 0.41166 0.20507 0.4919 0.0
H788 H 0.4284 0.17474 0.53073 0.0
H789 H 0.52837 0.23571 0.38495 0.0
H790 H 0.57034 0.24496 0.42561 0.0
H791 H 0.57096 0.20569 0.38661 0.0
H792 H 0.43157 0.30912 0.40161 0.0
H793 H 0.53298 0.34204 0.4978 0.0
H794 H 0.41169 0.20839 0.41836 0.0
H795 H 0.44703 0.21665 0.37883 0.0
H796 H 0.40263 0.24425 0.38265 0.0
H797 H 0.53265 0.24692 0.53419 0.0
H798 H 0.56232 0.29535 0.53627 0.0
H799 H 0.57335 0.25716 0.49998 0.0
C800 C 0.16094 0.33673 0.78963 0.0
C801 C 0.18859 0.31836 0.81497 0.0
C802 C 0.11705 0.33399 0.79505 0.0
C803 C 0.10015 0.31109 0.82551 0.0
C804 C 0.1284 0.29511 0.85327 0.0
C805 C 0.17254 0.29929 0.84793 0.0
C806 C 0.08832 0.35344 0.76638 0.0
C807 C 0.1116 0.27119 0.88665 0.0
C808 C 0.98026 0.30709 0.83766 0.0
C809 C 0.96358 0.27586 0.809 0.0
C810 C 0.02492 0.31854 0.84459 0.0
C811 C 0.05315 0.29779 0.82277 0.0
C812 C 0.0362 0.26512 0.79526 0.0
C813 C 0.99174 0.25489 0.78843 0.0
C814 C 0.04119 0.35387 0.87372 0.0
C815 C 0.06497 0.24152 0.77195 0.0
H816 H 0.17351 0.35265 0.76494 0.0
H817 H 0.19399 0.28566 0.86803 0.0
H818 H 0.069 0.33096 0.74426 0.0
H819 H 0.06563 0.36859 0.78383 0.0
H820 H 0.10697 0.37496 0.74883 0.0
H821 H 0.13783 0.26534 0.90898 0.0
H822 H 0.08839 0.28637 0.90332 0.0
H823 H 0.09426 0.24281 0.87269 0.0
H824 H 0.95847 0.32343 0.85349 0.0
H825 H 0.97889 0.23031 0.7667 0.0
H826 H 0.04156 0.38041 0.85665 0.0
H827 H 0.07419 0.35299 0.88766 0.0
H828 H 0.01953 0.3566 0.89859 0.0
H829 H 0.08157 0.25976 0.74998 0.0
H830 H 0.04684 0.21503 0.75451 0.0
H831 H 0.09 0.23233 0.79337 0.0
C832 C 0.92688 0.78504 0.96912 0.0
C833 C 0.95679 0.81443 0.99068 0.0
C834 C 0.93254 0.74556 0.96924 0.0
C835 C 0.96903 0.73513 0.99144 0.0
C836 C 0.99766 0.76436 0.01563 0.0
C837 C 0.99129 0.80374 0.01489 0.0
C838 C 0.90052 0.7152 0.94408 0.0
C839 C 0.03615 0.75416 0.04073 0.0
C840 C 0.97144 0.62629 0.00084 0.0
C841 C 0.99564 0.61676 0.96838 0.0
C842 C 0.96369 0.66495 0.00988 0.0
C843 C 0.97983 0.69459 0.98532 0.0
C844 C 0.00503 0.68519 0.95306 0.0
C845 C 0.01275 0.64653 0.94514 0.0
C846 C 0.93683 0.67333 0.04471 0.0
C847 C 0.02257 0.71567 0.92575 0.0
H848 H 0.89972 0.79295 0.95086 0.0
H849 H 0.01424 0.82622 0.03203 0.0
H850 H 0.88743 0.6927 0.96387 0.0
H851 H 0.87337 0.72803 0.92925 0.0
H852 H 0.91668 0.70026 0.91983 0.0
H853 H 0.0527 0.77945 0.0612 0.0
H854 H 0.02622 0.72982 0.05966 0.0
H855 H 0.05938 0.74407 0.01997 0.0
H856 H 0.95806 0.60348 0.01895 0.0
H857 H 0.03135 0.6395 0.91985 0.0
H858 H 0.90256 0.66922 0.0327 0.0
H859 H 0.94529 0.70365 0.05896 0.0
H860 H 0.94039 0.65276 0.06879 0.0
H861 H 0.99563 0.72496 0.90674 0.0
H862 H 0.04529 0.70459 0.905 0.0
H863 H 0.03943 0.74195 0.9444 0.0
C864 C 0.26092 0.4745 0.27641 0.0
C865 C 0.29499 0.46295 0.30051 0.0
C866 C 0.25677 0.51427 0.27432 0.0
C867 C 0.28763 0.54304 0.29655 0.0
C868 C 0.32147 0.53143 0.32169 0.0
C869 C 0.32463 0.49161 0.32346 0.0
C870 C 0.21978 0.52552 0.24789 0.0
C871 C 0.35492 0.5611 0.34614 0.0
C872 C 0.3115 0.64428 0.25981 0.0
C873 C 0.29335 0.6672 0.28899 0.0
C874 C 0.30866 0.60365 0.26117 0.0
C875 C 0.28635 0.58535 0.29196 0.0
C876 C 0.26604 0.6081 0.32019 0.0
C877 C 0.27013 0.64883 0.31862 0.0
C878 C 0.33137 0.5806 0.23089 0.0
C879 C 0.24081 0.58957 0.35258 0.0
H880 H 0.23772 0.45251 0.25887 0.0
H881 H 0.35084 0.483 0.34252 0.0
H882 H 0.20157 0.54463 0.26637 0.0
H883 H 0.23216 0.54244 0.22286 0.0
H884 H 0.19741 0.49966 0.23409 0.0
H885 H 0.37848 0.54721 0.36507 0.0
H886 H 0.37259 0.57964 0.32507 0.0
H887 H 0.33922 0.58062 0.36669 0.0
H888 H 0.32969 0.65828 0.23692 0.0
H889 H 0.25562 0.66637 0.34095 0.0
H890 H 0.30888 0.55576 0.21517 0.0
H891 H 0.35781 0.56818 0.24742 0.0
H892 H 0.34511 0.5988 0.20734 0.0
H893 H 0.21202 0.57044 0.33776 0.0
H894 H 0.23026 0.61155 0.37455 0.0
H895 H 0.26046 0.57097 0.36985 0.0
C896 C 0.78731 0.09794 0.80978 0.0
C897 C 0.8067 0.11627 0.77794 0.0
C898 C 0.78447 0.05726 0.81151 0.0
C899 C 0.80266 0.03462 0.78149 0.0
C900 C 0.82147 0.05291 0.74882 0.0
C901 C 0.82267 0.09335 0.74712 0.0
C902 C 0.76291 0.03872 0.84603 0.0
C903 C 0.84156 0.03 0.71628 0.0
C904 C 0.8447 0.94221 0.81224 0.0
C905 C 0.81434 0.91284 0.79134 0.0
C906 C 0.84107 0.98183 0.80949 0.0
C907 C 0.80554 0.99254 0.78599 0.0
C908 C 0.77412 0.96308 0.76559 0.0
C909 C 0.77909 0.92352 0.7682 0.0
C910 C 0.87532 0.01212 0.832 0.0
C911 C 0.73519 0.97335 0.74122 0.0
H912 H 0.77464 0.11541 0.83352 0.0
H913 H 0.83782 0.10725 0.7224 0.0
H914 H 0.74377 0.05877 0.86219 0.0
H915 H 0.74141 0.01168 0.83423 0.0
H916 H 0.78763 0.03055 0.86848 0.0
H917 H 0.85928 0.04922 0.69578 0.0
H918 H 0.86405 0.01176 0.73058 0.0
H919 H 0.81619 0.00994 0.69725 0.0
H920 H 0.87162 0.9343 0.83079 0.0
H921 H 0.75518 0.90099 0.75242 0.0
H922 H 0.86222 0.02583 0.85903 0.0
H923 H 0.88534 0.03564 0.81213 0.0
H924 H 0.9042 0.99926 0.8429 0.0
H925 H 0.7183 0.99302 0.76049 0.0
H926 H 0.71225 0.94709 0.72955 0.0
H927 H 0.74526 0.98934 0.71474 0.0
C928 C 0.32134 0.48074 0.93974 0.0
C929 C 0.34268 0.44835 0.94626 0.0
C930 C 0.27658 0.47711 0.93485 0.0
C931 C 0.25226 0.44031 0.93781 0.0
C932 C 0.2734 0.407 0.94245 0.0
C933 C 0.31859 0.41137 0.94625 0.0
C934 C 0.25541 0.51322 0.9286 0.0
C935 C 0.24847 0.36732 0.94594 0.0
C936 C 0.14548 0.45398 0.97791 0.0
C937 C 0.11824 0.44813 0.94179 0.0
C938 C 0.18871 0.44839 0.97746 0.0
C939 C 0.20511 0.43814 0.93971 0.0
C940 C 0.17718 0.43118 0.90329 0.0
C941 C 0.13375 0.43572 0.90492 0.0
C942 C 0.21727 0.45519 0.0171 0.0
C943 C 0.19367 0.42154 0.86232 0.0
H944 H 0.33963 0.50943 0.9395 0.0
H945 H 0.33493 0.38625 0.95135 0.0
H946 H 0.22931 0.5072 0.90341 0.0
H947 H 0.2408 0.52205 0.9569 0.0
H948 H 0.27862 0.5382 0.92127 0.0
H949 H 0.26901 0.34367 0.94338 0.0
H950 H 0.23484 0.36702 0.97612 0.0
H951 H 0.22119 0.36093 0.92196 0.0
H952 H 0.13303 0.46327 0.00637 0.0
H953 H 0.1123 0.43131 0.87704 0.0
H954 H 0.23981 0.48255 0.01687 0.0
H955 H 0.23679 0.43097 0.02034 0.0
H956 H 0.19855 0.45772 0.04426 0.0
H957 H 0.21547 0.44703 0.85404 0.0
H958 H 0.16723 0.41402 0.83752 0.0
H959 H 0.21262 0.39681 0.86395 0.0
C960 C 0.75323 0.082 0.29439 0.0
C961 C 0.78012 0.116 0.28751 0.0
C962 C 0.7688 0.04596 0.29549 0.0
C963 C 0.81257 0.04377 0.28993 0.0
C964 C 0.84011 0.07806 0.28348 0.0
C965 C 0.82347 0.11378 0.28204 0.0
C966 C 0.73804 0.01003 0.30174 0.0
C967 C 0.88706 0.07696 0.27809 0.0
C968 C 0.84557 0.949 0.32449 0.0
C969 C 0.83703 0.92487 0.2878 0.0
C970 C 0.84123 0.98896 0.3253 0.0
C971 C 0.82817 0.00494 0.28854 0.0
C972 C 0.82363 0.98147 0.25095 0.0
C973 C 0.82824 0.94179 0.25105 0.0
C974 C 0.84698 0.01314 0.36595 0.0
C975 C 0.80985 0.99721 0.21102 0.0
H976 H 0.71971 0.08346 0.2987 0.0
H977 H 0.84456 0.14005 0.27726 0.0
H978 H 0.73381 0.98986 0.27346 0.0
H979 H 0.75119 0.99413 0.32689 0.0
H980 H 0.706 0.01721 0.30908 0.0
H981 H 0.90464 0.10645 0.27524 0.0
H982 H 0.90244 0.06425 0.30458 0.0
H983 H 0.89051 0.05788 0.25026 0.0
H984 H 0.85243 0.93621 0.35304 0.0
H985 H 0.82208 0.92341 0.22248 0.0
H986 H 0.81512 0.01871 0.37534 0.0
H987 H 0.86614 0.04191 0.3633 0.0
H988 H 0.86297 0.99824 0.39049 0.0
H989 H 0.77559 1.00162 0.21077 0.0
H990 H 0.81348 0.97699 0.18406 0.0
H991 H 0.82875 0.02595 0.20774 0.0
C992 C 0.82687 0.01836 0.97857 0.0
C993 C 0.84077 0.98383 0.99097 0.0
C994 C 0.78289 0.02159 0.97271 0.0
C995 C 0.75224 0.98977 0.98022 0.0
C996 C 0.76622 0.95569 0.99484 0.0
C997 C 0.81024 0.95307 0.99983 0.0
C998 C 0.76954 0.05884 0.95791 0.0
C999 C 0.73466 0.92135 0.0039 0.0
C1000 C 0.63597 1.00058 0.99399 0.0
C1001 C 0.61522 0.98256 0.95675 0.0
C1002 C 0.68082 0.00488 0.00138 0.0
C1003 C 0.70553 0.99084 0.9708 0.0
C1004 C 0.68499 0.97473 0.93226 0.0
C1005 C 0.64008 0.97089 0.92566 0.0
C1006 C 0.70152 0.02227 0.04278 0.0
C1007 C 0.70985 0.95881 0.89882 0.0
H1008 H 0.85026 0.04228 0.97171 0.0
H1009 H 0.82072 0.9264 0.00976 0.0
H1010 H 0.74001 0.053 0.93655 0.0
H1011 H 0.76265 0.07779 0.98462 0.0
H1012 H 0.79534 0.0753 0.94233 0.0
H1013 H 0.75077 0.89846 0.01838 0.0
H1014 H 0.71123 0.93119 0.02455 0.0
H1015 H 0.71631 0.90803 0.975 0.0
H1016 H 0.61703 0.00994 0.01812 0.0
H1017 H 0.62441 0.95678 0.89687 0.0
H1018 H 0.72734 0.04638 0.03903 0.0
H1019 H 0.7166 0.99971 0.05882 0.0
H1020 H 0.67807 0.03371 0.06247 0.0
H1021 H 0.74238 0.97545 0.89911 0.0
H1022 H 0.6926 0.95917 0.86806 0.0
H1023 H 0.71367 0.92805 0.90369 0.0
C1024 C 0.38034 0.62166 0.80414 0.0
C1025 C 0.33784 0.62201 0.81392 0.0
C1026 C 0.39863 0.58661 0.80225 0.0
C1027 C 0.37345 0.55126 0.80968 0.0
C1028 C 0.33091 0.55192 0.82068 0.0
C1029 C 0.31393 0.58726 0.82307 0.0
C1030 C 0.44476 0.58764 0.79262 0.0
C1031 C 0.30248 0.51497 0.82833 0.0
C1032 C 0.37546 0.45121 0.75974 0.0
C1033 C 0.38173 0.43045 0.79449 0.0
C1034 C 0.37806 0.49197 0.76322 0.0
C1035 C 0.38859 0.51259 0.80216 0.0
C1036 C 0.4027 0.49253 0.8356 0.0
C1037 C 0.39811 0.45139 0.83181 0.0
C1038 C 0.36404 0.51222 0.72627 0.0
C1039 C 0.41895 0.51438 0.87621 0.0
H1040 H 0.39929 0.64873 0.79811 0.0
H1041 H 0.28115 0.5874 0.83089 0.0
H1042 H 0.46498 0.58543 0.82131 0.0
H1043 H 0.44886 0.56262 0.7709 0.0
H1044 H 0.45691 0.61524 0.77956 0.0
H1045 H 0.27032 0.52065 0.8369 0.0
H1046 H 0.29797 0.49436 0.80037 0.0
H1047 H 0.31788 0.50028 0.85328 0.0
H1048 H 0.36435 0.43552 0.73029 0.0
H1049 H 0.40453 0.43584 0.85861 0.0
H1050 H 0.38555 0.53987 0.72423 0.0
H1051 H 0.33115 0.51963 0.72929 0.0
H1052 H 0.36362 0.4935 0.69726 0.0
H1053 H 0.43741 0.49645 0.8958 0.0
H1054 H 0.39145 0.52263 0.89233 0.0
H1055 H 0.43983 0.54177 0.87164 0.0
C1056 C 0.15347 0.48769 0.411 0.0
C1057 C 0.13472 0.49026 0.44828 0.0
C1058 C 0.19813 0.48954 0.41019 0.0
C1059 C 0.22456 0.49342 0.44759 0.0
C1060 C 0.20595 0.49738 0.48524 0.0
C1061 C 0.16135 0.49623 0.48512 0.0
C1062 C 0.21638 0.48534 0.36922 0.0
C1063 C 0.23291 0.50099 0.52574 0.0
C1064 C 0.33073 0.45336 0.44474 0.0
C1065 C 0.36022 0.48764 0.44753 0.0
C1066 C 0.28658 0.45492 0.44514 0.0
C1067 C 0.27139 0.49167 0.44755 0.0
C1068 C 0.30103 0.52643 0.45054 0.0
C1069 C 0.34509 0.52395 0.45075 0.0
C1070 C 0.2563 0.41716 0.44355 0.0
C1071 C 0.28706 0.56651 0.45462 0.0
H1072 H 0.13322 0.48303 0.38238 0.0
H1073 H 0.14723 0.49816 0.51415 0.0
H1074 H 0.24925 0.50133 0.37009 0.0
H1075 H 0.21796 0.45402 0.36077 0.0
H1076 H 0.19573 0.49608 0.34473 0.0
H1077 H 0.21324 0.50212 0.55236 0.0
H1078 H 0.25126 0.47581 0.5276 0.0
H1079 H 0.25653 0.52788 0.52814 0.0
H1080 H 0.34214 0.42514 0.44249 0.0
H1081 H 0.36762 0.55062 0.45295 0.0
H1082 H 0.2353 0.41328 0.41447 0.0
H1083 H 0.23526 0.41806 0.46911 0.0
H1084 H 0.27362 0.3913 0.44552 0.0
H1085 H 0.25299 0.56655 0.44344 0.0
H1086 H 0.3075 0.5873 0.43772 0.0
H1087 H 0.29143 0.5777 0.48741 0.0
C1088 C 0.77065 0.72441 0.93561 0.0
C1089 C 0.78876 0.75839 0.91917 0.0
C1090 C 0.76794 0.72342 0.97813 0.0
C1091 C 0.78395 0.75709 0.00469 0.0
C1092 C 0.80274 0.79123 0.98828 0.0
C1093 C 0.80466 0.79152 0.94586 0.0
C1094 C 0.74778 0.6865 0.99466 0.0
C1095 C 0.82072 0.82766 0.01548 0.0
C1096 C 0.74164 0.77747 0.1078 0.0
C1097 C 0.77547 0.76984 0.13506 0.0
C1098 C 0.74304 0.77145 0.06528 0.0
C1099 C 0.77934 0.75772 0.0495 0.0
C1100 C 0.81282 0.74837 0.07681 0.0
C1101 C 0.81039 0.75436 0.11938 0.0
C1102 C 0.70664 0.78178 0.03726 0.0
C1103 C 0.85226 0.7341 0.06113 0.0
H1104 H 0.75863 0.6986 0.91532 0.0
H1105 H 0.81918 0.81787 0.93368 0.0
H1106 H 0.77078 0.67651 0.01758 0.0
H1107 H 0.71921 0.69237 0.0106 0.0
H1108 H 0.73776 0.66255 0.97011 0.0
H1109 H 0.83511 0.8515 0.99785 0.0
H1110 H 0.79493 0.83845 0.03248 0.0
H1111 H 0.84574 0.82089 0.03849 0.0
H1112 H 0.71438 0.78918 0.1197 0.0
H1113 H 0.8367 0.74855 0.14028 0.0
H1114 H 0.69549 0.75752 0.01337 0.0
H1115 H 0.7181 0.80785 0.02134 0.0
H1116 H 0.67889 0.78829 0.05421 0.0
H1117 H 0.87192 0.72233 0.08563 0.0
H1118 H 0.87242 0.75862 0.04901 0.0
H1119 H 0.8432 0.7111 0.03553 0.0
C1120 C 0.55413 0.46994 0.30162 0.0
C1121 C 0.52469 0.49096 0.32013 0.0
C1122 C 0.55671 0.46847 0.25898 0.0
C1123 C 0.52768 0.48685 0.23436 0.0
C1124 C 0.49821 0.50847 0.25321 0.0
C1125 C 0.49773 0.51091 0.296 0.0
C1126 C 0.58995 0.44681 0.24021 0.0
C1127 C 0.46549 0.52716 0.22811 0.0
C1128 C 0.53951 0.508 0.12353 0.0
C1129 C 0.51277 0.47619 0.10238 0.0
C1130 C 0.54695 0.51063 0.16647 0.0
C1131 C 0.52585 0.4815 0.1888 0.0
C1132 C 0.49989 0.44868 0.16747 0.0
C1133 C 0.49418 0.44617 0.12447 0.0
C1134 C 0.57632 0.54518 0.18799 0.0
C1135 C 0.47613 0.41729 0.19009 0.0
H1136 H 0.57475 0.45434 0.32047 0.0
H1137 H 0.47433 0.52642 0.31041 0.0
H1138 H 0.57429 0.42333 0.21716 0.0
H1139 H 0.61148 0.46718 0.22389 0.0
H1140 H 0.60974 0.43365 0.26353 0.0
H1141 H 0.44483 0.54291 0.24754 0.0
H1142 H 0.48179 0.54809 0.20843 0.0
H1143 H 0.44461 0.50439 0.20752 0.0
H1144 H 0.55429 0.53106 0.10651 0.0
H1145 H 0.47329 0.42162 0.10827 0.0
H1146 H 0.59905 0.53534 0.21128 0.0
H1147 H 0.5571 0.56499 0.2043 0.0
H1148 H 0.59497 0.56207 0.16622 0.0
H1149 H 0.49848 0.4059 0.2125 0.0
H1150 H 0.45959 0.39242 0.16903 0.0
H1151 H 0.45179 0.42995 0.20765 0.0
C1152 C 0.81228 0.30028 0.43544 0.0
C1153 C 0.77537 0.27735 0.41608 0.0
C1154 C 0.82056 0.30262 0.47833 0.0
C1155 C 0.79073 0.28216 0.50206 0.0
C1156 C 0.75174 0.26187 0.48276 0.0
C1157 C 0.74474 0.25944 0.44003 0.0
C1158 C 0.86195 0.32552 0.49805 0.0
C1159 C 0.71858 0.24043 0.5069 0.0
C1160 C 0.83159 0.23552 0.59522 0.0
C1161 C 0.82041 0.25982 0.62753 0.0
C1162 C 0.82275 0.24307 0.55442 0.0
C1163 C 0.80292 0.27624 0.54554 0.0
C1164 C 0.79226 0.30143 0.57799 0.0
C1165 C 0.80091 0.29276 0.61878 0.0
C1166 C 0.83309 0.21449 0.52082 0.0
C1167 C 0.7709 0.33691 0.56959 0.0
H1168 H 0.83569 0.31463 0.417 0.0
H1169 H 0.71561 0.24244 0.42522 0.0
H1170 H 0.85468 0.35123 0.51704 0.0
H1171 H 0.8789 0.30753 0.51878 0.0
H1172 H 0.88384 0.33601 0.47506 0.0
H1173 H 0.68749 0.23137 0.48824 0.0
H1174 H 0.73052 0.21386 0.51767 0.0
H1175 H 0.71284 0.25895 0.53439 0.0
H1176 H 0.84637 0.20983 0.60174 0.0
H1177 H 0.79245 0.31171 0.64374 0.0
H1178 H 0.84985 0.23019 0.49722 0.0
H1179 H 0.80285 0.19805 0.5055 0.0
H1180 H 0.85336 0.19312 0.53266 0.0
H1181 H 0.79131 0.35647 0.55151 0.0
H1182 H 0.7649 0.35366 0.59824 0.0
H1183 H 0.73984 0.32793 0.55096 0.0
C1184 C 0.93622 0.46528 0.61047 0.0
C1185 C 0.97889 0.46159 0.60343 0.0
C1186 C 0.92274 0.46495 0.65037 0.0
C1187 C 0.95283 0.46141 0.68375 0.0
C1188 C 0.99595 0.4579 0.67667 0.0
C1189 C 0.00833 0.45786 0.63666 0.0
C1190 C 0.87638 0.46804 0.65678 0.0
C1191 C 0.02926 0.45439 0.71142 0.0
C1192 C 0.94781 0.49966 0.79328 0.0
C1193 C 0.9425 0.46478 0.8127 0.0
C1194 C 0.94714 0.49919 0.75054 0.0
C1195 C 0.94061 0.46295 0.72662 0.0
C1196 C 0.93047 0.4279 0.7457 0.0
C1197 C 0.93165 0.4292 0.78866 0.0
C1198 C 0.95807 0.53728 0.73155 0.0
C1199 C 0.92251 0.38868 0.72121 0.0
H1200 H 0.91325 0.46769 0.58479 0.0
H1201 H 0.04136 0.45501 0.63145 0.0
H1202 H 0.86214 0.44206 0.67137 0.0
H1203 H 0.87422 0.49403 0.67792 0.0
H1204 H 0.85691 0.47026 0.62758 0.0
H1205 H 0.06144 0.45205 0.70062 0.0
H1206 H 0.03207 0.48024 0.73396 0.0
H1207 H 0.01932 0.4282 0.72774 0.0
H1208 H 0.95549 0.52737 0.81159 0.0
H1209 H 0.92714 0.40211 0.80336 0.0
H1210 H 0.93681 0.53849 0.70329 0.0
H1211 H 0.99157 0.53959 0.72281 0.0
H1212 H 0.95539 0.56296 0.75306 0.0
H1213 H 0.90255 0.39013 0.69216 0.0
H1214 H 0.90639 0.36566 0.73881 0.0
H1215 H 0.95365 0.37992 0.71317 0.0
C1216 C 0.8181 0.94036 0.45462 0.0
C1217 C 0.83319 0.96377 0.49072 0.0
C1218 C 0.77389 0.93314 0.44222 0.0
C1219 C 0.74452 0.94911 0.46702 0.0
C1220 C 0.7597 0.97069 0.50472 0.0
C1221 C 0.80382 0.97797 0.5159 0.0
C1222 C 0.75876 0.90983 0.40198 0.0
C1223 C 0.72955 0.988 0.5323 0.0
C1224 C 0.64238 0.9833 0.42547 0.0
C1225 C 0.61102 0.95587 0.439 0.0
C1226 C 0.68601 0.97955 0.43147 0.0
C1227 C 0.69868 0.94784 0.45206 0.0
C1228 C 0.66708 0.9188 0.46375 0.0
C1229 C 0.62346 0.9232 0.45714 0.0
C1230 C 0.7186 0.01096 0.41805 0.0
C1231 C 0.67929 0.88436 0.48536 0.0
H1232 H 0.84089 0.92937 0.43518 0.0
H1233 H 0.81549 0.99563 0.54415 0.0
H1234 H 0.73556 0.88421 0.40741 0.0
H1235 H 0.7418 0.92785 0.38123 0.0
H1236 H 0.78561 0.89933 0.38631 0.0
H1237 H 0.74617 1.00098 0.56217 0.0
H1238 H 0.71495 0.01119 0.51691 0.0
H1239 H 0.70305 0.96534 0.53826 0.0
H1240 H 0.63287 0.00823 0.41072 0.0
H1241 H 0.59923 0.90172 0.46728 0.0
H1242 H 0.74428 0.99787 0.40306 0.0
H1243 H 0.73397 0.02984 0.44535 0.0
H1244 H 0.70375 0.02966 0.39648 0.0
H1245 H 0.70571 0.87197 0.47084 0.0
H1246 H 0.65161 0.86095 0.48525 0.0
H1247 H 0.69096 0.89414 0.51767 0.0
loop_
_geom_bond_atom_site_label_1
_geom_bond_atom_site_label_2
_geom_bond_distance
_geom_bond_site_symmetry_2
_ccdc_geom_bond_type
O0 Cd1 2.223 . S
O0 C8 1.315 . S
Cd1 O0 2.223 . S
Cd1 O4 2.297 . S
Cd1 O5 2.439 . S
Cd1 O11 2.240 . S
Cd2 O3 2.240 . S
Cd2 O10 2.223 . S
Cd2 O12 2.297 . S
Cd2 O13 2.439 . S
O3 Cd2 2.240 . S
O3 C8 1.279 . S
O4 Cd1 2.297 . S
O4 C6 1.247 . S
O5 Cd1 2.439 . S
O5 C6 1.208 . S
C6 O4 1.247 . S
C6 O5 1.208 . S
C7 O12 1.247 . S
C7 O13 1.208 . S
C8 O0 1.315 . S
C8 O3 1.279 . S
C9 O10 1.315 . S
C9 O11 1.279 . S
O10 Cd2 2.223 . S
O10 C9 1.315 . S
O11 Cd1 2.240 . S
O11 C9 1.279 . S
O12 Cd2 2.297 . S
O12 C7 1.247 . S
O13 Cd2 2.439 . S
O13 C7 1.208 . S
O14 Cd15 2.223 . S
O14 C22 1.315 . S
Cd15 O14 2.223 . S
Cd15 O18 2.297 1_655 S
Cd15 O19 2.439 1_665 S
Cd15 O25 2.240 1_565 S
Cd16 O17 2.240 1_655 S
Cd16 O24 2.223 . S
Cd16 O26 2.297 . S
Cd16 O27 2.439 1_655 S
O17 Cd16 2.240 1_455 S
O17 C22 1.279 1_445 S
O18 Cd15 2.297 1_455 S
O18 C20 1.247 . S
O19 Cd15 2.439 1_445 S
O19 C20 1.208 1_545 S
C20 O18 1.247 . S
C20 O19 1.208 1_565 S
C21 O26 1.247 . S
C21 O27 1.208 1_655 S
C22 O14 1.315 . S
C22 O17 1.279 1_665 S
C23 O24 1.315 . S
C23 O25 1.279 . S
O24 Cd16 2.223 . S
O24 C23 1.315 . S
O25 Cd15 2.240 1_545 S
O25 C23 1.279 . S
O26 Cd16 2.297 . S
O26 C21 1.247 . S
O27 Cd16 2.439 1_455 S
O27 C21 1.208 1_455 S
O28 Cd29 2.223 . S
O28 C36 1.315 . S
Cd29 O28 2.223 . S
Cd29 O32 2.297 . S
Cd29 O33 2.439 . S
Cd29 O39 2.240 . S
Cd30 O31 2.240 . S
Cd30 O38 2.223 . S
Cd30 O40 2.297 . S
Cd30 O41 2.439 . S
O31 Cd30 2.240 . S
O31 C36 1.279 . S
O32 Cd29 2.297 . S
O32 C34 1.247 . S
O33 Cd29 2.439 . S
O33 C34 1.208 . S
C34 O32 1.247 . S
C34 O33 1.208 . S
C35 O40 1.247 . S
C35 O41 1.208 . S
C36 O28 1.315 . S
C36 O31 1.279 . S
C37 O38 1.315 . S
C37 O39 1.279 . S
O38 Cd30 2.223 . S
O38 C37 1.315 . S
O39 Cd29 2.240 . S
O39 C37 1.279 . S
O40 Cd30 2.297 . S
O40 C35 1.247 . S
O41 Cd30 2.439 . S
O41 C35 1.208 . S
O42 Cd43 2.223 . S
O42 C50 1.315 . S
Cd43 O42 2.223 . S
Cd43 O46 2.297 . S
Cd43 O47 2.439 1_565 S
Cd43 O53 2.240 . S
Cd44 O45 2.240 1_554 S
Cd44 O52 2.223 . S
Cd44 O54 2.297 . S
Cd44 O55 2.439 . S
O45 Cd44 2.240 1_556 S
O45 C50 1.279 . S
O46 Cd43 2.297 . S
O46 C48 1.247 1_565 S
O47 Cd43 2.439 1_545 S
O47 C48 1.208 . S
C48 O46 1.247 1_545 S
C48 O47 1.208 . S
C49 O54 1.247 . S
C49 O55 1.208 . S
C50 O42 1.315 . S
C50 O45 1.279 . S
C51 O52 1.315 . S
C51 O53 1.279 1_554 S
O52 Cd44 2.223 . S
O52 C51 1.315 . S
O53 Cd43 2.240 . S
O53 C51 1.279 1_556 S
O54 Cd44 2.297 . S
O54 C49 1.247 . S
O55 Cd44 2.439 . S
O55 C49 1.208 . S
O56 Cd57 2.223 . S
O56 C64 1.315 . S
Cd57 O56 2.223 . S
Cd57 O60 2.297 . S
Cd57 O61 2.439 . S
Cd57 O67 2.240 . S
Cd58 O59 2.240 . S
Cd58 O66 2.223 . S
Cd58 O68 2.297 . S
Cd58 O69 2.439 . S
O59 Cd58 2.240 . S
O59 C64 1.279 . S
O60 Cd57 2.297 . S
O60 C62 1.247 . S
O61 Cd57 2.439 . S
O61 C62 1.208 . S
C62 O60 1.247 . S
C62 O61 1.208 . S
C63 O68 1.247 . S
C63 O69 1.208 . S
C64 O56 1.315 . S
C64 O59 1.279 . S
C65 O66 1.315 . S
C65 O67 1.279 . S
O66 Cd58 2.223 . S
O66 C65 1.315 . S
O67 Cd57 2.240 . S
O67 C65 1.279 . S
O68 Cd58 2.297 . S
O68 C63 1.247 . S
O69 Cd58 2.439 . S
O69 C63 1.208 . S
O70 Cd71 2.223 . S
O70 C78 1.315 . S
Cd71 O70 2.223 . S
Cd71 O74 2.297 . S
Cd71 O75 2.439 . S
Cd71 O81 2.240 1_565 S
Cd72 O73 2.240 1_545 S
Cd72 O80 2.223 . S
Cd72 O82 2.297 . S
Cd72 O83 2.439 . S
O73 Cd72 2.240 1_565 S
O73 C78 1.279 . S
O74 Cd71 2.297 . S
O74 C76 1.247 . S
O75 Cd71 2.439 . S
O75 C76 1.208 . S
C76 O74 1.247 . S
C76 O75 1.208 . S
C77 O82 1.247 . S
C77 O83 1.208 . S
C78 O70 1.315 . S
C78 O73 1.279 . S
C79 O80 1.315 . S
C79 O81 1.279 . S
O80 Cd72 2.223 . S
O80 C79 1.315 . S
O81 Cd71 2.240 1_545 S
O81 C79 1.279 . S
O82 Cd72 2.297 . S
O82 C77 1.247 . S
O83 Cd72 2.439 . S
O83 C77 1.208 . S
O84 Cd85 2.223 . S
O84 C92 1.315 . S
Cd85 O84 2.223 . S
Cd85 O88 2.297 . S
Cd85 O89 2.439 . S
Cd85 O95 2.240 . S
Cd86 O87 2.240 . S
Cd86 O94 2.223 . S
Cd86 O96 2.297 . S
Cd86 O97 2.439 . S
O87 Cd86 2.240 . S
O87 C92 1.279 . S
O88 Cd85 2.297 . S
O88 C90 1.247 . S
O89 Cd85 2.439 . S
O89 C90 1.208 . S
C90 O88 1.247 . S
C90 O89 1.208 . S
C91 O96 1.247 . S
C91 O97 1.208 . S
C92 O84 1.315 . S
C92 O87 1.279 . S
C93 O94 1.315 . S
C93 O95 1.279 . S
O94 Cd86 2.223 . S
O94 C93 1.315 . S
O95 Cd85 2.240 . S
O95 C93 1.279 . S
O96 Cd86 2.297 . S
O96 C91 1.247 . S
O97 Cd86 2.439 . S
O97 C91 1.208 . S
O98 Cd99 2.223 . S
O98 C106 1.315 1_545 S
Cd99 O98 2.223 . S
Cd99 O102 2.297 1_655 S
Cd99 O103 2.441 1_645 S
Cd99 O109 2.240 1_545 S
Cd100 O101 2.240 1_655 S
Cd100 O108 2.223 . S
Cd100 O110 2.297 . S
Cd100 O111 2.439 1_655 S
O101 Cd100 2.240 1_455 S
O101 C106 1.279 1_455 S
O102 Cd99 2.297 1_455 S
O102 C104 1.247 1_556 S
O103 Cd99 2.441 1_465 S
O103 C104 1.209 1_566 S
C104 O102 1.247 1_554 S
C104 O103 1.209 1_544 S
C105 O110 1.247 . S
C105 O111 1.208 1_655 S
C106 O98 1.315 1_565 S
C106 O101 1.279 1_655 S
C107 O108 1.315 . S
C107 O109 1.279 . S
O108 Cd100 2.223 . S
O108 C107 1.315 . S
O109 Cd99 2.240 1_565 S
O109 C107 1.279 . S
O110 Cd100 2.297 . S
O110 C105 1.247 . S
O111 Cd100 2.439 1_455 S
O111 C105 1.208 1_455 S
O112 Cd113 2.223 . S
O112 C120 1.315 . S
Cd113 O112 2.223 . S
Cd113 O116 2.297 . S
Cd113 O117 2.439 . S
Cd113 O123 2.240 . S
Cd114 O115 2.240 . S
Cd114 O122 2.223 . S
Cd114 O124 2.297 . S
Cd114 O125 2.439 . S
O115 Cd114 2.240 . S
O115 C120 1.279 . S
O116 Cd113 2.297 . S
O116 C118 1.247 . S
O117 Cd113 2.439 . S
O117 C118 1.208 . S
C118 O116 1.247 . S
C118 O117 1.208 . S
C119 O124 1.247 . S
C119 O125 1.208 . S
C120 O112 1.315 . S
C120 O115 1.279 . S
C121 O122 1.315 . S
C121 O123 1.279 . S
O122 Cd114 2.223 . S
O122 C121 1.315 . S
O123 Cd113 2.240 . S
O123 C121 1.279 . S
O124 Cd114 2.297 . S
O124 C119 1.247 . S
O125 Cd114 2.439 . S
O125 C119 1.208 . S
O126 Cd127 2.223 1_556 S
O126 C134 1.315 1_455 S
Cd127 O126 2.223 1_554 S
Cd127 O130 2.297 1_455 S
Cd127 O131 2.439 1_455 S
Cd127 O137 2.240 . S
Cd128 O129 2.240 1_455 S
Cd128 O136 2.223 . S
Cd128 O138 2.297 . S
Cd128 O139 2.439 1_456 S
O129 Cd128 2.240 1_655 S
O129 C134 1.279 . S
O130 Cd127 2.297 1_655 S
O130 C132 1.247 . S
O131 Cd127 2.439 1_655 S
O131 C132 1.208 . S
C132 O130 1.247 . S
C132 O131 1.208 . S
C133 O138 1.247 1_654 S
C133 O139 1.208 . S
C134 O126 1.315 1_655 S
C134 O129 1.279 . S
C135 O136 1.315 . S
C135 O137 1.279 1_556 S
O136 Cd128 2.223 . S
O136 C135 1.315 . S
O137 Cd127 2.240 . S
O137 C135 1.279 1_554 S
O138 Cd128 2.297 . S
O138 C133 1.247 1_456 S
O139 Cd128 2.439 1_654 S
O139 C133 1.208 . S
O140 Cd141 2.223 . S
O140 C148 1.315 . S
Cd141 O140 2.223 . S
Cd141 O144 2.297 . S
Cd141 O145 2.439 . S
Cd141 O151 2.240 . S
Cd142 O143 2.240 . S
Cd142 O150 2.223 . S
Cd142 O152 2.297 . S
Cd142 O153 2.439 . S
O143 Cd142 2.240 . S
O143 C148 1.279 . S
O144 Cd141 2.297 . S
O144 C146 1.247 . S
O145 Cd141 2.439 . S
O145 C146 1.208 . S
C146 O144 1.247 . S
C146 O145 1.208 . S
C147 O152 1.247 . S
C147 O153 1.208 . S
C148 O140 1.315 . S
C148 O143 1.279 . S
C149 O150 1.315 . S
C149 O151 1.279 . S
O150 Cd142 2.223 . S
O150 C149 1.315 . S
O151 Cd141 2.240 . S
O151 C149 1.279 . S
O152 Cd142 2.297 . S
O152 C147 1.247 . S
O153 Cd142 2.439 . S
O153 C147 1.208 . S
O154 Cd155 2.223 1_455 S
O154 C162 1.315 . S
Cd155 O154 2.223 1_655 S
Cd155 O158 2.297 . S
Cd155 O159 2.439 . S
Cd155 O165 2.240 . S
Cd156 O157 2.240 . S
Cd156 O164 2.223 . S
Cd156 O166 2.297 . S
Cd156 O167 2.439 1_455 S
O157 Cd156 2.240 . S
O157 C162 1.279 . S
O158 Cd155 2.297 . S
O158 C160 1.247 . S
O159 Cd155 2.439 . S
O159 C160 1.208 . S
C160 O158 1.247 . S
C160 O159 1.208 . S
C161 O166 1.247 . S
C161 O167 1.208 1_455 S
C162 O154 1.315 . S
C162 O157 1.279 . S
C163 O164 1.315 . S
C163 O165 1.279 1_455 S
O164 Cd156 2.223 . S
O164 C163 1.315 . S
O165 Cd155 2.240 . S
O165 C163 1.279 1_655 S
O166 Cd156 2.297 . S
O166 C161 1.247 . S
O167 Cd156 2.439 1_655 S
O167 C161 1.208 1_655 S
O168 Cd169 2.223 1_554 S
O168 C176 1.315 . S
Cd169 O168 2.223 1_556 S
Cd169 O172 2.297 . S
Cd169 O173 2.439 . S
Cd169 O179 2.240 . S
Cd170 O171 2.240 . S
Cd170 O178 2.223 . S
Cd170 O180 2.297 . S
Cd170 O181 2.439 1_554 S
O171 Cd170 2.240 . S
O171 C176 1.279 . S
O172 Cd169 2.297 . S
O172 C174 1.247 . S
O173 Cd169 2.439 . S
O173 C174 1.208 . S
C174 O172 1.247 . S
C174 O173 1.208 . S
C175 O180 1.247 1_556 S
C175 O181 1.208 . S
C176 O168 1.315 . S
C176 O171 1.279 . S
C177 O178 1.315 . S
C177 O179 1.279 1_554 S
O178 Cd170 2.223 . S
O178 C177 1.315 . S
O179 Cd169 2.240 . S
O179 C177 1.279 1_556 S
O180 Cd170 2.297 . S
O180 C175 1.247 1_554 S
O181 Cd170 2.439 1_556 S
O181 C175 1.208 . S
O182 Cd183 2.223 . S
O182 C190 1.315 . S
Cd183 O182 2.223 . S
Cd183 O186 2.297 . S
Cd183 O187 2.439 . S
Cd183 O193 2.240 . S
Cd184 O185 2.240 . S
Cd184 O192 2.223 . S
Cd184 O194 2.297 . S
Cd184 O195 2.439 . S
O185 Cd184 2.240 . S
O185 C190 1.279 . S
O186 Cd183 2.297 . S
O186 C188 1.247 . S
O187 Cd183 2.439 . S
O187 C188 1.208 . S
C188 O186 1.247 . S
C188 O187 1.208 . S
C189 O194 1.247 . S
C189 O195 1.208 . S
C190 O182 1.315 . S
C190 O185 1.279 . S
C191 O192 1.315 . S
C191 O193 1.279 . S
O192 Cd184 2.223 . S
O192 C191 1.315 . S
O193 Cd183 2.240 . S
O193 C191 1.279 . S
O194 Cd184 2.297 . S
O194 C189 1.247 . S
O195 Cd184 2.439 . S
O195 C189 1.208 . S
O196 Cd197 2.223 . S
O196 C204 1.315 . S
Cd197 O196 2.223 . S
Cd197 O200 2.297 . S
Cd197 O201 2.439 . S
Cd197 O207 2.240 . S
Cd198 O199 2.240 . S
Cd198 O206 2.223 . S
Cd198 O208 2.297 . S
Cd198 O209 2.439 . S
O199 Cd198 2.240 . S
O199 C204 1.279 . S
O200 Cd197 2.297 . S
O200 C202 1.247 . S
O201 Cd197 2.439 . S
O201 C202 1.208 . S
C202 O200 1.247 . S
C202 O201 1.208 . S
C203 O208 1.247 . S
C203 O209 1.208 . S
C204 O196 1.315 . S
C204 O199 1.279 . S
C205 O206 1.315 . S
C205 O207 1.279 . S
O206 Cd198 2.223 . S
O206 C205 1.315 . S
O207 Cd197 2.240 . S
O207 C205 1.279 . S
O208 Cd198 2.297 . S
O208 C203 1.247 . S
O209 Cd198 2.439 . S
O209 C203 1.208 . S
O210 Cd211 2.223 . S
O210 C218 1.315 . S
Cd211 O210 2.223 . S
Cd211 O214 2.297 . S
Cd211 O215 2.439 . S
Cd211 O221 2.240 . S
Cd212 O213 2.240 . S
Cd212 O220 2.223 . S
Cd212 O222 2.297 . S
Cd212 O223 2.439 . S
O213 Cd212 2.240 . S
O213 C218 1.279 . S
O214 Cd211 2.297 . S
O214 C216 1.247 . S
O215 Cd211 2.439 . S
O215 C216 1.208 . S
C216 O214 1.247 . S
C216 O215 1.208 . S
C217 O222 1.247 . S
C217 O223 1.208 . S
C218 O210 1.315 . S
C218 O213 1.279 . S
C219 O220 1.315 . S
C219 O221 1.279 . S
O220 Cd212 2.223 . S
O220 C219 1.315 . S
O221 Cd211 2.240 . S
O221 C219 1.279 . S
O222 Cd212 2.297 . S
O222 C217 1.247 . S
O223 Cd212 2.439 . S
O223 C217 1.208 . S
C224 C225 1.391 . S
C224 C226 1.394 . S
C224 H240 0.931 . S
C225 C224 1.391 . S
C225 C229 1.376 . S
C226 C224 1.394 . S
C226 C227 1.369 . S
C226 C230 1.531 . S
C227 C226 1.369 . S
C227 C228 1.410 . S
C227 C235 1.503 . S
C228 C227 1.410 . S
C228 C229 1.392 . S
C228 C231 1.511 . S
C229 C225 1.376 . S
C229 C228 1.392 . S
C229 H241 0.929 . S
C230 C226 1.531 . S
C230 H242 0.960 . S
C230 H243 0.962 . S
C230 H244 0.960 . S
C231 C228 1.511 . S
C231 H245 0.961 . S
C231 H246 0.961 . S
C231 H247 0.961 . S
C232 C233 1.370 . S
C232 C234 1.363 . S
C232 H248 0.931 . S
C233 C232 1.370 . S
C233 C237 1.408 . S
C234 C232 1.363 . S
C234 C235 1.370 . S
C234 C238 1.524 . S
C235 C227 1.503 . S
C235 C234 1.370 . S
C235 C236 1.403 . S
C236 C235 1.403 . S
C236 C237 1.404 . S
C236 C239 1.539 . S
C237 C233 1.408 . S
C237 C236 1.404 . S
C237 H249 0.943 . S
C238 C234 1.524 . S
C238 H250 0.956 . S
C238 H251 0.961 . S
C238 H252 0.961 . S
C239 C236 1.539 . S
C239 H253 0.958 . S
C239 H254 0.961 . S
C239 H255 0.960 . S
H240 C224 0.931 . S
H241 C229 0.929 . S
H242 C230 0.960 . S
H243 C230 0.962 . S
H244 C230 0.960 . S
H245 C231 0.961 . S
H246 C231 0.961 . S
H247 C231 0.961 . S
H248 C232 0.931 . S
H249 C237 0.943 . S
H250 C238 0.956 . S
H251 C238 0.961 . S
H252 C238 0.961 . S
H253 C239 0.958 . S
H254 C239 0.961 . S
H255 C239 0.960 . S
C256 C257 1.391 . S
C256 C258 1.394 . S
C256 H272 0.931 . S
C257 C256 1.391 . S
C257 C261 1.376 . S
C258 C256 1.394 . S
C258 C259 1.369 . S
C258 C262 1.531 . S
C259 C258 1.369 . S
C259 C260 1.410 . S
C259 C267 1.503 . S
C260 C259 1.410 . S
C260 C261 1.392 . S
C260 C263 1.511 . S
C261 C257 1.376 . S
C261 C260 1.392 . S
C261 H273 0.929 . S
C262 C258 1.531 . S
C262 H274 0.960 . S
C262 H275 0.962 . S
C262 H276 0.960 . S
C263 C260 1.511 . S
C263 H277 0.961 . S
C263 H278 0.961 . S
C263 H279 0.961 . S
C264 C265 1.370 . S
C264 C266 1.363 . S
C264 H280 0.931 . S
C265 C264 1.370 . S
C265 C269 1.408 . S
C266 C264 1.363 . S
C266 C267 1.370 . S
C266 C270 1.524 . S
C267 C259 1.503 . S
C267 C266 1.370 . S
C267 C268 1.403 . S
C268 C267 1.403 . S
C268 C269 1.404 . S
C268 C271 1.539 . S
C269 C265 1.408 . S
C269 C268 1.404 . S
C269 H281 0.930 . S
C270 C266 1.524 . S
C270 H282 0.956 . S
C270 H283 0.961 . S
C270 H284 0.961 . S
C271 C268 1.539 . S
C271 H285 0.958 . S
C271 H286 0.961 . S
C271 H287 0.960 . S
H272 C256 0.931 . S
H273 C261 0.929 . S
H274 C262 0.960 . S
H275 C262 0.962 . S
H276 C262 0.960 . S
H277 C263 0.961 . S
H278 C263 0.961 . S
H279 C263 0.961 . S
H280 C264 0.931 . S
H281 C269 0.930 . S
H282 C270 0.956 . S
H283 C270 0.961 . S
H284 C270 0.961 . S
H285 C271 0.958 . S
H286 C271 0.961 . S
H287 C271 0.960 . S
C288 C289 1.391 . S
C288 C290 1.394 . S
C288 H304 0.931 . S
C289 C288 1.391 . S
C289 C293 1.376 . S
C290 C288 1.394 . S
C290 C291 1.369 . S
C290 C294 1.531 . S
C291 C290 1.369 . S
C291 C292 1.410 . S
C291 C299 1.503 . S
C292 C291 1.410 . S
C292 C293 1.392 . S
C292 C295 1.511 . S
C293 C289 1.376 . S
C293 C292 1.392 . S
C293 H305 0.929 . S
C294 C290 1.531 . S
C294 H306 0.960 . S
C294 H307 0.962 . S
C294 H308 0.960 . S
C295 C292 1.511 . S
C295 H309 0.961 . S
C295 H310 0.961 . S
C295 H311 0.961 . S
C296 C297 1.370 . S
C296 C298 1.363 . S
C296 H312 0.931 . S
C297 C296 1.370 . S
C297 C301 1.408 . S
C298 C296 1.363 . S
C298 C299 1.370 . S
C298 C302 1.524 . S
C299 C291 1.503 . S
C299 C298 1.370 . S
C299 C300 1.403 . S
C300 C299 1.403 . S
C300 C301 1.404 . S
C300 C303 1.539 . S
C301 C297 1.408 . S
C301 C300 1.404 . S
C301 H313 0.930 . S
C302 C298 1.524 . S
C302 H314 0.956 . S
C302 H315 0.961 . S
C302 H316 0.961 . S
C303 C300 1.539 . S
C303 H317 0.958 . S
C303 H318 0.961 . S
C303 H319 0.960 . S
H304 C288 0.931 . S
H305 C293 0.929 . S
H306 C294 0.960 . S
H307 C294 0.962 . S
H308 C294 0.960 . S
H309 C295 0.961 . S
H310 C295 0.961 . S
H311 C295 0.961 . S
H312 C296 0.931 . S
H313 C301 0.930 . S
H314 C302 0.956 . S
H315 C302 0.961 . S
H316 C302 0.961 . S
H317 C303 0.958 . S
H318 C303 0.961 . S
H319 C303 0.960 . S
C320 C321 1.391 . S
C320 C322 1.394 . S
C320 H336 0.931 . S
C321 C320 1.391 . S
C321 C325 1.376 . S
C322 C320 1.394 . S
C322 C323 1.369 . S
C322 C326 1.531 . S
C323 C322 1.369 . S
C323 C324 1.410 . S
C323 C331 1.503 . S
C324 C323 1.410 . S
C324 C325 1.392 . S
C324 C327 1.511 . S
C325 C321 1.376 . S
C325 C324 1.392 . S
C325 H337 0.929 . S
C326 C322 1.531 . S
C326 H338 0.960 . S
C326 H339 0.962 . S
C326 H340 0.960 . S
C327 C324 1.511 . S
C327 H341 0.961 . S
C327 H342 0.961 . S
C327 H343 0.961 . S
C328 C329 1.370 . S
C328 C330 1.363 . S
C328 H344 0.931 . S
C329 C328 1.370 . S
C329 C333 1.408 . S
C330 C328 1.363 . S
C330 C331 1.370 . S
C330 C334 1.524 . S
C331 C323 1.503 . S
C331 C330 1.370 . S
C331 C332 1.403 . S
C332 C331 1.403 . S
C332 C333 1.404 . S
C332 C335 1.539 . S
C333 C329 1.408 . S
C333 C332 1.404 . S
C333 H345 0.930 . S
C334 C330 1.524 . S
C334 H346 0.956 . S
C334 H347 0.961 . S
C334 H348 0.961 . S
C335 C332 1.539 . S
C335 H349 0.958 . S
C335 H350 0.961 . S
C335 H351 0.960 . S
H336 C320 0.931 . S
H337 C325 0.929 . S
H338 C326 0.960 . S
H339 C326 0.962 . S
H340 C326 0.960 . S
H341 C327 0.961 . S
H342 C327 0.961 . S
H343 C327 0.961 . S
H344 C328 0.931 . S
H345 C333 0.930 . S
H346 C334 0.956 . S
H347 C334 0.961 . S
H348 C334 0.961 . S
H349 C335 0.958 . S
H350 C335 0.961 . S
H351 C335 0.960 . S
C352 C353 1.391 . S
C352 C354 1.394 . S
C352 H368 0.931 . S
C353 C352 1.391 . S
C353 C357 1.376 . S
C354 C352 1.394 . S
C354 C355 1.369 . S
C354 C358 1.531 . S
C355 C354 1.369 . S
C355 C356 1.410 . S
C355 C363 1.503 . S
C356 C355 1.410 . S
C356 C357 1.392 . S
C356 C359 1.511 . S
C357 C353 1.376 . S
C357 C356 1.392 . S
C357 H369 0.929 . S
C358 C354 1.531 . S
C358 H370 0.960 . S
C358 H371 0.962 . S
C358 H372 0.960 . S
C359 C356 1.511 . S
C359 H373 0.961 . S
C359 H374 0.961 . S
C359 H375 0.961 . S
C360 C361 1.370 . S
C360 C362 1.363 . S
C360 H376 0.931 . S
C361 C360 1.370 . S
C361 C365 1.408 . S
C362 C360 1.363 . S
C362 C363 1.370 . S
C362 C366 1.524 . S
C363 C355 1.503 . S
C363 C362 1.370 . S
C363 C364 1.403 . S
C364 C363 1.403 . S
C364 C365 1.404 . S
C364 C367 1.539 . S
C365 C361 1.408 . S
C365 C364 1.404 . S
C365 H377 0.930 . S
C366 C362 1.524 . S
C366 H378 0.956 . S
C366 H379 0.961 . S
C366 H380 0.961 . S
C367 C364 1.539 . S
C367 H381 0.958 . S
C367 H382 0.961 . S
C367 H383 0.960 . S
H368 C352 0.931 . S
H369 C357 0.929 . S
H370 C358 0.960 . S
H371 C358 0.962 . S
H372 C358 0.960 . S
H373 C359 0.961 . S
H374 C359 0.961 . S
H375 C359 0.961 . S
H376 C360 0.931 . S
H377 C365 0.930 . S
H378 C366 0.956 . S
H379 C366 0.961 . S
H380 C366 0.961 . S
H381 C367 0.958 . S
H382 C367 0.961 . S
H383 C367 0.960 . S
C384 C385 1.391 . S
C384 C386 1.394 . S
C384 H400 0.931 . S
C385 C384 1.391 . S
C385 C389 1.376 . S
C386 C384 1.394 . S
C386 C387 1.369 . S
C386 C390 1.531 . S
C387 C386 1.369 . S
C387 C388 1.410 . S
C387 C395 1.503 . S
C388 C387 1.410 . S
C388 C389 1.392 . S
C388 C391 1.511 . S
C389 C385 1.376 . S
C389 C388 1.392 . S
C389 H401 0.929 . S
C390 C386 1.531 . S
C390 H402 0.960 . S
C390 H403 0.962 . S
C390 H404 0.960 . S
C391 C388 1.511 . S
C391 H405 0.961 . S
C391 H406 0.961 . S
C391 H407 0.961 . S
C392 C393 1.370 . S
C392 C394 1.363 . S
C392 H408 0.931 . S
C393 C392 1.370 . S
C393 C397 1.408 . S
C394 C392 1.363 . S
C394 C395 1.370 . S
C394 C398 1.524 . S
C395 C387 1.503 . S
C395 C394 1.370 . S
C395 C396 1.403 . S
C396 C395 1.403 . S
C396 C397 1.404 . S
C396 C399 1.539 . S
C397 C393 1.408 . S
C397 C396 1.404 . S
C397 H409 0.930 . S
C398 C394 1.524 . S
C398 H410 0.956 . S
C398 H411 0.961 . S
C398 H412 0.961 . S
C399 C396 1.539 . S
C399 H413 0.958 . S
C399 H414 0.961 . S
C399 H415 0.960 . S
H400 C384 0.931 . S
H401 C389 0.929 . S
H402 C390 0.960 . S
H403 C390 0.962 . S
H404 C390 0.960 . S
H405 C391 0.961 . S
H406 C391 0.961 . S
H407 C391 0.961 . S
H408 C392 0.931 . S
H409 C397 0.930 . S
H410 C398 0.956 . S
H411 C398 0.961 . S
H412 C398 0.961 . S
H413 C399 0.958 . S
H414 C399 0.961 . S
H415 C399 0.960 . S
C416 C417 1.391 . S
C416 C418 1.394 . S
C416 H432 0.931 . S
C417 C416 1.391 . S
C417 C421 1.376 . S
C418 C416 1.394 . S
C418 C419 1.369 . S
C418 C422 1.531 . S
C419 C418 1.369 . S
C419 C420 1.410 . S
C419 C427 1.503 . S
C420 C419 1.410 . S
C420 C421 1.392 . S
C420 C423 1.511 . S
C421 C417 1.376 . S
C421 C420 1.392 . S
C421 H433 0.929 . S
C422 C418 1.531 . S
C422 H434 0.960 . S
C422 H435 0.962 . S
C422 H436 0.960 . S
C423 C420 1.511 . S
C423 H437 0.961 . S
C423 H438 0.961 . S
C423 H439 0.961 . S
C424 C425 1.370 . S
C424 C426 1.363 . S
C424 H440 0.931 . S
C425 C424 1.370 . S
C425 C429 1.408 . S
C426 C424 1.363 . S
C426 C427 1.370 . S
C426 C430 1.524 . S
C427 C419 1.503 . S
C427 C426 1.370 . S
C427 C428 1.403 . S
C428 C427 1.403 . S
C428 C429 1.404 . S
C428 C431 1.539 1_655 S
C429 C425 1.408 . S
C429 C428 1.404 . S
C429 H441 0.930 . S
C430 C426 1.524 . S
C430 H442 0.956 . S
C430 H443 0.961 . S
C430 H444 0.961 . S
C431 C428 1.539 1_455 S
C431 H445 0.958 . S
C431 H446 0.961 . S
C431 H447 0.960 . S
H432 C416 0.931 . S
H433 C421 0.929 . S
H434 C422 0.960 . S
H435 C422 0.962 . S
H436 C422 0.960 . S
H437 C423 0.961 . S
H438 C423 0.961 . S
H439 C423 0.961 . S
H440 C424 0.931 . S
H441 C429 0.930 . S
H442 C430 0.956 . S
H443 C430 0.961 . S
H444 C430 0.961 . S
H445 C431 0.958 . S
H446 C431 0.961 . S
H447 C431 0.960 . S
C448 C449 1.391 . S
C448 C450 1.394 . S
C448 H464 0.931 . S
C449 C448 1.391 . S
C449 C453 1.376 . S
C450 C448 1.394 . S
C450 C451 1.369 . S
C450 C454 1.531 . S
C451 C450 1.369 . S
C451 C452 1.410 . S
C451 C459 1.503 . S
C452 C451 1.410 . S
C452 C453 1.392 . S
C452 C455 1.511 . S
C453 C449 1.376 . S
C453 C452 1.392 . S
C453 H465 0.929 . S
C454 C450 1.531 . S
C454 H466 0.960 . S
C454 H467 0.962 . S
C454 H468 0.960 . S
C455 C452 1.511 . S
C455 H469 0.961 . S
C455 H470 0.961 . S
C455 H471 0.961 . S
C456 C457 1.370 . S
C456 C458 1.363 . S
C456 H472 0.931 . S
C457 C456 1.370 . S
C457 C461 1.408 . S
C458 C456 1.363 . S
C458 C459 1.370 . S
C458 C462 1.524 . S
C459 C451 1.503 . S
C459 C458 1.370 . S
C459 C460 1.403 . S
C460 C459 1.403 . S
C460 C461 1.404 . S
C460 C463 1.539 . S
C461 C457 1.408 . S
C461 C460 1.404 . S
C461 H473 0.930 . S
C462 C458 1.524 . S
C462 H474 0.956 . S
C462 H475 0.961 . S
C462 H476 0.961 . S
C463 C460 1.539 . S
C463 H477 0.958 . S
C463 H478 0.961 . S
C463 H479 0.960 . S
H464 C448 0.931 . S
H465 C453 0.929 . S
H466 C454 0.960 . S
H467 C454 0.962 . S
H468 C454 0.960 . S
H469 C455 0.961 . S
H470 C455 0.961 . S
H471 C455 0.961 . S
H472 C456 0.931 . S
H473 C461 0.930 . S
H474 C462 0.956 . S
H475 C462 0.961 . S
H476 C462 0.961 . S
H477 C463 0.958 . S
H478 C463 0.961 . S
H479 C463 0.960 . S
C480 C481 1.391 . S
C480 C482 1.394 . S
C480 H496 0.931 . S
C481 C480 1.391 . S
C481 C485 1.376 . S
C482 C480 1.394 . S
C482 C483 1.369 . S
C482 C486 1.531 . S
C483 C482 1.369 . S
C483 C484 1.410 . S
C483 C491 1.503 . S
C484 C483 1.410 . S
C484 C485 1.392 . S
C484 C487 1.511 . S
C485 C481 1.376 . S
C485 C484 1.392 . S
C485 H497 0.929 . S
C486 C482 1.531 . S
C486 H498 0.960 . S
C486 H499 0.962 . S
C486 H500 0.960 . S
C487 C484 1.511 . S
C487 H501 0.961 . S
C487 H502 0.961 . S
C487 H503 0.961 . S
C488 C489 1.370 . S
C488 C490 1.363 . S
C488 H504 0.931 . S
C489 C488 1.370 . S
C489 C493 1.408 . S
C490 C488 1.363 . S
C490 C491 1.370 . S
C490 C494 1.524 . S
C491 C483 1.503 . S
C491 C490 1.370 . S
C491 C492 1.403 . S
C492 C491 1.403 . S
C492 C493 1.404 . S
C492 C495 1.539 . S
C493 C489 1.408 . S
C493 C492 1.404 . S
C493 H505 0.930 . S
C494 C490 1.524 . S
C494 H506 0.956 . S
C494 H507 0.961 . S
C494 H508 0.961 . S
C495 C492 1.539 . S
C495 H509 0.958 . S
C495 H510 0.961 . S
C495 H511 0.960 . S
H496 C480 0.931 . S
H497 C485 0.929 . S
H498 C486 0.960 . S
H499 C486 0.962 . S
H500 C486 0.960 . S
H501 C487 0.961 . S
H502 C487 0.961 . S
H503 C487 0.961 . S
H504 C488 0.931 . S
H505 C493 0.930 . S
H506 C494 0.956 . S
H507 C494 0.961 . S
H508 C494 0.961 . S
H509 C495 0.958 . S
H510 C495 0.961 . S
H511 C495 0.960 . S
C512 C513 1.391 1_445 S
C512 C514 1.394 . S
C512 H528 0.931 . S
C513 C512 1.391 1_665 S
C513 C517 1.376 . S
C514 C512 1.394 . S
C514 C515 1.369 1_445 S
C514 C518 1.531 . S
C515 C514 1.369 1_665 S
C515 C516 1.410 . S
C515 C523 1.503 . S
C516 C515 1.410 . S
C516 C517 1.392 . S
C516 C519 1.511 . S
C517 C513 1.376 . S
C517 C516 1.392 . S
C517 H529 0.929 . S
C518 C514 1.531 . S
C518 H530 0.960 . S
C518 H531 0.962 . S
C518 H532 0.960 . S
C519 C516 1.511 . S
C519 H533 0.961 . S
C519 H534 0.961 . S
C519 H535 0.961 . S
C520 C521 1.370 1_545 S
C520 C522 1.363 . S
C520 H536 0.931 . S
C521 C520 1.370 1_565 S
C521 C525 1.408 . S
C522 C520 1.363 . S
C522 C523 1.370 1_545 S
C522 C526 1.524 . S
C523 C515 1.503 . S
C523 C522 1.370 1_565 S
C523 C524 1.403 . S
C524 C523 1.403 . S
C524 C525 1.404 . S
C524 C527 1.539 1_655 S
C525 C521 1.408 . S
C525 C524 1.404 . S
C525 H537 0.930 1_655 S
C526 C522 1.524 . S
C526 H538 0.956 . S
C526 H539 0.961 . S
C526 H540 0.961 . S
C527 C524 1.539 1_455 S
C527 H541 0.958 . S
C527 H542 0.961 1_455 S
C527 H543 0.960 1_455 S
H528 C512 0.931 . S
H529 C517 0.929 . S
H530 C518 0.960 . S
H531 C518 0.962 . S
H532 C518 0.960 . S
H533 C519 0.961 . S
H534 C519 0.961 . S
H535 C519 0.961 . S
H536 C520 0.931 . S
H537 C525 0.930 1_455 S
H538 C526 0.956 . S
H539 C526 0.961 . S
H540 C526 0.961 . S
H541 C527 0.958 . S
H542 C527 0.961 1_655 S
H543 C527 0.960 1_655 S
C544 C545 1.391 . S
C544 C546 1.394 . S
C544 H560 0.931 . S
C545 C544 1.391 . S
C545 C549 1.376 . S
C546 C544 1.394 . S
C546 C547 1.369 . S
C546 C550 1.531 . S
C547 C546 1.369 . S
C547 C548 1.410 . S
C547 C555 1.503 1_556 S
C548 C547 1.410 . S
C548 C549 1.392 . S
C548 C551 1.511 . S
C549 C545 1.376 . S
C549 C548 1.392 . S
C549 H561 0.929 . S
C550 C546 1.531 . S
C550 H562 0.960 1_556 S
C550 H563 0.962 1_556 S
C550 H564 0.960 . S
C551 C548 1.511 . S
C551 H565 0.961 . S
C551 H566 0.961 . S
C551 H567 0.961 . S
C552 C553 1.370 . S
C552 C554 1.363 . S
C552 H568 0.931 . S
C553 C552 1.370 . S
C553 C557 1.408 . S
C554 C552 1.363 . S
C554 C555 1.370 . S
C554 C558 1.524 . S
C555 C547 1.503 1_554 S
C555 C554 1.370 . S
C555 C556 1.403 . S
C556 C555 1.403 . S
C556 C557 1.404 . S
C556 C559 1.539 . S
C557 C553 1.408 . S
C557 C556 1.404 . S
C557 H569 0.930 . S
C558 C554 1.524 . S
C558 H570 0.956 . S
C558 H571 0.961 1_554 S
C558 H572 0.961 . S
C559 C556 1.539 . S
C559 H573 0.958 . S
C559 H574 0.961 . S
C559 H575 0.960 . S
H560 C544 0.931 . S
H561 C549 0.929 . S
H562 C550 0.960 1_554 S
H563 C550 0.962 1_554 S
H564 C550 0.960 . S
H565 C551 0.961 . S
H566 C551 0.961 . S
H567 C551 0.961 . S
H568 C552 0.931 . S
H569 C557 0.930 . S
H570 C558 0.956 . S
H571 C558 0.961 1_556 S
H572 C558 0.961 . S
H573 C559 0.958 . S
H574 C559 0.961 . S
H575 C559 0.960 . S
C576 C577 1.391 . S
C576 C578 1.394 . S
C576 H592 0.931 1_565 S
C577 C576 1.391 . S
C577 C581 1.376 . S
C578 C576 1.394 . S
C578 C579 1.369 . S
C578 C582 1.531 1_565 S
C579 C578 1.369 . S
C579 C580 1.410 . S
C579 C587 1.503 . S
C580 C579 1.410 . S
C580 C581 1.392 . S
C580 C583 1.511 . S
C581 C577 1.376 . S
C581 C580 1.392 . S
C581 H593 0.929 . S
C582 C578 1.531 1_545 S
C582 H594 0.960 1_545 S
C582 H595 0.962 . S
C582 H596 0.960 . S
C583 C580 1.511 . S
C583 H597 0.961 . S
C583 H598 0.961 . S
C583 H599 0.961 . S
C584 C585 1.370 . S
C584 C586 1.363 . S
C584 H600 0.914 1_565 S
C585 C584 1.370 . S
C585 C589 1.408 . S
C586 C584 1.363 . S
C586 C587 1.370 . S
C586 C590 1.524 1_565 S
C587 C579 1.503 . S
C587 C586 1.370 . S
C587 C588 1.403 . S
C588 C587 1.403 . S
C588 C589 1.404 . S
C588 C591 1.539 . S
C589 C585 1.408 . S
C589 C588 1.404 . S
C589 H601 0.930 . S
C590 C586 1.524 1_545 S
C590 H602 0.956 . S
C590 H603 0.961 1_545 S
C590 H604 0.961 . S
C591 C588 1.539 . S
C591 H605 0.958 . S
C591 H606 0.961 . S
C591 H607 0.960 . S
H592 C576 0.931 1_545 S
H593 C581 0.929 . S
H594 C582 0.960 1_565 S
H595 C582 0.962 . S
H596 C582 0.960 . S
H597 C583 0.961 . S
H598 C583 0.961 . S
H599 C583 0.961 . S
H600 C584 0.914 1_545 S
H601 C589 0.930 . S
H602 C590 0.956 . S
H603 C590 0.961 1_565 S
H604 C590 0.961 . S
H605 C591 0.958 . S
H606 C591 0.961 . S
H607 C591 0.960 . S
C608 C609 1.391 . S
C608 C610 1.394 . S
C608 H624 0.931 . S
C609 C608 1.391 . S
C609 C613 1.376 . S
C610 C608 1.394 . S
C610 C611 1.369 . S
C610 C614 1.531 . S
C611 C610 1.369 . S
C611 C612 1.410 . S
C611 C619 1.503 . S
C612 C611 1.410 . S
C612 C613 1.392 . S
C612 C615 1.511 . S
C613 C609 1.376 . S
C613 C612 1.392 . S
C613 H625 0.929 . S
C614 C610 1.531 . S
C614 H626 0.960 . S
C614 H627 0.962 . S
C614 H628 0.960 . S
C615 C612 1.511 . S
C615 H629 0.961 . S
C615 H630 0.961 . S
C615 H631 0.961 . S
C616 C617 1.370 . S
C616 C618 1.363 . S
C616 H632 0.931 . S
C617 C616 1.370 . S
C617 C621 1.408 . S
C618 C616 1.363 . S
C618 C619 1.370 . S
C618 C622 1.524 . S
C619 C611 1.503 . S
C619 C618 1.370 . S
C619 C620 1.403 . S
C620 C619 1.403 . S
C620 C621 1.404 . S
C620 C623 1.539 . S
C621 C617 1.408 . S
C621 C620 1.404 . S
C621 H633 0.930 . S
C622 C618 1.524 . S
C622 H634 0.956 . S
C622 H635 0.961 . S
C622 H636 0.961 . S
C623 C620 1.539 . S
C623 H637 0.958 . S
C623 H638 0.961 . S
C623 H639 0.960 . S
H624 C608 0.931 . S
H625 C613 0.929 . S
H626 C614 0.960 . S
H627 C614 0.962 . S
H628 C614 0.960 . S
H629 C615 0.961 . S
H630 C615 0.961 . S
H631 C615 0.961 . S
H632 C616 0.931 . S
H633 C621 0.930 . S
H634 C622 0.956 . S
H635 C622 0.961 . S
H636 C622 0.961 . S
H637 C623 0.958 . S
H638 C623 0.961 . S
H639 C623 0.960 . S
C640 C641 1.391 . S
C640 C642 1.394 . S
C640 H656 0.931 . S
C641 C640 1.391 . S
C641 C645 1.376 1_455 S
C642 C640 1.394 . S
C642 C643 1.369 . S
C642 C646 1.531 . S
C643 C642 1.369 . S
C643 C644 1.410 1_455 S
C643 C651 1.503 . S
C644 C643 1.410 1_655 S
C644 C645 1.392 . S
C644 C647 1.511 . S
C645 C641 1.376 1_655 S
C645 C644 1.392 . S
C645 H657 0.929 . S
C646 C642 1.531 . S
C646 H658 0.960 . S
C646 H659 0.962 . S
C646 H660 0.960 . S
C647 C644 1.511 . S
C647 H661 0.961 . S
C647 H662 0.961 . S
C647 H663 0.961 . S
C648 C649 1.370 . S
C648 C650 1.363 . S
C648 H664 0.931 . S
C649 C648 1.370 . S
C649 C653 1.408 1_455 S
C650 C648 1.363 . S
C650 C651 1.370 . S
C650 C654 1.524 . S
C651 C643 1.503 . S
C651 C650 1.370 . S
C651 C652 1.403 1_455 S
C652 C651 1.403 1_655 S
C652 C653 1.404 . S
C652 C655 1.539 . S
C653 C649 1.408 1_655 S
C653 C652 1.404 . S
C653 H665 0.930 . S
C654 C650 1.524 . S
C654 H666 0.956 . S
C654 H667 0.961 . S
C654 H668 0.961 . S
C655 C652 1.539 . S
C655 H669 0.958 . S
C655 H670 0.961 . S
C655 H671 0.960 . S
H656 C640 0.931 . S
H657 C645 0.929 . S
H658 C646 0.960 . S
H659 C646 0.962 . S
H660 C646 0.960 . S
H661 C647 0.961 . S
H662 C647 0.961 . S
H663 C647 0.961 . S
H664 C648 0.931 . S
H665 C653 0.930 . S
H666 C654 0.956 . S
H667 C654 0.961 . S
H668 C654 0.961 . S
H669 C655 0.958 . S
H670 C655 0.961 . S
H671 C655 0.960 . S
C672 C673 1.391 . S
C672 C674 1.394 . S
C672 H688 0.931 . S
C673 C672 1.391 . S
C673 C677 1.376 . S
C674 C672 1.394 . S
C674 C675 1.369 . S
C674 C678 1.531 1_655 S
C675 C674 1.369 . S
C675 C676 1.410 . S
C675 C683 1.503 1_655 S
C676 C675 1.410 . S
C676 C677 1.392 . S
C676 C679 1.511 . S
C677 C673 1.376 . S
C677 C676 1.392 . S
C677 H689 0.929 . S
C678 C674 1.531 1_455 S
C678 H690 0.960 . S
C678 H691 0.962 . S
C678 H692 0.960 1_455 S
C679 C676 1.511 . S
C679 H693 0.961 . S
C679 H694 0.961 1_655 S
C679 H695 0.961 . S
C680 C681 1.370 . S
C680 C682 1.363 . S
C680 H696 0.931 . S
C681 C680 1.370 . S
C681 C685 1.408 . S
C682 C680 1.363 . S
C682 C683 1.370 . S
C682 C686 1.524 . S
C683 C675 1.503 1_455 S
C683 C682 1.370 . S
C683 C684 1.403 . S
C684 C683 1.403 . S
C684 C685 1.404 . S
C684 C687 1.539 . S
C685 C681 1.408 . S
C685 C684 1.404 . S
C685 H697 0.930 . S
C686 C682 1.524 . S
C686 H698 0.956 . S
C686 H699 0.961 . S
C686 H700 0.961 . S
C687 C684 1.539 . S
C687 H701 0.958 . S
C687 H702 0.961 . S
C687 H703 0.960 . S
H688 C672 0.931 . S
H689 C677 0.929 . S
H690 C678 0.960 . S
H691 C678 0.962 . S
H692 C678 0.960 1_655 S
H693 C679 0.961 . S
H694 C679 0.961 1_455 S
H695 C679 0.961 . S
H696 C680 0.931 . S
H697 C685 0.930 . S
H698 C686 0.956 . S
H699 C686 0.961 . S
H700 C686 0.961 . S
H701 C687 0.958 . S
H702 C687 0.961 . S
H703 C687 0.960 . S
C704 C705 1.391 . S
C704 C706 1.394 . S
C704 H720 0.931 . S
C705 C704 1.391 . S
C705 C709 1.376 1_556 S
C706 C704 1.394 . S
C706 C707 1.369 . S
C706 C710 1.531 . S
C707 C706 1.369 . S
C707 C708 1.410 1_556 S
C707 C715 1.503 . S
C708 C707 1.410 1_554 S
C708 C709 1.392 . S
C708 C711 1.511 . S
C709 C705 1.376 1_554 S
C709 C708 1.392 . S
C709 H721 0.929 . S
C710 C706 1.531 . S
C710 H722 0.960 . S
C710 H723 0.962 . S
C710 H724 0.960 . S
C711 C708 1.511 . S
C711 H725 0.961 . S
C711 H726 0.961 . S
C711 H727 0.961 . S
C712 C713 1.370 1_554 S
C712 C714 1.363 . S
C712 H728 0.931 . S
C713 C712 1.370 1_556 S
C713 C717 1.408 . S
C714 C712 1.363 . S
C714 C715 1.370 1_554 S
C714 C718 1.524 . S
C715 C707 1.503 . S
C715 C714 1.370 1_556 S
C715 C716 1.403 . S
C716 C715 1.403 . S
C716 C717 1.404 . S
C716 C719 1.539 . S
C717 C713 1.408 . S
C717 C716 1.404 . S
C717 H729 0.930 . S
C718 C714 1.524 . S
C718 H730 0.956 . S
C718 H731 0.961 . S
C718 H732 0.961 . S
C719 C716 1.539 . S
C719 H733 0.958 . S
C719 H734 0.961 . S
C719 H735 0.960 . S
H720 C704 0.931 . S
H721 C709 0.929 . S
H722 C710 0.960 . S
H723 C710 0.962 . S
H724 C710 0.960 . S
H725 C711 0.961 . S
H726 C711 0.961 . S
H727 C711 0.961 . S
H728 C712 0.931 . S
H729 C717 0.930 . S
H730 C718 0.956 . S
H731 C718 0.961 . S
H732 C718 0.961 . S
H733 C719 0.958 . S
H734 C719 0.961 . S
H735 C719 0.960 . S
C736 C737 1.391 . S
C736 C738 1.394 . S
C736 H752 0.931 . S
C737 C736 1.391 . S
C737 C741 1.376 . S
C738 C736 1.394 . S
C738 C739 1.369 . S
C738 C742 1.531 . S
C739 C738 1.369 . S
C739 C740 1.410 . S
C739 C747 1.503 . S
C740 C739 1.410 . S
C740 C741 1.392 . S
C740 C743 1.511 . S
C741 C737 1.376 . S
C741 C740 1.392 . S
C741 H753 0.929 . S
C742 C738 1.531 . S
C742 H754 0.960 . S
C742 H755 0.962 . S
C742 H756 0.960 . S
C743 C740 1.511 . S
C743 H757 0.961 . S
C743 H758 0.961 . S
C743 H759 0.961 . S
C744 C745 1.370 . S
C744 C746 1.363 . S
C744 H760 0.931 . S
C745 C744 1.370 . S
C745 C749 1.408 . S
C746 C744 1.363 . S
C746 C747 1.370 . S
C746 C750 1.524 . S
C747 C739 1.503 . S
C747 C746 1.370 . S
C747 C748 1.403 . S
C748 C747 1.403 . S
C748 C749 1.404 . S
C748 C751 1.539 . S
C749 C745 1.408 . S
C749 C748 1.404 . S
C749 H761 0.930 . S
C750 C746 1.524 . S
C750 H762 0.956 . S
C750 H763 0.961 . S
C750 H764 0.961 . S
C751 C748 1.539 . S
C751 H765 0.958 . S
C751 H766 0.961 . S
C751 H767 0.960 . S
H752 C736 0.931 . S
H753 C741 0.929 . S
H754 C742 0.960 . S
H755 C742 0.962 . S
H756 C742 0.960 . S
H757 C743 0.961 . S
H758 C743 0.961 . S
H759 C743 0.961 . S
H760 C744 0.931 . S
H761 C749 0.930 . S
H762 C750 0.956 . S
H763 C750 0.961 . S
H764 C750 0.961 . S
H765 C751 0.958 . S
H766 C751 0.961 . S
H767 C751 0.960 . S
C768 C769 1.391 . S
C768 C770 1.394 . S
C768 H784 0.931 . S
C769 C768 1.391 . S
C769 C773 1.376 . S
C770 C768 1.394 . S
C770 C771 1.369 . S
C770 C774 1.531 . S
C771 C770 1.369 . S
C771 C772 1.410 . S
C771 C779 1.503 . S
C772 C771 1.410 . S
C772 C773 1.392 . S
C772 C775 1.511 . S
C773 C769 1.376 . S
C773 C772 1.392 . S
C773 H785 0.929 . S
C774 C770 1.531 . S
C774 H786 0.960 . S
C774 H787 0.962 . S
C774 H788 0.960 . S
C775 C772 1.511 . S
C775 H789 0.961 . S
C775 H790 0.961 . S
C775 H791 0.961 . S
C776 C777 1.370 . S
C776 C778 1.363 . S
C776 H792 0.931 . S
C777 C776 1.370 . S
C777 C781 1.408 . S
C778 C776 1.363 . S
C778 C779 1.370 . S
C778 C782 1.524 . S
C779 C771 1.503 . S
C779 C778 1.370 . S
C779 C780 1.403 . S
C780 C779 1.403 . S
C780 C781 1.404 . S
C780 C783 1.539 . S
C781 C777 1.408 . S
C781 C780 1.404 . S
C781 H793 0.930 . S
C782 C778 1.524 . S
C782 H794 0.956 . S
C782 H795 0.961 . S
C782 H796 0.961 . S
C783 C780 1.539 . S
C783 H797 0.958 . S
C783 H798 0.961 . S
C783 H799 0.960 . S
H784 C768 0.931 . S
H785 C773 0.929 . S
H786 C774 0.960 . S
H787 C774 0.962 . S
H788 C774 0.960 . S
H789 C775 0.961 . S
H790 C775 0.961 . S
H791 C775 0.961 . S
H792 C776 0.931 . S
H793 C781 0.930 . S
H794 C782 0.956 . S
H795 C782 0.961 . S
H796 C782 0.961 . S
H797 C783 0.958 . S
H798 C783 0.961 . S
H799 C783 0.960 . S
C800 C801 1.391 . S
C800 C802 1.394 . S
C800 H816 0.931 . S
C801 C800 1.391 . S
C801 C805 1.376 . S
C802 C800 1.394 . S
C802 C803 1.369 . S
C802 C806 1.531 . S
C803 C802 1.369 . S
C803 C804 1.410 . S
C803 C811 1.503 . S
C804 C803 1.410 . S
C804 C805 1.392 . S
C804 C807 1.511 . S
C805 C801 1.376 . S
C805 C804 1.392 . S
C805 H817 0.929 . S
C806 C802 1.531 . S
C806 H818 0.960 . S
C806 H819 0.962 . S
C806 H820 0.960 . S
C807 C804 1.511 . S
C807 H821 0.961 . S
C807 H822 0.961 . S
C807 H823 0.961 . S
C808 C809 1.370 . S
C808 C810 1.363 1_655 S
C808 H824 0.931 . S
C809 C808 1.370 . S
C809 C813 1.408 . S
C810 C808 1.363 1_455 S
C810 C811 1.370 . S
C810 C814 1.524 . S
C811 C803 1.503 . S
C811 C810 1.370 . S
C811 C812 1.403 1_455 S
C812 C811 1.403 1_655 S
C812 C813 1.404 . S
C812 C815 1.539 1_655 S
C813 C809 1.408 . S
C813 C812 1.404 . S
C813 H825 0.930 . S
C814 C810 1.524 . S
C814 H826 0.956 . S
C814 H827 0.961 . S
C814 H828 0.961 . S
C815 C812 1.539 1_455 S
C815 H829 0.958 . S
C815 H830 0.961 1_455 S
C815 H831 0.960 . S
H816 C800 0.931 . S
H817 C805 0.929 . S
H818 C806 0.960 . S
H819 C806 0.962 . S
H820 C806 0.960 . S
H821 C807 0.961 . S
H822 C807 0.961 . S
H823 C807 0.961 . S
H824 C808 0.931 . S
H825 C813 0.930 . S
H826 C814 0.956 . S
H827 C814 0.961 . S
H828 C814 0.961 . S
H829 C815 0.958 . S
H830 C815 0.961 1_655 S
H831 C815 0.960 . S
C832 C833 1.391 . S
C832 C834 1.394 . S
C832 H848 0.931 . S
C833 C832 1.391 . S
C833 C837 1.376 1_655 S
C834 C832 1.394 . S
C834 C835 1.369 . S
C834 C838 1.531 . S
C835 C834 1.369 . S
C835 C836 1.410 1_655 S
C835 C843 1.511 . S
C836 C835 1.410 1_455 S
C836 C837 1.392 . S
C836 C839 1.511 . S
C837 C833 1.376 1_455 S
C837 C836 1.392 . S
C837 H849 0.929 . S
C838 C834 1.531 . S
C838 H850 0.960 . S
C838 H851 0.962 1_556 S
C838 H852 0.960 . S
C839 C836 1.511 . S
C839 H853 0.961 . S
C839 H854 0.961 . S
C839 H855 0.961 . S
C840 C841 1.370 . S
C840 C842 1.363 . S
C840 H856 0.931 1_655 S
C841 C840 1.370 . S
C841 C845 1.408 1_554 S
C842 C840 1.363 . S
C842 C843 1.346 1_554 S
C842 C846 1.524 1_655 S
C843 C835 1.511 . S
C843 C842 1.346 1_556 S
C843 C844 1.420 . S
C844 C843 1.420 . S
C844 C845 1.404 . S
C844 C847 1.539 . S
C845 C841 1.408 1_556 S
C845 C844 1.404 . S
C845 H857 0.930 . S
C846 C842 1.524 1_455 S
C846 H858 0.956 1_455 S
C846 H859 0.961 . S
C846 H860 0.961 . S
C847 C844 1.539 . S
C847 H861 0.958 . S
C847 H862 0.961 . S
C847 H863 0.960 . S
H848 C832 0.931 . S
H849 C837 0.929 . S
H850 C838 0.960 . S
H851 C838 0.962 1_554 S
H852 C838 0.960 . S
H853 C839 0.961 . S
H854 C839 0.961 . S
H855 C839 0.961 . S
H856 C840 0.931 1_455 S
H857 C845 0.930 . S
H858 C846 0.956 1_655 S
H859 C846 0.961 . S
H860 C846 0.961 . S
H861 C847 0.958 . S
H862 C847 0.961 . S
H863 C847 0.960 . S
C864 C865 1.391 . S
C864 C866 1.394 . S
C864 H880 0.931 . S
C865 C864 1.391 . S
C865 C869 1.376 . S
C866 C864 1.394 . S
C866 C867 1.369 . S
C866 C870 1.531 . S
C867 C866 1.369 . S
C867 C868 1.410 . S
C867 C875 1.503 . S
C868 C867 1.410 . S
C868 C869 1.392 . S
C868 C871 1.511 . S
C869 C865 1.376 . S
C869 C868 1.392 . S
C869 H881 0.929 . S
C870 C866 1.531 . S
C870 H882 0.960 . S
C870 H883 0.962 . S
C870 H884 0.960 . S
C871 C868 1.511 . S
C871 H885 0.961 . S
C871 H886 0.961 . S
C871 H887 0.961 . S
C872 C873 1.370 . S
C872 C874 1.363 . S
C872 H888 0.931 . S
C873 C872 1.370 . S
C873 C877 1.408 . S
C874 C872 1.363 . S
C874 C875 1.370 . S
C874 C878 1.524 . S
C875 C867 1.503 . S
C875 C874 1.370 . S
C875 C876 1.403 . S
C876 C875 1.403 . S
C876 C877 1.404 . S
C876 C879 1.539 . S
C877 C873 1.408 . S
C877 C876 1.404 . S
C877 H889 0.930 . S
C878 C874 1.524 . S
C878 H890 0.956 . S
C878 H891 0.961 . S
C878 H892 0.961 . S
C879 C876 1.539 . S
C879 H893 0.958 . S
C879 H894 0.961 . S
C879 H895 0.960 . S
H880 C864 0.931 . S
H881 C869 0.929 . S
H882 C870 0.960 . S
H883 C870 0.962 . S
H884 C870 0.960 . S
H885 C871 0.961 . S
H886 C871 0.961 . S
H887 C871 0.961 . S
H888 C872 0.931 . S
H889 C877 0.930 . S
H890 C878 0.956 . S
H891 C878 0.961 . S
H892 C878 0.961 . S
H893 C879 0.958 . S
H894 C879 0.961 . S
H895 C879 0.960 . S
C896 C897 1.391 . S
C896 C898 1.394 . S
C896 H912 0.931 . S
C897 C896 1.391 . S
C897 C901 1.376 . S
C898 C896 1.394 . S
C898 C899 1.369 . S
C898 C902 1.531 . S
C899 C898 1.369 . S
C899 C900 1.410 . S
C899 C907 1.503 . S
C900 C899 1.410 . S
C900 C901 1.392 . S
C900 C903 1.511 . S
C901 C897 1.376 . S
C901 C900 1.392 . S
C901 H913 0.929 . S
C902 C898 1.531 . S
C902 H914 0.960 . S
C902 H915 0.962 . S
C902 H916 0.960 . S
C903 C900 1.511 . S
C903 H917 0.961 . S
C903 H918 0.961 . S
C903 H919 0.961 . S
C904 C905 1.370 . S
C904 C906 1.363 1_565 S
C904 H920 0.931 . S
C905 C904 1.370 . S
C905 C909 1.408 . S
C906 C904 1.363 1_545 S
C906 C907 1.370 . S
C906 C910 1.524 . S
C907 C899 1.503 . S
C907 C906 1.370 . S
C907 C908 1.403 1_545 S
C908 C907 1.403 1_565 S
C908 C909 1.404 . S
C908 C911 1.539 1_565 S
C909 C905 1.408 . S
C909 C908 1.404 . S
C909 H921 0.930 . S
C910 C906 1.524 . S
C910 H922 0.956 . S
C910 H923 0.961 . S
C910 H924 0.961 . S
C911 C908 1.539 1_545 S
C911 H925 0.958 . S
C911 H926 0.961 1_545 S
C911 H927 0.960 . S
H912 C896 0.931 . S
H913 C901 0.929 . S
H914 C902 0.960 . S
H915 C902 0.962 . S
H916 C902 0.960 . S
H917 C903 0.961 . S
H918 C903 0.961 . S
H919 C903 0.961 . S
H920 C904 0.931 . S
H921 C909 0.930 . S
H922 C910 0.956 . S
H923 C910 0.961 . S
H924 C910 0.961 . S
H925 C911 0.958 . S
H926 C911 0.961 1_565 S
H927 C911 0.960 . S
C928 C929 1.391 1_556 S
C928 C930 1.394 . S
C928 H944 0.931 . S
C929 C928 1.391 1_554 S
C929 C933 1.376 . S
C930 C928 1.394 . S
C930 C931 1.369 . S
C930 C934 1.531 . S
C931 C930 1.369 . S
C931 C932 1.410 1_556 S
C931 C939 1.503 . S
C932 C931 1.410 1_554 S
C932 C933 1.392 . S
C932 C935 1.511 . S
C933 C929 1.376 . S
C933 C932 1.392 . S
C933 H945 0.929 . S
C934 C930 1.531 . S
C934 H946 0.960 . S
C934 H947 0.962 . S
C934 H948 0.960 . S
C935 C932 1.511 . S
C935 H949 0.961 . S
C935 H950 0.961 . S
C935 H951 0.961 . S
C936 C937 1.370 . S
C936 C938 1.363 1_556 S
C936 H952 0.931 1_556 S
C937 C936 1.370 . S
C937 C941 1.408 . S
C938 C936 1.363 1_554 S
C938 C939 1.370 1_554 S
C938 C942 1.524 . S
C939 C931 1.503 . S
C939 C938 1.370 1_556 S
C939 C940 1.403 . S
C940 C939 1.403 . S
C940 C941 1.404 . S
C940 C943 1.539 . S
C941 C937 1.408 . S
C941 C940 1.404 . S
C941 H953 0.930 . S
C942 C938 1.524 . S
C942 H954 0.956 1_554 S
C942 H955 0.961 . S
C942 H956 0.961 . S
C943 C940 1.539 . S
C943 H957 0.958 . S
C943 H958 0.961 . S
C943 H959 0.960 . S
H944 C928 0.931 . S
H945 C933 0.929 . S
H946 C934 0.960 . S
H947 C934 0.962 . S
H948 C934 0.960 . S
H949 C935 0.961 . S
H950 C935 0.961 . S
H951 C935 0.961 . S
H952 C936 0.931 1_554 S
H953 C941 0.930 . S
H954 C942 0.956 1_556 S
H955 C942 0.961 . S
H956 C942 0.961 . S
H957 C943 0.958 . S
H958 C943 0.961 . S
H959 C943 0.960 . S
C960 C961 1.391 . S
C960 C962 1.394 . S
C960 H976 0.931 . S
C961 C960 1.391 . S
C961 C965 1.376 . S
C962 C960 1.394 . S
C962 C963 1.369 . S
C962 C966 1.531 1_545 S
C963 C962 1.369 . S
C963 C964 1.410 . S
C963 C971 1.503 1_545 S
C964 C963 1.410 . S
C964 C965 1.392 . S
C964 C967 1.511 . S
C965 C961 1.376 . S
C965 C964 1.392 . S
C965 H977 0.929 . S
C966 C962 1.531 1_565 S
C966 H978 0.960 . S
C966 H979 0.962 . S
C966 H980 0.960 . S
C967 C964 1.511 . S
C967 H981 0.961 . S
C967 H982 0.961 1_545 S
C967 H983 0.961 . S
C968 C969 1.370 . S
C968 C970 1.363 . S
C968 H984 0.931 . S
C969 C968 1.370 . S
C969 C973 1.408 . S
C970 C968 1.363 . S
C970 C971 1.370 . S
C970 C974 1.524 . S
C971 C963 1.503 1_565 S
C971 C970 1.370 . S
C971 C972 1.403 . S
C972 C971 1.403 . S
C972 C973 1.404 . S
C972 C975 1.539 . S
C973 C969 1.408 . S
C973 C972 1.404 . S
C973 H985 0.930 . S
C974 C970 1.524 . S
C974 H986 0.956 . S
C974 H987 0.961 . S
C974 H988 0.961 . S
C975 C972 1.539 . S
C975 H989 0.958 . S
C975 H990 0.961 . S
C975 H991 0.960 . S
H976 C960 0.931 . S
H977 C965 0.929 . S
H978 C966 0.960 . S
H979 C966 0.962 . S
H980 C966 0.960 . S
H981 C967 0.961 . S
H982 C967 0.961 1_565 S
H983 C967 0.961 . S
H984 C968 0.931 . S
H985 C973 0.930 . S
H986 C974 0.956 . S
H987 C974 0.961 . S
H988 C974 0.961 . S
H989 C975 0.958 . S
H990 C975 0.961 . S
H991 C975 0.960 . S
C992 C993 1.391 . S
C992 C994 1.394 . S
C992 H1008 0.916 1_565 S
C993 C992 1.391 . S
C993 C997 1.376 . S
C994 C992 1.394 . S
C994 C995 1.369 . S
C994 C998 1.531 1_565 S
C995 C994 1.369 . S
C995 C996 1.410 . S
C995 C1003 1.503 . S
C996 C995 1.410 . S
C996 C997 1.392 . S
C996 C999 1.511 . S
C997 C993 1.376 . S
C997 C996 1.392 . S
C997 H1009 0.929 . S
C998 C994 1.531 1_545 S
C998 H1010 0.960 . S
C998 H1011 0.962 1_556 S
C998 H1012 0.960 . S
C999 C996 1.511 . S
C999 H1013 0.961 . S
C999 H1014 0.961 . S
C999 H1015 0.961 . S
C1000 C1001 1.370 . S
C1000 C1002 1.363 . S
C1000 H1016 0.931 1_556 S
C1001 C1000 1.370 . S
C1001 C1005 1.408 . S
C1002 C1000 1.363 . S
C1002 C1003 1.370 . S
C1002 C1006 1.524 1_556 S
C1003 C995 1.503 . S
C1003 C1002 1.370 . S
C1003 C1004 1.403 . S
C1004 C1003 1.403 . S
C1004 C1005 1.404 . S
C1004 C1007 1.539 . S
C1005 C1001 1.408 . S
C1005 C1004 1.404 . S
C1005 H1017 0.930 . S
C1006 C1002 1.524 1_554 S
C1006 H1018 0.956 . S
C1006 H1019 0.961 1_554 S
C1006 H1020 0.961 . S
C1007 C1004 1.539 . S
C1007 H1021 0.958 1_565 S
C1007 H1022 0.961 . S
C1007 H1023 0.960 . S
H1008 C992 0.916 1_545 S
H1009 C997 0.929 . S
H1010 C998 0.960 . S
H1011 C998 0.962 1_554 S
H1012 C998 0.960 . S
H1013 C999 0.961 . S
H1014 C999 0.961 . S
H1015 C999 0.961 . S
H1016 C1000 0.931 1_554 S
H1017 C1005 0.930 . S
H1018 C1006 0.956 . S
H1019 C1006 0.961 1_556 S
H1020 C1006 0.961 . S
H1021 C1007 0.958 1_545 S
H1022 C1007 0.961 . S
H1023 C1007 0.960 . S
C1024 C1025 1.391 . S
C1024 C1026 1.394 . S
C1024 H1040 0.931 . S
C1025 C1024 1.391 . S
C1025 C1029 1.376 . S
C1026 C1024 1.394 . S
C1026 C1027 1.369 . S
C1026 C1030 1.531 . S
C1027 C1026 1.369 . S
C1027 C1028 1.410 . S
C1027 C1035 1.503 . S
C1028 C1027 1.410 . S
C1028 C1029 1.392 . S
C1028 C1031 1.511 . S
C1029 C1025 1.376 . S
C1029 C1028 1.392 . S
C1029 H1041 0.929 . S
C1030 C1026 1.531 . S
C1030 H1042 0.960 . S
C1030 H1043 0.962 . S
C1030 H1044 0.960 . S
C1031 C1028 1.511 . S
C1031 H1045 0.961 . S
C1031 H1046 0.961 . S
C1031 H1047 0.961 . S
C1032 C1033 1.370 . S
C1032 C1034 1.363 . S
C1032 H1048 0.931 . S
C1033 C1032 1.370 . S
C1033 C1037 1.408 . S
C1034 C1032 1.363 . S
C1034 C1035 1.370 . S
C1034 C1038 1.524 . S
C1035 C1027 1.503 . S
C1035 C1034 1.370 . S
C1035 C1036 1.403 . S
C1036 C1035 1.403 . S
C1036 C1037 1.404 . S
C1036 C1039 1.539 . S
C1037 C1033 1.408 . S
C1037 C1036 1.404 . S
C1037 H1049 0.930 . S
C1038 C1034 1.524 . S
C1038 H1050 0.956 . S
C1038 H1051 0.961 . S
C1038 H1052 0.961 . S
C1039 C1036 1.539 . S
C1039 H1053 0.958 . S
C1039 H1054 0.961 . S
C1039 H1055 0.960 . S
H1040 C1024 0.931 . S
H1041 C1029 0.929 . S
H1042 C1030 0.960 . S
H1043 C1030 0.962 . S
H1044 C1030 0.960 . S
H1045 C1031 0.961 . S
H1046 C1031 0.961 . S
H1047 C1031 0.961 . S
H1048 C1032 0.931 . S
H1049 C1037 0.930 . S
H1050 C1038 0.956 . S
H1051 C1038 0.961 . S
H1052 C1038 0.961 . S
H1053 C1039 0.958 . S
H1054 C1039 0.961 . S
H1055 C1039 0.960 . S
C1056 C1057 1.391 . S
C1056 C1058 1.394 . S
C1056 H1072 0.931 . S
C1057 C1056 1.391 . S
C1057 C1061 1.376 . S
C1058 C1056 1.394 . S
C1058 C1059 1.369 . S
C1058 C1062 1.531 . S
C1059 C1058 1.369 . S
C1059 C1060 1.410 . S
C1059 C1067 1.503 . S
C1060 C1059 1.410 . S
C1060 C1061 1.392 . S
C1060 C1063 1.511 . S
C1061 C1057 1.376 . S
C1061 C1060 1.392 . S
C1061 H1073 0.929 . S
C1062 C1058 1.531 . S
C1062 H1074 0.960 . S
C1062 H1075 0.962 . S
C1062 H1076 0.960 . S
C1063 C1060 1.511 . S
C1063 H1077 0.961 . S
C1063 H1078 0.961 . S
C1063 H1079 0.961 . S
C1064 C1065 1.370 . S
C1064 C1066 1.363 . S
C1064 H1080 0.931 . S
C1065 C1064 1.370 . S
C1065 C1069 1.408 . S
C1066 C1064 1.363 . S
C1066 C1067 1.370 . S
C1066 C1070 1.524 . S
C1067 C1059 1.503 . S
C1067 C1066 1.370 . S
C1067 C1068 1.403 . S
C1068 C1067 1.403 . S
C1068 C1069 1.404 . S
C1068 C1071 1.539 . S
C1069 C1065 1.408 . S
C1069 C1068 1.404 . S
C1069 H1081 0.930 . S
C1070 C1066 1.524 . S
C1070 H1082 0.956 . S
C1070 H1083 0.961 . S
C1070 H1084 0.961 . S
C1071 C1068 1.539 . S
C1071 H1085 0.958 . S
C1071 H1086 0.961 . S
C1071 H1087 0.960 . S
H1072 C1056 0.931 . S
H1073 C1061 0.929 . S
H1074 C1062 0.960 . S
H1075 C1062 0.962 . S
H1076 C1062 0.960 . S
H1077 C1063 0.961 . S
H1078 C1063 0.961 . S
H1079 C1063 0.961 . S
H1080 C1064 0.931 . S
H1081 C1069 0.930 . S
H1082 C1070 0.956 . S
H1083 C1070 0.961 . S
H1084 C1070 0.961 . S
H1085 C1071 0.958 . S
H1086 C1071 0.961 . S
H1087 C1071 0.960 . S
C1088 C1089 1.391 . S
C1088 C1090 1.394 . S
C1088 H1104 0.931 . S
C1089 C1088 1.391 . S
C1089 C1093 1.376 . S
C1090 C1088 1.394 . S
C1090 C1091 1.369 . S
C1090 C1094 1.531 . S
C1091 C1090 1.369 . S
C1091 C1092 1.410 . S
C1091 C1099 1.503 1_556 S
C1092 C1091 1.410 . S
C1092 C1093 1.392 . S
C1092 C1095 1.511 . S
C1093 C1089 1.376 . S
C1093 C1092 1.392 . S
C1093 H1105 0.929 . S
C1094 C1090 1.531 . S
C1094 H1106 0.960 . S
C1094 H1107 0.962 . S
C1094 H1108 0.960 . S
C1095 C1092 1.511 . S
C1095 H1109 0.961 . S
C1095 H1110 0.961 1_556 S
C1095 H1111 0.961 . S
C1096 C1097 1.370 . S
C1096 C1098 1.363 . S
C1096 H1112 0.931 . S
C1097 C1096 1.370 . S
C1097 C1101 1.408 . S
C1098 C1096 1.363 . S
C1098 C1099 1.370 . S
C1098 C1102 1.524 . S
C1099 C1091 1.503 1_554 S
C1099 C1098 1.370 . S
C1099 C1100 1.403 . S
C1100 C1099 1.403 . S
C1100 C1101 1.404 . S
C1100 C1103 1.539 . S
C1101 C1097 1.408 . S
C1101 C1100 1.404 . S
C1101 H1113 0.930 . S
C1102 C1098 1.524 . S
C1102 H1114 0.956 . S
C1102 H1115 0.961 . S
C1102 H1116 0.961 . S
C1103 C1100 1.539 . S
C1103 H1117 0.958 1_554 S
C1103 H1118 0.961 . S
C1103 H1119 0.960 1_554 S
H1104 C1088 0.931 . S
H1105 C1093 0.929 . S
H1106 C1094 0.960 . S
H1107 C1094 0.962 . S
H1108 C1094 0.960 . S
H1109 C1095 0.961 . S
H1110 C1095 0.961 1_554 S
H1111 C1095 0.961 . S
H1112 C1096 0.931 . S
H1113 C1101 0.930 . S
H1114 C1102 0.956 . S
H1115 C1102 0.961 . S
H1116 C1102 0.961 . S
H1117 C1103 0.958 1_556 S
H1118 C1103 0.961 . S
H1119 C1103 0.960 1_556 S
C1120 C1121 1.391 . S
C1120 C1122 1.394 . S
C1120 H1136 0.931 . S
C1121 C1120 1.391 . S
C1121 C1125 1.376 . S
C1122 C1120 1.394 . S
C1122 C1123 1.369 . S
C1122 C1126 1.531 . S
C1123 C1122 1.369 . S
C1123 C1124 1.410 . S
C1123 C1131 1.503 . S
C1124 C1123 1.410 . S
C1124 C1125 1.392 . S
C1124 C1127 1.511 . S
C1125 C1121 1.376 . S
C1125 C1124 1.392 . S
C1125 H1137 0.929 . S
C1126 C1122 1.531 . S
C1126 H1138 0.960 . S
C1126 H1139 0.962 . S
C1126 H1140 0.960 . S
C1127 C1124 1.511 . S
C1127 H1141 0.961 . S
C1127 H1142 0.961 . S
C1127 H1143 0.961 . S
C1128 C1129 1.370 . S
C1128 C1130 1.363 . S
C1128 H1144 0.931 . S
C1129 C1128 1.370 . S
C1129 C1133 1.408 . S
C1130 C1128 1.363 . S
C1130 C1131 1.370 . S
C1130 C1134 1.524 . S
C1131 C1123 1.503 . S
C1131 C1130 1.370 . S
C1131 C1132 1.403 . S
C1132 C1131 1.403 . S
C1132 C1133 1.404 . S
C1132 C1135 1.539 . S
C1133 C1129 1.408 . S
C1133 C1132 1.404 . S
C1133 H1145 0.930 . S
C1134 C1130 1.524 . S
C1134 H1146 0.956 . S
C1134 H1147 0.961 . S
C1134 H1148 0.961 . S
C1135 C1132 1.539 . S
C1135 H1149 0.958 . S
C1135 H1150 0.961 . S
C1135 H1151 0.960 . S
H1136 C1120 0.931 . S
H1137 C1125 0.929 . S
H1138 C1126 0.960 . S
H1139 C1126 0.962 . S
H1140 C1126 0.960 . S
H1141 C1127 0.961 . S
H1142 C1127 0.961 . S
H1143 C1127 0.961 . S
H1144 C1128 0.931 . S
H1145 C1133 0.930 . S
H1146 C1134 0.956 . S
H1147 C1134 0.961 . S
H1148 C1134 0.961 . S
H1149 C1135 0.958 . S
H1150 C1135 0.961 . S
H1151 C1135 0.960 . S
C1152 C1153 1.391 . S
C1152 C1154 1.394 . S
C1152 H1168 0.931 . S
C1153 C1152 1.391 . S
C1153 C1157 1.376 . S
C1154 C1152 1.394 . S
C1154 C1155 1.369 . S
C1154 C1158 1.531 . S
C1155 C1154 1.369 . S
C1155 C1156 1.410 . S
C1155 C1163 1.503 . S
C1156 C1155 1.410 . S
C1156 C1157 1.392 . S
C1156 C1159 1.511 . S
C1157 C1153 1.376 . S
C1157 C1156 1.392 . S
C1157 H1169 0.929 . S
C1158 C1154 1.531 . S
C1158 H1170 0.960 . S
C1158 H1171 0.962 . S
C1158 H1172 0.960 . S
C1159 C1156 1.511 . S
C1159 H1173 0.961 . S
C1159 H1174 0.961 . S
C1159 H1175 0.961 . S
C1160 C1161 1.370 . S
C1160 C1162 1.363 . S
C1160 H1176 0.931 . S
C1161 C1160 1.370 . S
C1161 C1165 1.408 . S
C1162 C1160 1.363 . S
C1162 C1163 1.370 . S
C1162 C1166 1.524 . S
C1163 C1155 1.503 . S
C1163 C1162 1.370 . S
C1163 C1164 1.403 . S
C1164 C1163 1.403 . S
C1164 C1165 1.404 . S
C1164 C1167 1.539 . S
C1165 C1161 1.408 . S
C1165 C1164 1.404 . S
C1165 H1177 0.930 . S
C1166 C1162 1.524 . S
C1166 H1178 0.956 . S
C1166 H1179 0.961 . S
C1166 H1180 0.961 . S
C1167 C1164 1.539 . S
C1167 H1181 0.958 . S
C1167 H1182 0.961 . S
C1167 H1183 0.960 . S
H1168 C1152 0.931 . S
H1169 C1157 0.929 . S
H1170 C1158 0.960 . S
H1171 C1158 0.962 . S
H1172 C1158 0.960 . S
H1173 C1159 0.961 . S
H1174 C1159 0.961 . S
H1175 C1159 0.961 . S
H1176 C1160 0.931 . S
H1177 C1165 0.930 . S
H1178 C1166 0.956 . S
H1179 C1166 0.961 . S
H1180 C1166 0.961 . S
H1181 C1167 0.958 . S
H1182 C1167 0.961 . S
H1183 C1167 0.960 . S
C1184 C1185 1.391 . S
C1184 C1186 1.394 . S
C1184 H1200 0.931 . S
C1185 C1184 1.391 . S
C1185 C1189 1.376 1_655 S
C1186 C1184 1.394 . S
C1186 C1187 1.369 . S
C1186 C1190 1.531 . S
C1187 C1186 1.369 . S
C1187 C1188 1.410 1_655 S
C1187 C1195 1.503 . S
C1188 C1187 1.410 1_455 S
C1188 C1189 1.392 . S
C1188 C1191 1.511 . S
C1189 C1185 1.376 1_455 S
C1189 C1188 1.392 . S
C1189 H1201 0.929 . S
C1190 C1186 1.531 . S
C1190 H1202 0.960 . S
C1190 H1203 0.962 . S
C1190 H1204 0.960 . S
C1191 C1188 1.511 . S
C1191 H1205 0.961 . S
C1191 H1206 0.961 . S
C1191 H1207 0.961 . S
C1192 C1193 1.370 . S
C1192 C1194 1.363 . S
C1192 H1208 0.931 . S
C1193 C1192 1.370 . S
C1193 C1197 1.408 1_655 S
C1194 C1192 1.363 . S
C1194 C1195 1.370 . S
C1194 C1198 1.524 . S
C1195 C1187 1.503 . S
C1195 C1194 1.370 . S
C1195 C1196 1.403 1_655 S
C1196 C1195 1.403 1_455 S
C1196 C1197 1.404 . S
C1196 C1199 1.539 . S
C1197 C1193 1.408 1_455 S
C1197 C1196 1.404 . S
C1197 H1209 0.930 . S
C1198 C1194 1.524 . S
C1198 H1210 0.956 . S
C1198 H1211 0.961 . S
C1198 H1212 0.961 . S
C1199 C1196 1.539 . S
C1199 H1213 0.958 . S
C1199 H1214 0.961 . S
C1199 H1215 0.960 . S
H1200 C1184 0.931 . S
H1201 C1189 0.929 . S
H1202 C1190 0.960 . S
H1203 C1190 0.962 . S
H1204 C1190 0.960 . S
H1205 C1191 0.961 . S
H1206 C1191 0.961 . S
H1207 C1191 0.961 . S
H1208 C1192 0.931 . S
H1209 C1197 0.930 . S
H1210 C1198 0.956 . S
H1211 C1198 0.961 . S
H1212 C1198 0.961 . S
H1213 C1199 0.958 . S
H1214 C1199 0.961 . S
H1215 C1199 0.960 . S
C1216 C1217 1.391 . S
C1216 C1218 1.394 . S
C1216 H1232 0.931 . S
C1217 C1216 1.391 . S
C1217 C1221 1.376 . S
C1218 C1216 1.394 . S
C1218 C1219 1.369 . S
C1218 C1222 1.531 . S
C1219 C1218 1.369 . S
C1219 C1220 1.410 . S
C1219 C1227 1.503 . S
C1220 C1219 1.410 . S
C1220 C1221 1.392 . S
C1220 C1223 1.511 . S
C1221 C1217 1.376 . S
C1221 C1220 1.392 . S
C1221 H1233 0.929 . S
C1222 C1218 1.531 . S
C1222 H1234 0.960 . S
C1222 H1235 0.962 . S
C1222 H1236 0.960 . S
C1223 C1220 1.511 . S
C1223 H1237 0.961 . S
C1223 H1238 0.961 . S
C1223 H1239 0.961 1_545 S
C1224 C1225 1.370 . S
C1224 C1226 1.363 . S
C1224 H1240 0.931 . S
C1225 C1224 1.370 . S
C1225 C1229 1.408 1_545 S
C1226 C1224 1.363 . S
C1226 C1227 1.370 . S
C1226 C1230 1.524 . S
C1227 C1219 1.503 . S
C1227 C1226 1.370 . S
C1227 C1228 1.403 1_545 S
C1228 C1227 1.403 1_565 S
C1228 C1229 1.404 . S
C1228 C1231 1.539 . S
C1229 C1225 1.408 1_565 S
C1229 C1228 1.404 . S
C1229 H1241 0.930 . S
C1230 C1226 1.524 . S
C1230 H1242 0.956 . S
C1230 H1243 0.961 . S
C1230 H1244 0.961 . S
C1231 C1228 1.539 . S
C1231 H1245 0.958 . S
C1231 H1246 0.961 . S
C1231 H1247 0.960 . S
H1232 C1216 0.931 . S
H1233 C1221 0.929 . S
H1234 C1222 0.960 . S
H1235 C1222 0.962 . S
H1236 C1222 0.960 . S
H1237 C1223 0.961 . S
H1238 C1223 0.961 . S
H1239 C1223 0.961 1_565 S
H1240 C1224 0.931 . S
H1241 C1229 0.930 . S
H1242 C1230 0.956 . S
H1243 C1230 0.961 . S
H1244 C1230 0.961 . S
H1245 C1231 0.958 . S
H1246 C1231 0.961 . S
H1247 C1231 0.960 . S
C225 C6 1.731 . S
C233 C104 1.678 . S
C257 C20 1.813 . S
C265 C62 1.855 . S
C289 C76 1.558 . S
C297 C34 1.646 . S
C321 C48 1.881 . S
C329 C90 1.788 . S
C353 C118 1.862 . S
C361 C174 1.833 . S
C385 C132 1.595 . S
C393 C202 1.634 . S
C417 C160 1.884 . S
C425 C146 1.790 . S
C449 C216 1.670 . S
C457 C188 1.723 . S
C481 C9 1.085 . S
C489 C91 0.977 . S
C513 C106 1.659 . S
C521 C22 1.674 . S
C545 C37 1.088 . S
C553 C63 0.992 . S
C577 C78 1.769 . S
C585 C49 1.650 . S
C609 C8 1.347 . S
C617 C204 1.354 . S
C641 C163 0.759 . S
C649 C21 0.742 1_455 S
C673 C190 1.353 . S
C681 C36 1.355 . S
C705 C175 0.803 . S
C713 C51 0.791 1_556 S
C737 C149 1.933 . S
C745 C65 1.910 . S
C769 C77 0.966 . S
C777 C217 0.966 . S
C801 C93 1.919 . S
C809 C121 1.897 . S
C833 C105 0.901 . S
C841 C133 0.884 . S
C865 C7 1.507 . S
C873 C64 1.617 . S
C897 C120 1.599 . S
C905 C189 1.523 . S
C929 C177 1.624 . S
C937 C135 1.631 . S
C961 C203 1.255 . S
C969 C148 1.254 . S
C993 C107 1.544 . S
C1001 C50 1.552 . S
C1025 C35 1.184 . S
C1033 C92 1.262 . S
C1057 C162 1.547 . S
C1065 C219 1.546 . S
C1089 C191 1.089 . S
C1097 C147 1.029 . S
C1121 C218 1.661 . S
C1129 C176 1.674 . S
C1153 C205 1.097 . S
C1161 C119 1.037 . S
C1185 C161 1.629 1_655 S
C1193 C134 1.768 . S
C1217 C23 1.624 . S
C1225 C79 1.634 . S
