# Generated by pormake.
# Topology ukf, (4)-cn, num edge types: 1
# Building blocks:
#     Node 0, Type 0, BuildingBlock: QUQFOY_clean_sbu_1, # of connection points: 4
#     Node 1, Type 0, BuildingBlock: QUQFOY_clean_sbu_1, # of connection points: 4
#     Node 2, Type 0, BuildingBlock: QUQFOY_clean_sbu_1, # of connection points: 4
#     Node 3, Type 0, BuildingBlock: QUQFOY_clean_sbu_1, # of connection points: 4
#     Node 4, Type 0, BuildingBlock: QUQFOY_clean_sbu_1, # of connection points: 4
#     Node 5, Type 0, BuildingBlock: QUQFOY_clean_sbu_1, # of connection points: 4
#     Node 6, Type 0, BuildingBlock: QUQFOY_clean_sbu_1, # of connection points: 4
#     Node 7, Type 0, BuildingBlock: QUQFOY_clean_sbu_1, # of connection points: 4
#     Node 8, Type 0, BuildingBlock: QUQFOY_clean_sbu_1, # of connection points: 4
#     Node 9, Type 0, BuildingBlock: QUQFOY_clean_sbu_1, # of connection points: 4
#     Node 10, Type 0, BuildingBlock: QUQFOY_clean_sbu_1, # of connection points: 4
#     Node 11, Type 0, BuildingBlock: QUQFOY_clean_sbu_1, # of connection points: 4
#     Edge 12, Type (0, 0), BuildingBlock: XIVTED_clean_linker_0, # of connection points: 2
#     Edge 13, Type (0, 0), BuildingBlock: XIVTED_clean_linker_0, # of connection points: 2
#     Edge 14, Type (0, 0), BuildingBlock: XIVTED_clean_linker_0, # of connection points: 2
#     Edge 15, Type (0, 0), BuildingBlock: XIVTED_clean_linker_0, # of connection points: 2
#     Edge 16, Type (0, 0), BuildingBlock: XIVTED_clean_linker_0, # of connection points: 2
#     Edge 17, Type (0, 0), BuildingBlock: XIVTED_clean_linker_0, # of connection points: 2
#     Edge 18, Type (0, 0), BuildingBlock: XIVTED_clean_linker_0, # of connection points: 2
#     Edge 19, Type (0, 0), BuildingBlock: XIVTED_clean_linker_0, # of connection points: 2
#     Edge 20, Type (0, 0), BuildingBlock: XIVTED_clean_linker_0, # of connection points: 2
#     Edge 21, Type (0, 0), BuildingBlock: XIVTED_clean_linker_0, # of connection points: 2
#     Edge 22, Type (0, 0), BuildingBlock: XIVTED_clean_linker_0, # of connection points: 2
#     Edge 23, Type (0, 0), BuildingBlock: XIVTED_clean_linker_0, # of connection points: 2
#     Edge 24, Type (0, 0), BuildingBlock: XIVTED_clean_linker_0, # of connection points: 2
#     Edge 25, Type (0, 0), BuildingBlock: XIVTED_clean_linker_0, # of connection points: 2
#     Edge 26, Type (0, 0), BuildingBlock: XIVTED_clean_linker_0, # of connection points: 2
#     Edge 27, Type (0, 0), BuildingBlock: XIVTED_clean_linker_0, # of connection points: 2
#     Edge 28, Type (0, 0), BuildingBlock: XIVTED_clean_linker_0, # of connection points: 2
#     Edge 29, Type (0, 0), BuildingBlock: XIVTED_clean_linker_0, # of connection points: 2
#     Edge 30, Type (0, 0), BuildingBlock: XIVTED_clean_linker_0, # of connection points: 2
#     Edge 31, Type (0, 0), BuildingBlock: XIVTED_clean_linker_0, # of connection points: 2
#     Edge 32, Type (0, 0), BuildingBlock: XIVTED_clean_linker_0, # of connection points: 2
#     Edge 33, Type (0, 0), BuildingBlock: XIVTED_clean_linker_0, # of connection points: 2
#     Edge 34, Type (0, 0), BuildingBlock: XIVTED_clean_linker_0, # of connection points: 2
#     Edge 35, Type (0, 0), BuildingBlock: XIVTED_clean_linker_0, # of connection points: 2
# Relax obj value: 0.115
# Max RMSD: 0.130
# Mean RMSD: 0.130
data_MOF--net-ukf--node1-QUQFOY_clean_sbu_1--edge1-XIVTED_clean_linker_0
_symmetry_space_group_name_H-M    P1
_symmetry_Int_Tables_number       1
_symmetry_cell_setting            triclinic
loop_
_symmetry_equiv_pos_as_xyz
'x, y, z'
_cell_length_a     32.159583
_cell_length_b     32.217083
_cell_length_c     73.992232
_cell_angle_alpha  89.992245
_cell_angle_beta   90.012648
_cell_angle_gamma 120.00032
loop_
_atom_site_label
_atom_site_type_symbol
_atom_site_fract_x
_atom_site_fract_y
_atom_site_fract_z
_atom_type_partial_charge
O0 O 0.44566 0.30462 0.06915 0.0
Cd1 Cd 0.4353 0.23713 0.07432 0.0
Cd2 Cd 0.38573 0.22443 0.04109 0.0
O3 O 0.40034 0.29383 0.04516 0.0
O4 O 0.46993 0.24935 0.09781 0.0
O5 O 0.3921 0.19973 0.09542 0.0
C6 C 0.42974 0.22096 0.10554 0.0
C7 C 0.3118 0.15991 0.03252 0.0
C8 C 0.42858 0.32089 0.05743 0.0
C9 C 0.47146 0.21049 0.04118 0.0
O10 O 0.44185 0.21708 0.03205 0.0
O11 O 0.47213 0.21316 0.05834 0.0
O12 O 0.33714 0.19448 0.02148 0.0
O13 O 0.32664 0.16407 0.04903 0.0
O14 O 0.14226 0.44818 0.40165 0.0
Cd15 Cd 0.19955 0.43776 0.40664 0.0
Cd16 Cd 0.16168 0.38695 0.37391 0.0
O17 O 0.10672 0.4014 0.37811 0.0
O18 O 0.22267 0.47223 0.43012 0.0
O19 O 0.19412 0.39447 0.42762 0.0
C20 C 0.21094 0.43201 0.43778 0.0
C21 C 0.15248 0.31298 0.36566 0.0
C22 C 0.10835 0.43035 0.39016 0.0
C23 C 0.26114 0.47281 0.3732 0.0
O24 O 0.22461 0.44274 0.36434 0.0
O25 O 0.25984 0.47418 0.39037 0.0
O26 O 0.14249 0.33766 0.35457 0.0
O27 O 0.16377 0.32848 0.38207 0.0
O28 O 0.69307 0.15018 0.73512 0.0
Cd29 Cd 0.76243 0.2022 0.74129 0.0
Cd30 Cd 0.77584 0.16051 0.71127 0.0
O31 O 0.70747 0.10465 0.71688 0.0
O32 O 0.7528 0.22724 0.76461 0.0
O33 O 0.79586 0.19149 0.7626 0.0
C34 C 0.7777 0.21138 0.77254 0.0
C35 C 0.84203 0.15284 0.70363 0.0
C36 C 0.67816 0.11193 0.72599 0.0
C37 C 0.79151 0.25996 0.70773 0.0
O38 O 0.78035 0.22084 0.69975 0.0
O39 O 0.79264 0.26204 0.72489 0.0
O40 O 0.80624 0.13934 0.69272 0.0
O41 O 0.83823 0.16673 0.71964 0.0
O42 O 0.55211 0.69321 0.06834 0.0
Cd43 Cd 0.56293 0.76081 0.07365 0.0
Cd44 Cd 0.61281 0.77396 0.04051 0.0
O45 O 0.59812 0.70451 0.04453 0.0
O46 O 0.52874 0.74884 0.09723 0.0
O47 O 0.6066 0.79808 0.09466 0.0
C48 C 0.56913 0.77709 0.10488 0.0
C49 C 0.68677 0.83818 0.03175 0.0
C50 C 0.56945 0.67715 0.05664 0.0
C51 C 0.52707 0.78795 0.04058 0.0
O52 O 0.55672 0.7814 0.03146 0.0
O53 O 0.52631 0.78514 0.05774 0.0
O54 O 0.66118 0.80345 0.0208 0.0
O55 O 0.67214 0.83438 0.04827 0.0
O56 O 0.85954 0.55476 0.40274 0.0
Cd57 Cd 0.80246 0.5655 0.40769 0.0
Cd58 Cd 0.84006 0.61505 0.3744 0.0
O59 O 0.89479 0.60042 0.37891 0.0
O60 O 0.77931 0.53072 0.43112 0.0
O61 O 0.80804 0.60853 0.42881 0.0
C62 C 0.79119 0.57083 0.43888 0.0
C63 C 0.84996 0.68861 0.36506 0.0
C64 C 0.89324 0.57197 0.39115 0.0
C65 C 0.74033 0.52957 0.37433 0.0
O66 O 0.77679 0.55889 0.36525 0.0
O67 O 0.74196 0.52912 0.39151 0.0
O68 O 0.85991 0.66294 0.35448 0.0
O69 O 0.83819 0.67433 0.38157 0.0
O70 O 0.30768 0.84709 0.7346 0.0
Cd71 Cd 0.23809 0.79545 0.74068 0.0
Cd72 Cd 0.22505 0.83775 0.711 0.0
O73 O 0.29349 0.89336 0.7167 0.0
O74 O 0.24695 0.77006 0.76404 0.0
O75 O 0.20471 0.80665 0.76186 0.0
C76 C 0.22233 0.78637 0.77188 0.0
C77 C 0.15871 0.84553 0.70376 0.0
C78 C 0.32272 0.88564 0.72566 0.0
C79 C 0.20875 0.73827 0.70702 0.0
O80 O 0.22033 0.77766 0.69918 0.0
O81 O 0.20745 0.73582 0.72418 0.0
O82 O 0.19434 0.85939 0.69275 0.0
O83 O 0.1628 0.83123 0.71966 0.0
O84 O 0.69459 0.55138 0.61154 0.0
Cd85 Cd 0.76166 0.56088 0.60595 0.0
Cd86 Cd 0.77563 0.61095 0.6398 0.0
O87 O 0.70568 0.5956 0.63589 0.0
O88 O 0.74827 0.5262 0.58244 0.0
O89 O 0.79867 0.60377 0.58473 0.0
C90 C 0.77679 0.56619 0.57464 0.0
C91 C 0.83877 0.68418 0.64985 0.0
C92 C 0.67847 0.568 0.6235 0.0
C93 C 0.79005 0.52515 0.63876 0.0
O94 O 0.78439 0.55513 0.64802 0.0
O95 O 0.78579 0.52375 0.62164 0.0
O96 O 0.80366 0.6568 0.66036 0.0
O97 O 0.83587 0.67189 0.63305 0.0
O98 O 0.13964 0.69425 0.94397 0.0
Cd99 Cd 0.19703 0.76172 0.93886 0.0
Cd100 Cd 0.15993 0.77425 0.97207 0.0
O101 O 0.10502 0.70488 0.96795 0.0
O102 O 0.2196 0.74926 0.91547 0.0
O103 O 0.1918 0.79917 0.91766 0.0
C104 C 0.20814 0.77775 0.90764 0.0
C105 C 0.15072 0.83887 0.98055 0.0
C106 C 0.10621 0.6779 0.95566 0.0
C107 C 0.25958 0.78812 0.97211 0.0
O108 O 0.22331 0.78149 0.9812 0.0
O109 O 0.25769 0.78557 0.95494 0.0
O110 O 0.14125 0.80429 0.99161 0.0
O111 O 0.16152 0.83466 0.96406 0.0
O112 O 0.44917 0.14281 0.27781 0.0
Cd113 Cd 0.43821 0.19954 0.27253 0.0
Cd114 Cd 0.38821 0.16253 0.30559 0.0
O115 O 0.40305 0.10785 0.30156 0.0
O116 O 0.47309 0.22228 0.24911 0.0
O117 O 0.3951 0.19339 0.25133 0.0
C118 C 0.43291 0.21019 0.24129 0.0
C119 C 0.3141 0.15299 0.31404 0.0
C120 C 0.43184 0.10933 0.28946 0.0
C121 C 0.47362 0.26219 0.3057 0.0
O122 O 0.4441 0.2259 0.31478 0.0
O123 O 0.47441 0.2603 0.28853 0.0
O124 O 0.33937 0.14369 0.32512 0.0
O125 O 0.32912 0.16379 0.29756 0.0
O126 O 0.30651 0.44865 0.61104 0.0
Cd127 Cd 0.23967 0.4391 0.60492 0.0
Cd128 Cd 0.22372 0.38771 0.63865 0.0
O129 O 0.2939 0.40338 0.6352 0.0
O130 O 0.25396 0.47417 0.58147 0.0
O131 O 0.20345 0.39657 0.58352 0.0
C132 C 0.22565 0.43432 0.57353 0.0
C133 C 0.16088 0.3144 0.64886 0.0
C134 C 0.32191 0.43158 0.6231 0.0
C135 C 0.20942 0.47369 0.63751 0.0
O136 O 0.21439 0.44327 0.64676 0.0
O137 O 0.21477 0.4758 0.62044 0.0
O138 O 0.19586 0.34223 0.65934 0.0
O139 O 0.16373 0.3263 0.63202 0.0
O140 O 0.85844 0.30515 0.94478 0.0
Cd141 Cd 0.80159 0.23745 0.93955 0.0
Cd142 Cd 0.83872 0.22467 0.97261 0.0
O143 O 0.89349 0.29414 0.96854 0.0
O144 O 0.779 0.24948 0.91606 0.0
O145 O 0.80756 0.20022 0.91843 0.0
C146 C 0.79095 0.22125 0.90832 0.0
C147 C 0.84837 0.16037 0.98121 0.0
C148 C 0.89199 0.32138 0.95642 0.0
C149 C 0.73893 0.21044 0.97272 0.0
O150 O 0.77528 0.21722 0.9818 0.0
O151 O 0.74077 0.21305 0.95555 0.0
O152 O 0.85779 0.19507 0.9922 0.0
O153 O 0.83734 0.16426 0.96473 0.0
O154 O 0.55469 0.8598 0.27682 0.0
Cd155 Cd 0.56448 0.80223 0.27182 0.0
Cd156 Cd 0.6156 0.84002 0.30454 0.0
O157 O 0.60144 0.89512 0.3004 0.0
O158 O 0.52894 0.77894 0.24854 0.0
O159 O 0.60685 0.80705 0.25056 0.0
C160 C 0.56883 0.79033 0.24063 0.0
C161 C 0.68976 0.84837 0.31203 0.0
C162 C 0.57261 0.89364 0.28831 0.0
C163 C 0.52953 0.74098 0.3054 0.0
O164 O 0.5597 0.77745 0.31425 0.0
O165 O 0.52813 0.74224 0.28823 0.0
O166 O 0.6661 0.85893 0.32342 0.0
O167 O 0.67312 0.837 0.29576 0.0
H168 H 0.17698 0.92178 0.96164 0.0
H169 H 0.2546 0.07706 0.05139 0.0
H170 H 0.13838 0.86082 0.01513 0.0
H171 H 0.27783 0.13806 0.99788 0.0
H172 H 0.20092 0.99801 0.03852 0.0
H173 H 0.20267 0.0009 0.97448 0.0
C174 C 0.17292 0.92482 0.97603 0.0
C175 C 0.15613 0.88463 0.98734 0.0
C176 C 0.21706 0.0288 0.02962 0.0
C177 C 0.18632 0.97533 1.00221 0.0
C178 C 0.24763 0.07404 0.03699 0.0
C179 C 0.27135 0.11422 0.02568 0.0
C180 C 0.21054 0.02359 0.01078 0.0
C181 C 0.26077 0.10806 0.00711 0.0
C182 C 0.18777 0.9701 0.98338 0.0
C183 C 0.15157 0.89082 1.00589 0.0
N184 N 0.23184 0.06355 1.00022 0.0
N185 N 0.16735 0.93537 0.01278 0.0
H186 H 0.17926 0.25684 0.38467 0.0
H187 H 0.25693 0.17865 0.29509 0.0
H188 H 0.13975 0.2781 0.33116 0.0
H189 H 0.27985 0.14075 0.34864 0.0
H190 H 0.20309 0.204 0.3079 0.0
H191 H 0.20506 0.20336 0.37192 0.0
C192 C 0.17502 0.24948 0.3703 0.0
C193 C 0.15794 0.27259 0.35895 0.0
C194 C 0.21919 0.18932 0.31682 0.0
C195 C 0.18827 0.21204 0.34418 0.0
C196 C 0.24986 0.17466 0.30949 0.0
C197 C 0.27354 0.15818 0.32082 0.0
C198 C 0.21256 0.18799 0.33565 0.0
C199 C 0.26282 0.15372 0.33938 0.0
C200 C 0.18993 0.21902 0.36299 0.0
C201 C 0.15316 0.26152 0.34042 0.0
N202 N 0.23382 0.1693 0.34624 0.0
N203 N 0.16901 0.23274 0.33359 0.0
H204 H 0.92696 0.18644 0.72213 0.0
H205 H 0.07727 0.25238 0.63122 0.0
H206 H 0.86315 0.13522 0.66965 0.0
H207 H 0.14183 0.28646 0.68424 0.0
H208 H 0.99939 0.1993 0.64517 0.0
H209 H 0.00609 0.21294 0.70899 0.0
C210 C 0.92943 0.1798 0.70793 0.0
C211 C 0.88834 0.15914 0.69695 0.0
C212 C 0.03074 0.21771 0.65375 0.0
C213 C 0.97901 0.19024 0.6817 0.0
C214 C 0.07531 0.24794 0.64576 0.0
C215 C 0.11611 0.27448 0.65657 0.0
C216 C 0.02681 0.21437 0.67269 0.0
C217 C 0.11131 0.26713 0.67536 0.0
C218 C 0.97471 0.19512 0.7004 0.0
C219 C 0.89383 0.1514 0.67863 0.0
N220 N 0.0674 0.23846 0.68283 0.0
N221 N 0.93833 0.16767 0.67153 0.0
H222 H 0.7219 0.85839 0.99722 0.0
H223 H 0.86383 0.14001 0.01564 0.0
H224 H 0.74301 0.9221 0.05017 0.0
H225 H 0.81984 0.0764 0.96272 0.0
H226 H 0.83811 0.06076 0.02824 0.0
H227 H 0.77566 0.93755 0.98456 0.0
C228 C 0.73862 0.88885 1.00628 0.0
C229 C 0.72728 0.88362 0.02478 0.0
C230 C 0.83483 0.06422 0.01382 0.0
C231 C 0.78862 0.97457 0.01027 0.0
C232 C 0.84972 0.10954 1.00658 0.0
C233 C 0.84331 0.11484 0.98811 0.0
C234 C 0.81332 0.02378 1.00255 0.0
C235 C 0.82506 0.07401 0.97706 0.0
C236 C 0.76919 0.93413 0.999 0.0
C237 C 0.75033 0.92444 0.03581 0.0
N238 N 0.81008 0.03013 0.98449 0.0
N239 N 0.77935 0.96828 0.02836 0.0
H240 H 0.74226 0.81821 0.2925 0.0
H241 H 0.87703 0.73013 0.33163 0.0
H242 H 0.72831 0.86304 0.34601 0.0
H243 H 0.81095 0.73789 0.38129 0.0
H244 H 0.85333 0.78329 0.31737 0.0
H245 H 0.79532 0.79156 0.30454 0.0
C246 C 0.75151 0.82376 0.30671 0.0
C247 C 0.73036 0.8425 0.31826 0.0
C248 C 0.84373 0.77338 0.33135 0.0
C249 C 0.79175 0.81215 0.33234 0.0
C250 C 0.85792 0.74344 0.33961 0.0
C251 C 0.84515 0.72872 0.35761 0.0
C252 C 0.81584 0.78816 0.34108 0.0
C253 C 0.82113 0.74782 0.36733 0.0
C254 C 0.78217 0.80862 0.31365 0.0
C255 C 0.74348 0.8485 0.3366 0.0
N256 N 0.80665 0.77595 0.35887 0.0
N257 N 0.77258 0.8326 0.3431 0.0
H258 H 0.92215 0.74602 0.63205 0.0
H259 H 0.07409 0.81139 0.72252 0.0
H260 H 0.85844 0.71213 0.68521 0.0
H261 H 0.1369 0.86372 0.66999 0.0
H262 H 0.99469 0.7849 0.70963 0.0
H263 H 1.00027 0.79903 0.64585 0.0
C264 C 0.92435 0.75048 0.64659 0.0
C265 C 0.88371 0.72404 0.65748 0.0
C266 C 0.02591 0.80297 0.70098 0.0
C267 C 0.9733 0.78405 0.67343 0.0
C268 C 0.07135 0.81828 0.70837 0.0
C269 C 0.11224 0.83925 0.69729 0.0
C270 C 0.02125 0.80816 0.68233 0.0
C271 C 0.10639 0.84729 0.67903 0.0
C272 C 0.96906 0.78068 0.65449 0.0
C273 C 0.88882 0.73141 0.67627 0.0
N274 N 0.06174 0.83102 0.67207 0.0
N275 N 0.93287 0.76003 0.68365 0.0
H276 H 0.65534 0.20021 0.95851 0.0
H277 H 0.54536 0.20126 0.05545 0.0
H278 H 0.72275 0.20158 0.00918 0.0
H279 H 0.47844 0.20073 1.00477 0.0
H280 H 0.60703 0.194 0.03876 0.0
H281 H 0.58649 0.193 0.97525 0.0
C282 C 0.65554 0.19861 0.97313 0.0
C283 C 0.69513 0.20196 0.98244 0.0
C284 C 0.57864 0.19515 0.03131 0.0
C285 C 0.61653 0.19392 1.00169 0.0
C286 C 0.54338 0.19923 0.04084 0.0
C287 C 0.50687 0.20206 0.03151 0.0
C288 C 0.57746 0.19396 0.01231 0.0
C289 C 0.50609 0.19909 0.01255 0.0
C290 C 0.61623 0.19455 0.98269 0.0
C291 C 0.69325 0.19952 1.00141 0.0
N292 N 0.54101 0.19553 1.00359 0.0
N293 N 0.65481 0.19598 0.01039 0.0
H294 H 0.27678 0.47761 0.33673 0.0
H295 H 0.52466 0.72549 0.34188 0.0
H296 H 0.34427 0.54813 0.38678 0.0
H297 H 0.45418 0.65791 0.29183 0.0
H298 H 0.46301 0.65697 0.35847 0.0
H299 H 0.34536 0.53926 0.32015 0.0
C300 C 0.30616 0.50589 0.34428 0.0
C301 C 0.30449 0.50788 0.36321 0.0
C302 C 0.46115 0.65695 0.34386 0.0
C303 C 0.38326 0.57882 0.3442 0.0
C304 C 0.49639 0.69611 0.33434 0.0
C305 C 0.49442 0.69772 0.3154 0.0
C306 C 0.42347 0.61903 0.33442 0.0
C307 C 0.45705 0.65837 0.30641 0.0
C308 C 0.34535 0.54113 0.33476 0.0
C309 C 0.34385 0.54525 0.3722 0.0
N310 N 0.42287 0.62078 0.31602 0.0
N311 N 0.38147 0.57943 0.3626 0.0
H312 H 0.79053 0.26772 0.67086 0.0
H313 H 0.81187 0.52536 0.67443 0.0
H314 H 0.81215 0.34862 0.71994 0.0
H315 H 0.78945 0.44547 0.62503 0.0
H316 H 0.81999 0.46425 0.69077 0.0
H317 H 0.79784 0.33542 0.65345 0.0
C318 C 0.79721 0.29984 0.67799 0.0
C319 C 0.80027 0.30227 0.69694 0.0
C320 C 0.81362 0.46015 0.67634 0.0
C321 C 0.80852 0.37989 0.67703 0.0
C322 C 0.80893 0.49508 0.66697 0.0
C323 C 0.79944 0.49033 0.64833 0.0
C324 C 0.80852 0.41986 0.66708 0.0
C325 C 0.79652 0.45051 0.6394 0.0
C326 C 0.80136 0.3385 0.66801 0.0
C327 C 0.80921 0.34496 0.70538 0.0
N328 N 0.8006 0.41655 0.6489 0.0
N329 N 0.81267 0.38191 0.69538 0.0
H330 H 0.34296 0.79788 0.95789 0.0
H331 H 0.45332 0.79741 0.05483 0.0
H332 H 0.27594 0.79716 0.00856 0.0
H333 H 0.52001 0.79754 1.00415 0.0
H334 H 0.39163 0.80463 0.03812 0.0
H335 H 0.41182 0.80504 0.97461 0.0
C336 C 0.34284 0.7996 0.9725 0.0
C337 C 0.30337 0.79647 0.98181 0.0
C338 C 0.41997 0.8034 0.03067 0.0
C339 C 0.38198 0.80445 1.00105 0.0
C340 C 0.45525 0.79934 0.04022 0.0
C341 C 0.49169 0.79642 0.0309 0.0
C342 C 0.42108 0.80445 0.01168 0.0
C343 C 0.49242 0.79926 0.01193 0.0
C344 C 0.38217 0.80364 0.98205 0.0
C345 C 0.30535 0.79906 1.00078 0.0
N346 N 0.45748 0.80279 1.00297 0.0
N347 N 0.3438 0.80257 0.00976 0.0
H348 H 0.54712 0.34553 0.2915 0.0
H349 H 0.65678 0.45621 0.3885 0.0
H350 H 0.48053 0.27862 0.34213 0.0
H351 H 0.72426 0.52218 0.33786 0.0
H352 H 0.58805 0.39459 0.37174 0.0
H353 H 0.60855 0.41439 0.30824 0.0
C354 C 0.54516 0.34544 0.30611 0.0
C355 C 0.50882 0.30599 0.31541 0.0
C356 C 0.61778 0.42276 0.36431 0.0
C357 C 0.57914 0.3846 0.33467 0.0
C358 C 0.65702 0.458 0.37388 0.0
C359 C 0.6966 0.49422 0.36459 0.0
C360 C 0.61813 0.42369 0.34531 0.0
C361 C 0.69478 0.49476 0.34562 0.0
C362 C 0.58029 0.38476 0.31567 0.0
C363 C 0.50805 0.30801 0.33437 0.0
N364 N 0.65639 0.45987 0.33662 0.0
N365 N 0.54284 0.34646 0.34336 0.0
H366 H 0.18552 0.4722 0.673 0.0
H367 H 0.21038 0.73139 0.67014 0.0
H368 H 0.21145 0.55422 0.62394 0.0
H369 H 0.18674 0.64898 0.71896 0.0
H370 H 0.20256 0.66378 0.65253 0.0
H371 H 0.17737 0.53316 0.68943 0.0
C372 C 0.18921 0.50291 0.66563 0.0
C373 C 0.19974 0.50832 0.64707 0.0
C374 C 0.19871 0.66035 0.66708 0.0
C375 C 0.19063 0.57862 0.66592 0.0
C376 C 0.20315 0.69895 0.67717 0.0
C377 C 0.19969 0.69607 0.69611 0.0
C378 C 0.19084 0.61855 0.67597 0.0
C379 C 0.19002 0.653 0.70442 0.0
C380 C 0.18451 0.53776 0.67505 0.0
C381 C 0.20358 0.54868 0.63825 0.0
N382 N 0.1863 0.6161 0.69431 0.0
N383 N 0.19947 0.58254 0.6478 0.0
H384 H 0.34987 0.17421 0.12748 0.0
H385 H 0.50824 0.25237 0.21801 0.0
H386 H 0.50468 0.25628 0.12911 0.0
H387 H 0.3533 0.17501 0.21908 0.0
H388 H 0.50603 0.25317 0.18522 0.0
H389 H 0.34873 0.1718 0.16072 0.0
C390 C 0.38356 0.19136 0.13479 0.0
C391 C 0.42744 0.21551 0.12548 0.0
C392 C 0.47237 0.23608 0.19254 0.0
C393 C 0.42638 0.21323 0.16339 0.0
C394 C 0.47362 0.23571 0.21134 0.0
C395 C 0.43088 0.21355 0.22136 0.0
C396 C 0.42803 0.21397 0.1835 0.0
C397 C 0.38713 0.19263 0.21189 0.0
C398 C 0.38287 0.19018 0.15375 0.0
C399 C 0.46997 0.23732 0.13565 0.0
N400 N 0.3868 0.19316 0.19346 0.0
N401 N 0.46832 0.23569 0.15396 0.0
H402 H 0.17696 0.3521 0.45967 0.0
H403 H 0.2625 0.50974 0.55024 0.0
H404 H 0.25271 0.50671 0.46134 0.0
H405 H 0.17926 0.35522 0.55125 0.0
H406 H 0.25979 0.50774 0.51745 0.0
H407 H 0.17904 0.35083 0.49289 0.0
C408 C 0.19435 0.38571 0.46698 0.0
C409 C 0.21465 0.42958 0.45769 0.0
C410 C 0.24193 0.47413 0.52476 0.0
C411 C 0.21683 0.42838 0.49558 0.0
C412 C 0.24339 0.47526 0.54356 0.0
C413 C 0.22104 0.43256 0.55357 0.0
C414 C 0.21807 0.42995 0.51569 0.0
C415 C 0.19684 0.38901 0.54407 0.0
C416 C 0.1953 0.38495 0.48593 0.0
C417 C 0.23647 0.47202 0.46787 0.0
N418 N 0.1961 0.38878 0.52564 0.0
N419 N 0.23689 0.47031 0.48618 0.0
H420 H 0.82282 0.17342 0.8864 0.0
H421 H 0.74819 0.25679 0.79583 0.0
H422 H 0.75243 0.25758 0.88473 0.0
H423 H 0.81778 0.17185 0.7948 0.0
H424 H 0.75093 0.25727 0.82862 0.0
H425 H 0.82147 0.17091 0.85316 0.0
C426 C 0.80679 0.19102 0.87908 0.0
C427 C 0.78775 0.21578 0.88838 0.0
C428 C 0.76577 0.23855 0.82131 0.0
C429 C 0.78647 0.21342 0.85047 0.0
C430 C 0.76432 0.23837 0.8025 0.0
C431 C 0.78274 0.2142 0.79249 0.0
C432 C 0.78571 0.21428 0.83036 0.0
C433 C 0.80325 0.19103 0.80198 0.0
C434 C 0.80622 0.18975 0.86012 0.0
C435 C 0.76763 0.23813 0.8782 0.0
N436 N 0.80406 0.1915 0.82041 0.0
N437 N 0.76765 0.23647 0.85988 0.0
H438 H 0.64944 0.82376 0.12661 0.0
H439 H 0.49294 0.74811 0.21757 0.0
H440 H 0.49465 0.74223 0.12864 0.0
H441 H 0.64789 0.82428 0.2182 0.0
H442 H 0.49443 0.74658 0.18478 0.0
H443 H 0.65124 0.82662 0.15984 0.0
C444 C 0.61589 0.80681 0.13401 0.0
C445 C 0.57182 0.7827 0.12481 0.0
C446 C 0.52824 0.76355 0.192 0.0
C447 C 0.57363 0.78551 0.16272 0.0
C448 C 0.52741 0.76434 0.21081 0.0
C449 C 0.57037 0.78639 0.2207 0.0
C450 C 0.57239 0.78514 0.18283 0.0
C451 C 0.6139 0.80676 0.21111 0.0
C452 C 0.61696 0.80825 0.15296 0.0
C453 C 0.52949 0.76116 0.13509 0.0
N454 N 0.61383 0.80583 0.19267 0.0
N455 N 0.5315 0.76304 0.15341 0.0
H456 H 0.74096 0.49118 0.55118 0.0
H457 H 0.8254 0.6504 0.46097 0.0
H458 H 0.82297 0.64574 0.55256 0.0
H459 H 0.74961 0.49576 0.46228 0.0
H460 H 0.82367 0.65113 0.49421 0.0
H461 H 0.74375 0.49377 0.51839 0.0
C462 C 0.75984 0.5258 0.54458 0.0
C463 C 0.78178 0.56833 0.55469 0.0
C464 C 0.80733 0.61712 0.48717 0.0
C465 C 0.78482 0.57161 0.51682 0.0
C466 C 0.80808 0.61667 0.46821 0.0
C467 C 0.78766 0.57295 0.45881 0.0
C468 C 0.7859 0.57353 0.49672 0.0
C469 C 0.76593 0.53035 0.46889 0.0
C470 C 0.76134 0.52726 0.52578 0.0
C471 C 0.80571 0.61207 0.5453 0.0
N472 N 0.76572 0.53177 0.48721 0.0
N473 N 0.80647 0.61262 0.52686 0.0
H474 H 0.17733 0.82619 0.88553 0.0
H475 H 0.25046 0.74007 0.79532 0.0
H476 H 0.24598 0.74038 0.88422 0.0
H477 H 0.18307 0.82703 0.79395 0.0
H478 H 0.24747 0.73985 0.82811 0.0
H479 H 0.17885 0.82834 0.85229 0.0
C480 C 0.19302 0.80816 0.87829 0.0
C481 C 0.21152 0.78304 0.8877 0.0
C482 C 0.23317 0.75896 0.82072 0.0
C483 C 0.21297 0.78498 0.84978 0.0
C484 C 0.23476 0.75899 0.80192 0.0
C485 C 0.21704 0.78366 0.79182 0.0
C486 C 0.2138 0.78389 0.82968 0.0
C487 C 0.19705 0.80746 0.80121 0.0
C488 C 0.19368 0.80922 0.85933 0.0
C489 C 0.2312 0.76013 0.87761 0.0
N490 N 0.1961 0.80713 0.81964 0.0
N491 N 0.23128 0.76159 0.85929 0.0
H492 H 0.56585 0.62077 0.02816 0.0
H493 H 0.46069 0.38126 0.0863 0.0
H494 H 0.53353 0.61524 0.08502 0.0
H495 H 0.43601 0.37868 0.02888 0.0
H496 H 0.49672 0.46835 0.08604 0.0
H497 H 0.52917 0.53308 0.02811 0.0
C498 C 0.55167 0.60121 0.04066 0.0
C499 C 0.55272 0.62526 0.05662 0.0
C500 C 0.48311 0.44872 0.07352 0.0
C501 C 0.51076 0.52544 0.05662 0.0
C502 C 0.46249 0.39904 0.07366 0.0
C503 C 0.44518 0.37273 0.0576 0.0
C504 C 0.48738 0.47251 0.05714 0.0
C505 C 0.44852 0.39762 0.04159 0.0
C506 C 0.53034 0.55124 0.04057 0.0
C507 C 0.53335 0.59813 0.0724 0.0
N508 N 0.46974 0.44628 0.04172 0.0
N509 N 0.51333 0.54974 0.07201 0.0
H510 H 0.9208 0.53905 0.42002 0.0
H511 H 0.055 0.4337 0.3618 0.0
H512 H 0.94402 0.56481 0.3627 0.0
H513 H 0.08253 0.46618 0.41862 0.0
H514 H 0.00395 0.47044 0.36185 0.0
H515 H 0.97167 0.50265 0.41975 0.0
C516 C 0.93699 0.53741 0.4074 0.0
C517 C 0.92838 0.55515 0.39137 0.0
C518 C 0.0211 0.46928 0.37429 0.0
C519 C 0.98566 0.5125 0.3909 0.0
C520 C 0.04974 0.4479 0.37432 0.0
C521 C 0.07299 0.44692 0.39024 0.0
C522 C 0.01509 0.48894 0.39035 0.0
C523 C 0.0654 0.46632 0.40604 0.0
C524 C 0.96592 0.51657 0.40726 0.0
C525 C 0.95015 0.55198 0.37538 0.0
N526 N 0.037 0.48638 0.40571 0.0
N527 N 0.97744 0.53054 0.37551 0.0
H528 H 0.63201 0.01566 0.71801 0.0
H529 H 0.36905 0.98214 0.71814 0.0
H530 H 0.60557 0.13032 0.7323 0.0
H531 H 0.3952 0.86685 0.73169 0.0
H532 H 0.45626 0.03748 0.71758 0.0
H533 H 0.54481 0.96025 0.71729 0.0
C534 C 0.60791 0.02915 0.72094 0.0
C535 C 0.62599 0.07751 0.72535 0.0
C536 C 0.44269 1e-05 0.72067 0.0
C537 C 0.52679 0.01488 0.72422 0.0
C538 C 0.39309 0.9685 0.72094 0.0
C539 C 0.37492 0.91998 0.7251 0.0
C540 C 0.47415 0.98255 0.72416 0.0
C541 C 0.40767 0.90411 0.7286 0.0
C542 C 0.55832 0.9976 0.72058 0.0
C543 C 0.59317 0.09319 0.72902 0.0
N544 N 0.45568 0.93523 0.72795 0.0
N545 N 0.54518 0.06205 0.72826 0.0
H546 H 0.61835 0.53755 0.59454 0.0
H547 H 0.37728 0.4349 0.65201 0.0
H548 H 0.62033 0.5601 0.65209 0.0
H549 H 0.38495 0.46671 0.59504 0.0
H550 H 0.46504 0.47043 0.65247 0.0
H551 H 0.53131 0.50271 0.59462 0.0
C552 C 0.60045 0.53551 0.60719 0.0
C553 C 0.62661 0.55189 0.62333 0.0
C554 C 0.44733 0.46942 0.63989 0.0
C555 C 0.52675 0.51108 0.62357 0.0
C556 C 0.39731 0.44875 0.63958 0.0
C557 C 0.37382 0.44785 0.62346 0.0
C558 C 0.47373 0.48851 0.62392 0.0
C559 C 0.40157 0.46677 0.60778 0.0
C560 C 0.55077 0.51556 0.60722 0.0
C561 C 0.60153 0.54829 0.63933 0.0
N562 N 0.44995 0.48616 0.60839 0.0
N563 N 0.55282 0.52778 0.63909 0.0
H564 H 0.07781 0.61766 0.92675 0.0
H565 H 0.9449 0.37796 0.98487 0.0
H566 H 0.05604 0.61992 0.9842 0.0
H567 H 0.91755 0.38323 0.92804 0.0
H568 H 0.99553 0.46571 0.98491 0.0
H569 H 0.02702 0.53051 0.92699 0.0
C570 C 0.06194 0.59979 0.9394 0.0
C571 C 0.07097 0.62603 0.95547 0.0
C572 C 0.9785 0.44748 0.97246 0.0
C573 C 0.01373 0.52619 0.9559 0.0
C574 C 0.95009 0.39748 0.97237 0.0
C575 C 0.92704 0.37333 0.95642 0.0
C576 C 0.98444 0.47322 0.95642 0.0
C577 C 0.93454 0.40041 0.94065 0.0
C578 C 0.03304 0.55008 0.93952 0.0
C579 C 0.04959 0.60104 0.97148 0.0
N580 N 0.96269 0.44884 0.94104 0.0
N581 N 0.02231 0.55235 0.97134 0.0
H582 H 0.53986 0.92156 0.25952 0.0
H583 H 0.43589 0.05665 0.3179 0.0
H584 H 0.56631 0.94477 0.31681 0.0
H585 H 0.46754 0.08336 0.261 0.0
H586 H 0.47272 0.0057 0.31784 0.0
H587 H 0.50396 0.97283 0.25986 0.0
C588 C 0.53849 0.93784 0.27215 0.0
C589 C 0.55625 0.92909 0.28815 0.0
C590 C 0.47137 0.02267 0.30539 0.0
C591 C 0.51418 0.98685 0.28871 0.0
C592 C 0.44995 0.05126 0.30536 0.0
C593 C 0.44867 0.07421 0.28942 0.0
C594 C 0.49078 0.01642 0.2893 0.0
C595 C 0.4679 0.06645 0.2736 0.0
C596 C 0.51794 0.96701 0.27234 0.0
C597 C 0.55345 0.951 0.30415 0.0
N598 N 0.48799 0.03811 0.27393 0.0
N599 N 0.53227 0.97852 0.30407 0.0
loop_
_geom_bond_atom_site_label_1
_geom_bond_atom_site_label_2
_geom_bond_distance
_geom_bond_site_symmetry_2
_ccdc_geom_bond_type
O0 Cd1 2.223 . S
O0 C8 1.315 . S
Cd1 O0 2.223 . S
Cd1 O4 2.297 . S
Cd1 O5 2.439 . S
Cd1 O11 2.240 . S
Cd2 O3 2.240 . S
Cd2 O10 2.223 . S
Cd2 O12 2.297 . S
Cd2 O13 2.439 . S
O3 Cd2 2.240 . S
O3 C8 1.279 . S
O4 Cd1 2.297 . S
O4 C6 1.247 . S
O5 Cd1 2.439 . S
O5 C6 1.208 . S
C6 O4 1.247 . S
C6 O5 1.208 . S
C7 O12 1.247 . S
C7 O13 1.208 . S
C8 O0 1.315 . S
C8 O3 1.279 . S
C9 O10 1.315 . S
C9 O11 1.279 . S
O10 Cd2 2.223 . S
O10 C9 1.315 . S
O11 Cd1 2.240 . S
O11 C9 1.279 . S
O12 Cd2 2.297 . S
O12 C7 1.247 . S
O13 Cd2 2.439 . S
O13 C7 1.208 . S
O14 Cd15 2.223 . S
O14 C22 1.315 . S
Cd15 O14 2.223 . S
Cd15 O18 2.297 . S
Cd15 O19 2.439 . S
Cd15 O25 2.240 . S
Cd16 O17 2.240 . S
Cd16 O24 2.223 . S
Cd16 O26 2.297 . S
Cd16 O27 2.439 . S
O17 Cd16 2.240 . S
O17 C22 1.279 . S
O18 Cd15 2.297 . S
O18 C20 1.247 . S
O19 Cd15 2.439 . S
O19 C20 1.208 . S
C20 O18 1.247 . S
C20 O19 1.208 . S
C21 O26 1.247 . S
C21 O27 1.208 . S
C22 O14 1.315 . S
C22 O17 1.279 . S
C23 O24 1.315 . S
C23 O25 1.279 . S
O24 Cd16 2.223 . S
O24 C23 1.315 . S
O25 Cd15 2.240 . S
O25 C23 1.279 . S
O26 Cd16 2.297 . S
O26 C21 1.247 . S
O27 Cd16 2.439 . S
O27 C21 1.208 . S
O28 Cd29 2.223 . S
O28 C36 1.315 . S
Cd29 O28 2.223 . S
Cd29 O32 2.297 . S
Cd29 O33 2.439 . S
Cd29 O39 2.240 . S
Cd30 O31 2.240 . S
Cd30 O38 2.223 . S
Cd30 O40 2.297 . S
Cd30 O41 2.439 . S
O31 Cd30 2.240 . S
O31 C36 1.279 . S
O32 Cd29 2.297 . S
O32 C34 1.247 . S
O33 Cd29 2.439 . S
O33 C34 1.208 . S
C34 O32 1.247 . S
C34 O33 1.208 . S
C35 O40 1.247 . S
C35 O41 1.208 . S
C36 O28 1.315 . S
C36 O31 1.279 . S
C37 O38 1.315 . S
C37 O39 1.279 . S
O38 Cd30 2.223 . S
O38 C37 1.315 . S
O39 Cd29 2.240 . S
O39 C37 1.279 . S
O40 Cd30 2.297 . S
O40 C35 1.247 . S
O41 Cd30 2.439 . S
O41 C35 1.208 . S
O42 Cd43 2.223 . S
O42 C50 1.315 . S
Cd43 O42 2.223 . S
Cd43 O46 2.297 . S
Cd43 O47 2.439 . S
Cd43 O53 2.240 . S
Cd44 O45 2.240 . S
Cd44 O52 2.223 . S
Cd44 O54 2.297 . S
Cd44 O55 2.439 . S
O45 Cd44 2.240 . S
O45 C50 1.279 . S
O46 Cd43 2.297 . S
O46 C48 1.247 . S
O47 Cd43 2.439 . S
O47 C48 1.208 . S
C48 O46 1.247 . S
C48 O47 1.208 . S
C49 O54 1.247 . S
C49 O55 1.208 . S
C50 O42 1.315 . S
C50 O45 1.279 . S
C51 O52 1.315 . S
C51 O53 1.279 . S
O52 Cd44 2.223 . S
O52 C51 1.315 . S
O53 Cd43 2.240 . S
O53 C51 1.279 . S
O54 Cd44 2.297 . S
O54 C49 1.247 . S
O55 Cd44 2.439 . S
O55 C49 1.208 . S
O56 Cd57 2.223 . S
O56 C64 1.315 . S
Cd57 O56 2.223 . S
Cd57 O60 2.297 . S
Cd57 O61 2.439 . S
Cd57 O67 2.240 . S
Cd58 O59 2.240 . S
Cd58 O66 2.223 . S
Cd58 O68 2.297 . S
Cd58 O69 2.439 . S
O59 Cd58 2.240 . S
O59 C64 1.279 . S
O60 Cd57 2.297 . S
O60 C62 1.247 . S
O61 Cd57 2.439 . S
O61 C62 1.208 . S
C62 O60 1.247 . S
C62 O61 1.208 . S
C63 O68 1.247 . S
C63 O69 1.208 . S
C64 O56 1.315 . S
C64 O59 1.279 . S
C65 O66 1.315 . S
C65 O67 1.279 . S
O66 Cd58 2.223 . S
O66 C65 1.315 . S
O67 Cd57 2.240 . S
O67 C65 1.279 . S
O68 Cd58 2.297 . S
O68 C63 1.247 . S
O69 Cd58 2.439 . S
O69 C63 1.208 . S
O70 Cd71 2.223 . S
O70 C78 1.315 . S
Cd71 O70 2.223 . S
Cd71 O74 2.297 . S
Cd71 O75 2.439 . S
Cd71 O81 2.240 . S
Cd72 O73 2.240 . S
Cd72 O80 2.223 . S
Cd72 O82 2.297 . S
Cd72 O83 2.439 . S
O73 Cd72 2.240 . S
O73 C78 1.279 . S
O74 Cd71 2.297 . S
O74 C76 1.247 . S
O75 Cd71 2.439 . S
O75 C76 1.208 . S
C76 O74 1.247 . S
C76 O75 1.208 . S
C77 O82 1.247 . S
C77 O83 1.208 . S
C78 O70 1.315 . S
C78 O73 1.279 . S
C79 O80 1.315 . S
C79 O81 1.279 . S
O80 Cd72 2.223 . S
O80 C79 1.315 . S
O81 Cd71 2.240 . S
O81 C79 1.279 . S
O82 Cd72 2.297 . S
O82 C77 1.247 . S
O83 Cd72 2.439 . S
O83 C77 1.208 . S
O84 Cd85 2.223 . S
O84 C92 1.315 . S
Cd85 O84 2.223 . S
Cd85 O88 2.297 . S
Cd85 O89 2.439 . S
Cd85 O95 2.240 . S
Cd86 O87 2.240 . S
Cd86 O94 2.223 . S
Cd86 O96 2.297 . S
Cd86 O97 2.439 . S
O87 Cd86 2.240 . S
O87 C92 1.279 . S
O88 Cd85 2.297 . S
O88 C90 1.247 . S
O89 Cd85 2.439 . S
O89 C90 1.208 . S
C90 O88 1.247 . S
C90 O89 1.208 . S
C91 O96 1.247 . S
C91 O97 1.208 . S
C92 O84 1.315 . S
C92 O87 1.279 . S
C93 O94 1.315 . S
C93 O95 1.279 . S
O94 Cd86 2.223 . S
O94 C93 1.315 . S
O95 Cd85 2.240 . S
O95 C93 1.279 . S
O96 Cd86 2.297 . S
O96 C91 1.247 . S
O97 Cd86 2.439 . S
O97 C91 1.208 . S
O98 Cd99 2.223 . S
O98 C106 1.315 . S
Cd99 O98 2.223 . S
Cd99 O102 2.297 . S
Cd99 O103 2.439 . S
Cd99 O109 2.240 . S
Cd100 O101 2.240 . S
Cd100 O108 2.223 . S
Cd100 O110 2.297 . S
Cd100 O111 2.439 . S
O101 Cd100 2.240 . S
O101 C106 1.279 . S
O102 Cd99 2.297 . S
O102 C104 1.247 . S
O103 Cd99 2.439 . S
O103 C104 1.208 . S
C104 O102 1.247 . S
C104 O103 1.208 . S
C105 O110 1.247 . S
C105 O111 1.208 . S
C106 O98 1.315 . S
C106 O101 1.279 . S
C107 O108 1.315 . S
C107 O109 1.279 . S
O108 Cd100 2.223 . S
O108 C107 1.315 . S
O109 Cd99 2.240 . S
O109 C107 1.279 . S
O110 Cd100 2.297 . S
O110 C105 1.247 . S
O111 Cd100 2.439 . S
O111 C105 1.208 . S
O112 Cd113 2.223 . S
O112 C120 1.315 . S
Cd113 O112 2.223 . S
Cd113 O116 2.297 . S
Cd113 O117 2.439 . S
Cd113 O123 2.240 . S
Cd114 O115 2.240 . S
Cd114 O122 2.223 . S
Cd114 O124 2.297 . S
Cd114 O125 2.439 . S
O115 Cd114 2.240 . S
O115 C120 1.279 . S
O116 Cd113 2.297 . S
O116 C118 1.247 . S
O117 Cd113 2.439 . S
O117 C118 1.208 . S
C118 O116 1.247 . S
C118 O117 1.208 . S
C119 O124 1.247 . S
C119 O125 1.208 . S
C120 O112 1.315 . S
C120 O115 1.279 . S
C121 O122 1.315 . S
C121 O123 1.279 . S
O122 Cd114 2.223 . S
O122 C121 1.315 . S
O123 Cd113 2.240 . S
O123 C121 1.279 . S
O124 Cd114 2.297 . S
O124 C119 1.247 . S
O125 Cd114 2.439 . S
O125 C119 1.208 . S
O126 Cd127 2.223 . S
O126 C134 1.315 . S
Cd127 O126 2.223 . S
Cd127 O130 2.297 . S
Cd127 O131 2.439 . S
Cd127 O137 2.240 . S
Cd128 O129 2.240 . S
Cd128 O136 2.223 . S
Cd128 O138 2.297 . S
Cd128 O139 2.439 . S
O129 Cd128 2.240 . S
O129 C134 1.279 . S
O130 Cd127 2.297 . S
O130 C132 1.247 . S
O131 Cd127 2.439 . S
O131 C132 1.208 . S
C132 O130 1.247 . S
C132 O131 1.208 . S
C133 O138 1.247 . S
C133 O139 1.208 . S
C134 O126 1.315 . S
C134 O129 1.279 . S
C135 O136 1.315 . S
C135 O137 1.279 . S
O136 Cd128 2.223 . S
O136 C135 1.315 . S
O137 Cd127 2.240 . S
O137 C135 1.279 . S
O138 Cd128 2.297 . S
O138 C133 1.247 . S
O139 Cd128 2.439 . S
O139 C133 1.208 . S
O140 Cd141 2.223 . S
O140 C148 1.315 . S
Cd141 O140 2.223 . S
Cd141 O144 2.297 . S
Cd141 O145 2.439 . S
Cd141 O151 2.240 . S
Cd142 O143 2.240 . S
Cd142 O150 2.223 . S
Cd142 O152 2.297 . S
Cd142 O153 2.439 . S
O143 Cd142 2.240 . S
O143 C148 1.279 . S
O144 Cd141 2.297 . S
O144 C146 1.247 . S
O145 Cd141 2.439 . S
O145 C146 1.208 . S
C146 O144 1.247 . S
C146 O145 1.208 . S
C147 O152 1.247 . S
C147 O153 1.208 . S
C148 O140 1.315 . S
C148 O143 1.279 . S
C149 O150 1.315 . S
C149 O151 1.279 . S
O150 Cd142 2.223 . S
O150 C149 1.315 . S
O151 Cd141 2.240 . S
O151 C149 1.279 . S
O152 Cd142 2.297 . S
O152 C147 1.247 . S
O153 Cd142 2.439 . S
O153 C147 1.208 . S
O154 Cd155 2.223 . S
O154 C162 1.315 . S
Cd155 O154 2.223 . S
Cd155 O158 2.297 . S
Cd155 O159 2.439 . S
Cd155 O165 2.240 . S
Cd156 O157 2.240 . S
Cd156 O164 2.223 . S
Cd156 O166 2.297 . S
Cd156 O167 2.439 . S
O157 Cd156 2.240 . S
O157 C162 1.279 . S
O158 Cd155 2.297 . S
O158 C160 1.247 . S
O159 Cd155 2.439 . S
O159 C160 1.208 . S
C160 O158 1.247 . S
C160 O159 1.208 . S
C161 O166 1.247 . S
C161 O167 1.208 . S
C162 O154 1.315 . S
C162 O157 1.279 . S
C163 O164 1.315 . S
C163 O165 1.279 . S
O164 Cd156 2.223 . S
O164 C163 1.315 . S
O165 Cd155 2.240 . S
O165 C163 1.279 . S
O166 Cd156 2.297 . S
O166 C161 1.247 . S
O167 Cd156 2.439 . S
O167 C161 1.208 . S
H168 C174 0.930 . S
H169 C178 0.930 . S
H170 C183 0.929 . S
H171 C181 0.929 . S
H172 C176 0.903 1_565 S
H173 C182 0.902 1_545 S
C174 H168 0.930 . S
C174 C175 1.367 . S
C174 C182 1.378 . S
C175 C174 1.367 . S
C175 C183 1.433 . S
C176 H172 0.903 1_545 S
C176 C178 1.378 . S
C176 C180 1.350 . S
C177 C180 1.463 1_566 S
C177 C182 1.350 . S
C177 N185 1.410 1_556 S
C178 H169 0.930 . S
C178 C176 1.378 . S
C178 C179 1.367 . S
C179 C178 1.367 . S
C179 C181 1.433 . S
C180 C176 1.350 . S
C180 C177 1.463 1_544 S
C180 N184 1.410 1_554 S
C181 H171 0.929 . S
C181 C179 1.433 . S
C181 N184 1.356 1_554 S
C182 H173 0.902 1_565 S
C182 C174 1.378 . S
C182 C177 1.350 . S
C183 H170 0.929 . S
C183 C175 1.433 . S
C183 N185 1.356 1_556 S
N184 C180 1.410 1_556 S
N184 C181 1.356 1_556 S
N185 C177 1.410 1_554 S
N185 C183 1.356 1_554 S
H186 C192 0.930 . S
H187 C196 0.930 . S
H188 C201 0.929 . S
H189 C199 0.929 . S
H190 C194 0.929 . S
H191 C200 0.929 . S
C192 H186 0.930 . S
C192 C193 1.367 . S
C192 C200 1.378 . S
C193 C192 1.367 . S
C193 C201 1.433 . S
C194 H190 0.929 . S
C194 C196 1.378 . S
C194 C198 1.350 . S
C195 C198 1.463 . S
C195 C200 1.350 . S
C195 N203 1.427 . S
C196 H187 0.930 . S
C196 C194 1.378 . S
C196 C197 1.367 . S
C197 C196 1.367 . S
C197 C199 1.433 . S
C198 C194 1.350 . S
C198 C195 1.463 . S
C198 N202 1.427 . S
C199 H189 0.929 . S
C199 C197 1.433 . S
C199 N202 1.384 . S
C200 H191 0.929 . S
C200 C192 1.378 . S
C200 C195 1.350 . S
C201 H188 0.929 . S
C201 C193 1.433 . S
C201 N203 1.384 . S
N202 C198 1.427 . S
N202 C199 1.384 . S
N203 C195 1.427 . S
N203 C201 1.384 . S
H204 C210 0.930 . S
H205 C214 0.930 . S
H206 C219 0.929 . S
H207 C217 0.929 . S
H208 C212 0.929 1_655 S
H209 C218 0.929 1_455 S
C210 H204 0.930 . S
C210 C211 1.367 . S
C210 C218 1.378 . S
C211 C210 1.367 . S
C211 C219 1.433 . S
C212 H208 0.929 1_455 S
C212 C214 1.378 . S
C212 C216 1.350 . S
C213 C216 1.463 1_655 S
C213 C218 1.350 . S
C213 N221 1.427 . S
C214 H205 0.930 . S
C214 C212 1.378 . S
C214 C215 1.367 . S
C215 C214 1.367 . S
C215 C217 1.433 . S
C216 C212 1.350 . S
C216 C213 1.463 1_455 S
C216 N220 1.427 . S
C217 H207 0.929 . S
C217 C215 1.433 . S
C217 N220 1.384 . S
C218 H209 0.929 1_655 S
C218 C210 1.378 . S
C218 C213 1.350 . S
C219 H206 0.929 . S
C219 C211 1.433 . S
C219 N221 1.384 . S
N220 C216 1.427 . S
N220 C217 1.384 . S
N221 C213 1.427 . S
N221 C219 1.384 . S
H222 C228 0.930 . S
H223 C232 0.930 . S
H224 C237 0.929 . S
H225 C235 0.929 . S
H226 C230 0.985 . S
H227 C236 0.985 . S
C228 H222 0.930 . S
C228 C229 1.367 . S
C228 C236 1.344 1_554 S
C229 C228 1.367 . S
C229 C237 1.433 . S
C230 H226 0.985 . S
C230 C232 1.344 1_554 S
C230 C234 1.330 1_554 S
C231 C234 1.463 1_564 S
C231 C236 1.330 1_554 S
C231 N239 1.427 . S
C232 H223 0.930 . S
C232 C230 1.344 1_556 S
C232 C233 1.367 . S
C233 C232 1.367 . S
C233 C235 1.433 . S
C234 C230 1.330 1_556 S
C234 C231 1.463 1_546 S
C234 N238 1.427 . S
C235 H225 0.929 . S
C235 C233 1.433 . S
C235 N238 1.384 . S
C236 H227 0.985 . S
C236 C228 1.344 1_556 S
C236 C231 1.330 1_556 S
C237 H224 0.929 . S
C237 C229 1.433 . S
C237 N239 1.384 . S
N238 C234 1.427 . S
N238 C235 1.384 . S
N239 C231 1.427 . S
N239 C237 1.384 . S
H240 C246 0.930 . S
H241 C250 0.930 . S
H242 C255 0.929 . S
H243 C253 0.929 . S
H244 C248 0.929 . S
H245 C254 0.929 . S
C246 H240 0.930 . S
C246 C247 1.367 . S
C246 C254 1.378 . S
C247 C246 1.367 . S
C247 C255 1.433 . S
C248 H244 0.929 . S
C248 C250 1.378 . S
C248 C252 1.350 . S
C249 C252 1.463 . S
C249 C254 1.350 . S
C249 N257 1.427 . S
C250 H241 0.930 . S
C250 C248 1.378 . S
C250 C251 1.367 . S
C251 C250 1.367 . S
C251 C253 1.433 . S
C252 C248 1.350 . S
C252 C249 1.463 . S
C252 N256 1.427 . S
C253 H243 0.929 . S
C253 C251 1.433 . S
C253 N256 1.384 . S
C254 H245 0.929 . S
C254 C246 1.378 . S
C254 C249 1.350 . S
C255 H242 0.929 . S
C255 C247 1.433 . S
C255 N257 1.384 . S
N256 C252 1.427 . S
N256 C253 1.384 . S
N257 C249 1.427 . S
N257 C255 1.384 . S
H258 C264 0.930 . S
H259 C268 0.930 . S
H260 C273 0.929 . S
H261 C271 0.929 . S
H262 C266 0.929 . S
H263 C272 0.929 . S
C264 H258 0.930 . S
C264 C265 1.367 . S
C264 C272 1.378 . S
C265 C264 1.367 . S
C265 C273 1.433 . S
C266 H262 0.929 . S
C266 C268 1.378 . S
C266 C270 1.350 . S
C267 C270 1.463 1_655 S
C267 C272 1.350 . S
C267 N275 1.427 . S
C268 H259 0.930 . S
C268 C266 1.378 . S
C268 C269 1.367 . S
C269 C268 1.367 . S
C269 C271 1.433 . S
C270 C266 1.350 . S
C270 C267 1.463 1_455 S
C270 N274 1.427 . S
C271 H261 0.929 . S
C271 C269 1.433 . S
C271 N274 1.384 . S
C272 H263 0.929 . S
C272 C264 1.378 . S
C272 C267 1.350 . S
C273 H260 0.929 . S
C273 C265 1.433 . S
C273 N275 1.384 . S
N274 C270 1.427 . S
N274 C271 1.384 . S
N275 C267 1.427 . S
N275 C273 1.384 . S
H276 C282 0.930 . S
H277 C286 0.930 . S
H278 C291 0.929 . S
H279 C289 0.929 . S
H280 C284 0.929 . S
H281 C290 0.929 . S
C282 H276 0.930 . S
C282 C283 1.367 . S
C282 C290 1.378 . S
C283 C282 1.367 . S
C283 C291 1.433 . S
C284 H280 0.929 . S
C284 C286 1.378 . S
C284 C288 1.350 . S
C285 C288 1.463 1_556 S
C285 C290 1.350 . S
C285 N293 1.427 . S
C286 H277 0.930 . S
C286 C284 1.378 . S
C286 C287 1.367 . S
C287 C286 1.367 . S
C287 C289 1.433 . S
C288 C284 1.350 . S
C288 C285 1.463 1_554 S
C288 N292 1.427 . S
C289 H279 0.929 . S
C289 C287 1.433 . S
C289 N292 1.384 . S
C290 H281 0.929 . S
C290 C282 1.378 . S
C290 C285 1.350 . S
C291 H278 0.929 . S
C291 C283 1.433 . S
C291 N293 1.384 . S
N292 C288 1.427 . S
N292 C289 1.384 . S
N293 C285 1.427 . S
N293 C291 1.384 . S
H294 C300 0.930 . S
H295 C304 0.930 . S
H296 C309 0.929 . S
H297 C307 0.929 . S
H298 C302 0.929 . S
H299 C308 0.929 . S
C300 H294 0.930 . S
C300 C301 1.367 . S
C300 C308 1.378 . S
C301 C300 1.367 . S
C301 C309 1.433 . S
C302 H298 0.929 . S
C302 C304 1.378 . S
C302 C306 1.350 . S
C303 C306 1.463 . S
C303 C308 1.350 . S
C303 N311 1.427 . S
C304 H295 0.930 . S
C304 C302 1.378 . S
C304 C305 1.367 . S
C305 C304 1.367 . S
C305 C307 1.433 . S
C306 C302 1.350 . S
C306 C303 1.463 . S
C306 N310 1.427 . S
C307 H297 0.929 . S
C307 C305 1.433 . S
C307 N310 1.384 . S
C308 H299 0.929 . S
C308 C300 1.378 . S
C308 C303 1.350 . S
C309 H296 0.929 . S
C309 C301 1.433 . S
C309 N311 1.384 . S
N310 C306 1.427 . S
N310 C307 1.384 . S
N311 C303 1.427 . S
N311 C309 1.384 . S
H312 C318 0.930 . S
H313 C322 0.930 . S
H314 C327 0.929 . S
H315 C325 0.929 . S
H316 C320 0.929 . S
H317 C326 0.929 . S
C318 H312 0.930 . S
C318 C319 1.367 . S
C318 C326 1.378 . S
C319 C318 1.367 . S
C319 C327 1.433 . S
C320 H316 0.929 . S
C320 C322 1.378 . S
C320 C324 1.350 . S
C321 C324 1.463 . S
C321 C326 1.350 . S
C321 N329 1.427 . S
C322 H313 0.930 . S
C322 C320 1.378 . S
C322 C323 1.367 . S
C323 C322 1.367 . S
C323 C325 1.433 . S
C324 C320 1.350 . S
C324 C321 1.463 . S
C324 N328 1.427 . S
C325 H315 0.929 . S
C325 C323 1.433 . S
C325 N328 1.384 . S
C326 H317 0.929 . S
C326 C318 1.378 . S
C326 C321 1.350 . S
C327 H314 0.929 . S
C327 C319 1.433 . S
C327 N329 1.384 . S
N328 C324 1.427 . S
N328 C325 1.384 . S
N329 C321 1.427 . S
N329 C327 1.384 . S
H330 C336 0.930 . S
H331 C340 0.930 . S
H332 C345 0.937 . S
H333 C343 0.937 . S
H334 C338 0.929 . S
H335 C344 0.929 . S
C336 H330 0.930 . S
C336 C337 1.367 . S
C336 C344 1.378 . S
C337 C336 1.367 . S
C337 C345 1.433 . S
C338 H334 0.929 . S
C338 C340 1.378 . S
C338 C342 1.350 . S
C339 C342 1.463 1_556 S
C339 C344 1.350 . S
C339 N347 1.427 1_556 S
C340 H331 0.930 . S
C340 C338 1.378 . S
C340 C341 1.367 . S
C341 C340 1.367 . S
C341 C343 1.433 . S
C342 C338 1.350 . S
C342 C339 1.463 1_554 S
C342 N346 1.427 1_554 S
C343 H333 0.937 . S
C343 C341 1.433 . S
C343 N346 1.384 1_554 S
C344 H335 0.929 . S
C344 C336 1.378 . S
C344 C339 1.350 . S
C345 H332 0.937 . S
C345 C337 1.433 . S
C345 N347 1.384 1_556 S
N346 C342 1.427 1_556 S
N346 C343 1.384 1_556 S
N347 C339 1.427 1_554 S
N347 C345 1.384 1_554 S
H348 C354 0.930 . S
H349 C358 0.930 . S
H350 C363 0.929 . S
H351 C361 0.929 . S
H352 C356 0.929 . S
H353 C362 0.929 . S
C354 H348 0.930 . S
C354 C355 1.367 . S
C354 C362 1.378 . S
C355 C354 1.367 . S
C355 C363 1.433 . S
C356 H352 0.929 . S
C356 C358 1.378 . S
C356 C360 1.350 . S
C357 C360 1.463 . S
C357 C362 1.350 . S
C357 N365 1.427 . S
C358 H349 0.930 . S
C358 C356 1.378 . S
C358 C359 1.367 . S
C359 C358 1.367 . S
C359 C361 1.433 . S
C360 C356 1.350 . S
C360 C357 1.463 . S
C360 N364 1.427 . S
C361 H351 0.929 . S
C361 C359 1.433 . S
C361 N364 1.384 . S
C362 H353 0.929 . S
C362 C354 1.378 . S
C362 C357 1.350 . S
C363 H350 0.929 . S
C363 C355 1.433 . S
C363 N365 1.384 . S
N364 C360 1.427 . S
N364 C361 1.384 . S
N365 C357 1.427 . S
N365 C363 1.384 . S
H366 C372 0.930 . S
H367 C376 0.930 . S
H368 C381 0.929 . S
H369 C379 0.929 . S
H370 C374 0.929 . S
H371 C380 0.929 . S
C372 H366 0.930 . S
C372 C373 1.367 . S
C372 C380 1.378 . S
C373 C372 1.367 . S
C373 C381 1.433 . S
C374 H370 0.929 . S
C374 C376 1.378 . S
C374 C378 1.350 . S
C375 C378 1.463 . S
C375 C380 1.350 . S
C375 N383 1.427 . S
C376 H367 0.930 . S
C376 C374 1.378 . S
C376 C377 1.367 . S
C377 C376 1.367 . S
C377 C379 1.433 . S
C378 C374 1.350 . S
C378 C375 1.463 . S
C378 N382 1.427 . S
C379 H369 0.929 . S
C379 C377 1.433 . S
C379 N382 1.384 . S
C380 H371 0.929 . S
C380 C372 1.378 . S
C380 C375 1.350 . S
C381 H368 0.929 . S
C381 C373 1.433 . S
C381 N383 1.384 . S
N382 C378 1.427 . S
N382 C379 1.384 . S
N383 C375 1.427 . S
N383 C381 1.384 . S
H384 C390 0.930 . S
H385 C394 0.930 . S
H386 C399 0.929 . S
H387 C397 0.929 . S
H388 C392 0.929 . S
H389 C398 0.929 . S
C390 H384 0.930 . S
C390 C391 1.367 . S
C390 C398 1.378 . S
C391 C390 1.367 . S
C391 C399 1.433 . S
C392 H388 0.929 . S
C392 C394 1.378 . S
C392 C396 1.350 . S
C393 C396 1.463 . S
C393 C398 1.350 . S
C393 N401 1.427 . S
C394 H385 0.930 . S
C394 C392 1.378 . S
C394 C395 1.367 . S
C395 C394 1.367 . S
C395 C397 1.433 . S
C396 C392 1.350 . S
C396 C393 1.463 . S
C396 N400 1.427 . S
C397 H387 0.929 . S
C397 C395 1.433 . S
C397 N400 1.384 . S
C398 H389 0.929 . S
C398 C390 1.378 . S
C398 C393 1.350 . S
C399 H386 0.929 . S
C399 C391 1.433 . S
C399 N401 1.384 . S
N400 C396 1.427 . S
N400 C397 1.384 . S
N401 C393 1.427 . S
N401 C399 1.384 . S
H402 C408 0.930 . S
H403 C412 0.930 . S
H404 C417 0.929 . S
H405 C415 0.929 . S
H406 C410 0.929 . S
H407 C416 0.929 . S
C408 H402 0.930 . S
C408 C409 1.367 . S
C408 C416 1.378 . S
C409 C408 1.367 . S
C409 C417 1.433 . S
C410 H406 0.929 . S
C410 C412 1.378 . S
C410 C414 1.350 . S
C411 C414 1.463 . S
C411 C416 1.350 . S
C411 N419 1.427 . S
C412 H403 0.930 . S
C412 C410 1.378 . S
C412 C413 1.367 . S
C413 C412 1.367 . S
C413 C415 1.433 . S
C414 C410 1.350 . S
C414 C411 1.463 . S
C414 N418 1.427 . S
C415 H405 0.929 . S
C415 C413 1.433 . S
C415 N418 1.384 . S
C416 H407 0.929 . S
C416 C408 1.378 . S
C416 C411 1.350 . S
C417 H404 0.929 . S
C417 C409 1.433 . S
C417 N419 1.384 . S
N418 C414 1.427 . S
N418 C415 1.384 . S
N419 C411 1.427 . S
N419 C417 1.384 . S
H420 C426 0.930 . S
H421 C430 0.930 . S
H422 C435 0.929 . S
H423 C433 0.929 . S
H424 C428 0.929 . S
H425 C434 0.929 . S
C426 H420 0.930 . S
C426 C427 1.367 . S
C426 C434 1.378 . S
C427 C426 1.367 . S
C427 C435 1.433 . S
C428 H424 0.929 . S
C428 C430 1.378 . S
C428 C432 1.350 . S
C429 C432 1.463 . S
C429 C434 1.350 . S
C429 N437 1.427 . S
C430 H421 0.930 . S
C430 C428 1.378 . S
C430 C431 1.367 . S
C431 C430 1.367 . S
C431 C433 1.433 . S
C432 C428 1.350 . S
C432 C429 1.463 . S
C432 N436 1.427 . S
C433 H423 0.929 . S
C433 C431 1.433 . S
C433 N436 1.384 . S
C434 H425 0.929 . S
C434 C426 1.378 . S
C434 C429 1.350 . S
C435 H422 0.929 . S
C435 C427 1.433 . S
C435 N437 1.384 . S
N436 C432 1.427 . S
N436 C433 1.384 . S
N437 C429 1.427 . S
N437 C435 1.384 . S
H438 C444 0.930 . S
H439 C448 0.930 . S
H440 C453 0.929 . S
H441 C451 0.929 . S
H442 C446 0.929 . S
H443 C452 0.929 . S
C444 H438 0.930 . S
C444 C445 1.367 . S
C444 C452 1.378 . S
C445 C444 1.367 . S
C445 C453 1.433 . S
C446 H442 0.929 . S
C446 C448 1.378 . S
C446 C450 1.350 . S
C447 C450 1.463 . S
C447 C452 1.350 . S
C447 N455 1.427 . S
C448 H439 0.930 . S
C448 C446 1.378 . S
C448 C449 1.367 . S
C449 C448 1.367 . S
C449 C451 1.433 . S
C450 C446 1.350 . S
C450 C447 1.463 . S
C450 N454 1.427 . S
C451 H441 0.929 . S
C451 C449 1.433 . S
C451 N454 1.384 . S
C452 H443 0.929 . S
C452 C444 1.378 . S
C452 C447 1.350 . S
C453 H440 0.929 . S
C453 C445 1.433 . S
C453 N455 1.384 . S
N454 C450 1.427 . S
N454 C451 1.384 . S
N455 C447 1.427 . S
N455 C453 1.384 . S
H456 C462 0.930 . S
H457 C466 0.930 . S
H458 C471 0.929 . S
H459 C469 0.929 . S
H460 C464 0.929 . S
H461 C470 0.929 . S
C462 H456 0.930 . S
C462 C463 1.367 . S
C462 C470 1.378 . S
C463 C462 1.367 . S
C463 C471 1.433 . S
C464 H460 0.929 . S
C464 C466 1.378 . S
C464 C468 1.350 . S
C465 C468 1.463 . S
C465 C470 1.350 . S
C465 N473 1.427 . S
C466 H457 0.930 . S
C466 C464 1.378 . S
C466 C467 1.367 . S
C467 C466 1.367 . S
C467 C469 1.433 . S
C468 C464 1.350 . S
C468 C465 1.463 . S
C468 N472 1.427 . S
C469 H459 0.929 . S
C469 C467 1.433 . S
C469 N472 1.384 . S
C470 H461 0.929 . S
C470 C462 1.378 . S
C470 C465 1.350 . S
C471 H458 0.929 . S
C471 C463 1.433 . S
C471 N473 1.384 . S
N472 C468 1.427 . S
N472 C469 1.384 . S
N473 C465 1.427 . S
N473 C471 1.384 . S
H474 C480 0.930 . S
H475 C484 0.930 . S
H476 C489 0.929 . S
H477 C487 0.929 . S
H478 C482 0.929 . S
H479 C488 0.929 . S
C480 H474 0.930 . S
C480 C481 1.367 . S
C480 C488 1.378 . S
C481 C480 1.367 . S
C481 C489 1.433 . S
C482 H478 0.929 . S
C482 C484 1.378 . S
C482 C486 1.350 . S
C483 C486 1.463 . S
C483 C488 1.350 . S
C483 N491 1.427 . S
C484 H475 0.930 . S
C484 C482 1.378 . S
C484 C485 1.367 . S
C485 C484 1.367 . S
C485 C487 1.433 . S
C486 C482 1.350 . S
C486 C483 1.463 . S
C486 N490 1.427 . S
C487 H477 0.929 . S
C487 C485 1.433 . S
C487 N490 1.384 . S
C488 H479 0.929 . S
C488 C480 1.378 . S
C488 C483 1.350 . S
C489 H476 0.929 . S
C489 C481 1.433 . S
C489 N491 1.384 . S
N490 C486 1.427 . S
N490 C487 1.384 . S
N491 C483 1.427 . S
N491 C489 1.384 . S
H492 C498 0.930 . S
H493 C502 0.930 . S
H494 C507 0.929 . S
H495 C505 0.929 . S
H496 C500 0.929 . S
H497 C506 0.929 . S
C498 H492 0.930 . S
C498 C499 1.367 . S
C498 C506 1.378 . S
C499 C498 1.367 . S
C499 C507 1.433 . S
C500 H496 0.929 . S
C500 C502 1.378 . S
C500 C504 1.350 . S
C501 C504 1.463 . S
C501 C506 1.350 . S
C501 N509 1.427 . S
C502 H493 0.930 . S
C502 C500 1.378 . S
C502 C503 1.367 . S
C503 C502 1.367 . S
C503 C505 1.433 . S
C504 C500 1.350 . S
C504 C501 1.463 . S
C504 N508 1.427 . S
C505 H495 0.929 . S
C505 C503 1.433 . S
C505 N508 1.384 . S
C506 H497 0.929 . S
C506 C498 1.378 . S
C506 C501 1.350 . S
C507 H494 0.929 . S
C507 C499 1.433 . S
C507 N509 1.384 . S
N508 C504 1.427 . S
N508 C505 1.384 . S
N509 C501 1.427 . S
N509 C507 1.384 . S
H510 C516 0.930 . S
H511 C520 0.930 . S
H512 C525 0.929 . S
H513 C523 0.929 . S
H514 C518 0.929 . S
H515 C524 0.929 . S
C516 H510 0.930 . S
C516 C517 1.367 . S
C516 C524 1.378 . S
C517 C516 1.367 . S
C517 C525 1.433 . S
C518 H514 0.929 . S
C518 C520 1.378 . S
C518 C522 1.350 . S
C519 C522 1.463 1_655 S
C519 C524 1.350 . S
C519 N527 1.427 . S
C520 H511 0.930 . S
C520 C518 1.378 . S
C520 C521 1.367 . S
C521 C520 1.367 . S
C521 C523 1.433 . S
C522 C518 1.350 . S
C522 C519 1.463 1_455 S
C522 N526 1.427 . S
C523 H513 0.929 . S
C523 C521 1.433 . S
C523 N526 1.384 . S
C524 H515 0.929 . S
C524 C516 1.378 . S
C524 C519 1.350 . S
C525 H512 0.929 . S
C525 C517 1.433 . S
C525 N527 1.384 . S
N526 C522 1.427 . S
N526 C523 1.384 . S
N527 C519 1.427 . S
N527 C525 1.384 . S
H528 C534 0.930 . S
H529 C538 0.930 . S
H530 C543 0.929 . S
H531 C541 0.929 . S
H532 C536 0.929 1_545 S
H533 C542 0.929 1_565 S
C534 H528 0.930 . S
C534 C535 1.367 . S
C534 C542 1.378 . S
C535 C534 1.367 . S
C535 C543 1.433 . S
C536 H532 0.929 1_565 S
C536 C538 1.378 . S
C536 C540 1.350 . S
C537 C540 1.463 1_545 S
C537 C542 1.350 . S
C537 N545 1.427 . S
C538 H529 0.930 . S
C538 C536 1.378 . S
C538 C539 1.367 . S
C539 C538 1.367 . S
C539 C541 1.433 . S
C540 C536 1.350 . S
C540 C537 1.463 1_565 S
C540 N544 1.427 . S
C541 H531 0.929 . S
C541 C539 1.433 . S
C541 N544 1.384 . S
C542 H533 0.929 1_545 S
C542 C534 1.378 . S
C542 C537 1.350 . S
C543 H530 0.929 . S
C543 C535 1.433 . S
C543 N545 1.384 . S
N544 C540 1.427 . S
N544 C541 1.384 . S
N545 C537 1.427 . S
N545 C543 1.384 . S
H546 C552 0.930 . S
H547 C556 0.930 . S
H548 C561 0.929 . S
H549 C559 0.929 . S
H550 C554 0.929 . S
H551 C560 0.929 . S
C552 H546 0.930 . S
C552 C553 1.367 . S
C552 C560 1.378 . S
C553 C552 1.367 . S
C553 C561 1.433 . S
C554 H550 0.929 . S
C554 C556 1.378 . S
C554 C558 1.350 . S
C555 C558 1.463 . S
C555 C560 1.350 . S
C555 N563 1.427 . S
C556 H547 0.930 . S
C556 C554 1.378 . S
C556 C557 1.367 . S
C557 C556 1.367 . S
C557 C559 1.433 . S
C558 C554 1.350 . S
C558 C555 1.463 . S
C558 N562 1.427 . S
C559 H549 0.929 . S
C559 C557 1.433 . S
C559 N562 1.384 . S
C560 H551 0.929 . S
C560 C552 1.378 . S
C560 C555 1.350 . S
C561 H548 0.929 . S
C561 C553 1.433 . S
C561 N563 1.384 . S
N562 C558 1.427 . S
N562 C559 1.384 . S
N563 C555 1.427 . S
N563 C561 1.384 . S
H564 C570 0.930 . S
H565 C574 0.930 . S
H566 C579 0.929 . S
H567 C577 0.929 . S
H568 C572 0.929 . S
H569 C578 0.929 . S
C570 H564 0.930 . S
C570 C571 1.367 . S
C570 C578 1.378 . S
C571 C570 1.367 . S
C571 C579 1.433 . S
C572 H568 0.929 . S
C572 C574 1.378 . S
C572 C576 1.350 . S
C573 C576 1.463 1_455 S
C573 C578 1.350 . S
C573 N581 1.427 . S
C574 H565 0.930 . S
C574 C572 1.378 . S
C574 C575 1.367 . S
C575 C574 1.367 . S
C575 C577 1.433 . S
C576 C572 1.350 . S
C576 C573 1.463 1_655 S
C576 N580 1.427 . S
C577 H567 0.929 . S
C577 C575 1.433 . S
C577 N580 1.384 . S
C578 H569 0.929 . S
C578 C570 1.378 . S
C578 C573 1.350 . S
C579 H566 0.929 . S
C579 C571 1.433 . S
C579 N581 1.384 . S
N580 C576 1.427 . S
N580 C577 1.384 . S
N581 C573 1.427 . S
N581 C579 1.384 . S
H582 C588 0.930 . S
H583 C592 0.930 . S
H584 C597 0.929 . S
H585 C595 0.929 . S
H586 C590 0.929 . S
H587 C596 0.929 . S
C588 H582 0.930 . S
C588 C589 1.367 . S
C588 C596 1.378 . S
C589 C588 1.367 . S
C589 C597 1.433 . S
C590 H586 0.929 . S
C590 C592 1.378 . S
C590 C594 1.350 . S
C591 C594 1.463 1_565 S
C591 C596 1.350 . S
C591 N599 1.427 . S
C592 H583 0.930 . S
C592 C590 1.378 . S
C592 C593 1.367 . S
C593 C592 1.367 . S
C593 C595 1.433 . S
C594 C590 1.350 . S
C594 C591 1.463 1_545 S
C594 N598 1.427 . S
C595 H585 0.929 . S
C595 C593 1.433 . S
C595 N598 1.384 . S
C596 H587 0.929 . S
C596 C588 1.378 . S
C596 C591 1.350 . S
C597 H584 0.929 . S
C597 C589 1.433 . S
C597 N599 1.384 . S
N598 C594 1.427 . S
N598 C595 1.384 . S
N599 C591 1.427 . S
N599 C597 1.384 . S
C175 C105 1.186 . S
C179 C7 1.185 . S
C193 C21 1.184 . S
C197 C119 1.182 . S
C211 C35 1.187 . S
C215 C133 1.188 . S
C229 C49 1.174 . S
C233 C147 1.175 . S
C247 C161 1.177 . S
C251 C63 1.179 . S
C265 C91 1.183 . S
C269 C77 1.181 . S
C283 C149 1.700 . S
C287 C9 1.708 . S
C301 C23 1.703 . S
C305 C163 1.702 . S
C319 C37 1.708 . S
C323 C93 1.700 . S
C337 C107 1.702 . S
C341 C51 1.707 . S
C355 C121 1.703 . S
C359 C65 1.708 . S
C373 C135 1.699 . S
C377 C79 1.707 . S
C391 C6 1.751 . S
C395 C118 1.748 . S
C409 C20 1.758 . S
C413 C132 1.746 . S
C427 C146 1.755 . S
C431 C34 1.753 . S
C445 C48 1.758 . S
C449 C160 1.748 . S
C463 C90 1.746 . S
C467 C62 1.757 . S
C481 C104 1.750 . S
C485 C76 1.749 . S
C499 C50 1.324 . S
C503 C8 1.315 . S
C517 C64 1.310 . S
C521 C22 1.320 . S
C535 C36 1.318 . S
C539 C78 1.324 . S
C553 C92 1.313 . S
C557 C134 1.323 . S
C571 C106 1.311 . S
C575 C148 1.322 . S
C589 C162 1.309 . S
C593 C120 1.318 . S
