# Generated by pormake.
# Topology unf, (4)-cn, num edge types: 1
# Building blocks:
#     Node 0, Type 0, BuildingBlock: KUFVIS_clean_sbu_0, # of connection points: 4
#     Node 1, Type 0, BuildingBlock: KUFVIS_clean_sbu_0, # of connection points: 4
#     Node 2, Type 0, BuildingBlock: KUFVIS_clean_sbu_0, # of connection points: 4
#     Node 3, Type 0, BuildingBlock: KUFVIS_clean_sbu_0, # of connection points: 4
#     Node 4, Type 0, BuildingBlock: KUFVIS_clean_sbu_0, # of connection points: 4
#     Node 5, Type 0, BuildingBlock: KUFVIS_clean_sbu_0, # of connection points: 4
#     Node 6, Type 0, BuildingBlock: KUFVIS_clean_sbu_0, # of connection points: 4
#     Node 7, Type 0, BuildingBlock: KUFVIS_clean_sbu_0, # of connection points: 4
#     Node 8, Type 0, BuildingBlock: KUFVIS_clean_sbu_0, # of connection points: 4
#     Node 9, Type 0, BuildingBlock: KUFVIS_clean_sbu_0, # of connection points: 4
#     Node 10, Type 0, BuildingBlock: KUFVIS_clean_sbu_0, # of connection points: 4
#     Node 11, Type 0, BuildingBlock: KUFVIS_clean_sbu_0, # of connection points: 4
#     Edge 12, Type (0, 0), BuildingBlock: CIFDUS_clean_linker_0, # of connection points: 2
#     Edge 13, Type (0, 0), BuildingBlock: CIFDUS_clean_linker_0, # of connection points: 2
#     Edge 14, Type (0, 0), BuildingBlock: CIFDUS_clean_linker_0, # of connection points: 2
#     Edge 15, Type (0, 0), BuildingBlock: CIFDUS_clean_linker_0, # of connection points: 2
#     Edge 16, Type (0, 0), BuildingBlock: CIFDUS_clean_linker_0, # of connection points: 2
#     Edge 17, Type (0, 0), BuildingBlock: CIFDUS_clean_linker_0, # of connection points: 2
#     Edge 18, Type (0, 0), BuildingBlock: CIFDUS_clean_linker_0, # of connection points: 2
#     Edge 19, Type (0, 0), BuildingBlock: CIFDUS_clean_linker_0, # of connection points: 2
#     Edge 20, Type (0, 0), BuildingBlock: CIFDUS_clean_linker_0, # of connection points: 2
#     Edge 21, Type (0, 0), BuildingBlock: CIFDUS_clean_linker_0, # of connection points: 2
#     Edge 22, Type (0, 0), BuildingBlock: CIFDUS_clean_linker_0, # of connection points: 2
#     Edge 23, Type (0, 0), BuildingBlock: CIFDUS_clean_linker_0, # of connection points: 2
#     Edge 24, Type (0, 0), BuildingBlock: CIFDUS_clean_linker_0, # of connection points: 2
#     Edge 25, Type (0, 0), BuildingBlock: CIFDUS_clean_linker_0, # of connection points: 2
#     Edge 26, Type (0, 0), BuildingBlock: CIFDUS_clean_linker_0, # of connection points: 2
#     Edge 27, Type (0, 0), BuildingBlock: CIFDUS_clean_linker_0, # of connection points: 2
#     Edge 28, Type (0, 0), BuildingBlock: CIFDUS_clean_linker_0, # of connection points: 2
#     Edge 29, Type (0, 0), BuildingBlock: CIFDUS_clean_linker_0, # of connection points: 2
#     Edge 30, Type (0, 0), BuildingBlock: CIFDUS_clean_linker_0, # of connection points: 2
#     Edge 31, Type (0, 0), BuildingBlock: CIFDUS_clean_linker_0, # of connection points: 2
#     Edge 32, Type (0, 0), BuildingBlock: CIFDUS_clean_linker_0, # of connection points: 2
#     Edge 33, Type (0, 0), BuildingBlock: CIFDUS_clean_linker_0, # of connection points: 2
#     Edge 34, Type (0, 0), BuildingBlock: CIFDUS_clean_linker_0, # of connection points: 2
#     Edge 35, Type (0, 0), BuildingBlock: CIFDUS_clean_linker_0, # of connection points: 2
# Relax obj value: 0.237
# Max RMSD: 0.188
# Mean RMSD: 0.182
data_MOF--net-unf--node1-KUFVIS_clean_sbu_0--edge1-CIFDUS_clean_linker_0
_symmetry_space_group_name_H-M    P1
_symmetry_Int_Tables_number       1
_symmetry_cell_setting            triclinic
loop_
_symmetry_equiv_pos_as_xyz
'x, y, z'
_cell_length_a     33.164933
_cell_length_b     33.829443
_cell_length_c     30.976687
_cell_angle_alpha  90.087723
_cell_angle_beta   89.849067
_cell_angle_gamma 119.15925
loop_
_atom_site_label
_atom_site_type_symbol
_atom_site_fract_x
_atom_site_fract_y
_atom_site_fract_z
_atom_type_partial_charge
Mn0 Mn 0.06949 0.38037 0.09079 0.0
Mn1 Mn 0.0375 0.28152 0.1427 0.0
C2 C 0.01172 0.31393 0.06298 0.0
C3 C 0.05764 0.4419 0.07821 0.0
C4 C 0.12065 0.32592 0.08361 0.0
O5 O 0.10275 0.40195 0.14887 0.0
O6 O 0.076 0.33372 0.18069 0.0
C7 C 0.97569 0.29118 0.20574 0.0
N8 N 0.98227 0.26701 0.174 0.0
C9 C 0.90235 0.20951 0.17643 0.0
C10 C 0.89478 0.23361 0.20941 0.0
C11 C 0.93161 0.27466 0.22407 0.0
C12 C 0.94701 0.22767 0.15942 0.0
H13 H 0.00382 0.32294 0.2168 0.0
C14 C 0.10043 0.3769 0.18071 0.0
O15 O 0.09584 0.44301 0.06628 0.0
O16 O 0.02951 0.40778 0.10149 0.0
N17 N 0.00031 0.2274 0.11061 0.0
C18 C 0.01384 0.20753 0.07973 0.0
C19 C 0.98122 0.16593 0.06189 0.0
C20 C 0.93529 0.14482 0.07653 0.0
C21 C 0.92262 0.16506 0.10953 0.0
C22 C 0.95674 0.20633 0.12633 0.0
H23 H 0.04914 0.22356 0.06845 0.0
O24 O 0.03212 0.34969 0.03924 0.0
O25 O 0.02375 0.31842 0.10346 0.0
O26 O 0.11652 0.36039 0.07308 0.0
O27 O 0.09353 0.2948 0.10959 0.0
C28 C 0.87744 0.14606 0.12626 0.0
C29 C 0.86727 0.16836 0.15957 0.0
H30 H 0.86081 0.22102 0.22357 0.0
H31 H 0.92599 0.29358 0.24935 0.0
H32 H 0.9914 0.1503 0.03677 0.0
H33 H 0.91011 0.11299 0.06238 0.0
H34 H 0.85022 0.11441 0.11361 0.0
H35 H 0.83235 0.15355 0.172 0.0
Mn36 Mn 0.62071 0.68645 0.07681 0.0
Mn37 Mn 0.72024 0.7654 0.12209 0.0
C38 C 0.69066 0.69975 0.04907 0.0
C39 C 0.56267 0.61183 0.06754 0.0
C40 C 0.66799 0.78848 0.05704 0.0
O41 O 0.59703 0.69865 0.13403 0.0
O42 O 0.66545 0.75497 0.15664 0.0
C43 C 0.7141 0.70851 0.19706 0.0
N44 N 0.73773 0.73346 0.16208 0.0
C45 C 0.79991 0.7174 0.17461 0.0
C46 C 0.77632 0.6917 0.21089 0.0
C47 C 0.73321 0.6872 0.22212 0.0
C48 C 0.77906 0.73771 0.1508 0.0
H49 H 0.68088 0.7048 0.20571 0.0
C50 C 0.62159 0.73076 0.16016 0.0
O51 O 0.55739 0.64542 0.05413 0.0
O52 O 0.59876 0.62187 0.09091 0.0
N53 N 0.77686 0.78043 0.093 0.0
C54 C 0.79666 0.80923 0.05912 0.0
C55 C 0.84034 0.81817 0.04423 0.0
C56 C 0.86373 0.79842 0.06506 0.0
C57 C 0.84365 0.7707 0.1012 0.0
C58 C 0.8001 0.76314 0.11461 0.0
H59 H 0.77892 0.82474 0.04322 0.0
O60 O 0.65354 0.68008 0.02619 0.0
O61 O 0.68598 0.70953 0.08889 0.0
O62 O 0.63329 0.74859 0.05414 0.0
O63 O 0.70365 0.79866 0.08023 0.0
C64 C 0.8652 0.75044 0.12455 0.0
C65 C 0.84327 0.72368 0.16116 0.0
H66 H 0.79095 0.67524 0.23031 0.0
H67 H 0.71474 0.66733 0.25001 0.0
H68 H 0.8559 0.84016 0.01673 0.0
H69 H 0.89728 0.80515 0.05331 0.0
H70 H 0.89868 0.75532 0.1147 0.0
H71 H 0.8602 0.70832 0.1789 0.0
Mn72 Mn 0.31529 0.94271 0.10193 0.0
Mn73 Mn 0.33202 0.85597 0.07493 0.0
C74 C 0.38959 0.9546 0.09496 0.0
C75 C 0.30554 0.00259 0.07887 0.0
C76 C 0.2936 0.86427 0.162 0.0
O77 O 0.25386 0.89611 0.077 0.0
O78 O 0.27218 0.84482 0.04939 0.0
C79 C 0.34364 0.867 0.98018 0.0
N80 N 0.3611 0.86584 0.01962 0.0
C81 C 0.43394 0.88179 0.98822 0.0
C82 C 0.41664 0.8829 0.94726 0.0
C83 C 0.37129 0.87547 0.94324 0.0
C84 C 0.40456 0.87255 0.02382 0.0
H85 H 0.30901 0.86187 0.977 0.0
C86 C 0.2444 0.86079 0.05485 0.0
O87 O 0.29039 0.98445 0.11657 0.0
O88 O 0.32464 0.98513 0.05469 0.0
N89 N 0.38963 0.8652 0.09768 0.0
C90 C 0.40207 0.86601 0.13969 0.0
C91 C 0.44698 0.87468 0.14943 0.0
C92 C 0.47868 0.88265 0.11593 0.0
C93 C 0.46513 0.88178 0.07295 0.0
C94 C 0.41975 0.87244 0.06518 0.0
H95 H 0.37802 0.86038 0.16558 0.0
O96 O 0.38144 0.98162 0.1187 0.0
O97 O 0.35336 0.92061 0.07844 0.0
O98 O 0.3013 0.90476 0.15671 0.0
O99 O 0.30207 0.84236 0.13294 0.0
C100 C 0.49518 0.89076 0.03758 0.0
C101 C 0.47959 0.89073 0.99524 0.0
H102 H 0.43808 0.89005 0.91875 0.0
H103 H 0.35782 0.87663 0.91177 0.0
H104 H 0.45725 0.87551 0.1827 0.0
H105 H 0.51343 0.88977 0.12361 0.0
H106 H 0.53052 0.89825 0.0426 0.0
H107 H 0.50319 0.89828 0.96837 0.0
Mn108 Mn 0.61592 0.93469 0.41564 0.0
Mn109 Mn 0.50827 0.84888 0.42555 0.0
C110 C 0.55483 0.94945 0.41472 0.0
C111 C 0.68256 0.99056 0.44762 0.0
C112 C 0.56941 0.86253 0.34704 0.0
O113 O 0.62389 0.88405 0.44241 0.0
O114 O 0.54983 0.83325 0.45915 0.0
C115 C 0.48991 0.85256 0.51865 0.0
N116 N 0.47963 0.85558 0.47666 0.0
C117 C 0.42046 0.87349 0.49773 0.0
C118 C 0.43027 0.87033 0.54118 0.0
C119 C 0.46513 0.8598 0.55167 0.0
C120 C 0.44592 0.86537 0.4662 0.0
H121 H 0.51714 0.84518 0.52687 0.0
C122 C 0.59358 0.84787 0.46092 0.0
O123 O 0.68392 0.97446 0.40986 0.0
O124 O 0.643 0.97327 0.46713 0.0
N125 N 0.46668 0.86281 0.39484 0.0
C126 C 0.46329 0.86718 0.35147 0.0
C127 C 0.43084 0.87885 0.33563 0.0
C128 C 0.40239 0.88614 0.36451 0.0
C129 C 0.40656 0.88156 0.40901 0.0
C130 C 0.43914 0.86932 0.42289 0.0
H131 H 0.4853 0.86202 0.32912 0.0
O132 O 0.59358 0.97725 0.39611 0.0
O133 O 0.55311 0.91302 0.43005 0.0
O134 O 0.60065 0.90207 0.35774 0.0
O135 O 0.53436 0.8385 0.37099 0.0
C136 C 0.38028 0.88949 0.44017 0.0
C137 C 0.38724 0.88548 0.4845 0.0
H138 H 0.41166 0.87648 0.56675 0.0
H139 H 0.47318 0.85768 0.58513 0.0
H140 H 0.42793 0.88247 0.30124 0.0
H141 H 0.37769 0.89553 0.35218 0.0
H142 H 0.35494 0.89915 0.43041 0.0
H143 H 0.36721 0.8922 0.50816 0.0
Mn144 Mn 0.06289 0.67994 0.42107 0.0
Mn145 Mn 0.0354 0.74781 0.36274 0.0
C146 C 0.0008 0.68859 0.44043 0.0
C147 C 0.05126 0.60742 0.4363 0.0
C148 C 0.10943 0.78353 0.43096 0.0
O149 O 0.10226 0.69065 0.36681 0.0
O150 O 0.08311 0.73823 0.33317 0.0
C151 C 0.98954 0.68242 0.2918 0.0
N152 N 0.98796 0.70964 0.32342 0.0
C153 C 0.90918 0.68811 0.3062 0.0
C154 C 0.91004 0.66005 0.27326 0.0
C155 C 0.95037 0.65712 0.26611 0.0
C156 C 0.94923 0.71244 0.33079 0.0
H157 H 0.02045 0.68004 0.28627 0.0
C158 C 0.10657 0.7175 0.33599 0.0
O159 O 0.08742 0.64323 0.45085 0.0
O160 O 0.02538 0.6142 0.40957 0.0
N161 N 0.99032 0.7613 0.38682 0.0
C162 C 0.99591 0.79146 0.4186 0.0
C163 C 0.95879 0.79843 0.42982 0.0
C164 C 0.91676 0.77524 0.40752 0.0
C165 C 0.91248 0.74581 0.37373 0.0
C166 C 0.95068 0.74023 0.36401 0.0
H167 H 0.02825 0.80956 0.43566 0.0
O168 O 0.01958 0.67377 0.4678 0.0
O169 O 0.01751 0.69634 0.40133 0.0
O170 O 0.10725 0.74564 0.44063 0.0
O171 O 0.08311 0.78776 0.40341 0.0
C172 C 0.87182 0.72171 0.34936 0.0
C173 C 0.87014 0.69281 0.31568 0.0
H174 H 0.87992 0.64053 0.25334 0.0
H175 H 0.95125 0.63542 0.24084 0.0
H176 H 0.96253 0.82156 0.45565 0.0
H177 H 0.88813 0.78052 0.41642 0.0
H178 H 0.84163 0.72514 0.35627 0.0
H179 H 0.83865 0.67439 0.29724 0.0
Mn180 Mn 0.31729 0.37461 0.4293 0.0
Mn181 Mn 0.24483 0.27751 0.37771 0.0
C182 C 0.31326 0.30746 0.44961 0.0
C183 C 0.38821 0.43823 0.44218 0.0
C184 C 0.21362 0.3167 0.44877 0.0
O185 O 0.3012 0.39877 0.3752 0.0
O186 O 0.24929 0.33134 0.34748 0.0
C187 C 0.30475 0.29547 0.30099 0.0
N188 N 0.28093 0.26828 0.33476 0.0
C189 C 0.3049 0.21392 0.31539 0.0
C190 C 0.32951 0.24125 0.28029 0.0
C191 C 0.32949 0.28223 0.27312 0.0
C192 C 0.28103 0.22895 0.34215 0.0
H193 H 0.30496 0.32706 0.29542 0.0
C194 C 0.27053 0.37465 0.34748 0.0
O195 O 0.34998 0.43558 0.45597 0.0
O196 O 0.38478 0.4062 0.41672 0.0
N197 N 0.23598 0.22201 0.40237 0.0
C198 C 0.2085 0.19846 0.43628 0.0
C199 C 0.2042 0.15635 0.44747 0.0
C200 C 0.22728 0.13841 0.42308 0.0
C201 C 0.25378 0.1624 0.38723 0.0
C202 C 0.25664 0.20412 0.37756 0.0
H203 H 0.19047 0.21198 0.45499 0.0
O204 O 0.32863 0.34141 0.47594 0.0
O205 O 0.30156 0.31373 0.41109 0.0
O206 O 0.25227 0.35286 0.45279 0.0
O207 O 0.20651 0.28486 0.42238 0.0
C208 C 0.27751 0.14658 0.36073 0.0
C209 C 0.30319 0.1724 0.32493 0.0
H210 H 0.3486 0.23114 0.25869 0.0
H211 H 0.3485 0.30357 0.24616 0.0
H212 H 0.18328 0.13783 0.4749 0.0
H213 H 0.22416 0.10609 0.43199 0.0
H214 H 0.27624 0.1146 0.3676 0.0
H215 H 0.32135 0.15992 0.30483 0.0
Mn216 Mn 0.94661 0.62739 0.91975 0.0
Mn217 Mn 0.96991 0.72667 0.87369 0.0
C218 C 0.0109 0.6936 0.93951 0.0
C219 C 0.95758 0.56499 0.92859 0.0
C220 C 0.90088 0.68406 0.94566 0.0
O221 O 0.90442 0.60552 0.86649 0.0
O222 O 0.92022 0.67458 0.84215 0.0
C223 C 0.00993 0.7139 0.79274 0.0
N224 N 0.01427 0.73849 0.829 0.0
C225 C 0.0925 0.79304 0.8105 0.0
C226 C 0.08879 0.7684 0.77287 0.0
C227 C 0.04732 0.72866 0.76398 0.0
C228 C 0.05405 0.77674 0.83789 0.0
H229 H 0.9782 0.68323 0.78586 0.0
C230 C 0.8978 0.63126 0.84054 0.0
O231 O 0.92199 0.56584 0.94523 0.0
O232 O 0.98267 0.59722 0.90187 0.0
N233 N 0.01722 0.77998 0.90075 0.0
C234 C 0.01479 0.80034 0.93792 0.0
C235 C 0.05351 0.84048 0.95155 0.0
C236 C 0.09401 0.8596 0.92651 0.0
C237 C 0.09519 0.83876 0.88771 0.0
C238 C 0.05546 0.79893 0.87569 0.0
H239 H 0.98376 0.7857 0.95731 0.0
O240 O 0.99309 0.65927 0.96533 0.0
O241 O 0.9909 0.68845 0.90224 0.0
O242 O 0.90394 0.64793 0.94775 0.0
O243 O 0.925 0.71686 0.92004 0.0
C244 C 0.13427 0.85582 0.8606 0.0
C245 C 0.13294 0.83296 0.82203 0.0
H246 H 0.11761 0.77958 0.7507 0.0
H247 H 0.04423 0.70939 0.73506 0.0
H248 H 0.05223 0.85651 0.98139 0.0
H249 H 0.12392 0.89036 0.9373 0.0
H250 H 0.16556 0.88645 0.86914 0.0
H251 H 0.16324 0.84636 0.80151 0.0
Mn252 Mn 0.38125 0.31517 0.91913 0.0
Mn253 Mn 0.27732 0.23352 0.88524 0.0
C254 C 0.31455 0.30912 0.9478 0.0
C255 C 0.44172 0.38916 0.92284 0.0
C256 C 0.33259 0.21649 0.95106 0.0
O257 O 0.39926 0.29628 0.86264 0.0
O258 O 0.32905 0.23619 0.85004 0.0
C259 C 0.27961 0.27725 0.80173 0.0
N260 N 0.25851 0.25966 0.8402 0.0
C261 C 0.1968 0.27534 0.82366 0.0
C262 C 0.21781 0.29347 0.78381 0.0
C263 C 0.25942 0.29447 0.77285 0.0
C264 C 0.21854 0.25869 0.85113 0.0
H265 H 0.31157 0.27812 0.79308 0.0
C266 C 0.37233 0.26016 0.842 0.0
O267 O 0.44619 0.35558 0.93771 0.0
O268 O 0.40495 0.37892 0.90043 0.0
N269 N 0.2239 0.22648 0.91568 0.0
C270 C 0.20711 0.20629 0.9546 0.0
C271 C 0.16564 0.20258 0.97034 0.0
C272 C 0.14134 0.2187 0.94549 0.0
C273 C 0.15843 0.23787 0.90486 0.0
C274 C 0.19996 0.24068 0.89088 0.0
H275 H 0.2256 0.19378 0.97379 0.0
O276 O 0.35262 0.32788 0.96943 0.0
O277 O 0.31594 0.29401 0.90941 0.0
O278 O 0.36878 0.25494 0.94634 0.0
O279 O 0.29427 0.20526 0.93225 0.0
C280 C 0.13599 0.25445 0.87775 0.0
C281 C 0.15518 0.27321 0.83719 0.0
H282 H 0.20231 0.30672 0.76141 0.0
H283 H 0.27588 0.30845 0.74218 0.0
H284 H 0.15253 0.18745 1.00159 0.0
H285 H 0.10951 0.21601 0.95786 0.0
H286 H 0.10396 0.25294 0.88779 0.0
H287 H 0.13761 0.28584 0.81662 0.0
Mn288 Mn 0.68182 0.07395 0.93347 0.0
Mn289 Mn 0.75851 0.04623 0.89043 0.0
C290 C 0.68809 0.01433 0.96101 0.0
C291 C 0.60855 0.06533 0.94112 0.0
C292 C 0.78487 0.11952 0.95682 0.0
O293 O 0.69891 0.10998 0.8771 0.0
O294 O 0.75319 0.09252 0.85522 0.0
C295 C 0.70147 0.00048 0.81377 0.0
N296 N 0.72467 0.99922 0.8495 0.0
C297 C 0.70287 0.92116 0.83653 0.0
C298 C 0.67893 0.9217 0.79949 0.0
C299 C 0.67819 0.96153 0.78811 0.0
C300 C 0.72526 0.96095 0.86094 0.0
H301 H 0.70063 0.03093 0.80497 0.0
C302 C 0.73093 0.11433 0.85134 0.0
O303 O 0.64464 0.10131 0.95529 0.0
O304 O 0.61569 0.03758 0.9176 0.0
N305 N 0.76853 0.00217 0.92005 0.0
C306 C 0.79626 0.00838 0.9547 0.0
C307 C 0.80171 0.97211 0.96973 0.0
C308 C 0.77961 0.93022 0.94831 0.0
C309 C 0.75311 0.92531 0.91145 0.0
C310 C 0.7491 0.96274 0.8979 0.0
H311 H 0.81362 0.04063 0.97107 0.0
O312 O 0.6699 0.03377 0.98353 0.0
O313 O 0.70071 0.02887 0.92161 0.0
O314 O 0.74548 0.11772 0.9582 0.0
O315 O 0.79384 0.09351 0.93345 0.0
C316 C 0.73069 0.88484 0.88751 0.0
C317 C 0.70543 0.88271 0.85017 0.0
H318 H 0.66101 0.89176 0.77956 0.0
H319 H 0.6597 0.9622 0.75963 0.0
H320 H 0.8228 0.97639 0.99781 0.0
H321 H 0.78361 0.90222 0.96018 0.0
H322 H 0.73276 0.8552 0.89747 0.0
H323 H 0.68837 0.85142 0.832 0.0
Mn324 Mn 0.36957 0.05524 0.58302 0.0
Mn325 Mn 0.26855 0.02118 0.63565 0.0
C326 C 0.30382 0.99166 0.56039 0.0
C327 C 0.43581 0.0501 0.56957 0.0
C328 C 0.30904 0.0996 0.57247 0.0
O329 O 0.39069 0.09196 0.63929 0.0
O330 O 0.32123 0.0627 0.67267 0.0
C331 C 0.2802 0.96642 0.7039 0.0
N332 N 0.25544 0.96963 0.67041 0.0
C333 C 0.1976 0.89136 0.67786 0.0
C334 C 0.22229 0.88732 0.71267 0.0
C335 C 0.26381 0.92501 0.72569 0.0
C336 C 0.21553 0.93355 0.65752 0.0
H337 H 0.31225 0.99524 0.71379 0.0
C338 C 0.36502 0.08913 0.67145 0.0
O339 O 0.43228 0.08469 0.55621 0.0
O340 O 0.40372 0.02194 0.59517 0.0
N341 N 0.21464 0.98097 0.60366 0.0
C342 C 0.19538 0.99034 0.56907 0.0
C343 C 0.15411 0.95598 0.55149 0.0
C344 C 0.13276 0.91257 0.56998 0.0
C345 C 0.15266 0.90403 0.60618 0.0
C346 C 0.19371 0.93966 0.62241 0.0
H347 H 0.21165 0.02364 0.55471 0.0
O348 O 0.3384 0.01302 0.53451 0.0
O349 O 0.30863 0.00764 0.59941 0.0
O350 O 0.34463 0.09647 0.56209 0.0
O351 O 0.2789 0.07362 0.59988 0.0
C352 C 0.13374 0.8614 0.62641 0.0
C353 C 0.15621 0.85506 0.6622 0.0
H354 H 0.20987 0.85538 0.72943 0.0
H355 H 0.28317 0.92209 0.75239 0.0
H356 H 0.13892 0.96287 0.52362 0.0
H357 H 0.10118 0.88604 0.55607 0.0
H358 H 0.10213 0.83316 0.61448 0.0
H359 H 0.14154 0.82203 0.67723 0.0
Mn360 Mn 0.93326 0.30802 0.58815 0.0
Mn361 Mn 0.95522 0.22814 0.6295 0.0
C362 C 0.98553 0.29161 0.55531 0.0
C363 C 0.95188 0.38363 0.57958 0.0
C364 C 0.87461 0.20568 0.57138 0.0
O365 O 0.90382 0.29895 0.64787 0.0
O366 O 0.91501 0.24105 0.66825 0.0
C367 C 0.01249 0.28528 0.70175 0.0
N368 N 0.0078 0.25961 0.66622 0.0
C369 C 0.08591 0.27341 0.67303 0.0
C370 C 0.09143 0.29972 0.70985 0.0
C371 C 0.05457 0.30572 0.72422 0.0
C372 C 0.04317 0.25388 0.65197 0.0
H373 H 0.98441 0.29021 0.71284 0.0
C374 C 0.89791 0.26739 0.67399 0.0
O375 O 0.9115 0.35085 0.56859 0.0
O376 O 0.97897 0.37243 0.59967 0.0
N377 N 0.99363 0.21152 0.59655 0.0
C378 C 0.98192 0.18307 0.56201 0.0
C379 C 0.01486 0.17323 0.54383 0.0
C380 C 0.05915 0.19183 0.56197 0.0
C381 C 0.06979 0.21942 0.59867 0.0
C382 C 0.03547 0.22794 0.61542 0.0
H383 H 0.94791 0.16851 0.54811 0.0
O384 O 0.96656 0.31108 0.53414 0.0
O385 O 0.97493 0.28352 0.59609 0.0
O386 O 0.87993 0.2458 0.57 0.0
O387 O 0.9021 0.19508 0.59067 0.0
C388 C 0.11309 0.23883 0.61925 0.0
C389 C 0.12118 0.26589 0.65636 0.0
H390 H 0.12381 0.3155 0.7273 0.0
H391 H 0.05859 0.32609 0.75253 0.0
H392 H 0.00616 0.15144 0.51583 0.0
H393 H 0.08457 0.18443 0.54769 0.0
H394 H 0.1404 0.23315 0.60681 0.0
H395 H 0.15461 0.28063 0.67192 0.0
Mn396 Mn 0.69595 0.63434 0.58075 0.0
Mn397 Mn 0.75603 0.73549 0.63034 0.0
C398 C 0.6962 0.69757 0.55299 0.0
C399 C 0.62721 0.56829 0.56761 0.0
C400 C 0.79994 0.69639 0.57075 0.0
O401 O 0.71064 0.61596 0.6392 0.0
O402 O 0.74919 0.68558 0.66904 0.0
C403 C 0.68496 0.72051 0.69602 0.0
N404 N 0.71277 0.74551 0.66293 0.0
C405 C 0.68136 0.79636 0.66504 0.0
C406 C 0.6528 0.77147 0.6995 0.0
C407 C 0.65457 0.73334 0.715 0.0
C408 C 0.7111 0.78207 0.64756 0.0
H409 H 0.68573 0.69084 0.70761 0.0
C410 C 0.73325 0.64262 0.67014 0.0
O411 O 0.66667 0.57141 0.55717 0.0
O412 O 0.62846 0.60097 0.59048 0.0
N413 N 0.76542 0.78696 0.59711 0.0
C414 C 0.79597 0.80786 0.5643 0.0
C415 C 0.79864 0.8467 0.5452 0.0
C416 C 0.77026 0.8639 0.56031 0.0
C417 C 0.7401 0.84259 0.59495 0.0
C418 C 0.73937 0.80433 0.61305 0.0
H419 H 0.81778 0.79472 0.55248 0.0
O420 O 0.68527 0.66253 0.52899 0.0
O421 O 0.70537 0.69429 0.59324 0.0
O422 O 0.76309 0.65942 0.56283 0.0
O423 O 0.80174 0.72735 0.5958 0.0
C424 C 0.71057 0.85767 0.61211 0.0
C425 C 0.68114 0.83451 0.64707 0.0
H426 H 0.62917 0.78115 0.71412 0.0
H427 H 0.63238 0.71375 0.74137 0.0
H428 H 0.82227 0.86316 0.5187 0.0
H429 H 0.77204 0.89356 0.54519 0.0
H430 H 0.7101 0.88694 0.59857 0.0
H431 H 0.65841 0.84628 0.65984 0.0
H432 H 0.15598 0.34996 1.00284 0.0
H433 H 0.16823 0.28878 0.12067 0.0
H434 H 0.2288 0.27714 0.08825 0.0
H435 H 0.27865 0.28492 0.02676 0.0
H436 H 0.26528 0.34328 0.9079 0.0
H437 H 0.20448 0.35544 0.94009 0.0
C438 C 0.17228 0.33446 0.02141 0.0
C439 C 0.15821 0.32066 0.06412 0.0
C440 C 0.20639 0.32704 1.00227 0.0
C441 C 0.17872 0.29973 0.08772 0.0
C442 C 0.21327 0.29306 0.06925 0.0
C443 C 0.26192 0.29986 0.00796 0.0
C444 C 0.27499 0.31206 0.96493 0.0
C445 C 0.22728 0.30652 0.02661 0.0
C446 C 0.25434 0.33239 0.94078 0.0
C447 C 0.22006 0.3397 0.95929 0.0
H448 H 0.7109 0.87663 0.07856 0.0
H449 H 0.623 0.783 0.98139 0.0
H450 H 0.62356 0.84556 0.94106 0.0
H451 H 0.64846 0.92723 0.93443 0.0
H452 H 0.73261 0.01886 0.03432 0.0
H453 H 0.73399 0.95662 0.07301 0.0
C454 C 0.69197 0.86989 0.04847 0.0
C455 C 0.6671 0.82545 0.03282 0.0
C456 C 0.69182 0.90563 0.02609 0.0
C457 C 0.64218 0.81704 0.99414 0.0
C458 C 0.64257 0.85273 0.97109 0.0
C459 C 0.66765 0.93331 0.96428 0.0
C460 C 0.69205 0.97734 0.98091 0.0
C461 C 0.66728 0.89717 0.9868 0.0
C462 C 0.71486 0.98511 0.02061 0.0
C463 C 0.71545 0.94965 0.04273 0.0
H464 H 0.22081 0.82178 0.97568 0.0
H465 H 0.16419 0.84438 0.09268 0.0
H466 H 0.08592 0.79716 0.06542 0.0
H467 H 0.03388 0.74398 0.01116 0.0
H468 H 0.08949 0.7242 0.89244 0.0
H469 H 0.16814 0.77633 0.91703 0.0
C470 C 0.19124 0.81653 0.99492 0.0
C471 C 0.1979 0.83572 0.03628 0.0
C472 C 0.14643 0.79009 0.9787 0.0
C473 C 0.15962 0.82964 0.06077 0.0
C474 C 0.11497 0.80262 0.04529 0.0
C475 C 0.06334 0.75205 0.99045 0.0
C476 C 0.05644 0.7313 0.94997 0.0
C477 C 0.10802 0.78198 0.00473 0.0
C478 C 0.0944 0.74093 0.92337 0.0
C479 C 0.1392 0.77027 0.93759 0.0
H480 H 0.63457 0.72156 0.58144 0.0
H481 H 0.73793 0.7503 0.48389 0.0
H482 H 0.71767 0.80289 0.44838 0.0
H483 H 0.66678 0.83627 0.44245 0.0
H484 H 0.55695 0.80012 0.53499 0.0
H485 H 0.58348 0.7551 0.57547 0.0
C486 C 0.6532 0.74028 0.55297 0.0
C487 C 0.68875 0.7338 0.53596 0.0
C488 C 0.63977 0.76857 0.53169 0.0
C489 C 0.71132 0.75612 0.49795 0.0
C490 C 0.69955 0.78583 0.4776 0.0
C491 C 0.64891 0.81876 0.47166 0.0
C492 C 0.61002 0.82138 0.48576 0.0
C493 C 0.6633 0.7917 0.49378 0.0
C494 C 0.58677 0.79823 0.52335 0.0
C495 C 0.60197 0.77261 0.54654 0.0
H496 H 0.15507 0.79373 0.5075 0.0
H497 H 0.14312 0.86856 0.39989 0.0
H498 H 0.20031 0.93921 0.43189 0.0
H499 H 0.25518 0.9802 0.48902 0.0
H500 H 0.2691 0.90809 0.59712 0.0
H501 H 0.20971 0.83595 0.56663 0.0
C502 C 0.16516 0.82551 0.4911 0.0
C503 C 0.14482 0.82573 0.45135 0.0
C504 C 0.19815 0.8665 0.50986 0.0
C505 C 0.15794 0.86727 0.43064 0.0
C506 C 0.19076 0.90782 0.44881 0.0
C507 C 0.24458 0.94861 0.50606 0.0
C508 C 0.2648 0.94909 0.54572 0.0
C509 C 0.21108 0.90782 0.48824 0.0
C510 C 0.25235 0.90824 0.56719 0.0
C511 C 0.2189 0.86714 0.54954 0.0
H512 H 0.07377 0.32618 0.58047 0.0
H513 H 0.97787 0.24772 0.48057 0.0
H514 H 0.04004 0.24562 0.43954 0.0
H515 H 0.12232 0.26989 0.43054 0.0
H516 H 0.21911 0.35286 0.52842 0.0
H517 H 0.15594 0.34878 0.57236 0.0
C518 C 0.06662 0.30788 0.55016 0.0
C519 C 0.02157 0.2858 0.53396 0.0
C520 C 0.10264 0.30793 0.5264 0.0
C521 C 0.01247 0.26393 0.49381 0.0
C522 C 0.04789 0.26287 0.47041 0.0
C523 C 0.12946 0.28669 0.46166 0.0
C524 C 0.17515 0.31185 0.47614 0.0
C525 C 0.0932 0.28522 0.48618 0.0
C526 C 0.18412 0.33375 0.5164 0.0
C527 C 0.14811 0.33143 0.54153 0.0
H528 H 0.74553 0.66601 0.07504 0.0
H529 H 0.72917 0.74697 0.97678 0.0
H530 H 0.79569 0.75237 0.93735 0.0
H531 H 0.85538 0.73031 0.92884 0.0
H532 H 0.86842 0.64433 0.02406 0.0
H533 H 0.80699 0.64526 0.06724 0.0
C534 C 0.7574 0.68557 0.04549 0.0
C535 C 0.73401 0.70747 0.02937 0.0
C536 C 0.79477 0.68735 0.02244 0.0
C537 C 0.74781 0.73093 0.99007 0.0
C538 C 0.78559 0.73386 0.96754 0.0
C539 C 0.84513 0.71222 0.95928 0.0
C540 C 0.86624 0.68724 0.97323 0.0
C541 C 0.80897 0.71176 0.98317 0.0
C542 C 0.85232 0.66351 0.01251 0.0
C543 C 0.81724 0.66399 0.03718 0.0
H544 H 0.26579 0.15187 1.00156 0.0
H545 H 0.40714 0.20464 0.96012 0.0
H546 H 0.41167 0.14404 0.99858 0.0
H547 H 0.37392 0.07337 0.03932 0.0
H548 H 0.23431 0.02163 0.08474 0.0
H549 H 0.23051 0.08498 0.04977 0.0
C550 C 0.2976 0.15015 1.00129 0.0
C551 C 0.33594 0.18225 0.97774 0.0
C552 C 0.30017 0.11558 0.02405 0.0
C553 C 0.37725 0.18028 0.97809 0.0
C554 C 0.37981 0.14561 0.99991 0.0
C555 C 0.34285 0.07635 0.04191 0.0
C556 C 0.30425 0.04305 0.06393 0.0
C557 C 0.34129 0.11274 0.0223 0.0
C558 C 0.26436 0.04719 0.06786 0.0
C559 C 0.26218 0.08313 0.04769 0.0
H560 H 0.92155 0.27102 0.08421 0.0
H561 H 0.02074 0.26895 0.99558 0.0
H562 H 0.95893 0.20638 0.95567 0.0
H563 H 0.87674 0.15514 0.94421 0.0
H564 H 0.77652 0.16022 0.0299 0.0
H565 H 0.83862 0.21839 0.07325 0.0
C566 C 0.92935 0.25595 0.05673 0.0
C567 C 0.97524 0.27278 0.04355 0.0
C568 C 0.89358 0.22103 0.03333 0.0
C569 C 0.98541 0.25513 0.00671 0.0
C570 C 0.95021 0.2197 0.98388 0.0
C571 C 0.86848 0.16876 0.97252 0.0
C572 C 0.82222 0.15366 0.9837 0.0
C573 C 0.90416 0.20272 0.99666 0.0
C574 C 0.81197 0.17177 0.02035 0.0
C575 C 0.84739 0.20492 0.04518 0.0
H576 H 0.34652 0.14509 0.49752 0.0
H577 H 0.25765 0.13616 0.60361 0.0
H578 H 0.2505 0.19917 0.57408 0.0
H579 H 0.27181 0.25878 0.51983 0.0
H580 H 0.3579 0.26679 0.41225 0.0
H581 H 0.36432 0.20235 0.44073 0.0
C582 C 0.32557 0.15693 0.51413 0.0
C583 C 0.30299 0.13619 0.55291 0.0
C584 C 0.32126 0.19301 0.49679 0.0
C585 C 0.2754 0.15147 0.57371 0.0
C586 C 0.27141 0.18763 0.55698 0.0
C587 C 0.29149 0.24589 0.50252 0.0
C588 C 0.31333 0.2662 0.46362 0.0
C589 C 0.2945 0.20886 0.51884 0.0
C590 C 0.33975 0.25044 0.44168 0.0
C591 C 0.34364 0.21396 0.45812 0.0
H592 H 0.87379 0.14182 0.51854 0.0
H593 H 0.7857 0.18828 0.57564 0.0
H594 H 0.71785 0.12449 0.5431 0.0
H595 H 0.68393 0.05494 0.49963 0.0
H596 H 0.7726 0.01172 0.43788 0.0
H597 H 0.84038 0.07492 0.47122 0.0
C598 C 0.83971 0.13783 0.52384 0.0
C599 C 0.83438 0.16914 0.54966 0.0
C600 C 0.80126 0.10176 0.50438 0.0
C601 C 0.79033 0.16444 0.5557 0.0
C602 C 0.75168 0.12797 0.53732 0.0
C603 C 0.71814 0.05935 0.49365 0.0
C604 C 0.72352 0.02864 0.46693 0.0
C605 C 0.75676 0.0963 0.51186 0.0
C606 C 0.76788 0.03503 0.45853 0.0
C607 C 0.80648 0.07104 0.47757 0.0
H608 H 0.99642 0.7357 0.50759 0.0
H609 H 0.9148 0.64493 0.40617 0.0
H610 H 0.84462 0.64069 0.43712 0.0
H611 H 0.80673 0.65923 0.49565 0.0
H612 H 0.88878 0.7507 0.59698 0.0
H613 H 0.95913 0.75893 0.5631 0.0
C614 C 0.96322 0.71571 0.49202 0.0
C615 C 0.96034 0.69164 0.45425 0.0
C616 C 0.92345 0.71337 0.51012 0.0
C617 C 0.91749 0.66477 0.4346 0.0
C618 C 0.87755 0.66205 0.4525 0.0
C619 C 0.84002 0.68098 0.51032 0.0
C620 C 0.84262 0.70372 0.54913 0.0
C621 C 0.88012 0.68566 0.49063 0.0
C622 C 0.88597 0.73263 0.56726 0.0
C623 C 0.92612 0.73726 0.54799 0.0
H624 H 0.19386 0.38157 0.35446 0.0
H625 H 0.30751 0.41095 0.26899 0.0
H626 H 0.26704 0.42481 0.20961 0.0
H627 H 0.19319 0.41401 0.17957 0.0
H628 H 0.07733 0.37722 0.26453 0.0
H629 H 0.12474 0.3821 0.32679 0.0
C630 C 0.2104 0.39279 0.3232 0.0
C631 C 0.25379 0.39603 0.31606 0.0
C632 C 0.18615 0.39902 0.28908 0.0
C633 C 0.27454 0.40923 0.27528 0.0
C634 C 0.25113 0.41665 0.2413 0.0
C635 C 0.17914 0.40927 0.212 0.0
C636 C 0.13212 0.39617 0.21769 0.0
C637 C 0.20611 0.40982 0.24739 0.0
C638 C 0.11364 0.38827 0.25959 0.0
C639 C 0.14062 0.39046 0.29509 0.0
H640 H 0.64512 0.81632 0.179 0.0
H641 H 0.54891 0.67935 0.21592 0.0
H642 H 0.52093 0.70793 0.2757 0.0
H643 H 0.52921 0.77294 0.32093 0.0
H644 H 0.62642 0.90906 0.28071 0.0
H645 H 0.64821 0.87967 0.21871 0.0
C646 C 0.61782 0.79258 0.20001 0.0
C647 C 0.59964 0.74578 0.19352 0.0
C648 C 0.60217 0.80923 0.23386 0.0
C649 C 0.56359 0.71552 0.22036 0.0
C650 C 0.54779 0.73194 0.25461 0.0
C651 C 0.55458 0.79614 0.2982 0.0
C652 C 0.57649 0.84332 0.30609 0.0
C653 C 0.56751 0.77887 0.26221 0.0
C654 C 0.60931 0.87272 0.27608 0.0
C655 C 0.62191 0.85595 0.24047 0.0
H656 H 0.23816 0.77319 0.17467 0.0
H657 H 0.29443 0.90218 0.23975 0.0
H658 H 0.24531 0.86583 0.30214 0.0
H659 H 0.17959 0.79975 0.33419 0.0
H660 H 0.11954 0.67103 0.26923 0.0
H661 H 0.17713 0.70452 0.21098 0.0
C662 C 0.24041 0.79315 0.2029 0.0
C663 C 0.26974 0.84052 0.20231 0.0
C664 C 0.21105 0.77207 0.23848 0.0
C665 C 0.27192 0.86585 0.23909 0.0
C666 C 0.24377 0.84509 0.27481 0.0
C667 C 0.17996 0.77885 0.30772 0.0
C668 C 0.14584 0.73309 0.30585 0.0
C669 C 0.21222 0.7986 0.27424 0.0
C670 C 0.146 0.7062 0.27143 0.0
C671 C 0.17863 0.72552 0.23805 0.0
H672 H 0.81995 0.63582 0.84575 0.0
H673 H 0.8925 0.58843 0.76389 0.0
H674 H 0.84029 0.57926 0.70384 0.0
H675 H 0.78306 0.59823 0.67182 0.0
H676 H 0.71612 0.6519 0.75383 0.0
H677 H 0.75595 0.64427 0.81675 0.0
C678 C 0.82308 0.6218 0.81518 0.0
C679 C 0.8594 0.61212 0.80926 0.0
C680 C 0.7941 0.61833 0.78067 0.0
C681 C 0.86411 0.59512 0.76934 0.0
C682 C 0.8346 0.59048 0.73492 0.0
C683 C 0.77592 0.60647 0.70379 0.0
C684 C 0.7463 0.62516 0.70833 0.0
C685 C 0.80064 0.60375 0.73972 0.0
C686 C 0.73836 0.63706 0.74965 0.0
C687 C 0.76145 0.63304 0.78558 0.0
H688 H 0.37331 0.18179 0.84635 0.0
H689 H 0.40932 0.29584 0.76292 0.0
H690 H 0.41959 0.25458 0.70223 0.0
H691 H 0.4045 0.18084 0.67087 0.0
H692 H 0.36402 0.0663 0.75504 0.0
H693 H 0.37049 0.11294 0.81767 0.0
C694 C 0.3849 0.19806 0.81515 0.0
C695 C 0.39082 0.24172 0.80894 0.0
C696 C 0.38965 0.17376 0.78052 0.0
C697 C 0.40523 0.26247 0.76844 0.0
C698 C 0.41062 0.23865 0.73372 0.0
C699 C 0.39915 0.16679 0.70317 0.0
C700 C 0.38435 0.12033 0.7085 0.0
C701 C 0.40118 0.19359 0.739 0.0
C702 C 0.37601 0.10205 0.7503 0.0
C703 C 0.37923 0.12861 0.78605 0.0
H704 H 0.80765 0.19496 0.85293 0.0
H705 H 0.69295 0.10814 0.77201 0.0
H706 H 0.73274 0.15496 0.70891 0.0
H707 H 0.80598 0.21222 0.67552 0.0
H708 H 0.92217 0.29564 0.75648 0.0
H709 H 0.87609 0.25949 0.82102 0.0
C710 C 0.79075 0.1875 0.8217 0.0
C711 C 0.74728 0.14875 0.81696 0.0
C712 C 0.81448 0.21379 0.7856 0.0
C713 C 0.72599 0.1384 0.77636 0.0
C714 C 0.74901 0.16488 0.74029 0.0
C715 C 0.82039 0.22368 0.70745 0.0
C716 C 0.86704 0.25699 0.71152 0.0
C717 C 0.79403 0.20157 0.74427 0.0
C718 C 0.88609 0.27068 0.75279 0.0
C719 C 0.85987 0.24965 0.7896 0.0
H720 H 0.07734 0.47981 0.9981 0.0
H721 H 0.9969 0.46532 0.11247 0.0
H722 H 0.95527 0.49773 0.07465 0.0
H723 H 0.94 0.52807 0.00862 0.0
H724 H 0.02052 0.54366 0.89403 0.0
H725 H 0.06272 0.51157 0.93183 0.0
C726 C 0.05156 0.4849 0.01502 0.0
C727 C 0.04079 0.47091 0.05831 0.0
C728 C 0.02665 0.50229 0.99257 0.0
C729 C 0.0063 0.47646 0.0794 0.0
C730 C 0.98206 0.49443 0.0576 0.0
C731 C 0.96607 0.52354 0.99156 0.0
C732 C 0.97643 0.53744 0.94824 0.0
C733 C 0.99129 0.50663 0.01397 0.0
C734 C 0.0113 0.53251 0.92712 0.0
C735 C 0.03586 0.51471 0.94891 0.0
H736 H 0.5174 0.58867 0.99074 0.0
H737 H 0.55238 0.53277 0.10023 0.0
H738 H 0.52284 0.46021 0.06287 0.0
H739 H 0.48822 0.41296 0.99871 0.0
H740 H 0.45252 0.46833 0.88931 0.0
H741 H 0.48267 0.54122 0.92635 0.0
C742 C 0.51759 0.56029 0.00681 0.0
C743 C 0.53639 0.56593 0.04856 0.0
C744 C 0.50181 0.51902 0.98457 0.0
C745 C 0.53751 0.52915 0.06839 0.0
C746 C 0.52114 0.48781 0.04683 0.0
C747 C 0.48805 0.44128 0.98251 0.0
C748 C 0.46888 0.4354 0.94092 0.0
C749 C 0.50391 0.48257 0.00465 0.0
C750 C 0.46776 0.47215 0.92099 0.0
C751 C 0.48443 0.51366 0.94241 0.0
H752 H 0.40408 0.96218 0.0093 0.0
H753 H 0.47511 0.99424 0.13128 0.0
H754 H 0.54948 0.0364 0.09376 0.0
H755 H 0.59372 0.06364 0.02616 0.0
H756 H 0.52312 0.02557 0.90397 0.0
H757 H 0.44848 0.98644 0.94155 0.0
C758 C 0.43599 0.97728 0.02753 0.0
C759 C 0.43454 0.97389 0.07283 0.0
C760 C 0.47823 0.00124 0.00572 0.0
C761 C 0.47576 0.99554 0.09633 0.0
C762 C 0.51805 0.01987 0.0749 0.0
C763 C 0.56184 0.04768 0.00784 0.0
C764 C 0.56348 0.04874 0.96244 0.0
C765 C 0.5196 0.02325 0.02964 0.0
C766 C 0.52233 0.02621 0.93892 0.0
C767 C 0.47988 0.00345 0.9604 0.0
H768 H 0.54078 0.95068 0.4998 0.0
H769 H 0.51501 0.99568 0.37819 0.0
H770 H 0.48059 0.03591 0.4163 0.0
H771 H 0.45698 0.05704 0.4846 0.0
H772 H 0.47899 0.00752 0.60547 0.0
H773 H 0.51655 0.97067 0.56741 0.0
C774 C 0.52659 0.96841 0.4816 0.0
C775 C 0.52886 0.96905 0.43623 0.0
C776 C 0.50735 0.99147 0.50374 0.0
C777 C 0.51249 0.9939 0.41308 0.0
C778 C 0.49322 0.01711 0.4349 0.0
C779 C 0.47116 0.03919 0.50262 0.0
C780 C 0.4665 0.03603 0.54791 0.0
C781 C 0.49074 0.01634 0.48028 0.0
C782 C 0.48324 0.01127 0.57076 0.0
C783 C 0.50418 0.98981 0.54896 0.0
H784 H 0.93284 0.40668 0.50181 0.0
H785 H 0.01691 0.46314 0.61501 0.0
H786 H 0.05859 0.53702 0.57938 0.0
H787 H 0.07166 0.58547 0.51523 0.0
H788 H 0.9891 0.5271 0.40131 0.0
H789 H 0.94746 0.45398 0.43739 0.0
C790 C 0.95956 0.43545 0.51901 0.0
C791 C 0.97098 0.42978 0.56138 0.0
C792 C 0.98465 0.47722 0.49765 0.0
C793 C 0.00687 0.46694 0.58268 0.0
C794 C 0.03108 0.50902 0.56212 0.0
C795 C 0.04531 0.55648 0.49801 0.0
C796 C 0.03385 0.56175 0.45543 0.0
C797 C 0.02071 0.51446 0.51934 0.0
C798 C 0.99891 0.52397 0.43393 0.0
C799 C 0.97467 0.48219 0.45471 0.0
H800 H 0.4662 0.43084 0.44716 0.0
H801 H 0.40871 0.5159 0.48518 0.0
H802 H 0.47597 0.5609 0.53045 0.0
H803 H 0.54951 0.57473 0.56078 0.0
H804 H 0.60884 0.49138 0.52245 0.0
H805 H 0.54157 0.446 0.47671 0.0
C806 C 0.46886 0.45981 0.46465 0.0
C807 C 0.43265 0.47029 0.46247 0.0
C808 C 0.50721 0.48492 0.4915 0.0
C809 C 0.43623 0.50738 0.48601 0.0
C810 C 0.47446 0.53282 0.51225 0.0
C811 C 0.54753 0.54617 0.54303 0.0
C812 C 0.5839 0.53602 0.54559 0.0
C813 C 0.50968 0.52139 0.51582 0.0
C814 C 0.58104 0.4995 0.52155 0.0
C815 C 0.54283 0.4739 0.49503 0.0
loop_
_geom_bond_atom_site_label_1
_geom_bond_atom_site_label_2
_geom_bond_distance
_geom_bond_site_symmetry_2
_ccdc_geom_bond_type
Mn0 O5 2.095 . S
Mn0 O15 2.162 . S
Mn0 O16 2.297 . S
Mn0 O24 2.385 . S
Mn0 O25 2.209 . S
Mn0 O26 2.094 . S
Mn1 O6 2.121 . S
Mn1 N8 2.257 . S
Mn1 N17 2.282 . S
Mn1 O25 2.215 . S
Mn1 O27 2.117 . S
C2 O24 1.234 . S
C2 O25 1.283 . S
C3 O15 1.281 . S
C3 O16 1.236 . S
C4 O26 1.240 . S
C4 O27 1.264 . S
O5 Mn0 2.095 . S
O5 C14 1.250 . S
O6 Mn1 2.121 . S
O6 C14 1.258 . S
C7 N8 1.326 1_655 S
C7 C11 1.460 . S
C7 H13 0.929 1_655 S
N8 Mn1 2.257 . S
N8 C7 1.326 1_455 S
N8 C12 1.362 1_455 S
C9 C10 1.258 . S
C9 C12 1.431 . S
C9 C29 1.449 . S
C10 C9 1.258 . S
C10 C11 1.477 . S
C10 H30 0.931 . S
C11 C7 1.460 . S
C11 C10 1.477 . S
C11 H31 0.930 . S
C12 N8 1.362 1_655 S
C12 C9 1.431 . S
C12 C22 1.476 . S
H13 C7 0.929 1_455 S
C14 O5 1.250 . S
C14 O6 1.258 . S
O15 Mn0 2.162 . S
O15 C3 1.281 . S
O16 Mn0 2.297 . S
O16 C3 1.236 . S
N17 Mn1 2.282 . S
N17 C18 1.328 . S
N17 C22 1.318 1_455 S
C18 N17 1.328 . S
C18 C19 1.457 1_554 S
C18 H23 0.925 1_554 S
C19 C18 1.457 1_556 S
C19 C20 1.291 1_456 S
C19 H32 0.931 . S
C20 C19 1.291 1_654 S
C20 C21 1.373 . S
C20 H33 0.929 1_554 S
C21 C20 1.373 . S
C21 C22 1.396 . S
C21 C28 1.403 . S
C22 C12 1.476 . S
C22 N17 1.318 1_655 S
C22 C21 1.396 . S
H23 C18 0.925 1_556 S
O24 Mn0 2.385 . S
O24 C2 1.234 . S
O25 Mn0 2.209 . S
O25 Mn1 2.215 . S
O25 C2 1.283 . S
O26 Mn0 2.094 . S
O26 C4 1.240 . S
O27 Mn1 2.117 . S
O27 C4 1.264 . S
C28 C21 1.403 . S
C28 C29 1.399 . S
C28 H34 0.929 . S
C29 C9 1.449 . S
C29 C28 1.399 . S
C29 H35 0.930 . S
H30 C10 0.931 . S
H31 C11 0.930 . S
H32 C19 0.931 . S
H33 C20 0.929 1_556 S
H34 C28 0.929 . S
H35 C29 0.930 . S
Mn36 O41 2.095 . S
Mn36 O51 2.162 . S
Mn36 O52 2.297 . S
Mn36 O60 2.376 1_554 S
Mn36 O61 2.209 . S
Mn36 O62 2.094 . S
Mn37 O42 2.121 . S
Mn37 N44 2.257 . S
Mn37 N53 2.282 . S
Mn37 O61 2.215 . S
Mn37 O63 2.117 . S
C38 O60 1.223 1_554 S
C38 O61 1.283 . S
C39 O51 1.281 . S
C39 O52 1.236 . S
C40 O62 1.240 . S
C40 O63 1.264 . S
O41 Mn36 2.095 . S
O41 C50 1.250 . S
O42 Mn37 2.121 . S
O42 C50 1.258 . S
C43 N44 1.326 . S
C43 C47 1.460 . S
C43 H49 0.929 . S
N44 Mn37 2.257 . S
N44 C43 1.326 . S
N44 C48 1.362 . S
C45 C46 1.258 . S
C45 C48 1.431 . S
C45 C65 1.449 . S
C46 C45 1.258 . S
C46 C47 1.477 . S
C46 H66 0.931 . S
C47 C43 1.460 . S
C47 C46 1.477 . S
C47 H67 0.930 . S
C48 N44 1.362 . S
C48 C45 1.431 . S
C48 C58 1.476 . S
H49 C43 0.929 . S
C50 O41 1.250 . S
C50 O42 1.258 . S
O51 Mn36 2.162 . S
O51 C39 1.281 . S
O52 Mn36 2.297 . S
O52 C39 1.236 . S
N53 Mn37 2.282 . S
N53 C54 1.328 . S
N53 C58 1.318 . S
C54 N53 1.328 . S
C54 C55 1.457 1_554 S
C54 H59 0.929 1_554 S
C55 C54 1.457 1_556 S
C55 C56 1.291 . S
C55 H68 0.931 . S
C56 C55 1.291 . S
C56 C57 1.373 1_556 S
C56 H69 0.929 . S
C57 C56 1.373 1_554 S
C57 C58 1.396 . S
C57 C64 1.403 . S
C58 C48 1.476 . S
C58 N53 1.318 . S
C58 C57 1.396 . S
H59 C54 0.929 1_556 S
O60 Mn36 2.376 1_556 S
O60 C38 1.223 1_556 S
O61 Mn36 2.209 . S
O61 Mn37 2.215 . S
O61 C38 1.283 . S
O62 Mn36 2.094 . S
O62 C40 1.240 . S
O63 Mn37 2.117 . S
O63 C40 1.264 . S
C64 C57 1.403 . S
C64 C65 1.399 . S
C64 H70 0.929 . S
C65 C45 1.449 . S
C65 C64 1.399 . S
C65 H71 0.930 . S
H66 C46 0.931 . S
H67 C47 0.930 . S
H68 C55 0.931 . S
H69 C56 0.929 . S
H70 C64 0.929 . S
H71 C65 0.930 . S
Mn72 O77 2.095 . S
Mn72 O87 2.162 . S
Mn72 O88 2.297 . S
Mn72 O96 2.385 . S
Mn72 O97 2.209 . S
Mn72 O98 2.094 . S
Mn73 O78 2.121 . S
Mn73 N80 2.257 . S
Mn73 N89 2.282 . S
Mn73 O97 2.215 . S
Mn73 O99 2.117 . S
C74 O96 1.234 . S
C74 O97 1.283 . S
C75 O87 1.280 1_545 S
C75 O88 1.227 1_545 S
C76 O98 1.240 . S
C76 O99 1.264 . S
O77 Mn72 2.095 . S
O77 C86 1.250 . S
O78 Mn73 2.121 . S
O78 C86 1.258 . S
C79 N80 1.326 1_556 S
C79 C83 1.460 . S
C79 H85 0.929 . S
N80 Mn73 2.257 . S
N80 C79 1.326 1_554 S
N80 C84 1.362 . S
C81 C82 1.258 1_554 S
C81 C84 1.431 . S
C81 C101 1.449 . S
C82 C81 1.258 1_556 S
C82 C83 1.477 . S
C82 H102 0.931 . S
C83 C79 1.460 . S
C83 C82 1.477 . S
C83 H103 0.930 . S
C84 N80 1.362 . S
C84 C81 1.431 . S
C84 C94 1.476 . S
H85 C79 0.929 . S
C86 O77 1.250 . S
C86 O78 1.258 . S
O87 Mn72 2.162 . S
O87 C75 1.280 1_565 S
O88 Mn72 2.297 . S
O88 C75 1.227 1_565 S
N89 Mn73 2.282 . S
N89 C90 1.328 . S
N89 C94 1.318 . S
C90 N89 1.328 . S
C90 C91 1.457 . S
C90 H95 0.929 . S
C91 C90 1.457 . S
C91 C92 1.291 . S
C91 H104 0.931 . S
C92 C91 1.291 . S
C92 C93 1.373 . S
C92 H105 0.929 . S
C93 C92 1.373 . S
C93 C94 1.396 . S
C93 C100 1.403 . S
C94 C84 1.476 . S
C94 N89 1.318 . S
C94 C93 1.396 . S
H95 C90 0.929 . S
O96 Mn72 2.385 . S
O96 C74 1.234 . S
O97 Mn72 2.209 . S
O97 Mn73 2.215 . S
O97 C74 1.283 . S
O98 Mn72 2.094 . S
O98 C76 1.240 . S
O99 Mn73 2.117 . S
O99 C76 1.264 . S
C100 C93 1.403 . S
C100 C101 1.399 . S
C100 H106 0.929 . S
C101 C81 1.449 . S
C101 C100 1.399 . S
C101 H107 0.930 . S
H102 C82 0.931 . S
H103 C83 0.930 . S
H104 C91 0.931 . S
H105 C92 0.929 . S
H106 C100 0.929 . S
H107 C101 0.930 . S
Mn108 O113 2.095 . S
Mn108 O123 2.162 . S
Mn108 O124 2.297 . S
Mn108 O132 2.385 . S
Mn108 O133 2.209 . S
Mn108 O134 2.094 . S
Mn109 O114 2.121 . S
Mn109 N116 2.257 . S
Mn109 N125 2.282 . S
Mn109 O133 2.215 . S
Mn109 O135 2.117 . S
C110 O132 1.234 . S
C110 O133 1.283 . S
C111 O123 1.278 1_545 S
C111 O124 1.232 1_545 S
C112 O134 1.240 . S
C112 O135 1.264 . S
O113 Mn108 2.095 . S
O113 C122 1.250 . S
O114 Mn109 2.121 . S
O114 C122 1.258 . S
C115 N116 1.326 . S
C115 C119 1.460 . S
C115 H121 0.929 . S
N116 Mn109 2.257 . S
N116 C115 1.326 . S
N116 C120 1.362 . S
C117 C118 1.258 . S
C117 C120 1.431 . S
C117 C137 1.449 . S
C118 C117 1.258 . S
C118 C119 1.477 . S
C118 H138 0.931 . S
C119 C115 1.460 . S
C119 C118 1.477 . S
C119 H139 0.930 . S
C120 N116 1.362 . S
C120 C117 1.431 . S
C120 C130 1.476 . S
H121 C115 0.929 . S
C122 O113 1.250 . S
C122 O114 1.258 . S
O123 Mn108 2.162 . S
O123 C111 1.278 1_565 S
O124 Mn108 2.297 . S
O124 C111 1.232 1_565 S
N125 Mn109 2.282 . S
N125 C126 1.328 . S
N125 C130 1.318 . S
C126 N125 1.328 . S
C126 C127 1.457 . S
C126 H131 0.929 . S
C127 C126 1.457 . S
C127 C128 1.291 . S
C127 H140 0.931 . S
C128 C127 1.291 . S
C128 C129 1.373 . S
C128 H141 0.929 . S
C129 C128 1.373 . S
C129 C130 1.396 . S
C129 C136 1.403 . S
C130 C120 1.476 . S
C130 N125 1.318 . S
C130 C129 1.396 . S
H131 C126 0.929 . S
O132 Mn108 2.385 . S
O132 C110 1.234 . S
O133 Mn108 2.209 . S
O133 Mn109 2.215 . S
O133 C110 1.283 . S
O134 Mn108 2.094 . S
O134 C112 1.240 . S
O135 Mn109 2.117 . S
O135 C112 1.264 . S
C136 C129 1.403 . S
C136 C137 1.399 . S
C136 H142 0.929 . S
C137 C117 1.449 . S
C137 C136 1.399 . S
C137 H143 0.930 . S
H138 C118 0.931 . S
H139 C119 0.930 . S
H140 C127 0.931 . S
H141 C128 0.929 . S
H142 C136 0.929 . S
H143 C137 0.930 . S
Mn144 O149 2.095 . S
Mn144 O159 2.162 . S
Mn144 O160 2.297 . S
Mn144 O168 2.385 . S
Mn144 O169 2.209 . S
Mn144 O170 2.094 . S
Mn145 O150 2.121 . S
Mn145 N152 2.257 . S
Mn145 N161 2.282 . S
Mn145 O169 2.215 . S
Mn145 O171 2.117 . S
C146 O168 1.234 . S
C146 O169 1.283 . S
C147 O159 1.281 . S
C147 O160 1.236 . S
C148 O170 1.240 . S
C148 O171 1.264 . S
O149 Mn144 2.095 . S
O149 C158 1.250 . S
O150 Mn145 2.121 . S
O150 C158 1.258 . S
C151 N152 1.326 . S
C151 C155 1.460 1_455 S
C151 H157 0.929 . S
N152 Mn145 2.257 . S
N152 C151 1.326 . S
N152 C156 1.362 1_455 S
C153 C154 1.258 . S
C153 C156 1.431 . S
C153 C173 1.449 . S
C154 C153 1.258 . S
C154 C155 1.477 . S
C154 H174 0.931 . S
C155 C151 1.460 1_655 S
C155 C154 1.477 . S
C155 H175 0.930 . S
C156 N152 1.362 1_655 S
C156 C153 1.431 . S
C156 C166 1.476 . S
H157 C151 0.929 . S
C158 O149 1.250 . S
C158 O150 1.258 . S
O159 Mn144 2.162 . S
O159 C147 1.281 . S
O160 Mn144 2.297 . S
O160 C147 1.236 . S
N161 Mn145 2.282 . S
N161 C162 1.328 . S
N161 C166 1.318 1_455 S
C162 N161 1.328 . S
C162 C163 1.457 . S
C162 H167 0.929 . S
C163 C162 1.457 . S
C163 C164 1.291 1_455 S
C163 H176 0.931 . S
C164 C163 1.291 1_655 S
C164 C165 1.373 . S
C164 H177 0.929 . S
C165 C164 1.373 . S
C165 C166 1.396 . S
C165 C172 1.403 . S
C166 C156 1.476 . S
C166 N161 1.318 1_655 S
C166 C165 1.396 . S
H167 C162 0.929 . S
O168 Mn144 2.385 . S
O168 C146 1.234 . S
O169 Mn144 2.209 . S
O169 Mn145 2.215 . S
O169 C146 1.283 . S
O170 Mn144 2.094 . S
O170 C148 1.240 . S
O171 Mn145 2.117 . S
O171 C148 1.264 . S
C172 C165 1.403 . S
C172 C173 1.399 . S
C172 H178 0.929 . S
C173 C153 1.449 . S
C173 C172 1.399 . S
C173 H179 0.930 . S
H174 C154 0.931 . S
H175 C155 0.930 . S
H176 C163 0.931 . S
H177 C164 0.929 . S
H178 C172 0.929 . S
H179 C173 0.930 . S
Mn180 O185 2.095 . S
Mn180 O195 2.162 . S
Mn180 O196 2.297 . S
Mn180 O204 2.385 . S
Mn180 O205 2.209 . S
Mn180 O206 2.094 . S
Mn181 O186 2.121 . S
Mn181 N188 2.257 . S
Mn181 N197 2.282 . S
Mn181 O205 2.215 . S
Mn181 O207 2.117 . S
C182 O204 1.234 . S
C182 O205 1.283 . S
C183 O195 1.281 . S
C183 O196 1.236 . S
C184 O206 1.240 . S
C184 O207 1.264 . S
O185 Mn180 2.095 . S
O185 C194 1.250 . S
O186 Mn181 2.121 . S
O186 C194 1.258 . S
C187 N188 1.326 . S
C187 C191 1.460 . S
C187 H193 0.929 . S
N188 Mn181 2.257 . S
N188 C187 1.326 . S
N188 C192 1.362 . S
C189 C190 1.258 . S
C189 C192 1.431 . S
C189 C209 1.449 . S
C190 C189 1.258 . S
C190 C191 1.477 . S
C190 H210 0.931 . S
C191 C187 1.460 . S
C191 C190 1.477 . S
C191 H211 0.930 . S
C192 N188 1.362 . S
C192 C189 1.431 . S
C192 C202 1.476 . S
H193 C187 0.929 . S
C194 O185 1.250 . S
C194 O186 1.258 . S
O195 Mn180 2.162 . S
O195 C183 1.281 . S
O196 Mn180 2.297 . S
O196 C183 1.236 . S
N197 Mn181 2.282 . S
N197 C198 1.328 . S
N197 C202 1.318 . S
C198 N197 1.328 . S
C198 C199 1.457 . S
C198 H203 0.929 . S
C199 C198 1.457 . S
C199 C200 1.291 . S
C199 H212 0.931 . S
C200 C199 1.291 . S
C200 C201 1.373 . S
C200 H213 0.929 . S
C201 C200 1.373 . S
C201 C202 1.396 . S
C201 C208 1.403 . S
C202 C192 1.476 . S
C202 N197 1.318 . S
C202 C201 1.396 . S
H203 C198 0.929 . S
O204 Mn180 2.385 . S
O204 C182 1.234 . S
O205 Mn180 2.209 . S
O205 Mn181 2.215 . S
O205 C182 1.283 . S
O206 Mn180 2.094 . S
O206 C184 1.240 . S
O207 Mn181 2.117 . S
O207 C184 1.264 . S
C208 C201 1.403 . S
C208 C209 1.399 . S
C208 H214 0.929 . S
C209 C189 1.449 . S
C209 C208 1.399 . S
C209 H215 0.930 . S
H210 C190 0.931 . S
H211 C191 0.930 . S
H212 C199 0.931 . S
H213 C200 0.929 . S
H214 C208 0.929 . S
H215 C209 0.930 . S
Mn216 O221 2.095 . S
Mn216 O231 2.162 . S
Mn216 O232 2.297 . S
Mn216 O240 2.385 . S
Mn216 O241 2.209 . S
Mn216 O242 2.094 . S
Mn217 O222 2.121 . S
Mn217 N224 2.257 . S
Mn217 N233 2.282 . S
Mn217 O241 2.215 . S
Mn217 O243 2.117 . S
C218 O240 1.234 . S
C218 O241 1.283 . S
C219 O231 1.281 . S
C219 O232 1.236 . S
C220 O242 1.240 . S
C220 O243 1.264 . S
O221 Mn216 2.095 . S
O221 C230 1.250 . S
O222 Mn217 2.121 . S
O222 C230 1.258 . S
C223 N224 1.326 1_455 S
C223 C227 1.460 . S
C223 H229 0.929 1_455 S
N224 Mn217 2.257 . S
N224 C223 1.326 1_655 S
N224 C228 1.362 1_655 S
C225 C226 1.258 . S
C225 C228 1.431 . S
C225 C245 1.449 . S
C226 C225 1.258 . S
C226 C227 1.477 . S
C226 H246 0.931 . S
C227 C223 1.460 . S
C227 C226 1.477 . S
C227 H247 0.930 . S
C228 N224 1.362 1_455 S
C228 C225 1.431 . S
C228 C238 1.476 . S
H229 C223 0.929 1_655 S
C230 O221 1.250 . S
C230 O222 1.258 . S
O231 Mn216 2.162 . S
O231 C219 1.281 . S
O232 Mn216 2.297 . S
O232 C219 1.236 . S
N233 Mn217 2.282 . S
N233 C234 1.328 . S
N233 C238 1.318 1_655 S
C234 N233 1.328 . S
C234 C235 1.457 1_556 S
C234 H239 0.929 . S
C235 C234 1.457 1_554 S
C235 C236 1.291 1_654 S
C235 H248 0.931 . S
C236 C235 1.291 1_456 S
C236 C237 1.373 . S
C236 H249 0.929 1_556 S
C237 C236 1.373 . S
C237 C238 1.396 . S
C237 C244 1.403 . S
C238 C228 1.476 . S
C238 N233 1.318 1_455 S
C238 C237 1.396 . S
H239 C234 0.929 . S
O240 Mn216 2.385 . S
O240 C218 1.234 . S
O241 Mn216 2.209 . S
O241 Mn217 2.215 . S
O241 C218 1.283 . S
O242 Mn216 2.094 . S
O242 C220 1.240 . S
O243 Mn217 2.117 . S
O243 C220 1.264 . S
C244 C237 1.403 . S
C244 C245 1.399 . S
C244 H250 0.929 . S
C245 C225 1.449 . S
C245 C244 1.399 . S
C245 H251 0.930 . S
H246 C226 0.931 . S
H247 C227 0.930 . S
H248 C235 0.931 . S
H249 C236 0.929 1_554 S
H250 C244 0.929 . S
H251 C245 0.930 . S
Mn252 O257 2.095 . S
Mn252 O267 2.162 . S
Mn252 O268 2.297 . S
Mn252 O276 2.385 . S
Mn252 O277 2.209 . S
Mn252 O278 2.094 . S
Mn253 O258 2.121 . S
Mn253 N260 2.257 . S
Mn253 N269 2.282 . S
Mn253 O277 2.215 . S
Mn253 O279 2.117 . S
C254 O276 1.234 . S
C254 O277 1.283 . S
C255 O267 1.281 . S
C255 O268 1.236 . S
C256 O278 1.240 . S
C256 O279 1.264 . S
O257 Mn252 2.095 . S
O257 C266 1.250 . S
O258 Mn253 2.121 . S
O258 C266 1.258 . S
C259 N260 1.326 . S
C259 C263 1.460 . S
C259 H265 0.929 . S
N260 Mn253 2.257 . S
N260 C259 1.326 . S
N260 C264 1.362 . S
C261 C262 1.258 . S
C261 C264 1.431 . S
C261 C281 1.449 . S
C262 C261 1.258 . S
C262 C263 1.477 . S
C262 H282 0.931 . S
C263 C259 1.460 . S
C263 C262 1.477 . S
C263 H283 0.930 . S
C264 N260 1.362 . S
C264 C261 1.431 . S
C264 C274 1.476 . S
H265 C259 0.929 . S
C266 O257 1.250 . S
C266 O258 1.258 . S
O267 Mn252 2.162 . S
O267 C255 1.281 . S
O268 Mn252 2.297 . S
O268 C255 1.236 . S
N269 Mn253 2.282 . S
N269 C270 1.328 . S
N269 C274 1.318 . S
C270 N269 1.328 . S
C270 C271 1.457 1_556 S
C270 H275 0.929 . S
C271 C270 1.457 1_554 S
C271 C272 1.291 1_554 S
C271 H284 0.931 . S
C272 C271 1.291 1_556 S
C272 C273 1.373 . S
C272 H285 0.929 1_556 S
C273 C272 1.373 . S
C273 C274 1.396 . S
C273 C280 1.403 . S
C274 C264 1.476 . S
C274 N269 1.318 . S
C274 C273 1.396 . S
H275 C270 0.929 . S
O276 Mn252 2.385 . S
O276 C254 1.234 . S
O277 Mn252 2.209 . S
O277 Mn253 2.215 . S
O277 C254 1.283 . S
O278 Mn252 2.094 . S
O278 C256 1.240 . S
O279 Mn253 2.117 . S
O279 C256 1.264 . S
C280 C273 1.403 . S
C280 C281 1.399 . S
C280 H286 0.929 . S
C281 C261 1.449 . S
C281 C280 1.399 . S
C281 H287 0.930 . S
H282 C262 0.931 . S
H283 C263 0.930 . S
H284 C271 0.931 . S
H285 C272 0.929 1_554 S
H286 C280 0.929 . S
H287 C281 0.930 . S
Mn288 O293 2.095 . S
Mn288 O303 2.162 . S
Mn288 O304 2.297 . S
Mn288 O312 2.385 . S
Mn288 O313 2.209 . S
Mn288 O314 2.094 . S
Mn289 O294 2.121 . S
Mn289 N296 2.257 . S
Mn289 N305 2.282 . S
Mn289 O313 2.215 . S
Mn289 O315 2.117 . S
C290 O312 1.234 . S
C290 O313 1.283 . S
C291 O303 1.281 . S
C291 O304 1.236 . S
C292 O314 1.240 . S
C292 O315 1.264 . S
O293 Mn288 2.095 . S
O293 C302 1.250 . S
O294 Mn289 2.121 . S
O294 C302 1.258 . S
C295 N296 1.326 . S
C295 C299 1.460 1_545 S
C295 H301 0.929 . S
N296 Mn289 2.257 . S
N296 C295 1.326 . S
N296 C300 1.362 1_545 S
C297 C298 1.258 . S
C297 C300 1.431 . S
C297 C317 1.449 . S
C298 C297 1.258 . S
C298 C299 1.477 . S
C298 H318 0.931 . S
C299 C295 1.460 1_565 S
C299 C298 1.477 . S
C299 H319 0.930 . S
C300 N296 1.362 1_565 S
C300 C297 1.431 . S
C300 C310 1.476 . S
H301 C295 0.929 . S
C302 O293 1.250 . S
C302 O294 1.258 . S
O303 Mn288 2.162 . S
O303 C291 1.281 . S
O304 Mn288 2.297 . S
O304 C291 1.236 . S
N305 Mn289 2.282 . S
N305 C306 1.328 . S
N305 C310 1.318 1_545 S
C306 N305 1.328 . S
C306 C307 1.457 1_556 S
C306 H311 0.934 . S
C307 C306 1.457 1_554 S
C307 C308 1.291 1_544 S
C307 H320 0.931 . S
C308 C307 1.291 1_566 S
C308 C309 1.373 . S
C308 H321 0.929 1_556 S
C309 C308 1.373 . S
C309 C310 1.396 . S
C309 C316 1.403 . S
C310 C300 1.476 . S
C310 N305 1.318 1_565 S
C310 C309 1.396 . S
H311 C306 0.934 . S
O312 Mn288 2.385 . S
O312 C290 1.234 . S
O313 Mn288 2.209 . S
O313 Mn289 2.215 . S
O313 C290 1.283 . S
O314 Mn288 2.094 . S
O314 C292 1.240 . S
O315 Mn289 2.117 . S
O315 C292 1.264 . S
C316 C309 1.403 . S
C316 C317 1.399 . S
C316 H322 0.929 . S
C317 C297 1.449 . S
C317 C316 1.399 . S
C317 H323 0.930 . S
H318 C298 0.931 . S
H319 C299 0.930 . S
H320 C307 0.931 . S
H321 C308 0.929 1_554 S
H322 C316 0.929 . S
H323 C317 0.930 . S
Mn324 O329 2.095 . S
Mn324 O339 2.162 . S
Mn324 O340 2.297 . S
Mn324 O348 2.385 . S
Mn324 O349 2.209 . S
Mn324 O350 2.094 . S
Mn325 O330 2.121 . S
Mn325 N332 2.257 . S
Mn325 N341 2.282 . S
Mn325 O349 2.215 . S
Mn325 O351 2.117 . S
C326 O348 1.234 . S
C326 O349 1.283 . S
C327 O339 1.281 . S
C327 O340 1.236 . S
C328 O350 1.240 . S
C328 O351 1.264 . S
O329 Mn324 2.095 . S
O329 C338 1.250 . S
O330 Mn325 2.121 . S
O330 C338 1.258 . S
C331 N332 1.326 . S
C331 C335 1.460 1_545 S
C331 H337 0.929 . S
N332 Mn325 2.257 . S
N332 C331 1.326 . S
N332 C336 1.362 1_545 S
C333 C334 1.258 . S
C333 C336 1.431 . S
C333 C353 1.449 . S
C334 C333 1.258 . S
C334 C335 1.477 . S
C334 H354 0.931 . S
C335 C331 1.460 1_565 S
C335 C334 1.477 . S
C335 H355 0.930 . S
C336 N332 1.362 1_565 S
C336 C333 1.431 . S
C336 C346 1.476 . S
H337 C331 0.929 . S
C338 O329 1.250 . S
C338 O330 1.258 . S
O339 Mn324 2.162 . S
O339 C327 1.281 . S
O340 Mn324 2.297 . S
O340 C327 1.236 . S
N341 Mn325 2.282 . S
N341 C342 1.328 . S
N341 C346 1.318 1_545 S
C342 N341 1.328 . S
C342 C343 1.457 . S
C342 H347 0.929 . S
C343 C342 1.457 . S
C343 C344 1.291 1_545 S
C343 H356 0.931 . S
C344 C343 1.291 1_565 S
C344 C345 1.373 . S
C344 H357 0.929 . S
C345 C344 1.373 . S
C345 C346 1.396 . S
C345 C352 1.403 . S
C346 C336 1.476 . S
C346 N341 1.318 1_565 S
C346 C345 1.396 . S
H347 C342 0.929 . S
O348 Mn324 2.385 . S
O348 C326 1.234 . S
O349 Mn324 2.209 . S
O349 Mn325 2.215 . S
O349 C326 1.283 . S
O350 Mn324 2.094 . S
O350 C328 1.240 . S
O351 Mn325 2.117 . S
O351 C328 1.264 . S
C352 C345 1.403 . S
C352 C353 1.399 . S
C352 H358 0.929 . S
C353 C333 1.449 . S
C353 C352 1.399 . S
C353 H359 0.930 . S
H354 C334 0.931 . S
H355 C335 0.930 . S
H356 C343 0.931 . S
H357 C344 0.929 . S
H358 C352 0.929 . S
H359 C353 0.930 . S
Mn360 O365 2.095 . S
Mn360 O375 2.162 . S
Mn360 O376 2.297 . S
Mn360 O384 2.385 . S
Mn360 O385 2.209 . S
Mn360 O386 2.094 . S
Mn361 O366 2.121 . S
Mn361 N368 2.257 . S
Mn361 N377 2.282 . S
Mn361 O385 2.215 . S
Mn361 O387 2.117 . S
C362 O384 1.234 . S
C362 O385 1.283 . S
C363 O375 1.281 . S
C363 O376 1.236 . S
C364 O386 1.240 . S
C364 O387 1.264 . S
O365 Mn360 2.095 . S
O365 C374 1.250 . S
O366 Mn361 2.121 . S
O366 C374 1.258 . S
C367 N368 1.326 . S
C367 C371 1.460 1_655 S
C367 H373 0.929 . S
N368 Mn361 2.257 . S
N368 C367 1.326 . S
N368 C372 1.362 1_655 S
C369 C370 1.258 . S
C369 C372 1.431 . S
C369 C389 1.449 . S
C370 C369 1.258 . S
C370 C371 1.477 . S
C370 H390 0.931 . S
C371 C367 1.460 1_455 S
C371 C370 1.477 . S
C371 H391 0.930 . S
C372 N368 1.362 1_455 S
C372 C369 1.431 . S
C372 C382 1.476 . S
H373 C367 0.929 . S
C374 O365 1.250 . S
C374 O366 1.258 . S
O375 Mn360 2.162 . S
O375 C363 1.281 . S
O376 Mn360 2.297 . S
O376 C363 1.236 . S
N377 Mn361 2.282 . S
N377 C378 1.328 . S
N377 C382 1.318 1_655 S
C378 N377 1.328 . S
C378 C379 1.457 . S
C378 H383 0.929 . S
C379 C378 1.457 . S
C379 C380 1.291 1_655 S
C379 H392 0.931 . S
C380 C379 1.291 1_455 S
C380 C381 1.373 . S
C380 H393 0.929 . S
C381 C380 1.373 . S
C381 C382 1.396 . S
C381 C388 1.403 . S
C382 C372 1.476 . S
C382 N377 1.318 1_455 S
C382 C381 1.396 . S
H383 C378 0.929 . S
O384 Mn360 2.385 . S
O384 C362 1.234 . S
O385 Mn360 2.209 . S
O385 Mn361 2.215 . S
O385 C362 1.283 . S
O386 Mn360 2.094 . S
O386 C364 1.240 . S
O387 Mn361 2.117 . S
O387 C364 1.264 . S
C388 C381 1.403 . S
C388 C389 1.399 . S
C388 H394 0.929 . S
C389 C369 1.449 . S
C389 C388 1.399 . S
C389 H395 0.930 . S
H390 C370 0.931 . S
H391 C371 0.930 . S
H392 C379 0.931 . S
H393 C380 0.929 . S
H394 C388 0.929 . S
H395 C389 0.930 . S
Mn396 O401 2.095 . S
Mn396 O411 2.162 . S
Mn396 O412 2.297 . S
Mn396 O420 2.385 . S
Mn396 O421 2.209 . S
Mn396 O422 2.094 . S
Mn397 O402 2.121 . S
Mn397 N404 2.257 . S
Mn397 N413 2.282 . S
Mn397 O421 2.215 . S
Mn397 O423 2.117 . S
C398 O420 1.234 . S
C398 O421 1.283 . S
C399 O411 1.281 . S
C399 O412 1.236 . S
C400 O422 1.240 . S
C400 O423 1.264 . S
O401 Mn396 2.095 . S
O401 C410 1.250 . S
O402 Mn397 2.121 . S
O402 C410 1.258 . S
C403 N404 1.326 . S
C403 C407 1.460 . S
C403 H409 0.929 . S
N404 Mn397 2.257 . S
N404 C403 1.326 . S
N404 C408 1.362 . S
C405 C406 1.258 . S
C405 C408 1.431 . S
C405 C425 1.449 . S
C406 C405 1.258 . S
C406 C407 1.477 . S
C406 H426 0.931 . S
C407 C403 1.460 . S
C407 C406 1.477 . S
C407 H427 0.930 . S
C408 N404 1.362 . S
C408 C405 1.431 . S
C408 C418 1.476 . S
H409 C403 0.929 . S
C410 O401 1.250 . S
C410 O402 1.258 . S
O411 Mn396 2.162 . S
O411 C399 1.281 . S
O412 Mn396 2.297 . S
O412 C399 1.236 . S
N413 Mn397 2.282 . S
N413 C414 1.328 . S
N413 C418 1.318 . S
C414 N413 1.328 . S
C414 C415 1.457 . S
C414 H419 0.929 . S
C415 C414 1.457 . S
C415 C416 1.291 . S
C415 H428 0.931 . S
C416 C415 1.291 . S
C416 C417 1.373 . S
C416 H429 0.929 . S
C417 C416 1.373 . S
C417 C418 1.396 . S
C417 C424 1.403 . S
C418 C408 1.476 . S
C418 N413 1.318 . S
C418 C417 1.396 . S
H419 C414 0.929 . S
O420 Mn396 2.385 . S
O420 C398 1.234 . S
O421 Mn396 2.209 . S
O421 Mn397 2.215 . S
O421 C398 1.283 . S
O422 Mn396 2.094 . S
O422 C400 1.240 . S
O423 Mn397 2.117 . S
O423 C400 1.264 . S
C424 C417 1.403 . S
C424 C425 1.399 . S
C424 H430 0.929 . S
C425 C405 1.449 . S
C425 C424 1.399 . S
C425 H431 0.930 . S
H426 C406 0.931 . S
H427 C407 0.930 . S
H428 C415 0.931 . S
H429 C416 0.929 . S
H430 C424 0.929 . S
H431 C425 0.930 . S
H432 C438 0.930 . S
H433 C441 0.930 . S
H434 C442 0.930 . S
H435 C443 0.930 . S
H436 C446 0.930 . S
H437 C447 0.930 . S
C438 H432 0.930 . S
C438 C439 1.355 . S
C438 C440 1.415 1_554 S
C439 C438 1.355 . S
C439 C441 1.419 . S
C440 C438 1.415 1_556 S
C440 C445 1.425 . S
C440 C447 1.409 . S
C441 H433 0.930 . S
C441 C439 1.419 . S
C441 C442 1.362 1_554 S
C442 H434 0.930 . S
C442 C441 1.362 1_556 S
C442 C445 1.409 . S
C443 H435 0.930 . S
C443 C444 1.355 . S
C443 C445 1.415 . S
C444 C443 1.355 . S
C444 C446 1.419 . S
C445 C440 1.425 . S
C445 C442 1.409 . S
C445 C443 1.415 . S
C446 H436 0.930 . S
C446 C444 1.419 . S
C446 C447 1.362 . S
C447 H437 0.930 . S
C447 C440 1.409 . S
C447 C446 1.362 . S
H448 C454 0.930 . S
H449 C457 0.930 . S
H450 C458 0.930 . S
H451 C459 0.930 . S
H452 C462 0.930 . S
H453 C463 0.930 . S
C454 H448 0.930 . S
C454 C455 1.355 . S
C454 C456 1.415 . S
C455 C454 1.355 . S
C455 C457 1.419 1_554 S
C456 C454 1.415 . S
C456 C461 1.425 1_554 S
C456 C463 1.409 . S
C457 H449 0.930 . S
C457 C455 1.419 1_556 S
C457 C458 1.362 . S
C458 H450 0.930 . S
C458 C457 1.362 . S
C458 C461 1.409 . S
C459 H451 0.930 . S
C459 C460 1.355 . S
C459 C461 1.415 . S
C460 C459 1.355 . S
C460 C462 1.419 1_556 S
C461 C456 1.425 1_556 S
C461 C458 1.409 . S
C461 C459 1.415 . S
C462 H452 0.930 . S
C462 C460 1.419 1_554 S
C462 C463 1.362 . S
C463 H453 0.930 . S
C463 C456 1.409 . S
C463 C462 1.362 . S
H464 C470 0.930 . S
H465 C473 0.930 . S
H466 C474 0.930 . S
H467 C475 0.930 . S
H468 C478 0.930 . S
H469 C479 0.930 . S
C470 H464 0.930 . S
C470 C471 1.355 1_556 S
C470 C472 1.415 . S
C471 C470 1.355 1_554 S
C471 C473 1.419 . S
C472 C470 1.415 . S
C472 C477 1.425 . S
C472 C479 1.409 . S
C473 H465 0.930 . S
C473 C471 1.419 . S
C473 C474 1.362 . S
C474 H466 0.930 . S
C474 C473 1.362 . S
C474 C477 1.409 1_554 S
C475 H467 0.930 . S
C475 C476 1.355 . S
C475 C477 1.415 . S
C476 C475 1.355 . S
C476 C478 1.419 . S
C477 C472 1.425 . S
C477 C474 1.409 1_556 S
C477 C475 1.415 . S
C478 H468 0.930 . S
C478 C476 1.419 . S
C478 C479 1.362 . S
C479 H469 0.930 . S
C479 C472 1.409 . S
C479 C478 1.362 . S
H480 C486 0.930 . S
H481 C489 0.930 . S
H482 C490 0.930 . S
H483 C491 0.930 . S
H484 C494 0.930 . S
H485 C495 0.930 . S
C486 H480 0.930 . S
C486 C487 1.355 . S
C486 C488 1.415 . S
C487 C486 1.355 . S
C487 C489 1.419 . S
C488 C486 1.415 . S
C488 C493 1.425 . S
C488 C495 1.409 . S
C489 H481 0.930 . S
C489 C487 1.419 . S
C489 C490 1.362 . S
C490 H482 0.930 . S
C490 C489 1.362 . S
C490 C493 1.409 . S
C491 H483 0.930 . S
C491 C492 1.355 . S
C491 C493 1.415 . S
C492 C491 1.355 . S
C492 C494 1.419 . S
C493 C488 1.425 . S
C493 C490 1.409 . S
C493 C491 1.415 . S
C494 H484 0.930 . S
C494 C492 1.419 . S
C494 C495 1.362 . S
C495 H485 0.930 . S
C495 C488 1.409 . S
C495 C494 1.362 . S
H496 C502 0.930 . S
H497 C505 0.930 . S
H498 C506 0.930 . S
H499 C507 0.930 . S
H500 C510 0.930 . S
H501 C511 0.930 . S
C502 H496 0.930 . S
C502 C503 1.355 . S
C502 C504 1.415 . S
C503 C502 1.355 . S
C503 C505 1.419 . S
C504 C502 1.415 . S
C504 C509 1.425 . S
C504 C511 1.409 . S
C505 H497 0.930 . S
C505 C503 1.419 . S
C505 C506 1.362 . S
C506 H498 0.930 . S
C506 C505 1.362 . S
C506 C509 1.409 . S
C507 H499 0.930 . S
C507 C508 1.355 . S
C507 C509 1.415 . S
C508 C507 1.355 . S
C508 C510 1.419 . S
C509 C504 1.425 . S
C509 C506 1.409 . S
C509 C507 1.415 . S
C510 H500 0.930 . S
C510 C508 1.419 . S
C510 C511 1.362 . S
C511 H501 0.930 . S
C511 C504 1.409 . S
C511 C510 1.362 . S
H512 C518 0.930 . S
H513 C521 0.930 1_655 S
H514 C522 0.930 . S
H515 C523 0.930 . S
H516 C526 0.930 . S
H517 C527 0.930 . S
C518 H512 0.930 . S
C518 C519 1.355 . S
C518 C520 1.415 . S
C519 C518 1.355 . S
C519 C521 1.419 . S
C520 C518 1.415 . S
C520 C525 1.425 . S
C520 C527 1.409 . S
C521 H513 0.930 1_455 S
C521 C519 1.419 . S
C521 C522 1.362 . S
C522 H514 0.930 . S
C522 C521 1.362 . S
C522 C525 1.409 . S
C523 H515 0.930 . S
C523 C524 1.355 . S
C523 C525 1.415 . S
C524 C523 1.355 . S
C524 C526 1.419 . S
C525 C520 1.425 . S
C525 C522 1.409 . S
C525 C523 1.415 . S
C526 H516 0.930 . S
C526 C524 1.419 . S
C526 C527 1.362 . S
C527 H517 0.930 . S
C527 C520 1.409 . S
C527 C526 1.362 . S
H528 C534 0.930 . S
H529 C537 0.930 . S
H530 C538 0.930 . S
H531 C539 0.930 . S
H532 C542 0.930 . S
H533 C543 0.930 . S
C534 H528 0.930 . S
C534 C535 1.355 . S
C534 C536 1.415 . S
C535 C534 1.355 . S
C535 C537 1.419 1_554 S
C536 C534 1.415 . S
C536 C541 1.425 1_554 S
C536 C543 1.409 . S
C537 H529 0.930 . S
C537 C535 1.419 1_556 S
C537 C538 1.362 . S
C538 H530 0.930 . S
C538 C537 1.362 . S
C538 C541 1.409 . S
C539 H531 0.930 . S
C539 C540 1.355 . S
C539 C541 1.415 . S
C540 C539 1.355 . S
C540 C542 1.419 1_556 S
C541 C536 1.425 1_556 S
C541 C538 1.409 . S
C541 C539 1.415 . S
C542 H532 0.930 . S
C542 C540 1.419 1_554 S
C542 C543 1.362 . S
C543 H533 0.930 . S
C543 C536 1.409 . S
C543 C542 1.362 . S
H544 C550 0.930 . S
H545 C553 0.930 . S
H546 C554 0.930 . S
H547 C555 0.930 . S
H548 C558 0.931 . S
H549 C559 0.931 . S
C550 H544 0.930 . S
C550 C551 1.355 . S
C550 C552 1.415 . S
C551 C550 1.355 . S
C551 C553 1.419 . S
C552 C550 1.415 . S
C552 C557 1.425 1_556 S
C552 C559 1.409 . S
C553 H545 0.930 . S
C553 C551 1.419 . S
C553 C554 1.362 1_556 S
C554 H546 0.930 . S
C554 C553 1.362 1_554 S
C554 C557 1.409 . S
C555 H547 0.930 . S
C555 C556 1.355 . S
C555 C557 1.415 . S
C556 C555 1.355 . S
C556 C558 1.419 . S
C557 C552 1.425 1_554 S
C557 C554 1.409 . S
C557 C555 1.415 . S
C558 H548 0.931 . S
C558 C556 1.419 . S
C558 C559 1.361 1_554 S
C559 H549 0.931 . S
C559 C552 1.409 . S
C559 C558 1.361 1_556 S
H560 C566 0.930 . S
H561 C569 0.930 . S
H562 C570 0.930 . S
H563 C571 0.930 . S
H564 C574 0.928 1_556 S
H565 C575 0.930 . S
C566 H560 0.930 . S
C566 C567 1.355 . S
C566 C568 1.415 . S
C567 C566 1.355 . S
C567 C569 1.419 . S
C568 C566 1.415 . S
C568 C573 1.425 . S
C568 C575 1.409 . S
C569 H561 0.930 . S
C569 C567 1.419 . S
C569 C570 1.362 . S
C570 H562 0.930 . S
C570 C569 1.362 . S
C570 C573 1.409 . S
C571 H563 0.930 . S
C571 C572 1.355 . S
C571 C573 1.415 1_556 S
C572 C571 1.355 . S
C572 C574 1.413 1_556 S
C573 C568 1.425 . S
C573 C570 1.409 . S
C573 C571 1.415 1_554 S
C574 H564 0.928 1_554 S
C574 C572 1.413 1_554 S
C574 C575 1.371 . S
C575 H565 0.930 . S
C575 C568 1.409 . S
C575 C574 1.371 . S
H576 C582 0.930 . S
H577 C585 0.930 . S
H578 C586 0.930 . S
H579 C587 0.930 . S
H580 C590 0.930 . S
H581 C591 0.930 . S
C582 H576 0.930 . S
C582 C583 1.355 . S
C582 C584 1.415 . S
C583 C582 1.355 . S
C583 C585 1.419 . S
C584 C582 1.415 . S
C584 C589 1.425 . S
C584 C591 1.409 . S
C585 H577 0.930 . S
C585 C583 1.419 . S
C585 C586 1.362 . S
C586 H578 0.930 . S
C586 C585 1.362 . S
C586 C589 1.409 . S
C587 H579 0.930 . S
C587 C588 1.355 . S
C587 C589 1.415 . S
C588 C587 1.355 . S
C588 C590 1.419 . S
C589 C584 1.425 . S
C589 C586 1.409 . S
C589 C587 1.415 . S
C590 H580 0.930 . S
C590 C588 1.419 . S
C590 C591 1.362 . S
C591 H581 0.930 . S
C591 C584 1.409 . S
C591 C590 1.362 . S
H592 C598 0.930 . S
H593 C601 0.930 . S
H594 C602 0.930 . S
H595 C603 0.930 . S
H596 C606 0.930 . S
H597 C607 0.930 . S
C598 H592 0.930 . S
C598 C599 1.355 . S
C598 C600 1.415 . S
C599 C598 1.355 . S
C599 C601 1.419 . S
C600 C598 1.415 . S
C600 C605 1.425 . S
C600 C607 1.409 . S
C601 H593 0.930 . S
C601 C599 1.419 . S
C601 C602 1.362 . S
C602 H594 0.930 . S
C602 C601 1.362 . S
C602 C605 1.409 . S
C603 H595 0.930 . S
C603 C604 1.355 . S
C603 C605 1.415 . S
C604 C603 1.355 . S
C604 C606 1.419 . S
C605 C600 1.425 . S
C605 C602 1.409 . S
C605 C603 1.415 . S
C606 H596 0.930 . S
C606 C604 1.419 . S
C606 C607 1.362 . S
C607 H597 0.930 . S
C607 C600 1.409 . S
C607 C606 1.362 . S
H608 C614 0.930 . S
H609 C617 0.930 . S
H610 C618 0.930 . S
H611 C619 0.930 . S
H612 C622 0.930 . S
H613 C623 0.930 . S
C614 H608 0.930 . S
C614 C615 1.355 . S
C614 C616 1.415 . S
C615 C614 1.355 . S
C615 C617 1.419 . S
C616 C614 1.415 . S
C616 C621 1.425 . S
C616 C623 1.409 . S
C617 H609 0.930 . S
C617 C615 1.419 . S
C617 C618 1.362 . S
C618 H610 0.930 . S
C618 C617 1.362 . S
C618 C621 1.409 . S
C619 H611 0.930 . S
C619 C620 1.355 . S
C619 C621 1.415 . S
C620 C619 1.355 . S
C620 C622 1.419 . S
C621 C616 1.425 . S
C621 C618 1.409 . S
C621 C619 1.415 . S
C622 H612 0.930 . S
C622 C620 1.419 . S
C622 C623 1.362 . S
C623 H613 0.930 . S
C623 C616 1.409 . S
C623 C622 1.362 . S
H624 C630 0.930 . S
H625 C633 0.930 . S
H626 C634 0.930 . S
H627 C635 0.930 . S
H628 C638 0.930 . S
H629 C639 0.930 . S
C630 H624 0.930 . S
C630 C631 1.355 . S
C630 C632 1.415 . S
C631 C630 1.355 . S
C631 C633 1.419 . S
C632 C630 1.415 . S
C632 C637 1.425 . S
C632 C639 1.409 . S
C633 H625 0.930 . S
C633 C631 1.419 . S
C633 C634 1.362 . S
C634 H626 0.930 . S
C634 C633 1.362 . S
C634 C637 1.409 . S
C635 H627 0.930 . S
C635 C636 1.355 . S
C635 C637 1.415 . S
C636 C635 1.355 . S
C636 C638 1.419 . S
C637 C632 1.425 . S
C637 C634 1.409 . S
C637 C635 1.415 . S
C638 H628 0.930 . S
C638 C636 1.419 . S
C638 C639 1.362 . S
C639 H629 0.930 . S
C639 C632 1.409 . S
C639 C638 1.362 . S
H640 C646 0.930 . S
H641 C649 0.930 . S
H642 C650 0.930 . S
H643 C651 0.930 . S
H644 C654 0.930 . S
H645 C655 0.930 . S
C646 H640 0.930 . S
C646 C647 1.355 . S
C646 C648 1.415 . S
C647 C646 1.355 . S
C647 C649 1.419 . S
C648 C646 1.415 . S
C648 C653 1.425 . S
C648 C655 1.409 . S
C649 H641 0.930 . S
C649 C647 1.419 . S
C649 C650 1.362 . S
C650 H642 0.930 . S
C650 C649 1.362 . S
C650 C653 1.409 . S
C651 H643 0.930 . S
C651 C652 1.355 . S
C651 C653 1.415 . S
C652 C651 1.355 . S
C652 C654 1.419 . S
C653 C648 1.425 . S
C653 C650 1.409 . S
C653 C651 1.415 . S
C654 H644 0.930 . S
C654 C652 1.419 . S
C654 C655 1.362 . S
C655 H645 0.930 . S
C655 C648 1.409 . S
C655 C654 1.362 . S
H656 C662 0.930 . S
H657 C665 0.930 . S
H658 C666 0.930 . S
H659 C667 0.930 . S
H660 C670 0.930 . S
H661 C671 0.930 . S
C662 H656 0.930 . S
C662 C663 1.355 . S
C662 C664 1.415 . S
C663 C662 1.355 . S
C663 C665 1.419 . S
C664 C662 1.415 . S
C664 C669 1.425 . S
C664 C671 1.409 . S
C665 H657 0.930 . S
C665 C663 1.419 . S
C665 C666 1.362 . S
C666 H658 0.930 . S
C666 C665 1.362 . S
C666 C669 1.409 . S
C667 H659 0.930 . S
C667 C668 1.355 . S
C667 C669 1.415 . S
C668 C667 1.355 . S
C668 C670 1.419 . S
C669 C664 1.425 . S
C669 C666 1.409 . S
C669 C667 1.415 . S
C670 H660 0.930 . S
C670 C668 1.419 . S
C670 C671 1.362 . S
C671 H661 0.930 . S
C671 C664 1.409 . S
C671 C670 1.362 . S
H672 C678 0.930 . S
H673 C681 0.930 . S
H674 C682 0.930 . S
H675 C683 0.930 . S
H676 C686 0.930 . S
H677 C687 0.930 . S
C678 H672 0.930 . S
C678 C679 1.355 . S
C678 C680 1.415 . S
C679 C678 1.355 . S
C679 C681 1.419 . S
C680 C678 1.415 . S
C680 C685 1.425 . S
C680 C687 1.409 . S
C681 H673 0.930 . S
C681 C679 1.419 . S
C681 C682 1.362 . S
C682 H674 0.930 . S
C682 C681 1.362 . S
C682 C685 1.409 . S
C683 H675 0.930 . S
C683 C684 1.355 . S
C683 C685 1.415 . S
C684 C683 1.355 . S
C684 C686 1.419 . S
C685 C680 1.425 . S
C685 C682 1.409 . S
C685 C683 1.415 . S
C686 H676 0.930 . S
C686 C684 1.419 . S
C686 C687 1.362 . S
C687 H677 0.930 . S
C687 C680 1.409 . S
C687 C686 1.362 . S
H688 C694 0.930 . S
H689 C697 0.930 . S
H690 C698 0.930 . S
H691 C699 0.930 . S
H692 C702 0.930 . S
H693 C703 0.930 . S
C694 H688 0.930 . S
C694 C695 1.355 . S
C694 C696 1.415 . S
C695 C694 1.355 . S
C695 C697 1.419 . S
C696 C694 1.415 . S
C696 C701 1.425 . S
C696 C703 1.409 . S
C697 H689 0.930 . S
C697 C695 1.419 . S
C697 C698 1.362 . S
C698 H690 0.930 . S
C698 C697 1.362 . S
C698 C701 1.409 . S
C699 H691 0.930 . S
C699 C700 1.355 . S
C699 C701 1.415 . S
C700 C699 1.355 . S
C700 C702 1.419 . S
C701 C696 1.425 . S
C701 C698 1.409 . S
C701 C699 1.415 . S
C702 H692 0.930 . S
C702 C700 1.419 . S
C702 C703 1.362 . S
C703 H693 0.930 . S
C703 C696 1.409 . S
C703 C702 1.362 . S
H704 C710 0.930 . S
H705 C713 0.930 . S
H706 C714 0.930 . S
H707 C715 0.930 . S
H708 C718 0.930 . S
H709 C719 0.930 . S
C710 H704 0.930 . S
C710 C711 1.355 . S
C710 C712 1.415 . S
C711 C710 1.355 . S
C711 C713 1.419 . S
C712 C710 1.415 . S
C712 C717 1.425 . S
C712 C719 1.409 . S
C713 H705 0.930 . S
C713 C711 1.419 . S
C713 C714 1.362 . S
C714 H706 0.930 . S
C714 C713 1.362 . S
C714 C717 1.409 . S
C715 H707 0.930 . S
C715 C716 1.355 . S
C715 C717 1.415 . S
C716 C715 1.355 . S
C716 C718 1.419 . S
C717 C712 1.425 . S
C717 C714 1.409 . S
C717 C715 1.415 . S
C718 H708 0.930 . S
C718 C716 1.419 . S
C718 C719 1.362 . S
C719 H709 0.930 . S
C719 C712 1.409 . S
C719 C718 1.362 . S
H720 C726 0.930 . S
H721 C729 0.930 . S
H722 C730 0.930 . S
H723 C731 0.930 1_554 S
H724 C734 0.931 1_455 S
H725 C735 0.930 . S
C726 H720 0.930 . S
C726 C727 1.353 1_556 S
C726 C728 1.415 . S
C727 C726 1.353 1_554 S
C727 C729 1.419 . S
C728 C726 1.415 . S
C728 C733 1.425 1_456 S
C728 C735 1.409 . S
C729 H721 0.930 . S
C729 C727 1.419 . S
C729 C730 1.362 1_455 S
C730 H722 0.930 . S
C730 C729 1.362 1_655 S
C730 C733 1.409 . S
C731 H723 0.930 1_556 S
C731 C732 1.355 . S
C731 C733 1.415 1_556 S
C732 C731 1.355 . S
C732 C734 1.419 . S
C733 C728 1.425 1_654 S
C733 C730 1.409 . S
C733 C731 1.415 1_554 S
C734 H724 0.931 1_655 S
C734 C732 1.419 . S
C734 C735 1.362 1_655 S
C735 H725 0.930 . S
C735 C728 1.409 . S
C735 C734 1.362 1_455 S
H736 C742 0.930 . S
H737 C745 0.930 . S
H738 C746 0.930 . S
H739 C747 0.942 . S
H740 C750 0.930 . S
H741 C751 0.930 . S
C742 H736 0.930 . S
C742 C743 1.355 1_556 S
C742 C744 1.415 . S
C743 C742 1.355 1_554 S
C743 C745 1.419 . S
C744 C742 1.415 . S
C744 C749 1.425 1_556 S
C744 C751 1.409 . S
C745 H737 0.930 . S
C745 C743 1.419 . S
C745 C746 1.362 . S
C746 H738 0.930 . S
C746 C745 1.362 . S
C746 C749 1.409 . S
C747 H739 0.942 . S
C747 C748 1.355 . S
C747 C749 1.415 1_556 S
C748 C747 1.355 . S
C748 C750 1.419 . S
C749 C744 1.425 1_554 S
C749 C746 1.409 . S
C749 C747 1.415 1_554 S
C750 H740 0.930 . S
C750 C748 1.419 . S
C750 C751 1.362 . S
C751 H741 0.930 . S
C751 C744 1.409 . S
C751 C750 1.362 . S
H752 C758 0.930 . S
H753 C761 0.930 1_545 S
H754 C762 0.930 . S
H755 C763 0.930 . S
H756 C766 0.930 . S
H757 C767 0.930 . S
C758 H752 0.930 . S
C758 C759 1.355 . S
C758 C760 1.415 . S
C759 C758 1.355 . S
C759 C761 1.419 . S
C760 C758 1.415 . S
C760 C765 1.423 1_564 S
C760 C767 1.409 1_554 S
C761 H753 0.930 1_565 S
C761 C759 1.419 . S
C761 C762 1.362 1_565 S
C762 H754 0.930 . S
C762 C761 1.362 1_545 S
C762 C765 1.402 1_554 S
C763 H755 0.930 . S
C763 C764 1.355 . S
C763 C765 1.425 . S
C764 C763 1.355 . S
C764 C766 1.419 1_545 S
C765 C760 1.423 1_546 S
C765 C762 1.402 1_556 S
C765 C763 1.425 . S
C766 H756 0.930 . S
C766 C764 1.419 1_565 S
C766 C767 1.362 . S
C767 H757 0.930 . S
C767 C760 1.409 1_556 S
C767 C766 1.362 . S
H768 C774 0.930 . S
H769 C777 0.930 . S
H770 C778 0.930 1_545 S
H771 C779 0.930 . S
H772 C782 0.930 . S
H773 C783 0.930 . S
C774 H768 0.930 . S
C774 C775 1.355 . S
C774 C776 1.415 . S
C775 C774 1.355 . S
C775 C777 1.419 . S
C776 C774 1.415 . S
C776 C781 1.425 1_565 S
C776 C783 1.409 . S
C777 H769 0.930 . S
C777 C775 1.419 . S
C777 C778 1.362 . S
C778 H770 0.930 1_565 S
C778 C777 1.362 . S
C778 C781 1.409 1_565 S
C779 H771 0.930 . S
C779 C780 1.355 . S
C779 C781 1.415 . S
C780 C779 1.355 . S
C780 C782 1.419 . S
C781 C776 1.425 1_545 S
C781 C778 1.409 1_545 S
C781 C779 1.415 . S
C782 H772 0.930 . S
C782 C780 1.419 . S
C782 C783 1.362 1_545 S
C783 H773 0.930 . S
C783 C776 1.409 . S
C783 C782 1.362 1_565 S
H784 C790 0.930 . S
H785 C793 0.930 . S
H786 C794 0.930 . S
H787 C795 0.930 . S
H788 C798 0.930 . S
H789 C799 0.930 . S
C790 H784 0.930 . S
C790 C791 1.355 . S
C790 C792 1.415 . S
C791 C790 1.355 . S
C791 C793 1.419 1_655 S
C792 C790 1.415 . S
C792 C797 1.425 1_655 S
C792 C799 1.409 . S
C793 H785 0.930 . S
C793 C791 1.419 1_455 S
C793 C794 1.362 . S
C794 H786 0.930 . S
C794 C793 1.362 . S
C794 C797 1.409 . S
C795 H787 0.930 . S
C795 C796 1.355 . S
C795 C797 1.415 . S
C796 C795 1.355 . S
C796 C798 1.419 1_455 S
C797 C792 1.425 1_455 S
C797 C794 1.409 . S
C797 C795 1.415 . S
C798 H788 0.930 . S
C798 C796 1.419 1_655 S
C798 C799 1.362 . S
C799 H789 0.930 . S
C799 C792 1.409 . S
C799 C798 1.362 . S
H800 C806 0.930 . S
H801 C809 0.930 . S
H802 C810 0.930 . S
H803 C811 0.930 . S
H804 C814 0.930 . S
H805 C815 0.930 . S
C806 H800 0.930 . S
C806 C807 1.355 . S
C806 C808 1.415 . S
C807 C806 1.355 . S
C807 C809 1.419 . S
C808 C806 1.415 . S
C808 C813 1.425 . S
C808 C815 1.409 . S
C809 H801 0.930 . S
C809 C807 1.419 . S
C809 C810 1.362 . S
C810 H802 0.930 . S
C810 C809 1.362 . S
C810 C813 1.409 . S
C811 H803 0.930 . S
C811 C812 1.355 . S
C811 C813 1.415 . S
C812 C811 1.355 . S
C812 C814 1.419 . S
C813 C808 1.425 . S
C813 C810 1.409 . S
C813 C811 1.415 . S
C814 H804 0.930 . S
C814 C812 1.419 . S
C814 C815 1.362 . S
C815 H805 0.930 . S
C815 C808 1.409 . S
C815 C814 1.362 . S
C439 C4 0.771 . S
C444 C254 0.756 . S
C455 C40 0.797 . S
C460 C290 0.741 1_565 S
C471 C86 0.770 . S
C476 C218 0.873 1_455 S
C487 C398 0.801 . S
C492 C122 0.869 . S
C503 C148 0.729 . S
C508 C326 0.785 1_565 S
C519 C362 0.777 1_455 S
C524 C184 0.822 . S
C535 C38 0.746 . S
C540 C220 0.791 . S
C551 C256 0.788 . S
C556 C75 0.765 . S
C567 C2 0.801 1_655 S
C572 C292 0.824 . S
C583 C328 0.830 . S
C588 C182 0.871 . S
C599 C364 0.689 . S
C604 C111 0.729 . S
C615 C146 0.781 1_655 S
C620 C400 0.728 . S
C631 C194 1.531 . S
C636 C14 1.551 . S
C647 C50 1.508 . S
C652 C112 1.599 . S
C663 C76 1.599 . S
C668 C158 1.490 . S
C679 C230 1.538 . S
C684 C410 1.488 . S
C695 C266 1.520 . S
C700 C338 1.532 . S
C711 C302 1.530 . S
C716 C374 1.461 . S
C727 C3 1.673 . S
C732 C219 1.674 . S
C743 C39 1.657 . S
C748 C255 1.655 . S
C759 C74 1.626 . S
C764 C291 1.677 . S
C775 C110 1.672 . S
C780 C327 1.713 . S
C791 C363 1.614 . S
C796 C147 1.618 . S
C807 C183 1.639 . S
C812 C399 1.640 . S
