# Generated by pormake.
# Topology vcp, (7)-cn, num edge types: 1
# Building blocks:
#     Node 0, Type 0, BuildingBlock: HICVOG_clean_sbu_0, # of connection points: 7
#     Node 1, Type 0, BuildingBlock: HICVOG_clean_sbu_0, # of connection points: 7
#     Node 2, Type 0, BuildingBlock: HICVOG_clean_sbu_0, # of connection points: 7
#     Node 3, Type 0, BuildingBlock: HICVOG_clean_sbu_0, # of connection points: 7
#     Node 4, Type 0, BuildingBlock: HICVOG_clean_sbu_0, # of connection points: 7
#     Node 5, Type 0, BuildingBlock: HICVOG_clean_sbu_0, # of connection points: 7
#     Node 6, Type 0, BuildingBlock: HICVOG_clean_sbu_0, # of connection points: 7
#     Node 7, Type 0, BuildingBlock: HICVOG_clean_sbu_0, # of connection points: 7
#     Node 8, Type 0, BuildingBlock: HICVOG_clean_sbu_0, # of connection points: 7
#     Node 9, Type 0, BuildingBlock: HICVOG_clean_sbu_0, # of connection points: 7
#     Node 10, Type 0, BuildingBlock: HICVOG_clean_sbu_0, # of connection points: 7
#     Node 11, Type 0, BuildingBlock: HICVOG_clean_sbu_0, # of connection points: 7
#     Node 12, Type 0, BuildingBlock: HICVOG_clean_sbu_0, # of connection points: 7
#     Node 13, Type 0, BuildingBlock: HICVOG_clean_sbu_0, # of connection points: 7
#     Node 14, Type 0, BuildingBlock: HICVOG_clean_sbu_0, # of connection points: 7
#     Node 15, Type 0, BuildingBlock: HICVOG_clean_sbu_0, # of connection points: 7
#     Edge 16, Type (0, 0), BuildingBlock: UVAHIK_clean_linker_0, # of connection points: 2
#     Edge 17, Type (0, 0), BuildingBlock: UVAHIK_clean_linker_0, # of connection points: 2
#     Edge 18, Type (0, 0), BuildingBlock: UVAHIK_clean_linker_0, # of connection points: 2
#     Edge 19, Type (0, 0), BuildingBlock: UVAHIK_clean_linker_0, # of connection points: 2
#     Edge 20, Type (0, 0), BuildingBlock: UVAHIK_clean_linker_0, # of connection points: 2
#     Edge 21, Type (0, 0), BuildingBlock: UVAHIK_clean_linker_0, # of connection points: 2
#     Edge 22, Type (0, 0), BuildingBlock: UVAHIK_clean_linker_0, # of connection points: 2
#     Edge 23, Type (0, 0), BuildingBlock: UVAHIK_clean_linker_0, # of connection points: 2
#     Edge 24, Type (0, 0), BuildingBlock: UVAHIK_clean_linker_0, # of connection points: 2
#     Edge 25, Type (0, 0), BuildingBlock: UVAHIK_clean_linker_0, # of connection points: 2
#     Edge 26, Type (0, 0), BuildingBlock: UVAHIK_clean_linker_0, # of connection points: 2
#     Edge 27, Type (0, 0), BuildingBlock: UVAHIK_clean_linker_0, # of connection points: 2
#     Edge 28, Type (0, 0), BuildingBlock: UVAHIK_clean_linker_0, # of connection points: 2
#     Edge 29, Type (0, 0), BuildingBlock: UVAHIK_clean_linker_0, # of connection points: 2
#     Edge 30, Type (0, 0), BuildingBlock: UVAHIK_clean_linker_0, # of connection points: 2
#     Edge 31, Type (0, 0), BuildingBlock: UVAHIK_clean_linker_0, # of connection points: 2
#     Edge 32, Type (0, 0), BuildingBlock: UVAHIK_clean_linker_0, # of connection points: 2
#     Edge 33, Type (0, 0), BuildingBlock: UVAHIK_clean_linker_0, # of connection points: 2
#     Edge 34, Type (0, 0), BuildingBlock: UVAHIK_clean_linker_0, # of connection points: 2
#     Edge 35, Type (0, 0), BuildingBlock: UVAHIK_clean_linker_0, # of connection points: 2
#     Edge 36, Type (0, 0), BuildingBlock: UVAHIK_clean_linker_0, # of connection points: 2
#     Edge 37, Type (0, 0), BuildingBlock: UVAHIK_clean_linker_0, # of connection points: 2
#     Edge 38, Type (0, 0), BuildingBlock: UVAHIK_clean_linker_0, # of connection points: 2
#     Edge 39, Type (0, 0), BuildingBlock: UVAHIK_clean_linker_0, # of connection points: 2
#     Edge 40, Type (0, 0), BuildingBlock: UVAHIK_clean_linker_0, # of connection points: 2
#     Edge 41, Type (0, 0), BuildingBlock: UVAHIK_clean_linker_0, # of connection points: 2
#     Edge 42, Type (0, 0), BuildingBlock: UVAHIK_clean_linker_0, # of connection points: 2
#     Edge 43, Type (0, 0), BuildingBlock: UVAHIK_clean_linker_0, # of connection points: 2
#     Edge 44, Type (0, 0), BuildingBlock: UVAHIK_clean_linker_0, # of connection points: 2
#     Edge 45, Type (0, 0), BuildingBlock: UVAHIK_clean_linker_0, # of connection points: 2
#     Edge 46, Type (0, 0), BuildingBlock: UVAHIK_clean_linker_0, # of connection points: 2
#     Edge 47, Type (0, 0), BuildingBlock: UVAHIK_clean_linker_0, # of connection points: 2
#     Edge 48, Type (0, 0), BuildingBlock: UVAHIK_clean_linker_0, # of connection points: 2
#     Edge 49, Type (0, 0), BuildingBlock: UVAHIK_clean_linker_0, # of connection points: 2
#     Edge 50, Type (0, 0), BuildingBlock: UVAHIK_clean_linker_0, # of connection points: 2
#     Edge 51, Type (0, 0), BuildingBlock: UVAHIK_clean_linker_0, # of connection points: 2
#     Edge 52, Type (0, 0), BuildingBlock: UVAHIK_clean_linker_0, # of connection points: 2
#     Edge 53, Type (0, 0), BuildingBlock: UVAHIK_clean_linker_0, # of connection points: 2
#     Edge 54, Type (0, 0), BuildingBlock: UVAHIK_clean_linker_0, # of connection points: 2
#     Edge 55, Type (0, 0), BuildingBlock: UVAHIK_clean_linker_0, # of connection points: 2
#     Edge 56, Type (0, 0), BuildingBlock: UVAHIK_clean_linker_0, # of connection points: 2
#     Edge 57, Type (0, 0), BuildingBlock: UVAHIK_clean_linker_0, # of connection points: 2
#     Edge 58, Type (0, 0), BuildingBlock: UVAHIK_clean_linker_0, # of connection points: 2
#     Edge 59, Type (0, 0), BuildingBlock: UVAHIK_clean_linker_0, # of connection points: 2
#     Edge 60, Type (0, 0), BuildingBlock: UVAHIK_clean_linker_0, # of connection points: 2
#     Edge 61, Type (0, 0), BuildingBlock: UVAHIK_clean_linker_0, # of connection points: 2
#     Edge 62, Type (0, 0), BuildingBlock: UVAHIK_clean_linker_0, # of connection points: 2
#     Edge 63, Type (0, 0), BuildingBlock: UVAHIK_clean_linker_0, # of connection points: 2
#     Edge 64, Type (0, 0), BuildingBlock: UVAHIK_clean_linker_0, # of connection points: 2
#     Edge 65, Type (0, 0), BuildingBlock: UVAHIK_clean_linker_0, # of connection points: 2
#     Edge 66, Type (0, 0), BuildingBlock: UVAHIK_clean_linker_0, # of connection points: 2
#     Edge 67, Type (0, 0), BuildingBlock: UVAHIK_clean_linker_0, # of connection points: 2
#     Edge 68, Type (0, 0), BuildingBlock: UVAHIK_clean_linker_0, # of connection points: 2
#     Edge 69, Type (0, 0), BuildingBlock: UVAHIK_clean_linker_0, # of connection points: 2
#     Edge 70, Type (0, 0), BuildingBlock: UVAHIK_clean_linker_0, # of connection points: 2
#     Edge 71, Type (0, 0), BuildingBlock: UVAHIK_clean_linker_0, # of connection points: 2
# Relax obj value: 0.179
# Max RMSD: 0.215
# Mean RMSD: 0.215
data_MOF--net-vcp--node1-HICVOG_clean_sbu_0--edge1-UVAHIK_clean_linker_0
_symmetry_space_group_name_H-M    P1
_symmetry_Int_Tables_number       1
_symmetry_cell_setting            triclinic
loop_
_symmetry_equiv_pos_as_xyz
'x, y, z'
_cell_length_a     95.852069
_cell_length_b     34.835178
_cell_length_c     42.644276
_cell_angle_alpha  90.045556
_cell_angle_beta   90.014575
_cell_angle_gamma 89.986014
loop_
_atom_site_label
_atom_site_type_symbol
_atom_site_fract_x
_atom_site_fract_y
_atom_site_fract_z
_atom_type_partial_charge
Zn0 Zn 0.11754 0.08956 0.44722 0.0
C1 C 0.14137 0.15197 0.38858 0.0
N2 N 0.1372 0.18076 0.40736 0.0
C3 C 0.13026 0.16213 0.43 0.0
N4 N 0.12998 0.12392 0.42517 0.0
N5 N 0.13718 0.11724 0.39919 0.0
C6 C 0.13692 0.04928 0.32862 0.0
O7 O 0.12567 0.04427 0.34574 0.0
O8 O 0.12065 0.09217 0.49396 0.0
Zn9 Zn 0.14689 0.06959 0.38878 0.0
N10 N 0.09829 0.10333 0.43743 0.0
C11 C 0.08257 0.14056 0.40679 0.0
C12 C 0.09611 0.13006 0.41474 0.0
C13 C 0.08734 0.08595 0.45214 0.0
N14 N 0.07168 0.12339 0.42141 0.0
C15 C 0.07354 0.09604 0.44384 0.0
O16 O 0.13809 0.02036 0.40569 0.0
C17 C 0.1277 0.00997 0.42227 0.0
O18 O 0.12004 0.0342 0.4364 0.0
H19 H 0.10481 0.14308 0.4027 0.0
H20 H 0.08944 0.06485 0.47011 0.0
C21 C 0.17757 0.0628 0.3922 0.0
C22 C 0.19055 0.07191 0.40592 0.0
C23 C 0.17881 0.10402 0.44731 0.0
C24 C 0.16603 0.09511 0.43371 0.0
N25 N 0.16559 0.07516 0.4063 0.0
N26 N 0.19072 0.09249 0.43306 0.0
H27 H 0.17703 0.04717 0.37029 0.0
C28 C 0.13156 0.07601 0.5046 0.0
O29 O 0.14058 0.0614 0.48468 0.0
O30 O 0.14789 0.06205 0.34178 0.0
H31 H 0.1565 0.10467 0.44471 0.0
H32 H 0.0807 0.16197 0.38892 0.0
H33 H 0.17927 0.12024 0.46892 0.0
Zn34 Zn 0.40321 0.92351 0.44529 0.0
C35 C 0.37882 0.85916 0.38898 0.0
N36 N 0.38311 0.83115 0.40837 0.0
C37 C 0.39052 0.85056 0.4298 0.0
N38 N 0.39085 0.88848 0.42388 0.0
N39 N 0.38324 0.89428 0.39832 0.0
C40 C 0.38378 0.9621 0.32792 0.0
O41 O 0.39482 0.96754 0.34566 0.0
O42 O 0.40103 0.91937 0.49226 0.0
Zn43 Zn 0.37332 0.94161 0.38753 0.0
N44 N 0.4224 0.91233 0.43318 0.0
C45 C 0.43783 0.87974 0.39854 0.0
C46 C 0.42438 0.88765 0.40888 0.0
C47 C 0.43344 0.92996 0.44739 0.0
N48 N 0.44881 0.89727 0.41256 0.0
C49 C 0.44714 0.92238 0.43678 0.0
O50 O 0.38154 0.99151 0.40496 0.0
C51 C 0.39176 1.00243 0.42187 0.0
O52 O 0.39968 0.97857 0.43565 0.0
H53 H 0.41557 0.87444 0.39736 0.0
H54 H 0.43146 0.95034 0.466 0.0
C55 C 0.34264 0.94917 0.39048 0.0
C56 C 0.32954 0.94026 0.40375 0.0
C57 C 0.34094 0.90487 0.44384 0.0
C58 C 0.35382 0.91379 0.43079 0.0
N59 N 0.35449 0.93525 0.40421 0.0
N60 N 0.32916 0.91811 0.43002 0.0
H61 H 0.3434 0.96611 0.36929 0.0
C62 C 0.38973 0.93197 0.50403 0.0
O63 O 0.37979 0.94361 0.48505 0.0
O64 O 0.37272 0.94907 0.34049 0.0
H65 H 0.36324 0.90321 0.44164 0.0
H66 H 0.43955 0.86009 0.37926 0.0
H67 H 0.34028 0.88746 0.46479 0.0
Zn68 Zn 0.61751 0.92155 0.05691 0.0
C69 C 0.64102 0.85772 0.11534 0.0
N70 N 0.6364 0.82919 0.09682 0.0
C71 C 0.62948 0.84826 0.0744 0.0
N72 N 0.6297 0.8865 0.079 0.0
N73 N 0.63718 0.89276 0.10469 0.0
C74 C 0.63704 0.96046 0.17509 0.0
O75 O 0.62581 0.96534 0.15787 0.0
O76 O 0.62036 0.91877 0.01005 0.0
Zn77 Zn 0.6471 0.94017 0.11506 0.0
N78 N 0.5982 0.90901 0.06705 0.0
C79 C 0.58231 0.8736 0.09864 0.0
C80 C 0.5959 0.88325 0.09042 0.0
C81 C 0.58732 0.92622 0.0519 0.0
N82 N 0.5715 0.89061 0.08358 0.0
C83 C 0.57348 0.91699 0.06044 0.0
O84 O 0.6386 0.98988 0.09809 0.0
C85 C 0.62826 1.00069 0.08148 0.0
O86 O 0.62044 0.97675 0.06749 0.0
H87 H 0.60454 0.87037 0.10278 0.0
H88 H 0.58952 0.94653 0.03338 0.0
C89 C 0.67768 0.94792 0.11127 0.0
C90 C 0.69073 0.93935 0.09757 0.0
C91 C 0.67918 0.90439 0.05741 0.0
C92 C 0.66635 0.91298 0.0709 0.0
N93 N 0.66579 0.9341 0.0977 0.0
N94 N 0.69101 0.91758 0.07105 0.0
H95 H 0.677 0.96453 0.13267 0.0
C96 C 0.63131 0.93423 0.99889 0.0
O97 O 0.64068 0.94802 0.01837 0.0
O98 O 0.64805 0.94776 0.16205 0.0
H99 H 0.65688 0.90241 0.06022 0.0
H100 H 0.58034 0.85297 0.11706 0.0
H101 H 0.67975 0.88729 0.03626 0.0
Zn102 Zn 0.90273 0.08823 0.05592 0.0
C103 C 0.87921 0.15388 0.11309 0.0
N104 N 0.88372 0.18175 0.09381 0.0
C105 C 0.8908 0.16195 0.07205 0.0
N106 N 0.89072 0.12394 0.07765 0.0
N107 N 0.88321 0.11854 0.10339 0.0
C108 C 0.88347 0.05081 0.17375 0.0
O109 O 0.89441 0.0447 0.15587 0.0
O110 O 0.90047 0.09275 0.00901 0.0
Zn111 Zn 0.87302 0.07182 0.11434 0.0
N112 N 0.922 0.09876 0.06779 0.0
C113 C 0.93756 0.13053 0.10266 0.0
C114 C 0.92406 0.12204 0.09297 0.0
C115 C 0.93301 0.08282 0.05222 0.0
N116 N 0.94852 0.11484 0.08718 0.0
C117 C 0.94676 0.09088 0.06222 0.0
O118 O 0.88095 0.02169 0.09697 0.0
C119 C 0.89087 0.0099 0.07956 0.0
O120 O 0.89889 0.03312 0.06534 0.0
H121 H 0.91528 0.13398 0.1055 0.0
H122 H 0.93101 0.06446 0.03226 0.0
C123 C 0.84231 0.06578 0.1117 0.0
C124 C 0.82925 0.0757 0.09876 0.0
C125 C 0.84075 0.11044 0.05851 0.0
C126 C 0.85361 0.1006 0.07127 0.0
N127 N 0.85421 0.07903 0.09781 0.0
N128 N 0.82892 0.09801 0.07259 0.0
H129 H 0.84299 0.04868 0.13282 0.0
C130 C 0.88913 0.08036 0.99727 0.0
O131 O 0.8792 0.06883 0.01627 0.0
O132 O 0.87247 0.06449 0.16133 0.0
H133 H 0.86307 0.11063 0.06026 0.0
H134 H 0.93934 0.14926 0.12251 0.0
H135 H 0.84016 0.12798 0.03763 0.0
Zn136 Zn 0.90289 0.92254 0.5557 0.0
C137 C 0.87996 0.85739 0.61433 0.0
N138 N 0.88468 0.82911 0.5957 0.0
C139 C 0.8914 0.84852 0.57316 0.0
N140 N 0.89094 0.88677 0.57777 0.0
N141 N 0.88354 0.89261 0.60364 0.0
C142 C 0.88372 0.96013 0.67398 0.0
O143 O 0.89475 0.96565 0.65626 0.0
O144 O 0.90023 0.91902 0.50885 0.0
Zn145 Zn 0.87335 0.93941 0.61439 0.0
N146 N 0.92226 0.91115 0.56634 0.0
C147 C 0.93814 0.87678 0.59874 0.0
C148 C 0.92456 0.88605 0.59018 0.0
C149 C 0.93314 0.92813 0.55103 0.0
N150 N 0.94896 0.89348 0.5835 0.0
C151 C 0.94698 0.91923 0.55989 0.0
O152 O 0.8814 0.98943 0.59717 0.0
C153 C 0.8914 1.00113 0.57996 0.0
O154 O 0.89938 0.97782 0.5657 0.0
H155 H 0.91592 0.87332 0.60263 0.0
H156 H 0.93097 0.94793 0.53213 0.0
C157 C 0.84264 0.94518 0.61149 0.0
C158 C 0.82963 0.93533 0.59827 0.0
C159 C 0.84128 0.90142 0.55772 0.0
C160 C 0.8541 0.91117 0.57076 0.0
N161 N 0.8546 0.93231 0.59756 0.0
N162 N 0.8294 0.91348 0.57181 0.0
H163 H 0.84324 0.9619 0.63285 0.0
C164 C 0.88914 0.93352 0.49749 0.0
O165 O 0.87958 0.94664 0.51682 0.0
O166 O 0.87268 0.94689 0.6614 0.0
H167 H 0.86361 0.90142 0.55976 0.0
H168 H 0.9401 0.85665 0.61754 0.0
H169 H 0.84077 0.88423 0.53661 0.0
Zn170 Zn 0.61785 0.08777 0.55659 0.0
C171 C 0.64129 0.15366 0.61383 0.0
N172 N 0.63685 0.18145 0.59439 0.0
C173 C 0.6298 0.1616 0.5726 0.0
N174 N 0.62983 0.12361 0.57835 0.0
N175 N 0.6373 0.11829 0.60418 0.0
C176 C 0.63698 0.05044 0.67478 0.0
O177 O 0.62609 0.04387 0.65682 0.0
O178 O 0.62013 0.09233 0.50969 0.0
Zn179 Zn 0.64749 0.07161 0.61536 0.0
N180 N 0.59854 0.09784 0.56853 0.0
C181 C 0.58292 0.12955 0.60331 0.0
C182 C 0.59641 0.12218 0.593 0.0
C183 C 0.58759 0.08002 0.5541 0.0
N184 N 0.57204 0.11184 0.58907 0.0
C185 C 0.57384 0.08706 0.56468 0.0
O186 O 0.63966 0.02138 0.59791 0.0
C187 C 0.62983 0.00952 0.58027 0.0
O188 O 0.62183 0.0327 0.56595 0.0
H189 H 0.60514 0.13556 0.60471 0.0
H190 H 0.58967 0.05995 0.53532 0.0
C191 C 0.67814 0.06423 0.61271 0.0
C192 C 0.6913 0.07338 0.59983 0.0
C193 C 0.68008 0.11021 0.56036 0.0
C194 C 0.66714 0.101 0.573 0.0
N195 N 0.66636 0.07871 0.59911 0.0
N196 N 0.69179 0.09637 0.57406 0.0
H197 H 0.67728 0.04659 0.6335 0.0
C198 C 0.63164 0.08078 0.49822 0.0
O199 O 0.64162 0.0701 0.51748 0.0
O200 O 0.64794 0.06441 0.6624 0.0
H201 H 0.65777 0.11196 0.56217 0.0
H202 H 0.58109 0.14892 0.62271 0.0
H203 H 0.68082 0.12826 0.53979 0.0
Zn204 Zn 0.37365 0.07053 0.88757 0.0
C205 C 0.3911 0.16196 0.92909 0.0
N206 N 0.38384 0.18126 0.90734 0.0
C207 C 0.37939 0.15302 0.88832 0.0
N208 N 0.38358 0.11791 0.89817 0.0
N209 N 0.39117 0.1239 0.92371 0.0
C210 C 0.3896 0.07965 0.00411 0.0
O211 O 0.37991 0.06697 0.98493 0.0
O212 O 0.37298 0.06293 0.84055 0.0
Zn213 Zn 0.40334 0.08897 0.94568 0.0
N214 N 0.35488 0.07716 0.90442 0.0
C215 C 0.34154 0.10784 0.94433 0.0
C216 C 0.35436 0.09825 0.93125 0.0
C217 C 0.34294 0.06422 0.89049 0.0
N218 N 0.32967 0.09571 0.93024 0.0
C219 C 0.32992 0.07393 0.90375 0.0
O220 O 0.39999 0.03387 0.93587 0.0
C221 C 0.39215 0.0099 0.92199 0.0
O222 O 0.38192 0.02068 0.90502 0.0
H223 H 0.36386 0.10814 0.94221 0.0
H224 H 0.34355 0.04757 0.86909 0.0
C225 C 0.43354 0.08405 0.95002 0.0
C226 C 0.44734 0.09254 0.94065 0.0
C227 C 0.43834 0.13349 0.90091 0.0
C228 C 0.42479 0.12453 0.90993 0.0
N229 N 0.42261 0.10042 0.93449 0.0
N230 N 0.44923 0.11737 0.91636 0.0
H231 H 0.43145 0.06496 0.96944 0.0
C232 C 0.38407 0.0501 0.8279 0.0
O233 O 0.39514 0.04494 0.84556 0.0
O234 O 0.4008 0.09318 0.99258 0.0
H235 H 0.41607 0.13675 0.89737 0.0
H236 H 0.34102 0.12499 0.96546 0.0
H237 H 0.44022 0.1529 0.88158 0.0
Zn238 Zn 0.1179 0.92436 0.9466 0.0
C239 C 0.14111 0.85839 0.88902 0.0
N240 N 0.13639 0.83051 0.90802 0.0
C241 C 0.12942 0.85039 0.92991 0.0
N242 N 0.12976 0.88845 0.92466 0.0
N243 N 0.13734 0.8938 0.89901 0.0
C244 C 0.13751 0.9619 0.82876 0.0
O245 O 0.12654 0.96867 0.84641 0.0
O246 O 0.12028 0.91961 0.99346 0.0
Zn247 Zn 0.14767 0.94031 0.88832 0.0
N248 N 0.09858 0.91419 0.9349 0.0
C249 C 0.08292 0.88287 0.89996 0.0
C250 C 0.09645 0.89121 0.90957 0.0
C251 C 0.0876 0.93002 0.95069 0.0
N252 N 0.072 0.89844 0.91567 0.0
C253 C 0.07383 0.92212 0.94077 0.0
O254 O 0.13985 0.99057 0.90571 0.0
C255 C 0.12995 1.00254 0.92313 0.0
O256 O 0.12187 0.97946 0.93729 0.0
H257 H 0.10519 0.87938 0.89684 0.0
H258 H 0.08965 0.94817 0.97076 0.0
C259 C 0.17829 0.94705 0.89139 0.0
C260 C 0.1914 0.93766 0.90437 0.0
C261 C 0.18004 0.90104 0.94375 0.0
C262 C 0.16714 0.91047 0.93099 0.0
N263 N 0.16645 0.93281 0.90489 0.0
N264 N 0.19181 0.91466 0.93015 0.0
H265 H 0.1775 0.96467 0.87057 0.0
C266 C 0.13177 0.93132 0.00494 0.0
O267 O 0.14169 0.94235 0.98571 0.0
O268 O 0.14835 0.94765 0.8414 0.0
H269 H 0.15773 0.89962 0.94168 0.0
H270 H 0.08109 0.86437 0.87999 0.0
H271 H 0.18071 0.88296 0.96431 0.0
Zn272 Zn 0.61754 0.58959 0.44682 0.0
C273 C 0.64121 0.65354 0.38881 0.0
N274 N 0.63668 0.682 0.40749 0.0
C275 C 0.6297 0.66289 0.4298 0.0
N276 N 0.6298 0.62468 0.42495 0.0
N277 N 0.63727 0.61849 0.39925 0.0
C278 C 0.63734 0.5507 0.32878 0.0
O279 O 0.62611 0.54549 0.34592 0.0
O280 O 0.62037 0.59223 0.49371 0.0
Zn281 Zn 0.64726 0.57117 0.3889 0.0
N282 N 0.59822 0.60202 0.43639 0.0
C283 C 0.58241 0.63763 0.40471 0.0
C284 C 0.59597 0.6288 0.41378 0.0
C285 C 0.58732 0.58323 0.45014 0.0
N286 N 0.57159 0.61892 0.41825 0.0
C287 C 0.57352 0.59175 0.44079 0.0
O288 O 0.63879 0.52139 0.40578 0.0
C289 C 0.62842 0.51053 0.42223 0.0
O290 O 0.62055 0.53443 0.43614 0.0
H291 H 0.60463 0.64292 0.40245 0.0
H292 H 0.58948 0.56128 0.4674 0.0
C293 C 0.67792 0.56477 0.3926 0.0
C294 C 0.69089 0.57424 0.40624 0.0
C295 C 0.6791 0.60756 0.44691 0.0
C296 C 0.66633 0.59823 0.43344 0.0
N297 N 0.66592 0.57753 0.4064 0.0
N298 N 0.69103 0.59561 0.43296 0.0
H299 H 0.6774 0.54847 0.37101 0.0
C300 C 0.6314 0.57687 0.5046 0.0
O301 O 0.6407 0.56329 0.48486 0.0
O302 O 0.64829 0.56367 0.34191 0.0
H303 H 0.65678 0.60801 0.44425 0.0
H304 H 0.58049 0.65891 0.38675 0.0
H305 H 0.67953 0.62438 0.46822 0.0
Zn306 Zn 0.90281 0.42242 0.44705 0.0
C307 C 0.87973 0.35712 0.38878 0.0
N308 N 0.88441 0.32889 0.40749 0.0
C309 C 0.89114 0.34835 0.43002 0.0
N310 N 0.89073 0.38659 0.42532 0.0
N311 N 0.88334 0.39235 0.39943 0.0
C312 C 0.88359 0.46029 0.3291 0.0
O313 O 0.89451 0.46664 0.34701 0.0
O314 O 0.90052 0.41882 0.494 0.0
Zn315 Zn 0.87316 0.43913 0.38854 0.0
N316 N 0.92212 0.4116 0.4354 0.0
C317 C 0.93776 0.37829 0.40166 0.0
C318 C 0.92426 0.38611 0.41172 0.0
C319 C 0.93307 0.43002 0.44932 0.0
N320 N 0.94864 0.39664 0.41537 0.0
C321 C 0.94681 0.42248 0.439 0.0
O322 O 0.88111 0.48924 0.4059 0.0
C323 C 0.89107 0.50095 0.42323 0.0
O324 O 0.89908 0.47765 0.4374 0.0
H325 H 0.91556 0.37224 0.40034 0.0
H326 H 0.93099 0.45091 0.4675 0.0
C327 C 0.84253 0.44651 0.39151 0.0
C328 C 0.8294 0.43741 0.40456 0.0
C329 C 0.84072 0.40084 0.44406 0.0
C330 C 0.85362 0.41 0.43125 0.0
N331 N 0.85435 0.43213 0.40504 0.0
N332 N 0.82897 0.41456 0.43042 0.0
H333 H 0.84334 0.46403 0.37064 0.0
C334 C 0.88934 0.43251 0.50558 0.0
O335 O 0.87955 0.44464 0.48643 0.0
O336 O 0.87262 0.44644 0.3415 0.0
H337 H 0.86302 0.39914 0.44202 0.0
H338 H 0.9396 0.35806 0.38285 0.0
H339 H 0.84002 0.38291 0.4647 0.0
Zn340 Zn 0.14712 0.44293 0.11417 0.0
C341 C 0.13048 0.35024 0.073 0.0
N342 N 0.13739 0.33163 0.09572 0.0
C343 C 0.14161 0.36047 0.1144 0.0
N344 N 0.13749 0.39519 0.10364 0.0
N345 N 0.13027 0.38848 0.07767 0.0
C346 C 0.1315 0.43615 0.99783 0.0
O347 O 0.14066 0.45089 0.01736 0.0
O348 O 0.14803 0.4505 0.16118 0.0
Zn349 Zn 0.11778 0.42278 0.05571 0.0
N350 N 0.16585 0.43749 0.09677 0.0
C351 C 0.17908 0.40895 0.05565 0.0
C352 C 0.1663 0.41778 0.06925 0.0
C353 C 0.17783 0.44971 0.11099 0.0
N354 N 0.19099 0.42033 0.07001 0.0
C355 C 0.19081 0.44069 0.09725 0.0
O356 O 0.12033 0.47816 0.06633 0.0
C357 C 0.12796 0.50245 0.08045 0.0
O358 O 0.13833 0.49214 0.09716 0.0
H359 H 0.15677 0.40836 0.05816 0.0
H360 H 0.17728 0.46517 0.13298 0.0
C361 C 0.0876 0.42661 0.0511 0.0
C362 C 0.0738 0.41666 0.05948 0.0
C363 C 0.08284 0.3722 0.09658 0.0
C364 C 0.09639 0.38256 0.08854 0.0
N365 N 0.09855 0.4092 0.06578 0.0
N366 N 0.07195 0.38941 0.08198 0.0
H367 H 0.08969 0.44764 0.03306 0.0
C368 C 0.13699 0.46308 0.1742 0.0
O369 O 0.12577 0.46788 0.15695 0.0
O370 O 0.12068 0.41998 0.00893 0.0
H371 H 0.10509 0.3695 0.10054 0.0
H372 H 0.17955 0.39291 0.03395 0.0
H373 H 0.08098 0.35085 0.11451 0.0
Zn374 Zn 0.37363 0.57033 0.1167 0.0
C375 C 0.39109 0.66188 0.07548 0.0
N376 N 0.3838 0.68111 0.09722 0.0
C377 C 0.37933 0.65282 0.11613 0.0
N378 N 0.38354 0.61775 0.10621 0.0
N379 N 0.39118 0.62381 0.08075 0.0
C380 C 0.38931 0.57944 1.00066 0.0
O381 O 0.37974 0.5669 0.02018 0.0
O382 O 0.37282 0.56274 0.16371 0.0
Zn383 Zn 0.40335 0.5889 0.05865 0.0
N384 N 0.35486 0.57662 0.09966 0.0
C385 C 0.34139 0.60714 0.05992 0.0
C386 C 0.35424 0.59823 0.07315 0.0
C387 C 0.34298 0.56261 0.11318 0.0
N388 N 0.32959 0.59381 0.07353 0.0
C389 C 0.32991 0.57156 0.09975 0.0
O390 O 0.4001 0.53379 0.06861 0.0
C391 C 0.39228 0.50982 0.08251 0.0
O392 O 0.38202 0.52058 0.09939 0.0
H393 H 0.36369 0.60896 0.06251 0.0
H394 H 0.34369 0.54561 0.13434 0.0
C395 C 0.43359 0.5843 0.05396 0.0
C396 C 0.44739 0.59291 0.06327 0.0
C397 C 0.43838 0.63378 0.10312 0.0
C398 C 0.42483 0.62469 0.09415 0.0
N399 N 0.42265 0.60057 0.06957 0.0
N400 N 0.44927 0.61776 0.08759 0.0
H401 H 0.43149 0.56519 0.03453 0.0
C402 C 0.38382 0.54976 0.17664 0.0
O403 O 0.39498 0.54446 0.15928 0.0
O404 O 0.40061 0.59291 0.01181 0.0
H405 H 0.41611 0.63681 0.10679 0.0
H406 H 0.34079 0.62464 0.03902 0.0
H407 H 0.44026 0.6532 0.12247 0.0
Zn408 Zn 0.40336 0.42368 0.55873 0.0
C409 C 0.37914 0.35948 0.61545 0.0
N410 N 0.3834 0.3314 0.59605 0.0
C411 C 0.39075 0.35076 0.57451 0.0
N412 N 0.39107 0.3887 0.58037 0.0
N413 N 0.38352 0.39457 0.60601 0.0
C414 C 0.38374 0.46266 0.67665 0.0
O415 O 0.39487 0.46835 0.65929 0.0
O416 O 0.40091 0.41963 0.51178 0.0
Zn417 Zn 0.37359 0.4419 0.61669 0.0
N418 N 0.42259 0.41229 0.57038 0.0
C419 C 0.43814 0.37917 0.60439 0.0
C420 C 0.42465 0.38733 0.59441 0.0
C421 C 0.43359 0.43007 0.55615 0.0
N422 N 0.44907 0.3968 0.59032 0.0
C423 C 0.44732 0.42226 0.5664 0.0
O424 O 0.38188 0.49177 0.59943 0.0
C425 C 0.39209 0.50267 0.58249 0.0
O426 O 0.39995 0.47879 0.56857 0.0
H427 H 0.41588 0.37405 0.60602 0.0
H428 H 0.43154 0.45071 0.53779 0.0
C429 C 0.34297 0.44961 0.61332 0.0
C430 C 0.32987 0.44082 0.59991 0.0
C431 C 0.3413 0.40524 0.55994 0.0
C432 C 0.35416 0.41404 0.57313 0.0
N433 N 0.35482 0.43557 0.59971 0.0
N434 N 0.32951 0.41864 0.57363 0.0
H435 H 0.34372 0.46656 0.63453 0.0
C436 C 0.38956 0.43251 0.50045 0.0
O437 O 0.37982 0.4444 0.51983 0.0
O438 O 0.37279 0.44937 0.6637 0.0
H439 H 0.36359 0.40329 0.5624 0.0
H440 H 0.43992 0.35926 0.62344 0.0
H441 H 0.34066 0.3878 0.53899 0.0
Zn442 Zn 0.11771 0.58798 0.55639 0.0
C443 C 0.14116 0.65426 0.61322 0.0
N444 N 0.13652 0.68199 0.59397 0.0
C445 C 0.12948 0.66199 0.57226 0.0
N446 N 0.1297 0.62399 0.57787 0.0
N447 N 0.13728 0.6188 0.60355 0.0
C448 C 0.1372 0.55098 0.67367 0.0
O449 O 0.12633 0.54438 0.65566 0.0
O450 O 0.11977 0.5927 0.50944 0.0
Zn451 Zn 0.14765 0.57239 0.61443 0.0
N452 N 0.09845 0.59776 0.56888 0.0
C453 C 0.08301 0.62889 0.6044 0.0
C454 C 0.09645 0.62165 0.5937 0.0
C455 C 0.08743 0.58023 0.5545 0.0
N456 N 0.07205 0.61148 0.5902 0.0
C457 C 0.07374 0.58714 0.56547 0.0
O458 O 0.13997 0.52202 0.5969 0.0
C459 C 0.13008 0.50996 0.57953 0.0
O460 O 0.1219 0.53296 0.56553 0.0
H461 H 0.10524 0.6348 0.60536 0.0
H462 H 0.08942 0.56051 0.53543 0.0
C463 C 0.17836 0.56712 0.61208 0.0
C464 C 0.19142 0.57748 0.59938 0.0
C465 C 0.1799 0.61244 0.55926 0.0
C466 C 0.16705 0.60217 0.57178 0.0
N467 N 0.16645 0.58027 0.59814 0.0
N468 N 0.19174 0.6001 0.57339 0.0
H469 H 0.17769 0.54976 0.63306 0.0
C470 C 0.13129 0.58144 0.49781 0.0
O471 O 0.14134 0.57094 0.51693 0.0
O472 O 0.14815 0.56507 0.66137 0.0
H473 H 0.15758 0.61213 0.56074 0.0
H474 H 0.08128 0.64792 0.62408 0.0
H475 H 0.18049 0.63024 0.53853 0.0
Zn476 Zn 0.90332 0.58999 0.94711 0.0
C477 C 0.87986 0.65388 0.88866 0.0
N478 N 0.88446 0.68239 0.90721 0.0
C479 C 0.89134 0.6633 0.92967 0.0
N480 N 0.89113 0.62506 0.92506 0.0
N481 N 0.88368 0.61883 0.89933 0.0
C482 C 0.88391 0.55131 0.8292 0.0
O483 O 0.89504 0.54626 0.84674 0.0
O484 O 0.90041 0.59254 0.99398 0.0
Zn485 Zn 0.87371 0.57152 0.88895 0.0
N486 N 0.92265 0.60269 0.93713 0.0
C487 C 0.93853 0.63863 0.90592 0.0
C488 C 0.92494 0.62873 0.91396 0.0
C489 C 0.93353 0.5854 0.95221 0.0
N490 N 0.94934 0.62159 0.92093 0.0
C491 C 0.94736 0.59491 0.94384 0.0
O492 O 0.88219 0.52178 0.9059 0.0
C493 C 0.89257 0.51094 0.92235 0.0
O494 O 0.90042 0.53484 0.93631 0.0
H495 H 0.9163 0.64165 0.90163 0.0
H496 H 0.93135 0.56484 0.97055 0.0
C497 C 0.84301 0.56518 0.89242 0.0
C498 C 0.83004 0.57465 0.90604 0.0
C499 C 0.84183 0.6078 0.94682 0.0
C500 C 0.8546 0.59846 0.93337 0.0
N501 N 0.85501 0.57786 0.90628 0.0
N502 N 0.8299 0.59594 0.9328 0.0
H503 H 0.84354 0.54894 0.8708 0.0
C504 C 0.88949 0.57684 0.00506 0.0
O505 O 0.88019 0.56289 0.98551 0.0
O506 O 0.87284 0.56405 0.84195 0.0
H507 H 0.86415 0.60814 0.94425 0.0
H508 H 0.94049 0.6595 0.88767 0.0
H509 H 0.84139 0.62455 0.96817 0.0
Zn510 Zn 0.61816 0.42349 0.94738 0.0
C511 C 0.64139 0.35807 0.88935 0.0
N512 N 0.63688 0.33007 0.90849 0.0
C513 C 0.62989 0.34973 0.93047 0.0
N514 N 0.63002 0.38781 0.92513 0.0
N515 N 0.63749 0.39337 0.89935 0.0
C516 C 0.63739 0.46148 0.82878 0.0
O517 O 0.62641 0.46797 0.84643 0.0
O518 O 0.62081 0.41896 0.99419 0.0
Zn519 Zn 0.64767 0.44015 0.88845 0.0
N520 N 0.59879 0.41297 0.93631 0.0
C521 C 0.58293 0.38085 0.90233 0.0
C522 C 0.59651 0.38938 0.91143 0.0
C523 C 0.5879 0.42925 0.95213 0.0
N524 N 0.57211 0.39685 0.91807 0.0
C525 C 0.57407 0.42116 0.94271 0.0
O526 O 0.63968 0.49024 0.90581 0.0
C527 C 0.62981 0.50194 0.92342 0.0
O528 O 0.6219 0.47864 0.93783 0.0
H529 H 0.60518 0.37722 0.89866 0.0
H530 H 0.59006 0.4479 0.97182 0.0
C531 C 0.67831 0.44764 0.89156 0.0
C532 C 0.69144 0.4385 0.90461 0.0
C533 C 0.68013 0.40175 0.94398 0.0
C534 C 0.66722 0.41092 0.93115 0.0
N535 N 0.66649 0.43318 0.90502 0.0
N536 N 0.69187 0.41556 0.93041 0.0
H537 H 0.6775 0.46523 0.87073 0.0
C538 C 0.63225 0.43133 0.00545 0.0
O539 O 0.64202 0.44289 0.98602 0.0
O540 O 0.64829 0.44749 0.84143 0.0
H541 H 0.65783 0.39993 0.94184 0.0
H542 H 0.58099 0.36186 0.88273 0.0
H543 H 0.68083 0.38373 0.96457 0.0
C544 C 0.06112 0.0404 0.47034 0.0
C545 C 0.06093 0.07796 0.45814 0.0
C546 C 0.04882 0.02326 0.4814 0.0
C547 C 1.01029 0.03015 0.47431 0.0
H548 H 1.01023 0.96723 0.54919 0.0
C549 C 0.95923 0.97407 0.53206 0.0
C550 C 0.9595 0.93687 0.54493 0.0
C551 C 0.9715 0.99108 0.52069 0.0
C552 C 1.01008 0.98433 0.52799 0.0
H553 H 0.04757 0.12698 0.44882 0.0
H554 H 0.02634 0.09731 0.46821 0.0
H555 H 0.03189 0.99695 0.53171 0.0
H556 H 0.9729 0.88817 0.55495 0.0
H557 H 0.99407 0.91747 0.53488 0.0
H558 H 0.98847 0.01749 0.47057 0.0
C559 C 0.03592 0.08084 0.46879 0.0
C560 C 0.02252 1.0014 0.51798 0.0
C561 C 0.04816 0.09794 0.45779 0.0
C562 C 0.97228 0.91697 0.54548 0.0
C563 C 0.98448 0.93388 0.53411 0.0
C564 C 0.99784 0.01304 0.48431 0.0
C565 C 0.03603 0.04313 0.48043 0.0
C566 C 0.0228 0.0246 0.49103 0.0
C567 C 0.98433 0.97136 0.52195 0.0
C568 C 0.99756 0.98985 0.51127 0.0
H569 H 0.07062 0.02363 0.47045 0.0
H570 H 0.04928 0.99399 0.48988 0.0
H571 H 1.01014 0.04731 0.45315 0.0
H572 H 0.9497 0.99071 0.53176 0.0
H573 H 0.97101 0.02016 0.51181 0.0
C574 C 0.56084 0.05503 0.51974 0.0
C575 C 0.56127 0.06804 0.551 0.0
C576 C 0.54857 0.03912 0.5073 0.0
C577 C 0.51022 0.03638 0.52038 0.0
H578 H 0.51149 0.94802 0.46522 0.0
C579 C 0.46029 0.95446 0.48144 0.0
C580 C 0.45979 0.94121 0.45026 0.0
C581 C 0.47259 0.97034 0.49371 0.0
C582 C 0.51094 0.97299 0.48031 0.0
H583 H 0.54907 0.07356 0.59368 0.0
H584 H 0.52793 0.04575 0.57216 0.0
H585 H 0.53314 0.97445 0.48606 0.0
H586 H 0.47192 0.93513 0.40754 0.0
H587 H 0.49313 0.96295 0.42874 0.0
H588 H 0.48802 0.03494 0.51463 0.0
C589 C 0.53696 0.04842 0.55704 0.0
C590 C 0.52338 0.98816 0.49226 0.0
C591 C 0.54916 0.06426 0.56944 0.0
C592 C 0.47188 0.94465 0.43173 0.0
C593 C 0.48412 0.9605 0.44394 0.0
C594 C 0.49778 0.02122 0.50843 0.0
C595 C 0.53643 0.03592 0.52574 0.0
C596 C 0.5232 0.02002 0.51252 0.0
C597 C 0.48471 0.9733 0.47516 0.0
C598 C 0.49796 0.98932 0.48821 0.0
H599 H 0.5698 0.05804 0.50452 0.0
H600 H 0.5485 0.0302 0.48296 0.0
H601 H 0.50967 0.06133 0.53549 0.0
H602 H 0.45134 0.95168 0.49675 0.0
H603 H 0.47271 0.97945 0.51799 0.0
C604 C 0.47271 0.09494 0.95453 0.0
C605 C 0.4599 0.07528 0.95577 0.0
C606 C 0.48491 0.0783 0.96622 0.0
C607 C 0.49815 1.00095 0.0181 0.0
H608 H 0.53221 0.01431 0.9702 0.0
C609 C 0.54811 0.91542 0.04646 0.0
C610 C 0.56096 0.93496 0.04567 0.0
C611 C 0.53594 0.93254 0.03505 0.0
C612 C 0.52284 0.01064 0.98406 0.0
H613 H 0.45005 0.02209 0.97042 0.0
H614 H 0.47133 0.99315 0.9909 0.0
H615 H 0.51063 0.04395 0.95205 0.0
H616 H 0.57089 0.98849 0.03209 0.0
H617 H 0.54966 0.01816 0.01194 0.0
H618 H 0.51036 0.96752 0.05005 0.0
C619 C 0.47186 0.02186 0.98126 0.0
C620 C 0.51044 0.02767 0.97366 0.0
C621 C 0.4596 0.03858 0.96958 0.0
C622 C 0.56131 0.97206 0.03258 0.0
C623 C 0.54909 0.98922 0.0211 0.0
C624 C 0.51055 0.98388 0.02847 0.0
C625 C 0.48472 0.04134 0.97939 0.0
C626 C 0.49792 0.02308 0.99055 0.0
C627 C 0.53621 0.96983 0.02254 0.0
C628 C 0.52306 0.98843 0.01156 0.0
H629 H 0.47335 0.12334 0.9443 0.0
H630 H 0.49454 0.09451 0.96492 0.0
H631 H 0.48879 0.99726 0.03198 0.0
H632 H 0.5474 0.88673 0.05611 0.0
H633 H 0.52629 0.91642 0.036 0.0
C634 C 0.04837 0.91936 0.9537 0.0
C635 C 0.06121 0.93876 0.95613 0.0
C636 C 0.03611 0.93557 0.96547 0.0
C637 C 0.02251 0.01012 0.01953 0.0
H638 H 0.98892 1.00001 0.96942 0.0
C639 C 0.97226 0.09354 0.04959 0.0
C640 C 0.95942 0.07414 0.04708 0.0
C641 C 0.98454 0.0773 0.03792 0.0
C642 C 0.99815 1.00275 0.98389 0.0
H643 H 0.07104 0.99096 0.97309 0.0
H644 H 0.04963 0.01914 0.99377 0.0
H645 H 0.01065 0.97131 0.95115 0.0
H646 H 0.94962 0.02187 0.03015 0.0
H647 H 0.97105 0.99367 0.00966 0.0
H648 H 1.01001 0.04158 0.05227 0.0
C649 C 0.04913 0.99097 0.98306 0.0
C650 C 0.01064 0.98627 0.97342 0.0
C651 C 0.06146 0.97468 0.97128 0.0
C652 C 0.95919 0.03817 0.03201 0.0
C653 C 0.97153 0.02186 0.02033 0.0
C654 C 1.01002 0.02661 0.03 0.0
C655 C 0.03626 0.97182 0.97994 0.0
C656 C 0.02299 0.98967 0.99112 0.0
C657 C 0.9844 0.04104 0.02348 0.0
C658 C 0.99767 0.0232 0.01231 0.0
H659 H 0.04775 0.89152 0.94244 0.0
H660 H 0.02647 0.91959 0.96318 0.0
H661 H 0.03174 0.01287 0.034 0.0
H662 H 0.97286 0.12141 0.06079 0.0
H663 H 0.99417 0.09328 0.04024 0.0
C664 C 0.5488 0.56952 0.43557 0.0
C665 C 0.56101 0.57184 0.45381 0.0
C666 C 0.53665 0.55293 0.44753 0.0
C667 C 0.52333 0.48879 0.51009 0.0
H668 H 0.48793 0.53727 0.49065 0.0
C669 C 0.47217 0.44379 0.57114 0.0
C670 C 0.45994 0.44123 0.55293 0.0
C671 C 0.48436 0.45985 0.55892 0.0
C672 C 0.4977 0.52309 0.49601 0.0
H673 H 0.56983 0.55845 0.49942 0.0
H674 H 0.5486 0.52945 0.52027 0.0
H675 H 0.5095 0.56449 0.47014 0.0
H676 H 0.45123 0.4535 0.50698 0.0
H677 H 0.4725 0.48174 0.48579 0.0
H678 H 0.51152 0.44745 0.53604 0.0
C679 C 0.54854 0.54002 0.4964 0.0
C680 C 0.5101 0.5387 0.48425 0.0
C681 C 0.56076 0.55661 0.48437 0.0
C682 C 0.46027 0.45557 0.52206 0.0
C683 C 0.47253 0.47171 0.50982 0.0
C684 C 0.51093 0.47319 0.52188 0.0
C685 C 0.53628 0.53829 0.47821 0.0
C686 C 0.52309 0.52175 0.49109 0.0
C687 C 0.48476 0.47379 0.52804 0.0
C688 C 0.49795 0.49015 0.51503 0.0
H689 H 0.54859 0.58055 0.41184 0.0
H690 H 0.52753 0.55144 0.43257 0.0
H691 H 0.5331 0.47459 0.51546 0.0
H692 H 0.47234 0.43344 0.59507 0.0
H693 H 0.49348 0.46159 0.57387 0.0
C694 C 0.04904 0.56453 0.57048 0.0
C695 C 0.06109 0.56843 0.55186 0.0
C696 C 0.03678 0.54892 0.55819 0.0
C697 C 0.02298 0.48928 0.49335 0.0
H698 H 0.98769 0.53604 0.51641 0.0
C699 C 0.97139 0.44571 0.43348 0.0
C700 C 0.95937 0.44202 0.45218 0.0
C701 C 0.98362 0.46181 0.44552 0.0
C702 C 0.99743 0.52233 0.51001 0.0
H703 H 0.06944 0.55894 0.50514 0.0
H704 H 0.04804 0.53148 0.48377 0.0
H705 H 1.00942 0.56224 0.53707 0.0
H706 H 0.95097 0.45249 0.49869 0.0
H707 H 0.97233 0.48067 0.5197 0.0
H708 H 0.01099 0.44931 0.46636 0.0
C709 C 0.0482 0.54012 0.50816 0.0
C710 C 1.00991 0.53738 0.52185 0.0
C711 C 0.06053 0.55581 0.5205 0.0
C712 C 0.95989 0.45543 0.48331 0.0
C713 C 0.97219 0.47154 0.49542 0.0
C714 C 0.01049 0.47421 0.48153 0.0
C715 C 0.03613 0.53678 0.5268 0.0
C716 C 0.02286 0.52103 0.51372 0.0
C717 C 0.98426 0.47459 0.47674 0.0
C718 C 0.99754 0.49054 0.48967 0.0
H719 H 0.04905 0.57353 0.5948 0.0
H720 H 0.02781 0.54614 0.57344 0.0
H721 H 0.03271 0.47558 0.48697 0.0
H722 H 0.9714 0.4361 0.40931 0.0
H723 H 0.99259 0.46438 0.43021 0.0
C724 C 0.06141 0.47242 0.0331 0.0
C725 C 0.06121 0.4348 0.04517 0.0
C726 C 0.04912 0.48962 0.02201 0.0
C727 C 0.01056 0.48255 0.02868 0.0
H728 H 0.01065 0.54649 0.95438 0.0
C729 C 0.95963 0.53939 0.97081 0.0
C730 C 0.95989 0.5769 0.95854 0.0
C731 C 0.97188 0.52218 0.98207 0.0
C732 C 0.01045 0.52909 0.9754 0.0
H733 H 0.04785 0.38572 0.05422 0.0
H734 H 0.02664 0.41547 0.03473 0.0
H735 H 0.03228 0.51653 0.97183 0.0
H736 H 0.97328 0.62587 0.94943 0.0
H737 H 0.99444 0.59615 0.96926 0.0
H738 H 0.98873 0.49512 0.03225 0.0
C739 C 0.03621 0.43196 0.0343 0.0
C740 C 0.02288 0.51188 0.98541 0.0
C741 C 0.04844 0.4148 0.04535 0.0
C742 C 0.97266 0.59685 0.95843 0.0
C743 C 0.98485 0.57971 0.96967 0.0
C744 C 0.99813 0.49976 0.01868 0.0
C745 C 0.03633 0.46974 0.0228 0.0
C746 C 0.02311 0.48834 0.01216 0.0
C747 C 0.98469 0.54198 0.98128 0.0
C748 C 0.9979 0.52332 0.99192 0.0
H749 H 0.07091 0.48919 0.03313 0.0
H750 H 0.04958 0.51894 0.01366 0.0
H751 H 1.01037 0.46512 0.04969 0.0
H752 H 0.95011 0.52269 0.97075 0.0
H753 H 0.97139 0.4929 0.99052 0.0
C754 C 0.47279 0.59538 0.0497 0.0
C755 C 0.45997 0.57578 0.0481 0.0
C756 C 0.48502 0.57888 0.03796 0.0
C757 C 0.50071 0.48484 0.01849 0.0
H758 H 0.52846 0.5469 0.97603 0.0
C759 C 0.5487 0.41875 0.95652 0.0
C760 C 0.56155 0.43823 0.95814 0.0
C761 C 0.53651 0.43526 0.96844 0.0
C762 C 0.52092 0.52924 0.98823 0.0
H763 H 0.45013 0.52285 0.03269 0.0
H764 H 0.47142 0.49445 0.01161 0.0
H765 H 0.50662 0.57612 0.99305 0.0
H766 H 0.57148 0.49089 0.9738 0.0
H767 H 0.55024 0.51936 0.99515 0.0
H768 H 0.515 0.43795 0.01364 0.0
C769 C 0.47199 0.52266 0.02222 0.0
C770 C 0.50835 0.54599 0.99792 0.0
C771 C 0.4597 0.53926 0.03393 0.0
C772 C 0.56188 0.47461 0.97253 0.0
C773 C 0.54963 0.49123 0.9844 0.0
C774 C 0.51327 0.46809 0.00879 0.0
C775 C 0.48483 0.54214 0.02433 0.0
C776 C 0.49807 0.52402 0.0132 0.0
C777 C 0.53676 0.47189 0.98226 0.0
C778 C 0.52355 0.49004 0.9935 0.0
H779 H 0.47345 0.62353 0.06041 0.0
H780 H 0.49471 0.59459 0.04038 0.0
H781 H 0.49317 0.46717 0.03068 0.0
H782 H 0.54799 0.39071 0.94565 0.0
H783 H 0.5268 0.41966 0.96599 0.0
C784 C 0.11216 0.95734 0.44148 0.0
C785 C 0.12474 0.96858 0.4272 0.0
C786 C 0.10984 0.91911 0.44966 0.0
C787 C 0.12244 0.81889 0.44019 0.0
H788 H 0.10931 0.80908 0.52576 0.0
C789 C 0.13245 0.68687 0.51862 0.0
C790 C 0.12366 0.68067 0.54439 0.0
C791 C 0.12962 0.71652 0.49744 0.0
C792 C 0.11262 0.81089 0.50153 0.0
H793 H 0.14443 0.94785 0.40874 0.0
H794 H 0.14045 0.88088 0.42356 0.0
H795 H 0.11036 0.87181 0.50176 0.0
H796 H 0.10452 0.69791 0.5671 0.0
H797 H 0.09903 0.74813 0.52916 0.0
H798 H 0.125 0.75771 0.44043 0.0
C799 C 0.13234 0.90178 0.42814 0.0
C800 C 0.1133 0.84712 0.48777 0.0
C801 C 0.13465 0.9402 0.41979 0.0
C802 C 0.11131 0.70183 0.54705 0.0
C803 C 0.10834 0.73106 0.52561 0.0
C804 C 0.12168 0.78238 0.45396 0.0
C805 C 0.12006 0.89104 0.44397 0.0
C806 C 0.11839 0.85173 0.45712 0.0
C807 C 0.11792 0.74042 0.50175 0.0
C808 C 0.11696 0.77798 0.48504 0.0
H809 H 0.10418 0.97828 0.44711 0.0
H810 H 0.10015 0.91168 0.46123 0.0
H811 H 0.12629 0.82146 0.41642 0.0
H812 H 0.14219 0.67128 0.51658 0.0
H813 H 0.13729 0.72278 0.47954 0.0
C814 C 0.38419 0.07183 0.42063 0.0
C815 C 0.39437 0.04391 0.4273 0.0
C816 C 0.3863 0.11025 0.42936 0.0
C817 C 0.40546 0.16495 0.48884 0.0
H818 H 0.39351 0.25475 0.44243 0.0
C819 C 0.40845 0.30999 0.54853 0.0
C820 C 0.3962 0.3317 0.54641 0.0
C821 C 0.41107 0.28065 0.52693 0.0
C822 C 0.39689 0.22996 0.45571 0.0
H823 H 0.41517 0.03508 0.44623 0.0
H824 H 0.41882 0.10161 0.46101 0.0
H825 H 0.392 0.19115 0.41808 0.0
H826 H 0.37748 0.34183 0.51943 0.0
H827 H 0.38176 0.29008 0.48214 0.0
H828 H 0.40976 0.20269 0.5269 0.0
C829 C 0.40909 0.09383 0.44976 0.0
C830 C 0.396 0.19355 0.44175 0.0
C831 C 0.40698 0.05563 0.44121 0.0
C832 C 0.38715 0.32582 0.52104 0.0
C833 C 0.38962 0.29603 0.49972 0.0
C834 C 0.40626 0.20107 0.50279 0.0
C835 C 0.39863 0.12141 0.44482 0.0
C836 C 0.40019 0.1606 0.45831 0.0
C837 C 0.40123 0.27168 0.50347 0.0
C838 C 0.40188 0.23414 0.48661 0.0
H839 H 0.37438 0.06378 0.40987 0.0
H840 H 0.37801 0.13081 0.42534 0.0
H841 H 0.4085 0.14015 0.50255 0.0
H842 H 0.41543 0.31356 0.56829 0.0
H843 H 0.42032 0.26322 0.53004 0.0
C844 C 0.61301 0.05384 0.06207 0.0
C845 C 0.62555 0.04219 0.07632 0.0
C846 C 0.61089 0.09207 0.0536 0.0
C847 C 0.62388 0.1919 0.06241 0.0
H848 H 0.61054 0.20148 0.97698 0.0
C849 C 0.6332 0.32459 0.98396 0.0
C850 C 0.62428 0.33065 0.95839 0.0
C851 C 0.63062 0.29466 0.00504 0.0
C852 C 0.61392 0.19974 1.00116 0.0
H853 H 0.6454 0.06224 0.09443 0.0
H854 H 0.64175 0.12926 0.07917 0.0
H855 H 0.61163 0.13882 1.00112 0.0
H856 H 0.60515 0.31277 0.93594 0.0
H857 H 0.60006 0.26213 0.97376 0.0
H858 H 0.62644 0.25309 0.06203 0.0
C859 C 0.63352 0.10865 0.0748 0.0
C860 C 0.61462 0.16355 0.015 0.0
C861 C 0.63564 0.07022 0.08342 0.0
C862 C 0.61204 0.30899 0.95584 0.0
C863 C 0.60931 0.2795 0.9772 0.0
C864 C 0.62309 0.22838 0.04857 0.0
C865 C 0.62127 0.11976 0.059 0.0
C866 C 0.61975 0.15903 0.04563 0.0
C867 C 0.61903 0.27035 1.00086 0.0
C868 C 0.61826 0.23272 0.01756 0.0
H869 H 0.6049 0.03321 0.05667 0.0
H870 H 0.60122 0.09979 0.04208 0.0
H871 H 0.62777 0.18939 0.08616 0.0
H872 H 0.64287 0.34055 0.9859 0.0
H873 H 0.63839 0.28858 0.02279 0.0
C874 C 0.90652 0.71302 0.95299 0.0
C875 C 0.89694 0.68314 0.95732 0.0
C876 C 0.90841 0.74077 0.97627 0.0
C877 C 0.88678 0.78918 0.03328 0.0
H878 H 0.92047 0.84708 0.0502 0.0
C879 C 0.88449 0.94057 0.08913 0.0
C880 C 0.89304 0.96809 0.07456 0.0
C881 C 0.88628 0.90135 0.0828 0.0
C882 C 0.91095 0.83129 0.04568 0.0
H883 H 0.88219 0.65762 0.98949 0.0
H884 H 0.88554 0.70601 0.03052 0.0
H885 H 0.92211 0.78391 0.02562 0.0
H886 H 0.91043 0.97561 0.04246 0.0
H887 H 0.91329 0.90804 0.03104 0.0
H888 H 0.87553 0.83729 0.05147 0.0
C889 C 0.89172 0.70782 0.00931 0.0
C890 C 0.91192 0.795 0.03177 0.0
C891 C 0.88996 0.67979 0.98609 0.0
C892 C 0.90362 0.95537 0.05418 0.0
C893 C 0.90538 0.91638 0.04783 0.0
C894 C 0.8858 0.82558 0.04696 0.0
C895 C 0.9005 0.73953 0.00404 0.0
C896 C 0.89982 0.77405 0.02453 0.0
C897 C 0.89666 0.88881 0.06176 0.0
C898 C 0.89784 0.84767 0.05236 0.0
H899 H 0.91176 0.71653 0.93066 0.0
H900 H 0.91514 0.76498 0.9713 0.0
H901 H 0.87723 0.77403 0.02765 0.0
H902 H 0.8763 0.9493 0.1051 0.0
H903 H 0.87946 0.8809 0.0942 0.0
C904 C 0.88491 0.07048 0.58922 0.0
C905 C 0.89357 0.04295 0.57495 0.0
C906 C 0.88659 0.10965 0.58263 0.0
C907 C 0.91108 0.17996 0.54528 0.0
H908 H 0.87718 0.23631 0.52705 0.0
C909 C 0.90659 0.29939 0.45346 0.0
C910 C 0.89677 0.32875 0.45773 0.0
C911 C 0.90848 0.27136 0.4765 0.0
C912 C 0.88678 0.22143 0.53272 0.0
H913 H 0.91108 0.03541 0.54319 0.0
H914 H 0.91378 0.10293 0.53133 0.0
H915 H 0.87567 0.17304 0.5508 0.0
H916 H 0.88162 0.35304 0.48962 0.0
H917 H 0.88503 0.30431 0.53028 0.0
H918 H 0.9221 0.22769 0.52544 0.0
C919 C 0.90584 0.09463 0.54805 0.0
C920 C 0.88591 0.185 0.54636 0.0
C921 C 0.90419 0.05566 0.55467 0.0
C922 C 0.88958 0.33132 0.48628 0.0
C923 C 0.89136 0.30306 0.50927 0.0
C924 C 0.91193 0.2163 0.53143 0.0
C925 C 0.89698 0.12219 0.56162 0.0
C926 C 0.89803 0.16325 0.55192 0.0
C927 C 0.90037 0.2718 0.50399 0.0
C928 C 0.89977 0.23698 0.52415 0.0
H929 H 0.87668 0.06178 0.60509 0.0
H930 H 0.87967 0.13009 0.59378 0.0
H931 H 0.92065 0.16446 0.5499 0.0
H932 H 0.912 0.29642 0.43127 0.0
H933 H 0.9154 0.24755 0.4715 0.0
C934 C 0.63636 0.94022 0.58962 0.0
C935 C 0.62774 0.9677 0.57514 0.0
C936 C 0.63465 0.90101 0.58314 0.0
C937 C 0.61007 0.8308 0.54592 0.0
H938 H 0.64386 0.77393 0.52766 0.0
C939 C 0.6145 0.71246 0.45323 0.0
C940 C 0.62413 0.68266 0.45749 0.0
C941 C 0.61263 0.74025 0.47649 0.0
C942 C 0.63429 0.78897 0.53335 0.0
H943 H 0.61033 0.97514 0.54307 0.0
H944 H 0.6076 0.90759 0.53143 0.0
H945 H 0.64549 0.83716 0.55157 0.0
H946 H 0.639 0.65738 0.48953 0.0
H947 H 0.63568 0.70583 0.53053 0.0
H948 H 0.59896 0.78333 0.52587 0.0
C949 C 0.61551 0.91595 0.54823 0.0
C950 C 0.63523 0.82536 0.54708 0.0
C951 C 0.61719 0.95494 0.55471 0.0
C952 C 0.63118 0.67947 0.48618 0.0
C953 C 0.62945 0.70754 0.50938 0.0
C954 C 0.60915 0.79452 0.53197 0.0
C955 C 0.62429 0.88842 0.56207 0.0
C956 C 0.62316 0.84731 0.55257 0.0
C957 C 0.6206 0.73916 0.50418 0.0
C958 C 0.62127 0.7737 0.52465 0.0
H959 H 0.64454 0.94898 0.60561 0.0
H960 H 0.64151 0.88059 0.59447 0.0
H961 H 0.60053 0.84647 0.55051 0.0
H962 H 0.6092 0.71588 0.43095 0.0
H963 H 0.60585 0.76439 0.47156 0.0
C964 C 0.3878 0.68658 0.02184 0.0
C965 C 0.39665 0.68123 0.04764 0.0
C966 C 0.39026 0.71644 1.00063 0.0
C967 C 0.40641 0.81214 0.00414 0.0
H968 H 0.3928 0.82104 0.91882 0.0
C969 C 0.40735 0.95693 0.94179 0.0
C970 C 0.3948 0.96846 0.92752 0.0
C971 C 0.40946 0.91882 0.95057 0.0
C972 C 0.39662 0.81892 0.94266 0.0
H973 H 0.41555 0.70035 0.0704 0.0
H974 H 0.42047 0.75078 0.03232 0.0
H975 H 0.39433 0.75767 0.94348 0.0
H976 H 0.37492 0.94829 0.90967 0.0
H977 H 0.37856 0.8814 0.92548 0.0
H978 H 0.40847 0.87312 0.0037 0.0
C979 C 0.41135 0.73294 0.02881 0.0
C980 C 0.39752 0.78264 0.9568 0.0
C981 C 0.40872 0.70356 0.05032 0.0
C982 C 0.38469 0.9404 0.9207 0.0
C983 C 0.3868 0.90206 0.92963 0.0
C984 C 0.40562 0.84813 0.98999 0.0
C985 C 0.40168 0.74136 0.00488 0.0
C986 C 0.40228 0.77883 0.98792 0.0
C987 C 0.39906 0.89113 0.94547 0.0
C988 C 0.40058 0.8521 0.95923 0.0
H989 H 0.37825 0.67008 0.01979 0.0
H990 H 0.38253 0.72194 0.98267 0.0
H991 H 0.40972 0.81082 0.02839 0.0
H992 H 0.41549 0.97758 0.94695 0.0
H993 H 0.41914 0.91121 0.96212 0.0
C994 C 0.13656 0.07176 0.91374 0.0
C995 C 0.12793 0.04438 0.92826 0.0
C996 C 0.13492 0.11099 0.92022 0.0
C997 C 0.11052 0.18149 0.95772 0.0
H998 H 0.14443 0.23807 0.97541 0.0
C999 C 0.11538 0.3 0.05016 0.0
C1000 C 0.12493 0.32991 0.04555 0.0
C1001 C 0.11345 0.27205 0.02706 0.0
C1002 C 0.13483 0.2231 0.96988 0.0
H1003 H 0.11055 0.03716 0.96044 0.0
H1004 H 0.10794 0.10474 0.97212 0.0
H1005 H 0.14591 0.17476 0.95156 0.0
H1006 H 0.13959 0.35523 0.01307 0.0
H1007 H 0.1362 0.30639 0.97237 0.0
H1008 H 0.09953 0.2291 0.9779 0.0
C1009 C 0.11581 0.09628 0.95526 0.0
C1010 C 0.13568 0.18667 0.95618 0.0
C1011 C 0.11742 0.05728 0.94875 0.0
C1012 C 0.13186 0.333 0.0167 0.0
C1013 C 0.13007 0.30475 0.99366 0.0
C1014 C 0.10968 0.21779 0.97166 0.0
C1015 C 0.12461 0.1237 0.94137 0.0
C1016 C 0.12357 0.16484 0.95089 0.0
C1017 C 0.12129 0.2731 0.99918 0.0
C1018 C 0.12185 0.2385 0.97876 0.0
H1019 H 0.14471 0.06289 0.89769 0.0
H1020 H 0.1418 0.13131 0.90885 0.0
H1021 H 0.10095 0.16592 0.95327 0.0
H1022 H 0.11018 0.29669 0.07256 0.0
H1023 H 0.10672 0.2479 0.03222 0.0
C1024 C 0.61309 0.45732 0.44119 0.0
C1025 C 0.62569 0.46902 0.42726 0.0
C1026 C 0.61094 0.41905 0.44947 0.0
C1027 C 0.62401 0.31926 0.44066 0.0
H1028 H 0.61023 0.30921 0.52569 0.0
C1029 C 0.63327 0.1867 0.51918 0.0
C1030 C 0.62424 0.1804 0.54451 0.0
C1031 C 0.63069 0.21655 0.49803 0.0
C1032 C 0.61373 0.31108 0.5016 0.0
H1033 H 0.64562 0.44904 0.40954 0.0
H1034 H 0.64192 0.38196 0.42452 0.0
H1035 H 0.61137 0.37198 0.50176 0.0
H1036 H 0.60493 0.19777 0.56642 0.0
H1037 H 0.59986 0.24831 0.52847 0.0
H1038 H 0.62665 0.2581 0.44096 0.0
C1039 C 0.63366 0.40255 0.42876 0.0
C1040 C 0.61446 0.34734 0.48789 0.0
C1041 C 0.63581 0.44102 0.4203 0.0
C1042 C 0.6119 0.20172 0.5467 0.0
C1043 C 0.60918 0.23115 0.52528 0.0
C1044 C 0.6232 0.28272 0.45438 0.0
C1045 C 0.62134 0.39137 0.44424 0.0
C1046 C 0.61976 0.35203 0.45742 0.0
C1047 C 0.61899 0.24057 0.5019 0.0
C1048 C 0.61821 0.27822 0.48525 0.0
H1049 H 0.60496 0.47793 0.44645 0.0
H1050 H 0.60121 0.41128 0.46074 0.0
H1051 H 0.62803 0.32189 0.41703 0.0
H1052 H 0.64301 0.17101 0.51752 0.0
H1053 H 0.63853 0.22284 0.4805 0.0
C1054 C 0.90675 0.79938 0.54961 0.0
C1055 C 0.89698 0.82885 0.5454 0.0
C1056 C 0.90857 0.77129 0.52656 0.0
C1057 C 0.88669 0.72149 0.47052 0.0
H1058 H 0.92044 0.66404 0.45317 0.0
C1059 C 0.88456 0.57032 0.41414 0.0
C1060 C 0.89322 0.54276 0.42839 0.0
C1061 C 0.88628 0.60949 0.42073 0.0
C1062 C 0.9109 0.67969 0.45784 0.0
H1063 H 0.88183 0.85329 0.5136 0.0
H1064 H 0.88509 0.80443 0.47291 0.0
H1065 H 0.92204 0.72735 0.47753 0.0
H1066 H 0.91072 0.53518 0.46017 0.0
H1067 H 0.91348 0.60271 0.47201 0.0
H1068 H 0.87548 0.67316 0.45258 0.0
C1069 C 0.89145 0.80314 0.49388 0.0
C1070 C 0.91184 0.71606 0.47163 0.0
C1071 C 0.88975 0.83148 0.51689 0.0
C1072 C 0.90384 0.55545 0.44869 0.0
C1073 C 0.90552 0.59442 0.4553 0.0
C1074 C 0.88574 0.68502 0.45693 0.0
C1075 C 0.90041 0.77178 0.49912 0.0
C1076 C 0.89972 0.73691 0.47897 0.0
C1077 C 0.89669 0.622 0.44171 0.0
C1078 C 0.89781 0.6631 0.45133 0.0
H1079 H 0.91219 0.79639 0.57176 0.0
H1080 H 0.91545 0.7474 0.53152 0.0
H1081 H 0.87713 0.73651 0.47625 0.0
H1082 H 0.87633 0.56163 0.39824 0.0
H1083 H 0.87937 0.62995 0.40957 0.0
C1084 C 0.11242 0.55494 0.06097 0.0
C1085 C 0.12499 0.54381 0.07539 0.0
C1086 C 0.11008 0.59312 0.05267 0.0
C1087 C 0.12252 0.69345 0.06204 0.0
H1088 H 0.1096 0.70281 0.97627 0.0
C1089 C 0.13233 0.82561 0.98362 0.0
C1090 C 0.1236 0.83153 0.95769 0.0
C1091 C 0.12955 0.79591 0.00477 0.0
C1092 C 0.11285 0.70113 1.00055 0.0
H1093 H 0.14463 0.5647 0.09398 0.0
H1094 H 0.14062 0.63161 0.07897 0.0
H1095 H 0.11072 0.64017 1.00041 0.0
H1096 H 0.10459 0.81377 0.93469 0.0
H1097 H 0.09916 0.76348 0.9726 0.0
H1098 H 0.12494 0.75467 0.06174 0.0
C1099 C 0.13253 0.61065 0.07436 0.0
C1100 C 0.11356 0.66494 0.01439 0.0
C1101 C 0.13486 0.57227 0.08283 0.0
C1102 C 0.11133 0.81004 0.95484 0.0
C1103 C 0.1084 0.78078 0.97627 0.0
C1104 C 0.12171 0.72991 0.0482 0.0
C1105 C 0.12027 0.62127 0.0584 0.0
C1106 C 0.11858 0.66051 0.04513 0.0
C1107 C 0.11795 0.7717 1.0003 0.0
C1108 C 0.11705 0.73415 0.01705 0.0
H1109 H 0.10447 0.53394 0.05532 0.0
H1110 H 0.1004 0.60046 0.041 0.0
H1111 H 0.12631 0.691 0.08588 0.0
H1112 H 0.14201 0.84147 0.9858 0.0
H1113 H 0.13719 0.78987 0.02281 0.0
C1114 C 0.40757 0.45686 0.06298 0.0
C1115 C 0.39498 0.46837 0.07711 0.0
C1116 C 0.40972 0.41872 0.05429 0.0
C1117 C 0.39687 0.31881 0.06215 0.0
H1118 H 0.41007 0.31048 0.97652 0.0
C1119 C 0.38781 0.18675 0.98272 0.0
C1120 C 0.39667 0.18122 0.95697 0.0
C1121 C 0.39034 0.21651 0.00402 0.0
C1122 C 0.40674 0.31186 1.00075 0.0
H1123 H 0.3751 0.44818 0.09482 0.0
H1124 H 0.3788 0.38125 0.07915 0.0
H1125 H 0.40888 0.37281 1.00124 0.0
H1126 H 0.41565 0.19992 0.93438 0.0
H1127 H 0.42069 0.25022 0.97258 0.0
H1128 H 0.39449 0.25758 0.06127 0.0
C1129 C 0.38704 0.40192 0.07505 0.0
C1130 C 0.40597 0.34787 0.01491 0.0
C1131 C 0.38489 0.44029 0.0839 0.0
C1132 C 0.40882 0.20328 0.95441 0.0
C1133 C 0.41151 0.23257 0.976 0.0
C1134 C 0.39774 0.28251 0.04799 0.0
C1135 C 0.39933 0.39099 0.05934 0.0
C1136 C 0.40089 0.35193 0.04562 0.0
C1137 C 0.40184 0.24117 0.99989 0.0
C1138 C 0.40252 0.27862 0.01691 0.0
H1139 H 0.4157 0.47754 0.05785 0.0
H1140 H 0.41942 0.41111 0.04284 0.0
H1141 H 0.39301 0.32099 0.08595 0.0
H1142 H 0.37821 0.17046 0.98468 0.0
H1143 H 0.38261 0.22217 0.02193 0.0
C1144 C 0.40729 0.55585 0.56313 0.0
C1145 C 0.3947 0.54415 0.57712 0.0
C1146 C 0.40938 0.59404 0.55455 0.0
C1147 C 0.39624 0.69375 0.56259 0.0
H1148 H 0.40992 0.7028 0.4774 0.0
C1149 C 0.38702 0.82557 0.48324 0.0
C1150 C 0.39604 0.8316 0.45785 0.0
C1151 C 0.38958 0.79588 0.50454 0.0
C1152 C 0.40644 0.70121 0.50152 0.0
H1153 H 0.37474 0.56404 0.59467 0.0
H1154 H 0.37834 0.63103 0.57918 0.0
H1155 H 0.40878 0.64031 0.5018 0.0
H1156 H 0.41531 0.81382 0.43593 0.0
H1157 H 0.42034 0.76356 0.47413 0.0
H1158 H 0.39364 0.75492 0.56187 0.0
C1159 C 0.38663 0.61048 0.57511 0.0
C1160 C 0.40571 0.66511 0.5155 0.0
C1161 C 0.38454 0.57208 0.58385 0.0
C1162 C 0.40835 0.81011 0.45569 0.0
C1163 C 0.41105 0.78084 0.47727 0.0
C1164 C 0.39706 0.73013 0.5486 0.0
C1165 C 0.39893 0.62163 0.55956 0.0
C1166 C 0.40046 0.66079 0.54604 0.0
C1167 C 0.40125 0.77174 0.50077 0.0
C1168 C 0.40201 0.73427 0.51767 0.0
H1169 H 0.41547 0.53529 0.55804 0.0
H1170 H 0.4191 0.6018 0.54324 0.0
H1171 H 0.39225 0.69139 0.58627 0.0
H1172 H 0.37731 0.8414 0.48488 0.0
H1173 H 0.38175 0.78982 0.52214 0.0
C1174 C 0.11519 0.21226 0.45307 0.0
C1175 C 0.12477 0.18237 0.45754 0.0
C1176 C 0.11333 0.24021 0.4762 0.0
C1177 C 0.13491 0.28924 0.53296 0.0
H1178 H 0.10109 0.34654 0.54998 0.0
C1179 C 0.13679 0.44078 0.58882 0.0
C1180 C 0.12811 0.4681 0.57436 0.0
C1181 C 0.13515 0.40153 0.5824 0.0
C1182 C 0.11065 0.33093 0.54542 0.0
H1183 H 0.13956 0.1571 0.48978 0.0
H1184 H 0.13628 0.20595 0.53052 0.0
H1185 H 0.09958 0.28329 0.52551 0.0
H1186 H 0.11067 0.47523 0.54232 0.0
H1187 H 0.10806 0.40762 0.53076 0.0
H1188 H 0.14606 0.33761 0.55102 0.0
C1189 C 0.13008 0.20758 0.50933 0.0
C1190 C 0.10976 0.29459 0.53157 0.0
C1191 C 0.1318 0.17931 0.48628 0.0
C1192 C 0.11757 0.45515 0.55396 0.0
C1193 C 0.11597 0.41613 0.54753 0.0
C1194 C 0.13582 0.32571 0.54657 0.0
C1195 C 0.12127 0.23921 0.50394 0.0
C1196 C 0.1219 0.27384 0.52431 0.0
C1197 C 0.1248 0.38875 0.56139 0.0
C1198 C 0.12372 0.34758 0.552 0.0
H1199 H 0.10991 0.21555 0.43076 0.0
H1200 H 0.10658 0.26436 0.47113 0.0
H1201 H 0.14449 0.27423 0.52731 0.0
H1202 H 0.14496 0.44969 0.6048 0.0
H1203 H 0.14206 0.38123 0.59375 0.0
C1204 C 0.90881 0.20198 0.04653 0.0
C1205 C 0.89646 0.1808 0.0441 0.0
C1206 C 0.91165 0.23139 0.02516 0.0
C1207 C 0.8979 0.2831 0.95403 0.0
H1208 H 0.90961 0.37225 1.0017 0.0
C1209 C 0.88525 0.4414 0.92019 0.0
C1210 C 0.89533 0.46944 0.9273 0.0
C1211 C 0.88743 0.40292 0.92856 0.0
C1212 C 0.90655 0.34764 0.98775 0.0
H1213 H 0.87778 0.17157 0.01675 0.0
H1214 H 0.88244 0.22335 0.97982 0.0
H1215 H 0.91069 0.30944 0.02556 0.0
H1216 H 0.91604 0.4784 0.94668 0.0
H1217 H 0.91982 0.41172 0.96083 0.0
H1218 H 0.89316 0.32235 0.91667 0.0
C1219 C 0.89022 0.21699 0.99749 0.0
C1220 C 0.90725 0.31136 1.00143 0.0
C1221 C 0.88753 0.18717 0.0186 0.0
C1222 C 0.90793 0.45776 0.94129 0.0
C1223 C 0.91011 0.41947 0.9495 0.0
C1224 C 0.89712 0.31966 0.94035 0.0
C1225 C 0.90192 0.24089 1.00159 0.0
C1226 C 0.9028 0.27854 0.98497 0.0
C1227 C 0.89974 0.39176 0.9441 0.0
C1228 C 0.90132 0.3524 0.95722 0.0
H1229 H 0.91572 0.19794 0.06637 0.0
H1230 H 0.92097 0.24845 0.02853 0.0
H1231 H 0.89448 0.25851 0.94053 0.0
H1232 H 0.87545 0.4494 0.90937 0.0
H1233 H 0.8792 0.38229 0.92421 0.0
C1234 C 0.63617 0.57134 0.91404 0.0
C1235 C 0.62762 0.54373 0.92851 0.0
C1236 C 0.6344 0.61051 0.92057 0.0
C1237 C 0.6098 0.6804 0.95817 0.0
H1238 H 0.64356 0.7374 0.97628 0.0
C1239 C 0.6143 0.79854 0.05106 0.0
C1240 C 0.62389 0.8284 0.04675 0.0
C1241 C 0.61241 0.77078 0.02778 0.0
C1242 C 0.634 0.72233 0.97064 0.0
H1243 H 0.61024 0.53603 0.96059 0.0
H1244 H 0.6074 0.60352 0.97235 0.0
H1245 H 0.64521 0.67428 0.9522 0.0
H1246 H 0.63869 0.85381 0.01462 0.0
H1247 H 0.63533 0.80543 0.97359 0.0
H1248 H 0.59868 0.72772 0.97845 0.0
C1249 C 0.61531 0.59529 0.9555 0.0
C1250 C 0.63495 0.686 0.9568 0.0
C1251 C 0.61705 0.55633 0.94896 0.0
C1252 C 0.6309 0.83167 0.018 0.0
C1253 C 0.62914 0.80364 0.99478 0.0
C1254 C 0.60886 0.71661 0.97223 0.0
C1255 C 0.62404 0.62294 0.9417 0.0
C1256 C 0.62289 0.66401 0.95135 0.0
C1257 C 0.62033 0.77197 1.00003 0.0
C1258 C 0.62098 0.73748 0.97949 0.0
H1259 H 0.64436 0.5627 0.89803 0.0
H1260 H 0.64122 0.63103 0.90926 0.0
H1261 H 0.60026 0.6647 0.95361 0.0
H1262 H 0.60904 0.79508 0.07337 0.0
H1263 H 0.60565 0.74661 0.03274 0.0
C1264 C 0.31434 0.99267 0.38151 0.0
C1265 C 0.31611 0.95427 0.39077 0.0
C1266 C 0.30098 0.00699 0.37485 0.0
C1267 C 0.26435 0.97933 0.35735 0.0
H1268 H 0.25486 0.06956 0.406 0.0
C1269 C 0.20713 0.02161 0.38603 0.0
C1270 C 0.20409 0.06029 0.39221 0.0
C1271 C 0.22086 0.01019 0.3793 0.0
C1272 C 0.25729 0.04489 0.39156 0.0
H1273 H 0.30542 0.9003 0.39854 0.0
H1274 H 0.28225 0.92497 0.38632 0.0
H1275 H 0.27886 0.0475 0.40448 0.0
H1276 H 0.21269 0.11765 0.39416 0.0
H1277 H 0.23635 0.09836 0.38067 0.0
H1278 H 0.24277 0.97656 0.34447 0.0
C1279 C 0.29111 0.94411 0.38431 0.0
C1280 C 0.27113 0.03218 0.3908 0.0
C1281 C 0.30438 0.93003 0.39145 0.0
C1282 C 0.21479 0.08758 0.3896 0.0
C1283 C 0.2284 0.07637 0.38226 0.0
C1284 C 0.25051 0.99234 0.35774 0.0
C1285 C 0.28918 0.983 0.37682 0.0
C1286 C 0.27479 0.9989 0.37416 0.0
C1287 C 0.23178 0.03734 0.3782 0.0
C1288 C 0.24671 0.025 0.3753 0.0
H1289 H 0.32315 0.01215 0.38114 0.0
H1290 H 0.29981 0.03707 0.369 0.0
H1291 H 0.26688 0.95368 0.34415 0.0
H1292 H 0.19909 0.99995 0.38834 0.0
H1293 H 0.22298 0.97984 0.37665 0.0
C1294 C 0.70586 0.99132 0.12081 0.0
C1295 C 0.70421 0.95329 0.11044 0.0
C1296 C 0.7192 1.00568 0.12771 0.0
C1297 C 0.75593 0.97815 0.14406 0.0
H1298 H 0.76502 0.0711 0.09867 0.0
C1299 C 0.81294 0.02382 0.11687 0.0
C1300 C 0.81579 0.0629 0.11216 0.0
C1301 C 0.79928 0.01157 0.12319 0.0
C1302 C 0.7627 0.04563 0.11221 0.0
H1303 H 0.71506 0.89998 0.10085 0.0
H1304 H 0.73819 0.92475 0.11342 0.0
H1305 H 0.74112 0.04822 0.09939 0.0
H1306 H 0.80693 0.12001 0.11243 0.0
H1307 H 0.78338 0.09919 0.12523 0.0
H1308 H 0.77753 0.97542 0.15683 0.0
C1309 C 0.72927 0.94355 0.11615 0.0
C1310 C 0.74892 0.03245 0.11251 0.0
C1311 C 0.71602 0.92943 0.10878 0.0
C1312 C 0.80498 0.08966 0.11585 0.0
C1313 C 0.79143 0.07759 0.12279 0.0
C1314 C 0.76972 0.99162 0.14413 0.0
C1315 C 0.73108 0.98212 0.12485 0.0
C1316 C 0.7454 0.99824 0.12797 0.0
C1317 C 0.78823 0.03826 0.12535 0.0
C1318 C 0.77336 0.02527 0.12777 0.0
H1319 H 0.69699 0.01053 0.12197 0.0
H1320 H 0.72027 0.0355 0.13451 0.0
H1321 H 0.75352 0.95179 0.15636 0.0
H1322 H 0.82107 1.00257 0.11369 0.0
H1323 H 0.7973 0.98104 0.12469 0.0
C1324 C 0.80524 0.92095 0.61435 0.0
C1325 C 0.81611 0.94772 0.6117 0.0
C1326 C 0.79169 0.93284 0.62151 0.0
C1327 C 0.77006 0.01788 0.64566 0.0
H1328 H 0.74146 0.96397 0.59871 0.0
C1329 C 0.71651 0.0825 0.61221 0.0
C1330 C 0.70467 0.05868 0.61265 0.0
C1331 C 0.72972 0.06784 0.61927 0.0
C1332 C 0.74926 0.97895 0.61245 0.0
H1333 H 0.82146 0.00788 0.61533 0.0
H1334 H 0.79768 0.02914 0.62673 0.0
H1335 H 0.76533 0.94089 0.59735 0.0
H1336 H 0.69736 1.00093 0.62179 0.0
H1337 H 0.72055 0.97504 0.63384 0.0
H1338 H 0.75389 0.05719 0.65923 0.0
C1339 C 0.79963 0.99869 0.62422 0.0
C1340 C 0.76302 0.96566 0.61177 0.0
C1341 C 0.8133 0.98659 0.61767 0.0
C1342 C 0.70625 0.0201 0.6216 0.0
C1343 C 0.71954 1.00523 0.6282 0.0
C1344 C 0.75629 0.03147 0.64599 0.0
C1345 C 0.78854 0.97205 0.62536 0.0
C1346 C 0.77369 0.98508 0.62812 0.0
C1347 C 0.73145 0.0288 0.62646 0.0
C1348 C 0.74576 0.01235 0.62912 0.0
H1349 H 0.80716 0.89076 0.61 0.0
H1350 H 0.78361 0.91124 0.62313 0.0
H1351 H 0.77787 0.03332 0.65898 0.0
H1352 H 0.71562 0.11235 0.60538 0.0
H1353 H 0.73866 0.08669 0.61743 0.0
C1354 C 0.3056 0.0884 0.88729 0.0
C1355 C 0.31642 0.06151 0.8903 0.0
C1356 C 0.29202 0.07656 0.88031 0.0
C1357 C 0.27021 0.99134 0.85753 0.0
H1358 H 0.24181 0.04656 0.90407 0.0
C1359 C 0.21663 0.92809 0.8923 0.0
C1360 C 0.20482 0.95204 0.89157 0.0
C1361 C 0.22985 0.94244 0.88502 0.0
C1362 C 0.24955 0.0312 0.89045 0.0
H1363 H 0.32167 1.00123 0.8875 0.0
H1364 H 0.29784 0.98008 0.87641 0.0
H1365 H 0.26571 0.06936 0.90485 0.0
H1366 H 0.19759 0.00972 0.88174 0.0
H1367 H 0.22081 0.03507 0.86931 0.0
H1368 H 0.25395 0.95197 0.84469 0.0
C1369 C 0.29984 0.01055 0.87848 0.0
C1370 C 0.26333 0.04433 0.89079 0.0
C1371 C 0.31353 0.02258 0.88485 0.0
C1372 C 0.20645 0.99044 0.88217 0.0
C1373 C 0.21976 1.00501 0.87534 0.0
C1374 C 0.25642 0.97792 0.85755 0.0
C1375 C 0.2888 0.03733 0.87702 0.0
C1376 C 0.27393 0.02445 0.87458 0.0
C1377 C 0.23164 0.98132 0.8773 0.0
C1378 C 0.24596 0.99751 0.87428 0.0
H1379 H 0.30757 0.11864 0.89127 0.0
H1380 H 0.28397 0.09824 0.87843 0.0
H1381 H 0.27796 0.97554 0.84434 0.0
H1382 H 0.2157 0.89836 0.89946 0.0
H1383 H 0.23877 0.92352 0.88704 0.0
C1384 C 0.81439 0.49058 0.38287 0.0
C1385 C 0.81601 0.45201 0.3918 0.0
C1386 C 0.80109 0.50537 0.37631 0.0
C1387 C 0.76438 0.479 0.35846 0.0
H1388 H 0.75522 0.56916 0.40751 0.0
C1389 C 0.7073 0.52329 0.38667 0.0
C1390 C 0.70444 0.56207 0.39288 0.0
C1391 C 0.72099 0.51134 0.38014 0.0
C1392 C 0.75756 0.54452 0.39297 0.0
H1393 H 0.80511 0.39826 0.39911 0.0
H1394 H 0.78204 0.42378 0.38709 0.0
H1395 H 0.77912 0.54627 0.40609 0.0
H1396 H 0.71334 0.61907 0.39508 0.0
H1397 H 0.73693 0.59887 0.38197 0.0
H1398 H 0.74281 0.4771 0.34538 0.0
C1399 C 0.79097 0.44268 0.38525 0.0
C1400 C 0.77134 0.53133 0.39226 0.0
C1401 C 0.80419 0.42811 0.39228 0.0
C1402 C 0.7153 0.58893 0.39053 0.0
C1403 C 0.72887 0.5772 0.38338 0.0
C1404 C 0.75059 0.4925 0.3588 0.0
C1405 C 0.78919 0.48171 0.37807 0.0
C1406 C 0.77488 0.49807 0.37545 0.0
C1407 C 0.73205 0.53806 0.37926 0.0
C1408 C 0.74692 0.52515 0.37649 0.0
H1409 H 0.82327 0.50981 0.38265 0.0
H1410 H 0.80004 0.53555 0.37069 0.0
H1411 H 0.76681 0.45338 0.34512 0.0
H1412 H 0.69914 0.50193 0.38878 0.0
H1413 H 0.72296 0.48093 0.37742 0.0
C1414 C 0.30473 0.58186 0.11178 0.0
C1415 C 0.31644 0.55757 0.11257 0.0
C1416 C 0.29144 0.56785 0.11886 0.0
C1417 C 0.2714 0.47988 0.11246 0.0
H1418 H 0.24309 0.53576 0.15871 0.0
C1419 C 0.21503 0.42485 0.11368 0.0
C1420 C 0.20435 0.45221 0.11105 0.0
C1421 C 0.22864 0.43597 0.12103 0.0
C1422 C 0.25081 0.5199 0.14546 0.0
H1423 H 0.32345 0.49967 0.12229 0.0
H1424 H 0.30009 0.47487 0.13431 0.0
H1425 H 0.26721 0.5585 0.15901 0.0
H1426 H 0.19939 0.51259 0.11486 0.0
H1427 H 0.22329 0.53254 0.12656 0.0
H1428 H 0.25511 0.44256 0.09731 0.0
C1429 C 0.30127 0.50494 0.12843 0.0
C1430 C 0.26467 0.53284 0.14583 0.0
C1431 C 0.31465 0.51918 0.12184 0.0
C1432 C 0.20741 0.49087 0.11721 0.0
C1433 C 0.22115 0.50221 0.12393 0.0
C1434 C 0.25756 0.46725 0.11172 0.0
C1435 C 0.28949 0.52898 0.12639 0.0
C1436 C 0.27509 0.51318 0.12906 0.0
C1437 C 0.23206 0.47499 0.12506 0.0
C1438 C 0.24699 0.48724 0.12795 0.0
H1439 H 0.30579 0.61158 0.10469 0.0
H1440 H 0.28259 0.58703 0.11679 0.0
H1441 H 0.27912 0.46449 0.09881 0.0
H1442 H 0.21291 0.3948 0.10912 0.0
H1443 H 0.23658 0.41393 0.12263 0.0
C1444 C 0.20774 0.52577 0.61791 0.0
C1445 C 0.20489 0.56479 0.61285 0.0
C1446 C 0.2214 0.5136 0.62444 0.0
C1447 C 0.25798 0.54747 0.61344 0.0
H1448 H 0.26712 0.45437 0.6587 0.0
C1449 C 0.31479 0.4932 0.6227 0.0
C1450 C 0.31644 0.45498 0.6128 0.0
C1451 C 0.30147 0.50772 0.62948 0.0
C1452 C 0.26472 0.48053 0.64609 0.0
H1453 H 0.21375 0.62191 0.61276 0.0
H1454 H 0.23729 0.60123 0.62587 0.0
H1455 H 0.2431 0.47801 0.65872 0.0
H1456 H 0.30557 0.40151 0.60398 0.0
H1457 H 0.28247 0.42654 0.61633 0.0
H1458 H 0.27957 0.54982 0.60073 0.0
C1459 C 0.22924 0.57961 0.62355 0.0
C1460 C 0.25093 0.49399 0.64591 0.0
C1461 C 0.2157 0.59159 0.61641 0.0
C1462 C 0.30463 0.4311 0.61155 0.0
C1463 C 0.29139 0.44538 0.61878 0.0
C1464 C 0.27176 0.53429 0.61398 0.0
C1465 C 0.23244 0.54032 0.62647 0.0
C1466 C 0.2473 0.52737 0.62914 0.0
C1467 C 0.28959 0.48412 0.62696 0.0
C1468 C 0.27526 0.50034 0.62984 0.0
H1469 H 0.19962 0.50448 0.61485 0.0
H1470 H 0.22339 0.4831 0.62622 0.0
H1471 H 0.25567 0.57272 0.59961 0.0
H1472 H 0.32366 0.51243 0.62354 0.0
H1473 H 0.30041 0.53767 0.63588 0.0
C1474 C 0.80565 0.58948 0.89026 0.0
C1475 C 0.81649 0.56255 0.89265 0.0
C1476 C 0.79207 0.57781 0.88316 0.0
C1477 C 0.77027 0.49318 0.85878 0.0
H1478 H 0.74181 0.54725 0.90604 0.0
C1479 C 0.71665 0.42914 0.89235 0.0
C1480 C 0.70484 0.45308 0.89188 0.0
C1481 C 0.72987 0.44365 0.88532 0.0
C1482 C 0.74957 0.53223 0.89222 0.0
H1483 H 0.82174 0.50236 0.88865 0.0
H1484 H 0.79791 0.48148 0.87736 0.0
H1485 H 0.76572 0.57001 0.90736 0.0
H1486 H 0.6976 0.51093 0.88277 0.0
H1487 H 0.72083 0.53657 0.87081 0.0
H1488 H 0.75402 0.45414 0.8452 0.0
C1489 C 0.7999 0.51189 0.88002 0.0
C1490 C 0.76335 0.54533 0.89287 0.0
C1491 C 0.8136 0.52377 0.8865 0.0
C1492 C 0.70647 0.49166 0.88298 0.0
C1493 C 0.71978 0.50639 0.87642 0.0
C1494 C 0.75647 0.47977 0.85849 0.0
C1495 C 0.78885 0.53868 0.87912 0.0
C1496 C 0.77397 0.52585 0.87641 0.0
C1497 C 0.73166 0.48268 0.87814 0.0
C1498 C 0.74599 0.49894 0.87547 0.0
H1499 H 0.80763 0.61961 0.89477 0.0
H1500 H 0.78401 0.59953 0.88172 0.0
H1501 H 0.77803 0.4777 0.84537 0.0
H1502 H 0.71572 0.39928 0.89914 0.0
H1503 H 0.7388 0.4247 0.88714 0.0
C1504 C 0.14891 0.04192 0.27647 0.0
C1505 C 0.13688 0.03808 0.29507 0.0
C1506 C 0.14895 0.02919 0.24529 0.0
C1507 C 0.1304 0.96281 0.1917 0.0
H1508 H 0.14787 0.02281 0.12607 0.0
C1509 C 0.12203 0.93168 0.05964 0.0
C1510 C 0.13333 0.93743 0.03918 0.0
C1511 C 0.12311 0.94164 0.09136 0.0
C1512 C 0.14312 1.00539 0.14417 0.0
H1513 H 0.11537 0.01868 0.2952 0.0
H1514 H 0.11541 0.99697 0.241 0.0
H1515 H 0.14851 0.04581 0.18006 0.0
H1516 H 0.15484 0.95653 0.03635 0.0
H1517 H 0.15677 0.97329 0.09165 0.0
H1518 H 0.12494 0.92249 0.15581 0.0
C1519 C 0.12489 0.00917 0.25058 0.0
C1520 C 0.14347 0.01863 0.17514 0.0
C1521 C 0.12484 0.02193 0.28163 0.0
C1522 C 0.1459 0.95196 0.0514 0.0
C1523 C 0.14697 0.96186 0.08309 0.0
C1524 C 0.13006 0.94954 0.16074 0.0
C1525 C 0.13697 0.01227 0.23209 0.0
C1526 C 0.13702 0.99766 0.19925 0.0
C1527 C 0.13552 0.9575 0.10336 0.0
C1528 C 0.13634 0.97077 0.13654 0.0
H1529 H 0.15836 0.05425 0.28611 0.0
H1530 H 0.15846 0.03182 0.23175 0.0
H1531 H 0.12554 0.94558 0.20978 0.0
H1532 H 0.1122 0.92062 0.05099 0.0
H1533 H 0.11404 0.93815 0.10621 0.0
C1534 C 0.37595 0.05702 0.05066 0.0
C1535 C 0.3882 0.07335 0.03835 0.0
C1536 C 0.37513 0.04694 0.08234 0.0
C1537 C 0.39767 0.02066 0.14886 0.0
H1538 H 0.36405 0.03431 0.1982 0.0
C1539 C 0.3962 0.99001 0.28166 0.0
C1540 C 0.38416 0.973 0.29433 0.0
C1541 C 0.39649 1.00217 0.25047 0.0
C1542 C 0.37346 0.02983 0.18462 0.0
H1543 H 0.40899 0.09336 0.05005 0.0
H1544 H 0.4075 0.07605 0.10542 0.0
H1545 H 0.36486 0.05799 0.14435 0.0
H1546 H 0.36303 0.95479 0.28387 0.0
H1547 H 0.3636 0.97562 0.22913 0.0
H1548 H 0.40626 0.99227 0.18892 0.0
C1549 C 0.3986 0.0705 0.09042 0.0
C1550 C 0.37394 0.04353 0.15378 0.0
C1551 C 0.39942 0.0807 0.05873 0.0
C1552 C 0.37246 0.96792 0.27487 0.0
C1553 C 0.37275 0.98009 0.24356 0.0
C1554 C 0.39719 0.0069 0.17963 0.0
C1555 C 0.38654 0.05286 0.10248 0.0
C1556 C 0.38606 0.03918 0.13555 0.0
C1557 C 0.38477 0.99757 0.23103 0.0
C1558 C 0.3851 0.01139 0.19796 0.0
H1559 H 0.3671 0.05099 0.03565 0.0
H1560 H 0.36572 0.03319 0.09077 0.0
H1561 H 0.40708 0.01611 0.13529 0.0
H1562 H 0.40539 0.99453 0.29598 0.0
H1563 H 0.40585 0.01597 0.2418 0.0
C1564 C 0.64897 0.96815 0.22731 0.0
C1565 C 0.63696 0.97183 0.20861 0.0
C1566 C 0.64896 0.98109 0.25844 0.0
C1567 C 0.63028 0.04774 0.31163 0.0
H1568 H 0.64783 0.98842 0.37761 0.0
C1569 C 0.62188 0.07982 0.44354 0.0
C1570 C 0.6332 0.07441 0.46402 0.0
C1571 C 0.62295 0.06961 0.41188 0.0
C1572 C 0.64305 1.00566 0.3594 0.0
H1573 H 0.61543 0.99115 0.20825 0.0
H1574 H 0.61539 0.01319 0.26236 0.0
H1575 H 0.64851 0.96501 0.32374 0.0
H1576 H 0.65475 0.05563 0.4669 0.0
H1577 H 0.65667 0.03841 0.41171 0.0
H1578 H 0.62475 0.08828 0.34729 0.0
C1579 C 0.62489 1.00097 0.2529 0.0
C1580 C 0.64343 0.99217 0.3285 0.0
C1581 C 0.62489 0.98802 0.2219 0.0
C1582 C 0.64578 0.05995 0.45185 0.0
C1583 C 0.64686 0.04978 0.42022 0.0
C1584 C 0.62991 0.06124 0.34251 0.0
C1585 C 0.63696 0.99805 0.27149 0.0
C1586 C 0.63696 0.0129 0.30426 0.0
C1587 C 0.63539 0.0538 0.39995 0.0
C1588 C 0.63622 0.04026 0.36684 0.0
H1589 H 0.65844 0.95581 0.2178 0.0
H1590 H 0.65846 0.97859 0.27205 0.0
H1591 H 0.62541 0.06479 0.29344 0.0
H1592 H 0.61202 0.09082 0.45215 0.0
H1593 H 0.61387 0.07284 0.39701 0.0
C1594 C 0.89877 0.93161 0.44276 0.0
C1595 C 0.88771 0.93996 0.46329 0.0
C1596 C 0.89796 0.94179 0.41107 0.0
C1597 C 0.8734 0.97049 0.34806 0.0
H1598 H 0.9061 0.01928 0.31241 0.0
C1599 C 0.87228 0.04598 0.22697 0.0
C1600 C 0.88385 0.03994 0.20734 0.0
C1601 C 0.87256 0.03386 0.25828 0.0
C1602 C 0.89692 1.00534 0.32184 0.0
H1603 H 0.86688 0.96408 0.4663 0.0
H1604 H 0.8655 0.98184 0.41116 0.0
H1605 H 0.90685 0.99551 0.36606 0.0
H1606 H 0.90486 0.01678 0.20536 0.0
H1607 H 0.90529 0.99542 0.25956 0.0
H1608 H 0.86348 0.98033 0.30377 0.0
C1609 C 0.87478 0.96733 0.41948 0.0
C1610 C 0.89736 0.99163 0.35262 0.0
C1611 C 0.8756 0.95727 0.45116 0.0
C1612 C 0.89577 0.02204 0.21982 0.0
C1613 C 0.89604 0.00993 0.25102 0.0
C1614 C 0.87297 0.98415 0.31721 0.0
C1615 C 0.88606 0.96039 0.39918 0.0
C1616 C 0.88562 0.974 0.36611 0.0
C1617 C 0.88443 0.01548 0.27064 0.0
C1618 C 0.88474 1.0017 0.3037 0.0
H1619 H 0.90823 0.91815 0.4513 0.0
H1620 H 0.90674 0.93546 0.39594 0.0
H1621 H 0.86422 0.95673 0.35764 0.0
H1622 H 0.86296 0.05983 0.21811 0.0
H1623 H 0.86351 0.03907 0.27286 0.0
C1624 C 0.89613 0.98798 0.7203 0.0
C1625 C 0.88406 0.97119 0.70755 0.0
C1626 C 0.8964 1.00036 0.75145 0.0
C1627 C 0.87333 0.02942 0.81674 0.0
H1628 H 0.9067 0.01482 0.86677 0.0
C1629 C 0.87549 0.05815 0.95053 0.0
C1630 C 0.88781 0.07387 0.96302 0.0
C1631 C 0.87472 0.04778 0.9189 0.0
C1632 C 0.89736 0.01963 0.853 0.0
H1633 H 0.86285 0.95358 0.71781 0.0
H1634 H 0.86337 0.97484 0.77247 0.0
H1635 H 0.90593 0.99047 0.81326 0.0
H1636 H 0.90879 0.09256 0.95167 0.0
H1637 H 0.90739 0.07481 0.89637 0.0
H1638 H 0.86475 0.05842 0.85666 0.0
C1639 C 0.87257 0.97894 0.75814 0.0
C1640 C 0.89691 1.00557 0.82231 0.0
C1641 C 0.8723 0.96652 0.72688 0.0
C1642 C 0.89916 0.08037 0.94285 0.0
C1643 C 0.8984 0.06991 0.9112 0.0
C1644 C 0.87378 0.04346 0.8475 0.0
C1645 C 0.88461 0.99622 0.77075 0.0
C1646 C 0.8849 0.01035 0.80374 0.0
C1647 C 0.88625 0.05283 0.89897 0.0
C1648 C 0.88582 0.0388 0.86598 0.0
H1649 H 0.90537 0.99216 0.70609 0.0
H1650 H 0.90578 0.01398 0.7602 0.0
H1651 H 0.86399 0.03414 0.80296 0.0
H1652 H 0.86654 0.05277 0.96539 0.0
H1653 H 0.86524 0.03447 0.91034 0.0
C1654 C 0.64808 0.0465 0.72817 0.0
C1655 C 0.63659 0.03975 0.70841 0.0
C1656 C 0.6478 0.03457 0.75953 0.0
C1657 C 0.62347 1.00515 0.82289 0.0
H1658 H 0.65644 0.95873 0.85944 0.0
C1659 C 0.62184 0.93175 0.944 0.0
C1660 C 0.63277 0.94083 0.96471 0.0
C1661 C 0.62266 0.94194 0.91232 0.0
C1662 C 0.64718 0.97188 0.84965 0.0
H1663 H 0.61576 0.01552 0.70626 0.0
H1664 H 0.61534 0.99449 0.76054 0.0
H1665 H 0.65715 0.98201 0.80548 0.0
H1666 H 0.65338 0.96631 0.96804 0.0
H1667 H 0.65477 0.98406 0.91289 0.0
H1668 H 0.61348 0.99498 0.86698 0.0
C1669 C 0.6245 0.0094 0.75207 0.0
C1670 C 0.6476 0.98536 0.81874 0.0
C1671 C 0.62478 0.02133 0.72082 0.0
C1672 C 0.64475 0.95893 0.95276 0.0
C1673 C 0.64559 0.96898 0.92107 0.0
C1674 C 0.62304 0.9916 0.85372 0.0
C1675 C 0.63603 0.01568 0.77182 0.0
C1676 C 0.63573 1.00212 0.80495 0.0
C1677 C 0.63444 0.96127 0.90059 0.0
C1678 C 0.63488 0.97476 0.86748 0.0
H1679 H 0.65733 0.06075 0.71937 0.0
H1680 H 0.65678 0.04035 0.7742 0.0
H1681 H 0.61421 0.01847 0.81325 0.0
H1682 H 0.61249 0.91769 0.9524 0.0
H1683 H 0.61399 0.93501 0.89704 0.0
C1684 C 0.39654 0.02273 0.78147 0.0
C1685 C 0.38443 0.03918 0.79429 0.0
C1686 C 0.39684 0.01055 0.75027 0.0
C1687 C 0.37384 0.9816 0.68476 0.0
H1688 H 0.40719 0.99708 0.6349 0.0
C1689 C 0.37608 0.95396 0.55082 0.0
C1690 C 0.38842 0.9384 0.53829 0.0
C1691 C 0.37529 0.96414 0.5825 0.0
C1692 C 0.39786 0.99204 0.64862 0.0
H1693 H 0.36316 0.05641 0.7841 0.0
H1694 H 0.36373 0.03554 0.72935 0.0
H1695 H 0.40636 0.02098 0.68854 0.0
H1696 H 0.40943 0.91985 0.5496 0.0
H1697 H 0.408 0.9373 0.60497 0.0
H1698 H 0.36533 0.95284 0.64465 0.0
C1699 C 0.37295 0.03152 0.74366 0.0
C1700 C 0.39737 1.00583 0.67939 0.0
C1701 C 0.37265 0.04372 0.77498 0.0
C1702 C 0.39978 0.93191 0.55845 0.0
C1703 C 0.399 0.9422 0.59014 0.0
C1704 C 0.37432 0.96784 0.65392 0.0
C1705 C 0.38504 0.01459 0.73097 0.0
C1706 C 0.38537 1.00072 0.6979 0.0
C1707 C 0.38683 0.95907 0.60242 0.0
C1708 C 0.38636 0.97283 0.63549 0.0
H1709 H 0.4058 0.01865 0.79567 0.0
H1710 H 0.40626 0.99719 0.74146 0.0
H1711 H 0.36451 0.97664 0.69848 0.0
H1712 H 0.36712 0.95932 0.53598 0.0
H1713 H 0.36579 0.9773 0.59109 0.0
C1714 C 0.14549 0.05159 0.55005 0.0
C1715 C 0.13341 0.06976 0.5387 0.0
C1716 C 0.14671 0.04198 0.58175 0.0
C1717 C 0.13171 0.06081 0.66054 0.0
H1718 H 0.14666 0.95999 0.67963 0.0
C1719 C 0.12574 0.9919 0.78252 0.0
C1720 C 0.13737 0.97282 0.79519 0.0
C1721 C 0.12576 1.00421 0.75136 0.0
C1722 C 0.14262 0.9884 0.67475 0.0
H1723 H 0.11332 0.09331 0.55201 0.0
H1724 H 0.11536 0.0762 0.60726 0.0
H1725 H 0.14597 0.98205 0.62542 0.0
H1726 H 0.15805 0.95098 0.78483 0.0
H1727 H 0.1581 0.97256 0.73028 0.0
H1728 H 0.12821 0.06692 0.70987 0.0
C1729 C 0.12397 0.06966 0.59172 0.0
C1730 C 0.14224 1.00111 0.64366 0.0
C1731 C 0.12277 0.07936 0.55999 0.0
C1732 C 0.14893 0.96564 0.77578 0.0
C1733 C 0.14894 0.97788 0.7445 0.0
C1734 C 0.13207 0.04806 0.69162 0.0
C1735 C 0.13586 0.05025 0.60288 0.0
C1736 C 0.13671 0.03741 0.63614 0.0
C1737 C 0.1374 0.99766 0.73204 0.0
C1738 C 0.13744 0.0116 0.69907 0.0
H1739 H 0.15394 0.04403 0.53434 0.0
H1740 H 0.15612 0.02776 0.58964 0.0
H1741 H 0.1276 0.08914 0.65567 0.0
H1742 H 0.11663 0.99779 0.79675 0.0
H1743 H 0.11661 0.01874 0.74235 0.0
C1744 C 0.64932 0.54376 0.27655 0.0
C1745 C 0.63734 0.53938 0.29525 0.0
C1746 C 0.64939 0.53091 0.2454 0.0
C1747 C 0.63123 0.46332 0.19215 0.0
H1748 H 0.6481 0.52403 0.12616 0.0
C1749 C 0.62271 0.43128 0.06031 0.0
C1750 C 0.6339 0.43761 0.03964 0.0
C1751 C 0.62381 0.44138 0.09199 0.0
C1752 C 0.64352 0.50641 0.14436 0.0
H1753 H 0.61596 0.51887 0.29559 0.0
H1754 H 0.61607 0.49694 0.24145 0.0
H1755 H 0.6487 0.54725 0.1801 0.0
H1756 H 0.65524 0.45794 0.03642 0.0
H1757 H 0.65723 0.47496 0.09165 0.0
H1758 H 0.62598 0.42257 0.15644 0.0
C1759 C 0.62548 0.50967 0.25092 0.0
C1760 C 0.64386 0.51979 0.1753 0.0
C1761 C 0.62539 0.52256 0.28194 0.0
C1762 C 0.64638 0.45289 0.05163 0.0
C1763 C 0.64749 0.46295 0.08328 0.0
C1764 C 0.63091 0.44992 0.16124 0.0
C1765 C 0.63752 0.51331 0.23234 0.0
C1766 C 0.63761 0.49856 0.19954 0.0
C1767 C 0.63614 0.45799 0.10375 0.0
C1768 C 0.63697 0.4714 0.1369 0.0
H1769 H 0.65869 0.55661 0.28608 0.0
H1770 H 0.65886 0.53398 0.23178 0.0
H1771 H 0.62654 0.44589 0.21034 0.0
H1772 H 0.61293 0.41963 0.05185 0.0
H1773 H 0.61482 0.43743 0.107 0.0
C1774 C 0.87249 0.46431 0.27569 0.0
C1775 C 0.88397 0.47103 0.29548 0.0
C1776 C 0.87279 0.47624 0.24433 0.0
C1777 C 0.89717 0.5057 0.18105 0.0
H1778 H 0.86422 0.55206 0.14435 0.0
C1779 C 0.8989 0.57928 0.06001 0.0
C1780 C 0.888 0.57016 0.03923 0.0
C1781 C 0.89805 0.56904 0.09168 0.0
C1782 C 0.87348 0.53893 0.15419 0.0
H1783 H 0.90481 0.49525 0.29767 0.0
H1784 H 0.90525 0.51631 0.2434 0.0
H1785 H 0.86346 0.52874 0.1983 0.0
H1786 H 0.86742 0.54456 0.03576 0.0
H1787 H 0.86597 0.52674 0.09088 0.0
H1788 H 0.9072 0.51594 0.13702 0.0
C1789 C 0.89609 0.50139 0.25185 0.0
C1790 C 0.87303 0.52543 0.18509 0.0
C1791 C 0.8958 0.48944 0.2831 0.0
C1792 C 0.87602 0.55197 0.05109 0.0
C1793 C 0.87515 0.54188 0.08276 0.0
C1794 C 0.89763 0.51928 0.15023 0.0
C1795 C 0.88457 0.49512 0.23207 0.0
C1796 C 0.88489 0.50869 0.19893 0.0
C1797 C 0.88627 0.54963 0.10332 0.0
C1798 C 0.8858 0.5361 0.13642 0.0
H1799 H 0.86325 0.45005 0.28447 0.0
H1800 H 0.86382 0.47047 0.22963 0.0
H1801 H 0.90643 0.49238 0.19073 0.0
H1802 H 0.90825 0.5934 0.05168 0.0
H1803 H 0.9067 0.57599 0.10702 0.0
C1804 C 0.12142 0.58036 0.44322 0.0
C1805 C 0.13281 0.57526 0.46357 0.0
C1806 C 0.12249 0.57034 0.41151 0.0
C1807 C 0.14281 0.50738 0.35867 0.0
H1808 H 0.12485 0.56627 0.293 0.0
C1809 C 0.14888 0.47091 0.22645 0.0
C1810 C 0.13686 0.47428 0.20775 0.0
C1811 C 0.14881 0.48366 0.25762 0.0
C1812 C 0.12981 0.54928 0.3111 0.0
H1813 H 0.15445 0.55726 0.4662 0.0
H1814 H 0.15636 0.54037 0.41095 0.0
H1815 H 0.12411 0.5894 0.34696 0.0
H1816 H 0.11524 0.49285 0.20745 0.0
H1817 H 0.1151 0.51456 0.26166 0.0
H1818 H 0.14845 0.46715 0.32282 0.0
C1819 C 0.14651 0.55134 0.41958 0.0
C1820 C 0.1294 0.56258 0.34205 0.0
C1821 C 0.14544 0.56132 0.45125 0.0
C1822 C 0.12472 0.48998 0.2211 0.0
C1823 C 0.12466 0.50274 0.25215 0.0
C1824 C 0.14324 0.4941 0.32771 0.0
C1825 C 0.13498 0.55504 0.39942 0.0
C1826 C 0.13583 0.5417 0.36626 0.0
C1827 C 0.13673 0.50012 0.27074 0.0
C1828 C 0.13666 0.51474 0.30357 0.0
H1829 H 0.11153 0.59096 0.45195 0.0
H1830 H 0.11337 0.57331 0.39673 0.0
H1831 H 0.14769 0.49022 0.37679 0.0
H1832 H 0.15841 0.45896 0.21689 0.0
H1833 H 0.15832 0.48141 0.27123 0.0
C1834 C 0.37205 0.54313 0.22912 0.0
C1835 C 0.38395 0.5386 0.21019 0.0
C1836 C 0.3721 0.53054 0.26032 0.0
C1837 C 0.39051 0.46351 0.31361 0.0
H1838 H 0.37376 0.52476 0.3795 0.0
C1839 C 0.39915 0.4323 0.4456 0.0
C1840 C 0.38796 0.43878 0.46625 0.0
C1841 C 0.39805 0.44228 0.41389 0.0
C1842 C 0.37831 0.507 0.36134 0.0
H1843 H 0.40533 0.51805 0.20949 0.0
H1844 H 0.40544 0.49656 0.26373 0.0
H1845 H 0.37301 0.54749 0.32547 0.0
H1846 H 0.36662 0.45921 0.46941 0.0
H1847 H 0.36465 0.47598 0.41416 0.0
H1848 H 0.39587 0.42311 0.34946 0.0
C1849 C 0.39599 0.50922 0.2544 0.0
C1850 C 0.37789 0.52009 0.33034 0.0
C1851 C 0.39595 0.52185 0.22332 0.0
C1852 C 0.37548 0.45408 0.45422 0.0
C1853 C 0.37438 0.46399 0.42255 0.0
C1854 C 0.39092 0.4504 0.34459 0.0
C1855 C 0.38404 0.51305 0.27323 0.0
C1856 C 0.38408 0.49865 0.30612 0.0
C1857 C 0.38573 0.45888 0.40209 0.0
C1858 C 0.38489 0.47207 0.36889 0.0
H1859 H 0.36264 0.55593 0.21973 0.0
H1860 H 0.36269 0.53373 0.27412 0.0
H1861 H 0.39516 0.44593 0.29545 0.0
H1862 H 0.40892 0.42064 0.4541 0.0
H1863 H 0.40704 0.4382 0.39889 0.0
C1864 C 0.37198 0.4686 0.7292 0.0
C1865 C 0.38383 0.47378 0.71022 0.0
C1866 C 0.37197 0.48115 0.76043 0.0
C1867 C 0.38992 0.54911 0.81373 0.0
H1868 H 0.37383 0.4867 0.87964 0.0
C1869 C 0.39869 0.58046 0.94565 0.0
C1870 C 0.38763 0.57321 0.96646 0.0
C1871 C 0.39756 0.57054 0.91392 0.0
C1872 C 0.37819 0.50479 0.86147 0.0
H1873 H 0.40505 0.49547 0.70945 0.0
H1874 H 0.40506 0.5169 0.76373 0.0
H1875 H 0.37314 0.46407 0.82555 0.0
H1876 H 0.36648 0.55143 0.96993 0.0
H1877 H 0.36445 0.53475 0.91465 0.0
H1878 H 0.39503 0.58976 0.84963 0.0
C1879 C 0.39569 0.50375 0.75442 0.0
C1880 C 0.37781 0.49175 0.83044 0.0
C1881 C 0.39572 0.49115 0.72332 0.0
C1882 C 0.37524 0.55717 0.95461 0.0
C1883 C 0.37411 0.54732 0.92292 0.0
C1884 C 0.39029 0.56219 0.84474 0.0
C1885 C 0.38379 0.49925 0.7733 0.0
C1886 C 0.38377 0.51361 0.80621 0.0
C1887 C 0.38534 0.55322 0.90228 0.0
C1888 C 0.3845 0.54009 0.86905 0.0
H1889 H 0.36265 0.45531 0.71984 0.0
H1890 H 0.3626 0.47743 0.77428 0.0
H1891 H 0.39439 0.56701 0.79556 0.0
H1892 H 0.40839 0.5927 0.95401 0.0
H1893 H 0.40646 0.57523 0.89878 0.0
C1894 C 0.12506 0.52137 0.71954 0.0
C1895 C 0.13681 0.54025 0.70726 0.0
C1896 C 0.12479 0.50944 0.75078 0.0
C1897 C 0.14788 0.48644 0.81768 0.0
H1898 H 0.11364 0.49494 0.86561 0.0
C1899 C 0.1449 0.46108 0.95176 0.0
C1900 C 0.13302 0.44245 0.96365 0.0
C1901 C 0.14576 0.47084 0.92003 0.0
C1902 C 0.12323 0.49187 0.85242 0.0
H1903 H 0.1574 0.56211 0.71842 0.0
H1904 H 0.15686 0.54173 0.77324 0.0
H1905 H 0.11433 0.51826 0.81182 0.0
H1906 H 0.11295 0.41802 0.95123 0.0
H1907 H 0.11448 0.43489 0.89577 0.0
H1908 H 0.1568 0.46034 0.85853 0.0
C1909 C 0.14794 0.53557 0.75848 0.0
C1910 C 0.12364 0.50532 0.82158 0.0
C1911 C 0.14822 0.54747 0.72712 0.0
C1912 C 0.12222 0.43252 0.94286 0.0
C1913 C 0.12305 0.44243 0.91113 0.0
C1914 C 0.14748 0.47308 0.84861 0.0
C1915 C 0.13624 0.51621 0.77064 0.0
C1916 C 0.13596 0.5027 0.80377 0.0
C1917 C 0.13472 0.4623 0.89946 0.0
C1918 C 0.13514 0.47557 0.86632 0.0
H1919 H 0.11611 0.51518 0.70489 0.0
H1920 H 0.1157 0.49416 0.75918 0.0
H1921 H 0.15748 0.48341 0.80451 0.0
H1922 H 0.15342 0.46909 0.96711 0.0
H1923 H 0.15485 0.48635 0.91186 0.0
C1924 C 0.89629 0.52364 0.78278 0.0
C1925 C 0.88423 0.54039 0.7956 0.0
C1926 C 0.89655 0.51145 0.75158 0.0
C1927 C 0.87345 0.48317 0.68606 0.0
H1928 H 0.90691 0.49741 0.63633 0.0
C1929 C 0.87575 0.45539 0.55215 0.0
C1930 C 0.88801 0.43914 0.53979 0.0
C1931 C 0.87496 0.46567 0.5838 0.0
C1932 C 0.89755 0.49273 0.65002 0.0
H1933 H 0.86303 0.55818 0.78541 0.0
H1934 H 0.86353 0.53732 0.73065 0.0
H1935 H 0.90614 0.52148 0.68992 0.0
H1936 H 0.90885 0.41947 0.55136 0.0
H1937 H 0.90743 0.43716 0.60668 0.0
H1938 H 0.86484 0.45464 0.64593 0.0
C1939 C 0.87273 0.53305 0.74497 0.0
C1940 C 0.89709 0.50661 0.68076 0.0
C1941 C 0.87247 0.54524 0.77629 0.0
C1942 C 0.89928 0.43207 0.56008 0.0
C1943 C 0.8985 0.44248 0.59174 0.0
C1944 C 0.8739 0.46935 0.65524 0.0
C1945 C 0.88476 0.5158 0.73229 0.0
C1946 C 0.88506 0.50192 0.69923 0.0
C1947 C 0.88642 0.46003 0.60385 0.0
C1948 C 0.88597 0.47388 0.63687 0.0
H1949 H 0.90553 0.51931 0.79698 0.0
H1950 H 0.90592 0.49783 0.74279 0.0
H1951 H 0.86409 0.47853 0.69975 0.0
H1952 H 0.86687 0.4612 0.53719 0.0
H1953 H 0.86554 0.47935 0.59227 0.0
C1954 C 0.62227 0.57895 0.5598 0.0
C1955 C 0.63311 0.57038 0.53873 0.0
C1956 C 0.62341 0.56903 0.59151 0.0
C1957 C 0.64214 0.50154 0.64365 0.0
H1958 H 0.62723 0.56592 0.70981 0.0
C1959 C 0.64885 0.46598 0.77582 0.0
C1960 C 0.63721 0.47241 0.79519 0.0
C1961 C 0.64879 0.47827 0.74455 0.0
C1962 C 0.63133 0.54744 0.69158 0.0
H1963 H 0.6539 0.5462 0.53477 0.0
H1964 H 0.65596 0.52955 0.59002 0.0
H1965 H 0.62654 0.5883 0.65567 0.0
H1966 H 0.61627 0.49608 0.79663 0.0
H1967 H 0.61614 0.51709 0.74225 0.0
H1968 H 0.64688 0.46064 0.67959 0.0
C1969 C 0.64645 0.54314 0.58197 0.0
C1970 C 0.63093 0.56029 0.66052 0.0
C1971 C 0.6453 0.55297 0.5503 0.0
C1972 C 0.62544 0.49078 0.78244 0.0
C1973 C 0.6254 0.50313 0.75129 0.0
C1974 C 0.64256 0.48873 0.67472 0.0
C1975 C 0.63542 0.55041 0.60289 0.0
C1976 C 0.63626 0.53742 0.63613 0.0
C1977 C 0.6371 0.49736 0.73202 0.0
C1978 C 0.63707 0.5114 0.69904 0.0
H1979 H 0.61273 0.59228 0.55166 0.0
H1980 H 0.61466 0.5748 0.60687 0.0
H1981 H 0.64613 0.48287 0.62543 0.0
H1982 H 0.65808 0.45189 0.78491 0.0
H1983 H 0.65801 0.47356 0.73038 0.0
C1984 C 0.14088 0.362 0.17244 0.0
C1985 C 0.1481 0.35241 0.14494 0.0
C1986 C 0.14354 0.3421 0.20032 0.0
C1987 C 0.16632 0.27013 0.23971 0.0
H1988 H 0.13112 0.23239 0.27218 0.0
C1989 C 0.15865 0.18741 0.35675 0.0
C1990 C 0.14789 0.1601 0.35809 0.0
C1991 C 0.16142 0.20718 0.3289 0.0
C1992 C 0.14105 0.24226 0.26318 0.0
H1993 H 0.16436 0.31672 0.12529 0.0
H1994 H 0.1692 0.28239 0.174 0.0
H1995 H 0.13116 0.28006 0.2306 0.0
H1996 H 0.13208 0.13058 0.33119 0.0
H1997 H 0.13714 0.16415 0.28219 0.0
H1998 H 0.17617 0.23201 0.27257 0.0
C1999 C 0.16158 0.30534 0.17428 0.0
C2000 C 0.14108 0.2702 0.23974 0.0
C2001 C 0.15886 0.32512 0.14641 0.0
C2002 C 0.14074 0.15048 0.3305 0.0
C2003 C 0.14345 0.17038 0.30265 0.0
C2004 C 0.1663 0.24236 0.26353 0.0
C2005 C 0.1534 0.31214 0.20107 0.0
C2006 C 0.15369 0.28453 0.22769 0.0
C2007 C 0.15331 0.20036 0.30202 0.0
C2008 C 0.15364 0.22795 0.27539 0.0
H2009 H 0.1322 0.38187 0.17166 0.0
H2010 H 0.13718 0.3483 0.22071 0.0
H2011 H 0.17621 0.2805 0.2308 0.0
H2012 H 0.16411 0.19582 0.37793 0.0
H2013 H 0.16903 0.23015 0.32927 0.0
C2014 C 0.36083 0.82209 0.3605 0.0
C2015 C 0.37143 0.84985 0.35965 0.0
C2016 C 0.35711 0.80191 0.33342 0.0
C2017 C 0.3622 0.74185 0.28322 0.0
H2018 H 0.36254 0.78085 0.1982 0.0
C2019 C 0.37786 0.65234 0.17433 0.0
C2020 C 0.37183 0.66174 0.14537 0.0
C2021 C 0.37404 0.67239 0.20153 0.0
C2022 C 0.36218 0.7694 0.22179 0.0
H2023 H 0.38609 0.8794 0.32967 0.0
H2024 H 0.3794 0.84503 0.28206 0.0
H2025 H 0.36228 0.82573 0.24212 0.0
H2026 H 0.35647 0.69738 0.12228 0.0
H2027 H 0.34953 0.73171 0.16973 0.0
H2028 H 0.36246 0.68551 0.26289 0.0
C2029 C 0.37377 0.8391 0.30353 0.0
C2030 C 0.36218 0.79522 0.24697 0.0
C2031 C 0.37749 0.85929 0.33074 0.0
C2032 C 0.36114 0.68926 0.14447 0.0
C2033 C 0.35732 0.70929 0.17155 0.0
C2034 C 0.36228 0.71603 0.25804 0.0
C2035 C 0.36403 0.80885 0.30491 0.0
C2036 C 0.3624 0.78179 0.27802 0.0
C2037 C 0.36421 0.70245 0.2001 0.0
C2038 C 0.36249 0.72946 0.22699 0.0
H2039 H 0.35614 0.81394 0.38265 0.0
H2040 H 0.34938 0.77933 0.33519 0.0
H2041 H 0.36257 0.73041 0.30681 0.0
H2042 H 0.38652 0.63241 0.17543 0.0
H2043 H 0.37965 0.66653 0.22304 0.0
C2044 C 0.64248 0.65277 0.3306 0.0
C2045 C 0.64863 0.66223 0.35942 0.0
C2046 C 0.64621 0.67269 0.3033 0.0
C2047 C 0.65791 0.76961 0.28275 0.0
H2048 H 0.65756 0.73028 0.19778 0.0
C2049 C 0.64231 0.85852 0.17354 0.0
C2050 C 0.64846 0.84913 0.14471 0.0
C2051 C 0.64608 0.83862 0.20082 0.0
C2052 C 0.65791 0.7418 0.22136 0.0
H2053 H 0.66407 0.69789 0.3822 0.0
H2054 H 0.67085 0.73206 0.3346 0.0
H2055 H 0.65776 0.68555 0.24177 0.0
H2056 H 0.66394 0.81357 0.1219 0.0
H2057 H 0.67078 0.77945 0.1695 0.0
H2058 H 0.65768 0.82586 0.26234 0.0
C2059 C 0.66305 0.70964 0.33294 0.0
C2060 C 0.65789 0.71608 0.24657 0.0
C2061 C 0.65933 0.68971 0.36011 0.0
C2062 C 0.6592 0.82173 0.144 0.0
C2063 C 0.66296 0.80181 0.17116 0.0
C2064 C 0.65784 0.79533 0.25754 0.0
C2065 C 0.65605 0.70272 0.30453 0.0
C2066 C 0.65769 0.72964 0.2776 0.0
C2067 C 0.65596 0.80867 0.19958 0.0
C2068 C 0.65764 0.78176 0.22651 0.0
H2069 H 0.63381 0.63287 0.32967 0.0
H2070 H 0.64052 0.66679 0.28189 0.0
H2071 H 0.65755 0.78113 0.30633 0.0
H2072 H 0.63362 0.87835 0.17447 0.0
H2073 H 0.6404 0.84448 0.22224 0.0
C2074 C 0.86153 0.19162 0.14202 0.0
C2075 C 0.87199 0.16342 0.14258 0.0
C2076 C 0.85793 0.21152 0.16933 0.0
C2077 C 0.863 0.21636 0.25586 0.0
H2078 H 0.86347 0.32637 0.24144 0.0
C2079 C 0.8786 0.35793 0.33054 0.0
C2080 C 0.87245 0.34815 0.35927 0.0
C2081 C 0.87489 0.33826 0.30308 0.0
C2082 C 0.86324 0.29576 0.24588 0.0
H2083 H 0.88656 0.13298 0.17219 0.0
H2084 H 0.88007 0.16685 0.22017 0.0
H2085 H 0.86355 0.28238 0.19692 0.0
H2086 H 0.85708 0.31201 0.38176 0.0
H2087 H 0.85034 0.27831 0.33385 0.0
H2088 H 0.86333 0.22972 0.30482 0.0
C2089 C 0.87445 0.17331 0.19878 0.0
C2090 C 0.86314 0.27047 0.22035 0.0
C2091 C 0.87806 0.15341 0.17136 0.0
C2092 C 0.86182 0.32045 0.35974 0.0
C2093 C 0.85811 0.30079 0.33239 0.0
C2094 C 0.86302 0.24166 0.28139 0.0
C2095 C 0.86482 0.20387 0.19775 0.0
C2096 C 0.86326 0.23042 0.225 0.0
C2097 C 0.86508 0.30815 0.30402 0.0
C2098 C 0.86339 0.28169 0.27674 0.0
H2099 H 0.85686 0.20022 0.11998 0.0
H2100 H 0.85029 0.23436 0.1678 0.0
H2101 H 0.86303 0.18575 0.2603 0.0
H2102 H 0.88722 0.37799 0.32979 0.0
H2103 H 0.88056 0.3445 0.28172 0.0
C2104 C 0.86197 0.82077 0.64303 0.0
C2105 C 0.8726 0.84845 0.64373 0.0
C2106 C 0.85825 0.80086 0.67022 0.0
C2107 C 0.86328 0.79499 0.75666 0.0
H2108 H 0.86357 0.68512 0.74137 0.0
C2109 C 0.86179 0.68993 0.85966 0.0
C2110 C 0.87251 0.66248 0.85916 0.0
C2111 C 0.85809 0.70973 0.8324 0.0
C2112 C 0.86338 0.71568 0.74604 0.0
H2113 H 0.88734 0.87808 0.67348 0.0
H2114 H 0.88065 0.84421 0.7213 0.0
H2115 H 0.86376 0.72957 0.69719 0.0
H2116 H 0.88742 0.63314 0.82966 0.0
H2117 H 0.88076 0.66678 0.78171 0.0
H2118 H 0.86351 0.78111 0.80552 0.0
C2119 C 0.87499 0.83815 0.69987 0.0
C2120 C 0.86335 0.74124 0.72072 0.0
C2121 C 0.87872 0.85804 0.67256 0.0
C2122 C 0.87873 0.65297 0.83043 0.0
C2123 C 0.87502 0.67275 0.80304 0.0
C2124 C 0.86321 0.76944 0.78199 0.0
C2125 C 0.8652 0.808 0.69867 0.0
C2126 C 0.86355 0.78123 0.7257 0.0
C2127 C 0.86515 0.7027 0.80407 0.0
C2128 C 0.86351 0.72944 0.77701 0.0
H2129 H 0.85726 0.81247 0.62094 0.0
H2130 H 0.8505 0.77834 0.66858 0.0
H2131 H 0.86338 0.82556 0.76134 0.0
H2132 H 0.857 0.69818 0.88168 0.0
H2133 H 0.85027 0.73211 0.8339 0.0
C2134 C 0.64251 0.35867 0.83108 0.0
C2135 C 0.64862 0.34872 0.85983 0.0
C2136 C 0.64611 0.33881 0.80364 0.0
C2137 C 0.65752 0.29581 0.74647 0.0
H2138 H 0.65745 0.18583 0.76101 0.0
C2139 C 0.65897 0.19144 0.64271 0.0
C2140 C 0.6485 0.16329 0.64331 0.0
C2141 C 0.66259 0.21139 0.66998 0.0
C2142 C 0.65756 0.21643 0.75654 0.0
H2143 H 0.66384 0.31211 0.88233 0.0
H2144 H 0.67042 0.27809 0.83446 0.0
H2145 H 0.65729 0.22987 0.80548 0.0
H2146 H 0.63393 0.13298 0.67298 0.0
H2147 H 0.64044 0.16697 0.7209 0.0
H2148 H 0.65714 0.28236 0.69752 0.0
C2149 C 0.66274 0.30082 0.83299 0.0
C2150 C 0.65762 0.24177 0.78204 0.0
C2151 C 0.65913 0.32067 0.86031 0.0
C2152 C 0.64244 0.15339 0.67212 0.0
C2153 C 0.64606 0.17335 0.6995 0.0
C2154 C 0.65753 0.27047 0.72096 0.0
C2155 C 0.65579 0.30836 0.80461 0.0
C2156 C 0.65736 0.2818 0.77735 0.0
C2157 C 0.6557 0.20386 0.69842 0.0
C2158 C 0.65731 0.23043 0.72566 0.0
H2159 H 0.63398 0.37903 0.83031 0.0
H2160 H 0.64046 0.3452 0.78229 0.0
H2161 H 0.65738 0.32641 0.74199 0.0
H2162 H 0.66365 0.19995 0.62066 0.0
H2163 H 0.67025 0.23417 0.66842 0.0
C2164 C 0.37786 0.35972 0.67371 0.0
C2165 C 0.37178 0.35025 0.64481 0.0
C2166 C 0.37417 0.33956 0.70091 0.0
C2167 C 0.36261 0.29571 0.75749 0.0
H2168 H 0.36279 0.186 0.74146 0.0
C2169 C 0.3613 0.18968 0.85985 0.0
C2170 C 0.37196 0.16205 0.859 0.0
C2171 C 0.35756 0.2098 0.83277 0.0
C2172 C 0.36264 0.21651 0.74635 0.0
H2173 H 0.35646 0.31434 0.62185 0.0
H2174 H 0.34974 0.2798 0.66931 0.0
H2175 H 0.36294 0.23087 0.69759 0.0
H2176 H 0.38667 0.13263 0.82903 0.0
H2177 H 0.37994 0.16688 0.78142 0.0
H2178 H 0.36294 0.28135 0.80625 0.0
C2179 C 0.35747 0.30236 0.67107 0.0
C2180 C 0.36258 0.24232 0.72119 0.0
C2181 C 0.36116 0.32251 0.64399 0.0
C2182 C 0.37804 0.15264 0.83009 0.0
C2183 C 0.37429 0.17276 0.80289 0.0
C2184 C 0.36258 0.2699 0.78265 0.0
C2185 C 0.36442 0.30931 0.69955 0.0
C2186 C 0.36281 0.28227 0.72643 0.0
C2187 C 0.3645 0.20292 0.80428 0.0
C2188 C 0.36284 0.22995 0.77741 0.0
H2189 H 0.38645 0.37985 0.67475 0.0
H2190 H 0.37981 0.34551 0.72237 0.0
H2191 H 0.36272 0.32623 0.76238 0.0
H2192 H 0.35661 0.19782 0.882 0.0
H2193 H 0.3498 0.23229 0.83456 0.0
C2194 C 0.14239 0.65389 0.67149 0.0
C2195 C 0.14839 0.66398 0.64267 0.0
C2196 C 0.14601 0.67381 0.6989 0.0
C2197 C 0.15743 0.71679 0.75601 0.0
H2198 H 0.15728 0.82683 0.74179 0.0
C2199 C 0.1588 0.82058 0.86016 0.0
C2200 C 0.14837 0.84887 0.85958 0.0
C2201 C 0.16243 0.80076 0.83284 0.0
C2202 C 0.1574 0.79622 0.74618 0.0
H2203 H 0.16342 0.70098 0.61999 0.0
H2204 H 0.17004 0.73509 0.66779 0.0
H2205 H 0.15706 0.78299 0.6972 0.0
H2206 H 0.1339 0.87955 0.8299 0.0
H2207 H 0.14042 0.84575 0.78191 0.0
H2208 H 0.1571 0.73001 0.80499 0.0
C2209 C 0.16242 0.71221 0.66936 0.0
C2210 C 0.15743 0.77099 0.7206 0.0
C2211 C 0.1588 0.69231 0.64206 0.0
C2212 C 0.14237 0.85901 0.83076 0.0
C2213 C 0.146 0.83916 0.80333 0.0
C2214 C 0.15746 0.74202 0.78159 0.0
C2215 C 0.1556 0.70446 0.69784 0.0
C2216 C 0.1572 0.73092 0.72516 0.0
C2217 C 0.1556 0.80853 0.80436 0.0
C2218 C 0.15721 0.78208 0.77703 0.0
H2219 H 0.13393 0.63333 0.67238 0.0
H2220 H 0.14044 0.66724 0.72032 0.0
H2221 H 0.15732 0.68617 0.7604 0.0
H2222 H 0.16342 0.81187 0.88223 0.0
H2223 H 0.17006 0.77789 0.83438 0.0
loop_
_geom_bond_atom_site_label_1
_geom_bond_atom_site_label_2
_geom_bond_distance
_geom_bond_site_symmetry_2
_ccdc_geom_bond_type
Zn0 N4 2.020 . S
Zn0 O8 2.019 . S
Zn0 N10 2.119 . S
Zn0 O18 1.975 1_545 S
C1 N2 1.334 . S
C1 N5 1.336 . S
N2 C1 1.334 . S
N2 C3 1.334 . S
C3 N2 1.334 . S
C3 N4 1.336 . S
N4 Zn0 2.020 . S
N4 C3 1.336 . S
N4 N5 1.354 . S
N5 C1 1.336 . S
N5 N4 1.354 . S
N5 Zn9 2.020 . S
C6 O7 1.244 . S
C6 O30 1.257 . S
O7 C6 1.244 . S
O8 Zn0 2.019 . S
O8 C28 1.257 . S
Zn9 N5 2.020 . S
Zn9 O16 1.975 1_545 S
Zn9 N25 2.119 . S
Zn9 O30 2.019 . S
N10 Zn0 2.119 . S
N10 C12 1.334 . S
N10 C13 1.328 . S
C11 C12 1.391 . S
C11 N14 1.329 . S
C11 H32 0.930 . S
C12 N10 1.334 . S
C12 C11 1.391 . S
C12 H19 0.930 . S
C13 N10 1.328 . S
C13 C15 1.392 . S
C13 H20 0.930 . S
N14 C11 1.329 . S
N14 C15 1.331 . S
C15 C13 1.392 . S
C15 N14 1.331 . S
O16 Zn9 1.975 1_565 S
O16 C17 1.252 . S
C17 O16 1.252 . S
C17 O18 1.252 . S
O18 Zn0 1.975 1_565 S
O18 C17 1.252 . S
H19 C12 0.930 . S
H20 C13 0.930 . S
C21 C22 1.392 . S
C21 N25 1.328 . S
C21 H27 0.930 . S
C22 C21 1.392 . S
C22 N26 1.331 . S
C23 C24 1.391 . S
C23 N26 1.329 . S
C23 H33 0.930 . S
C24 C23 1.391 . S
C24 N25 1.334 . S
C24 H31 0.930 . S
N25 Zn9 2.119 . S
N25 C21 1.328 . S
N25 C24 1.334 . S
N26 C22 1.331 . S
N26 C23 1.329 . S
H27 C21 0.930 . S
C28 O8 1.257 . S
C28 O29 1.244 . S
O29 C28 1.244 . S
O30 C6 1.257 . S
O30 Zn9 2.019 . S
H31 C24 0.930 . S
H32 C11 0.930 . S
H33 C23 0.930 . S
Zn34 N38 2.020 . S
Zn34 O42 2.019 . S
Zn34 N44 2.119 . S
Zn34 O52 1.975 1_565 S
C35 N36 1.334 . S
C35 N39 1.336 . S
N36 C35 1.334 . S
N36 C37 1.334 . S
C37 N36 1.334 . S
C37 N38 1.336 . S
N38 Zn34 2.020 . S
N38 C37 1.336 . S
N38 N39 1.354 . S
N39 C35 1.336 . S
N39 N38 1.354 . S
N39 Zn43 2.020 . S
C40 O41 1.244 . S
C40 O64 1.257 . S
O41 C40 1.244 . S
O42 Zn34 2.019 . S
O42 C62 1.257 . S
Zn43 N39 2.020 . S
Zn43 O50 1.975 1_565 S
Zn43 N59 2.119 . S
Zn43 O64 2.019 . S
N44 Zn34 2.119 . S
N44 C46 1.334 . S
N44 C47 1.328 . S
C45 C46 1.391 . S
C45 N48 1.329 . S
C45 H66 0.930 . S
C46 N44 1.334 . S
C46 C45 1.391 . S
C46 H53 0.930 . S
C47 N44 1.328 . S
C47 C49 1.392 . S
C47 H54 0.930 . S
N48 C45 1.329 . S
N48 C49 1.331 . S
C49 C47 1.392 . S
C49 N48 1.331 . S
O50 Zn43 1.975 1_545 S
O50 C51 1.252 . S
C51 O50 1.252 . S
C51 O52 1.252 . S
O52 Zn34 1.975 1_545 S
O52 C51 1.252 . S
H53 C46 0.930 . S
H54 C47 0.930 . S
C55 C56 1.392 . S
C55 N59 1.328 . S
C55 H61 0.930 . S
C56 C55 1.392 . S
C56 N60 1.331 . S
C57 C58 1.391 . S
C57 N60 1.329 . S
C57 H67 0.930 . S
C58 C57 1.391 . S
C58 N59 1.334 . S
C58 H65 0.930 . S
N59 Zn43 2.119 . S
N59 C55 1.328 . S
N59 C58 1.334 . S
N60 C56 1.331 . S
N60 C57 1.329 . S
H61 C55 0.930 . S
C62 O42 1.257 . S
C62 O63 1.244 . S
O63 C62 1.244 . S
O64 C40 1.257 . S
O64 Zn43 2.019 . S
H65 C58 0.930 . S
H66 C45 0.930 . S
H67 C57 0.930 . S
Zn68 N72 2.020 . S
Zn68 O76 2.019 . S
Zn68 N78 2.119 . S
Zn68 O86 1.975 1_565 S
C69 N70 1.334 . S
C69 N73 1.336 . S
N70 C69 1.334 . S
N70 C71 1.334 . S
C71 N70 1.334 . S
C71 N72 1.336 . S
N72 Zn68 2.020 . S
N72 C71 1.336 . S
N72 N73 1.354 . S
N73 C69 1.336 . S
N73 N72 1.354 . S
N73 Zn77 2.020 . S
C74 O75 1.244 . S
C74 O98 1.257 . S
O75 C74 1.244 . S
O76 Zn68 2.019 . S
O76 C96 1.257 1_554 S
Zn77 N73 2.020 . S
Zn77 O84 1.975 1_565 S
Zn77 N93 2.119 . S
Zn77 O98 2.019 . S
N78 Zn68 2.119 . S
N78 C80 1.334 . S
N78 C81 1.328 . S
C79 C80 1.391 . S
C79 N82 1.329 . S
C79 H100 0.930 . S
C80 N78 1.334 . S
C80 C79 1.391 . S
C80 H87 0.930 . S
C81 N78 1.328 . S
C81 C83 1.392 . S
C81 H88 0.930 . S
N82 C79 1.329 . S
N82 C83 1.331 . S
C83 C81 1.392 . S
C83 N82 1.331 . S
O84 Zn77 1.975 1_545 S
O84 C85 1.252 . S
C85 O84 1.252 . S
C85 O86 1.252 . S
O86 Zn68 1.975 1_545 S
O86 C85 1.252 . S
H87 C80 0.930 . S
H88 C81 0.930 . S
C89 C90 1.392 . S
C89 N93 1.328 . S
C89 H95 0.930 . S
C90 C89 1.392 . S
C90 N94 1.331 . S
C91 C92 1.391 . S
C91 N94 1.329 . S
C91 H101 0.930 . S
C92 C91 1.391 . S
C92 N93 1.334 . S
C92 H99 0.930 . S
N93 Zn77 2.119 . S
N93 C89 1.328 . S
N93 C92 1.334 . S
N94 C90 1.331 . S
N94 C91 1.329 . S
H95 C89 0.930 . S
C96 O76 1.257 1_556 S
C96 O97 1.244 1_556 S
O97 C96 1.244 1_554 S
O98 C74 1.257 . S
O98 Zn77 2.019 . S
H99 C92 0.930 . S
H100 C79 0.930 . S
H101 C91 0.930 . S
Zn102 N106 2.020 . S
Zn102 O110 2.019 . S
Zn102 N112 2.119 . S
Zn102 O120 1.975 1_545 S
C103 N104 1.334 . S
C103 N107 1.336 . S
N104 C103 1.334 . S
N104 C105 1.334 . S
C105 N104 1.334 . S
C105 N106 1.336 . S
N106 Zn102 2.020 . S
N106 C105 1.336 . S
N106 N107 1.354 . S
N107 C103 1.336 . S
N107 N106 1.354 . S
N107 Zn111 2.020 . S
C108 O109 1.244 . S
C108 O132 1.257 . S
O109 C108 1.244 . S
O110 Zn102 2.019 . S
O110 C130 1.257 1_554 S
Zn111 N107 2.020 . S
Zn111 O118 1.975 1_545 S
Zn111 N127 2.119 . S
Zn111 O132 2.019 . S
N112 Zn102 2.119 . S
N112 C114 1.334 . S
N112 C115 1.328 . S
C113 C114 1.391 . S
C113 N116 1.329 . S
C113 H134 0.930 . S
C114 N112 1.334 . S
C114 C113 1.391 . S
C114 H121 0.930 . S
C115 N112 1.328 . S
C115 C117 1.392 . S
C115 H122 0.930 . S
N116 C113 1.329 . S
N116 C117 1.331 . S
C117 C115 1.392 . S
C117 N116 1.331 . S
O118 Zn111 1.975 1_565 S
O118 C119 1.252 . S
C119 O118 1.252 . S
C119 O120 1.252 . S
O120 Zn102 1.975 1_565 S
O120 C119 1.252 . S
H121 C114 0.930 . S
H122 C115 0.930 . S
C123 C124 1.392 . S
C123 N127 1.328 . S
C123 H129 0.930 . S
C124 C123 1.392 . S
C124 N128 1.331 . S
C125 C126 1.391 . S
C125 N128 1.329 . S
C125 H135 0.930 . S
C126 C125 1.391 . S
C126 N127 1.334 . S
C126 H133 0.930 . S
N127 Zn111 2.119 . S
N127 C123 1.328 . S
N127 C126 1.334 . S
N128 C124 1.331 . S
N128 C125 1.329 . S
H129 C123 0.930 . S
C130 O110 1.257 1_556 S
C130 O131 1.244 1_556 S
O131 C130 1.244 1_554 S
O132 C108 1.257 . S
O132 Zn111 2.019 . S
H133 C126 0.930 . S
H134 C113 0.930 . S
H135 C125 0.930 . S
Zn136 N140 2.020 . S
Zn136 O144 2.019 . S
Zn136 N146 2.119 . S
Zn136 O154 1.975 1_565 S
C137 N138 1.334 . S
C137 N141 1.336 . S
N138 C137 1.334 . S
N138 C139 1.334 . S
C139 N138 1.334 . S
C139 N140 1.336 . S
N140 Zn136 2.020 . S
N140 C139 1.336 . S
N140 N141 1.354 . S
N141 C137 1.336 . S
N141 N140 1.354 . S
N141 Zn145 2.020 . S
C142 O143 1.244 . S
C142 O166 1.257 . S
O143 C142 1.244 . S
O144 Zn136 2.019 . S
O144 C164 1.257 . S
Zn145 N141 2.020 . S
Zn145 O152 1.975 1_565 S
Zn145 N161 2.119 . S
Zn145 O166 2.019 . S
N146 Zn136 2.119 . S
N146 C148 1.334 . S
N146 C149 1.328 . S
C147 C148 1.391 . S
C147 N150 1.329 . S
C147 H168 0.930 . S
C148 N146 1.334 . S
C148 C147 1.391 . S
C148 H155 0.930 . S
C149 N146 1.328 . S
C149 C151 1.392 . S
C149 H156 0.930 . S
N150 C147 1.329 . S
N150 C151 1.331 . S
C151 C149 1.392 . S
C151 N150 1.331 . S
O152 Zn145 1.975 1_545 S
O152 C153 1.252 . S
C153 O152 1.252 . S
C153 O154 1.252 . S
O154 Zn136 1.975 1_545 S
O154 C153 1.252 . S
H155 C148 0.930 . S
H156 C149 0.930 . S
C157 C158 1.392 . S
C157 N161 1.328 . S
C157 H163 0.930 . S
C158 C157 1.392 . S
C158 N162 1.331 . S
C159 C160 1.391 . S
C159 N162 1.329 . S
C159 H169 0.930 . S
C160 C159 1.391 . S
C160 N161 1.334 . S
C160 H167 0.930 . S
N161 Zn145 2.119 . S
N161 C157 1.328 . S
N161 C160 1.334 . S
N162 C158 1.331 . S
N162 C159 1.329 . S
H163 C157 0.930 . S
C164 O144 1.257 . S
C164 O165 1.244 . S
O165 C164 1.244 . S
O166 C142 1.257 . S
O166 Zn145 2.019 . S
H167 C160 0.930 . S
H168 C147 0.930 . S
H169 C159 0.930 . S
Zn170 N174 2.020 . S
Zn170 O178 2.019 . S
Zn170 N180 2.119 . S
Zn170 O188 1.975 1_545 S
C171 N172 1.334 . S
C171 N175 1.336 . S
N172 C171 1.334 . S
N172 C173 1.334 . S
C173 N172 1.334 . S
C173 N174 1.336 . S
N174 Zn170 2.020 . S
N174 C173 1.336 . S
N174 N175 1.354 . S
N175 C171 1.336 . S
N175 N174 1.354 . S
N175 Zn179 2.020 . S
C176 O177 1.244 . S
C176 O200 1.257 . S
O177 C176 1.244 . S
O178 Zn170 2.019 . S
O178 C198 1.257 . S
Zn179 N175 2.020 . S
Zn179 O186 1.975 1_545 S
Zn179 N195 2.119 . S
Zn179 O200 2.019 . S
N180 Zn170 2.119 . S
N180 C182 1.334 . S
N180 C183 1.328 . S
C181 C182 1.391 . S
C181 N184 1.329 . S
C181 H202 0.930 . S
C182 N180 1.334 . S
C182 C181 1.391 . S
C182 H189 0.930 . S
C183 N180 1.328 . S
C183 C185 1.392 . S
C183 H190 0.930 . S
N184 C181 1.329 . S
N184 C185 1.331 . S
C185 C183 1.392 . S
C185 N184 1.331 . S
O186 Zn179 1.975 1_565 S
O186 C187 1.252 . S
C187 O186 1.252 . S
C187 O188 1.252 . S
O188 Zn170 1.975 1_565 S
O188 C187 1.252 . S
H189 C182 0.930 . S
H190 C183 0.930 . S
C191 C192 1.392 . S
C191 N195 1.328 . S
C191 H197 0.930 . S
C192 C191 1.392 . S
C192 N196 1.331 . S
C193 C194 1.391 . S
C193 N196 1.329 . S
C193 H203 0.930 . S
C194 C193 1.391 . S
C194 N195 1.334 . S
C194 H201 0.930 . S
N195 Zn179 2.119 . S
N195 C191 1.328 . S
N195 C194 1.334 . S
N196 C192 1.331 . S
N196 C193 1.329 . S
H197 C191 0.930 . S
C198 O178 1.257 . S
C198 O199 1.244 . S
O199 C198 1.244 . S
O200 C176 1.257 . S
O200 Zn179 2.019 . S
H201 C194 0.930 . S
H202 C181 0.930 . S
H203 C193 0.930 . S
Zn204 N208 2.020 . S
Zn204 O212 2.019 . S
Zn204 N214 2.119 . S
Zn204 O222 1.975 1_545 S
C205 N206 1.334 . S
C205 N209 1.336 . S
N206 C205 1.334 . S
N206 C207 1.334 . S
C207 N206 1.334 . S
C207 N208 1.336 . S
N208 Zn204 2.020 . S
N208 C207 1.336 . S
N208 N209 1.354 . S
N209 C205 1.336 . S
N209 N208 1.354 . S
N209 Zn213 2.020 . S
C210 O211 1.244 1_554 S
C210 O234 1.257 1_554 S
O211 C210 1.244 1_556 S
O212 Zn204 2.019 . S
O212 C232 1.257 . S
Zn213 N209 2.020 . S
Zn213 O220 1.975 1_545 S
Zn213 N229 2.119 . S
Zn213 O234 2.019 . S
N214 Zn204 2.119 . S
N214 C216 1.334 . S
N214 C217 1.328 . S
C215 C216 1.391 . S
C215 N218 1.329 . S
C215 H236 0.930 . S
C216 N214 1.334 . S
C216 C215 1.391 . S
C216 H223 0.930 . S
C217 N214 1.328 . S
C217 C219 1.392 . S
C217 H224 0.930 . S
N218 C215 1.329 . S
N218 C219 1.331 . S
C219 C217 1.392 . S
C219 N218 1.331 . S
O220 Zn213 1.975 1_565 S
O220 C221 1.252 . S
C221 O220 1.252 . S
C221 O222 1.252 . S
O222 Zn204 1.975 1_565 S
O222 C221 1.252 . S
H223 C216 0.930 . S
H224 C217 0.930 . S
C225 C226 1.392 . S
C225 N229 1.328 . S
C225 H231 0.930 . S
C226 C225 1.392 . S
C226 N230 1.331 . S
C227 C228 1.391 . S
C227 N230 1.329 . S
C227 H237 0.930 . S
C228 C227 1.391 . S
C228 N229 1.334 . S
C228 H235 0.930 . S
N229 Zn213 2.119 . S
N229 C225 1.328 . S
N229 C228 1.334 . S
N230 C226 1.331 . S
N230 C227 1.329 . S
H231 C225 0.930 . S
C232 O212 1.257 . S
C232 O233 1.244 . S
O233 C232 1.244 . S
O234 C210 1.257 1_556 S
O234 Zn213 2.019 . S
H235 C228 0.930 . S
H236 C215 0.930 . S
H237 C227 0.930 . S
Zn238 N242 2.020 . S
Zn238 O246 2.019 . S
Zn238 N248 2.119 . S
Zn238 O256 1.975 1_565 S
C239 N240 1.334 . S
C239 N243 1.336 . S
N240 C239 1.334 . S
N240 C241 1.334 . S
C241 N240 1.334 . S
C241 N242 1.336 . S
N242 Zn238 2.020 . S
N242 C241 1.336 . S
N242 N243 1.354 . S
N243 C239 1.336 . S
N243 N242 1.354 . S
N243 Zn247 2.020 . S
C244 O245 1.244 . S
C244 O268 1.257 . S
O245 C244 1.244 . S
O246 Zn238 2.019 . S
O246 C266 1.257 1_556 S
Zn247 N243 2.020 . S
Zn247 O254 1.975 1_565 S
Zn247 N263 2.119 . S
Zn247 O268 2.019 . S
N248 Zn238 2.119 . S
N248 C250 1.334 . S
N248 C251 1.328 . S
C249 C250 1.391 . S
C249 N252 1.329 . S
C249 H270 0.930 . S
C250 N248 1.334 . S
C250 C249 1.391 . S
C250 H257 0.930 . S
C251 N248 1.328 . S
C251 C253 1.392 . S
C251 H258 0.930 . S
N252 C249 1.329 . S
N252 C253 1.331 . S
C253 C251 1.392 . S
C253 N252 1.331 . S
O254 Zn247 1.975 1_545 S
O254 C255 1.252 . S
C255 O254 1.252 . S
C255 O256 1.252 . S
O256 Zn238 1.975 1_545 S
O256 C255 1.252 . S
H257 C250 0.930 . S
H258 C251 0.930 . S
C259 C260 1.392 . S
C259 N263 1.328 . S
C259 H265 0.930 . S
C260 C259 1.392 . S
C260 N264 1.331 . S
C261 C262 1.391 . S
C261 N264 1.329 . S
C261 H271 0.930 . S
C262 C261 1.391 . S
C262 N263 1.334 . S
C262 H269 0.930 . S
N263 Zn247 2.119 . S
N263 C259 1.328 . S
N263 C262 1.334 . S
N264 C260 1.331 . S
N264 C261 1.329 . S
H265 C259 0.930 . S
C266 O246 1.257 1_554 S
C266 O267 1.244 1_554 S
O267 C266 1.244 1_556 S
O268 C244 1.257 . S
O268 Zn247 2.019 . S
H269 C262 0.930 . S
H270 C249 0.930 . S
H271 C261 0.930 . S
Zn272 N276 2.020 . S
Zn272 O280 2.019 . S
Zn272 N282 2.119 . S
Zn272 O290 1.975 . S
C273 N274 1.334 . S
C273 N277 1.336 . S
N274 C273 1.334 . S
N274 C275 1.334 . S
C275 N274 1.334 . S
C275 N276 1.336 . S
N276 Zn272 2.020 . S
N276 C275 1.336 . S
N276 N277 1.354 . S
N277 C273 1.336 . S
N277 N276 1.354 . S
N277 Zn281 2.020 . S
C278 O279 1.244 . S
C278 O302 1.257 . S
O279 C278 1.244 . S
O280 Zn272 2.019 . S
O280 C300 1.257 . S
Zn281 N277 2.020 . S
Zn281 O288 1.975 . S
Zn281 N297 2.119 . S
Zn281 O302 2.019 . S
N282 Zn272 2.119 . S
N282 C284 1.334 . S
N282 C285 1.328 . S
C283 C284 1.391 . S
C283 N286 1.329 . S
C283 H304 0.930 . S
C284 N282 1.334 . S
C284 C283 1.391 . S
C284 H291 0.930 . S
C285 N282 1.328 . S
C285 C287 1.392 . S
C285 H292 0.930 . S
N286 C283 1.329 . S
N286 C287 1.331 . S
C287 C285 1.392 . S
C287 N286 1.331 . S
O288 Zn281 1.975 . S
O288 C289 1.252 . S
C289 O288 1.252 . S
C289 O290 1.252 . S
O290 Zn272 1.975 . S
O290 C289 1.252 . S
H291 C284 0.930 . S
H292 C285 0.930 . S
C293 C294 1.392 . S
C293 N297 1.328 . S
C293 H299 0.930 . S
C294 C293 1.392 . S
C294 N298 1.331 . S
C295 C296 1.391 . S
C295 N298 1.329 . S
C295 H305 0.930 . S
C296 C295 1.391 . S
C296 N297 1.334 . S
C296 H303 0.930 . S
N297 Zn281 2.119 . S
N297 C293 1.328 . S
N297 C296 1.334 . S
N298 C294 1.331 . S
N298 C295 1.329 . S
H299 C293 0.930 . S
C300 O280 1.257 . S
C300 O301 1.244 . S
O301 C300 1.244 . S
O302 C278 1.257 . S
O302 Zn281 2.019 . S
H303 C296 0.930 . S
H304 C283 0.930 . S
H305 C295 0.930 . S
Zn306 N310 2.020 . S
Zn306 O314 2.019 . S
Zn306 N316 2.119 . S
Zn306 O324 1.975 . S
C307 N308 1.334 . S
C307 N311 1.336 . S
N308 C307 1.334 . S
N308 C309 1.334 . S
C309 N308 1.334 . S
C309 N310 1.336 . S
N310 Zn306 2.020 . S
N310 C309 1.336 . S
N310 N311 1.354 . S
N311 C307 1.336 . S
N311 N310 1.354 . S
N311 Zn315 2.020 . S
C312 O313 1.244 . S
C312 O336 1.257 . S
O313 C312 1.244 . S
O314 Zn306 2.019 . S
O314 C334 1.257 . S
Zn315 N311 2.020 . S
Zn315 O322 1.975 . S
Zn315 N331 2.119 . S
Zn315 O336 2.019 . S
N316 Zn306 2.119 . S
N316 C318 1.334 . S
N316 C319 1.328 . S
C317 C318 1.391 . S
C317 N320 1.329 . S
C317 H338 0.930 . S
C318 N316 1.334 . S
C318 C317 1.391 . S
C318 H325 0.930 . S
C319 N316 1.328 . S
C319 C321 1.392 . S
C319 H326 0.930 . S
N320 C317 1.329 . S
N320 C321 1.331 . S
C321 C319 1.392 . S
C321 N320 1.331 . S
O322 Zn315 1.975 . S
O322 C323 1.252 . S
C323 O322 1.252 . S
C323 O324 1.252 . S
O324 Zn306 1.975 . S
O324 C323 1.252 . S
H325 C318 0.930 . S
H326 C319 0.930 . S
C327 C328 1.392 . S
C327 N331 1.328 . S
C327 H333 0.930 . S
C328 C327 1.392 . S
C328 N332 1.331 . S
C329 C330 1.391 . S
C329 N332 1.329 . S
C329 H339 0.930 . S
C330 C329 1.391 . S
C330 N331 1.334 . S
C330 H337 0.930 . S
N331 Zn315 2.119 . S
N331 C327 1.328 . S
N331 C330 1.334 . S
N332 C328 1.331 . S
N332 C329 1.329 . S
H333 C327 0.930 . S
C334 O314 1.257 . S
C334 O335 1.244 . S
O335 C334 1.244 . S
O336 C312 1.257 . S
O336 Zn315 2.019 . S
H337 C330 0.930 . S
H338 C317 0.930 . S
H339 C329 0.930 . S
Zn340 N344 2.020 . S
Zn340 O348 2.019 . S
Zn340 N350 2.119 . S
Zn340 O358 1.975 . S
C341 N342 1.334 . S
C341 N345 1.336 . S
N342 C341 1.334 . S
N342 C343 1.334 . S
C343 N342 1.334 . S
C343 N344 1.336 . S
N344 Zn340 2.020 . S
N344 C343 1.336 . S
N344 N345 1.354 . S
N345 C341 1.336 . S
N345 N344 1.354 . S
N345 Zn349 2.020 . S
C346 O347 1.244 1_556 S
C346 O370 1.257 1_556 S
O347 C346 1.244 1_554 S
O348 Zn340 2.019 . S
O348 C368 1.257 . S
Zn349 N345 2.020 . S
Zn349 O356 1.975 . S
Zn349 N365 2.119 . S
Zn349 O370 2.019 . S
N350 Zn340 2.119 . S
N350 C352 1.334 . S
N350 C353 1.328 . S
C351 C352 1.391 . S
C351 N354 1.329 . S
C351 H372 0.930 . S
C352 N350 1.334 . S
C352 C351 1.391 . S
C352 H359 0.930 . S
C353 N350 1.328 . S
C353 C355 1.392 . S
C353 H360 0.930 . S
N354 C351 1.329 . S
N354 C355 1.331 . S
C355 C353 1.392 . S
C355 N354 1.331 . S
O356 Zn349 1.975 . S
O356 C357 1.252 . S
C357 O356 1.252 . S
C357 O358 1.252 . S
O358 Zn340 1.975 . S
O358 C357 1.252 . S
H359 C352 0.930 . S
H360 C353 0.930 . S
C361 C362 1.392 . S
C361 N365 1.328 . S
C361 H367 0.930 . S
C362 C361 1.392 . S
C362 N366 1.331 . S
C363 C364 1.391 . S
C363 N366 1.329 . S
C363 H373 0.930 . S
C364 C363 1.391 . S
C364 N365 1.334 . S
C364 H371 0.930 . S
N365 Zn349 2.119 . S
N365 C361 1.328 . S
N365 C364 1.334 . S
N366 C362 1.331 . S
N366 C363 1.329 . S
H367 C361 0.930 . S
C368 O348 1.257 . S
C368 O369 1.244 . S
O369 C368 1.244 . S
O370 C346 1.257 1_554 S
O370 Zn349 2.019 . S
H371 C364 0.930 . S
H372 C351 0.930 . S
H373 C363 0.930 . S
Zn374 N378 2.020 . S
Zn374 O382 2.019 . S
Zn374 N384 2.119 . S
Zn374 O392 1.975 . S
C375 N376 1.334 . S
C375 N379 1.336 . S
N376 C375 1.334 . S
N376 C377 1.334 . S
C377 N376 1.334 . S
C377 N378 1.336 . S
N378 Zn374 2.020 . S
N378 C377 1.336 . S
N378 N379 1.354 . S
N379 C375 1.336 . S
N379 N378 1.354 . S
N379 Zn383 2.020 . S
C380 O381 1.244 1_556 S
C380 O404 1.257 1_556 S
O381 C380 1.244 1_554 S
O382 Zn374 2.019 . S
O382 C402 1.257 . S
Zn383 N379 2.020 . S
Zn383 O390 1.975 . S
Zn383 N399 2.119 . S
Zn383 O404 2.019 . S
N384 Zn374 2.119 . S
N384 C386 1.334 . S
N384 C387 1.328 . S
C385 C386 1.391 . S
C385 N388 1.329 . S
C385 H406 0.930 . S
C386 N384 1.334 . S
C386 C385 1.391 . S
C386 H393 0.930 . S
C387 N384 1.328 . S
C387 C389 1.392 . S
C387 H394 0.930 . S
N388 C385 1.329 . S
N388 C389 1.331 . S
C389 C387 1.392 . S
C389 N388 1.331 . S
O390 Zn383 1.975 . S
O390 C391 1.252 . S
C391 O390 1.252 . S
C391 O392 1.252 . S
O392 Zn374 1.975 . S
O392 C391 1.252 . S
H393 C386 0.930 . S
H394 C387 0.930 . S
C395 C396 1.392 . S
C395 N399 1.328 . S
C395 H401 0.930 . S
C396 C395 1.392 . S
C396 N400 1.331 . S
C397 C398 1.391 . S
C397 N400 1.329 . S
C397 H407 0.930 . S
C398 C397 1.391 . S
C398 N399 1.334 . S
C398 H405 0.930 . S
N399 Zn383 2.119 . S
N399 C395 1.328 . S
N399 C398 1.334 . S
N400 C396 1.331 . S
N400 C397 1.329 . S
H401 C395 0.930 . S
C402 O382 1.257 . S
C402 O403 1.244 . S
O403 C402 1.244 . S
O404 C380 1.257 1_554 S
O404 Zn383 2.019 . S
H405 C398 0.930 . S
H406 C385 0.930 . S
H407 C397 0.930 . S
Zn408 N412 2.020 . S
Zn408 O416 2.019 . S
Zn408 N418 2.119 . S
Zn408 O426 1.975 . S
C409 N410 1.334 . S
C409 N413 1.336 . S
N410 C409 1.334 . S
N410 C411 1.334 . S
C411 N410 1.334 . S
C411 N412 1.336 . S
N412 Zn408 2.020 . S
N412 C411 1.336 . S
N412 N413 1.354 . S
N413 C409 1.336 . S
N413 N412 1.354 . S
N413 Zn417 2.020 . S
C414 O415 1.244 . S
C414 O438 1.257 . S
O415 C414 1.244 . S
O416 Zn408 2.019 . S
O416 C436 1.257 . S
Zn417 N413 2.020 . S
Zn417 O424 1.975 . S
Zn417 N433 2.119 . S
Zn417 O438 2.019 . S
N418 Zn408 2.119 . S
N418 C420 1.334 . S
N418 C421 1.328 . S
C419 C420 1.391 . S
C419 N422 1.329 . S
C419 H440 0.930 . S
C420 N418 1.334 . S
C420 C419 1.391 . S
C420 H427 0.930 . S
C421 N418 1.328 . S
C421 C423 1.392 . S
C421 H428 0.930 . S
N422 C419 1.329 . S
N422 C423 1.331 . S
C423 C421 1.392 . S
C423 N422 1.331 . S
O424 Zn417 1.975 . S
O424 C425 1.252 . S
C425 O424 1.252 . S
C425 O426 1.252 . S
O426 Zn408 1.975 . S
O426 C425 1.252 . S
H427 C420 0.930 . S
H428 C421 0.930 . S
C429 C430 1.392 . S
C429 N433 1.328 . S
C429 H435 0.930 . S
C430 C429 1.392 . S
C430 N434 1.331 . S
C431 C432 1.391 . S
C431 N434 1.329 . S
C431 H441 0.930 . S
C432 C431 1.391 . S
C432 N433 1.334 . S
C432 H439 0.930 . S
N433 Zn417 2.119 . S
N433 C429 1.328 . S
N433 C432 1.334 . S
N434 C430 1.331 . S
N434 C431 1.329 . S
H435 C429 0.930 . S
C436 O416 1.257 . S
C436 O437 1.244 . S
O437 C436 1.244 . S
O438 C414 1.257 . S
O438 Zn417 2.019 . S
H439 C432 0.930 . S
H440 C419 0.930 . S
H441 C431 0.930 . S
Zn442 N446 2.020 . S
Zn442 O450 2.019 . S
Zn442 N452 2.119 . S
Zn442 O460 1.975 . S
C443 N444 1.334 . S
C443 N447 1.336 . S
N444 C443 1.334 . S
N444 C445 1.334 . S
C445 N444 1.334 . S
C445 N446 1.336 . S
N446 Zn442 2.020 . S
N446 C445 1.336 . S
N446 N447 1.354 . S
N447 C443 1.336 . S
N447 N446 1.354 . S
N447 Zn451 2.020 . S
C448 O449 1.244 . S
C448 O472 1.257 . S
O449 C448 1.244 . S
O450 Zn442 2.019 . S
O450 C470 1.257 . S
Zn451 N447 2.020 . S
Zn451 O458 1.975 . S
Zn451 N467 2.119 . S
Zn451 O472 2.019 . S
N452 Zn442 2.119 . S
N452 C454 1.334 . S
N452 C455 1.328 . S
C453 C454 1.391 . S
C453 N456 1.329 . S
C453 H474 0.930 . S
C454 N452 1.334 . S
C454 C453 1.391 . S
C454 H461 0.930 . S
C455 N452 1.328 . S
C455 C457 1.392 . S
C455 H462 0.930 . S
N456 C453 1.329 . S
N456 C457 1.331 . S
C457 C455 1.392 . S
C457 N456 1.331 . S
O458 Zn451 1.975 . S
O458 C459 1.252 . S
C459 O458 1.252 . S
C459 O460 1.252 . S
O460 Zn442 1.975 . S
O460 C459 1.252 . S
H461 C454 0.930 . S
H462 C455 0.930 . S
C463 C464 1.392 . S
C463 N467 1.328 . S
C463 H469 0.930 . S
C464 C463 1.392 . S
C464 N468 1.331 . S
C465 C466 1.391 . S
C465 N468 1.329 . S
C465 H475 0.930 . S
C466 C465 1.391 . S
C466 N467 1.334 . S
C466 H473 0.930 . S
N467 Zn451 2.119 . S
N467 C463 1.328 . S
N467 C466 1.334 . S
N468 C464 1.331 . S
N468 C465 1.329 . S
H469 C463 0.930 . S
C470 O450 1.257 . S
C470 O471 1.244 . S
O471 C470 1.244 . S
O472 C448 1.257 . S
O472 Zn451 2.019 . S
H473 C466 0.930 . S
H474 C453 0.930 . S
H475 C465 0.930 . S
Zn476 N480 2.020 . S
Zn476 O484 2.019 . S
Zn476 N486 2.119 . S
Zn476 O494 1.975 . S
C477 N478 1.334 . S
C477 N481 1.336 . S
N478 C477 1.334 . S
N478 C479 1.334 . S
C479 N478 1.334 . S
C479 N480 1.336 . S
N480 Zn476 2.020 . S
N480 C479 1.336 . S
N480 N481 1.354 . S
N481 C477 1.336 . S
N481 N480 1.354 . S
N481 Zn485 2.020 . S
C482 O483 1.244 . S
C482 O506 1.257 . S
O483 C482 1.244 . S
O484 Zn476 2.019 . S
O484 C504 1.257 1_556 S
Zn485 N481 2.020 . S
Zn485 O492 1.975 . S
Zn485 N501 2.119 . S
Zn485 O506 2.019 . S
N486 Zn476 2.119 . S
N486 C488 1.334 . S
N486 C489 1.328 . S
C487 C488 1.391 . S
C487 N490 1.329 . S
C487 H508 0.930 . S
C488 N486 1.334 . S
C488 C487 1.391 . S
C488 H495 0.930 . S
C489 N486 1.328 . S
C489 C491 1.392 . S
C489 H496 0.930 . S
N490 C487 1.329 . S
N490 C491 1.331 . S
C491 C489 1.392 . S
C491 N490 1.331 . S
O492 Zn485 1.975 . S
O492 C493 1.252 . S
C493 O492 1.252 . S
C493 O494 1.252 . S
O494 Zn476 1.975 . S
O494 C493 1.252 . S
H495 C488 0.930 . S
H496 C489 0.930 . S
C497 C498 1.392 . S
C497 N501 1.328 . S
C497 H503 0.930 . S
C498 C497 1.392 . S
C498 N502 1.331 . S
C499 C500 1.391 . S
C499 N502 1.329 . S
C499 H509 0.930 . S
C500 C499 1.391 . S
C500 N501 1.334 . S
C500 H507 0.930 . S
N501 Zn485 2.119 . S
N501 C497 1.328 . S
N501 C500 1.334 . S
N502 C498 1.331 . S
N502 C499 1.329 . S
H503 C497 0.930 . S
C504 O484 1.257 1_554 S
C504 O505 1.244 1_554 S
O505 C504 1.244 1_556 S
O506 C482 1.257 . S
O506 Zn485 2.019 . S
H507 C500 0.930 . S
H508 C487 0.930 . S
H509 C499 0.930 . S
Zn510 N514 2.020 . S
Zn510 O518 2.019 . S
Zn510 N520 2.119 . S
Zn510 O528 1.975 . S
C511 N512 1.334 . S
C511 N515 1.336 . S
N512 C511 1.334 . S
N512 C513 1.334 . S
C513 N512 1.334 . S
C513 N514 1.336 . S
N514 Zn510 2.020 . S
N514 C513 1.336 . S
N514 N515 1.354 . S
N515 C511 1.336 . S
N515 N514 1.354 . S
N515 Zn519 2.020 . S
C516 O517 1.244 . S
C516 O540 1.257 . S
O517 C516 1.244 . S
O518 Zn510 2.019 . S
O518 C538 1.257 1_556 S
Zn519 N515 2.020 . S
Zn519 O526 1.975 . S
Zn519 N535 2.119 . S
Zn519 O540 2.019 . S
N520 Zn510 2.119 . S
N520 C522 1.334 . S
N520 C523 1.328 . S
C521 C522 1.391 . S
C521 N524 1.329 . S
C521 H542 0.930 . S
C522 N520 1.334 . S
C522 C521 1.391 . S
C522 H529 0.930 . S
C523 N520 1.328 . S
C523 C525 1.392 . S
C523 H530 0.930 . S
N524 C521 1.329 . S
N524 C525 1.331 . S
C525 C523 1.392 . S
C525 N524 1.331 . S
O526 Zn519 1.975 . S
O526 C527 1.252 . S
C527 O526 1.252 . S
C527 O528 1.252 . S
O528 Zn510 1.975 . S
O528 C527 1.252 . S
H529 C522 0.930 . S
H530 C523 0.930 . S
C531 C532 1.392 . S
C531 N535 1.328 . S
C531 H537 0.930 . S
C532 C531 1.392 . S
C532 N536 1.331 . S
C533 C534 1.391 . S
C533 N536 1.329 . S
C533 H543 0.930 . S
C534 C533 1.391 . S
C534 N535 1.334 . S
C534 H541 0.930 . S
N535 Zn519 2.119 . S
N535 C531 1.328 . S
N535 C534 1.334 . S
N536 C532 1.331 . S
N536 C533 1.329 . S
H537 C531 0.930 . S
C538 O518 1.257 1_554 S
C538 O539 1.244 1_554 S
O539 C538 1.244 1_556 S
O540 C516 1.257 . S
O540 Zn519 2.019 . S
H541 C534 0.930 . S
H542 C521 0.930 . S
H543 C533 0.930 . S
C544 C545 1.349 1_565 S
C544 C546 1.327 . S
C544 H569 0.950 . S
C545 C544 1.349 1_545 S
C545 C561 1.349 . S
C546 C544 1.327 . S
C546 C565 1.429 1_565 S
C546 H570 0.950 . S
C547 C564 1.574 1_455 S
C547 C566 1.368 . S
C547 H571 0.949 . S
H548 C552 0.949 . S
C549 C550 1.349 1_545 S
C549 C551 1.327 . S
C549 H572 0.950 . S
C550 C549 1.349 1_565 S
C550 C562 1.349 . S
C551 C549 1.327 . S
C551 C567 1.429 1_545 S
C551 H573 0.950 . S
C552 H548 0.949 . S
C552 C560 1.574 1_655 S
C552 C568 1.368 . S
H553 C561 0.950 . S
H554 C559 0.950 . S
H555 C560 0.949 . S
H556 C562 0.950 . S
H557 C563 0.950 . S
H558 C564 0.949 . S
C559 H554 0.950 . S
C559 C561 1.327 . S
C559 C565 1.429 . S
C560 C552 1.574 1_455 S
C560 H555 0.949 . S
C560 C566 1.368 1_565 S
C561 C545 1.349 . S
C561 H553 0.950 . S
C561 C559 1.327 . S
C562 C550 1.349 . S
C562 H556 0.950 . S
C562 C563 1.327 . S
C563 H557 0.950 . S
C563 C562 1.327 . S
C563 C567 1.429 . S
C564 C547 1.574 1_655 S
C564 H558 0.949 . S
C564 C568 1.368 1_545 S
C565 C546 1.429 1_545 S
C565 C559 1.429 . S
C565 C566 1.523 . S
C566 C547 1.368 . S
C566 C560 1.368 1_545 S
C566 C565 1.523 . S
C567 C551 1.429 1_565 S
C567 C563 1.429 . S
C567 C568 1.523 . S
C568 C552 1.368 . S
C568 C564 1.368 1_565 S
C568 C567 1.523 . S
H569 C544 0.950 . S
H570 C546 0.950 . S
H571 C547 0.949 . S
H572 C549 0.950 . S
H573 C551 0.950 . S
C574 C575 1.349 . S
C574 C576 1.327 . S
C574 H599 0.950 . S
C575 C574 1.349 . S
C575 C591 1.349 1_545 S
C576 C574 1.327 . S
C576 C595 1.429 . S
C576 H600 0.950 . S
C577 C594 1.574 . S
C577 C596 1.368 1_565 S
C577 H601 0.949 . S
H578 C582 0.949 . S
C579 C580 1.349 . S
C579 C581 1.327 . S
C579 H602 0.950 . S
C580 C579 1.349 . S
C580 C592 1.349 1_565 S
C581 C579 1.327 . S
C581 C597 1.429 . S
C581 H603 0.950 . S
C582 H578 0.949 . S
C582 C590 1.574 . S
C582 C598 1.368 1_545 S
H583 C591 0.950 . S
H584 C589 0.950 . S
H585 C590 0.949 . S
H586 C592 0.950 . S
H587 C593 0.950 . S
H588 C594 0.949 . S
C589 H584 0.950 . S
C589 C591 1.327 . S
C589 C595 1.429 1_565 S
C590 C582 1.574 . S
C590 H585 0.949 . S
C590 C596 1.368 . S
C591 C575 1.349 1_565 S
C591 H583 0.950 . S
C591 C589 1.327 . S
C592 C580 1.349 1_545 S
C592 H586 0.950 . S
C592 C593 1.327 . S
C593 H587 0.950 . S
C593 C592 1.327 . S
C593 C597 1.429 1_545 S
C594 C577 1.574 . S
C594 H588 0.949 . S
C594 C598 1.368 . S
C595 C576 1.429 . S
C595 C589 1.429 1_545 S
C595 C596 1.523 . S
C596 C577 1.368 1_545 S
C596 C590 1.368 . S
C596 C595 1.523 . S
C597 C581 1.429 . S
C597 C593 1.429 1_565 S
C597 C598 1.523 . S
C598 C582 1.368 1_565 S
C598 C594 1.368 . S
C598 C597 1.523 . S
H599 C574 0.950 . S
H600 C576 0.950 . S
H601 C577 0.949 . S
H602 C579 0.950 . S
H603 C581 0.950 . S
C604 C605 1.349 . S
C604 C606 1.327 . S
C604 H629 0.950 . S
C605 C604 1.349 . S
C605 C621 1.349 . S
C606 C604 1.327 . S
C606 C625 1.429 . S
C606 H630 0.950 . S
C607 C624 1.574 1_545 S
C607 C626 1.368 1_554 S
C607 H631 0.949 . S
H608 C612 0.949 . S
C609 C610 1.349 . S
C609 C611 1.327 . S
C609 H632 0.950 . S
C610 C609 1.349 . S
C610 C622 1.349 . S
C611 C609 1.327 . S
C611 C627 1.429 . S
C611 H633 0.950 . S
C612 H608 0.949 . S
C612 C620 1.574 1_565 S
C612 C628 1.368 1_556 S
H613 C621 0.950 1_554 S
H614 C619 0.950 . S
H615 C620 0.949 . S
H616 C622 0.950 1_556 S
H617 C623 0.950 . S
H618 C624 0.949 . S
C619 H614 0.950 . S
C619 C621 1.327 1_554 S
C619 C625 1.429 1_554 S
C620 C612 1.574 1_545 S
C620 H615 0.949 . S
C620 C626 1.368 . S
C621 C605 1.349 . S
C621 H613 0.950 1_556 S
C621 C619 1.327 1_556 S
C622 C610 1.349 . S
C622 H616 0.950 1_554 S
C622 C623 1.327 1_554 S
C623 H617 0.950 . S
C623 C622 1.327 1_556 S
C623 C627 1.429 1_556 S
C624 C607 1.574 1_565 S
C624 H618 0.949 . S
C624 C628 1.368 . S
C625 C606 1.429 . S
C625 C619 1.429 1_556 S
C625 C626 1.523 . S
C626 C607 1.368 1_556 S
C626 C620 1.368 . S
C626 C625 1.523 . S
C627 C611 1.429 . S
C627 C623 1.429 1_554 S
C627 C628 1.523 . S
C628 C612 1.368 1_554 S
C628 C624 1.368 . S
C628 C627 1.523 . S
H629 C604 0.950 . S
H630 C606 0.950 . S
H631 C607 0.949 . S
H632 C609 0.950 . S
H633 C611 0.950 . S
C634 C635 1.349 . S
C634 C636 1.327 . S
C634 H659 0.950 . S
C635 C634 1.349 . S
C635 C651 1.349 . S
C636 C634 1.327 . S
C636 C655 1.429 . S
C636 H660 0.950 . S
C637 C654 1.570 1_465 S
C637 C656 1.372 1_554 S
C637 H661 0.950 . S
H638 C642 0.950 . S
C639 C640 1.349 . S
C639 C641 1.327 . S
C639 H662 0.950 . S
C640 C639 1.349 . S
C640 C652 1.349 . S
C641 C639 1.327 . S
C641 C657 1.429 . S
C641 H663 0.950 . S
C642 H638 0.950 . S
C642 C650 1.570 1_645 S
C642 C658 1.372 1_556 S
H643 C651 0.950 1_554 S
H644 C649 0.950 . S
H645 C650 0.949 . S
H646 C652 0.950 1_556 S
H647 C653 0.950 . S
H648 C654 0.949 . S
C649 H644 0.950 . S
C649 C651 1.327 1_554 S
C649 C655 1.429 1_554 S
C650 C642 1.570 1_465 S
C650 H645 0.949 . S
C650 C656 1.368 . S
C651 C635 1.349 . S
C651 H643 0.950 1_556 S
C651 C649 1.327 1_556 S
C652 C640 1.349 . S
C652 H646 0.950 1_554 S
C652 C653 1.327 1_554 S
C653 H647 0.950 . S
C653 C652 1.327 1_556 S
C653 C657 1.429 1_556 S
C654 C637 1.570 1_645 S
C654 H648 0.949 . S
C654 C658 1.368 . S
C655 C636 1.429 . S
C655 C649 1.429 1_556 S
C655 C656 1.523 . S
C656 C637 1.372 1_556 S
C656 C650 1.368 . S
C656 C655 1.523 . S
C657 C641 1.429 . S
C657 C653 1.429 1_554 S
C657 C658 1.523 . S
C658 C642 1.372 1_554 S
C658 C654 1.368 . S
C658 C657 1.523 . S
H659 C634 0.950 . S
H660 C636 0.950 . S
H661 C637 0.950 . S
H662 C639 0.950 . S
H663 C641 0.950 . S
C664 C665 1.349 . S
C664 C666 1.327 . S
C664 H689 0.950 . S
C665 C664 1.349 . S
C665 C681 1.349 . S
C666 C664 1.327 . S
C666 C685 1.429 . S
C666 H690 0.950 . S
C667 C684 1.574 . S
C667 C686 1.368 . S
C667 H691 0.949 . S
H668 C672 0.949 . S
C669 C670 1.349 . S
C669 C671 1.327 . S
C669 H692 0.950 . S
C670 C669 1.349 . S
C670 C682 1.349 . S
C671 C669 1.327 . S
C671 C687 1.429 . S
C671 H693 0.950 . S
C672 H668 0.949 . S
C672 C680 1.574 . S
C672 C688 1.368 . S
H673 C681 0.950 . S
H674 C679 0.950 . S
H675 C680 0.949 . S
H676 C682 0.950 . S
H677 C683 0.950 . S
H678 C684 0.949 . S
C679 H674 0.950 . S
C679 C681 1.327 . S
C679 C685 1.429 . S
C680 C672 1.574 . S
C680 H675 0.949 . S
C680 C686 1.368 . S
C681 C665 1.349 . S
C681 H673 0.950 . S
C681 C679 1.327 . S
C682 C670 1.349 . S
C682 H676 0.950 . S
C682 C683 1.327 . S
C683 H677 0.950 . S
C683 C682 1.327 . S
C683 C687 1.429 . S
C684 C667 1.574 . S
C684 H678 0.949 . S
C684 C688 1.368 . S
C685 C666 1.429 . S
C685 C679 1.429 . S
C685 C686 1.523 . S
C686 C667 1.368 . S
C686 C680 1.368 . S
C686 C685 1.523 . S
C687 C671 1.429 . S
C687 C683 1.429 . S
C687 C688 1.523 . S
C688 C672 1.368 . S
C688 C684 1.368 . S
C688 C687 1.523 . S
H689 C664 0.950 . S
H690 C666 0.950 . S
H691 C667 0.949 . S
H692 C669 0.950 . S
H693 C671 0.950 . S
C694 C695 1.349 . S
C694 C696 1.327 . S
C694 H719 0.950 . S
C695 C694 1.349 . S
C695 C711 1.349 . S
C696 C694 1.327 . S
C696 C715 1.429 . S
C696 H720 0.950 . S
C697 C714 1.574 1_455 S
C697 C716 1.368 . S
C697 H721 0.949 . S
H698 C702 0.949 . S
C699 C700 1.349 . S
C699 C701 1.327 . S
C699 H722 0.950 . S
C700 C699 1.349 . S
C700 C712 1.349 . S
C701 C699 1.327 . S
C701 C717 1.429 . S
C701 H723 0.950 . S
C702 H698 0.949 . S
C702 C710 1.574 1_655 S
C702 C718 1.368 . S
H703 C711 0.950 . S
H704 C709 0.950 . S
H705 C710 0.949 . S
H706 C712 0.950 . S
H707 C713 0.950 . S
H708 C714 0.949 . S
C709 H704 0.950 . S
C709 C711 1.327 . S
C709 C715 1.429 . S
C710 C702 1.574 1_455 S
C710 H705 0.949 . S
C710 C716 1.368 . S
C711 C695 1.349 . S
C711 H703 0.950 . S
C711 C709 1.327 . S
C712 C700 1.349 . S
C712 H706 0.950 . S
C712 C713 1.327 . S
C713 H707 0.950 . S
C713 C712 1.327 . S
C713 C717 1.429 . S
C714 C697 1.574 1_655 S
C714 H708 0.949 . S
C714 C718 1.368 . S
C715 C696 1.429 . S
C715 C709 1.429 . S
C715 C716 1.523 . S
C716 C697 1.368 . S
C716 C710 1.368 . S
C716 C715 1.523 . S
C717 C701 1.429 . S
C717 C713 1.429 . S
C717 C718 1.523 . S
C718 C702 1.368 . S
C718 C714 1.368 . S
C718 C717 1.523 . S
H719 C694 0.950 . S
H720 C696 0.950 . S
H721 C697 0.949 . S
H722 C699 0.950 . S
H723 C701 0.950 . S
C724 C725 1.349 . S
C724 C726 1.327 1_554 S
C724 H749 0.950 1_554 S
C725 C724 1.349 . S
C725 C741 1.349 . S
C726 C724 1.327 1_556 S
C726 C745 1.429 1_556 S
C726 H750 0.950 . S
C727 C744 1.574 1_455 S
C727 C746 1.368 . S
C727 H751 0.949 . S
H728 C732 0.949 . S
C729 C730 1.349 . S
C729 C731 1.327 1_556 S
C729 H752 0.950 1_556 S
C730 C729 1.349 . S
C730 C742 1.349 . S
C731 C729 1.327 1_554 S
C731 C747 1.429 1_554 S
C731 H753 0.950 . S
C732 H728 0.949 . S
C732 C740 1.574 1_655 S
C732 C748 1.368 . S
H733 C741 0.950 . S
H734 C739 0.950 . S
H735 C740 0.949 . S
H736 C742 0.950 . S
H737 C743 0.950 . S
H738 C744 0.949 . S
C739 H734 0.950 . S
C739 C741 1.327 . S
C739 C745 1.429 . S
C740 C732 1.574 1_455 S
C740 H735 0.949 . S
C740 C746 1.368 1_556 S
C741 C725 1.349 . S
C741 H733 0.950 . S
C741 C739 1.327 . S
C742 C730 1.349 . S
C742 H736 0.950 . S
C742 C743 1.327 . S
C743 H737 0.950 . S
C743 C742 1.327 . S
C743 C747 1.429 . S
C744 C727 1.574 1_655 S
C744 H738 0.949 . S
C744 C748 1.368 1_554 S
C745 C726 1.429 1_554 S
C745 C739 1.429 . S
C745 C746 1.523 . S
C746 C727 1.368 . S
C746 C740 1.368 1_554 S
C746 C745 1.523 . S
C747 C731 1.429 1_556 S
C747 C743 1.429 . S
C747 C748 1.523 . S
C748 C732 1.368 . S
C748 C744 1.368 1_556 S
C748 C747 1.523 . S
H749 C724 0.950 1_556 S
H750 C726 0.950 . S
H751 C727 0.949 . S
H752 C729 0.950 1_554 S
H753 C731 0.950 . S
C754 C755 1.349 . S
C754 C756 1.327 . S
C754 H779 0.950 . S
C755 C754 1.349 . S
C755 C771 1.349 . S
C756 C754 1.327 . S
C756 C775 1.429 . S
C756 H780 0.950 . S
C757 C774 1.574 1_554 S
C757 C776 1.368 . S
C757 H781 0.949 . S
H758 C762 0.949 . S
C759 C760 1.349 . S
C759 C761 1.327 . S
C759 H782 0.950 . S
C760 C759 1.349 . S
C760 C772 1.349 . S
C761 C759 1.327 . S
C761 C777 1.429 . S
C761 H783 0.950 . S
C762 H758 0.949 . S
C762 C770 1.574 1_556 S
C762 C778 1.368 . S
H763 C771 0.950 . S
H764 C769 0.950 . S
H765 C770 0.949 . S
H766 C772 0.950 . S
H767 C773 0.950 . S
H768 C774 0.949 . S
C769 H764 0.950 . S
C769 C771 1.327 . S
C769 C775 1.429 . S
C770 C762 1.574 1_554 S
C770 H765 0.949 . S
C770 C776 1.368 . S
C771 C755 1.349 . S
C771 H763 0.950 . S
C771 C769 1.327 . S
C772 C760 1.349 . S
C772 H766 0.950 . S
C772 C773 1.327 . S
C773 H767 0.950 . S
C773 C772 1.327 . S
C773 C777 1.429 . S
C774 C757 1.574 1_556 S
C774 H768 0.949 . S
C774 C778 1.368 . S
C775 C756 1.429 . S
C775 C769 1.429 . S
C775 C776 1.523 . S
C776 C757 1.368 . S
C776 C770 1.368 . S
C776 C775 1.523 . S
C777 C761 1.429 . S
C777 C773 1.429 . S
C777 C778 1.523 . S
C778 C762 1.368 . S
C778 C774 1.368 . S
C778 C777 1.523 . S
H779 C754 0.950 . S
H780 C756 0.950 . S
H781 C757 0.949 . S
H782 C759 0.950 . S
H783 C761 0.950 . S
C784 C785 1.349 . S
C784 C786 1.327 . S
C784 H809 0.950 . S
C785 C784 1.349 . S
C785 C801 1.349 . S
C786 C784 1.327 . S
C786 C805 1.429 . S
C786 H810 0.950 . S
C787 C804 1.574 . S
C787 C806 1.368 . S
C787 H811 0.949 . S
H788 C792 0.949 . S
C789 C790 1.349 . S
C789 C791 1.327 . S
C789 H812 0.950 . S
C790 C789 1.349 . S
C790 C802 1.349 . S
C791 C789 1.327 . S
C791 C807 1.429 . S
C791 H813 0.950 . S
C792 H788 0.949 . S
C792 C800 1.574 . S
C792 C808 1.368 . S
H793 C801 0.950 . S
H794 C799 0.950 . S
H795 C800 0.949 . S
H796 C802 0.950 . S
H797 C803 0.950 . S
H798 C804 0.949 . S
C799 H794 0.950 . S
C799 C801 1.327 . S
C799 C805 1.429 . S
C800 C792 1.574 . S
C800 H795 0.949 . S
C800 C806 1.368 . S
C801 C785 1.349 . S
C801 H793 0.950 . S
C801 C799 1.327 . S
C802 C790 1.349 . S
C802 H796 0.950 . S
C802 C803 1.327 . S
C803 H797 0.950 . S
C803 C802 1.327 . S
C803 C807 1.429 . S
C804 C787 1.574 . S
C804 H798 0.949 . S
C804 C808 1.368 . S
C805 C786 1.429 . S
C805 C799 1.429 . S
C805 C806 1.523 . S
C806 C787 1.368 . S
C806 C800 1.368 . S
C806 C805 1.523 . S
C807 C791 1.429 . S
C807 C803 1.429 . S
C807 C808 1.523 . S
C808 C792 1.368 . S
C808 C804 1.368 . S
C808 C807 1.523 . S
H809 C784 0.950 . S
H810 C786 0.950 . S
H811 C787 0.949 . S
H812 C789 0.950 . S
H813 C791 0.950 . S
C814 C815 1.349 . S
C814 C816 1.327 . S
C814 H839 0.950 . S
C815 C814 1.349 . S
C815 C831 1.349 . S
C816 C814 1.327 . S
C816 C835 1.429 . S
C816 H840 0.950 . S
C817 C834 1.574 . S
C817 C836 1.368 . S
C817 H841 0.949 . S
H818 C822 0.949 . S
C819 C820 1.349 . S
C819 C821 1.327 . S
C819 H842 0.950 . S
C820 C819 1.349 . S
C820 C832 1.349 . S
C821 C819 1.327 . S
C821 C837 1.429 . S
C821 H843 0.950 . S
C822 H818 0.949 . S
C822 C830 1.574 . S
C822 C838 1.368 . S
H823 C831 0.950 . S
H824 C829 0.950 . S
H825 C830 0.949 . S
H826 C832 0.950 . S
H827 C833 0.950 . S
H828 C834 0.949 . S
C829 H824 0.950 . S
C829 C831 1.327 . S
C829 C835 1.429 . S
C830 C822 1.574 . S
C830 H825 0.949 . S
C830 C836 1.368 . S
C831 C815 1.349 . S
C831 H823 0.950 . S
C831 C829 1.327 . S
C832 C820 1.349 . S
C832 H826 0.950 . S
C832 C833 1.327 . S
C833 H827 0.950 . S
C833 C832 1.327 . S
C833 C837 1.429 . S
C834 C817 1.574 . S
C834 H828 0.949 . S
C834 C838 1.368 . S
C835 C816 1.429 . S
C835 C829 1.429 . S
C835 C836 1.523 . S
C836 C817 1.368 . S
C836 C830 1.368 . S
C836 C835 1.523 . S
C837 C821 1.429 . S
C837 C833 1.429 . S
C837 C838 1.523 . S
C838 C822 1.368 . S
C838 C834 1.368 . S
C838 C837 1.523 . S
H839 C814 0.950 . S
H840 C816 0.950 . S
H841 C817 0.949 . S
H842 C819 0.950 . S
H843 C821 0.950 . S
C844 C845 1.349 . S
C844 C846 1.327 . S
C844 H869 0.950 . S
C845 C844 1.349 . S
C845 C861 1.349 . S
C846 C844 1.327 . S
C846 C865 1.429 . S
C846 H870 0.950 . S
C847 C864 1.574 . S
C847 C866 1.368 . S
C847 H871 0.949 . S
H848 C852 0.949 . S
C849 C850 1.349 . S
C849 C851 1.327 . S
C849 H872 0.950 . S
C850 C849 1.349 . S
C850 C862 1.349 . S
C851 C849 1.327 . S
C851 C867 1.429 . S
C851 H873 0.950 1_556 S
C852 H848 0.949 . S
C852 C860 1.574 . S
C852 C868 1.368 . S
H853 C861 0.950 . S
H854 C859 0.950 . S
H855 C860 0.949 . S
H856 C862 0.950 . S
H857 C863 0.950 . S
H858 C864 0.949 . S
C859 H854 0.950 . S
C859 C861 1.327 . S
C859 C865 1.429 . S
C860 C852 1.574 . S
C860 H855 0.949 . S
C860 C866 1.368 1_556 S
C861 C845 1.349 . S
C861 H853 0.950 . S
C861 C859 1.327 . S
C862 C850 1.349 . S
C862 H856 0.950 . S
C862 C863 1.327 . S
C863 H857 0.950 . S
C863 C862 1.327 . S
C863 C867 1.429 . S
C864 C847 1.574 . S
C864 H858 0.949 . S
C864 C868 1.368 1_554 S
C865 C846 1.429 . S
C865 C859 1.429 . S
C865 C866 1.523 . S
C866 C847 1.368 . S
C866 C860 1.368 1_554 S
C866 C865 1.523 . S
C867 C851 1.429 . S
C867 C863 1.429 . S
C867 C868 1.523 . S
C868 C852 1.368 . S
C868 C864 1.368 1_556 S
C868 C867 1.523 . S
H869 C844 0.950 . S
H870 C846 0.950 . S
H871 C847 0.949 . S
H872 C849 0.950 . S
H873 C851 0.950 1_554 S
C874 C875 1.349 . S
C874 C876 1.327 . S
C874 H899 0.950 . S
C875 C874 1.349 . S
C875 C891 1.349 . S
C876 C874 1.327 . S
C876 C895 1.429 . S
C876 H900 0.950 1_556 S
C877 C894 1.574 . S
C877 C896 1.368 . S
C877 H901 0.949 . S
H878 C882 0.949 . S
C879 C880 1.349 . S
C879 C881 1.327 . S
C879 H902 0.950 . S
C880 C879 1.349 . S
C880 C892 1.349 . S
C881 C879 1.327 . S
C881 C897 1.429 . S
C881 H903 0.950 . S
C882 H878 0.949 . S
C882 C890 1.574 . S
C882 C898 1.368 . S
H883 C891 0.950 . S
H884 C889 0.950 . S
H885 C890 0.949 . S
H886 C892 0.950 . S
H887 C893 0.950 . S
H888 C894 0.949 . S
C889 H884 0.950 . S
C889 C891 1.327 . S
C889 C895 1.429 . S
C890 C882 1.574 . S
C890 H885 0.949 . S
C890 C896 1.368 1_554 S
C891 C875 1.349 . S
C891 H883 0.950 . S
C891 C889 1.327 . S
C892 C880 1.349 . S
C892 H886 0.950 . S
C892 C893 1.327 . S
C893 H887 0.950 . S
C893 C892 1.327 . S
C893 C897 1.429 . S
C894 C877 1.574 . S
C894 H888 0.949 . S
C894 C898 1.368 1_556 S
C895 C876 1.429 . S
C895 C889 1.429 . S
C895 C896 1.523 . S
C896 C877 1.368 . S
C896 C890 1.368 1_556 S
C896 C895 1.523 . S
C897 C881 1.429 . S
C897 C893 1.429 . S
C897 C898 1.523 . S
C898 C882 1.368 . S
C898 C894 1.368 1_554 S
C898 C897 1.523 . S
H899 C874 0.950 . S
H900 C876 0.950 1_554 S
H901 C877 0.949 . S
H902 C879 0.950 . S
H903 C881 0.950 . S
C904 C905 1.349 . S
C904 C906 1.327 . S
C904 H929 0.950 . S
C905 C904 1.349 . S
C905 C921 1.349 . S
C906 C904 1.327 . S
C906 C925 1.429 . S
C906 H930 0.950 . S
C907 C924 1.574 . S
C907 C926 1.368 . S
C907 H931 0.949 . S
H908 C912 0.949 . S
C909 C910 1.349 . S
C909 C911 1.327 . S
C909 H932 0.950 . S
C910 C909 1.349 . S
C910 C922 1.349 . S
C911 C909 1.327 . S
C911 C927 1.429 . S
C911 H933 0.950 . S
C912 H908 0.949 . S
C912 C920 1.574 . S
C912 C928 1.368 . S
H913 C921 0.950 . S
H914 C919 0.950 . S
H915 C920 0.949 . S
H916 C922 0.950 . S
H917 C923 0.950 . S
H918 C924 0.949 . S
C919 H914 0.950 . S
C919 C921 1.327 . S
C919 C925 1.429 . S
C920 C912 1.574 . S
C920 H915 0.949 . S
C920 C926 1.368 . S
C921 C905 1.349 . S
C921 H913 0.950 . S
C921 C919 1.327 . S
C922 C910 1.349 . S
C922 H916 0.950 . S
C922 C923 1.327 . S
C923 H917 0.950 . S
C923 C922 1.327 . S
C923 C927 1.429 . S
C924 C907 1.574 . S
C924 H918 0.949 . S
C924 C928 1.368 . S
C925 C906 1.429 . S
C925 C919 1.429 . S
C925 C926 1.523 . S
C926 C907 1.368 . S
C926 C920 1.368 . S
C926 C925 1.523 . S
C927 C911 1.429 . S
C927 C923 1.429 . S
C927 C928 1.523 . S
C928 C912 1.368 . S
C928 C924 1.368 . S
C928 C927 1.523 . S
H929 C904 0.950 . S
H930 C906 0.950 . S
H931 C907 0.949 . S
H932 C909 0.950 . S
H933 C911 0.950 . S
C934 C935 1.349 . S
C934 C936 1.327 . S
C934 H959 0.950 . S
C935 C934 1.349 . S
C935 C951 1.349 . S
C936 C934 1.327 . S
C936 C955 1.429 . S
C936 H960 0.950 . S
C937 C954 1.574 . S
C937 C956 1.368 . S
C937 H961 0.949 . S
H938 C942 0.949 . S
C939 C940 1.349 . S
C939 C941 1.327 . S
C939 H962 0.950 . S
C940 C939 1.349 . S
C940 C952 1.349 . S
C941 C939 1.327 . S
C941 C957 1.429 . S
C941 H963 0.950 . S
C942 H938 0.949 . S
C942 C950 1.574 . S
C942 C958 1.368 . S
H943 C951 0.950 . S
H944 C949 0.950 . S
H945 C950 0.949 . S
H946 C952 0.950 . S
H947 C953 0.950 . S
H948 C954 0.949 . S
C949 H944 0.950 . S
C949 C951 1.327 . S
C949 C955 1.429 . S
C950 C942 1.574 . S
C950 H945 0.949 . S
C950 C956 1.368 . S
C951 C935 1.349 . S
C951 H943 0.950 . S
C951 C949 1.327 . S
C952 C940 1.349 . S
C952 H946 0.950 . S
C952 C953 1.327 . S
C953 H947 0.950 . S
C953 C952 1.327 . S
C953 C957 1.429 . S
C954 C937 1.574 . S
C954 H948 0.949 . S
C954 C958 1.368 . S
C955 C936 1.429 . S
C955 C949 1.429 . S
C955 C956 1.523 . S
C956 C937 1.368 . S
C956 C950 1.368 . S
C956 C955 1.523 . S
C957 C941 1.429 . S
C957 C953 1.429 . S
C957 C958 1.523 . S
C958 C942 1.368 . S
C958 C954 1.368 . S
C958 C957 1.523 . S
H959 C934 0.950 . S
H960 C936 0.950 . S
H961 C937 0.949 . S
H962 C939 0.950 . S
H963 C941 0.950 . S
C964 C965 1.349 . S
C964 C966 1.327 . S
C964 H989 0.950 . S
C965 C964 1.349 . S
C965 C981 1.349 . S
C966 C964 1.327 . S
C966 C985 1.429 . S
C966 H990 0.950 1_554 S
C967 C984 1.574 . S
C967 C986 1.368 . S
C967 H991 0.949 . S
H968 C972 0.949 . S
C969 C970 1.349 . S
C969 C971 1.327 . S
C969 H992 0.950 . S
C970 C969 1.349 . S
C970 C982 1.349 . S
C971 C969 1.327 . S
C971 C987 1.429 . S
C971 H993 0.950 . S
C972 H968 0.949 . S
C972 C980 1.574 . S
C972 C988 1.368 . S
H973 C981 0.950 . S
H974 C979 0.950 . S
H975 C980 0.949 . S
H976 C982 0.950 . S
H977 C983 0.950 . S
H978 C984 0.949 . S
C979 H974 0.950 . S
C979 C981 1.327 . S
C979 C985 1.429 . S
C980 C972 1.574 . S
C980 H975 0.949 . S
C980 C986 1.368 1_556 S
C981 C965 1.349 . S
C981 H973 0.950 . S
C981 C979 1.327 . S
C982 C970 1.349 . S
C982 H976 0.950 . S
C982 C983 1.327 . S
C983 H977 0.950 . S
C983 C982 1.327 . S
C983 C987 1.429 . S
C984 C967 1.574 . S
C984 H978 0.949 . S
C984 C988 1.368 1_554 S
C985 C966 1.429 . S
C985 C979 1.429 . S
C985 C986 1.523 . S
C986 C967 1.368 . S
C986 C980 1.368 1_554 S
C986 C985 1.523 . S
C987 C971 1.429 . S
C987 C983 1.429 . S
C987 C988 1.523 . S
C988 C972 1.368 . S
C988 C984 1.368 1_556 S
C988 C987 1.523 . S
H989 C964 0.950 . S
H990 C966 0.950 1_556 S
H991 C967 0.949 . S
H992 C969 0.950 . S
H993 C971 0.950 . S
C994 C995 1.349 . S
C994 C996 1.327 . S
C994 H1019 0.950 . S
C995 C994 1.349 . S
C995 C1011 1.349 . S
C996 C994 1.327 . S
C996 C1015 1.429 . S
C996 H1020 0.950 . S
C997 C1014 1.574 . S
C997 C1016 1.368 . S
C997 H1021 0.949 . S
H998 C1002 0.949 . S
C999 C1000 1.349 . S
C999 C1001 1.327 . S
C999 H1022 0.950 . S
C1000 C999 1.349 . S
C1000 C1012 1.349 . S
C1001 C999 1.327 . S
C1001 C1017 1.429 . S
C1001 H1023 0.950 1_554 S
C1002 H998 0.949 . S
C1002 C1010 1.574 . S
C1002 C1018 1.368 . S
H1003 C1011 0.950 . S
H1004 C1009 0.950 . S
H1005 C1010 0.949 . S
H1006 C1012 0.950 . S
H1007 C1013 0.950 . S
H1008 C1014 0.949 . S
C1009 H1004 0.950 . S
C1009 C1011 1.327 . S
C1009 C1015 1.429 . S
C1010 C1002 1.574 . S
C1010 H1005 0.949 . S
C1010 C1016 1.368 1_554 S
C1011 C995 1.349 . S
C1011 H1003 0.950 . S
C1011 C1009 1.327 . S
C1012 C1000 1.349 . S
C1012 H1006 0.950 . S
C1012 C1013 1.327 . S
C1013 H1007 0.950 . S
C1013 C1012 1.327 . S
C1013 C1017 1.429 . S
C1014 C997 1.574 . S
C1014 H1008 0.949 . S
C1014 C1018 1.368 1_556 S
C1015 C996 1.429 . S
C1015 C1009 1.429 . S
C1015 C1016 1.523 . S
C1016 C997 1.368 . S
C1016 C1010 1.368 1_556 S
C1016 C1015 1.523 . S
C1017 C1001 1.429 . S
C1017 C1013 1.429 . S
C1017 C1018 1.523 . S
C1018 C1002 1.368 . S
C1018 C1014 1.368 1_554 S
C1018 C1017 1.523 . S
H1019 C994 0.950 . S
H1020 C996 0.950 . S
H1021 C997 0.949 . S
H1022 C999 0.950 . S
H1023 C1001 0.950 1_556 S
C1024 C1025 1.349 . S
C1024 C1026 1.327 . S
C1024 H1049 0.950 . S
C1025 C1024 1.349 . S
C1025 C1041 1.349 . S
C1026 C1024 1.327 . S
C1026 C1045 1.429 . S
C1026 H1050 0.950 . S
C1027 C1044 1.574 . S
C1027 C1046 1.368 . S
C1027 H1051 0.949 . S
H1028 C1032 0.949 . S
C1029 C1030 1.349 . S
C1029 C1031 1.327 . S
C1029 H1052 0.950 . S
C1030 C1029 1.349 . S
C1030 C1042 1.349 . S
C1031 C1029 1.327 . S
C1031 C1047 1.429 . S
C1031 H1053 0.950 . S
C1032 H1028 0.949 . S
C1032 C1040 1.574 . S
C1032 C1048 1.368 . S
H1033 C1041 0.950 . S
H1034 C1039 0.950 . S
H1035 C1040 0.949 . S
H1036 C1042 0.950 . S
H1037 C1043 0.950 . S
H1038 C1044 0.949 . S
C1039 H1034 0.950 . S
C1039 C1041 1.327 . S
C1039 C1045 1.429 . S
C1040 C1032 1.574 . S
C1040 H1035 0.949 . S
C1040 C1046 1.368 . S
C1041 C1025 1.349 . S
C1041 H1033 0.950 . S
C1041 C1039 1.327 . S
C1042 C1030 1.349 . S
C1042 H1036 0.950 . S
C1042 C1043 1.327 . S
C1043 H1037 0.950 . S
C1043 C1042 1.327 . S
C1043 C1047 1.429 . S
C1044 C1027 1.574 . S
C1044 H1038 0.949 . S
C1044 C1048 1.368 . S
C1045 C1026 1.429 . S
C1045 C1039 1.429 . S
C1045 C1046 1.523 . S
C1046 C1027 1.368 . S
C1046 C1040 1.368 . S
C1046 C1045 1.523 . S
C1047 C1031 1.429 . S
C1047 C1043 1.429 . S
C1047 C1048 1.523 . S
C1048 C1032 1.368 . S
C1048 C1044 1.368 . S
C1048 C1047 1.523 . S
H1049 C1024 0.950 . S
H1050 C1026 0.950 . S
H1051 C1027 0.949 . S
H1052 C1029 0.950 . S
H1053 C1031 0.950 . S
C1054 C1055 1.349 . S
C1054 C1056 1.327 . S
C1054 H1079 0.950 . S
C1055 C1054 1.349 . S
C1055 C1071 1.349 . S
C1056 C1054 1.327 . S
C1056 C1075 1.429 . S
C1056 H1080 0.950 . S
C1057 C1074 1.574 . S
C1057 C1076 1.368 . S
C1057 H1081 0.949 . S
H1058 C1062 0.949 . S
C1059 C1060 1.349 . S
C1059 C1061 1.327 . S
C1059 H1082 0.950 . S
C1060 C1059 1.349 . S
C1060 C1072 1.349 . S
C1061 C1059 1.327 . S
C1061 C1077 1.429 . S
C1061 H1083 0.950 . S
C1062 H1058 0.949 . S
C1062 C1070 1.574 . S
C1062 C1078 1.368 . S
H1063 C1071 0.950 . S
H1064 C1069 0.950 . S
H1065 C1070 0.949 . S
H1066 C1072 0.950 . S
H1067 C1073 0.950 . S
H1068 C1074 0.949 . S
C1069 H1064 0.950 . S
C1069 C1071 1.327 . S
C1069 C1075 1.429 . S
C1070 C1062 1.574 . S
C1070 H1065 0.949 . S
C1070 C1076 1.368 . S
C1071 C1055 1.349 . S
C1071 H1063 0.950 . S
C1071 C1069 1.327 . S
C1072 C1060 1.349 . S
C1072 H1066 0.950 . S
C1072 C1073 1.327 . S
C1073 H1067 0.950 . S
C1073 C1072 1.327 . S
C1073 C1077 1.429 . S
C1074 C1057 1.574 . S
C1074 H1068 0.949 . S
C1074 C1078 1.368 . S
C1075 C1056 1.429 . S
C1075 C1069 1.429 . S
C1075 C1076 1.523 . S
C1076 C1057 1.368 . S
C1076 C1070 1.368 . S
C1076 C1075 1.523 . S
C1077 C1061 1.429 . S
C1077 C1073 1.429 . S
C1077 C1078 1.523 . S
C1078 C1062 1.368 . S
C1078 C1074 1.368 . S
C1078 C1077 1.523 . S
H1079 C1054 0.950 . S
H1080 C1056 0.950 . S
H1081 C1057 0.949 . S
H1082 C1059 0.950 . S
H1083 C1061 0.950 . S
C1084 C1085 1.349 . S
C1084 C1086 1.327 . S
C1084 H1109 0.950 . S
C1085 C1084 1.349 . S
C1085 C1101 1.349 . S
C1086 C1084 1.327 . S
C1086 C1105 1.429 . S
C1086 H1110 0.950 . S
C1087 C1104 1.574 . S
C1087 C1106 1.368 . S
C1087 H1111 0.949 . S
H1088 C1092 0.949 . S
C1089 C1090 1.349 . S
C1089 C1091 1.327 . S
C1089 H1112 0.950 . S
C1090 C1089 1.349 . S
C1090 C1102 1.349 . S
C1091 C1089 1.327 . S
C1091 C1107 1.429 . S
C1091 H1113 0.950 1_556 S
C1092 H1088 0.949 . S
C1092 C1100 1.574 . S
C1092 C1108 1.368 . S
H1093 C1101 0.950 . S
H1094 C1099 0.950 . S
H1095 C1100 0.949 . S
H1096 C1102 0.950 . S
H1097 C1103 0.950 . S
H1098 C1104 0.949 . S
C1099 H1094 0.950 . S
C1099 C1101 1.327 . S
C1099 C1105 1.429 . S
C1100 C1092 1.574 . S
C1100 H1095 0.949 . S
C1100 C1106 1.368 1_556 S
C1101 C1085 1.349 . S
C1101 H1093 0.950 . S
C1101 C1099 1.327 . S
C1102 C1090 1.349 . S
C1102 H1096 0.950 . S
C1102 C1103 1.327 . S
C1103 H1097 0.950 . S
C1103 C1102 1.327 . S
C1103 C1107 1.429 . S
C1104 C1087 1.574 . S
C1104 H1098 0.949 . S
C1104 C1108 1.368 1_554 S
C1105 C1086 1.429 . S
C1105 C1099 1.429 . S
C1105 C1106 1.523 . S
C1106 C1087 1.368 . S
C1106 C1100 1.368 1_554 S
C1106 C1105 1.523 . S
C1107 C1091 1.429 . S
C1107 C1103 1.429 . S
C1107 C1108 1.523 . S
C1108 C1092 1.368 . S
C1108 C1104 1.368 1_556 S
C1108 C1107 1.523 . S
H1109 C1084 0.950 . S
H1110 C1086 0.950 . S
H1111 C1087 0.949 . S
H1112 C1089 0.950 . S
H1113 C1091 0.950 1_554 S
C1114 C1115 1.349 . S
C1114 C1116 1.327 . S
C1114 H1139 0.950 . S
C1115 C1114 1.349 . S
C1115 C1131 1.349 . S
C1116 C1114 1.327 . S
C1116 C1135 1.429 . S
C1116 H1140 0.950 . S
C1117 C1134 1.574 . S
C1117 C1136 1.368 . S
C1117 H1141 0.949 . S
H1118 C1122 0.949 . S
C1119 C1120 1.349 . S
C1119 C1121 1.327 . S
C1119 H1142 0.950 . S
C1120 C1119 1.349 . S
C1120 C1132 1.349 . S
C1121 C1119 1.327 . S
C1121 C1137 1.429 . S
C1121 H1143 0.950 1_556 S
C1122 H1118 0.949 . S
C1122 C1130 1.574 . S
C1122 C1138 1.368 . S
H1123 C1131 0.950 . S
H1124 C1129 0.950 . S
H1125 C1130 0.949 . S
H1126 C1132 0.950 . S
H1127 C1133 0.950 . S
H1128 C1134 0.949 . S
C1129 H1124 0.950 . S
C1129 C1131 1.327 . S
C1129 C1135 1.429 . S
C1130 C1122 1.574 . S
C1130 H1125 0.949 . S
C1130 C1136 1.368 1_556 S
C1131 C1115 1.349 . S
C1131 H1123 0.950 . S
C1131 C1129 1.327 . S
C1132 C1120 1.349 . S
C1132 H1126 0.950 . S
C1132 C1133 1.327 . S
C1133 H1127 0.950 . S
C1133 C1132 1.327 . S
C1133 C1137 1.429 . S
C1134 C1117 1.574 . S
C1134 H1128 0.949 . S
C1134 C1138 1.368 1_554 S
C1135 C1116 1.429 . S
C1135 C1129 1.429 . S
C1135 C1136 1.523 . S
C1136 C1117 1.368 . S
C1136 C1130 1.368 1_554 S
C1136 C1135 1.523 . S
C1137 C1121 1.429 . S
C1137 C1133 1.429 . S
C1137 C1138 1.523 . S
C1138 C1122 1.368 . S
C1138 C1134 1.368 1_556 S
C1138 C1137 1.523 . S
H1139 C1114 0.950 . S
H1140 C1116 0.950 . S
H1141 C1117 0.949 . S
H1142 C1119 0.950 . S
H1143 C1121 0.950 1_554 S
C1144 C1145 1.349 . S
C1144 C1146 1.327 . S
C1144 H1169 0.950 . S
C1145 C1144 1.349 . S
C1145 C1161 1.349 . S
C1146 C1144 1.327 . S
C1146 C1165 1.429 . S
C1146 H1170 0.950 . S
C1147 C1164 1.574 . S
C1147 C1166 1.368 . S
C1147 H1171 0.949 . S
H1148 C1152 0.949 . S
C1149 C1150 1.349 . S
C1149 C1151 1.327 . S
C1149 H1172 0.950 . S
C1150 C1149 1.349 . S
C1150 C1162 1.349 . S
C1151 C1149 1.327 . S
C1151 C1167 1.429 . S
C1151 H1173 0.950 . S
C1152 H1148 0.949 . S
C1152 C1160 1.574 . S
C1152 C1168 1.368 . S
H1153 C1161 0.950 . S
H1154 C1159 0.950 . S
H1155 C1160 0.949 . S
H1156 C1162 0.950 . S
H1157 C1163 0.950 . S
H1158 C1164 0.949 . S
C1159 H1154 0.950 . S
C1159 C1161 1.327 . S
C1159 C1165 1.429 . S
C1160 C1152 1.574 . S
C1160 H1155 0.949 . S
C1160 C1166 1.368 . S
C1161 C1145 1.349 . S
C1161 H1153 0.950 . S
C1161 C1159 1.327 . S
C1162 C1150 1.349 . S
C1162 H1156 0.950 . S
C1162 C1163 1.327 . S
C1163 H1157 0.950 . S
C1163 C1162 1.327 . S
C1163 C1167 1.429 . S
C1164 C1147 1.574 . S
C1164 H1158 0.949 . S
C1164 C1168 1.368 . S
C1165 C1146 1.429 . S
C1165 C1159 1.429 . S
C1165 C1166 1.523 . S
C1166 C1147 1.368 . S
C1166 C1160 1.368 . S
C1166 C1165 1.523 . S
C1167 C1151 1.429 . S
C1167 C1163 1.429 . S
C1167 C1168 1.523 . S
C1168 C1152 1.368 . S
C1168 C1164 1.368 . S
C1168 C1167 1.523 . S
H1169 C1144 0.950 . S
H1170 C1146 0.950 . S
H1171 C1147 0.949 . S
H1172 C1149 0.950 . S
H1173 C1151 0.950 . S
C1174 C1175 1.349 . S
C1174 C1176 1.327 . S
C1174 H1199 0.950 . S
C1175 C1174 1.349 . S
C1175 C1191 1.349 . S
C1176 C1174 1.327 . S
C1176 C1195 1.429 . S
C1176 H1200 0.950 . S
C1177 C1194 1.574 . S
C1177 C1196 1.368 . S
C1177 H1201 0.949 . S
H1178 C1182 0.949 . S
C1179 C1180 1.349 . S
C1179 C1181 1.327 . S
C1179 H1202 0.950 . S
C1180 C1179 1.349 . S
C1180 C1192 1.349 . S
C1181 C1179 1.327 . S
C1181 C1197 1.429 . S
C1181 H1203 0.950 . S
C1182 H1178 0.949 . S
C1182 C1190 1.574 . S
C1182 C1198 1.368 . S
H1183 C1191 0.950 . S
H1184 C1189 0.950 . S
H1185 C1190 0.949 . S
H1186 C1192 0.950 . S
H1187 C1193 0.950 . S
H1188 C1194 0.949 . S
C1189 H1184 0.950 . S
C1189 C1191 1.327 . S
C1189 C1195 1.429 . S
C1190 C1182 1.574 . S
C1190 H1185 0.949 . S
C1190 C1196 1.368 . S
C1191 C1175 1.349 . S
C1191 H1183 0.950 . S
C1191 C1189 1.327 . S
C1192 C1180 1.349 . S
C1192 H1186 0.950 . S
C1192 C1193 1.327 . S
C1193 H1187 0.950 . S
C1193 C1192 1.327 . S
C1193 C1197 1.429 . S
C1194 C1177 1.574 . S
C1194 H1188 0.949 . S
C1194 C1198 1.368 . S
C1195 C1176 1.429 . S
C1195 C1189 1.429 . S
C1195 C1196 1.523 . S
C1196 C1177 1.368 . S
C1196 C1190 1.368 . S
C1196 C1195 1.523 . S
C1197 C1181 1.429 . S
C1197 C1193 1.429 . S
C1197 C1198 1.523 . S
C1198 C1182 1.368 . S
C1198 C1194 1.368 . S
C1198 C1197 1.523 . S
H1199 C1174 0.950 . S
H1200 C1176 0.950 . S
H1201 C1177 0.949 . S
H1202 C1179 0.950 . S
H1203 C1181 0.950 . S
C1204 C1205 1.349 . S
C1204 C1206 1.327 . S
C1204 H1229 0.950 . S
C1205 C1204 1.349 . S
C1205 C1221 1.349 . S
C1206 C1204 1.327 . S
C1206 C1225 1.429 . S
C1206 H1230 0.950 . S
C1207 C1224 1.574 . S
C1207 C1226 1.368 1_556 S
C1207 H1231 0.949 . S
H1208 C1212 0.949 . S
C1209 C1210 1.349 . S
C1209 C1211 1.327 . S
C1209 H1232 0.950 . S
C1210 C1209 1.349 . S
C1210 C1222 1.349 . S
C1211 C1209 1.327 . S
C1211 C1227 1.429 . S
C1211 H1233 0.950 . S
C1212 H1208 0.949 . S
C1212 C1220 1.574 . S
C1212 C1228 1.368 1_554 S
H1213 C1221 0.950 . S
H1214 C1219 0.950 1_556 S
H1215 C1220 0.949 . S
H1216 C1222 0.950 . S
H1217 C1223 0.950 . S
H1218 C1224 0.949 . S
C1219 H1214 0.950 1_554 S
C1219 C1221 1.327 . S
C1219 C1225 1.429 . S
C1220 C1212 1.574 . S
C1220 H1215 0.949 . S
C1220 C1226 1.368 . S
C1221 C1205 1.349 . S
C1221 H1213 0.950 . S
C1221 C1219 1.327 . S
C1222 C1210 1.349 . S
C1222 H1216 0.950 . S
C1222 C1223 1.327 . S
C1223 H1217 0.950 . S
C1223 C1222 1.327 . S
C1223 C1227 1.429 . S
C1224 C1207 1.574 . S
C1224 H1218 0.949 . S
C1224 C1228 1.368 . S
C1225 C1206 1.429 . S
C1225 C1219 1.429 . S
C1225 C1226 1.523 . S
C1226 C1207 1.368 1_554 S
C1226 C1220 1.368 . S
C1226 C1225 1.523 . S
C1227 C1211 1.429 . S
C1227 C1223 1.429 . S
C1227 C1228 1.523 . S
C1228 C1212 1.368 1_556 S
C1228 C1224 1.368 . S
C1228 C1227 1.523 . S
H1229 C1204 0.950 . S
H1230 C1206 0.950 . S
H1231 C1207 0.949 . S
H1232 C1209 0.950 . S
H1233 C1211 0.950 . S
C1234 C1235 1.349 . S
C1234 C1236 1.327 . S
C1234 H1259 0.950 . S
C1235 C1234 1.349 . S
C1235 C1251 1.349 . S
C1236 C1234 1.327 . S
C1236 C1255 1.429 . S
C1236 H1260 0.950 . S
C1237 C1254 1.574 . S
C1237 C1256 1.368 . S
C1237 H1261 0.949 . S
H1238 C1242 0.949 . S
C1239 C1240 1.349 . S
C1239 C1241 1.327 . S
C1239 H1262 0.950 . S
C1240 C1239 1.349 . S
C1240 C1252 1.349 . S
C1241 C1239 1.327 . S
C1241 C1257 1.429 . S
C1241 H1263 0.940 1_554 S
C1242 H1238 0.949 . S
C1242 C1250 1.574 . S
C1242 C1258 1.368 . S
H1243 C1251 0.950 . S
H1244 C1249 0.950 . S
H1245 C1250 0.949 . S
H1246 C1252 0.950 . S
H1247 C1253 0.950 . S
H1248 C1254 0.949 . S
C1249 H1244 0.950 . S
C1249 C1251 1.327 . S
C1249 C1255 1.429 . S
C1250 C1242 1.574 . S
C1250 H1245 0.949 . S
C1250 C1256 1.368 1_554 S
C1251 C1235 1.349 . S
C1251 H1243 0.950 . S
C1251 C1249 1.327 . S
C1252 C1240 1.349 . S
C1252 H1246 0.950 . S
C1252 C1253 1.327 . S
C1253 H1247 0.950 . S
C1253 C1252 1.327 . S
C1253 C1257 1.429 . S
C1254 C1237 1.574 . S
C1254 H1248 0.949 . S
C1254 C1258 1.368 1_556 S
C1255 C1236 1.429 . S
C1255 C1249 1.429 . S
C1255 C1256 1.523 . S
C1256 C1237 1.368 . S
C1256 C1250 1.368 1_556 S
C1256 C1255 1.523 . S
C1257 C1241 1.429 . S
C1257 C1253 1.429 . S
C1257 C1258 1.523 . S
C1258 C1242 1.368 . S
C1258 C1254 1.368 1_554 S
C1258 C1257 1.523 . S
H1259 C1234 0.950 . S
H1260 C1236 0.950 . S
H1261 C1237 0.949 . S
H1262 C1239 0.950 . S
H1263 C1241 0.940 1_556 S
C1264 C1265 1.349 1_545 S
C1264 C1266 1.327 . S
C1264 H1289 0.950 . S
C1265 C1264 1.349 1_565 S
C1265 C1281 1.349 . S
C1266 C1264 1.327 . S
C1266 C1285 1.429 1_545 S
C1266 H1290 0.950 . S
C1267 C1284 1.574 . S
C1267 C1286 1.368 . S
C1267 H1291 0.949 . S
H1268 C1272 0.949 . S
C1269 C1270 1.349 1_565 S
C1269 C1271 1.327 . S
C1269 H1292 0.950 . S
C1270 C1269 1.349 1_545 S
C1270 C1282 1.349 . S
C1271 C1269 1.327 . S
C1271 C1287 1.429 1_565 S
C1271 H1293 0.950 . S
C1272 H1268 0.949 . S
C1272 C1280 1.574 . S
C1272 C1288 1.368 . S
H1273 C1281 0.950 . S
H1274 C1279 0.950 . S
H1275 C1280 0.949 . S
H1276 C1282 0.950 . S
H1277 C1283 0.950 . S
H1278 C1284 0.949 . S
C1279 H1274 0.950 . S
C1279 C1281 1.327 . S
C1279 C1285 1.429 . S
C1280 C1272 1.574 . S
C1280 H1275 0.949 . S
C1280 C1286 1.368 1_545 S
C1281 C1265 1.349 . S
C1281 H1273 0.950 . S
C1281 C1279 1.327 . S
C1282 C1270 1.349 . S
C1282 H1276 0.950 . S
C1282 C1283 1.327 . S
C1283 H1277 0.950 . S
C1283 C1282 1.327 . S
C1283 C1287 1.429 . S
C1284 C1267 1.574 . S
C1284 H1278 0.949 . S
C1284 C1288 1.368 1_565 S
C1285 C1266 1.429 1_565 S
C1285 C1279 1.429 . S
C1285 C1286 1.523 . S
C1286 C1267 1.368 . S
C1286 C1280 1.368 1_565 S
C1286 C1285 1.523 . S
C1287 C1271 1.429 1_545 S
C1287 C1283 1.429 . S
C1287 C1288 1.523 . S
C1288 C1272 1.368 . S
C1288 C1284 1.368 1_545 S
C1288 C1287 1.523 . S
H1289 C1264 0.950 . S
H1290 C1266 0.950 . S
H1291 C1267 0.949 . S
H1292 C1269 0.950 . S
H1293 C1271 0.950 . S
C1294 C1295 1.349 1_545 S
C1294 C1296 1.327 . S
C1294 H1319 0.950 . S
C1295 C1294 1.349 1_565 S
C1295 C1311 1.349 . S
C1296 C1294 1.327 . S
C1296 C1315 1.429 1_545 S
C1296 H1320 0.950 . S
C1297 C1314 1.574 . S
C1297 C1316 1.368 . S
C1297 H1321 0.949 . S
H1298 C1302 0.949 . S
C1299 C1300 1.349 1_565 S
C1299 C1301 1.327 . S
C1299 H1322 0.950 . S
C1300 C1299 1.349 1_545 S
C1300 C1312 1.349 . S
C1301 C1299 1.327 . S
C1301 C1317 1.429 1_565 S
C1301 H1323 0.950 . S
C1302 H1298 0.949 . S
C1302 C1310 1.574 . S
C1302 C1318 1.368 . S
H1303 C1311 0.950 . S
H1304 C1309 0.950 . S
H1305 C1310 0.949 . S
H1306 C1312 0.950 . S
H1307 C1313 0.950 . S
H1308 C1314 0.949 . S
C1309 H1304 0.950 . S
C1309 C1311 1.327 . S
C1309 C1315 1.429 . S
C1310 C1302 1.574 . S
C1310 H1305 0.949 . S
C1310 C1316 1.368 1_545 S
C1311 C1295 1.349 . S
C1311 H1303 0.950 . S
C1311 C1309 1.327 . S
C1312 C1300 1.349 . S
C1312 H1306 0.950 . S
C1312 C1313 1.327 . S
C1313 H1307 0.950 . S
C1313 C1312 1.327 . S
C1313 C1317 1.429 . S
C1314 C1297 1.574 . S
C1314 H1308 0.949 . S
C1314 C1318 1.368 1_565 S
C1315 C1296 1.429 1_565 S
C1315 C1309 1.429 . S
C1315 C1316 1.523 . S
C1316 C1297 1.368 . S
C1316 C1310 1.368 1_565 S
C1316 C1315 1.523 . S
C1317 C1301 1.429 1_545 S
C1317 C1313 1.429 . S
C1317 C1318 1.523 . S
C1318 C1302 1.368 . S
C1318 C1314 1.368 1_545 S
C1318 C1317 1.523 . S
H1319 C1294 0.950 . S
H1320 C1296 0.950 . S
H1321 C1297 0.949 . S
H1322 C1299 0.950 . S
H1323 C1301 0.950 . S
C1324 C1325 1.349 . S
C1324 C1326 1.327 . S
C1324 H1349 0.950 . S
C1325 C1324 1.349 . S
C1325 C1341 1.349 1_565 S
C1326 C1324 1.327 . S
C1326 C1345 1.429 . S
C1326 H1350 0.950 . S
C1327 C1344 1.574 . S
C1327 C1346 1.368 1_545 S
C1327 H1351 0.949 . S
H1328 C1332 0.949 . S
C1329 C1330 1.349 . S
C1329 C1331 1.327 . S
C1329 H1352 0.950 . S
C1330 C1329 1.349 . S
C1330 C1342 1.349 1_545 S
C1331 C1329 1.327 . S
C1331 C1347 1.429 . S
C1331 H1353 0.950 . S
C1332 H1328 0.949 . S
C1332 C1340 1.574 . S
C1332 C1348 1.368 1_565 S
H1333 C1341 0.950 . S
H1334 C1339 0.950 . S
H1335 C1340 0.949 . S
H1336 C1342 0.950 . S
H1337 C1343 0.950 . S
H1338 C1344 0.949 . S
C1339 H1334 0.950 . S
C1339 C1341 1.327 . S
C1339 C1345 1.429 1_545 S
C1340 C1332 1.574 . S
C1340 H1335 0.949 . S
C1340 C1346 1.368 . S
C1341 C1325 1.349 1_545 S
C1341 H1333 0.950 . S
C1341 C1339 1.327 . S
C1342 C1330 1.349 1_565 S
C1342 H1336 0.950 . S
C1342 C1343 1.327 . S
C1343 H1337 0.950 . S
C1343 C1342 1.327 . S
C1343 C1347 1.429 1_565 S
C1344 C1327 1.574 . S
C1344 H1338 0.949 . S
C1344 C1348 1.368 . S
C1345 C1326 1.429 . S
C1345 C1339 1.429 1_565 S
C1345 C1346 1.523 . S
C1346 C1327 1.368 1_565 S
C1346 C1340 1.368 . S
C1346 C1345 1.523 . S
C1347 C1331 1.429 . S
C1347 C1343 1.429 1_545 S
C1347 C1348 1.523 . S
C1348 C1332 1.368 1_545 S
C1348 C1344 1.368 . S
C1348 C1347 1.523 . S
H1349 C1324 0.950 . S
H1350 C1326 0.950 . S
H1351 C1327 0.949 . S
H1352 C1329 0.950 . S
H1353 C1331 0.950 . S
C1354 C1355 1.349 . S
C1354 C1356 1.327 . S
C1354 H1379 0.950 . S
C1355 C1354 1.349 . S
C1355 C1371 1.349 1_545 S
C1356 C1354 1.327 . S
C1356 C1375 1.429 . S
C1356 H1380 0.950 . S
C1357 C1374 1.574 . S
C1357 C1376 1.368 1_565 S
C1357 H1381 0.949 . S
H1358 C1362 0.949 . S
C1359 C1360 1.349 . S
C1359 C1361 1.327 . S
C1359 H1382 0.950 . S
C1360 C1359 1.349 . S
C1360 C1372 1.349 1_565 S
C1361 C1359 1.327 . S
C1361 C1377 1.429 . S
C1361 H1383 0.950 . S
C1362 H1358 0.949 . S
C1362 C1370 1.574 . S
C1362 C1378 1.368 1_545 S
H1363 C1371 0.950 . S
H1364 C1369 0.950 . S
H1365 C1370 0.949 . S
H1366 C1372 0.950 . S
H1367 C1373 0.950 . S
H1368 C1374 0.949 . S
C1369 H1364 0.950 . S
C1369 C1371 1.327 . S
C1369 C1375 1.429 1_565 S
C1370 C1362 1.574 . S
C1370 H1365 0.949 . S
C1370 C1376 1.368 . S
C1371 C1355 1.349 1_565 S
C1371 H1363 0.950 . S
C1371 C1369 1.327 . S
C1372 C1360 1.349 1_545 S
C1372 H1366 0.950 . S
C1372 C1373 1.327 . S
C1373 H1367 0.950 . S
C1373 C1372 1.327 . S
C1373 C1377 1.429 1_545 S
C1374 C1357 1.574 . S
C1374 H1368 0.949 . S
C1374 C1378 1.368 . S
C1375 C1356 1.429 . S
C1375 C1369 1.429 1_545 S
C1375 C1376 1.523 . S
C1376 C1357 1.368 1_545 S
C1376 C1370 1.368 . S
C1376 C1375 1.523 . S
C1377 C1361 1.429 . S
C1377 C1373 1.429 1_565 S
C1377 C1378 1.523 . S
C1378 C1362 1.368 1_565 S
C1378 C1374 1.368 . S
C1378 C1377 1.523 . S
H1379 C1354 0.950 . S
H1380 C1356 0.950 . S
H1381 C1357 0.949 . S
H1382 C1359 0.950 . S
H1383 C1361 0.950 . S
C1384 C1385 1.349 . S
C1384 C1386 1.327 . S
C1384 H1409 0.950 . S
C1385 C1384 1.349 . S
C1385 C1401 1.349 . S
C1386 C1384 1.327 . S
C1386 C1405 1.429 . S
C1386 H1410 0.950 . S
C1387 C1404 1.574 . S
C1387 C1406 1.368 . S
C1387 H1411 0.949 . S
H1388 C1392 0.949 . S
C1389 C1390 1.349 . S
C1389 C1391 1.327 . S
C1389 H1412 0.950 . S
C1390 C1389 1.349 . S
C1390 C1402 1.349 . S
C1391 C1389 1.327 . S
C1391 C1407 1.429 . S
C1391 H1413 0.950 . S
C1392 H1388 0.949 . S
C1392 C1400 1.574 . S
C1392 C1408 1.368 . S
H1393 C1401 0.950 . S
H1394 C1399 0.950 . S
H1395 C1400 0.949 . S
H1396 C1402 0.950 . S
H1397 C1403 0.950 . S
H1398 C1404 0.949 . S
C1399 H1394 0.950 . S
C1399 C1401 1.327 . S
C1399 C1405 1.429 . S
C1400 C1392 1.574 . S
C1400 H1395 0.949 . S
C1400 C1406 1.368 . S
C1401 C1385 1.349 . S
C1401 H1393 0.950 . S
C1401 C1399 1.327 . S
C1402 C1390 1.349 . S
C1402 H1396 0.950 . S
C1402 C1403 1.327 . S
C1403 H1397 0.950 . S
C1403 C1402 1.327 . S
C1403 C1407 1.429 . S
C1404 C1387 1.574 . S
C1404 H1398 0.949 . S
C1404 C1408 1.368 . S
C1405 C1386 1.429 . S
C1405 C1399 1.429 . S
C1405 C1406 1.523 . S
C1406 C1387 1.368 . S
C1406 C1400 1.368 . S
C1406 C1405 1.523 . S
C1407 C1391 1.429 . S
C1407 C1403 1.429 . S
C1407 C1408 1.523 . S
C1408 C1392 1.368 . S
C1408 C1404 1.368 . S
C1408 C1407 1.523 . S
H1409 C1384 0.950 . S
H1410 C1386 0.950 . S
H1411 C1387 0.949 . S
H1412 C1389 0.950 . S
H1413 C1391 0.950 . S
C1414 C1415 1.349 . S
C1414 C1416 1.327 . S
C1414 H1439 0.950 . S
C1415 C1414 1.349 . S
C1415 C1431 1.349 . S
C1416 C1414 1.327 . S
C1416 C1435 1.429 . S
C1416 H1440 0.950 . S
C1417 C1434 1.574 . S
C1417 C1436 1.368 . S
C1417 H1441 0.949 . S
H1418 C1422 0.949 . S
C1419 C1420 1.349 . S
C1419 C1421 1.327 . S
C1419 H1442 0.950 . S
C1420 C1419 1.349 . S
C1420 C1432 1.349 . S
C1421 C1419 1.327 . S
C1421 C1437 1.429 . S
C1421 H1443 0.950 . S
C1422 H1418 0.949 . S
C1422 C1430 1.574 . S
C1422 C1438 1.368 . S
H1423 C1431 0.950 . S
H1424 C1429 0.950 . S
H1425 C1430 0.949 . S
H1426 C1432 0.950 . S
H1427 C1433 0.950 . S
H1428 C1434 0.949 . S
C1429 H1424 0.950 . S
C1429 C1431 1.327 . S
C1429 C1435 1.429 . S
C1430 C1422 1.574 . S
C1430 H1425 0.949 . S
C1430 C1436 1.368 . S
C1431 C1415 1.349 . S
C1431 H1423 0.950 . S
C1431 C1429 1.327 . S
C1432 C1420 1.349 . S
C1432 H1426 0.950 . S
C1432 C1433 1.327 . S
C1433 H1427 0.950 . S
C1433 C1432 1.327 . S
C1433 C1437 1.429 . S
C1434 C1417 1.574 . S
C1434 H1428 0.949 . S
C1434 C1438 1.368 . S
C1435 C1416 1.429 . S
C1435 C1429 1.429 . S
C1435 C1436 1.523 . S
C1436 C1417 1.368 . S
C1436 C1430 1.368 . S
C1436 C1435 1.523 . S
C1437 C1421 1.429 . S
C1437 C1433 1.429 . S
C1437 C1438 1.523 . S
C1438 C1422 1.368 . S
C1438 C1434 1.368 . S
C1438 C1437 1.523 . S
H1439 C1414 0.950 . S
H1440 C1416 0.950 . S
H1441 C1417 0.949 . S
H1442 C1419 0.950 . S
H1443 C1421 0.950 . S
C1444 C1445 1.349 . S
C1444 C1446 1.327 . S
C1444 H1469 0.950 . S
C1445 C1444 1.349 . S
C1445 C1461 1.349 . S
C1446 C1444 1.327 . S
C1446 C1465 1.429 . S
C1446 H1470 0.950 . S
C1447 C1464 1.574 . S
C1447 C1466 1.368 . S
C1447 H1471 0.949 . S
H1448 C1452 0.949 . S
C1449 C1450 1.349 . S
C1449 C1451 1.327 . S
C1449 H1472 0.950 . S
C1450 C1449 1.349 . S
C1450 C1462 1.349 . S
C1451 C1449 1.327 . S
C1451 C1467 1.429 . S
C1451 H1473 0.950 . S
C1452 H1448 0.949 . S
C1452 C1460 1.574 . S
C1452 C1468 1.368 . S
H1453 C1461 0.950 . S
H1454 C1459 0.950 . S
H1455 C1460 0.949 . S
H1456 C1462 0.950 . S
H1457 C1463 0.950 . S
H1458 C1464 0.949 . S
C1459 H1454 0.950 . S
C1459 C1461 1.327 . S
C1459 C1465 1.429 . S
C1460 C1452 1.574 . S
C1460 H1455 0.949 . S
C1460 C1466 1.368 . S
C1461 C1445 1.349 . S
C1461 H1453 0.950 . S
C1461 C1459 1.327 . S
C1462 C1450 1.349 . S
C1462 H1456 0.950 . S
C1462 C1463 1.327 . S
C1463 H1457 0.950 . S
C1463 C1462 1.327 . S
C1463 C1467 1.429 . S
C1464 C1447 1.574 . S
C1464 H1458 0.949 . S
C1464 C1468 1.368 . S
C1465 C1446 1.429 . S
C1465 C1459 1.429 . S
C1465 C1466 1.523 . S
C1466 C1447 1.368 . S
C1466 C1460 1.368 . S
C1466 C1465 1.523 . S
C1467 C1451 1.429 . S
C1467 C1463 1.429 . S
C1467 C1468 1.523 . S
C1468 C1452 1.368 . S
C1468 C1464 1.368 . S
C1468 C1467 1.523 . S
H1469 C1444 0.950 . S
H1470 C1446 0.950 . S
H1471 C1447 0.949 . S
H1472 C1449 0.950 . S
H1473 C1451 0.950 . S
C1474 C1475 1.349 . S
C1474 C1476 1.327 . S
C1474 H1499 0.950 . S
C1475 C1474 1.349 . S
C1475 C1491 1.349 . S
C1476 C1474 1.327 . S
C1476 C1495 1.429 . S
C1476 H1500 0.950 . S
C1477 C1494 1.574 . S
C1477 C1496 1.368 . S
C1477 H1501 0.949 . S
H1478 C1482 0.949 . S
C1479 C1480 1.349 . S
C1479 C1481 1.327 . S
C1479 H1502 0.950 . S
C1480 C1479 1.349 . S
C1480 C1492 1.349 . S
C1481 C1479 1.327 . S
C1481 C1497 1.429 . S
C1481 H1503 0.950 . S
C1482 H1478 0.949 . S
C1482 C1490 1.574 . S
C1482 C1498 1.368 . S
H1483 C1491 0.950 . S
H1484 C1489 0.950 . S
H1485 C1490 0.949 . S
H1486 C1492 0.950 . S
H1487 C1493 0.950 . S
H1488 C1494 0.949 . S
C1489 H1484 0.950 . S
C1489 C1491 1.327 . S
C1489 C1495 1.429 . S
C1490 C1482 1.574 . S
C1490 H1485 0.949 . S
C1490 C1496 1.368 . S
C1491 C1475 1.349 . S
C1491 H1483 0.950 . S
C1491 C1489 1.327 . S
C1492 C1480 1.349 . S
C1492 H1486 0.950 . S
C1492 C1493 1.327 . S
C1493 H1487 0.950 . S
C1493 C1492 1.327 . S
C1493 C1497 1.429 . S
C1494 C1477 1.574 . S
C1494 H1488 0.949 . S
C1494 C1498 1.368 . S
C1495 C1476 1.429 . S
C1495 C1489 1.429 . S
C1495 C1496 1.523 . S
C1496 C1477 1.368 . S
C1496 C1490 1.368 . S
C1496 C1495 1.523 . S
C1497 C1481 1.429 . S
C1497 C1493 1.429 . S
C1497 C1498 1.523 . S
C1498 C1482 1.368 . S
C1498 C1494 1.368 . S
C1498 C1497 1.523 . S
H1499 C1474 0.950 . S
H1500 C1476 0.950 . S
H1501 C1477 0.949 . S
H1502 C1479 0.950 . S
H1503 C1481 0.950 . S
C1504 C1505 1.349 . S
C1504 C1506 1.327 . S
C1504 H1529 0.950 . S
C1505 C1504 1.349 . S
C1505 C1521 1.349 1_545 S
C1506 C1504 1.327 . S
C1506 C1525 1.429 1_545 S
C1506 H1530 0.950 . S
C1507 C1524 1.574 . S
C1507 C1526 1.368 . S
C1507 H1531 0.949 . S
H1508 C1512 0.949 . S
C1509 C1510 1.349 . S
C1509 C1511 1.327 . S
C1509 H1532 0.950 . S
C1510 C1509 1.349 . S
C1510 C1522 1.349 . S
C1511 C1509 1.327 . S
C1511 C1527 1.429 . S
C1511 H1533 0.950 . S
C1512 H1508 0.949 . S
C1512 C1520 1.574 . S
C1512 C1528 1.368 1_545 S
H1513 C1521 0.950 . S
H1514 C1519 0.950 . S
H1515 C1520 0.949 . S
H1516 C1522 0.956 . S
H1517 C1523 0.950 1_545 S
H1518 C1524 0.949 . S
C1519 H1514 0.950 . S
C1519 C1521 1.327 . S
C1519 C1525 1.429 . S
C1520 C1512 1.574 . S
C1520 H1515 0.949 . S
C1520 C1526 1.368 1_545 S
C1521 C1505 1.349 1_565 S
C1521 H1513 0.950 . S
C1521 C1519 1.327 . S
C1522 C1510 1.349 . S
C1522 H1516 0.956 . S
C1522 C1523 1.327 . S
C1523 H1517 0.950 1_565 S
C1523 C1522 1.327 . S
C1523 C1527 1.429 . S
C1524 C1507 1.574 . S
C1524 H1518 0.949 . S
C1524 C1528 1.368 . S
C1525 C1506 1.429 1_565 S
C1525 C1519 1.429 . S
C1525 C1526 1.523 . S
C1526 C1507 1.368 . S
C1526 C1520 1.368 1_565 S
C1526 C1525 1.523 . S
C1527 C1511 1.429 . S
C1527 C1523 1.429 . S
C1527 C1528 1.523 . S
C1528 C1512 1.368 1_565 S
C1528 C1524 1.368 . S
C1528 C1527 1.523 . S
H1529 C1504 0.950 . S
H1530 C1506 0.950 . S
H1531 C1507 0.949 . S
H1532 C1509 0.950 . S
H1533 C1511 0.950 . S
C1534 C1535 1.349 . S
C1534 C1536 1.327 . S
C1534 H1559 0.950 . S
C1535 C1534 1.349 . S
C1535 C1551 1.349 . S
C1536 C1534 1.327 . S
C1536 C1555 1.429 . S
C1536 H1560 0.950 . S
C1537 C1554 1.574 . S
C1537 C1556 1.368 1_565 S
C1537 H1561 0.949 . S
H1538 C1542 0.949 . S
C1539 C1540 1.349 . S
C1539 C1541 1.327 . S
C1539 H1562 0.950 . S
C1540 C1539 1.349 . S
C1540 C1552 1.349 1_565 S
C1541 C1539 1.327 . S
C1541 C1557 1.429 1_565 S
C1541 H1563 0.950 . S
C1542 H1538 0.949 . S
C1542 C1550 1.574 . S
C1542 C1558 1.368 . S
H1543 C1551 0.950 1_565 S
H1544 C1549 0.950 1_565 S
H1545 C1550 0.949 . S
H1546 C1552 0.950 . S
H1547 C1553 0.950 . S
H1548 C1554 0.949 . S
C1549 H1544 0.950 1_545 S
C1549 C1551 1.327 . S
C1549 C1555 1.429 . S
C1550 C1542 1.574 . S
C1550 H1545 0.949 . S
C1550 C1556 1.368 . S
C1551 C1535 1.349 . S
C1551 H1543 0.950 1_545 S
C1551 C1549 1.327 . S
C1552 C1540 1.349 1_545 S
C1552 H1546 0.950 . S
C1552 C1553 1.327 . S
C1553 H1547 0.950 . S
C1553 C1552 1.327 . S
C1553 C1557 1.429 . S
C1554 C1537 1.574 . S
C1554 H1548 0.949 . S
C1554 C1558 1.368 1_565 S
C1555 C1536 1.429 . S
C1555 C1549 1.429 . S
C1555 C1556 1.523 . S
C1556 C1537 1.368 1_545 S
C1556 C1550 1.368 . S
C1556 C1555 1.523 . S
C1557 C1541 1.429 1_545 S
C1557 C1553 1.429 . S
C1557 C1558 1.523 . S
C1558 C1542 1.368 . S
C1558 C1554 1.368 1_545 S
C1558 C1557 1.523 . S
H1559 C1534 0.950 . S
H1560 C1536 0.950 . S
H1561 C1537 0.949 . S
H1562 C1539 0.950 . S
H1563 C1541 0.950 . S
C1564 C1565 1.349 . S
C1564 C1566 1.327 . S
C1564 H1589 0.950 . S
C1565 C1564 1.349 . S
C1565 C1581 1.349 1_565 S
C1566 C1564 1.327 . S
C1566 C1585 1.429 1_565 S
C1566 H1590 0.950 . S
C1567 C1584 1.574 . S
C1567 C1586 1.368 . S
C1567 H1591 0.949 . S
H1568 C1572 0.949 . S
C1569 C1570 1.349 . S
C1569 C1571 1.327 . S
C1569 H1592 0.950 . S
C1570 C1569 1.349 . S
C1570 C1582 1.349 . S
C1571 C1569 1.327 . S
C1571 C1587 1.429 . S
C1571 H1593 0.950 . S
C1572 H1568 0.949 . S
C1572 C1580 1.574 . S
C1572 C1588 1.368 1_565 S
H1573 C1581 0.950 . S
H1574 C1579 0.950 . S
H1575 C1580 0.949 . S
H1576 C1582 0.950 1_565 S
H1577 C1583 0.950 1_565 S
H1578 C1584 0.949 . S
C1579 H1574 0.950 . S
C1579 C1581 1.327 . S
C1579 C1585 1.429 . S
C1580 C1572 1.574 . S
C1580 H1575 0.949 . S
C1580 C1586 1.368 1_565 S
C1581 C1565 1.349 1_545 S
C1581 H1573 0.950 . S
C1581 C1579 1.327 . S
C1582 C1570 1.349 . S
C1582 H1576 0.950 1_545 S
C1582 C1583 1.327 . S
C1583 H1577 0.950 1_545 S
C1583 C1582 1.327 . S
C1583 C1587 1.429 . S
C1584 C1567 1.574 . S
C1584 H1578 0.949 . S
C1584 C1588 1.368 . S
C1585 C1566 1.429 1_545 S
C1585 C1579 1.429 . S
C1585 C1586 1.523 . S
C1586 C1567 1.368 . S
C1586 C1580 1.368 1_545 S
C1586 C1585 1.523 . S
C1587 C1571 1.429 . S
C1587 C1583 1.429 . S
C1587 C1588 1.523 . S
C1588 C1572 1.368 1_545 S
C1588 C1584 1.368 . S
C1588 C1587 1.523 . S
H1589 C1564 0.950 . S
H1590 C1566 0.950 . S
H1591 C1567 0.949 . S
H1592 C1569 0.950 . S
H1593 C1571 0.950 . S
C1594 C1595 1.349 . S
C1594 C1596 1.327 . S
C1594 H1619 0.948 1_565 S
C1595 C1594 1.349 . S
C1595 C1611 1.349 . S
C1596 C1594 1.327 . S
C1596 C1615 1.429 . S
C1596 H1620 0.950 1_565 S
C1597 C1614 1.574 . S
C1597 C1616 1.368 . S
C1597 H1621 0.949 . S
H1598 C1602 0.949 . S
C1599 C1600 1.349 1_565 S
C1599 C1601 1.327 . S
C1599 H1622 0.950 . S
C1600 C1599 1.349 1_545 S
C1600 C1612 1.349 . S
C1601 C1599 1.327 . S
C1601 C1617 1.429 . S
C1601 H1623 0.950 . S
C1602 H1598 0.949 . S
C1602 C1610 1.574 . S
C1602 C1618 1.368 1_545 S
H1603 C1611 0.950 . S
H1604 C1609 0.950 . S
H1605 C1610 0.949 . S
H1606 C1612 0.950 . S
H1607 C1613 0.950 . S
H1608 C1614 0.949 . S
C1609 H1604 0.950 . S
C1609 C1611 1.327 . S
C1609 C1615 1.429 . S
C1610 C1602 1.574 . S
C1610 H1605 0.949 . S
C1610 C1616 1.368 1_545 S
C1611 C1595 1.349 . S
C1611 H1603 0.950 . S
C1611 C1609 1.327 . S
C1612 C1600 1.349 . S
C1612 H1606 0.950 . S
C1612 C1613 1.327 . S
C1613 H1607 0.950 . S
C1613 C1612 1.327 . S
C1613 C1617 1.429 1_545 S
C1614 C1597 1.574 . S
C1614 H1608 0.949 . S
C1614 C1618 1.368 . S
C1615 C1596 1.429 . S
C1615 C1609 1.429 . S
C1615 C1616 1.523 . S
C1616 C1597 1.368 . S
C1616 C1610 1.368 1_565 S
C1616 C1615 1.523 . S
C1617 C1601 1.429 . S
C1617 C1613 1.429 1_565 S
C1617 C1618 1.523 . S
C1618 C1602 1.368 1_565 S
C1618 C1614 1.368 . S
C1618 C1617 1.523 . S
H1619 C1594 0.948 1_545 S
H1620 C1596 0.950 1_545 S
H1621 C1597 0.949 . S
H1622 C1599 0.950 . S
H1623 C1601 0.950 . S
C1624 C1625 1.349 . S
C1624 C1626 1.327 . S
C1624 H1649 0.950 . S
C1625 C1624 1.349 . S
C1625 C1641 1.349 1_565 S
C1626 C1624 1.327 . S
C1626 C1645 1.429 1_565 S
C1626 H1650 0.950 . S
C1627 C1644 1.574 . S
C1627 C1646 1.368 . S
C1627 H1651 0.949 . S
H1628 C1632 0.949 . S
C1629 C1630 1.349 . S
C1629 C1631 1.327 . S
C1629 H1652 0.950 . S
C1630 C1629 1.349 . S
C1630 C1642 1.349 . S
C1631 C1629 1.327 . S
C1631 C1647 1.429 . S
C1631 H1653 0.950 . S
C1632 H1628 0.949 . S
C1632 C1640 1.574 . S
C1632 C1648 1.368 1_565 S
H1633 C1641 0.950 . S
H1634 C1639 0.950 . S
H1635 C1640 0.949 . S
H1636 C1642 0.950 1_565 S
H1637 C1643 0.950 1_565 S
H1638 C1644 0.949 . S
C1639 H1634 0.950 . S
C1639 C1641 1.327 . S
C1639 C1645 1.429 . S
C1640 C1632 1.574 . S
C1640 H1635 0.949 . S
C1640 C1646 1.368 1_565 S
C1641 C1625 1.349 1_545 S
C1641 H1633 0.950 . S
C1641 C1639 1.327 . S
C1642 C1630 1.349 . S
C1642 H1636 0.950 1_545 S
C1642 C1643 1.327 . S
C1643 H1637 0.950 1_545 S
C1643 C1642 1.327 . S
C1643 C1647 1.429 . S
C1644 C1627 1.574 . S
C1644 H1638 0.949 . S
C1644 C1648 1.368 . S
C1645 C1626 1.429 1_545 S
C1645 C1639 1.429 . S
C1645 C1646 1.523 . S
C1646 C1627 1.368 . S
C1646 C1640 1.368 1_545 S
C1646 C1645 1.523 . S
C1647 C1631 1.429 . S
C1647 C1643 1.429 . S
C1647 C1648 1.523 . S
C1648 C1632 1.368 1_545 S
C1648 C1644 1.368 . S
C1648 C1647 1.523 . S
H1649 C1624 0.950 . S
H1650 C1626 0.950 . S
H1651 C1627 0.949 . S
H1652 C1629 0.950 . S
H1653 C1631 0.950 . S
C1654 C1655 1.349 1_565 S
C1654 C1656 1.327 . S
C1654 H1679 0.950 . S
C1655 C1654 1.349 1_545 S
C1655 C1671 1.349 . S
C1656 C1654 1.327 . S
C1656 C1675 1.429 . S
C1656 H1680 0.950 . S
C1657 C1674 1.574 . S
C1657 C1676 1.368 . S
C1657 H1681 0.949 1_565 S
H1658 C1662 0.949 . S
C1659 C1660 1.349 . S
C1659 C1661 1.327 . S
C1659 H1682 0.950 . S
C1660 C1659 1.349 . S
C1660 C1672 1.349 . S
C1661 C1659 1.327 . S
C1661 C1677 1.429 . S
C1661 H1683 0.950 . S
C1662 H1658 0.949 . S
C1662 C1670 1.574 . S
C1662 C1678 1.368 . S
H1663 C1671 0.950 . S
H1664 C1669 0.950 . S
H1665 C1670 0.949 . S
H1666 C1672 0.950 . S
H1667 C1673 0.950 . S
H1668 C1674 0.945 1_545 S
C1669 H1664 0.950 . S
C1669 C1671 1.327 . S
C1669 C1675 1.429 1_545 S
C1670 C1662 1.574 . S
C1670 H1665 0.949 . S
C1670 C1676 1.368 . S
C1671 C1655 1.349 . S
C1671 H1663 0.950 . S
C1671 C1669 1.327 . S
C1672 C1660 1.349 . S
C1672 H1666 0.950 . S
C1672 C1673 1.327 . S
C1673 H1667 0.950 . S
C1673 C1672 1.327 . S
C1673 C1677 1.429 . S
C1674 C1657 1.574 . S
C1674 H1668 0.945 1_565 S
C1674 C1678 1.368 . S
C1675 C1656 1.429 . S
C1675 C1669 1.429 1_565 S
C1675 C1676 1.523 . S
C1676 C1657 1.368 . S
C1676 C1670 1.368 . S
C1676 C1675 1.523 . S
C1677 C1661 1.429 . S
C1677 C1673 1.429 . S
C1677 C1678 1.523 . S
C1678 C1662 1.368 . S
C1678 C1674 1.368 . S
C1678 C1677 1.523 . S
H1679 C1654 0.950 . S
H1680 C1656 0.950 . S
H1681 C1657 0.949 1_545 S
H1682 C1659 0.950 . S
H1683 C1661 0.950 . S
C1684 C1685 1.349 . S
C1684 C1686 1.327 . S
C1684 H1709 0.950 . S
C1685 C1684 1.349 . S
C1685 C1701 1.349 1_545 S
C1686 C1684 1.327 . S
C1686 C1705 1.429 1_545 S
C1686 H1710 0.950 . S
C1687 C1704 1.574 . S
C1687 C1706 1.368 . S
C1687 H1711 0.949 . S
H1688 C1692 0.949 . S
C1689 C1690 1.349 . S
C1689 C1691 1.327 . S
C1689 H1712 0.950 . S
C1690 C1689 1.349 . S
C1690 C1702 1.349 . S
C1691 C1689 1.327 . S
C1691 C1707 1.429 . S
C1691 H1713 0.950 . S
C1692 H1688 0.949 . S
C1692 C1700 1.574 . S
C1692 C1708 1.368 1_545 S
H1693 C1701 0.950 . S
H1694 C1699 0.950 . S
H1695 C1700 0.949 . S
H1696 C1702 0.950 1_545 S
H1697 C1703 0.950 1_545 S
H1698 C1704 0.949 . S
C1699 H1694 0.950 . S
C1699 C1701 1.327 . S
C1699 C1705 1.429 . S
C1700 C1692 1.574 . S
C1700 H1695 0.949 . S
C1700 C1706 1.368 1_545 S
C1701 C1685 1.349 1_565 S
C1701 H1693 0.950 . S
C1701 C1699 1.327 . S
C1702 C1690 1.349 . S
C1702 H1696 0.950 1_565 S
C1702 C1703 1.327 . S
C1703 H1697 0.950 1_565 S
C1703 C1702 1.327 . S
C1703 C1707 1.429 . S
C1704 C1687 1.574 . S
C1704 H1698 0.949 . S
C1704 C1708 1.368 . S
C1705 C1686 1.429 1_565 S
C1705 C1699 1.429 . S
C1705 C1706 1.523 . S
C1706 C1687 1.368 . S
C1706 C1700 1.368 1_565 S
C1706 C1705 1.523 . S
C1707 C1691 1.429 . S
C1707 C1703 1.429 . S
C1707 C1708 1.523 . S
C1708 C1692 1.368 1_565 S
C1708 C1704 1.368 . S
C1708 C1707 1.523 . S
H1709 C1684 0.950 . S
H1710 C1686 0.950 . S
H1711 C1687 0.949 . S
H1712 C1689 0.950 . S
H1713 C1691 0.950 . S
C1714 C1715 1.349 . S
C1714 C1716 1.327 . S
C1714 H1739 0.950 1_545 S
C1715 C1714 1.349 . S
C1715 C1731 1.349 . S
C1716 C1714 1.327 . S
C1716 C1735 1.429 . S
C1716 H1740 0.950 1_545 S
C1717 C1734 1.574 . S
C1717 C1736 1.368 . S
C1717 H1741 0.949 . S
H1718 C1722 0.949 . S
C1719 C1720 1.349 1_545 S
C1719 C1721 1.327 . S
C1719 H1742 0.950 . S
C1720 C1719 1.349 1_565 S
C1720 C1732 1.349 . S
C1721 C1719 1.327 . S
C1721 C1737 1.429 . S
C1721 H1743 0.950 . S
C1722 H1718 0.949 . S
C1722 C1730 1.574 . S
C1722 C1738 1.368 1_565 S
H1723 C1731 0.950 . S
H1724 C1729 0.950 . S
H1725 C1730 0.949 . S
H1726 C1732 0.950 . S
H1727 C1733 0.950 . S
H1728 C1734 0.949 . S
C1729 H1724 0.950 . S
C1729 C1731 1.327 . S
C1729 C1735 1.429 . S
C1730 C1722 1.574 . S
C1730 H1725 0.949 . S
C1730 C1736 1.368 1_565 S
C1731 C1715 1.349 . S
C1731 H1723 0.950 . S
C1731 C1729 1.327 . S
C1732 C1720 1.349 . S
C1732 H1726 0.950 . S
C1732 C1733 1.327 . S
C1733 H1727 0.950 . S
C1733 C1732 1.327 . S
C1733 C1737 1.429 1_565 S
C1734 C1717 1.574 . S
C1734 H1728 0.949 . S
C1734 C1738 1.368 . S
C1735 C1716 1.429 . S
C1735 C1729 1.429 . S
C1735 C1736 1.523 . S
C1736 C1717 1.368 . S
C1736 C1730 1.368 1_545 S
C1736 C1735 1.523 . S
C1737 C1721 1.429 . S
C1737 C1733 1.429 1_545 S
C1737 C1738 1.523 . S
C1738 C1722 1.368 1_545 S
C1738 C1734 1.368 . S
C1738 C1737 1.523 . S
H1739 C1714 0.950 1_565 S
H1740 C1716 0.950 1_565 S
H1741 C1717 0.949 . S
H1742 C1719 0.950 . S
H1743 C1721 0.950 . S
C1744 C1745 1.349 . S
C1744 C1746 1.327 . S
C1744 H1769 0.950 . S
C1745 C1744 1.349 . S
C1745 C1761 1.349 . S
C1746 C1744 1.327 . S
C1746 C1765 1.429 . S
C1746 H1770 0.950 . S
C1747 C1764 1.574 . S
C1747 C1766 1.368 . S
C1747 H1771 0.949 . S
H1748 C1752 0.949 . S
C1749 C1750 1.349 . S
C1749 C1751 1.327 . S
C1749 H1772 0.950 . S
C1750 C1749 1.349 . S
C1750 C1762 1.349 . S
C1751 C1749 1.327 . S
C1751 C1767 1.429 . S
C1751 H1773 0.950 . S
C1752 H1748 0.949 . S
C1752 C1760 1.574 . S
C1752 C1768 1.368 . S
H1753 C1761 0.950 . S
H1754 C1759 0.950 . S
H1755 C1760 0.949 . S
H1756 C1762 0.950 . S
H1757 C1763 0.950 . S
H1758 C1764 0.949 . S
C1759 H1754 0.950 . S
C1759 C1761 1.327 . S
C1759 C1765 1.429 . S
C1760 C1752 1.574 . S
C1760 H1755 0.949 . S
C1760 C1766 1.368 . S
C1761 C1745 1.349 . S
C1761 H1753 0.950 . S
C1761 C1759 1.327 . S
C1762 C1750 1.349 . S
C1762 H1756 0.950 . S
C1762 C1763 1.327 . S
C1763 H1757 0.950 . S
C1763 C1762 1.327 . S
C1763 C1767 1.429 . S
C1764 C1747 1.574 . S
C1764 H1758 0.949 . S
C1764 C1768 1.368 . S
C1765 C1746 1.429 . S
C1765 C1759 1.429 . S
C1765 C1766 1.523 . S
C1766 C1747 1.368 . S
C1766 C1760 1.368 . S
C1766 C1765 1.523 . S
C1767 C1751 1.429 . S
C1767 C1763 1.429 . S
C1767 C1768 1.523 . S
C1768 C1752 1.368 . S
C1768 C1764 1.368 . S
C1768 C1767 1.523 . S
H1769 C1744 0.950 . S
H1770 C1746 0.950 . S
H1771 C1747 0.949 . S
H1772 C1749 0.950 . S
H1773 C1751 0.950 . S
C1774 C1775 1.349 . S
C1774 C1776 1.327 . S
C1774 H1799 0.950 . S
C1775 C1774 1.349 . S
C1775 C1791 1.349 . S
C1776 C1774 1.327 . S
C1776 C1795 1.429 . S
C1776 H1800 0.950 . S
C1777 C1794 1.574 . S
C1777 C1796 1.368 . S
C1777 H1801 0.949 . S
H1778 C1782 0.949 . S
C1779 C1780 1.349 . S
C1779 C1781 1.327 . S
C1779 H1802 0.950 . S
C1780 C1779 1.349 . S
C1780 C1792 1.349 . S
C1781 C1779 1.327 . S
C1781 C1797 1.429 . S
C1781 H1803 0.950 . S
C1782 H1778 0.949 . S
C1782 C1790 1.574 . S
C1782 C1798 1.368 . S
H1783 C1791 0.950 . S
H1784 C1789 0.950 . S
H1785 C1790 0.949 . S
H1786 C1792 0.950 . S
H1787 C1793 0.950 . S
H1788 C1794 0.949 . S
C1789 H1784 0.950 . S
C1789 C1791 1.327 . S
C1789 C1795 1.429 . S
C1790 C1782 1.574 . S
C1790 H1785 0.949 . S
C1790 C1796 1.368 . S
C1791 C1775 1.349 . S
C1791 H1783 0.950 . S
C1791 C1789 1.327 . S
C1792 C1780 1.349 . S
C1792 H1786 0.950 . S
C1792 C1793 1.327 . S
C1793 H1787 0.950 . S
C1793 C1792 1.327 . S
C1793 C1797 1.429 . S
C1794 C1777 1.574 . S
C1794 H1788 0.949 . S
C1794 C1798 1.368 . S
C1795 C1776 1.429 . S
C1795 C1789 1.429 . S
C1795 C1796 1.523 . S
C1796 C1777 1.368 . S
C1796 C1790 1.368 . S
C1796 C1795 1.523 . S
C1797 C1781 1.429 . S
C1797 C1793 1.429 . S
C1797 C1798 1.523 . S
C1798 C1782 1.368 . S
C1798 C1794 1.368 . S
C1798 C1797 1.523 . S
H1799 C1774 0.950 . S
H1800 C1776 0.950 . S
H1801 C1777 0.949 . S
H1802 C1779 0.950 . S
H1803 C1781 0.950 . S
C1804 C1805 1.349 . S
C1804 C1806 1.327 . S
C1804 H1829 0.950 . S
C1805 C1804 1.349 . S
C1805 C1821 1.349 . S
C1806 C1804 1.327 . S
C1806 C1825 1.429 . S
C1806 H1830 0.950 . S
C1807 C1824 1.574 . S
C1807 C1826 1.368 . S
C1807 H1831 0.949 . S
H1808 C1812 0.949 . S
C1809 C1810 1.349 . S
C1809 C1811 1.327 . S
C1809 H1832 0.950 . S
C1810 C1809 1.349 . S
C1810 C1822 1.349 . S
C1811 C1809 1.327 . S
C1811 C1827 1.429 . S
C1811 H1833 0.950 . S
C1812 H1808 0.949 . S
C1812 C1820 1.574 . S
C1812 C1828 1.368 . S
H1813 C1821 0.950 . S
H1814 C1819 0.950 . S
H1815 C1820 0.949 . S
H1816 C1822 0.950 . S
H1817 C1823 0.950 . S
H1818 C1824 0.949 . S
C1819 H1814 0.950 . S
C1819 C1821 1.327 . S
C1819 C1825 1.429 . S
C1820 C1812 1.574 . S
C1820 H1815 0.949 . S
C1820 C1826 1.368 . S
C1821 C1805 1.349 . S
C1821 H1813 0.950 . S
C1821 C1819 1.327 . S
C1822 C1810 1.349 . S
C1822 H1816 0.950 . S
C1822 C1823 1.327 . S
C1823 H1817 0.950 . S
C1823 C1822 1.327 . S
C1823 C1827 1.429 . S
C1824 C1807 1.574 . S
C1824 H1818 0.949 . S
C1824 C1828 1.368 . S
C1825 C1806 1.429 . S
C1825 C1819 1.429 . S
C1825 C1826 1.523 . S
C1826 C1807 1.368 . S
C1826 C1820 1.368 . S
C1826 C1825 1.523 . S
C1827 C1811 1.429 . S
C1827 C1823 1.429 . S
C1827 C1828 1.523 . S
C1828 C1812 1.368 . S
C1828 C1824 1.368 . S
C1828 C1827 1.523 . S
H1829 C1804 0.950 . S
H1830 C1806 0.950 . S
H1831 C1807 0.949 . S
H1832 C1809 0.950 . S
H1833 C1811 0.950 . S
C1834 C1835 1.349 . S
C1834 C1836 1.327 . S
C1834 H1859 0.950 . S
C1835 C1834 1.349 . S
C1835 C1851 1.349 . S
C1836 C1834 1.327 . S
C1836 C1855 1.429 . S
C1836 H1860 0.950 . S
C1837 C1854 1.574 . S
C1837 C1856 1.368 . S
C1837 H1861 0.949 . S
H1838 C1842 0.949 . S
C1839 C1840 1.349 . S
C1839 C1841 1.327 . S
C1839 H1862 0.950 . S
C1840 C1839 1.349 . S
C1840 C1852 1.349 . S
C1841 C1839 1.327 . S
C1841 C1857 1.429 . S
C1841 H1863 0.950 . S
C1842 H1838 0.949 . S
C1842 C1850 1.574 . S
C1842 C1858 1.368 . S
H1843 C1851 0.950 . S
H1844 C1849 0.950 . S
H1845 C1850 0.949 . S
H1846 C1852 0.950 . S
H1847 C1853 0.950 . S
H1848 C1854 0.949 . S
C1849 H1844 0.950 . S
C1849 C1851 1.327 . S
C1849 C1855 1.429 . S
C1850 C1842 1.574 . S
C1850 H1845 0.949 . S
C1850 C1856 1.368 . S
C1851 C1835 1.349 . S
C1851 H1843 0.950 . S
C1851 C1849 1.327 . S
C1852 C1840 1.349 . S
C1852 H1846 0.950 . S
C1852 C1853 1.327 . S
C1853 H1847 0.950 . S
C1853 C1852 1.327 . S
C1853 C1857 1.429 . S
C1854 C1837 1.574 . S
C1854 H1848 0.949 . S
C1854 C1858 1.368 . S
C1855 C1836 1.429 . S
C1855 C1849 1.429 . S
C1855 C1856 1.523 . S
C1856 C1837 1.368 . S
C1856 C1850 1.368 . S
C1856 C1855 1.523 . S
C1857 C1841 1.429 . S
C1857 C1853 1.429 . S
C1857 C1858 1.523 . S
C1858 C1842 1.368 . S
C1858 C1854 1.368 . S
C1858 C1857 1.523 . S
H1859 C1834 0.950 . S
H1860 C1836 0.950 . S
H1861 C1837 0.949 . S
H1862 C1839 0.950 . S
H1863 C1841 0.950 . S
C1864 C1865 1.349 . S
C1864 C1866 1.327 . S
C1864 H1889 0.950 . S
C1865 C1864 1.349 . S
C1865 C1881 1.349 . S
C1866 C1864 1.327 . S
C1866 C1885 1.429 . S
C1866 H1890 0.950 . S
C1867 C1884 1.574 . S
C1867 C1886 1.368 . S
C1867 H1891 0.949 . S
H1868 C1872 0.949 . S
C1869 C1870 1.349 . S
C1869 C1871 1.327 . S
C1869 H1892 0.950 . S
C1870 C1869 1.349 . S
C1870 C1882 1.349 . S
C1871 C1869 1.327 . S
C1871 C1887 1.429 . S
C1871 H1893 0.950 . S
C1872 H1868 0.949 . S
C1872 C1880 1.574 . S
C1872 C1888 1.368 . S
H1873 C1881 0.950 . S
H1874 C1879 0.950 . S
H1875 C1880 0.949 . S
H1876 C1882 0.950 . S
H1877 C1883 0.950 . S
H1878 C1884 0.949 . S
C1879 H1874 0.950 . S
C1879 C1881 1.327 . S
C1879 C1885 1.429 . S
C1880 C1872 1.574 . S
C1880 H1875 0.949 . S
C1880 C1886 1.368 . S
C1881 C1865 1.349 . S
C1881 H1873 0.950 . S
C1881 C1879 1.327 . S
C1882 C1870 1.349 . S
C1882 H1876 0.950 . S
C1882 C1883 1.327 . S
C1883 H1877 0.950 . S
C1883 C1882 1.327 . S
C1883 C1887 1.429 . S
C1884 C1867 1.574 . S
C1884 H1878 0.949 . S
C1884 C1888 1.368 . S
C1885 C1866 1.429 . S
C1885 C1879 1.429 . S
C1885 C1886 1.523 . S
C1886 C1867 1.368 . S
C1886 C1880 1.368 . S
C1886 C1885 1.523 . S
C1887 C1871 1.429 . S
C1887 C1883 1.429 . S
C1887 C1888 1.523 . S
C1888 C1872 1.368 . S
C1888 C1884 1.368 . S
C1888 C1887 1.523 . S
H1889 C1864 0.950 . S
H1890 C1866 0.950 . S
H1891 C1867 0.949 . S
H1892 C1869 0.950 . S
H1893 C1871 0.950 . S
C1894 C1895 1.349 . S
C1894 C1896 1.327 . S
C1894 H1919 0.950 . S
C1895 C1894 1.349 . S
C1895 C1911 1.349 . S
C1896 C1894 1.327 . S
C1896 C1915 1.429 . S
C1896 H1920 0.950 . S
C1897 C1914 1.574 . S
C1897 C1916 1.368 . S
C1897 H1921 0.949 . S
H1898 C1902 0.949 . S
C1899 C1900 1.349 . S
C1899 C1901 1.327 . S
C1899 H1922 0.950 . S
C1900 C1899 1.349 . S
C1900 C1912 1.349 . S
C1901 C1899 1.327 . S
C1901 C1917 1.429 . S
C1901 H1923 0.950 . S
C1902 H1898 0.949 . S
C1902 C1910 1.574 . S
C1902 C1918 1.368 . S
H1903 C1911 0.950 . S
H1904 C1909 0.950 . S
H1905 C1910 0.949 . S
H1906 C1912 0.950 . S
H1907 C1913 0.950 . S
H1908 C1914 0.949 . S
C1909 H1904 0.950 . S
C1909 C1911 1.327 . S
C1909 C1915 1.429 . S
C1910 C1902 1.574 . S
C1910 H1905 0.949 . S
C1910 C1916 1.368 . S
C1911 C1895 1.349 . S
C1911 H1903 0.950 . S
C1911 C1909 1.327 . S
C1912 C1900 1.349 . S
C1912 H1906 0.950 . S
C1912 C1913 1.327 . S
C1913 H1907 0.950 . S
C1913 C1912 1.327 . S
C1913 C1917 1.429 . S
C1914 C1897 1.574 . S
C1914 H1908 0.949 . S
C1914 C1918 1.368 . S
C1915 C1896 1.429 . S
C1915 C1909 1.429 . S
C1915 C1916 1.523 . S
C1916 C1897 1.368 . S
C1916 C1910 1.368 . S
C1916 C1915 1.523 . S
C1917 C1901 1.429 . S
C1917 C1913 1.429 . S
C1917 C1918 1.523 . S
C1918 C1902 1.368 . S
C1918 C1914 1.368 . S
C1918 C1917 1.523 . S
H1919 C1894 0.950 . S
H1920 C1896 0.950 . S
H1921 C1897 0.949 . S
H1922 C1899 0.950 . S
H1923 C1901 0.950 . S
C1924 C1925 1.349 . S
C1924 C1926 1.327 . S
C1924 H1949 0.950 . S
C1925 C1924 1.349 . S
C1925 C1941 1.349 . S
C1926 C1924 1.327 . S
C1926 C1945 1.429 . S
C1926 H1950 0.950 . S
C1927 C1944 1.574 . S
C1927 C1946 1.368 . S
C1927 H1951 0.949 . S
H1928 C1932 0.949 . S
C1929 C1930 1.349 . S
C1929 C1931 1.327 . S
C1929 H1952 0.950 . S
C1930 C1929 1.349 . S
C1930 C1942 1.349 . S
C1931 C1929 1.327 . S
C1931 C1947 1.429 . S
C1931 H1953 0.950 . S
C1932 H1928 0.949 . S
C1932 C1940 1.574 . S
C1932 C1948 1.368 . S
H1933 C1941 0.950 . S
H1934 C1939 0.950 . S
H1935 C1940 0.949 . S
H1936 C1942 0.950 . S
H1937 C1943 0.950 . S
H1938 C1944 0.949 . S
C1939 H1934 0.950 . S
C1939 C1941 1.327 . S
C1939 C1945 1.429 . S
C1940 C1932 1.574 . S
C1940 H1935 0.949 . S
C1940 C1946 1.368 . S
C1941 C1925 1.349 . S
C1941 H1933 0.950 . S
C1941 C1939 1.327 . S
C1942 C1930 1.349 . S
C1942 H1936 0.950 . S
C1942 C1943 1.327 . S
C1943 H1937 0.950 . S
C1943 C1942 1.327 . S
C1943 C1947 1.429 . S
C1944 C1927 1.574 . S
C1944 H1938 0.949 . S
C1944 C1948 1.368 . S
C1945 C1926 1.429 . S
C1945 C1939 1.429 . S
C1945 C1946 1.523 . S
C1946 C1927 1.368 . S
C1946 C1940 1.368 . S
C1946 C1945 1.523 . S
C1947 C1931 1.429 . S
C1947 C1943 1.429 . S
C1947 C1948 1.523 . S
C1948 C1932 1.368 . S
C1948 C1944 1.368 . S
C1948 C1947 1.523 . S
H1949 C1924 0.950 . S
H1950 C1926 0.950 . S
H1951 C1927 0.949 . S
H1952 C1929 0.950 . S
H1953 C1931 0.950 . S
C1954 C1955 1.349 . S
C1954 C1956 1.327 . S
C1954 H1979 0.950 . S
C1955 C1954 1.349 . S
C1955 C1971 1.349 . S
C1956 C1954 1.327 . S
C1956 C1975 1.429 . S
C1956 H1980 0.950 . S
C1957 C1974 1.574 . S
C1957 C1976 1.368 . S
C1957 H1981 0.949 . S
H1958 C1962 0.949 . S
C1959 C1960 1.349 . S
C1959 C1961 1.327 . S
C1959 H1982 0.950 . S
C1960 C1959 1.349 . S
C1960 C1972 1.349 . S
C1961 C1959 1.327 . S
C1961 C1977 1.429 . S
C1961 H1983 0.950 . S
C1962 H1958 0.949 . S
C1962 C1970 1.574 . S
C1962 C1978 1.368 . S
H1963 C1971 0.950 . S
H1964 C1969 0.950 . S
H1965 C1970 0.949 . S
H1966 C1972 0.950 . S
H1967 C1973 0.950 . S
H1968 C1974 0.949 . S
C1969 H1964 0.950 . S
C1969 C1971 1.327 . S
C1969 C1975 1.429 . S
C1970 C1962 1.574 . S
C1970 H1965 0.949 . S
C1970 C1976 1.368 . S
C1971 C1955 1.349 . S
C1971 H1963 0.950 . S
C1971 C1969 1.327 . S
C1972 C1960 1.349 . S
C1972 H1966 0.950 . S
C1972 C1973 1.327 . S
C1973 H1967 0.950 . S
C1973 C1972 1.327 . S
C1973 C1977 1.429 . S
C1974 C1957 1.574 . S
C1974 H1968 0.949 . S
C1974 C1978 1.368 . S
C1975 C1956 1.429 . S
C1975 C1969 1.429 . S
C1975 C1976 1.523 . S
C1976 C1957 1.368 . S
C1976 C1970 1.368 . S
C1976 C1975 1.523 . S
C1977 C1961 1.429 . S
C1977 C1973 1.429 . S
C1977 C1978 1.523 . S
C1978 C1962 1.368 . S
C1978 C1974 1.368 . S
C1978 C1977 1.523 . S
H1979 C1954 0.950 . S
H1980 C1956 0.950 . S
H1981 C1957 0.949 . S
H1982 C1959 0.950 . S
H1983 C1961 0.950 . S
C1984 C1985 1.349 . S
C1984 C1986 1.327 . S
C1984 H2009 0.950 . S
C1985 C1984 1.349 . S
C1985 C2001 1.349 . S
C1986 C1984 1.327 . S
C1986 C2005 1.429 . S
C1986 H2010 0.950 . S
C1987 C2004 1.574 . S
C1987 C2006 1.368 . S
C1987 H2011 0.949 . S
H1988 C1992 0.949 . S
C1989 C1990 1.349 . S
C1989 C1991 1.327 . S
C1989 H2012 0.950 . S
C1990 C1989 1.349 . S
C1990 C2002 1.349 . S
C1991 C1989 1.327 . S
C1991 C2007 1.429 . S
C1991 H2013 0.950 . S
C1992 H1988 0.949 . S
C1992 C2000 1.574 . S
C1992 C2008 1.368 . S
H1993 C2001 0.950 . S
H1994 C1999 0.950 . S
H1995 C2000 0.949 . S
H1996 C2002 0.950 . S
H1997 C2003 0.950 . S
H1998 C2004 0.949 . S
C1999 H1994 0.950 . S
C1999 C2001 1.327 . S
C1999 C2005 1.429 . S
C2000 C1992 1.574 . S
C2000 H1995 0.949 . S
C2000 C2006 1.368 . S
C2001 C1985 1.349 . S
C2001 H1993 0.950 . S
C2001 C1999 1.327 . S
C2002 C1990 1.349 . S
C2002 H1996 0.950 . S
C2002 C2003 1.327 . S
C2003 H1997 0.950 . S
C2003 C2002 1.327 . S
C2003 C2007 1.429 . S
C2004 C1987 1.574 . S
C2004 H1998 0.949 . S
C2004 C2008 1.368 . S
C2005 C1986 1.429 . S
C2005 C1999 1.429 . S
C2005 C2006 1.523 . S
C2006 C1987 1.368 . S
C2006 C2000 1.368 . S
C2006 C2005 1.523 . S
C2007 C1991 1.429 . S
C2007 C2003 1.429 . S
C2007 C2008 1.523 . S
C2008 C1992 1.368 . S
C2008 C2004 1.368 . S
C2008 C2007 1.523 . S
H2009 C1984 0.950 . S
H2010 C1986 0.950 . S
H2011 C1987 0.949 . S
H2012 C1989 0.950 . S
H2013 C1991 0.950 . S
C2014 C2015 1.349 . S
C2014 C2016 1.327 . S
C2014 H2039 0.950 . S
C2015 C2014 1.349 . S
C2015 C2031 1.349 . S
C2016 C2014 1.327 . S
C2016 C2035 1.429 . S
C2016 H2040 0.950 . S
C2017 C2034 1.574 . S
C2017 C2036 1.368 . S
C2017 H2041 0.949 . S
H2018 C2022 0.949 . S
C2019 C2020 1.349 . S
C2019 C2021 1.327 . S
C2019 H2042 0.950 . S
C2020 C2019 1.349 . S
C2020 C2032 1.349 . S
C2021 C2019 1.327 . S
C2021 C2037 1.429 . S
C2021 H2043 0.950 . S
C2022 H2018 0.949 . S
C2022 C2030 1.574 . S
C2022 C2038 1.368 . S
H2023 C2031 0.950 . S
H2024 C2029 0.950 . S
H2025 C2030 0.949 . S
H2026 C2032 0.950 . S
H2027 C2033 0.950 . S
H2028 C2034 0.949 . S
C2029 H2024 0.950 . S
C2029 C2031 1.327 . S
C2029 C2035 1.429 . S
C2030 C2022 1.574 . S
C2030 H2025 0.949 . S
C2030 C2036 1.368 . S
C2031 C2015 1.349 . S
C2031 H2023 0.950 . S
C2031 C2029 1.327 . S
C2032 C2020 1.349 . S
C2032 H2026 0.950 . S
C2032 C2033 1.327 . S
C2033 H2027 0.950 . S
C2033 C2032 1.327 . S
C2033 C2037 1.429 . S
C2034 C2017 1.574 . S
C2034 H2028 0.949 . S
C2034 C2038 1.368 . S
C2035 C2016 1.429 . S
C2035 C2029 1.429 . S
C2035 C2036 1.523 . S
C2036 C2017 1.368 . S
C2036 C2030 1.368 . S
C2036 C2035 1.523 . S
C2037 C2021 1.429 . S
C2037 C2033 1.429 . S
C2037 C2038 1.523 . S
C2038 C2022 1.368 . S
C2038 C2034 1.368 . S
C2038 C2037 1.523 . S
H2039 C2014 0.950 . S
H2040 C2016 0.950 . S
H2041 C2017 0.949 . S
H2042 C2019 0.950 . S
H2043 C2021 0.950 . S
C2044 C2045 1.349 . S
C2044 C2046 1.327 . S
C2044 H2069 0.950 . S
C2045 C2044 1.349 . S
C2045 C2061 1.349 . S
C2046 C2044 1.327 . S
C2046 C2065 1.429 . S
C2046 H2070 0.950 . S
C2047 C2064 1.574 . S
C2047 C2066 1.368 . S
C2047 H2071 0.949 . S
H2048 C2052 0.949 . S
C2049 C2050 1.349 . S
C2049 C2051 1.327 . S
C2049 H2072 0.950 . S
C2050 C2049 1.349 . S
C2050 C2062 1.349 . S
C2051 C2049 1.327 . S
C2051 C2067 1.429 . S
C2051 H2073 0.950 . S
C2052 H2048 0.949 . S
C2052 C2060 1.574 . S
C2052 C2068 1.368 . S
H2053 C2061 0.950 . S
H2054 C2059 0.950 . S
H2055 C2060 0.949 . S
H2056 C2062 0.950 . S
H2057 C2063 0.950 . S
H2058 C2064 0.949 . S
C2059 H2054 0.950 . S
C2059 C2061 1.327 . S
C2059 C2065 1.429 . S
C2060 C2052 1.574 . S
C2060 H2055 0.949 . S
C2060 C2066 1.368 . S
C2061 C2045 1.349 . S
C2061 H2053 0.950 . S
C2061 C2059 1.327 . S
C2062 C2050 1.349 . S
C2062 H2056 0.950 . S
C2062 C2063 1.327 . S
C2063 H2057 0.950 . S
C2063 C2062 1.327 . S
C2063 C2067 1.429 . S
C2064 C2047 1.574 . S
C2064 H2058 0.949 . S
C2064 C2068 1.368 . S
C2065 C2046 1.429 . S
C2065 C2059 1.429 . S
C2065 C2066 1.523 . S
C2066 C2047 1.368 . S
C2066 C2060 1.368 . S
C2066 C2065 1.523 . S
C2067 C2051 1.429 . S
C2067 C2063 1.429 . S
C2067 C2068 1.523 . S
C2068 C2052 1.368 . S
C2068 C2064 1.368 . S
C2068 C2067 1.523 . S
H2069 C2044 0.950 . S
H2070 C2046 0.950 . S
H2071 C2047 0.949 . S
H2072 C2049 0.950 . S
H2073 C2051 0.950 . S
C2074 C2075 1.349 . S
C2074 C2076 1.327 . S
C2074 H2099 0.950 . S
C2075 C2074 1.349 . S
C2075 C2091 1.349 . S
C2076 C2074 1.327 . S
C2076 C2095 1.429 . S
C2076 H2100 0.950 . S
C2077 C2094 1.574 . S
C2077 C2096 1.368 . S
C2077 H2101 0.949 . S
H2078 C2082 0.949 . S
C2079 C2080 1.349 . S
C2079 C2081 1.327 . S
C2079 H2102 0.950 . S
C2080 C2079 1.349 . S
C2080 C2092 1.349 . S
C2081 C2079 1.327 . S
C2081 C2097 1.429 . S
C2081 H2103 0.950 . S
C2082 H2078 0.949 . S
C2082 C2090 1.574 . S
C2082 C2098 1.368 . S
H2083 C2091 0.950 . S
H2084 C2089 0.950 . S
H2085 C2090 0.949 . S
H2086 C2092 0.950 . S
H2087 C2093 0.950 . S
H2088 C2094 0.949 . S
C2089 H2084 0.950 . S
C2089 C2091 1.327 . S
C2089 C2095 1.429 . S
C2090 C2082 1.574 . S
C2090 H2085 0.949 . S
C2090 C2096 1.368 . S
C2091 C2075 1.349 . S
C2091 H2083 0.950 . S
C2091 C2089 1.327 . S
C2092 C2080 1.349 . S
C2092 H2086 0.950 . S
C2092 C2093 1.327 . S
C2093 H2087 0.950 . S
C2093 C2092 1.327 . S
C2093 C2097 1.429 . S
C2094 C2077 1.574 . S
C2094 H2088 0.949 . S
C2094 C2098 1.368 . S
C2095 C2076 1.429 . S
C2095 C2089 1.429 . S
C2095 C2096 1.523 . S
C2096 C2077 1.368 . S
C2096 C2090 1.368 . S
C2096 C2095 1.523 . S
C2097 C2081 1.429 . S
C2097 C2093 1.429 . S
C2097 C2098 1.523 . S
C2098 C2082 1.368 . S
C2098 C2094 1.368 . S
C2098 C2097 1.523 . S
H2099 C2074 0.950 . S
H2100 C2076 0.950 . S
H2101 C2077 0.949 . S
H2102 C2079 0.950 . S
H2103 C2081 0.950 . S
C2104 C2105 1.349 . S
C2104 C2106 1.327 . S
C2104 H2129 0.950 . S
C2105 C2104 1.349 . S
C2105 C2121 1.349 . S
C2106 C2104 1.327 . S
C2106 C2125 1.429 . S
C2106 H2130 0.950 . S
C2107 C2124 1.574 . S
C2107 C2126 1.368 . S
C2107 H2131 0.949 . S
H2108 C2112 0.949 . S
C2109 C2110 1.349 . S
C2109 C2111 1.327 . S
C2109 H2132 0.950 . S
C2110 C2109 1.349 . S
C2110 C2122 1.349 . S
C2111 C2109 1.327 . S
C2111 C2127 1.429 . S
C2111 H2133 0.950 . S
C2112 H2108 0.949 . S
C2112 C2120 1.574 . S
C2112 C2128 1.368 . S
H2113 C2121 0.950 . S
H2114 C2119 0.950 . S
H2115 C2120 0.949 . S
H2116 C2122 0.950 . S
H2117 C2123 0.950 . S
H2118 C2124 0.949 . S
C2119 H2114 0.950 . S
C2119 C2121 1.327 . S
C2119 C2125 1.429 . S
C2120 C2112 1.574 . S
C2120 H2115 0.949 . S
C2120 C2126 1.368 . S
C2121 C2105 1.349 . S
C2121 H2113 0.950 . S
C2121 C2119 1.327 . S
C2122 C2110 1.349 . S
C2122 H2116 0.950 . S
C2122 C2123 1.327 . S
C2123 H2117 0.950 . S
C2123 C2122 1.327 . S
C2123 C2127 1.429 . S
C2124 C2107 1.574 . S
C2124 H2118 0.949 . S
C2124 C2128 1.368 . S
C2125 C2106 1.429 . S
C2125 C2119 1.429 . S
C2125 C2126 1.523 . S
C2126 C2107 1.368 . S
C2126 C2120 1.368 . S
C2126 C2125 1.523 . S
C2127 C2111 1.429 . S
C2127 C2123 1.429 . S
C2127 C2128 1.523 . S
C2128 C2112 1.368 . S
C2128 C2124 1.368 . S
C2128 C2127 1.523 . S
H2129 C2104 0.950 . S
H2130 C2106 0.950 . S
H2131 C2107 0.949 . S
H2132 C2109 0.950 . S
H2133 C2111 0.950 . S
C2134 C2135 1.349 . S
C2134 C2136 1.327 . S
C2134 H2159 0.950 . S
C2135 C2134 1.349 . S
C2135 C2151 1.349 . S
C2136 C2134 1.327 . S
C2136 C2155 1.429 . S
C2136 H2160 0.950 . S
C2137 C2154 1.574 . S
C2137 C2156 1.368 . S
C2137 H2161 0.949 . S
H2138 C2142 0.949 . S
C2139 C2140 1.349 . S
C2139 C2141 1.327 . S
C2139 H2162 0.950 . S
C2140 C2139 1.349 . S
C2140 C2152 1.349 . S
C2141 C2139 1.327 . S
C2141 C2157 1.429 . S
C2141 H2163 0.950 . S
C2142 H2138 0.949 . S
C2142 C2150 1.574 . S
C2142 C2158 1.368 . S
H2143 C2151 0.950 . S
H2144 C2149 0.950 . S
H2145 C2150 0.949 . S
H2146 C2152 0.950 . S
H2147 C2153 0.950 . S
H2148 C2154 0.949 . S
C2149 H2144 0.950 . S
C2149 C2151 1.327 . S
C2149 C2155 1.429 . S
C2150 C2142 1.574 . S
C2150 H2145 0.949 . S
C2150 C2156 1.368 . S
C2151 C2135 1.349 . S
C2151 H2143 0.950 . S
C2151 C2149 1.327 . S
C2152 C2140 1.349 . S
C2152 H2146 0.950 . S
C2152 C2153 1.327 . S
C2153 H2147 0.950 . S
C2153 C2152 1.327 . S
C2153 C2157 1.429 . S
C2154 C2137 1.574 . S
C2154 H2148 0.949 . S
C2154 C2158 1.368 . S
C2155 C2136 1.429 . S
C2155 C2149 1.429 . S
C2155 C2156 1.523 . S
C2156 C2137 1.368 . S
C2156 C2150 1.368 . S
C2156 C2155 1.523 . S
C2157 C2141 1.429 . S
C2157 C2153 1.429 . S
C2157 C2158 1.523 . S
C2158 C2142 1.368 . S
C2158 C2154 1.368 . S
C2158 C2157 1.523 . S
H2159 C2134 0.950 . S
H2160 C2136 0.950 . S
H2161 C2137 0.949 . S
H2162 C2139 0.950 . S
H2163 C2141 0.950 . S
C2164 C2165 1.349 . S
C2164 C2166 1.327 . S
C2164 H2189 0.950 . S
C2165 C2164 1.349 . S
C2165 C2181 1.349 . S
C2166 C2164 1.327 . S
C2166 C2185 1.429 . S
C2166 H2190 0.950 . S
C2167 C2184 1.574 . S
C2167 C2186 1.368 . S
C2167 H2191 0.949 . S
H2168 C2172 0.949 . S
C2169 C2170 1.349 . S
C2169 C2171 1.327 . S
C2169 H2192 0.950 . S
C2170 C2169 1.349 . S
C2170 C2182 1.349 . S
C2171 C2169 1.327 . S
C2171 C2187 1.429 . S
C2171 H2193 0.950 . S
C2172 H2168 0.949 . S
C2172 C2180 1.574 . S
C2172 C2188 1.368 . S
H2173 C2181 0.950 . S
H2174 C2179 0.950 . S
H2175 C2180 0.949 . S
H2176 C2182 0.950 . S
H2177 C2183 0.950 . S
H2178 C2184 0.949 . S
C2179 H2174 0.950 . S
C2179 C2181 1.327 . S
C2179 C2185 1.429 . S
C2180 C2172 1.574 . S
C2180 H2175 0.949 . S
C2180 C2186 1.368 . S
C2181 C2165 1.349 . S
C2181 H2173 0.950 . S
C2181 C2179 1.327 . S
C2182 C2170 1.349 . S
C2182 H2176 0.950 . S
C2182 C2183 1.327 . S
C2183 H2177 0.950 . S
C2183 C2182 1.327 . S
C2183 C2187 1.429 . S
C2184 C2167 1.574 . S
C2184 H2178 0.949 . S
C2184 C2188 1.368 . S
C2185 C2166 1.429 . S
C2185 C2179 1.429 . S
C2185 C2186 1.523 . S
C2186 C2167 1.368 . S
C2186 C2180 1.368 . S
C2186 C2185 1.523 . S
C2187 C2171 1.429 . S
C2187 C2183 1.429 . S
C2187 C2188 1.523 . S
C2188 C2172 1.368 . S
C2188 C2184 1.368 . S
C2188 C2187 1.523 . S
H2189 C2164 0.950 . S
H2190 C2166 0.950 . S
H2191 C2167 0.949 . S
H2192 C2169 0.950 . S
H2193 C2171 0.950 . S
C2194 C2195 1.349 . S
C2194 C2196 1.327 . S
C2194 H2219 0.950 . S
C2195 C2194 1.349 . S
C2195 C2211 1.349 . S
C2196 C2194 1.327 . S
C2196 C2215 1.429 . S
C2196 H2220 0.950 . S
C2197 C2214 1.574 . S
C2197 C2216 1.368 . S
C2197 H2221 0.949 . S
H2198 C2202 0.949 . S
C2199 C2200 1.349 . S
C2199 C2201 1.327 . S
C2199 H2222 0.950 . S
C2200 C2199 1.349 . S
C2200 C2212 1.349 . S
C2201 C2199 1.327 . S
C2201 C2217 1.429 . S
C2201 H2223 0.950 . S
C2202 H2198 0.949 . S
C2202 C2210 1.574 . S
C2202 C2218 1.368 . S
H2203 C2211 0.950 . S
H2204 C2209 0.950 . S
H2205 C2210 0.949 . S
H2206 C2212 0.950 . S
H2207 C2213 0.950 . S
H2208 C2214 0.949 . S
C2209 H2204 0.950 . S
C2209 C2211 1.327 . S
C2209 C2215 1.429 . S
C2210 C2202 1.574 . S
C2210 H2205 0.949 . S
C2210 C2216 1.368 . S
C2211 C2195 1.349 . S
C2211 H2203 0.950 . S
C2211 C2209 1.327 . S
C2212 C2200 1.349 . S
C2212 H2206 0.950 . S
C2212 C2213 1.327 . S
C2213 H2207 0.950 . S
C2213 C2212 1.327 . S
C2213 C2217 1.429 . S
C2214 C2197 1.574 . S
C2214 H2208 0.949 . S
C2214 C2218 1.368 . S
C2215 C2196 1.429 . S
C2215 C2209 1.429 . S
C2215 C2216 1.523 . S
C2216 C2197 1.368 . S
C2216 C2210 1.368 . S
C2216 C2215 1.523 . S
C2217 C2201 1.429 . S
C2217 C2213 1.429 . S
C2217 C2218 1.523 . S
C2218 C2202 1.368 . S
C2218 C2214 1.368 . S
C2218 C2217 1.523 . S
H2219 C2194 0.950 . S
H2220 C2196 0.950 . S
H2221 C2197 0.949 . S
H2222 C2199 0.950 . S
H2223 C2201 0.950 . S
C545 C15 1.573 . S
C550 C151 1.573 . S
C575 C185 1.573 . S
C580 C49 1.573 . S
C605 C226 1.573 . S
C610 C83 1.573 . S
C635 C253 1.573 . S
C640 C117 1.573 . S
C665 C287 1.573 . S
C670 C423 1.573 . S
C695 C457 1.573 . S
C700 C321 1.573 . S
C725 C362 1.573 . S
C730 C491 1.573 . S
C755 C396 1.573 . S
C760 C525 1.573 . S
C785 C17 1.710 . S
C790 C445 1.614 . S
C815 C51 1.710 . S
C820 C411 1.614 . S
C845 C85 1.710 . S
C850 C513 1.614 . S
C875 C479 1.614 . S
C880 C119 1.710 . S
C905 C153 1.710 . S
C910 C309 1.614 . S
C935 C187 1.710 . S
C940 C275 1.614 . S
C965 C375 1.614 . S
C970 C221 1.710 . S
C995 C255 1.710 . S
C1000 C341 1.614 . S
C1025 C289 1.710 . S
C1030 C173 1.614 . S
C1055 C139 1.614 . S
C1060 C323 1.710 . S
C1085 C357 1.710 . S
C1090 C241 1.614 . S
C1115 C391 1.710 . S
C1120 C205 1.614 . S
C1145 C425 1.710 . S
C1150 C37 1.614 . S
C1175 C3 1.614 . S
C1180 C459 1.710 . S
C1205 C105 1.614 . S
C1210 C493 1.710 . S
C1235 C527 1.710 . S
C1240 C71 1.614 . S
C1265 C56 1.821 . S
C1270 C22 1.821 . S
C1295 C90 1.821 . S
C1300 C124 1.821 . S
C1325 C158 1.821 . S
C1330 C192 1.821 . S
C1355 C219 1.821 . S
C1360 C260 1.821 . S
C1385 C328 1.821 . S
C1390 C294 1.821 . S
C1415 C389 1.821 . S
C1420 C355 1.821 . S
C1445 C464 1.821 . S
C1450 C430 1.821 . S
C1475 C498 1.821 . S
C1480 C532 1.821 . S
C1505 C6 0.999 . S
C1510 C266 0.996 . S
C1535 C210 0.996 . S
C1540 C40 0.999 . S
C1565 C74 0.999 . S
C1570 C198 0.996 . S
C1595 C164 0.996 . S
C1600 C108 0.999 . S
C1625 C142 0.999 . S
C1630 C130 0.996 . S
C1655 C176 0.999 . S
C1660 C96 0.996 . S
C1685 C232 0.999 . S
C1690 C62 0.996 . S
C1715 C28 0.996 . S
C1720 C244 0.999 . S
C1745 C278 0.999 . S
C1750 C538 0.996 . S
C1775 C312 0.999 . S
C1780 C504 0.996 . S
C1805 C470 0.996 . S
C1810 C368 0.999 . S
C1835 C402 0.999 . S
C1840 C436 0.996 . S
C1865 C414 0.999 . S
C1870 C380 0.996 . S
C1895 C448 0.999 . S
C1900 C346 0.996 . S
C1925 C482 0.999 . S
C1930 C334 0.996 . S
C1955 C300 0.996 . S
C1960 C516 0.999 . S
C1985 C343 1.724 . S
C1990 C1 1.724 . S
C2015 C35 1.724 . S
C2020 C377 1.724 . S
C2045 C273 1.724 . S
C2050 C69 1.724 . S
C2075 C103 1.724 . S
C2080 C307 1.724 . S
C2105 C137 1.724 . S
C2110 C477 1.724 . S
C2135 C511 1.724 . S
C2140 C171 1.724 . S
C2165 C409 1.724 . S
C2170 C207 1.724 . S
C2195 C443 1.724 . S
C2200 C239 1.724 . S
