# Generated by pormake.
# Topology zfr, (5)-cn, num edge types: 1
# Building blocks:
#     Node 0, Type 0, BuildingBlock: XOMCOT_clean_sbu_0, # of connection points: 5
#     Node 1, Type 0, BuildingBlock: XOMCOT_clean_sbu_0, # of connection points: 5
#     Node 2, Type 0, BuildingBlock: XOMCOT_clean_sbu_0, # of connection points: 5
#     Node 3, Type 0, BuildingBlock: XOMCOT_clean_sbu_0, # of connection points: 5
#     Node 4, Type 0, BuildingBlock: XOMCOT_clean_sbu_0, # of connection points: 5
#     Node 5, Type 0, BuildingBlock: XOMCOT_clean_sbu_0, # of connection points: 5
#     Node 6, Type 0, BuildingBlock: XOMCOT_clean_sbu_0, # of connection points: 5
#     Node 7, Type 0, BuildingBlock: XOMCOT_clean_sbu_0, # of connection points: 5
#     Edge 8, Type (0, 0), BuildingBlock: TEMPAE_clean_linker_10, # of connection points: 2
#     Edge 9, Type (0, 0), BuildingBlock: TEMPAE_clean_linker_10, # of connection points: 2
#     Edge 10, Type (0, 0), BuildingBlock: TEMPAE_clean_linker_10, # of connection points: 2
#     Edge 11, Type (0, 0), BuildingBlock: TEMPAE_clean_linker_10, # of connection points: 2
#     Edge 12, Type (0, 0), BuildingBlock: TEMPAE_clean_linker_10, # of connection points: 2
#     Edge 13, Type (0, 0), BuildingBlock: TEMPAE_clean_linker_10, # of connection points: 2
#     Edge 14, Type (0, 0), BuildingBlock: TEMPAE_clean_linker_10, # of connection points: 2
#     Edge 15, Type (0, 0), BuildingBlock: TEMPAE_clean_linker_10, # of connection points: 2
#     Edge 16, Type (0, 0), BuildingBlock: TEMPAE_clean_linker_10, # of connection points: 2
#     Edge 17, Type (0, 0), BuildingBlock: TEMPAE_clean_linker_10, # of connection points: 2
#     Edge 18, Type (0, 0), BuildingBlock: TEMPAE_clean_linker_10, # of connection points: 2
#     Edge 19, Type (0, 0), BuildingBlock: TEMPAE_clean_linker_10, # of connection points: 2
#     Edge 20, Type (0, 0), BuildingBlock: TEMPAE_clean_linker_10, # of connection points: 2
#     Edge 21, Type (0, 0), BuildingBlock: TEMPAE_clean_linker_10, # of connection points: 2
#     Edge 22, Type (0, 0), BuildingBlock: TEMPAE_clean_linker_10, # of connection points: 2
#     Edge 23, Type (0, 0), BuildingBlock: TEMPAE_clean_linker_10, # of connection points: 2
#     Edge 24, Type (0, 0), BuildingBlock: TEMPAE_clean_linker_10, # of connection points: 2
#     Edge 25, Type (0, 0), BuildingBlock: TEMPAE_clean_linker_10, # of connection points: 2
#     Edge 26, Type (0, 0), BuildingBlock: TEMPAE_clean_linker_10, # of connection points: 2
#     Edge 27, Type (0, 0), BuildingBlock: TEMPAE_clean_linker_10, # of connection points: 2
# Relax obj value: 0.174
# Max RMSD: 0.171
# Mean RMSD: 0.171
data_MOF--net-zfr--node1-XOMCOT_clean_sbu_0--edge1-TEMPAE_clean_linker_10
_symmetry_space_group_name_H-M    P1
_symmetry_Int_Tables_number       1
_symmetry_cell_setting            triclinic
loop_
_symmetry_equiv_pos_as_xyz
'x, y, z'
_cell_length_a     51.831949
_cell_length_b     51.83177
_cell_length_c     17.594033
_cell_angle_alpha  90.030148
_cell_angle_beta   90.044546
_cell_angle_gamma 90.004388
loop_
_atom_site_label
_atom_site_type_symbol
_atom_site_fract_x
_atom_site_fract_y
_atom_site_fract_z
_atom_type_partial_charge
Co0 Co 0.12316 0.30821 0.22691 0.0
C1 C 0.11718 0.30723 0.39486 0.0
C2 C 0.08683 0.28653 0.33933 0.0
C3 C 0.08377 0.28384 0.41669 0.0
N4 N 0.10726 0.30204 0.32548 0.0
N5 N 0.103 0.29675 0.45112 0.0
H6 H 0.13517 0.31708 0.4047 0.0
H7 H 0.07558 0.27678 0.29626 0.0
C8 C 0.06714 0.3164 0.19497 0.0
O9 O 0.06545 0.32971 0.25838 0.0
N10 N 0.13906 0.3134 0.1293 0.0
C11 C 0.1586 0.32957 0.11267 0.0
C12 C 0.16169 0.33012 0.03489 0.0
C13 C 0.13086 0.30394 0.06222 0.0
N14 N 0.14421 0.314 0.00358 0.0
C15 C 0.13487 0.35793 0.29199 0.0
C16 C 0.10705 0.38666 0.18805 0.0
C17 C 0.12059 0.39945 0.24558 0.0
C18 C 0.1349 0.38482 0.29749 0.0
C19 C 0.10787 0.35981 0.18396 0.0
N20 N 0.1206 0.3456 0.23773 0.0
H21 H 0.14735 0.34724 0.32922 0.0
H22 H 0.09898 0.35062 0.13555 0.0
H23 H 0.16907 0.34098 0.15391 0.0
H24 H 0.1146 0.29099 0.05612 0.0
O25 O 0.15662 0.30295 0.27183 0.0
O26 O 0.13197 0.27213 0.22244 0.0
O27 O 0.08856 0.30631 0.17504 0.0
C28 C 0.15328 0.2786 0.25673 0.0
H29 H 0.06947 0.27212 0.44529 0.0
H30 H 0.1753 0.34187 0.00364 0.0
H31 H 0.09671 0.39736 0.1448 0.0
H32 H 0.14627 0.39408 0.34139 0.0
Co33 Co 0.68622 0.11971 0.50602 0.0
C34 C 0.68232 0.11166 0.67294 0.0
C35 C 0.70595 0.08321 0.61882 0.0
C36 C 0.7082 0.08026 0.69622 0.0
N37 N 0.68936 0.10266 0.60389 0.0
N38 N 0.69334 0.0982 0.72993 0.0
H39 H 0.67167 0.12923 0.68221 0.0
H40 H 0.71715 0.07307 0.57648 0.0
C41 C 0.67778 0.06413 0.46771 0.0
O42 O 0.66239 0.06221 0.5268 0.0
N43 N 0.68407 0.13663 0.40863 0.0
C44 C 0.6726 0.15931 0.39245 0.0
C45 C 0.67304 0.16284 0.31469 0.0
C46 C 0.69141 0.12678 0.34121 0.0
N47 N 0.68466 0.14221 0.28289 0.0
C48 C 0.63523 0.13233 0.55934 0.0
C49 C 0.60879 0.10518 0.4487 0.0
C50 C 0.59485 0.11848 0.50423 0.0
C51 C 0.60829 0.1326 0.55923 0.0
C52 C 0.63566 0.10588 0.44998 0.0
N53 N 0.64866 0.11806 0.50746 0.0
H54 H 0.64517 0.14447 0.59935 0.0
H55 H 0.64591 0.0971 0.40334 0.0
H56 H 0.66363 0.17184 0.43389 0.0
H57 H 0.70098 0.1084 0.33447 0.0
O58 O 0.69096 0.15253 0.55528 0.0
O59 O 0.7225 0.12768 0.511 0.0
O60 O 0.68892 0.08549 0.45282 0.0
C61 C 0.71556 0.14872 0.54592 0.0
H62 H 0.72076 0.06683 0.72542 0.0
H63 H 0.66433 0.17865 0.28373 0.0
H64 H 0.59897 0.095 0.40329 0.0
H65 H 0.59807 0.14385 0.60149 0.0
Co66 Co 0.87684 0.68885 0.74135 0.0
C67 C 0.88365 0.68709 0.90892 0.0
C68 C 0.91665 0.70363 0.8548 0.0
C69 C 0.92001 0.70528 0.93237 0.0
N70 N 0.89418 0.6914 0.83971 0.0
N71 N 0.89911 0.69503 0.96599 0.0
H72 H 0.86437 0.67984 0.91803 0.0
H73 H 0.92907 0.71244 0.81292 0.0
C74 C 0.93158 0.6799 0.69453 0.0
O75 O 0.93389 0.66296 0.74973 0.0
N76 N 0.85946 0.68712 0.6443 0.0
C77 C 0.83841 0.67294 0.62773 0.0
C78 C 0.83499 0.67289 0.55004 0.0
C79 C 0.86826 0.69592 0.57701 0.0
N80 N 0.85386 0.68725 0.51841 0.0
C81 C 0.86766 0.63745 0.79669 0.0
C82 C 0.88961 0.61204 0.67444 0.0
C83 C 0.87847 0.5977 0.73292 0.0
C84 C 0.86714 0.61055 0.79422 0.0
C85 C 0.88919 0.63889 0.67831 0.0
N86 N 0.87927 0.65135 0.74042 0.0
H87 H 0.85775 0.64699 0.84233 0.0
H88 H 0.89638 0.64965 0.63025 0.0
H89 H 0.82731 0.6621 0.6688 0.0
H90 H 0.8858 0.70698 0.57041 0.0
O91 O 0.84409 0.69227 0.79135 0.0
O92 O 0.86805 0.72489 0.74932 0.0
O93 O 0.91062 0.69249 0.68623 0.0
C94 C 0.84727 0.71703 0.78394 0.0
H95 H 0.93568 0.71487 0.9617 0.0
H96 H 0.82037 0.66231 0.51904 0.0
H97 H 0.89778 0.60259 0.62507 0.0
H98 H 0.85772 0.59988 0.83931 0.0
Co99 Co 0.30938 0.87754 0.00198 0.0
C100 C 0.30898 0.88386 0.16972 0.0
C101 C 0.29303 0.91701 0.11474 0.0
C102 C 0.29097 0.92036 0.19223 0.0
N103 N 0.3052 0.89446 0.10036 0.0
N104 N 0.30088 0.89938 0.22636 0.0
H105 H 0.3162 0.86459 0.17921 0.0
H106 H 0.28477 0.9296 0.07234 0.0
C107 C 0.31803 0.93285 0.95656 0.0
O108 O 0.33442 0.93577 0.01295 0.0
N109 N 0.31276 0.86066 0.90471 0.0
C110 C 0.3279 0.84031 0.88805 0.0
C111 C 0.32814 0.83703 0.81029 0.0
C112 C 0.30359 0.86914 0.83753 0.0
N113 N 0.31293 0.85526 0.77879 0.0
C114 C 0.35973 0.86778 0.06393 0.0
C115 C 0.38732 0.89095 0.94812 0.0
C116 C 0.40066 0.87898 0.00749 0.0
C117 C 0.38662 0.86712 0.06561 0.0
C118 C 0.3604 0.89074 0.94792 0.0
N119 N 0.34685 0.88014 0.00691 0.0
H120 H 0.3494 0.85729 0.10683 0.0
H121 H 0.35051 0.89844 0.89892 0.0
H122 H 0.33906 0.82953 0.92919 0.0
H123 H 0.29156 0.88603 0.83127 0.0
O124 O 0.30519 0.84448 0.05005 0.0
O125 O 0.27332 0.86857 0.00401 0.0
O126 O 0.30626 0.91146 0.94728 0.0
C127 C 0.28059 0.84754 0.03835 0.0
H128 H 0.28154 0.93622 0.2211 0.0
H129 H 0.33928 0.82286 0.7792 0.0
H130 H 0.39759 0.89955 0.90088 0.0
H131 H 0.39635 0.85716 0.11154 0.0
Co132 Co 0.12283 0.68569 0.25088 0.0
C133 C 0.11461 0.6827 0.08382 0.0
C134 C 0.08825 0.70859 0.13819 0.0
C135 C 0.08515 0.71082 0.06082 0.0
N136 N 0.10646 0.69064 0.15283 0.0
N137 N 0.10178 0.69452 0.02696 0.0
H138 H 0.13109 0.67047 0.07438 0.0
H139 H 0.07894 0.72041 0.18076 0.0
C140 C 0.06645 0.67942 0.28434 0.0
O141 O 0.06399 0.66505 0.22318 0.0
N142 N 0.13908 0.68165 0.34862 0.0
C143 C 0.16128 0.66924 0.36449 0.0
C144 C 0.1646 0.66892 0.44233 0.0
C145 C 0.12928 0.68877 0.41622 0.0
N146 N 0.14429 0.68101 0.47437 0.0
C147 C 0.13531 0.63507 0.1943 0.0
C148 C 0.10623 0.60798 0.29878 0.0
C149 C 0.12066 0.59418 0.24512 0.0
C150 C 0.13552 0.60812 0.19272 0.0
C151 C 0.10683 0.63486 0.29885 0.0
N152 N 0.12021 0.64822 0.24468 0.0
H153 H 0.14838 0.64522 0.15742 0.0
H154 H 0.09719 0.64476 0.34462 0.0
H155 H 0.17368 0.6603 0.32267 0.0
H156 H 0.11131 0.69907 0.42313 0.0
O157 O 0.15615 0.69046 0.20418 0.0
O158 O 0.13166 0.72174 0.2515 0.0
O159 O 0.08839 0.68877 0.3024 0.0
C160 C 0.15289 0.71495 0.2175 0.0
H161 H 0.07245 0.72413 0.03172 0.0
H162 H 0.18008 0.65954 0.47308 0.0
H163 H 0.09476 0.59816 0.34129 0.0
H164 H 0.14798 0.59835 0.1526 0.0
Co165 Co 0.30887 0.11652 0.48199 0.0
C166 C 0.3097 0.10992 0.31443 0.0
C167 C 0.29296 0.07706 0.36881 0.0
C168 C 0.29117 0.07372 0.29126 0.0
N169 N 0.30541 0.09942 0.38365 0.0
N170 N 0.30156 0.09453 0.25749 0.0
H171 H 0.31718 0.12911 0.30523 0.0
H172 H 0.28423 0.06468 0.4109 0.0
C173 C 0.31736 0.06129 0.52779 0.0
O174 O 0.3339 0.05848 0.47178 0.0
N175 N 0.31156 0.13365 0.57914 0.0
C176 C 0.32641 0.15424 0.5957 0.0
C177 C 0.32666 0.15758 0.67342 0.0
C178 C 0.30256 0.12509 0.6464 0.0
N179 N 0.31174 0.13914 0.70503 0.0
C180 C 0.35985 0.12616 0.42371 0.0
C181 C 0.3862 0.10321 0.54236 0.0
C182 C 0.40039 0.11503 0.48415 0.0
C183 C 0.38678 0.12675 0.42445 0.0
C184 C 0.35933 0.10351 0.54007 0.0
N185 N 0.34638 0.11399 0.47978 0.0
H186 H 0.34995 0.13662 0.37982 0.0
H187 H 0.34897 0.09583 0.5882 0.0
H188 H 0.33747 0.16509 0.55455 0.0
H189 H 0.29085 0.10798 0.65285 0.0
O190 O 0.30485 0.14948 0.433 0.0
O191 O 0.2728 0.12531 0.47744 0.0
O192 O 0.30551 0.08265 0.53692 0.0
C193 C 0.28019 0.1463 0.44308 0.0
H194 H 0.28149 0.05807 0.26205 0.0
H195 H 0.33768 0.17187 0.70443 0.0
H196 H 0.39568 0.094 0.59001 0.0
H197 H 0.39676 0.13711 0.37986 0.0
Co198 Co 0.86781 0.3141 0.76528 0.0
C199 C 0.87429 0.31521 0.60009 0.0
C200 C 0.90494 0.29402 0.6535 0.0
C201 C 0.90785 0.2923 0.57576 0.0
N202 N 0.88392 0.30841 0.66821 0.0
N203 N 0.8885 0.30561 0.5425 0.0
H204 H 0.85653 0.32592 0.59303 0.0
H205 H 0.91676 0.2847 0.6961 0.0
C206 C 0.9125 0.33317 0.8564 0.0
O207 O 0.89874 0.35369 0.87311 0.0
N208 N 0.85126 0.31848 0.86409 0.0
C209 C 0.82592 0.32215 0.8793 0.0
C210 C 0.82214 0.32139 0.95679 0.0
C211 C 0.86202 0.31394 0.93268 0.0
N212 N 0.84501 0.3165 0.98991 0.0
C213 C 0.8467 0.36549 0.75718 0.0
C214 C 0.8913 0.38914 0.70645 0.0
C215 C 0.86991 0.40427 0.72508 0.0
C216 C 0.84723 0.39222 0.74907 0.0
C217 C 0.89011 0.36248 0.71688 0.0
N218 N 0.8684 0.3511 0.74585 0.0
H219 H 0.82879 0.35652 0.77245 0.0
H220 H 0.90704 0.35107 0.70451 0.0
H221 H 0.81086 0.32433 0.8373 0.0
H222 H 0.88158 0.30747 0.94132 0.0
O223 O 0.83507 0.30634 0.71982 0.0
O224 O 0.86129 0.27752 0.77282 0.0
O225 O 0.903 0.31527 0.8148 0.0
C226 C 0.83985 0.28238 0.73672 0.0
H227 H 0.92276 0.2817 0.54612 0.0
H228 H 0.80404 0.32412 0.98636 0.0
H229 H 0.90905 0.39793 0.68675 0.0
H230 H 0.83007 0.4034 0.7615 0.0
Co231 Co 0.68647 0.86865 0.03503 0.0
C232 C 0.68363 0.87682 0.86787 0.0
C233 C 0.70884 0.90374 0.9228 0.0
C234 C 0.71121 0.90683 0.84545 0.0
N235 N 0.69122 0.88517 0.93708 0.0
N236 N 0.69532 0.88986 0.81128 0.0
H237 H 0.67181 0.86007 0.85808 0.0
H238 H 0.72037 0.9133 0.96561 0.0
C239 C 0.67883 0.9247 0.06916 0.0
O240 O 0.6645 0.92673 0.00777 0.0
N241 N 0.68268 0.85232 0.13265 0.0
C242 C 0.6704 0.83007 0.14871 0.0
C243 C 0.67029 0.82677 0.22656 0.0
C244 C 0.68995 0.86216 0.20014 0.0
N245 N 0.6824 0.84712 0.25843 0.0
C246 C 0.63614 0.85591 0.97676 0.0
C247 C 0.60847 0.88525 0.07932 0.0
C248 C 0.59501 0.87149 0.02327 0.0
C249 C 0.60924 0.85628 0.97239 0.0
C250 C 0.6353 0.88396 0.08233 0.0
N251 N 0.64898 0.87075 0.0285 0.0
H252 H 0.64646 0.84279 0.94042 0.0
H253 H 0.64492 0.89325 0.12931 0.0
H254 H 0.6614 0.81764 0.10702 0.0
H255 H 0.7002 0.88018 0.20683 0.0
O256 O 0.69159 0.8355 0.98792 0.0
O257 O 0.72266 0.86028 0.03533 0.0
O258 O 0.68895 0.90309 0.08696 0.0
C259 C 0.71607 0.8391 0.00059 0.0
H260 H 0.72436 0.91975 0.81659 0.0
H261 H 0.66104 0.81126 0.25745 0.0
H262 H 0.59845 0.8969 0.12099 0.0
H263 H 0.59972 0.84416 0.93082 0.0
C264 C 0.26839 0.18198 0.35531 0.0
C265 C 0.26147 0.16528 0.41445 0.0
C266 C 0.25076 0.20005 0.32677 0.0
C267 C 0.22587 0.20174 0.35935 0.0
C268 C 0.21879 0.1849 0.41915 0.0
C269 C 0.23664 0.16663 0.4455 0.0
C270 C 0.2588 0.21734 0.26189 0.0
C271 C 0.19252 0.18641 0.45594 0.0
C272 C 0.19005 0.26507 0.33836 0.0
C273 C 0.17221 0.25912 0.28113 0.0
C274 C 0.20753 0.24649 0.3647 0.0
C275 C 0.20741 0.22154 0.33198 0.0
C276 C 0.18964 0.21553 0.27342 0.0
C277 C 0.17205 0.23437 0.24914 0.0
C278 C 0.22591 0.25347 0.42812 0.0
C279 C 0.18924 0.18922 0.23652 0.0
H280 H 0.2875 0.1807 0.33061 0.0
H281 H 0.23133 0.15372 0.49135 0.0
H282 H 0.24497 0.21544 0.21405 0.0
H283 H 0.25843 0.23779 0.28052 0.0
H284 H 0.27846 0.21276 0.24073 0.0
H285 H 0.19006 0.17188 0.50175 0.0
H286 H 0.18956 0.20591 0.4805 0.0
H287 H 0.17723 0.18339 0.41271 0.0
H288 H 0.19001 0.28413 0.36377 0.0
H289 H 0.15827 0.22978 0.20475 0.0
H290 H 0.24613 0.25113 0.40864 0.0
H291 H 0.22309 0.24022 0.47695 0.0
H292 H 0.22323 0.27361 0.44821 0.0
H293 H 0.20849 0.18473 0.21238 0.0
H294 H 0.17463 0.18786 0.19045 0.0
H295 H 0.18495 0.17423 0.2797 0.0
C296 C 0.82309 0.23728 0.7456 0.0
C297 C 0.8223 0.26173 0.71185 0.0
C298 C 0.80634 0.21764 0.72134 0.0
C299 C 0.7889 0.22256 0.66105 0.0
C300 C 0.78837 0.24713 0.62614 0.0
C301 C 0.80491 0.2665 0.6525 0.0
C302 C 0.80708 0.19176 0.76061 0.0
C303 C 0.77035 0.25298 0.56084 0.0
C304 C 0.75987 0.16741 0.54812 0.0
C305 C 0.73466 0.16693 0.57665 0.0
C306 C 0.77798 0.18514 0.57613 0.0
C307 C 0.77074 0.20231 0.63498 0.0
C308 C 0.74553 0.20128 0.66563 0.0
C309 C 0.72769 0.18375 0.63548 0.0
C310 C 0.80458 0.18602 0.54128 0.0
C311 C 0.73728 0.21898 0.72935 0.0
H312 H 0.83653 0.23363 0.79159 0.0
H313 H 0.8045 0.28533 0.62569 0.0
H314 H 0.7879 0.1874 0.78551 0.0
H315 H 0.81138 0.17632 0.71884 0.0
H316 H 0.82178 0.19106 0.80655 0.0
H317 H 0.77304 0.2728 0.53818 0.0
H318 H 0.7735 0.23899 0.51399 0.0
H319 H 0.75003 0.25088 0.57962 0.0
H320 H 0.76525 0.15436 0.50266 0.0
H321 H 0.70828 0.1831 0.65837 0.0
H322 H 0.81952 0.18396 0.58603 0.0
H323 H 0.80766 0.20501 0.51365 0.0
H324 H 0.80748 0.17062 0.49818 0.0
H325 H 0.7511 0.21768 0.77738 0.0
H326 H 0.71765 0.21433 0.75068 0.0
H327 H 0.73737 0.23926 0.70925 0.0
C328 C 0.82616 0.7602 0.78816 0.0
C329 C 0.82874 0.73523 0.81736 0.0
C330 C 0.80814 0.77742 0.81923 0.0
C331 C 0.79294 0.76955 0.88194 0.0
C332 C 0.79606 0.74456 0.91288 0.0
C333 C 0.81374 0.72757 0.87957 0.0
C334 C 0.80505 0.80383 0.78418 0.0
C335 C 0.78064 0.73572 0.98088 0.0
C336 C 0.76089 0.82165 0.00019 0.0
C337 C 0.73554 0.82075 0.97266 0.0
C338 C 0.77978 0.80485 0.97182 0.0
C339 C 0.77316 0.78715 0.9137 0.0
C340 C 0.74757 0.7862 0.88573 0.0
C341 C 0.72899 0.80289 0.91607 0.0
C342 C 0.8068 0.80605 0.00386 0.0
C343 C 0.7399 0.76779 0.82307 0.0
H344 H 0.83781 0.76607 0.74003 0.0
H345 H 0.81608 0.70835 0.9029 0.0
H346 H 0.785 0.80625 0.76311 0.0
H347 H 0.8084 0.81898 0.82762 0.0
H348 H 0.81856 0.80704 0.73612 0.0
H349 H 0.7863 0.71611 0.00016 0.0
H350 H 0.78331 0.74938 0.02882 0.0
H351 H 0.75979 0.73555 0.96664 0.0
H352 H 0.76595 0.83542 0.04413 0.0
H353 H 0.70943 0.80234 0.8942 0.0
H354 H 0.82065 0.81114 0.95826 0.0
H355 H 0.81251 0.78684 0.02609 0.0
H356 H 0.80859 0.82044 0.05038 0.0
H357 H 0.7519 0.77133 0.77191 0.0
H358 H 0.71926 0.76974 0.80704 0.0
H359 H 0.74346 0.74761 0.84124 0.0
C360 C 0.19045 0.72795 0.13807 0.0
C361 C 0.17198 0.73426 0.1931 0.0
C362 C 0.20814 0.74643 0.11228 0.0
C363 C 0.20756 0.77161 0.14335 0.0
C364 C 0.18918 0.77797 0.19976 0.0
C365 C 0.17142 0.75924 0.2235 0.0
C366 C 0.22725 0.73909 0.05123 0.0
C367 C 0.18829 0.80453 0.23504 0.0
C368 C 0.26832 0.81178 0.1251 0.0
C369 C 0.26184 0.82829 0.06507 0.0
C370 C 0.25066 0.79347 0.15198 0.0
C371 C 0.22621 0.79133 0.11673 0.0
C372 C 0.21961 0.80792 0.0558 0.0
C373 C 0.23746 0.82646 0.03121 0.0
C374 C 0.25814 0.77651 0.21821 0.0
C375 C 0.19383 0.80592 0.0162 0.0
H376 H 0.19077 0.70868 0.11406 0.0
H377 H 0.1572 0.76412 0.26632 0.0
H378 H 0.22488 0.75193 0.00127 0.0
H379 H 0.24723 0.74172 0.07252 0.0
H380 H 0.22492 0.71877 0.03229 0.0
H381 H 0.17321 0.80614 0.27961 0.0
H382 H 0.20727 0.80926 0.26076 0.0
H383 H 0.18441 0.8192 0.19061 0.0
H384 H 0.2871 0.81343 0.1519 0.0
H385 H 0.23251 0.83922 0.98461 0.0
H386 H 0.25799 0.75597 0.20047 0.0
H387 H 0.24386 0.77861 0.26476 0.0
H388 H 0.27758 0.78125 0.24087 0.0
H389 H 0.19129 0.7862 0.99271 0.0
H390 H 0.19184 0.82007 0.96915 0.0
H391 H 0.178 0.80918 0.05749 0.0
C392 C 0.08889 0.30143 0.58386 0.0
C393 C 0.10867 0.29741 0.53102 0.0
C394 C 0.09436 0.30346 0.66182 0.0
C395 C 0.12016 0.30076 0.68729 0.0
C396 C 0.14007 0.29584 0.63416 0.0
C397 C 0.13411 0.29452 0.55651 0.0
C398 C 0.07268 0.30918 0.71663 0.0
C399 C 0.16771 0.29222 0.65923 0.0
C400 C 0.14006 0.33148 0.87417 0.0
C401 C 0.13877 0.31049 0.92413 0.0
C402 C 0.13376 0.32862 0.7971 0.0
C403 C 0.1265 0.30404 0.76913 0.0
C404 C 0.12546 0.2827 0.81923 0.0
C405 C 0.13135 0.28626 0.89642 0.0
C406 C 0.13457 0.35196 0.7458 0.0
C407 C 0.11829 0.25611 0.79122 0.0
H408 H 0.06927 0.30378 0.56372 0.0
H409 H 0.1493 0.29099 0.51551 0.0
H410 H 0.07167 0.294 0.76095 0.0
H411 H 0.07642 0.32774 0.74608 0.0
H412 H 0.05365 0.31038 0.68774 0.0
H413 H 0.18059 0.28691 0.61126 0.0
H414 H 0.175 0.31029 0.6853 0.0
H415 H 0.16886 0.27692 0.7032 0.0
H416 H 0.14537 0.3503 0.89593 0.0
H417 H 0.1305 0.27004 0.93515 0.0
H418 H 0.1154 0.35495 0.71906 0.0
H419 H 0.14865 0.3488 0.69927 0.0
H420 H 0.14003 0.36981 0.77687 0.0
H421 H 0.09857 0.25637 0.76676 0.0
H422 H 0.11895 0.24145 0.83722 0.0
H423 H 0.13165 0.2501 0.74524 0.0
C424 C 0.69129 0.15563 0.1499 0.0
C425 C 0.68655 0.13617 0.20328 0.0
C426 C 0.69299 0.14988 0.07203 0.0
C427 C 0.6893 0.12414 0.04714 0.0
C428 C 0.68433 0.10446 0.10089 0.0
C429 C 0.68323 0.11068 0.17834 0.0
C430 C 0.6988 0.17128 0.01644 0.0
C431 C 0.67991 0.07686 0.07659 0.0
C432 C 0.66918 0.11286 0.84221 0.0
C433 C 0.69232 0.10441 0.80953 0.0
C434 C 0.6679 0.1193 0.91958 0.0
C435 C 0.69045 0.11772 0.96485 0.0
C436 C 0.71395 0.10949 0.93185 0.0
C437 C 0.71454 0.10271 0.85465 0.0
C438 C 0.64236 0.12749 0.95308 0.0
C439 C 0.73849 0.10799 0.97796 0.0
H440 H 0.69404 0.17528 0.16933 0.0
H441 H 0.67917 0.09566 0.21944 0.0
H442 H 0.71636 0.16649 0.98326 0.0
H443 H 0.68269 0.1733 0.97537 0.0
H444 H 0.70183 0.19013 0.0452 0.0
H445 H 0.67512 0.06418 0.12534 0.0
H446 H 0.66393 0.07589 0.03469 0.0
H447 H 0.69745 0.06921 0.04842 0.0
H448 H 0.652 0.11402 0.80724 0.0
H449 H 0.73254 0.09661 0.82905 0.0
H450 H 0.64404 0.1471 0.97788 0.0
H451 H 0.63691 0.11421 0.99984 0.0
H452 H 0.62662 0.12761 0.91018 0.0
H453 H 0.74273 0.12706 0.00381 0.0
H454 H 0.75532 0.10198 0.94315 0.0
H455 H 0.73609 0.09403 0.02518 0.0
C456 C 0.86822 0.70206 0.07017 0.0
C457 C 0.89305 0.69537 0.04575 0.0
C458 C 0.86189 0.70219 0.1477 0.0
C459 C 0.88072 0.69486 0.20196 0.0
C460 C 0.90593 0.68827 0.17756 0.0
C461 C 0.91187 0.68891 0.09965 0.0
C462 C 0.83501 0.70998 0.17143 0.0
C463 C 0.92642 0.67989 0.23349 0.0
C464 C 0.87093 0.71221 0.41019 0.0
C465 C 0.85994 0.6895 0.43882 0.0
C466 C 0.87763 0.71436 0.33307 0.0
C467 C 0.87369 0.69308 0.28385 0.0
C468 C 0.86283 0.67001 0.31273 0.0
C469 C 0.85589 0.66859 0.38967 0.0
C470 C 0.8888 0.7394 0.30423 0.0
C471 C 0.85886 0.6467 0.26255 0.0
H472 H 0.85382 0.7075 0.02845 0.0
H473 H 0.93103 0.68367 0.08044 0.0
H474 H 0.82505 0.69335 0.19809 0.0
H475 H 0.83596 0.72558 0.21456 0.0
H476 H 0.8232 0.7168 0.12266 0.0
H477 H 0.94521 0.67592 0.20548 0.0
H478 H 0.92936 0.69498 0.27735 0.0
H479 H 0.92003 0.66216 0.2634 0.0
H480 H 0.87401 0.72839 0.44814 0.0
H481 H 0.84789 0.65084 0.41195 0.0
H482 H 0.87685 0.7469 0.25674 0.0
H483 H 0.90849 0.7361 0.28159 0.0
H484 H 0.88988 0.75437 0.34934 0.0
H485 H 0.84556 0.65154 0.21524 0.0
H486 H 0.85076 0.63003 0.29423 0.0
H487 H 0.87749 0.6408 0.23684 0.0
C488 C 0.2947 0.86872 0.33156 0.0
C489 C 0.30084 0.8936 0.3063 0.0
C490 C 0.29527 0.86255 0.40916 0.0
C491 C 0.3027 0.8816 0.46261 0.0
C492 C 0.30868 0.90688 0.43742 0.0
C493 C 0.30738 0.91264 0.35947 0.0
C494 C 0.28814 0.83558 0.43383 0.0
C495 C 0.31713 0.9276 0.4925 0.0
C496 C 0.28694 0.87167 0.67169 0.0
C497 C 0.31005 0.86117 0.69924 0.0
C498 C 0.28417 0.87831 0.59472 0.0
C499 C 0.3052 0.87475 0.54444 0.0
C500 C 0.32865 0.86436 0.57214 0.0
C501 C 0.33072 0.85751 0.64905 0.0
C502 C 0.25875 0.88903 0.56718 0.0
C503 C 0.35169 0.86074 0.52069 0.0
H504 H 0.28923 0.85414 0.29042 0.0
H505 H 0.31224 0.93182 0.33963 0.0
H506 H 0.30511 0.82603 0.46004 0.0
H507 H 0.27275 0.83634 0.47759 0.0
H508 H 0.28132 0.8235 0.38563 0.0
H509 H 0.32046 0.94643 0.46402 0.0
H510 H 0.30237 0.93027 0.53742 0.0
H511 H 0.33524 0.92162 0.52116 0.0
H512 H 0.27091 0.87442 0.71035 0.0
H513 H 0.34878 0.8499 0.67042 0.0
H514 H 0.25112 0.8769 0.52028 0.0
H515 H 0.26158 0.90874 0.54411 0.0
H516 H 0.24409 0.88994 0.61312 0.0
H517 H 0.34675 0.84731 0.47378 0.0
H518 H 0.36871 0.85297 0.5515 0.0
H519 H 0.35708 0.87945 0.49449 0.0
C520 C 0.10638 0.71437 0.90047 0.0
C521 C 0.10734 0.69249 0.94714 0.0
C522 C 0.11274 0.7128 0.82314 0.0
C523 C 0.11988 0.68869 0.79172 0.0
C524 C 0.12058 0.66647 0.83844 0.0
C525 C 0.11449 0.6687 0.91581 0.0
C526 C 0.1121 0.73696 0.77528 0.0
C527 C 0.12757 0.64033 0.80656 0.0
C528 C 0.11272 0.68058 0.57861 0.0
C529 C 0.13832 0.68296 0.55391 0.0
C530 C 0.10649 0.6821 0.65595 0.0
C531 C 0.1263 0.68664 0.7097 0.0
C532 C 0.15218 0.68924 0.68506 0.0
C533 C 0.15792 0.6871 0.60734 0.0
C534 C 0.07872 0.67883 0.68002 0.0
C535 C 0.17375 0.69449 0.74069 0.0
H536 H 0.10124 0.73285 0.92492 0.0
H537 H 0.11502 0.65177 0.95189 0.0
H538 H 0.13131 0.74031 0.74929 0.0
H539 H 0.09808 0.73463 0.72812 0.0
H540 H 0.10667 0.7543 0.80882 0.0
H541 H 0.12698 0.62494 0.85044 0.0
H542 H 0.11403 0.63513 0.76011 0.0
H543 H 0.14722 0.64092 0.78171 0.0
H544 H 0.09758 0.67701 0.53739 0.0
H545 H 0.17766 0.68912 0.58802 0.0
H546 H 0.07126 0.69735 0.70274 0.0
H547 H 0.07719 0.66429 0.72606 0.0
H548 H 0.0662 0.67271 0.63211 0.0
H549 H 0.16973 0.71254 0.77254 0.0
H550 H 0.19276 0.69639 0.71216 0.0
H551 H 0.17493 0.67865 0.78291 0.0
C552 C 0.30782 0.08145 0.12416 0.0
C553 C 0.30152 0.10045 0.17764 0.0
C554 C 0.30888 0.08728 0.04623 0.0
C555 C 0.30289 0.11259 0.02138 0.0
C556 C 0.29574 0.13163 0.07519 0.0
C557 C 0.29542 0.12539 0.15276 0.0
C558 C 0.31704 0.06658 0.99077 0.0
C559 C 0.2886 0.15865 0.05092 0.0
C560 C 0.3301 0.13675 0.83411 0.0
C561 C 0.30921 0.13314 0.7846 0.0
C562 C 0.32838 0.12986 0.91104 0.0
C563 C 0.30503 0.11948 0.93949 0.0
C564 C 0.28378 0.11597 0.88989 0.0
C565 C 0.28622 0.12263 0.81283 0.0
C566 C 0.35165 0.13339 0.96169 0.0
C567 C 0.25845 0.10531 0.91826 0.0
H568 H 0.31262 0.06222 0.14373 0.0
H569 H 0.29012 0.13994 0.19415 0.0
H570 H 0.30205 0.06391 0.94648 0.0
H571 H 0.335 0.07257 0.96137 0.0
H572 H 0.32053 0.04774 0.01907 0.0
H573 H 0.28204 0.17071 0.09942 0.0
H574 H 0.30548 0.16815 0.02418 0.0
H575 H 0.27302 0.15797 0.0077 0.0
H576 H 0.34807 0.14437 0.81216 0.0
H577 H 0.27004 0.11989 0.77464 0.0
H578 H 0.3571 0.11466 0.98768 0.0
H579 H 0.34697 0.14682 0.00879 0.0
H580 H 0.36856 0.14111 0.93031 0.0
H581 H 0.26133 0.08557 0.9411 0.0
H582 H 0.24358 0.10447 0.87284 0.0
H583 H 0.25108 0.11743 0.9655 0.0
C584 C 0.86948 0.32902 0.43431 0.0
C585 C 0.88266 0.30744 0.4627 0.0
C586 C 0.86274 0.33071 0.35731 0.0
C587 C 0.86933 0.31031 0.30754 0.0
C588 C 0.88275 0.28853 0.33566 0.0
C589 C 0.88929 0.28738 0.41296 0.0
C590 C 0.84874 0.3544 0.32912 0.0
C591 C 0.89007 0.26639 0.28417 0.0
C592 C 0.83294 0.30451 0.12082 0.0
C593 C 0.85076 0.31501 0.06969 0.0
C594 C 0.83875 0.30271 0.1986 0.0
C595 C 0.86276 0.31205 0.22559 0.0
C596 C 0.8806 0.32307 0.17424 0.0
C597 C 0.87448 0.32419 0.09682 0.0
C598 C 0.81934 0.29067 0.25178 0.0
C599 C 0.90619 0.33366 0.20098 0.0
H600 H 0.86463 0.34472 0.47232 0.0
H601 H 0.89914 0.27051 0.43476 0.0
H602 H 0.86035 0.3641 0.28454 0.0
H603 H 0.8301 0.34879 0.30281 0.0
H604 H 0.84485 0.36847 0.37538 0.0
H605 H 0.90002 0.25062 0.31528 0.0
H606 H 0.87257 0.25839 0.25649 0.0
H607 H 0.90299 0.27338 0.23833 0.0
H608 H 0.81469 0.29726 0.09966 0.0
H609 H 0.88811 0.33267 0.05739 0.0
H610 H 0.81385 0.30468 0.29664 0.0
H611 H 0.82805 0.27375 0.28063 0.0
H612 H 0.80159 0.28431 0.2217 0.0
H613 H 0.90324 0.3477 0.24778 0.0
H614 H 0.91693 0.34339 0.15453 0.0
H615 H 0.91822 0.31774 0.22375 0.0
C616 C 0.68235 0.87875 0.36271 0.0
C617 C 0.68453 0.85312 0.33797 0.0
C618 C 0.68399 0.885 0.44005 0.0
C619 C 0.68835 0.86518 0.49382 0.0
C620 C 0.69078 0.83928 0.46914 0.0
C621 C 0.68858 0.83352 0.3914 0.0
C622 C 0.6809 0.9128 0.46419 0.0
C623 C 0.69584 0.81769 0.52478 0.0
C624 C 0.71558 0.88509 0.68542 0.0
C625 C 0.69354 0.88424 0.73144 0.0
C626 C 0.71423 0.87864 0.60806 0.0
C627 C 0.69019 0.8716 0.57594 0.0
C628 C 0.66782 0.87101 0.62205 0.0
C629 C 0.66983 0.87712 0.69949 0.0
C630 C 0.73856 0.8791 0.56092 0.0
C631 C 0.64175 0.86411 0.58948 0.0
H632 H 0.67883 0.89389 0.32155 0.0
H633 H 0.69046 0.81376 0.37209 0.0
H634 H 0.66537 0.9145 0.50725 0.0
H635 H 0.699 0.91977 0.49091 0.0
H636 H 0.67619 0.92559 0.41559 0.0
H637 H 0.69778 0.79868 0.49619 0.0
H638 H 0.7138 0.82167 0.55711 0.0
H639 H 0.67988 0.81652 0.56658 0.0
H640 H 0.73399 0.8902 0.71043 0.0
H641 H 0.6528 0.87666 0.73514 0.0
H642 H 0.73647 0.89307 0.51358 0.0
H643 H 0.7419 0.85984 0.53519 0.0
H644 H 0.75581 0.88449 0.59495 0.0
H645 H 0.63677 0.8776 0.54277 0.0
H646 H 0.62622 0.86483 0.63291 0.0
H647 H 0.64233 0.84442 0.56482 0.0
C648 C 0.01997 0.31885 0.16908 0.0
C649 C 0.04514 0.31579 0.14193 0.0
C650 C -0.001 0.31985 0.1188 0.0
C651 C 0.00346 0.31844 0.03947 0.0
C652 C 0.02885 0.31498 0.01176 0.0
C653 C 0.04939 0.31342 0.06349 0.0
C654 C 0.97217 0.32316 0.15057 0.0
C655 C 0.03445 0.31389 0.92756 0.0
C656 C 0.9456 0.30417 0.91399 0.0
C657 C 0.93726 0.32914 0.89586 0.0
C658 C 0.9675 0.30031 0.95952 0.0
C659 C 0.98162 0.32193 0.98582 0.0
C660 C 0.97393 0.34712 0.96456 0.0
C661 C 0.95162 0.35043 0.92057 0.0
C662 C 0.9748 0.27321 0.98244 0.0
C663 C 0.98882 0.37063 0.9901 0.0
H664 H 0.01666 0.32055 0.22972 0.0
H665 H 0.06891 0.31133 0.04227 0.0
H666 H 0.96491 0.34268 0.13619 0.0
H667 H 0.95877 0.30893 0.12478 0.0
H668 H 0.97166 0.32089 0.21334 0.0
H669 H 0.05512 0.30998 0.91547 0.0
H670 H 0.02261 0.29869 0.90008 0.0
H671 H 0.02911 0.33253 0.90083 0.0
H672 H 0.93434 0.28769 0.89552 0.0
H673 H 0.94525 0.36975 0.90612 0.0
H674 H 0.9724 0.27097 0.04477 0.0
H675 H 0.99538 0.26945 0.96926 0.0
H676 H 0.9628 0.25842 0.95342 0.0
H677 H 0.98718 0.37281 0.05264 0.0
H678 H 0.98167 0.38861 0.96292 0.0
H679 H 0.0096 0.36835 0.97659 0.0
C680 C 0.664 0.96763 0.11744 0.0
C681 C 0.68027 0.94615 0.12435 0.0
C682 C 0.66378 0.98699 0.17319 0.0
C683 C 0.68019 0.98475 0.23724 0.0
C684 C 0.6969 0.9633 0.24397 0.0
C685 C 0.69682 0.94433 0.18729 0.0
C686 C 0.64526 0.00929 0.16458 0.0
C687 C 0.71469 0.96024 0.31143 0.0
C688 C 0.69638 0.04492 0.34978 0.0
C689 C 0.6794 0.04295 0.41163 0.0
C690 C 0.69674 0.02617 0.29247 0.0
C691 C 0.67992 0.00476 0.29754 0.0
C692 C 0.663 0.00241 0.36028 0.0
C693 C 0.66293 0.02157 0.41666 0.0
C694 C 0.71492 0.02942 0.22609 0.0
C695 C 0.64442 0.98009 0.36686 0.0
H696 H 0.65096 0.96905 0.06942 0.0
H697 H 0.70956 0.92787 0.1929 0.0
H698 H 0.62804 0.00569 0.20046 0.0
H699 H 0.65405 0.02766 0.1838 0.0
H700 H 0.63872 0.01159 0.10481 0.0
H701 H 0.72462 0.94124 0.31174 0.0
H702 H 0.7295 0.97568 0.31047 0.0
H703 H 0.70375 0.96232 0.36526 0.0
H704 H 0.70927 0.06132 0.34552 0.0
H705 H 0.64958 0.02003 0.46381 0.0
H706 H 0.70423 0.02767 0.17165 0.0
H707 H 0.72961 0.01386 0.22713 0.0
H708 H 0.72498 0.04834 0.22706 0.0
H709 H 0.62876 0.98249 0.32445 0.0
H710 H 0.63559 0.97888 0.42426 0.0
H711 H 0.65423 0.96156 0.35429 0.0
C712 C 0.022 0.668 0.32916 0.0
C713 C 0.04487 0.68208 0.33871 0.0
C714 C 0.00257 0.6686 0.38474 0.0
C715 C 0.00627 0.68353 0.4513 0.0
C716 C 0.02892 0.69845 0.45998 0.0
C717 C 0.04784 0.69767 0.40338 0.0
C718 C 0.97853 0.65258 0.37345 0.0
C719 C 0.03343 0.7148 0.52987 0.0
C720 C 0.94918 0.70011 0.57661 0.0
C721 C 0.95156 0.68177 0.6349 0.0
C722 C 0.96666 0.70073 0.51591 0.0
C723 C 0.9871 0.6827 0.51379 0.0
C724 C 0.9898 0.66431 0.57278 0.0
C725 C 0.97199 0.66408 0.63271 0.0
C726 C 0.96313 0.72056 0.45387 0.0
C727 C 0.01121 0.64454 0.57186 0.0
H728 H 0.01951 0.65597 0.27927 0.0
H729 H 0.06526 0.70895 0.41076 0.0
H730 H 0.97821 0.63668 0.41562 0.0
H731 H 0.96103 0.66444 0.38308 0.0
H732 H 0.97748 0.64409 0.31554 0.0
H733 H 0.0528 0.724 0.52997 0.0
H734 H 0.01856 0.73015 0.53306 0.0
H735 H 0.03156 0.70289 0.58195 0.0
H736 H 0.93347 0.71389 0.57788 0.0
H737 H 0.97381 0.64967 0.67703 0.0
H738 H 0.96142 0.71087 0.39785 0.0
H739 H 0.9803 0.73332 0.45128 0.0
H740 H 0.94572 0.7327 0.46283 0.0
H741 H 0.00795 0.63081 0.52441 0.0
H742 H 0.01228 0.63343 0.62576 0.0
H743 H 0.0301 0.65396 0.56185 0.0
C744 C 0.33143 0.97475 0.89758 0.0
C745 C 0.31551 0.95289 0.89712 0.0
C746 C 0.33086 0.99245 0.83722 0.0
C747 C 0.31403 0.98809 0.77505 0.0
C748 C 0.29745 0.96644 0.77521 0.0
C749 C 0.29829 0.9492 0.83642 0.0
C750 C 0.34867 0.01551 0.83914 0.0
C751 C 0.27911 0.96123 0.71018 0.0
C752 C 0.29805 0.04502 0.64859 0.0
C753 C 0.31497 0.04125 0.58728 0.0
C754 C 0.29745 0.02781 0.70988 0.0
C755 C 0.31391 0.00607 0.70944 0.0
C756 C 0.33041 0.00161 0.64662 0.0
C757 C 0.33078 0.01931 0.58626 0.0
C758 C 0.27945 0.03311 0.7756 0.0
C759 C 0.34808 0.97846 0.64401 0.0
H760 H 0.34477 0.97777 0.94423 0.0
H761 H 0.28568 0.93254 0.83588 0.0
H762 H 0.36213 0.01469 0.79017 0.0
H763 H 0.33738 0.0336 0.83371 0.0
H764 H 0.36015 0.01645 0.89243 0.0
H765 H 0.26769 0.94332 0.71871 0.0
H766 H 0.2656 0.97767 0.70351 0.0
H767 H 0.29 0.95941 0.6562 0.0
H768 H 0.28551 0.06173 0.64956 0.0
H769 H 0.34387 0.01622 0.53912 0.0
H770 H 0.29057 0.03457 0.82932 0.0
H771 H 0.2657 0.01686 0.78217 0.0
H772 H 0.2683 0.05123 0.76789 0.0
H773 H 0.36185 0.97926 0.69227 0.0
H774 H 0.35921 0.9774 0.59016 0.0
H775 H 0.33673 0.96043 0.65019 0.0
C776 C 0.1442 0.44141 0.25324 0.0
C777 C 0.12079 0.42797 0.24859 0.0
C778 C 0.1447 0.46847 0.25277 0.0
C779 C 0.1212 0.48233 0.24868 0.0
C780 C 0.09749 0.46882 0.24518 0.0
C781 C 0.09759 0.44177 0.24455 0.0
C782 C 0.17038 0.48222 0.25547 0.0
C783 C 0.07203 0.48295 0.24205 0.0
C784 C 0.12084 0.55197 0.31515 0.0
C785 C 0.12106 0.56547 0.24595 0.0
C786 C 0.12078 0.52493 0.31685 0.0
C787 C 0.1214 0.51099 0.24774 0.0
C788 C 0.12202 0.52441 0.17772 0.0
C789 C 0.12166 0.55149 0.17765 0.0
C790 C 0.11995 0.51127 0.39262 0.0
C791 C 0.12293 0.51017 0.10287 0.0
H792 H 0.16216 0.43071 0.25542 0.0
H793 H 0.07948 0.43133 0.24146 0.0
H794 H 0.17268 0.49442 0.20412 0.0
H795 H 0.17116 0.49522 0.30552 0.0
H796 H 0.18688 0.46858 0.25859 0.0
H797 H 0.05529 0.46956 0.24125 0.0
H798 H 0.07017 0.49592 0.29195 0.0
H799 H 0.07121 0.49522 0.19047 0.0
H800 H 0.12095 0.56254 0.36829 0.0
H801 H 0.12153 0.5617 0.12392 0.0
H802 H 0.13726 0.49888 0.39931 0.0
H803 H 0.10282 0.49846 0.39522 0.0
H804 H 0.11914 0.52495 0.44118 0.0
H805 H 0.13983 0.49704 0.10164 0.0
H806 H 0.12416 0.52348 0.05352 0.0
H807 H 0.10542 0.49806 0.09637 0.0
C808 C 0.55303 0.09485 0.50296 0.0
C809 C 0.56639 0.11832 0.50273 0.0
C810 C 0.526 0.09431 0.50082 0.0
C811 C 0.51214 0.11781 0.49652 0.0
C812 C 0.52562 0.14158 0.4956 0.0
C813 C 0.55265 0.14155 0.4996 0.0
C814 C 0.51227 0.06863 0.5036 0.0
C815 C 0.51152 0.16698 0.48943 0.0
C816 C 0.44373 0.11426 0.42024 0.0
C817 C 0.42909 0.11595 0.48717 0.0
C818 C 0.47077 0.11529 0.42233 0.0
C819 C 0.48352 0.11748 0.49317 0.0
C820 C 0.46896 0.11906 0.56095 0.0
C821 C 0.44194 0.11861 0.55706 0.0
C822 C 0.48569 0.11397 0.34873 0.0
C823 C 0.48191 0.12108 0.63767 0.0
H824 H 0.56378 0.07693 0.50579 0.0
H825 H 0.56312 0.15966 0.49865 0.0
H826 H 0.49882 0.06818 0.55263 0.0
H827 H 0.50055 0.06593 0.45143 0.0
H828 H 0.52589 0.05218 0.50874 0.0
H829 H 0.52491 0.18371 0.48814 0.0
H830 H 0.49962 0.16724 0.43697 0.0
H831 H 0.49819 0.16935 0.53821 0.0
H832 H 0.43409 0.11184 0.36604 0.0
H833 H 0.43092 0.12056 0.60902 0.0
H834 H 0.49801 0.09647 0.34813 0.0
H835 H 0.49868 0.13091 0.34385 0.0
H836 H 0.47284 0.11346 0.29819 0.0
H837 H 0.49506 0.10444 0.64621 0.0
H838 H 0.46779 0.12153 0.68513 0.0
H839 H 0.49384 0.13882 0.64033 0.0
C840 C 0.90034 0.55506 0.73371 0.0
C841 C 0.87759 0.56941 0.72817 0.0
C842 C 0.89967 0.52802 0.73115 0.0
C843 C 0.87572 0.51532 0.72091 0.0
C844 C 0.85276 0.52991 0.71329 0.0
C845 C 0.85395 0.55687 0.718 0.0
C846 C 0.92443 0.51307 0.7412 0.0
C847 C 0.82697 0.51704 0.70069 0.0
C848 C 0.87675 0.44555 0.65514 0.0
C849 C 0.87151 0.43261 0.72315 0.0
C850 C 0.87794 0.4726 0.65326 0.0
C851 C 0.87449 0.48673 0.72144 0.0
C852 C 0.86964 0.47358 0.79046 0.0
C853 C 0.86789 0.44663 0.79025 0.0
C854 C 0.88255 0.48604 0.57839 0.0
C855 C 0.86643 0.48796 0.86455 0.0
H856 H 0.91855 0.565 0.74166 0.0
H857 H 0.83645 0.56823 0.71313 0.0
H858 H 0.923 0.50056 0.7922 0.0
H859 H 0.92768 0.50026 0.69163 0.0
H860 H 0.94145 0.52591 0.74779 0.0
H861 H 0.81124 0.53124 0.69119 0.0
H862 H 0.82799 0.50397 0.65082 0.0
H863 H 0.82194 0.50506 0.75075 0.0
H864 H 0.87944 0.43452 0.60338 0.0
H865 H 0.86407 0.43641 0.84282 0.0
H866 H 0.90038 0.49782 0.58159 0.0
H867 H 0.86636 0.49941 0.56605 0.0
H868 H 0.88444 0.47222 0.53042 0.0
H869 H 0.88365 0.50014 0.87552 0.0
H870 H 0.86367 0.47474 0.91356 0.0
H871 H 0.84953 0.50104 0.86109 0.0
C872 C 0.55159 0.87369 0.08626 0.0
C873 C 0.56633 0.87235 0.01945 0.0
C874 C 0.5246 0.87508 0.08345 0.0
C875 C 0.51196 0.87452 0.0122 0.0
C876 C 0.5266 0.87277 0.94456 0.0
C877 C 0.55362 0.87197 0.94895 0.0
C878 C 0.50962 0.87719 0.15681 0.0
C879 C 0.51373 0.87173 0.86759 0.0
C880 C 0.44173 0.85406 0.01372 0.0
C881 C 0.42912 0.87785 0.00714 0.0
C882 C 0.46873 0.85264 0.01376 0.0
C883 C 0.48337 0.87564 0.00868 0.0
C884 C 0.47068 0.89973 0.00199 0.0
C885 C 0.44363 0.90052 0.00048 0.0
C886 C 0.4816 0.82657 0.01935 0.0
C887 C 0.48565 0.92468 0.99787 0.0
H888 H 0.5611 0.87342 0.1411 0.0
H889 H 0.56478 0.87131 0.89695 0.0
H890 H 0.49723 0.89465 0.15567 0.0
H891 H 0.49669 0.86028 0.16321 0.0
H892 H 0.52242 0.87826 0.20738 0.0
H893 H 0.52786 0.86961 0.82056 0.0
H894 H 0.50004 0.85529 0.86533 0.0
H895 H 0.50238 0.88958 0.85799 0.0
H896 H 0.4304 0.83653 0.01797 0.0
H897 H 0.43377 0.9189 0.99575 0.0
H898 H 0.4933 0.82551 0.07206 0.0
H899 H 0.49494 0.82378 0.97076 0.0
H900 H 0.46742 0.81049 0.01977 0.0
H901 H 0.49762 0.92696 0.04977 0.0
H902 H 0.47284 0.94177 0.99247 0.0
H903 H 0.49899 0.92431 0.94862 0.0
loop_
_geom_bond_atom_site_label_1
_geom_bond_atom_site_label_2
_geom_bond_distance
_geom_bond_site_symmetry_2
_ccdc_geom_bond_type
Co0 N4 2.148 . S
Co0 N10 2.128 . S
Co0 N20 2.194 . S
Co0 O25 2.351 . S
Co0 O26 2.155 . S
Co0 O27 2.096 . S
C1 N4 1.301 . S
C1 N5 1.328 . S
C1 H6 0.930 . S
C2 C3 1.333 . S
C2 N4 1.317 . S
C2 H7 0.930 . S
C3 C2 1.333 . S
C3 N5 1.350 . S
C3 H29 0.931 . S
N4 Co0 2.148 . S
N4 C1 1.301 . S
N4 C2 1.317 . S
N5 C1 1.328 . S
N5 C3 1.350 . S
H6 C1 0.930 . S
H7 C2 0.930 . S
C8 O9 1.224 . S
C8 O27 1.247 . S
O9 C8 1.224 . S
N10 Co0 2.128 . S
N10 C11 1.355 . S
N10 C13 1.311 . S
C11 N10 1.355 . S
C11 C12 1.363 1_554 S
C11 H23 0.929 . S
C12 C11 1.363 1_556 S
C12 N14 1.375 . S
C12 H30 0.931 . S
C13 N10 1.311 . S
C13 N14 1.347 1_554 S
C13 H24 0.929 . S
N14 C12 1.375 . S
N14 C13 1.347 1_556 S
C15 C18 1.365 . S
C15 N20 1.328 . S
C15 H21 0.929 . S
C16 C17 1.362 . S
C16 C19 1.378 . S
C16 H31 0.929 . S
C17 C16 1.362 . S
C17 C18 1.366 . S
C18 C15 1.365 . S
C18 C17 1.366 . S
C18 H32 0.930 . S
C19 C16 1.378 . S
C19 N20 1.315 . S
C19 H22 0.930 . S
N20 Co0 2.194 . S
N20 C15 1.328 . S
N20 C19 1.315 . S
H21 C15 0.929 . S
H22 C19 0.930 . S
H23 C11 0.929 . S
H24 C13 0.929 . S
O25 Co0 2.351 . S
O25 C28 1.244 . S
O26 Co0 2.155 . S
O26 C28 1.240 . S
O27 Co0 2.096 . S
O27 C8 1.247 . S
C28 O25 1.244 . S
C28 O26 1.240 . S
H29 C3 0.931 . S
H30 C12 0.931 . S
H31 C16 0.929 . S
H32 C18 0.930 . S
Co33 N37 2.148 . S
Co33 N43 2.128 . S
Co33 N53 2.194 . S
Co33 O58 2.351 . S
Co33 O59 2.155 . S
Co33 O60 2.096 . S
C34 N37 1.301 . S
C34 N38 1.328 . S
C34 H39 0.930 . S
C35 C36 1.333 . S
C35 N37 1.317 . S
C35 H40 0.930 . S
C36 C35 1.333 . S
C36 N38 1.350 . S
C36 H62 0.931 . S
N37 Co33 2.148 . S
N37 C34 1.301 . S
N37 C35 1.317 . S
N38 C34 1.328 . S
N38 C36 1.350 . S
H39 C34 0.930 . S
H40 C35 0.930 . S
C41 O42 1.224 . S
C41 O60 1.247 . S
O42 C41 1.224 . S
N43 Co33 2.128 . S
N43 C44 1.355 . S
N43 C46 1.311 . S
C44 N43 1.355 . S
C44 C45 1.363 . S
C44 H56 0.929 . S
C45 C44 1.363 . S
C45 N47 1.375 . S
C45 H63 0.931 . S
C46 N43 1.311 . S
C46 N47 1.347 . S
C46 H57 0.929 . S
N47 C45 1.375 . S
N47 C46 1.347 . S
C48 C51 1.365 . S
C48 N53 1.328 . S
C48 H54 0.929 . S
C49 C50 1.362 . S
C49 C52 1.378 . S
C49 H64 0.929 . S
C50 C49 1.362 . S
C50 C51 1.366 . S
C51 C48 1.365 . S
C51 C50 1.366 . S
C51 H65 0.930 . S
C52 C49 1.378 . S
C52 N53 1.315 . S
C52 H55 0.930 . S
N53 Co33 2.194 . S
N53 C48 1.328 . S
N53 C52 1.315 . S
H54 C48 0.929 . S
H55 C52 0.930 . S
H56 C44 0.929 . S
H57 C46 0.929 . S
O58 Co33 2.351 . S
O58 C61 1.244 . S
O59 Co33 2.155 . S
O59 C61 1.240 . S
O60 Co33 2.096 . S
O60 C41 1.247 . S
C61 O58 1.244 . S
C61 O59 1.240 . S
H62 C36 0.931 . S
H63 C45 0.931 . S
H64 C49 0.929 . S
H65 C51 0.930 . S
Co66 N70 2.148 . S
Co66 N76 2.128 . S
Co66 N86 2.194 . S
Co66 O91 2.351 . S
Co66 O92 2.155 . S
Co66 O93 2.096 . S
C67 N70 1.301 . S
C67 N71 1.328 . S
C67 H72 0.930 . S
C68 C69 1.333 . S
C68 N70 1.317 . S
C68 H73 0.930 . S
C69 C68 1.333 . S
C69 N71 1.350 . S
C69 H95 0.931 . S
N70 Co66 2.148 . S
N70 C67 1.301 . S
N70 C68 1.317 . S
N71 C67 1.328 . S
N71 C69 1.350 . S
H72 C67 0.930 . S
H73 C68 0.930 . S
C74 O75 1.224 . S
C74 O93 1.247 . S
O75 C74 1.224 . S
N76 Co66 2.128 . S
N76 C77 1.355 . S
N76 C79 1.311 . S
C77 N76 1.355 . S
C77 C78 1.363 . S
C77 H89 0.929 . S
C78 C77 1.363 . S
C78 N80 1.375 . S
C78 H96 0.931 . S
C79 N76 1.311 . S
C79 N80 1.347 . S
C79 H90 0.929 . S
N80 C78 1.375 . S
N80 C79 1.347 . S
C81 C84 1.365 . S
C81 N86 1.328 . S
C81 H87 0.929 . S
C82 C83 1.362 . S
C82 C85 1.378 . S
C82 H97 0.929 . S
C83 C82 1.362 . S
C83 C84 1.366 . S
C84 C81 1.365 . S
C84 C83 1.366 . S
C84 H98 0.930 . S
C85 C82 1.378 . S
C85 N86 1.315 . S
C85 H88 0.930 . S
N86 Co66 2.194 . S
N86 C81 1.328 . S
N86 C85 1.315 . S
H87 C81 0.929 . S
H88 C85 0.930 . S
H89 C77 0.929 . S
H90 C79 0.929 . S
O91 Co66 2.351 . S
O91 C94 1.244 . S
O92 Co66 2.155 . S
O92 C94 1.240 . S
O93 Co66 2.096 . S
O93 C74 1.247 . S
C94 O91 1.244 . S
C94 O92 1.240 . S
H95 C69 0.931 . S
H96 C78 0.931 . S
H97 C82 0.929 . S
H98 C84 0.930 . S
Co99 N103 2.148 1_556 S
Co99 N109 2.128 . S
Co99 N119 2.194 . S
Co99 O124 2.351 . S
Co99 O125 2.155 . S
Co99 O126 2.096 . S
C100 N103 1.301 . S
C100 N104 1.328 . S
C100 H105 0.930 . S
C101 C102 1.333 . S
C101 N103 1.317 . S
C101 H106 0.930 . S
C102 C101 1.333 . S
C102 N104 1.350 . S
C102 H128 0.931 . S
N103 Co99 2.148 1_554 S
N103 C100 1.301 . S
N103 C101 1.317 . S
N104 C100 1.328 . S
N104 C102 1.350 . S
H105 C100 0.930 . S
H106 C101 0.930 . S
C107 O108 1.224 . S
C107 O126 1.247 . S
O108 C107 1.224 . S
N109 Co99 2.128 . S
N109 C110 1.355 . S
N109 C112 1.311 . S
C110 N109 1.355 . S
C110 C111 1.363 . S
C110 H122 0.929 . S
C111 C110 1.363 . S
C111 N113 1.375 . S
C111 H129 0.931 . S
C112 N109 1.311 . S
C112 N113 1.347 . S
C112 H123 0.929 . S
N113 C111 1.375 . S
N113 C112 1.347 . S
C114 C117 1.365 . S
C114 N119 1.328 . S
C114 H120 0.929 1_556 S
C115 C116 1.362 . S
C115 C118 1.378 . S
C115 H130 0.929 . S
C116 C115 1.362 . S
C116 C117 1.366 . S
C117 C114 1.365 . S
C117 C116 1.366 . S
C117 H131 0.930 1_556 S
C118 C115 1.378 . S
C118 N119 1.315 . S
C118 H121 0.930 . S
N119 Co99 2.194 . S
N119 C114 1.328 . S
N119 C118 1.315 . S
H120 C114 0.929 1_554 S
H121 C118 0.930 . S
H122 C110 0.929 . S
H123 C112 0.929 . S
O124 Co99 2.351 . S
O124 C127 1.244 . S
O125 Co99 2.155 . S
O125 C127 1.240 . S
O126 Co99 2.096 . S
O126 C107 1.247 . S
C127 O124 1.244 . S
C127 O125 1.240 . S
H128 C102 0.931 . S
H129 C111 0.931 . S
H130 C115 0.929 . S
H131 C117 0.930 1_554 S
Co132 N136 2.148 . S
Co132 N142 2.128 . S
Co132 N152 2.194 . S
Co132 O157 2.351 . S
Co132 O158 2.155 . S
Co132 O159 2.096 . S
C133 N136 1.301 . S
C133 N137 1.328 . S
C133 H138 0.930 . S
C134 C135 1.333 . S
C134 N136 1.317 . S
C134 H139 0.930 . S
C135 C134 1.333 . S
C135 N137 1.350 . S
C135 H161 0.931 . S
N136 Co132 2.148 . S
N136 C133 1.301 . S
N136 C134 1.317 . S
N137 C133 1.328 . S
N137 C135 1.350 . S
H138 C133 0.930 . S
H139 C134 0.930 . S
C140 O141 1.224 . S
C140 O159 1.247 . S
O141 C140 1.224 . S
N142 Co132 2.128 . S
N142 C143 1.355 . S
N142 C145 1.311 . S
C143 N142 1.355 . S
C143 C144 1.363 . S
C143 H155 0.929 . S
C144 C143 1.363 . S
C144 N146 1.375 . S
C144 H162 0.931 . S
C145 N142 1.311 . S
C145 N146 1.347 . S
C145 H156 0.929 . S
N146 C144 1.375 . S
N146 C145 1.347 . S
C147 C150 1.365 . S
C147 N152 1.328 . S
C147 H153 0.929 . S
C148 C149 1.362 . S
C148 C151 1.378 . S
C148 H163 0.929 . S
C149 C148 1.362 . S
C149 C150 1.366 . S
C150 C147 1.365 . S
C150 C149 1.366 . S
C150 H164 0.930 . S
C151 C148 1.378 . S
C151 N152 1.315 . S
C151 H154 0.930 . S
N152 Co132 2.194 . S
N152 C147 1.328 . S
N152 C151 1.315 . S
H153 C147 0.929 . S
H154 C151 0.930 . S
H155 C143 0.929 . S
H156 C145 0.929 . S
O157 Co132 2.351 . S
O157 C160 1.244 . S
O158 Co132 2.155 . S
O158 C160 1.240 . S
O159 Co132 2.096 . S
O159 C140 1.247 . S
C160 O157 1.244 . S
C160 O158 1.240 . S
H161 C135 0.931 . S
H162 C144 0.931 . S
H163 C148 0.929 . S
H164 C150 0.930 . S
Co165 N169 2.148 . S
Co165 N175 2.128 . S
Co165 N185 2.194 . S
Co165 O190 2.351 . S
Co165 O191 2.155 . S
Co165 O192 2.096 . S
C166 N169 1.301 . S
C166 N170 1.328 . S
C166 H171 0.930 . S
C167 C168 1.333 . S
C167 N169 1.317 . S
C167 H172 0.930 . S
C168 C167 1.333 . S
C168 N170 1.350 . S
C168 H194 0.931 . S
N169 Co165 2.148 . S
N169 C166 1.301 . S
N169 C167 1.317 . S
N170 C166 1.328 . S
N170 C168 1.350 . S
H171 C166 0.930 . S
H172 C167 0.930 . S
C173 O174 1.224 . S
C173 O192 1.247 . S
O174 C173 1.224 . S
N175 Co165 2.128 . S
N175 C176 1.355 . S
N175 C178 1.311 . S
C176 N175 1.355 . S
C176 C177 1.363 . S
C176 H188 0.929 . S
C177 C176 1.363 . S
C177 N179 1.375 . S
C177 H195 0.931 . S
C178 N175 1.311 . S
C178 N179 1.347 . S
C178 H189 0.929 . S
N179 C177 1.375 . S
N179 C178 1.347 . S
C180 C183 1.365 . S
C180 N185 1.328 . S
C180 H186 0.929 . S
C181 C182 1.362 . S
C181 C184 1.378 . S
C181 H196 0.929 . S
C182 C181 1.362 . S
C182 C183 1.366 . S
C183 C180 1.365 . S
C183 C182 1.366 . S
C183 H197 0.930 . S
C184 C181 1.378 . S
C184 N185 1.315 . S
C184 H187 0.930 . S
N185 Co165 2.194 . S
N185 C180 1.328 . S
N185 C184 1.315 . S
H186 C180 0.929 . S
H187 C184 0.930 . S
H188 C176 0.929 . S
H189 C178 0.929 . S
O190 Co165 2.351 . S
O190 C193 1.244 . S
O191 Co165 2.155 . S
O191 C193 1.240 . S
O192 Co165 2.096 . S
O192 C173 1.247 . S
C193 O190 1.244 . S
C193 O191 1.240 . S
H194 C168 0.931 . S
H195 C177 0.931 . S
H196 C181 0.929 . S
H197 C183 0.930 . S
Co198 N202 2.148 . S
Co198 N208 2.128 . S
Co198 N218 2.194 . S
Co198 O223 2.351 . S
Co198 O224 2.155 . S
Co198 O225 2.096 . S
C199 N202 1.301 . S
C199 N203 1.328 . S
C199 H204 0.930 . S
C200 C201 1.333 . S
C200 N202 1.317 . S
C200 H205 0.930 . S
C201 C200 1.333 . S
C201 N203 1.350 . S
C201 H227 0.931 . S
N202 Co198 2.148 . S
N202 C199 1.301 . S
N202 C200 1.317 . S
N203 C199 1.328 . S
N203 C201 1.350 . S
H204 C199 0.930 . S
H205 C200 0.930 . S
C206 O207 1.224 . S
C206 O225 1.247 . S
O207 C206 1.224 . S
N208 Co198 2.128 . S
N208 C209 1.355 . S
N208 C211 1.311 . S
C209 N208 1.355 . S
C209 C210 1.363 1_556 S
C209 H221 0.929 . S
C210 C209 1.363 1_554 S
C210 N212 1.375 . S
C210 H228 0.931 . S
C211 N208 1.311 . S
C211 N212 1.347 1_556 S
C211 H222 0.929 . S
N212 C210 1.375 . S
N212 C211 1.347 1_554 S
C213 C216 1.365 . S
C213 N218 1.328 . S
C213 H219 0.929 . S
C214 C215 1.362 . S
C214 C217 1.378 . S
C214 H229 0.929 . S
C215 C214 1.362 . S
C215 C216 1.366 . S
C216 C213 1.365 . S
C216 C215 1.366 . S
C216 H230 0.930 . S
C217 C214 1.378 . S
C217 N218 1.315 . S
C217 H220 0.930 . S
N218 Co198 2.194 . S
N218 C213 1.328 . S
N218 C217 1.315 . S
H219 C213 0.929 . S
H220 C217 0.930 . S
H221 C209 0.929 . S
H222 C211 0.929 . S
O223 Co198 2.351 . S
O223 C226 1.244 . S
O224 Co198 2.155 . S
O224 C226 1.240 . S
O225 Co198 2.096 . S
O225 C206 1.247 . S
C226 O223 1.244 . S
C226 O224 1.240 . S
H227 C201 0.931 . S
H228 C210 0.931 . S
H229 C214 0.929 . S
H230 C216 0.930 . S
Co231 N235 2.148 1_554 S
Co231 N241 2.128 . S
Co231 N251 2.194 . S
Co231 O256 2.351 . S
Co231 O257 2.155 . S
Co231 O258 2.096 . S
C232 N235 1.301 . S
C232 N236 1.328 . S
C232 H237 0.930 . S
C233 C234 1.333 . S
C233 N235 1.317 . S
C233 H238 0.930 . S
C234 C233 1.333 . S
C234 N236 1.350 . S
C234 H260 0.931 . S
N235 Co231 2.148 1_556 S
N235 C232 1.301 . S
N235 C233 1.317 . S
N236 C232 1.328 . S
N236 C234 1.350 . S
H237 C232 0.930 . S
H238 C233 0.930 . S
C239 O240 1.224 . S
C239 O258 1.247 . S
O240 C239 1.224 . S
N241 Co231 2.128 . S
N241 C242 1.355 . S
N241 C244 1.311 . S
C242 N241 1.355 . S
C242 C243 1.363 . S
C242 H254 0.929 . S
C243 C242 1.363 . S
C243 N245 1.375 . S
C243 H261 0.931 . S
C244 N241 1.311 . S
C244 N245 1.347 . S
C244 H255 0.929 . S
N245 C243 1.375 . S
N245 C244 1.347 . S
C246 C249 1.365 . S
C246 N251 1.328 . S
C246 H252 0.929 1_554 S
C247 C248 1.362 . S
C247 C250 1.378 . S
C247 H262 0.929 . S
C248 C247 1.362 . S
C248 C249 1.366 . S
C249 C246 1.365 . S
C249 C248 1.366 . S
C249 H263 0.930 1_554 S
C250 C247 1.378 . S
C250 N251 1.315 . S
C250 H253 0.930 . S
N251 Co231 2.194 . S
N251 C246 1.328 . S
N251 C250 1.315 . S
H252 C246 0.929 1_556 S
H253 C250 0.930 . S
H254 C242 0.929 . S
H255 C244 0.929 . S
O256 Co231 2.351 . S
O256 C259 1.244 . S
O257 Co231 2.155 . S
O257 C259 1.240 . S
O258 Co231 2.096 . S
O258 C239 1.247 . S
C259 O256 1.244 . S
C259 O257 1.240 . S
H260 C234 0.931 . S
H261 C243 0.931 . S
H262 C247 0.929 . S
H263 C249 0.930 1_556 S
C264 C265 1.391 . S
C264 C266 1.394 . S
C264 H280 0.931 . S
C265 C264 1.391 . S
C265 C269 1.376 . S
C266 C264 1.394 . S
C266 C267 1.369 . S
C266 C270 1.531 . S
C267 C266 1.369 . S
C267 C268 1.410 . S
C267 C275 1.503 . S
C268 C267 1.410 . S
C268 C269 1.392 . S
C268 C271 1.511 . S
C269 C265 1.376 . S
C269 C268 1.392 . S
C269 H281 0.929 . S
C270 C266 1.531 . S
C270 H282 0.960 . S
C270 H283 0.962 . S
C270 H284 0.960 . S
C271 C268 1.511 . S
C271 H285 0.961 . S
C271 H286 0.961 . S
C271 H287 0.961 . S
C272 C273 1.370 . S
C272 C274 1.363 . S
C272 H288 0.931 . S
C273 C272 1.370 . S
C273 C277 1.408 . S
C274 C272 1.363 . S
C274 C275 1.370 . S
C274 C278 1.524 . S
C275 C267 1.503 . S
C275 C274 1.370 . S
C275 C276 1.403 . S
C276 C275 1.403 . S
C276 C277 1.404 . S
C276 C279 1.539 . S
C277 C273 1.408 . S
C277 C276 1.404 . S
C277 H289 0.930 . S
C278 C274 1.524 . S
C278 H290 0.956 . S
C278 H291 0.961 . S
C278 H292 0.961 . S
C279 C276 1.539 . S
C279 H293 0.958 . S
C279 H294 0.961 . S
C279 H295 0.960 . S
H280 C264 0.931 . S
H281 C269 0.929 . S
H282 C270 0.960 . S
H283 C270 0.962 . S
H284 C270 0.960 . S
H285 C271 0.961 . S
H286 C271 0.961 . S
H287 C271 0.961 . S
H288 C272 0.931 . S
H289 C277 0.930 . S
H290 C278 0.956 . S
H291 C278 0.961 . S
H292 C278 0.961 . S
H293 C279 0.958 . S
H294 C279 0.961 . S
H295 C279 0.960 . S
C296 C297 1.391 . S
C296 C298 1.394 . S
C296 H312 0.931 . S
C297 C296 1.391 . S
C297 C301 1.376 . S
C298 C296 1.394 . S
C298 C299 1.369 . S
C298 C302 1.531 . S
C299 C298 1.369 . S
C299 C300 1.410 . S
C299 C307 1.503 . S
C300 C299 1.410 . S
C300 C301 1.392 . S
C300 C303 1.511 . S
C301 C297 1.376 . S
C301 C300 1.392 . S
C301 H313 0.929 . S
C302 C298 1.531 . S
C302 H314 0.960 . S
C302 H315 0.962 . S
C302 H316 0.960 . S
C303 C300 1.511 . S
C303 H317 0.961 . S
C303 H318 0.961 . S
C303 H319 0.961 . S
C304 C305 1.370 . S
C304 C306 1.363 . S
C304 H320 0.931 . S
C305 C304 1.370 . S
C305 C309 1.408 . S
C306 C304 1.363 . S
C306 C307 1.370 . S
C306 C310 1.524 . S
C307 C299 1.503 . S
C307 C306 1.370 . S
C307 C308 1.403 . S
C308 C307 1.403 . S
C308 C309 1.404 . S
C308 C311 1.539 . S
C309 C305 1.408 . S
C309 C308 1.404 . S
C309 H321 0.930 . S
C310 C306 1.524 . S
C310 H322 0.956 . S
C310 H323 0.961 . S
C310 H324 0.961 . S
C311 C308 1.539 . S
C311 H325 0.958 . S
C311 H326 0.961 . S
C311 H327 0.960 . S
H312 C296 0.931 . S
H313 C301 0.929 . S
H314 C302 0.960 . S
H315 C302 0.962 . S
H316 C302 0.960 . S
H317 C303 0.961 . S
H318 C303 0.961 . S
H319 C303 0.961 . S
H320 C304 0.931 . S
H321 C309 0.930 . S
H322 C310 0.956 . S
H323 C310 0.961 . S
H324 C310 0.961 . S
H325 C311 0.958 . S
H326 C311 0.961 . S
H327 C311 0.960 . S
C328 C329 1.391 . S
C328 C330 1.394 . S
C328 H344 0.931 . S
C329 C328 1.391 . S
C329 C333 1.376 . S
C330 C328 1.394 . S
C330 C331 1.369 . S
C330 C334 1.531 . S
C331 C330 1.369 . S
C331 C332 1.410 . S
C331 C339 1.503 . S
C332 C331 1.410 . S
C332 C333 1.392 . S
C332 C335 1.511 . S
C333 C329 1.376 . S
C333 C332 1.392 . S
C333 H345 0.929 . S
C334 C330 1.531 . S
C334 H346 0.960 . S
C334 H347 0.962 . S
C334 H348 0.960 . S
C335 C332 1.511 . S
C335 H349 0.961 . S
C335 H350 0.961 . S
C335 H351 0.961 1_556 S
C336 C337 1.370 . S
C336 C338 1.363 . S
C336 H352 0.931 . S
C337 C336 1.370 . S
C337 C341 1.408 . S
C338 C336 1.363 . S
C338 C339 1.370 . S
C338 C342 1.524 . S
C339 C331 1.503 . S
C339 C338 1.370 . S
C339 C340 1.403 . S
C340 C339 1.403 . S
C340 C341 1.404 . S
C340 C343 1.539 . S
C341 C337 1.408 . S
C341 C340 1.404 . S
C341 H353 0.930 1_556 S
C342 C338 1.524 . S
C342 H354 0.956 . S
C342 H355 0.961 . S
C342 H356 0.961 . S
C343 C340 1.539 . S
C343 H357 0.958 . S
C343 H358 0.961 1_556 S
C343 H359 0.960 . S
H344 C328 0.931 . S
H345 C333 0.929 . S
H346 C334 0.960 . S
H347 C334 0.962 . S
H348 C334 0.960 . S
H349 C335 0.961 . S
H350 C335 0.961 . S
H351 C335 0.961 1_554 S
H352 C336 0.931 . S
H353 C341 0.930 1_554 S
H354 C342 0.956 . S
H355 C342 0.961 . S
H356 C342 0.961 . S
H357 C343 0.958 . S
H358 C343 0.961 1_554 S
H359 C343 0.960 . S
C360 C361 1.391 . S
C360 C362 1.394 . S
C360 H376 0.931 . S
C361 C360 1.391 . S
C361 C365 1.376 . S
C362 C360 1.394 . S
C362 C363 1.369 . S
C362 C366 1.531 . S
C363 C362 1.369 . S
C363 C364 1.410 . S
C363 C371 1.503 . S
C364 C363 1.410 . S
C364 C365 1.392 . S
C364 C367 1.511 . S
C365 C361 1.376 . S
C365 C364 1.392 . S
C365 H377 0.929 . S
C366 C362 1.531 . S
C366 H378 0.960 . S
C366 H379 0.962 . S
C366 H380 0.960 . S
C367 C364 1.511 . S
C367 H381 0.961 . S
C367 H382 0.961 . S
C367 H383 0.961 . S
C368 C369 1.370 . S
C368 C370 1.363 . S
C368 H384 0.931 . S
C369 C368 1.370 . S
C369 C373 1.408 1_554 S
C370 C368 1.363 . S
C370 C371 1.370 . S
C370 C374 1.524 . S
C371 C363 1.503 . S
C371 C370 1.370 . S
C371 C372 1.403 . S
C372 C371 1.403 . S
C372 C373 1.404 1_554 S
C372 C375 1.539 1_554 S
C373 C369 1.408 1_556 S
C373 C372 1.404 1_556 S
C373 H385 0.930 . S
C374 C370 1.524 . S
C374 H386 0.956 . S
C374 H387 0.961 . S
C374 H388 0.961 . S
C375 C372 1.539 1_556 S
C375 H389 0.958 . S
C375 H390 0.961 . S
C375 H391 0.960 1_556 S
H376 C360 0.931 . S
H377 C365 0.929 . S
H378 C366 0.960 . S
H379 C366 0.962 . S
H380 C366 0.960 . S
H381 C367 0.961 . S
H382 C367 0.961 . S
H383 C367 0.961 . S
H384 C368 0.931 . S
H385 C373 0.930 . S
H386 C374 0.956 . S
H387 C374 0.961 . S
H388 C374 0.961 . S
H389 C375 0.958 . S
H390 C375 0.961 . S
H391 C375 0.960 1_554 S
C392 C393 1.391 . S
C392 C394 1.394 . S
C392 H408 0.931 . S
C393 C392 1.391 . S
C393 C397 1.376 . S
C394 C392 1.394 . S
C394 C395 1.369 . S
C394 C398 1.531 . S
C395 C394 1.369 . S
C395 C396 1.410 . S
C395 C403 1.503 . S
C396 C395 1.410 . S
C396 C397 1.392 . S
C396 C399 1.511 . S
C397 C393 1.376 . S
C397 C396 1.392 . S
C397 H409 0.929 . S
C398 C394 1.531 . S
C398 H410 0.960 . S
C398 H411 0.962 . S
C398 H412 0.960 . S
C399 C396 1.511 . S
C399 H413 0.961 . S
C399 H414 0.961 . S
C399 H415 0.961 . S
C400 C401 1.370 . S
C400 C402 1.363 . S
C400 H416 0.931 . S
C401 C400 1.370 . S
C401 C405 1.408 . S
C402 C400 1.363 . S
C402 C403 1.370 . S
C402 C406 1.524 . S
C403 C395 1.503 . S
C403 C402 1.370 . S
C403 C404 1.403 . S
C404 C403 1.403 . S
C404 C405 1.404 . S
C404 C407 1.539 . S
C405 C401 1.408 . S
C405 C404 1.404 . S
C405 H417 0.930 . S
C406 C402 1.524 . S
C406 H418 0.956 . S
C406 H419 0.961 . S
C406 H420 0.961 . S
C407 C404 1.539 . S
C407 H421 0.958 . S
C407 H422 0.961 . S
C407 H423 0.960 . S
H408 C392 0.931 . S
H409 C397 0.929 . S
H410 C398 0.960 . S
H411 C398 0.962 . S
H412 C398 0.960 . S
H413 C399 0.961 . S
H414 C399 0.961 . S
H415 C399 0.961 . S
H416 C400 0.931 . S
H417 C405 0.930 . S
H418 C406 0.956 . S
H419 C406 0.961 . S
H420 C406 0.961 . S
H421 C407 0.958 . S
H422 C407 0.961 . S
H423 C407 0.960 . S
C424 C425 1.391 . S
C424 C426 1.394 . S
C424 H440 0.931 . S
C425 C424 1.391 . S
C425 C429 1.376 . S
C426 C424 1.394 . S
C426 C427 1.369 1_554 S
C426 C430 1.531 1_554 S
C427 C426 1.369 1_556 S
C427 C428 1.410 1_556 S
C427 C435 1.503 . S
C428 C427 1.410 1_554 S
C428 C429 1.392 . S
C428 C431 1.511 . S
C429 C425 1.376 . S
C429 C428 1.392 . S
C429 H441 0.929 . S
C430 C426 1.531 1_556 S
C430 H442 0.960 . S
C430 H443 0.962 . S
C430 H444 0.955 1_556 S
C431 C428 1.511 . S
C431 H445 0.961 . S
C431 H446 0.961 1_554 S
C431 H447 0.961 . S
C432 C433 1.370 . S
C432 C434 1.363 . S
C432 H448 0.931 . S
C433 C432 1.370 . S
C433 C437 1.408 . S
C434 C432 1.363 . S
C434 C435 1.370 . S
C434 C438 1.524 . S
C435 C427 1.503 . S
C435 C434 1.370 . S
C435 C436 1.403 . S
C436 C435 1.403 . S
C436 C437 1.404 . S
C436 C439 1.539 . S
C437 C433 1.408 . S
C437 C436 1.404 . S
C437 H449 0.930 . S
C438 C434 1.524 . S
C438 H450 0.956 . S
C438 H451 0.961 . S
C438 H452 0.961 . S
C439 C436 1.539 . S
C439 H453 0.958 . S
C439 H454 0.961 . S
C439 H455 0.960 . S
H440 C424 0.931 . S
H441 C429 0.929 . S
H442 C430 0.960 . S
H443 C430 0.962 . S
H444 C430 0.955 1_554 S
H445 C431 0.961 . S
H446 C431 0.961 1_556 S
H447 C431 0.961 . S
H448 C432 0.931 . S
H449 C437 0.930 . S
H450 C438 0.956 . S
H451 C438 0.961 . S
H452 C438 0.961 . S
H453 C439 0.958 . S
H454 C439 0.961 . S
H455 C439 0.960 . S
C456 C457 1.391 . S
C456 C458 1.394 . S
C456 H472 0.931 1_554 S
C457 C456 1.391 . S
C457 C461 1.376 . S
C458 C456 1.394 . S
C458 C459 1.369 . S
C458 C462 1.531 . S
C459 C458 1.369 . S
C459 C460 1.410 . S
C459 C467 1.503 . S
C460 C459 1.410 . S
C460 C461 1.392 . S
C460 C463 1.511 . S
C461 C457 1.376 . S
C461 C460 1.392 . S
C461 H473 0.929 . S
C462 C458 1.531 . S
C462 H474 0.960 . S
C462 H475 0.962 . S
C462 H476 0.960 . S
C463 C460 1.511 . S
C463 H477 0.961 . S
C463 H478 0.961 . S
C463 H479 0.961 . S
C464 C465 1.370 . S
C464 C466 1.363 . S
C464 H480 0.931 . S
C465 C464 1.370 . S
C465 C469 1.408 . S
C466 C464 1.363 . S
C466 C467 1.370 . S
C466 C470 1.524 . S
C467 C459 1.503 . S
C467 C466 1.370 . S
C467 C468 1.403 . S
C468 C467 1.403 . S
C468 C469 1.404 . S
C468 C471 1.539 . S
C469 C465 1.408 . S
C469 C468 1.404 . S
C469 H481 0.930 . S
C470 C466 1.524 . S
C470 H482 0.956 . S
C470 H483 0.961 . S
C470 H484 0.961 . S
C471 C468 1.539 . S
C471 H485 0.958 . S
C471 H486 0.961 . S
C471 H487 0.960 . S
H472 C456 0.931 1_556 S
H473 C461 0.929 . S
H474 C462 0.960 . S
H475 C462 0.962 . S
H476 C462 0.960 . S
H477 C463 0.961 . S
H478 C463 0.961 . S
H479 C463 0.961 . S
H480 C464 0.931 . S
H481 C469 0.930 . S
H482 C470 0.956 . S
H483 C470 0.961 . S
H484 C470 0.961 . S
H485 C471 0.958 . S
H486 C471 0.961 . S
H487 C471 0.960 . S
C488 C489 1.391 . S
C488 C490 1.394 . S
C488 H504 0.931 . S
C489 C488 1.391 . S
C489 C493 1.376 . S
C490 C488 1.394 . S
C490 C491 1.369 . S
C490 C494 1.531 . S
C491 C490 1.369 . S
C491 C492 1.410 . S
C491 C499 1.503 . S
C492 C491 1.410 . S
C492 C493 1.392 . S
C492 C495 1.511 . S
C493 C489 1.376 . S
C493 C492 1.392 . S
C493 H505 0.929 . S
C494 C490 1.531 . S
C494 H506 0.960 . S
C494 H507 0.962 . S
C494 H508 0.960 . S
C495 C492 1.511 . S
C495 H509 0.961 . S
C495 H510 0.961 . S
C495 H511 0.961 . S
C496 C497 1.370 . S
C496 C498 1.363 . S
C496 H512 0.931 . S
C497 C496 1.370 . S
C497 C501 1.408 . S
C498 C496 1.363 . S
C498 C499 1.370 . S
C498 C502 1.524 . S
C499 C491 1.503 . S
C499 C498 1.370 . S
C499 C500 1.403 . S
C500 C499 1.403 . S
C500 C501 1.404 . S
C500 C503 1.539 . S
C501 C497 1.408 . S
C501 C500 1.404 . S
C501 H513 0.930 . S
C502 C498 1.524 . S
C502 H514 0.956 . S
C502 H515 0.961 . S
C502 H516 0.961 . S
C503 C500 1.539 . S
C503 H517 0.958 . S
C503 H518 0.961 . S
C503 H519 0.960 . S
H504 C488 0.931 . S
H505 C493 0.929 . S
H506 C494 0.960 . S
H507 C494 0.962 . S
H508 C494 0.960 . S
H509 C495 0.961 . S
H510 C495 0.961 . S
H511 C495 0.961 . S
H512 C496 0.931 . S
H513 C501 0.930 . S
H514 C502 0.956 . S
H515 C502 0.961 . S
H516 C502 0.961 . S
H517 C503 0.958 . S
H518 C503 0.961 . S
H519 C503 0.960 . S
C520 C521 1.391 . S
C520 C522 1.394 . S
C520 H536 0.931 . S
C521 C520 1.391 . S
C521 C525 1.376 . S
C522 C520 1.394 . S
C522 C523 1.369 . S
C522 C526 1.531 . S
C523 C522 1.369 . S
C523 C524 1.410 . S
C523 C531 1.503 . S
C524 C523 1.410 . S
C524 C525 1.392 . S
C524 C527 1.511 . S
C525 C521 1.376 . S
C525 C524 1.392 . S
C525 H537 0.929 1_556 S
C526 C522 1.531 . S
C526 H538 0.960 . S
C526 H539 0.962 . S
C526 H540 0.960 . S
C527 C524 1.511 . S
C527 H541 0.961 . S
C527 H542 0.961 . S
C527 H543 0.961 . S
C528 C529 1.370 . S
C528 C530 1.363 . S
C528 H544 0.931 . S
C529 C528 1.370 . S
C529 C533 1.408 . S
C530 C528 1.363 . S
C530 C531 1.370 . S
C530 C534 1.524 . S
C531 C523 1.503 . S
C531 C530 1.370 . S
C531 C532 1.403 . S
C532 C531 1.403 . S
C532 C533 1.404 . S
C532 C535 1.539 . S
C533 C529 1.408 . S
C533 C532 1.404 . S
C533 H545 0.930 . S
C534 C530 1.524 . S
C534 H546 0.956 . S
C534 H547 0.961 . S
C534 H548 0.961 . S
C535 C532 1.539 . S
C535 H549 0.958 . S
C535 H550 0.961 . S
C535 H551 0.960 . S
H536 C520 0.931 . S
H537 C525 0.929 1_554 S
H538 C526 0.960 . S
H539 C526 0.962 . S
H540 C526 0.960 . S
H541 C527 0.961 . S
H542 C527 0.961 . S
H543 C527 0.961 . S
H544 C528 0.931 . S
H545 C533 0.930 . S
H546 C534 0.956 . S
H547 C534 0.961 . S
H548 C534 0.961 . S
H549 C535 0.958 . S
H550 C535 0.961 . S
H551 C535 0.960 . S
C552 C553 1.391 . S
C552 C554 1.394 . S
C552 H568 0.931 . S
C553 C552 1.391 . S
C553 C557 1.376 . S
C554 C552 1.394 . S
C554 C555 1.369 . S
C554 C558 1.531 . S
C555 C554 1.369 . S
C555 C556 1.410 . S
C555 C563 1.503 . S
C556 C555 1.410 . S
C556 C557 1.392 . S
C556 C559 1.511 . S
C557 C553 1.376 . S
C557 C556 1.392 . S
C557 H569 0.929 . S
C558 C554 1.531 . S
C558 H570 0.960 . S
C558 H571 0.962 . S
C558 H572 0.960 . S
C559 C556 1.511 . S
C559 H573 0.961 . S
C559 H574 0.961 . S
C559 H575 0.961 . S
C560 C561 1.370 . S
C560 C562 1.363 . S
C560 H576 0.931 . S
C561 C560 1.370 . S
C561 C565 1.408 . S
C562 C560 1.363 . S
C562 C563 1.370 1_556 S
C562 C566 1.524 1_556 S
C563 C555 1.503 . S
C563 C562 1.370 1_554 S
C563 C564 1.403 1_554 S
C564 C563 1.403 1_556 S
C564 C565 1.404 . S
C564 C567 1.539 . S
C565 C561 1.408 . S
C565 C564 1.404 . S
C565 H577 0.930 . S
C566 C562 1.524 1_554 S
C566 H578 0.956 . S
C566 H579 0.961 . S
C566 H580 0.961 . S
C567 C564 1.539 . S
C567 H581 0.958 . S
C567 H582 0.961 . S
C567 H583 0.960 1_556 S
H568 C552 0.931 . S
H569 C557 0.929 . S
H570 C558 0.960 . S
H571 C558 0.962 . S
H572 C558 0.960 . S
H573 C559 0.961 . S
H574 C559 0.961 . S
H575 C559 0.961 . S
H576 C560 0.931 . S
H577 C565 0.930 . S
H578 C566 0.956 . S
H579 C566 0.961 . S
H580 C566 0.961 . S
H581 C567 0.958 . S
H582 C567 0.961 . S
H583 C567 0.960 1_554 S
C584 C585 1.391 . S
C584 C586 1.394 . S
C584 H600 0.931 . S
C585 C584 1.391 . S
C585 C589 1.376 . S
C586 C584 1.394 . S
C586 C587 1.369 . S
C586 C590 1.531 . S
C587 C586 1.369 . S
C587 C588 1.410 . S
C587 C595 1.503 . S
C588 C587 1.410 . S
C588 C589 1.392 . S
C588 C591 1.511 . S
C589 C585 1.376 . S
C589 C588 1.392 . S
C589 H601 0.929 . S
C590 C586 1.531 . S
C590 H602 0.960 . S
C590 H603 0.962 . S
C590 H604 0.960 . S
C591 C588 1.511 . S
C591 H605 0.961 . S
C591 H606 0.961 . S
C591 H607 0.961 . S
C592 C593 1.370 . S
C592 C594 1.363 . S
C592 H608 0.931 . S
C593 C592 1.370 . S
C593 C597 1.408 . S
C594 C592 1.363 . S
C594 C595 1.370 . S
C594 C598 1.524 . S
C595 C587 1.503 . S
C595 C594 1.370 . S
C595 C596 1.403 . S
C596 C595 1.403 . S
C596 C597 1.404 . S
C596 C599 1.539 . S
C597 C593 1.408 . S
C597 C596 1.404 . S
C597 H609 0.930 . S
C598 C594 1.524 . S
C598 H610 0.956 . S
C598 H611 0.961 . S
C598 H612 0.961 . S
C599 C596 1.539 . S
C599 H613 0.958 . S
C599 H614 0.961 . S
C599 H615 0.960 . S
H600 C584 0.931 . S
H601 C589 0.929 . S
H602 C590 0.960 . S
H603 C590 0.962 . S
H604 C590 0.960 . S
H605 C591 0.961 . S
H606 C591 0.961 . S
H607 C591 0.961 . S
H608 C592 0.931 . S
H609 C597 0.930 . S
H610 C598 0.956 . S
H611 C598 0.961 . S
H612 C598 0.961 . S
H613 C599 0.958 . S
H614 C599 0.961 . S
H615 C599 0.960 . S
C616 C617 1.391 . S
C616 C618 1.394 . S
C616 H632 0.931 . S
C617 C616 1.391 . S
C617 C621 1.376 . S
C618 C616 1.394 . S
C618 C619 1.369 . S
C618 C622 1.531 . S
C619 C618 1.369 . S
C619 C620 1.410 . S
C619 C627 1.503 . S
C620 C619 1.410 . S
C620 C621 1.392 . S
C620 C623 1.511 . S
C621 C617 1.376 . S
C621 C620 1.392 . S
C621 H633 0.929 . S
C622 C618 1.531 . S
C622 H634 0.960 . S
C622 H635 0.962 . S
C622 H636 0.960 . S
C623 C620 1.511 . S
C623 H637 0.961 . S
C623 H638 0.961 . S
C623 H639 0.961 . S
C624 C625 1.370 . S
C624 C626 1.363 . S
C624 H640 0.931 . S
C625 C624 1.370 . S
C625 C629 1.408 . S
C626 C624 1.363 . S
C626 C627 1.370 . S
C626 C630 1.524 . S
C627 C619 1.503 . S
C627 C626 1.370 . S
C627 C628 1.403 . S
C628 C627 1.403 . S
C628 C629 1.404 . S
C628 C631 1.539 . S
C629 C625 1.408 . S
C629 C628 1.404 . S
C629 H641 0.930 . S
C630 C626 1.524 . S
C630 H642 0.956 . S
C630 H643 0.961 . S
C630 H644 0.961 . S
C631 C628 1.539 . S
C631 H645 0.958 . S
C631 H646 0.961 . S
C631 H647 0.960 . S
H632 C616 0.931 . S
H633 C621 0.929 . S
H634 C622 0.960 . S
H635 C622 0.962 . S
H636 C622 0.960 . S
H637 C623 0.961 . S
H638 C623 0.961 . S
H639 C623 0.961 . S
H640 C624 0.931 . S
H641 C629 0.930 . S
H642 C630 0.956 . S
H643 C630 0.961 . S
H644 C630 0.961 . S
H645 C631 0.958 . S
H646 C631 0.961 . S
H647 C631 0.960 . S
C648 C649 1.391 . S
C648 C650 1.394 . S
C648 H664 0.931 . S
C649 C648 1.391 . S
C649 C653 1.376 . S
C650 C648 1.394 . S
C650 C651 1.369 . S
C650 C654 1.531 1_455 S
C651 C650 1.369 . S
C651 C652 1.410 1_554 S
C651 C659 1.503 1_454 S
C652 C651 1.410 1_556 S
C652 C653 1.392 1_556 S
C652 C655 1.511 . S
C653 C649 1.376 . S
C653 C652 1.392 1_554 S
C653 H665 0.929 . S
C654 C650 1.531 1_655 S
C654 H666 0.960 . S
C654 H667 0.962 . S
C654 H668 0.960 . S
C655 C652 1.511 . S
C655 H669 0.961 . S
C655 H670 0.961 . S
C655 H671 0.961 . S
C656 C657 1.370 . S
C656 C658 1.363 . S
C656 H672 0.931 . S
C657 C656 1.370 . S
C657 C661 1.408 . S
C658 C656 1.363 . S
C658 C659 1.370 . S
C658 C662 1.524 . S
C659 C651 1.503 1_656 S
C659 C658 1.370 . S
C659 C660 1.403 . S
C660 C659 1.403 . S
C660 C661 1.404 . S
C660 C663 1.539 . S
C661 C657 1.408 . S
C661 C660 1.404 . S
C661 H673 0.930 . S
C662 C658 1.524 . S
C662 H674 0.956 1_556 S
C662 H675 0.961 1_655 S
C662 H676 0.961 . S
C663 C660 1.539 . S
C663 H677 0.958 . S
C663 H678 0.961 . S
C663 H679 0.960 1_655 S
H664 C648 0.931 . S
H665 C653 0.929 . S
H666 C654 0.960 . S
H667 C654 0.962 . S
H668 C654 0.960 . S
H669 C655 0.961 . S
H670 C655 0.961 . S
H671 C655 0.961 . S
H672 C656 0.931 . S
H673 C661 0.930 . S
H674 C662 0.956 1_554 S
H675 C662 0.961 1_455 S
H676 C662 0.961 . S
H677 C663 0.958 . S
H678 C663 0.961 . S
H679 C663 0.960 1_455 S
C680 C681 1.391 . S
C680 C682 1.394 . S
C680 H696 0.931 . S
C681 C680 1.391 . S
C681 C685 1.376 . S
C682 C680 1.394 . S
C682 C683 1.369 . S
C682 C686 1.531 . S
C683 C682 1.369 . S
C683 C684 1.410 . S
C683 C691 1.503 1_565 S
C684 C683 1.410 . S
C684 C685 1.392 . S
C684 C687 1.511 . S
C685 C681 1.376 . S
C685 C684 1.392 . S
C685 H697 0.929 . S
C686 C682 1.531 . S
C686 H698 0.960 . S
C686 H699 0.962 . S
C686 H700 0.960 . S
C687 C684 1.511 . S
C687 H701 0.961 . S
C687 H702 0.961 1_565 S
C687 H703 0.961 . S
C688 C689 1.370 . S
C688 C690 1.363 . S
C688 H704 0.931 . S
C689 C688 1.370 . S
C689 C693 1.408 . S
C690 C688 1.363 . S
C690 C691 1.370 . S
C690 C694 1.524 . S
C691 C683 1.503 1_545 S
C691 C690 1.370 . S
C691 C692 1.403 . S
C692 C691 1.403 . S
C692 C693 1.404 . S
C692 C695 1.539 1_545 S
C693 C689 1.408 . S
C693 C692 1.404 . S
C693 H705 0.930 . S
C694 C690 1.524 . S
C694 H706 0.956 . S
C694 H707 0.961 . S
C694 H708 0.961 . S
C695 C692 1.539 1_565 S
C695 H709 0.958 . S
C695 H710 0.961 . S
C695 H711 0.960 . S
H696 C680 0.931 . S
H697 C685 0.929 . S
H698 C686 0.960 . S
H699 C686 0.962 . S
H700 C686 0.960 . S
H701 C687 0.961 . S
H702 C687 0.961 1_545 S
H703 C687 0.961 . S
H704 C688 0.931 . S
H705 C693 0.930 . S
H706 C694 0.956 . S
H707 C694 0.961 . S
H708 C694 0.961 . S
H709 C695 0.958 . S
H710 C695 0.961 . S
H711 C695 0.960 . S
C712 C713 1.391 . S
C712 C714 1.394 . S
C712 H728 0.931 . S
C713 C712 1.391 . S
C713 C717 1.376 . S
C714 C712 1.394 . S
C714 C715 1.369 . S
C714 C718 1.531 . S
C715 C714 1.369 . S
C715 C716 1.410 . S
C715 C723 1.503 1_455 S
C716 C715 1.410 . S
C716 C717 1.392 . S
C716 C719 1.511 . S
C717 C713 1.376 . S
C717 C716 1.392 . S
C717 H729 0.929 . S
C718 C714 1.531 . S
C718 H730 0.960 . S
C718 H731 0.962 . S
C718 H732 0.960 . S
C719 C716 1.511 . S
C719 H733 0.961 . S
C719 H734 0.961 1_455 S
C719 H735 0.961 . S
C720 C721 1.370 . S
C720 C722 1.363 . S
C720 H736 0.931 . S
C721 C720 1.370 . S
C721 C725 1.408 . S
C722 C720 1.363 . S
C722 C723 1.370 . S
C722 C726 1.524 . S
C723 C715 1.503 1_655 S
C723 C722 1.370 . S
C723 C724 1.403 . S
C724 C723 1.403 . S
C724 C725 1.404 . S
C724 C727 1.539 1_655 S
C725 C721 1.408 . S
C725 C724 1.404 . S
C725 H737 0.930 . S
C726 C722 1.524 . S
C726 H738 0.956 . S
C726 H739 0.961 . S
C726 H740 0.961 . S
C727 C724 1.539 1_455 S
C727 H741 0.958 . S
C727 H742 0.961 . S
C727 H743 0.960 . S
H728 C712 0.931 . S
H729 C717 0.929 . S
H730 C718 0.960 . S
H731 C718 0.962 . S
H732 C718 0.960 . S
H733 C719 0.961 . S
H734 C719 0.961 1_655 S
H735 C719 0.961 . S
H736 C720 0.931 . S
H737 C725 0.930 . S
H738 C726 0.956 . S
H739 C726 0.961 . S
H740 C726 0.961 . S
H741 C727 0.958 . S
H742 C727 0.961 . S
H743 C727 0.960 . S
C744 C745 1.391 . S
C744 C746 1.394 . S
C744 H760 0.931 . S
C745 C744 1.391 . S
C745 C749 1.376 . S
C746 C744 1.394 . S
C746 C747 1.369 . S
C746 C750 1.531 . S
C747 C746 1.369 . S
C747 C748 1.410 . S
C747 C755 1.503 1_565 S
C748 C747 1.410 . S
C748 C749 1.392 . S
C748 C751 1.528 . S
C749 C745 1.376 . S
C749 C748 1.392 . S
C749 H761 0.929 . S
C750 C746 1.531 . S
C750 H762 0.960 . S
C750 H763 0.962 . S
C750 H764 0.960 . S
C751 C748 1.528 . S
C751 H765 0.962 . S
C751 H766 0.936 1_565 S
C751 H767 0.968 . S
C752 C753 1.370 . S
C752 C754 1.363 . S
C752 H768 0.931 . S
C753 C752 1.370 . S
C753 C757 1.408 . S
C754 C752 1.363 . S
C754 C755 1.370 . S
C754 C758 1.524 . S
C755 C747 1.503 1_545 S
C755 C754 1.370 . S
C755 C756 1.403 . S
C756 C755 1.403 . S
C756 C757 1.404 . S
C756 C759 1.539 1_545 S
C757 C753 1.408 . S
C757 C756 1.404 . S
C757 H769 0.930 . S
C758 C754 1.524 . S
C758 H770 0.956 . S
C758 H771 0.961 . S
C758 H772 0.961 . S
C759 C756 1.539 1_565 S
C759 H773 0.958 . S
C759 H774 0.961 . S
C759 H775 0.960 . S
H760 C744 0.931 . S
H761 C749 0.929 . S
H762 C750 0.960 . S
H763 C750 0.962 . S
H764 C750 0.960 . S
H765 C751 0.962 . S
H766 C751 0.936 1_545 S
H767 C751 0.968 . S
H768 C752 0.931 . S
H769 C757 0.930 . S
H770 C758 0.956 . S
H771 C758 0.961 . S
H772 C758 0.961 . S
H773 C759 0.958 . S
H774 C759 0.961 . S
H775 C759 0.960 . S
C776 C777 1.391 . S
C776 C778 1.394 . S
C776 H792 0.931 . S
C777 C776 1.391 . S
C777 C781 1.376 . S
C778 C776 1.394 . S
C778 C779 1.369 . S
C778 C782 1.531 . S
C779 C778 1.369 . S
C779 C780 1.410 . S
C779 C787 1.503 . S
C780 C779 1.410 . S
C780 C781 1.392 . S
C780 C783 1.511 . S
C781 C777 1.376 . S
C781 C780 1.392 . S
C781 H793 0.929 . S
C782 C778 1.531 . S
C782 H794 0.960 . S
C782 H795 0.962 . S
C782 H796 0.960 . S
C783 C780 1.511 . S
C783 H797 0.961 . S
C783 H798 0.961 . S
C783 H799 0.961 . S
C784 C785 1.370 . S
C784 C786 1.363 . S
C784 H800 0.931 . S
C785 C784 1.370 . S
C785 C789 1.408 . S
C786 C784 1.363 . S
C786 C787 1.370 . S
C786 C790 1.524 . S
C787 C779 1.503 . S
C787 C786 1.370 . S
C787 C788 1.403 . S
C788 C787 1.403 . S
C788 C789 1.404 . S
C788 C791 1.539 . S
C789 C785 1.408 . S
C789 C788 1.404 . S
C789 H801 0.930 . S
C790 C786 1.524 . S
C790 H802 0.956 . S
C790 H803 0.961 . S
C790 H804 0.961 . S
C791 C788 1.539 . S
C791 H805 0.958 . S
C791 H806 0.961 . S
C791 H807 0.960 . S
H792 C776 0.931 . S
H793 C781 0.929 . S
H794 C782 0.960 . S
H795 C782 0.962 . S
H796 C782 0.960 . S
H797 C783 0.961 . S
H798 C783 0.961 . S
H799 C783 0.961 . S
H800 C784 0.931 . S
H801 C789 0.930 . S
H802 C790 0.956 . S
H803 C790 0.961 . S
H804 C790 0.961 . S
H805 C791 0.958 . S
H806 C791 0.961 . S
H807 C791 0.960 . S
C808 C809 1.391 . S
C808 C810 1.394 . S
C808 H824 0.931 . S
C809 C808 1.391 . S
C809 C813 1.376 . S
C810 C808 1.394 . S
C810 C811 1.369 . S
C810 C814 1.531 . S
C811 C810 1.369 . S
C811 C812 1.410 . S
C811 C819 1.503 . S
C812 C811 1.410 . S
C812 C813 1.392 . S
C812 C815 1.511 . S
C813 C809 1.376 . S
C813 C812 1.392 . S
C813 H825 0.929 . S
C814 C810 1.531 . S
C814 H826 0.960 . S
C814 H827 0.962 . S
C814 H828 0.960 . S
C815 C812 1.511 . S
C815 H829 0.961 . S
C815 H830 0.961 . S
C815 H831 0.961 . S
C816 C817 1.370 . S
C816 C818 1.363 . S
C816 H832 0.931 . S
C817 C816 1.370 . S
C817 C821 1.408 . S
C818 C816 1.363 . S
C818 C819 1.370 . S
C818 C822 1.524 . S
C819 C811 1.503 . S
C819 C818 1.370 . S
C819 C820 1.403 . S
C820 C819 1.403 . S
C820 C821 1.404 . S
C820 C823 1.539 . S
C821 C817 1.408 . S
C821 C820 1.404 . S
C821 H833 0.930 . S
C822 C818 1.524 . S
C822 H834 0.956 . S
C822 H835 0.961 . S
C822 H836 0.961 . S
C823 C820 1.539 . S
C823 H837 0.958 . S
C823 H838 0.961 . S
C823 H839 0.960 . S
H824 C808 0.931 . S
H825 C813 0.929 . S
H826 C814 0.960 . S
H827 C814 0.962 . S
H828 C814 0.960 . S
H829 C815 0.961 . S
H830 C815 0.961 . S
H831 C815 0.961 . S
H832 C816 0.931 . S
H833 C821 0.930 . S
H834 C822 0.956 . S
H835 C822 0.961 . S
H836 C822 0.961 . S
H837 C823 0.958 . S
H838 C823 0.961 . S
H839 C823 0.960 . S
C840 C841 1.391 . S
C840 C842 1.394 . S
C840 H856 0.931 . S
C841 C840 1.391 . S
C841 C845 1.376 . S
C842 C840 1.394 . S
C842 C843 1.369 . S
C842 C846 1.531 . S
C843 C842 1.369 . S
C843 C844 1.410 . S
C843 C851 1.503 . S
C844 C843 1.410 . S
C844 C845 1.392 . S
C844 C847 1.511 . S
C845 C841 1.376 . S
C845 C844 1.392 . S
C845 H857 0.929 . S
C846 C842 1.531 . S
C846 H858 0.960 . S
C846 H859 0.962 . S
C846 H860 0.960 . S
C847 C844 1.511 . S
C847 H861 0.961 . S
C847 H862 0.961 . S
C847 H863 0.961 . S
C848 C849 1.370 . S
C848 C850 1.363 . S
C848 H864 0.931 . S
C849 C848 1.370 . S
C849 C853 1.408 . S
C850 C848 1.363 . S
C850 C851 1.370 . S
C850 C854 1.524 . S
C851 C843 1.503 . S
C851 C850 1.370 . S
C851 C852 1.403 . S
C852 C851 1.403 . S
C852 C853 1.404 . S
C852 C855 1.539 . S
C853 C849 1.408 . S
C853 C852 1.404 . S
C853 H865 0.930 . S
C854 C850 1.524 . S
C854 H866 0.956 . S
C854 H867 0.961 . S
C854 H868 0.961 . S
C855 C852 1.539 . S
C855 H869 0.958 . S
C855 H870 0.961 . S
C855 H871 0.960 . S
H856 C840 0.931 . S
H857 C845 0.929 . S
H858 C846 0.960 . S
H859 C846 0.962 . S
H860 C846 0.960 . S
H861 C847 0.961 . S
H862 C847 0.961 . S
H863 C847 0.961 . S
H864 C848 0.931 . S
H865 C853 0.930 . S
H866 C854 0.956 . S
H867 C854 0.961 . S
H868 C854 0.961 . S
H869 C855 0.958 . S
H870 C855 0.961 . S
H871 C855 0.960 . S
C872 C873 1.391 . S
C872 C874 1.394 . S
C872 H888 0.931 . S
C873 C872 1.391 . S
C873 C877 1.376 1_554 S
C874 C872 1.394 . S
C874 C875 1.369 . S
C874 C878 1.531 . S
C875 C874 1.369 . S
C875 C876 1.410 1_554 S
C875 C883 1.503 1_554 S
C876 C875 1.410 1_556 S
C876 C877 1.392 . S
C876 C879 1.511 . S
C877 C873 1.376 1_556 S
C877 C876 1.392 . S
C877 H889 0.929 . S
C878 C874 1.531 . S
C878 H890 0.960 . S
C878 H891 0.962 . S
C878 H892 0.960 . S
C879 C876 1.511 . S
C879 H893 0.961 . S
C879 H894 0.961 . S
C879 H895 0.961 . S
C880 C881 1.375 . S
C880 C882 1.362 1_556 S
C880 H896 0.928 1_556 S
C881 C880 1.375 . S
C881 C885 1.408 . S
C882 C880 1.362 1_554 S
C882 C883 1.370 1_554 S
C882 C886 1.524 . S
C883 C875 1.503 1_556 S
C883 C882 1.370 1_556 S
C883 C884 1.403 . S
C884 C883 1.403 . S
C884 C885 1.404 . S
C884 C887 1.539 . S
C885 C881 1.408 . S
C885 C884 1.404 . S
C885 H897 0.930 . S
C886 C882 1.524 . S
C886 H898 0.956 . S
C886 H899 0.961 1_554 S
C886 H900 0.961 . S
C887 C884 1.539 . S
C887 H901 0.958 . S
C887 H902 0.961 . S
C887 H903 0.960 . S
H888 C872 0.931 . S
H889 C877 0.929 . S
H890 C878 0.960 . S
H891 C878 0.962 . S
H892 C878 0.960 . S
H893 C879 0.961 . S
H894 C879 0.961 . S
H895 C879 0.961 . S
H896 C880 0.928 1_554 S
H897 C885 0.930 . S
H898 C886 0.956 . S
H899 C886 0.961 1_556 S
H900 C886 0.961 . S
H901 C887 0.958 . S
H902 C887 0.961 . S
H903 C887 0.960 . S
C265 C193 1.192 . S
C273 C28 1.191 . S
C297 C226 1.208 . S
C305 C61 1.193 . S
C329 C94 1.186 . S
C337 C259 1.202 1_556 S
C361 C160 1.172 . S
C369 C127 1.202 1_554 S
C393 N5 1.157 . S
C401 N14 1.168 . S
C425 N47 1.172 . S
C433 N38 1.163 . S
C457 N71 1.162 1_554 S
C465 N80 1.164 . S
C489 N104 1.170 . S
C497 N113 1.160 . S
C521 N137 1.165 1_556 S
C529 N146 1.164 . S
C553 N170 1.156 . S
C561 N179 1.169 . S
C585 N203 1.160 . S
C593 N212 1.166 . S
C617 N245 1.156 . S
C625 N236 1.167 . S
C649 C8 1.309 . S
C657 C206 1.330 . S
C681 C239 1.326 . S
C689 C41 1.347 . S
C713 C140 1.325 . S
C721 C74 1.347 . S
C745 C107 1.332 . S
C753 C173 1.347 . S
C777 C17 1.563 . S
C785 C149 1.556 . S
C809 C50 1.550 . S
C817 C182 1.566 . S
C841 C83 1.549 . S
C849 C215 1.566 . S
C873 C248 1.543 . S
C881 C116 1.558 . S
