# Generated by pormake.
# Topology unw, (4)-cn, num edge types: 1
# Building blocks:
#     Node 0, Type 0, BuildingBlock: GALJAG_clean_sbu_0, # of connection points: 4
#     Node 1, Type 0, BuildingBlock: GALJAG_clean_sbu_0, # of connection points: 4
#     Node 2, Type 0, BuildingBlock: GALJAG_clean_sbu_0, # of connection points: 4
#     Node 3, Type 0, BuildingBlock: GALJAG_clean_sbu_0, # of connection points: 4
#     Node 4, Type 0, BuildingBlock: GALJAG_clean_sbu_0, # of connection points: 4
#     Node 5, Type 0, BuildingBlock: GALJAG_clean_sbu_0, # of connection points: 4
#     Node 6, Type 0, BuildingBlock: GALJAG_clean_sbu_0, # of connection points: 4
#     Node 7, Type 0, BuildingBlock: GALJAG_clean_sbu_0, # of connection points: 4
#     Node 8, Type 0, BuildingBlock: GALJAG_clean_sbu_0, # of connection points: 4
#     Node 9, Type 0, BuildingBlock: GALJAG_clean_sbu_0, # of connection points: 4
#     Node 10, Type 0, BuildingBlock: GALJAG_clean_sbu_0, # of connection points: 4
#     Node 11, Type 0, BuildingBlock: GALJAG_clean_sbu_0, # of connection points: 4
#     Node 12, Type 0, BuildingBlock: GALJAG_clean_sbu_0, # of connection points: 4
#     Node 13, Type 0, BuildingBlock: GALJAG_clean_sbu_0, # of connection points: 4
#     Node 14, Type 0, BuildingBlock: GALJAG_clean_sbu_0, # of connection points: 4
#     Node 15, Type 0, BuildingBlock: GALJAG_clean_sbu_0, # of connection points: 4
#     Node 16, Type 0, BuildingBlock: GALJAG_clean_sbu_0, # of connection points: 4
#     Node 17, Type 0, BuildingBlock: GALJAG_clean_sbu_0, # of connection points: 4
#     Node 18, Type 0, BuildingBlock: GALJAG_clean_sbu_0, # of connection points: 4
#     Node 19, Type 0, BuildingBlock: GALJAG_clean_sbu_0, # of connection points: 4
#     Node 20, Type 0, BuildingBlock: GALJAG_clean_sbu_0, # of connection points: 4
#     Node 21, Type 0, BuildingBlock: GALJAG_clean_sbu_0, # of connection points: 4
#     Node 22, Type 0, BuildingBlock: GALJAG_clean_sbu_0, # of connection points: 4
#     Node 23, Type 0, BuildingBlock: GALJAG_clean_sbu_0, # of connection points: 4
#     Edge 24, Type (0, 0), BuildingBlock: MIFKUJ_clean_linker_0, # of connection points: 2
#     Edge 25, Type (0, 0), BuildingBlock: MIFKUJ_clean_linker_0, # of connection points: 2
#     Edge 26, Type (0, 0), BuildingBlock: MIFKUJ_clean_linker_0, # of connection points: 2
#     Edge 27, Type (0, 0), BuildingBlock: MIFKUJ_clean_linker_0, # of connection points: 2
#     Edge 28, Type (0, 0), BuildingBlock: MIFKUJ_clean_linker_0, # of connection points: 2
#     Edge 29, Type (0, 0), BuildingBlock: MIFKUJ_clean_linker_0, # of connection points: 2
#     Edge 30, Type (0, 0), BuildingBlock: MIFKUJ_clean_linker_0, # of connection points: 2
#     Edge 31, Type (0, 0), BuildingBlock: MIFKUJ_clean_linker_0, # of connection points: 2
#     Edge 32, Type (0, 0), BuildingBlock: MIFKUJ_clean_linker_0, # of connection points: 2
#     Edge 33, Type (0, 0), BuildingBlock: MIFKUJ_clean_linker_0, # of connection points: 2
#     Edge 34, Type (0, 0), BuildingBlock: MIFKUJ_clean_linker_0, # of connection points: 2
#     Edge 35, Type (0, 0), BuildingBlock: MIFKUJ_clean_linker_0, # of connection points: 2
#     Edge 36, Type (0, 0), BuildingBlock: MIFKUJ_clean_linker_0, # of connection points: 2
#     Edge 37, Type (0, 0), BuildingBlock: MIFKUJ_clean_linker_0, # of connection points: 2
#     Edge 38, Type (0, 0), BuildingBlock: MIFKUJ_clean_linker_0, # of connection points: 2
#     Edge 39, Type (0, 0), BuildingBlock: MIFKUJ_clean_linker_0, # of connection points: 2
#     Edge 40, Type (0, 0), BuildingBlock: MIFKUJ_clean_linker_0, # of connection points: 2
#     Edge 41, Type (0, 0), BuildingBlock: MIFKUJ_clean_linker_0, # of connection points: 2
#     Edge 42, Type (0, 0), BuildingBlock: MIFKUJ_clean_linker_0, # of connection points: 2
#     Edge 43, Type (0, 0), BuildingBlock: MIFKUJ_clean_linker_0, # of connection points: 2
#     Edge 44, Type (0, 0), BuildingBlock: MIFKUJ_clean_linker_0, # of connection points: 2
#     Edge 45, Type (0, 0), BuildingBlock: MIFKUJ_clean_linker_0, # of connection points: 2
#     Edge 46, Type (0, 0), BuildingBlock: MIFKUJ_clean_linker_0, # of connection points: 2
#     Edge 47, Type (0, 0), BuildingBlock: MIFKUJ_clean_linker_0, # of connection points: 2
#     Edge 48, Type (0, 0), BuildingBlock: MIFKUJ_clean_linker_0, # of connection points: 2
#     Edge 49, Type (0, 0), BuildingBlock: MIFKUJ_clean_linker_0, # of connection points: 2
#     Edge 50, Type (0, 0), BuildingBlock: MIFKUJ_clean_linker_0, # of connection points: 2
#     Edge 51, Type (0, 0), BuildingBlock: MIFKUJ_clean_linker_0, # of connection points: 2
#     Edge 52, Type (0, 0), BuildingBlock: MIFKUJ_clean_linker_0, # of connection points: 2
#     Edge 53, Type (0, 0), BuildingBlock: MIFKUJ_clean_linker_0, # of connection points: 2
#     Edge 54, Type (0, 0), BuildingBlock: MIFKUJ_clean_linker_0, # of connection points: 2
#     Edge 55, Type (0, 0), BuildingBlock: MIFKUJ_clean_linker_0, # of connection points: 2
#     Edge 56, Type (0, 0), BuildingBlock: MIFKUJ_clean_linker_0, # of connection points: 2
#     Edge 57, Type (0, 0), BuildingBlock: MIFKUJ_clean_linker_0, # of connection points: 2
#     Edge 58, Type (0, 0), BuildingBlock: MIFKUJ_clean_linker_0, # of connection points: 2
#     Edge 59, Type (0, 0), BuildingBlock: MIFKUJ_clean_linker_0, # of connection points: 2
#     Edge 60, Type (0, 0), BuildingBlock: MIFKUJ_clean_linker_0, # of connection points: 2
#     Edge 61, Type (0, 0), BuildingBlock: MIFKUJ_clean_linker_0, # of connection points: 2
#     Edge 62, Type (0, 0), BuildingBlock: MIFKUJ_clean_linker_0, # of connection points: 2
#     Edge 63, Type (0, 0), BuildingBlock: MIFKUJ_clean_linker_0, # of connection points: 2
#     Edge 64, Type (0, 0), BuildingBlock: MIFKUJ_clean_linker_0, # of connection points: 2
#     Edge 65, Type (0, 0), BuildingBlock: MIFKUJ_clean_linker_0, # of connection points: 2
#     Edge 66, Type (0, 0), BuildingBlock: MIFKUJ_clean_linker_0, # of connection points: 2
#     Edge 67, Type (0, 0), BuildingBlock: MIFKUJ_clean_linker_0, # of connection points: 2
#     Edge 68, Type (0, 0), BuildingBlock: MIFKUJ_clean_linker_0, # of connection points: 2
#     Edge 69, Type (0, 0), BuildingBlock: MIFKUJ_clean_linker_0, # of connection points: 2
#     Edge 70, Type (0, 0), BuildingBlock: MIFKUJ_clean_linker_0, # of connection points: 2
#     Edge 71, Type (0, 0), BuildingBlock: MIFKUJ_clean_linker_0, # of connection points: 2
# Relax obj value: 0.374
# Max RMSD: 0.256
# Mean RMSD: 0.255
data_MOF--net-unw--node1-GALJAG_clean_sbu_0--edge1-MIFKUJ_clean_linker_0
_symmetry_space_group_name_H-M    P1
_symmetry_Int_Tables_number       1
_symmetry_cell_setting            triclinic
loop_
_symmetry_equiv_pos_as_xyz
'x, y, z'
_cell_length_a     61.360045
_cell_length_b     61.366307
_cell_length_c     61.364649
_cell_angle_alpha  90.010757
_cell_angle_beta   90.015888
_cell_angle_gamma 90.062806
loop_
_atom_site_label
_atom_site_type_symbol
_atom_site_fract_x
_atom_site_fract_y
_atom_site_fract_z
_atom_type_partial_charge
In0 In 0.12695 0.37157 0.25102 0.0
O1 O 0.09554 0.35503 0.23954 0.0
O2 O 0.09421 0.37615 0.2671 0.0
C3 C 0.15767 0.36225 0.22157 0.0
C4 C 0.13899 0.34293 0.28167 0.0
C5 C 0.13303 0.41435 0.24493 0.0
O6 O 0.13762 0.35933 0.21733 0.0
O7 O 0.16173 0.36943 0.24041 0.0
O8 O 0.14041 0.40454 0.26152 0.0
O9 O 0.12103 0.40291 0.23267 0.0
C10 C 0.08424 0.36284 0.25494 0.0
O11 O 0.13537 0.36268 0.28652 0.0
O12 O 0.1368 0.33824 0.2618 0.0
In13 In 0.63178 0.12469 0.24155 0.0
O14 O 0.62429 0.12781 0.20498 0.0
O15 O 0.65386 0.14113 0.21693 0.0
C16 C 0.63226 0.08229 0.25296 0.0
C17 C 0.59409 0.14683 0.24309 0.0
C18 C 0.66375 0.13724 0.26861 0.0
O19 O 0.64006 0.08901 0.23515 0.0
O20 O 0.62254 0.09665 0.26396 0.0
O21 O 0.64395 0.14127 0.27278 0.0
O22 O 0.66708 0.12747 0.25084 0.0
C23 C 0.64123 0.13872 0.20095 0.0
O24 O 0.61187 0.15497 0.24961 0.0
O25 O 0.59516 0.127 0.23761 0.0
In26 In 0.87078 0.61437 0.25382 0.0
O27 O 0.86025 0.63237 0.28492 0.0
O28 O 0.86714 0.65051 0.25599 0.0
C29 C 0.86198 0.57184 0.25636 0.0
C30 C 0.91376 0.61976 0.25845 0.0
C31 C 0.83953 0.61958 0.224 0.0
O32 O 0.85561 0.58523 0.27075 0.0
O33 O 0.87455 0.5797 0.24199 0.0
O34 O 0.85947 0.62173 0.21883 0.0
O35 O 0.83595 0.61507 0.24373 0.0
C36 C 0.86148 0.65088 0.27574 0.0
O37 O 0.9042 0.62369 0.24054 0.0
O38 O 0.90188 0.61135 0.27305 0.0
In39 In 0.37626 0.87916 0.24028 0.0
O40 O 0.36421 0.91331 0.23234 0.0
O41 O 0.37793 0.90742 0.26373 0.0
C42 C 0.36987 0.85472 0.20474 0.0
C43 C 0.34389 0.86255 0.26454 0.0
C44 C 0.41946 0.87386 0.23938 0.0
O45 O 0.3642 0.87456 0.20515 0.0
O46 O 0.37845 0.84766 0.222 0.0
O47 O 0.40759 0.86498 0.25373 0.0
O48 O 0.40966 0.88698 0.22685 0.0
C49 C 0.36814 0.92054 0.25126 0.0
O50 O 0.36362 0.86059 0.27025 0.0
O51 O 0.34092 0.87226 0.24672 0.0
In52 In 0.12688 0.61992 0.74711 0.0
O53 O 0.14389 0.63283 0.71645 0.0
O54 O 0.13318 0.6553 0.74085 0.0
C55 C 0.12917 0.57659 0.74889 0.0
C56 C 0.08551 0.62953 0.73773 0.0
C57 C 0.15566 0.62323 0.77963 0.0
O58 O 0.13812 0.58739 0.7337 0.0
O59 O 0.11727 0.58762 0.76163 0.0
O60 O 0.13597 0.62898 0.78236 0.0
O61 O 0.16041 0.6167 0.76074 0.0
C62 C 0.14199 0.65251 0.72249 0.0
O63 O 0.09378 0.63403 0.75615 0.0
O64 O 0.0976 0.6186 0.72512 0.0
In65 In 0.37461 0.11928 0.74966 0.0
O66 O 0.37474 0.12883 0.71344 0.0
O67 O 0.34531 0.11748 0.72817 0.0
C68 C 0.41556 0.12512 0.76384 0.0
C69 C 0.36549 0.07659 0.74963 0.0
C70 C 0.35637 0.1538 0.76948 0.0
O71 O 0.41021 0.12837 0.7442 0.0
O72 O 0.40058 0.11759 0.77579 0.0
O73 O 0.35461 0.13476 0.77722 0.0
O74 O 0.36716 0.15512 0.75207 0.0
C75 C 0.35474 0.12414 0.71119 0.0
O76 O 0.35622 0.08975 0.76253 0.0
O77 O 0.38099 0.0847 0.73871 0.0
In78 In 0.8852 0.37644 0.74323 0.0
O79 O 0.87308 0.4108 0.73635 0.0
O80 O 0.88933 0.40473 0.76649 0.0
C81 C 0.87657 0.35189 0.7082 0.0
C82 C 0.8532 0.36012 0.76825 0.0
C83 C 0.92817 0.3701 0.73963 0.0
O84 O 0.87194 0.37202 0.70842 0.0
O85 O 0.88535 0.34472 0.72534 0.0
O86 O 0.91705 0.36147 0.75474 0.0
O87 O 0.91784 0.38336 0.72769 0.0
C88 C 0.87886 0.41804 0.75479 0.0
O89 O 0.87301 0.35836 0.77383 0.0
O90 O 0.85005 0.36977 0.75042 0.0
In91 In 0.6372 0.87703 0.7611 0.0
O92 O 0.6433 0.86978 0.72491 0.0
O93 O 0.66958 0.88078 0.74524 0.0
C94 C 0.59653 0.86967 0.77477 0.0
C95 C 0.64202 0.9203 0.76218 0.0
C96 C 0.65232 0.84042 0.77913 0.0
O97 O 0.60145 0.86845 0.7547 0.0
O98 O 0.61171 0.87601 0.7872 0.0
O99 O 0.65439 0.85868 0.78867 0.0
O100 O 0.64321 0.84107 0.76068 0.0
C101 C 0.66329 0.87508 0.72648 0.0
O102 O 0.65181 0.90796 0.7756 0.0
O103 O 0.62841 0.9108 0.74989 0.0
In104 In 0.24657 0.12405 0.37451 0.0
O105 O 0.26204 0.13527 0.40638 0.0
O106 O 0.2315 0.1186 0.40755 0.0
C107 C 0.27375 0.13523 0.34231 0.0
C108 C 0.21729 0.15585 0.36846 0.0
C109 C 0.24976 0.08144 0.36564 0.0
O110 O 0.27941 0.1369 0.36213 0.0
O111 O 0.2547 0.12812 0.33917 0.0
O112 O 0.23358 0.09267 0.35946 0.0
O113 O 0.26323 0.0914 0.37766 0.0
C114 C 0.24607 0.12892 0.41785 0.0
O115 O 0.21153 0.13598 0.36832 0.0
O116 O 0.23739 0.1591 0.37115 0.0
In117 In 0.8692 0.26463 0.38613 0.0
O118 O 0.86405 0.29998 0.37384 0.0
O119 O 0.85294 0.27343 0.35458 0.0
C120 C 0.86338 0.26244 0.42949 0.0
C121 C 0.91119 0.26668 0.37401 0.0
C122 C 0.84137 0.23183 0.37908 0.0
O123 O 0.85481 0.27727 0.418 0.0
O124 O 0.87657 0.25032 0.41937 0.0
O125 O 0.86154 0.22989 0.37492 0.0
O126 O 0.83568 0.25011 0.38659 0.0
C127 C 0.85531 0.29371 0.35625 0.0
O128 O 0.89894 0.25105 0.36843 0.0
O129 O 0.90267 0.28009 0.38709 0.0
In130 In 0.74365 0.87524 0.37735 0.0
O131 O 0.77704 0.86328 0.36577 0.0
O132 O 0.75114 0.84039 0.37112 0.0
C133 C 0.73749 0.91809 0.37579 0.0
C134 C 0.74907 0.86473 0.41903 0.0
C135 C 0.71853 0.86979 0.34238 0.0
O136 O 0.7551 0.90942 0.36925 0.0
O137 O 0.72418 0.90525 0.38498 0.0
O138 O 0.71134 0.86533 0.36133 0.0
O139 O 0.73795 0.87661 0.34163 0.0
C140 C 0.77073 0.84353 0.36561 0.0
O141 O 0.73189 0.85941 0.40875 0.0
O142 O 0.76207 0.87705 0.40877 0.0
In143 In 0.11673 0.74979 0.37153 0.0
O144 O 0.12499 0.71375 0.36499 0.0
O145 O 0.11742 0.73517 0.33849 0.0
C146 C 0.12187 0.75992 0.4135 0.0
C147 C 0.07424 0.74846 0.36256 0.0
C148 C 0.15152 0.77305 0.35916 0.0
O149 O 0.12709 0.74135 0.40608 0.0
O150 O 0.11227 0.77232 0.40012 0.0
O151 O 0.13233 0.78018 0.3563 0.0
O152 O 0.15275 0.75441 0.36771 0.0
C153 C 0.12194 0.71612 0.34466 0.0
O154 O 0.08678 0.76262 0.35421 0.0
O155 O 0.08273 0.73689 0.37737 0.0
In156 In 0.24981 0.88216 0.61507 0.0
O157 O 0.23504 0.91269 0.62985 0.0
O158 O 0.26373 0.91581 0.61028 0.0
C159 C 0.2274 0.8468 0.62737 0.0
C160 C 0.28215 0.87657 0.64359 0.0
C161 C 0.24132 0.87694 0.57267 0.0
O162 O 0.2195 0.86576 0.62979 0.0
O163 O 0.24616 0.84617 0.61904 0.0
O164 O 0.25973 0.87215 0.58074 0.0
O165 O 0.22814 0.88597 0.58567 0.0
C166 C 0.25023 0.92492 0.62295 0.0
O167 O 0.28508 0.87263 0.62348 0.0
O168 O 0.26328 0.88284 0.64877 0.0
In169 In 0.1392 0.25304 0.62569 0.0
O170 O 0.15474 0.22013 0.63355 0.0
O171 O 0.17504 0.24783 0.62651 0.0
C172 C 0.09647 0.25776 0.63058 0.0
C173 C 0.14457 0.24999 0.58283 0.0
C174 C 0.146 0.27553 0.6621 0.0
O175 O 0.10604 0.24019 0.63598 0.0
O176 O 0.10832 0.27187 0.62124 0.0
O177 O 0.14771 0.2847 0.64355 0.0
O178 O 0.14142 0.25544 0.66172 0.0
C179 C 0.1739 0.22777 0.63111 0.0
O180 O 0.15127 0.26654 0.59337 0.0
O181 O 0.13364 0.23629 0.59378 0.0
In182 In 0.73533 0.13607 0.63298 0.0
O183 O 0.70803 0.15614 0.64792 0.0
O184 O 0.70012 0.12443 0.63665 0.0
C185 C 0.74455 0.1467 0.59113 0.0
C186 C 0.7391 0.09547 0.64934 0.0
C187 C 0.76302 0.16366 0.65286 0.0
O188 O 0.7288 0.15501 0.60137 0.0
O189 O 0.7542 0.13173 0.60129 0.0
O190 O 0.76959 0.14807 0.64116 0.0
O191 O 0.74267 0.16436 0.65559 0.0
C192 C 0.69393 0.14121 0.64678 0.0
O193 O 0.74666 0.11199 0.65904 0.0
O194 O 0.73118 0.09933 0.63074 0.0
In195 In 0.87437 0.74909 0.62301 0.0
O196 O 0.85994 0.73463 0.59204 0.0
O197 O 0.87759 0.76457 0.58978 0.0
C198 C 0.86467 0.72272 0.65627 0.0
C199 C 0.84396 0.77891 0.63225 0.0
C200 C 0.9174 0.74415 0.62824 0.0
O201 O 0.86134 0.7169 0.63671 0.0
O202 O 0.8728 0.74146 0.65863 0.0
O203 O 0.90756 0.76123 0.63438 0.0
O204 O 0.90578 0.73059 0.61793 0.0
C205 C 0.86582 0.75055 0.58028 0.0
O206 O 0.86404 0.78388 0.63231 0.0
O207 O 0.8398 0.75928 0.62782 0.0
In208 In 0.38252 0.25406 0.12142 0.0
O209 O 0.37319 0.24119 0.08788 0.0
O210 O 0.38953 0.27192 0.09025 0.0
C211 C 0.37213 0.22673 0.15367 0.0
C212 C 0.34862 0.28079 0.12702 0.0
C213 C 0.42517 0.2511 0.1294 0.0
O214 O 0.37028 0.22095 0.13388 0.0
O215 O 0.37884 0.24594 0.15669 0.0
O216 O 0.4144 0.26804 0.13435 0.0
O217 O 0.4146 0.23661 0.11917 0.0
C218 C 0.37985 0.25823 0.07823 0.0
O219 O 0.36775 0.2867 0.13233 0.0
O220 O 0.34702 0.2617 0.11955 0.0
In221 In 0.36525 0.75625 0.87228 0.0
O222 O 0.35017 0.78662 0.85698 0.0
O223 O 0.36302 0.76159 0.8363 0.0
C224 C 0.35721 0.75215 0.91488 0.0
C225 C 0.40648 0.76966 0.86896 0.0
C226 C 0.33796 0.72368 0.86325 0.0
O227 O 0.34875 0.76729 0.90361 0.0
O228 O 0.37105 0.74053 0.90496 0.0
O229 O 0.35845 0.72105 0.86143 0.0
O230 O 0.33193 0.74249 0.86901 0.0
C231 C 0.35411 0.78009 0.83772 0.0
O232 O 0.40119 0.75016 0.86439 0.0
O233 O 0.39139 0.78126 0.87684 0.0
In234 In 0.24018 0.37774 0.88316 0.0
O235 O 0.23432 0.36667 0.91808 0.0
O236 O 0.26478 0.3816 0.91031 0.0
C237 C 0.20427 0.37009 0.85968 0.0
C238 C 0.26353 0.34505 0.86598 0.0
C239 C 0.23734 0.42063 0.87638 0.0
O240 O 0.20513 0.36485 0.87965 0.0
O241 O 0.22124 0.37883 0.85211 0.0
O242 O 0.25251 0.40924 0.86823 0.0
O243 O 0.22512 0.41064 0.88969 0.0
C244 C 0.25329 0.37187 0.92436 0.0
O245 O 0.26869 0.36476 0.86264 0.0
O246 O 0.24694 0.34225 0.87772 0.0
In247 In 0.63883 0.23128 0.87764 0.0
O248 O 0.6087 0.24287 0.85916 0.0
O249 O 0.60506 0.21749 0.8826 0.0
C250 C 0.66858 0.26158 0.86791 0.0
C251 C 0.6505 0.19899 0.85041 0.0
C252 C 0.64466 0.23793 0.92039 0.0
O253 O 0.64862 0.26427 0.86315 0.0
O254 O 0.67309 0.24381 0.87724 0.0
O255 O 0.65291 0.22171 0.91064 0.0
O256 O 0.63203 0.24945 0.90892 0.0
C257 C 0.59629 0.22891 0.86791 0.0
O258 O 0.64304 0.19483 0.86918 0.0
O259 O 0.6528 0.21891 0.84621 0.0
In260 In 0.75124 0.61446 0.88221 0.0
O261 O 0.7635 0.62959 0.91369 0.0
O262 O 0.73552 0.60877 0.91484 0.0
C263 C 0.77571 0.6271 0.84838 0.0
C264 C 0.71847 0.64162 0.87325 0.0
C265 C 0.76127 0.57232 0.87842 0.0
O266 O 0.78195 0.63045 0.86782 0.0
O267 O 0.75756 0.61765 0.84652 0.0
O268 O 0.74266 0.57953 0.87306 0.0
O269 O 0.77388 0.58613 0.8871 0.0
C270 C 0.74807 0.62168 0.92495 0.0
O271 O 0.71697 0.62146 0.86888 0.0
O272 O 0.7361 0.64753 0.882 0.0
In273 In 0.62422 0.75299 0.12252 0.0
O274 O 0.63786 0.76179 0.08917 0.0
O275 O 0.6205 0.73182 0.09276 0.0
C276 C 0.63097 0.7864 0.14962 0.0
C277 C 0.65538 0.72613 0.13716 0.0
C278 C 0.58114 0.75667 0.1272 0.0
O279 O 0.6361 0.78776 0.12965 0.0
O280 O 0.62315 0.76835 0.15553 0.0
O281 O 0.59178 0.74125 0.13589 0.0
O282 O 0.59204 0.76873 0.11451 0.0
C283 C 0.63184 0.74399 0.0806 0.0
O284 O 0.63539 0.72105 0.13844 0.0
O285 O 0.65919 0.74465 0.12915 0.0
In286 In 0.24495 0.62753 0.12761 0.0
O287 O 0.21015 0.63569 0.13837 0.0
O288 O 0.23433 0.62772 0.16231 0.0
C289 C 0.25199 0.63581 0.08548 0.0
C290 C 0.24251 0.58442 0.13257 0.0
C291 C 0.26913 0.66153 0.13987 0.0
O292 O 0.23411 0.64073 0.09463 0.0
O293 O 0.26519 0.62515 0.09718 0.0
O294 O 0.27711 0.64242 0.13962 0.0
O295 O 0.24936 0.66291 0.13439 0.0
C296 C 0.21478 0.63279 0.15837 0.0
O297 O 0.25816 0.59541 0.14049 0.0
O298 O 0.22958 0.59501 0.12049 0.0
In299 In 0.75298 0.36202 0.13079 0.0
O300 O 0.73979 0.38765 0.15448 0.0
O301 O 0.76239 0.39763 0.13014 0.0
C302 C 0.72473 0.32921 0.13691 0.0
C303 C 0.78743 0.35061 0.15522 0.0
C304 C 0.74857 0.35882 0.08733 0.0
O305 O 0.71857 0.3489 0.13815 0.0
O306 O 0.74481 0.32657 0.1334 0.0
O307 O 0.76501 0.35132 0.09724 0.0
O308 O 0.73566 0.36966 0.09913 0.0
C309 C 0.75153 0.40278 0.14682 0.0
O310 O 0.78996 0.36024 0.13716 0.0
O311 O 0.76797 0.34645 0.16028 0.0
H312 H 0.21045 0.55763 0.11757 0.0
H313 H 0.19313 0.52804 0.13777 0.0
H314 H 0.24208 0.53346 0.18792 0.0
H315 H 0.25969 0.56299 0.16766 0.0
H316 H 0.22857 0.49047 0.18058 0.0
H317 H 0.19576 0.56101 0.1933 0.0
H318 H 0.17858 0.59533 0.18178 0.0
H319 H 0.12641 0.55987 0.15168 0.0
H320 H 0.14337 0.52516 0.16279 0.0
H321 H 0.16738 0.43716 0.26182 0.0
H322 H 0.18715 0.46688 0.24399 0.0
H323 H 0.13889 0.46837 0.19289 0.0
H324 H 0.119 0.43881 0.21067 0.0
H325 H 0.15288 0.50888 0.20249 0.0
H326 H 0.18496 0.44004 0.18443 0.0
H327 H 0.20153 0.40417 0.19115 0.0
H328 H 0.25325 0.43444 0.2274 0.0
H329 H 0.23696 0.47062 0.22073 0.0
C330 C 0.21795 0.55207 0.13255 0.0
C331 C 0.2363 0.56279 0.14115 0.0
C332 C 0.20793 0.53528 0.14416 0.0
C333 C 0.21598 0.52902 0.16462 0.0
C334 C 0.2355 0.53822 0.17225 0.0
C335 C 0.24561 0.55501 0.16059 0.0
C336 C 0.20301 0.51439 0.17882 0.0
C337 C 0.21216 0.49464 0.18567 0.0
C338 C 0.18139 0.51962 0.18501 0.0
C339 C 0.17097 0.54048 0.17867 0.0
C340 C 0.18074 0.5605 0.18403 0.0
C341 C 0.17107 0.58004 0.17752 0.0
C342 C 0.15155 0.57984 0.16583 0.0
C343 C 0.14158 0.56003 0.16068 0.0
C344 C 0.15119 0.5404 0.16709 0.0
C345 C 0.16063 0.44426 0.24714 0.0
C346 C 0.14171 0.43557 0.23756 0.0
C347 C 0.17207 0.46109 0.23686 0.0
C348 C 0.16473 0.46949 0.21687 0.0
C349 C 0.14491 0.46203 0.20823 0.0
C350 C 0.13353 0.44517 0.21844 0.0
C351 C 0.17838 0.48487 0.20415 0.0
C352 C 0.16937 0.5048 0.1976 0.0
C353 C 0.19997 0.47962 0.19788 0.0
C354 C 0.20961 0.45796 0.20233 0.0
C355 C 0.19976 0.43902 0.19401 0.0
C356 C 0.20914 0.41863 0.19776 0.0
C357 C 0.22837 0.41698 0.20985 0.0
C358 C 0.23832 0.43574 0.2181 0.0
C359 C 0.22905 0.4562 0.21428 0.0
H360 H 0.23563 0.40119 0.21274 0.0
H361 H 0.14409 0.59504 0.16092 0.0
H362 H 0.58842 0.1905 0.25051 0.0
H363 H 0.56124 0.21413 0.23309 0.0
H364 H 0.53074 0.15781 0.20417 0.0
H365 H 0.5574 0.13412 0.22174 0.0
H366 H 0.5478 0.19321 0.17457 0.0
H367 H 0.50324 0.17996 0.23924 0.0
H368 H 0.49617 0.18124 0.27878 0.0
H369 H 0.50485 0.25068 0.27845 0.0
H370 H 0.51229 0.24976 0.23893 0.0
H371 H 0.44966 0.21493 0.12269 0.0
H372 H 0.4816 0.20359 0.14305 0.0
H373 H 0.48253 0.26535 0.17673 0.0
H374 H 0.44977 0.27656 0.15676 0.0
H375 H 0.48539 0.23443 0.20509 0.0
H376 H 0.52439 0.24973 0.14067 0.0
H377 H 0.53307 0.25034 0.10146 0.0
H378 H 0.53799 0.18056 0.10106 0.0
H379 H 0.52903 0.17947 0.1402 0.0
C380 C 0.5755 0.18312 0.241 0.0
C381 C 0.5751 0.16047 0.2374 0.0
C382 C 0.56008 0.19663 0.231 0.0
C383 C 0.54422 0.18765 0.2172 0.0
C384 C 0.54298 0.16499 0.2147 0.0
C385 C 0.55814 0.15148 0.22488 0.0
C386 C 0.53019 0.20173 0.20364 0.0
C387 C 0.53406 0.20218 0.18113 0.0
C388 C 0.51307 0.21425 0.21248 0.0
C389 C 0.50862 0.21475 0.23621 0.0
C390 C 0.50389 0.19547 0.24764 0.0
C391 C 0.49975 0.19613 0.27004 0.0
C392 C 0.50014 0.21602 0.28113 0.0
C393 C 0.5046 0.23529 0.26984 0.0
C394 C 0.50877 0.2347 0.24745 0.0
C395 C 0.45693 0.22636 0.13403 0.0
C396 C 0.44715 0.24662 0.13816 0.0
C397 C 0.47533 0.21988 0.14563 0.0
C398 C 0.48467 0.23366 0.16136 0.0
C399 C 0.47563 0.25443 0.16469 0.0
C400 C 0.45702 0.26088 0.15315 0.0
C401 C 0.50234 0.22525 0.17565 0.0
C402 C 0.49932 0.22589 0.19837 0.0
C403 C 0.52055 0.21402 0.16702 0.0
C404 C 0.52592 0.21453 0.1434 0.0
C405 C 0.52716 0.2345 0.13221 0.0
C406 C 0.53216 0.23493 0.10998 0.0
C407 C 0.53605 0.2155 0.09877 0.0
C408 C 0.53498 0.1956 0.10977 0.0
C409 C 0.52998 0.19507 0.13199 0.0
H410 H 0.53992 0.21587 0.08157 0.0
H411 H 0.49692 0.2165 0.29847 0.0
H412 H 0.77703 0.4365 0.13366 0.0
H413 H 0.79207 0.46529 0.15643 0.0
H414 H 0.75179 0.44421 0.21008 0.0
H415 H 0.73703 0.41477 0.18739 0.0
H416 H 0.77888 0.49925 0.17846 0.0
H417 H 0.78445 0.45041 0.25862 0.0
H418 H 0.78269 0.41238 0.2715 0.0
H419 H 0.805 0.38989 0.20917 0.0
H420 H 0.80783 0.42777 0.19619 0.0
H421 H 0.82117 0.56047 0.2691 0.0
H422 H 0.79917 0.53081 0.25396 0.0
H423 H 0.85545 0.50626 0.21994 0.0
H424 H 0.87741 0.53648 0.23428 0.0
H425 H 0.81825 0.47455 0.24468 0.0
H426 H 0.83651 0.52839 0.18787 0.0
H427 H 0.83939 0.56576 0.17337 0.0
H428 H 0.77146 0.5763 0.18636 0.0
H429 H 0.76837 0.53915 0.20155 0.0
C430 C 0.77096 0.43826 0.15015 0.0
C431 C 0.75603 0.4232 0.15881 0.0
C432 C 0.7796 0.45476 0.16318 0.0
C433 C 0.77346 0.45661 0.18514 0.0
C434 C 0.75711 0.4428 0.19331 0.0
C435 C 0.74853 0.42612 0.18027 0.0
C436 C 0.78555 0.47193 0.19951 0.0
C437 C 0.78731 0.4938 0.19302 0.0
C438 C 0.79671 0.46488 0.21854 0.0
C439 C 0.79592 0.44197 0.22629 0.0
C440 C 0.78913 0.43736 0.2477 0.0
C441 C 0.78802 0.41582 0.25505 0.0
C442 C 0.79363 0.39872 0.24112 0.0
C443 C 0.80064 0.40314 0.21992 0.0
C444 C 0.80207 0.42466 0.21258 0.0
C445 C 0.82906 0.54833 0.25902 0.0
C446 C 0.85101 0.55074 0.25285 0.0
C447 C 0.81643 0.53149 0.25029 0.0
C448 C 0.82571 0.51657 0.23573 0.0
C449 C 0.84807 0.51771 0.23116 0.0
C450 C 0.86059 0.53489 0.23941 0.0
C451 C 0.81162 0.5015 0.22333 0.0
C452 C 0.80948 0.47987 0.23028 0.0
C453 C 0.80032 0.50859 0.20457 0.0
C454 C 0.80232 0.53117 0.19623 0.0
C455 C 0.82231 0.53883 0.18806 0.0
C456 C 0.82395 0.55993 0.17962 0.0
C457 C 0.80563 0.5734 0.17898 0.0
C458 C 0.78566 0.56586 0.18692 0.0
C459 C 0.78396 0.54481 0.19551 0.0
H460 H 0.80692 0.58966 0.17227 0.0
H461 H 0.79262 0.38205 0.2468 0.0
H462 H 0.55857 0.73988 0.16174 0.0
H463 H 0.53039 0.75885 0.18253 0.0
H464 H 0.52816 0.80928 0.13363 0.0
H465 H 0.55636 0.7905 0.11282 0.0
H466 H 0.53768 0.82514 0.17417 0.0
H467 H 0.48478 0.77683 0.14203 0.0
H468 H 0.46888 0.74125 0.13217 0.0
H469 H 0.46462 0.72399 0.19984 0.0
H470 H 0.48078 0.75937 0.2101 0.0
H471 H 0.44661 0.88769 0.20708 0.0
H472 H 0.47612 0.86672 0.19083 0.0
H473 H 0.47061 0.81892 0.2421 0.0
H474 H 0.44078 0.83972 0.25832 0.0
H475 H 0.46646 0.80034 0.20318 0.0
H476 H 0.51734 0.84884 0.23583 0.0
H477 H 0.53367 0.88403 0.24633 0.0
H478 H 0.54249 0.90051 0.17891 0.0
H479 H 0.52595 0.86553 0.16797 0.0
C480 C 0.5515 0.75458 0.155 0.0
C481 C 0.55984 0.76384 0.13576 0.0
C482 C 0.53545 0.76545 0.16696 0.0
C483 C 0.52743 0.78561 0.15975 0.0
C484 C 0.53433 0.79384 0.13957 0.0
C485 C 0.55032 0.783 0.12762 0.0
C486 C 0.51386 0.79931 0.17425 0.0
C487 C 0.52194 0.81987 0.18029 0.0
C488 C 0.49385 0.79198 0.18297 0.0
C489 C 0.48423 0.77066 0.17682 0.0
C490 C 0.48066 0.76537 0.1548 0.0
C491 C 0.47155 0.74525 0.14914 0.0
C492 C 0.46581 0.73034 0.16536 0.0
C493 C 0.46911 0.73554 0.18729 0.0
C494 C 0.47823 0.75562 0.19303 0.0
C495 C 0.45217 0.87312 0.21535 0.0
C496 C 0.44122 0.86524 0.23385 0.0
C497 C 0.46908 0.86112 0.20602 0.0
C498 C 0.47547 0.84115 0.21516 0.0
C499 C 0.46583 0.83421 0.23471 0.0
C500 C 0.4489 0.84623 0.24406 0.0
C501 C 0.49008 0.82639 0.20282 0.0
C502 C 0.48226 0.80559 0.19721 0.0
C503 C 0.51041 0.83345 0.19459 0.0
C504 C 0.52023 0.85461 0.20108 0.0
C505 C 0.52258 0.86004 0.22323 0.0
C506 C 0.53192 0.87994 0.22926 0.0
C507 C 0.53907 0.89452 0.2133 0.0
C508 C 0.53693 0.88921 0.19126 0.0
C509 C 0.5276 0.86933 0.18513 0.0
H510 H 0.5463 0.90991 0.21801 0.0
H511 H 0.45874 0.71479 0.16095 0.0
H512 H 0.25681 0.4427 0.8429 0.0
H513 H 0.23931 0.46991 0.81962 0.0
H514 H 0.18431 0.47199 0.86331 0.0
H515 H 0.20169 0.44493 0.88668 0.0
H516 H 0.17309 0.46064 0.82118 0.0
H517 H 0.21509 0.51575 0.8575 0.0
H518 H 0.24829 0.53379 0.87121 0.0
H519 H 0.27309 0.53858 0.80596 0.0
H520 H 0.24016 0.52026 0.79188 0.0
H521 H 0.11216 0.54988 0.77997 0.0
H522 H 0.13172 0.52094 0.79889 0.0
H523 H 0.18417 0.52578 0.75234 0.0
H524 H 0.16469 0.55486 0.73335 0.0
H525 H 0.19823 0.53227 0.79351 0.0
H526 H 0.15555 0.47896 0.75681 0.0
H527 H 0.12234 0.4611 0.7429 0.0
H528 H 0.09893 0.45279 0.8083 0.0
H529 H 0.13187 0.47088 0.82262 0.0
C530 C 0.24137 0.44955 0.84798 0.0
C531 C 0.23052 0.4415 0.86651 0.0
C532 C 0.23134 0.46504 0.83461 0.0
C533 C 0.21039 0.47269 0.8396 0.0
C534 C 0.20041 0.4661 0.85908 0.0
C535 C 0.21045 0.45076 0.87251 0.0
C536 C 0.19784 0.48548 0.82343 0.0
C537 C 0.17841 0.47646 0.81532 0.0
C538 C 0.2053 0.50564 0.81519 0.0
C539 C 0.22527 0.51636 0.82366 0.0
C540 C 0.22773 0.5204 0.84609 0.0
C541 C 0.24648 0.53074 0.85393 0.0
C542 C 0.26282 0.53726 0.83947 0.0
C543 C 0.26044 0.53348 0.81715 0.0
C544 C 0.24173 0.52313 0.80923 0.0
C545 C 0.12746 0.5442 0.77325 0.0
C546 C 0.13698 0.55477 0.7553 0.0
C547 C 0.13866 0.52765 0.78411 0.0
C548 C 0.15951 0.52136 0.77715 0.0
C549 C 0.16815 0.5305 0.75805 0.0
C550 C 0.15689 0.54698 0.74709 0.0
C551 C 0.17329 0.50758 0.79143 0.0
C552 C 0.19297 0.51638 0.7992 0.0
C553 C 0.16609 0.48718 0.79932 0.0
C554 C 0.14613 0.47646 0.79078 0.0
C555 C 0.14323 0.47352 0.76823 0.0
C556 C 0.12447 0.4633 0.76027 0.0
C557 C 0.10852 0.45586 0.7747 0.0
C558 C 0.1113 0.45858 0.79714 0.0
C559 C 0.13003 0.46879 0.80519 0.0
H560 H 0.09401 0.44794 0.7685 0.0
H561 H 0.27731 0.54529 0.84557 0.0
H562 H 0.56462 0.2045 0.88714 0.0
H563 H 0.53313 0.1879 0.86929 0.0
H564 H 0.54872 0.22222 0.8099 0.0
H565 H 0.57988 0.23932 0.82791 0.0
H566 H 0.50682 0.21899 0.81322 0.0
H567 H 0.56584 0.16728 0.82128 0.0
H568 H 0.59287 0.14441 0.84008 0.0
H569 H 0.54214 0.11496 0.87814 0.0
H570 H 0.51467 0.13734 0.85917 0.0
H571 H 0.44754 0.14851 0.74339 0.0
H572 H 0.47868 0.16668 0.76058 0.0
H573 H 0.46122 0.13818 0.82243 0.0
H574 H 0.43029 0.11982 0.80535 0.0
H575 H 0.50463 0.13822 0.8166 0.0
H576 H 0.44585 0.18945 0.81004 0.0
H577 H 0.41771 0.21029 0.79036 0.0
H578 H 0.46709 0.24051 0.75104 0.0
H579 H 0.49553 0.21957 0.77027 0.0
C580 C 0.56102 0.20888 0.87042 0.0
C581 C 0.57479 0.22305 0.85885 0.0
C582 C 0.54318 0.19918 0.86015 0.0
C583 C 0.53909 0.20307 0.83796 0.0
C584 C 0.55179 0.21859 0.8269 0.0
C585 C 0.56951 0.22851 0.83726 0.0
C586 C 0.52232 0.19022 0.82607 0.0
C587 C 0.50655 0.20132 0.81375 0.0
C588 C 0.52162 0.16713 0.82704 0.0
C589 C 0.53821 0.15408 0.83883 0.0
C590 C 0.56044 0.15598 0.83365 0.0
C591 C 0.57585 0.14309 0.84435 0.0
C592 C 0.56928 0.12837 0.86041 0.0
C593 C 0.54723 0.1264 0.86571 0.0
C594 C 0.53172 0.1391 0.85491 0.0
C595 C 0.45062 0.14575 0.76055 0.0
C596 C 0.43643 0.13283 0.77306 0.0
C597 C 0.46829 0.1563 0.77038 0.0
C598 C 0.47199 0.15411 0.79286 0.0
C599 C 0.45859 0.14018 0.80508 0.0
C600 C 0.44093 0.12968 0.79529 0.0
C601 C 0.48918 0.16699 0.80394 0.0
C602 C 0.50502 0.1559 0.81605 0.0
C603 C 0.48984 0.19003 0.8029 0.0
C604 C 0.47279 0.20276 0.79143 0.0
C605 C 0.4507 0.20041 0.79708 0.0
C606 C 0.43469 0.21225 0.78603 0.0
C607 C 0.4406 0.22667 0.76942 0.0
C608 C 0.46254 0.22931 0.76388 0.0
C609 C 0.47861 0.21746 0.77485 0.0
H610 H 0.42819 0.23583 0.76088 0.0
H611 H 0.58126 0.11844 0.8687 0.0
H612 H 0.79894 0.55245 0.89049 0.0
H613 H 0.81822 0.52444 0.8699 0.0
H614 H 0.76279 0.51729 0.82726 0.0
H615 H 0.74323 0.54521 0.84799 0.0
H616 H 0.78584 0.47797 0.83403 0.0
H617 H 0.79946 0.55175 0.81198 0.0
H618 H 0.80783 0.59023 0.81992 0.0
H619 H 0.87001 0.57176 0.84608 0.0
H620 H 0.86189 0.53306 0.83852 0.0
H621 H 0.84272 0.43998 0.7415 0.0
H622 H 0.82224 0.46672 0.76285 0.0
H623 H 0.87347 0.46793 0.81091 0.0
H624 H 0.89383 0.44074 0.78993 0.0
H625 H 0.85198 0.5106 0.8005 0.0
H626 H 0.83719 0.43581 0.82136 0.0
H627 H 0.82633 0.39759 0.81517 0.0
H628 H 0.76435 0.41874 0.79062 0.0
H629 H 0.77503 0.45712 0.79618 0.0
C630 C 0.79055 0.54438 0.87721 0.0
C631 C 0.76971 0.55122 0.87063 0.0
C632 C 0.80162 0.52846 0.8654 0.0
C633 C 0.79211 0.51927 0.84675 0.0
C634 C 0.77044 0.52434 0.84154 0.0
C635 C 0.75927 0.54025 0.85343 0.0
C636 C 0.80571 0.50674 0.83129 0.0
C637 C 0.80015 0.48514 0.82649 0.0
C638 C 0.82441 0.51618 0.82154 0.0
C639 C 0.82998 0.5395 0.82489 0.0
C640 C 0.8149 0.55589 0.81947 0.0
C641 C 0.81956 0.57773 0.82397 0.0
C642 C 0.83932 0.58342 0.83375 0.0
C643 C 0.85463 0.5673 0.83868 0.0
C644 C 0.85004 0.54541 0.83423 0.0
C645 C 0.84997 0.44648 0.75624 0.0
C646 C 0.86982 0.43824 0.76413 0.0
C647 C 0.83818 0.46163 0.76846 0.0
C648 C 0.84627 0.46902 0.78853 0.0
C649 C 0.86699 0.46234 0.79546 0.0
C650 C 0.87859 0.44687 0.78346 0.0
C651 C 0.83218 0.48173 0.80334 0.0
C652 C 0.83764 0.50343 0.80796 0.0
C653 C 0.81324 0.47244 0.81272 0.0
C654 C 0.80702 0.44936 0.80892 0.0
C655 C 0.82138 0.43234 0.81434 0.0
C656 C 0.81523 0.41064 0.811 0.0
C657 C 0.79467 0.40577 0.80251 0.0
C658 C 0.78027 0.42256 0.79718 0.0
C659 C 0.78637 0.44428 0.8004 0.0
H660 H 0.78981 0.389 0.80019 0.0
H661 H 0.84287 0.60034 0.83727 0.0
H662 H 0.55882 0.859 0.75291 0.0
H663 H 0.52555 0.8431 0.76859 0.0
H664 H 0.55522 0.84439 0.83237 0.0
H665 H 0.58767 0.8611 0.81712 0.0
H666 H 0.51701 0.80682 0.78774 0.0
H667 H 0.51999 0.85099 0.8721 0.0
H668 H 0.53027 0.88694 0.88692 0.0
H669 H 0.52017 0.91612 0.82414 0.0
H670 H 0.50955 0.88043 0.80901 0.0
H671 H 0.44501 0.74951 0.85784 0.0
H672 H 0.47752 0.76693 0.84225 0.0
H673 H 0.44572 0.82956 0.84636 0.0
H674 H 0.4143 0.81258 0.86321 0.0
H675 H 0.48372 0.83643 0.85515 0.0
H676 H 0.45025 0.79675 0.79708 0.0
H677 H 0.43521 0.76458 0.77821 0.0
H678 H 0.49767 0.73324 0.78117 0.0
H679 H 0.51303 0.76513 0.80031 0.0
C680 C 0.55799 0.85623 0.77032 0.0
C681 C 0.5757 0.86161 0.78382 0.0
C682 C 0.53908 0.84699 0.77925 0.0
C683 C 0.5377 0.84281 0.80175 0.0
C684 C 0.55554 0.84798 0.8151 0.0
C685 C 0.57417 0.85754 0.8063 0.0
C686 C 0.51791 0.83269 0.81147 0.0
C687 C 0.50964 0.81336 0.80241 0.0
C688 C 0.50791 0.8414 0.83035 0.0
C689 C 0.51417 0.86297 0.83939 0.0
C690 C 0.51988 0.86509 0.86148 0.0
C691 C 0.52578 0.88542 0.86993 0.0
C692 C 0.52594 0.90378 0.85646 0.0
C693 C 0.52013 0.90187 0.83453 0.0
C694 C 0.5142 0.88159 0.82601 0.0
C695 C 0.44526 0.76703 0.85577 0.0
C696 C 0.4272 0.77968 0.86186 0.0
C697 C 0.4637 0.77697 0.8466 0.0
C698 C 0.46402 0.79959 0.84264 0.0
C699 C 0.44609 0.81215 0.84925 0.0
C700 C 0.42805 0.80237 0.85894 0.0
C701 C 0.48272 0.81043 0.83151 0.0
C702 C 0.49093 0.82988 0.8404 0.0
C703 C 0.49187 0.8024 0.81187 0.0
C704 C 0.48272 0.78322 0.80032 0.0
C705 C 0.46074 0.78293 0.79383 0.0
C706 C 0.45216 0.76476 0.78307 0.0
C707 C 0.46546 0.74685 0.77855 0.0
C708 C 0.48738 0.74711 0.78472 0.0
C709 C 0.49604 0.76523 0.79551 0.0
H710 H 0.45879 0.7328 0.77022 0.0
H711 H 0.53052 0.9195 0.86304 0.0
H712 H 0.12806 0.22012 0.55461 0.0
H713 H 0.14849 0.20125 0.52617 0.0
H714 H 0.20218 0.24579 0.53498 0.0
H715 H 0.18161 0.26503 0.56325 0.0
H716 H 0.19793 0.23118 0.49175 0.0
H717 H 0.19948 0.20157 0.56417 0.0
H718 H 0.18351 0.18714 0.5979 0.0
H719 H 0.15531 0.13382 0.56258 0.0
H720 H 0.17037 0.14837 0.5283 0.0
H721 H 0.26997 0.15888 0.44078 0.0
H722 H 0.2569 0.18039 0.47173 0.0
H723 H 0.19903 0.14052 0.47494 0.0
H724 H 0.21221 0.1187 0.44454 0.0
H725 H 0.2098 0.15443 0.51453 0.0
H726 H 0.20055 0.18616 0.44316 0.0
H727 H 0.21442 0.19866 0.4078 0.0
H728 H 0.25501 0.24589 0.43975 0.0
H729 H 0.24161 0.23328 0.47557 0.0
C730 C 0.14386 0.22643 0.5499 0.0
C731 C 0.15336 0.24387 0.56131 0.0
C732 C 0.15558 0.21554 0.53375 0.0
C733 C 0.17708 0.22174 0.52898 0.0
C734 C 0.18567 0.24065 0.53859 0.0
C735 C 0.17385 0.2517 0.55466 0.0
C736 C 0.19133 0.20695 0.51626 0.0
C737 C 0.20081 0.21452 0.49691 0.0
C738 C 0.19488 0.18509 0.52289 0.0
C739 C 0.18587 0.17625 0.54356 0.0
C740 C 0.18961 0.18695 0.56348 0.0
C741 C 0.18074 0.17872 0.58275 0.0
C742 C 0.16841 0.15959 0.58246 0.0
C743 C 0.16484 0.14866 0.56281 0.0
C744 C 0.1735 0.15692 0.54342 0.0
C745 C 0.25487 0.15419 0.44862 0.0
C746 C 0.24193 0.13735 0.44001 0.0
C747 C 0.24733 0.16661 0.4662 0.0
C748 C 0.22669 0.16245 0.4752 0.0
C749 C 0.21491 0.14416 0.46813 0.0
C750 C 0.22248 0.13169 0.4507 0.0
C751 C 0.21594 0.17847 0.48979 0.0
C752 C 0.20716 0.17118 0.50956 0.0
C753 C 0.21274 0.20044 0.48341 0.0
C754 C 0.22027 0.20863 0.462 0.0
C755 C 0.21253 0.19913 0.44266 0.0
C756 C 0.22035 0.2062 0.42251 0.0
C757 C 0.2357 0.223 0.42144 0.0
C758 C 0.24321 0.23281 0.44059 0.0
C759 C 0.2355 0.2257 0.46084 0.0
H760 H 0.24164 0.22851 0.40577 0.0
H761 H 0.16167 0.15321 0.59746 0.0
H762 H 0.73003 0.18261 0.569 0.0
H763 H 0.7501 0.20346 0.54149 0.0
H764 H 0.80104 0.1551 0.54187 0.0
H765 H 0.78111 0.13419 0.56928 0.0
H766 H 0.81669 0.19628 0.54871 0.0
H767 H 0.76954 0.16022 0.49826 0.0
H768 H 0.73476 0.14802 0.48227 0.0
H769 H 0.71527 0.21455 0.47303 0.0
H770 H 0.74979 0.22718 0.48935 0.0
H771 H 0.87812 0.23036 0.45645 0.0
H772 H 0.85772 0.21297 0.48581 0.0
H773 H 0.80738 0.26162 0.47986 0.0
H774 H 0.82766 0.27902 0.45027 0.0
H775 H 0.79081 0.22143 0.47644 0.0
H776 H 0.83806 0.25785 0.52595 0.0
H777 H 0.87262 0.27032 0.54224 0.0
H778 H 0.89156 0.20396 0.55365 0.0
H779 H 0.85724 0.19106 0.53714 0.0
C780 C 0.7452 0.17611 0.56277 0.0
C781 C 0.75397 0.15675 0.57131 0.0
C782 C 0.75669 0.18808 0.54709 0.0
C783 C 0.77711 0.18087 0.5397 0.0
C784 C 0.78536 0.161 0.54742 0.0
C785 C 0.77385 0.14899 0.56298 0.0
C786 C 0.79063 0.19479 0.52524 0.0
C787 C 0.81116 0.20158 0.53277 0.0
C788 C 0.78311 0.2022 0.50476 0.0
C789 C 0.76215 0.19465 0.49531 0.0
C790 C 0.75773 0.17226 0.4931 0.0
C791 C 0.73807 0.16526 0.48393 0.0
C792 C 0.72278 0.18049 0.47672 0.0
C793 C 0.72711 0.20277 0.47867 0.0
C794 C 0.74672 0.20986 0.48789 0.0
C795 C 0.86306 0.2378 0.46186 0.0
C796 C 0.85446 0.25601 0.45095 0.0
C797 C 0.85138 0.2278 0.47867 0.0
C798 C 0.83093 0.2359 0.48497 0.0
C799 C 0.82307 0.25502 0.47518 0.0
C800 C 0.83478 0.26508 0.4584 0.0
C801 C 0.81685 0.22309 0.49996 0.0
C802 C 0.79627 0.21634 0.49246 0.0
C803 C 0.82427 0.21583 0.52054 0.0
C804 C 0.84517 0.22348 0.53005 0.0
C805 C 0.84971 0.2459 0.53166 0.0
C806 C 0.86923 0.25305 0.54102 0.0
C807 C 0.8843 0.23794 0.54891 0.0
C808 C 0.87988 0.21565 0.5475 0.0
C809 C 0.86039 0.20841 0.53816 0.0
H810 H 0.89939 0.24351 0.55618 0.0
H811 H 0.70761 0.17504 0.46954 0.0
H812 H 0.78545 0.87307 0.4428 0.0
H813 H 0.80284 0.84861 0.46879 0.0
H814 H 0.74732 0.80559 0.46594 0.0
H815 H 0.72976 0.82998 0.43953 0.0
H816 H 0.76669 0.8115 0.509 0.0
H817 H 0.78632 0.79056 0.43684 0.0
H818 H 0.79874 0.79593 0.39905 0.0
H819 H 0.85972 0.82126 0.42225 0.0
H820 H 0.8476 0.81619 0.46025 0.0
H821 H 0.82988 0.73132 0.56236 0.0
H822 H 0.80768 0.74596 0.53261 0.0
H823 H 0.85596 0.79575 0.52104 0.0
H824 H 0.87817 0.78128 0.55074 0.0
H825 H 0.83684 0.78091 0.48273 0.0
H826 H 0.81461 0.80744 0.554 0.0
H827 H 0.80184 0.80391 0.59188 0.0
H828 H 0.74557 0.76838 0.56999 0.0
H829 H 0.75807 0.77179 0.53189 0.0
C830 C 0.77664 0.85871 0.44809 0.0
C831 C 0.7563 0.85336 0.43897 0.0
C832 C 0.78669 0.84467 0.46282 0.0
C833 C 0.77656 0.8251 0.46882 0.0
C834 C 0.75544 0.82057 0.46129 0.0
C835 C 0.74538 0.83459 0.44635 0.0
C836 C 0.78879 0.809 0.48192 0.0
C837 C 0.78176 0.80438 0.50311 0.0
C838 C 0.80858 0.79998 0.47424 0.0
C839 C 0.81597 0.80315 0.45141 0.0
C840 C 0.80231 0.79746 0.4339 0.0
C841 C 0.80931 0.80042 0.41243 0.0
C842 C 0.82997 0.80901 0.40823 0.0
C843 C 0.84371 0.81462 0.42552 0.0
C844 C 0.8368 0.81166 0.44704 0.0
C845 C 0.83611 0.74494 0.553 0.0
C846 C 0.85568 0.75528 0.55897 0.0
C847 C 0.82332 0.75338 0.53613 0.0
C848 C 0.83001 0.77217 0.52492 0.0
C849 C 0.85047 0.78129 0.52956 0.0
C850 C 0.86315 0.77299 0.54652 0.0
C851 C 0.81495 0.78373 0.50999 0.0
C852 C 0.82151 0.78759 0.48845 0.0
C853 C 0.79471 0.79204 0.51733 0.0
C854 C 0.7874 0.78961 0.54019 0.0
C855 C 0.79963 0.7987 0.55731 0.0
C856 C 0.7924 0.79676 0.57881 0.0
C857 C 0.77296 0.78579 0.58338 0.0
C858 C 0.76066 0.77681 0.56643 0.0
C859 C 0.76778 0.77878 0.54488 0.0
H860 H 0.76733 0.78431 0.60001 0.0
H861 H 0.83538 0.81125 0.39159 0.0
H862 H 0.11148 0.79812 0.43345 0.0
H863 H 0.13333 0.81721 0.4607 0.0
H864 H 0.17553 0.76132 0.46628 0.0
H865 H 0.15351 0.74195 0.4392 0.0
H866 H 0.17108 0.78175 0.50513 0.0
H867 H 0.18978 0.8011 0.43279 0.0
H868 H 0.18346 0.81275 0.39487 0.0
H869 H 0.15836 0.87398 0.4175 0.0
H870 H 0.16424 0.86257 0.45562 0.0
H871 H 0.25835 0.84297 0.54966 0.0
H872 H 0.23974 0.82229 0.52101 0.0
H873 H 0.18806 0.86982 0.52009 0.0
H874 H 0.20638 0.8904 0.54894 0.0
H875 H 0.20028 0.85207 0.47761 0.0
H876 H 0.18218 0.82886 0.55186 0.0
H877 H 0.19177 0.81498 0.58837 0.0
H878 H 0.22041 0.75805 0.55956 0.0
H879 H 0.21138 0.77177 0.52288 0.0
C880 C 0.12501 0.78963 0.44096 0.0
C881 C 0.13093 0.76863 0.43403 0.0
C882 C 0.13759 0.80063 0.4564 0.0
C883 C 0.15641 0.79091 0.46501 0.0
C884 C 0.16119 0.76919 0.45966 0.0
C885 C 0.14852 0.7581 0.44426 0.0
C886 C 0.17194 0.80405 0.47807 0.0
C887 C 0.17766 0.79698 0.49902 0.0
C888 C 0.18071 0.82385 0.46999 0.0
C889 C 0.17726 0.83089 0.44709 0.0
C890 C 0.18276 0.81699 0.4297 0.0
C891 C 0.17927 0.82355 0.40816 0.0
C892 C 0.17046 0.84406 0.40378 0.0
C893 C 0.16516 0.85808 0.42093 0.0
C894 C 0.16859 0.85158 0.44251 0.0
C895 C 0.24342 0.84942 0.54282 0.0
C896 C 0.23373 0.86823 0.55158 0.0
C897 C 0.23273 0.8375 0.52658 0.0
C898 C 0.21239 0.84439 0.51873 0.0
C899 C 0.20371 0.86422 0.52602 0.0
C900 C 0.21421 0.87597 0.54246 0.0
C901 C 0.19901 0.82995 0.50479 0.0
C902 C 0.19374 0.83679 0.48365 0.0
C903 C 0.1911 0.80968 0.51249 0.0
C904 C 0.19634 0.80146 0.53461 0.0
C905 C 0.19072 0.81349 0.5533 0.0
C906 C 0.19605 0.80565 0.57403 0.0
C907 C 0.20676 0.78569 0.57624 0.0
C908 C 0.21215 0.77353 0.55779 0.0
C909 C 0.20695 0.78133 0.53704 0.0
H910 H 0.21081 0.77956 0.59224 0.0
H911 H 0.16778 0.8491 0.38709 0.0
H912 H 0.67564 0.94292 0.78121 0.0
H913 H 0.69444 0.97463 0.76559 0.0
H914 H 0.64572 0.97868 0.71517 0.0
H915 H 0.62663 0.94751 0.7308 0.0
H916 H 0.69202 0.97058 0.70209 0.0
H917 H 0.64593 0.01736 0.74545 0.0
H918 H 0.63019 0.03188 0.77941 0.0
H919 H 0.69409 0.04924 0.80209 0.0
H920 H 0.71028 0.03446 0.76839 0.0
H921 H 0.71157 0.06297 0.63713 0.0
H922 H 0.6987 0.03288 0.65958 0.0
H923 H 0.74426 0.05082 0.71008 0.0
H924 H 0.75732 0.0811 0.68746 0.0
H925 H 0.70389 0.04678 0.72629 0.0
H926 H 0.75015 0.00318 0.68238 0.0
H927 H 0.76674 0.98861 0.64884 0.0
H928 H 0.70442 0.96455 0.62795 0.0
H929 H 0.68735 0.97929 0.6612 0.0
C930 C 0.66849 0.95109 0.76729 0.0
C931 C 0.64976 0.94259 0.75713 0.0
C932 C 0.6793 0.96912 0.75835 0.0
C933 C 0.67155 0.97876 0.73912 0.0
C934 C 0.65197 0.97137 0.72998 0.0
C935 C 0.64104 0.95359 0.73902 0.0
C936 C 0.68513 0.99445 0.72683 0.0
C937 C 0.69452 0.98732 0.70725 0.0
C938 C 0.68904 0.01593 0.73412 0.0
C939 C 0.67935 0.02444 0.75455 0.0
C940 C 0.65667 0.02395 0.75781 0.0
C941 C 0.64765 0.03232 0.77698 0.0
C942 C 0.66114 0.04138 0.79295 0.0
C943 C 0.68367 0.04214 0.78975 0.0
C944 C 0.69277 0.03377 0.77062 0.0
C945 C 0.71932 0.06017 0.65275 0.0
C946 C 0.73526 0.07458 0.66069 0.0
C947 C 0.7119 0.04295 0.66561 0.0
C948 C 0.72044 0.03961 0.68658 0.0
C949 C 0.7373 0.0532 0.69403 0.0
C950 C 0.74475 0.07047 0.68112 0.0
C951 C 0.71043 0.02309 0.70116 0.0
C952 C 0.70173 0.02998 0.72121 0.0
C953 C 0.70728 0.00126 0.6944 0.0
C954 C 0.71743 0.99251 0.67424 0.0
C955 C 0.73993 0.99497 0.67055 0.0
C956 C 0.74943 0.98664 0.6516 0.0
C957 C 0.73664 0.9757 0.63625 0.0
C958 C 0.71431 0.97305 0.63984 0.0
C959 C 0.70471 0.98137 0.65875 0.0
H960 H 0.74403 0.96925 0.6216 0.0
H961 H 0.65412 0.04789 0.80776 0.0
H962 H 0.94356 0.7113 0.61394 0.0
H963 H 0.97454 0.69548 0.63339 0.0
H964 H 0.97066 0.74655 0.6815 0.0
H965 H 0.93977 0.76261 0.66201 0.0
H966 H 0.01596 0.71014 0.64896 0.0
H967 H 0.97453 0.71969 0.73164 0.0
H968 H 0.93804 0.72509 0.74765 0.0
H969 H 0.90886 0.69226 0.69313 0.0
H970 H 0.94517 0.68653 0.67692 0.0
H971 H 0.06202 0.6623 0.7568 0.0
H972 H 0.03471 0.68532 0.73894 0.0
H973 H 0.03717 0.64418 0.682 0.0
H974 H 0.0645 0.6213 0.69959 0.0
H975 H 0.99465 0.68002 0.72099 0.0
H976 H 0.03862 0.67564 0.63681 0.0
H977 H 0.07603 0.67133 0.62269 0.0
H978 H 0.10199 0.69657 0.68257 0.0
H979 H 0.06479 0.70128 0.69695 0.0
C980 C 0.94974 0.71954 0.62828 0.0
C981 C 0.93918 0.73811 0.63652 0.0
C982 C 0.96742 0.71048 0.63939 0.0
C983 C 0.97462 0.71965 0.65905 0.0
C984 C 0.96518 0.73913 0.66645 0.0
C985 C 0.94764 0.74836 0.6552 0.0
C986 C 0.99036 0.70756 0.67279 0.0
C987 C 0.01131 0.70345 0.66465 0.0
C988 C 0.98447 0.69944 0.69357 0.0
C989 C 0.96252 0.70293 0.70297 0.0
C990 C 0.96031 0.71365 0.72308 0.0
C991 C 0.93967 0.71677 0.73219 0.0
C992 C 0.92115 0.70911 0.72138 0.0
C993 C 0.9232 0.69831 0.70143 0.0
C994 C 0.94381 0.69516 0.69225 0.0
C995 C 0.05631 0.65785 0.7407 0.0
C996 C 0.06551 0.64009 0.72953 0.0
C997 C 0.04081 0.67109 0.73047 0.0
C998 C 0.03438 0.66678 0.70894 0.0
C999 C 0.04232 0.64809 0.69843 0.0
C1000 C 0.05778 0.63491 0.70859 0.0
C1001 C 0.02012 0.68218 0.69698 0.0
C1002 C 0.99946 0.68691 0.70543 0.0
C1003 C 0.02643 0.6912 0.67667 0.0
C1004 C 0.04889 0.68861 0.66802 0.0
C1005 C 0.05231 0.68034 0.64693 0.0
C1006 C 0.07349 0.67781 0.6389 0.0
C1007 C 0.09138 0.68359 0.65176 0.0
C1008 C 0.08813 0.69199 0.67267 0.0
C1009 C 0.06701 0.69456 0.68078 0.0
H1010 H 0.10776 0.68162 0.64552 0.0
H1011 H 0.90524 0.71147 0.72855 0.0
H1012 H 0.32751 0.05875 0.76491 0.0
H1013 H 0.30466 0.03243 0.74541 0.0
H1014 H 0.35587 0.02282 0.69831 0.0
H1015 H 0.37887 0.04881 0.71775 0.0
H1016 H 0.31553 0.03866 0.68104 0.0
H1017 H 0.34276 0.98215 0.72885 0.0
H1018 H 0.34989 0.96499 0.76447 0.0
H1019 H 0.28136 0.96503 0.77863 0.0
H1020 H 0.27385 0.98248 0.7432 0.0
H1021 H 0.28313 0.9528 0.61255 0.0
H1022 H 0.2986 0.98068 0.63613 0.0
H1023 H 0.24535 0.97227 0.68129 0.0
H1024 H 0.22999 0.94386 0.65786 0.0
H1025 H 0.28233 0.96801 0.70191 0.0
H1026 H 0.25379 0.02128 0.65414 0.0
H1027 H 0.24512 0.03969 0.6195 0.0
H1028 H 0.31336 0.04786 0.60631 0.0
H1029 H 0.32246 0.02924 0.64072 0.0
C1030 C 0.33424 0.05039 0.7509 0.0
C1031 C 0.35492 0.05604 0.74273 0.0
C1032 C 0.3211 0.03545 0.73971 0.0
C1033 C 0.32849 0.026 0.72025 0.0
C1034 C 0.34983 0.03013 0.7132 0.0
C1035 C 0.36301 0.04487 0.72445 0.0
C1036 C 0.31331 0.01396 0.70584 0.0
C1037 C 0.30842 0.02308 0.68544 0.0
C1038 C 0.30324 0.99425 0.71214 0.0
C1039 C 0.30777 0.98388 0.73349 0.0
C1040 C 0.32923 0.97873 0.73966 0.0
C1041 C 0.33334 0.96889 0.75979 0.0
C1042 C 0.3161 0.96399 0.77384 0.0
C1043 C 0.29471 0.96888 0.76775 0.0
C1044 C 0.29052 0.97873 0.74764 0.0
C1045 C 0.27428 0.95738 0.62712 0.0
C1046 C 0.25542 0.946 0.63341 0.0
C1047 C 0.28316 0.97339 0.64063 0.0
C1048 C 0.2732 0.97856 0.66058 0.0
C1049 C 0.25338 0.96847 0.66604 0.0
C1050 C 0.2445 0.95238 0.65252 0.0
C1051 C 0.28494 0.99237 0.67667 0.0
C1052 C 0.28916 0.9837 0.69747 0.0
C1053 C 0.29417 0.0127 0.67086 0.0
C1054 C 0.28881 0.02369 0.64998 0.0
C1055 C 0.26696 0.02682 0.64376 0.0
C1056 C 0.26197 0.03734 0.62419 0.0
C1057 C 0.27868 0.04491 0.6107 0.0
C1058 C 0.30043 0.04198 0.61677 0.0
C1059 C 0.30551 0.03147 0.63633 0.0
H1060 H 0.27478 0.05307 0.59556 0.0
H1061 H 0.31931 0.95636 0.78941 0.0
H1062 H 0.07386 0.23909 0.66408 0.0
H1063 H 0.04323 0.25548 0.68376 0.0
H1064 H 0.04025 0.30706 0.6361 0.0
H1065 H 0.07069 0.29079 0.61642 0.0
H1066 H 0.04636 0.29568 0.70219 0.0
H1067 H 0.98928 0.32787 0.63384 0.0
H1068 H 0.97518 0.31601 0.59811 0.0
H1069 H 0.9849 0.24909 0.61603 0.0
H1070 H 0.99875 0.26052 0.65198 0.0
H1071 H 0.95331 0.38349 0.70561 0.0
H1072 H 0.98274 0.36295 0.6885 0.0
H1073 H 0.98039 0.31586 0.74061 0.0
H1074 H 0.95088 0.33636 0.75788 0.0
H1075 H 0.97548 0.32185 0.67369 0.0
H1076 H 0.03318 0.29074 0.74253 0.0
H1077 H 0.04959 0.30357 0.77691 0.0
H1078 H 0.04042 0.36998 0.75699 0.0
H1079 H 0.02435 0.3576 0.72235 0.0
C1080 C 0.06613 0.25346 0.65737 0.0
C1081 C 0.07466 0.26371 0.63875 0.0
C1082 C 0.04878 0.26292 0.66874 0.0
C1083 C 0.03952 0.28252 0.66144 0.0
C1084 C 0.04699 0.29182 0.64193 0.0
C1085 C 0.06439 0.2825 0.63069 0.0
C1086 C 0.0239 0.29467 0.67527 0.0
C1087 C 0.03065 0.30109 0.69618 0.0
C1088 C 0.00371 0.30215 0.6671 0.0
C1089 C 0.99524 0.29509 0.64556 0.0
C1090 C 0.98832 0.31062 0.6302 0.0
C1091 C 0.98039 0.30397 0.60989 0.0
C1092 C 0.9792 0.28181 0.60478 0.0
C1093 C 0.9859 0.26625 0.61998 0.0
C1094 C 0.99384 0.27281 0.64031 0.0
C1095 C 0.95949 0.36914 0.71381 0.0
C1096 C 0.94963 0.36142 0.73298 0.0
C1097 C 0.97623 0.35734 0.70393 0.0
C1098 C 0.98355 0.33775 0.71314 0.0
C1099 C 0.97502 0.33097 0.73325 0.0
C1100 C 0.95819 0.34274 0.74314 0.0
C1101 C 0.99817 0.32329 0.70048 0.0
C1102 C 0.99114 0.31638 0.67981 0.0
C1103 C 0.01819 0.31553 0.70883 0.0
C1104 C 0.02718 0.32319 0.72996 0.0
C1105 C 0.03459 0.30808 0.74551 0.0
C1106 C 0.0439 0.31528 0.76503 0.0
C1107 C 0.04593 0.33757 0.76919 0.0
C1108 C 0.03866 0.35272 0.75384 0.0
C1109 C 0.02938 0.34561 0.73427 0.0
H1110 H 0.05322 0.34311 0.78427 0.0
H1111 H 0.97306 0.2767 0.58905 0.0
H1112 H 0.70206 0.9411 0.38936 0.0
H1113 H 0.68398 0.97021 0.36912 0.0
H1114 H 0.73749 0.97192 0.32356 0.0
H1115 H 0.7559 0.94319 0.34403 0.0
H1116 H 0.72081 0.01146 0.32825 0.0
H1117 H 0.69365 0.94036 0.31415 0.0
H1118 H 0.67853 0.90432 0.32297 0.0
H1119 H 0.62079 0.93419 0.34865 0.0
H1120 H 0.63577 0.9706 0.34036 0.0
H1121 H 0.66357 0.05432 0.23855 0.0
H1122 H 0.68108 0.02559 0.2599 0.0
H1123 H 0.63379 0.0345 0.31107 0.0
H1124 H 0.61631 0.06346 0.28995 0.0
H1125 H 0.64721 0.9893 0.30278 0.0
H1126 H 0.67772 0.06165 0.3159 0.0
H1127 H 0.69476 0.0962 0.30444 0.0
H1128 H 0.74804 0.06093 0.27597 0.0
H1129 H 0.73117 0.02614 0.28706 0.0
C1130 C 0.71033 0.94821 0.37547 0.0
C1131 C 0.73027 0.9397 0.36812 0.0
C1132 C 0.69989 0.9647 0.3638 0.0
C1133 C 0.70907 0.9727 0.34444 0.0
C1134 C 0.73 0.9658 0.33833 0.0
C1135 C 0.74057 0.94944 0.35013 0.0
C1136 C 0.69606 0.9866 0.32955 0.0
C1137 C 0.7048 0.00651 0.32257 0.0
C1138 C 0.67516 0.9801 0.32202 0.0
C1139 C 0.66599 0.95825 0.32693 0.0
C1140 C 0.67785 0.93929 0.32194 0.0
C1141 C 0.66932 0.91877 0.32688 0.0
C1142 C 0.64881 0.91692 0.33656 0.0
C1143 C 0.63674 0.93564 0.34126 0.0
C1144 C 0.64524 0.95624 0.33645 0.0
C1145 C 0.65645 0.04969 0.25403 0.0
C1146 C 0.63868 0.06125 0.26268 0.0
C1147 C 0.66657 0.03338 0.26625 0.0
C1148 C 0.65892 0.02826 0.28718 0.0
C1149 C 0.63997 0.03833 0.29499 0.0
C1150 C 0.62998 0.05483 0.28288 0.0
C1151 C 0.67191 0.01417 0.30178 0.0
C1152 C 0.66317 0.99421 0.3086 0.0
C1153 C 0.69301 0.02037 0.30877 0.0
C1154 C 0.70308 0.0413 0.30211 0.0
C1155 C 0.69297 0.06126 0.30702 0.0
C1156 C 0.70262 0.08089 0.30062 0.0
C1157 C 0.72245 0.08074 0.28942 0.0
C1158 C 0.73268 0.061 0.28462 0.0
C1159 C 0.72309 0.04133 0.29097 0.0
H1160 H 0.72997 0.0959 0.2845 0.0
H1161 H 0.64219 0.90098 0.34023 0.0
H1162 H 0.9393 0.60963 0.29324 0.0
H1163 H 0.96868 0.632 0.30822 0.0
H1164 H 0.96548 0.67408 0.25204 0.0
H1165 H 0.93607 0.6517 0.23689 0.0
H1166 H 0.00967 0.64797 0.29519 0.0
H1167 H 0.96567 0.72718 0.27337 0.0
H1168 H 0.92906 0.73987 0.26267 0.0
H1169 H 0.89997 0.68728 0.29853 0.0
H1170 H 0.93633 0.67449 0.30969 0.0
H1171 H 0.06691 0.74918 0.31909 0.0
H1172 H 0.04049 0.7268 0.29926 0.0
H1173 H 0.01115 0.70729 0.36 0.0
H1174 H 0.03838 0.72876 0.3801 0.0
H1175 H 0.98386 0.72229 0.31407 0.0
H1176 H 0.03584 0.67405 0.35158 0.0
H1177 H 0.0726 0.6608 0.36066 0.0
H1178 H 0.08549 0.64922 0.29289 0.0
H1179 H 0.04931 0.6638 0.28328 0.0
C1180 C 0.94535 0.62322 0.28372 0.0
C1181 C 0.93528 0.62902 0.26399 0.0
C1182 C 0.96212 0.636 0.29232 0.0
C1183 C 0.96892 0.65491 0.28144 0.0
C1184 C 0.96025 0.65967 0.2608 0.0
C1185 C 0.94358 0.64676 0.25208 0.0
C1186 C 0.98315 0.67076 0.29286 0.0
C1187 C 0.00408 0.66424 0.29925 0.0
C1188 C 0.97577 0.69196 0.29822 0.0
C1189 C 0.95374 0.69973 0.2921 0.0
C1190 C 0.95144 0.71837 0.27901 0.0
C1191 C 0.93074 0.72556 0.27284 0.0
C1192 C 0.91221 0.71428 0.27974 0.0
C1193 C 0.91432 0.69586 0.29296 0.0
C1194 C 0.93498 0.68865 0.29924 0.0
C1195 C 0.05439 0.74071 0.32822 0.0
C1196 C 0.05455 0.74081 0.35114 0.0
C1197 C 0.0395 0.72774 0.31686 0.0
C1198 C 0.02423 0.71516 0.32824 0.0
C1199 C 0.02305 0.71676 0.35102 0.0
C1200 C 0.03841 0.72916 0.36245 0.0
C1201 C 0.01034 0.69946 0.31639 0.0
C1202 C 0.9895 0.70606 0.30988 0.0
C1203 C 0.01786 0.67837 0.31087 0.0
C1204 C 0.04003 0.67062 0.31667 0.0
C1205 C 0.04674 0.6694 0.33854 0.0
C1206 C 0.06748 0.66156 0.3438 0.0
C1207 C 0.08145 0.65435 0.32735 0.0
C1208 C 0.07473 0.65502 0.30561 0.0
C1209 C 0.05419 0.66325 0.30024 0.0
H1210 H 0.09745 0.64816 0.33144 0.0
H1211 H 0.89624 0.71993 0.27493 0.0
H1212 H 0.33635 0.94511 0.23216 0.0
H1213 H 0.31291 0.97167 0.25038 0.0
H1214 H 0.35222 0.96665 0.30847 0.0
H1215 H 0.37544 0.93982 0.2905 0.0
H1216 H 0.30944 0.9602 0.31701 0.0
H1217 H 0.35264 0.01223 0.27616 0.0
H1218 H 0.36824 0.02707 0.24222 0.0
H1219 H 0.30391 0.03695 0.21655 0.0
H1220 H 0.28791 0.02194 0.25025 0.0
H1221 H 0.2798 0.05217 0.37995 0.0
H1222 H 0.2956 0.02228 0.35899 0.0
H1223 H 0.24913 0.03358 0.30747 0.0
H1224 H 0.23311 0.06348 0.3285 0.0
H1225 H 0.29112 0.0351 0.29287 0.0
H1226 H 0.24748 0.9865 0.33383 0.0
H1227 H 0.23053 0.969 0.36576 0.0
H1228 H 0.29366 0.95074 0.38974 0.0
H1229 H 0.31104 0.96843 0.35813 0.0
C1230 C 0.34038 0.95015 0.24859 0.0
C1231 C 0.3577 0.94037 0.25993 0.0
C1232 C 0.3269 0.96525 0.25902 0.0
C1233 C 0.33074 0.97101 0.28084 0.0
C1234 C 0.34886 0.96227 0.2917 0.0
C1235 C 0.36223 0.94711 0.28134 0.0
C1236 C 0.31521 0.98504 0.29289 0.0
C1237 C 0.30564 0.97671 0.31193 0.0
C1238 C 0.30947 0.00611 0.28561 0.0
C1239 C 0.31908 0.01575 0.26564 0.0
C1240 C 0.34182 0.01743 0.26322 0.0
C1241 C 0.35074 0.02587 0.24402 0.0
C1242 C 0.33708 0.03284 0.22719 0.0
C1243 C 0.31447 0.03147 0.22957 0.0
C1244 C 0.30547 0.02306 0.24873 0.0
C1245 C 0.27248 0.04782 0.36448 0.0
C1246 C 0.25527 0.06017 0.35584 0.0
C1247 C 0.28153 0.03074 0.3525 0.0
C1248 C 0.2736 0.02578 0.33161 0.0
C1249 C 0.2555 0.03718 0.32354 0.0
C1250 C 0.24626 0.05413 0.33565 0.0
C1251 C 0.28586 0.01052 0.31746 0.0
C1252 C 0.29478 0.01857 0.29796 0.0
C1253 C 0.29091 0.98909 0.32424 0.0
C1254 C 0.28059 0.97903 0.34369 0.0
C1255 C 0.25779 0.97902 0.34605 0.0
C1256 C 0.24809 0.96899 0.36406 0.0
C1257 C 0.26101 0.95882 0.3798 0.0
C1258 C 0.28367 0.95866 0.37756 0.0
C1259 C 0.29345 0.96868 0.35959 0.0
H1260 H 0.25347 0.95102 0.3937 0.0
H1261 H 0.344 0.03941 0.21237 0.0
H1262 H 0.05675 0.3787 0.28579 0.0
H1263 H 0.02638 0.35943 0.30275 0.0
H1264 H 0.03302 0.30728 0.25614 0.0
H1265 H 0.06355 0.32658 0.23893 0.0
H1266 H 0.98834 0.31665 0.26915 0.0
H1267 H 0.05806 0.30094 0.30006 0.0
H1268 H 0.09397 0.31008 0.31529 0.0
H1269 H 0.06334 0.34359 0.36855 0.0
H1270 H 0.02713 0.33507 0.35324 0.0
H1271 H 0.92931 0.24524 0.33932 0.0
H1272 H 0.95923 0.25827 0.31628 0.0
H1273 H 0.96892 0.31276 0.35967 0.0
H1274 H 0.93944 0.29967 0.38286 0.0
H1275 H 0.00685 0.29771 0.34561 0.0
H1276 H 0.93711 0.31618 0.31294 0.0
H1277 H 0.90109 0.30763 0.29718 0.0
H1278 H 0.93156 0.26893 0.24751 0.0
H1279 H 0.96774 0.27697 0.26317 0.0
C1280 C 0.05137 0.36344 0.27872 0.0
C1281 C 0.06269 0.35404 0.26118 0.0
C1282 C 0.03404 0.35242 0.28847 0.0
C1283 C 0.02775 0.33177 0.28093 0.0
C1284 C 0.03769 0.32319 0.26221 0.0
C1285 C 0.05511 0.33425 0.25239 0.0
C1286 C 0.01278 0.31828 0.29426 0.0
C1287 C 0.99245 0.3122 0.28576 0.0
C1288 C 0.01817 0.31258 0.31595 0.0
C1289 C 0.0399 0.3175 0.3254 0.0
C1290 C 0.05898 0.31038 0.31493 0.0
C1291 C 0.07941 0.31546 0.3236 0.0
C1292 C 0.08098 0.32742 0.34292 0.0
C1293 C 0.0621 0.33433 0.35359 0.0
C1294 C 0.04161 0.32939 0.3449 0.0
C1295 C 0.93821 0.25968 0.34422 0.0
C1296 C 0.93195 0.27152 0.36283 0.0
C1297 C 0.95514 0.26723 0.33092 0.0
C1298 C 0.96596 0.28677 0.33598 0.0
C1299 C 0.9607 0.29773 0.35535 0.0
C1300 C 0.94386 0.2902 0.36863 0.0
C1301 C 0.98205 0.29657 0.32081 0.0
C1302 C 0.00272 0.30193 0.32895 0.0
C1303 C 0.97688 0.30161 0.29884 0.0
C1304 C 0.95511 0.29696 0.28938 0.0
C1305 C 0.93612 0.30572 0.29875 0.0
C1306 C 0.91567 0.30099 0.28982 0.0
C1307 C 0.91405 0.28769 0.2714 0.0
C1308 C 0.93285 0.27918 0.26181 0.0
C1309 C 0.95332 0.28382 0.2707 0.0
H1310 H 0.89825 0.28395 0.26453 0.0
H1311 H 0.09678 0.33134 0.34967 0.0
H1312 H 0.76542 0.65714 0.94567 0.0
H1313 H 0.74743 0.67863 0.97401 0.0
H1314 H 0.6977 0.62926 0.97993 0.0
H1315 H 0.7155 0.60777 0.95162 0.0
H1316 H 0.68118 0.66884 0.96874 0.0
H1317 H 0.73037 0.64018 0.0222 0.0
H1318 H 0.76579 0.63123 0.03891 0.0
H1319 H 0.78298 0.69906 0.03989 0.0
H1320 H 0.74774 0.70841 0.02294 0.0
H1321 H 0.61973 0.7077 0.05824 0.0
H1322 H 0.64116 0.68863 0.03077 0.0
H1323 H 0.68756 0.7415 0.02999 0.0
H1324 H 0.66619 0.76067 0.05771 0.0
H1325 H 0.70704 0.70249 0.03752 0.0
H1326 H 0.65692 0.73112 0.98543 0.0
H1327 H 0.62098 0.73982 0.96972 0.0
H1328 H 0.60539 0.67167 0.96646 0.0
H1329 H 0.64113 0.66256 0.98243 0.0
C1330 C 0.75113 0.65047 0.9536 0.0
C1331 C 0.7417 0.63092 0.94623 0.0
C1332 C 0.74083 0.66281 0.96976 0.0
C1333 C 0.72108 0.65565 0.97883 0.0
C1334 C 0.71283 0.63515 0.97297 0.0
C1335 C 0.72309 0.62283 0.95687 0.0
C1336 C 0.7075 0.67066 0.99195 0.0
C1337 C 0.68672 0.67596 0.98396 0.0
C1338 C 0.7151 0.68059 0.0113 0.0
C1339 C 0.7365 0.67497 0.02105 0.0
C1340 C 0.7418 0.65317 0.02573 0.0
C1341 C 0.76182 0.64803 0.03532 0.0
C1342 C 0.77665 0.66455 0.0404 0.0
C1343 C 0.77149 0.68627 0.03591 0.0
C1344 C 0.75149 0.6915 0.02633 0.0
C1345 C 0.63413 0.71559 0.05174 0.0
C1346 C 0.64133 0.73563 0.06017 0.0
C1347 C 0.64639 0.70466 0.03604 0.0
C1348 C 0.66601 0.71361 0.02841 0.0
C1349 C 0.6725 0.73429 0.03575 0.0
C1350 C 0.66017 0.74531 0.05141 0.0
C1351 C 0.6806 0.70038 0.01447 0.0
C1352 C 0.70158 0.69546 0.02223 0.0
C1353 C 0.6732 0.69076 0.99489 0.0
C1354 C 0.65166 0.69617 0.98529 0.0
C1355 C 0.64576 0.71799 0.98153 0.0
C1356 C 0.62544 0.723 0.97254 0.0
C1357 C 0.61089 0.70632 0.96714 0.0
C1358 C 0.61667 0.68458 0.97067 0.0
C1359 C 0.63697 0.67949 0.97966 0.0
H1360 H 0.59517 0.71023 0.96018 0.0
H1361 H 0.79212 0.66054 0.04786 0.0
H1362 H 0.23274 0.66901 0.0628 0.0
H1363 H 0.24949 0.69072 0.0338 0.0
H1364 H 0.30456 0.64708 0.03286 0.0
H1365 H 0.28809 0.62555 0.06197 0.0
H1366 H 0.31743 0.68848 0.03742 0.0
H1367 H 0.26756 0.64914 0.99179 0.0
H1368 H 0.23175 0.63574 0.97947 0.0
H1369 H 0.21025 0.70151 0.96933 0.0
H1370 H 0.24585 0.71536 0.9819 0.0
H1371 H 0.37271 0.72038 0.94162 0.0
H1372 H 0.35356 0.70321 0.97185 0.0
H1373 H 0.30197 0.75062 0.9664 0.0
H1374 H 0.32097 0.76772 0.93572 0.0
H1375 H 0.28589 0.71008 0.96622 0.0
H1376 H 0.33454 0.74945 0.01366 0.0
H1377 H 0.37 0.76316 0.02684 0.0
H1378 H 0.39337 0.69752 0.03315 0.0
H1379 H 0.35806 0.68345 0.01992 0.0
C1380 C 0.24811 0.66369 0.05596 0.0
C1381 C 0.25912 0.64561 0.06468 0.0
C1382 C 0.25772 0.67617 0.03945 0.0
C1383 C 0.27836 0.6706 0.03127 0.0
C1384 C 0.28872 0.65178 0.03906 0.0
C1385 C 0.27919 0.63939 0.05558 0.0
C1386 C 0.28995 0.68511 0.01577 0.0
C1387 C 0.3106 0.693 0.02175 0.0
C1388 C 0.28075 0.69163 0.99566 0.0
C1389 C 0.25931 0.68331 0.98809 0.0
C1390 C 0.25511 0.66078 0.98722 0.0
C1391 C 0.23487 0.65309 0.98012 0.0
C1392 C 0.21869 0.66777 0.97374 0.0
C1393 C 0.22277 0.69017 0.97435 0.0
C1394 C 0.243 0.69794 0.98142 0.0
C1395 C 0.35759 0.72756 0.94722 0.0
C1396 C 0.34835 0.7454 0.93626 0.0
C1397 C 0.34664 0.71772 0.96457 0.0
C1398 C 0.32632 0.72563 0.97146 0.0
C1399 C 0.31762 0.74422 0.96134 0.0
C1400 C 0.32859 0.7541 0.94393 0.0
C1401 C 0.31344 0.71325 0.98781 0.0
C1402 C 0.29258 0.70573 0.982 0.0
C1403 C 0.32238 0.70706 0.00811 0.0
C1404 C 0.34372 0.71543 0.01573 0.0
C1405 C 0.3473 0.73796 0.01774 0.0
C1406 C 0.36735 0.74579 0.02526 0.0
C1407 C 0.38393 0.73122 0.03081 0.0
C1408 C 0.38052 0.70879 0.02882 0.0
C1409 C 0.36048 0.70088 0.02135 0.0
H1410 H 0.39943 0.73731 0.03666 0.0
H1411 H 0.20304 0.66179 0.96821 0.0
H1412 H 0.23897 0.3375 0.94855 0.0
H1413 H 0.26026 0.31697 0.97533 0.0
H1414 H 0.31154 0.36492 0.97152 0.0
H1415 H 0.29054 0.38532 0.94446 0.0
H1416 H 0.30164 0.29986 0.96425 0.0
H1417 H 0.33658 0.36543 0.02325 0.0
H1418 H 0.32493 0.39905 0.04192 0.0
H1419 H 0.25803 0.37916 0.03668 0.0
H1420 H 0.26927 0.34527 0.0183 0.0
H1421 H 0.39381 0.29228 0.05357 0.0
H1422 H 0.37299 0.31023 0.02485 0.0
H1423 H 0.32611 0.25781 0.02585 0.0
H1424 H 0.34699 0.23965 0.05451 0.0
H1425 H 0.33261 0.32437 0.03474 0.0
H1426 H 0.29765 0.25858 0.97646 0.0
H1427 H 0.30915 0.22447 0.9586 0.0
H1428 H 0.37607 0.24455 0.96263 0.0
H1429 H 0.36498 0.27889 0.98025 0.0
C1430 C 0.25447 0.34404 0.95394 0.0
C1431 C 0.26315 0.36298 0.9444 0.0
C1432 C 0.26668 0.33219 0.96908 0.0
C1433 C 0.2875 0.33937 0.97525 0.0
C1434 C 0.29547 0.35916 0.96701 0.0
C1435 C 0.28343 0.37082 0.95161 0.0
C1436 C 0.30184 0.32524 0.98852 0.0
C1437 C 0.30816 0.30501 0.97986 0.0
C1438 C 0.31076 0.33233 0.00851 0.0
C1439 C 0.30378 0.35292 0.01912 0.0
C1440 C 0.31938 0.36823 0.02607 0.0
C1441 C 0.31284 0.38733 0.03662 0.0
C1442 C 0.29075 0.39128 0.0404 0.0
C1443 C 0.27513 0.37613 0.03363 0.0
C1444 C 0.28158 0.357 0.02309 0.0
C1445 C 0.37953 0.28415 0.04709 0.0
C1446 C 0.37188 0.2647 0.05646 0.0
C1447 C 0.36757 0.2945 0.03077 0.0
C1448 C 0.34784 0.28553 0.02345 0.0
C1449 C 0.34134 0.26499 0.0312 0.0
C1450 C 0.35335 0.25458 0.04754 0.0
C1451 C 0.33269 0.29906 0.01038 0.0
C1452 C 0.32614 0.31918 0.01911 0.0
C1453 C 0.32358 0.29185 0.99047 0.0
C1454 C 0.33048 0.27119 0.97996 0.0
C1455 C 0.31482 0.25572 0.97353 0.0
C1456 C 0.32127 0.23634 0.96346 0.0
C1457 C 0.34334 0.23229 0.9596 0.0
C1458 C 0.359 0.24764 0.96576 0.0
C1459 C 0.35264 0.26705 0.97585 0.0
H1460 H 0.34829 0.2173 0.95174 0.0
H1461 H 0.28573 0.40605 0.04863 0.0
H1462 H 0.76867 0.32818 0.06197 0.0
H1463 H 0.75194 0.30792 0.03196 0.0
H1464 H 0.69614 0.35054 0.03414 0.0
H1465 H 0.71269 0.37079 0.06414 0.0
H1466 H 0.68482 0.30825 0.03943 0.0
H1467 H 0.72874 0.34977 0.99033 0.0
H1468 H 0.76246 0.3655 0.97518 0.0
H1469 H 0.78782 0.30129 0.96402 0.0
H1470 H 0.7544 0.28514 0.9795 0.0
H1471 H 0.62776 0.2703 0.94559 0.0
H1472 H 0.64649 0.28991 0.97474 0.0
H1473 H 0.69997 0.24449 0.97117 0.0
H1474 H 0.68126 0.22473 0.94195 0.0
H1475 H 0.71325 0.28708 0.96683 0.0
H1476 H 0.66908 0.2457 0.01596 0.0
H1477 H 0.63518 0.23022 0.03101 0.0
H1478 H 0.61008 0.29464 0.04162 0.0
H1479 H 0.64373 0.31052 0.02638 0.0
C1480 C 0.75319 0.33371 0.05555 0.0
C1481 C 0.7419 0.35096 0.06555 0.0
C1482 C 0.74361 0.32207 0.03842 0.0
C1483 C 0.72268 0.32758 0.031 0.0
C1484 C 0.71222 0.34591 0.03977 0.0
C1485 C 0.72179 0.35756 0.05682 0.0
C1486 C 0.71064 0.31284 0.01606 0.0
C1487 C 0.69088 0.30388 0.0234 0.0
C1488 C 0.71894 0.30657 0.99549 0.0
C1489 C 0.73916 0.31624 0.98637 0.0
C1490 C 0.74161 0.33899 0.98491 0.0
C1491 C 0.76066 0.34799 0.97624 0.0
C1492 C 0.77732 0.33441 0.96877 0.0
C1493 C 0.77493 0.31179 0.9699 0.0
C1494 C 0.75594 0.30271 0.97862 0.0
C1495 C 0.6432 0.26408 0.95147 0.0
C1496 C 0.65306 0.24599 0.94147 0.0
C1497 C 0.65391 0.27533 0.96811 0.0
C1498 C 0.67469 0.26873 0.97502 0.0
C1499 C 0.68398 0.24989 0.96599 0.0
C1500 C 0.67317 0.23849 0.94946 0.0
C1501 C 0.6874 0.28263 0.99018 0.0
C1502 C 0.70726 0.29141 0.98289 0.0
C1503 C 0.6792 0.2888 0.01079 0.0
C1504 C 0.65886 0.2793 0.01983 0.0
C1505 C 0.65625 0.25657 0.02131 0.0
C1506 C 0.6371 0.24772 0.02992 0.0
C1507 C 0.62047 0.26144 0.03721 0.0
C1508 C 0.62297 0.28403 0.03595 0.0
C1509 C 0.64209 0.29297 0.02734 0.0
H1510 H 0.60566 0.25455 0.04389 0.0
H1511 H 0.79203 0.34141 0.96199 0.0
H1512 H 0.1593 0.30497 0.2735 0.0
H1513 H 0.16284 0.27378 0.29751 0.0
H1514 H 0.13278 0.31007 0.34971 0.0
H1515 H 0.13003 0.34209 0.32561 0.0
H1516 H 0.16186 0.28505 0.36625 0.0
H1517 H 0.10236 0.26999 0.32198 0.0
H1518 H 0.07999 0.26872 0.28859 0.0
H1519 H 0.12504 0.22378 0.25963 0.0
H1520 H 0.14786 0.22503 0.29267 0.0
H1521 H 0.17233 0.15547 0.36831 0.0
H1522 H 0.1481 0.1873 0.36493 0.0
H1523 H 0.20432 0.22939 0.36051 0.0
H1524 H 0.2282 0.19815 0.36349 0.0
H1525 H 0.14419 0.21401 0.33177 0.0
H1526 H 0.19696 0.27679 0.38362 0.0
H1527 H 0.21155 0.27946 0.42095 0.0
H1528 H 0.16862 0.22831 0.44182 0.0
H1529 H 0.15361 0.22539 0.40468 0.0
C1530 C 0.15363 0.30644 0.29017 0.0
C1531 C 0.14404 0.32578 0.29764 0.0
C1532 C 0.15541 0.28849 0.30382 0.0
C1533 C 0.14708 0.28921 0.3251 0.0
C1534 C 0.13885 0.309 0.33318 0.0
C1535 C 0.1374 0.32728 0.31949 0.0
C1536 C 0.14752 0.26908 0.33849 0.0
C1537 C 0.15779 0.26951 0.3589 0.0
C1538 C 0.14063 0.24885 0.32971 0.0
C1539 C 0.12684 0.24765 0.30983 0.0
C1540 C 0.10755 0.25994 0.30844 0.0
C1541 C 0.09479 0.25922 0.28958 0.0
C1542 C 0.10109 0.2462 0.272 0.0
C1543 C 0.12015 0.23383 0.27327 0.0
C1544 C 0.13298 0.23449 0.2921 0.0
C1545 C 0.17939 0.17157 0.36666 0.0
C1546 C 0.20212 0.17434 0.36616 0.0
C1547 C 0.16559 0.1897 0.36497 0.0
C1548 C 0.1744 0.21078 0.36306 0.0
C1549 C 0.19709 0.21341 0.36264 0.0
C1550 C 0.21076 0.19544 0.36402 0.0
C1551 C 0.16061 0.23 0.35835 0.0
C1552 C 0.14765 0.22949 0.33957 0.0
C1553 C 0.16403 0.25006 0.36924 0.0
C1554 C 0.17408 0.25093 0.39128 0.0
C1555 C 0.19055 0.26615 0.39615 0.0
C1556 C 0.19889 0.26772 0.4173 0.0
C1557 C 0.19084 0.25422 0.43378 0.0
C1558 C 0.17472 0.23885 0.42906 0.0
C1559 C 0.16639 0.23714 0.40792 0.0
H1560 H 0.19721 0.25557 0.45017 0.0
H1561 H 0.0912 0.24569 0.25741 0.0
H1562 H 0.79927 0.23056 0.39229 0.0
H1563 H 0.77024 0.20773 0.37775 0.0
H1564 H 0.81708 0.17281 0.33865 0.0
H1565 H 0.84637 0.19594 0.35307 0.0
H1566 H 0.78493 0.19061 0.31463 0.0
H1567 H 0.78861 0.14676 0.37896 0.0
H1568 H 0.79006 0.1401 0.41855 0.0
H1569 H 0.72721 0.16979 0.42625 0.0
H1570 H 0.72548 0.17688 0.38672 0.0
H1571 H 0.70628 0.12671 0.26352 0.0
H1572 H 0.73694 0.13727 0.28635 0.0
H1573 H 0.69344 0.1722 0.3291 0.0
H1574 H 0.66231 0.16107 0.30647 0.0
H1575 H 0.72488 0.15147 0.35212 0.0
H1576 H 0.72237 0.1991 0.29031 0.0
H1577 H 0.72048 0.20859 0.25131 0.0
H1578 H 0.78075 0.175 0.23984 0.0
H1579 H 0.78284 0.16504 0.27875 0.0
C1580 C 0.80349 0.21768 0.38097 0.0
C1581 C 0.82501 0.21516 0.37356 0.0
C1582 C 0.78688 0.20452 0.37281 0.0
C1583 C 0.79151 0.18855 0.35717 0.0
C1584 C 0.81322 0.18505 0.35077 0.0
C1585 C 0.82991 0.19821 0.35902 0.0
C1586 C 0.77339 0.17796 0.34527 0.0
C1587 C 0.77209 0.18156 0.32276 0.0
C1588 C 0.75618 0.16704 0.35609 0.0
C1589 C 0.75698 0.16247 0.37985 0.0
C1590 C 0.77514 0.15199 0.38909 0.0
C1591 C 0.776 0.14811 0.41153 0.0
C1592 C 0.75876 0.15456 0.42491 0.0
C1593 C 0.74056 0.16481 0.41586 0.0
C1594 C 0.73961 0.16872 0.39343 0.0
C1595 C 0.70316 0.13657 0.27783 0.0
C1596 C 0.68193 0.14329 0.2831 0.0
C1597 C 0.72072 0.14258 0.29087 0.0
C1598 C 0.71752 0.1558 0.30921 0.0
C1599 C 0.69625 0.16201 0.31497 0.0
C1600 C 0.67854 0.15577 0.30199 0.0
C1601 C 0.73659 0.16404 0.3215 0.0
C1602 C 0.73795 0.1602 0.34401 0.0
C1603 C 0.75379 0.17509 0.3108 0.0
C1604 C 0.75264 0.18114 0.2874 0.0
C1605 C 0.73514 0.1936 0.27944 0.0
C1606 C 0.73404 0.19908 0.25736 0.0
C1607 C 0.75046 0.19235 0.2431 0.0
C1608 C 0.76803 0.18017 0.2509 0.0
C1609 C 0.76919 0.17462 0.27297 0.0
H1610 H 0.74958 0.19661 0.226 0.0
H1611 H 0.75949 0.15156 0.44227 0.0
H1612 H 0.86051 0.69079 0.25712 0.0
H1613 H 0.85111 0.72538 0.2739 0.0
H1614 H 0.84149 0.69312 0.33562 0.0
H1615 H 0.85117 0.65806 0.3188 0.0
H1616 H 0.81313 0.73552 0.29031 0.0
H1617 H 0.85104 0.72925 0.37616 0.0
H1618 H 0.88379 0.71427 0.39407 0.0
H1619 H 0.91971 0.72044 0.33437 0.0
H1620 H 0.88712 0.73534 0.31607 0.0
H1621 H 0.75873 0.80122 0.36352 0.0
H1622 H 0.7797 0.77059 0.34985 0.0
H1623 H 0.83478 0.81282 0.33865 0.0
H1624 H 0.81367 0.84403 0.35251 0.0
H1625 H 0.84447 0.76878 0.3571 0.0
H1626 H 0.80798 0.80362 0.29729 0.0
H1627 H 0.77666 0.82028 0.27844 0.0
H1628 H 0.74141 0.75996 0.28282 0.0
H1629 H 0.77238 0.74305 0.30208 0.0
C1630 C 0.85653 0.69098 0.27431 0.0
C1631 C 0.85641 0.67168 0.28664 0.0
C1632 C 0.8512 0.71081 0.28388 0.0
C1633 C 0.84573 0.71186 0.30601 0.0
C1634 C 0.846 0.6927 0.31857 0.0
C1635 C 0.85132 0.67269 0.30893 0.0
C1636 C 0.83782 0.73271 0.31518 0.0
C1637 C 0.82012 0.74282 0.30484 0.0
C1638 C 0.84708 0.7424 0.33395 0.0
C1639 C 0.86661 0.73317 0.34472 0.0
C1640 C 0.86592 0.72735 0.36685 0.0
C1641 C 0.88443 0.71883 0.37705 0.0
C1642 C 0.90377 0.71626 0.36531 0.0
C1643 C 0.90465 0.72221 0.34335 0.0
C1644 C 0.88614 0.73061 0.33304 0.0
C1645 C 0.77536 0.80409 0.35833 0.0
C1646 C 0.7845 0.82509 0.35881 0.0
C1647 C 0.78732 0.78651 0.35061 0.0
C1648 C 0.80864 0.78955 0.34312 0.0
C1649 C 0.81829 0.81027 0.34441 0.0
C1650 C 0.80623 0.82803 0.35217 0.0
C1651 C 0.81977 0.77124 0.3323 0.0
C1652 C 0.83781 0.76154 0.3424 0.0
C1653 C 0.81109 0.76205 0.31303 0.0
C1654 C 0.79246 0.77212 0.30129 0.0
C1655 C 0.79348 0.79396 0.29441 0.0
C1656 C 0.77579 0.80345 0.28363 0.0
C1657 C 0.75703 0.7912 0.27947 0.0
C1658 C 0.75594 0.76944 0.28607 0.0
C1659 C 0.77357 0.75989 0.29691 0.0
H1660 H 0.74336 0.79857 0.27111 0.0
H1661 H 0.9181 0.70973 0.37325 0.0
H1662 H 0.30149 0.8734 0.25925 0.0
H1663 H 0.27018 0.86041 0.27992 0.0
H1664 H 0.31261 0.82128 0.32001 0.0
H1665 H 0.34433 0.83441 0.29929 0.0
H1666 H 0.27703 0.79865 0.30297 0.0
H1667 H 0.29016 0.86485 0.34178 0.0
H1668 H 0.29702 0.90425 0.34584 0.0
H1669 H 0.23517 0.91838 0.31639 0.0
H1670 H 0.22805 0.87907 0.31182 0.0
H1671 H 0.19289 0.76412 0.37152 0.0
H1672 H 0.22632 0.78177 0.35943 0.0
H1673 H 0.18878 0.82656 0.32037 0.0
H1674 H 0.15495 0.80919 0.33299 0.0
H1675 H 0.22332 0.84677 0.33957 0.0
H1676 H 0.21202 0.7819 0.29678 0.0
H1677 H 0.20525 0.74276 0.29051 0.0
H1678 H 0.26341 0.72668 0.32587 0.0
H1679 H 0.27054 0.76573 0.33239 0.0
C1680 C 0.30423 0.86212 0.27255 0.0
C1681 C 0.32533 0.85485 0.27768 0.0
C1682 C 0.28632 0.85485 0.28444 0.0
C1683 C 0.28914 0.84013 0.30164 0.0
C1684 C 0.31019 0.8328 0.30686 0.0
C1685 C 0.32823 0.84028 0.29506 0.0
C1686 C 0.26981 0.83144 0.31309 0.0
C1687 C 0.26552 0.80908 0.3114 0.0
C1688 C 0.2545 0.84526 0.32341 0.0
C1689 C 0.25865 0.86896 0.32629 0.0
C1690 C 0.27808 0.87635 0.336 0.0
C1691 C 0.28201 0.89867 0.33842 0.0
C1692 C 0.26657 0.9138 0.33131 0.0
C1693 C 0.24713 0.90663 0.32186 0.0
C1694 C 0.24312 0.88433 0.31937 0.0
C1695 C 0.1917 0.77782 0.36045 0.0
C1696 C 0.17135 0.78509 0.35289 0.0
C1697 C 0.21084 0.78787 0.35355 0.0
C1698 C 0.21006 0.80515 0.33863 0.0
C1699 C 0.18972 0.81315 0.3318 0.0
C1700 C 0.17044 0.8032 0.33893 0.0
C1701 C 0.23054 0.81397 0.32938 0.0
C1702 C 0.23498 0.83632 0.33138 0.0
C1703 C 0.24597 0.8002 0.31914 0.0
C1704 C 0.24169 0.77671 0.31526 0.0
C1705 C 0.22328 0.77001 0.30335 0.0
C1706 C 0.21939 0.74785 0.29973 0.0
C1707 C 0.23381 0.73225 0.30789 0.0
C1708 C 0.25222 0.73878 0.3196 0.0
C1709 C 0.25623 0.76092 0.32322 0.0
H1710 H 0.23075 0.7151 0.30507 0.0
H1711 H 0.26967 0.93106 0.33314 0.0
H1712 H 0.17231 0.65344 0.68969 0.0
H1713 H 0.18528 0.68586 0.66993 0.0
H1714 H 0.13992 0.72587 0.70568 0.0
H1715 H 0.12727 0.69386 0.72563 0.0
H1716 H 0.14237 0.73511 0.65955 0.0
H1717 H 0.18818 0.72685 0.72359 0.0
H1718 H 0.21323 0.70755 0.74839 0.0
H1719 H 0.25802 0.69722 0.69564 0.0
H1720 H 0.23318 0.71646 0.67051 0.0
H1721 H 0.18783 0.84222 0.64796 0.0
H1722 H 0.17124 0.80809 0.66075 0.0
H1723 H 0.22543 0.7719 0.63438 0.0
H1724 H 0.24205 0.80561 0.62194 0.0
H1725 H 0.21808 0.75956 0.67412 0.0
H1726 H 0.1743 0.77011 0.61037 0.0
H1727 H 0.15012 0.79019 0.58533 0.0
H1728 H 0.10193 0.79563 0.63577 0.0
H1729 H 0.12596 0.77578 0.66117 0.0
C1730 C 0.16504 0.66914 0.69313 0.0
C1731 C 0.14898 0.67125 0.70927 0.0
C1732 C 0.17242 0.68757 0.6819 0.0
C1733 C 0.16354 0.70817 0.68646 0.0
C1734 C 0.14691 0.7101 0.70195 0.0
C1735 C 0.13984 0.69183 0.71341 0.0
C1736 C 0.17243 0.72803 0.67622 0.0
C1737 C 0.15888 0.74059 0.66275 0.0
C1738 C 0.19404 0.73486 0.68021 0.0
C1739 C 0.20873 0.72286 0.69514 0.0
C1740 C 0.20327 0.72026 0.71724 0.0
C1741 C 0.21746 0.70942 0.73137 0.0
C1742 C 0.23718 0.70111 0.72358 0.0
C1743 C 0.24273 0.70364 0.70164 0.0
C1744 C 0.22863 0.71455 0.68746 0.0
C1745 C 0.19605 0.82694 0.64478 0.0
C1746 C 0.21627 0.82659 0.63409 0.0
C1747 C 0.18653 0.80746 0.65197 0.0
C1748 C 0.19707 0.78743 0.6484 0.0
C1749 C 0.21705 0.78715 0.63739 0.0
C1750 C 0.22652 0.80647 0.63027 0.0
C1751 C 0.18813 0.76678 0.65719 0.0
C1752 C 0.20164 0.75408 0.67058 0.0
C1753 C 0.16656 0.75979 0.65293 0.0
C1754 C 0.15204 0.7717 0.63773 0.0
C1755 C 0.15864 0.77578 0.61617 0.0
C1756 C 0.14495 0.78708 0.6019 0.0
C1757 C 0.12454 0.79426 0.60898 0.0
C1758 C 0.11776 0.79009 0.63032 0.0
C1759 C 0.1314 0.77879 0.64465 0.0
H1760 H 0.11396 0.80301 0.59792 0.0
H1761 H 0.24819 0.69279 0.73455 0.0
H1762 H 0.36271 0.15458 0.67961 0.0
H1763 H 0.33524 0.16917 0.6545 0.0
H1764 H 0.29042 0.11857 0.67403 0.0
H1765 H 0.31776 0.10386 0.69873 0.0
H1766 H 0.2819 0.13265 0.63235 0.0
H1767 H 0.29449 0.16291 0.70467 0.0
H1768 H 0.31802 0.17925 0.73291 0.0
H1769 H 0.33165 0.23338 0.6907 0.0
H1770 H 0.30852 0.2171 0.66204 0.0
H1771 H 0.17817 0.1857 0.64595 0.0
H1772 H 0.21223 0.16496 0.64976 0.0
H1773 H 0.24848 0.21959 0.62437 0.0
H1774 H 0.21483 0.24019 0.62035 0.0
H1775 H 0.26358 0.20472 0.66417 0.0
H1776 H 0.24849 0.17537 0.5926 0.0
H1777 H 0.22664 0.15751 0.56393 0.0
H1778 H 0.21602 0.10243 0.60574 0.0
H1779 H 0.23841 0.11969 0.63442 0.0
C1780 C 0.34736 0.14604 0.67774 0.0
C1781 C 0.34204 0.12849 0.69139 0.0
C1782 C 0.33168 0.15438 0.66347 0.0
C1783 C 0.31065 0.14526 0.66291 0.0
C1784 C 0.30648 0.12595 0.67435 0.0
C1785 C 0.32206 0.11766 0.68857 0.0
C1786 C 0.29194 0.15791 0.6546 0.0
C1787 C 0.27791 0.14845 0.6392 0.0
C1788 C 0.28674 0.1785 0.66363 0.0
C1789 C 0.30004 0.18865 0.68112 0.0
C1790 C 0.30263 0.17822 0.70137 0.0
C1791 C 0.31595 0.18743 0.71742 0.0
C1792 C 0.32649 0.20724 0.71351 0.0
C1793 C 0.32361 0.21795 0.69362 0.0
C1794 C 0.31041 0.20874 0.67748 0.0
C1795 C 0.19341 0.19316 0.64106 0.0
C1796 C 0.19389 0.2146 0.63306 0.0
C1797 C 0.21278 0.18128 0.64304 0.0
C1798 C 0.23279 0.19077 0.63719 0.0
C1799 C 0.23318 0.212 0.62889 0.0
C1800 C 0.21393 0.22377 0.62676 0.0
C1801 C 0.25355 0.17954 0.64181 0.0
C1802 C 0.2678 0.18919 0.65686 0.0
C1803 C 0.25879 0.15911 0.6326 0.0
C1804 C 0.24493 0.14889 0.61568 0.0
C1805 C 0.24138 0.1595 0.59571 0.0
C1806 C 0.22899 0.14945 0.57943 0.0
C1807 C 0.21975 0.12896 0.58309 0.0
C1808 C 0.22313 0.11834 0.60295 0.0
C1809 C 0.2358 0.12817 0.61916 0.0
H1810 H 0.21005 0.12128 0.57051 0.0
H1811 H 0.33667 0.21445 0.72598 0.0
H1812 H 0.75286 0.19749 0.6797 0.0
H1813 H 0.77369 0.23111 0.68477 0.0
H1814 H 0.82579 0.2049 0.64555 0.0
H1815 H 0.805 0.17123 0.64035 0.0
H1816 H 0.81341 0.24156 0.70129 0.0
H1817 H 0.84348 0.24566 0.61167 0.0
H1818 H 0.83174 0.23298 0.57538 0.0
H1819 H 0.76509 0.23235 0.59663 0.0
H1820 H 0.7764 0.24525 0.63299 0.0
H1821 H 0.89587 0.31393 0.69751 0.0
H1822 H 0.87789 0.28305 0.68018 0.0
H1823 H 0.82314 0.32383 0.66377 0.0
H1824 H 0.84118 0.35503 0.6812 0.0
H1825 H 0.83409 0.28225 0.63433 0.0
H1826 H 0.81549 0.3083 0.70679 0.0
H1827 H 0.82696 0.32384 0.74188 0.0
H1828 H 0.86511 0.26676 0.75518 0.0
H1829 H 0.85447 0.2512 0.71959 0.0
C1830 C 0.76894 0.19872 0.67253 0.0
C1831 C 0.77728 0.18181 0.65953 0.0
C1832 C 0.78079 0.21794 0.67541 0.0
C1833 C 0.80105 0.22061 0.66517 0.0
C1834 C 0.81 0.20325 0.65328 0.0
C1835 C 0.7982 0.18397 0.65049 0.0
C1836 C 0.81237 0.24189 0.66616 0.0
C1837 C 0.81785 0.25041 0.68664 0.0
C1838 C 0.81779 0.2537 0.64704 0.0
C1839 C 0.81083 0.24625 0.62511 0.0
C1840 C 0.82632 0.24291 0.60857 0.0
C1841 C 0.81973 0.23568 0.58798 0.0
C1842 C 0.79768 0.23188 0.58369 0.0
C1843 C 0.78217 0.23527 0.59999 0.0
C1844 C 0.78866 0.2425 0.6206 0.0
C1845 C 0.88045 0.31658 0.68932 0.0
C1846 C 0.86964 0.33665 0.69105 0.0
C1847 C 0.87027 0.29895 0.67931 0.0
C1848 C 0.8491 0.30116 0.67106 0.0
C1849 C 0.83954 0.32191 0.67001 0.0
C1850 C 0.84982 0.33969 0.68003 0.0
C1851 C 0.83542 0.28145 0.66934 0.0
C1852 C 0.82953 0.27329 0.64887 0.0
C1853 C 0.8291 0.27016 0.68845 0.0
C1854 C 0.8344 0.27873 0.71043 0.0
C1855 C 0.82651 0.29916 0.71709 0.0
C1856 C 0.83291 0.30801 0.73706 0.0
C1857 C 0.84684 0.29636 0.75078 0.0
C1858 C 0.85436 0.27579 0.74452 0.0
C1859 C 0.84818 0.26696 0.72442 0.0
H1860 H 0.85172 0.30323 0.76628 0.0
H1861 H 0.79256 0.2264 0.56774 0.0
H1862 H 0.84703 0.82178 0.64505 0.0
H1863 H 0.81667 0.84609 0.65479 0.0
H1864 H 0.77082 0.79486 0.64009 0.0
H1865 H 0.80069 0.77067 0.63049 0.0
H1866 H 0.75763 0.83661 0.62463 0.0
H1867 H 0.78395 0.79997 0.68965 0.0
H1868 H 0.81224 0.78949 0.7162 0.0
H1869 H 0.8247 0.85695 0.73014 0.0
H1870 H 0.79664 0.86782 0.70342 0.0
H1871 H 0.66353 0.84628 0.69238 0.0
H1872 H 0.69494 0.83811 0.66902 0.0
H1873 H 0.73016 0.89204 0.69739 0.0
H1874 H 0.69914 0.89985 0.72097 0.0
H1875 H 0.75147 0.85538 0.703 0.0
H1876 H 0.71808 0.89109 0.64292 0.0
H1877 H 0.68901 0.90017 0.61673 0.0
H1878 H 0.68875 0.83419 0.59343 0.0
H1879 H 0.7176 0.8246 0.61971 0.0
C1880 C 0.83045 0.81585 0.64371 0.0
C1881 C 0.82622 0.79434 0.63712 0.0
C1882 C 0.81318 0.82972 0.64917 0.0
C1883 C 0.79156 0.82224 0.64794 0.0
C1884 C 0.78737 0.80099 0.64082 0.0
C1885 C 0.80451 0.78715 0.63557 0.0
C1886 C 0.77322 0.83551 0.65604 0.0
C1887 C 0.7562 0.84087 0.64173 0.0
C1888 C 0.77164 0.8412 0.67826 0.0
C1889 C 0.78845 0.83471 0.69435 0.0
C1890 C 0.79287 0.81257 0.69824 0.0
C1891 C 0.80883 0.80655 0.71334 0.0
C1892 C 0.82032 0.82255 0.72479 0.0
C1893 C 0.81583 0.84458 0.72121 0.0
C1894 C 0.7999 0.85068 0.7061 0.0
C1895 C 0.67772 0.85679 0.69303 0.0
C1896 C 0.67913 0.87347 0.70859 0.0
C1897 C 0.69564 0.85217 0.67968 0.0
C1898 C 0.71496 0.86441 0.68158 0.0
C1899 C 0.71551 0.8823 0.69576 0.0
C1900 C 0.69778 0.88674 0.70921 0.0
C1901 C 0.73551 0.85652 0.67165 0.0
C1902 C 0.75297 0.85189 0.68573 0.0
C1903 C 0.73733 0.85143 0.64924 0.0
C1904 C 0.71991 0.85709 0.63343 0.0
C1905 C 0.7117 0.87846 0.63235 0.0
C1906 C 0.69528 0.88371 0.61746 0.0
C1907 C 0.68701 0.86776 0.60346 0.0
C1908 C 0.69517 0.84653 0.6043 0.0
C1909 C 0.71158 0.84118 0.61917 0.0
H1910 H 0.6743 0.87186 0.59194 0.0
H1911 H 0.83267 0.81786 0.73648 0.0
H1912 H 0.26746 0.1254 0.29978 0.0
H1913 H 0.28838 0.13805 0.2685 0.0
H1914 H 0.33222 0.17246 0.31141 0.0
H1915 H 0.31118 0.15974 0.34308 0.0
H1916 H 0.31544 0.19773 0.27657 0.0
H1917 H 0.35079 0.12854 0.28687 0.0
H1918 H 0.3499 0.0889 0.29336 0.0
H1919 H 0.31621 0.07936 0.23276 0.0
H1920 H 0.31672 0.11895 0.226 0.0
H1921 H 0.3863 0.23112 0.19508 0.0
H1922 H 0.3734 0.21193 0.22732 0.0
H1923 H 0.33149 0.17217 0.18716 0.0
H1924 H 0.34488 0.19116 0.15447 0.0
H1925 H 0.34883 0.14888 0.22138 0.0
H1926 H 0.31091 0.21604 0.21127 0.0
H1927 H 0.30709 0.25552 0.2049 0.0
H1928 H 0.3412 0.26884 0.26455 0.0
H1929 H 0.34552 0.2294 0.27111 0.0
C1930 C 0.28167 0.1355 0.30262 0.0
C1931 C 0.2877 0.14165 0.32385 0.0
C1932 C 0.29365 0.14262 0.28472 0.0
C1933 C 0.3119 0.15604 0.28768 0.0
C1934 C 0.31819 0.16203 0.30887 0.0
C1935 C 0.30626 0.15471 0.32689 0.0
C1936 C 0.32356 0.16462 0.26842 0.0
C1937 C 0.3232 0.18713 0.26474 0.0
C1938 C 0.33284 0.15062 0.25263 0.0
C1939 C 0.33368 0.12671 0.25599 0.0
C1940 C 0.3432 0.11798 0.27492 0.0
C1941 C 0.34276 0.09552 0.27866 0.0
C1942 C 0.33294 0.08163 0.26353 0.0
C1943 C 0.32381 0.09012 0.24448 0.0
C1944 C 0.32423 0.11257 0.24065 0.0
C1945 C 0.37456 0.21808 0.19304 0.0
C1946 C 0.36632 0.21281 0.17234 0.0
C1947 C 0.3672 0.20714 0.21149 0.0
C1948 C 0.35114 0.19099 0.20967 0.0
C1949 C 0.34383 0.1847 0.18889 0.0
C1950 C 0.35143 0.19553 0.17027 0.0
C1951 C 0.34093 0.18208 0.22964 0.0
C1952 C 0.3414 0.15953 0.23337 0.0
C1953 C 0.3314 0.19602 0.24538 0.0
C1954 C 0.32874 0.21976 0.24156 0.0
C1955 C 0.31775 0.22739 0.22294 0.0
C1956 C 0.31547 0.24976 0.21931 0.0
C1957 C 0.32395 0.26468 0.23428 0.0
C1958 C 0.33468 0.25726 0.25295 0.0
C1959 C 0.33704 0.2349 0.25664 0.0
H1960 H 0.32217 0.28199 0.23145 0.0
H1961 H 0.33236 0.06431 0.26664 0.0
H1962 H 0.87563 0.33197 0.34457 0.0
H1963 H 0.87405 0.34913 0.30824 0.0
H1964 H 0.82409 0.3035 0.2891 0.0
H1965 H 0.82553 0.28655 0.32491 0.0
H1966 H 0.864 0.30318 0.26365 0.0
H1967 H 0.81011 0.35207 0.29566 0.0
H1968 H 0.7972 0.38142 0.31982 0.0
H1969 H 0.84408 0.4254 0.29211 0.0
H1970 H 0.85756 0.39614 0.26805 0.0
H1971 H 0.7896 0.31686 0.18303 0.0
H1972 H 0.81378 0.31301 0.21417 0.0
H1973 H 0.8487 0.37089 0.19468 0.0
H1974 H 0.82433 0.37466 0.16295 0.0
H1975 H 0.83291 0.37272 0.23715 0.0
H1976 H 0.87759 0.32554 0.19749 0.0
H1977 H 0.88739 0.2964 0.17166 0.0
H1978 H 0.85589 0.24907 0.21244 0.0
H1979 H 0.84556 0.27792 0.23835 0.0
C1980 C 0.86378 0.32621 0.33282 0.0
C1981 C 0.85074 0.30791 0.33744 0.0
C1982 C 0.863 0.33591 0.31209 0.0
C1983 C 0.84915 0.32735 0.29599 0.0
C1984 C 0.83502 0.31019 0.30127 0.0
C1985 C 0.83579 0.30059 0.32176 0.0
C1986 C 0.85055 0.33416 0.27292 0.0
C1987 C 0.85742 0.31847 0.25777 0.0
C1988 C 0.84281 0.35449 0.2654 0.0
C1989 C 0.83523 0.37176 0.28046 0.0
C1990 C 0.81798 0.36786 0.29503 0.0
C1991 C 0.81048 0.38452 0.30863 0.0
C1992 C 0.81993 0.40522 0.30763 0.0
C1993 C 0.83688 0.40932 0.29298 0.0
C1994 C 0.84448 0.39269 0.27939 0.0
C1995 C 0.80287 0.32837 0.18496 0.0
C1996 C 0.8052 0.34599 0.17063 0.0
C1997 C 0.81676 0.32613 0.20273 0.0
C1998 C 0.83317 0.34158 0.20667 0.0
C1999 C 0.83628 0.35868 0.19177 0.0
C2000 C 0.82248 0.36074 0.17364 0.0
C2001 C 0.84455 0.34096 0.22796 0.0
C2002 C 0.84033 0.35779 0.24288 0.0
C2003 C 0.85452 0.32158 0.23534 0.0
C2004 C 0.86082 0.30398 0.21992 0.0
C2005 C 0.87266 0.30894 0.20092 0.0
C2006 C 0.87831 0.29246 0.18625 0.0
C2007 C 0.87228 0.2709 0.19041 0.0
C2008 C 0.8606 0.26577 0.20927 0.0
C2009 C 0.85488 0.28219 0.22399 0.0
H2010 H 0.87666 0.25817 0.17903 0.0
H2011 H 0.81404 0.41812 0.31811 0.0
H2012 H 0.66306 0.81734 0.14936 0.0
H2013 H 0.67433 0.83965 0.18065 0.0
H2014 H 0.61903 0.81629 0.21727 0.0
H2015 H 0.60791 0.79391 0.18629 0.0
H2016 H 0.63093 0.85992 0.22778 0.0
H2017 H 0.66161 0.7882 0.21968 0.0
H2018 H 0.6807 0.75915 0.19964 0.0
H2019 H 0.73801 0.79916 0.19559 0.0
H2020 H 0.71893 0.82883 0.21491 0.0
H2021 H 0.67699 0.85343 0.3373 0.0
H2022 H 0.658 0.84663 0.30259 0.0
H2023 H 0.71294 0.87277 0.26741 0.0
H2024 H 0.73174 0.87979 0.30157 0.0
H2025 H 0.70062 0.82981 0.25567 0.0
H2026 H 0.66956 0.90174 0.26377 0.0
H2027 H 0.6494 0.93121 0.2822 0.0
H2028 H 0.59345 0.88959 0.2883 0.0
H2029 H 0.61318 0.85997 0.26955 0.0
C2030 C 0.65297 0.81759 0.16384 0.0
C2031 C 0.63489 0.80371 0.16568 0.0
C2032 C 0.65938 0.83029 0.18165 0.0
C2033 C 0.64762 0.82932 0.2013 0.0
C2034 C 0.62829 0.81722 0.20227 0.0
C2035 C 0.62208 0.80434 0.18464 0.0
C2036 C 0.65729 0.83754 0.22175 0.0
C2037 C 0.64614 0.85335 0.23394 0.0
C2038 C 0.67707 0.82882 0.22975 0.0
C2039 C 0.68872 0.81088 0.21844 0.0
C2040 C 0.67819 0.79092 0.21429 0.0
C2041 C 0.68901 0.77433 0.20306 0.0
C2042 C 0.71055 0.7773 0.19633 0.0
C2043 C 0.7213 0.7969 0.20077 0.0
C2044 C 0.71046 0.81365 0.21179 0.0
C2045 C 0.68484 0.85791 0.32215 0.0
C2046 C 0.70593 0.86687 0.32213 0.0
C2047 C 0.67396 0.85419 0.30241 0.0
C2048 C 0.68415 0.85924 0.28253 0.0
C2049 C 0.70485 0.86879 0.2826 0.0
C2050 C 0.71558 0.87268 0.30217 0.0
C2051 C 0.6745 0.85249 0.26157 0.0
C2052 C 0.68556 0.83664 0.2494 0.0
C2053 C 0.65463 0.86107 0.25375 0.0
C2054 C 0.6429 0.8786 0.26547 0.0
C2055 C 0.65301 0.89883 0.26918 0.0
C2056 C 0.64163 0.9156 0.27956 0.0
C2057 C 0.62021 0.91223 0.28654 0.0
C2058 C 0.61006 0.89215 0.28294 0.0
C2059 C 0.62129 0.87541 0.27233 0.0
H2060 H 0.61148 0.9252 0.29469 0.0
H2061 H 0.71893 0.76439 0.18772 0.0
H2062 H 0.22096 0.62193 0.20062 0.0
H2063 H 0.19665 0.6282 0.23123 0.0
H2064 H 0.1487 0.65569 0.1878 0.0
H2065 H 0.17315 0.64924 0.15669 0.0
H2066 H 0.16045 0.68287 0.2215 0.0
H2067 H 0.13342 0.60967 0.21574 0.0
H2068 H 0.13562 0.56975 0.21145 0.0
H2069 H 0.17656 0.56559 0.26802 0.0
H2070 H 0.17412 0.60543 0.27301 0.0
H2071 H 0.09721 0.71157 0.30891 0.0
H2072 H 0.1054 0.6894 0.27702 0.0
H2073 H 0.15908 0.65971 0.31135 0.0
H2074 H 0.15062 0.68184 0.34372 0.0
H2075 H 0.13918 0.63147 0.28029 0.0
H2076 H 0.1681 0.70459 0.28472 0.0
H2077 H 0.16478 0.74425 0.29031 0.0
H2078 H 0.12244 0.74884 0.2348 0.0
H2079 H 0.1249 0.70908 0.22932 0.0
C2080 C 0.20514 0.62908 0.19747 0.0
C2081 C 0.19902 0.63534 0.17629 0.0
C2082 C 0.19114 0.63238 0.21498 0.0
C2083 C 0.17078 0.64214 0.21174 0.0
C2084 C 0.1643 0.64791 0.19054 0.0
C2085 C 0.17827 0.64435 0.17286 0.0
C2086 C 0.15807 0.64915 0.23095 0.0
C2087 C 0.15523 0.67158 0.23408 0.0
C2088 C 0.15201 0.63445 0.24765 0.0
C2089 C 0.15368 0.61053 0.24467 0.0
C2090 C 0.14294 0.60024 0.22723 0.0
C2091 C 0.14414 0.57763 0.22474 0.0
C2092 C 0.15637 0.56516 0.23933 0.0
C2093 C 0.16714 0.57526 0.25668 0.0
C2094 C 0.1657 0.59784 0.25947 0.0
C2095 C 0.11039 0.69985 0.30987 0.0
C2096 C 0.12362 0.69861 0.32849 0.0
C2097 C 0.11501 0.6872 0.29167 0.0
C2098 C 0.13313 0.67334 0.2917 0.0
C2099 C 0.14503 0.67038 0.31106 0.0
C2100 C 0.14024 0.68298 0.32949 0.0
C2101 C 0.14165 0.66513 0.27072 0.0
C2102 C 0.14393 0.64265 0.26745 0.0
C2103 C 0.14743 0.6798 0.25384 0.0
C2104 C 0.14649 0.70381 0.25675 0.0
C2105 C 0.15796 0.71402 0.27379 0.0
C2106 C 0.15624 0.73652 0.27695 0.0
C2107 C 0.14344 0.74905 0.2629 0.0
C2108 C 0.13234 0.73911 0.24568 0.0
C2109 C 0.13384 0.71658 0.24256 0.0
H2110 H 0.14215 0.76647 0.26536 0.0
H2111 H 0.15744 0.54768 0.23722 0.0
H2112 H 0.33846 0.82189 0.8353 0.0
H2113 H 0.3317 0.84319 0.80214 0.0
H2114 H 0.35262 0.78877 0.76283 0.0
H2115 H 0.35973 0.76769 0.79569 0.0
H2116 H 0.36884 0.82594 0.74703 0.0
H2117 H 0.29869 0.79933 0.77079 0.0
H2118 H 0.26845 0.7942 0.79676 0.0
H2119 H 0.26002 0.86352 0.80112 0.0
H2120 H 0.29041 0.86906 0.77536 0.0
H2121 H 0.31176 0.84343 0.64636 0.0
H2122 H 0.33064 0.83197 0.67971 0.0
H2123 H 0.30752 0.88966 0.71264 0.0
H2124 H 0.28824 0.9007 0.67968 0.0
H2125 H 0.29456 0.85437 0.73299 0.0
H2126 H 0.36243 0.88023 0.70468 0.0
H2127 H 0.39197 0.88414 0.67774 0.0
H2128 H 0.40419 0.81532 0.68066 0.0
H2129 H 0.37451 0.81094 0.7074 0.0
C2130 C 0.34158 0.81452 0.81957 0.0
C2131 C 0.34946 0.7931 0.81806 0.0
C2132 C 0.33776 0.82668 0.80067 0.0
C2133 C 0.34157 0.81749 0.78002 0.0
C2134 C 0.34968 0.79621 0.77857 0.0
C2135 C 0.35357 0.78413 0.79739 0.0
C2136 C 0.33633 0.82957 0.7598 0.0
C2137 C 0.35259 0.83211 0.74386 0.0
C2138 C 0.31524 0.83793 0.75588 0.0
C2139 C 0.29698 0.83462 0.77137 0.0
C2140 C 0.2905 0.81348 0.77743 0.0
C2141 C 0.27332 0.81049 0.79208 0.0
C2142 C 0.26237 0.82852 0.80064 0.0
C2143 C 0.26855 0.84957 0.79451 0.0
C2144 C 0.28574 0.85265 0.77988 0.0
C2145 C 0.31146 0.854 0.6605 0.0
C2146 C 0.29849 0.87279 0.66065 0.0
C2147 C 0.32221 0.84747 0.67955 0.0
C2148 C 0.32034 0.85991 0.69873 0.0
C2149 C 0.30904 0.87974 0.69811 0.0
C2150 C 0.2981 0.88606 0.67927 0.0
C2151 C 0.32706 0.85079 0.72006 0.0
C2152 C 0.31097 0.84863 0.73621 0.0
C2153 C 0.34824 0.84266 0.72402 0.0
C2154 C 0.36611 0.84524 0.70793 0.0
C2155 C 0.37129 0.8659 0.69945 0.0
C2156 C 0.38809 0.8682 0.68423 0.0
C2157 C 0.39992 0.84998 0.67745 0.0
C2158 C 0.395 0.82942 0.68591 0.0
C2159 C 0.37821 0.82702 0.70112 0.0
H2160 H 0.41292 0.8518 0.66568 0.0
H2161 H 0.24906 0.82618 0.81198 0.0
H2162 H 0.181 0.33231 0.85934 0.0
H2163 H 0.16238 0.31743 0.82723 0.0
H2164 H 0.17008 0.379 0.79418 0.0
H2165 H 0.18886 0.39375 0.82604 0.0
H2166 H 0.13223 0.35504 0.78065 0.0
H2167 H 0.21002 0.34705 0.79133 0.0
H2168 H 0.24311 0.33618 0.81138 0.0
H2169 H 0.22122 0.26971 0.81201 0.0
H2170 H 0.1877 0.28029 0.79243 0.0
H2171 H 0.15007 0.31961 0.66965 0.0
H2172 H 0.15324 0.33767 0.70535 0.0
H2173 H 0.15036 0.27508 0.73723 0.0
H2174 H 0.14733 0.25712 0.70208 0.0
H2175 H 0.1838 0.2998 0.75188 0.0
H2176 H 0.10722 0.30775 0.73754 0.0
H2177 H 0.0754 0.31917 0.71596 0.0
H2178 H 0.09547 0.38601 0.72098 0.0
H2179 H 0.12782 0.37494 0.74214 0.0
C2180 C 0.1777 0.34293 0.84564 0.0
C2181 C 0.18649 0.36402 0.84491 0.0
C2182 C 0.16718 0.33443 0.82729 0.0
C2183 C 0.16527 0.34705 0.80827 0.0
C2184 C 0.17145 0.36902 0.80869 0.0
C2185 C 0.18221 0.3774 0.82686 0.0
C2186 C 0.16132 0.3365 0.787 0.0
C2187 C 0.14346 0.34297 0.77428 0.0
C2188 C 0.17612 0.32086 0.77876 0.0
C2189 C 0.1962 0.31452 0.79069 0.0
C2190 C 0.21212 0.33017 0.79599 0.0
C2191 C 0.23097 0.32405 0.80724 0.0
C2192 C 0.23424 0.30227 0.81298 0.0
C2193 C 0.21863 0.28658 0.80757 0.0
C2194 C 0.19969 0.29263 0.79644 0.0
C2195 C 0.15018 0.30979 0.68431 0.0
C2196 C 0.14854 0.28698 0.68308 0.0
C2197 C 0.15182 0.32009 0.70464 0.0
C2198 C 0.15187 0.30767 0.72389 0.0
C2199 C 0.15032 0.28495 0.72258 0.0
C2200 C 0.1486 0.27472 0.70244 0.0
C2201 C 0.15446 0.31798 0.74553 0.0
C2202 C 0.17233 0.31163 0.75828 0.0
C2203 C 0.13972 0.33375 0.75364 0.0
C2204 C 0.12012 0.34048 0.74118 0.0
C2205 C 0.10499 0.32487 0.73386 0.0
C2206 C 0.08684 0.33128 0.72171 0.0
C2207 C 0.08345 0.35328 0.71701 0.0
C2208 C 0.09816 0.36895 0.72456 0.0
C2209 C 0.11643 0.36262 0.73661 0.0
H2210 H 0.06938 0.3582 0.70757 0.0
H2211 H 0.24889 0.29753 0.82152 0.0
H2212 H 0.67249 0.17577 0.66449 0.0
H2213 H 0.65386 0.17517 0.69967 0.0
H2214 H 0.65701 0.10501 0.70031 0.0
H2215 H 0.67502 0.10545 0.66484 0.0
H2216 H 0.61901 0.1526 0.72542 0.0
H2217 H 0.68961 0.09623 0.74528 0.0
H2218 H 0.72564 0.08515 0.73115 0.0
H2219 H 0.73369 0.14794 0.70128 0.0
H2220 H 0.69802 0.15951 0.71569 0.0
H2221 H 0.62658 0.16218 0.84303 0.0
H2222 H 0.62533 0.14146 0.80855 0.0
H2223 H 0.67923 0.17961 0.78425 0.0
H2224 H 0.68011 0.20027 0.8181 0.0
H2225 H 0.68273 0.13702 0.77277 0.0
H2226 H 0.627 0.19443 0.77545 0.0
H2227 H 0.59294 0.21193 0.78773 0.0
H2228 H 0.55687 0.15428 0.77117 0.0
H2229 H 0.59077 0.1363 0.75913 0.0
C2230 C 0.66806 0.16019 0.67153 0.0
C2231 C 0.67543 0.1407 0.6621 0.0
C2232 C 0.65738 0.15985 0.69163 0.0
C2233 C 0.65438 0.14005 0.70269 0.0
C2234 C 0.65916 0.12043 0.69199 0.0
C2235 C 0.66944 0.12074 0.67167 0.0
C2236 C 0.65187 0.1405 0.72666 0.0
C2237 C 0.63268 0.14867 0.73593 0.0
C2238 C 0.66982 0.13559 0.74026 0.0
C2239 C 0.69107 0.12858 0.73128 0.0
C2240 C 0.69909 0.10761 0.73566 0.0
C2241 C 0.71945 0.10128 0.72765 0.0
C2242 C 0.73192 0.11585 0.71532 0.0
C2243 C 0.724 0.13669 0.71082 0.0
C2244 C 0.70373 0.14313 0.7189 0.0
C2245 C 0.6385 0.16552 0.83049 0.0
C2246 C 0.65341 0.18271 0.83307 0.0
C2247 C 0.63768 0.15388 0.8108 0.0
C2248 C 0.65205 0.15917 0.79377 0.0
C2249 C 0.66799 0.17524 0.79715 0.0
C2250 C 0.66855 0.187 0.81652 0.0
C2251 C 0.64998 0.1496 0.7717 0.0
C2252 C 0.6685 0.13979 0.76262 0.0
C2253 C 0.63153 0.15345 0.75832 0.0
C2254 C 0.61145 0.16392 0.76667 0.0
C2255 C 0.61186 0.18538 0.77472 0.0
C2256 C 0.59257 0.19542 0.78153 0.0
C2257 C 0.57276 0.18426 0.78007 0.0
C2258 C 0.57222 0.16293 0.77215 0.0
C2259 C 0.59146 0.15279 0.76541 0.0
H2260 H 0.5578 0.19206 0.78515 0.0
H2261 H 0.74781 0.11111 0.70942 0.0
H2262 H 0.83783 0.68703 0.65768 0.0
H2263 H 0.82502 0.668 0.69054 0.0
H2264 H 0.86494 0.70983 0.73048 0.0
H2265 H 0.87756 0.72902 0.69798 0.0
H2266 H 0.86553 0.66283 0.74152 0.0
H2267 H 0.81786 0.72407 0.72846 0.0
H2268 H 0.79322 0.74685 0.70638 0.0
H2269 H 0.74985 0.6925 0.6981 0.0
H2270 H 0.77446 0.66929 0.71982 0.0
H2271 H 0.81422 0.65004 0.84627 0.0
H2272 H 0.83239 0.66335 0.81316 0.0
H2273 H 0.78288 0.63269 0.77367 0.0
H2274 H 0.76464 0.61976 0.80635 0.0
H2275 H 0.78813 0.6738 0.76214 0.0
H2276 H 0.83576 0.61179 0.77206 0.0
H2277 H 0.86098 0.58738 0.79163 0.0
H2278 H 0.90303 0.64155 0.80579 0.0
H2279 H 0.87834 0.66617 0.78571 0.0
C2280 C 0.8441 0.6919 0.67345 0.0
C2281 C 0.85862 0.70949 0.67534 0.0
C2282 C 0.83678 0.68108 0.69214 0.0
C2283 C 0.84416 0.68758 0.71281 0.0
C2284 C 0.85929 0.70453 0.71461 0.0
C2285 C 0.86634 0.71552 0.69605 0.0
C2286 C 0.83503 0.67779 0.73275 0.0
C2287 C 0.84865 0.66531 0.74617 0.0
C2288 C 0.81299 0.68093 0.73855 0.0
C2289 C 0.79818 0.69486 0.72548 0.0
C2290 C 0.80321 0.7169 0.7217 0.0
C2291 C 0.78922 0.72991 0.7093 0.0
C2292 C 0.77003 0.7211 0.70076 0.0
C2293 C 0.76475 0.69929 0.70467 0.0
C2294 C 0.77872 0.6862 0.71702 0.0
C2295 C 0.80738 0.64603 0.8305 0.0
C2296 C 0.78794 0.63404 0.82889 0.0
C2297 C 0.81782 0.6535 0.81162 0.0
C2298 C 0.80898 0.64895 0.79096 0.0
C2299 C 0.78994 0.63645 0.78943 0.0
C2300 C 0.77953 0.62909 0.80816 0.0
C2301 C 0.81849 0.65843 0.77092 0.0
C2302 C 0.80497 0.67111 0.75751 0.0
C2303 C 0.84055 0.65535 0.76509 0.0
C2304 C 0.85513 0.64081 0.77762 0.0
C2305 C 0.85033 0.61849 0.77947 0.0
C2306 C 0.86458 0.60462 0.79055 0.0
C2307 C 0.88348 0.61294 0.80016 0.0
C2308 C 0.88834 0.63514 0.79843 0.0
C2309 C 0.87431 0.64903 0.78706 0.0
H2310 H 0.89441 0.60218 0.80885 0.0
H2311 H 0.7592 0.7312 0.69118 0.0
H2312 H 0.15511 0.34295 0.18119 0.0
H2313 H 0.18578 0.33319 0.15728 0.0
H2314 H 0.2308 0.3609 0.20362 0.0
H2315 H 0.2006 0.3706 0.2274 0.0
H2316 H 0.2409 0.37099 0.1593 0.0
H2317 H 0.22223 0.30928 0.2062 0.0
H2318 H 0.19693 0.28155 0.22061 0.0
H2319 H 0.18643 0.25697 0.15591 0.0
H2320 H 0.21147 0.28479 0.1411 0.0
H2321 H 0.34324 0.31674 0.15312 0.0
H2322 H 0.30871 0.33522 0.16125 0.0
H2323 H 0.27558 0.29389 0.11493 0.0
H2324 H 0.30973 0.27526 0.10711 0.0
H2325 H 0.25619 0.29191 0.15264 0.0
H2326 H 0.27958 0.34853 0.10595 0.0
H2327 H 0.30413 0.37621 0.09029 0.0
H2328 H 0.30505 0.41049 0.1513 0.0
H2329 H 0.28069 0.38286 0.16743 0.0
C2330 C 0.17154 0.34715 0.1861 0.0
C2331 C 0.17548 0.3574 0.20619 0.0
C2332 C 0.18898 0.34165 0.17245 0.0
C2333 C 0.21049 0.34647 0.17872 0.0
C2334 C 0.21431 0.35729 0.19842 0.0
C2335 C 0.19701 0.36261 0.21207 0.0
C2336 C 0.22933 0.33855 0.16603 0.0
C2337 C 0.24433 0.35372 0.15774 0.0
C2338 C 0.2334 0.31604 0.1636 0.0
C2339 C 0.21847 0.29927 0.17252 0.0
C2340 C 0.21438 0.29808 0.19504 0.0
C2341 C 0.20012 0.28233 0.20328 0.0
C2342 C 0.19002 0.26755 0.18917 0.0
C2343 C 0.19422 0.26846 0.16681 0.0
C2344 C 0.20844 0.28421 0.15848 0.0
C2345 C 0.32865 0.31197 0.1444 0.0
C2346 C 0.32905 0.29441 0.12975 0.0
C2347 C 0.30896 0.32256 0.14895 0.0
C2348 C 0.28955 0.31589 0.1387 0.0
C2349 C 0.2903 0.29922 0.12311 0.0
C2350 C 0.30983 0.28857 0.11871 0.0
C2351 C 0.26817 0.32434 0.14607 0.0
C2352 C 0.25269 0.30922 0.15356 0.0
C2353 C 0.26363 0.34689 0.14749 0.0
C2354 C 0.27844 0.36349 0.13797 0.0
C2355 C 0.28517 0.36186 0.1161 0.0
C2356 C 0.29902 0.37757 0.10712 0.0
C2357 C 0.30619 0.39507 0.11981 0.0
C2358 C 0.2995 0.39691 0.1415 0.0
C2359 C 0.28564 0.38124 0.15056 0.0
H2360 H 0.31691 0.40722 0.11282 0.0
H2361 H 0.17898 0.25537 0.19558 0.0
H2362 H 0.29544 0.72489 0.87421 0.0
H2363 H 0.26716 0.6987 0.86551 0.0
H2364 H 0.31462 0.65724 0.83438 0.0
H2365 H 0.34344 0.68393 0.84297 0.0
H2366 H 0.27882 0.66447 0.80892 0.0
H2367 H 0.29096 0.63993 0.88103 0.0
H2368 H 0.29812 0.64468 0.92027 0.0
H2369 H 0.23586 0.6755 0.92825 0.0
H2370 H 0.22838 0.67113 0.88902 0.0
H2371 H 0.19149 0.59807 0.78306 0.0
H2372 H 0.22413 0.60583 0.80443 0.0
H2373 H 0.19147 0.66014 0.83479 0.0
H2374 H 0.15843 0.65214 0.81359 0.0
H2375 H 0.22359 0.63869 0.86222 0.0
H2376 H 0.21508 0.66857 0.7894 0.0
H2377 H 0.2079 0.66459 0.75008 0.0
H2378 H 0.26491 0.62465 0.74337 0.0
H2379 H 0.27187 0.62757 0.78289 0.0
C2380 C 0.30001 0.71013 0.86568 0.0
C2381 C 0.32165 0.70649 0.85915 0.0
C2382 C 0.2838 0.69505 0.8609 0.0
C2383 C 0.28881 0.67587 0.84959 0.0
C2384 C 0.31049 0.6719 0.8433 0.0
C2385 C 0.32689 0.68708 0.84821 0.0
C2386 C 0.27079 0.66124 0.84293 0.0
C2387 C 0.26709 0.65824 0.8206 0.0
C2388 C 0.25527 0.65352 0.8582 0.0
C2389 C 0.25915 0.65526 0.88203 0.0
C2390 C 0.27879 0.64773 0.89115 0.0
C2391 C 0.2829 0.65035 0.91339 0.0
C2392 C 0.26747 0.66042 0.92673 0.0
C2393 C 0.24778 0.66767 0.91791 0.0
C2394 C 0.24356 0.66506 0.89566 0.0
C2395 C 0.19105 0.61127 0.79479 0.0
C2396 C 0.17269 0.62484 0.79642 0.0
C2397 C 0.20966 0.61559 0.80704 0.0
C2398 C 0.2103 0.63379 0.82081 0.0
C2399 C 0.19124 0.64602 0.82419 0.0
C2400 C 0.17243 0.64152 0.81205 0.0
C2401 C 0.23158 0.64233 0.82827 0.0
C2402 C 0.23571 0.64431 0.85065 0.0
C2403 C 0.24757 0.64913 0.81305 0.0
C2404 C 0.24383 0.64804 0.78916 0.0
C2405 C 0.22597 0.65876 0.77959 0.0
C2406 C 0.22191 0.65666 0.75727 0.0
C2407 C 0.23594 0.64438 0.74423 0.0
C2408 C 0.25403 0.63412 0.7535 0.0
C2409 C 0.25798 0.63591 0.77588 0.0
H2410 H 0.23283 0.64288 0.72693 0.0
H2411 H 0.27084 0.66265 0.94387 0.0
H2412 H 0.26038 0.30298 0.87875 0.0
H2413 H 0.27795 0.27124 0.86268 0.0
H2414 H 0.31081 0.31265 0.81632 0.0
H2415 H 0.29314 0.34478 0.83249 0.0
H2416 H 0.2898 0.27658 0.79761 0.0
H2417 H 0.33921 0.29078 0.85706 0.0
H2418 H 0.3485 0.29785 0.89552 0.0
H2419 H 0.32108 0.23612 0.91383 0.0
H2420 H 0.31134 0.22881 0.87555 0.0
H2421 H 0.35987 0.19562 0.75556 0.0
H2422 H 0.34442 0.22821 0.77213 0.0
H2423 H 0.31583 0.18902 0.82304 0.0
H2424 H 0.33145 0.15614 0.80649 0.0
H2425 H 0.33522 0.22448 0.83954 0.0
H2426 H 0.2842 0.20993 0.78307 0.0
H2427 H 0.27028 0.20239 0.74614 0.0
H2428 H 0.29667 0.26309 0.72343 0.0
H2429 H 0.31098 0.2709 0.7602 0.0
C2430 C 0.2715 0.3054 0.86525 0.0
C2431 C 0.27545 0.32634 0.85685 0.0
C2432 C 0.28159 0.28724 0.85617 0.0
C2433 C 0.29582 0.28964 0.83847 0.0
C2434 C 0.29993 0.31054 0.83007 0.0
C2435 C 0.28994 0.32883 0.83933 0.0
C2436 C 0.30552 0.27009 0.82828 0.0
C2437 C 0.30015 0.26539 0.80657 0.0
C2438 C 0.31815 0.2551 0.84041 0.0
C2439 C 0.3244 0.25932 0.86342 0.0
C2440 C 0.33505 0.27876 0.8693 0.0
C2441 C 0.34041 0.28281 0.89108 0.0
C2442 C 0.33534 0.26747 0.90713 0.0
C2443 C 0.32499 0.248 0.90141 0.0
C2444 C 0.31957 0.24389 0.87966 0.0
C2445 C 0.35019 0.19388 0.77025 0.0
C2446 C 0.34677 0.17331 0.77972 0.0
C2447 C 0.34132 0.21255 0.77963 0.0
C2448 C 0.32876 0.21102 0.79866 0.0
C2449 C 0.32543 0.19052 0.8083 0.0
C2450 C 0.33431 0.17176 0.79885 0.0
C2451 C 0.31968 0.23099 0.80873 0.0
C2452 C 0.32509 0.23574 0.83044 0.0
C2453 C 0.30677 0.24587 0.79671 0.0
C2454 C 0.29883 0.24092 0.77438 0.0
C2455 C 0.28723 0.22158 0.77017 0.0
C2456 C 0.27916 0.21731 0.74929 0.0
C2457 C 0.28247 0.23232 0.73249 0.0
C2458 C 0.29401 0.25155 0.7365 0.0
C2459 C 0.30211 0.2559 0.75736 0.0
H2460 H 0.27623 0.22896 0.71633 0.0
H2461 H 0.33945 0.27067 0.92399 0.0
H2462 H 0.70948 0.26326 0.88436 0.0
H2463 H 0.7403 0.28412 0.87043 0.0
H2464 H 0.69821 0.31505 0.82337 0.0
H2465 H 0.66711 0.29404 0.83732 0.0
H2466 H 0.73382 0.29435 0.80517 0.0
H2467 H 0.72067 0.3447 0.86387 0.0
H2468 H 0.71442 0.35483 0.90225 0.0
H2469 H 0.77686 0.32859 0.91975 0.0
H2470 H 0.78336 0.31804 0.88154 0.0
H2471 H 0.8104 0.36395 0.75851 0.0
H2472 H 0.77943 0.34885 0.77795 0.0
H2473 H 0.82261 0.32172 0.82632 0.0
H2474 H 0.85413 0.3369 0.80664 0.0
H2475 H 0.78679 0.34092 0.84485 0.0
H2476 H 0.79846 0.28548 0.79115 0.0
H2477 H 0.80489 0.26915 0.75498 0.0
H2478 H 0.74764 0.30069 0.7301 0.0
H2479 H 0.74052 0.31669 0.76633 0.0
C2480 C 0.70668 0.27483 0.87132 0.0
C2481 C 0.68598 0.27693 0.86175 0.0
C2482 C 0.72429 0.28684 0.86349 0.0
C2483 C 0.72151 0.30116 0.84593 0.0
C2484 C 0.70062 0.3041 0.837 0.0
C2485 C 0.6829 0.29217 0.84499 0.0
C2486 C 0.74085 0.3109 0.83533 0.0
C2487 C 0.74515 0.30495 0.81371 0.0
C2488 C 0.75617 0.32373 0.84689 0.0
C2489 C 0.75243 0.33043 0.86984 0.0
C2490 C 0.73301 0.34096 0.87592 0.0
C2491 C 0.72943 0.3468 0.89765 0.0
C2492 C 0.7452 0.34231 0.91345 0.0
C2493 C 0.76464 0.33206 0.90752 0.0
C2494 C 0.7683 0.32618 0.88581 0.0
C2495 C 0.81342 0.35476 0.77327 0.0
C2496 C 0.83473 0.35146 0.78099 0.0
C2497 C 0.79566 0.34601 0.78429 0.0
C2498 C 0.79873 0.33389 0.80338 0.0
C2499 C 0.81994 0.33098 0.81154 0.0
C2500 C 0.83788 0.33963 0.80033 0.0
C2501 C 0.77955 0.32455 0.81463 0.0
C2502 C 0.77533 0.33049 0.83632 0.0
C2503 C 0.76446 0.31124 0.80337 0.0
C2504 C 0.76908 0.30243 0.78136 0.0
C2505 C 0.78733 0.28904 0.77792 0.0
C2506 C 0.79101 0.27972 0.75746 0.0
C2507 C 0.77678 0.284 0.74021 0.0
C2508 C 0.75868 0.29743 0.74346 0.0
C2509 C 0.75472 0.30649 0.76399 0.0
H2510 H 0.77975 0.27687 0.72435 0.0
H2511 H 0.74236 0.3468 0.93026 0.0
H2512 H 0.69334 0.64175 0.83652 0.0
H2513 H 0.67584 0.67402 0.82057 0.0
H2514 H 0.69112 0.71093 0.87845 0.0
H2515 H 0.70869 0.67894 0.89425 0.0
H2516 H 0.65152 0.72359 0.85901 0.0
H2517 H 0.72695 0.70942 0.84016 0.0
H2518 H 0.75665 0.68658 0.82563 0.0
H2519 H 0.72488 0.68429 0.76333 0.0
H2520 H 0.69469 0.70668 0.77766 0.0
H2521 H 0.66486 0.83227 0.82128 0.0
H2522 H 0.67192 0.79649 0.83774 0.0
H2523 H 0.66045 0.76555 0.77564 0.0
H2524 H 0.65359 0.80103 0.75915 0.0
H2525 H 0.69548 0.74843 0.79579 0.0
H2526 H 0.62143 0.76534 0.81369 0.0
H2527 H 0.59157 0.7878 0.82841 0.0
H2528 H 0.62048 0.78515 0.89209 0.0
H2529 H 0.65073 0.76295 0.87766 0.0
C2530 C 0.69213 0.65651 0.84612 0.0
C2531 C 0.70246 0.65805 0.86646 0.0
C2532 C 0.68228 0.67493 0.83699 0.0
C2533 C 0.68255 0.69489 0.84824 0.0
C2534 C 0.69079 0.6957 0.86951 0.0
C2535 C 0.70086 0.67745 0.87848 0.0
C2536 C 0.67755 0.71556 0.83692 0.0
C2537 C 0.66111 0.72908 0.84521 0.0
C2538 C 0.69004 0.72257 0.81883 0.0
C2539 C 0.70841 0.70947 0.81007 0.0
C2540 C 0.7262 0.70389 0.82342 0.0
C2541 C 0.74312 0.69103 0.81522 0.0
C2542 C 0.7426 0.68393 0.7936 0.0
C2543 C 0.72521 0.68974 0.7801 0.0
C2544 C 0.70818 0.70249 0.78826 0.0
C2545 C 0.6641 0.81784 0.81114 0.0
C2546 C 0.65861 0.81941 0.78898 0.0
C2547 C 0.66797 0.79743 0.82056 0.0
C2548 C 0.6664 0.77837 0.80794 0.0
C2549 C 0.66167 0.78004 0.78567 0.0
C2550 C 0.65772 0.80034 0.7763 0.0
C2551 C 0.66943 0.75658 0.81788 0.0
C2552 C 0.68564 0.74288 0.80939 0.0
C2553 C 0.65672 0.74944 0.83577 0.0
C2554 C 0.63847 0.76266 0.84454 0.0
C2555 C 0.62152 0.76969 0.83079 0.0
C2556 C 0.60451 0.78235 0.83909 0.0
C2557 C 0.60416 0.78794 0.86116 0.0
C2558 C 0.62079 0.78083 0.87499 0.0
C2559 C 0.63787 0.7682 0.86676 0.0
H2560 H 0.59097 0.79775 0.86755 0.0
H2561 H 0.75569 0.67395 0.78731 0.0
H2562 H 0.65294 0.68816 0.16066 0.0
H2563 H 0.6835 0.66485 0.1719 0.0
H2564 H 0.72851 0.70795 0.13934 0.0
H2565 H 0.69832 0.73127 0.12829 0.0
H2566 H 0.73711 0.66335 0.13174 0.0
H2567 H 0.72472 0.7133 0.19196 0.0
H2568 H 0.70291 0.7313 0.22052 0.0
H2569 H 0.68656 0.66903 0.24789 0.0
H2570 H 0.70842 0.65064 0.21956 0.0
H2571 H 0.83894 0.64411 0.18657 0.0
H2572 H 0.80624 0.65662 0.16719 0.0
H2573 H 0.76618 0.61648 0.20883 0.0
H2574 H 0.79851 0.60443 0.22837 0.0
H2575 H 0.75326 0.65672 0.21064 0.0
H2576 H 0.77091 0.60698 0.15375 0.0
H2577 H 0.79366 0.58918 0.12587 0.0
H2578 H 0.79978 0.64985 0.09154 0.0
H2579 H 0.77749 0.66815 0.1195 0.0
C2580 C 0.66936 0.69257 0.15587 0.0
C2581 C 0.67329 0.71157 0.14376 0.0
C2582 C 0.68674 0.67927 0.16225 0.0
C2583 C 0.70821 0.68474 0.15641 0.0
C2584 C 0.71206 0.70342 0.14389 0.0
C2585 C 0.69479 0.71679 0.13775 0.0
C2586 C 0.72688 0.67175 0.16424 0.0
C2587 C 0.74079 0.6619 0.14897 0.0
C2588 C 0.73133 0.66961 0.18669 0.0
C2589 C 0.71796 0.6806 0.20352 0.0
C2590 C 0.71631 0.70345 0.20396 0.0
C2591 C 0.70399 0.71372 0.22012 0.0
C2592 C 0.69322 0.70132 0.2359 0.0
C2593 C 0.69486 0.67861 0.23562 0.0
C2594 C 0.70726 0.66826 0.21956 0.0
C2595 C 0.82319 0.63756 0.19112 0.0
C2596 C 0.82116 0.62359 0.20911 0.0
C2597 C 0.80452 0.64466 0.18005 0.0
C2598 C 0.78373 0.63758 0.18668 0.0
C2599 C 0.782 0.62234 0.20359 0.0
C2600 C 0.8005 0.61548 0.21474 0.0
C2601 C 0.76371 0.64807 0.17819 0.0
C2602 C 0.74955 0.6577 0.19338 0.0
C2603 C 0.75911 0.6499 0.15566 0.0
C2604 C 0.77272 0.639 0.13889 0.0
C2605 C 0.77732 0.6166 0.14041 0.0
C2606 C 0.79011 0.6064 0.12456 0.0
C2607 C 0.79821 0.61839 0.10697 0.0
C2608 C 0.79354 0.6406 0.1052 0.0
C2609 C 0.78083 0.65089 0.12105 0.0
H2610 H 0.80807 0.61045 0.09469 0.0
H2611 H 0.68368 0.70932 0.24839 0.0
H2612 H 0.3329 0.85439 0.18033 0.0
H2613 H 0.31818 0.82224 0.16171 0.0
H2614 H 0.37892 0.78844 0.17184 0.0
H2615 H 0.39349 0.8203 0.19085 0.0
H2616 H 0.35299 0.77609 0.13154 0.0
H2617 H 0.3493 0.78435 0.21072 0.0
H2618 H 0.34057 0.80506 0.24405 0.0
H2619 H 0.27365 0.80948 0.22411 0.0
H2620 H 0.28212 0.78927 0.19036 0.0
H2621 H 0.31358 0.66627 0.14348 0.0
H2622 H 0.33362 0.7005 0.14956 0.0
H2623 H 0.27272 0.73534 0.15373 0.0
H2624 H 0.25281 0.70157 0.14789 0.0
H2625 H 0.30007 0.74724 0.18558 0.0
H2626 H 0.30205 0.7372 0.10806 0.0
H2627 H 0.30973 0.71682 0.07429 0.0
H2628 H 0.37793 0.71606 0.08989 0.0
H2629 H 0.37062 0.73612 0.12399 0.0
C2630 C 0.34343 0.84049 0.17761 0.0
C2631 C 0.36416 0.83957 0.18717 0.0
C2632 C 0.33502 0.82215 0.16702 0.0
C2633 C 0.34744 0.80298 0.16571 0.0
C2634 C 0.36917 0.80312 0.17268 0.0
C2635 C 0.37741 0.82127 0.1836 0.0
C2636 C 0.33655 0.78188 0.16198 0.0
C2637 C 0.3415 0.76965 0.14334 0.0
C2638 C 0.32156 0.77366 0.17745 0.0
C2639 C 0.3164 0.78555 0.19789 0.0
C2640 C 0.33278 0.78995 0.21332 0.0
C2641 C 0.32788 0.80157 0.2323 0.0
C2642 C 0.30658 0.8086 0.23618 0.0
C2643 C 0.29015 0.80405 0.22107 0.0
C2644 C 0.29499 0.79254 0.202 0.0
C2645 C 0.30456 0.68123 0.14592 0.0
C2646 C 0.28168 0.6813 0.14519 0.0
C2647 C 0.31598 0.70074 0.14922 0.0
C2648 C 0.3046 0.72044 0.15187 0.0
C2649 C 0.28179 0.72033 0.15168 0.0
C2650 C 0.27045 0.701 0.14831 0.0
C2651 C 0.31618 0.74137 0.15493 0.0
C2652 C 0.31148 0.75359 0.17365 0.0
C2653 C 0.33122 0.74955 0.13943 0.0
C2654 C 0.33575 0.7379 0.11874 0.0
C2655 C 0.31867 0.73254 0.10439 0.0
C2656 C 0.32295 0.72107 0.08518 0.0
C2657 C 0.34428 0.71504 0.08005 0.0
C2658 C 0.36141 0.72067 0.09397 0.0
C2659 C 0.35721 0.7321 0.11323 0.0
H2660 H 0.34751 0.70596 0.06532 0.0
H2661 H 0.30278 0.81749 0.25092 0.0
H2662 H 0.67983 0.32847 0.1351 0.0
H2663 H 0.6563 0.29591 0.13484 0.0
H2664 H 0.71316 0.25508 0.14151 0.0
H2665 H 0.73641 0.28707 0.14135 0.0
H2666 H 0.6865 0.23875 0.11147 0.0
H2667 H 0.6794 0.26946 0.18531 0.0
H2668 H 0.66855 0.29811 0.21135 0.0
H2669 H 0.60302 0.29595 0.18683 0.0
H2670 H 0.61358 0.26743 0.16048 0.0
H2671 H 0.67899 0.15151 0.18206 0.0
H2672 H 0.68355 0.18293 0.15818 0.0
H2673 H 0.61373 0.18965 0.15342 0.0
H2674 H 0.60911 0.15776 0.17708 0.0
H2675 H 0.63398 0.22549 0.1714 0.0
H2676 H 0.6409 0.18477 0.10687 0.0
H2677 H 0.65279 0.15487 0.08286 0.0
H2678 H 0.71949 0.17454 0.09081 0.0
H2679 H 0.70807 0.20437 0.11514 0.0
C2680 C 0.68718 0.31251 0.13663 0.0
C2681 C 0.70992 0.31029 0.1383 0.0
C2682 C 0.67377 0.29396 0.13638 0.0
C2683 C 0.68299 0.27304 0.13802 0.0
C2684 C 0.70567 0.27099 0.1399 0.0
C2685 C 0.71895 0.28935 0.14 0.0
C2686 C 0.66953 0.25295 0.13871 0.0
C2687 C 0.67489 0.23583 0.12447 0.0
C2688 C 0.65361 0.24944 0.155 0.0
C2689 C 0.64734 0.2666 0.17074 0.0
C2690 C 0.66273 0.27524 0.18537 0.0
C2691 C 0.65662 0.29142 0.20019 0.0
C2692 C 0.63513 0.29891 0.20068 0.0
C2693 C 0.61968 0.29019 0.18638 0.0
C2694 C 0.62571 0.27403 0.1715 0.0
C2695 C 0.66464 0.15905 0.17507 0.0
C2696 C 0.64374 0.15226 0.18133 0.0
C2697 C 0.66723 0.17701 0.1614 0.0
C2698 C 0.64896 0.18865 0.15403 0.0
C2699 C 0.62801 0.1808 0.15882 0.0
C2700 C 0.6254 0.16251 0.1722 0.0
C2701 C 0.65222 0.21087 0.14517 0.0
C2702 C 0.64488 0.22849 0.15779 0.0
C2703 C 0.66652 0.21476 0.12756 0.0
C2704 C 0.67359 0.19685 0.11287 0.0
C2705 C 0.65812 0.18266 0.10361 0.0
C2706 C 0.66478 0.16572 0.08992 0.0
C2707 C 0.68688 0.16281 0.08531 0.0
C2708 C 0.70237 0.17685 0.09437 0.0
C2709 C 0.6958 0.19381 0.10807 0.0
H2710 H 0.692 0.14968 0.07471 0.0
H2711 H 0.63043 0.31143 0.21218 0.0
loop_
_geom_bond_atom_site_label_1
_geom_bond_atom_site_label_2
_geom_bond_distance
_geom_bond_site_symmetry_2
_ccdc_geom_bond_type
In0 O1 2.294 . S
In0 O2 2.326 . S
In0 O6 2.266 . S
In0 O7 2.326 . S
In0 O8 2.266 . S
In0 O9 2.326 . S
In0 O11 2.294 . S
In0 O12 2.326 . S
O1 In0 2.294 . S
O1 C10 1.240 . S
O2 In0 2.326 . S
O2 C10 1.252 . S
C3 O6 1.252 . S
C3 O7 1.260 . S
C4 O11 1.240 . S
C4 O12 1.252 . S
C5 O8 1.252 . S
C5 O9 1.260 . S
O6 In0 2.266 . S
O6 C3 1.252 . S
O7 In0 2.326 . S
O7 C3 1.260 . S
O8 In0 2.266 . S
O8 C5 1.252 . S
O9 In0 2.326 . S
O9 C5 1.260 . S
C10 O1 1.240 . S
C10 O2 1.252 . S
O11 In0 2.294 . S
O11 C4 1.240 . S
O12 In0 2.326 . S
O12 C4 1.252 . S
In13 O14 2.294 . S
In13 O15 2.326 . S
In13 O19 2.266 . S
In13 O20 2.326 . S
In13 O21 2.266 . S
In13 O22 2.326 . S
In13 O24 2.294 . S
In13 O25 2.326 . S
O14 In13 2.294 . S
O14 C23 1.240 . S
O15 In13 2.326 . S
O15 C23 1.252 . S
C16 O19 1.252 . S
C16 O20 1.260 . S
C17 O24 1.240 . S
C17 O25 1.252 . S
C18 O21 1.252 . S
C18 O22 1.260 . S
O19 In13 2.266 . S
O19 C16 1.252 . S
O20 In13 2.326 . S
O20 C16 1.260 . S
O21 In13 2.266 . S
O21 C18 1.252 . S
O22 In13 2.326 . S
O22 C18 1.260 . S
C23 O14 1.240 . S
C23 O15 1.252 . S
O24 In13 2.294 . S
O24 C17 1.240 . S
O25 In13 2.326 . S
O25 C17 1.252 . S
In26 O27 2.294 . S
In26 O28 2.326 . S
In26 O32 2.266 . S
In26 O33 2.326 . S
In26 O34 2.266 . S
In26 O35 2.326 . S
In26 O37 2.294 . S
In26 O38 2.326 . S
O27 In26 2.294 . S
O27 C36 1.240 . S
O28 In26 2.326 . S
O28 C36 1.252 . S
C29 O32 1.252 . S
C29 O33 1.260 . S
C30 O37 1.240 . S
C30 O38 1.252 . S
C31 O34 1.252 . S
C31 O35 1.260 . S
O32 In26 2.266 . S
O32 C29 1.252 . S
O33 In26 2.326 . S
O33 C29 1.260 . S
O34 In26 2.266 . S
O34 C31 1.252 . S
O35 In26 2.326 . S
O35 C31 1.260 . S
C36 O27 1.240 . S
C36 O28 1.252 . S
O37 In26 2.294 . S
O37 C30 1.240 . S
O38 In26 2.326 . S
O38 C30 1.252 . S
In39 O40 2.294 . S
In39 O41 2.326 . S
In39 O45 2.266 . S
In39 O46 2.326 . S
In39 O47 2.266 . S
In39 O48 2.326 . S
In39 O50 2.294 . S
In39 O51 2.326 . S
O40 In39 2.294 . S
O40 C49 1.240 . S
O41 In39 2.326 . S
O41 C49 1.252 . S
C42 O45 1.252 . S
C42 O46 1.260 . S
C43 O50 1.240 . S
C43 O51 1.252 . S
C44 O47 1.252 . S
C44 O48 1.260 . S
O45 In39 2.266 . S
O45 C42 1.252 . S
O46 In39 2.326 . S
O46 C42 1.260 . S
O47 In39 2.266 . S
O47 C44 1.252 . S
O48 In39 2.326 . S
O48 C44 1.260 . S
C49 O40 1.240 . S
C49 O41 1.252 . S
O50 In39 2.294 . S
O50 C43 1.240 . S
O51 In39 2.326 . S
O51 C43 1.252 . S
In52 O53 2.294 . S
In52 O54 2.326 . S
In52 O58 2.266 . S
In52 O59 2.326 . S
In52 O60 2.266 . S
In52 O61 2.326 . S
In52 O63 2.294 . S
In52 O64 2.326 . S
O53 In52 2.294 . S
O53 C62 1.240 . S
O54 In52 2.326 . S
O54 C62 1.252 . S
C55 O58 1.252 . S
C55 O59 1.260 . S
C56 O63 1.240 . S
C56 O64 1.252 . S
C57 O60 1.252 . S
C57 O61 1.260 . S
O58 In52 2.266 . S
O58 C55 1.252 . S
O59 In52 2.326 . S
O59 C55 1.260 . S
O60 In52 2.266 . S
O60 C57 1.252 . S
O61 In52 2.326 . S
O61 C57 1.260 . S
C62 O53 1.240 . S
C62 O54 1.252 . S
O63 In52 2.294 . S
O63 C56 1.240 . S
O64 In52 2.326 . S
O64 C56 1.252 . S
In65 O66 2.294 . S
In65 O67 2.326 . S
In65 O71 2.266 . S
In65 O72 2.326 . S
In65 O73 2.266 . S
In65 O74 2.326 . S
In65 O76 2.294 . S
In65 O77 2.326 . S
O66 In65 2.294 . S
O66 C75 1.240 . S
O67 In65 2.326 . S
O67 C75 1.252 . S
C68 O71 1.252 . S
C68 O72 1.260 . S
C69 O76 1.240 . S
C69 O77 1.252 . S
C70 O73 1.252 . S
C70 O74 1.260 . S
O71 In65 2.266 . S
O71 C68 1.252 . S
O72 In65 2.326 . S
O72 C68 1.260 . S
O73 In65 2.266 . S
O73 C70 1.252 . S
O74 In65 2.326 . S
O74 C70 1.260 . S
C75 O66 1.240 . S
C75 O67 1.252 . S
O76 In65 2.294 . S
O76 C69 1.240 . S
O77 In65 2.326 . S
O77 C69 1.252 . S
In78 O79 2.294 . S
In78 O80 2.326 . S
In78 O84 2.266 . S
In78 O85 2.326 . S
In78 O86 2.266 . S
In78 O87 2.326 . S
In78 O89 2.294 . S
In78 O90 2.326 . S
O79 In78 2.294 . S
O79 C88 1.240 . S
O80 In78 2.326 . S
O80 C88 1.252 . S
C81 O84 1.252 . S
C81 O85 1.260 . S
C82 O89 1.240 . S
C82 O90 1.252 . S
C83 O86 1.252 . S
C83 O87 1.260 . S
O84 In78 2.266 . S
O84 C81 1.252 . S
O85 In78 2.326 . S
O85 C81 1.260 . S
O86 In78 2.266 . S
O86 C83 1.252 . S
O87 In78 2.326 . S
O87 C83 1.260 . S
C88 O79 1.240 . S
C88 O80 1.252 . S
O89 In78 2.294 . S
O89 C82 1.240 . S
O90 In78 2.326 . S
O90 C82 1.252 . S
In91 O92 2.294 . S
In91 O93 2.326 . S
In91 O97 2.266 . S
In91 O98 2.326 . S
In91 O99 2.266 . S
In91 O100 2.326 . S
In91 O102 2.294 . S
In91 O103 2.326 . S
O92 In91 2.294 . S
O92 C101 1.240 . S
O93 In91 2.326 . S
O93 C101 1.252 . S
C94 O97 1.252 . S
C94 O98 1.260 . S
C95 O102 1.240 . S
C95 O103 1.252 . S
C96 O99 1.252 . S
C96 O100 1.260 . S
O97 In91 2.266 . S
O97 C94 1.252 . S
O98 In91 2.326 . S
O98 C94 1.260 . S
O99 In91 2.266 . S
O99 C96 1.252 . S
O100 In91 2.326 . S
O100 C96 1.260 . S
C101 O92 1.240 . S
C101 O93 1.252 . S
O102 In91 2.294 . S
O102 C95 1.240 . S
O103 In91 2.326 . S
O103 C95 1.252 . S
In104 O105 2.294 . S
In104 O106 2.326 . S
In104 O110 2.266 . S
In104 O111 2.326 . S
In104 O112 2.266 . S
In104 O113 2.326 . S
In104 O115 2.294 . S
In104 O116 2.326 . S
O105 In104 2.294 . S
O105 C114 1.240 . S
O106 In104 2.326 . S
O106 C114 1.252 . S
C107 O110 1.252 . S
C107 O111 1.260 . S
C108 O115 1.240 . S
C108 O116 1.252 . S
C109 O112 1.252 . S
C109 O113 1.260 . S
O110 In104 2.266 . S
O110 C107 1.252 . S
O111 In104 2.326 . S
O111 C107 1.260 . S
O112 In104 2.266 . S
O112 C109 1.252 . S
O113 In104 2.326 . S
O113 C109 1.260 . S
C114 O105 1.240 . S
C114 O106 1.252 . S
O115 In104 2.294 . S
O115 C108 1.240 . S
O116 In104 2.326 . S
O116 C108 1.252 . S
In117 O118 2.294 . S
In117 O119 2.326 . S
In117 O123 2.266 . S
In117 O124 2.326 . S
In117 O125 2.266 . S
In117 O126 2.326 . S
In117 O128 2.294 . S
In117 O129 2.326 . S
O118 In117 2.294 . S
O118 C127 1.240 . S
O119 In117 2.326 . S
O119 C127 1.252 . S
C120 O123 1.252 . S
C120 O124 1.260 . S
C121 O128 1.240 . S
C121 O129 1.252 . S
C122 O125 1.252 . S
C122 O126 1.260 . S
O123 In117 2.266 . S
O123 C120 1.252 . S
O124 In117 2.326 . S
O124 C120 1.260 . S
O125 In117 2.266 . S
O125 C122 1.252 . S
O126 In117 2.326 . S
O126 C122 1.260 . S
C127 O118 1.240 . S
C127 O119 1.252 . S
O128 In117 2.294 . S
O128 C121 1.240 . S
O129 In117 2.326 . S
O129 C121 1.252 . S
In130 O131 2.294 . S
In130 O132 2.326 . S
In130 O136 2.266 . S
In130 O137 2.326 . S
In130 O138 2.266 . S
In130 O139 2.326 . S
In130 O141 2.294 . S
In130 O142 2.326 . S
O131 In130 2.294 . S
O131 C140 1.240 . S
O132 In130 2.326 . S
O132 C140 1.252 . S
C133 O136 1.252 . S
C133 O137 1.260 . S
C134 O141 1.240 . S
C134 O142 1.252 . S
C135 O138 1.252 . S
C135 O139 1.260 . S
O136 In130 2.266 . S
O136 C133 1.252 . S
O137 In130 2.326 . S
O137 C133 1.260 . S
O138 In130 2.266 . S
O138 C135 1.252 . S
O139 In130 2.326 . S
O139 C135 1.260 . S
C140 O131 1.240 . S
C140 O132 1.252 . S
O141 In130 2.294 . S
O141 C134 1.240 . S
O142 In130 2.326 . S
O142 C134 1.252 . S
In143 O144 2.294 . S
In143 O145 2.326 . S
In143 O149 2.266 . S
In143 O150 2.326 . S
In143 O151 2.266 . S
In143 O152 2.326 . S
In143 O154 2.294 . S
In143 O155 2.326 . S
O144 In143 2.294 . S
O144 C153 1.240 . S
O145 In143 2.326 . S
O145 C153 1.252 . S
C146 O149 1.252 . S
C146 O150 1.260 . S
C147 O154 1.240 . S
C147 O155 1.252 . S
C148 O151 1.252 . S
C148 O152 1.260 . S
O149 In143 2.266 . S
O149 C146 1.252 . S
O150 In143 2.326 . S
O150 C146 1.260 . S
O151 In143 2.266 . S
O151 C148 1.252 . S
O152 In143 2.326 . S
O152 C148 1.260 . S
C153 O144 1.240 . S
C153 O145 1.252 . S
O154 In143 2.294 . S
O154 C147 1.240 . S
O155 In143 2.326 . S
O155 C147 1.252 . S
In156 O157 2.294 . S
In156 O158 2.326 . S
In156 O162 2.266 . S
In156 O163 2.326 . S
In156 O164 2.266 . S
In156 O165 2.326 . S
In156 O167 2.294 . S
In156 O168 2.326 . S
O157 In156 2.294 . S
O157 C166 1.240 . S
O158 In156 2.326 . S
O158 C166 1.252 . S
C159 O162 1.252 . S
C159 O163 1.260 . S
C160 O167 1.240 . S
C160 O168 1.252 . S
C161 O164 1.252 . S
C161 O165 1.260 . S
O162 In156 2.266 . S
O162 C159 1.252 . S
O163 In156 2.326 . S
O163 C159 1.260 . S
O164 In156 2.266 . S
O164 C161 1.252 . S
O165 In156 2.326 . S
O165 C161 1.260 . S
C166 O157 1.240 . S
C166 O158 1.252 . S
O167 In156 2.294 . S
O167 C160 1.240 . S
O168 In156 2.326 . S
O168 C160 1.252 . S
In169 O170 2.294 . S
In169 O171 2.326 . S
In169 O175 2.266 . S
In169 O176 2.326 . S
In169 O177 2.266 . S
In169 O178 2.326 . S
In169 O180 2.294 . S
In169 O181 2.326 . S
O170 In169 2.294 . S
O170 C179 1.240 . S
O171 In169 2.326 . S
O171 C179 1.252 . S
C172 O175 1.252 . S
C172 O176 1.260 . S
C173 O180 1.240 . S
C173 O181 1.252 . S
C174 O177 1.252 . S
C174 O178 1.260 . S
O175 In169 2.266 . S
O175 C172 1.252 . S
O176 In169 2.326 . S
O176 C172 1.260 . S
O177 In169 2.266 . S
O177 C174 1.252 . S
O178 In169 2.326 . S
O178 C174 1.260 . S
C179 O170 1.240 . S
C179 O171 1.252 . S
O180 In169 2.294 . S
O180 C173 1.240 . S
O181 In169 2.326 . S
O181 C173 1.252 . S
In182 O183 2.294 . S
In182 O184 2.326 . S
In182 O188 2.266 . S
In182 O189 2.326 . S
In182 O190 2.266 . S
In182 O191 2.326 . S
In182 O193 2.294 . S
In182 O194 2.326 . S
O183 In182 2.294 . S
O183 C192 1.240 . S
O184 In182 2.326 . S
O184 C192 1.252 . S
C185 O188 1.252 . S
C185 O189 1.260 . S
C186 O193 1.240 . S
C186 O194 1.252 . S
C187 O190 1.252 . S
C187 O191 1.260 . S
O188 In182 2.266 . S
O188 C185 1.252 . S
O189 In182 2.326 . S
O189 C185 1.260 . S
O190 In182 2.266 . S
O190 C187 1.252 . S
O191 In182 2.326 . S
O191 C187 1.260 . S
C192 O183 1.240 . S
C192 O184 1.252 . S
O193 In182 2.294 . S
O193 C186 1.240 . S
O194 In182 2.326 . S
O194 C186 1.252 . S
In195 O196 2.294 . S
In195 O197 2.326 . S
In195 O201 2.266 . S
In195 O202 2.326 . S
In195 O203 2.266 . S
In195 O204 2.326 . S
In195 O206 2.294 . S
In195 O207 2.326 . S
O196 In195 2.294 . S
O196 C205 1.240 . S
O197 In195 2.326 . S
O197 C205 1.252 . S
C198 O201 1.252 . S
C198 O202 1.260 . S
C199 O206 1.240 . S
C199 O207 1.252 . S
C200 O203 1.252 . S
C200 O204 1.260 . S
O201 In195 2.266 . S
O201 C198 1.252 . S
O202 In195 2.326 . S
O202 C198 1.260 . S
O203 In195 2.266 . S
O203 C200 1.252 . S
O204 In195 2.326 . S
O204 C200 1.260 . S
C205 O196 1.240 . S
C205 O197 1.252 . S
O206 In195 2.294 . S
O206 C199 1.240 . S
O207 In195 2.326 . S
O207 C199 1.252 . S
In208 O209 2.294 . S
In208 O210 2.326 . S
In208 O214 2.266 . S
In208 O215 2.326 . S
In208 O216 2.266 . S
In208 O217 2.326 . S
In208 O219 2.294 . S
In208 O220 2.326 . S
O209 In208 2.294 . S
O209 C218 1.240 . S
O210 In208 2.326 . S
O210 C218 1.252 . S
C211 O214 1.252 . S
C211 O215 1.260 . S
C212 O219 1.240 . S
C212 O220 1.252 . S
C213 O216 1.252 . S
C213 O217 1.260 . S
O214 In208 2.266 . S
O214 C211 1.252 . S
O215 In208 2.326 . S
O215 C211 1.260 . S
O216 In208 2.266 . S
O216 C213 1.252 . S
O217 In208 2.326 . S
O217 C213 1.260 . S
C218 O209 1.240 . S
C218 O210 1.252 . S
O219 In208 2.294 . S
O219 C212 1.240 . S
O220 In208 2.326 . S
O220 C212 1.252 . S
In221 O222 2.294 . S
In221 O223 2.326 . S
In221 O227 2.266 . S
In221 O228 2.326 . S
In221 O229 2.266 . S
In221 O230 2.326 . S
In221 O232 2.294 . S
In221 O233 2.326 . S
O222 In221 2.294 . S
O222 C231 1.240 . S
O223 In221 2.326 . S
O223 C231 1.252 . S
C224 O227 1.252 . S
C224 O228 1.260 . S
C225 O232 1.240 . S
C225 O233 1.252 . S
C226 O229 1.252 . S
C226 O230 1.260 . S
O227 In221 2.266 . S
O227 C224 1.252 . S
O228 In221 2.326 . S
O228 C224 1.260 . S
O229 In221 2.266 . S
O229 C226 1.252 . S
O230 In221 2.326 . S
O230 C226 1.260 . S
C231 O222 1.240 . S
C231 O223 1.252 . S
O232 In221 2.294 . S
O232 C225 1.240 . S
O233 In221 2.326 . S
O233 C225 1.252 . S
In234 O235 2.294 . S
In234 O236 2.326 . S
In234 O240 2.266 . S
In234 O241 2.326 . S
In234 O242 2.266 . S
In234 O243 2.326 . S
In234 O245 2.294 . S
In234 O246 2.326 . S
O235 In234 2.294 . S
O235 C244 1.240 . S
O236 In234 2.326 . S
O236 C244 1.252 . S
C237 O240 1.252 . S
C237 O241 1.260 . S
C238 O245 1.240 . S
C238 O246 1.252 . S
C239 O242 1.252 . S
C239 O243 1.260 . S
O240 In234 2.266 . S
O240 C237 1.252 . S
O241 In234 2.326 . S
O241 C237 1.260 . S
O242 In234 2.266 . S
O242 C239 1.252 . S
O243 In234 2.326 . S
O243 C239 1.260 . S
C244 O235 1.240 . S
C244 O236 1.252 . S
O245 In234 2.294 . S
O245 C238 1.240 . S
O246 In234 2.326 . S
O246 C238 1.252 . S
In247 O248 2.294 . S
In247 O249 2.326 . S
In247 O253 2.266 . S
In247 O254 2.326 . S
In247 O255 2.266 . S
In247 O256 2.326 . S
In247 O258 2.294 . S
In247 O259 2.326 . S
O248 In247 2.294 . S
O248 C257 1.240 . S
O249 In247 2.326 . S
O249 C257 1.252 . S
C250 O253 1.252 . S
C250 O254 1.260 . S
C251 O258 1.240 . S
C251 O259 1.252 . S
C252 O255 1.252 . S
C252 O256 1.260 . S
O253 In247 2.266 . S
O253 C250 1.252 . S
O254 In247 2.326 . S
O254 C250 1.260 . S
O255 In247 2.266 . S
O255 C252 1.252 . S
O256 In247 2.326 . S
O256 C252 1.260 . S
C257 O248 1.240 . S
C257 O249 1.252 . S
O258 In247 2.294 . S
O258 C251 1.240 . S
O259 In247 2.326 . S
O259 C251 1.252 . S
In260 O261 2.294 . S
In260 O262 2.326 . S
In260 O266 2.266 . S
In260 O267 2.326 . S
In260 O268 2.266 . S
In260 O269 2.326 . S
In260 O271 2.294 . S
In260 O272 2.326 . S
O261 In260 2.294 . S
O261 C270 1.240 . S
O262 In260 2.326 . S
O262 C270 1.252 . S
C263 O266 1.252 . S
C263 O267 1.260 . S
C264 O271 1.240 . S
C264 O272 1.252 . S
C265 O268 1.252 . S
C265 O269 1.260 . S
O266 In260 2.266 . S
O266 C263 1.252 . S
O267 In260 2.326 . S
O267 C263 1.260 . S
O268 In260 2.266 . S
O268 C265 1.252 . S
O269 In260 2.326 . S
O269 C265 1.260 . S
C270 O261 1.240 . S
C270 O262 1.252 . S
O271 In260 2.294 . S
O271 C264 1.240 . S
O272 In260 2.326 . S
O272 C264 1.252 . S
In273 O274 2.294 . S
In273 O275 2.326 . S
In273 O279 2.266 . S
In273 O280 2.326 . S
In273 O281 2.266 . S
In273 O282 2.326 . S
In273 O284 2.294 . S
In273 O285 2.326 . S
O274 In273 2.294 . S
O274 C283 1.240 . S
O275 In273 2.326 . S
O275 C283 1.252 . S
C276 O279 1.252 . S
C276 O280 1.260 . S
C277 O284 1.240 . S
C277 O285 1.252 . S
C278 O281 1.252 . S
C278 O282 1.260 . S
O279 In273 2.266 . S
O279 C276 1.252 . S
O280 In273 2.326 . S
O280 C276 1.260 . S
O281 In273 2.266 . S
O281 C278 1.252 . S
O282 In273 2.326 . S
O282 C278 1.260 . S
C283 O274 1.240 . S
C283 O275 1.252 . S
O284 In273 2.294 . S
O284 C277 1.240 . S
O285 In273 2.326 . S
O285 C277 1.252 . S
In286 O287 2.294 . S
In286 O288 2.326 . S
In286 O292 2.266 . S
In286 O293 2.326 . S
In286 O294 2.266 . S
In286 O295 2.326 . S
In286 O297 2.294 . S
In286 O298 2.326 . S
O287 In286 2.294 . S
O287 C296 1.240 . S
O288 In286 2.326 . S
O288 C296 1.252 . S
C289 O292 1.252 . S
C289 O293 1.260 . S
C290 O297 1.240 . S
C290 O298 1.252 . S
C291 O294 1.252 . S
C291 O295 1.260 . S
O292 In286 2.266 . S
O292 C289 1.252 . S
O293 In286 2.326 . S
O293 C289 1.260 . S
O294 In286 2.266 . S
O294 C291 1.252 . S
O295 In286 2.326 . S
O295 C291 1.260 . S
C296 O287 1.240 . S
C296 O288 1.252 . S
O297 In286 2.294 . S
O297 C290 1.240 . S
O298 In286 2.326 . S
O298 C290 1.252 . S
In299 O300 2.294 . S
In299 O301 2.326 . S
In299 O305 2.266 . S
In299 O306 2.326 . S
In299 O307 2.266 . S
In299 O308 2.326 . S
In299 O310 2.294 . S
In299 O311 2.326 . S
O300 In299 2.294 . S
O300 C309 1.240 . S
O301 In299 2.326 . S
O301 C309 1.252 . S
C302 O305 1.252 . S
C302 O306 1.260 . S
C303 O310 1.240 . S
C303 O311 1.252 . S
C304 O307 1.252 . S
C304 O308 1.260 . S
O305 In299 2.266 . S
O305 C302 1.252 . S
O306 In299 2.326 . S
O306 C302 1.260 . S
O307 In299 2.266 . S
O307 C304 1.252 . S
O308 In299 2.326 . S
O308 C304 1.260 . S
C309 O300 1.240 . S
C309 O301 1.252 . S
O310 In299 2.294 . S
O310 C303 1.240 . S
O311 In299 2.326 . S
O311 C303 1.252 . S
H312 C330 0.951 . S
H313 C332 0.951 . S
H314 C334 0.950 . S
H315 C335 0.950 . S
H316 C337 0.950 . S
H317 C340 0.950 . S
H318 C341 0.950 . S
H319 C343 0.950 . S
H320 C344 0.950 . S
H321 C345 0.951 . S
H322 C347 0.951 . S
H323 C349 0.950 . S
H324 C350 0.950 . S
H325 C352 0.950 . S
H326 C355 0.950 . S
H327 C356 0.950 . S
H328 C358 0.950 . S
H329 C359 0.950 . S
C330 H312 0.951 . S
C330 C331 1.366 . S
C330 C332 1.388 . S
C331 C330 1.366 . S
C331 C335 1.385 . S
C332 H313 0.951 . S
C332 C330 1.388 . S
C332 C333 1.366 . S
C333 C332 1.366 . S
C333 C334 1.414 . S
C333 C336 1.499 . S
C334 H314 0.950 . S
C334 C333 1.414 . S
C334 C335 1.374 . S
C335 H315 0.950 . S
C335 C331 1.385 . S
C335 C334 1.374 . S
C336 C333 1.499 . S
C336 C337 1.373 . S
C336 C338 1.389 . S
C337 H316 0.950 . S
C337 C336 1.373 . S
C337 C353 1.377 . S
C338 C336 1.389 . S
C338 C339 1.524 . S
C338 C352 1.377 . S
C339 C338 1.524 . S
C339 C340 1.397 . S
C339 C344 1.363 . S
C340 H317 0.950 . S
C340 C339 1.397 . S
C340 C341 1.334 . S
C341 H318 0.950 . S
C341 C340 1.334 . S
C341 C342 1.287 . S
C342 C341 1.287 . S
C342 C343 1.524 . S
C342 H361 0.913 . S
C343 H319 0.950 . S
C343 C342 1.524 . S
C343 C344 1.415 . S
C344 H320 0.950 . S
C344 C339 1.363 . S
C344 C343 1.415 . S
C345 H321 0.951 . S
C345 C346 1.366 . S
C345 C347 1.388 . S
C346 C345 1.366 . S
C346 C350 1.385 . S
C347 H322 0.951 . S
C347 C345 1.388 . S
C347 C348 1.366 . S
C348 C347 1.366 . S
C348 C349 1.414 . S
C348 C351 1.499 . S
C349 H323 0.950 . S
C349 C348 1.414 . S
C349 C350 1.374 . S
C350 H324 0.950 . S
C350 C346 1.385 . S
C350 C349 1.374 . S
C351 C348 1.499 . S
C351 C352 1.373 . S
C351 C353 1.389 . S
C352 H325 0.950 . S
C352 C338 1.377 . S
C352 C351 1.373 . S
C353 C337 1.377 . S
C353 C351 1.389 . S
C353 C354 1.524 . S
C354 C353 1.524 . S
C354 C355 1.397 . S
C354 C359 1.363 . S
C355 H326 0.950 . S
C355 C354 1.397 . S
C355 C356 1.334 . S
C356 H327 0.950 . S
C356 C355 1.334 . S
C356 C357 1.287 . S
C357 C356 1.287 . S
C357 C358 1.524 . S
C357 H360 0.999 . S
C358 H328 0.950 . S
C358 C357 1.524 . S
C358 C359 1.415 . S
C359 H329 0.950 . S
C359 C354 1.363 . S
C359 C358 1.415 . S
H360 C357 0.999 . S
H361 C342 0.913 . S
H362 C380 0.951 . S
H363 C382 0.951 . S
H364 C384 0.950 . S
H365 C385 0.950 . S
H366 C387 0.950 . S
H367 C390 0.950 . S
H368 C391 0.950 . S
H369 C393 0.950 . S
H370 C394 0.950 . S
H371 C395 0.951 . S
H372 C397 0.951 . S
H373 C399 0.950 . S
H374 C400 0.950 . S
H375 C402 0.950 . S
H376 C405 0.950 . S
H377 C406 0.950 . S
H378 C408 0.950 . S
H379 C409 0.950 . S
C380 H362 0.951 . S
C380 C381 1.366 . S
C380 C382 1.388 . S
C381 C380 1.366 . S
C381 C385 1.385 . S
C382 H363 0.951 . S
C382 C380 1.388 . S
C382 C383 1.366 . S
C383 C382 1.366 . S
C383 C384 1.414 . S
C383 C386 1.499 . S
C384 H364 0.950 . S
C384 C383 1.414 . S
C384 C385 1.374 . S
C385 H365 0.950 . S
C385 C381 1.385 . S
C385 C384 1.374 . S
C386 C383 1.499 . S
C386 C387 1.373 . S
C386 C388 1.389 . S
C387 H366 0.950 . S
C387 C386 1.373 . S
C387 C403 1.377 . S
C388 C386 1.389 . S
C388 C389 1.524 . S
C388 C402 1.377 . S
C389 C388 1.524 . S
C389 C390 1.397 . S
C389 C394 1.363 . S
C390 H367 0.950 . S
C390 C389 1.397 . S
C390 C391 1.334 . S
C391 H368 0.950 . S
C391 C390 1.334 . S
C391 C392 1.287 . S
C392 C391 1.287 . S
C392 C393 1.524 . S
C392 H411 0.913 . S
C393 H369 0.950 . S
C393 C392 1.524 . S
C393 C394 1.415 . S
C394 H370 0.950 . S
C394 C389 1.363 . S
C394 C393 1.415 . S
C395 H371 0.951 . S
C395 C396 1.366 . S
C395 C397 1.388 . S
C396 C395 1.366 . S
C396 C400 1.385 . S
C397 H372 0.951 . S
C397 C395 1.388 . S
C397 C398 1.366 . S
C398 C397 1.366 . S
C398 C399 1.414 . S
C398 C401 1.499 . S
C399 H373 0.950 . S
C399 C398 1.414 . S
C399 C400 1.374 . S
C400 H374 0.950 . S
C400 C396 1.385 . S
C400 C399 1.374 . S
C401 C398 1.499 . S
C401 C402 1.373 . S
C401 C403 1.389 . S
C402 H375 0.950 . S
C402 C388 1.377 . S
C402 C401 1.373 . S
C403 C387 1.377 . S
C403 C401 1.389 . S
C403 C404 1.524 . S
C404 C403 1.524 . S
C404 C405 1.397 . S
C404 C409 1.363 . S
C405 H376 0.950 . S
C405 C404 1.397 . S
C405 C406 1.334 . S
C406 H377 0.950 . S
C406 C405 1.334 . S
C406 C407 1.287 . S
C407 C406 1.287 . S
C407 C408 1.524 . S
C407 H410 0.999 . S
C408 H378 0.950 . S
C408 C407 1.524 . S
C408 C409 1.415 . S
C409 H379 0.950 . S
C409 C404 1.363 . S
C409 C408 1.415 . S
H410 C407 0.999 . S
H411 C392 0.913 . S
H412 C430 0.951 . S
H413 C432 0.951 . S
H414 C434 0.950 . S
H415 C435 0.950 . S
H416 C437 0.950 . S
H417 C440 0.950 . S
H418 C441 0.950 . S
H419 C443 0.950 . S
H420 C444 0.950 . S
H421 C445 0.951 . S
H422 C447 0.951 . S
H423 C449 0.950 . S
H424 C450 0.950 . S
H425 C452 0.950 . S
H426 C455 0.950 . S
H427 C456 0.950 . S
H428 C458 0.950 . S
H429 C459 0.950 . S
C430 H412 0.951 . S
C430 C431 1.366 . S
C430 C432 1.388 . S
C431 C430 1.366 . S
C431 C435 1.385 . S
C432 H413 0.951 . S
C432 C430 1.388 . S
C432 C433 1.366 . S
C433 C432 1.366 . S
C433 C434 1.414 . S
C433 C436 1.499 . S
C434 H414 0.950 . S
C434 C433 1.414 . S
C434 C435 1.374 . S
C435 H415 0.950 . S
C435 C431 1.385 . S
C435 C434 1.374 . S
C436 C433 1.499 . S
C436 C437 1.373 . S
C436 C438 1.389 . S
C437 H416 0.950 . S
C437 C436 1.373 . S
C437 C453 1.377 . S
C438 C436 1.389 . S
C438 C439 1.524 . S
C438 C452 1.377 . S
C439 C438 1.524 . S
C439 C440 1.397 . S
C439 C444 1.363 . S
C440 H417 0.950 . S
C440 C439 1.397 . S
C440 C441 1.334 . S
C441 H418 0.950 . S
C441 C440 1.334 . S
C441 C442 1.287 . S
C442 C441 1.287 . S
C442 C443 1.524 . S
C442 H461 0.913 . S
C443 H419 0.950 . S
C443 C442 1.524 . S
C443 C444 1.415 . S
C444 H420 0.950 . S
C444 C439 1.363 . S
C444 C443 1.415 . S
C445 H421 0.951 . S
C445 C446 1.366 . S
C445 C447 1.388 . S
C446 C445 1.366 . S
C446 C450 1.385 . S
C447 H422 0.951 . S
C447 C445 1.388 . S
C447 C448 1.366 . S
C448 C447 1.366 . S
C448 C449 1.414 . S
C448 C451 1.499 . S
C449 H423 0.950 . S
C449 C448 1.414 . S
C449 C450 1.374 . S
C450 H424 0.950 . S
C450 C446 1.385 . S
C450 C449 1.374 . S
C451 C448 1.499 . S
C451 C452 1.373 . S
C451 C453 1.389 . S
C452 H425 0.950 . S
C452 C438 1.377 . S
C452 C451 1.373 . S
C453 C437 1.377 . S
C453 C451 1.389 . S
C453 C454 1.524 . S
C454 C453 1.524 . S
C454 C455 1.397 . S
C454 C459 1.363 . S
C455 H426 0.950 . S
C455 C454 1.397 . S
C455 C456 1.334 . S
C456 H427 0.950 . S
C456 C455 1.334 . S
C456 C457 1.287 . S
C457 C456 1.287 . S
C457 C458 1.524 . S
C457 H460 0.999 . S
C458 H428 0.950 . S
C458 C457 1.524 . S
C458 C459 1.415 . S
C459 H429 0.950 . S
C459 C454 1.363 . S
C459 C458 1.415 . S
H460 C457 0.999 . S
H461 C442 0.913 . S
H462 C480 0.951 . S
H463 C482 0.951 . S
H464 C484 0.950 . S
H465 C485 0.950 . S
H466 C487 0.950 . S
H467 C490 0.950 . S
H468 C491 0.950 . S
H469 C493 0.950 . S
H470 C494 0.950 . S
H471 C495 0.951 . S
H472 C497 0.951 . S
H473 C499 0.950 . S
H474 C500 0.950 . S
H475 C502 0.950 . S
H476 C505 0.950 . S
H477 C506 0.950 . S
H478 C508 0.950 . S
H479 C509 0.950 . S
C480 H462 0.951 . S
C480 C481 1.366 . S
C480 C482 1.388 . S
C481 C480 1.366 . S
C481 C485 1.385 . S
C482 H463 0.951 . S
C482 C480 1.388 . S
C482 C483 1.366 . S
C483 C482 1.366 . S
C483 C484 1.414 . S
C483 C486 1.499 . S
C484 H464 0.950 . S
C484 C483 1.414 . S
C484 C485 1.374 . S
C485 H465 0.950 . S
C485 C481 1.385 . S
C485 C484 1.374 . S
C486 C483 1.499 . S
C486 C487 1.373 . S
C486 C488 1.389 . S
C487 H466 0.950 . S
C487 C486 1.373 . S
C487 C503 1.377 . S
C488 C486 1.389 . S
C488 C489 1.524 . S
C488 C502 1.377 . S
C489 C488 1.524 . S
C489 C490 1.397 . S
C489 C494 1.363 . S
C490 H467 0.950 . S
C490 C489 1.397 . S
C490 C491 1.334 . S
C491 H468 0.950 . S
C491 C490 1.334 . S
C491 C492 1.287 . S
C492 C491 1.287 . S
C492 C493 1.524 . S
C492 H511 0.913 . S
C493 H469 0.950 . S
C493 C492 1.524 . S
C493 C494 1.415 . S
C494 H470 0.950 . S
C494 C489 1.363 . S
C494 C493 1.415 . S
C495 H471 0.951 . S
C495 C496 1.366 . S
C495 C497 1.388 . S
C496 C495 1.366 . S
C496 C500 1.385 . S
C497 H472 0.951 . S
C497 C495 1.388 . S
C497 C498 1.366 . S
C498 C497 1.366 . S
C498 C499 1.414 . S
C498 C501 1.499 . S
C499 H473 0.950 . S
C499 C498 1.414 . S
C499 C500 1.374 . S
C500 H474 0.950 . S
C500 C496 1.385 . S
C500 C499 1.374 . S
C501 C498 1.499 . S
C501 C502 1.373 . S
C501 C503 1.389 . S
C502 H475 0.950 . S
C502 C488 1.377 . S
C502 C501 1.373 . S
C503 C487 1.377 . S
C503 C501 1.389 . S
C503 C504 1.524 . S
C504 C503 1.524 . S
C504 C505 1.397 . S
C504 C509 1.363 . S
C505 H476 0.950 . S
C505 C504 1.397 . S
C505 C506 1.334 . S
C506 H477 0.950 . S
C506 C505 1.334 . S
C506 C507 1.287 . S
C507 C506 1.287 . S
C507 C508 1.524 . S
C507 H510 0.999 . S
C508 H478 0.950 . S
C508 C507 1.524 . S
C508 C509 1.415 . S
C509 H479 0.950 . S
C509 C504 1.363 . S
C509 C508 1.415 . S
H510 C507 0.999 . S
H511 C492 0.913 . S
H512 C530 0.951 . S
H513 C532 0.951 . S
H514 C534 0.950 . S
H515 C535 0.950 . S
H516 C537 0.950 . S
H517 C540 0.950 . S
H518 C541 0.950 . S
H519 C543 0.950 . S
H520 C544 0.950 . S
H521 C545 0.951 . S
H522 C547 0.951 . S
H523 C549 0.950 . S
H524 C550 0.950 . S
H525 C552 0.950 . S
H526 C555 0.950 . S
H527 C556 0.950 . S
H528 C558 0.950 . S
H529 C559 0.950 . S
C530 H512 0.951 . S
C530 C531 1.366 . S
C530 C532 1.388 . S
C531 C530 1.366 . S
C531 C535 1.385 . S
C532 H513 0.951 . S
C532 C530 1.388 . S
C532 C533 1.366 . S
C533 C532 1.366 . S
C533 C534 1.414 . S
C533 C536 1.499 . S
C534 H514 0.950 . S
C534 C533 1.414 . S
C534 C535 1.374 . S
C535 H515 0.950 . S
C535 C531 1.385 . S
C535 C534 1.374 . S
C536 C533 1.499 . S
C536 C537 1.373 . S
C536 C538 1.389 . S
C537 H516 0.950 . S
C537 C536 1.373 . S
C537 C553 1.377 . S
C538 C536 1.389 . S
C538 C539 1.524 . S
C538 C552 1.377 . S
C539 C538 1.524 . S
C539 C540 1.397 . S
C539 C544 1.363 . S
C540 H517 0.950 . S
C540 C539 1.397 . S
C540 C541 1.334 . S
C541 H518 0.950 . S
C541 C540 1.334 . S
C541 C542 1.287 . S
C542 C541 1.287 . S
C542 C543 1.524 . S
C542 H561 0.913 . S
C543 H519 0.950 . S
C543 C542 1.524 . S
C543 C544 1.415 . S
C544 H520 0.950 . S
C544 C539 1.363 . S
C544 C543 1.415 . S
C545 H521 0.951 . S
C545 C546 1.366 . S
C545 C547 1.388 . S
C546 C545 1.366 . S
C546 C550 1.385 . S
C547 H522 0.951 . S
C547 C545 1.388 . S
C547 C548 1.366 . S
C548 C547 1.366 . S
C548 C549 1.414 . S
C548 C551 1.499 . S
C549 H523 0.950 . S
C549 C548 1.414 . S
C549 C550 1.374 . S
C550 H524 0.950 . S
C550 C546 1.385 . S
C550 C549 1.374 . S
C551 C548 1.499 . S
C551 C552 1.373 . S
C551 C553 1.389 . S
C552 H525 0.950 . S
C552 C538 1.377 . S
C552 C551 1.373 . S
C553 C537 1.377 . S
C553 C551 1.389 . S
C553 C554 1.524 . S
C554 C553 1.524 . S
C554 C555 1.397 . S
C554 C559 1.363 . S
C555 H526 0.950 . S
C555 C554 1.397 . S
C555 C556 1.334 . S
C556 H527 0.950 . S
C556 C555 1.334 . S
C556 C557 1.287 . S
C557 C556 1.287 . S
C557 C558 1.524 . S
C557 H560 0.999 . S
C558 H528 0.950 . S
C558 C557 1.524 . S
C558 C559 1.415 . S
C559 H529 0.950 . S
C559 C554 1.363 . S
C559 C558 1.415 . S
H560 C557 0.999 . S
H561 C542 0.913 . S
H562 C580 0.951 . S
H563 C582 0.951 . S
H564 C584 0.950 . S
H565 C585 0.950 . S
H566 C587 0.950 . S
H567 C590 0.950 . S
H568 C591 0.950 . S
H569 C593 0.950 . S
H570 C594 0.950 . S
H571 C595 0.951 . S
H572 C597 0.951 . S
H573 C599 0.950 . S
H574 C600 0.950 . S
H575 C602 0.950 . S
H576 C605 0.950 . S
H577 C606 0.950 . S
H578 C608 0.950 . S
H579 C609 0.950 . S
C580 H562 0.951 . S
C580 C581 1.366 . S
C580 C582 1.388 . S
C581 C580 1.366 . S
C581 C585 1.385 . S
C582 H563 0.951 . S
C582 C580 1.388 . S
C582 C583 1.366 . S
C583 C582 1.366 . S
C583 C584 1.414 . S
C583 C586 1.499 . S
C584 H564 0.950 . S
C584 C583 1.414 . S
C584 C585 1.374 . S
C585 H565 0.950 . S
C585 C581 1.385 . S
C585 C584 1.374 . S
C586 C583 1.499 . S
C586 C587 1.373 . S
C586 C588 1.389 . S
C587 H566 0.950 . S
C587 C586 1.373 . S
C587 C603 1.377 . S
C588 C586 1.389 . S
C588 C589 1.524 . S
C588 C602 1.377 . S
C589 C588 1.524 . S
C589 C590 1.397 . S
C589 C594 1.363 . S
C590 H567 0.950 . S
C590 C589 1.397 . S
C590 C591 1.334 . S
C591 H568 0.950 . S
C591 C590 1.334 . S
C591 C592 1.287 . S
C592 C591 1.287 . S
C592 C593 1.524 . S
C592 H611 0.913 . S
C593 H569 0.950 . S
C593 C592 1.524 . S
C593 C594 1.415 . S
C594 H570 0.950 . S
C594 C589 1.363 . S
C594 C593 1.415 . S
C595 H571 0.951 . S
C595 C596 1.366 . S
C595 C597 1.388 . S
C596 C595 1.366 . S
C596 C600 1.385 . S
C597 H572 0.951 . S
C597 C595 1.388 . S
C597 C598 1.366 . S
C598 C597 1.366 . S
C598 C599 1.414 . S
C598 C601 1.499 . S
C599 H573 0.950 . S
C599 C598 1.414 . S
C599 C600 1.374 . S
C600 H574 0.950 . S
C600 C596 1.385 . S
C600 C599 1.374 . S
C601 C598 1.499 . S
C601 C602 1.373 . S
C601 C603 1.389 . S
C602 H575 0.950 . S
C602 C588 1.377 . S
C602 C601 1.373 . S
C603 C587 1.377 . S
C603 C601 1.389 . S
C603 C604 1.524 . S
C604 C603 1.524 . S
C604 C605 1.397 . S
C604 C609 1.363 . S
C605 H576 0.950 . S
C605 C604 1.397 . S
C605 C606 1.334 . S
C606 H577 0.950 . S
C606 C605 1.334 . S
C606 C607 1.287 . S
C607 C606 1.287 . S
C607 C608 1.524 . S
C607 H610 0.999 . S
C608 H578 0.950 . S
C608 C607 1.524 . S
C608 C609 1.415 . S
C609 H579 0.950 . S
C609 C604 1.363 . S
C609 C608 1.415 . S
H610 C607 0.999 . S
H611 C592 0.913 . S
H612 C630 0.951 . S
H613 C632 0.951 . S
H614 C634 0.950 . S
H615 C635 0.950 . S
H616 C637 0.950 . S
H617 C640 0.950 . S
H618 C641 0.950 . S
H619 C643 0.950 . S
H620 C644 0.950 . S
H621 C645 0.951 . S
H622 C647 0.951 . S
H623 C649 0.950 . S
H624 C650 0.950 . S
H625 C652 0.950 . S
H626 C655 0.950 . S
H627 C656 0.950 . S
H628 C658 0.950 . S
H629 C659 0.950 . S
C630 H612 0.951 . S
C630 C631 1.366 . S
C630 C632 1.388 . S
C631 C630 1.366 . S
C631 C635 1.385 . S
C632 H613 0.951 . S
C632 C630 1.388 . S
C632 C633 1.366 . S
C633 C632 1.366 . S
C633 C634 1.414 . S
C633 C636 1.499 . S
C634 H614 0.950 . S
C634 C633 1.414 . S
C634 C635 1.374 . S
C635 H615 0.950 . S
C635 C631 1.385 . S
C635 C634 1.374 . S
C636 C633 1.499 . S
C636 C637 1.373 . S
C636 C638 1.389 . S
C637 H616 0.950 . S
C637 C636 1.373 . S
C637 C653 1.377 . S
C638 C636 1.389 . S
C638 C639 1.524 . S
C638 C652 1.377 . S
C639 C638 1.524 . S
C639 C640 1.397 . S
C639 C644 1.363 . S
C640 H617 0.950 . S
C640 C639 1.397 . S
C640 C641 1.334 . S
C641 H618 0.950 . S
C641 C640 1.334 . S
C641 C642 1.287 . S
C642 C641 1.287 . S
C642 C643 1.524 . S
C642 H661 0.913 . S
C643 H619 0.950 . S
C643 C642 1.524 . S
C643 C644 1.415 . S
C644 H620 0.950 . S
C644 C639 1.363 . S
C644 C643 1.415 . S
C645 H621 0.951 . S
C645 C646 1.366 . S
C645 C647 1.388 . S
C646 C645 1.366 . S
C646 C650 1.385 . S
C647 H622 0.951 . S
C647 C645 1.388 . S
C647 C648 1.366 . S
C648 C647 1.366 . S
C648 C649 1.414 . S
C648 C651 1.499 . S
C649 H623 0.950 . S
C649 C648 1.414 . S
C649 C650 1.374 . S
C650 H624 0.950 . S
C650 C646 1.385 . S
C650 C649 1.374 . S
C651 C648 1.499 . S
C651 C652 1.373 . S
C651 C653 1.389 . S
C652 H625 0.950 . S
C652 C638 1.377 . S
C652 C651 1.373 . S
C653 C637 1.377 . S
C653 C651 1.389 . S
C653 C654 1.524 . S
C654 C653 1.524 . S
C654 C655 1.397 . S
C654 C659 1.363 . S
C655 H626 0.950 . S
C655 C654 1.397 . S
C655 C656 1.334 . S
C656 H627 0.950 . S
C656 C655 1.334 . S
C656 C657 1.287 . S
C657 C656 1.287 . S
C657 C658 1.524 . S
C657 H660 0.999 . S
C658 H628 0.950 . S
C658 C657 1.524 . S
C658 C659 1.415 . S
C659 H629 0.950 . S
C659 C654 1.363 . S
C659 C658 1.415 . S
H660 C657 0.999 . S
H661 C642 0.913 . S
H662 C680 0.951 . S
H663 C682 0.951 . S
H664 C684 0.950 . S
H665 C685 0.950 . S
H666 C687 0.950 . S
H667 C690 0.950 . S
H668 C691 0.950 . S
H669 C693 0.950 . S
H670 C694 0.950 . S
H671 C695 0.951 . S
H672 C697 0.951 . S
H673 C699 0.950 . S
H674 C700 0.950 . S
H675 C702 0.950 . S
H676 C705 0.950 . S
H677 C706 0.950 . S
H678 C708 0.950 . S
H679 C709 0.950 . S
C680 H662 0.951 . S
C680 C681 1.366 . S
C680 C682 1.388 . S
C681 C680 1.366 . S
C681 C685 1.385 . S
C682 H663 0.951 . S
C682 C680 1.388 . S
C682 C683 1.366 . S
C683 C682 1.366 . S
C683 C684 1.414 . S
C683 C686 1.499 . S
C684 H664 0.950 . S
C684 C683 1.414 . S
C684 C685 1.374 . S
C685 H665 0.950 . S
C685 C681 1.385 . S
C685 C684 1.374 . S
C686 C683 1.499 . S
C686 C687 1.373 . S
C686 C688 1.389 . S
C687 H666 0.950 . S
C687 C686 1.373 . S
C687 C703 1.377 . S
C688 C686 1.389 . S
C688 C689 1.524 . S
C688 C702 1.377 . S
C689 C688 1.524 . S
C689 C690 1.397 . S
C689 C694 1.363 . S
C690 H667 0.950 . S
C690 C689 1.397 . S
C690 C691 1.334 . S
C691 H668 0.950 . S
C691 C690 1.334 . S
C691 C692 1.287 . S
C692 C691 1.287 . S
C692 C693 1.524 . S
C692 H711 0.913 . S
C693 H669 0.950 . S
C693 C692 1.524 . S
C693 C694 1.415 . S
C694 H670 0.950 . S
C694 C689 1.363 . S
C694 C693 1.415 . S
C695 H671 0.951 . S
C695 C696 1.366 . S
C695 C697 1.388 . S
C696 C695 1.366 . S
C696 C700 1.385 . S
C697 H672 0.951 . S
C697 C695 1.388 . S
C697 C698 1.366 . S
C698 C697 1.366 . S
C698 C699 1.414 . S
C698 C701 1.499 . S
C699 H673 0.950 . S
C699 C698 1.414 . S
C699 C700 1.374 . S
C700 H674 0.950 . S
C700 C696 1.385 . S
C700 C699 1.374 . S
C701 C698 1.499 . S
C701 C702 1.373 . S
C701 C703 1.389 . S
C702 H675 0.950 . S
C702 C688 1.377 . S
C702 C701 1.373 . S
C703 C687 1.377 . S
C703 C701 1.389 . S
C703 C704 1.524 . S
C704 C703 1.524 . S
C704 C705 1.397 . S
C704 C709 1.363 . S
C705 H676 0.950 . S
C705 C704 1.397 . S
C705 C706 1.334 . S
C706 H677 0.950 . S
C706 C705 1.334 . S
C706 C707 1.287 . S
C707 C706 1.287 . S
C707 C708 1.524 . S
C707 H710 0.999 . S
C708 H678 0.950 . S
C708 C707 1.524 . S
C708 C709 1.415 . S
C709 H679 0.950 . S
C709 C704 1.363 . S
C709 C708 1.415 . S
H710 C707 0.999 . S
H711 C692 0.913 . S
H712 C730 0.951 . S
H713 C732 0.951 . S
H714 C734 0.950 . S
H715 C735 0.950 . S
H716 C737 0.950 . S
H717 C740 0.950 . S
H718 C741 0.950 . S
H719 C743 0.950 . S
H720 C744 0.950 . S
H721 C745 0.951 . S
H722 C747 0.951 . S
H723 C749 0.950 . S
H724 C750 0.950 . S
H725 C752 0.950 . S
H726 C755 0.950 . S
H727 C756 0.950 . S
H728 C758 0.950 . S
H729 C759 0.950 . S
C730 H712 0.951 . S
C730 C731 1.366 . S
C730 C732 1.388 . S
C731 C730 1.366 . S
C731 C735 1.385 . S
C732 H713 0.951 . S
C732 C730 1.388 . S
C732 C733 1.366 . S
C733 C732 1.366 . S
C733 C734 1.414 . S
C733 C736 1.499 . S
C734 H714 0.950 . S
C734 C733 1.414 . S
C734 C735 1.374 . S
C735 H715 0.950 . S
C735 C731 1.385 . S
C735 C734 1.374 . S
C736 C733 1.499 . S
C736 C737 1.373 . S
C736 C738 1.389 . S
C737 H716 0.950 . S
C737 C736 1.373 . S
C737 C753 1.377 . S
C738 C736 1.389 . S
C738 C739 1.524 . S
C738 C752 1.377 . S
C739 C738 1.524 . S
C739 C740 1.397 . S
C739 C744 1.363 . S
C740 H717 0.950 . S
C740 C739 1.397 . S
C740 C741 1.334 . S
C741 H718 0.950 . S
C741 C740 1.334 . S
C741 C742 1.287 . S
C742 C741 1.287 . S
C742 C743 1.524 . S
C742 H761 0.913 . S
C743 H719 0.950 . S
C743 C742 1.524 . S
C743 C744 1.415 . S
C744 H720 0.950 . S
C744 C739 1.363 . S
C744 C743 1.415 . S
C745 H721 0.951 . S
C745 C746 1.366 . S
C745 C747 1.388 . S
C746 C745 1.366 . S
C746 C750 1.385 . S
C747 H722 0.951 . S
C747 C745 1.388 . S
C747 C748 1.366 . S
C748 C747 1.366 . S
C748 C749 1.414 . S
C748 C751 1.499 . S
C749 H723 0.950 . S
C749 C748 1.414 . S
C749 C750 1.374 . S
C750 H724 0.950 . S
C750 C746 1.385 . S
C750 C749 1.374 . S
C751 C748 1.499 . S
C751 C752 1.373 . S
C751 C753 1.389 . S
C752 H725 0.950 . S
C752 C738 1.377 . S
C752 C751 1.373 . S
C753 C737 1.377 . S
C753 C751 1.389 . S
C753 C754 1.524 . S
C754 C753 1.524 . S
C754 C755 1.397 . S
C754 C759 1.363 . S
C755 H726 0.950 . S
C755 C754 1.397 . S
C755 C756 1.334 . S
C756 H727 0.950 . S
C756 C755 1.334 . S
C756 C757 1.287 . S
C757 C756 1.287 . S
C757 C758 1.524 . S
C757 H760 0.999 . S
C758 H728 0.950 . S
C758 C757 1.524 . S
C758 C759 1.415 . S
C759 H729 0.950 . S
C759 C754 1.363 . S
C759 C758 1.415 . S
H760 C757 0.999 . S
H761 C742 0.913 . S
H762 C780 0.951 . S
H763 C782 0.951 . S
H764 C784 0.950 . S
H765 C785 0.950 . S
H766 C787 0.950 . S
H767 C790 0.950 . S
H768 C791 0.950 . S
H769 C793 0.950 . S
H770 C794 0.950 . S
H771 C795 0.951 . S
H772 C797 0.951 . S
H773 C799 0.950 . S
H774 C800 0.950 . S
H775 C802 0.950 . S
H776 C805 0.950 . S
H777 C806 0.950 . S
H778 C808 0.950 . S
H779 C809 0.950 . S
C780 H762 0.951 . S
C780 C781 1.366 . S
C780 C782 1.388 . S
C781 C780 1.366 . S
C781 C785 1.385 . S
C782 H763 0.951 . S
C782 C780 1.388 . S
C782 C783 1.366 . S
C783 C782 1.366 . S
C783 C784 1.414 . S
C783 C786 1.499 . S
C784 H764 0.950 . S
C784 C783 1.414 . S
C784 C785 1.374 . S
C785 H765 0.950 . S
C785 C781 1.385 . S
C785 C784 1.374 . S
C786 C783 1.499 . S
C786 C787 1.373 . S
C786 C788 1.389 . S
C787 H766 0.950 . S
C787 C786 1.373 . S
C787 C803 1.377 . S
C788 C786 1.389 . S
C788 C789 1.524 . S
C788 C802 1.377 . S
C789 C788 1.524 . S
C789 C790 1.397 . S
C789 C794 1.363 . S
C790 H767 0.950 . S
C790 C789 1.397 . S
C790 C791 1.334 . S
C791 H768 0.950 . S
C791 C790 1.334 . S
C791 C792 1.287 . S
C792 C791 1.287 . S
C792 C793 1.524 . S
C792 H811 0.913 . S
C793 H769 0.950 . S
C793 C792 1.524 . S
C793 C794 1.415 . S
C794 H770 0.950 . S
C794 C789 1.363 . S
C794 C793 1.415 . S
C795 H771 0.951 . S
C795 C796 1.366 . S
C795 C797 1.388 . S
C796 C795 1.366 . S
C796 C800 1.385 . S
C797 H772 0.951 . S
C797 C795 1.388 . S
C797 C798 1.366 . S
C798 C797 1.366 . S
C798 C799 1.414 . S
C798 C801 1.499 . S
C799 H773 0.950 . S
C799 C798 1.414 . S
C799 C800 1.374 . S
C800 H774 0.950 . S
C800 C796 1.385 . S
C800 C799 1.374 . S
C801 C798 1.499 . S
C801 C802 1.373 . S
C801 C803 1.389 . S
C802 H775 0.950 . S
C802 C788 1.377 . S
C802 C801 1.373 . S
C803 C787 1.377 . S
C803 C801 1.389 . S
C803 C804 1.524 . S
C804 C803 1.524 . S
C804 C805 1.397 . S
C804 C809 1.363 . S
C805 H776 0.950 . S
C805 C804 1.397 . S
C805 C806 1.334 . S
C806 H777 0.950 . S
C806 C805 1.334 . S
C806 C807 1.287 . S
C807 C806 1.287 . S
C807 C808 1.524 . S
C807 H810 0.999 . S
C808 H778 0.950 . S
C808 C807 1.524 . S
C808 C809 1.415 . S
C809 H779 0.950 . S
C809 C804 1.363 . S
C809 C808 1.415 . S
H810 C807 0.999 . S
H811 C792 0.913 . S
H812 C830 0.951 . S
H813 C832 0.951 . S
H814 C834 0.950 . S
H815 C835 0.950 . S
H816 C837 0.950 . S
H817 C840 0.950 . S
H818 C841 0.950 . S
H819 C843 0.950 . S
H820 C844 0.950 . S
H821 C845 0.951 . S
H822 C847 0.951 . S
H823 C849 0.950 . S
H824 C850 0.950 . S
H825 C852 0.950 . S
H826 C855 0.950 . S
H827 C856 0.950 . S
H828 C858 0.950 . S
H829 C859 0.950 . S
C830 H812 0.951 . S
C830 C831 1.366 . S
C830 C832 1.388 . S
C831 C830 1.366 . S
C831 C835 1.385 . S
C832 H813 0.951 . S
C832 C830 1.388 . S
C832 C833 1.366 . S
C833 C832 1.366 . S
C833 C834 1.414 . S
C833 C836 1.499 . S
C834 H814 0.950 . S
C834 C833 1.414 . S
C834 C835 1.374 . S
C835 H815 0.950 . S
C835 C831 1.385 . S
C835 C834 1.374 . S
C836 C833 1.499 . S
C836 C837 1.373 . S
C836 C838 1.389 . S
C837 H816 0.950 . S
C837 C836 1.373 . S
C837 C853 1.377 . S
C838 C836 1.389 . S
C838 C839 1.524 . S
C838 C852 1.377 . S
C839 C838 1.524 . S
C839 C840 1.397 . S
C839 C844 1.363 . S
C840 H817 0.950 . S
C840 C839 1.397 . S
C840 C841 1.334 . S
C841 H818 0.950 . S
C841 C840 1.334 . S
C841 C842 1.287 . S
C842 C841 1.287 . S
C842 C843 1.524 . S
C842 H861 0.913 . S
C843 H819 0.950 . S
C843 C842 1.524 . S
C843 C844 1.415 . S
C844 H820 0.950 . S
C844 C839 1.363 . S
C844 C843 1.415 . S
C845 H821 0.951 . S
C845 C846 1.366 . S
C845 C847 1.388 . S
C846 C845 1.366 . S
C846 C850 1.385 . S
C847 H822 0.951 . S
C847 C845 1.388 . S
C847 C848 1.366 . S
C848 C847 1.366 . S
C848 C849 1.414 . S
C848 C851 1.499 . S
C849 H823 0.950 . S
C849 C848 1.414 . S
C849 C850 1.374 . S
C850 H824 0.950 . S
C850 C846 1.385 . S
C850 C849 1.374 . S
C851 C848 1.499 . S
C851 C852 1.373 . S
C851 C853 1.389 . S
C852 H825 0.950 . S
C852 C838 1.377 . S
C852 C851 1.373 . S
C853 C837 1.377 . S
C853 C851 1.389 . S
C853 C854 1.524 . S
C854 C853 1.524 . S
C854 C855 1.397 . S
C854 C859 1.363 . S
C855 H826 0.950 . S
C855 C854 1.397 . S
C855 C856 1.334 . S
C856 H827 0.950 . S
C856 C855 1.334 . S
C856 C857 1.287 . S
C857 C856 1.287 . S
C857 C858 1.524 . S
C857 H860 0.999 . S
C858 H828 0.950 . S
C858 C857 1.524 . S
C858 C859 1.415 . S
C859 H829 0.950 . S
C859 C854 1.363 . S
C859 C858 1.415 . S
H860 C857 0.999 . S
H861 C842 0.913 . S
H862 C880 0.951 . S
H863 C882 0.951 . S
H864 C884 0.950 . S
H865 C885 0.950 . S
H866 C887 0.950 . S
H867 C890 0.950 . S
H868 C891 0.950 . S
H869 C893 0.950 . S
H870 C894 0.950 . S
H871 C895 0.951 . S
H872 C897 0.951 . S
H873 C899 0.950 . S
H874 C900 0.950 . S
H875 C902 0.950 . S
H876 C905 0.950 . S
H877 C906 0.950 . S
H878 C908 0.950 . S
H879 C909 0.950 . S
C880 H862 0.951 . S
C880 C881 1.366 . S
C880 C882 1.388 . S
C881 C880 1.366 . S
C881 C885 1.385 . S
C882 H863 0.951 . S
C882 C880 1.388 . S
C882 C883 1.366 . S
C883 C882 1.366 . S
C883 C884 1.414 . S
C883 C886 1.499 . S
C884 H864 0.950 . S
C884 C883 1.414 . S
C884 C885 1.374 . S
C885 H865 0.950 . S
C885 C881 1.385 . S
C885 C884 1.374 . S
C886 C883 1.499 . S
C886 C887 1.373 . S
C886 C888 1.389 . S
C887 H866 0.950 . S
C887 C886 1.373 . S
C887 C903 1.377 . S
C888 C886 1.389 . S
C888 C889 1.524 . S
C888 C902 1.377 . S
C889 C888 1.524 . S
C889 C890 1.397 . S
C889 C894 1.363 . S
C890 H867 0.950 . S
C890 C889 1.397 . S
C890 C891 1.334 . S
C891 H868 0.950 . S
C891 C890 1.334 . S
C891 C892 1.287 . S
C892 C891 1.287 . S
C892 C893 1.524 . S
C892 H911 0.913 . S
C893 H869 0.950 . S
C893 C892 1.524 . S
C893 C894 1.415 . S
C894 H870 0.950 . S
C894 C889 1.363 . S
C894 C893 1.415 . S
C895 H871 0.951 . S
C895 C896 1.366 . S
C895 C897 1.388 . S
C896 C895 1.366 . S
C896 C900 1.385 . S
C897 H872 0.951 . S
C897 C895 1.388 . S
C897 C898 1.366 . S
C898 C897 1.366 . S
C898 C899 1.414 . S
C898 C901 1.499 . S
C899 H873 0.950 . S
C899 C898 1.414 . S
C899 C900 1.374 . S
C900 H874 0.950 . S
C900 C896 1.385 . S
C900 C899 1.374 . S
C901 C898 1.499 . S
C901 C902 1.373 . S
C901 C903 1.389 . S
C902 H875 0.950 . S
C902 C888 1.377 . S
C902 C901 1.373 . S
C903 C887 1.377 . S
C903 C901 1.389 . S
C903 C904 1.524 . S
C904 C903 1.524 . S
C904 C905 1.397 . S
C904 C909 1.363 . S
C905 H876 0.950 . S
C905 C904 1.397 . S
C905 C906 1.334 . S
C906 H877 0.950 . S
C906 C905 1.334 . S
C906 C907 1.287 . S
C907 C906 1.287 . S
C907 C908 1.524 . S
C907 H910 0.999 . S
C908 H878 0.950 . S
C908 C907 1.524 . S
C908 C909 1.415 . S
C909 H879 0.950 . S
C909 C904 1.363 . S
C909 C908 1.415 . S
H910 C907 0.999 . S
H911 C892 0.913 . S
H912 C930 0.951 . S
H913 C932 0.951 . S
H914 C934 0.950 . S
H915 C935 0.950 . S
H916 C937 0.950 . S
H917 C940 0.950 . S
H918 C941 0.950 . S
H919 C943 0.950 . S
H920 C944 0.950 . S
H921 C945 0.951 . S
H922 C947 0.951 . S
H923 C949 0.950 . S
H924 C950 0.950 . S
H925 C952 0.950 . S
H926 C955 0.950 . S
H927 C956 0.950 . S
H928 C958 0.950 . S
H929 C959 0.950 . S
C930 H912 0.951 . S
C930 C931 1.366 . S
C930 C932 1.388 . S
C931 C930 1.366 . S
C931 C935 1.385 . S
C932 H913 0.951 . S
C932 C930 1.388 . S
C932 C933 1.366 . S
C933 C932 1.366 . S
C933 C934 1.414 . S
C933 C936 1.499 . S
C934 H914 0.950 . S
C934 C933 1.414 . S
C934 C935 1.374 . S
C935 H915 0.950 . S
C935 C931 1.385 . S
C935 C934 1.374 . S
C936 C933 1.499 . S
C936 C937 1.373 . S
C936 C938 1.389 1_565 S
C937 H916 0.950 . S
C937 C936 1.373 . S
C937 C953 1.377 . S
C938 C936 1.389 1_545 S
C938 C939 1.524 . S
C938 C952 1.377 . S
C939 C938 1.524 . S
C939 C940 1.397 1_545 S
C939 C944 1.363 . S
C940 H917 0.950 . S
C940 C939 1.397 1_565 S
C940 C941 1.334 . S
C941 H918 0.950 . S
C941 C940 1.334 . S
C941 C942 1.287 1_565 S
C942 C941 1.287 1_545 S
C942 C943 1.524 . S
C942 H961 0.913 . S
C943 H919 0.950 . S
C943 C942 1.524 . S
C943 C944 1.415 . S
C944 H920 0.950 . S
C944 C939 1.363 . S
C944 C943 1.415 . S
C945 H921 0.951 . S
C945 C946 1.366 . S
C945 C947 1.388 . S
C946 C945 1.366 . S
C946 C950 1.385 . S
C947 H922 0.951 . S
C947 C945 1.388 . S
C947 C948 1.366 . S
C948 C947 1.366 . S
C948 C949 1.414 . S
C948 C951 1.499 . S
C949 H923 0.950 . S
C949 C948 1.414 . S
C949 C950 1.374 . S
C950 H924 0.950 . S
C950 C946 1.385 . S
C950 C949 1.374 . S
C951 C948 1.499 . S
C951 C952 1.373 . S
C951 C953 1.389 1_545 S
C952 H925 0.950 . S
C952 C938 1.377 . S
C952 C951 1.373 . S
C953 C937 1.377 . S
C953 C951 1.389 1_565 S
C953 C954 1.524 . S
C954 C953 1.524 . S
C954 C955 1.397 1_565 S
C954 C959 1.363 . S
C955 H926 0.950 . S
C955 C954 1.397 1_545 S
C955 C956 1.334 . S
C956 H927 0.950 . S
C956 C955 1.334 . S
C956 C957 1.287 1_545 S
C957 C956 1.287 1_565 S
C957 C958 1.524 . S
C957 H960 0.999 . S
C958 H928 0.950 . S
C958 C957 1.524 . S
C958 C959 1.415 . S
C959 H929 0.950 . S
C959 C954 1.363 . S
C959 C958 1.415 . S
H960 C957 0.999 . S
H961 C942 0.913 . S
H962 C980 0.951 . S
H963 C982 0.951 . S
H964 C984 0.950 . S
H965 C985 0.950 . S
H966 C987 0.950 . S
H967 C990 0.950 . S
H968 C991 0.950 . S
H969 C993 0.950 . S
H970 C994 0.950 . S
H971 C995 0.951 . S
H972 C997 0.951 . S
H973 C999 0.950 . S
H974 C1000 0.950 . S
H975 C1002 0.950 . S
H976 C1005 0.950 . S
H977 C1006 0.950 . S
H978 C1008 0.950 . S
H979 C1009 0.950 . S
C980 H962 0.951 . S
C980 C981 1.366 . S
C980 C982 1.388 . S
C981 C980 1.366 . S
C981 C985 1.385 . S
C982 H963 0.951 . S
C982 C980 1.388 . S
C982 C983 1.366 . S
C983 C982 1.366 . S
C983 C984 1.414 . S
C983 C986 1.499 . S
C984 H964 0.950 . S
C984 C983 1.414 . S
C984 C985 1.374 . S
C985 H965 0.950 . S
C985 C981 1.385 . S
C985 C984 1.374 . S
C986 C983 1.499 . S
C986 C987 1.373 . S
C986 C988 1.389 . S
C987 H966 0.950 . S
C987 C986 1.373 . S
C987 C1003 1.377 1_655 S
C988 C986 1.389 . S
C988 C989 1.524 . S
C988 C1002 1.377 1_655 S
C989 C988 1.524 . S
C989 C990 1.397 . S
C989 C994 1.363 . S
C990 H967 0.950 . S
C990 C989 1.397 . S
C990 C991 1.334 . S
C991 H968 0.950 . S
C991 C990 1.334 . S
C991 C992 1.287 . S
C992 C991 1.287 . S
C992 C993 1.524 . S
C992 H1011 0.913 . S
C993 H969 0.950 . S
C993 C992 1.524 . S
C993 C994 1.415 . S
C994 H970 0.950 . S
C994 C989 1.363 . S
C994 C993 1.415 . S
C995 H971 0.951 . S
C995 C996 1.366 . S
C995 C997 1.388 . S
C996 C995 1.366 . S
C996 C1000 1.385 . S
C997 H972 0.951 . S
C997 C995 1.388 . S
C997 C998 1.366 . S
C998 C997 1.366 . S
C998 C999 1.414 . S
C998 C1001 1.499 . S
C999 H973 0.950 . S
C999 C998 1.414 . S
C999 C1000 1.374 . S
C1000 H974 0.950 . S
C1000 C996 1.385 . S
C1000 C999 1.374 . S
C1001 C998 1.499 . S
C1001 C1002 1.373 . S
C1001 C1003 1.389 . S
C1002 H975 0.950 . S
C1002 C988 1.377 1_455 S
C1002 C1001 1.373 . S
C1003 C987 1.377 1_455 S
C1003 C1001 1.389 . S
C1003 C1004 1.524 . S
C1004 C1003 1.524 . S
C1004 C1005 1.397 . S
C1004 C1009 1.363 . S
C1005 H976 0.950 . S
C1005 C1004 1.397 . S
C1005 C1006 1.334 . S
C1006 H977 0.950 . S
C1006 C1005 1.334 . S
C1006 C1007 1.287 . S
C1007 C1006 1.287 . S
C1007 C1008 1.524 . S
C1007 H1010 0.999 . S
C1008 H978 0.950 . S
C1008 C1007 1.524 . S
C1008 C1009 1.415 . S
C1009 H979 0.950 . S
C1009 C1004 1.363 . S
C1009 C1008 1.415 . S
H1010 C1007 0.999 . S
H1011 C992 0.913 . S
H1012 C1030 0.951 . S
H1013 C1032 0.951 . S
H1014 C1034 0.950 . S
H1015 C1035 0.950 . S
H1016 C1037 0.950 . S
H1017 C1040 0.950 . S
H1018 C1041 0.950 . S
H1019 C1043 0.950 . S
H1020 C1044 0.950 . S
H1021 C1045 0.951 . S
H1022 C1047 0.951 . S
H1023 C1049 0.950 . S
H1024 C1050 0.950 . S
H1025 C1052 0.950 . S
H1026 C1055 0.950 . S
H1027 C1056 0.950 . S
H1028 C1058 0.950 . S
H1029 C1059 0.950 . S
C1030 H1012 0.951 . S
C1030 C1031 1.366 . S
C1030 C1032 1.388 . S
C1031 C1030 1.366 . S
C1031 C1035 1.385 . S
C1032 H1013 0.951 . S
C1032 C1030 1.388 . S
C1032 C1033 1.366 . S
C1033 C1032 1.366 . S
C1033 C1034 1.414 . S
C1033 C1036 1.499 . S
C1034 H1014 0.950 . S
C1034 C1033 1.414 . S
C1034 C1035 1.374 . S
C1035 H1015 0.950 . S
C1035 C1031 1.385 . S
C1035 C1034 1.374 . S
C1036 C1033 1.499 . S
C1036 C1037 1.373 . S
C1036 C1038 1.389 . S
C1037 H1016 0.950 . S
C1037 C1036 1.373 . S
C1037 C1053 1.377 1_545 S
C1038 C1036 1.389 . S
C1038 C1039 1.524 . S
C1038 C1052 1.377 1_545 S
C1039 C1038 1.524 . S
C1039 C1040 1.397 . S
C1039 C1044 1.363 . S
C1040 H1017 0.950 . S
C1040 C1039 1.397 . S
C1040 C1041 1.334 . S
C1041 H1018 0.950 . S
C1041 C1040 1.334 . S
C1041 C1042 1.287 . S
C1042 C1041 1.287 . S
C1042 C1043 1.524 . S
C1042 H1061 0.913 . S
C1043 H1019 0.950 . S
C1043 C1042 1.524 . S
C1043 C1044 1.415 . S
C1044 H1020 0.950 . S
C1044 C1039 1.363 . S
C1044 C1043 1.415 . S
C1045 H1021 0.951 . S
C1045 C1046 1.366 . S
C1045 C1047 1.388 . S
C1046 C1045 1.366 . S
C1046 C1050 1.385 . S
C1047 H1022 0.951 . S
C1047 C1045 1.388 . S
C1047 C1048 1.366 . S
C1048 C1047 1.366 . S
C1048 C1049 1.414 . S
C1048 C1051 1.499 . S
C1049 H1023 0.950 . S
C1049 C1048 1.414 . S
C1049 C1050 1.374 . S
C1050 H1024 0.950 . S
C1050 C1046 1.385 . S
C1050 C1049 1.374 . S
C1051 C1048 1.499 . S
C1051 C1052 1.373 . S
C1051 C1053 1.389 . S
C1052 H1025 0.950 . S
C1052 C1038 1.377 1_565 S
C1052 C1051 1.373 . S
C1053 C1037 1.377 1_565 S
C1053 C1051 1.389 . S
C1053 C1054 1.524 . S
C1054 C1053 1.524 . S
C1054 C1055 1.397 . S
C1054 C1059 1.363 . S
C1055 H1026 0.950 . S
C1055 C1054 1.397 . S
C1055 C1056 1.334 . S
C1056 H1027 0.950 . S
C1056 C1055 1.334 . S
C1056 C1057 1.287 . S
C1057 C1056 1.287 . S
C1057 C1058 1.524 . S
C1057 H1060 0.999 . S
C1058 H1028 0.950 . S
C1058 C1057 1.524 . S
C1058 C1059 1.415 . S
C1059 H1029 0.950 . S
C1059 C1054 1.363 . S
C1059 C1058 1.415 . S
H1060 C1057 0.999 . S
H1061 C1042 0.913 . S
H1062 C1080 0.951 . S
H1063 C1082 0.951 . S
H1064 C1084 0.950 . S
H1065 C1085 0.950 . S
H1066 C1087 0.950 . S
H1067 C1090 0.950 . S
H1068 C1091 0.950 . S
H1069 C1093 0.950 . S
H1070 C1094 0.950 . S
H1071 C1095 0.951 . S
H1072 C1097 0.951 . S
H1073 C1099 0.950 . S
H1074 C1100 0.950 . S
H1075 C1102 0.950 . S
H1076 C1105 0.950 . S
H1077 C1106 0.950 . S
H1078 C1108 0.950 . S
H1079 C1109 0.950 . S
C1080 H1062 0.951 . S
C1080 C1081 1.366 . S
C1080 C1082 1.388 . S
C1081 C1080 1.366 . S
C1081 C1085 1.385 . S
C1082 H1063 0.951 . S
C1082 C1080 1.388 . S
C1082 C1083 1.366 . S
C1083 C1082 1.366 . S
C1083 C1084 1.414 . S
C1083 C1086 1.499 . S
C1084 H1064 0.950 . S
C1084 C1083 1.414 . S
C1084 C1085 1.374 . S
C1085 H1065 0.950 . S
C1085 C1081 1.385 . S
C1085 C1084 1.374 . S
C1086 C1083 1.499 . S
C1086 C1087 1.373 . S
C1086 C1088 1.401 . S
C1087 H1066 0.950 . S
C1087 C1086 1.373 . S
C1087 C1103 1.348 1_455 S
C1088 C1086 1.401 . S
C1088 C1089 1.524 . S
C1088 C1102 1.365 1_455 S
C1089 C1088 1.524 . S
C1089 C1090 1.401 . S
C1089 C1094 1.358 1_455 S
C1090 H1067 0.950 . S
C1090 C1089 1.401 . S
C1090 C1091 1.334 . S
C1091 H1068 0.950 . S
C1091 C1090 1.334 . S
C1091 C1092 1.287 . S
C1092 C1091 1.287 . S
C1092 C1093 1.524 1_455 S
C1092 H1111 0.913 . S
C1093 H1069 0.950 . S
C1093 C1092 1.524 1_655 S
C1093 C1094 1.415 . S
C1094 H1070 0.950 . S
C1094 C1089 1.358 1_655 S
C1094 C1093 1.415 . S
C1095 H1071 0.951 . S
C1095 C1096 1.366 . S
C1095 C1097 1.388 . S
C1096 C1095 1.366 . S
C1096 C1100 1.385 . S
C1097 H1072 0.951 . S
C1097 C1095 1.388 . S
C1097 C1098 1.366 . S
C1098 C1097 1.366 . S
C1098 C1099 1.414 . S
C1098 C1101 1.499 . S
C1099 H1073 0.950 . S
C1099 C1098 1.414 . S
C1099 C1100 1.374 . S
C1100 H1074 0.950 . S
C1100 C1096 1.385 . S
C1100 C1099 1.374 . S
C1101 C1098 1.499 . S
C1101 C1102 1.373 . S
C1101 C1103 1.417 . S
C1102 H1075 0.950 . S
C1102 C1088 1.365 1_655 S
C1102 C1101 1.373 . S
C1103 C1087 1.348 1_655 S
C1103 C1101 1.417 . S
C1103 C1104 1.524 . S
C1104 C1103 1.524 . S
C1104 C1105 1.418 . S
C1104 C1109 1.342 1_655 S
C1105 H1076 0.950 . S
C1105 C1104 1.418 . S
C1105 C1106 1.334 . S
C1106 H1077 0.950 . S
C1106 C1105 1.334 . S
C1106 C1107 1.287 . S
C1107 C1106 1.287 . S
C1107 C1108 1.524 1_655 S
C1107 H1110 0.999 . S
C1108 H1078 0.950 . S
C1108 C1107 1.524 1_455 S
C1108 C1109 1.415 . S
C1109 H1079 0.950 . S
C1109 C1104 1.342 1_455 S
C1109 C1108 1.415 . S
H1110 C1107 0.999 . S
H1111 C1092 0.913 . S
H1112 C1130 0.951 . S
H1113 C1132 0.951 . S
H1114 C1134 0.950 . S
H1115 C1135 0.950 . S
H1116 C1137 0.950 . S
H1117 C1140 0.950 . S
H1118 C1141 0.950 . S
H1119 C1143 0.950 . S
H1120 C1144 0.950 . S
H1121 C1145 0.951 . S
H1122 C1147 0.951 . S
H1123 C1149 0.950 . S
H1124 C1150 0.950 . S
H1125 C1152 0.950 . S
H1126 C1155 0.950 . S
H1127 C1156 0.950 . S
H1128 C1158 0.950 . S
H1129 C1159 0.950 . S
C1130 H1112 0.951 . S
C1130 C1131 1.366 . S
C1130 C1132 1.388 . S
C1131 C1130 1.366 . S
C1131 C1135 1.385 . S
C1132 H1113 0.951 . S
C1132 C1130 1.388 . S
C1132 C1133 1.366 . S
C1133 C1132 1.366 . S
C1133 C1134 1.414 . S
C1133 C1136 1.499 . S
C1134 H1114 0.950 . S
C1134 C1133 1.414 . S
C1134 C1135 1.374 . S
C1135 H1115 0.950 . S
C1135 C1131 1.385 . S
C1135 C1134 1.374 . S
C1136 C1133 1.499 . S
C1136 C1137 1.373 1_565 S
C1136 C1138 1.389 . S
C1137 H1116 0.950 . S
C1137 C1136 1.373 1_545 S
C1137 C1153 1.377 . S
C1138 C1136 1.389 . S
C1138 C1139 1.524 . S
C1138 C1152 1.377 . S
C1139 C1138 1.524 . S
C1139 C1140 1.397 . S
C1139 C1144 1.363 . S
C1140 H1117 0.950 . S
C1140 C1139 1.397 . S
C1140 C1141 1.334 . S
C1141 H1118 0.950 . S
C1141 C1140 1.334 . S
C1141 C1142 1.287 . S
C1142 C1141 1.287 . S
C1142 C1143 1.524 . S
C1142 H1161 0.913 . S
C1143 H1119 0.950 . S
C1143 C1142 1.524 . S
C1143 C1144 1.415 . S
C1144 H1120 0.950 . S
C1144 C1139 1.363 . S
C1144 C1143 1.415 . S
C1145 H1121 0.951 . S
C1145 C1146 1.366 . S
C1145 C1147 1.388 . S
C1146 C1145 1.366 . S
C1146 C1150 1.385 . S
C1147 H1122 0.951 . S
C1147 C1145 1.388 . S
C1147 C1148 1.366 . S
C1148 C1147 1.366 . S
C1148 C1149 1.414 . S
C1148 C1151 1.499 . S
C1149 H1123 0.950 . S
C1149 C1148 1.414 . S
C1149 C1150 1.374 . S
C1150 H1124 0.950 . S
C1150 C1146 1.385 . S
C1150 C1149 1.374 . S
C1151 C1148 1.499 . S
C1151 C1152 1.373 1_545 S
C1151 C1153 1.389 . S
C1152 H1125 0.950 . S
C1152 C1138 1.377 . S
C1152 C1151 1.373 1_565 S
C1153 C1137 1.377 . S
C1153 C1151 1.389 . S
C1153 C1154 1.524 . S
C1154 C1153 1.524 . S
C1154 C1155 1.397 . S
C1154 C1159 1.363 . S
C1155 H1126 0.950 . S
C1155 C1154 1.397 . S
C1155 C1156 1.334 . S
C1156 H1127 0.950 . S
C1156 C1155 1.334 . S
C1156 C1157 1.287 . S
C1157 C1156 1.287 . S
C1157 C1158 1.524 . S
C1157 H1160 0.999 . S
C1158 H1128 0.950 . S
C1158 C1157 1.524 . S
C1158 C1159 1.415 . S
C1159 H1129 0.950 . S
C1159 C1154 1.363 . S
C1159 C1158 1.415 . S
H1160 C1157 0.999 . S
H1161 C1142 0.913 . S
H1162 C1180 0.951 . S
H1163 C1182 0.951 . S
H1164 C1184 0.950 . S
H1165 C1185 0.950 . S
H1166 C1187 0.950 . S
H1167 C1190 0.950 . S
H1168 C1191 0.950 . S
H1169 C1193 0.950 . S
H1170 C1194 0.950 . S
H1171 C1195 0.951 . S
H1172 C1197 0.951 . S
H1173 C1199 0.950 . S
H1174 C1200 0.950 . S
H1175 C1202 0.950 1_655 S
H1176 C1205 0.950 . S
H1177 C1206 0.950 . S
H1178 C1208 0.950 . S
H1179 C1209 0.950 . S
C1180 H1162 0.951 . S
C1180 C1181 1.366 . S
C1180 C1182 1.388 . S
C1181 C1180 1.366 . S
C1181 C1185 1.385 . S
C1182 H1163 0.951 . S
C1182 C1180 1.388 . S
C1182 C1183 1.366 . S
C1183 C1182 1.366 . S
C1183 C1184 1.414 . S
C1183 C1186 1.499 . S
C1184 H1164 0.950 . S
C1184 C1183 1.414 . S
C1184 C1185 1.374 . S
C1185 H1165 0.950 . S
C1185 C1181 1.385 . S
C1185 C1184 1.374 . S
C1186 C1183 1.499 . S
C1186 C1187 1.364 1_655 S
C1186 C1188 1.389 . S
C1187 H1166 0.950 . S
C1187 C1186 1.364 1_455 S
C1187 C1203 1.386 . S
C1188 C1186 1.389 . S
C1188 C1189 1.524 . S
C1188 C1202 1.378 1_655 S
C1189 C1188 1.524 . S
C1189 C1190 1.397 . S
C1189 C1194 1.363 . S
C1190 H1167 0.950 . S
C1190 C1189 1.397 . S
C1190 C1191 1.334 . S
C1191 H1168 0.950 . S
C1191 C1190 1.334 . S
C1191 C1192 1.287 . S
C1192 C1191 1.287 . S
C1192 C1193 1.524 . S
C1192 H1211 0.913 . S
C1193 H1169 0.950 . S
C1193 C1192 1.524 . S
C1193 C1194 1.415 . S
C1194 H1170 0.950 . S
C1194 C1189 1.363 . S
C1194 C1193 1.415 . S
C1195 H1171 0.951 . S
C1195 C1196 1.366 . S
C1195 C1197 1.388 . S
C1196 C1195 1.366 . S
C1196 C1200 1.385 . S
C1197 H1172 0.951 . S
C1197 C1195 1.388 . S
C1197 C1198 1.366 . S
C1198 C1197 1.366 . S
C1198 C1199 1.414 . S
C1198 C1201 1.499 . S
C1199 H1173 0.950 . S
C1199 C1198 1.414 . S
C1199 C1200 1.374 . S
C1200 H1174 0.950 . S
C1200 C1196 1.385 . S
C1200 C1199 1.374 . S
C1201 C1198 1.499 . S
C1201 C1202 1.371 . S
C1201 C1203 1.389 . S
C1202 H1175 0.950 1_455 S
C1202 C1188 1.378 1_455 S
C1202 C1201 1.371 . S
C1203 C1187 1.386 . S
C1203 C1201 1.389 . S
C1203 C1204 1.524 . S
C1204 C1203 1.524 . S
C1204 C1205 1.397 . S
C1204 C1209 1.363 . S
C1205 H1176 0.950 . S
C1205 C1204 1.397 . S
C1205 C1206 1.334 . S
C1206 H1177 0.950 . S
C1206 C1205 1.334 . S
C1206 C1207 1.287 . S
C1207 C1206 1.287 . S
C1207 C1208 1.524 . S
C1207 H1210 0.999 . S
C1208 H1178 0.950 . S
C1208 C1207 1.524 . S
C1208 C1209 1.415 . S
C1209 H1179 0.950 . S
C1209 C1204 1.363 . S
C1209 C1208 1.415 . S
H1210 C1207 0.999 . S
H1211 C1192 0.913 . S
H1212 C1230 0.951 . S
H1213 C1232 0.951 . S
H1214 C1234 0.950 . S
H1215 C1235 0.950 . S
H1216 C1237 0.950 . S
H1217 C1240 0.950 . S
H1218 C1241 0.950 . S
H1219 C1243 0.950 . S
H1220 C1244 0.950 . S
H1221 C1245 0.951 . S
H1222 C1247 0.951 . S
H1223 C1249 0.950 . S
H1224 C1250 0.950 . S
H1225 C1252 0.950 . S
H1226 C1255 0.950 . S
H1227 C1256 0.950 . S
H1228 C1258 0.950 . S
H1229 C1259 0.950 . S
C1230 H1212 0.951 . S
C1230 C1231 1.366 . S
C1230 C1232 1.388 . S
C1231 C1230 1.366 . S
C1231 C1235 1.385 . S
C1232 H1213 0.951 . S
C1232 C1230 1.388 . S
C1232 C1233 1.366 . S
C1233 C1232 1.366 . S
C1233 C1234 1.414 . S
C1233 C1236 1.499 . S
C1234 H1214 0.950 . S
C1234 C1233 1.414 . S
C1234 C1235 1.374 . S
C1235 H1215 0.950 . S
C1235 C1231 1.385 . S
C1235 C1234 1.374 . S
C1236 C1233 1.499 . S
C1236 C1237 1.373 . S
C1236 C1238 1.389 . S
C1237 H1216 0.950 . S
C1237 C1236 1.373 . S
C1237 C1253 1.377 1_565 S
C1238 C1236 1.389 . S
C1238 C1239 1.524 . S
C1238 C1252 1.377 1_565 S
C1239 C1238 1.524 . S
C1239 C1240 1.397 . S
C1239 C1244 1.363 . S
C1240 H1217 0.950 . S
C1240 C1239 1.397 . S
C1240 C1241 1.334 . S
C1241 H1218 0.950 . S
C1241 C1240 1.334 . S
C1241 C1242 1.287 . S
C1242 C1241 1.287 . S
C1242 C1243 1.524 . S
C1242 H1261 0.913 . S
C1243 H1219 0.950 . S
C1243 C1242 1.524 . S
C1243 C1244 1.415 . S
C1244 H1220 0.950 . S
C1244 C1239 1.363 . S
C1244 C1243 1.415 . S
C1245 H1221 0.951 . S
C1245 C1246 1.366 . S
C1245 C1247 1.388 . S
C1246 C1245 1.366 . S
C1246 C1250 1.385 . S
C1247 H1222 0.951 . S
C1247 C1245 1.388 . S
C1247 C1248 1.366 . S
C1248 C1247 1.366 . S
C1248 C1249 1.414 . S
C1248 C1251 1.499 . S
C1249 H1223 0.950 . S
C1249 C1248 1.414 . S
C1249 C1250 1.374 . S
C1250 H1224 0.950 . S
C1250 C1246 1.385 . S
C1250 C1249 1.374 . S
C1251 C1248 1.499 . S
C1251 C1252 1.373 . S
C1251 C1253 1.389 . S
C1252 H1225 0.950 . S
C1252 C1238 1.377 1_545 S
C1252 C1251 1.373 . S
C1253 C1237 1.377 1_545 S
C1253 C1251 1.389 . S
C1253 C1254 1.524 . S
C1254 C1253 1.524 . S
C1254 C1255 1.397 . S
C1254 C1259 1.363 . S
C1255 H1226 0.950 . S
C1255 C1254 1.397 . S
C1255 C1256 1.334 . S
C1256 H1227 0.950 . S
C1256 C1255 1.334 . S
C1256 C1257 1.287 . S
C1257 C1256 1.287 . S
C1257 C1258 1.524 . S
C1257 H1260 0.999 . S
C1258 H1228 0.950 . S
C1258 C1257 1.524 . S
C1258 C1259 1.415 . S
C1259 H1229 0.950 . S
C1259 C1254 1.363 . S
C1259 C1258 1.415 . S
H1260 C1257 0.999 . S
H1261 C1242 0.913 . S
H1262 C1280 0.951 . S
H1263 C1282 0.951 . S
H1264 C1284 0.950 . S
H1265 C1285 0.950 . S
H1266 C1287 0.950 . S
H1267 C1290 0.950 . S
H1268 C1291 0.950 . S
H1269 C1293 0.950 . S
H1270 C1294 0.950 . S
H1271 C1295 0.951 . S
H1272 C1297 0.951 . S
H1273 C1299 0.950 . S
H1274 C1300 0.950 . S
H1275 C1302 0.950 . S
H1276 C1305 0.950 . S
H1277 C1306 0.950 . S
H1278 C1308 0.950 . S
H1279 C1309 0.950 . S
C1280 H1262 0.951 . S
C1280 C1281 1.366 . S
C1280 C1282 1.388 . S
C1281 C1280 1.366 . S
C1281 C1285 1.385 . S
C1282 H1263 0.951 . S
C1282 C1280 1.388 . S
C1282 C1283 1.366 . S
C1283 C1282 1.366 . S
C1283 C1284 1.414 . S
C1283 C1286 1.499 . S
C1284 H1264 0.950 . S
C1284 C1283 1.414 . S
C1284 C1285 1.374 . S
C1285 H1265 0.950 . S
C1285 C1281 1.385 . S
C1285 C1284 1.374 . S
C1286 C1283 1.499 . S
C1286 C1287 1.373 . S
C1286 C1288 1.389 . S
C1287 H1266 0.950 . S
C1287 C1286 1.373 . S
C1287 C1303 1.377 1_455 S
C1288 C1286 1.389 . S
C1288 C1289 1.524 . S
C1288 C1302 1.377 1_455 S
C1289 C1288 1.524 . S
C1289 C1290 1.397 . S
C1289 C1294 1.363 1_455 S
C1290 H1267 0.950 . S
C1290 C1289 1.397 . S
C1290 C1291 1.334 . S
C1291 H1268 0.950 . S
C1291 C1290 1.334 . S
C1291 C1292 1.287 . S
C1292 C1291 1.287 . S
C1292 C1293 1.524 1_455 S
C1292 H1311 0.913 . S
C1293 H1269 0.950 . S
C1293 C1292 1.524 1_655 S
C1293 C1294 1.415 . S
C1294 H1270 0.950 . S
C1294 C1289 1.363 1_655 S
C1294 C1293 1.415 . S
C1295 H1271 0.951 . S
C1295 C1296 1.366 . S
C1295 C1297 1.388 . S
C1296 C1295 1.366 . S
C1296 C1300 1.385 . S
C1297 H1272 0.951 . S
C1297 C1295 1.388 . S
C1297 C1298 1.366 . S
C1298 C1297 1.366 . S
C1298 C1299 1.414 . S
C1298 C1301 1.499 . S
C1299 H1273 0.950 . S
C1299 C1298 1.414 . S
C1299 C1300 1.374 . S
C1300 H1274 0.950 . S
C1300 C1296 1.385 . S
C1300 C1299 1.374 . S
C1301 C1298 1.499 . S
C1301 C1302 1.373 . S
C1301 C1303 1.389 . S
C1302 H1275 0.950 . S
C1302 C1288 1.377 1_655 S
C1302 C1301 1.373 . S
C1303 C1287 1.377 1_655 S
C1303 C1301 1.389 . S
C1303 C1304 1.524 . S
C1304 C1303 1.524 . S
C1304 C1305 1.397 . S
C1304 C1309 1.363 1_655 S
C1305 H1276 0.950 . S
C1305 C1304 1.397 . S
C1305 C1306 1.334 . S
C1306 H1277 0.950 . S
C1306 C1305 1.334 . S
C1306 C1307 1.287 . S
C1307 C1306 1.287 . S
C1307 C1308 1.524 1_655 S
C1307 H1310 0.999 . S
C1308 H1278 0.950 . S
C1308 C1307 1.524 1_455 S
C1308 C1309 1.415 . S
C1309 H1279 0.950 . S
C1309 C1304 1.363 1_455 S
C1309 C1308 1.415 . S
H1310 C1307 0.999 . S
H1311 C1292 0.913 . S
H1312 C1330 0.951 . S
H1313 C1332 0.951 . S
H1314 C1334 0.950 . S
H1315 C1335 0.950 . S
H1316 C1337 0.950 . S
H1317 C1340 0.950 . S
H1318 C1341 0.950 . S
H1319 C1343 0.950 . S
H1320 C1344 0.950 . S
H1321 C1345 0.951 . S
H1322 C1347 0.951 . S
H1323 C1349 0.950 . S
H1324 C1350 0.950 . S
H1325 C1352 0.950 . S
H1326 C1355 0.950 . S
H1327 C1356 0.950 . S
H1328 C1358 0.950 . S
H1329 C1359 0.950 . S
C1330 H1312 0.951 . S
C1330 C1331 1.366 . S
C1330 C1332 1.388 . S
C1331 C1330 1.366 . S
C1331 C1335 1.385 . S
C1332 H1313 0.951 . S
C1332 C1330 1.388 . S
C1332 C1333 1.366 . S
C1333 C1332 1.366 . S
C1333 C1334 1.414 . S
C1333 C1336 1.499 . S
C1334 H1314 0.950 . S
C1334 C1333 1.414 . S
C1334 C1335 1.374 . S
C1335 H1315 0.950 . S
C1335 C1331 1.385 . S
C1335 C1334 1.374 . S
C1336 C1333 1.499 . S
C1336 C1337 1.373 . S
C1336 C1338 1.389 . S
C1337 H1316 0.950 . S
C1337 C1336 1.373 . S
C1337 C1353 1.377 1_556 S
C1338 C1336 1.389 . S
C1338 C1339 1.524 . S
C1338 C1352 1.377 1_556 S
C1339 C1338 1.524 . S
C1339 C1340 1.397 . S
C1339 C1344 1.363 . S
C1340 H1317 0.950 . S
C1340 C1339 1.397 . S
C1340 C1341 1.334 . S
C1341 H1318 0.950 . S
C1341 C1340 1.334 . S
C1341 C1342 1.287 . S
C1342 C1341 1.287 . S
C1342 C1343 1.524 . S
C1342 H1361 0.913 . S
C1343 H1319 0.950 . S
C1343 C1342 1.524 . S
C1343 C1344 1.415 . S
C1344 H1320 0.950 . S
C1344 C1339 1.363 . S
C1344 C1343 1.415 . S
C1345 H1321 0.951 . S
C1345 C1346 1.366 . S
C1345 C1347 1.388 . S
C1346 C1345 1.366 . S
C1346 C1350 1.385 . S
C1347 H1322 0.951 . S
C1347 C1345 1.388 . S
C1347 C1348 1.366 . S
C1348 C1347 1.366 . S
C1348 C1349 1.414 . S
C1348 C1351 1.499 . S
C1349 H1323 0.950 . S
C1349 C1348 1.414 . S
C1349 C1350 1.374 . S
C1350 H1324 0.950 . S
C1350 C1346 1.385 . S
C1350 C1349 1.374 . S
C1351 C1348 1.499 . S
C1351 C1352 1.373 . S
C1351 C1353 1.389 . S
C1352 H1325 0.950 . S
C1352 C1338 1.377 1_554 S
C1352 C1351 1.373 . S
C1353 C1337 1.377 1_554 S
C1353 C1351 1.389 . S
C1353 C1354 1.524 . S
C1354 C1353 1.524 . S
C1354 C1355 1.397 . S
C1354 C1359 1.363 . S
C1355 H1326 0.950 . S
C1355 C1354 1.397 . S
C1355 C1356 1.334 . S
C1356 H1327 0.950 . S
C1356 C1355 1.334 . S
C1356 C1357 1.287 . S
C1357 C1356 1.287 . S
C1357 C1358 1.524 . S
C1357 H1360 0.999 . S
C1358 H1328 0.950 . S
C1358 C1357 1.524 . S
C1358 C1359 1.415 . S
C1359 H1329 0.950 . S
C1359 C1354 1.363 . S
C1359 C1358 1.415 . S
H1360 C1357 0.999 . S
H1361 C1342 0.913 . S
H1362 C1380 0.951 . S
H1363 C1382 0.951 . S
H1364 C1384 0.950 . S
H1365 C1385 0.950 . S
H1366 C1387 0.950 . S
H1367 C1390 0.932 1_554 S
H1368 C1391 0.950 . S
H1369 C1393 0.950 . S
H1370 C1394 0.950 . S
H1371 C1395 0.951 . S
H1372 C1397 0.951 . S
H1373 C1399 0.950 . S
H1374 C1400 0.950 . S
H1375 C1402 0.950 . S
H1376 C1405 0.932 1_556 S
H1377 C1406 0.950 . S
H1378 C1408 0.950 . S
H1379 C1409 0.950 . S
C1380 H1362 0.951 . S
C1380 C1381 1.366 . S
C1380 C1382 1.388 . S
C1381 C1380 1.366 . S
C1381 C1385 1.385 . S
C1382 H1363 0.951 . S
C1382 C1380 1.388 . S
C1382 C1383 1.366 . S
C1383 C1382 1.366 . S
C1383 C1384 1.414 . S
C1383 C1386 1.499 . S
C1384 H1364 0.950 . S
C1384 C1383 1.414 . S
C1384 C1385 1.374 . S
C1385 H1365 0.950 . S
C1385 C1381 1.385 . S
C1385 C1384 1.374 . S
C1386 C1383 1.499 . S
C1386 C1387 1.373 . S
C1386 C1388 1.389 1_554 S
C1387 H1366 0.950 . S
C1387 C1386 1.373 . S
C1387 C1403 1.377 . S
C1388 C1386 1.389 1_556 S
C1388 C1389 1.524 . S
C1388 C1402 1.377 . S
C1389 C1388 1.524 . S
C1389 C1390 1.397 . S
C1389 C1394 1.363 . S
C1390 H1367 0.932 1_556 S
C1390 C1389 1.397 . S
C1390 C1391 1.334 . S
C1391 H1368 0.950 . S
C1391 C1390 1.334 . S
C1391 C1392 1.287 . S
C1392 C1391 1.287 . S
C1392 C1393 1.524 . S
C1392 H1411 0.913 . S
C1393 H1369 0.950 . S
C1393 C1392 1.524 . S
C1393 C1394 1.415 . S
C1394 H1370 0.950 . S
C1394 C1389 1.363 . S
C1394 C1393 1.415 . S
C1395 H1371 0.951 . S
C1395 C1396 1.366 . S
C1395 C1397 1.388 . S
C1396 C1395 1.366 . S
C1396 C1400 1.385 . S
C1397 H1372 0.951 . S
C1397 C1395 1.388 . S
C1397 C1398 1.366 . S
C1398 C1397 1.366 . S
C1398 C1399 1.414 . S
C1398 C1401 1.499 . S
C1399 H1373 0.950 . S
C1399 C1398 1.414 . S
C1399 C1400 1.374 . S
C1400 H1374 0.950 . S
C1400 C1396 1.385 . S
C1400 C1399 1.374 . S
C1401 C1398 1.499 . S
C1401 C1402 1.373 . S
C1401 C1403 1.389 1_556 S
C1402 H1375 0.950 . S
C1402 C1388 1.377 . S
C1402 C1401 1.373 . S
C1403 C1387 1.377 . S
C1403 C1401 1.389 1_554 S
C1403 C1404 1.524 . S
C1404 C1403 1.524 . S
C1404 C1405 1.397 . S
C1404 C1409 1.363 . S
C1405 H1376 0.932 1_554 S
C1405 C1404 1.397 . S
C1405 C1406 1.334 . S
C1406 H1377 0.950 . S
C1406 C1405 1.334 . S
C1406 C1407 1.287 . S
C1407 C1406 1.287 . S
C1407 C1408 1.524 . S
C1407 H1410 0.999 . S
C1408 H1378 0.950 . S
C1408 C1407 1.524 . S
C1408 C1409 1.415 . S
C1409 H1379 0.950 . S
C1409 C1404 1.363 . S
C1409 C1408 1.415 . S
H1410 C1407 0.999 . S
H1411 C1392 0.913 . S
H1412 C1430 0.951 . S
H1413 C1432 0.951 . S
H1414 C1434 0.950 . S
H1415 C1435 0.950 . S
H1416 C1437 0.950 . S
H1417 C1440 0.950 . S
H1418 C1441 0.950 . S
H1419 C1443 0.950 . S
H1420 C1444 0.950 . S
H1421 C1445 0.951 . S
H1422 C1447 0.951 . S
H1423 C1449 0.950 . S
H1424 C1450 0.950 . S
H1425 C1452 0.950 . S
H1426 C1455 0.950 . S
H1427 C1456 0.950 . S
H1428 C1458 0.950 . S
H1429 C1459 0.950 . S
C1430 H1412 0.951 . S
C1430 C1431 1.366 . S
C1430 C1432 1.388 . S
C1431 C1430 1.366 . S
C1431 C1435 1.385 . S
C1432 H1413 0.951 . S
C1432 C1430 1.388 . S
C1432 C1433 1.366 . S
C1433 C1432 1.366 . S
C1433 C1434 1.414 . S
C1433 C1436 1.499 . S
C1434 H1414 0.950 . S
C1434 C1433 1.414 . S
C1434 C1435 1.374 . S
C1435 H1415 0.950 . S
C1435 C1431 1.385 . S
C1435 C1434 1.374 . S
C1436 C1433 1.499 . S
C1436 C1437 1.373 . S
C1436 C1438 1.389 1_556 S
C1437 H1416 0.950 . S
C1437 C1436 1.373 . S
C1437 C1453 1.377 . S
C1438 C1436 1.389 1_554 S
C1438 C1439 1.524 . S
C1438 C1452 1.377 . S
C1439 C1438 1.524 . S
C1439 C1440 1.397 1_554 S
C1439 C1444 1.363 . S
C1440 H1417 0.950 . S
C1440 C1439 1.397 1_556 S
C1440 C1441 1.334 . S
C1441 H1418 0.950 . S
C1441 C1440 1.334 . S
C1441 C1442 1.287 1_556 S
C1442 C1441 1.287 1_554 S
C1442 C1443 1.524 . S
C1442 H1461 0.913 . S
C1443 H1419 0.950 . S
C1443 C1442 1.524 . S
C1443 C1444 1.415 . S
C1444 H1420 0.950 . S
C1444 C1439 1.363 . S
C1444 C1443 1.415 . S
C1445 H1421 0.951 . S
C1445 C1446 1.366 . S
C1445 C1447 1.388 . S
C1446 C1445 1.366 . S
C1446 C1450 1.385 . S
C1447 H1422 0.951 . S
C1447 C1445 1.388 . S
C1447 C1448 1.366 . S
C1448 C1447 1.366 . S
C1448 C1449 1.414 . S
C1448 C1451 1.499 . S
C1449 H1423 0.950 . S
C1449 C1448 1.414 . S
C1449 C1450 1.374 . S
C1450 H1424 0.950 . S
C1450 C1446 1.385 . S
C1450 C1449 1.374 . S
C1451 C1448 1.499 . S
C1451 C1452 1.373 . S
C1451 C1453 1.389 1_554 S
C1452 H1425 0.950 . S
C1452 C1438 1.377 . S
C1452 C1451 1.373 . S
C1453 C1437 1.377 . S
C1453 C1451 1.389 1_556 S
C1453 C1454 1.524 . S
C1454 C1453 1.524 . S
C1454 C1455 1.397 1_556 S
C1454 C1459 1.363 . S
C1455 H1426 0.950 . S
C1455 C1454 1.397 1_554 S
C1455 C1456 1.334 . S
C1456 H1427 0.950 . S
C1456 C1455 1.334 . S
C1456 C1457 1.287 1_554 S
C1457 C1456 1.287 1_556 S
C1457 C1458 1.524 . S
C1457 H1460 0.999 . S
C1458 H1428 0.950 . S
C1458 C1457 1.524 . S
C1458 C1459 1.415 . S
C1459 H1429 0.950 . S
C1459 C1454 1.363 . S
C1459 C1458 1.415 . S
H1460 C1457 0.999 . S
H1461 C1442 0.913 . S
H1462 C1480 0.951 . S
H1463 C1482 0.951 . S
H1464 C1484 0.950 . S
H1465 C1485 0.950 . S
H1466 C1487 0.950 . S
H1467 C1490 0.950 . S
H1468 C1491 0.950 . S
H1469 C1493 0.950 . S
H1470 C1494 0.950 . S
H1471 C1495 0.951 . S
H1472 C1497 0.951 . S
H1473 C1499 0.950 . S
H1474 C1500 0.950 . S
H1475 C1502 0.950 . S
H1476 C1505 0.950 . S
H1477 C1506 0.950 . S
H1478 C1508 0.950 . S
H1479 C1509 0.950 . S
C1480 H1462 0.951 . S
C1480 C1481 1.366 . S
C1480 C1482 1.388 . S
C1481 C1480 1.366 . S
C1481 C1485 1.385 . S
C1482 H1463 0.951 . S
C1482 C1480 1.388 . S
C1482 C1483 1.366 . S
C1483 C1482 1.366 . S
C1483 C1484 1.414 . S
C1483 C1486 1.499 . S
C1484 H1464 0.950 . S
C1484 C1483 1.414 . S
C1484 C1485 1.374 . S
C1485 H1465 0.950 . S
C1485 C1481 1.385 . S
C1485 C1484 1.374 . S
C1486 C1483 1.499 . S
C1486 C1487 1.373 . S
C1486 C1488 1.389 . S
C1487 H1466 0.950 . S
C1487 C1486 1.373 . S
C1487 C1503 1.377 1_554 S
C1488 C1486 1.389 . S
C1488 C1489 1.524 . S
C1488 C1502 1.377 1_554 S
C1489 C1488 1.524 . S
C1489 C1490 1.397 . S
C1489 C1494 1.363 . S
C1490 H1467 0.950 . S
C1490 C1489 1.397 . S
C1490 C1491 1.334 . S
C1491 H1468 0.950 . S
C1491 C1490 1.334 . S
C1491 C1492 1.287 . S
C1492 C1491 1.287 . S
C1492 C1493 1.524 . S
C1492 H1511 0.913 . S
C1493 H1469 0.950 . S
C1493 C1492 1.524 . S
C1493 C1494 1.415 . S
C1494 H1470 0.950 . S
C1494 C1489 1.363 . S
C1494 C1493 1.415 . S
C1495 H1471 0.951 . S
C1495 C1496 1.366 . S
C1495 C1497 1.388 . S
C1496 C1495 1.366 . S
C1496 C1500 1.385 . S
C1497 H1472 0.951 . S
C1497 C1495 1.388 . S
C1497 C1498 1.366 . S
C1498 C1497 1.366 . S
C1498 C1499 1.414 . S
C1498 C1501 1.499 . S
C1499 H1473 0.950 . S
C1499 C1498 1.414 . S
C1499 C1500 1.374 . S
C1500 H1474 0.950 . S
C1500 C1496 1.385 . S
C1500 C1499 1.374 . S
C1501 C1498 1.499 . S
C1501 C1502 1.373 . S
C1501 C1503 1.389 . S
C1502 H1475 0.950 . S
C1502 C1488 1.377 1_556 S
C1502 C1501 1.373 . S
C1503 C1487 1.377 1_556 S
C1503 C1501 1.389 . S
C1503 C1504 1.524 . S
C1504 C1503 1.524 . S
C1504 C1505 1.397 . S
C1504 C1509 1.363 . S
C1505 H1476 0.950 . S
C1505 C1504 1.397 . S
C1505 C1506 1.334 . S
C1506 H1477 0.950 . S
C1506 C1505 1.334 . S
C1506 C1507 1.287 . S
C1507 C1506 1.287 . S
C1507 C1508 1.524 . S
C1507 H1510 0.999 . S
C1508 H1478 0.950 . S
C1508 C1507 1.524 . S
C1508 C1509 1.415 . S
C1509 H1479 0.950 . S
C1509 C1504 1.363 . S
C1509 C1508 1.415 . S
H1510 C1507 0.999 . S
H1511 C1492 0.913 . S
H1512 C1530 0.951 . S
H1513 C1532 0.951 . S
H1514 C1534 0.950 . S
H1515 C1535 0.950 . S
H1516 C1537 0.950 . S
H1517 C1540 0.950 . S
H1518 C1541 0.950 . S
H1519 C1543 0.950 . S
H1520 C1544 0.950 . S
H1521 C1545 0.951 . S
H1522 C1547 0.951 . S
H1523 C1549 0.950 . S
H1524 C1550 0.950 . S
H1525 C1552 0.950 . S
H1526 C1555 0.950 . S
H1527 C1556 0.950 . S
H1528 C1558 0.950 . S
H1529 C1559 0.950 . S
C1530 H1512 0.951 . S
C1530 C1531 1.366 . S
C1530 C1532 1.388 . S
C1531 C1530 1.366 . S
C1531 C1535 1.385 . S
C1532 H1513 0.951 . S
C1532 C1530 1.388 . S
C1532 C1533 1.366 . S
C1533 C1532 1.366 . S
C1533 C1534 1.414 . S
C1533 C1536 1.499 . S
C1534 H1514 0.950 . S
C1534 C1533 1.414 . S
C1534 C1535 1.374 . S
C1535 H1515 0.950 . S
C1535 C1531 1.385 . S
C1535 C1534 1.374 . S
C1536 C1533 1.499 . S
C1536 C1537 1.373 . S
C1536 C1538 1.389 . S
C1537 H1516 0.950 . S
C1537 C1536 1.373 . S
C1537 C1553 1.377 . S
C1538 C1536 1.389 . S
C1538 C1539 1.524 . S
C1538 C1552 1.377 . S
C1539 C1538 1.524 . S
C1539 C1540 1.397 . S
C1539 C1544 1.363 . S
C1540 H1517 0.950 . S
C1540 C1539 1.397 . S
C1540 C1541 1.334 . S
C1541 H1518 0.950 . S
C1541 C1540 1.334 . S
C1541 C1542 1.287 . S
C1542 C1541 1.287 . S
C1542 C1543 1.524 . S
C1542 H1561 0.913 . S
C1543 H1519 0.950 . S
C1543 C1542 1.524 . S
C1543 C1544 1.415 . S
C1544 H1520 0.950 . S
C1544 C1539 1.363 . S
C1544 C1543 1.415 . S
C1545 H1521 0.951 . S
C1545 C1546 1.366 . S
C1545 C1547 1.388 . S
C1546 C1545 1.366 . S
C1546 C1550 1.385 . S
C1547 H1522 0.951 . S
C1547 C1545 1.388 . S
C1547 C1548 1.366 . S
C1548 C1547 1.366 . S
C1548 C1549 1.414 . S
C1548 C1551 1.499 . S
C1549 H1523 0.950 . S
C1549 C1548 1.414 . S
C1549 C1550 1.374 . S
C1550 H1524 0.950 . S
C1550 C1546 1.385 . S
C1550 C1549 1.374 . S
C1551 C1548 1.499 . S
C1551 C1552 1.373 . S
C1551 C1553 1.389 . S
C1552 H1525 0.950 . S
C1552 C1538 1.377 . S
C1552 C1551 1.373 . S
C1553 C1537 1.377 . S
C1553 C1551 1.389 . S
C1553 C1554 1.524 . S
C1554 C1553 1.524 . S
C1554 C1555 1.397 . S
C1554 C1559 1.363 . S
C1555 H1526 0.950 . S
C1555 C1554 1.397 . S
C1555 C1556 1.334 . S
C1556 H1527 0.950 . S
C1556 C1555 1.334 . S
C1556 C1557 1.287 . S
C1557 C1556 1.287 . S
C1557 C1558 1.524 . S
C1557 H1560 0.999 . S
C1558 H1528 0.950 . S
C1558 C1557 1.524 . S
C1558 C1559 1.415 . S
C1559 H1529 0.950 . S
C1559 C1554 1.363 . S
C1559 C1558 1.415 . S
H1560 C1557 0.999 . S
H1561 C1542 0.913 . S
H1562 C1580 0.951 . S
H1563 C1582 0.951 . S
H1564 C1584 0.950 . S
H1565 C1585 0.950 . S
H1566 C1587 0.950 . S
H1567 C1590 0.950 . S
H1568 C1591 0.950 . S
H1569 C1593 0.950 . S
H1570 C1594 0.950 . S
H1571 C1595 0.951 . S
H1572 C1597 0.951 . S
H1573 C1599 0.950 . S
H1574 C1600 0.950 . S
H1575 C1602 0.950 . S
H1576 C1605 0.950 . S
H1577 C1606 0.950 . S
H1578 C1608 0.950 . S
H1579 C1609 0.950 . S
C1580 H1562 0.951 . S
C1580 C1581 1.366 . S
C1580 C1582 1.388 . S
C1581 C1580 1.366 . S
C1581 C1585 1.385 . S
C1582 H1563 0.951 . S
C1582 C1580 1.388 . S
C1582 C1583 1.366 . S
C1583 C1582 1.366 . S
C1583 C1584 1.414 . S
C1583 C1586 1.499 . S
C1584 H1564 0.950 . S
C1584 C1583 1.414 . S
C1584 C1585 1.374 . S
C1585 H1565 0.950 . S
C1585 C1581 1.385 . S
C1585 C1584 1.374 . S
C1586 C1583 1.499 . S
C1586 C1587 1.373 . S
C1586 C1588 1.389 . S
C1587 H1566 0.950 . S
C1587 C1586 1.373 . S
C1587 C1603 1.377 . S
C1588 C1586 1.389 . S
C1588 C1589 1.524 . S
C1588 C1602 1.377 . S
C1589 C1588 1.524 . S
C1589 C1590 1.397 . S
C1589 C1594 1.363 . S
C1590 H1567 0.950 . S
C1590 C1589 1.397 . S
C1590 C1591 1.334 . S
C1591 H1568 0.950 . S
C1591 C1590 1.334 . S
C1591 C1592 1.287 . S
C1592 C1591 1.287 . S
C1592 C1593 1.524 . S
C1592 H1611 0.913 . S
C1593 H1569 0.950 . S
C1593 C1592 1.524 . S
C1593 C1594 1.415 . S
C1594 H1570 0.950 . S
C1594 C1589 1.363 . S
C1594 C1593 1.415 . S
C1595 H1571 0.951 . S
C1595 C1596 1.366 . S
C1595 C1597 1.388 . S
C1596 C1595 1.366 . S
C1596 C1600 1.385 . S
C1597 H1572 0.951 . S
C1597 C1595 1.388 . S
C1597 C1598 1.366 . S
C1598 C1597 1.366 . S
C1598 C1599 1.414 . S
C1598 C1601 1.499 . S
C1599 H1573 0.950 . S
C1599 C1598 1.414 . S
C1599 C1600 1.374 . S
C1600 H1574 0.950 . S
C1600 C1596 1.385 . S
C1600 C1599 1.374 . S
C1601 C1598 1.499 . S
C1601 C1602 1.373 . S
C1601 C1603 1.389 . S
C1602 H1575 0.950 . S
C1602 C1588 1.377 . S
C1602 C1601 1.373 . S
C1603 C1587 1.377 . S
C1603 C1601 1.389 . S
C1603 C1604 1.524 . S
C1604 C1603 1.524 . S
C1604 C1605 1.397 . S
C1604 C1609 1.363 . S
C1605 H1576 0.950 . S
C1605 C1604 1.397 . S
C1605 C1606 1.334 . S
C1606 H1577 0.950 . S
C1606 C1605 1.334 . S
C1606 C1607 1.287 . S
C1607 C1606 1.287 . S
C1607 C1608 1.524 . S
C1607 H1610 0.999 . S
C1608 H1578 0.950 . S
C1608 C1607 1.524 . S
C1608 C1609 1.415 . S
C1609 H1579 0.950 . S
C1609 C1604 1.363 . S
C1609 C1608 1.415 . S
H1610 C1607 0.999 . S
H1611 C1592 0.913 . S
H1612 C1630 0.951 . S
H1613 C1632 0.951 . S
H1614 C1634 0.950 . S
H1615 C1635 0.950 . S
H1616 C1637 0.950 . S
H1617 C1640 0.950 . S
H1618 C1641 0.950 . S
H1619 C1643 0.950 . S
H1620 C1644 0.950 . S
H1621 C1645 0.951 . S
H1622 C1647 0.951 . S
H1623 C1649 0.950 . S
H1624 C1650 0.950 . S
H1625 C1652 0.950 . S
H1626 C1655 0.950 . S
H1627 C1656 0.950 . S
H1628 C1658 0.950 . S
H1629 C1659 0.950 . S
C1630 H1612 0.951 . S
C1630 C1631 1.366 . S
C1630 C1632 1.388 . S
C1631 C1630 1.366 . S
C1631 C1635 1.385 . S
C1632 H1613 0.951 . S
C1632 C1630 1.388 . S
C1632 C1633 1.366 . S
C1633 C1632 1.366 . S
C1633 C1634 1.414 . S
C1633 C1636 1.499 . S
C1634 H1614 0.950 . S
C1634 C1633 1.414 . S
C1634 C1635 1.374 . S
C1635 H1615 0.950 . S
C1635 C1631 1.385 . S
C1635 C1634 1.374 . S
C1636 C1633 1.499 . S
C1636 C1637 1.373 . S
C1636 C1638 1.389 . S
C1637 H1616 0.950 . S
C1637 C1636 1.373 . S
C1637 C1653 1.377 . S
C1638 C1636 1.389 . S
C1638 C1639 1.524 . S
C1638 C1652 1.377 . S
C1639 C1638 1.524 . S
C1639 C1640 1.397 . S
C1639 C1644 1.363 . S
C1640 H1617 0.950 . S
C1640 C1639 1.397 . S
C1640 C1641 1.334 . S
C1641 H1618 0.950 . S
C1641 C1640 1.334 . S
C1641 C1642 1.287 . S
C1642 C1641 1.287 . S
C1642 C1643 1.524 . S
C1642 H1661 0.913 . S
C1643 H1619 0.950 . S
C1643 C1642 1.524 . S
C1643 C1644 1.415 . S
C1644 H1620 0.950 . S
C1644 C1639 1.363 . S
C1644 C1643 1.415 . S
C1645 H1621 0.951 . S
C1645 C1646 1.366 . S
C1645 C1647 1.388 . S
C1646 C1645 1.366 . S
C1646 C1650 1.385 . S
C1647 H1622 0.951 . S
C1647 C1645 1.388 . S
C1647 C1648 1.366 . S
C1648 C1647 1.366 . S
C1648 C1649 1.414 . S
C1648 C1651 1.499 . S
C1649 H1623 0.950 . S
C1649 C1648 1.414 . S
C1649 C1650 1.374 . S
C1650 H1624 0.950 . S
C1650 C1646 1.385 . S
C1650 C1649 1.374 . S
C1651 C1648 1.499 . S
C1651 C1652 1.373 . S
C1651 C1653 1.389 . S
C1652 H1625 0.950 . S
C1652 C1638 1.377 . S
C1652 C1651 1.373 . S
C1653 C1637 1.377 . S
C1653 C1651 1.389 . S
C1653 C1654 1.524 . S
C1654 C1653 1.524 . S
C1654 C1655 1.397 . S
C1654 C1659 1.363 . S
C1655 H1626 0.950 . S
C1655 C1654 1.397 . S
C1655 C1656 1.334 . S
C1656 H1627 0.950 . S
C1656 C1655 1.334 . S
C1656 C1657 1.287 . S
C1657 C1656 1.287 . S
C1657 C1658 1.524 . S
C1657 H1660 0.999 . S
C1658 H1628 0.950 . S
C1658 C1657 1.524 . S
C1658 C1659 1.415 . S
C1659 H1629 0.950 . S
C1659 C1654 1.363 . S
C1659 C1658 1.415 . S
H1660 C1657 0.999 . S
H1661 C1642 0.913 . S
H1662 C1680 0.951 . S
H1663 C1682 0.951 . S
H1664 C1684 0.950 . S
H1665 C1685 0.950 . S
H1666 C1687 0.950 . S
H1667 C1690 0.950 . S
H1668 C1691 0.950 . S
H1669 C1693 0.950 . S
H1670 C1694 0.950 . S
H1671 C1695 0.951 . S
H1672 C1697 0.951 . S
H1673 C1699 0.950 . S
H1674 C1700 0.950 . S
H1675 C1702 0.950 . S
H1676 C1705 0.950 . S
H1677 C1706 0.950 . S
H1678 C1708 0.950 . S
H1679 C1709 0.950 . S
C1680 H1662 0.951 . S
C1680 C1681 1.366 . S
C1680 C1682 1.388 . S
C1681 C1680 1.366 . S
C1681 C1685 1.385 . S
C1682 H1663 0.951 . S
C1682 C1680 1.388 . S
C1682 C1683 1.366 . S
C1683 C1682 1.366 . S
C1683 C1684 1.414 . S
C1683 C1686 1.499 . S
C1684 H1664 0.950 . S
C1684 C1683 1.414 . S
C1684 C1685 1.374 . S
C1685 H1665 0.950 . S
C1685 C1681 1.385 . S
C1685 C1684 1.374 . S
C1686 C1683 1.499 . S
C1686 C1687 1.373 . S
C1686 C1688 1.389 . S
C1687 H1666 0.950 . S
C1687 C1686 1.373 . S
C1687 C1703 1.377 . S
C1688 C1686 1.389 . S
C1688 C1689 1.524 . S
C1688 C1702 1.377 . S
C1689 C1688 1.524 . S
C1689 C1690 1.397 . S
C1689 C1694 1.363 . S
C1690 H1667 0.950 . S
C1690 C1689 1.397 . S
C1690 C1691 1.334 . S
C1691 H1668 0.950 . S
C1691 C1690 1.334 . S
C1691 C1692 1.287 . S
C1692 C1691 1.287 . S
C1692 C1693 1.524 . S
C1692 H1711 0.913 . S
C1693 H1669 0.950 . S
C1693 C1692 1.524 . S
C1693 C1694 1.415 . S
C1694 H1670 0.950 . S
C1694 C1689 1.363 . S
C1694 C1693 1.415 . S
C1695 H1671 0.951 . S
C1695 C1696 1.366 . S
C1695 C1697 1.388 . S
C1696 C1695 1.366 . S
C1696 C1700 1.385 . S
C1697 H1672 0.951 . S
C1697 C1695 1.388 . S
C1697 C1698 1.366 . S
C1698 C1697 1.366 . S
C1698 C1699 1.414 . S
C1698 C1701 1.499 . S
C1699 H1673 0.950 . S
C1699 C1698 1.414 . S
C1699 C1700 1.374 . S
C1700 H1674 0.950 . S
C1700 C1696 1.385 . S
C1700 C1699 1.374 . S
C1701 C1698 1.499 . S
C1701 C1702 1.373 . S
C1701 C1703 1.389 . S
C1702 H1675 0.950 . S
C1702 C1688 1.377 . S
C1702 C1701 1.373 . S
C1703 C1687 1.377 . S
C1703 C1701 1.389 . S
C1703 C1704 1.524 . S
C1704 C1703 1.524 . S
C1704 C1705 1.397 . S
C1704 C1709 1.363 . S
C1705 H1676 0.950 . S
C1705 C1704 1.397 . S
C1705 C1706 1.334 . S
C1706 H1677 0.950 . S
C1706 C1705 1.334 . S
C1706 C1707 1.287 . S
C1707 C1706 1.287 . S
C1707 C1708 1.524 . S
C1707 H1710 0.999 . S
C1708 H1678 0.950 . S
C1708 C1707 1.524 . S
C1708 C1709 1.415 . S
C1709 H1679 0.950 . S
C1709 C1704 1.363 . S
C1709 C1708 1.415 . S
H1710 C1707 0.999 . S
H1711 C1692 0.913 . S
H1712 C1730 0.951 . S
H1713 C1732 0.951 . S
H1714 C1734 0.950 . S
H1715 C1735 0.950 . S
H1716 C1737 0.950 . S
H1717 C1740 0.950 . S
H1718 C1741 0.950 . S
H1719 C1743 0.950 . S
H1720 C1744 0.950 . S
H1721 C1745 0.951 . S
H1722 C1747 0.951 . S
H1723 C1749 0.950 . S
H1724 C1750 0.950 . S
H1725 C1752 0.950 . S
H1726 C1755 0.950 . S
H1727 C1756 0.950 . S
H1728 C1758 0.950 . S
H1729 C1759 0.950 . S
C1730 H1712 0.951 . S
C1730 C1731 1.366 . S
C1730 C1732 1.388 . S
C1731 C1730 1.366 . S
C1731 C1735 1.385 . S
C1732 H1713 0.951 . S
C1732 C1730 1.388 . S
C1732 C1733 1.366 . S
C1733 C1732 1.366 . S
C1733 C1734 1.414 . S
C1733 C1736 1.499 . S
C1734 H1714 0.950 . S
C1734 C1733 1.414 . S
C1734 C1735 1.374 . S
C1735 H1715 0.950 . S
C1735 C1731 1.385 . S
C1735 C1734 1.374 . S
C1736 C1733 1.499 . S
C1736 C1737 1.373 . S
C1736 C1738 1.389 . S
C1737 H1716 0.950 . S
C1737 C1736 1.373 . S
C1737 C1753 1.377 . S
C1738 C1736 1.389 . S
C1738 C1739 1.524 . S
C1738 C1752 1.377 . S
C1739 C1738 1.524 . S
C1739 C1740 1.397 . S
C1739 C1744 1.363 . S
C1740 H1717 0.950 . S
C1740 C1739 1.397 . S
C1740 C1741 1.334 . S
C1741 H1718 0.950 . S
C1741 C1740 1.334 . S
C1741 C1742 1.287 . S
C1742 C1741 1.287 . S
C1742 C1743 1.524 . S
C1742 H1761 0.913 . S
C1743 H1719 0.950 . S
C1743 C1742 1.524 . S
C1743 C1744 1.415 . S
C1744 H1720 0.950 . S
C1744 C1739 1.363 . S
C1744 C1743 1.415 . S
C1745 H1721 0.951 . S
C1745 C1746 1.366 . S
C1745 C1747 1.388 . S
C1746 C1745 1.366 . S
C1746 C1750 1.385 . S
C1747 H1722 0.951 . S
C1747 C1745 1.388 . S
C1747 C1748 1.366 . S
C1748 C1747 1.366 . S
C1748 C1749 1.414 . S
C1748 C1751 1.499 . S
C1749 H1723 0.950 . S
C1749 C1748 1.414 . S
C1749 C1750 1.374 . S
C1750 H1724 0.950 . S
C1750 C1746 1.385 . S
C1750 C1749 1.374 . S
C1751 C1748 1.499 . S
C1751 C1752 1.373 . S
C1751 C1753 1.389 . S
C1752 H1725 0.950 . S
C1752 C1738 1.377 . S
C1752 C1751 1.373 . S
C1753 C1737 1.377 . S
C1753 C1751 1.389 . S
C1753 C1754 1.524 . S
C1754 C1753 1.524 . S
C1754 C1755 1.397 . S
C1754 C1759 1.363 . S
C1755 H1726 0.950 . S
C1755 C1754 1.397 . S
C1755 C1756 1.334 . S
C1756 H1727 0.950 . S
C1756 C1755 1.334 . S
C1756 C1757 1.287 . S
C1757 C1756 1.287 . S
C1757 C1758 1.524 . S
C1757 H1760 0.999 . S
C1758 H1728 0.950 . S
C1758 C1757 1.524 . S
C1758 C1759 1.415 . S
C1759 H1729 0.950 . S
C1759 C1754 1.363 . S
C1759 C1758 1.415 . S
H1760 C1757 0.999 . S
H1761 C1742 0.913 . S
H1762 C1780 0.951 . S
H1763 C1782 0.951 . S
H1764 C1784 0.950 . S
H1765 C1785 0.950 . S
H1766 C1787 0.950 . S
H1767 C1790 0.950 . S
H1768 C1791 0.950 . S
H1769 C1793 0.950 . S
H1770 C1794 0.950 . S
H1771 C1795 0.951 . S
H1772 C1797 0.951 . S
H1773 C1799 0.950 . S
H1774 C1800 0.950 . S
H1775 C1802 0.950 . S
H1776 C1805 0.950 . S
H1777 C1806 0.950 . S
H1778 C1808 0.950 . S
H1779 C1809 0.950 . S
C1780 H1762 0.951 . S
C1780 C1781 1.366 . S
C1780 C1782 1.388 . S
C1781 C1780 1.366 . S
C1781 C1785 1.385 . S
C1782 H1763 0.951 . S
C1782 C1780 1.388 . S
C1782 C1783 1.366 . S
C1783 C1782 1.366 . S
C1783 C1784 1.414 . S
C1783 C1786 1.499 . S
C1784 H1764 0.950 . S
C1784 C1783 1.414 . S
C1784 C1785 1.374 . S
C1785 H1765 0.950 . S
C1785 C1781 1.385 . S
C1785 C1784 1.374 . S
C1786 C1783 1.499 . S
C1786 C1787 1.373 . S
C1786 C1788 1.389 . S
C1787 H1766 0.950 . S
C1787 C1786 1.373 . S
C1787 C1803 1.377 . S
C1788 C1786 1.389 . S
C1788 C1789 1.524 . S
C1788 C1802 1.377 . S
C1789 C1788 1.524 . S
C1789 C1790 1.397 . S
C1789 C1794 1.363 . S
C1790 H1767 0.950 . S
C1790 C1789 1.397 . S
C1790 C1791 1.334 . S
C1791 H1768 0.950 . S
C1791 C1790 1.334 . S
C1791 C1792 1.287 . S
C1792 C1791 1.287 . S
C1792 C1793 1.524 . S
C1792 H1811 0.913 . S
C1793 H1769 0.950 . S
C1793 C1792 1.524 . S
C1793 C1794 1.415 . S
C1794 H1770 0.950 . S
C1794 C1789 1.363 . S
C1794 C1793 1.415 . S
C1795 H1771 0.951 . S
C1795 C1796 1.366 . S
C1795 C1797 1.388 . S
C1796 C1795 1.366 . S
C1796 C1800 1.385 . S
C1797 H1772 0.951 . S
C1797 C1795 1.388 . S
C1797 C1798 1.366 . S
C1798 C1797 1.366 . S
C1798 C1799 1.414 . S
C1798 C1801 1.499 . S
C1799 H1773 0.950 . S
C1799 C1798 1.414 . S
C1799 C1800 1.374 . S
C1800 H1774 0.950 . S
C1800 C1796 1.385 . S
C1800 C1799 1.374 . S
C1801 C1798 1.499 . S
C1801 C1802 1.373 . S
C1801 C1803 1.389 . S
C1802 H1775 0.950 . S
C1802 C1788 1.377 . S
C1802 C1801 1.373 . S
C1803 C1787 1.377 . S
C1803 C1801 1.389 . S
C1803 C1804 1.524 . S
C1804 C1803 1.524 . S
C1804 C1805 1.397 . S
C1804 C1809 1.363 . S
C1805 H1776 0.950 . S
C1805 C1804 1.397 . S
C1805 C1806 1.334 . S
C1806 H1777 0.950 . S
C1806 C1805 1.334 . S
C1806 C1807 1.287 . S
C1807 C1806 1.287 . S
C1807 C1808 1.524 . S
C1807 H1810 0.999 . S
C1808 H1778 0.950 . S
C1808 C1807 1.524 . S
C1808 C1809 1.415 . S
C1809 H1779 0.950 . S
C1809 C1804 1.363 . S
C1809 C1808 1.415 . S
H1810 C1807 0.999 . S
H1811 C1792 0.913 . S
H1812 C1830 0.951 . S
H1813 C1832 0.951 . S
H1814 C1834 0.950 . S
H1815 C1835 0.950 . S
H1816 C1837 0.950 . S
H1817 C1840 0.950 . S
H1818 C1841 0.950 . S
H1819 C1843 0.950 . S
H1820 C1844 0.950 . S
H1821 C1845 0.951 . S
H1822 C1847 0.951 . S
H1823 C1849 0.950 . S
H1824 C1850 0.950 . S
H1825 C1852 0.950 . S
H1826 C1855 0.950 . S
H1827 C1856 0.950 . S
H1828 C1858 0.950 . S
H1829 C1859 0.950 . S
C1830 H1812 0.951 . S
C1830 C1831 1.366 . S
C1830 C1832 1.388 . S
C1831 C1830 1.366 . S
C1831 C1835 1.385 . S
C1832 H1813 0.951 . S
C1832 C1830 1.388 . S
C1832 C1833 1.366 . S
C1833 C1832 1.366 . S
C1833 C1834 1.414 . S
C1833 C1836 1.499 . S
C1834 H1814 0.950 . S
C1834 C1833 1.414 . S
C1834 C1835 1.374 . S
C1835 H1815 0.950 . S
C1835 C1831 1.385 . S
C1835 C1834 1.374 . S
C1836 C1833 1.499 . S
C1836 C1837 1.373 . S
C1836 C1838 1.389 . S
C1837 H1816 0.950 . S
C1837 C1836 1.373 . S
C1837 C1853 1.377 . S
C1838 C1836 1.389 . S
C1838 C1839 1.524 . S
C1838 C1852 1.377 . S
C1839 C1838 1.524 . S
C1839 C1840 1.397 . S
C1839 C1844 1.363 . S
C1840 H1817 0.950 . S
C1840 C1839 1.397 . S
C1840 C1841 1.334 . S
C1841 H1818 0.950 . S
C1841 C1840 1.334 . S
C1841 C1842 1.287 . S
C1842 C1841 1.287 . S
C1842 C1843 1.524 . S
C1842 H1861 0.913 . S
C1843 H1819 0.950 . S
C1843 C1842 1.524 . S
C1843 C1844 1.415 . S
C1844 H1820 0.950 . S
C1844 C1839 1.363 . S
C1844 C1843 1.415 . S
C1845 H1821 0.951 . S
C1845 C1846 1.366 . S
C1845 C1847 1.388 . S
C1846 C1845 1.366 . S
C1846 C1850 1.385 . S
C1847 H1822 0.951 . S
C1847 C1845 1.388 . S
C1847 C1848 1.366 . S
C1848 C1847 1.366 . S
C1848 C1849 1.414 . S
C1848 C1851 1.499 . S
C1849 H1823 0.950 . S
C1849 C1848 1.414 . S
C1849 C1850 1.374 . S
C1850 H1824 0.950 . S
C1850 C1846 1.385 . S
C1850 C1849 1.374 . S
C1851 C1848 1.499 . S
C1851 C1852 1.373 . S
C1851 C1853 1.389 . S
C1852 H1825 0.950 . S
C1852 C1838 1.377 . S
C1852 C1851 1.373 . S
C1853 C1837 1.377 . S
C1853 C1851 1.389 . S
C1853 C1854 1.524 . S
C1854 C1853 1.524 . S
C1854 C1855 1.397 . S
C1854 C1859 1.363 . S
C1855 H1826 0.950 . S
C1855 C1854 1.397 . S
C1855 C1856 1.334 . S
C1856 H1827 0.950 . S
C1856 C1855 1.334 . S
C1856 C1857 1.287 . S
C1857 C1856 1.287 . S
C1857 C1858 1.524 . S
C1857 H1860 0.999 . S
C1858 H1828 0.950 . S
C1858 C1857 1.524 . S
C1858 C1859 1.415 . S
C1859 H1829 0.950 . S
C1859 C1854 1.363 . S
C1859 C1858 1.415 . S
H1860 C1857 0.999 . S
H1861 C1842 0.913 . S
H1862 C1880 0.951 . S
H1863 C1882 0.951 . S
H1864 C1884 0.950 . S
H1865 C1885 0.950 . S
H1866 C1887 0.950 . S
H1867 C1890 0.950 . S
H1868 C1891 0.950 . S
H1869 C1893 0.950 . S
H1870 C1894 0.950 . S
H1871 C1895 0.951 . S
H1872 C1897 0.951 . S
H1873 C1899 0.950 . S
H1874 C1900 0.950 . S
H1875 C1902 0.950 . S
H1876 C1905 0.950 . S
H1877 C1906 0.950 . S
H1878 C1908 0.950 . S
H1879 C1909 0.950 . S
C1880 H1862 0.951 . S
C1880 C1881 1.366 . S
C1880 C1882 1.388 . S
C1881 C1880 1.366 . S
C1881 C1885 1.385 . S
C1882 H1863 0.951 . S
C1882 C1880 1.388 . S
C1882 C1883 1.366 . S
C1883 C1882 1.366 . S
C1883 C1884 1.414 . S
C1883 C1886 1.499 . S
C1884 H1864 0.950 . S
C1884 C1883 1.414 . S
C1884 C1885 1.374 . S
C1885 H1865 0.950 . S
C1885 C1881 1.385 . S
C1885 C1884 1.374 . S
C1886 C1883 1.499 . S
C1886 C1887 1.373 . S
C1886 C1888 1.389 . S
C1887 H1866 0.950 . S
C1887 C1886 1.373 . S
C1887 C1903 1.377 . S
C1888 C1886 1.389 . S
C1888 C1889 1.524 . S
C1888 C1902 1.377 . S
C1889 C1888 1.524 . S
C1889 C1890 1.397 . S
C1889 C1894 1.363 . S
C1890 H1867 0.950 . S
C1890 C1889 1.397 . S
C1890 C1891 1.334 . S
C1891 H1868 0.950 . S
C1891 C1890 1.334 . S
C1891 C1892 1.287 . S
C1892 C1891 1.287 . S
C1892 C1893 1.524 . S
C1892 H1911 0.913 . S
C1893 H1869 0.950 . S
C1893 C1892 1.524 . S
C1893 C1894 1.415 . S
C1894 H1870 0.950 . S
C1894 C1889 1.363 . S
C1894 C1893 1.415 . S
C1895 H1871 0.951 . S
C1895 C1896 1.366 . S
C1895 C1897 1.388 . S
C1896 C1895 1.366 . S
C1896 C1900 1.385 . S
C1897 H1872 0.951 . S
C1897 C1895 1.388 . S
C1897 C1898 1.366 . S
C1898 C1897 1.366 . S
C1898 C1899 1.414 . S
C1898 C1901 1.499 . S
C1899 H1873 0.950 . S
C1899 C1898 1.414 . S
C1899 C1900 1.374 . S
C1900 H1874 0.950 . S
C1900 C1896 1.385 . S
C1900 C1899 1.374 . S
C1901 C1898 1.499 . S
C1901 C1902 1.373 . S
C1901 C1903 1.389 . S
C1902 H1875 0.950 . S
C1902 C1888 1.377 . S
C1902 C1901 1.373 . S
C1903 C1887 1.377 . S
C1903 C1901 1.389 . S
C1903 C1904 1.524 . S
C1904 C1903 1.524 . S
C1904 C1905 1.397 . S
C1904 C1909 1.363 . S
C1905 H1876 0.950 . S
C1905 C1904 1.397 . S
C1905 C1906 1.334 . S
C1906 H1877 0.950 . S
C1906 C1905 1.334 . S
C1906 C1907 1.287 . S
C1907 C1906 1.287 . S
C1907 C1908 1.524 . S
C1907 H1910 0.999 . S
C1908 H1878 0.950 . S
C1908 C1907 1.524 . S
C1908 C1909 1.415 . S
C1909 H1879 0.950 . S
C1909 C1904 1.363 . S
C1909 C1908 1.415 . S
H1910 C1907 0.999 . S
H1911 C1892 0.913 . S
H1912 C1930 0.951 . S
H1913 C1932 0.951 . S
H1914 C1934 0.950 . S
H1915 C1935 0.950 . S
H1916 C1937 0.950 . S
H1917 C1940 0.950 . S
H1918 C1941 0.950 . S
H1919 C1943 0.950 . S
H1920 C1944 0.950 . S
H1921 C1945 0.951 . S
H1922 C1947 0.951 . S
H1923 C1949 0.950 . S
H1924 C1950 0.950 . S
H1925 C1952 0.950 . S
H1926 C1955 0.950 . S
H1927 C1956 0.950 . S
H1928 C1958 0.950 . S
H1929 C1959 0.950 . S
C1930 H1912 0.951 . S
C1930 C1931 1.366 . S
C1930 C1932 1.388 . S
C1931 C1930 1.366 . S
C1931 C1935 1.385 . S
C1932 H1913 0.951 . S
C1932 C1930 1.388 . S
C1932 C1933 1.366 . S
C1933 C1932 1.366 . S
C1933 C1934 1.414 . S
C1933 C1936 1.499 . S
C1934 H1914 0.950 . S
C1934 C1933 1.414 . S
C1934 C1935 1.374 . S
C1935 H1915 0.950 . S
C1935 C1931 1.385 . S
C1935 C1934 1.374 . S
C1936 C1933 1.499 . S
C1936 C1937 1.373 . S
C1936 C1938 1.389 . S
C1937 H1916 0.950 . S
C1937 C1936 1.373 . S
C1937 C1953 1.377 . S
C1938 C1936 1.389 . S
C1938 C1939 1.524 . S
C1938 C1952 1.377 . S
C1939 C1938 1.524 . S
C1939 C1940 1.397 . S
C1939 C1944 1.363 . S
C1940 H1917 0.950 . S
C1940 C1939 1.397 . S
C1940 C1941 1.334 . S
C1941 H1918 0.950 . S
C1941 C1940 1.334 . S
C1941 C1942 1.287 . S
C1942 C1941 1.287 . S
C1942 C1943 1.524 . S
C1942 H1961 0.913 . S
C1943 H1919 0.950 . S
C1943 C1942 1.524 . S
C1943 C1944 1.415 . S
C1944 H1920 0.950 . S
C1944 C1939 1.363 . S
C1944 C1943 1.415 . S
C1945 H1921 0.951 . S
C1945 C1946 1.366 . S
C1945 C1947 1.388 . S
C1946 C1945 1.366 . S
C1946 C1950 1.385 . S
C1947 H1922 0.951 . S
C1947 C1945 1.388 . S
C1947 C1948 1.366 . S
C1948 C1947 1.366 . S
C1948 C1949 1.414 . S
C1948 C1951 1.499 . S
C1949 H1923 0.950 . S
C1949 C1948 1.414 . S
C1949 C1950 1.374 . S
C1950 H1924 0.950 . S
C1950 C1946 1.385 . S
C1950 C1949 1.374 . S
C1951 C1948 1.499 . S
C1951 C1952 1.373 . S
C1951 C1953 1.389 . S
C1952 H1925 0.950 . S
C1952 C1938 1.377 . S
C1952 C1951 1.373 . S
C1953 C1937 1.377 . S
C1953 C1951 1.389 . S
C1953 C1954 1.524 . S
C1954 C1953 1.524 . S
C1954 C1955 1.397 . S
C1954 C1959 1.363 . S
C1955 H1926 0.950 . S
C1955 C1954 1.397 . S
C1955 C1956 1.334 . S
C1956 H1927 0.950 . S
C1956 C1955 1.334 . S
C1956 C1957 1.287 . S
C1957 C1956 1.287 . S
C1957 C1958 1.524 . S
C1957 H1960 0.999 . S
C1958 H1928 0.950 . S
C1958 C1957 1.524 . S
C1958 C1959 1.415 . S
C1959 H1929 0.950 . S
C1959 C1954 1.363 . S
C1959 C1958 1.415 . S
H1960 C1957 0.999 . S
H1961 C1942 0.913 . S
H1962 C1980 0.951 . S
H1963 C1982 0.951 . S
H1964 C1984 0.950 . S
H1965 C1985 0.950 . S
H1966 C1987 0.950 . S
H1967 C1990 0.950 . S
H1968 C1991 0.950 . S
H1969 C1993 0.950 . S
H1970 C1994 0.950 . S
H1971 C1995 0.951 . S
H1972 C1997 0.951 . S
H1973 C1999 0.950 . S
H1974 C2000 0.950 . S
H1975 C2002 0.950 . S
H1976 C2005 0.950 . S
H1977 C2006 0.950 . S
H1978 C2008 0.950 . S
H1979 C2009 0.950 . S
C1980 H1962 0.951 . S
C1980 C1981 1.366 . S
C1980 C1982 1.388 . S
C1981 C1980 1.366 . S
C1981 C1985 1.385 . S
C1982 H1963 0.951 . S
C1982 C1980 1.388 . S
C1982 C1983 1.366 . S
C1983 C1982 1.366 . S
C1983 C1984 1.414 . S
C1983 C1986 1.499 . S
C1984 H1964 0.950 . S
C1984 C1983 1.414 . S
C1984 C1985 1.374 . S
C1985 H1965 0.950 . S
C1985 C1981 1.385 . S
C1985 C1984 1.374 . S
C1986 C1983 1.499 . S
C1986 C1987 1.373 . S
C1986 C1988 1.389 . S
C1987 H1966 0.950 . S
C1987 C1986 1.373 . S
C1987 C2003 1.377 . S
C1988 C1986 1.389 . S
C1988 C1989 1.524 . S
C1988 C2002 1.377 . S
C1989 C1988 1.524 . S
C1989 C1990 1.397 . S
C1989 C1994 1.363 . S
C1990 H1967 0.950 . S
C1990 C1989 1.397 . S
C1990 C1991 1.334 . S
C1991 H1968 0.950 . S
C1991 C1990 1.334 . S
C1991 C1992 1.287 . S
C1992 C1991 1.287 . S
C1992 C1993 1.524 . S
C1992 H2011 0.913 . S
C1993 H1969 0.950 . S
C1993 C1992 1.524 . S
C1993 C1994 1.415 . S
C1994 H1970 0.950 . S
C1994 C1989 1.363 . S
C1994 C1993 1.415 . S
C1995 H1971 0.951 . S
C1995 C1996 1.366 . S
C1995 C1997 1.388 . S
C1996 C1995 1.366 . S
C1996 C2000 1.385 . S
C1997 H1972 0.951 . S
C1997 C1995 1.388 . S
C1997 C1998 1.366 . S
C1998 C1997 1.366 . S
C1998 C1999 1.414 . S
C1998 C2001 1.499 . S
C1999 H1973 0.950 . S
C1999 C1998 1.414 . S
C1999 C2000 1.374 . S
C2000 H1974 0.950 . S
C2000 C1996 1.385 . S
C2000 C1999 1.374 . S
C2001 C1998 1.499 . S
C2001 C2002 1.373 . S
C2001 C2003 1.389 . S
C2002 H1975 0.950 . S
C2002 C1988 1.377 . S
C2002 C2001 1.373 . S
C2003 C1987 1.377 . S
C2003 C2001 1.389 . S
C2003 C2004 1.524 . S
C2004 C2003 1.524 . S
C2004 C2005 1.397 . S
C2004 C2009 1.363 . S
C2005 H1976 0.950 . S
C2005 C2004 1.397 . S
C2005 C2006 1.334 . S
C2006 H1977 0.950 . S
C2006 C2005 1.334 . S
C2006 C2007 1.287 . S
C2007 C2006 1.287 . S
C2007 C2008 1.524 . S
C2007 H2010 0.999 . S
C2008 H1978 0.950 . S
C2008 C2007 1.524 . S
C2008 C2009 1.415 . S
C2009 H1979 0.950 . S
C2009 C2004 1.363 . S
C2009 C2008 1.415 . S
H2010 C2007 0.999 . S
H2011 C1992 0.913 . S
H2012 C2030 0.951 . S
H2013 C2032 0.951 . S
H2014 C2034 0.950 . S
H2015 C2035 0.950 . S
H2016 C2037 0.950 . S
H2017 C2040 0.950 . S
H2018 C2041 0.950 . S
H2019 C2043 0.950 . S
H2020 C2044 0.950 . S
H2021 C2045 0.951 . S
H2022 C2047 0.951 . S
H2023 C2049 0.950 . S
H2024 C2050 0.950 . S
H2025 C2052 0.950 . S
H2026 C2055 0.950 . S
H2027 C2056 0.950 . S
H2028 C2058 0.950 . S
H2029 C2059 0.950 . S
C2030 H2012 0.951 . S
C2030 C2031 1.366 . S
C2030 C2032 1.388 . S
C2031 C2030 1.366 . S
C2031 C2035 1.385 . S
C2032 H2013 0.951 . S
C2032 C2030 1.388 . S
C2032 C2033 1.366 . S
C2033 C2032 1.366 . S
C2033 C2034 1.414 . S
C2033 C2036 1.499 . S
C2034 H2014 0.950 . S
C2034 C2033 1.414 . S
C2034 C2035 1.374 . S
C2035 H2015 0.950 . S
C2035 C2031 1.385 . S
C2035 C2034 1.374 . S
C2036 C2033 1.499 . S
C2036 C2037 1.373 . S
C2036 C2038 1.389 . S
C2037 H2016 0.950 . S
C2037 C2036 1.373 . S
C2037 C2053 1.377 . S
C2038 C2036 1.389 . S
C2038 C2039 1.524 . S
C2038 C2052 1.377 . S
C2039 C2038 1.524 . S
C2039 C2040 1.397 . S
C2039 C2044 1.363 . S
C2040 H2017 0.950 . S
C2040 C2039 1.397 . S
C2040 C2041 1.334 . S
C2041 H2018 0.950 . S
C2041 C2040 1.334 . S
C2041 C2042 1.287 . S
C2042 C2041 1.287 . S
C2042 C2043 1.524 . S
C2042 H2061 0.913 . S
C2043 H2019 0.950 . S
C2043 C2042 1.524 . S
C2043 C2044 1.415 . S
C2044 H2020 0.950 . S
C2044 C2039 1.363 . S
C2044 C2043 1.415 . S
C2045 H2021 0.951 . S
C2045 C2046 1.366 . S
C2045 C2047 1.388 . S
C2046 C2045 1.366 . S
C2046 C2050 1.385 . S
C2047 H2022 0.951 . S
C2047 C2045 1.388 . S
C2047 C2048 1.366 . S
C2048 C2047 1.366 . S
C2048 C2049 1.414 . S
C2048 C2051 1.499 . S
C2049 H2023 0.950 . S
C2049 C2048 1.414 . S
C2049 C2050 1.374 . S
C2050 H2024 0.950 . S
C2050 C2046 1.385 . S
C2050 C2049 1.374 . S
C2051 C2048 1.499 . S
C2051 C2052 1.373 . S
C2051 C2053 1.389 . S
C2052 H2025 0.950 . S
C2052 C2038 1.377 . S
C2052 C2051 1.373 . S
C2053 C2037 1.377 . S
C2053 C2051 1.389 . S
C2053 C2054 1.524 . S
C2054 C2053 1.524 . S
C2054 C2055 1.397 . S
C2054 C2059 1.363 . S
C2055 H2026 0.950 . S
C2055 C2054 1.397 . S
C2055 C2056 1.334 . S
C2056 H2027 0.950 . S
C2056 C2055 1.334 . S
C2056 C2057 1.287 . S
C2057 C2056 1.287 . S
C2057 C2058 1.524 . S
C2057 H2060 0.999 . S
C2058 H2028 0.950 . S
C2058 C2057 1.524 . S
C2058 C2059 1.415 . S
C2059 H2029 0.950 . S
C2059 C2054 1.363 . S
C2059 C2058 1.415 . S
H2060 C2057 0.999 . S
H2061 C2042 0.913 . S
H2062 C2080 0.951 . S
H2063 C2082 0.951 . S
H2064 C2084 0.950 . S
H2065 C2085 0.950 . S
H2066 C2087 0.950 . S
H2067 C2090 0.950 . S
H2068 C2091 0.950 . S
H2069 C2093 0.950 . S
H2070 C2094 0.950 . S
H2071 C2095 0.951 . S
H2072 C2097 0.951 . S
H2073 C2099 0.950 . S
H2074 C2100 0.950 . S
H2075 C2102 0.950 . S
H2076 C2105 0.950 . S
H2077 C2106 0.950 . S
H2078 C2108 0.950 . S
H2079 C2109 0.950 . S
C2080 H2062 0.951 . S
C2080 C2081 1.366 . S
C2080 C2082 1.388 . S
C2081 C2080 1.366 . S
C2081 C2085 1.385 . S
C2082 H2063 0.951 . S
C2082 C2080 1.388 . S
C2082 C2083 1.366 . S
C2083 C2082 1.366 . S
C2083 C2084 1.414 . S
C2083 C2086 1.499 . S
C2084 H2064 0.950 . S
C2084 C2083 1.414 . S
C2084 C2085 1.374 . S
C2085 H2065 0.950 . S
C2085 C2081 1.385 . S
C2085 C2084 1.374 . S
C2086 C2083 1.499 . S
C2086 C2087 1.373 . S
C2086 C2088 1.389 . S
C2087 H2066 0.950 . S
C2087 C2086 1.373 . S
C2087 C2103 1.377 . S
C2088 C2086 1.389 . S
C2088 C2089 1.524 . S
C2088 C2102 1.377 . S
C2089 C2088 1.524 . S
C2089 C2090 1.397 . S
C2089 C2094 1.363 . S
C2090 H2067 0.950 . S
C2090 C2089 1.397 . S
C2090 C2091 1.334 . S
C2091 H2068 0.950 . S
C2091 C2090 1.334 . S
C2091 C2092 1.287 . S
C2092 C2091 1.287 . S
C2092 C2093 1.524 . S
C2092 H2111 0.913 . S
C2093 H2069 0.950 . S
C2093 C2092 1.524 . S
C2093 C2094 1.415 . S
C2094 H2070 0.950 . S
C2094 C2089 1.363 . S
C2094 C2093 1.415 . S
C2095 H2071 0.951 . S
C2095 C2096 1.366 . S
C2095 C2097 1.388 . S
C2096 C2095 1.366 . S
C2096 C2100 1.385 . S
C2097 H2072 0.951 . S
C2097 C2095 1.388 . S
C2097 C2098 1.366 . S
C2098 C2097 1.366 . S
C2098 C2099 1.414 . S
C2098 C2101 1.499 . S
C2099 H2073 0.950 . S
C2099 C2098 1.414 . S
C2099 C2100 1.374 . S
C2100 H2074 0.950 . S
C2100 C2096 1.385 . S
C2100 C2099 1.374 . S
C2101 C2098 1.499 . S
C2101 C2102 1.373 . S
C2101 C2103 1.389 . S
C2102 H2075 0.950 . S
C2102 C2088 1.377 . S
C2102 C2101 1.373 . S
C2103 C2087 1.377 . S
C2103 C2101 1.389 . S
C2103 C2104 1.524 . S
C2104 C2103 1.524 . S
C2104 C2105 1.397 . S
C2104 C2109 1.363 . S
C2105 H2076 0.950 . S
C2105 C2104 1.397 . S
C2105 C2106 1.334 . S
C2106 H2077 0.950 . S
C2106 C2105 1.334 . S
C2106 C2107 1.287 . S
C2107 C2106 1.287 . S
C2107 C2108 1.524 . S
C2107 H2110 0.999 . S
C2108 H2078 0.950 . S
C2108 C2107 1.524 . S
C2108 C2109 1.415 . S
C2109 H2079 0.950 . S
C2109 C2104 1.363 . S
C2109 C2108 1.415 . S
H2110 C2107 0.999 . S
H2111 C2092 0.913 . S
H2112 C2130 0.951 . S
H2113 C2132 0.951 . S
H2114 C2134 0.950 . S
H2115 C2135 0.950 . S
H2116 C2137 0.950 . S
H2117 C2140 0.950 . S
H2118 C2141 0.950 . S
H2119 C2143 0.950 . S
H2120 C2144 0.950 . S
H2121 C2145 0.951 . S
H2122 C2147 0.951 . S
H2123 C2149 0.950 . S
H2124 C2150 0.950 . S
H2125 C2152 0.950 . S
H2126 C2155 0.950 . S
H2127 C2156 0.950 . S
H2128 C2158 0.950 . S
H2129 C2159 0.950 . S
C2130 H2112 0.951 . S
C2130 C2131 1.366 . S
C2130 C2132 1.388 . S
C2131 C2130 1.366 . S
C2131 C2135 1.385 . S
C2132 H2113 0.951 . S
C2132 C2130 1.388 . S
C2132 C2133 1.366 . S
C2133 C2132 1.366 . S
C2133 C2134 1.414 . S
C2133 C2136 1.499 . S
C2134 H2114 0.950 . S
C2134 C2133 1.414 . S
C2134 C2135 1.374 . S
C2135 H2115 0.950 . S
C2135 C2131 1.385 . S
C2135 C2134 1.374 . S
C2136 C2133 1.499 . S
C2136 C2137 1.373 . S
C2136 C2138 1.389 . S
C2137 H2116 0.950 . S
C2137 C2136 1.373 . S
C2137 C2153 1.377 . S
C2138 C2136 1.389 . S
C2138 C2139 1.524 . S
C2138 C2152 1.377 . S
C2139 C2138 1.524 . S
C2139 C2140 1.397 . S
C2139 C2144 1.363 . S
C2140 H2117 0.950 . S
C2140 C2139 1.397 . S
C2140 C2141 1.334 . S
C2141 H2118 0.950 . S
C2141 C2140 1.334 . S
C2141 C2142 1.287 . S
C2142 C2141 1.287 . S
C2142 C2143 1.524 . S
C2142 H2161 0.913 . S
C2143 H2119 0.950 . S
C2143 C2142 1.524 . S
C2143 C2144 1.415 . S
C2144 H2120 0.950 . S
C2144 C2139 1.363 . S
C2144 C2143 1.415 . S
C2145 H2121 0.951 . S
C2145 C2146 1.366 . S
C2145 C2147 1.388 . S
C2146 C2145 1.366 . S
C2146 C2150 1.385 . S
C2147 H2122 0.951 . S
C2147 C2145 1.388 . S
C2147 C2148 1.366 . S
C2148 C2147 1.366 . S
C2148 C2149 1.414 . S
C2148 C2151 1.499 . S
C2149 H2123 0.950 . S
C2149 C2148 1.414 . S
C2149 C2150 1.374 . S
C2150 H2124 0.950 . S
C2150 C2146 1.385 . S
C2150 C2149 1.374 . S
C2151 C2148 1.499 . S
C2151 C2152 1.373 . S
C2151 C2153 1.389 . S
C2152 H2125 0.950 . S
C2152 C2138 1.377 . S
C2152 C2151 1.373 . S
C2153 C2137 1.377 . S
C2153 C2151 1.389 . S
C2153 C2154 1.524 . S
C2154 C2153 1.524 . S
C2154 C2155 1.397 . S
C2154 C2159 1.363 . S
C2155 H2126 0.950 . S
C2155 C2154 1.397 . S
C2155 C2156 1.334 . S
C2156 H2127 0.950 . S
C2156 C2155 1.334 . S
C2156 C2157 1.287 . S
C2157 C2156 1.287 . S
C2157 C2158 1.524 . S
C2157 H2160 0.999 . S
C2158 H2128 0.950 . S
C2158 C2157 1.524 . S
C2158 C2159 1.415 . S
C2159 H2129 0.950 . S
C2159 C2154 1.363 . S
C2159 C2158 1.415 . S
H2160 C2157 0.999 . S
H2161 C2142 0.913 . S
H2162 C2180 0.951 . S
H2163 C2182 0.951 . S
H2164 C2184 0.950 . S
H2165 C2185 0.950 . S
H2166 C2187 0.950 . S
H2167 C2190 0.950 . S
H2168 C2191 0.950 . S
H2169 C2193 0.950 . S
H2170 C2194 0.950 . S
H2171 C2195 0.951 . S
H2172 C2197 0.951 . S
H2173 C2199 0.950 . S
H2174 C2200 0.950 . S
H2175 C2202 0.950 . S
H2176 C2205 0.950 . S
H2177 C2206 0.950 . S
H2178 C2208 0.950 . S
H2179 C2209 0.950 . S
C2180 H2162 0.951 . S
C2180 C2181 1.366 . S
C2180 C2182 1.388 . S
C2181 C2180 1.366 . S
C2181 C2185 1.385 . S
C2182 H2163 0.951 . S
C2182 C2180 1.388 . S
C2182 C2183 1.366 . S
C2183 C2182 1.366 . S
C2183 C2184 1.414 . S
C2183 C2186 1.499 . S
C2184 H2164 0.950 . S
C2184 C2183 1.414 . S
C2184 C2185 1.374 . S
C2185 H2165 0.950 . S
C2185 C2181 1.385 . S
C2185 C2184 1.374 . S
C2186 C2183 1.499 . S
C2186 C2187 1.373 . S
C2186 C2188 1.389 . S
C2187 H2166 0.950 . S
C2187 C2186 1.373 . S
C2187 C2203 1.377 . S
C2188 C2186 1.389 . S
C2188 C2189 1.524 . S
C2188 C2202 1.377 . S
C2189 C2188 1.524 . S
C2189 C2190 1.397 . S
C2189 C2194 1.363 . S
C2190 H2167 0.950 . S
C2190 C2189 1.397 . S
C2190 C2191 1.334 . S
C2191 H2168 0.950 . S
C2191 C2190 1.334 . S
C2191 C2192 1.287 . S
C2192 C2191 1.287 . S
C2192 C2193 1.524 . S
C2192 H2211 0.913 . S
C2193 H2169 0.950 . S
C2193 C2192 1.524 . S
C2193 C2194 1.415 . S
C2194 H2170 0.950 . S
C2194 C2189 1.363 . S
C2194 C2193 1.415 . S
C2195 H2171 0.951 . S
C2195 C2196 1.366 . S
C2195 C2197 1.388 . S
C2196 C2195 1.366 . S
C2196 C2200 1.385 . S
C2197 H2172 0.951 . S
C2197 C2195 1.388 . S
C2197 C2198 1.366 . S
C2198 C2197 1.366 . S
C2198 C2199 1.414 . S
C2198 C2201 1.499 . S
C2199 H2173 0.950 . S
C2199 C2198 1.414 . S
C2199 C2200 1.374 . S
C2200 H2174 0.950 . S
C2200 C2196 1.385 . S
C2200 C2199 1.374 . S
C2201 C2198 1.499 . S
C2201 C2202 1.373 . S
C2201 C2203 1.389 . S
C2202 H2175 0.950 . S
C2202 C2188 1.377 . S
C2202 C2201 1.373 . S
C2203 C2187 1.377 . S
C2203 C2201 1.389 . S
C2203 C2204 1.524 . S
C2204 C2203 1.524 . S
C2204 C2205 1.397 . S
C2204 C2209 1.363 . S
C2205 H2176 0.950 . S
C2205 C2204 1.397 . S
C2205 C2206 1.334 . S
C2206 H2177 0.950 . S
C2206 C2205 1.334 . S
C2206 C2207 1.287 . S
C2207 C2206 1.287 . S
C2207 C2208 1.524 . S
C2207 H2210 0.999 . S
C2208 H2178 0.950 . S
C2208 C2207 1.524 . S
C2208 C2209 1.415 . S
C2209 H2179 0.950 . S
C2209 C2204 1.363 . S
C2209 C2208 1.415 . S
H2210 C2207 0.999 . S
H2211 C2192 0.913 . S
H2212 C2230 0.951 . S
H2213 C2232 0.951 . S
H2214 C2234 0.950 . S
H2215 C2235 0.950 . S
H2216 C2237 0.950 . S
H2217 C2240 0.950 . S
H2218 C2241 0.950 . S
H2219 C2243 0.950 . S
H2220 C2244 0.950 . S
H2221 C2245 0.951 . S
H2222 C2247 0.951 . S
H2223 C2249 0.950 . S
H2224 C2250 0.950 . S
H2225 C2252 0.950 . S
H2226 C2255 0.950 . S
H2227 C2256 0.950 . S
H2228 C2258 0.950 . S
H2229 C2259 0.950 . S
C2230 H2212 0.951 . S
C2230 C2231 1.366 . S
C2230 C2232 1.388 . S
C2231 C2230 1.366 . S
C2231 C2235 1.385 . S
C2232 H2213 0.951 . S
C2232 C2230 1.388 . S
C2232 C2233 1.366 . S
C2233 C2232 1.366 . S
C2233 C2234 1.414 . S
C2233 C2236 1.499 . S
C2234 H2214 0.950 . S
C2234 C2233 1.414 . S
C2234 C2235 1.374 . S
C2235 H2215 0.950 . S
C2235 C2231 1.385 . S
C2235 C2234 1.374 . S
C2236 C2233 1.499 . S
C2236 C2237 1.373 . S
C2236 C2238 1.389 . S
C2237 H2216 0.950 . S
C2237 C2236 1.373 . S
C2237 C2253 1.377 . S
C2238 C2236 1.389 . S
C2238 C2239 1.524 . S
C2238 C2252 1.377 . S
C2239 C2238 1.524 . S
C2239 C2240 1.397 . S
C2239 C2244 1.363 . S
C2240 H2217 0.950 . S
C2240 C2239 1.397 . S
C2240 C2241 1.334 . S
C2241 H2218 0.950 . S
C2241 C2240 1.334 . S
C2241 C2242 1.287 . S
C2242 C2241 1.287 . S
C2242 C2243 1.524 . S
C2242 H2261 0.913 . S
C2243 H2219 0.950 . S
C2243 C2242 1.524 . S
C2243 C2244 1.415 . S
C2244 H2220 0.950 . S
C2244 C2239 1.363 . S
C2244 C2243 1.415 . S
C2245 H2221 0.951 . S
C2245 C2246 1.366 . S
C2245 C2247 1.388 . S
C2246 C2245 1.366 . S
C2246 C2250 1.385 . S
C2247 H2222 0.951 . S
C2247 C2245 1.388 . S
C2247 C2248 1.366 . S
C2248 C2247 1.366 . S
C2248 C2249 1.414 . S
C2248 C2251 1.499 . S
C2249 H2223 0.950 . S
C2249 C2248 1.414 . S
C2249 C2250 1.374 . S
C2250 H2224 0.950 . S
C2250 C2246 1.385 . S
C2250 C2249 1.374 . S
C2251 C2248 1.499 . S
C2251 C2252 1.373 . S
C2251 C2253 1.389 . S
C2252 H2225 0.950 . S
C2252 C2238 1.377 . S
C2252 C2251 1.373 . S
C2253 C2237 1.377 . S
C2253 C2251 1.389 . S
C2253 C2254 1.524 . S
C2254 C2253 1.524 . S
C2254 C2255 1.397 . S
C2254 C2259 1.363 . S
C2255 H2226 0.950 . S
C2255 C2254 1.397 . S
C2255 C2256 1.334 . S
C2256 H2227 0.950 . S
C2256 C2255 1.334 . S
C2256 C2257 1.287 . S
C2257 C2256 1.287 . S
C2257 C2258 1.524 . S
C2257 H2260 0.999 . S
C2258 H2228 0.950 . S
C2258 C2257 1.524 . S
C2258 C2259 1.415 . S
C2259 H2229 0.950 . S
C2259 C2254 1.363 . S
C2259 C2258 1.415 . S
H2260 C2257 0.999 . S
H2261 C2242 0.913 . S
H2262 C2280 0.951 . S
H2263 C2282 0.951 . S
H2264 C2284 0.950 . S
H2265 C2285 0.950 . S
H2266 C2287 0.950 . S
H2267 C2290 0.950 . S
H2268 C2291 0.950 . S
H2269 C2293 0.950 . S
H2270 C2294 0.950 . S
H2271 C2295 0.951 . S
H2272 C2297 0.951 . S
H2273 C2299 0.950 . S
H2274 C2300 0.950 . S
H2275 C2302 0.950 . S
H2276 C2305 0.950 . S
H2277 C2306 0.950 . S
H2278 C2308 0.950 . S
H2279 C2309 0.950 . S
C2280 H2262 0.951 . S
C2280 C2281 1.366 . S
C2280 C2282 1.388 . S
C2281 C2280 1.366 . S
C2281 C2285 1.385 . S
C2282 H2263 0.951 . S
C2282 C2280 1.388 . S
C2282 C2283 1.366 . S
C2283 C2282 1.366 . S
C2283 C2284 1.414 . S
C2283 C2286 1.499 . S
C2284 H2264 0.950 . S
C2284 C2283 1.414 . S
C2284 C2285 1.374 . S
C2285 H2265 0.950 . S
C2285 C2281 1.385 . S
C2285 C2284 1.374 . S
C2286 C2283 1.499 . S
C2286 C2287 1.373 . S
C2286 C2288 1.389 . S
C2287 H2266 0.950 . S
C2287 C2286 1.373 . S
C2287 C2303 1.377 . S
C2288 C2286 1.389 . S
C2288 C2289 1.524 . S
C2288 C2302 1.377 . S
C2289 C2288 1.524 . S
C2289 C2290 1.397 . S
C2289 C2294 1.363 . S
C2290 H2267 0.950 . S
C2290 C2289 1.397 . S
C2290 C2291 1.334 . S
C2291 H2268 0.950 . S
C2291 C2290 1.334 . S
C2291 C2292 1.287 . S
C2292 C2291 1.287 . S
C2292 C2293 1.524 . S
C2292 H2311 0.913 . S
C2293 H2269 0.950 . S
C2293 C2292 1.524 . S
C2293 C2294 1.415 . S
C2294 H2270 0.950 . S
C2294 C2289 1.363 . S
C2294 C2293 1.415 . S
C2295 H2271 0.951 . S
C2295 C2296 1.366 . S
C2295 C2297 1.388 . S
C2296 C2295 1.366 . S
C2296 C2300 1.385 . S
C2297 H2272 0.951 . S
C2297 C2295 1.388 . S
C2297 C2298 1.366 . S
C2298 C2297 1.366 . S
C2298 C2299 1.414 . S
C2298 C2301 1.499 . S
C2299 H2273 0.950 . S
C2299 C2298 1.414 . S
C2299 C2300 1.374 . S
C2300 H2274 0.950 . S
C2300 C2296 1.385 . S
C2300 C2299 1.374 . S
C2301 C2298 1.499 . S
C2301 C2302 1.373 . S
C2301 C2303 1.389 . S
C2302 H2275 0.950 . S
C2302 C2288 1.377 . S
C2302 C2301 1.373 . S
C2303 C2287 1.377 . S
C2303 C2301 1.389 . S
C2303 C2304 1.524 . S
C2304 C2303 1.524 . S
C2304 C2305 1.397 . S
C2304 C2309 1.363 . S
C2305 H2276 0.950 . S
C2305 C2304 1.397 . S
C2305 C2306 1.334 . S
C2306 H2277 0.950 . S
C2306 C2305 1.334 . S
C2306 C2307 1.287 . S
C2307 C2306 1.287 . S
C2307 C2308 1.524 . S
C2307 H2310 0.999 . S
C2308 H2278 0.950 . S
C2308 C2307 1.524 . S
C2308 C2309 1.415 . S
C2309 H2279 0.950 . S
C2309 C2304 1.363 . S
C2309 C2308 1.415 . S
H2310 C2307 0.999 . S
H2311 C2292 0.913 . S
H2312 C2330 0.951 . S
H2313 C2332 0.951 . S
H2314 C2334 0.950 . S
H2315 C2335 0.950 . S
H2316 C2337 0.950 . S
H2317 C2340 0.950 . S
H2318 C2341 0.950 . S
H2319 C2343 0.950 . S
H2320 C2344 0.950 . S
H2321 C2345 0.951 . S
H2322 C2347 0.951 . S
H2323 C2349 0.950 . S
H2324 C2350 0.950 . S
H2325 C2352 0.950 . S
H2326 C2355 0.950 . S
H2327 C2356 0.950 . S
H2328 C2358 0.950 . S
H2329 C2359 0.950 . S
C2330 H2312 0.951 . S
C2330 C2331 1.366 . S
C2330 C2332 1.388 . S
C2331 C2330 1.366 . S
C2331 C2335 1.385 . S
C2332 H2313 0.951 . S
C2332 C2330 1.388 . S
C2332 C2333 1.366 . S
C2333 C2332 1.366 . S
C2333 C2334 1.414 . S
C2333 C2336 1.499 . S
C2334 H2314 0.950 . S
C2334 C2333 1.414 . S
C2334 C2335 1.374 . S
C2335 H2315 0.950 . S
C2335 C2331 1.385 . S
C2335 C2334 1.374 . S
C2336 C2333 1.499 . S
C2336 C2337 1.373 . S
C2336 C2338 1.389 . S
C2337 H2316 0.950 . S
C2337 C2336 1.373 . S
C2337 C2353 1.377 . S
C2338 C2336 1.389 . S
C2338 C2339 1.524 . S
C2338 C2352 1.377 . S
C2339 C2338 1.524 . S
C2339 C2340 1.397 . S
C2339 C2344 1.363 . S
C2340 H2317 0.950 . S
C2340 C2339 1.397 . S
C2340 C2341 1.334 . S
C2341 H2318 0.950 . S
C2341 C2340 1.334 . S
C2341 C2342 1.287 . S
C2342 C2341 1.287 . S
C2342 C2343 1.524 . S
C2342 H2361 0.913 . S
C2343 H2319 0.950 . S
C2343 C2342 1.524 . S
C2343 C2344 1.415 . S
C2344 H2320 0.950 . S
C2344 C2339 1.363 . S
C2344 C2343 1.415 . S
C2345 H2321 0.951 . S
C2345 C2346 1.366 . S
C2345 C2347 1.388 . S
C2346 C2345 1.366 . S
C2346 C2350 1.385 . S
C2347 H2322 0.951 . S
C2347 C2345 1.388 . S
C2347 C2348 1.366 . S
C2348 C2347 1.366 . S
C2348 C2349 1.414 . S
C2348 C2351 1.499 . S
C2349 H2323 0.950 . S
C2349 C2348 1.414 . S
C2349 C2350 1.374 . S
C2350 H2324 0.950 . S
C2350 C2346 1.385 . S
C2350 C2349 1.374 . S
C2351 C2348 1.499 . S
C2351 C2352 1.373 . S
C2351 C2353 1.389 . S
C2352 H2325 0.950 . S
C2352 C2338 1.377 . S
C2352 C2351 1.373 . S
C2353 C2337 1.377 . S
C2353 C2351 1.389 . S
C2353 C2354 1.524 . S
C2354 C2353 1.524 . S
C2354 C2355 1.397 . S
C2354 C2359 1.363 . S
C2355 H2326 0.950 . S
C2355 C2354 1.397 . S
C2355 C2356 1.334 . S
C2356 H2327 0.950 . S
C2356 C2355 1.334 . S
C2356 C2357 1.287 . S
C2357 C2356 1.287 . S
C2357 C2358 1.524 . S
C2357 H2360 0.999 . S
C2358 H2328 0.950 . S
C2358 C2357 1.524 . S
C2358 C2359 1.415 . S
C2359 H2329 0.950 . S
C2359 C2354 1.363 . S
C2359 C2358 1.415 . S
H2360 C2357 0.999 . S
H2361 C2342 0.913 . S
H2362 C2380 0.951 . S
H2363 C2382 0.951 . S
H2364 C2384 0.950 . S
H2365 C2385 0.950 . S
H2366 C2387 0.950 . S
H2367 C2390 0.950 . S
H2368 C2391 0.950 . S
H2369 C2393 0.950 . S
H2370 C2394 0.950 . S
H2371 C2395 0.951 . S
H2372 C2397 0.951 . S
H2373 C2399 0.950 . S
H2374 C2400 0.950 . S
H2375 C2402 0.950 . S
H2376 C2405 0.950 . S
H2377 C2406 0.950 . S
H2378 C2408 0.950 . S
H2379 C2409 0.950 . S
C2380 H2362 0.951 . S
C2380 C2381 1.366 . S
C2380 C2382 1.388 . S
C2381 C2380 1.366 . S
C2381 C2385 1.385 . S
C2382 H2363 0.951 . S
C2382 C2380 1.388 . S
C2382 C2383 1.366 . S
C2383 C2382 1.366 . S
C2383 C2384 1.414 . S
C2383 C2386 1.499 . S
C2384 H2364 0.950 . S
C2384 C2383 1.414 . S
C2384 C2385 1.374 . S
C2385 H2365 0.950 . S
C2385 C2381 1.385 . S
C2385 C2384 1.374 . S
C2386 C2383 1.499 . S
C2386 C2387 1.373 . S
C2386 C2388 1.389 . S
C2387 H2366 0.950 . S
C2387 C2386 1.373 . S
C2387 C2403 1.377 . S
C2388 C2386 1.389 . S
C2388 C2389 1.524 . S
C2388 C2402 1.377 . S
C2389 C2388 1.524 . S
C2389 C2390 1.397 . S
C2389 C2394 1.363 . S
C2390 H2367 0.950 . S
C2390 C2389 1.397 . S
C2390 C2391 1.334 . S
C2391 H2368 0.950 . S
C2391 C2390 1.334 . S
C2391 C2392 1.287 . S
C2392 C2391 1.287 . S
C2392 C2393 1.524 . S
C2392 H2411 0.913 . S
C2393 H2369 0.950 . S
C2393 C2392 1.524 . S
C2393 C2394 1.415 . S
C2394 H2370 0.950 . S
C2394 C2389 1.363 . S
C2394 C2393 1.415 . S
C2395 H2371 0.951 . S
C2395 C2396 1.366 . S
C2395 C2397 1.388 . S
C2396 C2395 1.366 . S
C2396 C2400 1.385 . S
C2397 H2372 0.951 . S
C2397 C2395 1.388 . S
C2397 C2398 1.366 . S
C2398 C2397 1.366 . S
C2398 C2399 1.414 . S
C2398 C2401 1.499 . S
C2399 H2373 0.950 . S
C2399 C2398 1.414 . S
C2399 C2400 1.374 . S
C2400 H2374 0.950 . S
C2400 C2396 1.385 . S
C2400 C2399 1.374 . S
C2401 C2398 1.499 . S
C2401 C2402 1.373 . S
C2401 C2403 1.389 . S
C2402 H2375 0.950 . S
C2402 C2388 1.377 . S
C2402 C2401 1.373 . S
C2403 C2387 1.377 . S
C2403 C2401 1.389 . S
C2403 C2404 1.524 . S
C2404 C2403 1.524 . S
C2404 C2405 1.397 . S
C2404 C2409 1.363 . S
C2405 H2376 0.950 . S
C2405 C2404 1.397 . S
C2405 C2406 1.334 . S
C2406 H2377 0.950 . S
C2406 C2405 1.334 . S
C2406 C2407 1.287 . S
C2407 C2406 1.287 . S
C2407 C2408 1.524 . S
C2407 H2410 0.999 . S
C2408 H2378 0.950 . S
C2408 C2407 1.524 . S
C2408 C2409 1.415 . S
C2409 H2379 0.950 . S
C2409 C2404 1.363 . S
C2409 C2408 1.415 . S
H2410 C2407 0.999 . S
H2411 C2392 0.913 . S
H2412 C2430 0.951 . S
H2413 C2432 0.951 . S
H2414 C2434 0.950 . S
H2415 C2435 0.950 . S
H2416 C2437 0.950 . S
H2417 C2440 0.950 . S
H2418 C2441 0.950 . S
H2419 C2443 0.950 . S
H2420 C2444 0.950 . S
H2421 C2445 0.951 . S
H2422 C2447 0.951 . S
H2423 C2449 0.950 . S
H2424 C2450 0.950 . S
H2425 C2452 0.950 . S
H2426 C2455 0.950 . S
H2427 C2456 0.950 . S
H2428 C2458 0.950 . S
H2429 C2459 0.950 . S
C2430 H2412 0.951 . S
C2430 C2431 1.366 . S
C2430 C2432 1.388 . S
C2431 C2430 1.366 . S
C2431 C2435 1.385 . S
C2432 H2413 0.951 . S
C2432 C2430 1.388 . S
C2432 C2433 1.366 . S
C2433 C2432 1.366 . S
C2433 C2434 1.414 . S
C2433 C2436 1.499 . S
C2434 H2414 0.950 . S
C2434 C2433 1.414 . S
C2434 C2435 1.374 . S
C2435 H2415 0.950 . S
C2435 C2431 1.385 . S
C2435 C2434 1.374 . S
C2436 C2433 1.499 . S
C2436 C2437 1.373 . S
C2436 C2438 1.389 . S
C2437 H2416 0.950 . S
C2437 C2436 1.373 . S
C2437 C2453 1.377 . S
C2438 C2436 1.389 . S
C2438 C2439 1.524 . S
C2438 C2452 1.377 . S
C2439 C2438 1.524 . S
C2439 C2440 1.397 . S
C2439 C2444 1.363 . S
C2440 H2417 0.950 . S
C2440 C2439 1.397 . S
C2440 C2441 1.334 . S
C2441 H2418 0.950 . S
C2441 C2440 1.334 . S
C2441 C2442 1.287 . S
C2442 C2441 1.287 . S
C2442 C2443 1.524 . S
C2442 H2461 0.913 . S
C2443 H2419 0.950 . S
C2443 C2442 1.524 . S
C2443 C2444 1.415 . S
C2444 H2420 0.950 . S
C2444 C2439 1.363 . S
C2444 C2443 1.415 . S
C2445 H2421 0.951 . S
C2445 C2446 1.366 . S
C2445 C2447 1.388 . S
C2446 C2445 1.366 . S
C2446 C2450 1.385 . S
C2447 H2422 0.951 . S
C2447 C2445 1.388 . S
C2447 C2448 1.366 . S
C2448 C2447 1.366 . S
C2448 C2449 1.414 . S
C2448 C2451 1.499 . S
C2449 H2423 0.950 . S
C2449 C2448 1.414 . S
C2449 C2450 1.374 . S
C2450 H2424 0.950 . S
C2450 C2446 1.385 . S
C2450 C2449 1.374 . S
C2451 C2448 1.499 . S
C2451 C2452 1.373 . S
C2451 C2453 1.389 . S
C2452 H2425 0.950 . S
C2452 C2438 1.377 . S
C2452 C2451 1.373 . S
C2453 C2437 1.377 . S
C2453 C2451 1.389 . S
C2453 C2454 1.524 . S
C2454 C2453 1.524 . S
C2454 C2455 1.397 . S
C2454 C2459 1.363 . S
C2455 H2426 0.950 . S
C2455 C2454 1.397 . S
C2455 C2456 1.334 . S
C2456 H2427 0.950 . S
C2456 C2455 1.334 . S
C2456 C2457 1.287 . S
C2457 C2456 1.287 . S
C2457 C2458 1.524 . S
C2457 H2460 0.999 . S
C2458 H2428 0.950 . S
C2458 C2457 1.524 . S
C2458 C2459 1.415 . S
C2459 H2429 0.950 . S
C2459 C2454 1.363 . S
C2459 C2458 1.415 . S
H2460 C2457 0.999 . S
H2461 C2442 0.913 . S
H2462 C2480 0.951 . S
H2463 C2482 0.951 . S
H2464 C2484 0.950 . S
H2465 C2485 0.950 . S
H2466 C2487 0.950 . S
H2467 C2490 0.950 . S
H2468 C2491 0.950 . S
H2469 C2493 0.950 . S
H2470 C2494 0.950 . S
H2471 C2495 0.951 . S
H2472 C2497 0.951 . S
H2473 C2499 0.950 . S
H2474 C2500 0.950 . S
H2475 C2502 0.950 . S
H2476 C2505 0.950 . S
H2477 C2506 0.950 . S
H2478 C2508 0.950 . S
H2479 C2509 0.950 . S
C2480 H2462 0.951 . S
C2480 C2481 1.366 . S
C2480 C2482 1.388 . S
C2481 C2480 1.366 . S
C2481 C2485 1.385 . S
C2482 H2463 0.951 . S
C2482 C2480 1.388 . S
C2482 C2483 1.366 . S
C2483 C2482 1.366 . S
C2483 C2484 1.414 . S
C2483 C2486 1.499 . S
C2484 H2464 0.950 . S
C2484 C2483 1.414 . S
C2484 C2485 1.374 . S
C2485 H2465 0.950 . S
C2485 C2481 1.385 . S
C2485 C2484 1.374 . S
C2486 C2483 1.499 . S
C2486 C2487 1.373 . S
C2486 C2488 1.389 . S
C2487 H2466 0.950 . S
C2487 C2486 1.373 . S
C2487 C2503 1.377 . S
C2488 C2486 1.389 . S
C2488 C2489 1.524 . S
C2488 C2502 1.377 . S
C2489 C2488 1.524 . S
C2489 C2490 1.397 . S
C2489 C2494 1.363 . S
C2490 H2467 0.950 . S
C2490 C2489 1.397 . S
C2490 C2491 1.334 . S
C2491 H2468 0.950 . S
C2491 C2490 1.334 . S
C2491 C2492 1.287 . S
C2492 C2491 1.287 . S
C2492 C2493 1.524 . S
C2492 H2511 0.913 . S
C2493 H2469 0.950 . S
C2493 C2492 1.524 . S
C2493 C2494 1.415 . S
C2494 H2470 0.950 . S
C2494 C2489 1.363 . S
C2494 C2493 1.415 . S
C2495 H2471 0.951 . S
C2495 C2496 1.366 . S
C2495 C2497 1.388 . S
C2496 C2495 1.366 . S
C2496 C2500 1.385 . S
C2497 H2472 0.951 . S
C2497 C2495 1.388 . S
C2497 C2498 1.366 . S
C2498 C2497 1.366 . S
C2498 C2499 1.414 . S
C2498 C2501 1.499 . S
C2499 H2473 0.950 . S
C2499 C2498 1.414 . S
C2499 C2500 1.374 . S
C2500 H2474 0.950 . S
C2500 C2496 1.385 . S
C2500 C2499 1.374 . S
C2501 C2498 1.499 . S
C2501 C2502 1.373 . S
C2501 C2503 1.389 . S
C2502 H2475 0.950 . S
C2502 C2488 1.377 . S
C2502 C2501 1.373 . S
C2503 C2487 1.377 . S
C2503 C2501 1.389 . S
C2503 C2504 1.524 . S
C2504 C2503 1.524 . S
C2504 C2505 1.397 . S
C2504 C2509 1.363 . S
C2505 H2476 0.950 . S
C2505 C2504 1.397 . S
C2505 C2506 1.334 . S
C2506 H2477 0.950 . S
C2506 C2505 1.334 . S
C2506 C2507 1.287 . S
C2507 C2506 1.287 . S
C2507 C2508 1.524 . S
C2507 H2510 0.999 . S
C2508 H2478 0.950 . S
C2508 C2507 1.524 . S
C2508 C2509 1.415 . S
C2509 H2479 0.950 . S
C2509 C2504 1.363 . S
C2509 C2508 1.415 . S
H2510 C2507 0.999 . S
H2511 C2492 0.913 . S
H2512 C2530 0.951 . S
H2513 C2532 0.951 . S
H2514 C2534 0.950 . S
H2515 C2535 0.950 . S
H2516 C2537 0.950 . S
H2517 C2540 0.950 . S
H2518 C2541 0.950 . S
H2519 C2543 0.950 . S
H2520 C2544 0.950 . S
H2521 C2545 0.951 . S
H2522 C2547 0.951 . S
H2523 C2549 0.950 . S
H2524 C2550 0.950 . S
H2525 C2552 0.950 . S
H2526 C2555 0.950 . S
H2527 C2556 0.950 . S
H2528 C2558 0.950 . S
H2529 C2559 0.950 . S
C2530 H2512 0.951 . S
C2530 C2531 1.366 . S
C2530 C2532 1.388 . S
C2531 C2530 1.366 . S
C2531 C2535 1.385 . S
C2532 H2513 0.951 . S
C2532 C2530 1.388 . S
C2532 C2533 1.366 . S
C2533 C2532 1.366 . S
C2533 C2534 1.414 . S
C2533 C2536 1.499 . S
C2534 H2514 0.950 . S
C2534 C2533 1.414 . S
C2534 C2535 1.374 . S
C2535 H2515 0.950 . S
C2535 C2531 1.385 . S
C2535 C2534 1.374 . S
C2536 C2533 1.499 . S
C2536 C2537 1.373 . S
C2536 C2538 1.389 . S
C2537 H2516 0.950 . S
C2537 C2536 1.373 . S
C2537 C2553 1.377 . S
C2538 C2536 1.389 . S
C2538 C2539 1.524 . S
C2538 C2552 1.377 . S
C2539 C2538 1.524 . S
C2539 C2540 1.397 . S
C2539 C2544 1.363 . S
C2540 H2517 0.950 . S
C2540 C2539 1.397 . S
C2540 C2541 1.334 . S
C2541 H2518 0.950 . S
C2541 C2540 1.334 . S
C2541 C2542 1.287 . S
C2542 C2541 1.287 . S
C2542 C2543 1.524 . S
C2542 H2561 0.913 . S
C2543 H2519 0.950 . S
C2543 C2542 1.524 . S
C2543 C2544 1.415 . S
C2544 H2520 0.950 . S
C2544 C2539 1.363 . S
C2544 C2543 1.415 . S
C2545 H2521 0.951 . S
C2545 C2546 1.366 . S
C2545 C2547 1.388 . S
C2546 C2545 1.366 . S
C2546 C2550 1.385 . S
C2547 H2522 0.951 . S
C2547 C2545 1.388 . S
C2547 C2548 1.366 . S
C2548 C2547 1.366 . S
C2548 C2549 1.414 . S
C2548 C2551 1.499 . S
C2549 H2523 0.950 . S
C2549 C2548 1.414 . S
C2549 C2550 1.374 . S
C2550 H2524 0.950 . S
C2550 C2546 1.385 . S
C2550 C2549 1.374 . S
C2551 C2548 1.499 . S
C2551 C2552 1.373 . S
C2551 C2553 1.389 . S
C2552 H2525 0.950 . S
C2552 C2538 1.377 . S
C2552 C2551 1.373 . S
C2553 C2537 1.377 . S
C2553 C2551 1.389 . S
C2553 C2554 1.524 . S
C2554 C2553 1.524 . S
C2554 C2555 1.397 . S
C2554 C2559 1.363 . S
C2555 H2526 0.950 . S
C2555 C2554 1.397 . S
C2555 C2556 1.334 . S
C2556 H2527 0.950 . S
C2556 C2555 1.334 . S
C2556 C2557 1.287 . S
C2557 C2556 1.287 . S
C2557 C2558 1.524 . S
C2557 H2560 0.999 . S
C2558 H2528 0.950 . S
C2558 C2557 1.524 . S
C2558 C2559 1.415 . S
C2559 H2529 0.950 . S
C2559 C2554 1.363 . S
C2559 C2558 1.415 . S
H2560 C2557 0.999 . S
H2561 C2542 0.913 . S
H2562 C2580 0.951 . S
H2563 C2582 0.951 . S
H2564 C2584 0.950 . S
H2565 C2585 0.950 . S
H2566 C2587 0.950 . S
H2567 C2590 0.950 . S
H2568 C2591 0.950 . S
H2569 C2593 0.950 . S
H2570 C2594 0.950 . S
H2571 C2595 0.951 . S
H2572 C2597 0.951 . S
H2573 C2599 0.950 . S
H2574 C2600 0.950 . S
H2575 C2602 0.950 . S
H2576 C2605 0.950 . S
H2577 C2606 0.950 . S
H2578 C2608 0.950 . S
H2579 C2609 0.950 . S
C2580 H2562 0.951 . S
C2580 C2581 1.366 . S
C2580 C2582 1.388 . S
C2581 C2580 1.366 . S
C2581 C2585 1.385 . S
C2582 H2563 0.951 . S
C2582 C2580 1.388 . S
C2582 C2583 1.366 . S
C2583 C2582 1.366 . S
C2583 C2584 1.414 . S
C2583 C2586 1.499 . S
C2584 H2564 0.950 . S
C2584 C2583 1.414 . S
C2584 C2585 1.374 . S
C2585 H2565 0.950 . S
C2585 C2581 1.385 . S
C2585 C2584 1.374 . S
C2586 C2583 1.499 . S
C2586 C2587 1.373 . S
C2586 C2588 1.389 . S
C2587 H2566 0.950 . S
C2587 C2586 1.373 . S
C2587 C2603 1.377 . S
C2588 C2586 1.389 . S
C2588 C2589 1.524 . S
C2588 C2602 1.377 . S
C2589 C2588 1.524 . S
C2589 C2590 1.397 . S
C2589 C2594 1.363 . S
C2590 H2567 0.950 . S
C2590 C2589 1.397 . S
C2590 C2591 1.334 . S
C2591 H2568 0.950 . S
C2591 C2590 1.334 . S
C2591 C2592 1.287 . S
C2592 C2591 1.287 . S
C2592 C2593 1.524 . S
C2592 H2611 0.913 . S
C2593 H2569 0.950 . S
C2593 C2592 1.524 . S
C2593 C2594 1.415 . S
C2594 H2570 0.950 . S
C2594 C2589 1.363 . S
C2594 C2593 1.415 . S
C2595 H2571 0.951 . S
C2595 C2596 1.366 . S
C2595 C2597 1.388 . S
C2596 C2595 1.366 . S
C2596 C2600 1.385 . S
C2597 H2572 0.951 . S
C2597 C2595 1.388 . S
C2597 C2598 1.366 . S
C2598 C2597 1.366 . S
C2598 C2599 1.414 . S
C2598 C2601 1.499 . S
C2599 H2573 0.950 . S
C2599 C2598 1.414 . S
C2599 C2600 1.374 . S
C2600 H2574 0.950 . S
C2600 C2596 1.385 . S
C2600 C2599 1.374 . S
C2601 C2598 1.499 . S
C2601 C2602 1.373 . S
C2601 C2603 1.389 . S
C2602 H2575 0.950 . S
C2602 C2588 1.377 . S
C2602 C2601 1.373 . S
C2603 C2587 1.377 . S
C2603 C2601 1.389 . S
C2603 C2604 1.524 . S
C2604 C2603 1.524 . S
C2604 C2605 1.397 . S
C2604 C2609 1.363 . S
C2605 H2576 0.950 . S
C2605 C2604 1.397 . S
C2605 C2606 1.334 . S
C2606 H2577 0.950 . S
C2606 C2605 1.334 . S
C2606 C2607 1.287 . S
C2607 C2606 1.287 . S
C2607 C2608 1.524 . S
C2607 H2610 0.999 . S
C2608 H2578 0.950 . S
C2608 C2607 1.524 . S
C2608 C2609 1.415 . S
C2609 H2579 0.950 . S
C2609 C2604 1.363 . S
C2609 C2608 1.415 . S
H2610 C2607 0.999 . S
H2611 C2592 0.913 . S
H2612 C2630 0.951 . S
H2613 C2632 0.951 . S
H2614 C2634 0.950 . S
H2615 C2635 0.950 . S
H2616 C2637 0.950 . S
H2617 C2640 0.950 . S
H2618 C2641 0.950 . S
H2619 C2643 0.950 . S
H2620 C2644 0.950 . S
H2621 C2645 0.951 . S
H2622 C2647 0.951 . S
H2623 C2649 0.950 . S
H2624 C2650 0.950 . S
H2625 C2652 0.950 . S
H2626 C2655 0.950 . S
H2627 C2656 0.950 . S
H2628 C2658 0.950 . S
H2629 C2659 0.950 . S
C2630 H2612 0.951 . S
C2630 C2631 1.366 . S
C2630 C2632 1.388 . S
C2631 C2630 1.366 . S
C2631 C2635 1.385 . S
C2632 H2613 0.951 . S
C2632 C2630 1.388 . S
C2632 C2633 1.366 . S
C2633 C2632 1.366 . S
C2633 C2634 1.414 . S
C2633 C2636 1.499 . S
C2634 H2614 0.950 . S
C2634 C2633 1.414 . S
C2634 C2635 1.374 . S
C2635 H2615 0.950 . S
C2635 C2631 1.385 . S
C2635 C2634 1.374 . S
C2636 C2633 1.499 . S
C2636 C2637 1.373 . S
C2636 C2638 1.389 . S
C2637 H2616 0.950 . S
C2637 C2636 1.373 . S
C2637 C2653 1.377 . S
C2638 C2636 1.389 . S
C2638 C2639 1.524 . S
C2638 C2652 1.377 . S
C2639 C2638 1.524 . S
C2639 C2640 1.397 . S
C2639 C2644 1.363 . S
C2640 H2617 0.950 . S
C2640 C2639 1.397 . S
C2640 C2641 1.334 . S
C2641 H2618 0.950 . S
C2641 C2640 1.334 . S
C2641 C2642 1.287 . S
C2642 C2641 1.287 . S
C2642 C2643 1.524 . S
C2642 H2661 0.913 . S
C2643 H2619 0.950 . S
C2643 C2642 1.524 . S
C2643 C2644 1.415 . S
C2644 H2620 0.950 . S
C2644 C2639 1.363 . S
C2644 C2643 1.415 . S
C2645 H2621 0.951 . S
C2645 C2646 1.366 . S
C2645 C2647 1.388 . S
C2646 C2645 1.366 . S
C2646 C2650 1.385 . S
C2647 H2622 0.951 . S
C2647 C2645 1.388 . S
C2647 C2648 1.366 . S
C2648 C2647 1.366 . S
C2648 C2649 1.414 . S
C2648 C2651 1.499 . S
C2649 H2623 0.950 . S
C2649 C2648 1.414 . S
C2649 C2650 1.374 . S
C2650 H2624 0.950 . S
C2650 C2646 1.385 . S
C2650 C2649 1.374 . S
C2651 C2648 1.499 . S
C2651 C2652 1.373 . S
C2651 C2653 1.389 . S
C2652 H2625 0.950 . S
C2652 C2638 1.377 . S
C2652 C2651 1.373 . S
C2653 C2637 1.377 . S
C2653 C2651 1.389 . S
C2653 C2654 1.524 . S
C2654 C2653 1.524 . S
C2654 C2655 1.397 . S
C2654 C2659 1.363 . S
C2655 H2626 0.950 . S
C2655 C2654 1.397 . S
C2655 C2656 1.334 . S
C2656 H2627 0.950 . S
C2656 C2655 1.334 . S
C2656 C2657 1.287 . S
C2657 C2656 1.287 . S
C2657 C2658 1.524 . S
C2657 H2660 0.999 . S
C2658 H2628 0.950 . S
C2658 C2657 1.524 . S
C2658 C2659 1.415 . S
C2659 H2629 0.950 . S
C2659 C2654 1.363 . S
C2659 C2658 1.415 . S
H2660 C2657 0.999 . S
H2661 C2642 0.913 . S
H2662 C2680 0.951 . S
H2663 C2682 0.951 . S
H2664 C2684 0.950 . S
H2665 C2685 0.950 . S
H2666 C2687 0.950 . S
H2667 C2690 0.950 . S
H2668 C2691 0.950 . S
H2669 C2693 0.950 . S
H2670 C2694 0.950 . S
H2671 C2695 0.951 . S
H2672 C2697 0.951 . S
H2673 C2699 0.950 . S
H2674 C2700 0.950 . S
H2675 C2702 0.950 . S
H2676 C2705 0.950 . S
H2677 C2706 0.950 . S
H2678 C2708 0.950 . S
H2679 C2709 0.950 . S
C2680 H2662 0.951 . S
C2680 C2681 1.366 . S
C2680 C2682 1.388 . S
C2681 C2680 1.366 . S
C2681 C2685 1.385 . S
C2682 H2663 0.951 . S
C2682 C2680 1.388 . S
C2682 C2683 1.366 . S
C2683 C2682 1.366 . S
C2683 C2684 1.414 . S
C2683 C2686 1.499 . S
C2684 H2664 0.950 . S
C2684 C2683 1.414 . S
C2684 C2685 1.374 . S
C2685 H2665 0.950 . S
C2685 C2681 1.385 . S
C2685 C2684 1.374 . S
C2686 C2683 1.499 . S
C2686 C2687 1.373 . S
C2686 C2688 1.389 . S
C2687 H2666 0.950 . S
C2687 C2686 1.373 . S
C2687 C2703 1.377 . S
C2688 C2686 1.389 . S
C2688 C2689 1.524 . S
C2688 C2702 1.377 . S
C2689 C2688 1.524 . S
C2689 C2690 1.397 . S
C2689 C2694 1.363 . S
C2690 H2667 0.950 . S
C2690 C2689 1.397 . S
C2690 C2691 1.334 . S
C2691 H2668 0.950 . S
C2691 C2690 1.334 . S
C2691 C2692 1.287 . S
C2692 C2691 1.287 . S
C2692 C2693 1.524 . S
C2692 H2711 0.913 . S
C2693 H2669 0.950 . S
C2693 C2692 1.524 . S
C2693 C2694 1.415 . S
C2694 H2670 0.950 . S
C2694 C2689 1.363 . S
C2694 C2693 1.415 . S
C2695 H2671 0.951 . S
C2695 C2696 1.366 . S
C2695 C2697 1.388 . S
C2696 C2695 1.366 . S
C2696 C2700 1.385 . S
C2697 H2672 0.951 . S
C2697 C2695 1.388 . S
C2697 C2698 1.366 . S
C2698 C2697 1.366 . S
C2698 C2699 1.414 . S
C2698 C2701 1.499 . S
C2699 H2673 0.950 . S
C2699 C2698 1.414 . S
C2699 C2700 1.374 . S
C2700 H2674 0.950 . S
C2700 C2696 1.385 . S
C2700 C2699 1.374 . S
C2701 C2698 1.499 . S
C2701 C2702 1.373 . S
C2701 C2703 1.389 . S
C2702 H2675 0.950 . S
C2702 C2688 1.377 . S
C2702 C2701 1.373 . S
C2703 C2687 1.377 . S
C2703 C2701 1.389 . S
C2703 C2704 1.524 . S
C2704 C2703 1.524 . S
C2704 C2705 1.397 . S
C2704 C2709 1.363 . S
C2705 H2676 0.950 . S
C2705 C2704 1.397 . S
C2705 C2706 1.334 . S
C2706 H2677 0.950 . S
C2706 C2705 1.334 . S
C2706 C2707 1.287 . S
C2707 C2706 1.287 . S
C2707 C2708 1.524 . S
C2707 H2710 0.999 . S
C2708 H2678 0.950 . S
C2708 C2707 1.524 . S
C2708 C2709 1.415 . S
C2709 H2679 0.950 . S
C2709 C2704 1.363 . S
C2709 C2708 1.415 . S
H2710 C2707 0.999 . S
H2711 C2692 0.913 . S
C331 C290 1.540 . S
C346 C5 1.547 . S
C381 C17 1.536 . S
C396 C213 1.543 . S
C431 C309 1.539 . S
C446 C29 1.546 . S
C481 C278 1.546 . S
C496 C44 1.546 . S
C531 C239 1.546 . S
C546 C55 1.545 . S
C581 C257 1.539 . S
C596 C68 1.546 . S
C631 C265 1.543 . S
C646 C88 1.536 . S
C681 C94 1.547 . S
C696 C225 1.540 . S
C731 C173 1.539 . S
C746 C114 1.539 . S
C781 C185 1.546 . S
C796 C120 1.546 . S
C831 C134 1.539 . S
C846 C205 1.539 . S
C881 C146 1.548 . S
C896 C161 1.548 . S
C931 C95 1.534 . S
C946 C186 1.534 . S
C981 C200 1.548 . S
C996 C56 1.540 . S
C1031 C69 1.534 . S
C1046 C166 1.534 . S
C1081 C172 1.551 . S
C1096 C83 1.551 . S
C1131 C133 1.551 . S
C1146 C16 1.551 . S
C1181 C30 1.534 . S
C1196 C147 1.534 . S
C1231 C49 1.540 . S
C1246 C109 1.547 . S
C1281 C10 1.534 . S
C1296 C121 1.534 . S
C1331 C270 1.533 . S
C1346 C283 1.533 . S
C1381 C289 1.547 . S
C1396 C224 1.547 . S
C1431 C244 1.533 . S
C1446 C218 1.533 . S
C1481 C304 1.549 . S
C1496 C252 1.549 . S
C1531 C4 0.595 . S
C1546 C108 0.594 . S
C1581 C122 0.621 . S
C1596 C18 0.623 . S
C1631 C36 0.596 . S
C1646 C140 0.597 . S
C1681 C43 0.606 . S
C1696 C148 0.612 . S
C1731 C62 0.608 . S
C1746 C159 0.610 . S
C1781 C75 0.598 . S
C1796 C179 0.596 . S
C1831 C187 0.622 . S
C1846 C81 0.623 . S
C1881 C199 0.594 . S
C1896 C101 0.592 . S
C1931 C107 0.615 . S
C1946 C211 0.617 . S
C1981 C127 0.599 . S
C1996 C303 0.599 . S
C2031 C276 0.620 . S
C2046 C135 0.618 . S
C2081 C296 0.599 . S
C2096 C153 0.601 . S
C2131 C231 0.600 . S
C2146 C160 0.599 . S
C2181 C237 0.620 . S
C2196 C174 0.619 . S
C2231 C192 0.601 . S
C2246 C251 0.600 . S
C2281 C198 0.617 . S
C2296 C263 0.615 . S
C2331 C3 0.605 . S
C2346 C212 0.598 . S
C2381 C226 0.626 . S
C2396 C57 0.628 . S
C2431 C238 0.601 . S
C2446 C70 0.607 . S
C2481 C250 0.616 . S
C2496 C82 0.614 . S
C2531 C264 0.600 . S
C2546 C96 0.603 . S
C2581 C277 0.603 . S
C2596 C31 0.606 . S
C2631 C42 0.628 . S
C2646 C291 0.628 . S
C2681 C302 0.616 . S
C2696 C23 0.612 . S
