# Generated by pormake.
# Topology umd, (4)-cn, num edge types: 1
# Building blocks:
#     Node 0, Type 0, BuildingBlock: KOZSID_clean_sbu_0, # of connection points: 4
#     Node 1, Type 0, BuildingBlock: KOZSID_clean_sbu_0, # of connection points: 4
#     Node 2, Type 0, BuildingBlock: KOZSID_clean_sbu_0, # of connection points: 4
#     Node 3, Type 0, BuildingBlock: KOZSID_clean_sbu_0, # of connection points: 4
#     Node 4, Type 0, BuildingBlock: KOZSID_clean_sbu_0, # of connection points: 4
#     Node 5, Type 0, BuildingBlock: KOZSID_clean_sbu_0, # of connection points: 4
#     Node 6, Type 0, BuildingBlock: KOZSID_clean_sbu_0, # of connection points: 4
#     Node 7, Type 0, BuildingBlock: KOZSID_clean_sbu_0, # of connection points: 4
#     Node 8, Type 0, BuildingBlock: KOZSID_clean_sbu_0, # of connection points: 4
#     Node 9, Type 0, BuildingBlock: KOZSID_clean_sbu_0, # of connection points: 4
#     Node 10, Type 0, BuildingBlock: KOZSID_clean_sbu_0, # of connection points: 4
#     Node 11, Type 0, BuildingBlock: KOZSID_clean_sbu_0, # of connection points: 4
#     Node 12, Type 0, BuildingBlock: KOZSID_clean_sbu_0, # of connection points: 4
#     Node 13, Type 0, BuildingBlock: KOZSID_clean_sbu_0, # of connection points: 4
#     Node 14, Type 0, BuildingBlock: KOZSID_clean_sbu_0, # of connection points: 4
#     Node 15, Type 0, BuildingBlock: KOZSID_clean_sbu_0, # of connection points: 4
#     Edge 16, Type (0, 0), BuildingBlock: MIFKUJ_clean_linker_0, # of connection points: 2
#     Edge 17, Type (0, 0), BuildingBlock: MIFKUJ_clean_linker_0, # of connection points: 2
#     Edge 18, Type (0, 0), BuildingBlock: MIFKUJ_clean_linker_0, # of connection points: 2
#     Edge 19, Type (0, 0), BuildingBlock: MIFKUJ_clean_linker_0, # of connection points: 2
#     Edge 20, Type (0, 0), BuildingBlock: MIFKUJ_clean_linker_0, # of connection points: 2
#     Edge 21, Type (0, 0), BuildingBlock: MIFKUJ_clean_linker_0, # of connection points: 2
#     Edge 22, Type (0, 0), BuildingBlock: MIFKUJ_clean_linker_0, # of connection points: 2
#     Edge 23, Type (0, 0), BuildingBlock: MIFKUJ_clean_linker_0, # of connection points: 2
#     Edge 24, Type (0, 0), BuildingBlock: MIFKUJ_clean_linker_0, # of connection points: 2
#     Edge 25, Type (0, 0), BuildingBlock: MIFKUJ_clean_linker_0, # of connection points: 2
#     Edge 26, Type (0, 0), BuildingBlock: MIFKUJ_clean_linker_0, # of connection points: 2
#     Edge 27, Type (0, 0), BuildingBlock: MIFKUJ_clean_linker_0, # of connection points: 2
#     Edge 28, Type (0, 0), BuildingBlock: MIFKUJ_clean_linker_0, # of connection points: 2
#     Edge 29, Type (0, 0), BuildingBlock: MIFKUJ_clean_linker_0, # of connection points: 2
#     Edge 30, Type (0, 0), BuildingBlock: MIFKUJ_clean_linker_0, # of connection points: 2
#     Edge 31, Type (0, 0), BuildingBlock: MIFKUJ_clean_linker_0, # of connection points: 2
#     Edge 32, Type (0, 0), BuildingBlock: MIFKUJ_clean_linker_0, # of connection points: 2
#     Edge 33, Type (0, 0), BuildingBlock: MIFKUJ_clean_linker_0, # of connection points: 2
#     Edge 34, Type (0, 0), BuildingBlock: MIFKUJ_clean_linker_0, # of connection points: 2
#     Edge 35, Type (0, 0), BuildingBlock: MIFKUJ_clean_linker_0, # of connection points: 2
#     Edge 36, Type (0, 0), BuildingBlock: MIFKUJ_clean_linker_0, # of connection points: 2
#     Edge 37, Type (0, 0), BuildingBlock: MIFKUJ_clean_linker_0, # of connection points: 2
#     Edge 38, Type (0, 0), BuildingBlock: MIFKUJ_clean_linker_0, # of connection points: 2
#     Edge 39, Type (0, 0), BuildingBlock: MIFKUJ_clean_linker_0, # of connection points: 2
#     Edge 40, Type (0, 0), BuildingBlock: MIFKUJ_clean_linker_0, # of connection points: 2
#     Edge 41, Type (0, 0), BuildingBlock: MIFKUJ_clean_linker_0, # of connection points: 2
#     Edge 42, Type (0, 0), BuildingBlock: MIFKUJ_clean_linker_0, # of connection points: 2
#     Edge 43, Type (0, 0), BuildingBlock: MIFKUJ_clean_linker_0, # of connection points: 2
#     Edge 44, Type (0, 0), BuildingBlock: MIFKUJ_clean_linker_0, # of connection points: 2
#     Edge 45, Type (0, 0), BuildingBlock: MIFKUJ_clean_linker_0, # of connection points: 2
#     Edge 46, Type (0, 0), BuildingBlock: MIFKUJ_clean_linker_0, # of connection points: 2
#     Edge 47, Type (0, 0), BuildingBlock: MIFKUJ_clean_linker_0, # of connection points: 2
# Relax obj value: 0.058
# Max RMSD: 0.210
# Mean RMSD: 0.210
data_MOF--net-umd--node1-KOZSID_clean_sbu_0--edge1-MIFKUJ_clean_linker_0
_symmetry_space_group_name_H-M    P1
_symmetry_Int_Tables_number       1
_symmetry_cell_setting            triclinic
loop_
_symmetry_equiv_pos_as_xyz
'x, y, z'
_cell_length_a     66.612083
_cell_length_b     66.682828
_cell_length_c     79.769264
_cell_angle_alpha  89.98121
_cell_angle_beta   89.999646
_cell_angle_gamma 90.015866
loop_
_atom_site_label
_atom_site_type_symbol
_atom_site_fract_x
_atom_site_fract_y
_atom_site_fract_z
_atom_type_partial_charge
C0 C 0.16814 0.43075 0.17647 0.0
C1 C 0.15645 0.42119 0.18844 0.0
C2 C 0.14438 0.408 0.18004 0.0
C3 C 0.14929 0.41022 0.16344 0.0
N4 N 0.16403 0.4237 0.16075 0.0
Co5 Co 0.17402 0.4324 0.13812 0.0
N6 N 0.15896 0.41068 0.12614 0.0
C7 C 0.1447 0.39891 0.13296 0.0
C8 C 0.13641 0.38563 0.12179 0.0
C9 C 0.14583 0.38937 0.10686 0.0
C10 C 0.15936 0.4048 0.10977 0.0
N11 N 0.18395 0.44134 0.11561 0.0
C12 C 0.18236 0.4327 0.10022 0.0
C13 C 0.19127 0.44451 0.08792 0.0
C14 C 0.19864 0.46109 0.09579 0.0
C15 C 0.19384 0.45855 0.11235 0.0
N16 N 0.18908 0.45424 0.15 0.0
C17 C 0.19904 0.46948 0.14262 0.0
C18 C 0.20834 0.48215 0.15368 0.0
C19 C 0.20372 0.4748 0.16915 0.0
C20 C 0.19161 0.45811 0.16663 0.0
N21 N 0.19757 0.41399 0.1403 0.0
C22 C 0.23006 0.38607 0.14112 0.0
C23 C 0.23305 0.40634 0.1368 0.0
C24 C 0.21672 0.41992 0.13637 0.0
C25 C 0.21041 0.38043 0.14542 0.0
C26 C 0.19463 0.39445 0.14505 0.0
N27 N 0.15006 0.45013 0.13586 0.0
C28 C 0.12409 0.47047 0.14878 0.0
C29 C 0.11192 0.46923 0.13443 0.0
C30 C 0.11998 0.45923 0.12047 0.0
C31 C 0.13894 0.45002 0.1214 0.0
C32 C 0.14296 0.46098 0.1492 0.0
H33 H 0.1442 0.44225 0.11045 0.0
H34 H 0.15137 0.46196 0.16063 0.0
H35 H 0.21966 0.43514 0.13259 0.0
H36 H 0.17994 0.3892 0.14843 0.0
C37 C 0.14072 0.39966 0.15013 0.0
C38 C 0.1809 0.44818 0.1804 0.0
C39 C 0.17103 0.41442 0.09635 0.0
C40 C 0.20019 0.47094 0.12529 0.0
H41 H 0.15611 0.424 0.20179 0.0
H42 H 0.13311 0.39819 0.18537 0.0
H43 H 0.12502 0.37443 0.12423 0.0
H44 H 0.14285 0.38186 0.09509 0.0
H45 H 0.1921 0.44163 0.07459 0.0
H46 H 0.20683 0.47338 0.09014 0.0
H47 H 0.21736 0.49522 0.15084 0.0
H48 H 0.20816 0.48138 0.18099 0.0
H49 H 0.24785 0.41163 0.13331 0.0
H50 H 0.20714 0.36516 0.14918 0.0
H51 H 0.11881 0.47804 0.15995 0.0
H52 H 0.11162 0.45829 0.10886 0.0
C53 C 0.58744 0.16496 0.67753 0.0
C54 C 0.59776 0.15386 0.68947 0.0
C55 C 0.61112 0.14209 0.68097 0.0
C56 C 0.60839 0.14673 0.66438 0.0
N57 N 0.59445 0.16105 0.66178 0.0
Co58 Co 0.58567 0.17123 0.63927 0.0
N59 N 0.60779 0.15683 0.62718 0.0
C60 C 0.61988 0.14278 0.6339 0.0
C61 C 0.63344 0.135 0.6227 0.0
C62 C 0.62955 0.14454 0.60786 0.0
C63 C 0.61377 0.15762 0.61084 0.0
N64 N 0.57664 0.18127 0.61681 0.0
C65 C 0.58536 0.18006 0.60142 0.0
C66 C 0.57335 0.18878 0.58918 0.0
C67 C 0.55651 0.19556 0.59706 0.0
C68 C 0.55914 0.19063 0.61359 0.0
N69 N 0.56343 0.18566 0.65128 0.0
C70 C 0.54769 0.19475 0.64386 0.0
C71 C 0.53406 0.20263 0.65486 0.0
C72 C 0.54132 0.19802 0.67034 0.0
C73 C 0.55916 0.18757 0.66794 0.0
N74 N 0.60361 0.19505 0.64172 0.0
C75 C 0.63102 0.22794 0.64259 0.0
C76 C 0.6107 0.23061 0.63821 0.0
C77 C 0.59736 0.21408 0.63778 0.0
C78 C 0.63695 0.20843 0.64698 0.0
C79 C 0.62318 0.19245 0.64657 0.0
N80 N 0.56835 0.14706 0.63674 0.0
C81 C 0.54716 0.12142 0.64909 0.0
C82 C 0.54904 0.10923 0.63485 0.0
C83 C 0.55993 0.11693 0.62125 0.0
C84 C 0.56911 0.13586 0.62233 0.0
C85 C 0.55693 0.14009 0.6498 0.0
H86 H 0.57731 0.14105 0.61158 0.0
H87 H 0.55562 0.14846 0.66122 0.0
H88 H 0.58207 0.21672 0.63397 0.0
H89 H 0.62867 0.17788 0.64997 0.0
C90 C 0.61921 0.1386 0.65102 0.0
C91 C 0.56983 0.1774 0.6817 0.0
C92 C 0.60389 0.16917 0.59748 0.0
C93 C 0.54638 0.19613 0.62653 0.0
H94 H 0.59542 0.15383 0.70289 0.0
H95 H 0.62151 0.13133 0.68627 0.0
H96 H 0.64493 0.12388 0.62508 0.0
H97 H 0.63721 0.14192 0.59609 0.0
H98 H 0.57621 0.18979 0.57585 0.0
H99 H 0.54395 0.20336 0.59144 0.0
H100 H 0.52029 0.21053 0.65195 0.0
H101 H 0.53372 0.20131 0.68199 0.0
H102 H 0.6052 0.24529 0.63467 0.0
H103 H 0.65224 0.20542 0.65082 0.0
H104 H 0.53883 0.11623 0.65992 0.0
H105 H 0.56146 0.10831 0.60981 0.0
C106 C 0.85112 0.58607 0.17693 0.0
C107 C 0.86312 0.5954 0.18882 0.0
C108 C 0.87511 0.60863 0.18037 0.0
C109 C 0.86988 0.60664 0.16383 0.0
N110 N 0.85502 0.59328 0.1612 0.0
Co111 Co 0.84473 0.5848 0.13858 0.0
N112 N 0.85994 0.60641 0.12655 0.0
C113 C 0.87418 0.61819 0.13337 0.0
C114 C 0.88269 0.63128 0.12215 0.0
C115 C 0.87345 0.6274 0.10718 0.0
C116 C 0.85977 0.61213 0.11013 0.0
N117 N 0.83454 0.57601 0.11608 0.0
C118 C 0.8363 0.58457 0.10067 0.0
C119 C 0.82655 0.57333 0.08848 0.0
C120 C 0.81864 0.55702 0.09639 0.0
C121 C 0.82392 0.55923 0.11288 0.0
N122 N 0.82943 0.56315 0.15051 0.0
C123 C 0.81876 0.54836 0.14318 0.0
C124 C 0.80909 0.53603 0.15429 0.0
C125 C 0.81419 0.54312 0.16973 0.0
C126 C 0.82699 0.55927 0.16715 0.0
N127 N 0.8214 0.6035 0.14091 0.0
C128 C 0.78913 0.63173 0.14237 0.0
C129 C 0.78618 0.6119 0.13678 0.0
C130 C 0.80232 0.59813 0.13623 0.0
C131 C 0.8087 0.63681 0.1474 0.0
C132 C 0.8244 0.62269 0.14655 0.0
N133 N 0.86848 0.56679 0.13619 0.0
C134 C 0.89457 0.54659 0.14909 0.0
C135 C 0.90658 0.54752 0.13461 0.0
C136 C 0.89829 0.55728 0.1206 0.0
C137 C 0.87942 0.56665 0.12162 0.0
C138 C 0.87569 0.55604 0.14954 0.0
H139 H 0.87408 0.5743 0.11065 0.0
H140 H 0.86738 0.55511 0.16101 0.0
H141 H 0.79925 0.58319 0.13185 0.0
H142 H 0.83908 0.62762 0.15026 0.0
C143 C 0.87831 0.61729 0.1505 0.0
C144 C 0.83826 0.5687 0.18087 0.0
C145 C 0.84841 0.60227 0.09666 0.0
C146 C 0.81727 0.54705 0.12586 0.0
H147 H 0.86375 0.59242 0.20213 0.0
H148 H 0.88656 0.61828 0.18564 0.0
H149 H 0.89423 0.64234 0.12457 0.0
H150 H 0.8767 0.63465 0.09534 0.0
H151 H 0.82547 0.57646 0.07519 0.0
H152 H 0.80974 0.54517 0.09083 0.0
H153 H 0.79946 0.52338 0.15149 0.0
H154 H 0.80956 0.5367 0.18158 0.0
H155 H 0.77142 0.60691 0.13294 0.0
H156 H 0.81214 0.65185 0.15162 0.0
H157 H 0.89992 0.53926 0.16033 0.0
H158 H 0.90639 0.55793 0.10885 0.0
C159 C 0.43044 0.85181 0.67713 0.0
C160 C 0.42104 0.86414 0.68875 0.0
C161 C 0.40755 0.87557 0.68008 0.0
C162 C 0.40946 0.86972 0.66369 0.0
N163 N 0.42301 0.85496 0.66136 0.0
Co164 Co 0.43162 0.84418 0.63895 0.0
N165 N 0.40974 0.85869 0.62665 0.0
C166 C 0.3976 0.87278 0.63322 0.0
C167 C 0.38419 0.88056 0.6219 0.0
C168 C 0.38819 0.87096 0.60712 0.0
C169 C 0.40391 0.85785 0.61026 0.0
N170 N 0.44071 0.83375 0.61662 0.0
C171 C 0.43229 0.8352 0.60113 0.0
C172 C 0.44417 0.82599 0.58906 0.0
C173 C 0.46058 0.81856 0.59715 0.0
C174 C 0.45787 0.82365 0.61363 0.0
N175 N 0.45339 0.82937 0.6512 0.0
C176 C 0.46831 0.8187 0.64408 0.0
C177 C 0.48063 0.80933 0.65538 0.0
C178 C 0.4734 0.81468 0.67073 0.0
C179 C 0.45719 0.82733 0.6679 0.0
N180 N 0.41324 0.82068 0.64157 0.0
C181 C 0.3853 0.7882 0.64299 0.0
C182 C 0.40506 0.78551 0.63712 0.0
C183 C 0.41871 0.80174 0.63664 0.0
C184 C 0.38014 0.80758 0.64838 0.0
C185 C 0.39411 0.82341 0.64752 0.0
N186 N 0.44938 0.86804 0.63622 0.0
C187 C 0.47104 0.89341 0.64841 0.0
C188 C 0.46863 0.9059 0.63442 0.0
C189 C 0.45742 0.89843 0.62092 0.0
C190 C 0.44832 0.87946 0.62194 0.0
C191 C 0.46129 0.87471 0.64908 0.0
H192 H 0.43992 0.87445 0.61125 0.0
H193 H 0.46301 0.8661 0.66032 0.0
H194 H 0.43361 0.79888 0.63205 0.0
H195 H 0.38911 0.83798 0.65143 0.0
C196 C 0.39853 0.87746 0.65024 0.0
C197 C 0.44787 0.83914 0.68136 0.0
C198 C 0.414 0.84637 0.59698 0.0
C199 C 0.46994 0.81721 0.62677 0.0
H200 H 0.42409 0.86536 0.70202 0.0
H201 H 0.39777 0.88706 0.6851 0.0
H202 H 0.37281 0.89183 0.62413 0.0
H203 H 0.38072 0.87361 0.59527 0.0
H204 H 0.4414 0.82492 0.57573 0.0
H205 H 0.47281 0.81009 0.59172 0.0
H206 H 0.49344 0.79984 0.65277 0.0
H207 H 0.47983 0.81042 0.68267 0.0
H208 H 0.41008 0.77088 0.633 0.0
H209 H 0.36513 0.81076 0.65285 0.0
H210 H 0.47971 0.89839 0.65911 0.0
H211 H 0.45554 0.90728 0.60964 0.0
C212 C 0.16522 0.5859 0.33708 0.0
C213 C 0.15323 0.59554 0.32538 0.0
C214 C 0.14145 0.60871 0.33408 0.0
C215 C 0.14687 0.60642 0.35056 0.0
N216 N 0.16165 0.5929 0.3529 0.0
Co217 Co 0.17238 0.58409 0.37523 0.0
N218 N 0.15778 0.60583 0.38763 0.0
C219 C 0.14347 0.61779 0.38114 0.0
C220 C 0.13549 0.63095 0.39255 0.0
C221 C 0.14515 0.62693 0.40732 0.0
C222 C 0.15854 0.61149 0.40406 0.0
N223 N 0.18294 0.57495 0.39748 0.0
C224 C 0.18161 0.58334 0.41298 0.0
C225 C 0.19139 0.57177 0.42494 0.0
C226 C 0.19881 0.5554 0.4168 0.0
C227 C 0.19326 0.55791 0.4004 0.0
N228 N 0.1871 0.56232 0.36291 0.0
C229 C 0.19719 0.54697 0.36999 0.0
C230 C 0.20584 0.53418 0.35866 0.0
C231 C 0.2007 0.54161 0.34333 0.0
C232 C 0.18907 0.55855 0.3462 0.0
N233 N 0.19589 0.60249 0.37265 0.0
C234 C 0.22834 0.63049 0.37149 0.0
C235 C 0.23142 0.61021 0.37576 0.0
C236 C 0.21512 0.59659 0.37633 0.0
C237 C 0.20862 0.63608 0.36737 0.0
C238 C 0.19287 0.62203 0.36791 0.0
N239 N 0.14845 0.56636 0.37789 0.0
C240 C 0.12273 0.54526 0.36547 0.0
C241 C 0.11037 0.5474 0.37959 0.0
C242 C 0.11808 0.55819 0.39323 0.0
C243 C 0.13715 0.56713 0.39225 0.0
C244 C 0.14153 0.55487 0.36485 0.0
H245 H 0.14233 0.57523 0.40305 0.0
H246 H 0.15004 0.55346 0.35351 0.0
H247 H 0.21815 0.58137 0.38004 0.0
H248 H 0.17812 0.62726 0.36469 0.0
C249 C 0.13887 0.61707 0.36407 0.0
C250 C 0.17822 0.56885 0.33274 0.0
C251 C 0.16993 0.60123 0.41731 0.0
C252 C 0.1991 0.54555 0.38727 0.0
H253 H 0.15266 0.59284 0.31201 0.0
H254 H 0.13011 0.61863 0.329 0.0
H255 H 0.12402 0.64216 0.39041 0.0
H256 H 0.1423 0.63414 0.41924 0.0
H257 H 0.19278 0.57473 0.43823 0.0
H258 H 0.2075 0.54327 0.42216 0.0
H259 H 0.21477 0.52098 0.36124 0.0
H260 H 0.2045 0.53492 0.33137 0.0
H261 H 0.24626 0.60494 0.3791 0.0
H262 H 0.20527 0.65133 0.36364 0.0
H263 H 0.11756 0.53693 0.35465 0.0
H264 H 0.10933 0.55988 0.40459 0.0
C265 C 0.42947 0.164 0.83755 0.0
C266 C 0.41622 0.15842 0.82497 0.0
C267 C 0.39789 0.15546 0.83251 0.0
C268 C 0.40089 0.15943 0.84924 0.0
N269 N 0.41997 0.16459 0.85267 0.0
Co270 Co 0.43052 0.17154 0.87525 0.0
N271 N 0.40732 0.15906 0.88699 0.0
C272 C 0.38957 0.15462 0.87982 0.0
C273 C 0.37606 0.1466 0.89099 0.0
C274 C 0.38585 0.14621 0.90614 0.0
C275 C 0.40486 0.15408 0.90341 0.0
N276 N 0.44144 0.17847 0.89774 0.0
C277 C 0.43637 0.17161 0.9132 0.0
C278 C 0.44759 0.18112 0.92555 0.0
C279 C 0.45996 0.19442 0.91756 0.0
C280 C 0.45564 0.19235 0.90084 0.0
N281 N 0.45365 0.18432 0.8636 0.0
C282 C 0.46658 0.19748 0.87048 0.0
C283 C 0.48149 0.20336 0.85969 0.0
C284 C 0.4777 0.19339 0.84505 0.0
C285 C 0.46045 0.18208 0.84765 0.0
N286 N 0.41537 0.19734 0.87465 0.0
C287 C 0.3886 0.23067 0.87292 0.0
C288 C 0.39174 0.22006 0.88793 0.0
C289 C 0.40502 0.20367 0.88853 0.0
C290 C 0.39994 0.2245 0.85892 0.0
C291 C 0.41325 0.20804 0.86007 0.0
N292 N 0.44483 0.14548 0.87581 0.0
C293 C 0.47452 0.12505 0.88011 0.0
C294 C 0.46392 0.10731 0.87621 0.0
C295 C 0.44347 0.10944 0.8723 0.0
C296 C 0.43441 0.12838 0.872 0.0
C297 C 0.46472 0.14388 0.87992 0.0
H298 H 0.41878 0.12907 0.86869 0.0
H299 H 0.47326 0.15713 0.88301 0.0
H300 H 0.4063 0.19569 0.90022 0.0
H301 H 0.42143 0.20366 0.84898 0.0
C302 C 0.38731 0.15555 0.86232 0.0
C303 C 0.45041 0.17028 0.8345 0.0
C304 C 0.41963 0.15792 0.91683 0.0
C305 C 0.4664 0.20106 0.88771 0.0
H306 H 0.41945 0.15684 0.81174 0.0
H307 H 0.3842 0.1504 0.82656 0.0
H308 H 0.36107 0.14117 0.88836 0.0
H309 H 0.37965 0.14093 0.91788 0.0
H310 H 0.44667 0.179 0.93898 0.0
H311 H 0.47108 0.2041 0.92325 0.0
H312 H 0.49419 0.21298 0.86238 0.0
H313 H 0.48675 0.19433 0.83382 0.0
H314 H 0.38342 0.22388 0.89915 0.0
H315 H 0.39854 0.23227 0.84707 0.0
H316 H 0.49036 0.12455 0.8831 0.0
H317 H 0.43418 0.09652 0.86963 0.0
C318 C 0.85078 0.43104 0.33758 0.0
C319 C 0.86294 0.42198 0.32565 0.0
C320 C 0.87469 0.40845 0.33396 0.0
C321 C 0.8692 0.41 0.35047 0.0
N322 N 0.85437 0.42337 0.35319 0.0
Co323 Co 0.84402 0.43146 0.37588 0.0
N324 N 0.85888 0.40942 0.38765 0.0
C325 C 0.87299 0.39758 0.38072 0.0
C326 C 0.88106 0.38398 0.39174 0.0
C327 C 0.87164 0.38755 0.40669 0.0
C328 C 0.85835 0.40321 0.40394 0.0
N329 N 0.83397 0.44001 0.39846 0.0
C330 C 0.83567 0.43122 0.41379 0.0
C331 C 0.82665 0.44278 0.42617 0.0
C332 C 0.81907 0.45936 0.41844 0.0
C333 C 0.82389 0.45707 0.40186 0.0
N334 N 0.82888 0.45341 0.36418 0.0
C335 C 0.81835 0.46816 0.37167 0.0
C336 C 0.80861 0.48061 0.36069 0.0
C337 C 0.81357 0.47365 0.34517 0.0
C338 C 0.82638 0.45747 0.34757 0.0
N339 N 0.8205 0.41304 0.37333 0.0
C340 C 0.78813 0.38483 0.37221 0.0
C341 C 0.78535 0.40465 0.37792 0.0
C342 C 0.80155 0.41839 0.37835 0.0
C343 C 0.80755 0.37988 0.36666 0.0
C344 C 0.82329 0.39397 0.36734 0.0
N345 N 0.86793 0.44922 0.37853 0.0
C346 C 0.89317 0.47105 0.36629 0.0
C347 C 0.9059 0.46846 0.38013 0.0
C348 C 0.89861 0.45704 0.39357 0.0
C349 C 0.8796 0.44796 0.39266 0.0
C350 C 0.87442 0.46131 0.36571 0.0
H351 H 0.87475 0.43938 0.40332 0.0
H352 H 0.86561 0.46319 0.35458 0.0
H353 H 0.79867 0.43323 0.38305 0.0
H354 H 0.83783 0.38913 0.36318 0.0
C355 C 0.87733 0.39889 0.36365 0.0
C356 C 0.83784 0.4484 0.33379 0.0
C357 C 0.84693 0.41287 0.41749 0.0
C358 C 0.8172 0.46941 0.38901 0.0
H359 H 0.86381 0.42528 0.3124 0.0
H360 H 0.88616 0.39888 0.32863 0.0
H361 H 0.89239 0.37275 0.38919 0.0
H362 H 0.87453 0.37983 0.41838 0.0
H363 H 0.8258 0.43968 0.43945 0.0
H364 H 0.81066 0.47143 0.42418 0.0
H365 H 0.7991 0.49329 0.36363 0.0
H366 H 0.8089 0.48023 0.33339 0.0
H367 H 0.77085 0.40952 0.38249 0.0
H368 H 0.81075 0.36512 0.3617 0.0
H369 H 0.89799 0.47988 0.35562 0.0
H370 H 0.90762 0.455 0.40475 0.0
C371 C 0.58768 0.85217 0.83791 0.0
C372 C 0.6007 0.85953 0.8258 0.0
C373 C 0.61887 0.8626 0.83359 0.0
C374 C 0.616 0.85713 0.85003 0.0
N375 N 0.59713 0.85091 0.85304 0.0
Co376 Co 0.5864 0.84283 0.87529 0.0
N377 N 0.60878 0.8558 0.88769 0.0
C378 C 0.62648 0.86124 0.88093 0.0
C379 C 0.63925 0.86965 0.89248 0.0
C380 C 0.62902 0.86925 0.90745 0.0
C381 C 0.61051 0.86051 0.90424 0.0
N382 N 0.57525 0.83468 0.89736 0.0
C383 C 0.57955 0.8413 0.91304 0.0
C384 C 0.56865 0.83068 0.92497 0.0
C385 C 0.55731 0.81692 0.91645 0.0
C386 C 0.56188 0.81983 0.89986 0.0
N387 N 0.56413 0.82956 0.86303 0.0
C388 C 0.5523 0.81494 0.86916 0.0
C389 C 0.5386 0.808 0.85769 0.0
C390 C 0.54206 0.81891 0.84343 0.0
C391 C 0.55766 0.83205 0.84704 0.0
N392 N 0.60252 0.81764 0.87436 0.0
C393 C 0.62979 0.78471 0.8725 0.0
C394 C 0.62637 0.79508 0.88759 0.0
C395 C 0.61283 0.81126 0.88826 0.0
C396 C 0.61859 0.79103 0.85846 0.0
C397 C 0.60507 0.80731 0.85966 0.0
N398 N 0.57111 0.86831 0.8762 0.0
C399 C 0.54066 0.88751 0.88075 0.0
C400 C 0.55089 0.90569 0.87785 0.0
C401 C 0.57133 0.90451 0.87386 0.0
C402 C 0.58099 0.88591 0.87298 0.0
C403 C 0.55107 0.86903 0.88002 0.0
H404 H 0.59664 0.8859 0.86968 0.0
H405 H 0.54296 0.85534 0.8826 0.0
H406 H 0.61122 0.81898 0.90004 0.0
H407 H 0.59701 0.81181 0.84854 0.0
C408 C 0.62913 0.86108 0.86344 0.0
C409 C 0.5668 0.84558 0.83467 0.0
C410 C 0.59546 0.85574 0.91726 0.0
C411 C 0.55222 0.81069 0.88631 0.0
H412 H 0.59746 0.86255 0.81276 0.0
H413 H 0.63226 0.869 0.82808 0.0
H414 H 0.65398 0.87596 0.89022 0.0
H415 H 0.6346 0.87467 0.91935 0.0
H416 H 0.5692 0.8323 0.93846 0.0
H417 H 0.54674 0.80631 0.92171 0.0
H418 H 0.52701 0.79687 0.85964 0.0
H419 H 0.53409 0.81727 0.83169 0.0
H420 H 0.63459 0.79121 0.89883 0.0
H421 H 0.6202 0.78347 0.84653 0.0
H422 H 0.52485 0.88758 0.88389 0.0
H423 H 0.57988 0.91795 0.87119 0.0
C424 C 0.83544 0.55764 0.84534 0.0
C425 C 0.8236 0.54101 0.84183 0.0
C426 C 0.81284 0.53698 0.85607 0.0
C427 C 0.8187 0.55127 0.86745 0.0
N428 N 0.83251 0.56403 0.8613 0.0
Co429 Co 0.84514 0.5866 0.87374 0.0
N430 N 0.83728 0.57508 0.8958 0.0
C431 C 0.82315 0.56092 0.8982 0.0
C432 C 0.82033 0.55615 0.91475 0.0
C433 C 0.83334 0.56821 0.92338 0.0
C434 C 0.84344 0.57974 0.91156 0.0
N435 N 0.85751 0.60928 0.88621 0.0
C436 C 0.8617 0.61135 0.90283 0.0
C437 C 0.86977 0.63014 0.90607 0.0
C438 C 0.87026 0.64023 0.89106 0.0
C439 C 0.86255 0.6271 0.87946 0.0
N440 N 0.85297 0.5977 0.85155 0.0
C441 C 0.85847 0.61676 0.84856 0.0
C442 C 0.86324 0.62005 0.83201 0.0
C443 C 0.86051 0.6019 0.82413 0.0
C444 C 0.85423 0.5885 0.83634 0.0
N445 N 0.8195 0.60206 0.8729 0.0
C446 C 0.78616 0.62888 0.87129 0.0
C447 C 0.79265 0.61799 0.85713 0.0
C448 C 0.80914 0.60469 0.85821 0.0
C449 C 0.79654 0.62532 0.88635 0.0
C450 C 0.81289 0.61201 0.88689 0.0
N451 N 0.87101 0.57194 0.87461 0.0
C452 C 0.90724 0.57282 0.87217 0.0
C453 C 0.90879 0.55238 0.87605 0.0
C454 C 0.89079 0.54185 0.87898 0.0
C455 C 0.87213 0.55192 0.87835 0.0
C456 C 0.88843 0.58217 0.8714 0.0
H457 H 0.85861 0.54353 0.88093 0.0
H458 H 0.88809 0.59783 0.86818 0.0
H459 H 0.8138 0.59687 0.84701 0.0
H460 H 0.82057 0.61035 0.89868 0.0
C461 C 0.81459 0.55085 0.88461 0.0
C462 C 0.84842 0.56754 0.83298 0.0
C463 C 0.85677 0.59653 0.91596 0.0
C464 C 0.86219 0.62988 0.86199 0.0
H465 H 0.82287 0.53262 0.83023 0.0
H466 H 0.8027 0.52454 0.85811 0.0
H467 H 0.81025 0.54502 0.91993 0.0
H468 H 0.83477 0.56882 0.93689 0.0
H469 H 0.87455 0.63604 0.91806 0.0
H470 H 0.87598 0.65519 0.88883 0.0
H471 H 0.86883 0.63376 0.82644 0.0
H472 H 0.86284 0.59886 0.81095 0.0
H473 H 0.78509 0.61972 0.84521 0.0
H474 H 0.79257 0.6333 0.89769 0.0
H475 H 0.92053 0.58161 0.86949 0.0
H476 H 0.89113 0.52604 0.88207 0.0
C477 C 0.45746 0.83325 0.34525 0.0
C478 C 0.473 0.82016 0.3414 0.0
C479 C 0.47679 0.80926 0.35561 0.0
C480 C 0.4633 0.81615 0.36727 0.0
N481 N 0.45123 0.83065 0.36129 0.0
Co482 Co 0.4291 0.84378 0.37384 0.0
N483 N 0.44064 0.83568 0.39582 0.0
C484 C 0.45459 0.82131 0.39812 0.0
C485 C 0.45968 0.8186 0.41462 0.0
C486 C 0.44802 0.83189 0.42333 0.0
C487 C 0.4363 0.84194 0.41161 0.0
N488 N 0.4068 0.85663 0.38647 0.0
C489 C 0.40487 0.86067 0.40313 0.0
C490 C 0.38615 0.86883 0.40653 0.0
C491 C 0.376 0.86967 0.39155 0.0
C492 C 0.38901 0.86198 0.37984 0.0
N493 N 0.41805 0.85184 0.35167 0.0
C494 C 0.39917 0.85811 0.34885 0.0
C495 C 0.39623 0.86411 0.33255 0.0
C496 C 0.41438 0.86138 0.32466 0.0
C497 C 0.42745 0.8536 0.33654 0.0
N498 N 0.41303 0.81849 0.37313 0.0
C499 C 0.38542 0.78582 0.37164 0.0
C500 C 0.39685 0.79159 0.35757 0.0
C501 C 0.41041 0.80791 0.35854 0.0
C502 C 0.38895 0.79636 0.3866 0.0
C503 C 0.40276 0.81231 0.38711 0.0
N504 N 0.44433 0.86936 0.37456 0.0
C505 C 0.44405 0.90551 0.37165 0.0
C506 C 0.46472 0.90688 0.3749 0.0
C507 C 0.47489 0.88871 0.37819 0.0
C508 C 0.46445 0.8702 0.37801 0.0
C509 C 0.43434 0.8869 0.3714 0.0
H510 H 0.47267 0.85658 0.38056 0.0
H511 H 0.41855 0.88684 0.36861 0.0
H512 H 0.41839 0.81231 0.34734 0.0
H513 H 0.40461 0.81998 0.39887 0.0
C514 C 0.464 0.81219 0.38445 0.0
C515 C 0.44837 0.84717 0.33313 0.0
C516 C 0.41958 0.85526 0.41619 0.0
C517 C 0.3862 0.86193 0.36237 0.0
H518 H 0.4808 0.81863 0.32957 0.0
H519 H 0.48855 0.79827 0.35741 0.0
H520 H 0.47073 0.80837 0.41971 0.0
H521 H 0.44775 0.83354 0.43683 0.0
H522 H 0.38033 0.87337 0.41862 0.0
H523 H 0.36107 0.87556 0.38944 0.0
H524 H 0.38286 0.87079 0.32725 0.0
H525 H 0.41755 0.86504 0.31174 0.0
H526 H 0.39484 0.78401 0.34569 0.0
H527 H 0.381 0.79238 0.39796 0.0
H528 H 0.43512 0.91881 0.36947 0.0
H529 H 0.49086 0.88865 0.38068 0.0
C530 C 0.18306 0.45744 0.84451 0.0
C531 C 0.19553 0.47344 0.84052 0.0
C532 C 0.20656 0.47754 0.85461 0.0
C533 C 0.20031 0.46382 0.86634 0.0
N534 N 0.18608 0.45132 0.86053 0.0
Co535 Co 0.17345 0.42906 0.87328 0.0
N536 N 0.18154 0.44092 0.89514 0.0
C537 C 0.19573 0.45509 0.89728 0.0
C538 C 0.19851 0.4603 0.91374 0.0
C539 C 0.18545 0.44849 0.92259 0.0
C540 C 0.17543 0.43661 0.91097 0.0
N541 N 0.16112 0.40663 0.8861 0.0
C542 C 0.15721 0.4048 0.90277 0.0
C543 C 0.14942 0.38597 0.90635 0.0
C544 C 0.14871 0.37566 0.89145 0.0
C545 C 0.15608 0.38869 0.8796 0.0
N546 N 0.16536 0.41766 0.85126 0.0
C547 C 0.15963 0.39861 0.84855 0.0
C548 C 0.15413 0.39527 0.83217 0.0
C549 C 0.15664 0.41335 0.82412 0.0
C550 C 0.16364 0.42678 0.83603 0.0
N551 N 0.19901 0.41347 0.87248 0.0
C552 C 0.23227 0.38654 0.87101 0.0
C553 C 0.2256 0.39708 0.85672 0.0
C554 C 0.20915 0.41046 0.85773 0.0
C555 C 0.22212 0.39049 0.8861 0.0
C556 C 0.2058 0.40385 0.88658 0.0
N557 N 0.14763 0.44383 0.87409 0.0
C558 C 0.11144 0.44307 0.87139 0.0
C559 C 0.10987 0.46374 0.87452 0.0
C560 C 0.12796 0.47414 0.87765 0.0
C561 C 0.14658 0.46394 0.87743 0.0
C562 C 0.13019 0.43359 0.8711 0.0
H563 H 0.16013 0.47234 0.87986 0.0
H564 H 0.13045 0.41779 0.86839 0.0
H565 H 0.20436 0.41802 0.84645 0.0
H566 H 0.19829 0.40581 0.8984 0.0
C567 C 0.20448 0.46466 0.88349 0.0
C568 C 0.16941 0.44778 0.83252 0.0
C569 C 0.16227 0.41982 0.91568 0.0
C570 C 0.15613 0.38568 0.86215 0.0
H571 H 0.19655 0.48132 0.82869 0.0
H572 H 0.21717 0.48966 0.85631 0.0
H573 H 0.20861 0.47153 0.91872 0.0
H574 H 0.18393 0.44825 0.93609 0.0
H575 H 0.14504 0.3802 0.91849 0.0
H576 H 0.1431 0.36061 0.88947 0.0
H577 H 0.14809 0.38161 0.82686 0.0
H578 H 0.15352 0.4163 0.81104 0.0
H579 H 0.23298 0.39504 0.84476 0.0
H580 H 0.22625 0.38279 0.89754 0.0
H581 H 0.09821 0.43398 0.86933 0.0
H582 H 0.12786 0.49011 0.88003 0.0
C583 C 0.55692 0.18241 0.34717 0.0
C584 C 0.53971 0.19373 0.34441 0.0
C585 C 0.53592 0.20397 0.35892 0.0
C586 C 0.55077 0.19822 0.3698 0.0
N587 N 0.56371 0.18494 0.36309 0.0
Co588 Co 0.58666 0.17215 0.37501 0.0
N589 N 0.57561 0.17942 0.3974 0.0
C590 C 0.56118 0.19313 0.40028 0.0
C591 C 0.55656 0.19529 0.41693 0.0
C592 C 0.56904 0.18231 0.42514 0.0
C593 C 0.58068 0.17295 0.41298 0.0
N594 N 0.60973 0.15967 0.38695 0.0
C595 C 0.61234 0.15538 0.4035 0.0
C596 C 0.63139 0.14771 0.40637 0.0
C597 C 0.64105 0.14745 0.39116 0.0
C598 C 0.62744 0.15496 0.37984 0.0
N599 N 0.59725 0.16483 0.35251 0.0
C600 C 0.61628 0.15943 0.34917 0.0
C601 C 0.61925 0.15503 0.33251 0.0
C602 C 0.60094 0.15793 0.32492 0.0
C603 C 0.58774 0.1639 0.33739 0.0
N604 N 0.60205 0.19787 0.37431 0.0
C605 C 0.62911 0.23108 0.37281 0.0
C606 C 0.618 0.22484 0.35867 0.0
C607 C 0.60457 0.20842 0.3597 0.0
C608 C 0.62562 0.22054 0.3878 0.0
C609 C 0.61219 0.20426 0.38829 0.0
N610 N 0.57214 0.14617 0.37573 0.0
C611 C 0.57325 0.11002 0.37289 0.0
C612 C 0.55288 0.1082 0.37703 0.0
C613 C 0.54226 0.12605 0.3803 0.0
C614 C 0.55217 0.14481 0.37973 0.0
C615 C 0.58244 0.1289 0.37219 0.0
H616 H 0.54372 0.15818 0.3826 0.0
H617 H 0.59804 0.12942 0.36875 0.0
H618 H 0.59659 0.20397 0.34853 0.0
H619 H 0.61064 0.19644 0.40002 0.0
C620 C 0.55065 0.20178 0.38701 0.0
C621 C 0.5668 0.17013 0.33424 0.0
C622 C 0.59787 0.15999 0.41695 0.0
C623 C 0.62976 0.15561 0.36233 0.0
H624 H 0.5306 0.1944 0.33321 0.0
H625 H 0.52319 0.21356 0.3615 0.0
H626 H 0.54522 0.20488 0.42242 0.0
H627 H 0.5698 0.18034 0.43859 0.0
H628 H 0.63773 0.14312 0.41826 0.0
H629 H 0.65609 0.14208 0.38863 0.0
H630 H 0.63289 0.14968 0.32667 0.0
H631 H 0.59769 0.156 0.31172 0.0
H632 H 0.61966 0.23253 0.3468 0.0
H633 H 0.63375 0.2243 0.39911 0.0
H634 H 0.5821 0.09685 0.36995 0.0
H635 H 0.5265 0.12553 0.3836 0.0
C636 C 0.83418 0.45759 0.66795 0.0
C637 C 0.82217 0.47412 0.67129 0.0
C638 C 0.81154 0.47797 0.65694 0.0
C639 C 0.8176 0.46361 0.64568 0.0
N640 N 0.83135 0.45096 0.65204 0.0
Co641 Co 0.84414 0.42825 0.63995 0.0
N642 N 0.83659 0.43947 0.61772 0.0
C643 C 0.82256 0.45367 0.61505 0.0
C644 C 0.82018 0.45841 0.59844 0.0
C645 C 0.83333 0.44626 0.59006 0.0
C646 C 0.84299 0.43464 0.60208 0.0
N647 N 0.85694 0.40554 0.62784 0.0
C648 C 0.86131 0.40325 0.61127 0.0
C649 C 0.86933 0.3844 0.60824 0.0
C650 C 0.86971 0.37452 0.62336 0.0
C651 C 0.86193 0.38782 0.63479 0.0
N652 N 0.85143 0.41735 0.66235 0.0
C653 C 0.85681 0.3983 0.66555 0.0
C654 C 0.86143 0.39524 0.68216 0.0
C655 C 0.85873 0.41351 0.68984 0.0
C656 C 0.85255 0.42675 0.67748 0.0
N657 N 0.81853 0.4127 0.64055 0.0
C658 C 0.7857 0.38535 0.64208 0.0
C659 C 0.7911 0.39723 0.65598 0.0
C660 C 0.80752 0.41068 0.65499 0.0
C661 C 0.7966 0.38837 0.62723 0.0
C662 C 0.81262 0.40207 0.62668 0.0
N663 N 0.87001 0.44296 0.63929 0.0
C664 C 0.90599 0.44264 0.64356 0.0
C665 C 0.90799 0.46241 0.6377 0.0
C666 C 0.89015 0.47231 0.63292 0.0
C667 C 0.87141 0.46241 0.63389 0.0
C668 C 0.88718 0.43326 0.64408 0.0
H669 H 0.85807 0.47042 0.63011 0.0
H670 H 0.88665 0.41798 0.64838 0.0
H671 H 0.81167 0.41899 0.66607 0.0
H672 H 0.8206 0.4035 0.61502 0.0
C673 C 0.81377 0.46388 0.62848 0.0
C674 C 0.8471 0.44791 0.68046 0.0
C675 C 0.85622 0.4177 0.59792 0.0
C676 C 0.86102 0.38514 0.65226 0.0
H677 H 0.8212 0.48252 0.68288 0.0
H678 H 0.80135 0.49033 0.65474 0.0
H679 H 0.81034 0.46962 0.59308 0.0
H680 H 0.8352 0.44567 0.57659 0.0
H681 H 0.874 0.37829 0.59629 0.0
H682 H 0.87525 0.35954 0.62574 0.0
H683 H 0.86706 0.38163 0.68787 0.0
H684 H 0.86117 0.41672 0.70298 0.0
H685 H 0.78319 0.39563 0.66776 0.0
H686 H 0.79288 0.38005 0.616 0.0
H687 H 0.91888 0.43425 0.64792 0.0
H688 H 0.89056 0.4875 0.62818 0.0
C689 C 0.56044 0.83507 0.16939 0.0
C690 C 0.54497 0.82197 0.17348 0.0
C691 C 0.54126 0.8107 0.15945 0.0
C692 C 0.55469 0.8174 0.14765 0.0
N693 N 0.56663 0.83216 0.15338 0.0
Co694 Co 0.58856 0.84524 0.14058 0.0
N695 N 0.57683 0.83683 0.1188 0.0
C696 C 0.56334 0.822 0.11669 0.0
C697 C 0.55829 0.81895 0.10021 0.0
C698 C 0.56945 0.83258 0.09136 0.0
C699 C 0.58074 0.84326 0.10299 0.0
N700 N 0.61066 0.85799 0.12769 0.0
C701 C 0.61205 0.86239 0.11107 0.0
C702 C 0.63054 0.87097 0.10747 0.0
C703 C 0.64109 0.8716 0.12227 0.0
C704 C 0.62852 0.86346 0.13412 0.0
N705 N 0.59978 0.85369 0.16257 0.0
C706 C 0.6187 0.85994 0.16522 0.0
C707 C 0.62181 0.866 0.18148 0.0
C708 C 0.60373 0.8633 0.18951 0.0
C709 C 0.59052 0.85554 0.17774 0.0
N710 N 0.60473 0.82004 0.14143 0.0
C711 C 0.632 0.78707 0.14277 0.0
C712 C 0.62182 0.79389 0.15718 0.0
C713 C 0.60821 0.81014 0.15623 0.0
C714 C 0.62763 0.79696 0.12765 0.0
C715 C 0.61418 0.81323 0.12726 0.0
N716 N 0.57323 0.87069 0.13967 0.0
C717 C 0.57345 0.90693 0.14154 0.0
C718 C 0.55289 0.908 0.13797 0.0
C719 C 0.54262 0.88975 0.1355 0.0
C720 C 0.55308 0.87131 0.13626 0.0
C721 C 0.58318 0.88836 0.14246 0.0
H722 H 0.54492 0.85757 0.13401 0.0
H723 H 0.59892 0.88843 0.14543 0.0
H724 H 0.60082 0.81497 0.16758 0.0
H725 H 0.61196 0.82066 0.11541 0.0
C726 C 0.55409 0.81298 0.13052 0.0
C727 C 0.56962 0.84918 0.18129 0.0
C728 C 0.59672 0.85747 0.09834 0.0
C729 C 0.63155 0.86361 0.15157 0.0
H730 H 0.53721 0.82066 0.18535 0.0
H731 H 0.52959 0.79956 0.15785 0.0
H732 H 0.54756 0.80832 0.09523 0.0
H733 H 0.56967 0.83404 0.07786 0.0
H734 H 0.63589 0.87615 0.09542 0.0
H735 H 0.65589 0.87787 0.12423 0.0
H736 H 0.63527 0.87264 0.18668 0.0
H737 H 0.60068 0.86692 0.20247 0.0
H738 H 0.6243 0.78671 0.16918 0.0
H739 H 0.63507 0.79263 0.11614 0.0
H740 H 0.58205 0.92043 0.14387 0.0
H741 H 0.52672 0.88973 0.13268 0.0
C742 C 0.18237 0.55812 0.66738 0.0
C743 C 0.19468 0.54176 0.67057 0.0
C744 C 0.20538 0.5383 0.65619 0.0
C745 C 0.19907 0.55269 0.64506 0.0
N746 N 0.18507 0.56499 0.65153 0.0
Co747 Co 0.17214 0.58777 0.63967 0.0
N748 N 0.17972 0.5769 0.61734 0.0
C749 C 0.19418 0.56317 0.61455 0.0
C750 C 0.19693 0.559 0.59787 0.0
C751 C 0.18352 0.57098 0.5896 0.0
C752 C 0.17323 0.58186 0.60175 0.0
N753 N 0.15929 0.61058 0.62777 0.0
C754 C 0.15463 0.61292 0.61126 0.0
C755 C 0.14622 0.63166 0.60844 0.0
C756 C 0.14601 0.64143 0.6236 0.0
C757 C 0.1542 0.62817 0.63487 0.0
N758 N 0.16478 0.59829 0.66217 0.0
C759 C 0.15929 0.61727 0.66555 0.0
C760 C 0.15465 0.62006 0.68218 0.0
C761 C 0.15747 0.6017 0.6897 0.0
C762 C 0.16373 0.58866 0.67721 0.0
N763 N 0.19768 0.60342 0.64041 0.0
C764 C 0.23085 0.63043 0.64198 0.0
C765 C 0.2246 0.61934 0.65611 0.0
C766 C 0.20823 0.60588 0.65503 0.0
C767 C 0.22035 0.62701 0.62698 0.0
C768 C 0.20402 0.61365 0.62646 0.0
N769 N 0.14633 0.57296 0.63889 0.0
C770 C 0.11037 0.57313 0.64329 0.0
C771 C 0.1084 0.55342 0.6373 0.0
C772 C 0.12625 0.54362 0.63238 0.0
C773 C 0.14498 0.55357 0.63335 0.0
C774 C 0.12915 0.58255 0.6438 0.0
H775 H 0.15833 0.54566 0.62946 0.0
H776 H 0.12964 0.59779 0.64819 0.0
H777 H 0.20381 0.59782 0.66618 0.0
H778 H 0.19614 0.61219 0.61475 0.0
C779 C 0.2031 0.55288 0.62788 0.0
C780 C 0.16941 0.56752 0.68002 0.0
C781 C 0.15939 0.5984 0.59785 0.0
C782 C 0.15505 0.63061 0.65237 0.0
H783 H 0.19584 0.53327 0.6821 0.0
H784 H 0.21587 0.5262 0.65391 0.0
H785 H 0.20724 0.54832 0.59238 0.0
H786 H 0.18196 0.57199 0.57613 0.0
H787 H 0.14103 0.63773 0.59664 0.0
H788 H 0.14017 0.65626 0.62614 0.0
H789 H 0.14895 0.63355 0.68803 0.0
H790 H 0.15507 0.59828 0.7028 0.0
H791 H 0.23228 0.62104 0.66798 0.0
H792 H 0.22423 0.63516 0.61569 0.0
H793 H 0.0975 0.58143 0.64776 0.0
H794 H 0.12584 0.52848 0.62753 0.0
C795 C 0.46027 0.1835 0.16655 0.0
C796 C 0.47745 0.19492 0.16912 0.0
C797 C 0.48103 0.20512 0.15454 0.0
C798 C 0.46609 0.19924 0.14378 0.0
N799 N 0.45333 0.1859 0.15065 0.0
Co800 Co 0.43043 0.17281 0.13895 0.0
N801 N 0.44139 0.17972 0.11649 0.0
C802 C 0.45544 0.19375 0.11339 0.0
C803 C 0.45989 0.19574 0.09669 0.0
C804 C 0.44773 0.18225 0.0887 0.0
C805 C 0.43649 0.17272 0.10104 0.0
N806 N 0.40747 0.15992 0.12721 0.0
C807 C 0.40514 0.15484 0.11079 0.0
C808 C 0.38621 0.14679 0.10803 0.0
C809 C 0.37635 0.14717 0.12317 0.0
C810 C 0.38973 0.15536 0.13434 0.0
N811 N 0.41987 0.16594 0.16153 0.0
C812 C 0.40081 0.16069 0.16495 0.0
C813 C 0.39787 0.15661 0.18167 0.0
C814 C 0.41623 0.15954 0.18919 0.0
C815 C 0.42943 0.16521 0.17662 0.0
N816 N 0.41494 0.19844 0.13929 0.0
C817 C 0.38752 0.23126 0.14061 0.0
C818 C 0.39948 0.22601 0.15452 0.0
C819 C 0.41297 0.20963 0.15363 0.0
C820 C 0.3905 0.22018 0.12585 0.0
C821 C 0.40422 0.20416 0.12541 0.0
N822 N 0.44504 0.14692 0.13861 0.0
C823 C 0.4441 0.11092 0.14244 0.0
C824 C 0.46455 0.10898 0.13849 0.0
C825 C 0.47495 0.12679 0.13442 0.0
C826 C 0.46495 0.1455 0.13449 0.0
C827 C 0.43483 0.12975 0.14258 0.0
H828 H 0.47333 0.15882 0.13128 0.0
H829 H 0.41919 0.1303 0.14591 0.0
H830 H 0.42134 0.20564 0.16473 0.0
H831 H 0.40558 0.19598 0.11383 0.0
C832 C 0.46597 0.20271 0.12653 0.0
C833 C 0.45046 0.17131 0.17961 0.0
C834 C 0.41986 0.15889 0.09738 0.0
C835 C 0.38734 0.15651 0.15184 0.0
H836 H 0.48669 0.1957 0.18024 0.0
H837 H 0.49368 0.21477 0.15181 0.0
H838 H 0.47095 0.2055 0.09102 0.0
H839 H 0.44695 0.18003 0.07528 0.0
H840 H 0.3801 0.14146 0.09628 0.0
H841 H 0.36138 0.14166 0.12576 0.0
H842 H 0.38423 0.15138 0.18761 0.0
H843 H 0.41951 0.15781 0.2024 0.0
H844 H 0.39794 0.23402 0.16625 0.0
H845 H 0.38215 0.22376 0.11459 0.0
H846 H 0.43497 0.09792 0.14524 0.0
H847 H 0.49078 0.12641 0.13139 0.0
H848 H 0.09752 0.50402 0.14915 0.0
H849 H 0.06317 0.51702 0.1492 0.0
H850 H 0.0439 0.46668 0.11938 0.0
H851 H 0.07816 0.45365 0.11922 0.0
H852 H 0.02615 0.49835 0.10791 0.0
H853 H 0.03471 0.47133 0.16337 0.0
H854 H 0.05036 0.46739 0.19121 0.0
H855 H 0.04006 0.52969 0.20171 0.0
H856 H 0.02459 0.53406 0.17385 0.0
H857 H 0.92173 0.51431 0.15141 0.0
H858 H 0.95603 0.5013 0.1514 0.0
H859 H 0.97388 0.54776 0.11697 0.0
H860 H 0.93983 0.56124 0.11721 0.0
H861 H 0.99169 0.51691 0.16078 0.0
H862 H 0.0107 0.52946 0.09084 0.0
H863 H 0.99342 0.53075 0.0635 0.0
H864 H 0.94663 0.49276 0.08256 0.0
H865 H 0.96376 0.49101 0.10992 0.0
C866 C 0.08599 0.49559 0.14268 0.0
C867 C 0.09087 0.47768 0.13419 0.0
C868 C 0.06622 0.50308 0.14272 0.0
C869 C 0.0506 0.4928 0.13447 0.0
C870 C 0.0555 0.47506 0.12583 0.0
C871 C 0.07525 0.46761 0.1257 0.0
C872 C 0.02925 0.50043 0.13474 0.0
C873 C 0.01873 0.50245 0.11951 0.0
C874 C 0.01913 0.50563 0.1498 0.0
C875 C 0.02865 0.50305 0.16647 0.0
C876 C 0.03594 0.48422 0.17156 0.0
C877 C 0.04475 0.48191 0.18736 0.0
C878 C 0.04621 0.49829 0.19821 0.0
C879 C 0.03892 0.51702 0.19329 0.0
C880 C 0.03013 0.51942 0.1775 0.0
C881 C 0.93289 0.52197 0.14392 0.0
C882 C 0.92762 0.53893 0.13427 0.0
C883 C 0.95263 0.5144 0.1439 0.0
C884 C 0.96773 0.52336 0.13409 0.0
C885 C 0.96258 0.54028 0.12446 0.0
C886 C 0.9429 0.54794 0.12455 0.0
C887 C 0.98879 0.51507 0.13396 0.0
C888 C 0.99921 0.51292 0.14919 0.0
C889 C 0.99874 0.50952 0.11894 0.0
C890 C 0.98842 0.51029 0.10248 0.0
C891 C 0.99676 0.52133 0.08917 0.0
C892 C 0.98698 0.52215 0.07367 0.0
C893 C 0.9689 0.5119 0.07131 0.0
C894 C 0.96059 0.50076 0.08442 0.0
C895 C 0.97032 0.49987 0.09993 0.0
H896 H 0.96135 0.51257 0.05931 0.0
H897 H 0.05289 0.49645 0.21048 0.0
H898 H 0.4493 0.94079 0.6263 0.0
H899 H 0.46246 0.975 0.62653 0.0
H900 H 0.52053 0.95256 0.64148 0.0
H901 H 0.50693 0.91838 0.6422 0.0
H902 H 0.51606 0.98444 0.65714 0.0
H903 H 0.50698 0.97036 0.59906 0.0
H904 H 0.48914 0.95981 0.57345 0.0
H905 H 0.44672 1.00766 0.57992 0.0
H906 H 0.46417 0.01835 0.6057 0.0
H907 H 0.56725 0.07435 0.62479 0.0
H908 H 0.55343 0.04019 0.62484 0.0
H909 H 0.4972 0.06279 0.64361 0.0
H910 H 0.51111 0.09697 0.64404 0.0
H911 H 0.50155 0.03153 0.61054 0.0
H912 H 0.51264 0.04333 0.67074 0.0
H913 H 0.53412 0.05348 0.69446 0.0
H914 H 0.57739 0.00861 0.68088 0.0
H915 H 0.55628 0.99843 0.65691 0.0
C916 C 0.46491 0.94314 0.62955 0.0
C917 C 0.47708 0.92677 0.6341 0.0
C918 C 0.47253 0.96279 0.62958 0.0
C919 C 0.49277 0.96667 0.63362 0.0
C920 C 0.50491 0.95025 0.63827 0.0
C921 C 0.49714 0.93062 0.63863 0.0
C922 C 0.50113 0.98775 0.63328 0.0
C923 C 0.51294 0.99453 0.6468 0.0
C924 C 0.49727 1.00137 0.61992 0.0
C925 C 0.48677 0.99503 0.6044 0.0
C926 C 0.49377 0.97855 0.59508 0.0
C927 C 0.48374 0.97255 0.58052 0.0
C928 C 0.46678 0.98302 0.57508 0.0
C929 C 0.45985 0.99955 0.58416 0.0
C930 C 0.46981 1.00559 0.59874 0.0
C931 C 0.55191 0.07209 0.62886 0.0
C932 C 0.54031 0.08847 0.6344 0.0
C933 C 0.54405 0.05252 0.62893 0.0
C934 C 0.52427 0.04886 0.63425 0.0
C935 C 0.51251 0.0652 0.63948 0.0
C936 C 0.5205 0.08473 0.63977 0.0
C937 C 0.51601 0.02797 0.63442 0.0
C938 C 0.50444 0.02128 0.62083 0.0
C939 C 0.52045 0.01431 0.64747 0.0
C940 C 0.53302 0.02031 0.66193 0.0
C941 C 0.52684 0.03579 0.67271 0.0
C942 C 0.53892 0.04151 0.68622 0.0
C943 C 0.55715 0.03174 0.68914 0.0
C944 C 0.56329 0.01619 0.67858 0.0
C945 C 0.55128 0.01044 0.66504 0.0
H946 H 0.56648 0.03619 0.69961 0.0
H947 H 0.45903 0.97836 0.56381 0.0
H948 H 0.07559 0.567 0.3877 0.0
H949 H 0.04123 0.55416 0.38752 0.0
H950 H 0.06316 0.49592 0.37266 0.0
H951 H 0.09748 0.50925 0.3718 0.0
H952 H 0.03124 0.50019 0.35729 0.0
H953 H 0.04535 0.51013 0.41525 0.0
H954 H 0.05608 0.5283 0.44064 0.0
H955 H 1.00855 0.57097 0.43364 0.0
H956 H 0.99769 0.5532 0.40807 0.0
H957 H 0.94107 0.44939 0.38826 0.0
H958 H 0.97538 0.46294 0.38797 0.0
H959 H 0.95253 0.52049 0.37261 0.0
H960 H 0.91819 0.50684 0.37237 0.0
H961 H 0.98416 0.5159 0.40364 0.0
H962 H 0.97154 0.50324 0.3442 0.0
H963 H 0.96129 0.48153 0.32069 0.0
H964 H 1.00741 0.43928 0.33361 0.0
H965 H 0.0177 0.46061 0.35738 0.0
C966 C 0.07309 0.55143 0.38447 0.0
C967 C 0.08938 0.53914 0.3799 0.0
C968 C 0.05334 0.54398 0.38448 0.0
C969 C 0.04925 0.52377 0.38051 0.0
C970 C 0.06559 0.51152 0.37584 0.0
C971 C 0.08532 0.51913 0.3754 0.0
C972 C 0.02805 0.51557 0.38095 0.0
C973 C 0.02117 0.50354 0.3676 0.0
C974 C 0.01441 0.51976 0.39424 0.0
C975 C 0.02083 0.53044 0.40965 0.0
C976 C 0.03726 0.52346 0.41906 0.0
C977 C 0.04336 0.53368 0.43349 0.0
C978 C 0.03304 0.55081 0.43872 0.0
C979 C 0.01655 0.55772 0.42956 0.0
C980 C 0.0104 0.54757 0.41511 0.0
C981 C 0.94332 0.46496 0.38487 0.0
C982 C 0.92679 0.47701 0.38036 0.0
C983 C 0.96297 0.47267 0.38467 0.0
C984 C 0.96662 0.49276 0.38029 0.0
C985 C 0.95015 0.50495 0.37605 0.0
C986 C 0.93052 0.49711 0.37585 0.0
C987 C 0.98763 0.5009 0.37999 0.0
C988 C 0.99441 0.51273 0.3934 0.0
C989 C 1.00131 0.49613 0.36702 0.0
C990 C 0.99522 0.48339 0.35268 0.0
C991 C 0.97934 0.48922 0.34214 0.0
C992 C 0.97356 0.47701 0.32874 0.0
C993 C 0.98365 0.459 0.32569 0.0
C994 C 0.99958 0.45321 0.336 0.0
C995 C 1.0054 0.46536 0.34944 0.0
H996 H 0.97915 0.44957 0.3153 0.0
H997 H 0.03779 0.5587 0.44989 0.0
H998 H 0.5647 0.93993 0.89308 0.0
H999 H 0.54977 0.97345 0.89315 0.0
H1000 H 0.49939 0.95126 0.8648 0.0
H1001 H 0.51432 0.91749 0.86474 0.0
H1002 H 0.51485 0.98728 0.85179 0.0
H1003 H 0.49374 0.96233 0.90558 0.0
H1004 H 0.49874 0.94723 0.93349 0.0
H1005 H 0.53745 0.99597 0.94739 0.0
H1006 H 0.53291 0.01123 0.91946 0.0
H1007 H 0.4544 0.07408 0.85689 0.0
H1008 H 0.46821 0.04051 0.8581 0.0
H1009 H 0.51087 0.05965 0.89544 0.0
H1010 H 0.49589 0.09314 0.89539 0.0
H1011 H 0.4997 0.0248 0.90394 0.0
H1012 H 0.52255 0.04978 0.85127 0.0
H1013 H 0.51996 0.06528 0.82328 0.0
H1014 H 0.48145 0.01746 0.80697 0.0
H1015 H 0.4836 1.00181 0.83494 0.0
C1016 C 0.55039 0.9421 0.8869 0.0
C1017 C 0.54077 0.92587 0.87889 0.0
C1018 C 0.54179 0.96135 0.88702 0.0
C1019 C 0.52334 0.96508 0.87903 0.0
C1020 C 0.51361 0.94889 0.87108 0.0
C1021 C 0.5221 0.92951 0.87116 0.0
C1022 C 0.51453 0.98591 0.87871 0.0
C1023 C 0.51124 0.99536 0.8632 0.0
C1024 C 0.51048 0.99692 0.89354 0.0
C1025 C 0.51313 0.98782 0.91037 0.0
C1026 C 0.50345 0.96975 0.91454 0.0
C1027 C 0.50617 0.96118 0.93037 0.0
C1028 C 0.51844 0.97061 0.94219 0.0
C1029 C 0.52797 0.98867 0.93821 0.0
C1030 C 0.5253 0.99729 0.92239 0.0
C1031 C 0.4665 0.07131 0.86563 0.0
C1032 C 0.47372 0.08675 0.87617 0.0
C1033 C 0.47474 0.05192 0.86605 0.0
C1034 C 0.491 0.04725 0.87662 0.0
C1035 C 0.49841 0.06261 0.88708 0.0
C1036 C 0.48992 0.082 0.88688 0.0
C1037 C 0.49989 0.02634 0.87695 0.0
C1038 C 0.50326 0.01683 0.89248 0.0
C1039 C 0.50437 0.01539 0.86211 0.0
C1040 C 0.50308 0.02473 0.84526 0.0
C1041 C 0.51342 0.04264 0.84175 0.0
C1042 C 0.51204 0.05145 0.82589 0.0
C1043 C 0.50051 0.04239 0.81337 0.0
C1044 C 0.49036 0.02448 0.81668 0.0
C1045 C 0.49167 0.01562 0.83254 0.0
H1046 H 0.49946 0.04923 0.80109 0.0
H1047 H 0.52054 0.96394 0.95444 0.0
H1048 H 0.94314 0.56669 0.89087 0.0
H1049 H 0.97668 0.55195 0.89115 0.0
H1050 H 0.95468 0.50113 0.86322 0.0
H1051 H 0.9208 0.51566 0.8634 0.0
H1052 H 0.98026 0.48772 0.88439 0.0
H1053 H 0.98376 0.5418 0.8453 0.0
H1054 H 0.98008 0.57653 0.83514 0.0
H1055 H 0.02137 0.59701 0.87276 0.0
H1056 H 0.02509 0.56242 0.8833 0.0
H1057 H 0.07617 0.45442 0.85571 0.0
H1058 H 0.04276 0.46913 0.85698 0.0
H1059 H 0.06328 0.51182 0.89365 0.0
H1060 H 0.09678 0.49661 0.89308 0.0
H1061 H 0.03894 0.5293 0.86825 0.0
H1062 H 0.03556 0.47355 0.90635 0.0
H1063 H 0.03943 0.43819 0.91478 0.0
H1064 H 0.9979 0.42022 0.87645 0.0
H1065 H 0.99401 0.45547 0.86762 0.0
C1066 C 0.94539 0.55237 0.88475 0.0
C1067 C 0.92915 0.54252 0.87697 0.0
C1068 C 0.96473 0.54394 0.88484 0.0
C1069 C 0.96867 0.52554 0.87682 0.0
C1070 C 0.95232 0.51537 0.86945 0.0
C1071 C 0.93285 0.52369 0.86957 0.0
C1072 C 0.98972 0.51701 0.87615 0.0
C1073 C 0.99297 0.49684 0.88062 0.0
C1074 C 1.00669 0.52874 0.87152 0.0
C1075 C 1.00454 0.54955 0.8652 0.0
C1076 C 0.99194 0.55373 0.85148 0.0
C1077 C 0.98987 0.57339 0.84564 0.0
C1078 C 1.00045 0.58898 0.85333 0.0
C1079 C 0.01317 0.58492 0.86684 0.0
C1080 C 0.01528 0.56529 0.87274 0.0
C1081 C 0.07372 0.46672 0.86432 0.0
C1082 C 0.08951 0.47394 0.87451 0.0
C1083 C 0.05445 0.47525 0.86491 0.0
C1084 C 0.05023 0.4915 0.87555 0.0
C1085 C 0.06601 0.49928 0.88533 0.0
C1086 C 0.08532 0.49057 0.88491 0.0
C1087 C 0.02934 0.50014 0.87649 0.0
C1088 C 0.02616 0.52028 0.87203 0.0
C1089 C 0.01242 0.48832 0.88087 0.0
C1090 C 0.01464 0.46713 0.88622 0.0
C1091 C 0.02737 0.46204 0.89963 0.0
C1092 C 0.02955 0.44202 0.9045 0.0
C1093 C 0.01896 0.42696 0.89613 0.0
C1094 C 1.00612 0.4319 0.88291 0.0
C1095 C 1.00391 0.4519 0.87797 0.0
H1096 H 0.02066 0.41147 0.89992 0.0
H1097 H 0.99882 0.60419 0.84879 0.0
H1098 H 0.56771 0.07382 0.39141 0.0
H1099 H 0.5532 0.04019 0.3916 0.0
H1100 H 0.50178 0.06204 0.36431 0.0
H1101 H 0.51604 0.096 0.36464 0.0
H1102 H 0.48871 0.0362 0.38513 0.0
H1103 H 0.54275 0.03322 0.34596 0.0
H1104 H 0.57746 0.0371 0.3357 0.0
H1105 H 0.5983 0.99578 0.37315 0.0
H1106 H 0.56373 0.99185 0.38378 0.0
H1107 H 0.45589 0.94048 0.35583 0.0
H1108 H 0.47065 0.97384 0.35719 0.0
H1109 H 0.51288 0.95333 0.39427 0.0
H1110 H 0.49758 0.91987 0.39362 0.0
H1111 H 0.5306 0.97792 0.36875 0.0
H1112 H 0.47471 0.98078 0.40684 0.0
H1113 H 0.4393 0.97665 0.41515 0.0
H1114 H 0.42124 0.01824 0.37691 0.0
H1115 H 0.45654 0.02238 0.3682 0.0
C1116 C 0.5533 0.07152 0.38541 0.0
C1117 C 0.54319 0.08776 0.37787 0.0
C1118 C 0.54501 0.05212 0.38544 0.0
C1119 C 0.5265 0.0481 0.37757 0.0
C1120 C 0.51609 0.06444 0.37042 0.0
C1121 C 0.52427 0.08397 0.37062 0.0
C1122 C 0.51808 0.027 0.37684 0.0
C1123 C 0.4979 0.02358 0.38131 0.0
C1124 C 0.52989 0.01012 0.37214 0.0
C1125 C 0.55068 0.0124 0.36577 0.0
C1126 C 0.55476 0.02507 0.35208 0.0
C1127 C 0.5744 0.02726 0.34619 0.0
C1128 C 0.59008 0.01674 0.3538 0.0
C1129 C 0.58614 1.00395 0.36729 0.0
C1130 C 0.56653 1.00172 0.37324 0.0
C1131 C 0.4681 0.94292 0.36454 0.0
C1132 C 0.47513 0.92715 0.37485 0.0
C1133 C 0.47667 0.96216 0.36519 0.0
C1134 C 0.49279 0.96638 0.37599 0.0
C1135 C 0.50043 0.9506 0.38584 0.0
C1136 C 0.49167 0.93132 0.38537 0.0
C1137 C 0.50137 0.98728 0.37703 0.0
C1138 C 0.52152 0.99061 0.37259 0.0
C1139 C 0.48947 1.00411 0.38148 0.0
C1140 C 0.46825 1.00174 0.38676 0.0
C1141 C 0.46317 0.98892 0.40011 0.0
C1142 C 0.44312 0.9866 0.40491 0.0
C1143 C 0.42802 0.99714 0.39653 0.0
C1144 C 0.43295 0.01006 0.38337 0.0
C1145 C 0.45298 0.01242 0.37851 0.0
H1146 H 0.41251 0.99532 0.40027 0.0
H1147 H 0.60528 0.01845 0.34922 0.0
H1148 H 0.94502 0.44464 0.63197 0.0
H1149 H 0.97819 0.45995 0.63189 0.0
H1150 H 0.95169 0.51807 0.6397 0.0
H1151 H 0.91825 0.50279 0.6407 0.0
H1152 H 0.9826 0.51723 0.61417 0.0
H1153 H 0.97341 0.49671 0.67158 0.0
H1154 H 0.96565 0.47259 0.69411 0.0
H1155 H 0.0147 0.43531 0.67837 0.0
H1156 H 0.02257 0.45907 0.65558 0.0
H1157 H 0.07135 0.57123 0.63192 0.0
H1158 H 0.03829 0.55609 0.63202 0.0
H1159 H 0.06482 0.4977 0.63882 0.0
H1160 H 0.09814 0.51303 0.64018 0.0
H1161 H 0.03348 0.49816 0.65668 0.0
H1162 H 0.04323 0.51653 0.59954 0.0
H1163 H 0.05124 0.53857 0.57563 0.0
H1164 H 1.002 0.57712 0.58859 0.0
H1165 H 0.99385 0.55544 0.61272 0.0
C1166 C 0.94601 0.46065 0.63401 0.0
C1167 C 0.92852 0.47226 0.63663 0.0
C1168 C 0.96519 0.46944 0.6338 0.0
C1169 C 0.96765 0.49021 0.63593 0.0
C1170 C 0.95031 0.50201 0.63802 0.0
C1171 C 0.93106 0.49318 0.63849 0.0
C1172 C 0.9883 0.49942 0.63611 0.0
C1173 C 0.99363 0.51329 0.62361 0.0
C1174 C 1.00308 0.49381 0.64802 0.0
C1175 C 0.99845 0.47958 0.66177 0.0
C1176 C 0.98244 0.48329 0.67284 0.0
C1177 C 0.97804 0.46969 0.68567 0.0
C1178 C 0.98964 0.4524 0.68764 0.0
C1179 C 1.00571 0.4487 0.67681 0.0
C1180 C 0.01015 0.46223 0.66395 0.0
C1181 C 0.07038 0.55518 0.63374 0.0
C1182 C 0.08788 0.54356 0.63622 0.0
C1183 C 0.05121 0.5464 0.63345 0.0
C1184 C 0.04868 0.52554 0.63508 0.0
C1185 C 0.06608 0.51381 0.63744 0.0
C1186 C 0.08532 0.52265 0.63802 0.0
C1187 C 0.02797 0.51615 0.6347 0.0
C1188 C 0.02257 0.50219 0.64717 0.0
C1189 C 0.01322 0.52139 0.62254 0.0
C1190 C 0.01805 0.53446 0.60803 0.0
C1191 C 0.0342 0.52978 0.59736 0.0
C1192 C 0.03875 0.5422 0.58376 0.0
C1193 C 0.02717 0.55926 0.58062 0.0
C1194 C 0.01098 0.56391 0.59105 0.0
C1195 C 1.00637 0.55155 0.60468 0.0
H1196 H 0.03072 0.56886 0.57008 0.0
H1197 H 0.98622 0.4419 0.69759 0.0
H1198 H 0.45565 0.07599 0.15828 0.0
H1199 H 0.46977 0.04253 0.15731 0.0
H1200 H 0.51165 0.06149 0.11928 0.0
H1201 H 0.49638 0.09485 0.11915 0.0
H1202 H 0.50046 0.02638 0.11128 0.0
H1203 H 0.52426 0.05243 0.16326 0.0
H1204 H 0.52215 0.0684 0.19108 0.0
H1205 H 0.48439 0.02059 0.20859 0.0
H1206 H 0.48605 1.00445 0.1808 0.0
H1207 H 0.56619 0.94207 0.12214 0.0
H1208 H 0.55109 0.97551 0.12191 0.0
H1209 H 0.5015 0.95354 0.15134 0.0
H1210 H 0.5166 0.91986 0.15156 0.0
H1211 H 0.51703 0.98985 0.16365 0.0
H1212 H 0.49487 0.96385 0.11052 0.0
H1213 H 0.49933 0.9483 0.08273 0.0
H1214 H 0.5374 0.99702 0.0676 0.0
H1215 H 0.5334 0.01273 0.0954 0.0
C1216 C 0.46764 0.07319 0.14945 0.0
C1217 C 0.47456 0.08853 0.13867 0.0
C1218 C 0.47606 0.05388 0.14916 0.0
C1219 C 0.49219 0.0492 0.13845 0.0
C1220 C 0.4993 0.06447 0.12775 0.0
C1221 C 0.49064 0.08378 0.12784 0.0
C1222 C 0.50124 0.02837 0.13824 0.0
C1223 C 0.50434 0.01862 0.12278 0.0
C1224 C 0.50613 0.01771 0.15315 0.0
C1225 C 0.50513 0.02733 0.16989 0.0
C1226 C 0.51539 0.04539 0.17301 0.0
C1227 C 0.51429 0.05446 0.18878 0.0
C1228 C 0.5031 0.04554 0.20158 0.0
C1229 C 0.49303 0.0275 0.19866 0.0
C1230 C 0.49406 0.01837 0.1829 0.0
C1231 C 0.55202 0.94427 0.12853 0.0
C1232 C 0.54267 0.92813 0.13689 0.0
C1233 C 0.54332 0.96347 0.12832 0.0
C1234 C 0.52504 0.96724 0.13656 0.0
C1235 C 0.51559 0.95114 0.14486 0.0
C1236 C 0.52417 0.93181 0.14488 0.0
C1237 C 0.51612 0.98801 0.13676 0.0
C1238 C 0.51311 0.99771 0.1522 0.0
C1239 C 0.51166 0.99874 0.12185 0.0
C1240 C 0.51399 0.98937 0.1051 0.0
C1241 C 0.50432 0.97117 0.10132 0.0
C1242 C 0.50674 0.96234 0.08555 0.0
C1243 C 0.51868 0.97164 0.07342 0.0
C1244 C 0.52818 0.98982 0.07702 0.0
C1245 C 0.52583 0.99871 0.09277 0.0
H1246 H 0.52054 0.96478 0.06123 0.0
H1247 H 0.50227 0.05259 0.21378 0.0
H1248 H 0.15115 0.53984 0.32416 0.0
H1249 H 0.15044 0.51909 0.29877 0.0
H1250 H 0.20006 0.55296 0.27859 0.0
H1251 H 0.20102 0.57336 0.30427 0.0
H1252 H 0.14417 0.52322 0.26698 0.0
H1253 H 0.23018 0.52308 0.25477 0.0
H1254 H 0.26164 0.52636 0.27088 0.0
H1255 H 0.23164 0.50551 0.31524 0.0
H1256 H 0.20012 0.50177 0.29934 0.0
H1257 H 0.16262 0.48427 0.1857 0.0
H1258 H 0.16128 0.50421 0.21141 0.0
H1259 H 0.19258 0.45732 0.23797 0.0
H1260 H 0.19449 0.43761 0.21189 0.0
H1261 H 0.20736 0.49134 0.2477 0.0
H1262 H 0.14069 0.46691 0.24325 0.0
H1263 H 0.10855 0.45967 0.22916 0.0
H1264 H 0.09823 0.5227 0.22232 0.0
H1265 H 0.13048 0.53032 0.23618 0.0
C1266 C 0.1617 0.54302 0.31417 0.0
C1267 C 0.17606 0.55831 0.31615 0.0
C1268 C 0.16132 0.53112 0.29962 0.0
C1269 C 0.17537 0.5341 0.28667 0.0
C1270 C 0.18925 0.54996 0.28841 0.0
C1271 C 0.18969 0.5618 0.30303 0.0
C1272 C 0.17587 0.52024 0.27169 0.0
C1273 C 0.15804 0.51637 0.26277 0.0
C1274 C 0.19374 0.51057 0.2663 0.0
C1275 C 0.21275 0.51235 0.27589 0.0
C1276 C 0.23033 0.5191 0.26794 0.0
C1277 C 0.24817 0.52105 0.27704 0.0
C1278 C 0.24862 0.51621 0.29408 0.0
C1279 C 0.23126 0.50931 0.30205 0.0
C1280 C 0.21341 0.50727 0.293 0.0
C1281 C 0.16906 0.47814 0.19707 0.0
C1282 C 0.17856 0.45929 0.19677 0.0
C1283 C 0.16824 0.48955 0.21184 0.0
C1284 C 0.1766 0.48234 0.2269 0.0
C1285 C 0.18598 0.46337 0.22663 0.0
C1286 C 0.18693 0.45198 0.21176 0.0
C1287 C 0.17577 0.49476 0.24273 0.0
C1288 C 0.19351 0.4983 0.25185 0.0
C1289 C 0.1577 0.50361 0.24862 0.0
C1290 C 0.13808 0.49918 0.24062 0.0
C1291 C 0.13161 0.47923 0.23867 0.0
C1292 C 0.11338 0.47506 0.23073 0.0
C1293 C 0.1014 0.49071 0.22481 0.0
C1294 C 0.10756 0.51059 0.2269 0.0
C1295 C 0.1258 0.51485 0.23482 0.0
H1296 H 0.08734 0.48742 0.21861 0.0
H1297 H 0.26243 0.51777 0.30111 0.0
H1298 H 0.55461 0.14341 0.69646 0.0
H1299 H 0.53515 0.14051 0.72238 0.0
H1300 H 0.54068 0.20431 0.73017 0.0
H1301 H 0.56148 0.20685 0.70488 0.0
H1302 H 0.54111 0.18916 0.75876 0.0
H1303 H 0.49636 0.17826 0.71278 0.0
H1304 H 0.48423 0.16233 0.68679 0.0
H1305 H 0.48032 0.10558 0.71203 0.0
H1306 H 0.49272 0.12112 0.73813 0.0
H1307 H 0.45576 0.20072 0.81188 0.0
H1308 H 0.47579 0.20033 0.78602 0.0
H1309 H 0.48604 0.13696 0.79224 0.0
H1310 H 0.46641 0.13749 0.81846 0.0
H1311 H 0.47728 0.15085 0.75714 0.0
H1312 H 0.52135 0.16453 0.80391 0.0
H1313 H 0.53104 0.18295 0.82945 0.0
H1314 H 0.53335 0.23792 0.80146 0.0
H1315 H 0.52331 0.21987 0.77579 0.0
C1316 C 0.55202 0.15675 0.70391 0.0
C1317 C 0.55958 0.17538 0.69854 0.0
C1318 C 0.54054 0.15516 0.71865 0.0
C1319 C 0.53566 0.17228 0.72822 0.0
C1320 C 0.54392 0.1908 0.72316 0.0
C1321 C 0.55583 0.19229 0.70862 0.0
C1322 C 0.5218 0.17101 0.74324 0.0
C1323 C 0.52708 0.18093 0.7582 0.0
C1324 C 0.50339 0.16014 0.74296 0.0
C1325 C 0.49565 0.15081 0.72736 0.0
C1326 C 0.49301 0.16236 0.71277 0.0
C1327 C 0.48609 0.1534 0.69802 0.0
C1328 C 0.48156 0.13294 0.69775 0.0
C1329 C 0.48387 0.12142 0.71225 0.0
C1330 C 0.49083 0.13029 0.72703 0.0
C1331 C 0.46206 0.18665 0.80759 0.0
C1332 C 0.45968 0.16917 0.81729 0.0
C1333 C 0.47356 0.18644 0.79283 0.0
C1334 C 0.48267 0.16866 0.78717 0.0
C1335 C 0.47925 0.15089 0.79629 0.0
C1336 C 0.46798 0.15118 0.81126 0.0
C1337 C 0.49668 0.169 0.77239 0.0
C1338 C 0.49138 0.15897 0.75755 0.0
C1339 C 0.51483 0.1801 0.77265 0.0
C1340 C 0.52141 0.19088 0.78796 0.0
C1341 C 0.5238 0.18057 0.80322 0.0
C1342 C 0.52938 0.19094 0.81772 0.0
C1343 C 0.53277 0.2116 0.81709 0.0
C1344 C 0.53069 0.22192 0.80194 0.0
C1345 C 0.52508 0.21162 0.7874 0.0
H1346 H 0.53705 0.21961 0.82834 0.0
H1347 H 0.47622 0.12603 0.68631 0.0
H1348 H 0.82811 0.58043 0.21305 0.0
H1349 H 0.82969 0.56032 0.23901 0.0
H1350 H 0.85402 0.51067 0.21111 0.0
H1351 H 0.85327 0.5309 0.18542 0.0
H1352 H 0.81284 0.50895 0.2374 0.0
H1353 H 0.88595 0.51965 0.22904 0.0
H1354 H 0.91476 0.54231 0.22467 0.0
H1355 H 0.89908 0.57496 0.26918 0.0
H1356 H 0.86997 0.55266 0.27364 0.0
H1357 H 0.82896 0.43643 0.30142 0.0
H1358 H 0.83096 0.45626 0.27555 0.0
H1359 H 0.85228 0.50704 0.30399 0.0
H1360 H 0.85177 0.4867 0.32948 0.0
H1361 H 0.87016 0.50933 0.27707 0.0
H1362 H 0.80037 0.49961 0.28821 0.0
H1363 H 0.76926 0.48069 0.29382 0.0
H1364 H 0.77481 0.45083 0.24636 0.0
H1365 H 0.8061 0.46939 0.24056 0.0
C1366 C 0.83413 0.56536 0.21254 0.0
C1367 C 0.8406 0.55731 0.19715 0.0
C1368 C 0.83491 0.55382 0.22736 0.0
C1369 C 0.84195 0.53391 0.22706 0.0
C1370 C 0.84855 0.52595 0.21172 0.0
C1371 C 0.84813 0.53756 0.19703 0.0
C1372 C 0.84201 0.5212 0.24258 0.0
C1373 C 0.82545 0.50883 0.246 0.0
C1374 C 0.8581 0.52146 0.25413 0.0
C1375 C 0.87567 0.53469 0.25153 0.0
C1376 C 0.88852 0.53181 0.23778 0.0
C1377 C 0.90493 0.54455 0.23531 0.0
C1378 C 0.90871 0.56011 0.24661 0.0
C1379 C 0.89612 0.56293 0.26042 0.0
C1380 C 0.87967 0.55024 0.26292 0.0
C1381 C 0.83436 0.45172 0.30206 0.0
C1382 C 0.84009 0.45996 0.31757 0.0
C1383 C 0.83523 0.46325 0.28726 0.0
C1384 C 0.84125 0.48357 0.2876 0.0
C1385 C 0.84748 0.49156 0.3031 0.0
C1386 C 0.84707 0.47991 0.31778 0.0
C1387 C 0.84096 0.49658 0.27203 0.0
C1388 C 0.85746 0.5092 0.26856 0.0
C1389 C 0.82452 0.49686 0.26063 0.0
C1390 C 0.80568 0.48574 0.26403 0.0
C1391 C 0.79501 0.48892 0.27902 0.0
C1392 C 0.77735 0.47827 0.28222 0.0
C1393 C 0.77009 0.46453 0.27047 0.0
C1394 C 0.78046 0.46145 0.25546 0.0
C1395 C 0.79816 0.47204 0.2522 0.0
H1396 H 0.75641 0.45629 0.27298 0.0
H1397 H 0.92143 0.56996 0.24468 0.0
H1398 H 0.57804 0.83335 0.80286 0.0
H1399 H 0.55796 0.83462 0.77698 0.0
H1400 H 0.51005 0.86368 0.80385 0.0
H1401 H 0.53039 0.8632 0.82955 0.0
H1402 H 0.5081 0.81942 0.77887 0.0
H1403 H 0.51633 0.89372 0.78455 0.0
H1404 H 0.53838 0.92317 0.78805 0.0
H1405 H 0.573 0.90494 0.74526 0.0
H1406 H 0.55129 0.87521 0.74171 0.0
H1407 H 0.43569 0.83127 0.71387 0.0
H1408 H 0.45517 0.83474 0.73983 0.0
H1409 H 0.50599 0.85571 0.71119 0.0
H1410 H 0.48601 0.85366 0.68555 0.0
H1411 H 0.50731 0.87503 0.73758 0.0
H1412 H 0.49944 0.80459 0.72851 0.0
H1413 H 0.48128 0.77286 0.72376 0.0
H1414 H 0.45074 0.77981 0.77081 0.0
H1415 H 0.46854 0.81173 0.77573 0.0
C1416 C 0.56356 0.84071 0.80311 0.0
C1417 C 0.55611 0.84877 0.8182 0.0
C1418 C 0.55196 0.84118 0.78834 0.0
C1419 C 0.5325 0.84939 0.78836 0.0
C1420 C 0.52507 0.85748 0.80339 0.0
C1421 C 0.53676 0.85729 0.81808 0.0
C1422 C 0.51959 0.84868 0.77294 0.0
C1423 C 0.50768 0.83167 0.76993 0.0
C1424 C 0.51951 0.86428 0.76094 0.0
C1425 C 0.53239 0.88216 0.76302 0.0
C1426 C 0.52879 0.89589 0.77602 0.0
C1427 C 0.54118 0.91266 0.77798 0.0
C1428 C 0.55713 0.91589 0.76692 0.0
C1429 C 0.56067 0.9024 0.75385 0.0
C1430 C 0.54833 0.8856 0.75185 0.0
C1431 C 0.45093 0.83689 0.71319 0.0
C1432 C 0.45927 0.8421 0.69758 0.0
C1433 C 0.46224 0.83862 0.72805 0.0
C1434 C 0.48247 0.84503 0.7277 0.0
C1435 C 0.49057 0.85066 0.71208 0.0
C1436 C 0.47913 0.84936 0.69732 0.0
C1437 C 0.49525 0.84577 0.7434 0.0
C1438 C 0.50739 0.86272 0.74647 0.0
C1439 C 0.49583 0.82986 0.75529 0.0
C1440 C 0.48517 0.81065 0.7524 0.0
C1441 C 0.48876 0.79941 0.73779 0.0
C1442 C 0.47854 0.78139 0.73507 0.0
C1443 C 0.46483 0.77435 0.74695 0.0
C1444 C 0.46134 0.7853 0.7616 0.0
C1445 C 0.4715 0.80335 0.76437 0.0
H1446 H 0.45693 0.7604 0.74483 0.0
H1447 H 0.56671 0.92888 0.76845 0.0
H1448 H 0.82353 0.56975 0.80572 0.0
H1449 H 0.82483 0.54961 0.77996 0.0
H1450 H 0.88051 0.52317 0.79652 0.0
H1451 H 0.87873 0.54285 0.82252 0.0
H1452 H 0.84685 0.54494 0.75381 0.0
H1453 H 0.8846 0.47493 0.78342 0.0
H1454 H 0.88738 0.45867 0.81112 0.0
H1455 H 0.83161 0.48536 0.82629 0.0
H1456 H 0.82833 0.50148 0.79861 0.0
H1457 H 0.87168 0.47971 0.6869 0.0
H1458 H 0.8739 0.49987 0.71258 0.0
H1459 H 0.83096 0.46081 0.73652 0.0
H1460 H 0.82921 0.44038 0.71091 0.0
H1461 H 0.85699 0.47151 0.75909 0.0
H1462 H 0.81804 0.50736 0.71911 0.0
H1463 H 0.81053 0.52293 0.69179 0.0
H1464 H 0.85996 0.56357 0.69816 0.0
H1465 H 0.868 0.54799 0.72542 0.0
C1466 C 0.83621 0.55989 0.80367 0.0
C1467 C 0.85112 0.55799 0.81606 0.0
C1468 C 0.83695 0.54829 0.78894 0.0
C1469 C 0.85259 0.53444 0.78621 0.0
C1470 C 0.868 0.53331 0.79831 0.0
C1471 C 0.86715 0.54477 0.81312 0.0
C1472 C 0.85233 0.52074 0.7711 0.0
C1473 C 0.8492 0.52891 0.75503 0.0
C1474 C 0.85477 0.49962 0.77245 0.0
C1475 C 0.85635 0.48957 0.78899 0.0
C1476 C 0.87288 0.47723 0.79264 0.0
C1477 C 0.87455 0.46805 0.80834 0.0
C1478 C 0.85971 0.47102 0.82047 0.0
C1479 C 0.84312 0.4831 0.8169 0.0
C1480 C 0.84135 0.49226 0.8012 0.0
C1481 C 0.86307 0.4752 0.6978 0.0
C1482 C 0.85054 0.45826 0.69697 0.0
C1483 C 0.86415 0.48687 0.71246 0.0
C1484 C 0.85236 0.48221 0.72661 0.0
C1485 C 0.84028 0.46486 0.72592 0.0
C1486 C 0.83933 0.45309 0.71128 0.0
C1487 C 0.85202 0.49578 0.74178 0.0
C1488 C 0.85488 0.48757 0.75786 0.0
C1489 C 0.84869 0.51678 0.7405 0.0
C1490 C 0.84374 0.52638 0.72424 0.0
C1491 C 0.82739 0.51954 0.71464 0.0
C1492 C 0.82303 0.52837 0.69917 0.0
C1493 C 0.83479 0.5442 0.69323 0.0
C1494 C 0.85089 0.55128 0.70277 0.0
C1495 C 0.85535 0.54246 0.71824 0.0
H1496 H 0.83139 0.55102 0.68124 0.0
H1497 H 0.86106 0.46394 0.83263 0.0
H1498 H 0.48584 0.86301 0.32952 0.0
H1499 H 0.5065 0.86521 0.30433 0.0
H1500 H 0.457 0.84311 0.27472 0.0
H1501 H 0.43712 0.83893 0.30029 0.0
H1502 H 0.48633 0.82716 0.26238 0.0
H1503 H 0.4771 0.89612 0.27554 0.0
H1504 H 0.4769 0.92671 0.29292 0.0
H1505 H 0.54053 0.92152 0.30033 0.0
H1506 H 0.54108 0.89075 0.28317 0.0
H1507 H 0.53283 0.86641 0.18549 0.0
H1508 H 0.51248 0.86851 0.21115 0.0
H1509 H 0.56106 0.84281 0.23954 0.0
H1510 H 0.58107 0.83972 0.21377 0.0
H1511 H 0.53197 0.88442 0.25121 0.0
H1512 H 0.5369 0.81121 0.23864 0.0
H1513 H 0.53441 0.78391 0.21787 0.0
H1514 H 0.47423 0.80202 0.2059 0.0
H1515 H 0.47655 0.82966 0.22641 0.0
C1516 C 0.47925 0.85892 0.31758 0.0
C1517 C 0.45948 0.85146 0.31697 0.0
C1518 C 0.49109 0.86033 0.30303 0.0
C1519 C 0.48341 0.85492 0.28719 0.0
C1520 C 0.46352 0.84762 0.28657 0.0
C1521 C 0.45186 0.84565 0.30124 0.0
C1522 C 0.49633 0.85599 0.27152 0.0
C1523 C 0.49609 0.83987 0.26006 0.0
C1524 C 0.50932 0.87245 0.26797 0.0
C1525 C 0.50909 0.89102 0.27819 0.0
C1526 C 0.49103 0.90144 0.28096 0.0
C1527 C 0.49086 0.91881 0.29076 0.0
C1528 C 0.50868 0.92602 0.29776 0.0
C1529 C 0.52673 0.9159 0.29492 0.0
C1530 C 0.52699 0.89851 0.28514 0.0
C1531 C 0.53933 0.86157 0.19727 0.0
C1532 C 0.55885 0.85341 0.19758 0.0
C1533 C 0.52765 0.86273 0.21193 0.0
C1534 C 0.53521 0.85593 0.22736 0.0
C1535 C 0.55492 0.84836 0.22785 0.0
C1536 C 0.56648 0.84683 0.21311 0.0
C1537 C 0.52206 0.85554 0.24267 0.0
C1538 C 0.52218 0.8718 0.25384 0.0
C1539 C 0.50858 0.83956 0.24575 0.0
C1540 C 0.50697 0.82257 0.23391 0.0
C1541 C 0.5232 0.80944 0.23148 0.0
C1542 C 0.52182 0.7939 0.21978 0.0
C1543 C 0.50419 0.79126 0.21053 0.0
C1544 C 0.48788 0.8041 0.21305 0.0
C1545 C 0.48922 0.81969 0.22471 0.0
H1546 H 0.50315 0.77925 0.20146 0.0
H1547 H 0.50852 0.93947 0.30536 0.0
H1548 H 0.18295 0.43767 0.80094 0.0
H1549 H 0.18063 0.45764 0.77514 0.0
H1550 H 0.14636 0.50246 0.80157 0.0
H1551 H 0.14824 0.48218 0.82721 0.0
H1552 H 0.13198 0.49954 0.77089 0.0
H1553 H 0.1977 0.50701 0.79435 0.0
H1554 H 0.23024 0.49521 0.8053 0.0
H1555 H 0.244 0.46874 0.75759 0.0
H1556 H 0.21137 0.48009 0.74644 0.0
H1557 H 0.18779 0.57501 0.71024 0.0
H1558 H 0.18586 0.55507 0.73614 0.0
H1559 H 0.14338 0.51532 0.71248 0.0
H1560 H 0.14534 0.53533 0.68665 0.0
H1561 H 0.1959 0.51711 0.74256 0.0
H1562 H 0.11149 0.49574 0.74226 0.0
H1563 H 0.07911 0.51011 0.73324 0.0
H1564 H 0.1034 0.56953 0.73764 0.0
H1565 H 0.13581 0.55554 0.7469 0.0
C1566 C 0.17439 0.45147 0.80109 0.0
C1567 C 0.16539 0.45811 0.81606 0.0
C1568 C 0.17331 0.46309 0.78637 0.0
C1569 C 0.16353 0.48185 0.78628 0.0
C1570 C 0.15397 0.48812 0.80113 0.0
C1571 C 0.155 0.47648 0.81581 0.0
C1572 C 0.16403 0.49535 0.77107 0.0
C1573 C 0.14598 0.50323 0.76467 0.0
C1574 C 0.18226 0.5008 0.76301 0.0
C1575 C 0.20202 0.49425 0.7696 0.0
C1576 C 0.20762 0.49858 0.78622 0.0
C1577 C 0.22608 0.49197 0.79246 0.0
C1578 C 0.23917 0.48121 0.78215 0.0
C1579 C 0.23384 0.47707 0.76557 0.0
C1580 C 0.21537 0.48359 0.75927 0.0
C1581 C 0.17771 0.56228 0.71073 0.0
C1582 C 0.16633 0.55704 0.69654 0.0
C1583 C 0.17676 0.55072 0.72549 0.0
C1584 C 0.16434 0.53364 0.72649 0.0
C1585 C 0.15286 0.52852 0.71228 0.0
C1586 C 0.15392 0.54001 0.6975 0.0
C1587 C 0.16381 0.52092 0.74214 0.0
C1588 C 0.18188 0.51326 0.74867 0.0
C1589 C 0.14564 0.51599 0.7505 0.0
C1590 C 0.12614 0.52456 0.74509 0.0
C1591 C 0.1099 0.51187 0.74135 0.0
C1592 C 0.09154 0.51996 0.73619 0.0
C1593 C 0.08922 0.54072 0.73481 0.0
C1594 C 0.10524 0.55345 0.73864 0.0
C1595 C 0.12361 0.54545 0.74383 0.0
H1596 H 0.075 0.54694 0.7308 0.0
H1597 H 0.25345 0.4761 0.78701 0.0
H1598 H 0.55155 0.13641 0.31896 0.0
H1599 H 0.53198 0.13444 0.29274 0.0
H1600 H 0.54021 0.1979 0.28519 0.0
H1601 H 0.56026 0.19971 0.31098 0.0
H1602 H 0.4988 0.18436 0.28319 0.0
H1603 H 0.5643 0.16785 0.26091 0.0
H1604 H 0.59546 0.148 0.25936 0.0
H1605 H 0.56122 0.09492 0.24879 0.0
H1606 H 0.5298 0.11441 0.25054 0.0
H1607 H 0.45829 0.20103 0.20245 0.0
H1608 H 0.47799 0.19897 0.22821 0.0
H1609 H 0.48327 0.13492 0.22181 0.0
H1610 H 0.46461 0.13736 0.19525 0.0
H1611 H 0.51699 0.14638 0.23198 0.0
H1612 H 0.45209 0.16024 0.25355 0.0
H1613 H 0.41959 0.17756 0.25651 0.0
H1614 H 0.45002 0.23183 0.27044 0.0
H1615 H 0.48273 0.21491 0.26733 0.0
C1616 C 0.54951 0.14983 0.31149 0.0
C1617 C 0.55731 0.16824 0.31712 0.0
C1618 C 0.53823 0.14873 0.29655 0.0
C1619 C 0.53435 0.16607 0.28697 0.0
C1620 C 0.54276 0.18432 0.29234 0.0
C1621 C 0.55432 0.18534 0.30706 0.0
C1622 C 0.52102 0.16548 0.27172 0.0
C1623 C 0.50288 0.17623 0.27192 0.0
C1624 C 0.52581 0.15423 0.25719 0.0
C1625 C 0.54469 0.14255 0.25605 0.0
C1626 C 0.56339 0.15191 0.25842 0.0
C1627 C 0.58111 0.14073 0.25747 0.0
C1628 C 0.58032 0.1202 0.25403 0.0
C1629 C 0.56181 0.11082 0.25148 0.0
C1630 C 0.54405 0.12193 0.25244 0.0
C1631 C 0.46356 0.18648 0.2066 0.0
C1632 C 0.46003 0.16939 0.19669 0.0
C1633 C 0.47475 0.18524 0.2215 0.0
C1634 C 0.48213 0.16671 0.2274 0.0
C1635 C 0.47796 0.14947 0.21773 0.0
C1636 C 0.46709 0.1508 0.20258 0.0
C1637 C 0.49466 0.16555 0.24324 0.0
C1638 C 0.51269 0.15445 0.24322 0.0
C1639 C 0.48952 0.17609 0.25814 0.0
C1640 C 0.46988 0.18634 0.26007 0.0
C1641 C 0.45186 0.17591 0.25714 0.0
C1642 C 0.4334 0.18565 0.25885 0.0
C1643 C 0.43274 0.2058 0.26362 0.0
C1644 C 0.45055 0.21623 0.26673 0.0
C1645 C 0.46906 0.20657 0.26501 0.0
H1646 H 0.41843 0.21332 0.26495 0.0
H1647 H 0.59405 0.11157 0.25329 0.0
H1648 H 0.18676 0.39688 0.9352 0.0
H1649 H 0.18619 0.39315 0.96578 0.0
H1650 H 0.13239 0.4291 0.96805 0.0
H1651 H 0.1335 0.43334 0.93743 0.0
H1652 H 0.15624 0.44113 0.99136 0.0
H1653 H 0.13373 0.37577 0.97521 0.0
H1654 H 0.13494 0.34357 0.96005 0.0
H1655 H 0.19116 0.32943 0.98358 0.0
H1656 H 0.19043 0.36168 0.99871 0.0
H1657 H 0.13806 0.42392 0.07768 0.0
H1658 H 0.13416 0.42159 0.04712 0.0
H1659 H 0.19207 0.39301 0.04351 0.0
H1660 H 0.19586 0.39528 0.07414 0.0
H1661 H 0.16488 0.37641 0.02117 0.0
H1662 H 0.18751 0.44227 0.03661 0.0
H1663 H 0.1858 0.47412 0.05223 0.0
H1664 H 0.12852 0.48701 0.03 0.0
H1665 H 0.12972 0.45503 0.01448 0.0
C1666 C 0.1746 0.40359 0.94225 0.0
C1667 C 0.15995 0.41507 0.93395 0.0
C1668 C 0.17424 0.40147 0.95976 0.0
C1669 C 0.15906 0.41057 0.96944 0.0
C1670 C 0.14425 0.42183 0.96103 0.0
C1671 C 0.14474 0.42411 0.9435 0.0
C1672 C 0.15921 0.40915 0.9883 0.0
C1673 C 0.15776 0.42688 0.9978 0.0
C1674 C 0.1617 0.3907 0.99697 0.0
C1675 C 0.1621 0.37123 0.98799 0.0
C1676 C 0.14642 0.36585 0.97707 0.0
C1677 C 0.14701 0.34759 0.96849 0.0
C1678 C 0.16313 0.33448 0.97082 0.0
C1679 C 0.17868 0.3396 0.98178 0.0
C1680 C 0.17818 0.35786 0.99037 0.0
C1681 C 0.14969 0.41667 0.07037 0.0
C1682 C 0.16716 0.40957 0.07827 0.0
C1683 C 0.14756 0.4155 0.05288 0.0
C1684 C 0.16292 0.40733 0.04286 0.0
C1685 C 0.17997 0.39935 0.05087 0.0
C1686 C 0.18213 0.40058 0.06838 0.0
C1687 C 0.1618 0.40832 0.02407 0.0
C1688 C 0.16318 0.39058 0.01464 0.0
C1689 C 0.15918 0.42673 0.01544 0.0
C1690 C 0.15862 0.44616 0.0245 0.0
C1691 C 0.17449 0.45184 0.03513 0.0
C1692 C 0.17361 0.46991 0.04397 0.0
C1693 C 0.15704 0.48256 0.04213 0.0
C1694 C 0.14134 0.47718 0.03142 0.0
C1695 C 0.14211 0.45908 0.0226 0.0
H1696 H 0.15638 0.49655 0.04899 0.0
H1697 H 0.16357 0.32035 0.96416 0.0
H1698 H 0.62112 0.18455 0.43617 0.0
H1699 H 0.6252 0.18406 0.4667 0.0
H1700 H 0.59021 0.12967 0.46929 0.0
H1701 H 0.58557 0.13071 0.43872 0.0
H1702 H 0.5777 0.15329 0.49242 0.0
H1703 H 0.64375 0.13228 0.47654 0.0
H1704 H 0.67599 0.1342 0.46143 0.0
H1705 H 0.68863 0.1909 0.48464 0.0
H1706 H 0.65633 0.18946 0.49972 0.0
H1707 H 0.59512 0.136 0.57884 0.0
H1708 H 0.5976 0.13206 0.54829 0.0
H1709 H 0.62481 0.19058 0.54455 0.0
H1710 H 0.62238 0.19442 0.57517 0.0
H1711 H 0.64217 0.16372 0.52231 0.0
H1712 H 0.5757 0.18481 0.53753 0.0
H1713 H 0.54382 0.18245 0.55311 0.0
H1714 H 0.53228 0.12482 0.5311 0.0
H1715 H 0.56431 0.12667 0.51563 0.0
C1716 C 0.61476 0.17223 0.44326 0.0
C1717 C 0.60339 0.15742 0.43506 0.0
C1718 C 0.61707 0.17193 0.46076 0.0
C1719 C 0.60828 0.15665 0.47053 0.0
C1720 C 0.59723 0.14161 0.4622 0.0
C1721 C 0.59476 0.14205 0.44469 0.0
C1722 C 0.60965 0.15698 0.4894 0.0
C1723 C 0.59191 0.15519 0.49888 0.0
C1724 C 0.62802 0.16 0.4981 0.0
C1725 C 0.64753 0.16083 0.48915 0.0
C1726 C 0.65334 0.14522 0.47834 0.0
C1727 C 0.67164 0.14621 0.46979 0.0
C1728 C 0.68433 0.16268 0.47205 0.0
C1729 C 0.67878 0.17816 0.4829 0.0
C1730 C 0.66049 0.17725 0.49146 0.0
C1731 C 0.60209 0.14778 0.57151 0.0
C1732 C 0.60876 0.16542 0.57937 0.0
C1733 C 0.60336 0.14561 0.55403 0.0
C1734 C 0.61119 0.16111 0.54397 0.0
C1735 C 0.61873 0.17837 0.55194 0.0
C1736 C 0.6174 0.18056 0.56944 0.0
C1737 C 0.61029 0.15987 0.52517 0.0
C1738 C 0.62805 0.16162 0.51576 0.0
C1739 C 0.59196 0.15674 0.51652 0.0
C1740 C 0.5725 0.15579 0.52554 0.0
C1741 C 0.56643 0.17157 0.53609 0.0
C1742 C 0.54833 0.17033 0.5449 0.0
C1743 C 0.53605 0.15348 0.54312 0.0
C1744 C 0.54182 0.13786 0.53248 0.0
C1745 C 0.55994 0.13899 0.52369 0.0
H1746 H 0.52204 0.15254 0.54995 0.0
H1747 H 0.69848 0.16342 0.46541 0.0
H1748 H 0.83099 0.62974 0.07562 0.0
H1749 H 0.83489 0.63232 0.04503 0.0
H1750 H 0.87923 0.58519 0.04629 0.0
H1751 H 0.87561 0.58305 0.07686 0.0
H1752 H 0.88991 0.61167 0.02341 0.0
H1753 H 0.82911 0.57651 0.03622 0.0
H1754 H 0.796 0.57173 0.04945 0.0
H1755 H 0.77309 0.62292 0.02296 0.0
H1756 H 0.8062 0.6282 0.00979 0.0
H1757 H 0.88097 0.57717 0.93844 0.0
H1758 H 0.88191 0.58126 0.96904 0.0
H1759 H 0.83911 0.62959 0.96537 0.0
H1760 H 0.83805 0.62526 0.93479 0.0
H1761 H 0.82806 0.60412 0.98937 0.0
H1762 H 0.88953 0.63775 0.9754 0.0
H1763 H 0.92286 0.64125 0.96227 0.0
H1764 H 0.9446 0.59113 0.99078 0.0
H1765 H 0.91131 0.58715 1.00392 0.0
C1766 C 0.84189 0.62032 0.06935 0.0
C1767 C 0.85311 0.60633 0.07858 0.0
C1768 C 0.84399 0.62161 0.05184 0.0
C1769 C 0.85712 0.60868 0.04314 0.0
C1770 C 0.86899 0.59533 0.05255 0.0
C1771 C 0.86696 0.59413 0.07004 0.0
C1772 C 0.85778 0.60829 0.02428 0.0
C1773 C 0.87637 0.60985 0.01601 0.0
C1774 C 0.84017 0.60616 0.01441 0.0
C1775 C 0.82019 0.60287 0.02215 0.0
C1776 C 0.81705 0.58682 0.0333 0.0
C1777 C 0.79829 0.58402 0.04078 0.0
C1778 C 0.78247 0.59704 0.03708 0.0
C1779 C 0.78537 0.61286 0.02584 0.0
C1780 C 0.80413 0.61577 0.01836 0.0
C1781 C 0.87217 0.58897 0.94418 0.0
C1782 C 0.85979 0.60119 0.93421 0.0
C1783 C 0.87265 0.5913 0.96169 0.0
C1784 C 0.86072 0.60589 0.96968 0.0
C1785 C 0.84853 0.61828 0.95963 0.0
C1786 C 0.84809 0.61596 0.94213 0.0
C1787 C 0.86018 0.60758 0.98848 0.0
C1788 C 0.84158 0.60613 0.99676 0.0
C1789 C 0.8778 0.60961 0.99833 0.0
C1790 C 0.89787 0.61205 0.99053 0.0
C1791 C 0.90138 0.62738 0.97878 0.0
C1792 C 0.92027 0.62947 0.97135 0.0
C1793 C 0.93583 0.61639 0.97566 0.0
C1794 C 0.93253 0.60124 0.98744 0.0
C1795 C 0.91366 0.59907 0.9949 0.0
H1796 H 0.95044 0.61803 0.96989 0.0
H1797 H 0.76794 0.59485 0.04288 0.0
H1798 H 0.39516 0.82106 0.57504 0.0
H1799 H 0.39271 0.82434 0.54444 0.0
H1800 H 0.42134 0.88228 0.54721 0.0
H1801 H 0.42338 0.87907 0.57786 0.0
H1802 H 0.39345 0.88316 0.52332 0.0
H1803 H 0.44784 0.83937 0.53696 0.0
H1804 H 0.46435 0.81037 0.55029 0.0
H1805 H 0.42543 0.77024 0.52353 0.0
H1806 H 0.40852 0.79903 0.51017 0.0
H1807 H 0.43064 0.88494 0.43813 0.0
H1808 H 0.42639 0.8853 0.4688 0.0
H1809 H 0.39388 0.82946 0.46606 0.0
H1810 H 0.39806 0.82925 0.43545 0.0
H1811 H 0.42317 0.82798 0.48984 0.0
H1812 H 0.36985 0.87311 0.47523 0.0
H1813 H 0.35481 0.9028 0.46176 0.0
H1814 H 0.39367 0.94131 0.49019 0.0
H1815 H 0.40916 0.91181 0.50366 0.0
C1816 C 0.40045 0.83468 0.56911 0.0
C1817 C 0.40927 0.84989 0.57882 0.0
C1818 C 0.39927 0.83649 0.55159 0.0
C1819 C 0.40717 0.85343 0.54331 0.0
C1820 C 0.41514 0.86905 0.55315 0.0
C1821 C 0.41625 0.86726 0.57069 0.0
C1822 C 0.40805 0.85439 0.52447 0.0
C1823 C 0.40015 0.87117 0.51604 0.0
C1824 C 0.41658 0.83872 0.51476 0.0
C1825 C 0.42678 0.82137 0.52269 0.0
C1826 C 0.44272 0.82437 0.53399 0.0
C1827 C 0.45217 0.80797 0.54154 0.0
C1828 C 0.4459 0.78848 0.5378 0.0
C1829 C 0.43024 0.78535 0.52644 0.0
C1830 C 0.42073 0.8017 0.51886 0.0
C1831 C 0.42218 0.87304 0.44409 0.0
C1832 C 0.41441 0.85723 0.43443 0.0
C1833 C 0.4198 0.87319 0.46162 0.0
C1834 C 0.40973 0.85743 0.46988 0.0
C1835 C 0.40168 0.84181 0.4601 0.0
C1836 C 0.40391 0.84177 0.44259 0.0
C1837 C 0.40841 0.85666 0.48868 0.0
C1838 C 0.41637 0.83993 0.49711 0.0
C1839 C 0.40014 0.87247 0.49835 0.0
C1840 C 0.3908 0.89023 0.49033 0.0
C1841 C 0.37531 0.8879 0.47851 0.0
C1842 C 0.36668 0.9047 0.47089 0.0
C1843 C 0.37332 0.92393 0.47508 0.0
C1844 C 0.38856 0.9264 0.48694 0.0
C1845 C 0.39726 0.90965 0.49458 0.0
H1846 H 0.36662 0.93692 0.46918 0.0
H1847 H 0.45323 0.7758 0.54367 0.0
H1848 H 0.14367 0.58103 0.43729 0.0
H1849 H 0.13951 0.58361 0.46774 0.0
H1850 H 0.18243 0.63206 0.4689 0.0
H1851 H 0.1869 0.62904 0.43836 0.0
H1852 H 0.19067 0.60665 0.49313 0.0
H1853 H 0.13008 0.63902 0.47522 0.0
H1854 H 0.09845 0.64223 0.45939 0.0
H1855 H 0.07502 0.58998 0.48406 0.0
H1856 H 0.10662 0.58629 0.49988 0.0
H1857 H 0.17614 0.62842 0.57906 0.0
H1858 H 0.17514 0.63234 0.54847 0.0
H1859 H 0.1349 0.58184 0.5449 0.0
H1860 H 0.13567 0.57819 0.57556 0.0
H1861 H 0.12478 0.61006 0.52198 0.0
H1862 H 0.18516 0.5766 0.53874 0.0
H1863 H 0.21657 0.57262 0.55474 0.0
H1864 H 0.2403 0.62601 0.53204 0.0
H1865 H 0.20885 0.63051 0.51612 0.0
C1866 C 0.15189 0.59249 0.44404 0.0
C1867 C 0.1654 0.60503 0.43546 0.0
C1868 C 0.14952 0.59399 0.46148 0.0
C1869 C 0.16045 0.60821 0.47081 0.0
C1870 C 0.17374 0.62099 0.46212 0.0
C1871 C 0.17618 0.61941 0.44464 0.0
C1872 C 0.1587 0.60908 0.48961 0.0
C1873 C 0.17625 0.6078 0.49937 0.0
C1874 C 0.1399 0.60997 0.49799 0.0
C1875 C 0.12079 0.61229 0.48864 0.0
C1876 C 0.11823 0.62814 0.4772 0.0
C1877 C 0.1003 0.63006 0.46824 0.0
C1878 C 0.08475 0.61629 0.47069 0.0
C1879 C 0.08708 0.60062 0.48216 0.0
C1880 C 0.10499 0.59863 0.49115 0.0
C1881 C 0.1666 0.61857 0.57176 0.0
C1882 C 0.15571 0.6032 0.57971 0.0
C1883 C 0.16621 0.62064 0.55424 0.0
C1884 C 0.15517 0.60721 0.54421 0.0
C1885 C 0.14354 0.59243 0.55224 0.0
C1886 C 0.14391 0.59038 0.56978 0.0
C1887 C 0.15674 0.60774 0.52541 0.0
C1888 C 0.13919 0.60915 0.51568 0.0
C1889 C 0.17551 0.60686 0.51703 0.0
C1890 C 0.19457 0.604 0.52636 0.0
C1891 C 0.19703 0.58756 0.53723 0.0
C1892 C 0.21484 0.58521 0.54629 0.0
C1893 C 0.23041 0.59908 0.54443 0.0
C1894 C 0.22821 0.61529 0.53348 0.0
C1895 C 0.2104 0.61775 0.52444 0.0
H1896 H 0.24419 0.59724 0.55145 0.0
H1897 H 0.07088 0.61779 0.46373 0.0
H1898 H 0.39128 0.17534 0.93691 0.0
H1899 H 0.3881 0.17265 0.9675 0.0
H1900 H 0.43575 0.1289 0.96828 0.0
H1901 H 0.43879 0.13154 0.93763 0.0
H1902 H 0.40645 0.1193 0.99123 0.0
H1903 H 0.44545 0.17711 0.97682 0.0
H1904 H 0.45244 0.209 0.9623 0.0
H1905 H 0.40175 0.23624 0.98652 0.0
H1906 H 0.39425 0.20439 1.00099 0.0
H1907 H 0.43848 0.13203 0.0767 0.0
H1908 H 0.43524 0.12908 0.04611 0.0
H1909 H 0.38889 0.17422 0.04654 0.0
H1910 H 0.39224 0.17715 0.07713 0.0
H1911 H 0.4163 0.18254 0.02292 0.0
H1912 H 0.37816 0.12459 0.03824 0.0
H1913 H 0.37151 0.0925 0.05255 0.0
H1914 H 0.42115 0.0654 0.02676 0.0
H1915 H 0.42829 0.09743 0.01246 0.0
C1916 C 0.40064 0.16472 0.94358 0.0
C1917 C 0.41505 0.15338 0.93486 0.0
C1918 C 0.39899 0.16334 0.9611 0.0
C1919 C 0.41183 0.15072 0.97036 0.0
C1920 C 0.42562 0.13871 0.96153 0.0
C1921 C 0.42731 0.14015 0.944 0.0
C1922 C 0.41179 0.15104 0.9892 0.0
C1923 C 0.4088 0.1331 0.99814 0.0
C1924 C 0.41454 0.16905 0.99837 0.0
C1925 C 0.41916 0.1883 0.98986 0.0
C1926 C 0.4357 0.18986 0.97897 0.0
C1927 C 0.43977 0.20793 0.97075 0.0
C1928 C 0.42752 0.22462 0.97345 0.0
C1929 C 0.41121 0.22328 0.98442 0.0
C1930 C 0.40704 0.20523 0.99264 0.0
C1931 C 0.42722 0.14088 0.07027 0.0
C1932 C 0.41528 0.15446 0.07933 0.0
C1933 C 0.42541 0.13927 0.05277 0.0
C1934 C 0.4117 0.15133 0.04386 0.0
C1935 C 0.39953 0.16468 0.053 0.0
C1936 C 0.40127 0.1662 0.07052 0.0
C1937 C 0.41083 0.15081 0.02502 0.0
C1938 C 0.41379 0.16873 0.01604 0.0
C1939 C 0.40814 0.13277 0.01585 0.0
C1940 C 0.40388 0.11348 0.0244 0.0
C1941 C 0.38777 0.11184 0.03573 0.0
C1942 C 0.38389 0.09365 0.04382 0.0
C1943 C 0.39593 0.07693 0.0406 0.0
C1944 C 0.41185 0.07837 0.02925 0.0
C1945 C 0.41581 0.09654 0.02114 0.0
H1946 H 0.3929 0.06286 0.04687 0.0
H1947 H 0.43069 0.2386 0.96708 0.0
H1948 H 0.82188 0.39342 0.43927 0.0
H1949 H 0.82531 0.39057 0.46984 0.0
H1950 H 0.88317 0.41946 0.46714 0.0
H1951 H 0.87981 0.42193 0.43652 0.0
H1952 H 0.88422 0.39131 0.49083 0.0
H1953 H 0.84023 0.44575 0.4777 0.0
H1954 H 0.81114 0.46241 0.46461 0.0
H1955 H 0.7711 0.42304 0.49102 0.0
H1956 H 0.79999 0.40601 0.50416 0.0
H1957 H 0.88594 0.42868 0.57598 0.0
H1958 H 0.88634 0.42418 0.54534 0.0
H1959 H 0.83079 0.39114 0.54831 0.0
H1960 H 0.83055 0.39553 0.57889 0.0
H1961 H 0.829 0.42063 0.52458 0.0
H1962 H 0.87437 0.36746 0.53892 0.0
H1963 H 0.90418 0.35244 0.55225 0.0
H1964 H 0.94254 0.39143 0.52377 0.0
H1965 H 0.91292 0.40691 0.51045 0.0
C1966 C 0.83553 0.39866 0.4452 0.0
C1967 C 0.85067 0.40769 0.43553 0.0
C1968 C 0.83742 0.39725 0.46271 0.0
C1969 C 0.85437 0.40513 0.47099 0.0
C1970 C 0.86994 0.41328 0.46118 0.0
C1971 C 0.86807 0.41462 0.44366 0.0
C1972 C 0.85537 0.40583 0.48983 0.0
C1973 C 0.87221 0.39791 0.49817 0.0
C1974 C 0.83969 0.41424 0.49961 0.0
C1975 C 0.82228 0.42447 0.49178 0.0
C1976 C 0.82523 0.44056 0.48063 0.0
C1977 C 0.80877 0.45009 0.47323 0.0
C1978 C 0.78929 0.44374 0.47694 0.0
C1979 C 0.78621 0.42791 0.48813 0.0
C1980 C 0.80261 0.41833 0.49558 0.0
C1981 C 0.87414 0.42001 0.57008 0.0
C1982 C 0.8584 0.41215 0.5798 0.0
C1983 C 0.8743 0.4175 0.55257 0.0
C1984 C 0.85861 0.40724 0.54439 0.0
C1985 C 0.84309 0.39907 0.55422 0.0
C1986 C 0.84304 0.40141 0.57171 0.0
C1987 C 0.85775 0.40596 0.5256 0.0
C1988 C 0.84095 0.4139 0.51725 0.0
C1989 C 0.87357 0.3978 0.51586 0.0
C1990 C 0.89141 0.38848 0.52381 0.0
C1991 C 0.88915 0.37296 0.5356 0.0
C1992 C 0.90602 0.36434 0.54314 0.0
C1993 C 0.92524 0.37101 0.53889 0.0
C1994 C 0.92764 0.38629 0.52707 0.0
C1995 C 0.91081 0.39499 0.51951 0.0
H1996 H 0.93828 0.36432 0.54473 0.0
H1997 H 0.77657 0.45113 0.47118 0.0
H1998 H 0.57385 0.88103 0.07787 0.0
H1999 H 0.57562 0.88398 0.04722 0.0
H2000 H 0.62757 0.8454 0.04675 0.0
H2001 H 0.62585 0.84263 0.07744 0.0
H2002 H 0.63191 0.87471 0.02366 0.0
H2003 H 0.58063 0.82727 0.03794 0.0
H2004 H 0.55003 0.81536 0.0522 0.0
H2005 H 0.51548 0.86129 0.02789 0.0
H2006 H 0.54595 0.87364 0.01363 0.0
H2007 H 0.62518 0.84185 0.93805 0.0
H2008 H 0.62738 0.84529 0.96863 0.0
H2009 H 0.57455 0.88268 0.96828 0.0
H2010 H 0.57234 0.87907 0.93769 0.0
H2011 H 0.57104 0.85506 0.99184 0.0
H2012 H 0.62271 0.90158 0.97655 0.0
H2013 H 0.65356 0.91282 0.96227 0.0
H2014 H 0.68764 0.86791 0.98831 0.0
H2015 H 0.65693 0.8562 1.00258 0.0
C2016 C 0.58591 0.87358 0.07122 0.0
C2017 C 0.5999 0.86188 0.08007 0.0
C2018 C 0.58682 0.87509 0.05367 0.0
C2019 C 0.60159 0.8647 0.04449 0.0
C2020 C 0.61605 0.85362 0.05342 0.0
C2021 C 0.61514 0.85211 0.07099 0.0
C2022 C 0.60133 0.86456 0.02564 0.0
C2023 C 0.61865 0.87021 0.01672 0.0
C2024 C 0.58399 0.85901 0.01641 0.0
C2025 C 0.56561 0.8515 0.02484 0.0
C2026 C 0.56653 0.83491 0.03571 0.0
C2027 C 0.54921 0.82806 0.04378 0.0
C2028 C 0.53083 0.8376 0.04099 0.0
C2029 C 0.52973 0.85394 0.03006 0.0
C2030 C 0.54702 0.86086 0.02197 0.0
C2031 C 0.61441 0.85129 0.94447 0.0
C2032 C 0.59887 0.86061 0.93543 0.0
C2033 C 0.6156 0.85319 0.962 0.0
C2034 C 0.60124 0.86443 0.97094 0.0
C2035 C 0.58588 0.87398 0.96181 0.0
C2036 C 0.58471 0.87209 0.94429 0.0
C2037 C 0.60159 0.86535 0.98979 0.0
C2038 C 0.58428 0.85971 0.99873 0.0
C2039 C 0.61897 0.87082 0.99901 0.0
C2040 C 0.63748 0.8779 0.99052 0.0
C2041 C 0.63676 0.894 0.97914 0.0
C2042 C 0.65422 0.90047 0.97106 0.0
C2043 C 0.67254 0.89105 0.97435 0.0
C2044 C 0.67344 0.87518 0.98576 0.0
C2045 C 0.65601 0.86863 0.99386 0.0
H2046 H 0.68604 0.89609 0.96808 0.0
H2047 H 0.51744 0.83228 0.04726 0.0
H2048 H 0.22921 0.34684 0.13013 0.0
H2049 H 0.25591 0.32181 0.13043 0.0
H2050 H 0.29628 0.36497 0.15238 0.0
H2051 H 0.26961 0.39035 0.15162 0.0
H2052 H 0.31721 0.34436 0.13191 0.0
H2053 H 0.27232 0.32364 0.17513 0.0
H2054 H 0.23993 0.31432 0.18794 0.0
H2055 H 0.23428 0.26504 0.15363 0.0
H2056 H 0.26652 0.27422 0.14046 0.0
H2057 H 0.38927 0.26851 0.15622 0.0
H2058 H 0.36363 0.295 0.15683 0.0
H2059 H 0.32407 0.25785 0.1275 0.0
H2060 H 0.34951 0.23141 0.12688 0.0
H2061 H 0.3035 0.27576 0.15299 0.0
H2062 H 0.34925 0.29764 0.10997 0.0
H2063 H 0.38226 0.30716 0.09844 0.0
H2064 H 0.38702 0.35464 0.13458 0.0
H2065 H 0.35415 0.34521 0.14648 0.0
C2066 C 0.24371 0.35108 0.13515 0.0
C2067 C 0.24696 0.37078 0.14101 0.0
C2068 C 0.25911 0.33658 0.13538 0.0
C2069 C 0.27832 0.34101 0.14183 0.0
C2070 C 0.28175 0.36083 0.14738 0.0
C2071 C 0.26638 0.37546 0.14693 0.0
C2072 C 0.29468 0.32509 0.14269 0.0
C2073 C 0.31416 0.3295 0.13679 0.0
C2074 C 0.29111 0.30535 0.14881 0.0
C2075 C 0.27174 0.29974 0.15671 0.0
C2076 C 0.2641 0.3109 0.17024 0.0
C2077 C 0.24578 0.30563 0.17758 0.0
C2078 C 0.23503 0.28913 0.17157 0.0
C2079 C 0.24261 0.27783 0.15825 0.0
C2080 C 0.26091 0.28305 0.15086 0.0
C2081 C 0.37509 0.26589 0.14995 0.0
C2082 C 0.37172 0.24766 0.1414 0.0
C2083 C 0.3604 0.2812 0.1502 0.0
C2084 C 0.34174 0.27873 0.14208 0.0
C2085 C 0.33822 0.26039 0.13385 0.0
C2086 C 0.35296 0.24522 0.1334 0.0
C2087 C 0.32586 0.29505 0.14213 0.0
C2088 C 0.30649 0.29069 0.14819 0.0
C2089 C 0.32962 0.31487 0.13639 0.0
C2090 C 0.34935 0.32058 0.12923 0.0
C2091 C 0.35742 0.31 0.11555 0.0
C2092 C 0.37608 0.3154 0.10893 0.0
C2093 C 0.38676 0.33146 0.11581 0.0
C2094 C 0.37875 0.34218 0.12929 0.0
C2095 C 0.3601 0.33682 0.13597 0.0
H2096 H 0.40121 0.33562 0.11066 0.0
H2097 H 0.22086 0.28507 0.17727 0.0
H2098 H 0.78608 0.3471 0.62914 0.0
H2099 H 0.75976 0.32168 0.62967 0.0
H2100 H 0.72132 0.36203 0.65709 0.0
H2101 H 0.74812 0.38737 0.65711 0.0
H2102 H 0.71464 0.32719 0.66888 0.0
H2103 H 0.7164 0.35019 0.61224 0.0
H2104 H 0.73154 0.35863 0.58492 0.0
H2105 H 0.74996 0.29741 0.57852 0.0
H2106 H 0.73516 0.28865 0.60592 0.0
H2107 H 0.6261 0.26757 0.65258 0.0
H2108 H 0.65105 0.2947 0.65278 0.0
H2109 H 0.6953 0.2544 0.63241 0.0
H2110 H 0.67048 0.22738 0.63203 0.0
H2111 H 0.69748 0.29036 0.61683 0.0
H2112 H 0.69528 0.26821 0.6743 0.0
H2113 H 0.67893 0.26061 0.70131 0.0
H2114 H 0.65938 0.32178 0.70537 0.0
H2115 H 0.6754 0.32968 0.67827 0.0
C2116 C 0.772 0.3507 0.63523 0.0
C2117 C 0.76933 0.36957 0.64291 0.0
C2118 C 0.75677 0.33605 0.63546 0.0
C2119 C 0.73799 0.33981 0.64301 0.0
C2120 C 0.73544 0.3585 0.65105 0.0
C2121 C 0.75086 0.3731 0.65106 0.0
C2122 C 0.72126 0.32426 0.64255 0.0
C2123 C 0.71076 0.31944 0.65737 0.0
C2124 C 0.71599 0.31362 0.62772 0.0
C2125 C 0.72483 0.3188 0.6112 0.0
C2126 C 0.72379 0.33855 0.60506 0.0
C2127 C 0.7323 0.34339 0.58955 0.0
C2128 C 0.74175 0.32857 0.58001 0.0
C2129 C 0.74266 0.30887 0.58594 0.0
C2130 C 0.7342 0.30396 0.60144 0.0
C2131 C 0.64109 0.26445 0.64804 0.0
C2132 C 0.6461 0.24502 0.6424 0.0
C2133 C 0.65549 0.28003 0.64829 0.0
C2134 C 0.67536 0.27678 0.64278 0.0
C2135 C 0.68024 0.25751 0.63681 0.0
C2136 C 0.66595 0.24192 0.63673 0.0
C2137 C 0.69106 0.29326 0.64313 0.0
C2138 C 0.70135 0.29822 0.62828 0.0
C2139 C 0.69592 0.30419 0.65787 0.0
C2140 C 0.68635 0.29948 0.67417 0.0
C2141 C 0.68736 0.28 0.68089 0.0
C2142 C 0.67818 0.27565 0.69623 0.0
C2143 C 0.66808 0.29069 0.70503 0.0
C2144 C 0.66719 0.31013 0.69853 0.0
C2145 C 0.67632 0.31456 0.68319 0.0
H2146 H 0.66098 0.28729 0.7169 0.0
H2147 H 0.74833 0.33235 0.56801 0.0
H2148 H 0.78226 0.66201 0.16549 0.0
H2149 H 0.75581 0.6874 0.16572 0.0
H2150 H 0.73057 0.66196 0.12078 0.0
H2151 H 0.75734 0.63675 0.12023 0.0
H2152 H 0.73035 0.70199 0.11832 0.0
H2153 H 0.70871 0.65553 0.16062 0.0
H2154 H 0.71204 0.63512 0.18625 0.0
H2155 H 0.72219 0.68837 0.2153 0.0
H2156 H 0.71918 0.70909 0.18979 0.0
H2157 H 0.63867 0.75686 0.11965 0.0
H2158 H 0.66418 0.73056 0.11992 0.0
H2159 H 0.68622 0.75244 0.16731 0.0
H2160 H 0.66037 0.77859 0.16725 0.0
H2161 H 0.68821 0.71407 0.16854 0.0
H2162 H 0.71069 0.76064 0.12697 0.0
H2163 H 0.7083 0.7817 0.10163 0.0
H2164 H 0.69794 0.72931 0.07156 0.0
H2165 H 0.70001 0.70796 0.09677 0.0
C2166 C 0.7712 0.66177 0.15555 0.0
C2167 C 0.77222 0.64705 0.14283 0.0
C2168 C 0.75582 0.67631 0.1558 0.0
C2169 C 0.74078 0.67673 0.14337 0.0
C2170 C 0.74179 0.66214 0.1306 0.0
C2171 C 0.75713 0.64751 0.13039 0.0
C2172 C 0.72426 0.69244 0.14357 0.0
C2173 C 0.72098 0.70437 0.12925 0.0
C2174 C 0.71217 0.69626 0.15791 0.0
C2175 C 0.71391 0.68384 0.17326 0.0
C2176 C 0.7118 0.66288 0.17245 0.0
C2177 C 0.7136 0.65126 0.18696 0.0
C2178 C 0.71737 0.66044 0.20239 0.0
C2179 C 0.71929 0.68128 0.20334 0.0
C2180 C 0.71752 0.69297 0.18886 0.0
C2181 C 0.64897 0.75622 0.13014 0.0
C2182 C 0.64732 0.77019 0.14337 0.0
C2183 C 0.66375 0.74108 0.13025 0.0
C2184 C 0.67776 0.73947 0.14345 0.0
C2185 C 0.67584 0.75312 0.15688 0.0
C2186 C 0.6609 0.76816 0.15685 0.0
C2187 C 0.69425 0.72366 0.14326 0.0
C2188 C 0.69756 0.71172 0.15758 0.0
C2189 C 0.7065 0.71995 0.12897 0.0
C2190 C 0.7053 0.73273 0.11378 0.0
C2191 C 0.70776 0.75363 0.11497 0.0
C2192 C 0.70648 0.76562 0.10063 0.0
C2193 C 0.70292 0.75686 0.085 0.0
C2194 C 0.70067 0.73608 0.08368 0.0
C2195 C 0.70191 0.72403 0.09799 0.0
H2196 H 0.70193 0.76616 0.07391 0.0
H2197 H 0.71877 0.65142 0.21361 0.0
H2198 H 0.24043 0.65686 0.66762 0.0
H2199 H 0.26671 0.68258 0.66827 0.0
H2200 H 0.2858 0.66511 0.61879 0.0
H2201 H 0.25984 0.63915 0.61817 0.0
H2202 H 0.31818 0.67229 0.63793 0.0
H2203 H 0.25728 0.7081 0.62595 0.0
H2204 H 0.22237 0.71893 0.63081 0.0
H2205 H 0.23936 0.74422 0.67823 0.0
H2206 H 0.27434 0.7333 0.67375 0.0
H2207 H 0.37951 0.75774 0.61986 0.0
H2208 H 0.35427 0.73108 0.61997 0.0
H2209 H 0.33117 0.75304 0.66698 0.0
H2210 H 0.35612 0.77995 0.66674 0.0
H2211 H 0.30078 0.74326 0.64938 0.0
H2212 H 0.36137 0.70772 0.66193 0.0
H2213 H 0.39631 0.69657 0.65778 0.0
H2214 H 0.38022 0.67038 0.61048 0.0
H2215 H 0.34522 0.6816 0.61425 0.0
C2216 C 0.25032 0.65827 0.65691 0.0
C2217 C 0.24771 0.64575 0.64281 0.0
C2218 C 0.26532 0.67324 0.65723 0.0
C2219 C 0.27832 0.67622 0.64348 0.0
C2220 C 0.27608 0.66339 0.62958 0.0
C2221 C 0.261 0.64854 0.6292 0.0
C2222 C 0.29406 0.69268 0.64349 0.0
C2223 C 0.31427 0.68784 0.64024 0.0
C2224 C 0.28938 0.71306 0.64689 0.0
C2225 C 0.26838 0.7197 0.64959 0.0
C2226 C 0.25354 0.71583 0.63747 0.0
C2227 C 0.23374 0.72201 0.64015 0.0
C2228 C 0.22864 0.73221 0.65484 0.0
C2229 C 0.24333 0.7363 0.66687 0.0
C2230 C 0.26315 0.73013 0.66426 0.0
C2231 C 0.36923 0.75683 0.63035 0.0
C2232 C 0.37012 0.7712 0.64331 0.0
C2233 C 0.35469 0.74142 0.63042 0.0
C2234 C 0.34069 0.73953 0.64363 0.0
C2235 C 0.34156 0.7539 0.65656 0.0
C2236 C 0.35596 0.76943 0.65641 0.0
C2237 C 0.32502 0.72292 0.64386 0.0
C2238 C 0.30478 0.72773 0.64712 0.0
C2239 C 0.32971 0.70247 0.6406 0.0
C2240 C 0.35072 0.69567 0.6383 0.0
C2241 C 0.36531 0.6997 0.65059 0.0
C2242 C 0.38513 0.69335 0.64831 0.0
C2243 C 0.3905 0.68282 0.63385 0.0
C2244 C 0.37605 0.67857 0.62166 0.0
C2245 C 0.35622 0.6849 0.62387 0.0
H2246 H 0.40584 0.67792 0.63211 0.0
H2247 H 0.21331 0.73698 0.65689 0.0
H2248 H 0.38703 0.74885 0.35567 0.0
H2249 H 0.36182 0.72208 0.35547 0.0
H2250 H 0.32235 0.75886 0.38529 0.0
H2251 H 0.34777 0.78524 0.38601 0.0
H2252 H 0.31835 0.72423 0.39662 0.0
H2253 H 0.3168 0.74774 0.33987 0.0
H2254 H 0.33053 0.75651 0.31211 0.0
H2255 H 0.35026 0.69577 0.30521 0.0
H2256 H 0.33686 0.68669 0.33304 0.0
H2257 H 0.22741 0.66996 0.38198 0.0
H2258 H 0.25425 0.69499 0.3816 0.0
H2259 H 0.29484 0.65134 0.36077 0.0
H2260 H 0.26789 0.62615 0.361 0.0
H2261 H 0.29889 0.68807 0.34482 0.0
H2262 H 0.29818 0.66511 0.40189 0.0
H2263 H 0.28275 0.65734 0.42923 0.0
H2264 H 0.26518 0.71892 0.43484 0.0
H2265 H 0.28027 0.72701 0.40741 0.0
C2266 C 0.37293 0.75133 0.3621 0.0
C2267 C 0.36966 0.7694 0.37088 0.0
C2268 C 0.35834 0.73592 0.36192 0.0
C2269 C 0.33968 0.73821 0.37016 0.0
C2270 C 0.33643 0.75633 0.37885 0.0
C2271 C 0.35111 0.77156 0.37925 0.0
C2272 C 0.32372 0.72182 0.37006 0.0
C2273 C 0.31401 0.71662 0.38517 0.0
C2274 C 0.31796 0.7112 0.35533 0.0
C2275 C 0.32602 0.7166 0.33861 0.0
C2276 C 0.32419 0.73629 0.33248 0.0
C2277 C 0.33189 0.74131 0.31673 0.0
C2278 C 0.34131 0.72672 0.30692 0.0
C2279 C 0.34299 0.70707 0.31284 0.0
C2280 C 0.33534 0.70197 0.32859 0.0
C2281 C 0.24198 0.66559 0.37721 0.0
C2282 C 0.24524 0.6458 0.3715 0.0
C2283 C 0.25748 0.68 0.37712 0.0
C2284 C 0.27686 0.67526 0.37126 0.0
C2285 C 0.28015 0.65558 0.36539 0.0
C2286 C 0.26468 0.64105 0.36566 0.0
C2287 C 0.29352 0.69079 0.3713 0.0
C2288 C 0.30332 0.69576 0.35622 0.0
C2289 C 0.29917 0.70142 0.38599 0.0
C2290 C 0.2902 0.69662 0.40253 0.0
C2291 C 0.2909 0.67696 0.4089 0.0
C2292 C 0.28224 0.67251 0.42442 0.0
C2293 C 0.27295 0.68762 0.43375 0.0
C2294 C 0.27236 0.70723 0.42759 0.0
C2295 C 0.28098 0.71176 0.41207 0.0
H2296 H 0.26625 0.68414 0.44577 0.0
H2297 H 0.34726 0.73064 0.29473 0.0
H2298 H 0.37897 0.25912 0.89693 0.0
H2299 H 0.35337 0.28529 0.89589 0.0
H2300 H 0.33753 0.26722 0.84575 0.0
H2301 H 0.36327 0.24101 0.84667 0.0
H2302 H 0.33612 0.30635 0.84692 0.0
H2303 H 0.30816 0.25532 0.88201 0.0
H2304 H 0.30712 0.2315 0.90565 0.0
H2305 H 0.31242 0.28027 0.94051 0.0
H2306 H 0.31377 0.30437 0.91706 0.0
H2307 H 0.24251 0.3603 0.84533 0.0
H2308 H 0.26889 0.33477 0.84486 0.0
H2309 H 0.28707 0.35203 0.89464 0.0
H2310 H 0.26087 0.37762 0.89517 0.0
H2311 H 0.28681 0.31283 0.89316 0.0
H2312 H 0.31488 0.36384 0.85764 0.0
H2313 H 0.31554 0.38734 0.83376 0.0
H2314 H 0.30936 0.33814 0.79943 0.0
H2315 H 0.3084 0.31435 0.82313 0.0
C2316 C 0.37 0.26052 0.88567 0.0
C2317 C 0.37334 0.24757 0.87194 0.0
C2318 C 0.35521 0.27562 0.88509 0.0
C2319 C 0.34295 0.27827 0.87085 0.0
C2320 C 0.34657 0.2657 0.85696 0.0
C2321 C 0.36146 0.25063 0.85749 0.0
C2322 C 0.32643 0.29397 0.8705 0.0
C2323 C 0.32521 0.30751 0.85696 0.0
C2324 C 0.31214 0.29606 0.88364 0.0
C2325 C 0.31126 0.28163 0.89777 0.0
C2326 C 0.30925 0.26095 0.89471 0.0
C2327 C 0.30858 0.2474 0.90808 0.0
C2328 C 0.30976 0.25436 0.92457 0.0
C2329 C 0.31154 0.2749 0.92773 0.0
C2330 C 0.31224 0.28851 0.91441 0.0
C2331 C 0.25225 0.35895 0.85612 0.0
C2332 C 0.24924 0.3713 0.87029 0.0
C2333 C 0.26745 0.34419 0.85585 0.0
C2334 C 0.28036 0.3413 0.86967 0.0
C2335 C 0.27744 0.35365 0.88378 0.0
C2336 C 0.26226 0.36838 0.88408 0.0
C2337 C 0.29659 0.3253 0.86965 0.0
C2338 C 0.29773 0.31167 0.88312 0.0
C2339 C 0.31073 0.32309 0.85641 0.0
C2340 C 0.31136 0.33734 0.84216 0.0
C2341 C 0.31351 0.35805 0.845 0.0
C2342 C 0.31397 0.37141 0.8315 0.0
C2343 C 0.31244 0.36424 0.81509 0.0
C2344 C 0.31051 0.34367 0.81215 0.0
C2345 C 0.31003 0.33024 0.82561 0.0
H2346 H 0.31279 0.37462 0.80466 0.0
H2347 H 0.30924 0.24385 0.9349 0.0
H2348 H 0.6543 0.24216 0.34656 0.0
H2349 H 0.68032 0.26813 0.34609 0.0
H2350 H 0.66533 0.28453 0.39679 0.0
H2351 H 0.63927 0.25882 0.39733 0.0
H2352 H 0.68237 0.3075 0.3485 0.0
H2353 H 0.70655 0.30071 0.41803 0.0
H2354 H 0.70785 0.27513 0.44037 0.0
H2355 H 0.71075 0.22851 0.40332 0.0
H2356 H 0.70975 0.25381 0.38079 0.0
H2357 H 0.74702 0.39045 0.36755 0.0
H2358 H 0.72017 0.36543 0.36758 0.0
H2359 H 0.76364 0.31872 0.37621 0.0
H2360 H 0.79037 0.34366 0.37703 0.0
H2361 H 0.73307 0.30995 0.39396 0.0
H2362 H 0.73971 0.32847 0.33626 0.0
H2363 H 0.74084 0.35147 0.31206 0.0
H2364 H 0.68047 0.37041 0.32233 0.0
H2365 H 0.67908 0.34768 0.34673 0.0
C2366 C 0.65629 0.25139 0.35759 0.0
C2367 C 0.64451 0.24795 0.37205 0.0
C2368 C 0.67136 0.26633 0.35732 0.0
C2369 C 0.67531 0.27834 0.3715 0.0
C2370 C 0.66317 0.27533 0.38575 0.0
C2371 C 0.64814 0.26043 0.38604 0.0
C2372 C 0.69216 0.29372 0.37149 0.0
C2373 C 0.69337 0.30802 0.35851 0.0
C2374 C 0.70702 0.29447 0.38427 0.0
C2375 C 0.70786 0.27916 0.39773 0.0
C2376 C 0.70754 0.285 0.41466 0.0
C2377 C 0.70821 0.27055 0.42735 0.0
C2378 C 0.70931 0.2502 0.42327 0.0
C2379 C 0.70982 0.24427 0.40648 0.0
C2380 C 0.70918 0.25866 0.39374 0.0
C2381 C 0.75098 0.37491 0.36963 0.0
C2382 C 0.77125 0.3694 0.37217 0.0
C2383 C 0.73548 0.36043 0.36943 0.0
C2384 C 0.73959 0.33983 0.37161 0.0
C2385 C 0.75975 0.33434 0.37439 0.0
C2386 C 0.77522 0.34878 0.37466 0.0
C2387 C 0.7231 0.32404 0.37114 0.0
C2388 C 0.72199 0.30958 0.38401 0.0
C2389 C 0.70859 0.3229 0.35808 0.0
C2390 C 0.70937 0.33652 0.34341 0.0
C2391 C 0.72673 0.33764 0.33342 0.0
C2392 C 0.72741 0.35061 0.31966 0.0
C2393 C 0.71076 0.36244 0.31569 0.0
C2394 C 0.69337 0.36127 0.32544 0.0
C2395 C 0.69262 0.34833 0.33923 0.0
H2396 H 0.71132 0.37247 0.30503 0.0
H2397 H 0.7098 0.23904 0.43311 0.0
H2398 H 0.75804 0.63848 0.89567 0.0
H2399 H 0.73194 0.6641 0.89503 0.0
H2400 H 0.7485 0.67943 0.84442 0.0
H2401 H 0.77531 0.65431 0.8452 0.0
H2402 H 0.74141 0.71285 0.86074 0.0
H2403 H 0.70427 0.65182 0.85496 0.0
H2404 H 0.69334 0.61761 0.86237 0.0
H2405 H 0.6718 0.63882 0.9099 0.0
H2406 H 0.68285 0.67313 0.90286 0.0
H2407 H 0.65485 0.77421 0.84607 0.0
H2408 H 0.68017 0.74768 0.84488 0.0
H2409 H 0.66579 0.73054 0.89556 0.0
H2410 H 0.63996 0.7565 0.89663 0.0
H2411 H 0.67158 0.69781 0.87823 0.0
H2412 H 0.70944 0.75863 0.88427 0.0
H2413 H 0.72044 0.79284 0.87691 0.0
H2414 H 0.74057 0.77197 0.82885 0.0
H2415 H 0.72945 0.73767 0.83584 0.0
C2416 C 0.75635 0.64732 0.88437 0.0
C2417 C 0.76912 0.64405 0.87049 0.0
C2418 C 0.74109 0.66195 0.88396 0.0
C2419 C 0.73777 0.67381 0.86959 0.0
C2420 C 0.75047 0.67061 0.8557 0.0
C2421 C 0.76579 0.65597 0.8561 0.0
C2422 C 0.72136 0.68962 0.86919 0.0
C2423 C 0.72609 0.70939 0.86432 0.0
C2424 C 0.70127 0.6856 0.87419 0.0
C2425 C 0.69456 0.66501 0.87844 0.0
C2426 C 0.69733 0.64916 0.86704 0.0
C2427 C 0.6911 0.62976 0.87117 0.0
C2428 C 0.68193 0.62604 0.88661 0.0
C2429 C 0.67893 0.64172 0.89795 0.0
C2430 C 0.68516 0.66115 0.89389 0.0
C2431 C 0.65682 0.7647 0.85695 0.0
C2432 C 0.64514 0.76787 0.87149 0.0
C2433 C 0.67162 0.74956 0.85632 0.0
C2434 C 0.67541 0.73704 0.87023 0.0
C2435 C 0.66348 0.73988 0.88462 0.0
C2436 C 0.6487 0.75501 0.88526 0.0
C2437 C 0.69164 0.72105 0.86985 0.0
C2438 C 0.68689 0.70125 0.87459 0.0
C2439 C 0.7117 0.72505 0.86473 0.0
C2440 C 0.71842 0.74563 0.86051 0.0
C2441 C 0.71608 0.76137 0.87208 0.0
C2442 C 0.72235 0.78077 0.86798 0.0
C2443 C 0.73114 0.78459 0.8524 0.0
C2444 C 0.73373 0.769 0.8409 0.0
C2445 C 0.72745 0.74957 0.84493 0.0
H2446 H 0.736 0.79962 0.84925 0.0
H2447 H 0.67711 0.61101 0.88978 0.0
loop_
_geom_bond_atom_site_label_1
_geom_bond_atom_site_label_2
_geom_bond_distance
_geom_bond_site_symmetry_2
_ccdc_geom_bond_type
C0 C1 1.443 . S
C0 N4 1.376 . S
C0 C38 1.389 . S
C1 C0 1.443 . S
C1 C2 1.340 . S
C1 H41 0.951 . S
C2 C1 1.340 . S
C2 C3 1.439 . S
C2 H42 0.950 . S
C3 C2 1.439 . S
C3 N4 1.374 . S
C3 C37 1.395 . S
N4 C0 1.376 . S
N4 C3 1.374 . S
N4 Co5 2.008 . S
Co5 N4 2.008 . S
Co5 N6 1.995 . S
Co5 N11 2.008 . S
Co5 N16 1.995 . S
Co5 N21 2.282 . S
Co5 N27 2.282 . S
N6 Co5 1.995 . S
N6 C7 1.376 . S
N6 C10 1.383 . S
C7 N6 1.376 . S
C7 C8 1.446 . S
C7 C37 1.391 . S
C8 C7 1.446 . S
C8 C9 1.339 . S
C8 H43 0.949 . S
C9 C8 1.339 . S
C9 C10 1.439 . S
C9 H44 0.950 . S
C10 N6 1.383 . S
C10 C9 1.439 . S
C10 C39 1.392 . S
N11 Co5 2.008 . S
N11 C12 1.376 . S
N11 C15 1.374 . S
C12 N11 1.376 . S
C12 C13 1.443 . S
C12 C39 1.389 . S
C13 C12 1.443 . S
C13 C14 1.340 . S
C13 H45 0.951 . S
C14 C13 1.340 . S
C14 C15 1.439 . S
C14 H46 0.950 . S
C15 N11 1.374 . S
C15 C14 1.439 . S
C15 C40 1.395 . S
N16 Co5 1.995 . S
N16 C17 1.376 . S
N16 C20 1.383 . S
C17 N16 1.376 . S
C17 C18 1.446 . S
C17 C40 1.391 . S
C18 C17 1.446 . S
C18 C19 1.339 . S
C18 H47 0.949 . S
C19 C18 1.339 . S
C19 C20 1.439 . S
C19 H48 0.950 . S
C20 N16 1.383 . S
C20 C19 1.439 . S
C20 C38 1.392 . S
N21 Co5 2.282 . S
N21 C24 1.332 . S
N21 C26 1.332 . S
C22 C23 1.386 . S
C22 C25 1.388 . S
C23 C22 1.386 . S
C23 C24 1.382 . S
C23 H49 0.950 . S
C24 N21 1.332 . S
C24 C23 1.382 . S
C24 H35 0.952 . S
C25 C22 1.388 . S
C25 C26 1.382 . S
C25 H50 0.950 . S
C26 N21 1.332 . S
C26 C25 1.382 . S
C26 H36 0.948 . S
N27 Co5 2.282 . S
N27 C31 1.332 . S
N27 C32 1.332 . S
C28 C29 1.388 . S
C28 C32 1.382 . S
C28 H51 0.950 . S
C29 C28 1.388 . S
C29 C30 1.386 . S
C30 C29 1.386 . S
C30 C31 1.382 . S
C30 H52 0.950 . S
C31 N27 1.332 . S
C31 C30 1.382 . S
C31 H33 0.952 . S
C32 N27 1.332 . S
C32 C28 1.382 . S
C32 H34 0.948 . S
H33 C31 0.952 . S
H34 C32 0.948 . S
H35 C24 0.952 . S
H36 C26 0.948 . S
C37 C3 1.395 . S
C37 C7 1.391 . S
C38 C0 1.389 . S
C38 C20 1.392 . S
C39 C10 1.392 . S
C39 C12 1.389 . S
C40 C15 1.395 . S
C40 C17 1.391 . S
H41 C1 0.951 . S
H42 C2 0.950 . S
H43 C8 0.949 . S
H44 C9 0.950 . S
H45 C13 0.951 . S
H46 C14 0.950 . S
H47 C18 0.949 . S
H48 C19 0.950 . S
H49 C23 0.950 . S
H50 C25 0.950 . S
H51 C28 0.950 . S
H52 C30 0.950 . S
C53 C54 1.443 . S
C53 N57 1.376 . S
C53 C91 1.389 . S
C54 C53 1.443 . S
C54 C55 1.340 . S
C54 H94 0.951 . S
C55 C54 1.340 . S
C55 C56 1.439 . S
C55 H95 0.950 . S
C56 C55 1.439 . S
C56 N57 1.374 . S
C56 C90 1.395 . S
N57 C53 1.376 . S
N57 C56 1.374 . S
N57 Co58 2.008 . S
Co58 N57 2.008 . S
Co58 N59 1.995 . S
Co58 N64 2.008 . S
Co58 N69 1.995 . S
Co58 N74 2.282 . S
Co58 N80 2.282 . S
N59 Co58 1.995 . S
N59 C60 1.376 . S
N59 C63 1.383 . S
C60 N59 1.376 . S
C60 C61 1.446 . S
C60 C90 1.391 . S
C61 C60 1.446 . S
C61 C62 1.339 . S
C61 H96 0.949 . S
C62 C61 1.339 . S
C62 C63 1.439 . S
C62 H97 0.950 . S
C63 N59 1.383 . S
C63 C62 1.439 . S
C63 C92 1.392 . S
N64 Co58 2.008 . S
N64 C65 1.376 . S
N64 C68 1.374 . S
C65 N64 1.376 . S
C65 C66 1.443 . S
C65 C92 1.389 . S
C66 C65 1.443 . S
C66 C67 1.340 . S
C66 H98 0.951 . S
C67 C66 1.340 . S
C67 C68 1.439 . S
C67 H99 0.950 . S
C68 N64 1.374 . S
C68 C67 1.439 . S
C68 C93 1.395 . S
N69 Co58 1.995 . S
N69 C70 1.376 . S
N69 C73 1.383 . S
C70 N69 1.376 . S
C70 C71 1.446 . S
C70 C93 1.391 . S
C71 C70 1.446 . S
C71 C72 1.339 . S
C71 H100 0.949 . S
C72 C71 1.339 . S
C72 C73 1.439 . S
C72 H101 0.950 . S
C73 N69 1.383 . S
C73 C72 1.439 . S
C73 C91 1.392 . S
N74 Co58 2.282 . S
N74 C77 1.332 . S
N74 C79 1.332 . S
C75 C76 1.386 . S
C75 C78 1.388 . S
C76 C75 1.386 . S
C76 C77 1.382 . S
C76 H102 0.950 . S
C77 N74 1.332 . S
C77 C76 1.382 . S
C77 H88 0.952 . S
C78 C75 1.388 . S
C78 C79 1.382 . S
C78 H103 0.950 . S
C79 N74 1.332 . S
C79 C78 1.382 . S
C79 H89 0.948 . S
N80 Co58 2.282 . S
N80 C84 1.332 . S
N80 C85 1.332 . S
C81 C82 1.388 . S
C81 C85 1.382 . S
C81 H104 0.950 . S
C82 C81 1.388 . S
C82 C83 1.386 . S
C83 C82 1.386 . S
C83 C84 1.382 . S
C83 H105 0.950 . S
C84 N80 1.332 . S
C84 C83 1.382 . S
C84 H86 0.952 . S
C85 N80 1.332 . S
C85 C81 1.382 . S
C85 H87 0.948 . S
H86 C84 0.952 . S
H87 C85 0.948 . S
H88 C77 0.952 . S
H89 C79 0.948 . S
C90 C56 1.395 . S
C90 C60 1.391 . S
C91 C53 1.389 . S
C91 C73 1.392 . S
C92 C63 1.392 . S
C92 C65 1.389 . S
C93 C68 1.395 . S
C93 C70 1.391 . S
H94 C54 0.951 . S
H95 C55 0.950 . S
H96 C61 0.949 . S
H97 C62 0.950 . S
H98 C66 0.951 . S
H99 C67 0.950 . S
H100 C71 0.949 . S
H101 C72 0.950 . S
H102 C76 0.950 . S
H103 C78 0.950 . S
H104 C81 0.950 . S
H105 C83 0.950 . S
C106 C107 1.443 . S
C106 N110 1.376 . S
C106 C144 1.389 . S
C107 C106 1.443 . S
C107 C108 1.340 . S
C107 H147 0.951 . S
C108 C107 1.340 . S
C108 C109 1.439 . S
C108 H148 0.950 . S
C109 C108 1.439 . S
C109 N110 1.374 . S
C109 C143 1.395 . S
N110 C106 1.376 . S
N110 C109 1.374 . S
N110 Co111 2.008 . S
Co111 N110 2.008 . S
Co111 N112 1.995 . S
Co111 N117 2.008 . S
Co111 N122 1.995 . S
Co111 N127 2.282 . S
Co111 N133 2.282 . S
N112 Co111 1.995 . S
N112 C113 1.376 . S
N112 C116 1.383 . S
C113 N112 1.376 . S
C113 C114 1.446 . S
C113 C143 1.391 . S
C114 C113 1.446 . S
C114 C115 1.339 . S
C114 H149 0.949 . S
C115 C114 1.339 . S
C115 C116 1.439 . S
C115 H150 0.950 . S
C116 N112 1.383 . S
C116 C115 1.439 . S
C116 C145 1.392 . S
N117 Co111 2.008 . S
N117 C118 1.376 . S
N117 C121 1.374 . S
C118 N117 1.376 . S
C118 C119 1.443 . S
C118 C145 1.389 . S
C119 C118 1.443 . S
C119 C120 1.340 . S
C119 H151 0.951 . S
C120 C119 1.340 . S
C120 C121 1.439 . S
C120 H152 0.950 . S
C121 N117 1.374 . S
C121 C120 1.439 . S
C121 C146 1.395 . S
N122 Co111 1.995 . S
N122 C123 1.376 . S
N122 C126 1.383 . S
C123 N122 1.376 . S
C123 C124 1.446 . S
C123 C146 1.391 . S
C124 C123 1.446 . S
C124 C125 1.339 . S
C124 H153 0.949 . S
C125 C124 1.339 . S
C125 C126 1.439 . S
C125 H154 0.950 . S
C126 N122 1.383 . S
C126 C125 1.439 . S
C126 C144 1.392 . S
N127 Co111 2.282 . S
N127 C130 1.332 . S
N127 C132 1.332 . S
C128 C129 1.386 . S
C128 C131 1.388 . S
C129 C128 1.386 . S
C129 C130 1.382 . S
C129 H155 0.950 . S
C130 N127 1.332 . S
C130 C129 1.382 . S
C130 H141 0.952 . S
C131 C128 1.388 . S
C131 C132 1.382 . S
C131 H156 0.950 . S
C132 N127 1.332 . S
C132 C131 1.382 . S
C132 H142 0.948 . S
N133 Co111 2.282 . S
N133 C137 1.332 . S
N133 C138 1.332 . S
C134 C135 1.388 . S
C134 C138 1.382 . S
C134 H157 0.950 . S
C135 C134 1.388 . S
C135 C136 1.386 . S
C136 C135 1.386 . S
C136 C137 1.382 . S
C136 H158 0.950 . S
C137 N133 1.332 . S
C137 C136 1.382 . S
C137 H139 0.952 . S
C138 N133 1.332 . S
C138 C134 1.382 . S
C138 H140 0.948 . S
H139 C137 0.952 . S
H140 C138 0.948 . S
H141 C130 0.952 . S
H142 C132 0.948 . S
C143 C109 1.395 . S
C143 C113 1.391 . S
C144 C106 1.389 . S
C144 C126 1.392 . S
C145 C116 1.392 . S
C145 C118 1.389 . S
C146 C121 1.395 . S
C146 C123 1.391 . S
H147 C107 0.951 . S
H148 C108 0.950 . S
H149 C114 0.949 . S
H150 C115 0.950 . S
H151 C119 0.951 . S
H152 C120 0.950 . S
H153 C124 0.949 . S
H154 C125 0.950 . S
H155 C129 0.950 . S
H156 C131 0.950 . S
H157 C134 0.950 . S
H158 C136 0.950 . S
C159 C160 1.443 . S
C159 N163 1.376 . S
C159 C197 1.389 . S
C160 C159 1.443 . S
C160 C161 1.340 . S
C160 H200 0.951 . S
C161 C160 1.340 . S
C161 C162 1.439 . S
C161 H201 0.950 . S
C162 C161 1.439 . S
C162 N163 1.374 . S
C162 C196 1.395 . S
N163 C159 1.376 . S
N163 C162 1.374 . S
N163 Co164 2.008 . S
Co164 N163 2.008 . S
Co164 N165 1.995 . S
Co164 N170 2.008 . S
Co164 N175 1.995 . S
Co164 N180 2.282 . S
Co164 N186 2.282 . S
N165 Co164 1.995 . S
N165 C166 1.376 . S
N165 C169 1.383 . S
C166 N165 1.376 . S
C166 C167 1.446 . S
C166 C196 1.391 . S
C167 C166 1.446 . S
C167 C168 1.339 . S
C167 H202 0.949 . S
C168 C167 1.339 . S
C168 C169 1.439 . S
C168 H203 0.950 . S
C169 N165 1.383 . S
C169 C168 1.439 . S
C169 C198 1.392 . S
N170 Co164 2.008 . S
N170 C171 1.376 . S
N170 C174 1.374 . S
C171 N170 1.376 . S
C171 C172 1.443 . S
C171 C198 1.389 . S
C172 C171 1.443 . S
C172 C173 1.340 . S
C172 H204 0.951 . S
C173 C172 1.340 . S
C173 C174 1.439 . S
C173 H205 0.950 . S
C174 N170 1.374 . S
C174 C173 1.439 . S
C174 C199 1.395 . S
N175 Co164 1.995 . S
N175 C176 1.376 . S
N175 C179 1.383 . S
C176 N175 1.376 . S
C176 C177 1.446 . S
C176 C199 1.391 . S
C177 C176 1.446 . S
C177 C178 1.339 . S
C177 H206 0.949 . S
C178 C177 1.339 . S
C178 C179 1.439 . S
C178 H207 0.950 . S
C179 N175 1.383 . S
C179 C178 1.439 . S
C179 C197 1.392 . S
N180 Co164 2.282 . S
N180 C183 1.332 . S
N180 C185 1.332 . S
C181 C182 1.386 . S
C181 C184 1.388 . S
C182 C181 1.386 . S
C182 C183 1.382 . S
C182 H208 0.950 . S
C183 N180 1.332 . S
C183 C182 1.382 . S
C183 H194 0.952 . S
C184 C181 1.388 . S
C184 C185 1.382 . S
C184 H209 0.950 . S
C185 N180 1.332 . S
C185 C184 1.382 . S
C185 H195 0.948 . S
N186 Co164 2.282 . S
N186 C190 1.332 . S
N186 C191 1.332 . S
C187 C188 1.388 . S
C187 C191 1.382 . S
C187 H210 0.950 . S
C188 C187 1.388 . S
C188 C189 1.386 . S
C189 C188 1.386 . S
C189 C190 1.382 . S
C189 H211 0.950 . S
C190 N186 1.332 . S
C190 C189 1.382 . S
C190 H192 0.952 . S
C191 N186 1.332 . S
C191 C187 1.382 . S
C191 H193 0.948 . S
H192 C190 0.952 . S
H193 C191 0.948 . S
H194 C183 0.952 . S
H195 C185 0.948 . S
C196 C162 1.395 . S
C196 C166 1.391 . S
C197 C159 1.389 . S
C197 C179 1.392 . S
C198 C169 1.392 . S
C198 C171 1.389 . S
C199 C174 1.395 . S
C199 C176 1.391 . S
H200 C160 0.951 . S
H201 C161 0.950 . S
H202 C167 0.949 . S
H203 C168 0.950 . S
H204 C172 0.951 . S
H205 C173 0.950 . S
H206 C177 0.949 . S
H207 C178 0.950 . S
H208 C182 0.950 . S
H209 C184 0.950 . S
H210 C187 0.950 . S
H211 C189 0.950 . S
C212 C213 1.443 . S
C212 N216 1.376 . S
C212 C250 1.389 . S
C213 C212 1.443 . S
C213 C214 1.340 . S
C213 H253 0.951 . S
C214 C213 1.340 . S
C214 C215 1.439 . S
C214 H254 0.950 . S
C215 C214 1.439 . S
C215 N216 1.374 . S
C215 C249 1.395 . S
N216 C212 1.376 . S
N216 C215 1.374 . S
N216 Co217 2.008 . S
Co217 N216 2.008 . S
Co217 N218 1.995 . S
Co217 N223 2.008 . S
Co217 N228 1.995 . S
Co217 N233 2.282 . S
Co217 N239 2.282 . S
N218 Co217 1.995 . S
N218 C219 1.376 . S
N218 C222 1.383 . S
C219 N218 1.376 . S
C219 C220 1.446 . S
C219 C249 1.391 . S
C220 C219 1.446 . S
C220 C221 1.339 . S
C220 H255 0.949 . S
C221 C220 1.339 . S
C221 C222 1.439 . S
C221 H256 0.950 . S
C222 N218 1.383 . S
C222 C221 1.439 . S
C222 C251 1.392 . S
N223 Co217 2.008 . S
N223 C224 1.376 . S
N223 C227 1.374 . S
C224 N223 1.376 . S
C224 C225 1.443 . S
C224 C251 1.389 . S
C225 C224 1.443 . S
C225 C226 1.340 . S
C225 H257 0.951 . S
C226 C225 1.340 . S
C226 C227 1.439 . S
C226 H258 0.950 . S
C227 N223 1.374 . S
C227 C226 1.439 . S
C227 C252 1.395 . S
N228 Co217 1.995 . S
N228 C229 1.376 . S
N228 C232 1.383 . S
C229 N228 1.376 . S
C229 C230 1.446 . S
C229 C252 1.391 . S
C230 C229 1.446 . S
C230 C231 1.339 . S
C230 H259 0.949 . S
C231 C230 1.339 . S
C231 C232 1.439 . S
C231 H260 0.950 . S
C232 N228 1.383 . S
C232 C231 1.439 . S
C232 C250 1.392 . S
N233 Co217 2.282 . S
N233 C236 1.332 . S
N233 C238 1.332 . S
C234 C235 1.386 . S
C234 C237 1.388 . S
C235 C234 1.386 . S
C235 C236 1.382 . S
C235 H261 0.950 . S
C236 N233 1.332 . S
C236 C235 1.382 . S
C236 H247 0.952 . S
C237 C234 1.388 . S
C237 C238 1.382 . S
C237 H262 0.950 . S
C238 N233 1.332 . S
C238 C237 1.382 . S
C238 H248 0.948 . S
N239 Co217 2.282 . S
N239 C243 1.332 . S
N239 C244 1.332 . S
C240 C241 1.388 . S
C240 C244 1.382 . S
C240 H263 0.950 . S
C241 C240 1.388 . S
C241 C242 1.386 . S
C242 C241 1.386 . S
C242 C243 1.382 . S
C242 H264 0.950 . S
C243 N239 1.332 . S
C243 C242 1.382 . S
C243 H245 0.952 . S
C244 N239 1.332 . S
C244 C240 1.382 . S
C244 H246 0.948 . S
H245 C243 0.952 . S
H246 C244 0.948 . S
H247 C236 0.952 . S
H248 C238 0.948 . S
C249 C215 1.395 . S
C249 C219 1.391 . S
C250 C212 1.389 . S
C250 C232 1.392 . S
C251 C222 1.392 . S
C251 C224 1.389 . S
C252 C227 1.395 . S
C252 C229 1.391 . S
H253 C213 0.951 . S
H254 C214 0.950 . S
H255 C220 0.949 . S
H256 C221 0.950 . S
H257 C225 0.951 . S
H258 C226 0.950 . S
H259 C230 0.949 . S
H260 C231 0.950 . S
H261 C235 0.950 . S
H262 C237 0.950 . S
H263 C240 0.950 . S
H264 C242 0.950 . S
C265 C266 1.443 . S
C265 N269 1.376 . S
C265 C303 1.389 . S
C266 C265 1.443 . S
C266 C267 1.340 . S
C266 H306 0.951 . S
C267 C266 1.340 . S
C267 C268 1.439 . S
C267 H307 0.950 . S
C268 C267 1.439 . S
C268 N269 1.374 . S
C268 C302 1.395 . S
N269 C265 1.376 . S
N269 C268 1.374 . S
N269 Co270 2.008 . S
Co270 N269 2.008 . S
Co270 N271 1.995 . S
Co270 N276 2.008 . S
Co270 N281 1.995 . S
Co270 N286 2.282 . S
Co270 N292 2.282 . S
N271 Co270 1.995 . S
N271 C272 1.376 . S
N271 C275 1.383 . S
C272 N271 1.376 . S
C272 C273 1.446 . S
C272 C302 1.391 . S
C273 C272 1.446 . S
C273 C274 1.339 . S
C273 H308 0.949 . S
C274 C273 1.339 . S
C274 C275 1.439 . S
C274 H309 0.950 . S
C275 N271 1.383 . S
C275 C274 1.439 . S
C275 C304 1.392 . S
N276 Co270 2.008 . S
N276 C277 1.376 . S
N276 C280 1.374 . S
C277 N276 1.376 . S
C277 C278 1.443 . S
C277 C304 1.389 . S
C278 C277 1.443 . S
C278 C279 1.340 . S
C278 H310 0.951 . S
C279 C278 1.340 . S
C279 C280 1.439 . S
C279 H311 0.950 . S
C280 N276 1.374 . S
C280 C279 1.439 . S
C280 C305 1.395 . S
N281 Co270 1.995 . S
N281 C282 1.376 . S
N281 C285 1.383 . S
C282 N281 1.376 . S
C282 C283 1.446 . S
C282 C305 1.391 . S
C283 C282 1.446 . S
C283 C284 1.339 . S
C283 H312 0.949 . S
C284 C283 1.339 . S
C284 C285 1.439 . S
C284 H313 0.950 . S
C285 N281 1.383 . S
C285 C284 1.439 . S
C285 C303 1.392 . S
N286 Co270 2.282 . S
N286 C289 1.332 . S
N286 C291 1.332 . S
C287 C288 1.386 . S
C287 C290 1.388 . S
C288 C287 1.386 . S
C288 C289 1.382 . S
C288 H314 0.950 . S
C289 N286 1.332 . S
C289 C288 1.382 . S
C289 H300 0.952 . S
C290 C287 1.388 . S
C290 C291 1.382 . S
C290 H315 0.950 . S
C291 N286 1.332 . S
C291 C290 1.382 . S
C291 H301 0.948 . S
N292 Co270 2.282 . S
N292 C296 1.332 . S
N292 C297 1.332 . S
C293 C294 1.388 . S
C293 C297 1.382 . S
C293 H316 0.950 . S
C294 C293 1.388 . S
C294 C295 1.386 . S
C295 C294 1.386 . S
C295 C296 1.382 . S
C295 H317 0.950 . S
C296 N292 1.332 . S
C296 C295 1.382 . S
C296 H298 0.952 . S
C297 N292 1.332 . S
C297 C293 1.382 . S
C297 H299 0.948 . S
H298 C296 0.952 . S
H299 C297 0.948 . S
H300 C289 0.952 . S
H301 C291 0.948 . S
C302 C268 1.395 . S
C302 C272 1.391 . S
C303 C265 1.389 . S
C303 C285 1.392 . S
C304 C275 1.392 . S
C304 C277 1.389 . S
C305 C280 1.395 . S
C305 C282 1.391 . S
H306 C266 0.951 . S
H307 C267 0.950 . S
H308 C273 0.949 . S
H309 C274 0.950 . S
H310 C278 0.951 . S
H311 C279 0.950 . S
H312 C283 0.949 . S
H313 C284 0.950 . S
H314 C288 0.950 . S
H315 C290 0.950 . S
H316 C293 0.950 . S
H317 C295 0.950 . S
C318 C319 1.443 . S
C318 N322 1.376 . S
C318 C356 1.389 . S
C319 C318 1.443 . S
C319 C320 1.340 . S
C319 H359 0.951 . S
C320 C319 1.340 . S
C320 C321 1.439 . S
C320 H360 0.950 . S
C321 C320 1.439 . S
C321 N322 1.374 . S
C321 C355 1.395 . S
N322 C318 1.376 . S
N322 C321 1.374 . S
N322 Co323 2.008 . S
Co323 N322 2.008 . S
Co323 N324 1.995 . S
Co323 N329 2.008 . S
Co323 N334 1.995 . S
Co323 N339 2.282 . S
Co323 N345 2.282 . S
N324 Co323 1.995 . S
N324 C325 1.376 . S
N324 C328 1.383 . S
C325 N324 1.376 . S
C325 C326 1.446 . S
C325 C355 1.391 . S
C326 C325 1.446 . S
C326 C327 1.339 . S
C326 H361 0.949 . S
C327 C326 1.339 . S
C327 C328 1.439 . S
C327 H362 0.950 . S
C328 N324 1.383 . S
C328 C327 1.439 . S
C328 C357 1.392 . S
N329 Co323 2.008 . S
N329 C330 1.376 . S
N329 C333 1.374 . S
C330 N329 1.376 . S
C330 C331 1.443 . S
C330 C357 1.389 . S
C331 C330 1.443 . S
C331 C332 1.340 . S
C331 H363 0.951 . S
C332 C331 1.340 . S
C332 C333 1.439 . S
C332 H364 0.950 . S
C333 N329 1.374 . S
C333 C332 1.439 . S
C333 C358 1.395 . S
N334 Co323 1.995 . S
N334 C335 1.376 . S
N334 C338 1.383 . S
C335 N334 1.376 . S
C335 C336 1.446 . S
C335 C358 1.391 . S
C336 C335 1.446 . S
C336 C337 1.339 . S
C336 H365 0.949 . S
C337 C336 1.339 . S
C337 C338 1.439 . S
C337 H366 0.950 . S
C338 N334 1.383 . S
C338 C337 1.439 . S
C338 C356 1.392 . S
N339 Co323 2.282 . S
N339 C342 1.332 . S
N339 C344 1.332 . S
C340 C341 1.386 . S
C340 C343 1.388 . S
C341 C340 1.386 . S
C341 C342 1.382 . S
C341 H367 0.950 . S
C342 N339 1.332 . S
C342 C341 1.382 . S
C342 H353 0.952 . S
C343 C340 1.388 . S
C343 C344 1.382 . S
C343 H368 0.950 . S
C344 N339 1.332 . S
C344 C343 1.382 . S
C344 H354 0.948 . S
N345 Co323 2.282 . S
N345 C349 1.332 . S
N345 C350 1.332 . S
C346 C347 1.388 . S
C346 C350 1.382 . S
C346 H369 0.950 . S
C347 C346 1.388 . S
C347 C348 1.386 . S
C348 C347 1.386 . S
C348 C349 1.382 . S
C348 H370 0.950 . S
C349 N345 1.332 . S
C349 C348 1.382 . S
C349 H351 0.952 . S
C350 N345 1.332 . S
C350 C346 1.382 . S
C350 H352 0.948 . S
H351 C349 0.952 . S
H352 C350 0.948 . S
H353 C342 0.952 . S
H354 C344 0.948 . S
C355 C321 1.395 . S
C355 C325 1.391 . S
C356 C318 1.389 . S
C356 C338 1.392 . S
C357 C328 1.392 . S
C357 C330 1.389 . S
C358 C333 1.395 . S
C358 C335 1.391 . S
H359 C319 0.951 . S
H360 C320 0.950 . S
H361 C326 0.949 . S
H362 C327 0.950 . S
H363 C331 0.951 . S
H364 C332 0.950 . S
H365 C336 0.949 . S
H366 C337 0.950 . S
H367 C341 0.950 . S
H368 C343 0.950 . S
H369 C346 0.950 . S
H370 C348 0.950 . S
C371 C372 1.443 . S
C371 N375 1.376 . S
C371 C409 1.389 . S
C372 C371 1.443 . S
C372 C373 1.340 . S
C372 H412 0.951 . S
C373 C372 1.340 . S
C373 C374 1.439 . S
C373 H413 0.950 . S
C374 C373 1.439 . S
C374 N375 1.374 . S
C374 C408 1.395 . S
N375 C371 1.376 . S
N375 C374 1.374 . S
N375 Co376 2.008 . S
Co376 N375 2.008 . S
Co376 N377 1.995 . S
Co376 N382 2.008 . S
Co376 N387 1.995 . S
Co376 N392 2.282 . S
Co376 N398 2.282 . S
N377 Co376 1.995 . S
N377 C378 1.376 . S
N377 C381 1.383 . S
C378 N377 1.376 . S
C378 C379 1.446 . S
C378 C408 1.391 . S
C379 C378 1.446 . S
C379 C380 1.339 . S
C379 H414 0.949 . S
C380 C379 1.339 . S
C380 C381 1.439 . S
C380 H415 0.950 . S
C381 N377 1.383 . S
C381 C380 1.439 . S
C381 C410 1.392 . S
N382 Co376 2.008 . S
N382 C383 1.376 . S
N382 C386 1.374 . S
C383 N382 1.376 . S
C383 C384 1.443 . S
C383 C410 1.389 . S
C384 C383 1.443 . S
C384 C385 1.340 . S
C384 H416 0.951 . S
C385 C384 1.340 . S
C385 C386 1.439 . S
C385 H417 0.950 . S
C386 N382 1.374 . S
C386 C385 1.439 . S
C386 C411 1.395 . S
N387 Co376 1.995 . S
N387 C388 1.376 . S
N387 C391 1.383 . S
C388 N387 1.376 . S
C388 C389 1.446 . S
C388 C411 1.391 . S
C389 C388 1.446 . S
C389 C390 1.339 . S
C389 H418 0.949 . S
C390 C389 1.339 . S
C390 C391 1.439 . S
C390 H419 0.950 . S
C391 N387 1.383 . S
C391 C390 1.439 . S
C391 C409 1.392 . S
N392 Co376 2.282 . S
N392 C395 1.332 . S
N392 C397 1.332 . S
C393 C394 1.386 . S
C393 C396 1.388 . S
C394 C393 1.386 . S
C394 C395 1.382 . S
C394 H420 0.950 . S
C395 N392 1.332 . S
C395 C394 1.382 . S
C395 H406 0.952 . S
C396 C393 1.388 . S
C396 C397 1.382 . S
C396 H421 0.950 . S
C397 N392 1.332 . S
C397 C396 1.382 . S
C397 H407 0.948 . S
N398 Co376 2.282 . S
N398 C402 1.332 . S
N398 C403 1.332 . S
C399 C400 1.388 . S
C399 C403 1.382 . S
C399 H422 0.950 . S
C400 C399 1.388 . S
C400 C401 1.386 . S
C401 C400 1.386 . S
C401 C402 1.382 . S
C401 H423 0.950 . S
C402 N398 1.332 . S
C402 C401 1.382 . S
C402 H404 0.952 . S
C403 N398 1.332 . S
C403 C399 1.382 . S
C403 H405 0.948 . S
H404 C402 0.952 . S
H405 C403 0.948 . S
H406 C395 0.952 . S
H407 C397 0.948 . S
C408 C374 1.395 . S
C408 C378 1.391 . S
C409 C371 1.389 . S
C409 C391 1.392 . S
C410 C381 1.392 . S
C410 C383 1.389 . S
C411 C386 1.395 . S
C411 C388 1.391 . S
H412 C372 0.951 . S
H413 C373 0.950 . S
H414 C379 0.949 . S
H415 C380 0.950 . S
H416 C384 0.951 . S
H417 C385 0.950 . S
H418 C389 0.949 . S
H419 C390 0.950 . S
H420 C394 0.950 . S
H421 C396 0.950 . S
H422 C399 0.950 . S
H423 C401 0.950 . S
C424 C425 1.443 . S
C424 N428 1.376 . S
C424 C462 1.389 . S
C425 C424 1.443 . S
C425 C426 1.340 . S
C425 H465 0.951 . S
C426 C425 1.340 . S
C426 C427 1.439 . S
C426 H466 0.950 . S
C427 C426 1.439 . S
C427 N428 1.374 . S
C427 C461 1.395 . S
N428 C424 1.376 . S
N428 C427 1.374 . S
N428 Co429 2.008 . S
Co429 N428 2.008 . S
Co429 N430 1.995 . S
Co429 N435 2.008 . S
Co429 N440 1.995 . S
Co429 N445 2.282 . S
Co429 N451 2.282 . S
N430 Co429 1.995 . S
N430 C431 1.376 . S
N430 C434 1.383 . S
C431 N430 1.376 . S
C431 C432 1.446 . S
C431 C461 1.391 . S
C432 C431 1.446 . S
C432 C433 1.339 . S
C432 H467 0.949 . S
C433 C432 1.339 . S
C433 C434 1.439 . S
C433 H468 0.950 . S
C434 N430 1.383 . S
C434 C433 1.439 . S
C434 C463 1.392 . S
N435 Co429 2.008 . S
N435 C436 1.376 . S
N435 C439 1.374 . S
C436 N435 1.376 . S
C436 C437 1.443 . S
C436 C463 1.389 . S
C437 C436 1.443 . S
C437 C438 1.340 . S
C437 H469 0.951 . S
C438 C437 1.340 . S
C438 C439 1.439 . S
C438 H470 0.950 . S
C439 N435 1.374 . S
C439 C438 1.439 . S
C439 C464 1.395 . S
N440 Co429 1.995 . S
N440 C441 1.376 . S
N440 C444 1.383 . S
C441 N440 1.376 . S
C441 C442 1.446 . S
C441 C464 1.391 . S
C442 C441 1.446 . S
C442 C443 1.339 . S
C442 H471 0.949 . S
C443 C442 1.339 . S
C443 C444 1.439 . S
C443 H472 0.950 . S
C444 N440 1.383 . S
C444 C443 1.439 . S
C444 C462 1.392 . S
N445 Co429 2.282 . S
N445 C448 1.332 . S
N445 C450 1.332 . S
C446 C447 1.386 . S
C446 C449 1.388 . S
C447 C446 1.386 . S
C447 C448 1.382 . S
C447 H473 0.950 . S
C448 N445 1.332 . S
C448 C447 1.382 . S
C448 H459 0.952 . S
C449 C446 1.388 . S
C449 C450 1.382 . S
C449 H474 0.950 . S
C450 N445 1.332 . S
C450 C449 1.382 . S
C450 H460 0.948 . S
N451 Co429 2.282 . S
N451 C455 1.332 . S
N451 C456 1.332 . S
C452 C453 1.388 . S
C452 C456 1.382 . S
C452 H475 0.950 . S
C453 C452 1.388 . S
C453 C454 1.386 . S
C454 C453 1.386 . S
C454 C455 1.382 . S
C454 H476 0.950 . S
C455 N451 1.332 . S
C455 C454 1.382 . S
C455 H457 0.952 . S
C456 N451 1.332 . S
C456 C452 1.382 . S
C456 H458 0.948 . S
H457 C455 0.952 . S
H458 C456 0.948 . S
H459 C448 0.952 . S
H460 C450 0.948 . S
C461 C427 1.395 . S
C461 C431 1.391 . S
C462 C424 1.389 . S
C462 C444 1.392 . S
C463 C434 1.392 . S
C463 C436 1.389 . S
C464 C439 1.395 . S
C464 C441 1.391 . S
H465 C425 0.951 . S
H466 C426 0.950 . S
H467 C432 0.949 . S
H468 C433 0.950 . S
H469 C437 0.951 . S
H470 C438 0.950 . S
H471 C442 0.949 . S
H472 C443 0.950 . S
H473 C447 0.950 . S
H474 C449 0.950 . S
H475 C452 0.950 . S
H476 C454 0.950 . S
C477 C478 1.443 . S
C477 N481 1.376 . S
C477 C515 1.389 . S
C478 C477 1.443 . S
C478 C479 1.340 . S
C478 H518 0.951 . S
C479 C478 1.340 . S
C479 C480 1.439 . S
C479 H519 0.950 . S
C480 C479 1.439 . S
C480 N481 1.374 . S
C480 C514 1.395 . S
N481 C477 1.376 . S
N481 C480 1.374 . S
N481 Co482 2.008 . S
Co482 N481 2.008 . S
Co482 N483 1.995 . S
Co482 N488 2.008 . S
Co482 N493 1.995 . S
Co482 N498 2.282 . S
Co482 N504 2.282 . S
N483 Co482 1.995 . S
N483 C484 1.376 . S
N483 C487 1.383 . S
C484 N483 1.376 . S
C484 C485 1.446 . S
C484 C514 1.391 . S
C485 C484 1.446 . S
C485 C486 1.339 . S
C485 H520 0.949 . S
C486 C485 1.339 . S
C486 C487 1.439 . S
C486 H521 0.950 . S
C487 N483 1.383 . S
C487 C486 1.439 . S
C487 C516 1.392 . S
N488 Co482 2.008 . S
N488 C489 1.376 . S
N488 C492 1.374 . S
C489 N488 1.376 . S
C489 C490 1.443 . S
C489 C516 1.389 . S
C490 C489 1.443 . S
C490 C491 1.340 . S
C490 H522 0.951 . S
C491 C490 1.340 . S
C491 C492 1.439 . S
C491 H523 0.950 . S
C492 N488 1.374 . S
C492 C491 1.439 . S
C492 C517 1.395 . S
N493 Co482 1.995 . S
N493 C494 1.376 . S
N493 C497 1.383 . S
C494 N493 1.376 . S
C494 C495 1.446 . S
C494 C517 1.391 . S
C495 C494 1.446 . S
C495 C496 1.339 . S
C495 H524 0.949 . S
C496 C495 1.339 . S
C496 C497 1.439 . S
C496 H525 0.950 . S
C497 N493 1.383 . S
C497 C496 1.439 . S
C497 C515 1.392 . S
N498 Co482 2.282 . S
N498 C501 1.332 . S
N498 C503 1.332 . S
C499 C500 1.386 . S
C499 C502 1.388 . S
C500 C499 1.386 . S
C500 C501 1.382 . S
C500 H526 0.950 . S
C501 N498 1.332 . S
C501 C500 1.382 . S
C501 H512 0.952 . S
C502 C499 1.388 . S
C502 C503 1.382 . S
C502 H527 0.950 . S
C503 N498 1.332 . S
C503 C502 1.382 . S
C503 H513 0.948 . S
N504 Co482 2.282 . S
N504 C508 1.332 . S
N504 C509 1.332 . S
C505 C506 1.388 . S
C505 C509 1.382 . S
C505 H528 0.950 . S
C506 C505 1.388 . S
C506 C507 1.386 . S
C507 C506 1.386 . S
C507 C508 1.382 . S
C507 H529 0.950 . S
C508 N504 1.332 . S
C508 C507 1.382 . S
C508 H510 0.952 . S
C509 N504 1.332 . S
C509 C505 1.382 . S
C509 H511 0.948 . S
H510 C508 0.952 . S
H511 C509 0.948 . S
H512 C501 0.952 . S
H513 C503 0.948 . S
C514 C480 1.395 . S
C514 C484 1.391 . S
C515 C477 1.389 . S
C515 C497 1.392 . S
C516 C487 1.392 . S
C516 C489 1.389 . S
C517 C492 1.395 . S
C517 C494 1.391 . S
H518 C478 0.951 . S
H519 C479 0.950 . S
H520 C485 0.949 . S
H521 C486 0.950 . S
H522 C490 0.951 . S
H523 C491 0.950 . S
H524 C495 0.949 . S
H525 C496 0.950 . S
H526 C500 0.950 . S
H527 C502 0.950 . S
H528 C505 0.950 . S
H529 C507 0.950 . S
C530 C531 1.443 . S
C530 N534 1.376 . S
C530 C568 1.389 . S
C531 C530 1.443 . S
C531 C532 1.340 . S
C531 H571 0.951 . S
C532 C531 1.340 . S
C532 C533 1.439 . S
C532 H572 0.950 . S
C533 C532 1.439 . S
C533 N534 1.374 . S
C533 C567 1.395 . S
N534 C530 1.376 . S
N534 C533 1.374 . S
N534 Co535 2.008 . S
Co535 N534 2.008 . S
Co535 N536 1.995 . S
Co535 N541 2.008 . S
Co535 N546 1.995 . S
Co535 N551 2.282 . S
Co535 N557 2.282 . S
N536 Co535 1.995 . S
N536 C537 1.376 . S
N536 C540 1.383 . S
C537 N536 1.376 . S
C537 C538 1.446 . S
C537 C567 1.391 . S
C538 C537 1.446 . S
C538 C539 1.339 . S
C538 H573 0.949 . S
C539 C538 1.339 . S
C539 C540 1.439 . S
C539 H574 0.950 . S
C540 N536 1.383 . S
C540 C539 1.439 . S
C540 C569 1.392 . S
N541 Co535 2.008 . S
N541 C542 1.376 . S
N541 C545 1.374 . S
C542 N541 1.376 . S
C542 C543 1.443 . S
C542 C569 1.389 . S
C543 C542 1.443 . S
C543 C544 1.340 . S
C543 H575 0.951 . S
C544 C543 1.340 . S
C544 C545 1.439 . S
C544 H576 0.950 . S
C545 N541 1.374 . S
C545 C544 1.439 . S
C545 C570 1.395 . S
N546 Co535 1.995 . S
N546 C547 1.376 . S
N546 C550 1.383 . S
C547 N546 1.376 . S
C547 C548 1.446 . S
C547 C570 1.391 . S
C548 C547 1.446 . S
C548 C549 1.339 . S
C548 H577 0.949 . S
C549 C548 1.339 . S
C549 C550 1.439 . S
C549 H578 0.950 . S
C550 N546 1.383 . S
C550 C549 1.439 . S
C550 C568 1.392 . S
N551 Co535 2.282 . S
N551 C554 1.332 . S
N551 C556 1.332 . S
C552 C553 1.386 . S
C552 C555 1.388 . S
C553 C552 1.386 . S
C553 C554 1.382 . S
C553 H579 0.950 . S
C554 N551 1.332 . S
C554 C553 1.382 . S
C554 H565 0.952 . S
C555 C552 1.388 . S
C555 C556 1.382 . S
C555 H580 0.950 . S
C556 N551 1.332 . S
C556 C555 1.382 . S
C556 H566 0.948 . S
N557 Co535 2.282 . S
N557 C561 1.332 . S
N557 C562 1.332 . S
C558 C559 1.388 . S
C558 C562 1.382 . S
C558 H581 0.950 . S
C559 C558 1.388 . S
C559 C560 1.386 . S
C560 C559 1.386 . S
C560 C561 1.382 . S
C560 H582 0.950 . S
C561 N557 1.332 . S
C561 C560 1.382 . S
C561 H563 0.952 . S
C562 N557 1.332 . S
C562 C558 1.382 . S
C562 H564 0.948 . S
H563 C561 0.952 . S
H564 C562 0.948 . S
H565 C554 0.952 . S
H566 C556 0.948 . S
C567 C533 1.395 . S
C567 C537 1.391 . S
C568 C530 1.389 . S
C568 C550 1.392 . S
C569 C540 1.392 . S
C569 C542 1.389 . S
C570 C545 1.395 . S
C570 C547 1.391 . S
H571 C531 0.951 . S
H572 C532 0.950 . S
H573 C538 0.949 . S
H574 C539 0.950 . S
H575 C543 0.951 . S
H576 C544 0.950 . S
H577 C548 0.949 . S
H578 C549 0.950 . S
H579 C553 0.950 . S
H580 C555 0.950 . S
H581 C558 0.950 . S
H582 C560 0.950 . S
C583 C584 1.443 . S
C583 N587 1.376 . S
C583 C621 1.389 . S
C584 C583 1.443 . S
C584 C585 1.340 . S
C584 H624 0.951 . S
C585 C584 1.340 . S
C585 C586 1.439 . S
C585 H625 0.950 . S
C586 C585 1.439 . S
C586 N587 1.374 . S
C586 C620 1.395 . S
N587 C583 1.376 . S
N587 C586 1.374 . S
N587 Co588 2.008 . S
Co588 N587 2.008 . S
Co588 N589 1.995 . S
Co588 N594 2.008 . S
Co588 N599 1.995 . S
Co588 N604 2.282 . S
Co588 N610 2.282 . S
N589 Co588 1.995 . S
N589 C590 1.376 . S
N589 C593 1.383 . S
C590 N589 1.376 . S
C590 C591 1.446 . S
C590 C620 1.391 . S
C591 C590 1.446 . S
C591 C592 1.339 . S
C591 H626 0.949 . S
C592 C591 1.339 . S
C592 C593 1.439 . S
C592 H627 0.950 . S
C593 N589 1.383 . S
C593 C592 1.439 . S
C593 C622 1.392 . S
N594 Co588 2.008 . S
N594 C595 1.376 . S
N594 C598 1.374 . S
C595 N594 1.376 . S
C595 C596 1.443 . S
C595 C622 1.389 . S
C596 C595 1.443 . S
C596 C597 1.340 . S
C596 H628 0.951 . S
C597 C596 1.340 . S
C597 C598 1.439 . S
C597 H629 0.950 . S
C598 N594 1.374 . S
C598 C597 1.439 . S
C598 C623 1.395 . S
N599 Co588 1.995 . S
N599 C600 1.376 . S
N599 C603 1.383 . S
C600 N599 1.376 . S
C600 C601 1.446 . S
C600 C623 1.391 . S
C601 C600 1.446 . S
C601 C602 1.339 . S
C601 H630 0.949 . S
C602 C601 1.339 . S
C602 C603 1.439 . S
C602 H631 0.950 . S
C603 N599 1.383 . S
C603 C602 1.439 . S
C603 C621 1.392 . S
N604 Co588 2.282 . S
N604 C607 1.332 . S
N604 C609 1.332 . S
C605 C606 1.386 . S
C605 C608 1.388 . S
C606 C605 1.386 . S
C606 C607 1.382 . S
C606 H632 0.950 . S
C607 N604 1.332 . S
C607 C606 1.382 . S
C607 H618 0.952 . S
C608 C605 1.388 . S
C608 C609 1.382 . S
C608 H633 0.950 . S
C609 N604 1.332 . S
C609 C608 1.382 . S
C609 H619 0.948 . S
N610 Co588 2.282 . S
N610 C614 1.332 . S
N610 C615 1.332 . S
C611 C612 1.388 . S
C611 C615 1.382 . S
C611 H634 0.950 . S
C612 C611 1.388 . S
C612 C613 1.386 . S
C613 C612 1.386 . S
C613 C614 1.382 . S
C613 H635 0.950 . S
C614 N610 1.332 . S
C614 C613 1.382 . S
C614 H616 0.952 . S
C615 N610 1.332 . S
C615 C611 1.382 . S
C615 H617 0.948 . S
H616 C614 0.952 . S
H617 C615 0.948 . S
H618 C607 0.952 . S
H619 C609 0.948 . S
C620 C586 1.395 . S
C620 C590 1.391 . S
C621 C583 1.389 . S
C621 C603 1.392 . S
C622 C593 1.392 . S
C622 C595 1.389 . S
C623 C598 1.395 . S
C623 C600 1.391 . S
H624 C584 0.951 . S
H625 C585 0.950 . S
H626 C591 0.949 . S
H627 C592 0.950 . S
H628 C596 0.951 . S
H629 C597 0.950 . S
H630 C601 0.949 . S
H631 C602 0.950 . S
H632 C606 0.950 . S
H633 C608 0.950 . S
H634 C611 0.950 . S
H635 C613 0.950 . S
C636 C637 1.443 . S
C636 N640 1.376 . S
C636 C674 1.389 . S
C637 C636 1.443 . S
C637 C638 1.340 . S
C637 H677 0.951 . S
C638 C637 1.340 . S
C638 C639 1.439 . S
C638 H678 0.950 . S
C639 C638 1.439 . S
C639 N640 1.374 . S
C639 C673 1.395 . S
N640 C636 1.376 . S
N640 C639 1.374 . S
N640 Co641 2.008 . S
Co641 N640 2.008 . S
Co641 N642 1.995 . S
Co641 N647 2.008 . S
Co641 N652 1.995 . S
Co641 N657 2.282 . S
Co641 N663 2.282 . S
N642 Co641 1.995 . S
N642 C643 1.376 . S
N642 C646 1.383 . S
C643 N642 1.376 . S
C643 C644 1.446 . S
C643 C673 1.391 . S
C644 C643 1.446 . S
C644 C645 1.339 . S
C644 H679 0.949 . S
C645 C644 1.339 . S
C645 C646 1.439 . S
C645 H680 0.950 . S
C646 N642 1.383 . S
C646 C645 1.439 . S
C646 C675 1.392 . S
N647 Co641 2.008 . S
N647 C648 1.376 . S
N647 C651 1.374 . S
C648 N647 1.376 . S
C648 C649 1.443 . S
C648 C675 1.389 . S
C649 C648 1.443 . S
C649 C650 1.340 . S
C649 H681 0.951 . S
C650 C649 1.340 . S
C650 C651 1.439 . S
C650 H682 0.950 . S
C651 N647 1.374 . S
C651 C650 1.439 . S
C651 C676 1.395 . S
N652 Co641 1.995 . S
N652 C653 1.376 . S
N652 C656 1.383 . S
C653 N652 1.376 . S
C653 C654 1.446 . S
C653 C676 1.391 . S
C654 C653 1.446 . S
C654 C655 1.339 . S
C654 H683 0.949 . S
C655 C654 1.339 . S
C655 C656 1.439 . S
C655 H684 0.950 . S
C656 N652 1.383 . S
C656 C655 1.439 . S
C656 C674 1.392 . S
N657 Co641 2.282 . S
N657 C660 1.332 . S
N657 C662 1.332 . S
C658 C659 1.386 . S
C658 C661 1.388 . S
C659 C658 1.386 . S
C659 C660 1.382 . S
C659 H685 0.950 . S
C660 N657 1.332 . S
C660 C659 1.382 . S
C660 H671 0.952 . S
C661 C658 1.388 . S
C661 C662 1.382 . S
C661 H686 0.950 . S
C662 N657 1.332 . S
C662 C661 1.382 . S
C662 H672 0.948 . S
N663 Co641 2.282 . S
N663 C667 1.332 . S
N663 C668 1.332 . S
C664 C665 1.388 . S
C664 C668 1.382 . S
C664 H687 0.950 . S
C665 C664 1.388 . S
C665 C666 1.386 . S
C666 C665 1.386 . S
C666 C667 1.382 . S
C666 H688 0.950 . S
C667 N663 1.332 . S
C667 C666 1.382 . S
C667 H669 0.952 . S
C668 N663 1.332 . S
C668 C664 1.382 . S
C668 H670 0.948 . S
H669 C667 0.952 . S
H670 C668 0.948 . S
H671 C660 0.952 . S
H672 C662 0.948 . S
C673 C639 1.395 . S
C673 C643 1.391 . S
C674 C636 1.389 . S
C674 C656 1.392 . S
C675 C646 1.392 . S
C675 C648 1.389 . S
C676 C651 1.395 . S
C676 C653 1.391 . S
H677 C637 0.951 . S
H678 C638 0.950 . S
H679 C644 0.949 . S
H680 C645 0.950 . S
H681 C649 0.951 . S
H682 C650 0.950 . S
H683 C654 0.949 . S
H684 C655 0.950 . S
H685 C659 0.950 . S
H686 C661 0.950 . S
H687 C664 0.950 . S
H688 C666 0.950 . S
C689 C690 1.443 . S
C689 N693 1.376 . S
C689 C727 1.389 . S
C690 C689 1.443 . S
C690 C691 1.340 . S
C690 H730 0.951 . S
C691 C690 1.340 . S
C691 C692 1.439 . S
C691 H731 0.950 . S
C692 C691 1.439 . S
C692 N693 1.374 . S
C692 C726 1.395 . S
N693 C689 1.376 . S
N693 C692 1.374 . S
N693 Co694 2.008 . S
Co694 N693 2.008 . S
Co694 N695 1.995 . S
Co694 N700 2.008 . S
Co694 N705 1.995 . S
Co694 N710 2.282 . S
Co694 N716 2.282 . S
N695 Co694 1.995 . S
N695 C696 1.376 . S
N695 C699 1.383 . S
C696 N695 1.376 . S
C696 C697 1.446 . S
C696 C726 1.391 . S
C697 C696 1.446 . S
C697 C698 1.339 . S
C697 H732 0.949 . S
C698 C697 1.339 . S
C698 C699 1.439 . S
C698 H733 0.950 . S
C699 N695 1.383 . S
C699 C698 1.439 . S
C699 C728 1.392 . S
N700 Co694 2.008 . S
N700 C701 1.376 . S
N700 C704 1.374 . S
C701 N700 1.376 . S
C701 C702 1.443 . S
C701 C728 1.389 . S
C702 C701 1.443 . S
C702 C703 1.340 . S
C702 H734 0.951 . S
C703 C702 1.340 . S
C703 C704 1.439 . S
C703 H735 0.950 . S
C704 N700 1.374 . S
C704 C703 1.439 . S
C704 C729 1.395 . S
N705 Co694 1.995 . S
N705 C706 1.376 . S
N705 C709 1.383 . S
C706 N705 1.376 . S
C706 C707 1.446 . S
C706 C729 1.391 . S
C707 C706 1.446 . S
C707 C708 1.339 . S
C707 H736 0.949 . S
C708 C707 1.339 . S
C708 C709 1.439 . S
C708 H737 0.950 . S
C709 N705 1.383 . S
C709 C708 1.439 . S
C709 C727 1.392 . S
N710 Co694 2.282 . S
N710 C713 1.332 . S
N710 C715 1.332 . S
C711 C712 1.386 . S
C711 C714 1.388 . S
C712 C711 1.386 . S
C712 C713 1.382 . S
C712 H738 0.950 . S
C713 N710 1.332 . S
C713 C712 1.382 . S
C713 H724 0.952 . S
C714 C711 1.388 . S
C714 C715 1.382 . S
C714 H739 0.950 . S
C715 N710 1.332 . S
C715 C714 1.382 . S
C715 H725 0.948 . S
N716 Co694 2.282 . S
N716 C720 1.332 . S
N716 C721 1.332 . S
C717 C718 1.388 . S
C717 C721 1.382 . S
C717 H740 0.950 . S
C718 C717 1.388 . S
C718 C719 1.386 . S
C719 C718 1.386 . S
C719 C720 1.382 . S
C719 H741 0.950 . S
C720 N716 1.332 . S
C720 C719 1.382 . S
C720 H722 0.952 . S
C721 N716 1.332 . S
C721 C717 1.382 . S
C721 H723 0.948 . S
H722 C720 0.952 . S
H723 C721 0.948 . S
H724 C713 0.952 . S
H725 C715 0.948 . S
C726 C692 1.395 . S
C726 C696 1.391 . S
C727 C689 1.389 . S
C727 C709 1.392 . S
C728 C699 1.392 . S
C728 C701 1.389 . S
C729 C704 1.395 . S
C729 C706 1.391 . S
H730 C690 0.951 . S
H731 C691 0.950 . S
H732 C697 0.949 . S
H733 C698 0.950 . S
H734 C702 0.951 . S
H735 C703 0.950 . S
H736 C707 0.949 . S
H737 C708 0.950 . S
H738 C712 0.950 . S
H739 C714 0.950 . S
H740 C717 0.950 . S
H741 C719 0.950 . S
C742 C743 1.443 . S
C742 N746 1.376 . S
C742 C780 1.389 . S
C743 C742 1.443 . S
C743 C744 1.340 . S
C743 H783 0.951 . S
C744 C743 1.340 . S
C744 C745 1.439 . S
C744 H784 0.950 . S
C745 C744 1.439 . S
C745 N746 1.374 . S
C745 C779 1.395 . S
N746 C742 1.376 . S
N746 C745 1.374 . S
N746 Co747 2.008 . S
Co747 N746 2.008 . S
Co747 N748 1.995 . S
Co747 N753 2.008 . S
Co747 N758 1.995 . S
Co747 N763 2.282 . S
Co747 N769 2.282 . S
N748 Co747 1.995 . S
N748 C749 1.376 . S
N748 C752 1.383 . S
C749 N748 1.376 . S
C749 C750 1.446 . S
C749 C779 1.391 . S
C750 C749 1.446 . S
C750 C751 1.339 . S
C750 H785 0.949 . S
C751 C750 1.339 . S
C751 C752 1.439 . S
C751 H786 0.950 . S
C752 N748 1.383 . S
C752 C751 1.439 . S
C752 C781 1.392 . S
N753 Co747 2.008 . S
N753 C754 1.376 . S
N753 C757 1.374 . S
C754 N753 1.376 . S
C754 C755 1.443 . S
C754 C781 1.389 . S
C755 C754 1.443 . S
C755 C756 1.340 . S
C755 H787 0.951 . S
C756 C755 1.340 . S
C756 C757 1.439 . S
C756 H788 0.950 . S
C757 N753 1.374 . S
C757 C756 1.439 . S
C757 C782 1.395 . S
N758 Co747 1.995 . S
N758 C759 1.376 . S
N758 C762 1.383 . S
C759 N758 1.376 . S
C759 C760 1.446 . S
C759 C782 1.391 . S
C760 C759 1.446 . S
C760 C761 1.339 . S
C760 H789 0.949 . S
C761 C760 1.339 . S
C761 C762 1.439 . S
C761 H790 0.950 . S
C762 N758 1.383 . S
C762 C761 1.439 . S
C762 C780 1.392 . S
N763 Co747 2.282 . S
N763 C766 1.332 . S
N763 C768 1.332 . S
C764 C765 1.386 . S
C764 C767 1.388 . S
C765 C764 1.386 . S
C765 C766 1.382 . S
C765 H791 0.950 . S
C766 N763 1.332 . S
C766 C765 1.382 . S
C766 H777 0.952 . S
C767 C764 1.388 . S
C767 C768 1.382 . S
C767 H792 0.950 . S
C768 N763 1.332 . S
C768 C767 1.382 . S
C768 H778 0.948 . S
N769 Co747 2.282 . S
N769 C773 1.332 . S
N769 C774 1.332 . S
C770 C771 1.388 . S
C770 C774 1.382 . S
C770 H793 0.950 . S
C771 C770 1.388 . S
C771 C772 1.386 . S
C772 C771 1.386 . S
C772 C773 1.382 . S
C772 H794 0.950 . S
C773 N769 1.332 . S
C773 C772 1.382 . S
C773 H775 0.952 . S
C774 N769 1.332 . S
C774 C770 1.382 . S
C774 H776 0.948 . S
H775 C773 0.952 . S
H776 C774 0.948 . S
H777 C766 0.952 . S
H778 C768 0.948 . S
C779 C745 1.395 . S
C779 C749 1.391 . S
C780 C742 1.389 . S
C780 C762 1.392 . S
C781 C752 1.392 . S
C781 C754 1.389 . S
C782 C757 1.395 . S
C782 C759 1.391 . S
H783 C743 0.951 . S
H784 C744 0.950 . S
H785 C750 0.949 . S
H786 C751 0.950 . S
H787 C755 0.951 . S
H788 C756 0.950 . S
H789 C760 0.949 . S
H790 C761 0.950 . S
H791 C765 0.950 . S
H792 C767 0.950 . S
H793 C770 0.950 . S
H794 C772 0.950 . S
C795 C796 1.443 . S
C795 N799 1.376 . S
C795 C833 1.389 . S
C796 C795 1.443 . S
C796 C797 1.340 . S
C796 H836 0.951 . S
C797 C796 1.340 . S
C797 C798 1.439 . S
C797 H837 0.950 . S
C798 C797 1.439 . S
C798 N799 1.374 . S
C798 C832 1.395 . S
N799 C795 1.376 . S
N799 C798 1.374 . S
N799 Co800 2.008 . S
Co800 N799 2.008 . S
Co800 N801 1.995 . S
Co800 N806 2.008 . S
Co800 N811 1.995 . S
Co800 N816 2.282 . S
Co800 N822 2.282 . S
N801 Co800 1.995 . S
N801 C802 1.376 . S
N801 C805 1.383 . S
C802 N801 1.376 . S
C802 C803 1.446 . S
C802 C832 1.391 . S
C803 C802 1.446 . S
C803 C804 1.339 . S
C803 H838 0.949 . S
C804 C803 1.339 . S
C804 C805 1.439 . S
C804 H839 0.950 . S
C805 N801 1.383 . S
C805 C804 1.439 . S
C805 C834 1.392 . S
N806 Co800 2.008 . S
N806 C807 1.376 . S
N806 C810 1.374 . S
C807 N806 1.376 . S
C807 C808 1.443 . S
C807 C834 1.389 . S
C808 C807 1.443 . S
C808 C809 1.340 . S
C808 H840 0.951 . S
C809 C808 1.340 . S
C809 C810 1.439 . S
C809 H841 0.950 . S
C810 N806 1.374 . S
C810 C809 1.439 . S
C810 C835 1.395 . S
N811 Co800 1.995 . S
N811 C812 1.376 . S
N811 C815 1.383 . S
C812 N811 1.376 . S
C812 C813 1.446 . S
C812 C835 1.391 . S
C813 C812 1.446 . S
C813 C814 1.339 . S
C813 H842 0.949 . S
C814 C813 1.339 . S
C814 C815 1.439 . S
C814 H843 0.950 . S
C815 N811 1.383 . S
C815 C814 1.439 . S
C815 C833 1.392 . S
N816 Co800 2.282 . S
N816 C819 1.332 . S
N816 C821 1.332 . S
C817 C818 1.386 . S
C817 C820 1.388 . S
C818 C817 1.386 . S
C818 C819 1.382 . S
C818 H844 0.950 . S
C819 N816 1.332 . S
C819 C818 1.382 . S
C819 H830 0.952 . S
C820 C817 1.388 . S
C820 C821 1.382 . S
C820 H845 0.950 . S
C821 N816 1.332 . S
C821 C820 1.382 . S
C821 H831 0.948 . S
N822 Co800 2.282 . S
N822 C826 1.332 . S
N822 C827 1.332 . S
C823 C824 1.388 . S
C823 C827 1.382 . S
C823 H846 0.950 . S
C824 C823 1.388 . S
C824 C825 1.386 . S
C825 C824 1.386 . S
C825 C826 1.382 . S
C825 H847 0.950 . S
C826 N822 1.332 . S
C826 C825 1.382 . S
C826 H828 0.952 . S
C827 N822 1.332 . S
C827 C823 1.382 . S
C827 H829 0.948 . S
H828 C826 0.952 . S
H829 C827 0.948 . S
H830 C819 0.952 . S
H831 C821 0.948 . S
C832 C798 1.395 . S
C832 C802 1.391 . S
C833 C795 1.389 . S
C833 C815 1.392 . S
C834 C805 1.392 . S
C834 C807 1.389 . S
C835 C810 1.395 . S
C835 C812 1.391 . S
H836 C796 0.951 . S
H837 C797 0.950 . S
H838 C803 0.949 . S
H839 C804 0.950 . S
H840 C808 0.951 . S
H841 C809 0.950 . S
H842 C813 0.949 . S
H843 C814 0.950 . S
H844 C818 0.950 . S
H845 C820 0.950 . S
H846 C823 0.950 . S
H847 C825 0.950 . S
H848 C866 0.951 . S
H849 C868 0.951 . S
H850 C870 0.950 . S
H851 C871 0.950 . S
H852 C873 0.950 . S
H853 C876 0.950 . S
H854 C877 0.950 . S
H855 C879 0.950 . S
H856 C880 0.950 . S
H857 C881 0.951 . S
H858 C883 0.951 . S
H859 C885 0.950 . S
H860 C886 0.950 . S
H861 C888 0.950 . S
H862 C891 0.950 . S
H863 C892 0.950 . S
H864 C894 0.950 . S
H865 C895 0.950 . S
C866 H848 0.951 . S
C866 C867 1.366 . S
C866 C868 1.388 . S
C867 C866 1.366 . S
C867 C871 1.385 . S
C868 H849 0.951 . S
C868 C866 1.388 . S
C868 C869 1.366 . S
C869 C868 1.366 . S
C869 C870 1.414 . S
C869 C872 1.499 . S
C870 H850 0.950 . S
C870 C869 1.414 . S
C870 C871 1.374 . S
C871 H851 0.950 . S
C871 C867 1.385 . S
C871 C870 1.374 . S
C872 C869 1.499 . S
C872 C873 1.373 . S
C872 C874 1.389 . S
C873 H852 0.950 . S
C873 C872 1.373 . S
C873 C889 1.377 1_455 S
C874 C872 1.389 . S
C874 C875 1.524 . S
C874 C888 1.377 1_455 S
C875 C874 1.524 . S
C875 C876 1.397 . S
C875 C880 1.363 . S
C876 H853 0.950 . S
C876 C875 1.397 . S
C876 C877 1.334 . S
C877 H854 0.950 . S
C877 C876 1.334 . S
C877 C878 1.287 . S
C878 C877 1.287 . S
C878 C879 1.524 . S
C878 H897 0.913 . S
C879 H855 0.950 . S
C879 C878 1.524 . S
C879 C880 1.415 . S
C880 H856 0.950 . S
C880 C875 1.363 . S
C880 C879 1.415 . S
C881 H857 0.951 . S
C881 C882 1.366 . S
C881 C883 1.388 . S
C882 C881 1.366 . S
C882 C886 1.385 . S
C883 H858 0.951 . S
C883 C881 1.388 . S
C883 C884 1.366 . S
C884 C883 1.366 . S
C884 C885 1.414 . S
C884 C887 1.499 . S
C885 H859 0.950 . S
C885 C884 1.414 . S
C885 C886 1.374 . S
C886 H860 0.950 . S
C886 C882 1.385 . S
C886 C885 1.374 . S
C887 C884 1.499 . S
C887 C888 1.373 . S
C887 C889 1.389 . S
C888 H861 0.950 . S
C888 C874 1.377 1_655 S
C888 C887 1.373 . S
C889 C873 1.377 1_655 S
C889 C887 1.389 . S
C889 C890 1.524 . S
C890 C889 1.524 . S
C890 C891 1.397 . S
C890 C895 1.363 . S
C891 H862 0.950 . S
C891 C890 1.397 . S
C891 C892 1.334 . S
C892 H863 0.950 . S
C892 C891 1.334 . S
C892 C893 1.287 . S
C893 C892 1.287 . S
C893 C894 1.524 . S
C893 H896 0.999 . S
C894 H864 0.950 . S
C894 C893 1.524 . S
C894 C895 1.415 . S
C895 H865 0.950 . S
C895 C890 1.363 . S
C895 C894 1.415 . S
H896 C893 0.999 . S
H897 C878 0.913 . S
H898 C916 0.951 . S
H899 C918 0.951 . S
H900 C920 0.950 . S
H901 C921 0.950 . S
H902 C923 0.950 . S
H903 C926 0.950 . S
H904 C927 0.950 . S
H905 C929 0.950 1_545 S
H906 C930 0.944 1_545 S
H907 C931 0.951 . S
H908 C933 0.951 . S
H909 C935 0.950 . S
H910 C936 0.950 . S
H911 C938 0.950 . S
H912 C941 0.950 . S
H913 C942 0.950 . S
H914 C944 0.950 1_565 S
H915 C945 0.944 1_565 S
C916 H898 0.951 . S
C916 C917 1.366 . S
C916 C918 1.388 . S
C917 C916 1.366 . S
C917 C921 1.385 . S
C918 H899 0.951 . S
C918 C916 1.388 . S
C918 C919 1.366 . S
C919 C918 1.366 . S
C919 C920 1.414 . S
C919 C922 1.499 . S
C920 H900 0.950 . S
C920 C919 1.414 . S
C920 C921 1.374 . S
C921 H901 0.950 . S
C921 C917 1.385 . S
C921 C920 1.374 . S
C922 C919 1.499 . S
C922 C923 1.373 . S
C922 C924 1.389 . S
C923 H902 0.950 . S
C923 C922 1.373 . S
C923 C939 1.377 1_565 S
C924 C922 1.389 . S
C924 C925 1.524 . S
C924 C938 1.377 1_565 S
C925 C924 1.524 . S
C925 C926 1.397 . S
C925 C930 1.367 . S
C926 H903 0.950 . S
C926 C925 1.397 . S
C926 C927 1.334 . S
C927 H904 0.950 . S
C927 C926 1.334 . S
C927 C928 1.287 . S
C928 C927 1.287 . S
C928 C929 1.524 . S
C928 H947 0.913 . S
C929 H905 0.950 1_565 S
C929 C928 1.524 . S
C929 C930 1.417 . S
C930 H906 0.944 1_565 S
C930 C925 1.367 . S
C930 C929 1.417 . S
C931 H907 0.951 . S
C931 C932 1.366 . S
C931 C933 1.388 . S
C932 C931 1.366 . S
C932 C936 1.385 . S
C933 H908 0.951 . S
C933 C931 1.388 . S
C933 C934 1.366 . S
C934 C933 1.366 . S
C934 C935 1.414 . S
C934 C937 1.499 . S
C935 H909 0.950 . S
C935 C934 1.414 . S
C935 C936 1.374 . S
C936 H910 0.950 . S
C936 C932 1.385 . S
C936 C935 1.374 . S
C937 C934 1.499 . S
C937 C938 1.373 . S
C937 C939 1.389 . S
C938 H911 0.950 . S
C938 C924 1.377 1_545 S
C938 C937 1.373 . S
C939 C923 1.377 1_545 S
C939 C937 1.389 . S
C939 C940 1.524 . S
C940 C939 1.524 . S
C940 C941 1.397 . S
C940 C945 1.367 . S
C941 H912 0.950 . S
C941 C940 1.397 . S
C941 C942 1.334 . S
C942 H913 0.950 . S
C942 C941 1.334 . S
C942 C943 1.287 . S
C943 C942 1.287 . S
C943 C944 1.524 . S
C943 H946 0.999 . S
C944 H914 0.950 1_545 S
C944 C943 1.524 . S
C944 C945 1.417 . S
C945 H915 0.944 1_545 S
C945 C940 1.367 . S
C945 C944 1.417 . S
H946 C943 0.999 . S
H947 C928 0.913 . S
H948 C966 0.951 . S
H949 C968 0.951 . S
H950 C970 0.950 . S
H951 C971 0.950 . S
H952 C973 0.950 . S
H953 C976 0.950 . S
H954 C977 0.950 . S
H955 C979 0.950 1_655 S
H956 C980 0.945 1_655 S
H957 C981 0.951 . S
H958 C983 0.951 . S
H959 C985 0.950 . S
H960 C986 0.950 . S
H961 C988 0.950 . S
H962 C991 0.950 . S
H963 C992 0.950 . S
H964 C994 0.950 1_455 S
H965 C995 0.945 1_455 S
C966 H948 0.951 . S
C966 C967 1.366 . S
C966 C968 1.388 . S
C967 C966 1.366 . S
C967 C971 1.385 . S
C968 H949 0.951 . S
C968 C966 1.388 . S
C968 C969 1.366 . S
C969 C968 1.366 . S
C969 C970 1.414 . S
C969 C972 1.499 . S
C970 H950 0.950 . S
C970 C969 1.414 . S
C970 C971 1.374 . S
C971 H951 0.950 . S
C971 C967 1.385 . S
C971 C970 1.374 . S
C972 C969 1.499 . S
C972 C973 1.373 . S
C972 C974 1.389 . S
C973 H952 0.950 . S
C973 C972 1.373 . S
C973 C989 1.377 1_455 S
C974 C972 1.389 . S
C974 C975 1.524 . S
C974 C988 1.377 1_455 S
C975 C974 1.524 . S
C975 C976 1.397 . S
C975 C980 1.367 . S
C976 H953 0.950 . S
C976 C975 1.397 . S
C976 C977 1.334 . S
C977 H954 0.950 . S
C977 C976 1.334 . S
C977 C978 1.287 . S
C978 C977 1.287 . S
C978 C979 1.524 . S
C978 H997 0.913 . S
C979 H955 0.950 1_455 S
C979 C978 1.524 . S
C979 C980 1.416 . S
C980 H956 0.945 1_455 S
C980 C975 1.367 . S
C980 C979 1.416 . S
C981 H957 0.951 . S
C981 C982 1.366 . S
C981 C983 1.388 . S
C982 C981 1.366 . S
C982 C986 1.385 . S
C983 H958 0.951 . S
C983 C981 1.388 . S
C983 C984 1.366 . S
C984 C983 1.366 . S
C984 C985 1.414 . S
C984 C987 1.499 . S
C985 H959 0.950 . S
C985 C984 1.414 . S
C985 C986 1.374 . S
C986 H960 0.950 . S
C986 C982 1.385 . S
C986 C985 1.374 . S
C987 C984 1.499 . S
C987 C988 1.373 . S
C987 C989 1.389 . S
C988 H961 0.950 . S
C988 C974 1.377 1_655 S
C988 C987 1.373 . S
C989 C973 1.377 1_655 S
C989 C987 1.389 . S
C989 C990 1.524 . S
C990 C989 1.524 . S
C990 C991 1.397 . S
C990 C995 1.367 . S
C991 H962 0.950 . S
C991 C990 1.397 . S
C991 C992 1.334 . S
C992 H963 0.950 . S
C992 C991 1.334 . S
C992 C993 1.287 . S
C993 C992 1.287 . S
C993 C994 1.524 . S
C993 H996 0.999 . S
C994 H964 0.950 1_655 S
C994 C993 1.524 . S
C994 C995 1.416 . S
C995 H965 0.945 1_655 S
C995 C990 1.367 . S
C995 C994 1.416 . S
H996 C993 0.999 . S
H997 C978 0.913 . S
H998 C1016 0.951 . S
H999 C1018 0.951 . S
H1000 C1020 0.950 . S
H1001 C1021 0.950 . S
H1002 C1023 0.950 . S
H1003 C1026 0.950 . S
H1004 C1027 0.950 . S
H1005 C1029 0.950 . S
H1006 C1030 0.950 1_545 S
H1007 C1031 0.951 . S
H1008 C1033 0.951 . S
H1009 C1035 0.950 . S
H1010 C1036 0.950 . S
H1011 C1038 0.950 . S
H1012 C1041 0.950 . S
H1013 C1042 0.950 . S
H1014 C1044 0.950 . S
H1015 C1045 0.950 1_565 S
C1016 H998 0.951 . S
C1016 C1017 1.366 . S
C1016 C1018 1.388 . S
C1017 C1016 1.366 . S
C1017 C1021 1.385 . S
C1018 H999 0.951 . S
C1018 C1016 1.388 . S
C1018 C1019 1.366 . S
C1019 C1018 1.366 . S
C1019 C1020 1.414 . S
C1019 C1022 1.499 . S
C1020 H1000 0.950 . S
C1020 C1019 1.414 . S
C1020 C1021 1.374 . S
C1021 H1001 0.950 . S
C1021 C1017 1.385 . S
C1021 C1020 1.374 . S
C1022 C1019 1.499 . S
C1022 C1023 1.373 . S
C1022 C1024 1.389 . S
C1023 H1002 0.950 . S
C1023 C1022 1.373 . S
C1023 C1039 1.377 1_565 S
C1024 C1022 1.389 . S
C1024 C1025 1.524 . S
C1024 C1038 1.377 1_565 S
C1025 C1024 1.524 . S
C1025 C1026 1.397 . S
C1025 C1030 1.363 . S
C1026 H1003 0.950 . S
C1026 C1025 1.397 . S
C1026 C1027 1.334 . S
C1027 H1004 0.950 . S
C1027 C1026 1.334 . S
C1027 C1028 1.287 . S
C1028 C1027 1.287 . S
C1028 C1029 1.524 . S
C1028 H1047 0.913 . S
C1029 H1005 0.950 . S
C1029 C1028 1.524 . S
C1029 C1030 1.415 . S
C1030 H1006 0.950 1_565 S
C1030 C1025 1.363 . S
C1030 C1029 1.415 . S
C1031 H1007 0.951 . S
C1031 C1032 1.366 . S
C1031 C1033 1.388 . S
C1032 C1031 1.366 . S
C1032 C1036 1.385 . S
C1033 H1008 0.951 . S
C1033 C1031 1.388 . S
C1033 C1034 1.366 . S
C1034 C1033 1.366 . S
C1034 C1035 1.414 . S
C1034 C1037 1.499 . S
C1035 H1009 0.950 . S
C1035 C1034 1.414 . S
C1035 C1036 1.374 . S
C1036 H1010 0.950 . S
C1036 C1032 1.385 . S
C1036 C1035 1.374 . S
C1037 C1034 1.499 . S
C1037 C1038 1.373 . S
C1037 C1039 1.389 . S
C1038 H1011 0.950 . S
C1038 C1024 1.377 1_545 S
C1038 C1037 1.373 . S
C1039 C1023 1.377 1_545 S
C1039 C1037 1.389 . S
C1039 C1040 1.524 . S
C1040 C1039 1.524 . S
C1040 C1041 1.397 . S
C1040 C1045 1.363 . S
C1041 H1012 0.950 . S
C1041 C1040 1.397 . S
C1041 C1042 1.334 . S
C1042 H1013 0.950 . S
C1042 C1041 1.334 . S
C1042 C1043 1.287 . S
C1043 C1042 1.287 . S
C1043 C1044 1.524 . S
C1043 H1046 0.999 . S
C1044 H1014 0.950 . S
C1044 C1043 1.524 . S
C1044 C1045 1.415 . S
C1045 H1015 0.950 1_545 S
C1045 C1040 1.363 . S
C1045 C1044 1.415 . S
H1046 C1043 0.999 . S
H1047 C1028 0.913 . S
H1048 C1066 0.951 . S
H1049 C1068 0.951 . S
H1050 C1070 0.950 . S
H1051 C1071 0.950 . S
H1052 C1073 0.950 . S
H1053 C1076 0.950 . S
H1054 C1077 0.950 . S
H1055 C1079 0.950 1_455 S
H1056 C1080 0.973 . S
H1057 C1081 0.951 . S
H1058 C1083 0.951 . S
H1059 C1085 0.950 . S
H1060 C1086 0.950 . S
H1061 C1088 0.950 . S
H1062 C1091 0.950 . S
H1063 C1092 0.950 . S
H1064 C1094 0.950 1_655 S
H1065 C1095 0.973 . S
C1066 H1048 0.951 . S
C1066 C1067 1.366 . S
C1066 C1068 1.388 . S
C1067 C1066 1.366 . S
C1067 C1071 1.385 . S
C1068 H1049 0.951 . S
C1068 C1066 1.388 . S
C1068 C1069 1.366 . S
C1069 C1068 1.366 . S
C1069 C1070 1.414 . S
C1069 C1072 1.499 . S
C1070 H1050 0.950 . S
C1070 C1069 1.414 . S
C1070 C1071 1.374 . S
C1071 H1051 0.950 . S
C1071 C1067 1.385 . S
C1071 C1070 1.374 . S
C1072 C1069 1.499 . S
C1072 C1073 1.373 . S
C1072 C1074 1.389 . S
C1073 H1052 0.950 . S
C1073 C1072 1.373 . S
C1073 C1089 1.377 1_655 S
C1074 C1072 1.389 . S
C1074 C1075 1.524 . S
C1074 C1088 1.377 1_655 S
C1075 C1074 1.524 . S
C1075 C1076 1.397 . S
C1075 C1080 1.347 1_655 S
C1076 H1053 0.950 . S
C1076 C1075 1.397 . S
C1076 C1077 1.334 . S
C1077 H1054 0.950 . S
C1077 C1076 1.334 . S
C1077 C1078 1.287 . S
C1078 C1077 1.287 . S
C1078 C1079 1.524 . S
C1078 H1097 0.913 . S
C1079 H1055 0.950 1_655 S
C1079 C1078 1.524 . S
C1079 C1080 1.410 1_655 S
C1080 H1056 0.973 . S
C1080 C1075 1.347 1_455 S
C1080 C1079 1.410 1_455 S
C1081 H1057 0.951 . S
C1081 C1082 1.366 . S
C1081 C1083 1.388 . S
C1082 C1081 1.366 . S
C1082 C1086 1.385 . S
C1083 H1058 0.951 . S
C1083 C1081 1.388 . S
C1083 C1084 1.366 . S
C1084 C1083 1.366 . S
C1084 C1085 1.414 . S
C1084 C1087 1.499 . S
C1085 H1059 0.950 . S
C1085 C1084 1.414 . S
C1085 C1086 1.374 . S
C1086 H1060 0.950 . S
C1086 C1082 1.385 . S
C1086 C1085 1.374 . S
C1087 C1084 1.499 . S
C1087 C1088 1.373 . S
C1087 C1089 1.389 . S
C1088 H1061 0.950 . S
C1088 C1074 1.377 1_455 S
C1088 C1087 1.373 . S
C1089 C1073 1.377 1_455 S
C1089 C1087 1.389 . S
C1089 C1090 1.524 . S
C1090 C1089 1.524 . S
C1090 C1091 1.397 . S
C1090 C1095 1.347 1_455 S
C1091 H1062 0.950 . S
C1091 C1090 1.397 . S
C1091 C1092 1.334 . S
C1092 H1063 0.950 . S
C1092 C1091 1.334 . S
C1092 C1093 1.287 . S
C1093 C1092 1.287 . S
C1093 C1094 1.524 . S
C1093 H1096 0.999 . S
C1094 H1064 0.950 1_455 S
C1094 C1093 1.524 . S
C1094 C1095 1.410 1_455 S
C1095 H1065 0.973 . S
C1095 C1090 1.347 1_655 S
C1095 C1094 1.410 1_655 S
H1096 C1093 0.999 . S
H1097 C1078 0.913 . S
H1098 C1116 0.951 . S
H1099 C1118 0.951 . S
H1100 C1120 0.950 . S
H1101 C1121 0.950 . S
H1102 C1123 0.950 . S
H1103 C1126 0.950 . S
H1104 C1127 0.950 . S
H1105 C1129 0.961 . S
H1106 C1130 0.950 . S
H1107 C1131 0.951 . S
H1108 C1133 0.951 . S
H1109 C1135 0.950 . S
H1110 C1136 0.950 . S
H1111 C1138 0.950 . S
H1112 C1141 0.950 . S
H1113 C1142 0.950 . S
H1114 C1144 0.961 . S
H1115 C1145 0.950 . S
C1116 H1098 0.951 . S
C1116 C1117 1.366 . S
C1116 C1118 1.388 . S
C1117 C1116 1.366 . S
C1117 C1121 1.385 . S
C1118 H1099 0.951 . S
C1118 C1116 1.388 . S
C1118 C1119 1.366 . S
C1119 C1118 1.366 . S
C1119 C1120 1.414 . S
C1119 C1122 1.499 . S
C1120 H1100 0.950 . S
C1120 C1119 1.414 . S
C1120 C1121 1.374 . S
C1121 H1101 0.950 . S
C1121 C1117 1.385 . S
C1121 C1120 1.374 . S
C1122 C1119 1.499 . S
C1122 C1123 1.373 . S
C1122 C1124 1.389 . S
C1123 H1102 0.950 . S
C1123 C1122 1.373 . S
C1123 C1139 1.377 1_545 S
C1124 C1122 1.389 . S
C1124 C1125 1.524 . S
C1124 C1138 1.377 1_545 S
C1125 C1124 1.524 . S
C1125 C1126 1.397 . S
C1125 C1130 1.363 1_545 S
C1126 H1103 0.950 . S
C1126 C1125 1.397 . S
C1126 C1127 1.334 . S
C1127 H1104 0.950 . S
C1127 C1126 1.334 . S
C1127 C1128 1.287 . S
C1128 C1127 1.287 . S
C1128 C1129 1.509 1_545 S
C1128 H1147 0.913 . S
C1129 H1105 0.961 . S
C1129 C1128 1.509 1_565 S
C1129 C1130 1.418 . S
C1130 H1106 0.950 . S
C1130 C1125 1.363 1_565 S
C1130 C1129 1.418 . S
C1131 H1107 0.951 . S
C1131 C1132 1.366 . S
C1131 C1133 1.388 . S
C1132 C1131 1.366 . S
C1132 C1136 1.385 . S
C1133 H1108 0.951 . S
C1133 C1131 1.388 . S
C1133 C1134 1.366 . S
C1134 C1133 1.366 . S
C1134 C1135 1.414 . S
C1134 C1137 1.499 . S
C1135 H1109 0.950 . S
C1135 C1134 1.414 . S
C1135 C1136 1.374 . S
C1136 H1110 0.950 . S
C1136 C1132 1.385 . S
C1136 C1135 1.374 . S
C1137 C1134 1.499 . S
C1137 C1138 1.373 . S
C1137 C1139 1.389 . S
C1138 H1111 0.950 . S
C1138 C1124 1.377 1_565 S
C1138 C1137 1.373 . S
C1139 C1123 1.377 1_565 S
C1139 C1137 1.389 . S
C1139 C1140 1.524 . S
C1140 C1139 1.524 . S
C1140 C1141 1.397 . S
C1140 C1145 1.363 1_565 S
C1141 H1112 0.950 . S
C1141 C1140 1.397 . S
C1141 C1142 1.334 . S
C1142 H1113 0.950 . S
C1142 C1141 1.334 . S
C1142 C1143 1.287 . S
C1143 C1142 1.287 . S
C1143 C1144 1.509 1_565 S
C1143 H1146 0.999 . S
C1144 H1114 0.961 . S
C1144 C1143 1.509 1_545 S
C1144 C1145 1.418 . S
C1145 H1115 0.950 . S
C1145 C1140 1.363 1_545 S
C1145 C1144 1.418 . S
H1146 C1143 0.999 . S
H1147 C1128 0.913 . S
H1148 C1166 0.951 . S
H1149 C1168 0.951 . S
H1150 C1170 0.950 . S
H1151 C1171 0.950 . S
H1152 C1173 0.950 . S
H1153 C1176 0.950 . S
H1154 C1177 0.950 . S
H1155 C1179 0.950 1_455 S
H1156 C1180 0.930 1_455 S
H1157 C1181 0.951 . S
H1158 C1183 0.951 . S
H1159 C1185 0.950 . S
H1160 C1186 0.950 . S
H1161 C1188 0.950 . S
H1162 C1191 0.950 . S
H1163 C1192 0.950 . S
H1164 C1194 0.950 1_655 S
H1165 C1195 0.930 1_655 S
C1166 H1148 0.951 . S
C1166 C1167 1.366 . S
C1166 C1168 1.388 . S
C1167 C1166 1.366 . S
C1167 C1171 1.385 . S
C1168 H1149 0.951 . S
C1168 C1166 1.388 . S
C1168 C1169 1.366 . S
C1169 C1168 1.366 . S
C1169 C1170 1.414 . S
C1169 C1172 1.499 . S
C1170 H1150 0.950 . S
C1170 C1169 1.414 . S
C1170 C1171 1.374 . S
C1171 H1151 0.950 . S
C1171 C1167 1.385 . S
C1171 C1170 1.374 . S
C1172 C1169 1.499 . S
C1172 C1173 1.373 . S
C1172 C1174 1.389 . S
C1173 H1152 0.950 . S
C1173 C1172 1.373 . S
C1173 C1189 1.377 1_655 S
C1174 C1172 1.389 . S
C1174 C1175 1.524 . S
C1174 C1188 1.377 1_655 S
C1175 C1174 1.524 . S
C1175 C1176 1.397 . S
C1175 C1180 1.377 . S
C1176 H1153 0.950 . S
C1176 C1175 1.397 . S
C1176 C1177 1.334 . S
C1177 H1154 0.950 . S
C1177 C1176 1.334 . S
C1177 C1178 1.287 . S
C1178 C1177 1.287 . S
C1178 C1179 1.524 . S
C1178 H1197 0.913 . S
C1179 H1155 0.950 1_655 S
C1179 C1178 1.524 . S
C1179 C1180 1.421 . S
C1180 H1156 0.930 1_655 S
C1180 C1175 1.377 . S
C1180 C1179 1.421 . S
C1181 H1157 0.951 . S
C1181 C1182 1.366 . S
C1181 C1183 1.388 . S
C1182 C1181 1.366 . S
C1182 C1186 1.385 . S
C1183 H1158 0.951 . S
C1183 C1181 1.388 . S
C1183 C1184 1.366 . S
C1184 C1183 1.366 . S
C1184 C1185 1.414 . S
C1184 C1187 1.499 . S
C1185 H1159 0.950 . S
C1185 C1184 1.414 . S
C1185 C1186 1.374 . S
C1186 H1160 0.950 . S
C1186 C1182 1.385 . S
C1186 C1185 1.374 . S
C1187 C1184 1.499 . S
C1187 C1188 1.373 . S
C1187 C1189 1.389 . S
C1188 H1161 0.950 . S
C1188 C1174 1.377 1_455 S
C1188 C1187 1.373 . S
C1189 C1173 1.377 1_455 S
C1189 C1187 1.389 . S
C1189 C1190 1.524 . S
C1190 C1189 1.524 . S
C1190 C1191 1.397 . S
C1190 C1195 1.377 . S
C1191 H1162 0.950 . S
C1191 C1190 1.397 . S
C1191 C1192 1.334 . S
C1192 H1163 0.950 . S
C1192 C1191 1.334 . S
C1192 C1193 1.287 . S
C1193 C1192 1.287 . S
C1193 C1194 1.524 . S
C1193 H1196 0.999 . S
C1194 H1164 0.950 1_455 S
C1194 C1193 1.524 . S
C1194 C1195 1.421 . S
C1195 H1165 0.930 1_455 S
C1195 C1190 1.377 . S
C1195 C1194 1.421 . S
H1196 C1193 0.999 . S
H1197 C1178 0.913 . S
H1198 C1216 0.951 . S
H1199 C1218 0.951 . S
H1200 C1220 0.950 . S
H1201 C1221 0.950 . S
H1202 C1223 0.950 . S
H1203 C1226 0.950 . S
H1204 C1227 0.950 . S
H1205 C1229 0.950 . S
H1206 C1230 0.950 1_565 S
H1207 C1231 0.951 . S
H1208 C1233 0.951 . S
H1209 C1235 0.950 . S
H1210 C1236 0.950 . S
H1211 C1238 0.950 . S
H1212 C1241 0.950 . S
H1213 C1242 0.950 . S
H1214 C1244 0.950 . S
H1215 C1245 0.950 1_545 S
C1216 H1198 0.951 . S
C1216 C1217 1.366 . S
C1216 C1218 1.388 . S
C1217 C1216 1.366 . S
C1217 C1221 1.385 . S
C1218 H1199 0.951 . S
C1218 C1216 1.388 . S
C1218 C1219 1.366 . S
C1219 C1218 1.366 . S
C1219 C1220 1.414 . S
C1219 C1222 1.499 . S
C1220 H1200 0.950 . S
C1220 C1219 1.414 . S
C1220 C1221 1.374 . S
C1221 H1201 0.950 . S
C1221 C1217 1.385 . S
C1221 C1220 1.374 . S
C1222 C1219 1.499 . S
C1222 C1223 1.373 . S
C1222 C1224 1.389 . S
C1223 H1202 0.950 . S
C1223 C1222 1.373 . S
C1223 C1239 1.377 1_545 S
C1224 C1222 1.389 . S
C1224 C1225 1.524 . S
C1224 C1238 1.377 1_545 S
C1225 C1224 1.524 . S
C1225 C1226 1.397 . S
C1225 C1230 1.363 . S
C1226 H1203 0.950 . S
C1226 C1225 1.397 . S
C1226 C1227 1.334 . S
C1227 H1204 0.950 . S
C1227 C1226 1.334 . S
C1227 C1228 1.287 . S
C1228 C1227 1.287 . S
C1228 C1229 1.524 . S
C1228 H1247 0.913 . S
C1229 H1205 0.950 . S
C1229 C1228 1.524 . S
C1229 C1230 1.415 . S
C1230 H1206 0.950 1_545 S
C1230 C1225 1.363 . S
C1230 C1229 1.415 . S
C1231 H1207 0.951 . S
C1231 C1232 1.366 . S
C1231 C1233 1.388 . S
C1232 C1231 1.366 . S
C1232 C1236 1.385 . S
C1233 H1208 0.951 . S
C1233 C1231 1.388 . S
C1233 C1234 1.366 . S
C1234 C1233 1.366 . S
C1234 C1235 1.414 . S
C1234 C1237 1.499 . S
C1235 H1209 0.950 . S
C1235 C1234 1.414 . S
C1235 C1236 1.374 . S
C1236 H1210 0.950 . S
C1236 C1232 1.385 . S
C1236 C1235 1.374 . S
C1237 C1234 1.499 . S
C1237 C1238 1.373 . S
C1237 C1239 1.389 . S
C1238 H1211 0.950 . S
C1238 C1224 1.377 1_565 S
C1238 C1237 1.373 . S
C1239 C1223 1.377 1_565 S
C1239 C1237 1.389 . S
C1239 C1240 1.524 . S
C1240 C1239 1.524 . S
C1240 C1241 1.397 . S
C1240 C1245 1.363 . S
C1241 H1212 0.950 . S
C1241 C1240 1.397 . S
C1241 C1242 1.334 . S
C1242 H1213 0.950 . S
C1242 C1241 1.334 . S
C1242 C1243 1.287 . S
C1243 C1242 1.287 . S
C1243 C1244 1.524 . S
C1243 H1246 0.999 . S
C1244 H1214 0.950 . S
C1244 C1243 1.524 . S
C1244 C1245 1.415 . S
C1245 H1215 0.950 1_565 S
C1245 C1240 1.363 . S
C1245 C1244 1.415 . S
H1246 C1243 0.999 . S
H1247 C1228 0.913 . S
H1248 C1266 0.951 . S
H1249 C1268 0.951 . S
H1250 C1270 0.950 . S
H1251 C1271 0.950 . S
H1252 C1273 0.950 . S
H1253 C1276 0.950 . S
H1254 C1277 0.950 . S
H1255 C1279 0.950 . S
H1256 C1280 0.950 . S
H1257 C1281 0.951 . S
H1258 C1283 0.951 . S
H1259 C1285 0.950 . S
H1260 C1286 0.950 . S
H1261 C1288 0.950 . S
H1262 C1291 0.950 . S
H1263 C1292 0.950 . S
H1264 C1294 0.950 . S
H1265 C1295 0.950 . S
C1266 H1248 0.951 . S
C1266 C1267 1.366 . S
C1266 C1268 1.388 . S
C1267 C1266 1.366 . S
C1267 C1271 1.385 . S
C1268 H1249 0.951 . S
C1268 C1266 1.388 . S
C1268 C1269 1.366 . S
C1269 C1268 1.366 . S
C1269 C1270 1.414 . S
C1269 C1272 1.499 . S
C1270 H1250 0.950 . S
C1270 C1269 1.414 . S
C1270 C1271 1.374 . S
C1271 H1251 0.950 . S
C1271 C1267 1.385 . S
C1271 C1270 1.374 . S
C1272 C1269 1.499 . S
C1272 C1273 1.373 . S
C1272 C1274 1.389 . S
C1273 H1252 0.950 . S
C1273 C1272 1.373 . S
C1273 C1289 1.377 . S
C1274 C1272 1.389 . S
C1274 C1275 1.524 . S
C1274 C1288 1.377 . S
C1275 C1274 1.524 . S
C1275 C1276 1.397 . S
C1275 C1280 1.363 . S
C1276 H1253 0.950 . S
C1276 C1275 1.397 . S
C1276 C1277 1.334 . S
C1277 H1254 0.950 . S
C1277 C1276 1.334 . S
C1277 C1278 1.287 . S
C1278 C1277 1.287 . S
C1278 C1279 1.524 . S
C1278 H1297 0.913 . S
C1279 H1255 0.950 . S
C1279 C1278 1.524 . S
C1279 C1280 1.415 . S
C1280 H1256 0.950 . S
C1280 C1275 1.363 . S
C1280 C1279 1.415 . S
C1281 H1257 0.951 . S
C1281 C1282 1.366 . S
C1281 C1283 1.388 . S
C1282 C1281 1.366 . S
C1282 C1286 1.385 . S
C1283 H1258 0.951 . S
C1283 C1281 1.388 . S
C1283 C1284 1.366 . S
C1284 C1283 1.366 . S
C1284 C1285 1.414 . S
C1284 C1287 1.499 . S
C1285 H1259 0.950 . S
C1285 C1284 1.414 . S
C1285 C1286 1.374 . S
C1286 H1260 0.950 . S
C1286 C1282 1.385 . S
C1286 C1285 1.374 . S
C1287 C1284 1.499 . S
C1287 C1288 1.373 . S
C1287 C1289 1.389 . S
C1288 H1261 0.950 . S
C1288 C1274 1.377 . S
C1288 C1287 1.373 . S
C1289 C1273 1.377 . S
C1289 C1287 1.389 . S
C1289 C1290 1.524 . S
C1290 C1289 1.524 . S
C1290 C1291 1.397 . S
C1290 C1295 1.363 . S
C1291 H1262 0.950 . S
C1291 C1290 1.397 . S
C1291 C1292 1.334 . S
C1292 H1263 0.950 . S
C1292 C1291 1.334 . S
C1292 C1293 1.287 . S
C1293 C1292 1.287 . S
C1293 C1294 1.524 . S
C1293 H1296 0.999 . S
C1294 H1264 0.950 . S
C1294 C1293 1.524 . S
C1294 C1295 1.415 . S
C1295 H1265 0.950 . S
C1295 C1290 1.363 . S
C1295 C1294 1.415 . S
H1296 C1293 0.999 . S
H1297 C1278 0.913 . S
H1298 C1316 0.951 . S
H1299 C1318 0.951 . S
H1300 C1320 0.950 . S
H1301 C1321 0.950 . S
H1302 C1323 0.950 . S
H1303 C1326 0.950 . S
H1304 C1327 0.950 . S
H1305 C1329 0.950 . S
H1306 C1330 0.950 . S
H1307 C1331 0.951 . S
H1308 C1333 0.951 . S
H1309 C1335 0.950 . S
H1310 C1336 0.950 . S
H1311 C1338 0.950 . S
H1312 C1341 0.950 . S
H1313 C1342 0.950 . S
H1314 C1344 0.950 . S
H1315 C1345 0.950 . S
C1316 H1298 0.951 . S
C1316 C1317 1.366 . S
C1316 C1318 1.388 . S
C1317 C1316 1.366 . S
C1317 C1321 1.385 . S
C1318 H1299 0.951 . S
C1318 C1316 1.388 . S
C1318 C1319 1.366 . S
C1319 C1318 1.366 . S
C1319 C1320 1.414 . S
C1319 C1322 1.499 . S
C1320 H1300 0.950 . S
C1320 C1319 1.414 . S
C1320 C1321 1.374 . S
C1321 H1301 0.950 . S
C1321 C1317 1.385 . S
C1321 C1320 1.374 . S
C1322 C1319 1.499 . S
C1322 C1323 1.373 . S
C1322 C1324 1.389 . S
C1323 H1302 0.950 . S
C1323 C1322 1.373 . S
C1323 C1339 1.377 . S
C1324 C1322 1.389 . S
C1324 C1325 1.524 . S
C1324 C1338 1.377 . S
C1325 C1324 1.524 . S
C1325 C1326 1.397 . S
C1325 C1330 1.363 . S
C1326 H1303 0.950 . S
C1326 C1325 1.397 . S
C1326 C1327 1.334 . S
C1327 H1304 0.950 . S
C1327 C1326 1.334 . S
C1327 C1328 1.287 . S
C1328 C1327 1.287 . S
C1328 C1329 1.524 . S
C1328 H1347 0.913 . S
C1329 H1305 0.950 . S
C1329 C1328 1.524 . S
C1329 C1330 1.415 . S
C1330 H1306 0.950 . S
C1330 C1325 1.363 . S
C1330 C1329 1.415 . S
C1331 H1307 0.951 . S
C1331 C1332 1.366 . S
C1331 C1333 1.388 . S
C1332 C1331 1.366 . S
C1332 C1336 1.385 . S
C1333 H1308 0.951 . S
C1333 C1331 1.388 . S
C1333 C1334 1.366 . S
C1334 C1333 1.366 . S
C1334 C1335 1.414 . S
C1334 C1337 1.499 . S
C1335 H1309 0.950 . S
C1335 C1334 1.414 . S
C1335 C1336 1.374 . S
C1336 H1310 0.950 . S
C1336 C1332 1.385 . S
C1336 C1335 1.374 . S
C1337 C1334 1.499 . S
C1337 C1338 1.373 . S
C1337 C1339 1.389 . S
C1338 H1311 0.950 . S
C1338 C1324 1.377 . S
C1338 C1337 1.373 . S
C1339 C1323 1.377 . S
C1339 C1337 1.389 . S
C1339 C1340 1.524 . S
C1340 C1339 1.524 . S
C1340 C1341 1.397 . S
C1340 C1345 1.363 . S
C1341 H1312 0.950 . S
C1341 C1340 1.397 . S
C1341 C1342 1.334 . S
C1342 H1313 0.950 . S
C1342 C1341 1.334 . S
C1342 C1343 1.287 . S
C1343 C1342 1.287 . S
C1343 C1344 1.524 . S
C1343 H1346 0.999 . S
C1344 H1314 0.950 . S
C1344 C1343 1.524 . S
C1344 C1345 1.415 . S
C1345 H1315 0.950 . S
C1345 C1340 1.363 . S
C1345 C1344 1.415 . S
H1346 C1343 0.999 . S
H1347 C1328 0.913 . S
H1348 C1366 0.951 . S
H1349 C1368 0.951 . S
H1350 C1370 0.950 . S
H1351 C1371 0.950 . S
H1352 C1373 0.950 . S
H1353 C1376 0.950 . S
H1354 C1377 0.950 . S
H1355 C1379 0.950 . S
H1356 C1380 0.950 . S
H1357 C1381 0.951 . S
H1358 C1383 0.951 . S
H1359 C1385 0.950 . S
H1360 C1386 0.950 . S
H1361 C1388 0.950 . S
H1362 C1391 0.950 . S
H1363 C1392 0.950 . S
H1364 C1394 0.950 . S
H1365 C1395 0.950 . S
C1366 H1348 0.951 . S
C1366 C1367 1.366 . S
C1366 C1368 1.388 . S
C1367 C1366 1.366 . S
C1367 C1371 1.385 . S
C1368 H1349 0.951 . S
C1368 C1366 1.388 . S
C1368 C1369 1.366 . S
C1369 C1368 1.366 . S
C1369 C1370 1.414 . S
C1369 C1372 1.499 . S
C1370 H1350 0.950 . S
C1370 C1369 1.414 . S
C1370 C1371 1.374 . S
C1371 H1351 0.950 . S
C1371 C1367 1.385 . S
C1371 C1370 1.374 . S
C1372 C1369 1.499 . S
C1372 C1373 1.373 . S
C1372 C1374 1.389 . S
C1373 H1352 0.950 . S
C1373 C1372 1.373 . S
C1373 C1389 1.377 . S
C1374 C1372 1.389 . S
C1374 C1375 1.524 . S
C1374 C1388 1.377 . S
C1375 C1374 1.524 . S
C1375 C1376 1.397 . S
C1375 C1380 1.363 . S
C1376 H1353 0.950 . S
C1376 C1375 1.397 . S
C1376 C1377 1.334 . S
C1377 H1354 0.950 . S
C1377 C1376 1.334 . S
C1377 C1378 1.287 . S
C1378 C1377 1.287 . S
C1378 C1379 1.524 . S
C1378 H1397 0.913 . S
C1379 H1355 0.950 . S
C1379 C1378 1.524 . S
C1379 C1380 1.415 . S
C1380 H1356 0.950 . S
C1380 C1375 1.363 . S
C1380 C1379 1.415 . S
C1381 H1357 0.951 . S
C1381 C1382 1.366 . S
C1381 C1383 1.388 . S
C1382 C1381 1.366 . S
C1382 C1386 1.385 . S
C1383 H1358 0.951 . S
C1383 C1381 1.388 . S
C1383 C1384 1.366 . S
C1384 C1383 1.366 . S
C1384 C1385 1.414 . S
C1384 C1387 1.499 . S
C1385 H1359 0.950 . S
C1385 C1384 1.414 . S
C1385 C1386 1.374 . S
C1386 H1360 0.950 . S
C1386 C1382 1.385 . S
C1386 C1385 1.374 . S
C1387 C1384 1.499 . S
C1387 C1388 1.373 . S
C1387 C1389 1.389 . S
C1388 H1361 0.950 . S
C1388 C1374 1.377 . S
C1388 C1387 1.373 . S
C1389 C1373 1.377 . S
C1389 C1387 1.389 . S
C1389 C1390 1.524 . S
C1390 C1389 1.524 . S
C1390 C1391 1.397 . S
C1390 C1395 1.363 . S
C1391 H1362 0.950 . S
C1391 C1390 1.397 . S
C1391 C1392 1.334 . S
C1392 H1363 0.950 . S
C1392 C1391 1.334 . S
C1392 C1393 1.287 . S
C1393 C1392 1.287 . S
C1393 C1394 1.524 . S
C1393 H1396 0.999 . S
C1394 H1364 0.950 . S
C1394 C1393 1.524 . S
C1394 C1395 1.415 . S
C1395 H1365 0.950 . S
C1395 C1390 1.363 . S
C1395 C1394 1.415 . S
H1396 C1393 0.999 . S
H1397 C1378 0.913 . S
H1398 C1416 0.951 . S
H1399 C1418 0.951 . S
H1400 C1420 0.950 . S
H1401 C1421 0.950 . S
H1402 C1423 0.950 . S
H1403 C1426 0.950 . S
H1404 C1427 0.950 . S
H1405 C1429 0.950 . S
H1406 C1430 0.950 . S
H1407 C1431 0.951 . S
H1408 C1433 0.951 . S
H1409 C1435 0.950 . S
H1410 C1436 0.950 . S
H1411 C1438 0.950 . S
H1412 C1441 0.950 . S
H1413 C1442 0.950 . S
H1414 C1444 0.950 . S
H1415 C1445 0.950 . S
C1416 H1398 0.951 . S
C1416 C1417 1.366 . S
C1416 C1418 1.388 . S
C1417 C1416 1.366 . S
C1417 C1421 1.385 . S
C1418 H1399 0.951 . S
C1418 C1416 1.388 . S
C1418 C1419 1.366 . S
C1419 C1418 1.366 . S
C1419 C1420 1.414 . S
C1419 C1422 1.499 . S
C1420 H1400 0.950 . S
C1420 C1419 1.414 . S
C1420 C1421 1.374 . S
C1421 H1401 0.950 . S
C1421 C1417 1.385 . S
C1421 C1420 1.374 . S
C1422 C1419 1.499 . S
C1422 C1423 1.373 . S
C1422 C1424 1.389 . S
C1423 H1402 0.950 . S
C1423 C1422 1.373 . S
C1423 C1439 1.377 . S
C1424 C1422 1.389 . S
C1424 C1425 1.524 . S
C1424 C1438 1.377 . S
C1425 C1424 1.524 . S
C1425 C1426 1.397 . S
C1425 C1430 1.363 . S
C1426 H1403 0.950 . S
C1426 C1425 1.397 . S
C1426 C1427 1.334 . S
C1427 H1404 0.950 . S
C1427 C1426 1.334 . S
C1427 C1428 1.287 . S
C1428 C1427 1.287 . S
C1428 C1429 1.524 . S
C1428 H1447 0.913 . S
C1429 H1405 0.950 . S
C1429 C1428 1.524 . S
C1429 C1430 1.415 . S
C1430 H1406 0.950 . S
C1430 C1425 1.363 . S
C1430 C1429 1.415 . S
C1431 H1407 0.951 . S
C1431 C1432 1.366 . S
C1431 C1433 1.388 . S
C1432 C1431 1.366 . S
C1432 C1436 1.385 . S
C1433 H1408 0.951 . S
C1433 C1431 1.388 . S
C1433 C1434 1.366 . S
C1434 C1433 1.366 . S
C1434 C1435 1.414 . S
C1434 C1437 1.499 . S
C1435 H1409 0.950 . S
C1435 C1434 1.414 . S
C1435 C1436 1.374 . S
C1436 H1410 0.950 . S
C1436 C1432 1.385 . S
C1436 C1435 1.374 . S
C1437 C1434 1.499 . S
C1437 C1438 1.373 . S
C1437 C1439 1.389 . S
C1438 H1411 0.950 . S
C1438 C1424 1.377 . S
C1438 C1437 1.373 . S
C1439 C1423 1.377 . S
C1439 C1437 1.389 . S
C1439 C1440 1.524 . S
C1440 C1439 1.524 . S
C1440 C1441 1.397 . S
C1440 C1445 1.363 . S
C1441 H1412 0.950 . S
C1441 C1440 1.397 . S
C1441 C1442 1.334 . S
C1442 H1413 0.950 . S
C1442 C1441 1.334 . S
C1442 C1443 1.287 . S
C1443 C1442 1.287 . S
C1443 C1444 1.524 . S
C1443 H1446 0.999 . S
C1444 H1414 0.950 . S
C1444 C1443 1.524 . S
C1444 C1445 1.415 . S
C1445 H1415 0.950 . S
C1445 C1440 1.363 . S
C1445 C1444 1.415 . S
H1446 C1443 0.999 . S
H1447 C1428 0.913 . S
H1448 C1466 0.951 . S
H1449 C1468 0.951 . S
H1450 C1470 0.950 . S
H1451 C1471 0.950 . S
H1452 C1473 0.950 . S
H1453 C1476 0.950 . S
H1454 C1477 0.950 . S
H1455 C1479 0.950 . S
H1456 C1480 0.950 . S
H1457 C1481 0.951 . S
H1458 C1483 0.951 . S
H1459 C1485 0.950 . S
H1460 C1486 0.950 . S
H1461 C1488 0.950 . S
H1462 C1491 0.950 . S
H1463 C1492 0.950 . S
H1464 C1494 0.950 . S
H1465 C1495 0.950 . S
C1466 H1448 0.951 . S
C1466 C1467 1.366 . S
C1466 C1468 1.388 . S
C1467 C1466 1.366 . S
C1467 C1471 1.385 . S
C1468 H1449 0.951 . S
C1468 C1466 1.388 . S
C1468 C1469 1.366 . S
C1469 C1468 1.366 . S
C1469 C1470 1.414 . S
C1469 C1472 1.499 . S
C1470 H1450 0.950 . S
C1470 C1469 1.414 . S
C1470 C1471 1.374 . S
C1471 H1451 0.950 . S
C1471 C1467 1.385 . S
C1471 C1470 1.374 . S
C1472 C1469 1.499 . S
C1472 C1473 1.373 . S
C1472 C1474 1.389 . S
C1473 H1452 0.950 . S
C1473 C1472 1.373 . S
C1473 C1489 1.377 . S
C1474 C1472 1.389 . S
C1474 C1475 1.524 . S
C1474 C1488 1.377 . S
C1475 C1474 1.524 . S
C1475 C1476 1.397 . S
C1475 C1480 1.363 . S
C1476 H1453 0.950 . S
C1476 C1475 1.397 . S
C1476 C1477 1.334 . S
C1477 H1454 0.950 . S
C1477 C1476 1.334 . S
C1477 C1478 1.287 . S
C1478 C1477 1.287 . S
C1478 C1479 1.524 . S
C1478 H1497 0.913 . S
C1479 H1455 0.950 . S
C1479 C1478 1.524 . S
C1479 C1480 1.415 . S
C1480 H1456 0.950 . S
C1480 C1475 1.363 . S
C1480 C1479 1.415 . S
C1481 H1457 0.951 . S
C1481 C1482 1.366 . S
C1481 C1483 1.388 . S
C1482 C1481 1.366 . S
C1482 C1486 1.385 . S
C1483 H1458 0.951 . S
C1483 C1481 1.388 . S
C1483 C1484 1.366 . S
C1484 C1483 1.366 . S
C1484 C1485 1.414 . S
C1484 C1487 1.499 . S
C1485 H1459 0.950 . S
C1485 C1484 1.414 . S
C1485 C1486 1.374 . S
C1486 H1460 0.950 . S
C1486 C1482 1.385 . S
C1486 C1485 1.374 . S
C1487 C1484 1.499 . S
C1487 C1488 1.373 . S
C1487 C1489 1.389 . S
C1488 H1461 0.950 . S
C1488 C1474 1.377 . S
C1488 C1487 1.373 . S
C1489 C1473 1.377 . S
C1489 C1487 1.389 . S
C1489 C1490 1.524 . S
C1490 C1489 1.524 . S
C1490 C1491 1.397 . S
C1490 C1495 1.363 . S
C1491 H1462 0.950 . S
C1491 C1490 1.397 . S
C1491 C1492 1.334 . S
C1492 H1463 0.950 . S
C1492 C1491 1.334 . S
C1492 C1493 1.287 . S
C1493 C1492 1.287 . S
C1493 C1494 1.524 . S
C1493 H1496 0.999 . S
C1494 H1464 0.950 . S
C1494 C1493 1.524 . S
C1494 C1495 1.415 . S
C1495 H1465 0.950 . S
C1495 C1490 1.363 . S
C1495 C1494 1.415 . S
H1496 C1493 0.999 . S
H1497 C1478 0.913 . S
H1498 C1516 0.951 . S
H1499 C1518 0.951 . S
H1500 C1520 0.950 . S
H1501 C1521 0.950 . S
H1502 C1523 0.950 . S
H1503 C1526 0.950 . S
H1504 C1527 0.950 . S
H1505 C1529 0.950 . S
H1506 C1530 0.950 . S
H1507 C1531 0.951 . S
H1508 C1533 0.951 . S
H1509 C1535 0.950 . S
H1510 C1536 0.950 . S
H1511 C1538 0.950 . S
H1512 C1541 0.950 . S
H1513 C1542 0.950 . S
H1514 C1544 0.950 . S
H1515 C1545 0.950 . S
C1516 H1498 0.951 . S
C1516 C1517 1.366 . S
C1516 C1518 1.388 . S
C1517 C1516 1.366 . S
C1517 C1521 1.385 . S
C1518 H1499 0.951 . S
C1518 C1516 1.388 . S
C1518 C1519 1.366 . S
C1519 C1518 1.366 . S
C1519 C1520 1.414 . S
C1519 C1522 1.499 . S
C1520 H1500 0.950 . S
C1520 C1519 1.414 . S
C1520 C1521 1.374 . S
C1521 H1501 0.950 . S
C1521 C1517 1.385 . S
C1521 C1520 1.374 . S
C1522 C1519 1.499 . S
C1522 C1523 1.373 . S
C1522 C1524 1.389 . S
C1523 H1502 0.950 . S
C1523 C1522 1.373 . S
C1523 C1539 1.377 . S
C1524 C1522 1.389 . S
C1524 C1525 1.524 . S
C1524 C1538 1.377 . S
C1525 C1524 1.524 . S
C1525 C1526 1.397 . S
C1525 C1530 1.363 . S
C1526 H1503 0.950 . S
C1526 C1525 1.397 . S
C1526 C1527 1.334 . S
C1527 H1504 0.950 . S
C1527 C1526 1.334 . S
C1527 C1528 1.287 . S
C1528 C1527 1.287 . S
C1528 C1529 1.524 . S
C1528 H1547 0.913 . S
C1529 H1505 0.950 . S
C1529 C1528 1.524 . S
C1529 C1530 1.415 . S
C1530 H1506 0.950 . S
C1530 C1525 1.363 . S
C1530 C1529 1.415 . S
C1531 H1507 0.951 . S
C1531 C1532 1.366 . S
C1531 C1533 1.388 . S
C1532 C1531 1.366 . S
C1532 C1536 1.385 . S
C1533 H1508 0.951 . S
C1533 C1531 1.388 . S
C1533 C1534 1.366 . S
C1534 C1533 1.366 . S
C1534 C1535 1.414 . S
C1534 C1537 1.499 . S
C1535 H1509 0.950 . S
C1535 C1534 1.414 . S
C1535 C1536 1.374 . S
C1536 H1510 0.950 . S
C1536 C1532 1.385 . S
C1536 C1535 1.374 . S
C1537 C1534 1.499 . S
C1537 C1538 1.373 . S
C1537 C1539 1.389 . S
C1538 H1511 0.950 . S
C1538 C1524 1.377 . S
C1538 C1537 1.373 . S
C1539 C1523 1.377 . S
C1539 C1537 1.389 . S
C1539 C1540 1.524 . S
C1540 C1539 1.524 . S
C1540 C1541 1.397 . S
C1540 C1545 1.363 . S
C1541 H1512 0.950 . S
C1541 C1540 1.397 . S
C1541 C1542 1.334 . S
C1542 H1513 0.950 . S
C1542 C1541 1.334 . S
C1542 C1543 1.287 . S
C1543 C1542 1.287 . S
C1543 C1544 1.524 . S
C1543 H1546 0.999 . S
C1544 H1514 0.950 . S
C1544 C1543 1.524 . S
C1544 C1545 1.415 . S
C1545 H1515 0.950 . S
C1545 C1540 1.363 . S
C1545 C1544 1.415 . S
H1546 C1543 0.999 . S
H1547 C1528 0.913 . S
H1548 C1566 0.951 . S
H1549 C1568 0.951 . S
H1550 C1570 0.950 . S
H1551 C1571 0.950 . S
H1552 C1573 0.950 . S
H1553 C1576 0.950 . S
H1554 C1577 0.950 . S
H1555 C1579 0.950 . S
H1556 C1580 0.950 . S
H1557 C1581 0.951 . S
H1558 C1583 0.951 . S
H1559 C1585 0.950 . S
H1560 C1586 0.950 . S
H1561 C1588 0.950 . S
H1562 C1591 0.950 . S
H1563 C1592 0.950 . S
H1564 C1594 0.950 . S
H1565 C1595 0.950 . S
C1566 H1548 0.951 . S
C1566 C1567 1.366 . S
C1566 C1568 1.388 . S
C1567 C1566 1.366 . S
C1567 C1571 1.385 . S
C1568 H1549 0.951 . S
C1568 C1566 1.388 . S
C1568 C1569 1.366 . S
C1569 C1568 1.366 . S
C1569 C1570 1.414 . S
C1569 C1572 1.499 . S
C1570 H1550 0.950 . S
C1570 C1569 1.414 . S
C1570 C1571 1.374 . S
C1571 H1551 0.950 . S
C1571 C1567 1.385 . S
C1571 C1570 1.374 . S
C1572 C1569 1.499 . S
C1572 C1573 1.373 . S
C1572 C1574 1.389 . S
C1573 H1552 0.950 . S
C1573 C1572 1.373 . S
C1573 C1589 1.377 . S
C1574 C1572 1.389 . S
C1574 C1575 1.524 . S
C1574 C1588 1.377 . S
C1575 C1574 1.524 . S
C1575 C1576 1.397 . S
C1575 C1580 1.363 . S
C1576 H1553 0.950 . S
C1576 C1575 1.397 . S
C1576 C1577 1.334 . S
C1577 H1554 0.950 . S
C1577 C1576 1.334 . S
C1577 C1578 1.287 . S
C1578 C1577 1.287 . S
C1578 C1579 1.524 . S
C1578 H1597 0.913 . S
C1579 H1555 0.950 . S
C1579 C1578 1.524 . S
C1579 C1580 1.415 . S
C1580 H1556 0.950 . S
C1580 C1575 1.363 . S
C1580 C1579 1.415 . S
C1581 H1557 0.951 . S
C1581 C1582 1.366 . S
C1581 C1583 1.388 . S
C1582 C1581 1.366 . S
C1582 C1586 1.385 . S
C1583 H1558 0.951 . S
C1583 C1581 1.388 . S
C1583 C1584 1.366 . S
C1584 C1583 1.366 . S
C1584 C1585 1.414 . S
C1584 C1587 1.499 . S
C1585 H1559 0.950 . S
C1585 C1584 1.414 . S
C1585 C1586 1.374 . S
C1586 H1560 0.950 . S
C1586 C1582 1.385 . S
C1586 C1585 1.374 . S
C1587 C1584 1.499 . S
C1587 C1588 1.373 . S
C1587 C1589 1.389 . S
C1588 H1561 0.950 . S
C1588 C1574 1.377 . S
C1588 C1587 1.373 . S
C1589 C1573 1.377 . S
C1589 C1587 1.389 . S
C1589 C1590 1.524 . S
C1590 C1589 1.524 . S
C1590 C1591 1.397 . S
C1590 C1595 1.363 . S
C1591 H1562 0.950 . S
C1591 C1590 1.397 . S
C1591 C1592 1.334 . S
C1592 H1563 0.950 . S
C1592 C1591 1.334 . S
C1592 C1593 1.287 . S
C1593 C1592 1.287 . S
C1593 C1594 1.524 . S
C1593 H1596 0.999 . S
C1594 H1564 0.950 . S
C1594 C1593 1.524 . S
C1594 C1595 1.415 . S
C1595 H1565 0.950 . S
C1595 C1590 1.363 . S
C1595 C1594 1.415 . S
H1596 C1593 0.999 . S
H1597 C1578 0.913 . S
H1598 C1616 0.951 . S
H1599 C1618 0.951 . S
H1600 C1620 0.950 . S
H1601 C1621 0.950 . S
H1602 C1623 0.950 . S
H1603 C1626 0.950 . S
H1604 C1627 0.950 . S
H1605 C1629 0.950 . S
H1606 C1630 0.950 . S
H1607 C1631 0.951 . S
H1608 C1633 0.951 . S
H1609 C1635 0.950 . S
H1610 C1636 0.950 . S
H1611 C1638 0.950 . S
H1612 C1641 0.950 . S
H1613 C1642 0.950 . S
H1614 C1644 0.950 . S
H1615 C1645 0.950 . S
C1616 H1598 0.951 . S
C1616 C1617 1.366 . S
C1616 C1618 1.388 . S
C1617 C1616 1.366 . S
C1617 C1621 1.385 . S
C1618 H1599 0.951 . S
C1618 C1616 1.388 . S
C1618 C1619 1.366 . S
C1619 C1618 1.366 . S
C1619 C1620 1.414 . S
C1619 C1622 1.499 . S
C1620 H1600 0.950 . S
C1620 C1619 1.414 . S
C1620 C1621 1.374 . S
C1621 H1601 0.950 . S
C1621 C1617 1.385 . S
C1621 C1620 1.374 . S
C1622 C1619 1.499 . S
C1622 C1623 1.373 . S
C1622 C1624 1.389 . S
C1623 H1602 0.950 . S
C1623 C1622 1.373 . S
C1623 C1639 1.377 . S
C1624 C1622 1.389 . S
C1624 C1625 1.524 . S
C1624 C1638 1.377 . S
C1625 C1624 1.524 . S
C1625 C1626 1.397 . S
C1625 C1630 1.363 . S
C1626 H1603 0.950 . S
C1626 C1625 1.397 . S
C1626 C1627 1.334 . S
C1627 H1604 0.950 . S
C1627 C1626 1.334 . S
C1627 C1628 1.287 . S
C1628 C1627 1.287 . S
C1628 C1629 1.524 . S
C1628 H1647 0.913 . S
C1629 H1605 0.950 . S
C1629 C1628 1.524 . S
C1629 C1630 1.415 . S
C1630 H1606 0.950 . S
C1630 C1625 1.363 . S
C1630 C1629 1.415 . S
C1631 H1607 0.951 . S
C1631 C1632 1.366 . S
C1631 C1633 1.388 . S
C1632 C1631 1.366 . S
C1632 C1636 1.385 . S
C1633 H1608 0.951 . S
C1633 C1631 1.388 . S
C1633 C1634 1.366 . S
C1634 C1633 1.366 . S
C1634 C1635 1.414 . S
C1634 C1637 1.499 . S
C1635 H1609 0.950 . S
C1635 C1634 1.414 . S
C1635 C1636 1.374 . S
C1636 H1610 0.950 . S
C1636 C1632 1.385 . S
C1636 C1635 1.374 . S
C1637 C1634 1.499 . S
C1637 C1638 1.373 . S
C1637 C1639 1.389 . S
C1638 H1611 0.950 . S
C1638 C1624 1.377 . S
C1638 C1637 1.373 . S
C1639 C1623 1.377 . S
C1639 C1637 1.389 . S
C1639 C1640 1.524 . S
C1640 C1639 1.524 . S
C1640 C1641 1.397 . S
C1640 C1645 1.363 . S
C1641 H1612 0.950 . S
C1641 C1640 1.397 . S
C1641 C1642 1.334 . S
C1642 H1613 0.950 . S
C1642 C1641 1.334 . S
C1642 C1643 1.287 . S
C1643 C1642 1.287 . S
C1643 C1644 1.524 . S
C1643 H1646 0.999 . S
C1644 H1614 0.950 . S
C1644 C1643 1.524 . S
C1644 C1645 1.415 . S
C1645 H1615 0.950 . S
C1645 C1640 1.363 . S
C1645 C1644 1.415 . S
H1646 C1643 0.999 . S
H1647 C1628 0.913 . S
H1648 C1666 0.951 . S
H1649 C1668 0.951 . S
H1650 C1670 0.950 . S
H1651 C1671 0.950 . S
H1652 C1673 0.950 . S
H1653 C1676 0.950 . S
H1654 C1677 0.950 . S
H1655 C1679 0.950 . S
H1656 C1680 0.950 . S
H1657 C1681 0.951 . S
H1658 C1683 0.951 . S
H1659 C1685 0.950 . S
H1660 C1686 0.950 . S
H1661 C1688 0.950 . S
H1662 C1691 0.950 . S
H1663 C1692 0.950 . S
H1664 C1694 0.950 . S
H1665 C1695 0.950 . S
C1666 H1648 0.951 . S
C1666 C1667 1.366 . S
C1666 C1668 1.388 . S
C1667 C1666 1.366 . S
C1667 C1671 1.385 . S
C1668 H1649 0.951 . S
C1668 C1666 1.388 . S
C1668 C1669 1.366 . S
C1669 C1668 1.366 . S
C1669 C1670 1.414 . S
C1669 C1672 1.499 . S
C1670 H1650 0.950 . S
C1670 C1669 1.414 . S
C1670 C1671 1.374 . S
C1671 H1651 0.950 . S
C1671 C1667 1.385 . S
C1671 C1670 1.374 . S
C1672 C1669 1.499 . S
C1672 C1673 1.373 . S
C1672 C1674 1.389 . S
C1673 H1652 0.950 . S
C1673 C1672 1.373 . S
C1673 C1689 1.377 1_556 S
C1674 C1672 1.389 . S
C1674 C1675 1.524 . S
C1674 C1688 1.377 1_556 S
C1675 C1674 1.524 . S
C1675 C1676 1.397 . S
C1675 C1680 1.363 . S
C1676 H1653 0.950 . S
C1676 C1675 1.397 . S
C1676 C1677 1.334 . S
C1677 H1654 0.950 . S
C1677 C1676 1.334 . S
C1677 C1678 1.287 . S
C1678 C1677 1.287 . S
C1678 C1679 1.524 . S
C1678 H1697 0.913 . S
C1679 H1655 0.950 . S
C1679 C1678 1.524 . S
C1679 C1680 1.415 . S
C1680 H1656 0.950 . S
C1680 C1675 1.363 . S
C1680 C1679 1.415 . S
C1681 H1657 0.951 . S
C1681 C1682 1.366 . S
C1681 C1683 1.388 . S
C1682 C1681 1.366 . S
C1682 C1686 1.385 . S
C1683 H1658 0.951 . S
C1683 C1681 1.388 . S
C1683 C1684 1.366 . S
C1684 C1683 1.366 . S
C1684 C1685 1.414 . S
C1684 C1687 1.499 . S
C1685 H1659 0.950 . S
C1685 C1684 1.414 . S
C1685 C1686 1.374 . S
C1686 H1660 0.950 . S
C1686 C1682 1.385 . S
C1686 C1685 1.374 . S
C1687 C1684 1.499 . S
C1687 C1688 1.373 . S
C1687 C1689 1.389 . S
C1688 H1661 0.950 . S
C1688 C1674 1.377 1_554 S
C1688 C1687 1.373 . S
C1689 C1673 1.377 1_554 S
C1689 C1687 1.389 . S
C1689 C1690 1.524 . S
C1690 C1689 1.524 . S
C1690 C1691 1.397 . S
C1690 C1695 1.363 . S
C1691 H1662 0.950 . S
C1691 C1690 1.397 . S
C1691 C1692 1.334 . S
C1692 H1663 0.950 . S
C1692 C1691 1.334 . S
C1692 C1693 1.287 . S
C1693 C1692 1.287 . S
C1693 C1694 1.524 . S
C1693 H1696 0.999 . S
C1694 H1664 0.950 . S
C1694 C1693 1.524 . S
C1694 C1695 1.415 . S
C1695 H1665 0.950 . S
C1695 C1690 1.363 . S
C1695 C1694 1.415 . S
H1696 C1693 0.999 . S
H1697 C1678 0.913 . S
H1698 C1716 0.951 . S
H1699 C1718 0.951 . S
H1700 C1720 0.950 . S
H1701 C1721 0.950 . S
H1702 C1723 0.950 . S
H1703 C1726 0.950 . S
H1704 C1727 0.950 . S
H1705 C1729 0.950 . S
H1706 C1730 0.950 . S
H1707 C1731 0.951 . S
H1708 C1733 0.951 . S
H1709 C1735 0.950 . S
H1710 C1736 0.950 . S
H1711 C1738 0.950 . S
H1712 C1741 0.950 . S
H1713 C1742 0.950 . S
H1714 C1744 0.950 . S
H1715 C1745 0.950 . S
C1716 H1698 0.951 . S
C1716 C1717 1.366 . S
C1716 C1718 1.388 . S
C1717 C1716 1.366 . S
C1717 C1721 1.385 . S
C1718 H1699 0.951 . S
C1718 C1716 1.388 . S
C1718 C1719 1.366 . S
C1719 C1718 1.366 . S
C1719 C1720 1.414 . S
C1719 C1722 1.499 . S
C1720 H1700 0.950 . S
C1720 C1719 1.414 . S
C1720 C1721 1.374 . S
C1721 H1701 0.950 . S
C1721 C1717 1.385 . S
C1721 C1720 1.374 . S
C1722 C1719 1.499 . S
C1722 C1723 1.373 . S
C1722 C1724 1.389 . S
C1723 H1702 0.950 . S
C1723 C1722 1.373 . S
C1723 C1739 1.377 . S
C1724 C1722 1.389 . S
C1724 C1725 1.524 . S
C1724 C1738 1.377 . S
C1725 C1724 1.524 . S
C1725 C1726 1.397 . S
C1725 C1730 1.363 . S
C1726 H1703 0.950 . S
C1726 C1725 1.397 . S
C1726 C1727 1.334 . S
C1727 H1704 0.950 . S
C1727 C1726 1.334 . S
C1727 C1728 1.287 . S
C1728 C1727 1.287 . S
C1728 C1729 1.524 . S
C1728 H1747 0.913 . S
C1729 H1705 0.950 . S
C1729 C1728 1.524 . S
C1729 C1730 1.415 . S
C1730 H1706 0.950 . S
C1730 C1725 1.363 . S
C1730 C1729 1.415 . S
C1731 H1707 0.951 . S
C1731 C1732 1.366 . S
C1731 C1733 1.388 . S
C1732 C1731 1.366 . S
C1732 C1736 1.385 . S
C1733 H1708 0.951 . S
C1733 C1731 1.388 . S
C1733 C1734 1.366 . S
C1734 C1733 1.366 . S
C1734 C1735 1.414 . S
C1734 C1737 1.499 . S
C1735 H1709 0.950 . S
C1735 C1734 1.414 . S
C1735 C1736 1.374 . S
C1736 H1710 0.950 . S
C1736 C1732 1.385 . S
C1736 C1735 1.374 . S
C1737 C1734 1.499 . S
C1737 C1738 1.373 . S
C1737 C1739 1.389 . S
C1738 H1711 0.950 . S
C1738 C1724 1.377 . S
C1738 C1737 1.373 . S
C1739 C1723 1.377 . S
C1739 C1737 1.389 . S
C1739 C1740 1.524 . S
C1740 C1739 1.524 . S
C1740 C1741 1.397 . S
C1740 C1745 1.363 . S
C1741 H1712 0.950 . S
C1741 C1740 1.397 . S
C1741 C1742 1.334 . S
C1742 H1713 0.950 . S
C1742 C1741 1.334 . S
C1742 C1743 1.287 . S
C1743 C1742 1.287 . S
C1743 C1744 1.524 . S
C1743 H1746 0.999 . S
C1744 H1714 0.950 . S
C1744 C1743 1.524 . S
C1744 C1745 1.415 . S
C1745 H1715 0.950 . S
C1745 C1740 1.363 . S
C1745 C1744 1.415 . S
H1746 C1743 0.999 . S
H1747 C1728 0.913 . S
H1748 C1766 0.951 . S
H1749 C1768 0.951 . S
H1750 C1770 0.950 . S
H1751 C1771 0.950 . S
H1752 C1773 0.950 . S
H1753 C1776 0.950 . S
H1754 C1777 0.950 . S
H1755 C1779 0.950 . S
H1756 C1780 0.950 . S
H1757 C1781 0.951 . S
H1758 C1783 0.951 . S
H1759 C1785 0.950 . S
H1760 C1786 0.950 . S
H1761 C1788 0.950 . S
H1762 C1791 0.950 . S
H1763 C1792 0.950 . S
H1764 C1794 0.950 . S
H1765 C1795 0.950 . S
C1766 H1748 0.951 . S
C1766 C1767 1.366 . S
C1766 C1768 1.388 . S
C1767 C1766 1.366 . S
C1767 C1771 1.385 . S
C1768 H1749 0.951 . S
C1768 C1766 1.388 . S
C1768 C1769 1.366 . S
C1769 C1768 1.366 . S
C1769 C1770 1.414 . S
C1769 C1772 1.499 . S
C1770 H1750 0.950 . S
C1770 C1769 1.414 . S
C1770 C1771 1.374 . S
C1771 H1751 0.950 . S
C1771 C1767 1.385 . S
C1771 C1770 1.374 . S
C1772 C1769 1.499 . S
C1772 C1773 1.373 . S
C1772 C1774 1.389 . S
C1773 H1752 0.950 . S
C1773 C1772 1.373 . S
C1773 C1789 1.377 1_554 S
C1774 C1772 1.389 . S
C1774 C1775 1.524 . S
C1774 C1788 1.377 1_554 S
C1775 C1774 1.524 . S
C1775 C1776 1.397 . S
C1775 C1780 1.363 . S
C1776 H1753 0.950 . S
C1776 C1775 1.397 . S
C1776 C1777 1.334 . S
C1777 H1754 0.950 . S
C1777 C1776 1.334 . S
C1777 C1778 1.287 . S
C1778 C1777 1.287 . S
C1778 C1779 1.524 . S
C1778 H1797 0.913 . S
C1779 H1755 0.950 . S
C1779 C1778 1.524 . S
C1779 C1780 1.415 . S
C1780 H1756 0.950 . S
C1780 C1775 1.363 . S
C1780 C1779 1.415 . S
C1781 H1757 0.951 . S
C1781 C1782 1.366 . S
C1781 C1783 1.388 . S
C1782 C1781 1.366 . S
C1782 C1786 1.385 . S
C1783 H1758 0.951 . S
C1783 C1781 1.388 . S
C1783 C1784 1.366 . S
C1784 C1783 1.366 . S
C1784 C1785 1.414 . S
C1784 C1787 1.499 . S
C1785 H1759 0.950 . S
C1785 C1784 1.414 . S
C1785 C1786 1.374 . S
C1786 H1760 0.950 . S
C1786 C1782 1.385 . S
C1786 C1785 1.374 . S
C1787 C1784 1.499 . S
C1787 C1788 1.373 . S
C1787 C1789 1.389 . S
C1788 H1761 0.950 . S
C1788 C1774 1.377 1_556 S
C1788 C1787 1.373 . S
C1789 C1773 1.377 1_556 S
C1789 C1787 1.389 . S
C1789 C1790 1.524 . S
C1790 C1789 1.524 . S
C1790 C1791 1.397 . S
C1790 C1795 1.363 . S
C1791 H1762 0.950 . S
C1791 C1790 1.397 . S
C1791 C1792 1.334 . S
C1792 H1763 0.950 . S
C1792 C1791 1.334 . S
C1792 C1793 1.287 . S
C1793 C1792 1.287 . S
C1793 C1794 1.524 . S
C1793 H1796 0.999 . S
C1794 H1764 0.950 . S
C1794 C1793 1.524 . S
C1794 C1795 1.415 . S
C1795 H1765 0.950 . S
C1795 C1790 1.363 . S
C1795 C1794 1.415 . S
H1796 C1793 0.999 . S
H1797 C1778 0.913 . S
H1798 C1816 0.951 . S
H1799 C1818 0.951 . S
H1800 C1820 0.950 . S
H1801 C1821 0.950 . S
H1802 C1823 0.950 . S
H1803 C1826 0.950 . S
H1804 C1827 0.950 . S
H1805 C1829 0.950 . S
H1806 C1830 0.950 . S
H1807 C1831 0.951 . S
H1808 C1833 0.951 . S
H1809 C1835 0.950 . S
H1810 C1836 0.950 . S
H1811 C1838 0.950 . S
H1812 C1841 0.950 . S
H1813 C1842 0.950 . S
H1814 C1844 0.950 . S
H1815 C1845 0.950 . S
C1816 H1798 0.951 . S
C1816 C1817 1.366 . S
C1816 C1818 1.388 . S
C1817 C1816 1.366 . S
C1817 C1821 1.385 . S
C1818 H1799 0.951 . S
C1818 C1816 1.388 . S
C1818 C1819 1.366 . S
C1819 C1818 1.366 . S
C1819 C1820 1.414 . S
C1819 C1822 1.499 . S
C1820 H1800 0.950 . S
C1820 C1819 1.414 . S
C1820 C1821 1.374 . S
C1821 H1801 0.950 . S
C1821 C1817 1.385 . S
C1821 C1820 1.374 . S
C1822 C1819 1.499 . S
C1822 C1823 1.373 . S
C1822 C1824 1.389 . S
C1823 H1802 0.950 . S
C1823 C1822 1.373 . S
C1823 C1839 1.377 . S
C1824 C1822 1.389 . S
C1824 C1825 1.524 . S
C1824 C1838 1.377 . S
C1825 C1824 1.524 . S
C1825 C1826 1.397 . S
C1825 C1830 1.363 . S
C1826 H1803 0.950 . S
C1826 C1825 1.397 . S
C1826 C1827 1.334 . S
C1827 H1804 0.950 . S
C1827 C1826 1.334 . S
C1827 C1828 1.287 . S
C1828 C1827 1.287 . S
C1828 C1829 1.524 . S
C1828 H1847 0.913 . S
C1829 H1805 0.950 . S
C1829 C1828 1.524 . S
C1829 C1830 1.415 . S
C1830 H1806 0.950 . S
C1830 C1825 1.363 . S
C1830 C1829 1.415 . S
C1831 H1807 0.951 . S
C1831 C1832 1.366 . S
C1831 C1833 1.388 . S
C1832 C1831 1.366 . S
C1832 C1836 1.385 . S
C1833 H1808 0.951 . S
C1833 C1831 1.388 . S
C1833 C1834 1.366 . S
C1834 C1833 1.366 . S
C1834 C1835 1.414 . S
C1834 C1837 1.499 . S
C1835 H1809 0.950 . S
C1835 C1834 1.414 . S
C1835 C1836 1.374 . S
C1836 H1810 0.950 . S
C1836 C1832 1.385 . S
C1836 C1835 1.374 . S
C1837 C1834 1.499 . S
C1837 C1838 1.373 . S
C1837 C1839 1.389 . S
C1838 H1811 0.950 . S
C1838 C1824 1.377 . S
C1838 C1837 1.373 . S
C1839 C1823 1.377 . S
C1839 C1837 1.389 . S
C1839 C1840 1.524 . S
C1840 C1839 1.524 . S
C1840 C1841 1.397 . S
C1840 C1845 1.363 . S
C1841 H1812 0.950 . S
C1841 C1840 1.397 . S
C1841 C1842 1.334 . S
C1842 H1813 0.950 . S
C1842 C1841 1.334 . S
C1842 C1843 1.287 . S
C1843 C1842 1.287 . S
C1843 C1844 1.524 . S
C1843 H1846 0.999 . S
C1844 H1814 0.950 . S
C1844 C1843 1.524 . S
C1844 C1845 1.415 . S
C1845 H1815 0.950 . S
C1845 C1840 1.363 . S
C1845 C1844 1.415 . S
H1846 C1843 0.999 . S
H1847 C1828 0.913 . S
H1848 C1866 0.951 . S
H1849 C1868 0.951 . S
H1850 C1870 0.950 . S
H1851 C1871 0.950 . S
H1852 C1873 0.950 . S
H1853 C1876 0.950 . S
H1854 C1877 0.950 . S
H1855 C1879 0.950 . S
H1856 C1880 0.950 . S
H1857 C1881 0.951 . S
H1858 C1883 0.951 . S
H1859 C1885 0.950 . S
H1860 C1886 0.950 . S
H1861 C1888 0.950 . S
H1862 C1891 0.950 . S
H1863 C1892 0.950 . S
H1864 C1894 0.950 . S
H1865 C1895 0.950 . S
C1866 H1848 0.951 . S
C1866 C1867 1.366 . S
C1866 C1868 1.388 . S
C1867 C1866 1.366 . S
C1867 C1871 1.385 . S
C1868 H1849 0.951 . S
C1868 C1866 1.388 . S
C1868 C1869 1.366 . S
C1869 C1868 1.366 . S
C1869 C1870 1.414 . S
C1869 C1872 1.499 . S
C1870 H1850 0.950 . S
C1870 C1869 1.414 . S
C1870 C1871 1.374 . S
C1871 H1851 0.950 . S
C1871 C1867 1.385 . S
C1871 C1870 1.374 . S
C1872 C1869 1.499 . S
C1872 C1873 1.373 . S
C1872 C1874 1.389 . S
C1873 H1852 0.950 . S
C1873 C1872 1.373 . S
C1873 C1889 1.377 . S
C1874 C1872 1.389 . S
C1874 C1875 1.524 . S
C1874 C1888 1.377 . S
C1875 C1874 1.524 . S
C1875 C1876 1.397 . S
C1875 C1880 1.363 . S
C1876 H1853 0.950 . S
C1876 C1875 1.397 . S
C1876 C1877 1.334 . S
C1877 H1854 0.950 . S
C1877 C1876 1.334 . S
C1877 C1878 1.287 . S
C1878 C1877 1.287 . S
C1878 C1879 1.524 . S
C1878 H1897 0.913 . S
C1879 H1855 0.950 . S
C1879 C1878 1.524 . S
C1879 C1880 1.415 . S
C1880 H1856 0.950 . S
C1880 C1875 1.363 . S
C1880 C1879 1.415 . S
C1881 H1857 0.951 . S
C1881 C1882 1.366 . S
C1881 C1883 1.388 . S
C1882 C1881 1.366 . S
C1882 C1886 1.385 . S
C1883 H1858 0.951 . S
C1883 C1881 1.388 . S
C1883 C1884 1.366 . S
C1884 C1883 1.366 . S
C1884 C1885 1.414 . S
C1884 C1887 1.499 . S
C1885 H1859 0.950 . S
C1885 C1884 1.414 . S
C1885 C1886 1.374 . S
C1886 H1860 0.950 . S
C1886 C1882 1.385 . S
C1886 C1885 1.374 . S
C1887 C1884 1.499 . S
C1887 C1888 1.373 . S
C1887 C1889 1.389 . S
C1888 H1861 0.950 . S
C1888 C1874 1.377 . S
C1888 C1887 1.373 . S
C1889 C1873 1.377 . S
C1889 C1887 1.389 . S
C1889 C1890 1.524 . S
C1890 C1889 1.524 . S
C1890 C1891 1.397 . S
C1890 C1895 1.363 . S
C1891 H1862 0.950 . S
C1891 C1890 1.397 . S
C1891 C1892 1.334 . S
C1892 H1863 0.950 . S
C1892 C1891 1.334 . S
C1892 C1893 1.287 . S
C1893 C1892 1.287 . S
C1893 C1894 1.524 . S
C1893 H1896 0.999 . S
C1894 H1864 0.950 . S
C1894 C1893 1.524 . S
C1894 C1895 1.415 . S
C1895 H1865 0.950 . S
C1895 C1890 1.363 . S
C1895 C1894 1.415 . S
H1896 C1893 0.999 . S
H1897 C1878 0.913 . S
H1898 C1916 0.951 . S
H1899 C1918 0.951 . S
H1900 C1920 0.950 . S
H1901 C1921 0.950 . S
H1902 C1923 0.950 . S
H1903 C1926 0.950 . S
H1904 C1927 0.950 . S
H1905 C1929 0.950 . S
H1906 C1930 0.950 . S
H1907 C1931 0.951 . S
H1908 C1933 0.951 . S
H1909 C1935 0.950 . S
H1910 C1936 0.950 . S
H1911 C1938 0.950 . S
H1912 C1941 0.950 . S
H1913 C1942 0.950 . S
H1914 C1944 0.950 . S
H1915 C1945 0.950 . S
C1916 H1898 0.951 . S
C1916 C1917 1.366 . S
C1916 C1918 1.388 . S
C1917 C1916 1.366 . S
C1917 C1921 1.385 . S
C1918 H1899 0.951 . S
C1918 C1916 1.388 . S
C1918 C1919 1.366 . S
C1919 C1918 1.366 . S
C1919 C1920 1.414 . S
C1919 C1922 1.499 . S
C1920 H1900 0.950 . S
C1920 C1919 1.414 . S
C1920 C1921 1.374 . S
C1921 H1901 0.950 . S
C1921 C1917 1.385 . S
C1921 C1920 1.374 . S
C1922 C1919 1.499 . S
C1922 C1923 1.373 . S
C1922 C1924 1.389 . S
C1923 H1902 0.950 . S
C1923 C1922 1.373 . S
C1923 C1939 1.377 1_556 S
C1924 C1922 1.389 . S
C1924 C1925 1.524 . S
C1924 C1938 1.377 1_556 S
C1925 C1924 1.524 . S
C1925 C1926 1.397 . S
C1925 C1930 1.363 . S
C1926 H1903 0.950 . S
C1926 C1925 1.397 . S
C1926 C1927 1.334 . S
C1927 H1904 0.950 . S
C1927 C1926 1.334 . S
C1927 C1928 1.287 . S
C1928 C1927 1.287 . S
C1928 C1929 1.524 . S
C1928 H1947 0.913 . S
C1929 H1905 0.950 . S
C1929 C1928 1.524 . S
C1929 C1930 1.415 . S
C1930 H1906 0.950 . S
C1930 C1925 1.363 . S
C1930 C1929 1.415 . S
C1931 H1907 0.951 . S
C1931 C1932 1.366 . S
C1931 C1933 1.388 . S
C1932 C1931 1.366 . S
C1932 C1936 1.385 . S
C1933 H1908 0.951 . S
C1933 C1931 1.388 . S
C1933 C1934 1.366 . S
C1934 C1933 1.366 . S
C1934 C1935 1.414 . S
C1934 C1937 1.499 . S
C1935 H1909 0.950 . S
C1935 C1934 1.414 . S
C1935 C1936 1.374 . S
C1936 H1910 0.950 . S
C1936 C1932 1.385 . S
C1936 C1935 1.374 . S
C1937 C1934 1.499 . S
C1937 C1938 1.373 . S
C1937 C1939 1.389 . S
C1938 H1911 0.950 . S
C1938 C1924 1.377 1_554 S
C1938 C1937 1.373 . S
C1939 C1923 1.377 1_554 S
C1939 C1937 1.389 . S
C1939 C1940 1.524 . S
C1940 C1939 1.524 . S
C1940 C1941 1.397 . S
C1940 C1945 1.363 . S
C1941 H1912 0.950 . S
C1941 C1940 1.397 . S
C1941 C1942 1.334 . S
C1942 H1913 0.950 . S
C1942 C1941 1.334 . S
C1942 C1943 1.287 . S
C1943 C1942 1.287 . S
C1943 C1944 1.524 . S
C1943 H1946 0.999 . S
C1944 H1914 0.950 . S
C1944 C1943 1.524 . S
C1944 C1945 1.415 . S
C1945 H1915 0.950 . S
C1945 C1940 1.363 . S
C1945 C1944 1.415 . S
H1946 C1943 0.999 . S
H1947 C1928 0.913 . S
H1948 C1966 0.951 . S
H1949 C1968 0.951 . S
H1950 C1970 0.950 . S
H1951 C1971 0.950 . S
H1952 C1973 0.950 . S
H1953 C1976 0.950 . S
H1954 C1977 0.950 . S
H1955 C1979 0.950 . S
H1956 C1980 0.950 . S
H1957 C1981 0.951 . S
H1958 C1983 0.951 . S
H1959 C1985 0.950 . S
H1960 C1986 0.950 . S
H1961 C1988 0.950 . S
H1962 C1991 0.950 . S
H1963 C1992 0.950 . S
H1964 C1994 0.950 . S
H1965 C1995 0.950 . S
C1966 H1948 0.951 . S
C1966 C1967 1.366 . S
C1966 C1968 1.388 . S
C1967 C1966 1.366 . S
C1967 C1971 1.385 . S
C1968 H1949 0.951 . S
C1968 C1966 1.388 . S
C1968 C1969 1.366 . S
C1969 C1968 1.366 . S
C1969 C1970 1.414 . S
C1969 C1972 1.499 . S
C1970 H1950 0.950 . S
C1970 C1969 1.414 . S
C1970 C1971 1.374 . S
C1971 H1951 0.950 . S
C1971 C1967 1.385 . S
C1971 C1970 1.374 . S
C1972 C1969 1.499 . S
C1972 C1973 1.373 . S
C1972 C1974 1.389 . S
C1973 H1952 0.950 . S
C1973 C1972 1.373 . S
C1973 C1989 1.377 . S
C1974 C1972 1.389 . S
C1974 C1975 1.524 . S
C1974 C1988 1.377 . S
C1975 C1974 1.524 . S
C1975 C1976 1.397 . S
C1975 C1980 1.363 . S
C1976 H1953 0.950 . S
C1976 C1975 1.397 . S
C1976 C1977 1.334 . S
C1977 H1954 0.950 . S
C1977 C1976 1.334 . S
C1977 C1978 1.287 . S
C1978 C1977 1.287 . S
C1978 C1979 1.524 . S
C1978 H1997 0.913 . S
C1979 H1955 0.950 . S
C1979 C1978 1.524 . S
C1979 C1980 1.415 . S
C1980 H1956 0.950 . S
C1980 C1975 1.363 . S
C1980 C1979 1.415 . S
C1981 H1957 0.951 . S
C1981 C1982 1.366 . S
C1981 C1983 1.388 . S
C1982 C1981 1.366 . S
C1982 C1986 1.385 . S
C1983 H1958 0.951 . S
C1983 C1981 1.388 . S
C1983 C1984 1.366 . S
C1984 C1983 1.366 . S
C1984 C1985 1.414 . S
C1984 C1987 1.499 . S
C1985 H1959 0.950 . S
C1985 C1984 1.414 . S
C1985 C1986 1.374 . S
C1986 H1960 0.950 . S
C1986 C1982 1.385 . S
C1986 C1985 1.374 . S
C1987 C1984 1.499 . S
C1987 C1988 1.373 . S
C1987 C1989 1.389 . S
C1988 H1961 0.950 . S
C1988 C1974 1.377 . S
C1988 C1987 1.373 . S
C1989 C1973 1.377 . S
C1989 C1987 1.389 . S
C1989 C1990 1.524 . S
C1990 C1989 1.524 . S
C1990 C1991 1.397 . S
C1990 C1995 1.363 . S
C1991 H1962 0.950 . S
C1991 C1990 1.397 . S
C1991 C1992 1.334 . S
C1992 H1963 0.950 . S
C1992 C1991 1.334 . S
C1992 C1993 1.287 . S
C1993 C1992 1.287 . S
C1993 C1994 1.524 . S
C1993 H1996 0.999 . S
C1994 H1964 0.950 . S
C1994 C1993 1.524 . S
C1994 C1995 1.415 . S
C1995 H1965 0.950 . S
C1995 C1990 1.363 . S
C1995 C1994 1.415 . S
H1996 C1993 0.999 . S
H1997 C1978 0.913 . S
H1998 C2016 0.951 . S
H1999 C2018 0.951 . S
H2000 C2020 0.950 . S
H2001 C2021 0.950 . S
H2002 C2023 0.950 . S
H2003 C2026 0.950 . S
H2004 C2027 0.950 . S
H2005 C2029 0.950 . S
H2006 C2030 0.950 . S
H2007 C2031 0.951 . S
H2008 C2033 0.951 . S
H2009 C2035 0.950 . S
H2010 C2036 0.950 . S
H2011 C2038 0.950 . S
H2012 C2041 0.950 . S
H2013 C2042 0.950 . S
H2014 C2044 0.950 . S
H2015 C2045 0.950 . S
C2016 H1998 0.951 . S
C2016 C2017 1.366 . S
C2016 C2018 1.388 . S
C2017 C2016 1.366 . S
C2017 C2021 1.385 . S
C2018 H1999 0.951 . S
C2018 C2016 1.388 . S
C2018 C2019 1.366 . S
C2019 C2018 1.366 . S
C2019 C2020 1.414 . S
C2019 C2022 1.499 . S
C2020 H2000 0.950 . S
C2020 C2019 1.414 . S
C2020 C2021 1.374 . S
C2021 H2001 0.950 . S
C2021 C2017 1.385 . S
C2021 C2020 1.374 . S
C2022 C2019 1.499 . S
C2022 C2023 1.373 . S
C2022 C2024 1.389 . S
C2023 H2002 0.950 . S
C2023 C2022 1.373 . S
C2023 C2039 1.377 1_554 S
C2024 C2022 1.389 . S
C2024 C2025 1.524 . S
C2024 C2038 1.377 1_554 S
C2025 C2024 1.524 . S
C2025 C2026 1.397 . S
C2025 C2030 1.363 . S
C2026 H2003 0.950 . S
C2026 C2025 1.397 . S
C2026 C2027 1.334 . S
C2027 H2004 0.950 . S
C2027 C2026 1.334 . S
C2027 C2028 1.287 . S
C2028 C2027 1.287 . S
C2028 C2029 1.524 . S
C2028 H2047 0.913 . S
C2029 H2005 0.950 . S
C2029 C2028 1.524 . S
C2029 C2030 1.415 . S
C2030 H2006 0.950 . S
C2030 C2025 1.363 . S
C2030 C2029 1.415 . S
C2031 H2007 0.951 . S
C2031 C2032 1.366 . S
C2031 C2033 1.388 . S
C2032 C2031 1.366 . S
C2032 C2036 1.385 . S
C2033 H2008 0.951 . S
C2033 C2031 1.388 . S
C2033 C2034 1.366 . S
C2034 C2033 1.366 . S
C2034 C2035 1.414 . S
C2034 C2037 1.499 . S
C2035 H2009 0.950 . S
C2035 C2034 1.414 . S
C2035 C2036 1.374 . S
C2036 H2010 0.950 . S
C2036 C2032 1.385 . S
C2036 C2035 1.374 . S
C2037 C2034 1.499 . S
C2037 C2038 1.373 . S
C2037 C2039 1.389 . S
C2038 H2011 0.950 . S
C2038 C2024 1.377 1_556 S
C2038 C2037 1.373 . S
C2039 C2023 1.377 1_556 S
C2039 C2037 1.389 . S
C2039 C2040 1.524 . S
C2040 C2039 1.524 . S
C2040 C2041 1.397 . S
C2040 C2045 1.363 . S
C2041 H2012 0.950 . S
C2041 C2040 1.397 . S
C2041 C2042 1.334 . S
C2042 H2013 0.950 . S
C2042 C2041 1.334 . S
C2042 C2043 1.287 . S
C2043 C2042 1.287 . S
C2043 C2044 1.524 . S
C2043 H2046 0.999 . S
C2044 H2014 0.950 . S
C2044 C2043 1.524 . S
C2044 C2045 1.415 . S
C2045 H2015 0.950 . S
C2045 C2040 1.363 . S
C2045 C2044 1.415 . S
H2046 C2043 0.999 . S
H2047 C2028 0.913 . S
H2048 C2066 0.951 . S
H2049 C2068 0.951 . S
H2050 C2070 0.950 . S
H2051 C2071 0.950 . S
H2052 C2073 0.950 . S
H2053 C2076 0.950 . S
H2054 C2077 0.950 . S
H2055 C2079 0.950 . S
H2056 C2080 0.950 . S
H2057 C2081 0.951 . S
H2058 C2083 0.951 . S
H2059 C2085 0.950 . S
H2060 C2086 0.950 . S
H2061 C2088 0.950 . S
H2062 C2091 0.950 . S
H2063 C2092 0.950 . S
H2064 C2094 0.950 . S
H2065 C2095 0.950 . S
C2066 H2048 0.951 . S
C2066 C2067 1.366 . S
C2066 C2068 1.388 . S
C2067 C2066 1.366 . S
C2067 C2071 1.385 . S
C2068 H2049 0.951 . S
C2068 C2066 1.388 . S
C2068 C2069 1.366 . S
C2069 C2068 1.366 . S
C2069 C2070 1.414 . S
C2069 C2072 1.499 . S
C2070 H2050 0.950 . S
C2070 C2069 1.414 . S
C2070 C2071 1.374 . S
C2071 H2051 0.950 . S
C2071 C2067 1.385 . S
C2071 C2070 1.374 . S
C2072 C2069 1.499 . S
C2072 C2073 1.373 . S
C2072 C2074 1.389 . S
C2073 H2052 0.950 . S
C2073 C2072 1.373 . S
C2073 C2089 1.377 . S
C2074 C2072 1.389 . S
C2074 C2075 1.524 . S
C2074 C2088 1.377 . S
C2075 C2074 1.524 . S
C2075 C2076 1.397 . S
C2075 C2080 1.363 . S
C2076 H2053 0.950 . S
C2076 C2075 1.397 . S
C2076 C2077 1.334 . S
C2077 H2054 0.950 . S
C2077 C2076 1.334 . S
C2077 C2078 1.287 . S
C2078 C2077 1.287 . S
C2078 C2079 1.524 . S
C2078 H2097 0.913 . S
C2079 H2055 0.950 . S
C2079 C2078 1.524 . S
C2079 C2080 1.415 . S
C2080 H2056 0.950 . S
C2080 C2075 1.363 . S
C2080 C2079 1.415 . S
C2081 H2057 0.951 . S
C2081 C2082 1.366 . S
C2081 C2083 1.388 . S
C2082 C2081 1.366 . S
C2082 C2086 1.385 . S
C2083 H2058 0.951 . S
C2083 C2081 1.388 . S
C2083 C2084 1.366 . S
C2084 C2083 1.366 . S
C2084 C2085 1.414 . S
C2084 C2087 1.499 . S
C2085 H2059 0.950 . S
C2085 C2084 1.414 . S
C2085 C2086 1.374 . S
C2086 H2060 0.950 . S
C2086 C2082 1.385 . S
C2086 C2085 1.374 . S
C2087 C2084 1.499 . S
C2087 C2088 1.373 . S
C2087 C2089 1.389 . S
C2088 H2061 0.950 . S
C2088 C2074 1.377 . S
C2088 C2087 1.373 . S
C2089 C2073 1.377 . S
C2089 C2087 1.389 . S
C2089 C2090 1.524 . S
C2090 C2089 1.524 . S
C2090 C2091 1.397 . S
C2090 C2095 1.363 . S
C2091 H2062 0.950 . S
C2091 C2090 1.397 . S
C2091 C2092 1.334 . S
C2092 H2063 0.950 . S
C2092 C2091 1.334 . S
C2092 C2093 1.287 . S
C2093 C2092 1.287 . S
C2093 C2094 1.524 . S
C2093 H2096 0.999 . S
C2094 H2064 0.950 . S
C2094 C2093 1.524 . S
C2094 C2095 1.415 . S
C2095 H2065 0.950 . S
C2095 C2090 1.363 . S
C2095 C2094 1.415 . S
H2096 C2093 0.999 . S
H2097 C2078 0.913 . S
H2098 C2116 0.951 . S
H2099 C2118 0.951 . S
H2100 C2120 0.950 . S
H2101 C2121 0.950 . S
H2102 C2123 0.950 . S
H2103 C2126 0.950 . S
H2104 C2127 0.950 . S
H2105 C2129 0.950 . S
H2106 C2130 0.950 . S
H2107 C2131 0.951 . S
H2108 C2133 0.951 . S
H2109 C2135 0.950 . S
H2110 C2136 0.950 . S
H2111 C2138 0.950 . S
H2112 C2141 0.950 . S
H2113 C2142 0.950 . S
H2114 C2144 0.950 . S
H2115 C2145 0.950 . S
C2116 H2098 0.951 . S
C2116 C2117 1.366 . S
C2116 C2118 1.388 . S
C2117 C2116 1.366 . S
C2117 C2121 1.385 . S
C2118 H2099 0.951 . S
C2118 C2116 1.388 . S
C2118 C2119 1.366 . S
C2119 C2118 1.366 . S
C2119 C2120 1.414 . S
C2119 C2122 1.499 . S
C2120 H2100 0.950 . S
C2120 C2119 1.414 . S
C2120 C2121 1.374 . S
C2121 H2101 0.950 . S
C2121 C2117 1.385 . S
C2121 C2120 1.374 . S
C2122 C2119 1.499 . S
C2122 C2123 1.373 . S
C2122 C2124 1.389 . S
C2123 H2102 0.950 . S
C2123 C2122 1.373 . S
C2123 C2139 1.377 . S
C2124 C2122 1.389 . S
C2124 C2125 1.524 . S
C2124 C2138 1.377 . S
C2125 C2124 1.524 . S
C2125 C2126 1.397 . S
C2125 C2130 1.363 . S
C2126 H2103 0.950 . S
C2126 C2125 1.397 . S
C2126 C2127 1.334 . S
C2127 H2104 0.950 . S
C2127 C2126 1.334 . S
C2127 C2128 1.287 . S
C2128 C2127 1.287 . S
C2128 C2129 1.524 . S
C2128 H2147 0.913 . S
C2129 H2105 0.950 . S
C2129 C2128 1.524 . S
C2129 C2130 1.415 . S
C2130 H2106 0.950 . S
C2130 C2125 1.363 . S
C2130 C2129 1.415 . S
C2131 H2107 0.951 . S
C2131 C2132 1.366 . S
C2131 C2133 1.388 . S
C2132 C2131 1.366 . S
C2132 C2136 1.385 . S
C2133 H2108 0.951 . S
C2133 C2131 1.388 . S
C2133 C2134 1.366 . S
C2134 C2133 1.366 . S
C2134 C2135 1.414 . S
C2134 C2137 1.499 . S
C2135 H2109 0.950 . S
C2135 C2134 1.414 . S
C2135 C2136 1.374 . S
C2136 H2110 0.950 . S
C2136 C2132 1.385 . S
C2136 C2135 1.374 . S
C2137 C2134 1.499 . S
C2137 C2138 1.373 . S
C2137 C2139 1.389 . S
C2138 H2111 0.950 . S
C2138 C2124 1.377 . S
C2138 C2137 1.373 . S
C2139 C2123 1.377 . S
C2139 C2137 1.389 . S
C2139 C2140 1.524 . S
C2140 C2139 1.524 . S
C2140 C2141 1.397 . S
C2140 C2145 1.363 . S
C2141 H2112 0.950 . S
C2141 C2140 1.397 . S
C2141 C2142 1.334 . S
C2142 H2113 0.950 . S
C2142 C2141 1.334 . S
C2142 C2143 1.287 . S
C2143 C2142 1.287 . S
C2143 C2144 1.524 . S
C2143 H2146 0.999 . S
C2144 H2114 0.950 . S
C2144 C2143 1.524 . S
C2144 C2145 1.415 . S
C2145 H2115 0.950 . S
C2145 C2140 1.363 . S
C2145 C2144 1.415 . S
H2146 C2143 0.999 . S
H2147 C2128 0.913 . S
H2148 C2166 0.951 . S
H2149 C2168 0.951 . S
H2150 C2170 0.950 . S
H2151 C2171 0.950 . S
H2152 C2173 0.950 . S
H2153 C2176 0.950 . S
H2154 C2177 0.950 . S
H2155 C2179 0.950 . S
H2156 C2180 0.950 . S
H2157 C2181 0.951 . S
H2158 C2183 0.951 . S
H2159 C2185 0.950 . S
H2160 C2186 0.950 . S
H2161 C2188 0.950 . S
H2162 C2191 0.950 . S
H2163 C2192 0.950 . S
H2164 C2194 0.950 . S
H2165 C2195 0.950 . S
C2166 H2148 0.951 . S
C2166 C2167 1.366 . S
C2166 C2168 1.388 . S
C2167 C2166 1.366 . S
C2167 C2171 1.385 . S
C2168 H2149 0.951 . S
C2168 C2166 1.388 . S
C2168 C2169 1.366 . S
C2169 C2168 1.366 . S
C2169 C2170 1.414 . S
C2169 C2172 1.499 . S
C2170 H2150 0.950 . S
C2170 C2169 1.414 . S
C2170 C2171 1.374 . S
C2171 H2151 0.950 . S
C2171 C2167 1.385 . S
C2171 C2170 1.374 . S
C2172 C2169 1.499 . S
C2172 C2173 1.373 . S
C2172 C2174 1.389 . S
C2173 H2152 0.950 . S
C2173 C2172 1.373 . S
C2173 C2189 1.377 . S
C2174 C2172 1.389 . S
C2174 C2175 1.524 . S
C2174 C2188 1.377 . S
C2175 C2174 1.524 . S
C2175 C2176 1.397 . S
C2175 C2180 1.363 . S
C2176 H2153 0.950 . S
C2176 C2175 1.397 . S
C2176 C2177 1.334 . S
C2177 H2154 0.950 . S
C2177 C2176 1.334 . S
C2177 C2178 1.287 . S
C2178 C2177 1.287 . S
C2178 C2179 1.524 . S
C2178 H2197 0.913 . S
C2179 H2155 0.950 . S
C2179 C2178 1.524 . S
C2179 C2180 1.415 . S
C2180 H2156 0.950 . S
C2180 C2175 1.363 . S
C2180 C2179 1.415 . S
C2181 H2157 0.951 . S
C2181 C2182 1.366 . S
C2181 C2183 1.388 . S
C2182 C2181 1.366 . S
C2182 C2186 1.385 . S
C2183 H2158 0.951 . S
C2183 C2181 1.388 . S
C2183 C2184 1.366 . S
C2184 C2183 1.366 . S
C2184 C2185 1.414 . S
C2184 C2187 1.499 . S
C2185 H2159 0.950 . S
C2185 C2184 1.414 . S
C2185 C2186 1.374 . S
C2186 H2160 0.950 . S
C2186 C2182 1.385 . S
C2186 C2185 1.374 . S
C2187 C2184 1.499 . S
C2187 C2188 1.373 . S
C2187 C2189 1.389 . S
C2188 H2161 0.950 . S
C2188 C2174 1.377 . S
C2188 C2187 1.373 . S
C2189 C2173 1.377 . S
C2189 C2187 1.389 . S
C2189 C2190 1.524 . S
C2190 C2189 1.524 . S
C2190 C2191 1.397 . S
C2190 C2195 1.363 . S
C2191 H2162 0.950 . S
C2191 C2190 1.397 . S
C2191 C2192 1.334 . S
C2192 H2163 0.950 . S
C2192 C2191 1.334 . S
C2192 C2193 1.287 . S
C2193 C2192 1.287 . S
C2193 C2194 1.524 . S
C2193 H2196 0.999 . S
C2194 H2164 0.950 . S
C2194 C2193 1.524 . S
C2194 C2195 1.415 . S
C2195 H2165 0.950 . S
C2195 C2190 1.363 . S
C2195 C2194 1.415 . S
H2196 C2193 0.999 . S
H2197 C2178 0.913 . S
H2198 C2216 0.951 . S
H2199 C2218 0.951 . S
H2200 C2220 0.950 . S
H2201 C2221 0.950 . S
H2202 C2223 0.950 . S
H2203 C2226 0.950 . S
H2204 C2227 0.950 . S
H2205 C2229 0.950 . S
H2206 C2230 0.950 . S
H2207 C2231 0.951 . S
H2208 C2233 0.951 . S
H2209 C2235 0.950 . S
H2210 C2236 0.950 . S
H2211 C2238 0.950 . S
H2212 C2241 0.950 . S
H2213 C2242 0.950 . S
H2214 C2244 0.950 . S
H2215 C2245 0.950 . S
C2216 H2198 0.951 . S
C2216 C2217 1.366 . S
C2216 C2218 1.388 . S
C2217 C2216 1.366 . S
C2217 C2221 1.385 . S
C2218 H2199 0.951 . S
C2218 C2216 1.388 . S
C2218 C2219 1.366 . S
C2219 C2218 1.366 . S
C2219 C2220 1.414 . S
C2219 C2222 1.499 . S
C2220 H2200 0.950 . S
C2220 C2219 1.414 . S
C2220 C2221 1.374 . S
C2221 H2201 0.950 . S
C2221 C2217 1.385 . S
C2221 C2220 1.374 . S
C2222 C2219 1.499 . S
C2222 C2223 1.373 . S
C2222 C2224 1.389 . S
C2223 H2202 0.950 . S
C2223 C2222 1.373 . S
C2223 C2239 1.377 . S
C2224 C2222 1.389 . S
C2224 C2225 1.524 . S
C2224 C2238 1.377 . S
C2225 C2224 1.524 . S
C2225 C2226 1.397 . S
C2225 C2230 1.363 . S
C2226 H2203 0.950 . S
C2226 C2225 1.397 . S
C2226 C2227 1.334 . S
C2227 H2204 0.950 . S
C2227 C2226 1.334 . S
C2227 C2228 1.287 . S
C2228 C2227 1.287 . S
C2228 C2229 1.524 . S
C2228 H2247 0.913 . S
C2229 H2205 0.950 . S
C2229 C2228 1.524 . S
C2229 C2230 1.415 . S
C2230 H2206 0.950 . S
C2230 C2225 1.363 . S
C2230 C2229 1.415 . S
C2231 H2207 0.951 . S
C2231 C2232 1.366 . S
C2231 C2233 1.388 . S
C2232 C2231 1.366 . S
C2232 C2236 1.385 . S
C2233 H2208 0.951 . S
C2233 C2231 1.388 . S
C2233 C2234 1.366 . S
C2234 C2233 1.366 . S
C2234 C2235 1.414 . S
C2234 C2237 1.499 . S
C2235 H2209 0.950 . S
C2235 C2234 1.414 . S
C2235 C2236 1.374 . S
C2236 H2210 0.950 . S
C2236 C2232 1.385 . S
C2236 C2235 1.374 . S
C2237 C2234 1.499 . S
C2237 C2238 1.373 . S
C2237 C2239 1.389 . S
C2238 H2211 0.950 . S
C2238 C2224 1.377 . S
C2238 C2237 1.373 . S
C2239 C2223 1.377 . S
C2239 C2237 1.389 . S
C2239 C2240 1.524 . S
C2240 C2239 1.524 . S
C2240 C2241 1.397 . S
C2240 C2245 1.363 . S
C2241 H2212 0.950 . S
C2241 C2240 1.397 . S
C2241 C2242 1.334 . S
C2242 H2213 0.950 . S
C2242 C2241 1.334 . S
C2242 C2243 1.287 . S
C2243 C2242 1.287 . S
C2243 C2244 1.524 . S
C2243 H2246 0.999 . S
C2244 H2214 0.950 . S
C2244 C2243 1.524 . S
C2244 C2245 1.415 . S
C2245 H2215 0.950 . S
C2245 C2240 1.363 . S
C2245 C2244 1.415 . S
H2246 C2243 0.999 . S
H2247 C2228 0.913 . S
H2248 C2266 0.951 . S
H2249 C2268 0.951 . S
H2250 C2270 0.950 . S
H2251 C2271 0.950 . S
H2252 C2273 0.950 . S
H2253 C2276 0.950 . S
H2254 C2277 0.950 . S
H2255 C2279 0.950 . S
H2256 C2280 0.950 . S
H2257 C2281 0.951 . S
H2258 C2283 0.951 . S
H2259 C2285 0.950 . S
H2260 C2286 0.950 . S
H2261 C2288 0.950 . S
H2262 C2291 0.950 . S
H2263 C2292 0.950 . S
H2264 C2294 0.950 . S
H2265 C2295 0.950 . S
C2266 H2248 0.951 . S
C2266 C2267 1.366 . S
C2266 C2268 1.388 . S
C2267 C2266 1.366 . S
C2267 C2271 1.385 . S
C2268 H2249 0.951 . S
C2268 C2266 1.388 . S
C2268 C2269 1.366 . S
C2269 C2268 1.366 . S
C2269 C2270 1.414 . S
C2269 C2272 1.499 . S
C2270 H2250 0.950 . S
C2270 C2269 1.414 . S
C2270 C2271 1.374 . S
C2271 H2251 0.950 . S
C2271 C2267 1.385 . S
C2271 C2270 1.374 . S
C2272 C2269 1.499 . S
C2272 C2273 1.373 . S
C2272 C2274 1.389 . S
C2273 H2252 0.950 . S
C2273 C2272 1.373 . S
C2273 C2289 1.377 . S
C2274 C2272 1.389 . S
C2274 C2275 1.524 . S
C2274 C2288 1.377 . S
C2275 C2274 1.524 . S
C2275 C2276 1.397 . S
C2275 C2280 1.363 . S
C2276 H2253 0.950 . S
C2276 C2275 1.397 . S
C2276 C2277 1.334 . S
C2277 H2254 0.950 . S
C2277 C2276 1.334 . S
C2277 C2278 1.287 . S
C2278 C2277 1.287 . S
C2278 C2279 1.524 . S
C2278 H2297 0.913 . S
C2279 H2255 0.950 . S
C2279 C2278 1.524 . S
C2279 C2280 1.415 . S
C2280 H2256 0.950 . S
C2280 C2275 1.363 . S
C2280 C2279 1.415 . S
C2281 H2257 0.951 . S
C2281 C2282 1.366 . S
C2281 C2283 1.388 . S
C2282 C2281 1.366 . S
C2282 C2286 1.385 . S
C2283 H2258 0.951 . S
C2283 C2281 1.388 . S
C2283 C2284 1.366 . S
C2284 C2283 1.366 . S
C2284 C2285 1.414 . S
C2284 C2287 1.499 . S
C2285 H2259 0.950 . S
C2285 C2284 1.414 . S
C2285 C2286 1.374 . S
C2286 H2260 0.950 . S
C2286 C2282 1.385 . S
C2286 C2285 1.374 . S
C2287 C2284 1.499 . S
C2287 C2288 1.373 . S
C2287 C2289 1.389 . S
C2288 H2261 0.950 . S
C2288 C2274 1.377 . S
C2288 C2287 1.373 . S
C2289 C2273 1.377 . S
C2289 C2287 1.389 . S
C2289 C2290 1.524 . S
C2290 C2289 1.524 . S
C2290 C2291 1.397 . S
C2290 C2295 1.363 . S
C2291 H2262 0.950 . S
C2291 C2290 1.397 . S
C2291 C2292 1.334 . S
C2292 H2263 0.950 . S
C2292 C2291 1.334 . S
C2292 C2293 1.287 . S
C2293 C2292 1.287 . S
C2293 C2294 1.524 . S
C2293 H2296 0.999 . S
C2294 H2264 0.950 . S
C2294 C2293 1.524 . S
C2294 C2295 1.415 . S
C2295 H2265 0.950 . S
C2295 C2290 1.363 . S
C2295 C2294 1.415 . S
H2296 C2293 0.999 . S
H2297 C2278 0.913 . S
H2298 C2316 0.951 . S
H2299 C2318 0.951 . S
H2300 C2320 0.950 . S
H2301 C2321 0.950 . S
H2302 C2323 0.950 . S
H2303 C2326 0.950 . S
H2304 C2327 0.950 . S
H2305 C2329 0.950 . S
H2306 C2330 0.950 . S
H2307 C2331 0.951 . S
H2308 C2333 0.951 . S
H2309 C2335 0.950 . S
H2310 C2336 0.950 . S
H2311 C2338 0.950 . S
H2312 C2341 0.950 . S
H2313 C2342 0.950 . S
H2314 C2344 0.950 . S
H2315 C2345 0.950 . S
C2316 H2298 0.951 . S
C2316 C2317 1.366 . S
C2316 C2318 1.388 . S
C2317 C2316 1.366 . S
C2317 C2321 1.385 . S
C2318 H2299 0.951 . S
C2318 C2316 1.388 . S
C2318 C2319 1.366 . S
C2319 C2318 1.366 . S
C2319 C2320 1.414 . S
C2319 C2322 1.499 . S
C2320 H2300 0.950 . S
C2320 C2319 1.414 . S
C2320 C2321 1.374 . S
C2321 H2301 0.950 . S
C2321 C2317 1.385 . S
C2321 C2320 1.374 . S
C2322 C2319 1.499 . S
C2322 C2323 1.373 . S
C2322 C2324 1.389 . S
C2323 H2302 0.950 . S
C2323 C2322 1.373 . S
C2323 C2339 1.377 . S
C2324 C2322 1.389 . S
C2324 C2325 1.524 . S
C2324 C2338 1.377 . S
C2325 C2324 1.524 . S
C2325 C2326 1.397 . S
C2325 C2330 1.363 . S
C2326 H2303 0.950 . S
C2326 C2325 1.397 . S
C2326 C2327 1.334 . S
C2327 H2304 0.950 . S
C2327 C2326 1.334 . S
C2327 C2328 1.287 . S
C2328 C2327 1.287 . S
C2328 C2329 1.524 . S
C2328 H2347 0.913 . S
C2329 H2305 0.950 . S
C2329 C2328 1.524 . S
C2329 C2330 1.415 . S
C2330 H2306 0.950 . S
C2330 C2325 1.363 . S
C2330 C2329 1.415 . S
C2331 H2307 0.951 . S
C2331 C2332 1.366 . S
C2331 C2333 1.388 . S
C2332 C2331 1.366 . S
C2332 C2336 1.385 . S
C2333 H2308 0.951 . S
C2333 C2331 1.388 . S
C2333 C2334 1.366 . S
C2334 C2333 1.366 . S
C2334 C2335 1.414 . S
C2334 C2337 1.499 . S
C2335 H2309 0.950 . S
C2335 C2334 1.414 . S
C2335 C2336 1.374 . S
C2336 H2310 0.950 . S
C2336 C2332 1.385 . S
C2336 C2335 1.374 . S
C2337 C2334 1.499 . S
C2337 C2338 1.373 . S
C2337 C2339 1.389 . S
C2338 H2311 0.950 . S
C2338 C2324 1.377 . S
C2338 C2337 1.373 . S
C2339 C2323 1.377 . S
C2339 C2337 1.389 . S
C2339 C2340 1.524 . S
C2340 C2339 1.524 . S
C2340 C2341 1.397 . S
C2340 C2345 1.363 . S
C2341 H2312 0.950 . S
C2341 C2340 1.397 . S
C2341 C2342 1.334 . S
C2342 H2313 0.950 . S
C2342 C2341 1.334 . S
C2342 C2343 1.287 . S
C2343 C2342 1.287 . S
C2343 C2344 1.524 . S
C2343 H2346 0.999 . S
C2344 H2314 0.950 . S
C2344 C2343 1.524 . S
C2344 C2345 1.415 . S
C2345 H2315 0.950 . S
C2345 C2340 1.363 . S
C2345 C2344 1.415 . S
H2346 C2343 0.999 . S
H2347 C2328 0.913 . S
H2348 C2366 0.951 . S
H2349 C2368 0.951 . S
H2350 C2370 0.950 . S
H2351 C2371 0.950 . S
H2352 C2373 0.950 . S
H2353 C2376 0.950 . S
H2354 C2377 0.950 . S
H2355 C2379 0.950 . S
H2356 C2380 0.950 . S
H2357 C2381 0.951 . S
H2358 C2383 0.951 . S
H2359 C2385 0.950 . S
H2360 C2386 0.950 . S
H2361 C2388 0.950 . S
H2362 C2391 0.950 . S
H2363 C2392 0.950 . S
H2364 C2394 0.950 . S
H2365 C2395 0.950 . S
C2366 H2348 0.951 . S
C2366 C2367 1.366 . S
C2366 C2368 1.388 . S
C2367 C2366 1.366 . S
C2367 C2371 1.385 . S
C2368 H2349 0.951 . S
C2368 C2366 1.388 . S
C2368 C2369 1.366 . S
C2369 C2368 1.366 . S
C2369 C2370 1.414 . S
C2369 C2372 1.499 . S
C2370 H2350 0.950 . S
C2370 C2369 1.414 . S
C2370 C2371 1.374 . S
C2371 H2351 0.950 . S
C2371 C2367 1.385 . S
C2371 C2370 1.374 . S
C2372 C2369 1.499 . S
C2372 C2373 1.373 . S
C2372 C2374 1.389 . S
C2373 H2352 0.950 . S
C2373 C2372 1.373 . S
C2373 C2389 1.377 . S
C2374 C2372 1.389 . S
C2374 C2375 1.524 . S
C2374 C2388 1.377 . S
C2375 C2374 1.524 . S
C2375 C2376 1.397 . S
C2375 C2380 1.363 . S
C2376 H2353 0.950 . S
C2376 C2375 1.397 . S
C2376 C2377 1.334 . S
C2377 H2354 0.950 . S
C2377 C2376 1.334 . S
C2377 C2378 1.287 . S
C2378 C2377 1.287 . S
C2378 C2379 1.524 . S
C2378 H2397 0.913 . S
C2379 H2355 0.950 . S
C2379 C2378 1.524 . S
C2379 C2380 1.415 . S
C2380 H2356 0.950 . S
C2380 C2375 1.363 . S
C2380 C2379 1.415 . S
C2381 H2357 0.951 . S
C2381 C2382 1.366 . S
C2381 C2383 1.388 . S
C2382 C2381 1.366 . S
C2382 C2386 1.385 . S
C2383 H2358 0.951 . S
C2383 C2381 1.388 . S
C2383 C2384 1.366 . S
C2384 C2383 1.366 . S
C2384 C2385 1.414 . S
C2384 C2387 1.499 . S
C2385 H2359 0.950 . S
C2385 C2384 1.414 . S
C2385 C2386 1.374 . S
C2386 H2360 0.950 . S
C2386 C2382 1.385 . S
C2386 C2385 1.374 . S
C2387 C2384 1.499 . S
C2387 C2388 1.373 . S
C2387 C2389 1.389 . S
C2388 H2361 0.950 . S
C2388 C2374 1.377 . S
C2388 C2387 1.373 . S
C2389 C2373 1.377 . S
C2389 C2387 1.389 . S
C2389 C2390 1.524 . S
C2390 C2389 1.524 . S
C2390 C2391 1.397 . S
C2390 C2395 1.363 . S
C2391 H2362 0.950 . S
C2391 C2390 1.397 . S
C2391 C2392 1.334 . S
C2392 H2363 0.950 . S
C2392 C2391 1.334 . S
C2392 C2393 1.287 . S
C2393 C2392 1.287 . S
C2393 C2394 1.524 . S
C2393 H2396 0.999 . S
C2394 H2364 0.950 . S
C2394 C2393 1.524 . S
C2394 C2395 1.415 . S
C2395 H2365 0.950 . S
C2395 C2390 1.363 . S
C2395 C2394 1.415 . S
H2396 C2393 0.999 . S
H2397 C2378 0.913 . S
H2398 C2416 0.951 . S
H2399 C2418 0.951 . S
H2400 C2420 0.950 . S
H2401 C2421 0.950 . S
H2402 C2423 0.950 . S
H2403 C2426 0.950 . S
H2404 C2427 0.950 . S
H2405 C2429 0.950 . S
H2406 C2430 0.950 . S
H2407 C2431 0.951 . S
H2408 C2433 0.951 . S
H2409 C2435 0.950 . S
H2410 C2436 0.950 . S
H2411 C2438 0.950 . S
H2412 C2441 0.950 . S
H2413 C2442 0.950 . S
H2414 C2444 0.950 . S
H2415 C2445 0.950 . S
C2416 H2398 0.951 . S
C2416 C2417 1.366 . S
C2416 C2418 1.388 . S
C2417 C2416 1.366 . S
C2417 C2421 1.385 . S
C2418 H2399 0.951 . S
C2418 C2416 1.388 . S
C2418 C2419 1.366 . S
C2419 C2418 1.366 . S
C2419 C2420 1.414 . S
C2419 C2422 1.499 . S
C2420 H2400 0.950 . S
C2420 C2419 1.414 . S
C2420 C2421 1.374 . S
C2421 H2401 0.950 . S
C2421 C2417 1.385 . S
C2421 C2420 1.374 . S
C2422 C2419 1.499 . S
C2422 C2423 1.373 . S
C2422 C2424 1.389 . S
C2423 H2402 0.950 . S
C2423 C2422 1.373 . S
C2423 C2439 1.377 . S
C2424 C2422 1.389 . S
C2424 C2425 1.524 . S
C2424 C2438 1.377 . S
C2425 C2424 1.524 . S
C2425 C2426 1.397 . S
C2425 C2430 1.363 . S
C2426 H2403 0.950 . S
C2426 C2425 1.397 . S
C2426 C2427 1.334 . S
C2427 H2404 0.950 . S
C2427 C2426 1.334 . S
C2427 C2428 1.287 . S
C2428 C2427 1.287 . S
C2428 C2429 1.524 . S
C2428 H2447 0.913 . S
C2429 H2405 0.950 . S
C2429 C2428 1.524 . S
C2429 C2430 1.415 . S
C2430 H2406 0.950 . S
C2430 C2425 1.363 . S
C2430 C2429 1.415 . S
C2431 H2407 0.951 . S
C2431 C2432 1.366 . S
C2431 C2433 1.388 . S
C2432 C2431 1.366 . S
C2432 C2436 1.385 . S
C2433 H2408 0.951 . S
C2433 C2431 1.388 . S
C2433 C2434 1.366 . S
C2434 C2433 1.366 . S
C2434 C2435 1.414 . S
C2434 C2437 1.499 . S
C2435 H2409 0.950 . S
C2435 C2434 1.414 . S
C2435 C2436 1.374 . S
C2436 H2410 0.950 . S
C2436 C2432 1.385 . S
C2436 C2435 1.374 . S
C2437 C2434 1.499 . S
C2437 C2438 1.373 . S
C2437 C2439 1.389 . S
C2438 H2411 0.950 . S
C2438 C2424 1.377 . S
C2438 C2437 1.373 . S
C2439 C2423 1.377 . S
C2439 C2437 1.389 . S
C2439 C2440 1.524 . S
C2440 C2439 1.524 . S
C2440 C2441 1.397 . S
C2440 C2445 1.363 . S
C2441 H2412 0.950 . S
C2441 C2440 1.397 . S
C2441 C2442 1.334 . S
C2442 H2413 0.950 . S
C2442 C2441 1.334 . S
C2442 C2443 1.287 . S
C2443 C2442 1.287 . S
C2443 C2444 1.524 . S
C2443 H2446 0.999 . S
C2444 H2414 0.950 . S
C2444 C2443 1.524 . S
C2444 C2445 1.415 . S
C2445 H2415 0.950 . S
C2445 C2440 1.363 . S
C2445 C2444 1.415 . S
H2446 C2443 0.999 . S
H2447 C2428 0.913 . S
C867 C29 1.757 . S
C882 C135 1.758 . S
C917 C188 1.758 . S
C932 C82 1.758 . S
C967 C241 1.758 . S
C982 C347 1.758 . S
C1017 C400 1.758 . S
C1032 C294 1.758 . S
C1067 C453 1.753 . S
C1082 C559 1.753 . S
C1117 C612 1.753 . S
C1132 C506 1.753 . S
C1167 C665 1.753 . S
C1182 C771 1.753 . S
C1217 C824 1.753 . S
C1232 C718 1.753 . S
C1267 C250 1.912 . S
C1282 C38 1.911 . S
C1317 C91 1.912 . S
C1332 C303 1.912 . S
C1367 C144 1.912 . S
C1382 C356 1.912 . S
C1417 C409 1.911 . S
C1432 C197 1.912 . S
C1467 C462 1.905 . S
C1482 C674 1.905 . S
C1517 C515 1.905 . S
C1532 C727 1.905 . S
C1567 C568 1.905 . S
C1582 C780 1.905 . S
C1617 C621 1.905 . S
C1632 C833 1.905 . S
C1667 C569 1.871 . S
C1682 C39 1.868 . S
C1717 C622 1.871 . S
C1732 C92 1.868 . S
C1767 C145 1.867 . S
C1782 C463 1.872 . S
C1817 C198 1.868 . S
C1832 C516 1.871 . S
C1867 C251 1.867 . S
C1882 C781 1.871 . S
C1917 C304 1.868 . S
C1932 C834 1.871 . S
C1967 C357 1.868 . S
C1982 C675 1.871 . S
C2017 C728 1.871 . S
C2032 C410 1.867 . S
C2067 C22 1.658 . S
C2082 C817 1.660 . S
C2117 C658 1.660 . S
C2132 C75 1.658 . S
C2167 C128 1.658 . S
C2182 C711 1.661 . S
C2217 C764 1.661 . S
C2232 C181 1.658 . S
C2267 C499 1.661 . S
C2282 C234 1.658 . S
C2317 C287 1.658 . S
C2332 C552 1.661 . S
C2367 C605 1.661 . S
C2382 C340 1.658 . S
C2417 C446 1.661 . S
C2432 C393 1.658 . S
